Neostigmine bromide.cdx
 OpenBabel08302521383D

 36 35  0  0  0  0  0  0  0  0999 V2000
    1.0422    0.0193    1.2265 C   0  0  0  0  0  0  0  0  0  0  0  0
    0.4188   -1.1225    0.7270 C   0  0  0  0  0  0  0  0  0  0  0  0
   -0.9104   -1.1101    0.2913 C   0  0  0  0  0  0  0  0  0  0  0  0
   -1.6202    0.1066    0.3104 C   0  0  0  0  0  0  0  0  0  0  0  0
   -0.9721    1.2561    0.8156 C   0  0  0  0  0  0  0  0  0  0  0  0
    0.3441    1.2136    1.2752 C   0  0  0  0  0  0  0  0  0  0  0  0
    1.3199   -2.2106    0.5568 O   0  0  0  0  0  0  0  0  0  0  0  0
    1.1330   -3.5854    0.3855 C   0  0  0  0  0  0  0  0  0  0  0  0
    2.3359   -4.2255    0.0980 N   0  0  0  0  0  0  0  0  0  0  0  0
    3.5147   -3.4981   -0.3353 C   0  0  0  0  0  0  0  0  0  0  0  0
    2.3848   -5.6645   -0.0522 C   0  0  0  0  0  0  0  0  0  0  0  0
    0.0488   -4.1350    0.5406 O   0  0  0  0  0  0  0  0  0  0  0  0
   -3.0504    0.2682   -0.2207 N   0  3  0  0  0  0  0  0  0  0  0  0
   -3.5874   -1.0343   -0.7947 C   0  0  0  0  0  0  0  0  0  0  0  0
   -3.9661    0.7407    0.8894 C   0  0  0  0  0  0  0  0  0  0  0  0
   -3.0282    1.2810   -1.3731 C   0  0  0  0  0  0  0  0  0  0  0  0
    0.1302    0.0775   -3.3100 Br  0  5  0  0  0  0  0  0  0  0  0  0
    2.0884   -0.0170    1.5190 H   0  0  0  0  0  0  0  0  0  0  0  0
   -1.3196   -2.0223   -0.1233 H   0  0  0  0  0  0  0  0  0  0  0  0
   -1.4581    2.2264    0.8209 H   0  0  0  0  0  0  0  0  0  0  0  0
    0.8418    2.1184    1.6122 H   0  0  0  0  0  0  0  0  0  0  0  0
    4.3770   -3.8269    0.2576 H   0  0  0  0  0  0  0  0  0  0  0  0
    3.6996   -3.7245   -1.3897 H   0  0  0  0  0  0  0  0  0  0  0  0
    3.4198   -2.4139   -0.2322 H   0  0  0  0  0  0  0  0  0  0  0  0
    1.5850   -6.1509    0.5162 H   0  0  0  0  0  0  0  0  0  0  0  0
    2.2794   -5.9160   -1.1115 H   0  0  0  0  0  0  0  0  0  0  0  0
    3.3498   -6.0347    0.3114 H   0  0  0  0  0  0  0  0  0  0  0  0
   -3.6203   -1.7883   -0.0021 H   0  0  0  0  0  0  0  0  0  0  0  0
   -4.6081   -0.8485   -1.1497 H   0  0  0  0  0  0  0  0  0  0  0  0
   -2.9631   -1.3540   -1.6336 H   0  0  0  0  0  0  0  0  0  0  0  0
   -4.8990    1.0967    0.4368 H   0  0  0  0  0  0  0  0  0  0  0  0
   -4.1786   -0.0970    1.5597 H   0  0  0  0  0  0  0  0  0  0  0  0
   -3.5092    1.5664    1.4430 H   0  0  0  0  0  0  0  0  0  0  0  0
   -2.6233    2.2357   -1.0300 H   0  0  0  0  0  0  0  0  0  0  0  0
   -2.4566    0.8715   -2.1994 H   0  0  0  0  0  0  0  0  0  0  0  0
   -4.0620    1.4365   -1.7021 H   0  0  0  0  0  0  0  0  0  0  0  0
  1  2  2  0  0  0  0
  1 18  1  0  0  0  0
  2  3  1  0  0  0  0
  2  7  1  0  0  0  0
  3  4  2  0  0  0  0
  3 19  1  0  0  0  0
  4  5  1  0  0  0  0
  4 13  1  0  0  0  0
  5  6  2  0  0  0  0
  5 20  1  0  0  0  0
  6  1  1  0  0  0  0
  6 21  1  0  0  0  0
  7  8  1  0  0  0  0
  8  9  1  0  0  0  0
  8 12  2  0  0  0  0
  9 10  1  0  0  0  0
  9 11  1  0  0  0  0
 10 22  1  0  0  0  0
 10 23  1  0  0  0  0
 10 24  1  0  0  0  0
 11 25  1  0  0  0  0
 11 26  1  0  0  0  0
 11 27  1  0  0  0  0
 13 14  1  0  0  0  0
 13 15  1  0  0  0  0
 13 16  1  0  0  0  0
 14 28  1  0  0  0  0
 14 29  1  0  0  0  0
 14 30  1  0  0  0  0
 15 31  1  0  0  0  0
 15 32  1  0  0  0  0
 15 33  1  0  0  0  0
 16 34  1  0  0  0  0
 16 35  1  0  0  0  0
 16 36  1  0  0  0  0
M  CHG  2  13   1  17  -1
M  END
>  <Mol_ID>
7759

>  <Formula>
C12H19BrN2O2

>  <MolWeight>
303.19546

>  <Cat>
S2490

>  <Name>
Neostigmine Bromide

>  <Synonyms>
N/A

>  <Target>
AChR

>  <Form>
Bromide

>  <CAS>
114-80-7

>  <URL>
http://selleckchem.com/products/Neostigmine-bromide(Prostigmin).html

$$$$
