Neotame
 OpenBabel08302521303D

 57 57  0  0  0  0  0  0  0  0999 V2000
    2.1713    1.5450   -0.7006 O   0  0  0  0  0  0  0  0  0  0  0  0
    0.3933   -2.7816   -0.9422 O   0  0  0  0  0  0  0  0  0  0  0  0
    0.3981    0.5111    2.4828 O   0  0  0  0  0  0  0  0  0  0  0  0
    0.4033   -1.7320    2.6595 O   0  0  0  0  0  0  0  0  0  0  0  0
   -0.3296   -2.2500   -3.0544 O   0  0  0  0  0  0  0  0  0  0  0  0
    2.6412    1.8119    1.9461 N   0  0  0  0  0  0  0  0  0  0  0  0
    2.0843   -0.7288   -0.7066 N   0  0  0  0  0  0  0  0  0  0  0  0
    5.3535    2.5381    4.6962 C   0  0  0  0  0  0  0  0  0  0  0  0
    4.7365    2.2066    3.3064 C   0  0  0  0  0  0  0  0  0  0  0  0
    3.2102    2.1137    3.2684 C   0  0  0  0  0  0  0  0  0  0  0  0
    4.9991    1.4621    5.7374 C   0  0  0  0  0  0  0  0  0  0  0  0
    6.8847    2.5752    4.5275 C   0  0  0  0  0  0  0  0  0  0  0  0
    4.8898    3.9073    5.2221 C   0  0  0  0  0  0  0  0  0  0  0  0
    2.9868    0.4869    1.3324 C   0  0  1  0  0  0  0  0  0  0  0  0
    2.5017   -0.6625    2.2131 C   0  0  0  0  0  0  0  0  0  0  0  0
    2.3702    0.4811   -0.1067 C   0  0  0  0  0  0  0  0  0  0  0  0
    1.2598   -0.7742   -1.9283 C   0  0  1  0  0  0  0  0  0  0  0  0
    2.0253   -0.4648   -3.2251 C   0  0  0  0  0  0  0  0  0  0  0  0
    1.0092   -0.6896    2.4467 C   0  0  0  0  0  0  0  0  0  0  0  0
    3.1935   -1.3449   -3.6140 C   0  0  0  0  0  0  0  0  0  0  0  0
    0.3705   -2.0191   -2.0740 C   0  0  0  0  0  0  0  0  0  0  0  0
    3.0047   -2.4839   -4.4107 C   0  0  0  0  0  0  0  0  0  0  0  0
    4.5034   -0.9431   -3.3131 C   0  0  0  0  0  0  0  0  0  0  0  0
    4.1035   -3.1693   -4.9397 C   0  0  0  0  0  0  0  0  0  0  0  0
    5.5990   -1.6269   -3.8465 C   0  0  0  0  0  0  0  0  0  0  0  0
    5.3988   -2.7311   -4.6713 C   0  0  0  0  0  0  0  0  0  0  0  0
   -0.5763   -3.8360   -0.9103 C   0  0  0  0  0  0  0  0  0  0  0  0
    1.0206    1.2673    2.3203 H   0  0  0  0  0  0  0  0  0  0  0  0
    2.9225    2.5384    1.2725 H   0  0  0  0  0  0  0  0  0  0  0  0
    2.2236   -1.6123   -0.2362 H   0  0  0  0  0  0  0  0  0  0  0  0
    5.1615    1.2539    2.9663 H   0  0  0  0  0  0  0  0  0  0  0  0
    5.0581    2.9666    2.5819 H   0  0  0  0  0  0  0  0  0  0  0  0
    2.7851    3.0770    3.5709 H   0  0  0  0  0  0  0  0  0  0  0  0
    2.8401    1.3911    4.0009 H   0  0  0  0  0  0  0  0  0  0  0  0
    5.2767    0.4627    5.3855 H   0  0  0  0  0  0  0  0  0  0  0  0
    5.5253    1.6404    6.6826 H   0  0  0  0  0  0  0  0  0  0  0  0
    3.9281    1.4539    5.9659 H   0  0  0  0  0  0  0  0  0  0  0  0
    7.1823    3.3517    3.8136 H   0  0  0  0  0  0  0  0  0  0  0  0
    7.3876    2.7858    5.4778 H   0  0  0  0  0  0  0  0  0  0  0  0
    7.2635    1.6165    4.1556 H   0  0  0  0  0  0  0  0  0  0  0  0
    5.0680    4.6982    4.4857 H   0  0  0  0  0  0  0  0  0  0  0  0
    3.8236    3.9091    5.4714 H   0  0  0  0  0  0  0  0  0  0  0  0
    5.4329    4.1786    6.1359 H   0  0  0  0  0  0  0  0  0  0  0  0
    4.0706    0.4177    1.1869 H   0  0  0  0  0  0  0  0  0  0  0  0
    2.7791   -1.6180    1.7549 H   0  0  0  0  0  0  0  0  0  0  0  0
    2.9962   -0.6452    3.1915 H   0  0  0  0  0  0  0  0  0  0  0  0
    0.5233    0.0334   -1.8042 H   0  0  0  0  0  0  0  0  0  0  0  0
    1.3206   -0.4647   -4.0681 H   0  0  0  0  0  0  0  0  0  0  0  0
    2.3923    0.5689   -3.1781 H   0  0  0  0  0  0  0  0  0  0  0  0
    2.0027   -2.8150   -4.6774 H   0  0  0  0  0  0  0  0  0  0  0  0
    4.6784   -0.0563   -2.7079 H   0  0  0  0  0  0  0  0  0  0  0  0
    3.9474   -4.0248   -5.5929 H   0  0  0  0  0  0  0  0  0  0  0  0
    6.6082   -1.2752   -3.6478 H   0  0  0  0  0  0  0  0  0  0  0  0
    6.2501   -3.2381   -5.1195 H   0  0  0  0  0  0  0  0  0  0  0  0
   -1.5185   -3.5523   -1.3930 H   0  0  0  0  0  0  0  0  0  0  0  0
   -0.1617   -4.7300   -1.3844 H   0  0  0  0  0  0  0  0  0  0  0  0
   -0.7953   -4.0621    0.1371 H   0  0  0  0  0  0  0  0  0  0  0  0
  1 16  2  0  0  0  0
  2 21  1  0  0  0  0
  2 27  1  0  0  0  0
  3 19  1  0  0  0  0
  3 28  1  0  0  0  0
  4 19  2  0  0  0  0
  5 21  2  0  0  0  0
  6 10  1  0  0  0  0
  6 29  1  0  0  0  0
  7 16  1  0  0  0  0
  7 30  1  0  0  0  0
  8  9  1  0  0  0  0
  8 11  1  0  0  0  0
  8 12  1  0  0  0  0
  8 13  1  0  0  0  0
  9 10  1  0  0  0  0
  9 31  1  0  0  0  0
  9 32  1  0  0  0  0
 10 33  1  0  0  0  0
 10 34  1  0  0  0  0
 11 35  1  0  0  0  0
 11 36  1  0  0  0  0
 11 37  1  0  0  0  0
 12 38  1  0  0  0  0
 12 39  1  0  0  0  0
 12 40  1  0  0  0  0
 13 41  1  0  0  0  0
 13 42  1  0  0  0  0
 13 43  1  0  0  0  0
 14  6  1  0  0  0  0
 14 15  1  0  0  0  0
 14 16  1  0  0  0  0
 14 44  1  6  0  0  0
 15 19  1  0  0  0  0
 15 45  1  0  0  0  0
 15 46  1  0  0  0  0
 17  7  1  0  0  0  0
 17 18  1  0  0  0  0
 17 21  1  0  0  0  0
 17 47  1  1  0  0  0
 18 20  1  0  0  0  0
 18 48  1  0  0  0  0
 18 49  1  0  0  0  0
 20 22  2  0  0  0  0
 20 23  1  0  0  0  0
 22 24  1  0  0  0  0
 22 50  1  0  0  0  0
 23 25  2  0  0  0  0
 23 51  1  0  0  0  0
 24 26  2  0  0  0  0
 24 52  1  0  0  0  0
 25 26  1  0  0  0  0
 25 53  1  0  0  0  0
 26 54  1  0  0  0  0
 27 55  1  0  0  0  0
 27 56  1  0  0  0  0
 27 57  1  0  0  0  0
M  END
>  <Mol_ID>
5737

>  <Formula>
C20H30N2O5

>  <MolWeight>
378.4626

>  <Cat>
S4442

>  <Name>
Neotame

>  <Synonyms>
N/A

>  <Target>
Others

>  <Form>
Free Base

>  <CAS>
165450-17-9

>  <URL>
http://www.selleckchem.com/products/neotame.html

$$$$
