Neotuberostemonine
 OpenBabel08302521323D

 60 64  0  0  0  0  0  0  0  0999 V2000
   -1.7009   -0.2030   -0.0322 N   0  0  3  0  0  0  0  0  0  0  0  0
   -2.7229    0.3289   -0.9019 C   0  0  0  0  0  0  0  0  0  0  0  0
   -2.3548    1.7305   -1.4004 C   0  0  0  0  0  0  0  0  0  0  0  0
   -1.8389    2.6187   -0.2661 C   0  0  0  0  0  0  0  0  0  0  0  0
   -0.3182    2.5903   -0.1230 C   0  0  0  0  0  0  0  0  0  0  0  0
    0.3942    1.2305    0.0491 C   0  0  1  0  0  0  0  0  0  0  0  0
   -0.3120   -0.0603   -0.4343 C   0  0  3  0  0  0  0  0  0  0  0  0
    0.3600   -1.2113    0.3079 C   0  0  3  0  0  0  0  0  0  0  0  0
    1.8415   -1.4056    0.0692 C   0  0  3  0  0  0  0  0  0  0  0  0
    2.5894   -0.0625    0.0619 C   0  0  3  0  0  0  0  0  0  0  0  0
    1.8680    1.2075   -0.5083 C   0  0  3  0  0  0  0  0  0  0  0  0
   -0.6834   -2.2997    0.3114 C   0  0  0  0  0  0  0  0  0  0  0  0
   -1.9490   -1.4752    0.6550 C   0  0  3  0  0  0  0  0  0  0  0  0
    3.8757   -0.3496   -0.4862 O   0  0  0  0  0  0  0  0  0  0  0  0
    2.5166   -2.1880   -1.0344 C   0  0  3  0  0  0  0  0  0  0  0  0
    3.9228   -1.6798   -0.8197 C   0  0  0  0  0  0  0  0  0  0  0  0
    4.9553   -2.3243   -0.9664 O   0  0  0  0  0  0  0  0  0  0  0  0
   -1.5394    0.1105    2.5852 O   0  0  0  0  0  0  0  0  0  0  0  0
   -2.2254   -1.0882    2.1601 C   0  0  3  0  0  0  0  0  0  0  0  0
   -1.9189   -2.1000    3.2453 C   0  0  0  0  0  0  0  0  0  0  0  0
   -0.7109   -1.5648    4.0045 C   0  0  3  0  0  0  0  0  0  0  0  0
   -0.6113   -0.1424    3.5405 C   0  0  0  0  0  0  0  0  0  0  0  0
    0.2031    0.6763    3.9381 O   0  0  0  0  0  0  0  0  0  0  0  0
    0.5850   -2.3297    3.7860 C   0  0  0  0  0  0  0  0  0  0  0  0
    2.1458   -1.9000   -2.4759 C   0  0  0  0  0  0  0  0  0  0  0  0
    1.8414    1.5392   -2.0282 C   0  0  0  0  0  0  0  0  0  0  0  0
    3.1135    1.5294   -2.8479 C   0  0  0  0  0  0  0  0  0  0  0  0
   -2.9105   -0.3282   -1.7591 H   0  0  0  0  0  0  0  0  0  0  0  0
   -3.6633    0.4048   -0.3416 H   0  0  0  0  0  0  0  0  0  0  0  0
   -1.6136    1.6715   -2.2080 H   0  0  0  0  0  0  0  0  0  0  0  0
   -3.2503    2.1869   -1.8373 H   0  0  0  0  0  0  0  0  0  0  0  0
   -2.1214    3.6561   -0.4837 H   0  0  0  0  0  0  0  0  0  0  0  0
   -2.3199    2.3680    0.6868 H   0  0  0  0  0  0  0  0  0  0  0  0
    0.0867    3.1616   -0.9568 H   0  0  0  0  0  0  0  0  0  0  0  0
   -0.0622    3.1953    0.7595 H   0  0  0  0  0  0  0  0  0  0  0  0
    0.4968    1.1530    1.1420 H   0  0  0  0  0  0  0  0  0  0  0  0
   -0.2363   -0.2234   -1.5116 H   0  0  0  0  0  0  0  0  0  0  0  0
    0.3812   -0.9009    1.3541 H   0  0  0  0  0  0  0  0  0  0  0  0
    2.1870   -1.9404    0.9727 H   0  0  0  0  0  0  0  0  0  0  0  0
    2.7660    0.1762    1.1231 H   0  0  0  0  0  0  0  0  0  0  0  0
    2.4032    2.0540   -0.0541 H   0  0  0  0  0  0  0  0  0  0  0  0
   -0.7777   -2.7440   -0.6889 H   0  0  0  0  0  0  0  0  0  0  0  0
   -0.4855   -3.1060    1.0209 H   0  0  0  0  0  0  0  0  0  0  0  0
   -2.8224   -2.0183    0.2690 H   0  0  0  0  0  0  0  0  0  0  0  0
    2.4810   -3.2619   -0.8203 H   0  0  0  0  0  0  0  0  0  0  0  0
   -3.2927   -0.8307    2.2082 H   0  0  0  0  0  0  0  0  0  0  0  0
   -1.8281   -3.1296    2.8954 H   0  0  0  0  0  0  0  0  0  0  0  0
   -2.7640   -2.0904    3.9487 H   0  0  0  0  0  0  0  0  0  0  0  0
   -0.9371   -1.5536    5.0760 H   0  0  0  0  0  0  0  0  0  0  0  0
    1.3494   -1.9907    4.4943 H   0  0  0  0  0  0  0  0  0  0  0  0
    0.4430   -3.4044    3.9233 H   0  0  0  0  0  0  0  0  0  0  0  0
    1.0134   -2.1785    2.7984 H   0  0  0  0  0  0  0  0  0  0  0  0
    3.0319   -1.6665   -3.0790 H   0  0  0  0  0  0  0  0  0  0  0  0
    1.6599   -2.7615   -2.9357 H   0  0  0  0  0  0  0  0  0  0  0  0
    1.4552   -1.0678   -2.5617 H   0  0  0  0  0  0  0  0  0  0  0  0
    1.0768    0.9697   -2.5611 H   0  0  0  0  0  0  0  0  0  0  0  0
    1.4981    2.5751   -2.1150 H   0  0  0  0  0  0  0  0  0  0  0  0
    3.3265    0.5443   -3.2628 H   0  0  0  0  0  0  0  0  0  0  0  0
    2.9687    2.1977   -3.7089 H   0  0  0  0  0  0  0  0  0  0  0  0
    3.9744    1.8944   -2.2875 H   0  0  0  0  0  0  0  0  0  0  0  0
  1  2  1  0  0  0  0
  2  3  1  0  0  0  0
  2 28  1  0  0  0  0
  2 29  1  0  0  0  0
  3  4  1  0  0  0  0
  3 30  1  0  0  0  0
  3 31  1  0  0  0  0
  4  5  1  0  0  0  0
  4 32  1  0  0  0  0
  4 33  1  0  0  0  0
  5 34  1  0  0  0  0
  5 35  1  0  0  0  0
  6  5  1  0  0  0  0
  6  7  1  0  0  0  0
  6 36  1  1  0  0  0
  7  1  1  0  0  0  0
  7 37  1  0  0  0  0
  8  9  1  0  0  0  0
  8  7  1  0  0  0  0
  8 12  1  0  0  0  0
  8 38  1  0  0  0  0
  9 10  1  0  0  0  0
  9 15  1  0  0  0  0
  9 39  1  0  0  0  0
 10 11  1  0  0  0  0
 10 14  1  0  0  0  0
 10 40  1  0  0  0  0
 11  6  1  0  0  0  0
 11 26  1  0  0  0  0
 11 41  1  0  0  0  0
 12 42  1  0  0  0  0
 12 43  1  0  0  0  0
 13 12  1  0  0  0  0
 13  1  1  0  0  0  0
 13 19  1  0  0  0  0
 13 44  1  0  0  0  0
 14 16  1  0  0  0  0
 15 16  1  0  0  0  0
 15 25  1  0  0  0  0
 15 45  1  0  0  0  0
 16 17  2  0  0  0  0
 18 22  1  0  0  0  0
 19 18  1  0  0  0  0
 19 20  1  0  0  0  0
 19 46  1  0  0  0  0
 20 21  1  0  0  0  0
 20 47  1  0  0  0  0
 20 48  1  0  0  0  0
 21 22  1  0  0  0  0
 21 24  1  0  0  0  0
 21 49  1  0  0  0  0
 22 23  2  0  0  0  0
 24 50  1  0  0  0  0
 24 51  1  0  0  0  0
 24 52  1  0  0  0  0
 25 53  1  0  0  0  0
 25 54  1  0  0  0  0
 25 55  1  0  0  0  0
 26 27  1  0  0  0  0
 26 56  1  0  0  0  0
 26 57  1  0  0  0  0
 27 58  1  0  0  0  0
 27 59  1  0  0  0  0
 27 60  1  0  0  0  0
M  END
>  <Mol_ID>
6333

>  <Formula>
C22H33NO4

>  <MolWeight>
375.50172

>  <Cat>
E0760

>  <Name>
Neotuberostemonine

>  <Synonyms>
NTS

>  <Target>
Immunology & Inflammation related

>  <Form>
free base

>  <CAS>
143120-46-1

>  <URL>
http://www.selleckchem.com/products/neotuberostemonine.html

$$$$
