Nepicastat hydrochloride.cdx
 OpenBabel08302521433D

 35 37  0  0  0  0  0  0  0  0999 V2000
    2.5702   -0.6638   -0.3398 C   0  0  0  0  0  0  0  0  0  0  0  0
    2.5673    0.7170   -0.2157 C   0  0  0  0  0  0  0  0  0  0  0  0
    1.3508    1.3842   -0.1955 C   0  0  0  0  0  0  0  0  0  0  0  0
    0.1349    0.6909   -0.2552 C   0  0  0  0  0  0  0  0  0  0  0  0
    0.1510   -0.7175   -0.3126 C   0  0  0  0  0  0  0  0  0  0  0  0
    1.3813   -1.3846   -0.4143 C   0  0  0  0  0  0  0  0  0  0  0  0
   -1.1460    1.4644   -0.1041 C   0  0  0  0  0  0  0  0  0  0  0  0
   -2.3846    0.6011   -0.2925 C   0  0  0  0  0  0  0  0  0  0  0  0
   -2.2877   -0.7291    0.4817 C   0  0  1  0  0  0  0  0  0  0  0  0
   -1.1172   -1.5267   -0.1361 C   0  0  0  0  0  0  0  0  0  0  0  0
    1.3466    2.7179   -0.0523 F   0  0  0  0  0  0  0  0  0  0  0  0
    3.7367   -1.3225   -0.3317 F   0  0  0  0  0  0  0  0  0  0  0  0
   -2.3015   -0.5633    1.9721 N   0  0  0  0  0  0  0  0  0  0  0  0
   -3.4988   -0.3320    2.6905 C   0  0  0  0  0  0  0  0  0  0  0  0
   -3.1999   -0.0491    3.9689 C   0  0  0  0  0  0  0  0  0  0  0  0
   -1.8541   -0.1004    4.1332 N   0  0  0  0  0  0  0  0  0  0  0  0
   -1.2399   -0.4768    2.9327 C   0  0  0  0  0  0  0  0  0  0  0  0
    0.3787   -0.7976    2.9443 S   0  0  0  0  0  0  0  0  0  0  0  0
   -4.8958   -0.5098    2.1874 C   0  0  0  0  0  0  0  0  0  0  0  0
   -5.3112    0.4533    1.1796 N   0  0  0  0  0  0  0  0  0  0  0  0
    3.4952    1.2636   -0.1046 H   0  0  0  0  0  0  0  0  0  0  0  0
    1.4270   -2.4694   -0.4514 H   0  0  0  0  0  0  0  0  0  0  0  0
   -1.1691    2.2827   -0.8339 H   0  0  0  0  0  0  0  0  0  0  0  0
   -1.1719    1.9147    0.8960 H   0  0  0  0  0  0  0  0  0  0  0  0
   -2.5006    0.3749   -1.3634 H   0  0  0  0  0  0  0  0  0  0  0  0
   -3.2627    1.1861   -0.0164 H   0  0  0  0  0  0  0  0  0  0  0  0
   -3.1878   -1.3155    0.2533 H   0  0  0  0  0  0  0  0  0  0  0  0
   -0.9271   -2.4251    0.4622 H   0  0  0  0  0  0  0  0  0  0  0  0
   -1.4140   -1.8667   -1.1383 H   0  0  0  0  0  0  0  0  0  0  0  0
   -3.8584    0.1511    4.7974 H   0  0  0  0  0  0  0  0  0  0  0  0
   -1.3443    0.0091    4.9963 H   0  0  0  0  0  0  0  0  0  0  0  0
   -5.0195   -1.5248    1.8045 H   0  0  0  0  0  0  0  0  0  0  0  0
   -5.5908   -0.4175    3.0353 H   0  0  0  0  0  0  0  0  0  0  0  0
   -6.3116    0.3473    1.0146 H   0  0  0  0  0  0  0  0  0  0  0  0
   -5.1857    1.3955    1.5472 H   0  0  0  0  0  0  0  0  0  0  0  0
  1  2  2  0  0  0  0
  1 12  1  0  0  0  0
  2  3  1  0  0  0  0
  2 21  1  0  0  0  0
  3  4  2  0  0  0  0
  3 11  1  0  0  0  0
  4  5  1  0  0  0  0
  4  7  1  0  0  0  0
  5  6  2  0  0  0  0
  6  1  1  0  0  0  0
  6 22  1  0  0  0  0
  7  8  1  0  0  0  0
  7 23  1  0  0  0  0
  7 24  1  0  0  0  0
  8 25  1  0  0  0  0
  8 26  1  0  0  0  0
  9  8  1  0  0  0  0
  9 10  1  0  0  0  0
  9 13  1  0  0  0  0
  9 27  1  6  0  0  0
 10  5  1  0  0  0  0
 10 28  1  0  0  0  0
 10 29  1  0  0  0  0
 13 14  1  0  0  0  0
 14 15  2  0  0  0  0
 14 19  1  0  0  0  0
 15 16  1  0  0  0  0
 15 30  1  0  0  0  0
 16 17  1  0  0  0  0
 16 31  1  0  0  0  0
 17 13  1  0  0  0  0
 17 18  2  0  0  0  0
 19 20  1  0  0  0  0
 19 32  1  0  0  0  0
 19 33  1  0  0  0  0
 20 34  1  0  0  0  0
 20 35  1  0  0  0  0
M  END
>  <Mol_ID>
881

>  <Formula>
C14H16ClF2N3S

>  <MolWeight>
331.8117464

>  <Cat>
S2695

>  <Name>
Nepicastat (SYN-117) HCl

>  <Synonyms>
N/A

>  <Target>
Hydroxylase

>  <Form>
Hydrochloride

>  <CAS>
170151-24-3

>  <URL>
http://selleckchem.com/products/nepicastat-hydrochloride.html

$$$$
