Nepodin
 OpenBabel08302521463D

 28 29  0  0  0  0  0  0  0  0999 V2000
    1.4345   -0.2058   -0.0428 O   0  0  0  0  0  0  0  0  0  0  0  0
   -0.2122   -0.9441   -1.9367 O   0  0  0  0  0  0  0  0  0  0  0  0
    2.0621    0.0833    2.6851 C   0  0  0  0  0  0  0  0  0  0  0  0
    2.2855    1.4502    2.0789 C   0  0  0  0  0  0  0  0  0  0  0  0
    2.8074   -0.3284    3.5722 O   0  0  0  0  0  0  0  0  0  0  0  0
    0.3948   -1.5775    4.6281 C   0  0  0  0  0  0  0  0  0  0  0  0
   -0.5165   -1.5769    0.3669 C   0  0  0  0  0  0  0  0  0  0  0  0
   -1.2743   -2.3132    1.3029 C   0  0  0  0  0  0  0  0  0  0  0  0
    0.5977   -0.8325    0.8555 C   0  0  0  0  0  0  0  0  0  0  0  0
   -0.9286   -1.6440   -0.9917 C   0  0  0  0  0  0  0  0  0  0  0  0
   -0.9210   -2.2825    2.6584 C   0  0  0  0  0  0  0  0  0  0  0  0
   -2.3722   -3.0769    0.8790 C   0  0  0  0  0  0  0  0  0  0  0  0
    0.9109   -0.7554    2.2271 C   0  0  0  0  0  0  0  0  0  0  0  0
   -2.0347   -2.3914   -1.4012 C   0  0  0  0  0  0  0  0  0  0  0  0
    0.1446   -1.5047    3.1427 C   0  0  0  0  0  0  0  0  0  0  0  0
   -2.7573   -3.1128   -0.4596 C   0  0  0  0  0  0  0  0  0  0  0  0
    1.1105   -0.4303   -0.9405 H   0  0  0  0  0  0  0  0  0  0  0  0
   -0.6706   -1.0332   -2.7924 H   0  0  0  0  0  0  0  0  0  0  0  0
    2.3406    2.1926    2.8809 H   0  0  0  0  0  0  0  0  0  0  0  0
    3.2293    1.4410    1.5269 H   0  0  0  0  0  0  0  0  0  0  0  0
    1.4777    1.7594    1.4133 H   0  0  0  0  0  0  0  0  0  0  0  0
   -0.5554   -1.4728    5.1671 H   0  0  0  0  0  0  0  0  0  0  0  0
    0.8268   -2.5536    4.8772 H   0  0  0  0  0  0  0  0  0  0  0  0
    1.0450   -0.7937    5.0120 H   0  0  0  0  0  0  0  0  0  0  0  0
   -1.4957   -2.8814    3.3667 H   0  0  0  0  0  0  0  0  0  0  0  0
   -2.9508   -3.6564    1.5998 H   0  0  0  0  0  0  0  0  0  0  0  0
   -2.3468   -2.4192   -2.4400 H   0  0  0  0  0  0  0  0  0  0  0  0
   -3.6167   -3.7021   -0.7635 H   0  0  0  0  0  0  0  0  0  0  0  0
  1  9  1  0  0  0  0
  1 17  1  0  0  0  0
  2 10  1  0  0  0  0
  2 18  1  0  0  0  0
  3  4  1  0  0  0  0
  3  5  2  0  0  0  0
  3 13  1  0  0  0  0
  4 19  1  0  0  0  0
  4 20  1  0  0  0  0
  4 21  1  0  0  0  0
  6 15  1  0  0  0  0
  6 22  1  0  0  0  0
  6 23  1  0  0  0  0
  6 24  1  0  0  0  0
  7  8  1  0  0  0  0
  7  9  2  0  0  0  0
  7 10  1  0  0  0  0
  8 11  2  0  0  0  0
  8 12  1  0  0  0  0
  9 13  1  0  0  0  0
 10 14  2  0  0  0  0
 11 15  1  0  0  0  0
 11 25  1  0  0  0  0
 12 16  2  0  0  0  0
 12 26  1  0  0  0  0
 13 15  2  0  0  0  0
 14 16  1  0  0  0  0
 14 27  1  0  0  0  0
 16 28  1  0  0  0  0
M  END
>  <Mol_ID>
9653

>  <Formula>
C13H12O3

>  <MolWeight>
216.23258

>  <Cat>
E2117

>  <Name>
Nepodin

>  <Synonyms>
Musizin

>  <Target>
COX, Parasite, GLUT, AMPK

>  <Form>
free base

>  <CAS>
3785-24-8

>  <URL>
https://www.selleckchem.com/products/nepodin.html

$$$$
