Nepsilon-Acetyl-L-lysine
 OpenBabel08302521383D

 29 28  0  0  0  0  0  0  0  0999 V2000
    0.9603   -0.0658    0.1915 C   0  0  0  0  0  0  0  0  0  0  0  0
    0.4879   -1.4231    0.7290 C   0  0  1  0  0  0  0  0  0  0  0  0
    0.5147    1.1303    1.0464 C   0  0  0  0  0  0  0  0  0  0  0  0
    0.9801   -2.5540   -0.1970 C   0  0  0  0  0  0  0  0  0  0  0  0
    0.9036   -1.6137    2.1304 N   0  0  0  0  0  0  0  0  0  0  0  0
    0.9884    2.4813    0.4981 C   0  0  0  0  0  0  0  0  0  0  0  0
    1.7764   -3.4626    0.4175 O   0  0  0  0  0  0  0  0  0  0  0  0
    0.6907   -2.6474   -1.3826 O   0  0  0  0  0  0  0  0  0  0  0  0
    0.4773    2.7996   -0.9064 C   0  0  0  0  0  0  0  0  0  0  0  0
    0.9549    4.0884   -1.3747 N   0  0  0  0  0  0  0  0  0  0  0  0
    2.1370    4.2294   -2.0612 C   0  0  0  0  0  0  0  0  0  0  0  0
    2.4723    5.6420   -2.4527 C   0  0  0  0  0  0  0  0  0  0  0  0
    2.8803    3.2881   -2.3424 O   0  0  0  0  0  0  0  0  0  0  0  0
    0.5752    0.0424   -0.8292 H   0  0  0  0  0  0  0  0  0  0  0  0
    2.0553   -0.0582    0.1114 H   0  0  0  0  0  0  0  0  0  0  0  0
   -0.6074   -1.4637    0.7057 H   0  0  0  0  0  0  0  0  0  0  0  0
   -0.5775    1.1453    1.1477 H   0  0  0  0  0  0  0  0  0  0  0  0
    0.9188    1.0204    2.0604 H   0  0  0  0  0  0  0  0  0  0  0  0
    0.4914   -2.4348    2.5642 H   0  0  0  0  0  0  0  0  0  0  0  0
    1.8990   -1.5093    2.2943 H   0  0  0  0  0  0  0  0  0  0  0  0
    0.6557    3.2671    1.1891 H   0  0  0  0  0  0  0  0  0  0  0  0
    2.0849    2.5065    0.5005 H   0  0  0  0  0  0  0  0  0  0  0  0
    1.8981   -3.2249    1.3540 H   0  0  0  0  0  0  0  0  0  0  0  0
    0.8029    2.0243   -1.6072 H   0  0  0  0  0  0  0  0  0  0  0  0
   -0.6160    2.8347   -0.9322 H   0  0  0  0  0  0  0  0  0  0  0  0
    0.3472    4.8912   -1.2766 H   0  0  0  0  0  0  0  0  0  0  0  0
    3.4517    5.8996   -2.0392 H   0  0  0  0  0  0  0  0  0  0  0  0
    2.5028    5.7146   -3.5439 H   0  0  0  0  0  0  0  0  0  0  0  0
    1.7385    6.3576   -2.0736 H   0  0  0  0  0  0  0  0  0  0  0  0
  1  2  1  0  0  0  0
  1  3  1  0  0  0  0
  1 14  1  0  0  0  0
  1 15  1  0  0  0  0
  2  4  1  0  0  0  0
  2  5  1  0  0  0  0
  2 16  1  6  0  0  0
  3  6  1  0  0  0  0
  3 17  1  0  0  0  0
  3 18  1  0  0  0  0
  4  7  1  0  0  0  0
  4  8  2  0  0  0  0
  5 19  1  0  0  0  0
  5 20  1  0  0  0  0
  6  9  1  0  0  0  0
  6 21  1  0  0  0  0
  6 22  1  0  0  0  0
  7 23  1  0  0  0  0
  9 10  1  0  0  0  0
  9 24  1  0  0  0  0
  9 25  1  0  0  0  0
 10 11  1  0  0  0  0
 10 26  1  0  0  0  0
 11 12  1  0  0  0  0
 11 13  2  0  0  0  0
 12 27  1  0  0  0  0
 12 28  1  0  0  0  0
 12 29  1  0  0  0  0
M  END
>  <Mol_ID>
7896

>  <Formula>
C8H16N2O3

>  <MolWeight>
188.22424

>  <Cat>
S6075

>  <Name>
Nepsilon-Acetyl-L-lysine

>  <Synonyms>
N/A

>  <Target>
Others

>  <Form>
free base

>  <CAS>
692-04-6

>  <URL>
http://www.selleck.cn/products/nepsilon-acetyl-l-lysine.html

$$$$
