Neutral Red Solution
 OpenBabel08302521343D

 35 37  0  0  0  0  0  0  0  0999 V2000
    0.9808   -0.1116   -0.0137 N   0  0  0  0  0  0  0  0  0  0  0  0
    0.1712   -1.3261   -0.0168 C   0  0  0  0  0  0  0  0  0  0  0  0
    0.2210    1.1377   -0.0144 C   0  0  0  0  0  0  0  0  0  0  0  0
    2.3677   -0.0977   -0.0167 C   0  0  0  0  0  0  0  0  0  0  0  0
    3.1493   -1.2666   -0.0176 C   0  0  0  0  0  0  0  0  0  0  0  0
    3.0942    1.1025   -0.0186 C   0  0  0  0  0  0  0  0  0  0  0  0
    4.5447   -1.2693   -0.0263 C   0  0  0  0  0  0  0  0  0  0  0  0
    4.4936    1.1269   -0.0240 C   0  0  0  0  0  0  0  0  0  0  0  0
    5.2307   -0.0428   -0.0299 C   0  0  0  0  0  0  0  0  0  0  0  0
    5.2156   -2.4389   -0.0315 N   0  0  0  0  0  0  0  0  0  0  0  0
    6.5738    0.0130   -0.0436 N   0  0  0  0  0  0  0  0  0  0  0  0
    6.5618   -2.3890   -0.0425 C   0  0  0  0  0  0  0  0  0  0  0  0
    7.2409   -1.1560   -0.0505 C   0  0  0  0  0  0  0  0  0  0  0  0
    7.3054   -3.5655   -0.0294 C   0  0  0  0  0  0  0  0  0  0  0  0
    8.6262   -1.1501   -0.0559 C   0  0  0  0  0  0  0  0  0  0  0  0
    8.7064   -3.5688   -0.0593 C   0  0  0  0  0  0  0  0  0  0  0  0
    9.3758   -2.3378   -0.0485 C   0  0  0  0  0  0  0  0  0  0  0  0
    9.3902   -4.7741    0.1458 N   0  0  0  0  0  0  0  0  0  0  0  0
   10.8763   -2.2514   -0.0386 C   0  0  0  0  0  0  0  0  0  0  0  0
   -0.4733   -1.3410    0.8692 H   0  0  0  0  0  0  0  0  0  0  0  0
   -0.4710   -1.3387   -0.9047 H   0  0  0  0  0  0  0  0  0  0  0  0
    0.7283   -2.2633   -0.0172 H   0  0  0  0  0  0  0  0  0  0  0  0
    0.4401    1.7305    0.8805 H   0  0  0  0  0  0  0  0  0  0  0  0
    0.4387    1.7289   -0.9107 H   0  0  0  0  0  0  0  0  0  0  0  0
   -0.8589    0.9479   -0.0134 H   0  0  0  0  0  0  0  0  0  0  0  0
    2.6900   -2.2487   -0.0146 H   0  0  0  0  0  0  0  0  0  0  0  0
    2.5887    2.0648   -0.0183 H   0  0  0  0  0  0  0  0  0  0  0  0
    5.0143    2.0817   -0.0261 H   0  0  0  0  0  0  0  0  0  0  0  0
    6.7634   -4.5072    0.0118 H   0  0  0  0  0  0  0  0  0  0  0  0
    9.1315   -0.1864   -0.0476 H   0  0  0  0  0  0  0  0  0  0  0  0
    8.8871   -5.6076   -0.1416 H   0  0  0  0  0  0  0  0  0  0  0  0
   10.3592   -4.7820   -0.1524 H   0  0  0  0  0  0  0  0  0  0  0  0
   11.2811   -2.7337    0.8563 H   0  0  0  0  0  0  0  0  0  0  0  0
   11.2856   -2.7329   -0.9328 H   0  0  0  0  0  0  0  0  0  0  0  0
   11.2203   -1.2115   -0.0402 H   0  0  0  0  0  0  0  0  0  0  0  0
  1  2  1  0  0  0  0
  1  3  1  0  0  0  0
  1  4  1  0  0  0  0
  2 20  1  0  0  0  0
  2 21  1  0  0  0  0
  2 22  1  0  0  0  0
  3 23  1  0  0  0  0
  3 24  1  0  0  0  0
  3 25  1  0  0  0  0
  4  5  2  0  0  0  0
  4  6  1  0  0  0  0
  5  7  1  0  0  0  0
  5 26  1  0  0  0  0
  6  8  2  0  0  0  0
  6 27  1  0  0  0  0
  7  9  2  0  0  0  0
  7 10  1  0  0  0  0
  8  9  1  0  0  0  0
  8 28  1  0  0  0  0
  9 11  1  0  0  0  0
 10 12  2  0  0  0  0
 11 13  2  0  0  0  0
 12 13  1  0  0  0  0
 12 14  1  0  0  0  0
 13 15  1  0  0  0  0
 14 16  2  0  0  0  0
 14 29  1  0  0  0  0
 15 17  2  0  0  0  0
 15 30  1  0  0  0  0
 16 17  1  0  0  0  0
 16 18  1  0  0  0  0
 17 19  1  0  0  0  0
 18 31  1  0  0  0  0
 18 32  1  0  0  0  0
 19 33  1  0  0  0  0
 19 34  1  0  0  0  0
 19 35  1  0  0  0  0
M  END
>  <Mol_ID>
6501

>  <Formula>
C15H17ClN4

>  <MolWeight>
288.77528

>  <Cat>
E2700

>  <Name>
Neutral Red Solution

>  <Target>
Dyes

>  <Form>
hydrochloride

>  <CAS>
553-24-2

>  <URL>
http://www.selleckchem.com/products/neutral-red-solution.html

$$$$
