NF-56-EJ40
 OpenBabel08302521343D

 62 65  0  0  0  0  0  0  0  0999 V2000
    1.2552   -0.1217   -1.3270 C   0  0  0  0  0  0  0  0  0  0  0  0
    0.5541   -1.3094   -1.1536 N   0  0  0  0  0  0  0  0  0  0  0  0
    0.8646    0.8097   -2.0231 O   0  0  0  0  0  0  0  0  0  0  0  0
    7.4808   -6.2784    0.6520 C   0  0  0  0  0  0  0  0  0  0  0  0
    0.2582   -2.3935   -3.8753 C   0  0  0  0  0  0  0  0  0  0  0  0
    0.7962   -1.3923   -4.8666 C   0  0  0  0  0  0  0  0  0  0  0  0
    0.7558   -0.0938   -4.5211 O   0  0  0  0  0  0  0  0  0  0  0  0
    1.3097   -1.7467   -5.9233 O   0  0  0  0  0  0  0  0  0  0  0  0
   12.0548   -6.7193   -1.0091 C   0  0  0  0  0  0  0  0  0  0  0  0
    5.2794   -2.5508    0.2920 C   0  0  0  0  0  0  0  0  0  0  0  0
    5.1430   -3.5829   -0.6556 C   0  0  0  0  0  0  0  0  0  0  0  0
    6.1069   -2.7988    1.3997 C   0  0  0  0  0  0  0  0  0  0  0  0
    5.7943   -4.8055   -0.5057 C   0  0  0  0  0  0  0  0  0  0  0  0
    6.7839   -4.0145    1.5432 C   0  0  0  0  0  0  0  0  0  0  0  0
    6.6432   -5.0213    0.5841 C   0  0  0  0  0  0  0  0  0  0  0  0
    4.5560   -1.2712    0.1373 C   0  0  0  0  0  0  0  0  0  0  0  0
    3.2910   -1.2502   -0.4658 C   0  0  0  0  0  0  0  0  0  0  0  0
    5.0792   -0.0405    0.5713 C   0  0  0  0  0  0  0  0  0  0  0  0
    2.5658   -0.0648   -0.6303 C   0  0  0  0  0  0  0  0  0  0  0  0
    4.3607    1.1542    0.4153 C   0  0  0  0  0  0  0  0  0  0  0  0
    3.1055    1.1435   -0.1914 C   0  0  0  0  0  0  0  0  0  0  0  0
    8.3532   -6.4133   -0.5192 N   0  0  0  0  0  0  0  0  0  0  0  0
    9.3007   -5.2874   -0.6562 C   0  0  0  0  0  0  0  0  0  0  0  0
    9.0937   -7.6843   -0.4987 C   0  0  0  0  0  0  0  0  0  0  0  0
   10.1963   -5.4462   -1.9047 C   0  0  0  0  0  0  0  0  0  0  0  0
   10.0185   -7.8382   -1.7304 C   0  0  0  0  0  0  0  0  0  0  0  0
   10.9499   -6.7145   -1.9625 N   0  0  0  0  0  0  0  0  0  0  0  0
   -0.7304   -1.4490   -1.7124 C   0  0  0  0  0  0  0  0  0  0  0  0
   -0.9010   -1.9446   -3.0163 C   0  0  0  0  0  0  0  0  0  0  0  0
   -1.8324   -1.1337   -0.9155 C   0  0  0  0  0  0  0  0  0  0  0  0
   -2.2096   -2.0878   -3.5089 C   0  0  0  0  0  0  0  0  0  0  0  0
   -3.1202   -1.2714   -1.4250 C   0  0  0  0  0  0  0  0  0  0  0  0
   -3.3096   -1.7489   -2.7197 C   0  0  0  0  0  0  0  0  0  0  0  0
    0.6453   -1.6672   -0.2089 H   0  0  0  0  0  0  0  0  0  0  0  0
    6.7844   -7.1296    0.6968 H   0  0  0  0  0  0  0  0  0  0  0  0
    8.0622   -6.3004    1.5814 H   0  0  0  0  0  0  0  0  0  0  0  0
    1.0882   -2.7587   -3.2602 H   0  0  0  0  0  0  0  0  0  0  0  0
   -0.0787   -3.2638   -4.4577 H   0  0  0  0  0  0  0  0  0  0  0  0
    0.4395    0.1274   -3.6130 H   0  0  0  0  0  0  0  0  0  0  0  0
   11.7322   -6.6460    0.0341 H   0  0  0  0  0  0  0  0  0  0  0  0
   12.6445   -7.6361   -1.1194 H   0  0  0  0  0  0  0  0  0  0  0  0
   12.7358   -5.8852   -1.2123 H   0  0  0  0  0  0  0  0  0  0  0  0
    4.5440   -3.4438   -1.5548 H   0  0  0  0  0  0  0  0  0  0  0  0
    6.2439   -2.0434    2.1670 H   0  0  0  0  0  0  0  0  0  0  0  0
    5.6862   -5.5699   -1.2732 H   0  0  0  0  0  0  0  0  0  0  0  0
    7.4455   -4.1528    2.3935 H   0  0  0  0  0  0  0  0  0  0  0  0
    2.8676   -2.1813   -0.8370 H   0  0  0  0  0  0  0  0  0  0  0  0
    6.0696    0.0106    1.0203 H   0  0  0  0  0  0  0  0  0  0  0  0
    4.7936    2.0905    0.7596 H   0  0  0  0  0  0  0  0  0  0  0  0
    2.5554    2.0771   -0.3233 H   0  0  0  0  0  0  0  0  0  0  0  0
    8.7632   -4.3405   -0.7753 H   0  0  0  0  0  0  0  0  0  0  0  0
    9.9198   -5.1935    0.2444 H   0  0  0  0  0  0  0  0  0  0  0  0
    9.6851   -7.7721    0.4210 H   0  0  0  0  0  0  0  0  0  0  0  0
    8.3809   -8.5207   -0.5031 H   0  0  0  0  0  0  0  0  0  0  0  0
    9.5612   -5.3856   -2.7987 H   0  0  0  0  0  0  0  0  0  0  0  0
   10.8817   -4.5926   -1.9748 H   0  0  0  0  0  0  0  0  0  0  0  0
    9.3872   -7.9385   -2.6237 H   0  0  0  0  0  0  0  0  0  0  0  0
   10.5753   -8.7799   -1.6565 H   0  0  0  0  0  0  0  0  0  0  0  0
   -1.6948   -0.7379    0.0875 H   0  0  0  0  0  0  0  0  0  0  0  0
   -2.3832   -2.4862   -4.5085 H   0  0  0  0  0  0  0  0  0  0  0  0
   -3.9775   -0.9995   -0.8144 H   0  0  0  0  0  0  0  0  0  0  0  0
   -4.3164   -1.8650   -3.1137 H   0  0  0  0  0  0  0  0  0  0  0  0
  1  2  1  0  0  0  0
  1  3  2  0  0  0  0
  1 19  1  0  0  0  0
  2 28  1  0  0  0  0
  2 34  1  0  0  0  0
  4 15  1  0  0  0  0
  4 22  1  0  0  0  0
  4 35  1  0  0  0  0
  4 36  1  0  0  0  0
  5  6  1  0  0  0  0
  5 29  1  0  0  0  0
  5 37  1  0  0  0  0
  5 38  1  0  0  0  0
  6  7  1  0  0  0  0
  6  8  2  0  0  0  0
  7 39  1  0  0  0  0
  9 27  1  0  0  0  0
  9 40  1  0  0  0  0
  9 41  1  0  0  0  0
  9 42  1  0  0  0  0
 10 11  2  0  0  0  0
 10 12  1  0  0  0  0
 10 16  1  0  0  0  0
 11 13  1  0  0  0  0
 11 43  1  0  0  0  0
 12 14  2  0  0  0  0
 12 44  1  0  0  0  0
 13 15  2  0  0  0  0
 13 45  1  0  0  0  0
 14 15  1  0  0  0  0
 14 46  1  0  0  0  0
 16 17  2  0  0  0  0
 16 18  1  0  0  0  0
 17 19  1  0  0  0  0
 17 47  1  0  0  0  0
 18 20  2  0  0  0  0
 18 48  1  0  0  0  0
 19 21  2  0  0  0  0
 20 21  1  0  0  0  0
 20 49  1  0  0  0  0
 21 50  1  0  0  0  0
 22 23  1  0  0  0  0
 22 24  1  0  0  0  0
 23 25  1  0  0  0  0
 23 51  1  0  0  0  0
 23 52  1  0  0  0  0
 24 26  1  0  0  0  0
 24 53  1  0  0  0  0
 24 54  1  0  0  0  0
 25 27  1  0  0  0  0
 25 55  1  0  0  0  0
 25 56  1  0  0  0  0
 26 27  1  0  0  0  0
 26 57  1  0  0  0  0
 26 58  1  0  0  0  0
 28 29  2  0  0  0  0
 28 30  1  0  0  0  0
 29 31  1  0  0  0  0
 30 32  2  0  0  0  0
 30 59  1  0  0  0  0
 31 33  2  0  0  0  0
 31 60  1  0  0  0  0
 32 33  1  0  0  0  0
 32 61  1  0  0  0  0
 33 62  1  0  0  0  0
M  END
>  <Mol_ID>
6423

>  <Formula>
C27H29N3O3

>  <MolWeight>
443.53746

>  <Cat>
E1235

>  <Name>
NF-56-EJ40

>  <Target>
GPR

>  <Form>
free base

>  <CAS>
2380230-73-7

>  <URL>
http://www.selleckchem.com/products/nf-56-ej40.html

$$$$
