NF-¦Ê¦¢ activator 1
 OpenBabel08302521373D

 33 35  0  0  0  0  0  0  0  0999 V2000
    0.5025   -0.7783   -3.4625 C   0  0  0  0  0  0  0  0  0  0  0  0
    0.0582   -1.5022   -2.2478 C   0  0  0  0  0  0  0  0  0  0  0  0
    0.5107   -2.7980   -1.9618 C   0  0  0  0  0  0  0  0  0  0  0  0
    0.0691   -3.4600   -0.8094 C   0  0  0  0  0  0  0  0  0  0  0  0
   -0.7833   -2.7836    0.0775 C   0  0  0  0  0  0  0  0  0  0  0  0
   -1.2148   -1.4829   -0.1936 C   0  0  0  0  0  0  0  0  0  0  0  0
   -0.7978   -0.8434   -1.3589 C   0  0  0  0  0  0  0  0  0  0  0  0
    0.6509    0.4334   -3.4989 O   0  0  0  0  0  0  0  0  0  0  0  0
    0.6850   -1.5778   -4.5348 O   0  0  0  0  0  0  0  0  0  0  0  0
    1.3198   -7.2194   -0.6478 S   0  0  0  0  0  0  0  0  0  0  0  0
    0.9216   -6.5158    0.8742 C   0  0  0  0  0  0  0  0  0  0  0  0
    0.5123   -5.2687    0.8014 N   0  0  0  0  0  0  0  0  0  0  0  0
    0.4919   -4.8208   -0.5015 C   0  0  0  0  0  0  0  0  0  0  0  0
    0.8479   -5.7708   -1.4370 C   0  0  0  0  0  0  0  0  0  0  0  0
    1.0442   -7.2281    2.0149 N   0  0  0  0  0  0  0  0  0  0  0  0
    0.3180   -7.0009    3.2014 C   0  0  0  0  0  0  0  0  0  0  0  0
    0.8589   -7.3828    4.4365 C   0  0  0  0  0  0  0  0  0  0  0  0
    0.1910   -7.1387    5.6355 C   0  0  0  0  0  0  0  0  0  0  0  0
   -1.0492   -6.5034    5.6187 C   0  0  0  0  0  0  0  0  0  0  0  0
   -1.6033   -6.1020    4.4056 C   0  0  0  0  0  0  0  0  0  0  0  0
   -0.9174   -6.3352    3.2114 C   0  0  0  0  0  0  0  0  0  0  0  0
    2.0552   -7.9917    4.4764 F   0  0  0  0  0  0  0  0  0  0  0  0
    1.2433   -3.2708   -2.6096 H   0  0  0  0  0  0  0  0  0  0  0  0
   -1.1092   -3.2681    0.9981 H   0  0  0  0  0  0  0  0  0  0  0  0
   -1.8699   -0.9710    0.5075 H   0  0  0  0  0  0  0  0  0  0  0  0
   -1.1309    0.1717   -1.5687 H   0  0  0  0  0  0  0  0  0  0  0  0
    0.3531   -2.4881   -4.4362 H   0  0  0  0  0  0  0  0  0  0  0  0
    0.8637   -5.7011   -2.5140 H   0  0  0  0  0  0  0  0  0  0  0  0
    1.5708   -8.0935    2.0119 H   0  0  0  0  0  0  0  0  0  0  0  0
    0.6444   -7.4410    6.5737 H   0  0  0  0  0  0  0  0  0  0  0  0
   -1.5816   -6.3150    6.5467 H   0  0  0  0  0  0  0  0  0  0  0  0
   -2.5691   -5.6032    4.3803 H   0  0  0  0  0  0  0  0  0  0  0  0
   -1.3751   -6.0115    2.2805 H   0  0  0  0  0  0  0  0  0  0  0  0
  1  2  1  0  0  0  0
  1  8  2  0  0  0  0
  1  9  1  0  0  0  0
  2  3  2  0  0  0  0
  2  7  1  0  0  0  0
  3  4  1  0  0  0  0
  3 23  1  0  0  0  0
  4  5  2  0  0  0  0
  4 13  1  0  0  0  0
  5  6  1  0  0  0  0
  5 24  1  0  0  0  0
  6  7  2  0  0  0  0
  6 25  1  0  0  0  0
  7 26  1  0  0  0  0
  9 27  1  0  0  0  0
 10 11  1  0  0  0  0
 10 14  1  0  0  0  0
 11 12  2  0  0  0  0
 11 15  1  0  0  0  0
 12 13  1  0  0  0  0
 13 14  2  0  0  0  0
 14 28  1  0  0  0  0
 15 16  1  0  0  0  0
 15 29  1  0  0  0  0
 16 17  2  0  0  0  0
 16 21  1  0  0  0  0
 17 18  1  0  0  0  0
 17 22  1  0  0  0  0
 18 19  2  0  0  0  0
 18 30  1  0  0  0  0
 19 20  1  0  0  0  0
 19 31  1  0  0  0  0
 20 21  2  0  0  0  0
 20 32  1  0  0  0  0
 21 33  1  0  0  0  0
M  END
>  <Mol_ID>
7525

>  <Formula>
C16H11FN2O2S

>  <MolWeight>
314.3341432

>  <Cat>
E1351

>  <Name>
NF-¦Ê¦¢ activator 1

>  <Synonyms>
Compound 32

>  <Target>
NF-¦Ê¦¢

>  <Form>
free base

>  <CAS>
2387524-59-4

>  <URL>
https://www.selleckchem.com/products/nf-kb-activator-1.html

$$$$
