NGI-1 (ML414)
 OpenBabel08302521043D

 48 50  0  0  0  0  0  0  0  0999 V2000
    1.3914   -0.2362    0.0032 C   0  0  0  0  0  0  0  0  0  0  0  0
    0.5709   -1.3811    0.0391 C   0  0  0  0  0  0  0  0  0  0  0  0
   -0.8430   -1.2645   -0.0031 C   0  0  0  0  0  0  0  0  0  0  0  0
   -1.3686    0.0449   -0.0802 C   0  0  0  0  0  0  0  0  0  0  0  0
   -0.5543    1.1823   -0.1526 C   0  0  0  0  0  0  0  0  0  0  0  0
    0.8250    1.0349   -0.1044 C   0  0  0  0  0  0  0  0  0  0  0  0
    1.2765   -2.6869    0.2494 C   0  0  0  0  0  0  0  0  0  0  0  0
    2.3929   -2.8565   -0.5488 N   0  0  0  0  0  0  0  0  0  0  0  0
    0.8594   -3.4678    1.0943 O   0  0  0  0  0  0  0  0  0  0  0  0
    3.2017   -3.9555   -0.4481 C   0  0  0  0  0  0  0  0  0  0  0  0
    4.4976   -3.9775   -1.5642 S   0  0  0  0  0  0  0  0  0  0  0  0
    4.9886   -5.5005   -0.9399 C   0  0  0  0  0  0  0  0  0  0  0  0
    4.1445   -5.8610    0.0912 C   0  0  0  0  0  0  0  0  0  0  0  0
    3.1271   -4.9727    0.3685 N   0  0  0  0  0  0  0  0  0  0  0  0
   -1.7023   -2.3432    0.0343 N   0  0  0  0  0  0  0  0  0  0  0  0
   -3.0451   -2.2919    0.5936 C   0  0  0  0  0  0  0  0  0  0  0  0
   -3.4086   -3.7670    0.6815 C   0  0  0  0  0  0  0  0  0  0  0  0
   -2.7707   -4.3761   -0.5618 C   0  0  0  0  0  0  0  0  0  0  0  0
   -1.6174   -3.4356   -0.9364 C   0  0  0  0  0  0  0  0  0  0  0  0
    6.1489   -6.2345   -1.5037 C   0  0  0  0  0  0  0  0  0  0  0  0
    1.8947    2.4415   -0.3294 S   0  0  0  0  0  0  0  0  0  0  0  0
    3.1375    1.9272   -0.8674 O   0  0  0  0  0  0  0  0  0  0  0  0
    1.1369    3.4503   -1.0400 O   0  0  0  0  0  0  0  0  0  0  0  0
    2.1879    2.9922    1.2488 N   0  0  0  0  0  0  0  0  0  0  0  0
    1.1067    3.7314    1.9165 C   0  0  0  0  0  0  0  0  0  0  0  0
    2.9378    2.0994    2.1495 C   0  0  0  0  0  0  0  0  0  0  0  0
    2.4712   -0.3294    0.0782 H   0  0  0  0  0  0  0  0  0  0  0  0
   -2.4458    0.1939   -0.1267 H   0  0  0  0  0  0  0  0  0  0  0  0
   -1.0108    2.1639   -0.2590 H   0  0  0  0  0  0  0  0  0  0  0  0
    2.6464   -2.1811   -1.2537 H   0  0  0  0  0  0  0  0  0  0  0  0
    4.2179   -6.7708    0.6745 H   0  0  0  0  0  0  0  0  0  0  0  0
   -3.7331   -1.7701   -0.0823 H   0  0  0  0  0  0  0  0  0  0  0  0
   -3.0732   -1.8194    1.5808 H   0  0  0  0  0  0  0  0  0  0  0  0
   -2.9580   -4.2089    1.5791 H   0  0  0  0  0  0  0  0  0  0  0  0
   -4.4885   -3.9344    0.7289 H   0  0  0  0  0  0  0  0  0  0  0  0
   -2.4125   -5.3924   -0.3652 H   0  0  0  0  0  0  0  0  0  0  0  0
   -3.4952   -4.4367   -1.3815 H   0  0  0  0  0  0  0  0  0  0  0  0
   -0.6668   -3.9717   -0.9176 H   0  0  0  0  0  0  0  0  0  0  0  0
   -1.7735   -3.0517   -1.9524 H   0  0  0  0  0  0  0  0  0  0  0  0
    5.9473   -6.5377   -2.5376 H   0  0  0  0  0  0  0  0  0  0  0  0
    7.0531   -5.6175   -1.4913 H   0  0  0  0  0  0  0  0  0  0  0  0
    6.3549   -7.1410   -0.9260 H   0  0  0  0  0  0  0  0  0  0  0  0
    0.2990    3.0618    2.2214 H   0  0  0  0  0  0  0  0  0  0  0  0
    1.4985    4.2359    2.8056 H   0  0  0  0  0  0  0  0  0  0  0  0
    0.7094    4.5159    1.2648 H   0  0  0  0  0  0  0  0  0  0  0  0
    2.2936    1.3011    2.5278 H   0  0  0  0  0  0  0  0  0  0  0  0
    3.8053    1.6629    1.6413 H   0  0  0  0  0  0  0  0  0  0  0  0
    3.3211    2.6702    3.0005 H   0  0  0  0  0  0  0  0  0  0  0  0
  1  2  2  0  0  0  0
  1 27  1  0  0  0  0
  2  3  1  0  0  0  0
  2  7  1  0  0  0  0
  3  4  2  0  0  0  0
  3 15  1  0  0  0  0
  4  5  1  0  0  0  0
  4 28  1  0  0  0  0
  5  6  2  0  0  0  0
  5 29  1  0  0  0  0
  6  1  1  0  0  0  0
  6 21  1  0  0  0  0
  7  8  1  0  0  0  0
  7  9  2  0  0  0  0
  8 10  1  0  0  0  0
  8 30  1  0  0  0  0
 10 11  1  0  0  0  0
 11 12  1  0  0  0  0
 12 13  2  0  0  0  0
 12 20  1  0  0  0  0
 13 14  1  0  0  0  0
 13 31  1  0  0  0  0
 14 10  2  0  0  0  0
 15 16  1  0  0  0  0
 16 17  1  0  0  0  0
 16 32  1  0  0  0  0
 16 33  1  0  0  0  0
 17 18  1  0  0  0  0
 17 34  1  0  0  0  0
 17 35  1  0  0  0  0
 18 19  1  0  0  0  0
 18 36  1  0  0  0  0
 18 37  1  0  0  0  0
 19 15  1  0  0  0  0
 19 38  1  0  0  0  0
 19 39  1  0  0  0  0
 20 40  1  0  0  0  0
 20 41  1  0  0  0  0
 20 42  1  0  0  0  0
 21 22  2  0  0  0  0
 21 23  2  0  0  0  0
 21 24  1  0  0  0  0
 24 25  1  0  0  0  0
 24 26  1  0  0  0  0
 25 43  1  0  0  0  0
 25 44  1  0  0  0  0
 25 45  1  0  0  0  0
 26 46  1  0  0  0  0
 26 47  1  0  0  0  0
 26 48  1  0  0  0  0
M  END
>  <Mol_ID>
4313

>  <Formula>
C17H22N4O3S2

>  <MolWeight>
394.51158

>  <Cat>
S8750

>  <Name>
NGI-1 (ML414)

>  <Synonyms>
N/A

>  <Target>
Antiviral

>  <Form>
Free Base

>  <CAS>
790702-57-7

>  <URL>
http://www.selleckchem.com/products/ngi-1ml414.html

$$$$
