NH2-PEG3-C2-NH-Boc
 OpenBabel08302521323D

 48 47  0  0  0  0  0  0  0  0999 V2000
   -3.2593   -0.1531    1.4070 C   0  0  0  0  0  0  0  0  0  0  0  0
   -2.0950   -0.1305    0.6963 N   0  0  0  0  0  0  0  0  0  0  0  0
   -1.3533   -1.3138    0.2856 C   0  0  0  0  0  0  0  0  0  0  0  0
   -2.0658   -2.1798   -0.7633 C   0  0  0  0  0  0  0  0  0  0  0  0
   -1.1593   -3.1680   -1.2738 O   0  0  0  0  0  0  0  0  0  0  0  0
   -1.7990   -4.1618   -2.0886 C   0  0  0  0  0  0  0  0  0  0  0  0
   -2.2359   -3.6326   -3.4590 C   0  0  0  0  0  0  0  0  0  0  0  0
   -2.8209   -4.6048   -4.3263 O   0  0  0  0  0  0  0  0  0  0  0  0
   -4.0280   -5.2342   -3.8846 C   0  0  0  0  0  0  0  0  0  0  0  0
   -5.1627   -4.2803   -3.4877 C   0  0  0  0  0  0  0  0  0  0  0  0
   -6.4315   -4.9117   -3.3072 O   0  0  0  0  0  0  0  0  0  0  0  0
   -6.5359   -5.8814   -2.2640 C   0  0  0  0  0  0  0  0  0  0  0  0
   -6.4214   -5.3252   -0.8338 C   0  0  0  0  0  0  0  0  0  0  0  0
   -3.8740   -1.1577    1.7166 O   0  0  0  0  0  0  0  0  0  0  0  0
   -3.6104    1.1235    1.6990 O   0  0  0  0  0  0  0  0  0  0  0  0
   -5.0437   -5.0440   -0.4235 N   0  0  0  0  0  0  0  0  0  0  0  0
   -4.8563    1.4449    2.3859 C   0  0  0  0  0  0  0  0  0  0  0  0
   -4.8805    0.8952    3.8165 C   0  0  0  0  0  0  0  0  0  0  0  0
   -4.8851    2.9836    2.4600 C   0  0  0  0  0  0  0  0  0  0  0  0
   -6.0769    0.9841    1.5864 C   0  0  0  0  0  0  0  0  0  0  0  0
   -1.6713    0.7801    0.5934 H   0  0  0  0  0  0  0  0  0  0  0  0
   -0.3946   -0.9662   -0.1144 H   0  0  0  0  0  0  0  0  0  0  0  0
   -1.1265   -1.9115    1.1758 H   0  0  0  0  0  0  0  0  0  0  0  0
   -2.9386   -2.6679   -0.3187 H   0  0  0  0  0  0  0  0  0  0  0  0
   -2.3971   -1.5435   -1.5899 H   0  0  0  0  0  0  0  0  0  0  0  0
   -1.0776   -4.9740   -2.2393 H   0  0  0  0  0  0  0  0  0  0  0  0
   -2.6317   -4.6050   -1.5387 H   0  0  0  0  0  0  0  0  0  0  0  0
   -2.9054   -2.7727   -3.3729 H   0  0  0  0  0  0  0  0  0  0  0  0
   -1.3448   -3.2524   -3.9736 H   0  0  0  0  0  0  0  0  0  0  0  0
   -4.3756   -5.8526   -4.7216 H   0  0  0  0  0  0  0  0  0  0  0  0
   -3.7899   -5.9377   -3.0818 H   0  0  0  0  0  0  0  0  0  0  0  0
   -4.9092   -3.6863   -2.6066 H   0  0  0  0  0  0  0  0  0  0  0  0
   -5.2944   -3.5510   -4.2958 H   0  0  0  0  0  0  0  0  0  0  0  0
   -7.5448   -6.3008   -2.3625 H   0  0  0  0  0  0  0  0  0  0  0  0
   -5.8458   -6.7136   -2.4365 H   0  0  0  0  0  0  0  0  0  0  0  0
   -7.0137   -4.4092   -0.7411 H   0  0  0  0  0  0  0  0  0  0  0  0
   -6.8300   -6.0639   -0.1340 H   0  0  0  0  0  0  0  0  0  0  0  0
   -5.0538   -4.6280    0.5104 H   0  0  0  0  0  0  0  0  0  0  0  0
   -4.5252   -5.9167   -0.3353 H   0  0  0  0  0  0  0  0  0  0  0  0
   -3.9700    1.1695    4.3600 H   0  0  0  0  0  0  0  0  0  0  0  0
   -5.7425    1.2822    4.3729 H   0  0  0  0  0  0  0  0  0  0  0  0
   -4.9437   -0.1970    3.8309 H   0  0  0  0  0  0  0  0  0  0  0  0
   -4.7070    3.4267    1.4732 H   0  0  0  0  0  0  0  0  0  0  0  0
   -5.8445    3.3548    2.8374 H   0  0  0  0  0  0  0  0  0  0  0  0
   -4.0932    3.3619    3.1178 H   0  0  0  0  0  0  0  0  0  0  0  0
   -6.0422    1.3665    0.5627 H   0  0  0  0  0  0  0  0  0  0  0  0
   -6.1316   -0.1095    1.5171 H   0  0  0  0  0  0  0  0  0  0  0  0
   -7.0100    1.3279    2.0530 H   0  0  0  0  0  0  0  0  0  0  0  0
  1  2  1  0  0  0  0
  1 14  2  0  0  0  0
  1 15  1  0  0  0  0
  2  3  1  0  0  0  0
  2 21  1  0  0  0  0
  3  4  1  0  0  0  0
  3 22  1  0  0  0  0
  3 23  1  0  0  0  0
  4  5  1  0  0  0  0
  4 24  1  0  0  0  0
  4 25  1  0  0  0  0
  5  6  1  0  0  0  0
  6  7  1  0  0  0  0
  6 26  1  0  0  0  0
  6 27  1  0  0  0  0
  7  8  1  0  0  0  0
  7 28  1  0  0  0  0
  7 29  1  0  0  0  0
  8  9  1  0  0  0  0
  9 10  1  0  0  0  0
  9 30  1  0  0  0  0
  9 31  1  0  0  0  0
 10 11  1  0  0  0  0
 10 32  1  0  0  0  0
 10 33  1  0  0  0  0
 11 12  1  0  0  0  0
 12 13  1  0  0  0  0
 12 34  1  0  0  0  0
 12 35  1  0  0  0  0
 13 16  1  0  0  0  0
 13 36  1  0  0  0  0
 13 37  1  0  0  0  0
 15 17  1  0  0  0  0
 16 38  1  0  0  0  0
 16 39  1  0  0  0  0
 17 18  1  0  0  0  0
 17 19  1  0  0  0  0
 17 20  1  0  0  0  0
 18 40  1  0  0  0  0
 18 41  1  0  0  0  0
 18 42  1  0  0  0  0
 19 43  1  0  0  0  0
 19 44  1  0  0  0  0
 19 45  1  0  0  0  0
 20 46  1  0  0  0  0
 20 47  1  0  0  0  0
 20 48  1  0  0  0  0
M  END
>  <Mol_ID>
6197

>  <Formula>
C13H28N2O5

>  <MolWeight>
292.37182

>  <Cat>
S1246

>  <Name>
NH2-PEG3-C2-NH-Boc

>  <Synonyms>
PROTAC Linker 15

>  <Target>
PROTAC Linker

>  <Form>
free base

>  <CAS>
101187-40-0

>  <URL>
http://www.selleckchem.com/products/nh2-peg3-c2-nh-boc.html

$$$$
