Niacin(acid).cdx
 OpenBabel08302521413D

 14 14  0  0  0  0  0  0  0  0999 V2000
    0.7140    1.2031    0.0036 C   0  0  0  0  0  0  0  0  0  0  0  0
   -0.6681    1.0930    0.0042 C   0  0  0  0  0  0  0  0  0  0  0  0
   -1.3269   -0.0869    0.0022 N   0  0  0  0  0  0  0  0  0  0  0  0
   -0.5657   -1.2103   -0.0027 C   0  0  0  0  0  0  0  0  0  0  0  0
    0.8227   -1.2025   -0.0064 C   0  0  0  0  0  0  0  0  0  0  0  0
    1.4721    0.0336   -0.0018 C   0  0  0  0  0  0  0  0  0  0  0  0
    1.5368   -2.4918   -0.0170 C   0  0  0  0  0  0  0  0  0  0  0  0
    1.0201   -3.5931   -0.0213 O   0  0  0  0  0  0  0  0  0  0  0  0
    2.8735   -2.3437   -0.0251 O   0  0  0  0  0  0  0  0  0  0  0  0
    1.1904    2.1775    0.0063 H   0  0  0  0  0  0  0  0  0  0  0  0
   -1.3007    1.9766    0.0063 H   0  0  0  0  0  0  0  0  0  0  0  0
   -1.1275   -2.1415   -0.0042 H   0  0  0  0  0  0  0  0  0  0  0  0
    2.5569    0.0946   -0.0033 H   0  0  0  0  0  0  0  0  0  0  0  0
    3.2172   -3.2620   -0.0354 H   0  0  0  0  0  0  0  0  0  0  0  0
  1  2  2  0  0  0  0
  1 10  1  0  0  0  0
  2  3  1  0  0  0  0
  2 11  1  0  0  0  0
  3  4  2  0  0  0  0
  4  5  1  0  0  0  0
  4 12  1  0  0  0  0
  5  6  2  0  0  0  0
  5  7  1  0  0  0  0
  6  1  1  0  0  0  0
  6 13  1  0  0  0  0
  7  8  2  0  0  0  0
  7  9  1  0  0  0  0
  9 14  1  0  0  0  0
M  END
>  <Mol_ID>
816

>  <Formula>
C6H5NO2

>  <MolWeight>
123.1094

>  <Cat>
S1744

>  <Name>
Nicotinic Acid

>  <Synonyms>
N/A

>  <Target>
Vitamin

>  <Form>
free base

>  <CAS>
59-67-6

>  <URL>
http://selleckchem.com/products/Niacin(Nicotinic-acid).html

$$$$
