NIBR189
 OpenBabel08302521303D

 48 50  0  0  0  0  0  0  0  0999 V2000
    2.6579   -1.1984    3.9365 C   0  0  0  0  0  0  0  0  0  0  0  0
    1.4784   -0.7143    3.3752 C   0  0  0  0  0  0  0  0  0  0  0  0
    1.5064   -0.0242    2.1677 C   0  0  0  0  0  0  0  0  0  0  0  0
    2.7257    0.1851    1.5170 C   0  0  0  0  0  0  0  0  0  0  0  0
    3.9274   -0.2806    2.0702 C   0  0  0  0  0  0  0  0  0  0  0  0
    3.8779   -0.9865    3.2824 C   0  0  0  0  0  0  0  0  0  0  0  0
   -0.1694   -1.0009    4.2552 Br  0  0  0  0  0  0  0  0  0  0  0  0
    5.2316   -0.0813    1.4182 C   0  0  0  0  0  0  0  0  0  0  0  0
    5.5186    0.9734    0.6413 C   0  0  0  0  0  0  0  0  0  0  0  0
    6.8841    1.1457    0.0837 C   0  0  0  0  0  0  0  0  0  0  0  0
    7.4317    2.4040    0.2441 N   0  0  0  0  0  0  0  0  0  0  0  0
    7.4383    0.2205   -0.4981 O   0  0  0  0  0  0  0  0  0  0  0  0
    6.9518    3.4081    1.1910 C   0  0  0  0  0  0  0  0  0  0  0  0
    6.9186    4.7900    0.5398 C   0  0  0  0  0  0  0  0  0  0  0  0
    8.2167    5.1527   -0.0426 N   0  0  0  0  0  0  0  0  0  0  0  0
    8.8081    4.1253   -0.9206 C   0  0  0  0  0  0  0  0  0  0  0  0
    8.7545    2.7070   -0.3165 C   0  0  0  0  0  0  0  0  0  0  0  0
    8.8564    6.3895    0.0753 C   0  0  0  0  0  0  0  0  0  0  0  0
    9.9965    6.5804   -0.3462 O   0  0  0  0  0  0  0  0  0  0  0  0
    8.1823    7.5352    0.7571 C   0  0  0  0  0  0  0  0  0  0  0  0
    8.9509    8.3829    1.5658 C   0  0  0  0  0  0  0  0  0  0  0  0
    8.3556    9.4574    2.2438 C   0  0  0  0  0  0  0  0  0  0  0  0
    6.9844    9.6841    2.1247 C   0  0  0  0  0  0  0  0  0  0  0  0
    6.2280    8.8644    1.2857 C   0  0  0  0  0  0  0  0  0  0  0  0
    6.8293    7.8269    0.5706 C   0  0  0  0  0  0  0  0  0  0  0  0
    6.2636   10.6580    2.7561 O   0  0  0  0  0  0  0  0  0  0  0  0
    6.9935   11.6227    3.5017 C   0  0  0  0  0  0  0  0  0  0  0  0
    2.6418   -1.7428    4.8766 H   0  0  0  0  0  0  0  0  0  0  0  0
    0.5886    0.3491    1.7195 H   0  0  0  0  0  0  0  0  0  0  0  0
    2.7160    0.7069    0.5619 H   0  0  0  0  0  0  0  0  0  0  0  0
    4.7878   -1.3696    3.7365 H   0  0  0  0  0  0  0  0  0  0  0  0
    6.0028   -0.8225    1.6280 H   0  0  0  0  0  0  0  0  0  0  0  0
    4.8009    1.7497    0.4089 H   0  0  0  0  0  0  0  0  0  0  0  0
    5.9599    3.1759    1.5883 H   0  0  0  0  0  0  0  0  0  0  0  0
    7.6439    3.4108    2.0393 H   0  0  0  0  0  0  0  0  0  0  0  0
    6.1883    4.8047   -0.2802 H   0  0  0  0  0  0  0  0  0  0  0  0
    6.6052    5.4988    1.3051 H   0  0  0  0  0  0  0  0  0  0  0  0
    8.2220    4.1435   -1.8480 H   0  0  0  0  0  0  0  0  0  0  0  0
    9.8410    4.3748   -1.1848 H   0  0  0  0  0  0  0  0  0  0  0  0
    9.4737    2.6279    0.5078 H   0  0  0  0  0  0  0  0  0  0  0  0
    9.0361    1.9685   -1.0737 H   0  0  0  0  0  0  0  0  0  0  0  0
   10.0214    8.2097    1.6724 H   0  0  0  0  0  0  0  0  0  0  0  0
    8.9893   10.0892    2.8580 H   0  0  0  0  0  0  0  0  0  0  0  0
    5.1602    9.0436    1.1803 H   0  0  0  0  0  0  0  0  0  0  0  0
    6.2218    7.2511   -0.1207 H   0  0  0  0  0  0  0  0  0  0  0  0
    7.5214   11.1597    4.3413 H   0  0  0  0  0  0  0  0  0  0  0  0
    7.6820   12.1777    2.8564 H   0  0  0  0  0  0  0  0  0  0  0  0
    6.2736   12.3363    3.9146 H   0  0  0  0  0  0  0  0  0  0  0  0
  1  2  2  0  0  0  0
  1 28  1  0  0  0  0
  2  3  1  0  0  0  0
  2  7  1  0  0  0  0
  3  4  2  0  0  0  0
  3 29  1  0  0  0  0
  4  5  1  0  0  0  0
  4 30  1  0  0  0  0
  5  6  2  0  0  0  0
  5  8  1  0  0  0  0
  6  1  1  0  0  0  0
  6 31  1  0  0  0  0
  8  9  2  0  0  0  0
  8 32  1  0  0  0  0
  9 10  1  0  0  0  0
  9 33  1  0  0  0  0
 10 11  1  0  0  0  0
 10 12  2  0  0  0  0
 11 13  1  0  0  0  0
 13 14  1  0  0  0  0
 13 34  1  0  0  0  0
 13 35  1  0  0  0  0
 14 15  1  0  0  0  0
 14 36  1  0  0  0  0
 14 37  1  0  0  0  0
 15 16  1  0  0  0  0
 15 18  1  0  0  0  0
 16 17  1  0  0  0  0
 16 38  1  0  0  0  0
 16 39  1  0  0  0  0
 17 11  1  0  0  0  0
 17 40  1  0  0  0  0
 17 41  1  0  0  0  0
 18 19  2  0  0  0  0
 18 20  1  0  0  0  0
 20 21  2  0  0  0  0
 21 22  1  0  0  0  0
 21 42  1  0  0  0  0
 22 23  2  0  0  0  0
 22 43  1  0  0  0  0
 23 24  1  0  0  0  0
 23 26  1  0  0  0  0
 24 25  2  0  0  0  0
 24 44  1  0  0  0  0
 25 20  1  0  0  0  0
 25 45  1  0  0  0  0
 26 27  1  0  0  0  0
 27 46  1  0  0  0  0
 27 47  1  0  0  0  0
 27 48  1  0  0  0  0
M  END
>  <Mol_ID>
5731

>  <Formula>
C21H21BrN2O3

>  <MolWeight>
429.30704

>  <Cat>
S0183

>  <Name>
NIBR189

>  <Synonyms>
N/A

>  <Target>
GPR

>  <Form>
Free Base

>  <CAS>
1599432-08-2

>  <URL>
http://www.selleckchem.com/products/nibr189.html

$$$$
