Niclosamide (BAY2353)
 OpenBabel08302520393D

 29 30  0  0  0  0  0  0  0  0999 V2000
   -1.9861    4.4065    1.0210 C   0  0  0  0  0  0  0  0  0  0  0  0
   -1.4280    5.6454    1.2957 C   0  0  0  0  0  0  0  0  0  0  0  0
   -0.0494    5.8389    1.1708 C   0  0  0  0  0  0  0  0  0  0  0  0
    0.7782    4.7822    0.7674 C   0  0  0  0  0  0  0  0  0  0  0  0
    0.2314    3.5249    0.4844 C   0  0  0  0  0  0  0  0  0  0  0  0
   -1.1620    3.3568    0.6143 C   0  0  0  0  0  0  0  0  0  0  0  0
    2.1279    5.0044    0.6645 O   0  0  0  0  0  0  0  0  0  0  0  0
    1.0073    2.3142    0.0645 C   0  0  0  0  0  0  0  0  0  0  0  0
    0.3630    1.2984   -0.1958 O   0  0  0  0  0  0  0  0  0  0  0  0
    2.3902    2.3976    0.0520 N   0  0  0  0  0  0  0  0  0  0  0  0
    3.2715    1.3144   -0.1748 C   0  0  0  0  0  0  0  0  0  0  0  0
    2.8575    0.1026   -0.7436 C   0  0  0  0  0  0  0  0  0  0  0  0
    3.7127   -0.9998   -0.8034 C   0  0  0  0  0  0  0  0  0  0  0  0
    5.0093   -0.8868   -0.3016 C   0  0  0  0  0  0  0  0  0  0  0  0
    5.4719    0.3418    0.1889 C   0  0  0  0  0  0  0  0  0  0  0  0
    4.6038    1.4425    0.2373 C   0  0  0  0  0  0  0  0  0  0  0  0
    5.8709   -2.0739   -0.2534 N   0  3  0  0  0  0  0  0  0  0  0  0
    5.3882   -3.1546   -0.6228 O   0  0  0  0  0  0  0  0  0  0  0  0
    7.0267   -1.9284    0.1703 O   0  5  0  0  0  0  0  0  0  0  0  0
   -3.0565    4.2443    1.1195 H   0  0  0  0  0  0  0  0  0  0  0  0
   -2.0691    6.4647    1.6181 H   0  0  0  0  0  0  0  0  0  0  0  0
    0.3561    6.8214    1.3975 H   0  0  0  0  0  0  0  0  0  0  0  0
   -1.6178    2.3888    0.4098 H   0  0  0  0  0  0  0  0  0  0  0  0
    2.2927    5.9527    0.8131 H   0  0  0  0  0  0  0  0  0  0  0  0
    2.7847    3.2734    0.3883 H   0  0  0  0  0  0  0  0  0  0  0  0
    1.8557   -0.0226   -1.1440 H   0  0  0  0  0  0  0  0  0  0  0  0
    3.3374   -1.9331   -1.2178 H   0  0  0  0  0  0  0  0  0  0  0  0
    6.4880    0.4490    0.5637 H   0  0  0  0  0  0  0  0  0  0  0  0
    4.9684    2.3787    0.6535 H   0  0  0  0  0  0  0  0  0  0  0  0
  1  2  2  0  0  0  0
  1 20  1  0  0  0  0
  2  3  1  0  0  0  0
  2 21  1  0  0  0  0
  3  4  2  0  0  0  0
  3 22  1  0  0  0  0
  4  5  1  0  0  0  0
  4  7  1  0  0  0  0
  5  6  2  0  0  0  0
  5  8  1  0  0  0  0
  6  1  1  0  0  0  0
  6 23  1  0  0  0  0
  7 24  1  0  0  0  0
  8  9  2  0  0  0  0
  8 10  1  0  0  0  0
 10 11  1  0  0  0  0
 10 25  1  0  0  0  0
 11 12  2  0  0  0  0
 12 13  1  0  0  0  0
 12 26  1  0  0  0  0
 13 14  2  0  0  0  0
 13 27  1  0  0  0  0
 14 15  1  0  0  0  0
 14 17  1  0  0  0  0
 15 16  2  0  0  0  0
 15 28  1  0  0  0  0
 16 11  1  0  0  0  0
 16 29  1  0  0  0  0
 17 18  2  0  0  0  0
 17 19  1  0  0  0  0
M  CHG  2  17   1  19  -1
M  END
>  <Mol_ID>
3696

>  <Formula>
C13H8Cl2N2O4

>  <MolWeight>
327.11962

>  <Cat>
S3030

>  <Name>
Niclosamide (BAY2353)

>  <Synonyms>
Niclocide, NSC 178296

>  <Target>
Autophagy,STAT

>  <Form>
Free Base

>  <CAS>
50-65-7

>  <URL>
http://www.selleck.cn/products/niclosamide-niclocide.html

$$$$
