Nicorandil.cdx
 OpenBabel08302521243D

 24 24  0  0  0  0  0  0  0  0999 V2000
    0.3830    1.3303   -0.0287 C   0  0  0  0  0  0  0  0  0  0  0  0
   -0.9781    1.0906    0.0657 C   0  0  0  0  0  0  0  0  0  0  0  0
   -1.5124   -0.1465    0.1175 N   0  0  0  0  0  0  0  0  0  0  0  0
   -0.6454   -1.1911    0.0637 C   0  0  0  0  0  0  0  0  0  0  0  0
    0.7369   -1.0604   -0.0469 C   0  0  0  0  0  0  0  0  0  0  0  0
    1.2534    0.2385   -0.0828 C   0  0  0  0  0  0  0  0  0  0  0  0
    1.5549   -2.3032   -0.1189 C   0  0  0  0  0  0  0  0  0  0  0  0
    1.0248   -3.3970    0.0485 O   0  0  0  0  0  0  0  0  0  0  0  0
    2.9015   -2.1804   -0.4003 N   0  0  0  0  0  0  0  0  0  0  0  0
    3.7798   -3.3377   -0.4669 C   0  0  0  0  0  0  0  0  0  0  0  0
    3.5099   -4.2567   -1.6639 C   0  0  0  0  0  0  0  0  0  0  0  0
    4.4906   -5.2911   -1.7431 O   0  0  0  0  0  0  0  0  0  0  0  0
    5.6381   -4.9334   -2.4891 N   0  3  0  0  0  0  0  0  0  0  0  0
    5.7044   -3.7735   -2.9039 O   0  5  0  0  0  0  0  0  0  0  0  0
    6.4468   -5.8520   -2.5921 O   0  0  0  0  0  0  0  0  0  0  0  0
    0.7587    2.3480   -0.0594 H   0  0  0  0  0  0  0  0  0  0  0  0
   -1.6930    1.9079    0.1040 H   0  0  0  0  0  0  0  0  0  0  0  0
   -1.1195   -2.1691    0.1105 H   0  0  0  0  0  0  0  0  0  0  0  0
    2.3167    0.4371   -0.1421 H   0  0  0  0  0  0  0  0  0  0  0  0
    3.3214   -1.2750   -0.5465 H   0  0  0  0  0  0  0  0  0  0  0  0
    4.8065   -2.9572   -0.4935 H   0  0  0  0  0  0  0  0  0  0  0  0
    3.6811   -3.9072    0.4648 H   0  0  0  0  0  0  0  0  0  0  0  0
    2.5472   -4.7616   -1.5292 H   0  0  0  0  0  0  0  0  0  0  0  0
    3.4100   -3.6961   -2.6022 H   0  0  0  0  0  0  0  0  0  0  0  0
  1  2  2  0  0  0  0
  1 16  1  0  0  0  0
  2  3  1  0  0  0  0
  2 17  1  0  0  0  0
  3  4  2  0  0  0  0
  4  5  1  0  0  0  0
  4 18  1  0  0  0  0
  5  6  2  0  0  0  0
  5  7  1  0  0  0  0
  6  1  1  0  0  0  0
  6 19  1  0  0  0  0
  7  8  2  0  0  0  0
  7  9  1  0  0  0  0
  9 10  1  0  0  0  0
  9 20  1  0  0  0  0
 10 11  1  0  0  0  0
 10 21  1  0  0  0  0
 10 22  1  0  0  0  0
 11 12  1  0  0  0  0
 11 23  1  0  0  0  0
 11 24  1  0  0  0  0
 12 13  1  0  0  0  0
 13 14  1  0  0  0  0
 13 15  2  0  0  0  0
M  CHG  2  13   1  14  -1
M  END
>  <Mol_ID>
469

>  <Formula>
C8H9N3O4

>  <MolWeight>
211.17476

>  <Cat>
S1971

>  <Name>
Nicorandil

>  <Synonyms>
SG-75

>  <Target>
Potassium Channel

>  <Form>
free base

>  <CAS>
65141-46-0

>  <URL>
http://selleckchem.com/products/Nicorandil(Ikorel).html

$$$$
