Nicotinamide.cdx
 OpenBabel08302519503D

 15 15  0  0  0  0  0  0  0  0999 V2000
    0.7123    1.1920    0.0012 C   0  0  0  0  0  0  0  0  0  0  0  0
   -0.6709    1.1283    0.0084 C   0  0  0  0  0  0  0  0  0  0  0  0
   -1.3661   -0.0296    0.0122 N   0  0  0  0  0  0  0  0  0  0  0  0
   -0.6407   -1.1778    0.0071 C   0  0  0  0  0  0  0  0  0  0  0  0
    0.7466   -1.2250   -0.0023 C   0  0  0  0  0  0  0  0  0  0  0  0
    1.4283   -0.0038   -0.0040 C   0  0  0  0  0  0  0  0  0  0  0  0
    1.5280   -2.4862   -0.0124 C   0  0  0  0  0  0  0  0  0  0  0  0
    0.8645   -3.6815   -0.0147 N   0  0  0  0  0  0  0  0  0  0  0  0
    2.7539   -2.4702   -0.0203 O   0  0  0  0  0  0  0  0  0  0  0  0
    1.2234    2.1484   -0.0005 H   0  0  0  0  0  0  0  0  0  0  0  0
   -1.2741    2.0320    0.0114 H   0  0  0  0  0  0  0  0  0  0  0  0
   -1.2546   -2.0705    0.0109 H   0  0  0  0  0  0  0  0  0  0  0  0
    2.5164    0.0187   -0.0101 H   0  0  0  0  0  0  0  0  0  0  0  0
    1.4401   -4.5151   -0.0265 H   0  0  0  0  0  0  0  0  0  0  0  0
   -0.1347   -3.8098   -0.0134 H   0  0  0  0  0  0  0  0  0  0  0  0
  1  2  2  0  0  0  0
  1 10  1  0  0  0  0
  2  3  1  0  0  0  0
  2 11  1  0  0  0  0
  3  4  2  0  0  0  0
  4  5  1  0  0  0  0
  4 12  1  0  0  0  0
  5  6  2  0  0  0  0
  5  7  1  0  0  0  0
  6  1  1  0  0  0  0
  6 13  1  0  0  0  0
  7  8  1  0  0  0  0
  7  9  2  0  0  0  0
  8 14  1  0  0  0  0
  8 15  1  0  0  0  0
M  END
>  <Mol_ID>
178

>  <Formula>
C6H6N2O

>  <MolWeight>
122.12464

>  <Cat>
S1899

>  <Name>
Nicotinamide (NSC 13128)

>  <Synonyms>
Niacinamide, Vitamin PP, Nicotinic acid amide, Vitamin B3, NSC 27452,NSC 13128

>  <Target>
Sirtuin

>  <Form>
free base

>  <CAS>
98-92-0

>  <URL>
http://selleckchem.com/products/Nicotinamide(Niacinamide).html

$$$$
