Nicotinamide Riboside Chloride
 OpenBabel08302521233D

 33 34  0  0  0  0  0  0  0  0999 V2000
   -0.5982    1.0707    0.6095 C   0  0  0  0  0  0  0  0  0  0  0  0
   -1.3137   -0.1293    0.6606 C   0  0  0  0  0  0  0  0  0  0  0  0
   -0.7796   -1.2613    0.0446 C   0  0  0  0  0  0  0  0  0  0  0  0
    0.4408   -1.1627   -0.6170 C   0  0  0  0  0  0  0  0  0  0  0  0
    1.1038    0.0567   -0.6602 C   0  0  0  0  0  0  0  0  0  0  0  0
    0.5809    1.1463   -0.0512 N   0  3  0  0  0  0  0  0  0  0  0  0
   -2.6151   -0.1065    1.3470 C   0  0  0  0  0  0  0  0  0  0  0  0
   -3.0125    0.9380    1.8667 O   0  0  0  0  0  0  0  0  0  0  0  0
   -3.3789   -1.2322    1.3932 N   0  0  0  0  0  0  0  0  0  0  0  0
    1.0637    3.3116    0.9219 O   0  0  0  0  0  0  0  0  0  0  0  0
    1.3025    2.4360   -0.1817 C   0  0  2  0  0  0  0  0  0  0  0  0
    0.8709    3.1385   -1.4659 C   0  0  1  0  0  0  0  0  0  0  0  0
    1.2159    4.5712   -1.1040 C   0  0  1  0  0  0  0  0  0  0  0  0
    0.8741    4.6485    0.3900 C   0  0  1  0  0  0  0  0  0  0  0  0
   -0.5725    5.0823    0.6534 C   0  0  0  0  0  0  0  0  0  0  0  0
   -1.4640    4.2587   -0.0933 O   0  0  0  0  0  0  0  0  0  0  0  0
    2.6320    4.6901   -1.3345 O   0  0  0  0  0  0  0  0  0  0  0  0
    1.5898    2.6595   -2.6058 O   0  0  0  0  0  0  0  0  0  0  0  0
   -0.9689    1.9815    1.0764 H   0  0  0  0  0  0  0  0  0  0  0  0
   -1.2900   -2.2161    0.0546 H   0  0  0  0  0  0  0  0  0  0  0  0
    0.8689   -2.0340   -1.1114 H   0  0  0  0  0  0  0  0  0  0  0  0
    2.0431    0.1759   -1.1924 H   0  0  0  0  0  0  0  0  0  0  0  0
   -3.1495   -2.1300    0.9866 H   0  0  0  0  0  0  0  0  0  0  0  0
   -4.2766   -1.1692    1.8619 H   0  0  0  0  0  0  0  0  0  0  0  0
    2.3739    2.1955   -0.1852 H   0  0  0  0  0  0  0  0  0  0  0  0
   -0.1943    3.0040   -1.6659 H   0  0  0  0  0  0  0  0  0  0  0  0
    0.7069    5.3176   -1.7226 H   0  0  0  0  0  0  0  0  0  0  0  0
    1.5565    5.3157    0.9291 H   0  0  0  0  0  0  0  0  0  0  0  0
   -0.8197    4.9708    1.7146 H   0  0  0  0  0  0  0  0  0  0  0  0
   -0.7229    6.1228    0.3503 H   0  0  0  0  0  0  0  0  0  0  0  0
   -2.3423    4.6883   -0.0599 H   0  0  0  0  0  0  0  0  0  0  0  0
    3.0259    5.2945   -0.6773 H   0  0  0  0  0  0  0  0  0  0  0  0
    2.2272    3.3687   -2.8440 H   0  0  0  0  0  0  0  0  0  0  0  0
  1  2  2  0  0  0  0
  1  6  1  0  0  0  0
  1 19  1  0  0  0  0
  2  3  1  0  0  0  0
  2  7  1  0  0  0  0
  3  4  2  0  0  0  0
  3 20  1  0  0  0  0
  4  5  1  0  0  0  0
  4 21  1  0  0  0  0
  5  6  2  0  0  0  0
  5 22  1  0  0  0  0
  7  8  2  0  0  0  0
  7  9  1  0  0  0  0
  9 23  1  0  0  0  0
  9 24  1  0  0  0  0
 10 11  1  0  0  0  0
 10 14  1  0  0  0  0
 11 12  1  0  0  0  0
 11  6  1  0  0  0  0
 11 25  1  6  0  0  0
 12 13  1  0  0  0  0
 12 18  1  0  0  0  0
 12 26  1  6  0  0  0
 13 14  1  0  0  0  0
 13 17  1  0  0  0  0
 13 27  1  6  0  0  0
 14 28  1  1  0  0  0
 14 15  1  0  0  0  0
 15 16  1  0  0  0  0
 15 29  1  0  0  0  0
 15 30  1  0  0  0  0
 16 31  1  0  0  0  0
 17 32  1  0  0  0  0
 18 33  1  0  0  0  0
M  CHG  1   6   1
M  END
>  <Mol_ID>
4826

>  <Formula>
C11H15ClN2O5

>  <MolWeight>
290.7002

>  <Cat>
S2935

>  <Name>
Nicotinamide Riboside Chloride

>  <Synonyms>
N/A

>  <Target>
Sirtuin

>  <Form>
Chloride

>  <CAS>
23111-00-4

>  <URL>
http://www.selleck.cn/products/nicotinamide-riboside-chloride.html

$$$$
