Nicotinuric acid
 OpenBabel08302521293D

 21 21  0  0  0  0  0  0  0  0999 V2000
   -0.6464    1.0946    0.0733 C   0  0  0  0  0  0  0  0  0  0  0  0
    0.6119    1.0584    0.6545 C   0  0  0  0  0  0  0  0  0  0  0  0
    1.3229   -0.1401    0.6197 C   0  0  0  0  0  0  0  0  0  0  0  0
    0.7495   -1.2591    0.0132 C   0  0  0  0  0  0  0  0  0  0  0  0
   -0.5126   -1.1217   -0.5481 C   0  0  0  0  0  0  0  0  0  0  0  0
   -1.2279    0.0293   -0.5222 N   0  0  0  0  0  0  0  0  0  0  0  0
    1.5187   -2.5149   -0.0969 C   0  0  0  0  0  0  0  0  0  0  0  0
    0.8282   -3.7007   -0.0191 N   0  0  0  0  0  0  0  0  0  0  0  0
    2.7290   -2.4952   -0.3025 O   0  0  0  0  0  0  0  0  0  0  0  0
    1.5116   -4.9843   -0.1332 C   0  0  0  0  0  0  0  0  0  0  0  0
    1.7085   -5.3864   -1.5896 C   0  0  0  0  0  0  0  0  0  0  0  0
    2.4347   -4.4922   -2.3029 O   0  0  0  0  0  0  0  0  0  0  0  0
    1.2912   -6.4323   -2.0698 O   0  0  0  0  0  0  0  0  0  0  0  0
   -1.2333    2.0096    0.0630 H   0  0  0  0  0  0  0  0  0  0  0  0
    1.0329    1.9463    1.1144 H   0  0  0  0  0  0  0  0  0  0  0  0
    2.3174   -0.1962    1.0555 H   0  0  0  0  0  0  0  0  0  0  0  0
   -0.9975   -1.9343   -1.0808 H   0  0  0  0  0  0  0  0  0  0  0  0
   -0.1709   -3.7162    0.1467 H   0  0  0  0  0  0  0  0  0  0  0  0
    2.4940   -4.9408    0.3492 H   0  0  0  0  0  0  0  0  0  0  0  0
    0.9029   -5.7375    0.3745 H   0  0  0  0  0  0  0  0  0  0  0  0
    2.7491   -3.7415   -1.7486 H   0  0  0  0  0  0  0  0  0  0  0  0
  1  2  2  0  0  0  0
  1 14  1  0  0  0  0
  2  3  1  0  0  0  0
  2 15  1  0  0  0  0
  3  4  2  0  0  0  0
  3 16  1  0  0  0  0
  4  5  1  0  0  0  0
  4  7  1  0  0  0  0
  5  6  2  0  0  0  0
  5 17  1  0  0  0  0
  6  1  1  0  0  0  0
  7  8  1  0  0  0  0
  7  9  2  0  0  0  0
  8 10  1  0  0  0  0
  8 18  1  0  0  0  0
 10 11  1  0  0  0  0
 10 19  1  0  0  0  0
 10 20  1  0  0  0  0
 11 12  1  0  0  0  0
 11 13  2  0  0  0  0
 12 21  1  0  0  0  0
M  END
>  <Mol_ID>
5487

>  <Formula>
C8H8N2O3

>  <MolWeight>
180.16072

>  <Cat>
S3322

>  <Name>
Nicotinuric acid

>  <Synonyms>
NUA

>  <Target>
Others

>  <Form>
Free Base

>  <CAS>
583-08-4

>  <URL>
https://www.selleckchem.com/products/nicotinuric-acid.html

$$$$
