nifenazone.cdx
 OpenBabel08302519573D

 39 41  0  0  0  0  0  0  0  0999 V2000
   -0.2498   -1.2604    0.0953 N   0  0  0  0  0  0  0  0  0  0  0  0
    0.9726   -0.6346    0.3067 C   0  0  0  0  0  0  0  0  0  0  0  0
    0.8063    0.8001   -0.1139 C   0  0  0  0  0  0  0  0  0  0  0  0
   -0.4666    0.8976   -0.5476 C   0  0  0  0  0  0  0  0  0  0  0  0
   -1.1366   -0.3478   -0.5159 N   0  0  0  0  0  0  0  0  0  0  0  0
   -2.5250   -0.4189   -0.0318 C   0  0  0  0  0  0  0  0  0  0  0  0
   -0.4390   -2.6550    0.0254 C   0  0  0  0  0  0  0  0  0  0  0  0
    0.0217   -3.4685    1.0665 C   0  0  0  0  0  0  0  0  0  0  0  0
   -0.2507   -4.8395    1.0641 C   0  0  0  0  0  0  0  0  0  0  0  0
   -0.9408   -5.4133   -0.0030 C   0  0  0  0  0  0  0  0  0  0  0  0
   -1.3649   -4.6176   -1.0653 C   0  0  0  0  0  0  0  0  0  0  0  0
   -1.1288   -3.2410   -1.0433 C   0  0  0  0  0  0  0  0  0  0  0  0
    2.0410   -1.0772    0.7070 O   0  0  0  0  0  0  0  0  0  0  0  0
    1.8835    1.6373    0.0485 N   0  0  0  0  0  0  0  0  0  0  0  0
   -1.2258    2.0945   -1.0221 C   0  0  0  0  0  0  0  0  0  0  0  0
    1.9878    3.0029   -0.0784 C   0  0  0  0  0  0  0  0  0  0  0  0
    1.0847    3.7791   -0.3572 O   0  0  0  0  0  0  0  0  0  0  0  0
    3.3274    3.5655    0.2399 C   0  0  0  0  0  0  0  0  0  0  0  0
    4.5264    2.8669    0.0703 C   0  0  0  0  0  0  0  0  0  0  0  0
    5.7243    3.4514    0.4838 C   0  0  0  0  0  0  0  0  0  0  0  0
    5.6850    4.7211    1.0414 C   0  0  0  0  0  0  0  0  0  0  0  0
    4.5468    5.4399    1.1794 N   0  0  0  0  0  0  0  0  0  0  0  0
    3.3967    4.8515    0.7674 C   0  0  0  0  0  0  0  0  0  0  0  0
   -2.6156    0.0331    0.9620 H   0  0  0  0  0  0  0  0  0  0  0  0
   -3.1935    0.1060   -0.7214 H   0  0  0  0  0  0  0  0  0  0  0  0
   -2.8905   -1.4486    0.0318 H   0  0  0  0  0  0  0  0  0  0  0  0
    0.5469   -3.0348    1.9148 H   0  0  0  0  0  0  0  0  0  0  0  0
    0.0692   -5.4571    1.8996 H   0  0  0  0  0  0  0  0  0  0  0  0
   -1.1452   -6.4810   -0.0075 H   0  0  0  0  0  0  0  0  0  0  0  0
   -1.8820   -5.0663   -1.9097 H   0  0  0  0  0  0  0  0  0  0  0  0
   -1.4576   -2.6331   -1.8820 H   0  0  0  0  0  0  0  0  0  0  0  0
    2.6865    1.1389    0.4300 H   0  0  0  0  0  0  0  0  0  0  0  0
   -1.9521    1.8080   -1.7906 H   0  0  0  0  0  0  0  0  0  0  0  0
   -1.7801    2.5406   -0.1883 H   0  0  0  0  0  0  0  0  0  0  0  0
   -0.5988    2.8496   -1.4886 H   0  0  0  0  0  0  0  0  0  0  0  0
    4.5533    1.8824   -0.3873 H   0  0  0  0  0  0  0  0  0  0  0  0
    6.6680    2.9259    0.3839 H   0  0  0  0  0  0  0  0  0  0  0  0
    6.5856    5.2060    1.4027 H   0  0  0  0  0  0  0  0  0  0  0  0
    2.5042    5.4578    0.8924 H   0  0  0  0  0  0  0  0  0  0  0  0
  1  2  1  0  0  0  0
  1  7  1  0  0  0  0
  2  3  1  0  0  0  0
  2 13  2  0  0  0  0
  3  4  2  0  0  0  0
  3 14  1  0  0  0  0
  4  5  1  0  0  0  0
  4 15  1  0  0  0  0
  5  1  1  0  0  0  0
  5  6  1  0  0  0  0
  6 24  1  0  0  0  0
  6 25  1  0  0  0  0
  6 26  1  0  0  0  0
  7  8  2  0  0  0  0
  8  9  1  0  0  0  0
  8 27  1  0  0  0  0
  9 10  2  0  0  0  0
  9 28  1  0  0  0  0
 10 11  1  0  0  0  0
 10 29  1  0  0  0  0
 11 12  2  0  0  0  0
 11 30  1  0  0  0  0
 12  7  1  0  0  0  0
 12 31  1  0  0  0  0
 14 16  1  0  0  0  0
 14 32  1  0  0  0  0
 15 33  1  0  0  0  0
 15 34  1  0  0  0  0
 15 35  1  0  0  0  0
 16 17  2  0  0  0  0
 16 18  1  0  0  0  0
 18 19  2  0  0  0  0
 19 20  1  0  0  0  0
 19 36  1  0  0  0  0
 20 21  2  0  0  0  0
 20 37  1  0  0  0  0
 21 22  1  0  0  0  0
 21 38  1  0  0  0  0
 22 23  2  0  0  0  0
 23 18  1  0  0  0  0
 23 39  1  0  0  0  0
M  END
>  <Mol_ID>
2302

>  <Formula>
C17H16N4O2

>  <MolWeight>
308.33454

>  <Cat>
S4401

>  <Name>
Nifenazone

>  <Synonyms>
N/A

>  <Target>
Others

>  <Form>
Free Base

>  <CAS>
2139-47-1

>  <URL>
http://www.selleckchem.com/products/nifenazone.html

$$$$
