Niflumic acid.cdx
 OpenBabel08302522033D

 29 30  0  0  0  0  0  0  0  0999 V2000
   -0.6761    1.1554   -0.0661 C   0  0  0  0  0  0  0  0  0  0  0  0
    0.6501    1.2959    0.3680 C   0  0  0  0  0  0  0  0  0  0  0  0
    1.4736    0.1608    0.4183 C   0  0  0  0  0  0  0  0  0  0  0  0
    0.9690   -1.0750    0.0335 C   0  0  0  0  0  0  0  0  0  0  0  0
   -0.3490   -1.1366   -0.3705 C   0  0  0  0  0  0  0  0  0  0  0  0
   -1.1649   -0.0631   -0.4226 N   0  0  0  0  0  0  0  0  0  0  0  0
    1.1527    2.6152    0.8138 C   0  0  0  0  0  0  0  0  0  0  0  0
    0.5110    3.6511    0.8347 O   0  0  0  0  0  0  0  0  0  0  0  0
    2.4250    2.5798    1.2495 O   0  0  0  0  0  0  0  0  0  0  0  0
   -1.5205    2.2746   -0.2492 N   0  0  0  0  0  0  0  0  0  0  0  0
   -2.9243    2.2903   -0.1207 C   0  0  0  0  0  0  0  0  0  0  0  0
   -3.6009    1.4694    0.7897 C   0  0  0  0  0  0  0  0  0  0  0  0
   -4.9946    1.5441    0.9426 C   0  0  0  0  0  0  0  0  0  0  0  0
   -5.7137    2.4611    0.1622 C   0  0  0  0  0  0  0  0  0  0  0  0
   -5.0485    3.2992   -0.7311 C   0  0  0  0  0  0  0  0  0  0  0  0
   -3.6601    3.2253   -0.8563 C   0  0  0  0  0  0  0  0  0  0  0  0
   -5.7122    0.6629    1.9311 C   0  0  0  0  0  0  0  0  0  0  0  0
   -4.8883   -0.1612    2.6380 F   0  0  0  0  0  0  0  0  0  0  0  0
   -6.3989    1.3827    2.8636 F   0  0  0  0  0  0  0  0  0  0  0  0
   -6.6324   -0.1489    1.3396 F   0  0  0  0  0  0  0  0  0  0  0  0
    2.5053    0.2320    0.7534 H   0  0  0  0  0  0  0  0  0  0  0  0
    1.5871   -1.9659    0.0498 H   0  0  0  0  0  0  0  0  0  0  0  0
   -0.8000   -2.0744   -0.6816 H   0  0  0  0  0  0  0  0  0  0  0  0
    2.6106    3.4981    1.5402 H   0  0  0  0  0  0  0  0  0  0  0  0
   -1.1165    3.1275    0.1486 H   0  0  0  0  0  0  0  0  0  0  0  0
   -3.0359    0.7630    1.3963 H   0  0  0  0  0  0  0  0  0  0  0  0
   -6.7968    2.5257    0.2525 H   0  0  0  0  0  0  0  0  0  0  0  0
   -5.6083    4.0112   -1.3323 H   0  0  0  0  0  0  0  0  0  0  0  0
   -3.1507    3.8836   -1.5558 H   0  0  0  0  0  0  0  0  0  0  0  0
  1  2  2  0  0  0  0
  1  6  1  0  0  0  0
  1 10  1  0  0  0  0
  2  3  1  0  0  0  0
  2  7  1  0  0  0  0
  3  4  2  0  0  0  0
  3 21  1  0  0  0  0
  4  5  1  0  0  0  0
  4 22  1  0  0  0  0
  5  6  2  0  0  0  0
  5 23  1  0  0  0  0
  7  8  2  0  0  0  0
  7  9  1  0  0  0  0
  9 24  1  0  0  0  0
 10 11  1  0  0  0  0
 10 25  1  0  0  0  0
 11 12  2  0  0  0  0
 11 16  1  0  0  0  0
 12 13  1  0  0  0  0
 12 26  1  0  0  0  0
 13 14  2  0  0  0  0
 13 17  1  0  0  0  0
 14 15  1  0  0  0  0
 14 27  1  0  0  0  0
 15 16  2  0  0  0  0
 15 28  1  0  0  0  0
 16 29  1  0  0  0  0
 17 18  1  0  0  0  0
 17 19  1  0  0  0  0
 17 20  1  0  0  0  0
M  END
>  <Mol_ID>
1167

>  <Formula>
C13H9F3N2O2

>  <MolWeight>
282.2179696

>  <Cat>
S3018

>  <Name>
Niflumic acid

>  <Synonyms>
Nifluril

>  <Target>
COX,GABA Receptor

>  <Form>
free base

>  <CAS>
4394-00-7

>  <URL>
http://selleckchem.com/products/niflumic-acid.html

$$$$
