NIMOTOP (nimodipine).cdx
 OpenBabel08302521193D

 56 57  0  0  0  0  0  0  0  0999 V2000
    0.7851    0.5071    0.2902 C   0  0  0  0  0  0  0  0  0  0  0  0
    0.9983   -0.8293    0.4380 C   0  0  0  0  0  0  0  0  0  0  0  0
   -0.1999   -1.7752    0.7014 C   0  0  3  0  0  0  0  0  0  0  0  0
   -1.5856   -1.0665    0.6090 C   0  0  0  0  0  0  0  0  0  0  0  0
   -1.6556    0.2777    0.4645 C   0  0  0  0  0  0  0  0  0  0  0  0
   -0.4903    1.0197    0.4237 N   0  0  0  0  0  0  0  0  0  0  0  0
   -0.1248   -2.6213    1.9932 C   0  0  0  0  0  0  0  0  0  0  0  0
    0.0926   -2.0648    3.2639 C   0  0  0  0  0  0  0  0  0  0  0  0
   -0.1577   -2.8098    4.4214 C   0  0  0  0  0  0  0  0  0  0  0  0
   -0.6240   -4.1301    4.3375 C   0  0  0  0  0  0  0  0  0  0  0  0
   -0.7603   -4.7211    3.0811 C   0  0  0  0  0  0  0  0  0  0  0  0
   -0.4816   -3.9881    1.9203 C   0  0  0  0  0  0  0  0  0  0  0  0
   -1.2793   -6.0924    2.9716 N   0  3  0  0  0  0  0  0  0  0  0  0
   -1.7592   -6.6064    3.9930 O   0  0  0  0  0  0  0  0  0  0  0  0
   -1.2010   -6.6579    1.8733 O   0  5  0  0  0  0  0  0  0  0  0  0
   -2.8748    1.1529    0.2553 C   0  0  0  0  0  0  0  0  0  0  0  0
    1.7850    1.5748   -0.0996 C   0  0  0  0  0  0  0  0  0  0  0  0
   -2.7721   -1.9789    0.5512 C   0  0  0  0  0  0  0  0  0  0  0  0
   -3.9060   -1.3456    0.9298 O   0  0  0  0  0  0  0  0  0  0  0  0
   -5.1585   -1.9618    0.5765 C   0  0  0  0  0  0  0  0  0  0  0  0
   -5.6229   -1.4968   -0.8102 C   0  0  0  0  0  0  0  0  0  0  0  0
   -4.7679   -2.0222   -1.8265 O   0  0  0  0  0  0  0  0  0  0  0  0
   -5.1720   -1.6211   -3.1290 C   0  0  0  0  0  0  0  0  0  0  0  0
   -2.7044   -3.1516    0.2194 O   0  0  0  0  0  0  0  0  0  0  0  0
    2.3323   -1.4215    0.1068 C   0  0  0  0  0  0  0  0  0  0  0  0
    2.2803   -2.7686    0.1838 O   0  0  0  0  0  0  0  0  0  0  0  0
    3.4101   -3.5009   -0.3408 C   0  0  0  0  0  0  0  0  0  0  0  0
    4.4991   -3.6553    0.7157 C   0  0  0  0  0  0  0  0  0  0  0  0
    2.8632   -4.8512   -0.7857 C   0  0  0  0  0  0  0  0  0  0  0  0
    3.3145   -0.7931   -0.2664 O   0  0  0  0  0  0  0  0  0  0  0  0
   -0.1813   -2.4780   -0.1459 H   0  0  0  0  0  0  0  0  0  0  0  0
   -0.6046    1.9846    0.1136 H   0  0  0  0  0  0  0  0  0  0  0  0
    0.4104   -1.0277    3.3680 H   0  0  0  0  0  0  0  0  0  0  0  0
   -0.0238   -2.3596    5.4034 H   0  0  0  0  0  0  0  0  0  0  0  0
   -0.8838   -4.6656    5.2466 H   0  0  0  0  0  0  0  0  0  0  0  0
   -0.6345   -4.4488    0.9428 H   0  0  0  0  0  0  0  0  0  0  0  0
   -2.9093    1.9221    1.0348 H   0  0  0  0  0  0  0  0  0  0  0  0
   -2.7922    1.6576   -0.7143 H   0  0  0  0  0  0  0  0  0  0  0  0
   -3.8422    0.6678    0.2523 H   0  0  0  0  0  0  0  0  0  0  0  0
    1.7064    1.7771   -1.1743 H   0  0  0  0  0  0  0  0  0  0  0  0
    1.5455    2.5137    0.4191 H   0  0  0  0  0  0  0  0  0  0  0  0
    2.8209    1.3593    0.1552 H   0  0  0  0  0  0  0  0  0  0  0  0
   -5.0924   -3.0532    0.6383 H   0  0  0  0  0  0  0  0  0  0  0  0
   -5.8857   -1.6219    1.3212 H   0  0  0  0  0  0  0  0  0  0  0  0
   -6.6442   -1.8536   -0.9849 H   0  0  0  0  0  0  0  0  0  0  0  0
   -5.6116   -0.4028   -0.8711 H   0  0  0  0  0  0  0  0  0  0  0  0
   -6.2335   -1.8306   -3.2935 H   0  0  0  0  0  0  0  0  0  0  0  0
   -4.9726   -0.5552   -3.2754 H   0  0  0  0  0  0  0  0  0  0  0  0
   -4.5895   -2.1882   -3.8604 H   0  0  0  0  0  0  0  0  0  0  0  0
    3.8244   -2.9948   -1.2225 H   0  0  0  0  0  0  0  0  0  0  0  0
    4.0812   -3.9058    1.6954 H   0  0  0  0  0  0  0  0  0  0  0  0
    5.2265   -4.4242    0.4309 H   0  0  0  0  0  0  0  0  0  0  0  0
    5.0494   -2.7154    0.8343 H   0  0  0  0  0  0  0  0  0  0  0  0
    2.2613   -4.7190   -1.6922 H   0  0  0  0  0  0  0  0  0  0  0  0
    3.6604   -5.5658   -1.0092 H   0  0  0  0  0  0  0  0  0  0  0  0
    2.1967   -5.2785   -0.0288 H   0  0  0  0  0  0  0  0  0  0  0  0
  1  2  2  0  0  0  0
  1 17  1  0  0  0  0
  2  3  1  0  0  0  0
  2 25  1  0  0  0  0
  3  4  1  0  0  0  0
  3  7  1  0  0  0  0
  3 31  1  0  0  0  0
  4  5  2  0  0  0  0
  4 18  1  0  0  0  0
  5  6  1  0  0  0  0
  5 16  1  0  0  0  0
  6  1  1  0  0  0  0
  6 32  1  0  0  0  0
  7  8  2  0  0  0  0
  8  9  1  0  0  0  0
  8 33  1  0  0  0  0
  9 10  2  0  0  0  0
  9 34  1  0  0  0  0
 10 11  1  0  0  0  0
 10 35  1  0  0  0  0
 11 12  2  0  0  0  0
 11 13  1  0  0  0  0
 12  7  1  0  0  0  0
 12 36  1  0  0  0  0
 13 14  2  0  0  0  0
 13 15  1  0  0  0  0
 16 37  1  0  0  0  0
 16 38  1  0  0  0  0
 16 39  1  0  0  0  0
 17 40  1  0  0  0  0
 17 41  1  0  0  0  0
 17 42  1  0  0  0  0
 18 19  1  0  0  0  0
 18 24  2  0  0  0  0
 19 20  1  0  0  0  0
 20 21  1  0  0  0  0
 20 43  1  0  0  0  0
 20 44  1  0  0  0  0
 21 22  1  0  0  0  0
 21 45  1  0  0  0  0
 21 46  1  0  0  0  0
 22 23  1  0  0  0  0
 23 47  1  0  0  0  0
 23 48  1  0  0  0  0
 23 49  1  0  0  0  0
 25 26  1  0  0  0  0
 25 30  2  0  0  0  0
 26 27  1  0  0  0  0
 27 28  1  0  0  0  0
 27 29  1  0  0  0  0
 27 50  1  0  0  0  0
 28 51  1  0  0  0  0
 28 52  1  0  0  0  0
 28 53  1  0  0  0  0
 29 54  1  0  0  0  0
 29 55  1  0  0  0  0
 29 56  1  0  0  0  0
M  CHG  2  13   1  15  -1
M  END
>  <Mol_ID>
425

>  <Formula>
C21H26N2O7

>  <MolWeight>
418.44034

>  <Cat>
S1747

>  <Name>
Nimodipine

>  <Synonyms>
BAY E 9736

>  <Target>
Autophagy,Calcium Channel

>  <Form>
free base

>  <CAS>
66085-59-4

>  <URL>
http://selleckchem.com/products/Nimodipine(Nimotop).html

$$$$
