Nimorazole
 OpenBabel08302520403D

 30 31  0  0  0  0  0  0  0  0999 V2000
   -1.9401   -2.3029    0.4910 N   0  0  0  0  0  0  0  0  0  0  0  0
   -2.8261   -1.2824    0.2567 C   0  0  0  0  0  0  0  0  0  0  0  0
   -0.5180   -2.4121    0.2088 C   0  0  0  0  0  0  0  0  0  0  0  0
   -2.6628   -3.3092    1.0891 C   0  0  0  0  0  0  0  0  0  0  0  0
   -4.0534   -1.7415    0.6716 C   0  0  0  0  0  0  0  0  0  0  0  0
   -2.5282   -0.0108   -0.3057 N   0  3  0  0  0  0  0  0  0  0  0  0
   -0.2537   -2.9726   -1.2032 C   0  0  0  0  0  0  0  0  0  0  0  0
   -3.9377   -3.0072    1.1879 N   0  0  0  0  0  0  0  0  0  0  0  0
   -1.3776    0.1812   -0.7159 O   0  0  0  0  0  0  0  0  0  0  0  0
   -3.4534    0.8066   -0.3488 O   0  5  0  0  0  0  0  0  0  0  0  0
    1.1753   -3.1250   -1.5422 N   0  0  0  0  0  0  0  0  0  0  0  0
    1.9199   -1.8432   -1.5546 C   0  0  0  0  0  0  0  0  0  0  0  0
    1.3457   -3.7381   -2.8870 C   0  0  0  0  0  0  0  0  0  0  0  0
    1.5182   -0.9168   -2.7114 C   0  0  0  0  0  0  0  0  0  0  0  0
    1.0404   -2.7922   -4.0676 C   0  0  0  0  0  0  0  0  0  0  0  0
    1.7595   -1.5567   -3.9705 O   0  0  0  0  0  0  0  0  0  0  0  0
   -0.0678   -1.4304    0.3746 H   0  0  0  0  0  0  0  0  0  0  0  0
   -0.0854   -3.0781    0.9632 H   0  0  0  0  0  0  0  0  0  0  0  0
   -2.2097   -4.2343    1.4234 H   0  0  0  0  0  0  0  0  0  0  0  0
   -5.0085   -1.2333    0.6318 H   0  0  0  0  0  0  0  0  0  0  0  0
   -0.7137   -3.9695   -1.2447 H   0  0  0  0  0  0  0  0  0  0  0  0
   -0.7859   -2.3689   -1.9458 H   0  0  0  0  0  0  0  0  0  0  0  0
    2.9857   -2.0878   -1.6629 H   0  0  0  0  0  0  0  0  0  0  0  0
    1.8372   -1.3256   -0.5956 H   0  0  0  0  0  0  0  0  0  0  0  0
    2.3940   -4.0555   -2.9675 H   0  0  0  0  0  0  0  0  0  0  0  0
    0.7473   -4.6526   -2.9740 H   0  0  0  0  0  0  0  0  0  0  0  0
    0.4672   -0.6139   -2.6526 H   0  0  0  0  0  0  0  0  0  0  0  0
    2.1220   -0.0044   -2.6804 H   0  0  0  0  0  0  0  0  0  0  0  0
    1.3452   -3.2689   -5.0047 H   0  0  0  0  0  0  0  0  0  0  0  0
   -0.0312   -2.5772   -4.1436 H   0  0  0  0  0  0  0  0  0  0  0  0
  1  2  1  0  0  0  0
  1  3  1  0  0  0  0
  1  4  1  0  0  0  0
  2  5  2  0  0  0  0
  2  6  1  0  0  0  0
  3  7  1  0  0  0  0
  3 17  1  0  0  0  0
  3 18  1  0  0  0  0
  4  8  2  0  0  0  0
  4 19  1  0  0  0  0
  5  8  1  0  0  0  0
  5 20  1  0  0  0  0
  6  9  2  0  0  0  0
  6 10  1  0  0  0  0
  7 11  1  0  0  0  0
  7 21  1  0  0  0  0
  7 22  1  0  0  0  0
 11 12  1  0  0  0  0
 11 13  1  0  0  0  0
 12 14  1  0  0  0  0
 12 23  1  0  0  0  0
 12 24  1  0  0  0  0
 13 15  1  0  0  0  0
 13 25  1  0  0  0  0
 13 26  1  0  0  0  0
 14 16  1  0  0  0  0
 14 27  1  0  0  0  0
 14 28  1  0  0  0  0
 15 16  1  0  0  0  0
 15 29  1  0  0  0  0
 15 30  1  0  0  0  0
M  CHG  2   6   1  10  -1
M  END
>  <Mol_ID>
3732

>  <Formula>
C9H14N4O3

>  <MolWeight>
226.23246

>  <Cat>
S6411

>  <Name>
Nimorazole

>  <Synonyms>
N/A

>  <Target>
Bacterial

>  <Form>
Free Base

>  <CAS>
6506-37-2

>  <URL>
http://www.selleck.cn/products/nimorazole.html

$$$$
