Nithiamide.cdx
 OpenBabel08302522053D

 17 17  0  0  0  0  0  0  0  0999 V2000
    0.0577   -1.1711   -0.0300 C   0  0  0  0  0  0  0  0  0  0  0  0
   -1.1740    0.0110   -0.0672 S   0  0  0  0  0  0  0  0  0  0  0  0
    1.2889   -0.7182    0.0634 N   0  0  0  0  0  0  0  0  0  0  0  0
   -0.2038   -2.5178   -0.0458 N   0  0  0  0  0  0  0  0  0  0  0  0
    0.0127    1.2200   -0.0084 C   0  0  0  0  0  0  0  0  0  0  0  0
    1.2695    0.6672    0.0419 C   0  0  0  0  0  0  0  0  0  0  0  0
   -1.4011   -3.1112   -0.3728 C   0  0  0  0  0  0  0  0  0  0  0  0
   -0.3192    2.6075   -0.0123 N   0  3  0  0  0  0  0  0  0  0  0  0
    0.6362    3.3976   -0.0151 O   0  0  0  0  0  0  0  0  0  0  0  0
   -1.5136    2.9278   -0.0083 O   0  5  0  0  0  0  0  0  0  0  0  0
   -1.3582   -4.6168   -0.2819 C   0  0  0  0  0  0  0  0  0  0  0  0
   -2.4297   -2.5491   -0.7327 O   0  0  0  0  0  0  0  0  0  0  0  0
    0.6223   -3.0864    0.0804 H   0  0  0  0  0  0  0  0  0  0  0  0
    2.2061    1.2130    0.0723 H   0  0  0  0  0  0  0  0  0  0  0  0
   -2.1418   -4.9520    0.4021 H   0  0  0  0  0  0  0  0  0  0  0  0
   -1.5339   -5.0364   -1.2778 H   0  0  0  0  0  0  0  0  0  0  0  0
   -0.3967   -4.9817    0.0861 H   0  0  0  0  0  0  0  0  0  0  0  0
  1  2  1  0  0  0  0
  1  3  2  0  0  0  0
  1  4  1  0  0  0  0
  2  5  1  0  0  0  0
  3  6  1  0  0  0  0
  4  7  1  0  0  0  0
  4 13  1  0  0  0  0
  5  8  1  0  0  0  0
  5  6  2  0  0  0  0
  6 14  1  0  0  0  0
  7 11  1  0  0  0  0
  7 12  2  0  0  0  0
  8  9  2  0  0  0  0
  8 10  1  0  0  0  0
 11 15  1  0  0  0  0
 11 16  1  0  0  0  0
 11 17  1  0  0  0  0
M  CHG  2   8   1  10  -1
M  END
>  <Mol_ID>
1356

>  <Formula>
C5H5N3O3S

>  <MolWeight>
187.1765

>  <Cat>
S4232

>  <Name>
Nithiamide

>  <Synonyms>
CL 5279

>  <Target>
Anti-infection

>  <Form>
free base

>  <CAS>
140-40-9

>  <URL>
http://selleckchem.com/products/nithiamide.html

$$$$
