Nitrofurantoin.cdx
 OpenBabel08302519503D

 23 24  0  0  0  0  0  0  0  0999 V2000
    0.8467   -1.1496    0.0070 N   0  0  0  0  0  0  0  0  0  0  0  0
   -0.5691   -1.3502   -0.2052 C   0  0  0  0  0  0  0  0  0  0  0  0
    1.1495    0.2056    0.2032 C   0  0  0  0  0  0  0  0  0  0  0  0
    1.6922   -2.2189   -0.1011 N   0  0  0  0  0  0  0  0  0  0  0  0
   -1.0694    0.0739   -0.0917 C   0  0  0  0  0  0  0  0  0  0  0  0
   -0.0223    0.8974    0.1673 N   0  0  0  0  0  0  0  0  0  0  0  0
    2.2378    0.7323    0.3649 O   0  0  0  0  0  0  0  0  0  0  0  0
    2.9609   -2.0738    0.1116 C   0  0  0  0  0  0  0  0  0  0  0  0
   -2.2295    0.4349   -0.2172 O   0  0  0  0  0  0  0  0  0  0  0  0
    3.8319   -3.2126   -0.0242 C   0  0  0  0  0  0  0  0  0  0  0  0
    5.1703   -3.0425    0.2173 O   0  0  0  0  0  0  0  0  0  0  0  0
    3.5825   -4.5326   -0.3624 C   0  0  0  0  0  0  0  0  0  0  0  0
    5.7482   -4.2618    0.0390 C   0  0  0  0  0  0  0  0  0  0  0  0
    4.8245   -5.2145   -0.3191 C   0  0  0  0  0  0  0  0  0  0  0  0
    7.1575   -4.3451    0.2595 N   0  3  0  0  0  0  0  0  0  0  0  0
    7.6661   -5.4674    0.1314 O   0  0  0  0  0  0  0  0  0  0  0  0
    7.7590   -3.3061    0.5598 O   0  5  0  0  0  0  0  0  0  0  0  0
   -0.7464   -1.7492   -1.2058 H   0  0  0  0  0  0  0  0  0  0  0  0
   -0.9834   -1.9778    0.5867 H   0  0  0  0  0  0  0  0  0  0  0  0
   -0.0870    1.8960    0.2634 H   0  0  0  0  0  0  0  0  0  0  0  0
    3.4486   -1.1329    0.4050 H   0  0  0  0  0  0  0  0  0  0  0  0
    2.6105   -4.9446   -0.6014 H   0  0  0  0  0  0  0  0  0  0  0  0
    5.0193   -6.2600   -0.5154 H   0  0  0  0  0  0  0  0  0  0  0  0
  1  2  1  0  0  0  0
  1  3  1  0  0  0  0
  1  4  1  0  0  0  0
  2  5  1  0  0  0  0
  2 18  1  0  0  0  0
  2 19  1  0  0  0  0
  3  6  1  0  0  0  0
  3  7  2  0  0  0  0
  4  8  2  0  0  0  0
  5  9  2  0  0  0  0
  5  6  1  0  0  0  0
  6 20  1  0  0  0  0
  8 10  1  0  0  0  0
  8 21  1  0  0  0  0
 10 11  1  0  0  0  0
 10 12  2  0  0  0  0
 11 13  1  0  0  0  0
 12 14  1  0  0  0  0
 12 22  1  0  0  0  0
 13 15  1  0  0  0  0
 13 14  2  0  0  0  0
 14 23  1  0  0  0  0
 15 16  2  0  0  0  0
 15 17  1  0  0  0  0
M  CHG  2  15   1  17  -1
M  END
>  <Mol_ID>
1491

>  <Formula>
C8H6N4O5

>  <MolWeight>
238.15704

>  <Cat>
S4536

>  <Name>
Nitrofurantoin

>  <Synonyms>
Macrodantin, Furadantine, Furadonine

>  <Target>
Antibiotics,Bacterial

>  <Form>
free base

>  <CAS>
67-20-9

>  <URL>
http://selleckchem.com/products/nitrofurantoin.html

$$$$
