Nitrendipine.cdx
 OpenBabel08302521383D

 46 47  0  0  0  0  0  0  0  0999 V2000
    1.3750   -0.3324    0.2574 C   0  0  0  0  0  0  0  0  0  0  0  0
    0.4508   -1.3862    0.2791 C   0  0  0  0  0  0  0  0  0  0  0  0
   -0.9311   -1.1284    0.2555 C   0  0  0  0  0  0  0  0  0  0  0  0
   -1.3622    0.2106    0.3344 C   0  0  0  0  0  0  0  0  0  0  0  0
   -0.4324    1.2607    0.2952 C   0  0  0  0  0  0  0  0  0  0  0  0
    0.9385    0.9934    0.2342 C   0  0  0  0  0  0  0  0  0  0  0  0
   -0.9086    2.6490    0.2100 N   0  3  0  0  0  0  0  0  0  0  0  0
   -2.1340    2.8374    0.1774 O   0  5  0  0  0  0  0  0  0  0  0  0
   -0.0600    3.5502    0.1552 O   0  0  0  0  0  0  0  0  0  0  0  0
   -1.9562   -2.2230   -0.1108 C   0  0  3  0  0  0  0  0  0  0  0  0
   -1.6721   -2.7072   -1.5477 C   0  0  0  0  0  0  0  0  0  0  0  0
   -1.2595   -3.9760   -1.7475 C   0  0  0  0  0  0  0  0  0  0  0  0
   -1.1973   -4.8614   -0.6876 N   0  0  0  0  0  0  0  0  0  0  0  0
   -1.7517   -4.6319    0.5698 C   0  0  0  0  0  0  0  0  0  0  0  0
   -2.1047   -3.3636    0.9181 C   0  0  0  0  0  0  0  0  0  0  0  0
   -2.7711   -3.0215    2.2174 C   0  0  0  0  0  0  0  0  0  0  0  0
   -2.7885   -3.7189    3.2210 O   0  0  0  0  0  0  0  0  0  0  0  0
   -3.3360   -1.7840    2.1274 O   0  0  0  0  0  0  0  0  0  0  0  0
   -3.9769   -1.2761    3.3023 C   0  0  0  0  0  0  0  0  0  0  0  0
   -1.9526   -5.9170    1.3418 C   0  0  0  0  0  0  0  0  0  0  0  0
   -1.8565   -1.7417   -2.6687 C   0  0  0  0  0  0  0  0  0  0  0  0
   -1.3632   -1.8536   -3.7800 O   0  0  0  0  0  0  0  0  0  0  0  0
   -2.6619   -0.7075   -2.3042 O   0  0  0  0  0  0  0  0  0  0  0  0
   -2.9139    0.2658   -3.3346 C   0  0  0  0  0  0  0  0  0  0  0  0
   -1.7429    1.2232   -3.4791 C   0  0  0  0  0  0  0  0  0  0  0  0
   -0.8575   -4.6109   -3.0609 C   0  0  0  0  0  0  0  0  0  0  0  0
    2.4408   -0.5474    0.1994 H   0  0  0  0  0  0  0  0  0  0  0  0
    0.8224   -2.4090    0.2307 H   0  0  0  0  0  0  0  0  0  0  0  0
   -2.4302    0.4283    0.3282 H   0  0  0  0  0  0  0  0  0  0  0  0
    1.6691    1.7951    0.1421 H   0  0  0  0  0  0  0  0  0  0  0  0
   -2.9508   -1.7613   -0.1601 H   0  0  0  0  0  0  0  0  0  0  0  0
   -1.0130   -5.8314   -0.9211 H   0  0  0  0  0  0  0  0  0  0  0  0
   -4.7494   -1.9638    3.6569 H   0  0  0  0  0  0  0  0  0  0  0  0
   -3.2397   -1.0713    4.0840 H   0  0  0  0  0  0  0  0  0  0  0  0
   -4.4580   -0.3315    3.0346 H   0  0  0  0  0  0  0  0  0  0  0  0
   -2.6351   -6.5686    0.7778 H   0  0  0  0  0  0  0  0  0  0  0  0
   -1.0013   -6.4577    1.4278 H   0  0  0  0  0  0  0  0  0  0  0  0
   -2.3680   -5.8161    2.3428 H   0  0  0  0  0  0  0  0  0  0  0  0
   -3.1473   -0.2261   -4.2860 H   0  0  0  0  0  0  0  0  0  0  0  0
   -3.8070    0.8248   -3.0362 H   0  0  0  0  0  0  0  0  0  0  0  0
   -0.8274    0.6988   -3.7682 H   0  0  0  0  0  0  0  0  0  0  0  0
   -1.9553    1.9876   -4.2322 H   0  0  0  0  0  0  0  0  0  0  0  0
   -1.5354    1.7198   -2.5286 H   0  0  0  0  0  0  0  0  0  0  0  0
    0.0891   -5.1497   -2.9302 H   0  0  0  0  0  0  0  0  0  0  0  0
   -1.6203   -5.3342   -3.3681 H   0  0  0  0  0  0  0  0  0  0  0  0
   -0.6933   -3.9242   -3.8872 H   0  0  0  0  0  0  0  0  0  0  0  0
  1  2  2  0  0  0  0
  1 27  1  0  0  0  0
  2  3  1  0  0  0  0
  2 28  1  0  0  0  0
  3  4  2  0  0  0  0
  3 10  1  0  0  0  0
  4  5  1  0  0  0  0
  4 29  1  0  0  0  0
  5  6  2  0  0  0  0
  5  7  1  0  0  0  0
  6  1  1  0  0  0  0
  6 30  1  0  0  0  0
  7  8  1  0  0  0  0
  7  9  2  0  0  0  0
 10 11  1  0  0  0  0
 10 31  1  0  0  0  0
 11 12  2  0  0  0  0
 11 21  1  0  0  0  0
 12 13  1  0  0  0  0
 12 26  1  0  0  0  0
 13 14  1  0  0  0  0
 13 32  1  0  0  0  0
 14 15  2  0  0  0  0
 14 20  1  0  0  0  0
 15 10  1  0  0  0  0
 15 16  1  0  0  0  0
 16 17  2  0  0  0  0
 16 18  1  0  0  0  0
 18 19  1  0  0  0  0
 19 33  1  0  0  0  0
 19 34  1  0  0  0  0
 19 35  1  0  0  0  0
 20 36  1  0  0  0  0
 20 37  1  0  0  0  0
 20 38  1  0  0  0  0
 21 22  2  0  0  0  0
 21 23  1  0  0  0  0
 23 24  1  0  0  0  0
 24 25  1  0  0  0  0
 24 39  1  0  0  0  0
 24 40  1  0  0  0  0
 25 41  1  0  0  0  0
 25 42  1  0  0  0  0
 25 43  1  0  0  0  0
 26 44  1  0  0  0  0
 26 45  1  0  0  0  0
 26 46  1  0  0  0  0
M  CHG  2   7   1   8  -1
M  END
>  <Mol_ID>
763

>  <Formula>
C18H20N2O6

>  <MolWeight>
360.3612

>  <Cat>
S2491

>  <Name>
Nitrendipine

>  <Synonyms>
Bayotensin

>  <Target>
Autophagy,Calcium Channel

>  <Form>
free base

>  <CAS>
39562-70-4

>  <URL>
http://selleckchem.com/products/Nitrendipine.html

$$$$
