Nitrocaramiphen hydrochloride
 OpenBabel08302521333D

 50 51  0  0  0  0  0  0  0  0999 V2000
    0.7356   -0.8833   -2.4190 O   0  0  0  0  0  0  0  0  0  0  0  0
    0.9334    0.2953   -0.4635 O   0  0  0  0  0  0  0  0  0  0  0  0
   -2.8180   -6.7737   -1.9635 O   0  5  0  0  0  0  0  0  0  0  0  0
   -2.6223   -6.7208    0.2195 O   0  0  0  0  0  0  0  0  0  0  0  0
    4.4755   -0.2774   -2.7033 N   0  0  0  0  0  0  0  0  0  0  0  0
   -2.5944   -6.1847   -0.8983 N   0  3  0  0  0  0  0  0  0  0  0  0
   -1.2679   -0.5077   -1.1748 C   0  0  0  0  0  0  0  0  0  0  0  0
   -1.8942    0.2739   -2.3644 C   0  0  0  0  0  0  0  0  0  0  0  0
   -1.8363    0.3571   -0.0174 C   0  0  0  0  0  0  0  0  0  0  0  0
   -3.2988    0.6745   -1.9232 C   0  0  0  0  0  0  0  0  0  0  0  0
   -3.2851    0.6353   -0.4008 C   0  0  0  0  0  0  0  0  0  0  0  0
   -1.6530   -1.9963   -1.0941 C   0  0  0  0  0  0  0  0  0  0  0  0
    0.2545   -0.3360   -1.2635 C   0  0  0  0  0  0  0  0  0  0  0  0
   -1.9172   -2.7476   -2.2558 C   0  0  0  0  0  0  0  0  0  0  0  0
   -1.6806   -2.6802    0.1373 C   0  0  0  0  0  0  0  0  0  0  0  0
    1.9681   -0.3171   -2.8951 C   0  0  0  0  0  0  0  0  0  0  0  0
   -2.2327   -4.1090   -2.1966 C   0  0  0  0  0  0  0  0  0  0  0  0
   -1.9989   -4.0438    0.2109 C   0  0  0  0  0  0  0  0  0  0  0  0
    3.2179   -0.8347   -2.1617 C   0  0  0  0  0  0  0  0  0  0  0  0
   -2.2761   -4.7536   -0.9602 C   0  0  0  0  0  0  0  0  0  0  0  0
    4.5573    1.1944   -2.6200 C   0  0  0  0  0  0  0  0  0  0  0  0
    5.6734   -0.9059   -2.1252 C   0  0  0  0  0  0  0  0  0  0  0  0
    4.4299    1.8180   -1.2318 C   0  0  0  0  0  0  0  0  0  0  0  0
    5.8149   -2.3801   -2.4940 C   0  0  0  0  0  0  0  0  0  0  0  0
   -1.3156    1.1905   -2.5516 H   0  0  0  0  0  0  0  0  0  0  0  0
   -1.9106   -0.2548   -3.3199 H   0  0  0  0  0  0  0  0  0  0  0  0
   -1.7591   -0.0844    0.9788 H   0  0  0  0  0  0  0  0  0  0  0  0
   -1.3073    1.3194    0.0381 H   0  0  0  0  0  0  0  0  0  0  0  0
   -3.5500    1.6726   -2.2981 H   0  0  0  0  0  0  0  0  0  0  0  0
   -4.0476   -0.0224   -2.3144 H   0  0  0  0  0  0  0  0  0  0  0  0
   -3.6438    1.5735    0.0344 H   0  0  0  0  0  0  0  0  0  0  0  0
   -3.9382   -0.1673   -0.0407 H   0  0  0  0  0  0  0  0  0  0  0  0
   -1.8610   -2.2999   -3.2447 H   0  0  0  0  0  0  0  0  0  0  0  0
   -1.4408   -2.1719    1.0694 H   0  0  0  0  0  0  0  0  0  0  0  0
    2.0372   -0.5855   -3.9559 H   0  0  0  0  0  0  0  0  0  0  0  0
    1.8783    0.7736   -2.8523 H   0  0  0  0  0  0  0  0  0  0  0  0
   -2.4279   -4.6449   -3.1234 H   0  0  0  0  0  0  0  0  0  0  0  0
   -2.0145   -4.5319    1.1837 H   0  0  0  0  0  0  0  0  0  0  0  0
    3.1437   -0.6656   -1.0825 H   0  0  0  0  0  0  0  0  0  0  0  0
    3.2072   -1.9248   -2.2776 H   0  0  0  0  0  0  0  0  0  0  0  0
    5.5058    1.5270   -3.0619 H   0  0  0  0  0  0  0  0  0  0  0  0
    3.7964    1.6340   -3.2744 H   0  0  0  0  0  0  0  0  0  0  0  0
    6.5638   -0.4016   -2.5221 H   0  0  0  0  0  0  0  0  0  0  0  0
    5.7009   -0.7944   -1.0349 H   0  0  0  0  0  0  0  0  0  0  0  0
    5.2967    1.5840   -0.6069 H   0  0  0  0  0  0  0  0  0  0  0  0
    4.3706    2.9082   -1.3235 H   0  0  0  0  0  0  0  0  0  0  0  0
    3.5263    1.4942   -0.7087 H   0  0  0  0  0  0  0  0  0  0  0  0
    5.6275   -2.5454   -3.5605 H   0  0  0  0  0  0  0  0  0  0  0  0
    6.8328   -2.7225   -2.2791 H   0  0  0  0  0  0  0  0  0  0  0  0
    5.1290   -3.0083   -1.9178 H   0  0  0  0  0  0  0  0  0  0  0  0
  1 13  1  0  0  0  0
  1 16  1  0  0  0  0
  2 13  2  0  0  0  0
  3  6  1  0  0  0  0
  4  6  2  0  0  0  0
  5 19  1  0  0  0  0
  5 21  1  0  0  0  0
  5 22  1  0  0  0  0
  6 20  1  0  0  0  0
  7  8  1  0  0  0  0
  7  9  1  0  0  0  0
  7 12  1  0  0  0  0
  7 13  1  0  0  0  0
  8 10  1  0  0  0  0
  8 25  1  0  0  0  0
  8 26  1  0  0  0  0
  9 11  1  0  0  0  0
  9 27  1  0  0  0  0
  9 28  1  0  0  0  0
 10 11  1  0  0  0  0
 10 29  1  0  0  0  0
 10 30  1  0  0  0  0
 11 31  1  0  0  0  0
 11 32  1  0  0  0  0
 12 14  2  0  0  0  0
 12 15  1  0  0  0  0
 14 17  1  0  0  0  0
 14 33  1  0  0  0  0
 15 18  2  0  0  0  0
 15 34  1  0  0  0  0
 16 19  1  0  0  0  0
 16 35  1  0  0  0  0
 16 36  1  0  0  0  0
 17 20  2  0  0  0  0
 17 37  1  0  0  0  0
 18 20  1  0  0  0  0
 18 38  1  0  0  0  0
 19 39  1  0  0  0  0
 19 40  1  0  0  0  0
 21 23  1  0  0  0  0
 21 41  1  0  0  0  0
 21 42  1  0  0  0  0
 22 24  1  0  0  0  0
 22 43  1  0  0  0  0
 22 44  1  0  0  0  0
 23 45  1  0  0  0  0
 23 46  1  0  0  0  0
 23 47  1  0  0  0  0
 24 48  1  0  0  0  0
 24 49  1  0  0  0  0
 24 50  1  0  0  0  0
M  CHG  2   3  -1   6   1
M  END
>  <Mol_ID>
6364

>  <Formula>
C18H27ClN2O4

>  <MolWeight>
370.87098

>  <Cat>
E0829

>  <Name>
Nitrocaramiphen hydrochloride

>  <Target>
AChR

>  <Form>
hydrochloride

>  <CAS>
98636-73-8

>  <URL>
http://www.selleckchem.com/products/nitrocaramiphen-hydrochloride.html

$$$$
