NK-252
 OpenBabel08302521373D

 32 34  0  0  0  0  0  0  0  0999 V2000
    0.7491   -0.1704   -0.0200 N   0  0  0  0  0  0  0  0  0  0  0  0
    0.1431   -0.0107    1.1985 C   0  0  0  0  0  0  0  0  0  0  0  0
   -1.0296    0.2883    1.3919 O   0  0  0  0  0  0  0  0  0  0  0  0
    0.9994   -0.2962    2.2399 N   0  0  0  0  0  0  0  0  0  0  0  0
    0.5470   -0.2308    3.6176 C   0  0  0  0  0  0  0  0  0  0  0  0
    0.6067    1.1578    4.2199 C   0  0  0  0  0  0  0  0  0  0  0  0
   -0.5309    1.9693    4.2323 C   0  0  0  0  0  0  0  0  0  0  0  0
   -0.4655    3.2121    4.8484 C   0  0  0  0  0  0  0  0  0  0  0  0
    0.7251    3.6281    5.4272 C   0  0  0  0  0  0  0  0  0  0  0  0
    1.8131    2.7732    5.3569 C   0  0  0  0  0  0  0  0  0  0  0  0
    1.7871    1.5556    4.7647 N   0  0  0  0  0  0  0  0  0  0  0  0
    0.6613   -0.4896   -2.3093 O   0  0  0  0  0  0  0  0  0  0  0  0
    0.0460   -0.0206   -1.1805 C   0  0  0  0  0  0  0  0  0  0  0  0
   -1.1440    0.4763   -1.4239 N   0  0  0  0  0  0  0  0  0  0  0  0
   -1.3655    0.3255   -2.7757 N   0  0  0  0  0  0  0  0  0  0  0  0
   -0.2986   -0.2726   -3.2734 C   0  0  0  0  0  0  0  0  0  0  0  0
    0.8953   -1.3823   -5.1311 O   0  0  0  0  0  0  0  0  0  0  0  0
   -0.1815   -0.6852   -4.6393 C   0  0  0  0  0  0  0  0  0  0  0  0
   -1.0945   -0.5068   -5.6681 C   0  0  0  0  0  0  0  0  0  0  0  0
   -0.5579   -1.1250   -6.8225 C   0  0  0  0  0  0  0  0  0  0  0  0
    0.6546   -1.6450   -6.4411 C   0  0  0  0  0  0  0  0  0  0  0  0
    1.6519   -0.6038   -0.0886 H   0  0  0  0  0  0  0  0  0  0  0  0
    1.9958   -0.2427    2.0916 H   0  0  0  0  0  0  0  0  0  0  0  0
   -0.4689   -0.6342    3.6921 H   0  0  0  0  0  0  0  0  0  0  0  0
    1.2013   -0.8929    4.1953 H   0  0  0  0  0  0  0  0  0  0  0  0
   -1.4564    1.6290    3.7748 H   0  0  0  0  0  0  0  0  0  0  0  0
   -1.3456    3.8549    4.8756 H   0  0  0  0  0  0  0  0  0  0  0  0
    0.8062    4.5879    5.9162 H   0  0  0  0  0  0  0  0  0  0  0  0
    2.7674    3.0531    5.7961 H   0  0  0  0  0  0  0  0  0  0  0  0
   -2.0448    0.0037   -5.5794 H   0  0  0  0  0  0  0  0  0  0  0  0
   -1.0035   -1.1889   -7.8056 H   0  0  0  0  0  0  0  0  0  0  0  0
    1.4232   -2.2046   -6.9565 H   0  0  0  0  0  0  0  0  0  0  0  0
  1  2  1  0  0  0  0
  1 13  1  0  0  0  0
  1 22  1  0  0  0  0
  2  3  2  0  0  0  0
  2  4  1  0  0  0  0
  4  5  1  0  0  0  0
  4 23  1  0  0  0  0
  5  6  1  0  0  0  0
  5 24  1  0  0  0  0
  5 25  1  0  0  0  0
  6  7  2  0  0  0  0
  6 11  1  0  0  0  0
  7  8  1  0  0  0  0
  7 26  1  0  0  0  0
  8  9  2  0  0  0  0
  8 27  1  0  0  0  0
  9 10  1  0  0  0  0
  9 28  1  0  0  0  0
 10 11  2  0  0  0  0
 10 29  1  0  0  0  0
 12 13  1  0  0  0  0
 12 16  1  0  0  0  0
 13 14  2  0  0  0  0
 14 15  1  0  0  0  0
 15 16  2  0  0  0  0
 16 18  1  0  0  0  0
 17 18  1  0  0  0  0
 17 21  1  0  0  0  0
 18 19  2  0  0  0  0
 19 20  1  0  0  0  0
 19 30  1  0  0  0  0
 20 21  2  0  0  0  0
 20 31  1  0  0  0  0
 21 32  1  0  0  0  0
M  END
>  <Mol_ID>
7479

>  <Formula>
C13H11N5O3

>  <MolWeight>
285.25814

>  <Cat>
E0441

>  <Name>
NK-252

>  <Target>
Nrf2

>  <Form>
free base

>  <CAS>
1414963-82-8

>  <URL>
https://www.selleckchem.com/products/nk-252.html

$$$$
