NKL 22
 OpenBabel08302521233D

 47 48  0  0  0  0  0  0  0  0999 V2000
    0.7763    2.5155   -1.2015 C   0  0  0  0  0  0  0  0  0  0  0  0
   -0.1644    1.7315   -0.3158 C   0  0  0  0  0  0  0  0  0  0  0  0
   -0.6902    0.4740   -0.9988 C   0  0  0  0  0  0  0  0  0  0  0  0
   -1.7618   -0.2426   -0.1736 C   0  0  0  0  0  0  0  0  0  0  0  0
   -3.0442    0.5558    0.1125 C   0  0  0  0  0  0  0  0  0  0  0  0
   -3.8153    1.0426   -1.1189 C   0  0  0  0  0  0  0  0  0  0  0  0
   -4.4331   -0.0773   -1.9427 C   0  0  0  0  0  0  0  0  0  0  0  0
    0.3965    3.5808   -1.6814 O   0  0  0  0  0  0  0  0  0  0  0  0
    2.0144    1.9293   -1.3896 N   0  0  0  0  0  0  0  0  0  0  0  0
   -4.4853   -1.2297   -1.5256 O   0  0  0  0  0  0  0  0  0  0  0  0
   -4.9235    0.3746   -3.1602 N   0  0  0  0  0  0  0  0  0  0  0  0
   -5.5317   -0.4000   -4.1736 C   0  0  0  0  0  0  0  0  0  0  0  0
   -5.8945   -1.7386   -4.0193 C   0  0  0  0  0  0  0  0  0  0  0  0
   -6.4437   -2.4585   -5.0856 C   0  0  0  0  0  0  0  0  0  0  0  0
   -6.6443   -1.8436   -6.3178 C   0  0  0  0  0  0  0  0  0  0  0  0
   -6.3186   -0.4975   -6.4795 C   0  0  0  0  0  0  0  0  0  0  0  0
   -5.7698    0.2208   -5.4091 C   0  0  0  0  0  0  0  0  0  0  0  0
    3.0907    2.4455   -2.1674 C   0  0  0  0  0  0  0  0  0  0  0  0
    3.2845    3.8157   -2.4728 C   0  0  0  0  0  0  0  0  0  0  0  0
    4.3488    4.1824   -3.3076 C   0  0  0  0  0  0  0  0  0  0  0  0
    5.1998    3.2261   -3.8588 C   0  0  0  0  0  0  0  0  0  0  0  0
    5.0287    1.8852   -3.5362 C   0  0  0  0  0  0  0  0  0  0  0  0
    3.9861    1.5011   -2.6902 C   0  0  0  0  0  0  0  0  0  0  0  0
    2.6419    4.8596   -1.7664 N   0  0  0  0  0  0  0  0  0  0  0  0
    0.3418    1.4949    0.6255 H   0  0  0  0  0  0  0  0  0  0  0  0
   -0.9909    2.4096   -0.0739 H   0  0  0  0  0  0  0  0  0  0  0  0
   -1.0735    0.7121   -1.9976 H   0  0  0  0  0  0  0  0  0  0  0  0
    0.1423   -0.2231   -1.1582 H   0  0  0  0  0  0  0  0  0  0  0  0
   -2.0183   -1.1789   -0.6804 H   0  0  0  0  0  0  0  0  0  0  0  0
   -1.3215   -0.5321    0.7897 H   0  0  0  0  0  0  0  0  0  0  0  0
   -3.7016   -0.0700    0.7292 H   0  0  0  0  0  0  0  0  0  0  0  0
   -2.7979    1.4254    0.7328 H   0  0  0  0  0  0  0  0  0  0  0  0
   -4.6476    1.6706   -0.7749 H   0  0  0  0  0  0  0  0  0  0  0  0
   -3.1789    1.6629   -1.7553 H   0  0  0  0  0  0  0  0  0  0  0  0
    2.0945    0.9555   -1.1287 H   0  0  0  0  0  0  0  0  0  0  0  0
   -4.7585    1.3474   -3.3847 H   0  0  0  0  0  0  0  0  0  0  0  0
   -5.7668   -2.2573   -3.0747 H   0  0  0  0  0  0  0  0  0  0  0  0
   -6.7078   -3.5040   -4.9476 H   0  0  0  0  0  0  0  0  0  0  0  0
   -7.0546   -2.4117   -7.1487 H   0  0  0  0  0  0  0  0  0  0  0  0
   -6.4788   -0.0146   -7.4371 H   0  0  0  0  0  0  0  0  0  0  0  0
   -5.5205    1.2665   -5.5676 H   0  0  0  0  0  0  0  0  0  0  0  0
    4.5318    5.2338   -3.5161 H   0  0  0  0  0  0  0  0  0  0  0  0
    6.0084    3.5346   -4.5158 H   0  0  0  0  0  0  0  0  0  0  0  0
    5.7065    1.1400   -3.9457 H   0  0  0  0  0  0  0  0  0  0  0  0
    3.8695    0.4457   -2.4610 H   0  0  0  0  0  0  0  0  0  0  0  0
    2.4522    5.6515   -2.3721 H   0  0  0  0  0  0  0  0  0  0  0  0
    1.7521    4.5415   -1.3786 H   0  0  0  0  0  0  0  0  0  0  0  0
  1  2  1  0  0  0  0
  1  8  2  0  0  0  0
  1  9  1  0  0  0  0
  2  3  1  0  0  0  0
  2 25  1  0  0  0  0
  2 26  1  0  0  0  0
  3  4  1  0  0  0  0
  3 27  1  0  0  0  0
  3 28  1  0  0  0  0
  4  5  1  0  0  0  0
  4 29  1  0  0  0  0
  4 30  1  0  0  0  0
  5  6  1  0  0  0  0
  5 31  1  0  0  0  0
  5 32  1  0  0  0  0
  6  7  1  0  0  0  0
  6 33  1  0  0  0  0
  6 34  1  0  0  0  0
  7 10  2  0  0  0  0
  7 11  1  0  0  0  0
  9 18  1  0  0  0  0
  9 35  1  0  0  0  0
 11 12  1  0  0  0  0
 11 36  1  0  0  0  0
 12 13  2  0  0  0  0
 12 17  1  0  0  0  0
 13 14  1  0  0  0  0
 13 37  1  0  0  0  0
 14 15  2  0  0  0  0
 14 38  1  0  0  0  0
 15 16  1  0  0  0  0
 15 39  1  0  0  0  0
 16 17  2  0  0  0  0
 16 40  1  0  0  0  0
 17 41  1  0  0  0  0
 18 19  2  0  0  0  0
 18 23  1  0  0  0  0
 19 20  1  0  0  0  0
 19 24  1  0  0  0  0
 20 21  2  0  0  0  0
 20 42  1  0  0  0  0
 21 22  1  0  0  0  0
 21 43  1  0  0  0  0
 22 23  2  0  0  0  0
 22 44  1  0  0  0  0
 23 45  1  0  0  0  0
 24 46  1  0  0  0  0
 24 47  1  0  0  0  0
M  END
>  <Mol_ID>
4828

>  <Formula>
C19H23N3O2

>  <MolWeight>
325.40482

>  <Cat>
S6548

>  <Name>
NKL 22

>  <Synonyms>
N/A

>  <Target>
HDAC

>  <Form>
Free Base

>  <CAS>
537034-15-4

>  <URL>
http://www.selleck.cn/products/nkl-22.html

$$$$
