NL-1
 OpenBabel08302521323D

 48 49  0  0  0  0  0  0  0  0999 V2000
   -0.9907    1.0902    0.0731 S   0  0  0  0  0  0  0  0  0  0  0  0
   -0.9664    7.2968   -0.8881 O   0  0  0  0  0  0  0  0  0  0  0  0
    2.5385   -0.4318   -0.2383 O   0  0  0  0  0  0  0  0  0  0  0  0
   -1.8966   -1.3724    0.0561 O   0  0  0  0  0  0  0  0  0  0  0  0
    0.3672   -1.0681    0.0076 N   0  0  0  0  0  0  0  0  0  0  0  0
    0.8387    6.5244    1.3426 C   0  0  0  0  0  0  0  0  0  0  0  0
   -1.4804    5.7232   -3.3301 C   0  0  0  0  0  0  0  0  0  0  0  0
    0.5314    5.6959    0.0657 C   0  0  0  0  0  0  0  0  0  0  0  0
   -0.6069    5.2880   -2.1208 C   0  0  0  0  0  0  0  0  0  0  0  0
   -0.3353    6.0923   -0.9841 C   0  0  0  0  0  0  0  0  0  0  0  0
    0.8118    3.5542   -1.1114 C   0  0  0  0  0  0  0  0  0  0  0  0
    1.0727    4.3983   -0.0305 C   0  0  0  0  0  0  0  0  0  0  0  0
    0.0180    4.0254   -2.1586 C   0  0  0  0  0  0  0  0  0  0  0  0
    1.3381    2.1365   -1.1283 C   0  0  0  0  0  0  0  0  0  0  0  0
   -0.1881    6.1279    2.4223 C   0  0  0  0  0  0  0  0  0  0  0  0
    2.2664    6.2315    1.8860 C   0  0  0  0  0  0  0  0  0  0  0  0
    0.7943    8.0617    1.1852 C   0  0  0  0  0  0  0  0  0  0  0  0
   -0.5626    6.4273   -4.3520 C   0  0  0  0  0  0  0  0  0  0  0  0
   -2.1461    4.5085   -4.0363 C   0  0  0  0  0  0  0  0  0  0  0  0
   -2.6505    6.6794   -3.0040 C   0  0  0  0  0  0  0  0  0  0  0  0
    0.8286    1.2762    0.0368 C   0  0  3  0  0  0  0  0  0  0  0  0
    1.3578   -0.1356   -0.0833 C   0  0  0  0  0  0  0  0  0  0  0  0
   -0.9164   -0.6522    0.0513 C   0  0  0  0  0  0  0  0  0  0  0  0
   -0.2963    7.9656   -1.1029 H   0  0  0  0  0  0  0  0  0  0  0  0
    0.5732   -2.0491   -0.0651 H   0  0  0  0  0  0  0  0  0  0  0  0
    1.6940    4.0033    0.7671 H   0  0  0  0  0  0  0  0  0  0  0  0
   -0.1259    3.3636   -3.0073 H   0  0  0  0  0  0  0  0  0  0  0  0
    2.4352    2.1847   -1.1021 H   0  0  0  0  0  0  0  0  0  0  0  0
    1.0970    1.6522   -2.0845 H   0  0  0  0  0  0  0  0  0  0  0  0
   -0.1230    5.0618    2.6696 H   0  0  0  0  0  0  0  0  0  0  0  0
   -0.0267    6.6911    3.3488 H   0  0  0  0  0  0  0  0  0  0  0  0
   -1.2131    6.3260    2.0876 H   0  0  0  0  0  0  0  0  0  0  0  0
    3.0210    6.3820    1.1042 H   0  0  0  0  0  0  0  0  0  0  0  0
    2.5211    6.8919    2.7234 H   0  0  0  0  0  0  0  0  0  0  0  0
    2.3742    5.2128    2.2721 H   0  0  0  0  0  0  0  0  0  0  0  0
    1.4625    8.4011    0.3861 H   0  0  0  0  0  0  0  0  0  0  0  0
   -0.2124    8.4425    0.9945 H   0  0  0  0  0  0  0  0  0  0  0  0
    1.1141    8.5575    2.1113 H   0  0  0  0  0  0  0  0  0  0  0  0
    0.2262    5.7579   -4.7151 H   0  0  0  0  0  0  0  0  0  0  0  0
   -1.1312    6.7679   -5.2256 H   0  0  0  0  0  0  0  0  0  0  0  0
   -0.0740    7.3047   -3.9127 H   0  0  0  0  0  0  0  0  0  0  0  0
   -2.7170    3.9038   -3.3213 H   0  0  0  0  0  0  0  0  0  0  0  0
   -2.8373    4.8306   -4.8241 H   0  0  0  0  0  0  0  0  0  0  0  0
   -1.4183    3.8568   -4.5312 H   0  0  0  0  0  0  0  0  0  0  0  0
   -3.3096    6.2568   -2.2383 H   0  0  0  0  0  0  0  0  0  0  0  0
   -2.3174    7.6681   -2.6781 H   0  0  0  0  0  0  0  0  0  0  0  0
   -3.2601    6.8669   -3.8978 H   0  0  0  0  0  0  0  0  0  0  0  0
    1.1517    1.6719    1.0044 H   0  0  0  0  0  0  0  0  0  0  0  0
  1 21  1  0  0  0  0
  1 23  1  0  0  0  0
  2 10  1  0  0  0  0
  2 24  1  0  0  0  0
  3 22  2  0  0  0  0
  4 23  2  0  0  0  0
  5 22  1  0  0  0  0
  5 23  1  0  0  0  0
  5 25  1  0  0  0  0
  6  8  1  0  0  0  0
  6 15  1  0  0  0  0
  6 16  1  0  0  0  0
  6 17  1  0  0  0  0
  7  9  1  0  0  0  0
  7 18  1  0  0  0  0
  7 19  1  0  0  0  0
  7 20  1  0  0  0  0
  8 10  2  0  0  0  0
  8 12  1  0  0  0  0
  9 10  1  0  0  0  0
  9 13  2  0  0  0  0
 11 12  2  0  0  0  0
 11 13  1  0  0  0  0
 11 14  1  0  0  0  0
 12 26  1  0  0  0  0
 13 27  1  0  0  0  0
 14 21  1  0  0  0  0
 14 28  1  0  0  0  0
 14 29  1  0  0  0  0
 15 30  1  0  0  0  0
 15 31  1  0  0  0  0
 15 32  1  0  0  0  0
 16 33  1  0  0  0  0
 16 34  1  0  0  0  0
 16 35  1  0  0  0  0
 17 36  1  0  0  0  0
 17 37  1  0  0  0  0
 17 38  1  0  0  0  0
 18 39  1  0  0  0  0
 18 40  1  0  0  0  0
 18 41  1  0  0  0  0
 19 42  1  0  0  0  0
 19 43  1  0  0  0  0
 19 44  1  0  0  0  0
 20 45  1  0  0  0  0
 20 46  1  0  0  0  0
 20 47  1  0  0  0  0
 21 22  1  0  0  0  0
 21 48  1  0  0  0  0
M  END
>  <Mol_ID>
6181

>  <Formula>
C18H25NO3S

>  <MolWeight>
335.461

>  <Cat>
S0767

>  <Name>
NL-1

>  <Synonyms>
N/A

>  <Target>
Mitochondrial Metabolism

>  <Form>
free base

>  <CAS>
188532-26-5

>  <URL>
http://www.selleckchem.com/products/nl-1.html

$$$$
