NLG-919.cdx
 OpenBabel08302519553D

 43 46  0  0  0  0  0  0  0  0999 V2000
    2.7283   -1.4309   -0.0854 C   0  0  0  0  0  0  0  0  0  0  0  0
    1.3644   -1.7085    0.0358 C   0  0  0  0  0  0  0  0  0  0  0  0
    0.4915   -0.6414    0.0142 C   0  0  0  0  0  0  0  0  0  0  0  0
    0.9327    0.6934   -0.1260 C   0  0  0  0  0  0  0  0  0  0  0  0
    2.2731    0.9436   -0.3662 C   0  0  0  0  0  0  0  0  0  0  0  0
    3.1771   -0.1175   -0.2948 C   0  0  0  0  0  0  0  0  0  0  0  0
   -0.9306   -0.6024    0.0794 C   0  0  0  0  0  0  0  0  0  0  0  0
   -1.3460    0.7029    0.0441 N   0  0  0  0  0  0  0  0  0  0  0  0
   -0.2419    1.6744   -0.0111 C   0  0  3  0  0  0  0  0  0  0  0  0
   -2.0781   -1.3425    0.1073 C   0  0  0  0  0  0  0  0  0  0  0  0
   -3.1781   -0.4935    0.1034 N   0  0  0  0  0  0  0  0  0  0  0  0
   -2.6892    0.7368    0.0521 C   0  0  0  0  0  0  0  0  0  0  0  0
   -0.2639    2.5572    1.2609 C   0  0  0  0  0  0  0  0  0  0  0  0
    0.7877    3.6797    1.3070 C   0  0  3  0  0  0  0  0  0  0  0  0
    0.7285    4.5724    2.5699 C   0  0  0  0  0  0  0  0  0  0  0  0
    2.0943    3.1208    1.2920 O   0  0  0  0  0  0  0  0  0  0  0  0
   -0.5851    5.3549    2.6894 C   0  0  0  0  0  0  0  0  0  0  0  0
   -0.5775    6.2876    3.9003 C   0  0  0  0  0  0  0  0  0  0  0  0
    0.6140    7.2380    3.8774 C   0  0  0  0  0  0  0  0  0  0  0  0
    1.9247    6.4702    3.7957 C   0  0  0  0  0  0  0  0  0  0  0  0
    1.9414    5.5352    2.5934 C   0  0  0  0  0  0  0  0  0  0  0  0
    3.4526   -2.2399   -0.0351 H   0  0  0  0  0  0  0  0  0  0  0  0
    1.0122   -2.7270    0.1507 H   0  0  0  0  0  0  0  0  0  0  0  0
    2.6389    1.9452   -0.5709 H   0  0  0  0  0  0  0  0  0  0  0  0
    4.2421    0.0817   -0.3993 H   0  0  0  0  0  0  0  0  0  0  0  0
   -0.3716    2.2482   -0.9353 H   0  0  0  0  0  0  0  0  0  0  0  0
   -2.1962   -2.4179    0.1104 H   0  0  0  0  0  0  0  0  0  0  0  0
   -3.2823    1.6430    0.0250 H   0  0  0  0  0  0  0  0  0  0  0  0
   -1.2608    3.0088    1.3353 H   0  0  0  0  0  0  0  0  0  0  0  0
   -0.1442    1.9168    2.1453 H   0  0  0  0  0  0  0  0  0  0  0  0
    0.6872    4.3028    0.4104 H   0  0  0  0  0  0  0  0  0  0  0  0
    0.8235    3.9209    3.4504 H   0  0  0  0  0  0  0  0  0  0  0  0
    2.1680    2.4874    2.0289 H   0  0  0  0  0  0  0  0  0  0  0  0
   -0.7509    5.9438    1.7781 H   0  0  0  0  0  0  0  0  0  0  0  0
   -1.4328    4.6701    2.7880 H   0  0  0  0  0  0  0  0  0  0  0  0
   -1.5108    6.8661    3.9223 H   0  0  0  0  0  0  0  0  0  0  0  0
   -0.5488    5.6888    4.8201 H   0  0  0  0  0  0  0  0  0  0  0  0
    0.5299    7.9111    3.0148 H   0  0  0  0  0  0  0  0  0  0  0  0
    0.6088    7.8639    4.7755 H   0  0  0  0  0  0  0  0  0  0  0  0
    2.7641    7.1718    3.7254 H   0  0  0  0  0  0  0  0  0  0  0  0
    2.0707    5.8868    4.7135 H   0  0  0  0  0  0  0  0  0  0  0  0
    2.8816    4.9712    2.6202 H   0  0  0  0  0  0  0  0  0  0  0  0
    1.9564    6.1288    1.6701 H   0  0  0  0  0  0  0  0  0  0  0  0
  1  2  2  0  0  0  0
  1 22  1  0  0  0  0
  2  3  1  0  0  0  0
  2 23  1  0  0  0  0
  3  4  2  0  0  0  0
  3  7  1  0  0  0  0
  4  5  1  0  0  0  0
  5  6  2  0  0  0  0
  5 24  1  0  0  0  0
  6  1  1  0  0  0  0
  6 25  1  0  0  0  0
  7  8  1  0  0  0  0
  7 10  2  0  0  0  0
  8  9  1  0  0  0  0
  9  4  1  0  0  0  0
  9 13  1  0  0  0  0
  9 26  1  0  0  0  0
 10 11  1  0  0  0  0
 10 27  1  0  0  0  0
 11 12  2  0  0  0  0
 12  8  1  0  0  0  0
 12 28  1  0  0  0  0
 13 14  1  0  0  0  0
 13 29  1  0  0  0  0
 13 30  1  0  0  0  0
 14 15  1  0  0  0  0
 14 16  1  0  0  0  0
 14 31  1  0  0  0  0
 15 17  1  0  0  0  0
 15 32  1  0  0  0  0
 16 33  1  0  0  0  0
 17 18  1  0  0  0  0
 17 34  1  0  0  0  0
 17 35  1  0  0  0  0
 18 19  1  0  0  0  0
 18 36  1  0  0  0  0
 18 37  1  0  0  0  0
 19 20  1  0  0  0  0
 19 38  1  0  0  0  0
 19 39  1  0  0  0  0
 20 21  1  0  0  0  0
 20 40  1  0  0  0  0
 20 41  1  0  0  0  0
 21 15  1  0  0  0  0
 21 42  1  0  0  0  0
 21 43  1  0  0  0  0
M  END
>  <Mol_ID>
2158

>  <Formula>
C18H22N2O

>  <MolWeight>
282.38008

>  <Cat>
S7111

>  <Name>
IDO-IN-2

>  <Synonyms>
RG 6078, NLG-919 analogue, GDC-0919 analogue

>  <Target>
IDO/TDO

>  <Form>
free base

>  <CAS>
1402836-58-1

>  <URL>
http://selleckchem.com/products/nlg919.html

$$$$
