NLX-101
 OpenBabel08302521353D

 48 50  0  0  0  0  0  0  0  0999 V2000
    1.0212    0.0881    0.0734 C   0  0  0  0  0  0  0  0  0  0  0  0
    1.8815   -0.3281   -0.7004 O   0  0  0  0  0  0  0  0  0  0  0  0
   -0.3428    5.5078    0.4673 C   0  0  0  0  0  0  0  0  0  0  0  0
   -0.1949    6.5273   -0.5786 N   0  0  0  0  0  0  0  0  0  0  0  0
   -0.1211    7.8784    0.0103 C   0  0  0  0  0  0  0  0  0  0  0  0
   -1.5972    4.0054   -0.8643 F   0  0  0  0  0  0  0  0  0  0  0  0
   -0.7442   -3.0675    4.3656 F   0  0  0  0  0  0  0  0  0  0  0  0
    0.6633   12.2918   -3.5621 C   0  0  0  0  0  0  0  0  0  0  0  0
    0.3445    1.3017   -0.1086 N   0  0  0  0  0  0  0  0  0  0  0  0
    0.6340    2.1277   -1.2851 C   0  0  0  0  0  0  0  0  0  0  0  0
   -0.8819    1.6888    0.5774 C   0  0  0  0  0  0  0  0  0  0  0  0
    0.7225    3.6089   -0.9044 C   0  0  0  0  0  0  0  0  0  0  0  0
   -0.7341    3.1062    1.1032 C   0  0  0  0  0  0  0  0  0  0  0  0
   -0.4847    4.0614   -0.0678 C   0  0  0  0  0  0  0  0  0  0  0  0
    0.6642   -0.7513    1.2561 C   0  0  0  0  0  0  0  0  0  0  0  0
    0.4915   -0.1979    2.5341 C   0  0  0  0  0  0  0  0  0  0  0  0
    0.4593   -2.1258    1.0699 C   0  0  0  0  0  0  0  0  0  0  0  0
   -0.0098   -0.9740    3.5791 C   0  0  0  0  0  0  0  0  0  0  0  0
    0.0040   -2.9117    2.1319 C   0  0  0  0  0  0  0  0  0  0  0  0
   -0.2510   -2.3243    3.3654 C   0  0  0  0  0  0  0  0  0  0  0  0
    0.0442    9.0007   -1.0058 C   0  0  0  0  0  0  0  0  0  0  0  0
   -0.8878    9.9762   -1.0186 N   0  0  0  0  0  0  0  0  0  0  0  0
    1.1588    9.0047   -1.7735 N   0  0  0  0  0  0  0  0  0  0  0  0
   -0.6763   11.0058   -1.8593 C   0  0  0  0  0  0  0  0  0  0  0  0
    1.3181   10.0626   -2.5927 C   0  0  0  0  0  0  0  0  0  0  0  0
    0.4222   11.1150   -2.6769 C   0  0  0  0  0  0  0  0  0  0  0  0
   -1.2474    5.7385    1.0454 H   0  0  0  0  0  0  0  0  0  0  0  0
    0.5103    5.5554    1.1561 H   0  0  0  0  0  0  0  0  0  0  0  0
    0.6542    6.3796   -1.1240 H   0  0  0  0  0  0  0  0  0  0  0  0
   -1.0317    8.0723    0.5902 H   0  0  0  0  0  0  0  0  0  0  0  0
    0.7305    7.9387    0.6986 H   0  0  0  0  0  0  0  0  0  0  0  0
    1.5286   12.8596   -3.2063 H   0  0  0  0  0  0  0  0  0  0  0  0
    0.8462   11.9681   -4.5926 H   0  0  0  0  0  0  0  0  0  0  0  0
   -0.1998   12.9643   -3.5732 H   0  0  0  0  0  0  0  0  0  0  0  0
    1.5510    1.8112   -1.7859 H   0  0  0  0  0  0  0  0  0  0  0  0
   -0.1927    1.9753   -1.9933 H   0  0  0  0  0  0  0  0  0  0  0  0
   -1.7035    1.6068   -0.1430 H   0  0  0  0  0  0  0  0  0  0  0  0
   -1.1577    1.0229    1.3898 H   0  0  0  0  0  0  0  0  0  0  0  0
    1.6463    3.7778   -0.3374 H   0  0  0  0  0  0  0  0  0  0  0  0
    0.7844    4.1975   -1.8267 H   0  0  0  0  0  0  0  0  0  0  0  0
    0.0976    3.1606    1.8183 H   0  0  0  0  0  0  0  0  0  0  0  0
   -1.6514    3.3793    1.6357 H   0  0  0  0  0  0  0  0  0  0  0  0
    0.6860    0.8611    2.7056 H   0  0  0  0  0  0  0  0  0  0  0  0
    0.6320   -2.5769    0.0930 H   0  0  0  0  0  0  0  0  0  0  0  0
   -0.2391   -0.5270    4.5399 H   0  0  0  0  0  0  0  0  0  0  0  0
   -0.1794   -3.9742    1.9933 H   0  0  0  0  0  0  0  0  0  0  0  0
   -1.4484   11.7707   -1.8401 H   0  0  0  0  0  0  0  0  0  0  0  0
    2.2223   10.0456   -3.1927 H   0  0  0  0  0  0  0  0  0  0  0  0
  1  2  2  0  0  0  0
  1  9  1  0  0  0  0
  1 15  1  0  0  0  0
  3  4  1  0  0  0  0
  3 14  1  0  0  0  0
  3 27  1  0  0  0  0
  3 28  1  0  0  0  0
  4  5  1  0  0  0  0
  4 29  1  0  0  0  0
  5 21  1  0  0  0  0
  5 30  1  0  0  0  0
  5 31  1  0  0  0  0
  6 14  1  0  0  0  0
  7 20  1  0  0  0  0
  8 26  1  0  0  0  0
  8 32  1  0  0  0  0
  8 33  1  0  0  0  0
  8 34  1  0  0  0  0
  9 10  1  0  0  0  0
  9 11  1  0  0  0  0
 10 12  1  0  0  0  0
 10 35  1  0  0  0  0
 10 36  1  0  0  0  0
 11 13  1  0  0  0  0
 11 37  1  0  0  0  0
 11 38  1  0  0  0  0
 12 14  1  0  0  0  0
 12 39  1  0  0  0  0
 12 40  1  0  0  0  0
 13 14  1  0  0  0  0
 13 41  1  0  0  0  0
 13 42  1  0  0  0  0
 15 16  2  0  0  0  0
 15 17  1  0  0  0  0
 16 18  1  0  0  0  0
 16 43  1  0  0  0  0
 17 19  2  0  0  0  0
 17 44  1  0  0  0  0
 18 20  2  0  0  0  0
 18 45  1  0  0  0  0
 19 20  1  0  0  0  0
 19 46  1  0  0  0  0
 21 22  2  0  0  0  0
 21 23  1  0  0  0  0
 22 24  1  0  0  0  0
 23 25  2  0  0  0  0
 24 26  2  0  0  0  0
 24 47  1  0  0  0  0
 25 26  1  0  0  0  0
 25 48  1  0  0  0  0
M  END
>  <Mol_ID>
6898

>  <Formula>
C19H21ClF2N4O

>  <MolWeight>
394.8460464

>  <Cat>
S3510

>  <Name>
NLX-101

>  <Synonyms>
F-15599

>  <Target>
5-HT Receptor

>  <Form>
Free base

>  <CAS>
635323-95-4

>  <URL>
http://www.selleckchem.com/products/nlx-101.html

$$$$
