NMS-E973.cdx
 OpenBabel08302519583D

 55 58  0  0  0  0  0  0  0  0999 V2000
   -1.0612    0.4801   -0.7286 C   0  0  0  0  0  0  0  0  0  0  0  0
   -1.3169    0.1629    0.5931 C   0  0  0  0  0  0  0  0  0  0  0  0
   -0.3648    0.4148    1.5603 C   0  0  0  0  0  0  0  0  0  0  0  0
    0.8382    1.0306    1.1933 C   0  0  0  0  0  0  0  0  0  0  0  0
    1.1529    1.3595   -0.1509 C   0  0  0  0  0  0  0  0  0  0  0  0
    0.2008    0.9799   -1.1259 C   0  0  0  0  0  0  0  0  0  0  0  0
    0.5004    1.0708   -2.4847 O   0  0  0  0  0  0  0  0  0  0  0  0
   -2.5041   -0.4387    0.8805 O   0  0  0  0  0  0  0  0  0  0  0  0
    1.6961    1.2360    2.2479 O   0  0  0  0  0  0  0  0  0  0  0  0
    2.4164    2.0462   -0.4672 C   0  0  0  0  0  0  0  0  0  0  0  0
   -0.0668    0.1054   -3.3103 C   0  0  0  0  0  0  0  0  0  0  0  0
   -0.6764    0.5266   -4.4956 C   0  0  0  0  0  0  0  0  0  0  0  0
   -1.3989   -0.3892   -5.2762 C   0  0  0  0  0  0  0  0  0  0  0  0
   -1.5086   -1.7256   -4.8601 C   0  0  0  0  0  0  0  0  0  0  0  0
   -0.8560   -2.1615   -3.7018 C   0  0  0  0  0  0  0  0  0  0  0  0
   -0.1029   -1.2529   -2.9542 C   0  0  0  0  0  0  0  0  0  0  0  0
   -2.3251   -2.6757   -5.6302 N   0  3  0  0  0  0  0  0  0  0  0  0
   -2.8372   -2.2738   -6.6843 O   0  0  0  0  0  0  0  0  0  0  0  0
   -2.4558   -3.8228   -5.1780 O   0  5  0  0  0  0  0  0  0  0  0  0
    2.8652    2.9172    0.4913 O   0  0  0  0  0  0  0  0  0  0  0  0
    4.1000    3.4359    0.1430 N   0  0  0  0  0  0  0  0  0  0  0  0
    4.3897    2.9079   -1.0599 C   0  0  0  0  0  0  0  0  0  0  0  0
    3.3334    2.0551   -1.4919 C   0  0  0  0  0  0  0  0  0  0  0  0
    5.6571    3.1758   -1.7653 C   0  0  0  0  0  0  0  0  0  0  0  0
    6.5855    3.9861   -1.1235 N   0  0  0  0  0  0  0  0  0  0  0  0
    5.8762    2.6755   -2.8635 O   0  0  0  0  0  0  0  0  0  0  0  0
    7.8948    4.2867   -1.7214 C   0  0  0  0  0  0  0  0  0  0  0  0
    8.9806    4.5796   -0.6830 C   0  0  0  0  0  0  0  0  0  0  0  0
    8.8285    5.9587   -0.0427 C   0  0  0  0  0  0  0  0  0  0  0  0
    8.7156    7.0404   -1.0284 N   0  0  0  0  0  0  0  0  0  0  0  0
    7.6680    6.7891   -2.0282 C   0  0  0  0  0  0  0  0  0  0  0  0
    7.8381    5.4405   -2.7248 C   0  0  0  0  0  0  0  0  0  0  0  0
    8.4504    8.3109   -0.3425 C   0  0  0  0  0  0  0  0  0  0  0  0
   -1.8399    0.2699   -1.4585 H   0  0  0  0  0  0  0  0  0  0  0  0
   -0.5343    0.1511    2.5993 H   0  0  0  0  0  0  0  0  0  0  0  0
   -2.5377   -0.6395    1.8308 H   0  0  0  0  0  0  0  0  0  0  0  0
    2.5038    1.6791    1.9327 H   0  0  0  0  0  0  0  0  0  0  0  0
   -0.6308    1.5709   -4.7955 H   0  0  0  0  0  0  0  0  0  0  0  0
   -1.8920   -0.0434   -6.1833 H   0  0  0  0  0  0  0  0  0  0  0  0
   -0.9452   -3.1881   -3.3516 H   0  0  0  0  0  0  0  0  0  0  0  0
    0.3860   -1.6000   -2.0465 H   0  0  0  0  0  0  0  0  0  0  0  0
    3.2965    1.4852   -2.4074 H   0  0  0  0  0  0  0  0  0  0  0  0
    6.2862    4.4483   -0.2712 H   0  0  0  0  0  0  0  0  0  0  0  0
    8.1968    3.3831   -2.2662 H   0  0  0  0  0  0  0  0  0  0  0  0
    9.9610    4.5329   -1.1793 H   0  0  0  0  0  0  0  0  0  0  0  0
    8.9892    3.8099    0.0973 H   0  0  0  0  0  0  0  0  0  0  0  0
    9.7174    6.1394    0.5766 H   0  0  0  0  0  0  0  0  0  0  0  0
    7.9631    5.9510    0.6302 H   0  0  0  0  0  0  0  0  0  0  0  0
    6.6722    6.8371   -1.5708 H   0  0  0  0  0  0  0  0  0  0  0  0
    7.7109    7.5732   -2.7949 H   0  0  0  0  0  0  0  0  0  0  0  0
    8.7732    5.4556   -3.3021 H   0  0  0  0  0  0  0  0  0  0  0  0
    7.0265    5.2920   -3.4456 H   0  0  0  0  0  0  0  0  0  0  0  0
    8.4744    9.1471   -1.0497 H   0  0  0  0  0  0  0  0  0  0  0  0
    7.4715    8.3082    0.1529 H   0  0  0  0  0  0  0  0  0  0  0  0
    9.2136    8.5141    0.4170 H   0  0  0  0  0  0  0  0  0  0  0  0
  1  2  2  0  0  0  0
  1 34  1  0  0  0  0
  2  3  1  0  0  0  0
  2  8  1  0  0  0  0
  3  4  2  0  0  0  0
  3 35  1  0  0  0  0
  4  5  1  0  0  0  0
  4  9  1  0  0  0  0
  5  6  2  0  0  0  0
  5 10  1  0  0  0  0
  6  1  1  0  0  0  0
  6  7  1  0  0  0  0
  7 11  1  0  0  0  0
  8 36  1  0  0  0  0
  9 37  1  0  0  0  0
 10 20  1  0  0  0  0
 11 12  2  0  0  0  0
 12 13  1  0  0  0  0
 12 38  1  0  0  0  0
 13 14  2  0  0  0  0
 13 39  1  0  0  0  0
 14 15  1  0  0  0  0
 14 17  1  0  0  0  0
 15 16  2  0  0  0  0
 15 40  1  0  0  0  0
 16 11  1  0  0  0  0
 16 41  1  0  0  0  0
 17 18  2  0  0  0  0
 17 19  1  0  0  0  0
 20 21  1  0  0  0  0
 21 22  2  0  0  0  0
 22 23  1  0  0  0  0
 22 24  1  0  0  0  0
 23 10  2  0  0  0  0
 23 42  1  0  0  0  0
 24 25  1  0  0  0  0
 24 26  2  0  0  0  0
 25 27  1  0  0  0  0
 25 43  1  0  0  0  0
 27 28  1  0  0  0  0
 27 44  1  0  0  0  0
 28 29  1  0  0  0  0
 28 45  1  0  0  0  0
 28 46  1  0  0  0  0
 29 30  1  0  0  0  0
 29 47  1  0  0  0  0
 29 48  1  0  0  0  0
 30 31  1  0  0  0  0
 30 33  1  0  0  0  0
 31 32  1  0  0  0  0
 31 49  1  0  0  0  0
 31 50  1  0  0  0  0
 32 27  1  0  0  0  0
 32 51  1  0  0  0  0
 32 52  1  0  0  0  0
 33 53  1  0  0  0  0
 33 54  1  0  0  0  0
 33 55  1  0  0  0  0
M  CHG  2  17   1  19  -1
M  END
>  <Mol_ID>
2394

>  <Formula>
C22H22N4O7

>  <MolWeight>
454.43268

>  <Cat>
S7282

>  <Name>
NMS-E973

>  <Synonyms>
N/A

>  <Target>
HSP (HSP90)

>  <Form>
free base

>  <CAS>
1253584-84-7

>  <URL>
http://selleckchem.com/products/nms-e973.html

$$$$
