Nobiletin.cdx
 OpenBabel08302521373D

 51 53  0  0  0  0  0  0  0  0999 V2000
    2.6009   -0.1767    0.0151 C   0  0  0  0  0  0  0  0  0  0  0  0
    2.2139    1.1960    0.0051 C   0  0  0  0  0  0  0  0  0  0  0  0
    0.8350    1.5848    0.0394 C   0  0  0  0  0  0  0  0  0  0  0  0
   -0.1488    0.5688    0.0931 C   0  0  0  0  0  0  0  0  0  0  0  0
    0.2637   -0.7907    0.0807 C   0  0  0  0  0  0  0  0  0  0  0  0
    1.6160   -1.1741    0.0460 C   0  0  0  0  0  0  0  0  0  0  0  0
   -1.6334    0.7727    0.1773 C   0  0  0  0  0  0  0  0  0  0  0  0
   -2.5113   -0.3995    0.0678 C   0  0  0  0  0  0  0  0  0  0  0  0
   -1.9707   -1.6066    0.0169 C   0  0  0  0  0  0  0  0  0  0  0  0
   -0.6265   -1.8334    0.1012 O   0  0  0  0  0  0  0  0  0  0  0  0
    3.9676   -0.4030   -0.0133 O   0  0  0  0  0  0  0  0  0  0  0  0
    2.0770   -2.4586    0.0287 O   0  0  0  0  0  0  0  0  0  0  0  0
    4.4709   -1.7359    0.0016 C   0  0  0  0  0  0  0  0  0  0  0  0
    3.3055    2.0502   -0.0383 O   0  0  0  0  0  0  0  0  0  0  0  0
    3.1516    3.4624   -0.0677 C   0  0  0  0  0  0  0  0  0  0  0  0
    0.6762    2.9360    0.0021 O   0  0  0  0  0  0  0  0  0  0  0  0
   -0.5309    3.6611   -0.0053 C   0  0  0  0  0  0  0  0  0  0  0  0
   -2.2232    1.8295    0.3459 O   0  0  0  0  0  0  0  0  0  0  0  0
    1.2766   -3.6183    0.0807 C   0  0  0  0  0  0  0  0  0  0  0  0
   -2.7770   -2.8352   -0.1243 C   0  0  0  0  0  0  0  0  0  0  0  0
   -2.3467   -4.0368    0.4527 C   0  0  0  0  0  0  0  0  0  0  0  0
   -3.0527   -5.2442    0.2730 C   0  0  0  0  0  0  0  0  0  0  0  0
   -4.2210   -5.2237   -0.5006 C   0  0  0  0  0  0  0  0  0  0  0  0
   -4.6594   -4.0138   -1.0615 C   0  0  0  0  0  0  0  0  0  0  0  0
   -3.9422   -2.8333   -0.8866 C   0  0  0  0  0  0  0  0  0  0  0  0
   -5.0596   -6.2559   -0.8212 O   0  0  0  0  0  0  0  0  0  0  0  0
   -4.7460   -7.5557   -0.3514 C   0  0  0  0  0  0  0  0  0  0  0  0
   -2.6381   -6.4280    0.8171 O   0  0  0  0  0  0  0  0  0  0  0  0
   -1.4282   -6.4603    1.5638 C   0  0  0  0  0  0  0  0  0  0  0  0
   -3.5738   -0.2019    0.0479 H   0  0  0  0  0  0  0  0  0  0  0  0
    4.1971   -2.2556    0.9283 H   0  0  0  0  0  0  0  0  0  0  0  0
    4.1587   -2.2904   -0.8918 H   0  0  0  0  0  0  0  0  0  0  0  0
    5.5631   -1.7043   -0.0247 H   0  0  0  0  0  0  0  0  0  0  0  0
    2.6392    3.7889   -0.9788 H   0  0  0  0  0  0  0  0  0  0  0  0
    2.6649    3.8320    0.8409 H   0  0  0  0  0  0  0  0  0  0  0  0
    4.1490    3.9121   -0.0914 H   0  0  0  0  0  0  0  0  0  0  0  0
   -1.1400    3.4132   -0.8781 H   0  0  0  0  0  0  0  0  0  0  0  0
   -1.0427    3.5686    0.9570 H   0  0  0  0  0  0  0  0  0  0  0  0
   -0.2787    4.7213   -0.1002 H   0  0  0  0  0  0  0  0  0  0  0  0
    0.7335   -3.6752    1.0263 H   0  0  0  0  0  0  0  0  0  0  0  0
    0.6267   -3.6984   -0.7949 H   0  0  0  0  0  0  0  0  0  0  0  0
    1.9543   -4.4782    0.0546 H   0  0  0  0  0  0  0  0  0  0  0  0
   -1.4494   -4.0226    1.0556 H   0  0  0  0  0  0  0  0  0  0  0  0
   -5.5684   -3.9977   -1.6573 H   0  0  0  0  0  0  0  0  0  0  0  0
   -4.3054   -1.9336   -1.3711 H   0  0  0  0  0  0  0  0  0  0  0  0
   -3.7673   -7.8882   -0.7107 H   0  0  0  0  0  0  0  0  0  0  0  0
   -4.8279   -7.6064    0.7387 H   0  0  0  0  0  0  0  0  0  0  0  0
   -5.4886   -8.2417   -0.7691 H   0  0  0  0  0  0  0  0  0  0  0  0
   -0.5680   -6.2057    0.9355 H   0  0  0  0  0  0  0  0  0  0  0  0
   -1.4857   -5.8099    2.4424 H   0  0  0  0  0  0  0  0  0  0  0  0
   -1.2849   -7.4846    1.9216 H   0  0  0  0  0  0  0  0  0  0  0  0
  1  2  2  0  0  0  0
  1 11  1  0  0  0  0
  2  3  1  0  0  0  0
  2 14  1  0  0  0  0
  3  4  2  0  0  0  0
  3 16  1  0  0  0  0
  4  5  1  0  0  0  0
  4  7  1  0  0  0  0
  5  6  2  0  0  0  0
  6  1  1  0  0  0  0
  6 12  1  0  0  0  0
  7  8  1  0  0  0  0
  7 18  2  0  0  0  0
  8  9  2  0  0  0  0
  8 30  1  0  0  0  0
  9 10  1  0  0  0  0
  9 20  1  0  0  0  0
 10  5  1  0  0  0  0
 11 13  1  0  0  0  0
 12 19  1  0  0  0  0
 13 31  1  0  0  0  0
 13 32  1  0  0  0  0
 13 33  1  0  0  0  0
 14 15  1  0  0  0  0
 15 34  1  0  0  0  0
 15 35  1  0  0  0  0
 15 36  1  0  0  0  0
 16 17  1  0  0  0  0
 17 37  1  0  0  0  0
 17 38  1  0  0  0  0
 17 39  1  0  0  0  0
 19 40  1  0  0  0  0
 19 41  1  0  0  0  0
 19 42  1  0  0  0  0
 20 21  2  0  0  0  0
 21 22  1  0  0  0  0
 21 43  1  0  0  0  0
 22 23  2  0  0  0  0
 22 28  1  0  0  0  0
 23 24  1  0  0  0  0
 23 26  1  0  0  0  0
 24 25  2  0  0  0  0
 24 44  1  0  0  0  0
 25 20  1  0  0  0  0
 25 45  1  0  0  0  0
 26 27  1  0  0  0  0
 27 46  1  0  0  0  0
 27 47  1  0  0  0  0
 27 48  1  0  0  0  0
 28 29  1  0  0  0  0
 29 49  1  0  0  0  0
 29 50  1  0  0  0  0
 29 51  1  0  0  0  0
M  END
>  <Mol_ID>
710

>  <Formula>
C21H22O8

>  <MolWeight>
402.39458

>  <Cat>
S2333

>  <Name>
Nobiletin (NSC 76751)

>  <Synonyms>
Hexamethoxyflavone

>  <Target>
MMP

>  <Form>
free base

>  <CAS>
478-01-3

>  <URL>
http://selleckchem.com/products/Nobiletin(Hexamethoxyflavone).html

$$$$
