NOD-IN-1
 OpenBabel08302521273D

 41 43  0  0  0  0  0  0  0  0999 V2000
    0.9545    0.0860   -0.1054 S   0  0  0  0  0  0  0  0  0  0  0  0
    1.7774    0.0819    1.0893 O   0  0  0  0  0  0  0  0  0  0  0  0
    1.5345   -0.1069   -1.4200 O   0  0  0  0  0  0  0  0  0  0  0  0
   -2.0104    2.1951    2.7448 O   0  0  0  0  0  0  0  0  0  0  0  0
   -0.7669    0.2995    2.4561 O   0  0  0  0  0  0  0  0  0  0  0  0
    0.2007    1.6307   -0.0981 N   0  0  0  0  0  0  0  0  0  0  0  0
    0.5190    2.6377   -1.0021 C   0  0  0  0  0  0  0  0  0  0  0  0
   -0.6380    2.1075    0.9041 C   0  0  0  0  0  0  0  0  0  0  0  0
   -0.1901    3.7735   -0.5942 C   0  0  0  0  0  0  0  0  0  0  0  0
   -0.9286    3.4216    0.5575 C   0  0  0  0  0  0  0  0  0  0  0  0
   -0.3088   -1.1413    0.0183 C   0  0  0  0  0  0  0  0  0  0  0  0
    1.3614    2.7003   -2.1306 C   0  0  0  0  0  0  0  0  0  0  0  0
   -0.0500    4.9827   -1.3066 C   0  0  0  0  0  0  0  0  0  0  0  0
   -1.1058    1.4106    2.0861 C   0  0  0  0  0  0  0  0  0  0  0  0
   -1.5657   -0.9501   -0.5595 C   0  0  0  0  0  0  0  0  0  0  0  0
   -0.0128   -2.3113    0.7224 C   0  0  0  0  0  0  0  0  0  0  0  0
    1.4822    3.9075   -2.8270 C   0  0  0  0  0  0  0  0  0  0  0  0
    0.7910    5.0385   -2.4187 C   0  0  0  0  0  0  0  0  0  0  0  0
   -2.2995   -3.0478    0.4257 C   0  0  0  0  0  0  0  0  0  0  0  0
   -2.5624   -1.9032   -0.3425 C   0  0  0  0  0  0  0  0  0  0  0  0
   -1.0101   -3.2605    0.9276 C   0  0  0  0  0  0  0  0  0  0  0  0
   -3.4088   -4.0012    0.7586 C   0  0  0  0  0  0  0  0  0  0  0  0
   -2.5143    1.7077    4.0011 C   0  0  0  0  0  0  0  0  0  0  0  0
   -3.7578    0.8659    3.7926 C   0  0  0  0  0  0  0  0  0  0  0  0
   -1.5689    4.0888    1.1231 H   0  0  0  0  0  0  0  0  0  0  0  0
    1.9330    1.8468   -2.4828 H   0  0  0  0  0  0  0  0  0  0  0  0
   -0.5785    5.8758   -0.9833 H   0  0  0  0  0  0  0  0  0  0  0  0
   -1.7911   -0.0739   -1.1608 H   0  0  0  0  0  0  0  0  0  0  0  0
    0.9790   -2.4704    1.1410 H   0  0  0  0  0  0  0  0  0  0  0  0
    2.1356    3.9568   -3.6959 H   0  0  0  0  0  0  0  0  0  0  0  0
    0.9103    5.9725   -2.9617 H   0  0  0  0  0  0  0  0  0  0  0  0
   -3.5556   -1.7432   -0.7576 H   0  0  0  0  0  0  0  0  0  0  0  0
   -0.7797   -4.1514    1.5075 H   0  0  0  0  0  0  0  0  0  0  0  0
   -4.1325   -3.5047    1.4137 H   0  0  0  0  0  0  0  0  0  0  0  0
   -3.9144   -4.3394   -0.1503 H   0  0  0  0  0  0  0  0  0  0  0  0
   -3.0325   -4.8846    1.2851 H   0  0  0  0  0  0  0  0  0  0  0  0
   -1.7405    1.1534    4.5462 H   0  0  0  0  0  0  0  0  0  0  0  0
   -2.7653    2.5848    4.6039 H   0  0  0  0  0  0  0  0  0  0  0  0
   -3.5721    0.0452    3.0934 H   0  0  0  0  0  0  0  0  0  0  0  0
   -4.1041    0.4495    4.7435 H   0  0  0  0  0  0  0  0  0  0  0  0
   -4.5643    1.4733    3.3685 H   0  0  0  0  0  0  0  0  0  0  0  0
  1  2  2  0  0  0  0
  1  3  2  0  0  0  0
  1  6  1  0  0  0  0
  1 11  1  0  0  0  0
  4 14  1  0  0  0  0
  4 23  1  0  0  0  0
  5 14  2  0  0  0  0
  6  7  1  0  0  0  0
  6  8  1  0  0  0  0
  7  9  2  0  0  0  0
  7 12  1  0  0  0  0
  8 10  2  0  0  0  0
  8 14  1  0  0  0  0
  9 10  1  0  0  0  0
  9 13  1  0  0  0  0
 10 25  1  0  0  0  0
 11 15  2  0  0  0  0
 11 16  1  0  0  0  0
 12 17  2  0  0  0  0
 12 26  1  0  0  0  0
 13 18  2  0  0  0  0
 13 27  1  0  0  0  0
 15 20  1  0  0  0  0
 15 28  1  0  0  0  0
 16 21  2  0  0  0  0
 16 29  1  0  0  0  0
 17 18  1  0  0  0  0
 17 30  1  0  0  0  0
 18 31  1  0  0  0  0
 19 20  2  0  0  0  0
 19 21  1  0  0  0  0
 19 22  1  0  0  0  0
 20 32  1  0  0  0  0
 21 33  1  0  0  0  0
 22 34  1  0  0  0  0
 22 35  1  0  0  0  0
 22 36  1  0  0  0  0
 23 24  1  0  0  0  0
 23 37  1  0  0  0  0
 23 38  1  0  0  0  0
 24 39  1  0  0  0  0
 24 40  1  0  0  0  0
 24 41  1  0  0  0  0
M  END
>  <Mol_ID>
5330

>  <Formula>
C18H17NO4S

>  <MolWeight>
343.39688

>  <Cat>
S0004

>  <Name>
NOD-IN-1

>  <Synonyms>
MDK19922

>  <Target>
NOD

>  <Form>
Free Base

>  <CAS>
132819-92-2

>  <URL>
https://www.selleckchem.com/products/nod-in-1-compound-4.html

$$$$
