Nodakenetin
 OpenBabel08302521243D

 32 34  0  0  0  0  0  0  0  0999 V2000
    2.2108    1.0684    0.3074 C   0  0  0  0  0  0  0  0  0  0  0  0
    2.3700   -0.2684   -0.0477 C   0  0  0  0  0  0  0  0  0  0  0  0
    1.3197   -1.1538   -0.0791 C   0  0  0  0  0  0  0  0  0  0  0  0
    0.0552   -0.6016    0.1116 C   0  0  0  0  0  0  0  0  0  0  0  0
   -0.1386    0.7639    0.3899 C   0  0  0  0  0  0  0  0  0  0  0  0
    0.9637    1.6041    0.5564 C   0  0  0  0  0  0  0  0  0  0  0  0
   -1.0477   -1.4577   -0.0948 O   0  0  0  0  0  0  0  0  0  0  0  0
   -2.3365   -0.9515   -0.1778 C   0  0  0  0  0  0  0  0  0  0  0  0
   -2.5078    0.4949    0.0340 C   0  0  0  0  0  0  0  0  0  0  0  0
   -1.4869    1.3066    0.3393 C   0  0  0  0  0  0  0  0  0  0  0  0
    3.5080    1.7557    0.1267 C   0  0  0  0  0  0  0  0  0  0  0  0
    4.0789    0.8115   -0.9441 C   0  0  1  0  0  0  0  0  0  0  0  0
    3.6179   -0.5309   -0.5746 O   0  0  0  0  0  0  0  0  0  0  0  0
   -3.3045   -1.6617   -0.4185 O   0  0  0  0  0  0  0  0  0  0  0  0
    3.6613    1.1597   -2.4293 C   0  0  0  0  0  0  0  0  0  0  0  0
    2.2358    1.1300   -2.6063 O   0  0  0  0  0  0  0  0  0  0  0  0
    4.0818    2.5843   -2.7985 C   0  0  0  0  0  0  0  0  0  0  0  0
    4.2765    0.1452   -3.4009 C   0  0  0  0  0  0  0  0  0  0  0  0
    1.4540   -2.1870   -0.3716 H   0  0  0  0  0  0  0  0  0  0  0  0
    0.8485    2.6698    0.7338 H   0  0  0  0  0  0  0  0  0  0  0  0
   -3.5134    0.8714   -0.0824 H   0  0  0  0  0  0  0  0  0  0  0  0
   -1.6348    2.3726    0.4645 H   0  0  0  0  0  0  0  0  0  0  0  0
    3.4300    2.7977   -0.1833 H   0  0  0  0  0  0  0  0  0  0  0  0
    4.0868    1.6902    1.0553 H   0  0  0  0  0  0  0  0  0  0  0  0
    5.1750    0.8096   -0.8806 H   0  0  0  0  0  0  0  0  0  0  0  0
    2.0299    0.8291   -3.5068 H   0  0  0  0  0  0  0  0  0  0  0  0
    5.1033    2.8044   -2.4774 H   0  0  0  0  0  0  0  0  0  0  0  0
    4.0175    2.7436   -3.8809 H   0  0  0  0  0  0  0  0  0  0  0  0
    3.4049    3.3207   -2.3547 H   0  0  0  0  0  0  0  0  0  0  0  0
    5.3635    0.0861   -3.2883 H   0  0  0  0  0  0  0  0  0  0  0  0
    3.8481   -0.8521   -3.2525 H   0  0  0  0  0  0  0  0  0  0  0  0
    4.0543    0.4187   -4.4393 H   0  0  0  0  0  0  0  0  0  0  0  0
  1  2  1  0  0  0  0
  1 11  1  0  0  0  0
  2  3  2  0  0  0  0
  3  4  1  0  0  0  0
  3 19  1  0  0  0  0
  4  5  2  0  0  0  0
  4  7  1  0  0  0  0
  5  6  1  0  0  0  0
  6  1  2  0  0  0  0
  6 20  1  0  0  0  0
  7  8  1  0  0  0  0
  8  9  1  0  0  0  0
  8 14  2  0  0  0  0
  9 10  2  0  0  0  0
  9 21  1  0  0  0  0
 10  5  1  0  0  0  0
 10 22  1  0  0  0  0
 11 12  1  0  0  0  0
 11 23  1  0  0  0  0
 11 24  1  0  0  0  0
 12 13  1  0  0  0  0
 12 25  1  1  0  0  0
 12 15  1  0  0  0  0
 13  2  1  0  0  0  0
 15 16  1  0  0  0  0
 15 17  1  0  0  0  0
 15 18  1  0  0  0  0
 16 26  1  0  0  0  0
 17 27  1  0  0  0  0
 17 28  1  0  0  0  0
 17 29  1  0  0  0  0
 18 30  1  0  0  0  0
 18 31  1  0  0  0  0
 18 32  1  0  0  0  0
M  END
>  <Mol_ID>
5125

>  <Formula>
C14H14O4

>  <MolWeight>
246.25856

>  <Cat>
S3245

>  <Name>
Nodakenetin

>  <Synonyms>
NANI

>  <Target>
AChR,Aldose Reductase,Apoptosis related,BACE,BChE,Bcl-2,Carbohydrate Metabolism,phosphatase

>  <Form>
free base

>  <CAS>
495-32-9

>  <URL>
http://www.selleckchem.com/products/nodakenetin.html

$$$$
