Nomifensine Maleate
 OpenBabel08302520303D

 50 51  0  0  0  0  0  0  0  0999 V2000
   -0.1728   -0.7737   -1.7916 C   0  0  0  0  0  0  0  0  0  0  0  0
   -0.1847    1.1340   -1.6664 C   0  0  0  0  0  0  0  0  0  0  0  0
   -0.4183    1.9687    0.0269 C   0  0  0  0  0  0  0  0  0  0  0  0
   -0.7248    0.9229    1.6063 C   0  0  0  0  0  0  0  0  0  0  0  0
   -0.6812   -0.9987    1.4831 C   0  0  0  0  0  0  0  0  0  0  0  0
   -0.3579   -1.8293   -0.2106 C   0  0  0  0  0  0  0  0  0  0  0  0
   -2.0562    1.5925    2.2376 C   0  0  0  0  0  0  0  0  0  0  0  0
   -3.3463    0.8056    2.3610 N   0  0  0  0  0  0  0  0  0  0  0  0
   -3.3012   -0.7306    2.3441 C   0  0  0  0  0  0  0  0  0  0  0  0
   -2.0291   -1.6740    1.9735 C   0  0  3  0  0  0  0  0  0  0  0  0
   -1.8423   -3.1410    2.3212 C   0  0  0  0  0  0  0  0  0  0  0  0
   -2.3171   -4.1715    1.4598 C   0  0  0  0  0  0  0  0  0  0  0  0
   -2.2359   -5.5132    1.8245 C   0  0  0  0  0  0  0  0  0  0  0  0
   -1.6535   -5.8421    3.0402 C   0  0  0  0  0  0  0  0  0  0  0  0
   -1.0219   -4.8535    3.7986 C   0  0  0  0  0  0  0  0  0  0  0  0
   -1.0825   -3.5124    3.4201 C   0  0  0  0  0  0  0  0  0  0  0  0
   -4.3791    1.3805    1.3923 C   0  0  0  0  0  0  0  0  0  0  0  0
    0.3819    3.1729    0.2645 N   0  0  0  0  0  0  0  0  0  0  0  0
    0.9619    0.0587   -0.0714 C   0  0  0  0  0  0  0  0  0  0  0  0
   -0.3420    0.0587   -0.0714 C   0  0  0  0  0  0  0  0  0  0  0  0
    2.4819    0.0587   -0.0714 C   0  0  0  0  0  0  0  0  0  0  0  0
   -1.8620    0.0587   -0.0714 C   0  0  0  0  0  0  0  0  0  0  0  0
   -2.5610    0.7063   -1.2602 O   0  0  0  0  0  0  0  0  0  0  0  0
   -3.8799    0.0359   -1.3550 O   0  0  0  0  0  0  0  0  0  0  0  0
   -3.9794   -0.7844   -2.5547 O   0  0  0  0  0  0  0  0  0  0  0  0
   -4.2445   -2.1766   -2.2225 O   0  0  0  0  0  0  0  0  0  0  0  0
    0.4165   -1.2050   -2.6133 H   0  0  0  0  0  0  0  0  0  0  0  0
    0.4354    1.6663   -2.4002 H   0  0  0  0  0  0  0  0  0  0  0  0
    0.0700   -2.8423   -0.2166 H   0  0  0  0  0  0  0  0  0  0  0  0
   -2.2585    2.3479    1.4546 H   0  0  0  0  0  0  0  0  0  0  0  0
   -1.8480    2.2326    3.0928 H   0  0  0  0  0  0  0  0  0  0  0  0
   -3.7938   -1.0996    3.2439 H   0  0  0  0  0  0  0  0  0  0  0  0
   -4.0336   -1.0226    1.5611 H   0  0  0  0  0  0  0  0  0  0  0  0
   -2.4277   -1.9372    0.9939 H   0  0  0  0  0  0  0  0  0  0  0  0
   -2.7359   -3.9425    0.4762 H   0  0  0  0  0  0  0  0  0  0  0  0
   -2.6345   -6.2882    1.1729 H   0  0  0  0  0  0  0  0  0  0  0  0
   -1.6678   -6.8707    3.3870 H   0  0  0  0  0  0  0  0  0  0  0  0
   -0.4832   -5.1257    4.7007 H   0  0  0  0  0  0  0  0  0  0  0  0
   -0.5239   -2.7608    3.9694 H   0  0  0  0  0  0  0  0  0  0  0  0
   -4.9821    2.1640    1.8598 H   0  0  0  0  0  0  0  0  0  0  0  0
   -3.9457    1.8689    0.4990 H   0  0  0  0  0  0  0  0  0  0  0  0
   -5.0741    0.6377    0.9749 H   0  0  0  0  0  0  0  0  0  0  0  0
    0.1130    3.9252   -0.3610 H   0  0  0  0  0  0  0  0  0  0  0  0
    1.3592    2.9436    0.0649 H   0  0  0  0  0  0  0  0  0  0  0  0
    2.8651    0.1156   -1.0939 H   0  0  0  0  0  0  0  0  0  0  0  0
    2.8546    0.9164    0.4955 H   0  0  0  0  0  0  0  0  0  0  0  0
    2.8525   -0.8581    0.3957 H   0  0  0  0  0  0  0  0  0  0  0  0
   -2.2018   -0.9270   -0.4053 H   0  0  0  0  0  0  0  0  0  0  0  0
   -2.5580    0.3099    0.6307 H   0  0  0  0  0  0  0  0  0  0  0  0
   -4.8469   -2.3451   -2.9698 H   0  0  0  0  0  0  0  0  0  0  0  0
  1  2  2  0  0  0  0
  1 27  1  0  0  0  0
  2  3  1  0  0  0  0
  2 28  1  0  0  0  0
  3  4  2  0  0  0  0
  3 18  1  0  0  0  0
  4  5  1  0  0  0  0
  4  7  1  0  0  0  0
  5  6  2  0  0  0  0
  6  1  1  0  0  0  0
  6 29  1  0  0  0  0
  7  8  1  0  0  0  0
  7 30  1  0  0  0  0
  7 31  1  0  0  0  0
  8  9  1  0  0  0  0
  8 17  1  0  0  0  0
  9 10  1  0  0  0  0
  9 32  1  0  0  0  0
  9 33  1  0  0  0  0
 10  5  1  0  0  0  0
 10 11  1  0  0  0  0
 10 34  1  0  0  0  0
 11 12  2  0  0  0  0
 12 13  1  0  0  0  0
 12 35  1  0  0  0  0
 13 14  2  0  0  0  0
 13 36  1  0  0  0  0
 14 15  1  0  0  0  0
 14 37  1  0  0  0  0
 15 16  2  0  0  0  0
 15 38  1  0  0  0  0
 16 11  1  0  0  0  0
 16 39  1  0  0  0  0
 17 40  1  0  0  0  0
 17 41  1  0  0  0  0
 17 42  1  0  0  0  0
 18 43  1  0  0  0  0
 18 44  1  0  0  0  0
 19 20  3  0  0  0  0
 19 21  1  0  0  0  0
 20 22  1  0  0  0  0
 21 45  1  0  0  0  0
 21 46  1  0  0  0  0
 21 47  1  0  0  0  0
 22 23  1  0  0  0  0
 22 48  1  0  0  0  0
 22 49  1  0  0  0  0
 23 24  1  0  0  0  0
 24 25  1  0  0  0  0
 25 26  1  0  0  0  0
 26 50  1  0  0  0  0
M  END
>  <Mol_ID>
3327

>  <Formula>
C20H24N2O4

>  <MolWeight>
356.41556

>  <Cat>
S4380

>  <Name>
Nomifensine Maleate

>  <Synonyms>
N/A

>  <Target>
Dopamine Receptor

>  <Form>
Maleate

>  <CAS>
32795-47-4

>  <URL>
http://www.selleckchem.com/products/nomifensine-maleate.html

$$$$
