norethindrone.cdx
 OpenBabel08302522033D

 48 51  0  0  0  0  0  0  0  0999 V2000
    1.4179    0.9741   -0.1498 C   0  0  2  0  0  0  0  0  0  0  0  0
    1.6401   -0.3999    0.5235 C   0  0  1  0  0  0  0  0  0  0  0  0
    0.4187    1.1165   -1.2870 C   0  0  1  0  0  0  0  0  0  0  0  0
    2.8110    1.6196   -0.1206 C   0  0  0  0  0  0  0  0  0  0  0  0
    2.2637    0.2168    1.8653 C   0  0  1  0  0  0  0  0  0  0  0  0
    0.3781   -1.3166    0.5702 C   0  0  0  0  0  0  0  0  0  0  0  0
    2.7126   -1.2564   -0.2510 C   0  0  0  0  0  0  0  0  0  0  0  0
   -0.8528    0.2676   -0.8939 C   0  0  2  0  0  0  0  0  0  0  0  0
    0.0120    2.6510   -1.3989 C   0  0  0  0  0  0  0  0  0  0  0  0
    3.3968    1.1183    1.2379 C   0  0  0  0  0  0  0  0  0  0  0  0
    1.4103    1.1975    2.6703 C   0  0  0  0  0  0  0  0  0  0  0  0
    2.7596   -0.7674    2.7356 O   0  0  0  0  0  0  0  0  0  0  0  0
   -0.5171   -1.2123   -0.7443 C   0  0  0  0  0  0  0  0  0  0  0  0
   -2.1402    1.0178   -1.3910 C   0  0  2  0  0  0  0  0  0  0  0  0
   -1.0983    3.0782   -0.3459 C   0  0  0  0  0  0  0  0  0  0  0  0
    0.8816    2.1783    3.1338 C   0  0  0  0  0  0  0  0  0  0  0  0
   -2.1799    2.0236   -0.2370 C   0  0  0  0  0  0  0  0  0  0  0  0
   -3.6102    0.6407   -1.5602 C   0  0  0  0  0  0  0  0  0  0  0  0
   -2.8029    1.6283    0.9113 C   0  0  0  0  0  0  0  0  0  0  0  0
   -4.2094   -0.1111   -0.4004 C   0  0  0  0  0  0  0  0  0  0  0  0
   -3.5648    0.3276    0.8977 C   0  0  0  0  0  0  0  0  0  0  0  0
   -3.6567   -0.3546    1.9160 O   0  0  0  0  0  0  0  0  0  0  0  0
    0.8719    1.5801    0.5723 H   0  0  0  0  0  0  0  0  0  0  0  0
    0.8434    0.7676   -2.2380 H   0  0  0  0  0  0  0  0  0  0  0  0
    2.7624    2.7102   -0.1389 H   0  0  0  0  0  0  0  0  0  0  0  0
    3.4386    1.2950   -0.9602 H   0  0  0  0  0  0  0  0  0  0  0  0
   -0.2294   -1.0630    1.4474 H   0  0  0  0  0  0  0  0  0  0  0  0
    0.6519   -2.3692    0.7233 H   0  0  0  0  0  0  0  0  0  0  0  0
    3.7227   -1.1659    0.1577 H   0  0  0  0  0  0  0  0  0  0  0  0
    2.5067   -2.3324   -0.2097 H   0  0  0  0  0  0  0  0  0  0  0  0
    2.7541   -0.9831   -1.3104 H   0  0  0  0  0  0  0  0  0  0  0  0
   -0.9102    0.4267    0.1882 H   0  0  0  0  0  0  0  0  0  0  0  0
    0.8885    3.2849   -1.2914 H   0  0  0  0  0  0  0  0  0  0  0  0
   -0.3619    2.8265   -2.4033 H   0  0  0  0  0  0  0  0  0  0  0  0
    3.6639    1.9705    1.8790 H   0  0  0  0  0  0  0  0  0  0  0  0
    4.3298    0.5672    1.0892 H   0  0  0  0  0  0  0  0  0  0  0  0
    2.0286   -0.9742    3.3454 H   0  0  0  0  0  0  0  0  0  0  0  0
    0.0314   -1.5989   -1.6109 H   0  0  0  0  0  0  0  0  0  0  0  0
   -1.4149   -1.8238   -0.6070 H   0  0  0  0  0  0  0  0  0  0  0  0
   -1.9168    1.5047   -2.3463 H   0  0  0  0  0  0  0  0  0  0  0  0
   -1.5417    4.0227   -0.6919 H   0  0  0  0  0  0  0  0  0  0  0  0
   -0.6242    3.2473    0.6202 H   0  0  0  0  0  0  0  0  0  0  0  0
    0.4795    3.1263    3.4224 H   0  0  0  0  0  0  0  0  0  0  0  0
   -4.1703    1.5972   -1.6237 H   0  0  0  0  0  0  0  0  0  0  0  0
   -3.8190    0.1638   -2.5218 H   0  0  0  0  0  0  0  0  0  0  0  0
   -2.6261    2.0603    1.8854 H   0  0  0  0  0  0  0  0  0  0  0  0
   -4.0701   -1.1824   -0.5614 H   0  0  0  0  0  0  0  0  0  0  0  0
   -5.2859    0.0942   -0.3332 H   0  0  0  0  0  0  0  0  0  0  0  0
  1  2  1  0  0  0  0
  1  3  1  0  0  0  0
  1  4  1  0  0  0  0
  1 23  1  1  0  0  0
  2  5  1  0  0  0  0
  2  6  1  0  0  0  0
  2  7  1  6  0  0  0
  3  8  1  0  0  0  0
  3  9  1  0  0  0  0
  3 24  1  6  0  0  0
  4 10  1  0  0  0  0
  4 25  1  0  0  0  0
  4 26  1  0  0  0  0
  5 11  1  1  0  0  0
  5 12  1  0  0  0  0
  5 10  1  0  0  0  0
  6 13  1  0  0  0  0
  6 27  1  0  0  0  0
  6 28  1  0  0  0  0
  7 29  1  0  0  0  0
  7 30  1  0  0  0  0
  7 31  1  0  0  0  0
  8 14  1  0  0  0  0
  8 13  1  0  0  0  0
  8 32  1  1  0  0  0
  9 15  1  0  0  0  0
  9 33  1  0  0  0  0
  9 34  1  0  0  0  0
 10 35  1  0  0  0  0
 10 36  1  0  0  0  0
 11 16  3  0  0  0  0
 12 37  1  0  0  0  0
 13 38  1  0  0  0  0
 13 39  1  0  0  0  0
 14 17  1  0  0  0  0
 14 18  1  0  0  0  0
 14 40  1  6  0  0  0
 15 17  1  0  0  0  0
 15 41  1  0  0  0  0
 15 42  1  0  0  0  0
 16 43  1  0  0  0  0
 17 19  2  0  0  0  0
 18 20  1  0  0  0  0
 18 44  1  0  0  0  0
 18 45  1  0  0  0  0
 19 21  1  0  0  0  0
 19 46  1  0  0  0  0
 20 21  1  0  0  0  0
 20 47  1  0  0  0  0
 20 48  1  0  0  0  0
 21 22  2  0  0  0  0
M  END
>  <Mol_ID>
1218

>  <Formula>
C20H26O2

>  <MolWeight>
298.41924

>  <Cat>
S4040

>  <Name>
Norethindrone

>  <Synonyms>
Norethisterone

>  <Target>
Others,0

>  <Form>
free base

>  <CAS>
68-22-4

>  <URL>
http://selleckchem.com/products/norethindrone-norethisterone.html

$$$$
