Noreugenin
 OpenBabel08302521553D

 22 23  0  0  0  0  0  0  0  0999 V2000
    0.9323   -0.1258   -0.0986 O   0  0  0  0  0  0  0  0  0  0  0  0
    0.8986    2.5925   -0.0930 O   0  0  0  0  0  0  0  0  0  0  0  0
    5.1776    4.7226   -0.1000 O   0  0  0  0  0  0  0  0  0  0  0  0
    5.1539   -2.4085   -0.0985 C   0  0  0  0  0  0  0  0  0  0  0  0
    4.2945    1.1920   -0.0992 C   0  0  0  0  0  0  0  0  0  0  0  0
    2.8967    1.2507   -0.0978 C   0  0  0  0  0  0  0  0  0  0  0  0
    5.0487    2.3669   -0.0999 C   0  0  0  0  0  0  0  0  0  0  0  0
    5.0007    0.0114   -0.1001 O   0  0  0  0  0  0  0  0  0  0  0  0
    2.1514   -0.0272   -0.0986 C   0  0  0  0  0  0  0  0  0  0  0  0
    2.2619    2.5029   -0.0957 C   0  0  0  0  0  0  0  0  0  0  0  0
    4.4032    3.6000   -0.0987 C   0  0  0  0  0  0  0  0  0  0  0  0
    4.2971   -1.1805   -0.0995 C   0  0  0  0  0  0  0  0  0  0  0  0
    2.9616   -1.2559   -0.0994 C   0  0  0  0  0  0  0  0  0  0  0  0
    3.0142    3.6799   -0.0966 C   0  0  0  0  0  0  0  0  0  0  0  0
    0.6108    3.5179   -0.0828 H   0  0  0  0  0  0  0  0  0  0  0  0
    4.6063    5.5089   -0.1007 H   0  0  0  0  0  0  0  0  0  0  0  0
    5.7919   -2.4293   -0.9874 H   0  0  0  0  0  0  0  0  0  0  0  0
    5.7910   -2.4282    0.7911 H   0  0  0  0  0  0  0  0  0  0  0  0
    4.5527   -3.3245   -0.0982 H   0  0  0  0  0  0  0  0  0  0  0  0
    6.1347    2.3246   -0.1012 H   0  0  0  0  0  0  0  0  0  0  0  0
    2.4175   -2.1916   -0.0994 H   0  0  0  0  0  0  0  0  0  0  0  0
    2.5207    4.6462   -0.0959 H   0  0  0  0  0  0  0  0  0  0  0  0
  1  9  2  0  0  0  0
  2 10  1  0  0  0  0
  2 15  1  0  0  0  0
  3 11  1  0  0  0  0
  3 16  1  0  0  0  0
  4 12  1  0  0  0  0
  4 17  1  0  0  0  0
  4 18  1  0  0  0  0
  4 19  1  0  0  0  0
  5  6  1  0  0  0  0
  5  7  2  0  0  0  0
  5  8  1  0  0  0  0
  6  9  1  0  0  0  0
  6 10  2  0  0  0  0
  7 11  1  0  0  0  0
  7 20  1  0  0  0  0
  8 12  1  0  0  0  0
  9 13  1  0  0  0  0
 10 14  1  0  0  0  0
 11 14  2  0  0  0  0
 12 13  2  0  0  0  0
 13 21  1  0  0  0  0
 14 22  1  0  0  0  0
M  END
>  <Mol_ID>
10028

>  <Formula>
C10H8O4

>  <MolWeight>
192.16812

>  <Cat>
E5557

>  <Name>
Noreugenin

>  <Synonyms>
NA

>  <Target>
anti-inflammatory, antioxidant, antibacterial

>  <Form>
Free Base

>  <CAS>
1013-69-0

>  <URL>
https://www.selleckchem.com/products/noreugenin.html

$$$$
