Norethindrone acetate
 OpenBabel08302521303D

 53 56  0  0  0  0  0  0  0  0999 V2000
   -2.7261    0.8788    0.6851 O   0  0  0  0  0  0  0  0  0  0  0  0
    4.4916    5.4231    8.0565 O   0  0  0  0  0  0  0  0  0  0  0  0
   -2.7743    2.3584   -1.0854 O   0  0  0  0  0  0  0  0  0  0  0  0
   -1.1124    2.2468    2.2591 C   0  0  1  0  0  0  0  0  0  0  0  0
   -1.0614    2.0880    3.8163 C   0  0  2  0  0  0  0  0  0  0  0  0
    0.3931    2.4265    4.3775 C   0  0  1  0  0  0  0  0  0  0  0  0
    0.5384    3.9905    4.4559 C   0  0  2  0  0  0  0  0  0  0  0  0
   -2.9834    1.8265    1.7395 C   0  0  2  0  0  0  0  0  0  0  0  0
   -0.3333    3.8393    2.1648 C   0  0  0  0  0  0  0  0  0  0  0  0
   -1.8648    0.8272    3.9359 C   0  0  0  0  0  0  0  0  0  0  0  0
    0.8572    4.3327    2.9964 C   0  0  0  0  0  0  0  0  0  0  0  0
    1.5661    4.6157    5.4339 C   0  0  2  0  0  0  0  0  0  0  0  0
   -3.2069    1.1281    3.1271 C   0  0  0  0  0  0  0  0  0  0  0  0
    1.1174    1.8200    5.5634 C   0  0  0  0  0  0  0  0  0  0  0  0
   -0.1068    1.4572    1.3940 C   0  0  0  0  0  0  0  0  0  0  0  0
    2.6203    2.3177    5.5297 C   0  0  0  0  0  0  0  0  0  0  0  0
    2.8366    3.8293    5.4271 C   0  0  0  0  0  0  0  0  0  0  0  0
    1.1272    4.7657    6.9256 C   0  0  0  0  0  0  0  0  0  0  0  0
   -2.7297    3.3184    1.5969 C   0  0  0  0  0  0  0  0  0  0  0  0
    2.2592    4.4859    7.9436 C   0  0  0  0  0  0  0  0  0  0  0  0
    3.9156    4.4553    5.9509 C   0  0  0  0  0  0  0  0  0  0  0  0
    3.6321    4.8335    7.3874 C   0  0  0  0  0  0  0  0  0  0  0  0
   -2.5299    1.2527   -0.6042 C   0  0  0  0  0  0  0  0  0  0  0  0
   -2.5121    4.5981    1.4746 C   0  0  0  0  0  0  0  0  0  0  0  0
   -1.8838    0.1266   -1.3539 C   0  0  0  0  0  0  0  0  0  0  0  0
   -1.7113    2.8637    4.2565 H   0  0  0  0  0  0  0  0  0  0  0  0
    1.0579    2.0872    3.5777 H   0  0  0  0  0  0  0  0  0  0  0  0
   -0.4209    4.4507    4.7403 H   0  0  0  0  0  0  0  0  0  0  0  0
   -0.1693    4.1228    1.1162 H   0  0  0  0  0  0  0  0  0  0  0  0
   -0.9980    4.5249    2.6912 H   0  0  0  0  0  0  0  0  0  0  0  0
   -2.0898    0.6002    4.9823 H   0  0  0  0  0  0  0  0  0  0  0  0
   -1.3333   -0.0270    3.5062 H   0  0  0  0  0  0  0  0  0  0  0  0
    1.8087    3.9280    2.6445 H   0  0  0  0  0  0  0  0  0  0  0  0
    0.9306    5.4295    2.8915 H   0  0  0  0  0  0  0  0  0  0  0  0
    1.7629    5.6445    5.0881 H   0  0  0  0  0  0  0  0  0  0  0  0
   -3.8491    1.7629    3.7471 H   0  0  0  0  0  0  0  0  0  0  0  0
   -3.7187    0.1700    2.9843 H   0  0  0  0  0  0  0  0  0  0  0  0
    1.1172    0.7313    5.4716 H   0  0  0  0  0  0  0  0  0  0  0  0
    0.6371    2.0776    6.5071 H   0  0  0  0  0  0  0  0  0  0  0  0
    0.9373    1.6824    1.6406 H   0  0  0  0  0  0  0  0  0  0  0  0
   -0.2408    0.3834    1.4632 H   0  0  0  0  0  0  0  0  0  0  0  0
   -0.1988    1.7748    0.3489 H   0  0  0  0  0  0  0  0  0  0  0  0
    3.0918    1.8967    4.6308 H   0  0  0  0  0  0  0  0  0  0  0  0
    3.1540    1.9159    6.3926 H   0  0  0  0  0  0  0  0  0  0  0  0
    0.2635    4.1335    7.1637 H   0  0  0  0  0  0  0  0  0  0  0  0
    0.7793    5.7954    7.0875 H   0  0  0  0  0  0  0  0  0  0  0  0
    2.2879    3.4167    8.1944 H   0  0  0  0  0  0  0  0  0  0  0  0
    2.0860    5.0232    8.8740 H   0  0  0  0  0  0  0  0  0  0  0  0
    4.2133    5.4294    5.5329 H   0  0  0  0  0  0  0  0  0  0  0  0
   -2.4037    5.6477    1.3149 H   0  0  0  0  0  0  0  0  0  0  0  0
   -0.9697   -0.1680   -0.8663 H   0  0  0  0  0  0  0  0  0  0  0  0
   -2.5601   -0.7302   -1.4014 H   0  0  0  0  0  0  0  0  0  0  0  0
   -1.6442    0.4464   -2.3711 H   0  0  0  0  0  0  0  0  0  0  0  0
  1 23  1  0  0  0  0
  2 22  2  0  0  0  0
  3 23  2  0  0  0  0
  4  5  1  0  0  0  0
  4  8  1  0  0  0  0
  4  9  1  0  0  0  0
  4 15  1  6  0  0  0
  5  6  1  0  0  0  0
  5 10  1  0  0  0  0
  5 26  1  1  0  0  0
  6  7  1  0  0  0  0
  6 14  1  0  0  0  0
  6 27  1  6  0  0  0
  7 11  1  0  0  0  0
  7 12  1  0  0  0  0
  7 28  1  1  0  0  0
  8  1  1  0  0  0  0
  8 13  1  0  0  0  0
  8 19  1  6  0  0  0
  9 11  1  0  0  0  0
  9 29  1  0  0  0  0
  9 30  1  0  0  0  0
 10 13  1  0  0  0  0
 10 31  1  0  0  0  0
 10 32  1  0  0  0  0
 11 33  1  0  0  0  0
 11 34  1  0  0  0  0
 12 17  1  0  0  0  0
 12 18  1  0  0  0  0
 12 35  1  6  0  0  0
 13 36  1  0  0  0  0
 13 37  1  0  0  0  0
 14 16  1  0  0  0  0
 14 38  1  0  0  0  0
 14 39  1  0  0  0  0
 15 40  1  0  0  0  0
 15 41  1  0  0  0  0
 15 42  1  0  0  0  0
 16 17  1  0  0  0  0
 16 43  1  0  0  0  0
 16 44  1  0  0  0  0
 17 21  2  3  0  0  0
 18 20  1  0  0  0  0
 18 45  1  0  0  0  0
 18 46  1  0  0  0  0
 19 24  3  0  0  0  0
 20 22  1  0  0  0  0
 20 47  1  0  0  0  0
 20 48  1  0  0  0  0
 21 22  1  0  0  0  0
 21 49  1  0  0  0  0
 23 25  1  0  0  0  0
 24 50  1  0  0  0  0
 25 51  1  0  0  0  0
 25 52  1  0  0  0  0
 25 53  1  0  0  0  0
M  END
>  <Mol_ID>
5633

>  <Formula>
C22H28O3

>  <MolWeight>
340.45592

>  <Cat>
S5785

>  <Name>
Norethindrone acetate

>  <Synonyms>
19-Norethindrone acetate, NA

>  <Target>
Estrogen/progestogen Receptor

>  <Form>
Free Base

>  <CAS>
51-98-9

>  <URL>
http://www.selleckchem.com/products/norethindrone-acetate.html

$$$$
