Norgestimate
 OpenBabel08302521333D

 58 61  0  0  0  0  0  0  0  0999 V2000
    1.8823    3.7025   -1.0416 C   0  0  0  0  0  0  0  0  0  0  0  0
    2.5996    4.8270   -0.3203 C   0  0  0  0  0  0  0  0  0  0  0  0
    3.9054    1.9615   -0.2482 O   0  0  0  0  0  0  0  0  0  0  0  0
    4.1904    1.3422   -1.4179 C   0  0  0  0  0  0  0  0  0  0  0  0
    5.4693    1.8976   -1.9650 C   0  0  0  0  0  0  0  0  0  0  0  0
    3.4970    0.5317   -2.0090 O   0  0  0  0  0  0  0  0  0  0  0  0
    2.4283    0.2779    0.6151 C   0  0  0  0  0  0  0  0  0  0  0  0
    2.2028   -0.9087    0.6761 C   0  0  0  0  0  0  0  0  0  0  0  0
   -4.8733    2.1454    1.0942 N   0  0  0  0  0  0  0  0  0  0  0  0
   -5.0543    1.1233    0.1627 O   0  0  0  0  0  0  0  0  0  0  0  0
    1.4102    2.4314   -0.2341 C   0  0  1  0  0  0  0  0  0  0  0  0
    2.6503    1.7061    0.4064 C   0  0  2  0  0  0  0  0  0  0  0  0
    0.4945    2.6012    1.0284 C   0  0  2  0  0  0  0  0  0  0  0  0
    0.4523    1.6780   -1.2132 C   0  0  0  0  0  0  0  0  0  0  0  0
    2.7613    2.4223    1.7789 C   0  0  0  0  0  0  0  0  0  0  0  0
   -0.4844    3.7297    0.7779 C   0  0  1  0  0  0  0  0  0  0  0  0
    1.3426    2.5100    2.2915 C   0  0  0  0  0  0  0  0  0  0  0  0
   -0.8166    2.5399   -1.5224 C   0  0  0  0  0  0  0  0  0  0  0  0
   -1.5088    3.1717   -0.2613 C   0  0  2  0  0  0  0  0  0  0  0  0
   -1.1303    4.2957    2.0445 C   0  0  0  0  0  0  0  0  0  0  0  0
   -2.5882    4.2480   -0.5829 C   0  0  2  0  0  0  0  0  0  0  0  0
   -2.0924    5.4161    1.6621 C   0  0  0  0  0  0  0  0  0  0  0  0
   -3.1171    4.7804    0.7646 C   0  0  0  0  0  0  0  0  0  0  0  0
   -3.6761    3.6625   -1.5337 C   0  0  0  0  0  0  0  0  0  0  0  0
   -4.3086    4.4385    1.2915 C   0  0  0  0  0  0  0  0  0  0  0  0
   -5.0710    3.6196   -0.9292 C   0  0  0  0  0  0  0  0  0  0  0  0
   -4.8690    3.3161    0.5267 C   0  0  0  0  0  0  0  0  0  0  0  0
    2.5133    3.3699   -1.8761 H   0  0  0  0  0  0  0  0  0  0  0  0
    1.0433    4.1844   -1.5446 H   0  0  0  0  0  0  0  0  0  0  0  0
    2.1471    5.0528    0.6482 H   0  0  0  0  0  0  0  0  0  0  0  0
    3.6604    4.6056   -0.1889 H   0  0  0  0  0  0  0  0  0  0  0  0
    2.5318    5.7397   -0.9230 H   0  0  0  0  0  0  0  0  0  0  0  0
    6.1531    2.1532   -1.1510 H   0  0  0  0  0  0  0  0  0  0  0  0
    5.2420    2.7890   -2.5541 H   0  0  0  0  0  0  0  0  0  0  0  0
    5.9550    1.1446   -2.5914 H   0  0  0  0  0  0  0  0  0  0  0  0
    1.9790   -1.9415    0.6202 H   0  0  0  0  0  0  0  0  0  0  0  0
   -4.6268    0.3686    0.6112 H   0  0  0  0  0  0  0  0  0  0  0  0
   -0.1297    1.6975    1.1348 H   0  0  0  0  0  0  0  0  0  0  0  0
    0.1015    0.7309   -0.7783 H   0  0  0  0  0  0  0  0  0  0  0  0
    0.9552    1.4104   -2.1477 H   0  0  0  0  0  0  0  0  0  0  0  0
    3.4306    1.9210    2.4853 H   0  0  0  0  0  0  0  0  0  0  0  0
    3.1601    3.4368    1.6868 H   0  0  0  0  0  0  0  0  0  0  0  0
    0.0194    4.5849    0.3226 H   0  0  0  0  0  0  0  0  0  0  0  0
    1.1884    3.2978    3.0282 H   0  0  0  0  0  0  0  0  0  0  0  0
    1.1068    1.5640    2.8061 H   0  0  0  0  0  0  0  0  0  0  0  0
   -1.5194    1.8942   -2.0593 H   0  0  0  0  0  0  0  0  0  0  0  0
   -0.5740    3.3310   -2.2402 H   0  0  0  0  0  0  0  0  0  0  0  0
   -2.0342    2.3342    0.2231 H   0  0  0  0  0  0  0  0  0  0  0  0
   -1.6505    3.4996    2.5946 H   0  0  0  0  0  0  0  0  0  0  0  0
   -0.3709    4.7088    2.7156 H   0  0  0  0  0  0  0  0  0  0  0  0
   -2.1067    5.0825   -1.1103 H   0  0  0  0  0  0  0  0  0  0  0  0
   -1.5695    6.2288    1.1459 H   0  0  0  0  0  0  0  0  0  0  0  0
   -2.5371    5.8435    2.5684 H   0  0  0  0  0  0  0  0  0  0  0  0
   -3.6953    4.2328   -2.4704 H   0  0  0  0  0  0  0  0  0  0  0  0
   -3.4306    2.6357   -1.8220 H   0  0  0  0  0  0  0  0  0  0  0  0
   -4.6129    4.6253    2.3117 H   0  0  0  0  0  0  0  0  0  0  0  0
   -5.7144    2.8861   -1.4194 H   0  0  0  0  0  0  0  0  0  0  0  0
   -5.5521    4.6002   -1.0242 H   0  0  0  0  0  0  0  0  0  0  0  0
  1  2  1  0  0  0  0
  1 28  1  0  0  0  0
  1 29  1  0  0  0  0
  2 30  1  0  0  0  0
  2 31  1  0  0  0  0
  2 32  1  0  0  0  0
  3  4  1  0  0  0  0
  4  5  1  0  0  0  0
  4  6  2  0  0  0  0
  5 33  1  0  0  0  0
  5 34  1  0  0  0  0
  5 35  1  0  0  0  0
  7  8  3  0  0  0  0
  8 36  1  0  0  0  0
  9 10  1  0  0  0  0
  9 27  2  0  0  0  0
 10 37  1  0  0  0  0
 11  1  1  6  0  0  0
 11 12  1  0  0  0  0
 11 13  1  0  0  0  0
 11 14  1  0  0  0  0
 12  3  1  0  0  0  0
 12  7  1  1  0  0  0
 12 15  1  0  0  0  0
 13 16  1  0  0  0  0
 13 17  1  0  0  0  0
 13 38  1  1  0  0  0
 14 18  1  0  0  0  0
 14 39  1  0  0  0  0
 14 40  1  0  0  0  0
 15 17  1  0  0  0  0
 15 41  1  0  0  0  0
 15 42  1  0  0  0  0
 16 19  1  0  0  0  0
 16 20  1  0  0  0  0
 16 43  1  6  0  0  0
 17 44  1  0  0  0  0
 17 45  1  0  0  0  0
 18 46  1  0  0  0  0
 18 47  1  0  0  0  0
 19 18  1  0  0  0  0
 19 21  1  0  0  0  0
 19 48  1  1  0  0  0
 20 22  1  0  0  0  0
 20 49  1  0  0  0  0
 20 50  1  0  0  0  0
 21 23  1  0  0  0  0
 21 24  1  0  0  0  0
 21 51  1  6  0  0  0
 22 23  1  0  0  0  0
 22 52  1  0  0  0  0
 22 53  1  0  0  0  0
 23 25  2  0  0  0  0
 24 26  1  0  0  0  0
 24 54  1  0  0  0  0
 24 55  1  0  0  0  0
 25 27  1  0  0  0  0
 25 56  1  0  0  0  0
 26 27  1  0  0  0  0
 26 57  1  0  0  0  0
 26 58  1  0  0  0  0
M  END
>  <Mol_ID>
6299

>  <Formula>
C23H31NO3

>  <MolWeight>
369.49714

>  <Cat>
E0527

>  <Name>
Norgestimate

>  <Target>
Estrogen/progestogen Receptor

>  <Form>
free base

>  <CAS>
35189-28-7

>  <URL>
http://www.selleckchem.com/products/norgestimate.html

$$$$
