Noricaritin
 OpenBabel08302521463D

 47 49  0  0  0  0  0  0  0  0999 V2000
    0.8917    0.0379   -0.0364 C   0  0  0  0  0  0  0  0  0  0  0  0
    0.5989   -0.9714   -1.1586 C   0  0  0  0  0  0  0  0  0  0  0  0
    1.0378   -2.4234   -0.8657 C   0  0  0  0  0  0  0  0  0  0  0  0
    0.4152   -2.9979    0.4105 C   0  0  0  0  0  0  0  0  0  0  0  0
    0.6563   -3.3040   -2.0621 C   0  0  0  0  0  0  0  0  0  0  0  0
    2.4592   -2.4548   -0.7284 O   0  0  0  0  0  0  0  0  0  0  0  0
   -3.3411    4.4604   -0.7967 O   0  0  0  0  0  0  0  0  0  0  0  0
   -0.8450    5.4478   -0.6103 O   0  0  0  0  0  0  0  0  0  0  0  0
    2.6493    2.2838    0.0076 O   0  0  0  0  0  0  0  0  0  0  0  0
   -5.0207    2.3489   -1.4069 O   0  0  0  0  0  0  0  0  0  0  0  0
   -5.7811   -3.9284   -1.9012 O   0  0  0  0  0  0  0  0  0  0  0  0
   -0.9372    1.7751   -0.5288 C   0  0  0  0  0  0  0  0  0  0  0  0
   -1.3832    3.1006   -0.6365 C   0  0  0  0  0  0  0  0  0  0  0  0
    0.4247    1.4670   -0.3001 C   0  0  0  0  0  0  0  0  0  0  0  0
   -1.8054    0.7140   -0.6150 O   0  0  0  0  0  0  0  0  0  0  0  0
   -2.8368    3.3437   -0.8364 C   0  0  0  0  0  0  0  0  0  0  0  0
   -0.4537    4.1421   -0.5265 C   0  0  0  0  0  0  0  0  0  0  0  0
    1.3246    2.5397   -0.2137 C   0  0  0  0  0  0  0  0  0  0  0  0
   -3.1109    0.9345   -0.9951 C   0  0  0  0  0  0  0  0  0  0  0  0
   -3.6866    2.1423   -1.0950 C   0  0  0  0  0  0  0  0  0  0  0  0
    0.8993    3.8643   -0.3321 C   0  0  0  0  0  0  0  0  0  0  0  0
   -3.8337   -0.3192   -1.2557 C   0  0  0  0  0  0  0  0  0  0  0  0
   -3.9259   -0.8357   -2.5551 C   0  0  0  0  0  0  0  0  0  0  0  0
   -4.4199   -1.0193   -0.1960 C   0  0  0  0  0  0  0  0  0  0  0  0
   -4.5821   -2.0466   -2.7946 C   0  0  0  0  0  0  0  0  0  0  0  0
   -5.0769   -2.2275   -0.4334 C   0  0  0  0  0  0  0  0  0  0  0  0
   -5.1470   -2.7349   -1.7255 C   0  0  0  0  0  0  0  0  0  0  0  0
    1.9709    0.0227    0.1560 H   0  0  0  0  0  0  0  0  0  0  0  0
    0.4203   -0.2804    0.9008 H   0  0  0  0  0  0  0  0  0  0  0  0
   -0.4669   -0.9908   -1.3958 H   0  0  0  0  0  0  0  0  0  0  0  0
    1.1121   -0.6185   -2.0641 H   0  0  0  0  0  0  0  0  0  0  0  0
   -0.6686   -2.8503    0.4372 H   0  0  0  0  0  0  0  0  0  0  0  0
    0.6081   -4.0776    0.4803 H   0  0  0  0  0  0  0  0  0  0  0  0
    0.8603   -2.5598    1.3094 H   0  0  0  0  0  0  0  0  0  0  0  0
    1.1349   -2.9431   -2.9793 H   0  0  0  0  0  0  0  0  0  0  0  0
    0.9974   -4.3354   -1.9193 H   0  0  0  0  0  0  0  0  0  0  0  0
   -0.4281   -3.3176   -2.2180 H   0  0  0  0  0  0  0  0  0  0  0  0
    2.7217   -3.3688   -0.5253 H   0  0  0  0  0  0  0  0  0  0  0  0
   -0.1160    6.0464   -0.3871 H   0  0  0  0  0  0  0  0  0  0  0  0
    3.1291    3.1166    0.1457 H   0  0  0  0  0  0  0  0  0  0  0  0
   -5.4762    1.4920   -1.4447 H   0  0  0  0  0  0  0  0  0  0  0  0
   -5.7161   -4.1857   -2.8353 H   0  0  0  0  0  0  0  0  0  0  0  0
    1.6163    4.6760   -0.2669 H   0  0  0  0  0  0  0  0  0  0  0  0
   -3.4751   -0.3013   -3.3948 H   0  0  0  0  0  0  0  0  0  0  0  0
   -4.3588   -0.6349    0.8195 H   0  0  0  0  0  0  0  0  0  0  0  0
   -4.6375   -2.4344   -3.8065 H   0  0  0  0  0  0  0  0  0  0  0  0
   -5.5249   -2.7771    0.3903 H   0  0  0  0  0  0  0  0  0  0  0  0
  1  2  1  0  0  0  0
  1 14  1  0  0  0  0
  1 28  1  0  0  0  0
  1 29  1  0  0  0  0
  2  3  1  0  0  0  0
  2 30  1  0  0  0  0
  2 31  1  0  0  0  0
  3  4  1  0  0  0  0
  3  5  1  0  0  0  0
  3  6  1  0  0  0  0
  4 32  1  0  0  0  0
  4 33  1  0  0  0  0
  4 34  1  0  0  0  0
  5 35  1  0  0  0  0
  5 36  1  0  0  0  0
  5 37  1  0  0  0  0
  6 38  1  0  0  0  0
  7 16  2  0  0  0  0
  8 17  1  0  0  0  0
  8 39  1  0  0  0  0
  9 18  1  0  0  0  0
  9 40  1  0  0  0  0
 10 20  1  0  0  0  0
 10 41  1  0  0  0  0
 11 27  1  0  0  0  0
 11 42  1  0  0  0  0
 12 13  1  0  0  0  0
 12 14  2  0  0  0  0
 12 15  1  0  0  0  0
 13 16  1  0  0  0  0
 13 17  2  0  0  0  0
 14 18  1  0  0  0  0
 15 19  1  0  0  0  0
 16 20  1  0  0  0  0
 17 21  1  0  0  0  0
 18 21  2  0  0  0  0
 19 20  2  0  0  0  0
 19 22  1  0  0  0  0
 21 43  1  0  0  0  0
 22 23  2  0  0  0  0
 22 24  1  0  0  0  0
 23 25  1  0  0  0  0
 23 44  1  0  0  0  0
 24 26  2  0  0  0  0
 24 45  1  0  0  0  0
 25 27  2  0  0  0  0
 25 46  1  0  0  0  0
 26 27  1  0  0  0  0
 26 47  1  0  0  0  0
M  END
>  <Mol_ID>
9748

>  <Formula>
C20H20O7

>  <MolWeight>
372.3686

>  <Cat>
E2222

>  <Name>
Noricaritin

>  <Synonyms>
CKZDX3

>  <Target>
anti-inflammatory

>  <Form>
Free Base

>  <CAS>
5240-95-9

>  <URL>
https://www.selleckchem.com/products/noricaritin.html

$$$$
