NOTA
 OpenBabel08302521303D

 42 42  0  0  0  0  0  0  0  0999 V2000
   -1.3549   -3.5886    1.3558 O   0  0  0  0  0  0  0  0  0  0  0  0
   -4.4823    5.1631    1.9119 O   0  0  0  0  0  0  0  0  0  0  0  0
    1.0330    1.0490    4.2835 O   0  0  0  0  0  0  0  0  0  0  0  0
   -3.3423   -2.5746    1.3661 O   0  0  0  0  0  0  0  0  0  0  0  0
   -4.5358    6.4618    0.0515 O   0  0  0  0  0  0  0  0  0  0  0  0
    1.8699    0.0679    2.4133 O   0  0  0  0  0  0  0  0  0  0  0  0
   -1.8556    0.0216    1.2099 N   0  0  0  0  0  0  0  0  0  0  0  0
   -3.1991    3.1219    0.7048 N   0  0  0  0  0  0  0  0  0  0  0  0
   -0.8652    2.3782    3.0181 N   0  0  0  0  0  0  0  0  0  0  0  0
   -1.9778    1.4327    3.2811 C   0  0  0  0  0  0  0  0  0  0  0  0
   -1.9542    0.0175    2.6774 C   0  0  0  0  0  0  0  0  0  0  0  0
   -1.3936    3.6507    2.4961 C   0  0  0  0  0  0  0  0  0  0  0  0
   -1.8537    3.7159    1.0114 C   0  0  0  0  0  0  0  0  0  0  0  0
   -3.0977    0.4637    0.5617 C   0  0  0  0  0  0  0  0  0  0  0  0
   -3.0382    1.8691   -0.1194 C   0  0  0  0  0  0  0  0  0  0  0  0
   -1.3379   -1.2854    0.7216 C   0  0  0  0  0  0  0  0  0  0  0  0
   -3.9496    4.1069   -0.1733 C   0  0  0  0  0  0  0  0  0  0  0  0
    0.2754    1.9030    2.1860 C   0  0  0  0  0  0  0  0  0  0  0  0
   -2.1372   -2.5019    1.1758 C   0  0  0  0  0  0  0  0  0  0  0  0
   -4.3352    5.3786    0.5787 C   0  0  0  0  0  0  0  0  0  0  0  0
    1.1310    0.8932    2.9372 C   0  0  0  0  0  0  0  0  0  0  0  0
   -1.9626   -4.2873    1.6788 H   0  0  0  0  0  0  0  0  0  0  0  0
   -4.2653    4.2169    2.0796 H   0  0  0  0  0  0  0  0  0  0  0  0
    0.3707    1.7653    4.4333 H   0  0  0  0  0  0  0  0  0  0  0  0
   -2.9480    1.8812    3.0329 H   0  0  0  0  0  0  0  0  0  0  0  0
   -2.0217    1.3130    4.3716 H   0  0  0  0  0  0  0  0  0  0  0  0
   -2.8504   -0.5216    3.0114 H   0  0  0  0  0  0  0  0  0  0  0  0
   -1.1083   -0.5215    3.1200 H   0  0  0  0  0  0  0  0  0  0  0  0
   -2.1957    4.0133    3.1525 H   0  0  0  0  0  0  0  0  0  0  0  0
   -0.5966    4.3972    2.6207 H   0  0  0  0  0  0  0  0  0  0  0  0
   -1.8754    4.7937    0.7953 H   0  0  0  0  0  0  0  0  0  0  0  0
   -1.0725    3.3433    0.3399 H   0  0  0  0  0  0  0  0  0  0  0  0
   -3.3356   -0.2357   -0.2526 H   0  0  0  0  0  0  0  0  0  0  0  0
   -3.9643    0.4112    1.2318 H   0  0  0  0  0  0  0  0  0  0  0  0
   -3.8880    1.8288   -0.8167 H   0  0  0  0  0  0  0  0  0  0  0  0
   -2.1608    1.9321   -0.7765 H   0  0  0  0  0  0  0  0  0  0  0  0
   -0.3126   -1.3965    1.0927 H   0  0  0  0  0  0  0  0  0  0  0  0
   -1.2748   -1.2953   -0.3733 H   0  0  0  0  0  0  0  0  0  0  0  0
   -3.3561    4.3720   -1.0555 H   0  0  0  0  0  0  0  0  0  0  0  0
   -4.9035    3.6652   -0.4916 H   0  0  0  0  0  0  0  0  0  0  0  0
   -0.0163    1.5036    1.2152 H   0  0  0  0  0  0  0  0  0  0  0  0
    0.9494    2.7462    1.9906 H   0  0  0  0  0  0  0  0  0  0  0  0
  1 19  1  0  0  0  0
  1 22  1  0  0  0  0
  2 20  1  0  0  0  0
  2 23  1  0  0  0  0
  3 21  1  0  0  0  0
  3 24  1  0  0  0  0
  4 19  2  0  0  0  0
  5 20  2  0  0  0  0
  6 21  2  0  0  0  0
  7 11  1  0  0  0  0
  7 14  1  0  0  0  0
  7 16  1  0  0  0  0
  8 13  1  0  0  0  0
  8 15  1  0  0  0  0
  8 17  1  0  0  0  0
  9 10  1  0  0  0  0
  9 12  1  0  0  0  0
  9 18  1  0  0  0  0
 10 11  1  0  0  0  0
 10 25  1  0  0  0  0
 10 26  1  0  0  0  0
 11 27  1  0  0  0  0
 11 28  1  0  0  0  0
 12 13  1  0  0  0  0
 12 29  1  0  0  0  0
 12 30  1  0  0  0  0
 13 31  1  0  0  0  0
 13 32  1  0  0  0  0
 14 15  1  0  0  0  0
 14 33  1  0  0  0  0
 14 34  1  0  0  0  0
 15 35  1  0  0  0  0
 15 36  1  0  0  0  0
 16 19  1  0  0  0  0
 16 37  1  0  0  0  0
 16 38  1  0  0  0  0
 17 20  1  0  0  0  0
 17 39  1  0  0  0  0
 17 40  1  0  0  0  0
 18 21  1  0  0  0  0
 18 41  1  0  0  0  0
 18 42  1  0  0  0  0
M  END
>  <Mol_ID>
5531

>  <Formula>
C12H21N3O6

>  <MolWeight>
303.31164

>  <Cat>
S6923

>  <Name>
NOTA

>  <Synonyms>
N/A

>  <Target>
Hydrotropic Agents

>  <Form>
Free Base

>  <CAS>
56491-86-2

>  <URL>
https://www.selleckchem.com/products/nota.html

$$$$
