Notopterol
 OpenBabel08302521263D

 48 50  0  0  0  0  0  0  0  0999 V2000
    4.4203    6.2259    4.1065 O   0  0  0  0  0  0  0  0  0  0  0  0
    3.9505    5.3712    3.3666 C   0  0  0  0  0  0  0  0  0  0  0  0
    3.3127    5.7321    2.0967 C   0  0  0  0  0  0  0  0  0  0  0  0
    2.6863    4.8314    1.3318 C   0  0  0  0  0  0  0  0  0  0  0  0
    2.5601    3.4397    1.7559 C   0  0  0  0  0  0  0  0  0  0  0  0
    3.3371    3.0580    2.8651 C   0  0  0  0  0  0  0  0  0  0  0  0
    4.0318    4.0159    3.6439 O   0  0  0  0  0  0  0  0  0  0  0  0
    3.4805    1.7410    3.2967 C   0  0  0  0  0  0  0  0  0  0  0  0
    2.7582    0.8063    2.5730 C   0  0  0  0  0  0  0  0  0  0  0  0
    2.7752   -0.5351    2.8070 O   0  0  0  0  0  0  0  0  0  0  0  0
    1.9420   -1.1039    1.8973 C   0  0  0  0  0  0  0  0  0  0  0  0
    1.3874   -0.1426    1.0871 C   0  0  0  0  0  0  0  0  0  0  0  0
    1.9207    1.1110    1.5054 C   0  0  0  0  0  0  0  0  0  0  0  0
    1.7933    2.4627    1.0756 C   0  0  0  0  0  0  0  0  0  0  0  0
    1.0466    2.6960   -0.0513 O   0  0  0  0  0  0  0  0  0  0  0  0
    0.0126    3.6888    0.0415 C   0  0  0  0  0  0  0  0  0  0  0  0
   -0.9743    3.4119   -1.0635 C   0  0  0  0  0  0  0  0  0  0  0  0
   -2.3248    3.4650   -1.0476 C   0  0  0  0  0  0  0  0  0  0  0  0
   -3.1452    3.8483    0.1538 C   0  0  0  0  0  0  0  0  0  0  0  0
   -3.1168    3.0721   -2.2993 C   0  0  0  0  0  0  0  0  0  0  0  0
   -3.9883    4.1949   -2.9018 C   0  0  3  0  0  0  0  0  0  0  0  0
   -3.1658    5.2737   -3.3445 O   0  0  0  0  0  0  0  0  0  0  0  0
   -4.7525    3.7378   -4.1143 C   0  0  0  0  0  0  0  0  0  0  0  0
   -6.0948    3.6774   -4.2401 C   0  0  0  0  0  0  0  0  0  0  0  0
   -6.7434    3.2716   -5.5392 C   0  0  0  0  0  0  0  0  0  0  0  0
   -7.0387    4.0305   -3.1291 C   0  0  0  0  0  0  0  0  0  0  0  0
    3.4086    6.7682    1.8004 H   0  0  0  0  0  0  0  0  0  0  0  0
    2.3180    5.1321    0.3611 H   0  0  0  0  0  0  0  0  0  0  0  0
    4.1200    1.4600    4.1223 H   0  0  0  0  0  0  0  0  0  0  0  0
    1.8563   -2.1789    1.9585 H   0  0  0  0  0  0  0  0  0  0  0  0
    0.6883   -0.3162    0.2807 H   0  0  0  0  0  0  0  0  0  0  0  0
   -0.4450    3.6990    1.0354 H   0  0  0  0  0  0  0  0  0  0  0  0
    0.4346    4.6721   -0.1787 H   0  0  0  0  0  0  0  0  0  0  0  0
   -0.4882    3.1358   -1.9998 H   0  0  0  0  0  0  0  0  0  0  0  0
   -3.8726    4.6253   -0.1005 H   0  0  0  0  0  0  0  0  0  0  0  0
   -3.6911    2.9779    0.5303 H   0  0  0  0  0  0  0  0  0  0  0  0
   -2.5430    4.2527    0.9707 H   0  0  0  0  0  0  0  0  0  0  0  0
   -2.4204    2.7174   -3.0712 H   0  0  0  0  0  0  0  0  0  0  0  0
   -3.7513    2.2137   -2.0406 H   0  0  0  0  0  0  0  0  0  0  0  0
   -4.6723    4.5932   -2.1482 H   0  0  0  0  0  0  0  0  0  0  0  0
   -2.8099    5.6938   -2.5432 H   0  0  0  0  0  0  0  0  0  0  0  0
   -4.1310    3.4772   -4.9701 H   0  0  0  0  0  0  0  0  0  0  0  0
   -7.3871    2.3991   -5.3877 H   0  0  0  0  0  0  0  0  0  0  0  0
   -7.3561    4.0937   -5.9248 H   0  0  0  0  0  0  0  0  0  0  0  0
   -6.0090    3.0152   -6.3098 H   0  0  0  0  0  0  0  0  0  0  0  0
   -6.8923    3.3628   -2.2742 H   0  0  0  0  0  0  0  0  0  0  0  0
   -6.8920    5.0673   -2.8093 H   0  0  0  0  0  0  0  0  0  0  0  0
   -8.0845    3.9341   -3.4451 H   0  0  0  0  0  0  0  0  0  0  0  0
  1  2  2  0  0  0  0
  2  3  1  0  0  0  0
  2  7  1  0  0  0  0
  3  4  2  0  0  0  0
  3 27  1  0  0  0  0
  4  5  1  0  0  0  0
  4 28  1  0  0  0  0
  5  6  2  0  0  0  0
  5 14  1  0  0  0  0
  6  7  1  0  0  0  0
  6  8  1  0  0  0  0
  8  9  2  0  0  0  0
  8 29  1  0  0  0  0
  9 10  1  0  0  0  0
  9 13  1  0  0  0  0
 10 11  1  0  0  0  0
 11 12  2  0  0  0  0
 11 30  1  0  0  0  0
 12 13  1  0  0  0  0
 12 31  1  0  0  0  0
 13 14  2  0  0  0  0
 14 15  1  0  0  0  0
 15 16  1  0  0  0  0
 16 17  1  0  0  0  0
 16 32  1  0  0  0  0
 16 33  1  0  0  0  0
 17 18  2  0  0  0  0
 17 34  1  0  0  0  0
 18 19  1  0  0  0  0
 18 20  1  0  0  0  0
 19 35  1  0  0  0  0
 19 36  1  0  0  0  0
 19 37  1  0  0  0  0
 20 21  1  0  0  0  0
 20 38  1  0  0  0  0
 20 39  1  0  0  0  0
 21 22  1  0  0  0  0
 21 23  1  0  0  0  0
 21 40  1  0  0  0  0
 22 41  1  0  0  0  0
 23 24  2  0  0  0  0
 23 42  1  0  0  0  0
 24 25  1  0  0  0  0
 24 26  1  0  0  0  0
 25 43  1  0  0  0  0
 25 44  1  0  0  0  0
 25 45  1  0  0  0  0
 26 46  1  0  0  0  0
 26 47  1  0  0  0  0
 26 48  1  0  0  0  0
M  END
>  <Mol_ID>
5297

>  <Formula>
C21H22O5

>  <MolWeight>
354.39638

>  <Cat>
S9203

>  <Name>
Notopterol

>  <Synonyms>
N/A

>  <Target>
Immunology & Inflammation related

>  <Form>
Free Base

>  <CAS>
88206-46-6

>  <URL>
https://www.selleckchem.com/products/notopterol.html

$$$$
