NPD8733
 OpenBabel08302521313D

 38 40  0  0  0  0  0  0  0  0999 V2000
   -1.4921    1.0048    0.0536 O   0  0  0  0  0  0  0  0  0  0  0  0
   -4.6166   -0.6116    0.1123 O   0  0  0  0  0  0  0  0  0  0  0  0
   -5.1365    5.3834   -2.0538 O   0  0  0  0  0  0  0  0  0  0  0  0
   -2.1175   -4.7381   -0.3242 O   0  0  0  0  0  0  0  0  0  0  0  0
   -2.1528   -2.5031   -0.0416 N   0  0  0  0  0  0  0  0  0  0  0  0
   -0.2120   -0.8418   -0.0252 C   0  0  0  0  0  0  0  0  0  0  0  0
   -1.5889   -1.2373   -0.0514 C   0  0  0  0  0  0  0  0  0  0  0  0
   -2.3317   -0.0647   -0.0556 C   0  0  0  0  0  0  0  0  0  0  0  0
   -0.2261    0.5457    0.0231 C   0  0  0  0  0  0  0  0  0  0  0  0
   -3.7490    0.1985   -0.2089 C   0  0  0  0  0  0  0  0  0  0  0  0
    1.0486   -1.4692    0.0310 C   0  0  0  0  0  0  0  0  0  0  0  0
    0.9004    1.3632    0.0471 C   0  0  0  0  0  0  0  0  0  0  0  0
   -4.1668    1.5195   -0.7966 C   0  0  0  0  0  0  0  0  0  0  0  0
    2.2071   -0.6785    0.0354 C   0  0  0  0  0  0  0  0  0  0  0  0
    2.1327    0.7145    0.0321 C   0  0  0  0  0  0  0  0  0  0  0  0
   -5.4445    2.0118   -0.5141 C   0  0  0  0  0  0  0  0  0  0  0  0
   -3.3112    2.2927   -1.5971 C   0  0  0  0  0  0  0  0  0  0  0  0
   -1.7243   -3.6293   -0.6875 C   0  0  0  0  0  0  0  0  0  0  0  0
   -5.8152    3.2976   -0.9297 C   0  0  0  0  0  0  0  0  0  0  0  0
   -3.6755    3.5812   -1.9906 C   0  0  0  0  0  0  0  0  0  0  0  0
   -4.9194    4.0995   -1.6395 C   0  0  0  0  0  0  0  0  0  0  0  0
   -0.8984   -3.4734   -1.9385 C   0  0  0  0  0  0  0  0  0  0  0  0
   -6.3342    6.0030   -1.6038 C   0  0  0  0  0  0  0  0  0  0  0  0
   -2.9915   -2.6291    0.5194 H   0  0  0  0  0  0  0  0  0  0  0  0
    1.1377   -2.5492    0.0813 H   0  0  0  0  0  0  0  0  0  0  0  0
    0.8122    2.4435    0.0741 H   0  0  0  0  0  0  0  0  0  0  0  0
    3.1839   -1.1594    0.0521 H   0  0  0  0  0  0  0  0  0  0  0  0
    3.0454    1.3084    0.0328 H   0  0  0  0  0  0  0  0  0  0  0  0
   -6.1538    1.4093    0.0502 H   0  0  0  0  0  0  0  0  0  0  0  0
   -2.3369    1.9296   -1.9128 H   0  0  0  0  0  0  0  0  0  0  0  0
   -6.8086    3.6465   -0.6687 H   0  0  0  0  0  0  0  0  0  0  0  0
   -2.9727    4.1886   -2.5571 H   0  0  0  0  0  0  0  0  0  0  0  0
   -1.2813   -2.6496   -2.5480 H   0  0  0  0  0  0  0  0  0  0  0  0
    0.1560   -3.3316   -1.7160 H   0  0  0  0  0  0  0  0  0  0  0  0
   -0.9937   -4.3878   -2.5344 H   0  0  0  0  0  0  0  0  0  0  0  0
   -7.2159    5.4532   -1.9466 H   0  0  0  0  0  0  0  0  0  0  0  0
   -6.3327    6.1116   -0.5138 H   0  0  0  0  0  0  0  0  0  0  0  0
   -6.3789    7.0040   -2.0426 H   0  0  0  0  0  0  0  0  0  0  0  0
  1  8  1  0  0  0  0
  1  9  1  0  0  0  0
  2 10  2  0  0  0  0
  3 21  1  0  0  0  0
  3 23  1  0  0  0  0
  4 18  2  0  0  0  0
  5  7  1  0  0  0  0
  5 18  1  0  0  0  0
  5 24  1  0  0  0  0
  6  7  1  0  0  0  0
  6  9  2  0  0  0  0
  6 11  1  0  0  0  0
  7  8  2  0  0  0  0
  8 10  1  0  0  0  0
  9 12  1  0  0  0  0
 10 13  1  0  0  0  0
 11 14  2  0  0  0  0
 11 25  1  0  0  0  0
 12 15  2  0  0  0  0
 12 26  1  0  0  0  0
 13 16  2  0  0  0  0
 13 17  1  0  0  0  0
 14 15  1  0  0  0  0
 14 27  1  0  0  0  0
 15 28  1  0  0  0  0
 16 19  1  0  0  0  0
 16 29  1  0  0  0  0
 17 20  2  0  0  0  0
 17 30  1  0  0  0  0
 18 22  1  0  0  0  0
 19 21  2  0  0  0  0
 19 31  1  0  0  0  0
 20 21  1  0  0  0  0
 20 32  1  0  0  0  0
 22 33  1  0  0  0  0
 22 34  1  0  0  0  0
 22 35  1  0  0  0  0
 23 36  1  0  0  0  0
 23 37  1  0  0  0  0
 23 38  1  0  0  0  0
M  END
>  <Mol_ID>
5876

>  <Formula>
C18H15NO4

>  <MolWeight>
309.316

>  <Cat>
S4453

>  <Name>
NPD8733

>  <Synonyms>
N/A

>  <Target>
p97

>  <Form>
Free Base

>  <CAS>
696655-62-6

>  <URL>
http://www.selleckchem.com/products/npd8733.html

$$$$
