NPI2358.cdx
 OpenBabel08302521433D

 45 47  0  0  0  0  0  0  0  0999 V2000
    0.6509   -0.5991   -1.3565 C   0  0  0  0  0  0  0  0  0  0  0  0
    0.7057   -1.4225   -0.2298 C   0  0  0  0  0  0  0  0  0  0  0  0
    0.2020   -0.9700    0.9880 C   0  0  0  0  0  0  0  0  0  0  0  0
   -0.3418    0.3110    1.0849 C   0  0  0  0  0  0  0  0  0  0  0  0
   -0.3840    1.1488   -0.0362 C   0  0  0  0  0  0  0  0  0  0  0  0
    0.1033    0.6835   -1.2613 C   0  0  0  0  0  0  0  0  0  0  0  0
   -0.8760    2.5208    0.1148 C   0  0  0  0  0  0  0  0  0  0  0  0
   -0.0885    3.5650    0.4331 C   0  0  0  0  0  0  0  0  0  0  0  0
    1.2748    3.4443    0.5752 N   0  0  0  0  0  0  0  0  0  0  0  0
    2.1243    4.4493    0.9483 C   0  0  0  0  0  0  0  0  0  0  0  0
    1.4821    5.7763    1.2162 C   0  0  0  0  0  0  0  0  0  0  0  0
    0.1226    5.9098    1.0442 N   0  0  0  0  0  0  0  0  0  0  0  0
   -0.7328    4.9089    0.6674 C   0  0  0  0  0  0  0  0  0  0  0  0
   -1.9399    5.0964    0.5505 O   0  0  0  0  0  0  0  0  0  0  0  0
    2.2752    6.7817    1.6297 C   0  0  0  0  0  0  0  0  0  0  0  0
    3.3327    4.2493    1.0560 O   0  0  0  0  0  0  0  0  0  0  0  0
    1.8745    8.1163    1.9135 C   0  0  0  0  0  0  0  0  0  0  0  0
    2.3816    8.9979    2.8567 C   0  0  0  0  0  0  0  0  0  0  0  0
    1.7139   10.1746    2.5661 N   0  0  0  0  0  0  0  0  0  0  0  0
    0.8439    9.9424    1.5419 C   0  0  0  0  0  0  0  0  0  0  0  0
    0.8887    8.6926    1.1530 N   0  0  0  0  0  0  0  0  0  0  0  0
    3.4293    8.9164    3.9582 C   0  0  0  0  0  0  0  0  0  0  0  0
    4.7970    9.3279    3.3869 C   0  0  0  0  0  0  0  0  0  0  0  0
    3.0706    9.8612    5.1293 C   0  0  0  0  0  0  0  0  0  0  0  0
    3.5424    7.5019    4.5588 C   0  0  0  0  0  0  0  0  0  0  0  0
    1.0390   -0.9589   -2.3074 H   0  0  0  0  0  0  0  0  0  0  0  0
    1.1418   -2.4159   -0.3013 H   0  0  0  0  0  0  0  0  0  0  0  0
    0.2390   -1.6111    1.8654 H   0  0  0  0  0  0  0  0  0  0  0  0
   -0.7206    0.6580    2.0446 H   0  0  0  0  0  0  0  0  0  0  0  0
    0.0729    1.3139   -2.1468 H   0  0  0  0  0  0  0  0  0  0  0  0
   -1.9525    2.6423    0.0158 H   0  0  0  0  0  0  0  0  0  0  0  0
    1.7141    2.5492    0.3995 H   0  0  0  0  0  0  0  0  0  0  0  0
   -0.2797    6.8330    1.1875 H   0  0  0  0  0  0  0  0  0  0  0  0
    3.3375    6.5802    1.7431 H   0  0  0  0  0  0  0  0  0  0  0  0
    1.8481   11.0672    3.0199 H   0  0  0  0  0  0  0  0  0  0  0  0
    0.2180   10.7186    1.1221 H   0  0  0  0  0  0  0  0  0  0  0  0
    4.7776   10.3549    3.0040 H   0  0  0  0  0  0  0  0  0  0  0  0
    5.5790    9.2741    4.1530 H   0  0  0  0  0  0  0  0  0  0  0  0
    5.0956    8.6746    2.5588 H   0  0  0  0  0  0  0  0  0  0  0  0
    2.0777    9.6296    5.5340 H   0  0  0  0  0  0  0  0  0  0  0  0
    3.7925    9.7688    5.9492 H   0  0  0  0  0  0  0  0  0  0  0  0
    3.0689   10.9140    4.8259 H   0  0  0  0  0  0  0  0  0  0  0  0
    2.5780    7.1508    4.9433 H   0  0  0  0  0  0  0  0  0  0  0  0
    3.9062    6.7676    3.8359 H   0  0  0  0  0  0  0  0  0  0  0  0
    4.2564    7.4868    5.3916 H   0  0  0  0  0  0  0  0  0  0  0  0
  1  2  2  0  0  0  0
  1 26  1  0  0  0  0
  2  3  1  0  0  0  0
  2 27  1  0  0  0  0
  3  4  2  0  0  0  0
  3 28  1  0  0  0  0
  4  5  1  0  0  0  0
  4 29  1  0  0  0  0
  5  6  2  0  0  0  0
  5  7  1  0  0  0  0
  6  1  1  0  0  0  0
  6 30  1  0  0  0  0
  7  8  2  0  0  0  0
  7 31  1  0  0  0  0
  8  9  1  0  0  0  0
  9 10  1  0  0  0  0
  9 32  1  0  0  0  0
 10 11  1  0  0  0  0
 10 16  2  0  0  0  0
 11 12  1  0  0  0  0
 11 15  2  0  0  0  0
 12 13  1  0  0  0  0
 12 33  1  0  0  0  0
 13  8  1  0  0  0  0
 13 14  2  0  0  0  0
 15 17  1  0  0  0  0
 15 34  1  0  0  0  0
 17 18  2  0  0  0  0
 18 19  1  0  0  0  0
 18 22  1  0  0  0  0
 19 20  1  0  0  0  0
 19 35  1  0  0  0  0
 20 21  2  0  0  0  0
 20 36  1  0  0  0  0
 21 17  1  0  0  0  0
 22 23  1  0  0  0  0
 22 24  1  0  0  0  0
 22 25  1  0  0  0  0
 23 37  1  0  0  0  0
 23 38  1  0  0  0  0
 23 39  1  0  0  0  0
 24 40  1  0  0  0  0
 24 41  1  0  0  0  0
 24 42  1  0  0  0  0
 25 43  1  0  0  0  0
 25 44  1  0  0  0  0
 25 45  1  0  0  0  0
M  END
>  <Mol_ID>
101

>  <Formula>
C19H20N4O2

>  <MolWeight>
336.3877

>  <Cat>
S1176

>  <Name>
Plinabulin (NPI-2358)

>  <Synonyms>
N/A

>  <Target>
Microtubule Associated,VDA

>  <Form>
free base

>  <CAS>
714272-27-2

>  <URL>
http://selleckchem.com/products/NPI-2358.html

$$$$
