NQDI-1.cdx
 OpenBabel08302520433D

 37 40  0  0  0  0  0  0  0  0999 V2000
   -1.4600   -0.3344   -0.8349 C   0  0  0  0  0  0  0  0  0  0  0  0
   -1.6746    1.0195   -0.5276 C   0  0  0  0  0  0  0  0  0  0  0  0
   -0.5285    1.9087   -0.2130 C   0  0  0  0  0  0  0  0  0  0  0  0
    0.8461    1.3578   -0.2536 C   0  0  0  0  0  0  0  0  0  0  0  0
    1.0316   -0.0182   -0.3568 C   0  0  0  0  0  0  0  0  0  0  0  0
   -0.1275   -0.9358   -0.5052 C   0  0  0  0  0  0  0  0  0  0  0  0
   -2.5116   -1.0260   -1.4543 C   0  0  0  0  0  0  0  0  0  0  0  0
   -3.7948   -0.4724   -1.5175 C   0  0  0  0  0  0  0  0  0  0  0  0
   -4.0297    0.8085   -1.0292 C   0  0  0  0  0  0  0  0  0  0  0  0
   -2.9598    1.5759   -0.5804 C   0  0  0  0  0  0  0  0  0  0  0  0
    1.9437    2.2242   -0.1045 C   0  0  0  0  0  0  0  0  0  0  0  0
    3.2363    1.7080   -0.0412 C   0  0  0  0  0  0  0  0  0  0  0  0
    3.4330    0.3320   -0.0961 C   0  0  0  0  0  0  0  0  0  0  0  0
    2.3325   -0.5151   -0.2274 C   0  0  0  0  0  0  0  0  0  0  0  0
    0.0785   -2.2431   -0.1802 C   0  0  0  0  0  0  0  0  0  0  0  0
    2.5113   -1.8898   -0.1184 N   0  0  0  0  0  0  0  0  0  0  0  0
    1.4750   -2.7618    0.0399 C   0  0  0  0  0  0  0  0  0  0  0  0
    1.7237   -3.9177    0.3712 O   0  0  0  0  0  0  0  0  0  0  0  0
   -0.7056    3.0956    0.0390 O   0  0  0  0  0  0  0  0  0  0  0  0
   -1.0399   -3.1998    0.0724 C   0  0  0  0  0  0  0  0  0  0  0  0
   -0.7396   -4.4187   -0.4305 O   0  0  0  0  0  0  0  0  0  0  0  0
   -2.0796   -2.9103    0.6422 O   0  0  0  0  0  0  0  0  0  0  0  0
   -1.6965   -5.4682   -0.2245 C   0  0  0  0  0  0  0  0  0  0  0  0
   -2.4683   -5.6526   -1.5144 C   0  0  0  0  0  0  0  0  0  0  0  0
   -2.3741   -2.0262   -1.8573 H   0  0  0  0  0  0  0  0  0  0  0  0
   -4.6169   -1.0591   -1.9211 H   0  0  0  0  0  0  0  0  0  0  0  0
   -5.0360    1.2190   -1.0266 H   0  0  0  0  0  0  0  0  0  0  0  0
   -3.1266    2.6052   -0.2700 H   0  0  0  0  0  0  0  0  0  0  0  0
    1.7833    3.2950   -0.0150 H   0  0  0  0  0  0  0  0  0  0  0  0
    4.0840    2.3799    0.0917 H   0  0  0  0  0  0  0  0  0  0  0  0
    4.4382   -0.0681    0.0112 H   0  0  0  0  0  0  0  0  0  0  0  0
    3.4316   -2.2737    0.0576 H   0  0  0  0  0  0  0  0  0  0  0  0
   -1.1333   -6.3775    0.0110 H   0  0  0  0  0  0  0  0  0  0  0  0
   -2.3675   -5.2766    0.6211 H   0  0  0  0  0  0  0  0  0  0  0  0
   -1.8094   -5.5359   -2.3814 H   0  0  0  0  0  0  0  0  0  0  0  0
   -2.9409   -6.6373   -1.5530 H   0  0  0  0  0  0  0  0  0  0  0  0
   -3.2487   -4.8897   -1.5991 H   0  0  0  0  0  0  0  0  0  0  0  0
  1  2  2  0  0  0  0
  1  7  1  0  0  0  0
  2  3  1  0  0  0  0
  3  4  1  0  0  0  0
  3 19  2  0  0  0  0
  4  5  2  0  0  0  0
  4 11  1  0  0  0  0
  5  6  1  0  0  0  0
  6  1  1  0  0  0  0
  6 15  2  0  0  0  0
  7  8  2  0  0  0  0
  7 25  1  0  0  0  0
  8  9  1  0  0  0  0
  8 26  1  0  0  0  0
  9 10  2  0  0  0  0
  9 27  1  0  0  0  0
 10  2  1  0  0  0  0
 10 28  1  0  0  0  0
 11 12  2  0  0  0  0
 11 29  1  0  0  0  0
 12 13  1  0  0  0  0
 12 30  1  0  0  0  0
 13 14  2  0  0  0  0
 13 31  1  0  0  0  0
 14  5  1  0  0  0  0
 14 16  1  0  0  0  0
 15 20  1  0  0  0  0
 16 17  1  0  0  0  0
 16 32  1  0  0  0  0
 17 15  1  0  0  0  0
 17 18  2  0  0  0  0
 20 21  1  0  0  0  0
 20 22  2  0  0  0  0
 21 23  1  0  0  0  0
 23 24  1  0  0  0  0
 23 33  1  0  0  0  0
 23 34  1  0  0  0  0
 24 35  1  0  0  0  0
 24 36  1  0  0  0  0
 24 37  1  0  0  0  0
M  END
>  <Mol_ID>
4042

>  <Formula>
C19H13NO4

>  <MolWeight>
319.31082

>  <Cat>
S8289

>  <Name>
NQDI-1

>  <Synonyms>
N/A

>  <Target>
ASK

>  <Form>
free base

>  <CAS>
175026-96-7

>  <URL>
http://selleckchem.com/products/nqdi-1.html

$$$$
