NS-1619
 OpenBabel08302521243D

 33 35  0  0  0  0  0  0  0  0999 V2000
   -2.4688   -0.0015   -0.1256 C   0  0  0  0  0  0  0  0  0  0  0  0
   -1.6126    1.1156   -0.0677 N   0  0  0  0  0  0  0  0  0  0  0  0
   -0.2982    0.6719    0.0357 C   0  0  0  0  0  0  0  0  0  0  0  0
   -0.3024   -0.7235    0.0849 C   0  0  0  0  0  0  0  0  0  0  0  0
   -1.6425   -1.1394    0.0228 N   0  0  0  0  0  0  0  0  0  0  0  0
    0.8608    1.4156    0.0333 C   0  0  0  0  0  0  0  0  0  0  0  0
    2.0783    0.7139    0.0523 C   0  0  0  0  0  0  0  0  0  0  0  0
    2.0749   -0.7075    0.0750 C   0  0  0  0  0  0  0  0  0  0  0  0
    0.8788   -1.4378    0.0946 C   0  0  0  0  0  0  0  0  0  0  0  0
   -3.6807    0.0545   -0.2717 O   0  0  0  0  0  0  0  0  0  0  0  0
    3.3942    1.4572    0.0313 C   0  0  0  0  0  0  0  0  0  0  0  0
   -2.0461   -2.4763   -0.0238 C   0  0  0  0  0  0  0  0  0  0  0  0
   -1.8266   -3.3430    1.0565 C   0  0  0  0  0  0  0  0  0  0  0  0
   -2.2411   -4.6726    0.9962 C   0  0  0  0  0  0  0  0  0  0  0  0
   -2.8361   -5.1588   -0.1694 C   0  0  0  0  0  0  0  0  0  0  0  0
   -3.0464   -4.3155   -1.2719 C   0  0  0  0  0  0  0  0  0  0  0  0
   -2.6896   -2.9594   -1.1698 C   0  0  0  0  0  0  0  0  0  0  0  0
   -3.5990   -4.8569   -2.5681 C   0  0  0  0  0  0  0  0  0  0  0  0
   -1.2390   -2.8705    2.1990 O   0  0  0  0  0  0  0  0  0  0  0  0
    3.2514    2.8115    0.0054 F   0  0  0  0  0  0  0  0  0  0  0  0
    4.1636    1.1834    1.1203 F   0  0  0  0  0  0  0  0  0  0  0  0
    4.1531    1.1415   -1.0540 F   0  0  0  0  0  0  0  0  0  0  0  0
   -3.8297   -6.2001   -2.5368 F   0  0  0  0  0  0  0  0  0  0  0  0
   -4.7776   -4.2825   -2.9274 F   0  0  0  0  0  0  0  0  0  0  0  0
   -2.7468   -4.6565   -3.6125 F   0  0  0  0  0  0  0  0  0  0  0  0
   -1.9345    2.0663   -0.1441 H   0  0  0  0  0  0  0  0  0  0  0  0
    0.8319    2.5002   -0.0040 H   0  0  0  0  0  0  0  0  0  0  0  0
    3.0218   -1.2479    0.0674 H   0  0  0  0  0  0  0  0  0  0  0  0
    0.8899   -2.5216    0.0947 H   0  0  0  0  0  0  0  0  0  0  0  0
   -2.1013   -5.3448    1.8377 H   0  0  0  0  0  0  0  0  0  0  0  0
   -3.1291   -6.2073   -0.2182 H   0  0  0  0  0  0  0  0  0  0  0  0
   -2.8646   -2.2910   -2.0123 H   0  0  0  0  0  0  0  0  0  0  0  0
   -1.2965   -3.5484    2.8915 H   0  0  0  0  0  0  0  0  0  0  0  0
  1  2  1  0  0  0  0
  1  5  1  0  0  0  0
  1 10  2  0  0  0  0
  2  3  1  0  0  0  0
  2 26  1  0  0  0  0
  3  4  2  0  0  0  0
  3  6  1  0  0  0  0
  4  5  1  0  0  0  0
  4  9  1  0  0  0  0
  5 12  1  0  0  0  0
  6  7  2  0  0  0  0
  6 27  1  0  0  0  0
  7  8  1  0  0  0  0
  7 11  1  0  0  0  0
  8  9  2  0  0  0  0
  8 28  1  0  0  0  0
  9 29  1  0  0  0  0
 11 20  1  0  0  0  0
 11 21  1  0  0  0  0
 11 22  1  0  0  0  0
 12 13  2  0  0  0  0
 12 17  1  0  0  0  0
 13 14  1  0  0  0  0
 13 19  1  0  0  0  0
 14 15  2  0  0  0  0
 14 30  1  0  0  0  0
 15 16  1  0  0  0  0
 15 31  1  0  0  0  0
 16 17  2  0  0  0  0
 16 18  1  0  0  0  0
 17 32  1  0  0  0  0
 18 23  1  0  0  0  0
 18 24  1  0  0  0  0
 18 25  1  0  0  0  0
 19 33  1  0  0  0  0
M  END
>  <Mol_ID>
4985

>  <Formula>
C15H8F6N2O2

>  <MolWeight>
362.2266392

>  <Cat>
S0462

>  <Name>
NS-1619

>  <Synonyms>
N/A

>  <Target>
Potassium Channel

>  <Form>
Free Base

>  <CAS>
153587-01-0

>  <URL>
http://www.selleckchem.com/products/ns-161.html

$$$$
