NS1643
 OpenBabel08302521353D

 36 37  0  0  0  0  0  0  0  0999 V2000
    0.6841    0.0174   -0.1432 N   0  0  0  0  0  0  0  0  0  0  0  0
    0.1627   -1.0484   -0.8490 C   0  0  0  0  0  0  0  0  0  0  0  0
   -1.1822   -0.8578   -1.1070 N   0  0  0  0  0  0  0  0  0  0  0  0
    0.7873   -2.0444   -1.1918 O   0  0  0  0  0  0  0  0  0  0  0  0
    1.4565    1.5846    2.0316 O   0  0  0  0  0  0  0  0  0  0  0  0
    5.5130   -0.2999   -1.4508 C   0  0  0  0  0  0  0  0  0  0  0  0
    5.0700   -1.0146   -2.5210 F   0  0  0  0  0  0  0  0  0  0  0  0
    6.2070    0.7523   -1.9712 F   0  0  0  0  0  0  0  0  0  0  0  0
    6.4383   -1.0829   -0.8309 F   0  0  0  0  0  0  0  0  0  0  0  0
   -1.2088   -3.8109   -0.9065 O   0  0  0  0  0  0  0  0  0  0  0  0
   -4.3701   -1.2104   -4.8320 C   0  0  0  0  0  0  0  0  0  0  0  0
   -4.2819    0.1503   -4.8080 F   0  0  0  0  0  0  0  0  0  0  0  0
   -3.9820   -1.5842   -6.0818 F   0  0  0  0  0  0  0  0  0  0  0  0
   -5.6968   -1.4985   -4.7449 F   0  0  0  0  0  0  0  0  0  0  0  0
    2.0523    0.2726    0.0931 C   0  0  0  0  0  0  0  0  0  0  0  0
    3.0680   -0.1969   -0.7480 C   0  0  0  0  0  0  0  0  0  0  0  0
    2.4031    1.0976    1.1684 C   0  0  0  0  0  0  0  0  0  0  0  0
    4.4142    0.1491   -0.5161 C   0  0  0  0  0  0  0  0  0  0  0  0
    3.7282    1.4292    1.4300 C   0  0  0  0  0  0  0  0  0  0  0  0
    4.7339    0.9500    0.5925 C   0  0  0  0  0  0  0  0  0  0  0  0
   -1.9551   -1.7244   -1.9143 C   0  0  0  0  0  0  0  0  0  0  0  0
   -2.7943   -1.1145   -2.8518 C   0  0  0  0  0  0  0  0  0  0  0  0
   -1.9422   -3.1256   -1.8294 C   0  0  0  0  0  0  0  0  0  0  0  0
   -3.5595   -1.8765   -3.7509 C   0  0  0  0  0  0  0  0  0  0  0  0
   -2.7419   -3.8942   -2.6759 C   0  0  0  0  0  0  0  0  0  0  0  0
   -3.5311   -3.2762   -3.6449 C   0  0  0  0  0  0  0  0  0  0  0  0
    0.0225    0.5819    0.3670 H   0  0  0  0  0  0  0  0  0  0  0  0
   -1.4505    0.1180   -1.1418 H   0  0  0  0  0  0  0  0  0  0  0  0
    0.8332    0.8593    2.2047 H   0  0  0  0  0  0  0  0  0  0  0  0
   -0.3861   -3.2980   -0.7631 H   0  0  0  0  0  0  0  0  0  0  0  0
    2.8264   -0.7975   -1.6241 H   0  0  0  0  0  0  0  0  0  0  0  0
    3.9795    2.0477    2.2872 H   0  0  0  0  0  0  0  0  0  0  0  0
    5.7723    1.2098    0.7993 H   0  0  0  0  0  0  0  0  0  0  0  0
   -2.8164   -0.0289   -2.9363 H   0  0  0  0  0  0  0  0  0  0  0  0
   -2.7282   -4.9792   -2.5911 H   0  0  0  0  0  0  0  0  0  0  0  0
   -4.1175   -3.8887   -4.3268 H   0  0  0  0  0  0  0  0  0  0  0  0
  1  2  1  0  0  0  0
  1 15  1  0  0  0  0
  1 27  1  0  0  0  0
  2  3  1  0  0  0  0
  2  4  2  0  0  0  0
  3 21  1  0  0  0  0
  3 28  1  0  0  0  0
  5 17  1  0  0  0  0
  5 29  1  0  0  0  0
  6  7  1  0  0  0  0
  6  8  1  0  0  0  0
  6  9  1  0  0  0  0
  6 18  1  0  0  0  0
 10 23  1  0  0  0  0
 10 30  1  0  0  0  0
 11 12  1  0  0  0  0
 11 13  1  0  0  0  0
 11 14  1  0  0  0  0
 11 24  1  0  0  0  0
 15 16  2  0  0  0  0
 15 17  1  0  0  0  0
 16 18  1  0  0  0  0
 16 31  1  0  0  0  0
 17 19  2  0  0  0  0
 18 20  2  0  0  0  0
 19 20  1  0  0  0  0
 19 32  1  0  0  0  0
 20 33  1  0  0  0  0
 21 22  2  0  0  0  0
 21 23  1  0  0  0  0
 22 24  1  0  0  0  0
 22 34  1  0  0  0  0
 23 25  2  0  0  0  0
 24 26  2  0  0  0  0
 25 26  1  0  0  0  0
 25 35  1  0  0  0  0
 26 36  1  0  0  0  0
M  END
>  <Mol_ID>
6684

>  <Formula>
C15H10F6N2O3

>  <MolWeight>
380.2419192

>  <Cat>
S5773

>  <Name>
NS1643

>  <Synonyms>
N/A

>  <Target>
Potassium Channel

>  <Form>
Free base

>  <CAS>
448895-37-2

>  <URL>
http://www.selleckchem.com/products/ns1643.html

$$$$
