NS309
 OpenBabel08302521313D

 18 19  0  0  0  0  0  0  0  0999 V2000
    5.6837   -1.2021   -0.0546 O   0  0  0  0  0  0  0  0  0  0  0  0
    4.0542   -3.4443   -0.0559 O   0  0  0  0  0  0  0  0  0  0  0  0
    4.3011    0.6620   -0.0573 N   0  0  0  0  0  0  0  0  0  0  0  0
    2.9082   -2.6496   -0.0561 N   0  0  0  0  0  0  0  0  0  0  0  0
    2.2225   -0.3140   -0.0564 C   0  0  0  0  0  0  0  0  0  0  0  0
    2.9283    0.8854   -0.0575 C   0  0  0  0  0  0  0  0  0  0  0  0
    3.2088   -1.3895   -0.0560 C   0  0  0  0  0  0  0  0  0  0  0  0
    4.5857   -0.6918   -0.0559 C   0  0  0  0  0  0  0  0  0  0  0  0
    0.8431   -0.3646   -0.0563 C   0  0  0  0  0  0  0  0  0  0  0  0
    2.2742    2.0990   -0.0588 C   0  0  0  0  0  0  0  0  0  0  0  0
    0.8734    2.0750   -0.0587 C   0  0  0  0  0  0  0  0  0  0  0  0
    0.1644    0.8555   -0.0573 C   0  0  0  0  0  0  0  0  0  0  0  0
    3.6905   -4.3486   -0.0566 H   0  0  0  0  0  0  0  0  0  0  0  0
    5.0208    1.3690   -0.0575 H   0  0  0  0  0  0  0  0  0  0  0  0
    0.3151   -1.3120   -0.0553 H   0  0  0  0  0  0  0  0  0  0  0  0
    2.8117    3.0406   -0.0599 H   0  0  0  0  0  0  0  0  0  0  0  0
    0.3188    3.0118   -0.0596 H   0  0  0  0  0  0  0  0  0  0  0  0
   -0.9240    0.8661   -0.0570 H   0  0  0  0  0  0  0  0  0  0  0  0
  1  8  2  0  0  0  0
  2  4  1  0  0  0  0
  2 13  1  0  0  0  0
  3  6  1  0  0  0  0
  3  8  1  0  0  0  0
  3 14  1  0  0  0  0
  4  7  2  0  0  0  0
  5  6  2  0  0  0  0
  5  7  1  0  0  0  0
  5  9  1  0  0  0  0
  6 10  1  0  0  0  0
  7  8  1  0  0  0  0
  9 12  2  0  0  0  0
  9 15  1  0  0  0  0
 10 11  2  0  0  0  0
 10 16  1  0  0  0  0
 11 12  1  0  0  0  0
 11 17  1  0  0  0  0
 12 18  1  0  0  0  0
M  END
>  <Mol_ID>
5832

>  <Formula>
C8H4Cl2N2O2

>  <MolWeight>
231.03556

>  <Cat>
E0030

>  <Name>
NS309

>  <Synonyms>
N/A

>  <Target>
Potassium Channel

>  <Form>
Free Base

>  <CAS>
18711-16-5

>  <URL>
http://www.selleckchem.com/products/ns309.html

$$$$
