NS3623
 OpenBabel08302521373D

 36 38  0  0  0  0  0  0  0  0999 V2000
    0.7421   -0.0185    0.0548 N   0  0  0  0  0  0  0  0  0  0  0  0
    0.2565    0.2987    1.3040 C   0  0  0  0  0  0  0  0  0  0  0  0
   -1.1255    0.1576    1.3842 N   0  0  0  0  0  0  0  0  0  0  0  0
    0.9823    0.6864    2.1875 O   0  0  0  0  0  0  0  0  0  0  0  0
    6.6431   -0.1689   -1.5116 Br  0  0  0  0  0  0  0  0  0  0  0  0
   -1.6894    2.0384    5.9717 C   0  0  0  0  0  0  0  0  0  0  0  0
   -0.4666    2.5844    5.7299 F   0  0  0  0  0  0  0  0  0  0  0  0
   -2.5169    3.0864    6.2446 F   0  0  0  0  0  0  0  0  0  0  0  0
   -1.5661    1.3468    7.1382 F   0  0  0  0  0  0  0  0  0  0  0  0
    2.5723    0.7342   -1.3848 C   0  0  0  0  0  0  0  0  0  0  0  0
    2.1062   -0.0563   -0.3140 C   0  0  0  0  0  0  0  0  0  0  0  0
    3.9310    0.6794   -1.7459 C   0  0  0  0  0  0  0  0  0  0  0  0
    2.9865   -0.9458    0.3209 C   0  0  0  0  0  0  0  0  0  0  0  0
    4.8066   -0.1636   -1.0658 C   0  0  0  0  0  0  0  0  0  0  0  0
    4.3382   -0.9972   -0.0549 C   0  0  0  0  0  0  0  0  0  0  0  0
    1.7096    1.6613   -2.1071 C   0  0  0  0  0  0  0  0  0  0  0  0
    0.6353    2.3193   -1.5701 N   0  0  0  0  0  0  0  0  0  0  0  0
    1.8209    2.0603   -3.3591 N   0  0  0  0  0  0  0  0  0  0  0  0
    0.0505    3.0886   -2.4923 N   0  0  0  0  0  0  0  0  0  0  0  0
    0.7840    2.9310   -3.5837 N   0  0  0  0  0  0  0  0  0  0  0  0
   -1.8801    0.3162    2.5728 C   0  0  0  0  0  0  0  0  0  0  0  0
   -1.4149    1.0443    3.6687 C   0  0  0  0  0  0  0  0  0  0  0  0
   -3.1482   -0.2753    2.6415 C   0  0  0  0  0  0  0  0  0  0  0  0
   -2.1916    1.1931    4.8284 C   0  0  0  0  0  0  0  0  0  0  0  0
   -3.9193   -0.1627    3.8011 C   0  0  0  0  0  0  0  0  0  0  0  0
   -3.4432    0.5695    4.8887 C   0  0  0  0  0  0  0  0  0  0  0  0
    0.0600   -0.3128   -0.6293 H   0  0  0  0  0  0  0  0  0  0  0  0
   -1.5844   -0.3472    0.6437 H   0  0  0  0  0  0  0  0  0  0  0  0
    4.3040    1.3202   -2.5443 H   0  0  0  0  0  0  0  0  0  0  0  0
    2.6370   -1.6408    1.0762 H   0  0  0  0  0  0  0  0  0  0  0  0
    5.0096   -1.6914    0.4463 H   0  0  0  0  0  0  0  0  0  0  0  0
    0.2618    2.2821   -0.6300 H   0  0  0  0  0  0  0  0  0  0  0  0
   -0.4456    1.5370    3.6300 H   0  0  0  0  0  0  0  0  0  0  0  0
   -3.5452   -0.8474    1.8064 H   0  0  0  0  0  0  0  0  0  0  0  0
   -4.8923   -0.6456    3.8573 H   0  0  0  0  0  0  0  0  0  0  0  0
   -4.0548    0.6608    5.7849 H   0  0  0  0  0  0  0  0  0  0  0  0
  1  2  1  0  0  0  0
  1 11  1  0  0  0  0
  1 27  1  0  0  0  0
  2  3  1  0  0  0  0
  2  4  2  0  0  0  0
  3 21  1  0  0  0  0
  3 28  1  0  0  0  0
  5 14  1  0  0  0  0
  6  7  1  0  0  0  0
  6  8  1  0  0  0  0
  6  9  1  0  0  0  0
  6 24  1  0  0  0  0
 10 11  1  0  0  0  0
 10 12  2  0  0  0  0
 10 16  1  0  0  0  0
 11 13  2  0  0  0  0
 12 14  1  0  0  0  0
 12 29  1  0  0  0  0
 13 15  1  0  0  0  0
 13 30  1  0  0  0  0
 14 15  2  0  0  0  0
 15 31  1  0  0  0  0
 16 17  1  0  0  0  0
 16 18  2  0  0  0  0
 17 19  1  0  0  0  0
 17 32  1  0  0  0  0
 18 20  1  0  0  0  0
 19 20  2  0  0  0  0
 21 22  2  0  0  0  0
 21 23  1  0  0  0  0
 22 24  1  0  0  0  0
 22 33  1  0  0  0  0
 23 25  2  0  0  0  0
 23 34  1  0  0  0  0
 24 26  2  0  0  0  0
 25 26  1  0  0  0  0
 25 35  1  0  0  0  0
 26 36  1  0  0  0  0
M  END
>  <Mol_ID>
7476

>  <Formula>
C15H10BrF3N6O

>  <MolWeight>
427.1787096

>  <Cat>
E0325

>  <Name>
NS3623

>  <Target>
Potassium Channel

>  <Form>
free base

>  <CAS>
343630-41-1

>  <URL>
https://www.selleckchem.com/products/ns3623.html

$$$$
