NS6180
 OpenBabel08302521323D

 34 36  0  0  0  0  0  0  0  0999 V2000
    0.6369   -1.7799   -0.1122 S   0  0  0  0  0  0  0  0  0  0  0  0
    1.8872   -0.7538    0.6754 C   0  0  0  0  0  0  0  0  0  0  0  0
    1.9846    0.5770   -0.0349 C   0  0  0  0  0  0  0  0  0  0  0  0
    0.8150    1.3419   -0.1139 N   0  0  0  0  0  0  0  0  0  0  0  0
   -0.4881    0.7762    0.1161 C   0  0  0  0  0  0  0  0  0  0  0  0
   -0.7014   -0.6174    0.0643 C   0  0  0  0  0  0  0  0  0  0  0  0
   -1.6015    1.6040    0.3307 C   0  0  0  0  0  0  0  0  0  0  0  0
   -2.8922    1.0737    0.4212 C   0  0  0  0  0  0  0  0  0  0  0  0
   -3.0948   -0.2948    0.2885 C   0  0  0  0  0  0  0  0  0  0  0  0
   -2.0013   -1.1393    0.1185 C   0  0  0  0  0  0  0  0  0  0  0  0
    3.0799    0.9812   -0.4345 O   0  0  0  0  0  0  0  0  0  0  0  0
    0.9133    2.6538   -0.7687 C   0  0  0  0  0  0  0  0  0  0  0  0
    1.1818    3.8196    0.1620 C   0  0  0  0  0  0  0  0  0  0  0  0
    2.3365    3.8579    0.9589 C   0  0  0  0  0  0  0  0  0  0  0  0
    2.6338    4.9688    1.7645 C   0  0  0  0  0  0  0  0  0  0  0  0
    1.7557    6.0624    1.7621 C   0  0  0  0  0  0  0  0  0  0  0  0
    0.6090    6.0441    0.9681 C   0  0  0  0  0  0  0  0  0  0  0  0
    0.3269    4.9314    0.1707 C   0  0  0  0  0  0  0  0  0  0  0  0
    3.8838    5.0035    2.6073 C   0  0  0  0  0  0  0  0  0  0  0  0
    4.6451    3.8781    2.5096 F   0  0  0  0  0  0  0  0  0  0  0  0
    4.7067    6.0391    2.2802 F   0  0  0  0  0  0  0  0  0  0  0  0
    3.6101    5.1507    3.9339 F   0  0  0  0  0  0  0  0  0  0  0  0
    2.8532   -1.2646    0.6187 H   0  0  0  0  0  0  0  0  0  0  0  0
    1.6539   -0.5875    1.7328 H   0  0  0  0  0  0  0  0  0  0  0  0
   -1.4899    2.6763    0.4549 H   0  0  0  0  0  0  0  0  0  0  0  0
   -3.7401    1.7340    0.5873 H   0  0  0  0  0  0  0  0  0  0  0  0
   -4.0998   -0.7072    0.3282 H   0  0  0  0  0  0  0  0  0  0  0  0
   -2.1690   -2.2107    0.0268 H   0  0  0  0  0  0  0  0  0  0  0  0
    1.7233    2.6309   -1.5101 H   0  0  0  0  0  0  0  0  0  0  0  0
    0.0067    2.8319   -1.3617 H   0  0  0  0  0  0  0  0  0  0  0  0
    3.0372    3.0246    0.9378 H   0  0  0  0  0  0  0  0  0  0  0  0
    1.9714    6.9378    2.3691 H   0  0  0  0  0  0  0  0  0  0  0  0
   -0.0589    6.9013    0.9586 H   0  0  0  0  0  0  0  0  0  0  0  0
   -0.5609    4.9501   -0.4581 H   0  0  0  0  0  0  0  0  0  0  0  0
  1  2  1  0  0  0  0
  1  6  1  0  0  0  0
  2  3  1  0  0  0  0
  2 23  1  0  0  0  0
  2 24  1  0  0  0  0
  3  4  1  0  0  0  0
  3 11  2  0  0  0  0
  4  5  1  0  0  0  0
  4 12  1  0  0  0  0
  5  6  2  0  0  0  0
  7  8  2  0  0  0  0
  7  5  1  0  0  0  0
  7 25  1  0  0  0  0
  8  9  1  0  0  0  0
  8 26  1  0  0  0  0
  9 10  2  0  0  0  0
  9 27  1  0  0  0  0
 10  6  1  0  0  0  0
 10 28  1  0  0  0  0
 12 13  1  0  0  0  0
 12 29  1  0  0  0  0
 12 30  1  0  0  0  0
 13 14  2  0  0  0  0
 13 18  1  0  0  0  0
 14 15  1  0  0  0  0
 14 31  1  0  0  0  0
 15 16  2  0  0  0  0
 15 19  1  0  0  0  0
 16 17  1  0  0  0  0
 16 32  1  0  0  0  0
 17 18  2  0  0  0  0
 17 33  1  0  0  0  0
 18 34  1  0  0  0  0
 19 20  1  0  0  0  0
 19 21  1  0  0  0  0
 19 22  1  0  0  0  0
M  END
>  <Mol_ID>
6144

>  <Formula>
C16H12F3NOS

>  <MolWeight>
323.3327896

>  <Cat>
S0090

>  <Name>
NS6180

>  <Synonyms>
N/A

>  <Target>
Potassium Channel

>  <Form>
free base

>  <CAS>
353262-04-1

>  <URL>
http://www.selleckchem.com/products/ns6180.html

$$$$
