NS8593?Hydrochloride
 OpenBabel08302521313D

 37 40  0  0  0  0  0  0  0  0999 V2000
    0.9478   -0.0318    0.0245 N   0  0  0  0  0  0  0  0  0  0  0  0
   -0.8875   -0.7652   -1.2257 N   0  0  0  0  0  0  0  0  0  0  0  0
    0.7345    0.2201   -2.3639 N   0  0  0  0  0  0  0  0  0  0  0  0
    2.4177    0.0477    0.0240 C   0  0  2  0  0  0  0  0  0  0  0  0
    2.9811   -1.3691    0.2353 C   0  0  0  0  0  0  0  0  0  0  0  0
    2.7828   -1.8305    1.6763 C   0  0  0  0  0  0  0  0  0  0  0  0
    2.8631    1.0060    1.1196 C   0  0  0  0  0  0  0  0  0  0  0  0
    3.5525   -0.9230    2.6341 C   0  0  0  0  0  0  0  0  0  0  0  0
    3.3588    0.5466    2.3544 C   0  0  0  0  0  0  0  0  0  0  0  0
    2.7436    2.3896    0.8994 C   0  0  0  0  0  0  0  0  0  0  0  0
    3.7441    1.4763    3.3307 C   0  0  0  0  0  0  0  0  0  0  0  0
    0.3377   -0.1574   -1.1739 C   0  0  0  0  0  0  0  0  0  0  0  0
    3.1243    3.3043    1.8830 C   0  0  0  0  0  0  0  0  0  0  0  0
    3.6272    2.8469    3.0966 C   0  0  0  0  0  0  0  0  0  0  0  0
   -1.3184   -0.7579   -2.5259 C   0  0  0  0  0  0  0  0  0  0  0  0
   -0.2924   -0.1173   -3.2131 C   0  0  0  0  0  0  0  0  0  0  0  0
   -2.4776   -1.2345   -3.1407 C   0  0  0  0  0  0  0  0  0  0  0  0
   -0.4244    0.0935   -4.5936 C   0  0  0  0  0  0  0  0  0  0  0  0
   -2.5899   -1.0161   -4.5191 C   0  0  0  0  0  0  0  0  0  0  0  0
   -1.5856   -0.3583   -5.2348 C   0  0  0  0  0  0  0  0  0  0  0  0
    0.5601    0.7174    0.5957 H   0  0  0  0  0  0  0  0  0  0  0  0
   -1.3590   -1.1690   -0.4331 H   0  0  0  0  0  0  0  0  0  0  0  0
    2.8028    0.4298   -0.9311 H   0  0  0  0  0  0  0  0  0  0  0  0
    4.0546   -1.3757    0.0005 H   0  0  0  0  0  0  0  0  0  0  0  0
    2.5042   -2.0813   -0.4480 H   0  0  0  0  0  0  0  0  0  0  0  0
    1.7169   -1.8188    1.9332 H   0  0  0  0  0  0  0  0  0  0  0  0
    3.1270   -2.8615    1.7949 H   0  0  0  0  0  0  0  0  0  0  0  0
    3.2464   -1.1523    3.6615 H   0  0  0  0  0  0  0  0  0  0  0  0
    4.6262   -1.1430    2.5533 H   0  0  0  0  0  0  0  0  0  0  0  0
    2.3558    2.7590   -0.0476 H   0  0  0  0  0  0  0  0  0  0  0  0
    4.1515    1.1367    4.2799 H   0  0  0  0  0  0  0  0  0  0  0  0
    3.0316    4.3710    1.6986 H   0  0  0  0  0  0  0  0  0  0  0  0
    3.9290    3.5556    3.8630 H   0  0  0  0  0  0  0  0  0  0  0  0
   -3.2578   -1.7423   -2.5848 H   0  0  0  0  0  0  0  0  0  0  0  0
    0.3594    0.6024   -5.1431 H   0  0  0  0  0  0  0  0  0  0  0  0
   -3.4786   -1.3620   -5.0429 H   0  0  0  0  0  0  0  0  0  0  0  0
   -1.7038   -0.1942   -6.3033 H   0  0  0  0  0  0  0  0  0  0  0  0
  1 12  1  0  0  0  0
  1 21  1  0  0  0  0
  2 12  1  0  0  0  0
  2 15  1  0  0  0  0
  2 22  1  0  0  0  0
  3 12  2  0  0  0  0
  3 16  1  0  0  0  0
  4  1  1  0  0  0  0
  4  5  1  0  0  0  0
  4  7  1  0  0  0  0
  4 23  1  6  0  0  0
  5  6  1  0  0  0  0
  5 24  1  0  0  0  0
  5 25  1  0  0  0  0
  6  8  1  0  0  0  0
  6 26  1  0  0  0  0
  6 27  1  0  0  0  0
  7  9  2  0  0  0  0
  7 10  1  0  0  0  0
  8  9  1  0  0  0  0
  8 28  1  0  0  0  0
  8 29  1  0  0  0  0
  9 11  1  0  0  0  0
 10 13  2  0  0  0  0
 10 30  1  0  0  0  0
 11 14  2  0  0  0  0
 11 31  1  0  0  0  0
 13 14  1  0  0  0  0
 13 32  1  0  0  0  0
 14 33  1  0  0  0  0
 15 16  2  0  0  0  0
 15 17  1  0  0  0  0
 16 18  1  0  0  0  0
 17 19  2  0  0  0  0
 17 34  1  0  0  0  0
 18 20  2  0  0  0  0
 18 35  1  0  0  0  0
 19 20  1  0  0  0  0
 19 36  1  0  0  0  0
 20 37  1  0  0  0  0
M  END
>  <Mol_ID>
5886

>  <Formula>
C17H18ClN3

>  <MolWeight>
299.79792

>  <Cat>
S6174

>  <Name>
NS8593?Hydrochloride

>  <Synonyms>
N/A

>  <Target>
Potassium Channel

>  <Form>
Hydrochloride

>  <CAS>
875755-24-1

>  <URL>
http://www.selleckchem.com/products/ns8593-hydrochloride.html

$$$$
