NSC23005 Sodium
 OpenBabel08302520403D

 35 36  0  0  0  0  0  0  0  0999 V2000
   -8.1834    4.5191   -2.3382 C   0  0  0  0  0  0  0  0  0  0  0  0
   -6.6728    4.5789   -2.1857 C   0  0  0  0  0  0  0  0  0  0  0  0
   -5.9617    3.4862   -1.6586 C   0  0  0  0  0  0  0  0  0  0  0  0
   -4.5673    3.5068   -1.5770 C   0  0  0  0  0  0  0  0  0  0  0  0
   -3.8682    4.6237   -2.0375 C   0  0  0  0  0  0  0  0  0  0  0  0
   -4.5559    5.7488   -2.5047 C   0  0  0  0  0  0  0  0  0  0  0  0
   -5.9515    5.7188   -2.5799 C   0  0  0  0  0  0  0  0  0  0  0  0
   -8.7511    5.5422   -2.8391 O   0  0  0  0  0  0  0  0  0  0  0  0
   -8.7602    3.4495   -1.9723 O   0  5  0  0  0  0  0  0  0  0  0  0
   -2.0993    4.6457   -1.9767 S   0  0  0  0  0  0  0  0  0  0  0  0
   -1.7081    5.8525   -1.2777 O   0  0  0  0  0  0  0  0  0  0  0  0
   -1.6244    3.3498   -1.5469 O   0  0  0  0  0  0  0  0  0  0  0  0
   -1.6202    4.8837   -3.5711 N   0  0  0  0  0  0  0  0  0  0  0  0
   -1.8380    3.9257   -4.6742 C   0  0  0  0  0  0  0  0  0  0  0  0
   -1.0573    2.6228   -4.4475 C   0  0  0  0  0  0  0  0  0  0  0  0
   -0.9991    1.7364   -5.6911 C   0  0  0  0  0  0  0  0  0  0  0  0
   -0.4316    2.4855   -6.8879 C   0  0  0  0  0  0  0  0  0  0  0  0
   -1.2733    3.7192   -7.1801 C   0  0  0  0  0  0  0  0  0  0  0  0
   -1.3482    4.6334   -5.9610 C   0  0  0  0  0  0  0  0  0  0  0  0
   -6.5153    2.6113   -1.3186 H   0  0  0  0  0  0  0  0  0  0  0  0
   -4.0472    2.6525   -1.1526 H   0  0  0  0  0  0  0  0  0  0  0  0
   -4.0256    6.6468   -2.8062 H   0  0  0  0  0  0  0  0  0  0  0  0
   -6.4990    6.5844   -2.9531 H   0  0  0  0  0  0  0  0  0  0  0  0
   -1.5645    5.8751   -3.8019 H   0  0  0  0  0  0  0  0  0  0  0  0
   -2.9059    3.7190   -4.7782 H   0  0  0  0  0  0  0  0  0  0  0  0
   -0.0334    2.8552   -4.1267 H   0  0  0  0  0  0  0  0  0  0  0  0
   -1.5186    2.0453   -3.6419 H   0  0  0  0  0  0  0  0  0  0  0  0
   -0.3835    0.8539   -5.4844 H   0  0  0  0  0  0  0  0  0  0  0  0
   -2.0064    1.3736   -5.9317 H   0  0  0  0  0  0  0  0  0  0  0  0
    0.6050    2.7809   -6.6847 H   0  0  0  0  0  0  0  0  0  0  0  0
   -0.4096    1.8303   -7.7665 H   0  0  0  0  0  0  0  0  0  0  0  0
   -0.8406    4.2665   -8.0251 H   0  0  0  0  0  0  0  0  0  0  0  0
   -2.2837    3.4158   -7.4787 H   0  0  0  0  0  0  0  0  0  0  0  0
   -2.0026    5.4849   -6.1867 H   0  0  0  0  0  0  0  0  0  0  0  0
   -0.3483    5.0572   -5.7874 H   0  0  0  0  0  0  0  0  0  0  0  0
  1  2  1  0  0  0  0
  1  8  2  0  0  0  0
  1  9  1  0  0  0  0
  2  3  2  0  0  0  0
  2  7  1  0  0  0  0
  3  4  1  0  0  0  0
  3 20  1  0  0  0  0
  4  5  2  0  0  0  0
  4 21  1  0  0  0  0
  5  6  1  0  0  0  0
  5 10  1  0  0  0  0
  6  7  2  0  0  0  0
  6 22  1  0  0  0  0
  7 23  1  0  0  0  0
 10 11  2  0  0  0  0
 10 12  2  0  0  0  0
 10 13  1  0  0  0  0
 13 14  1  0  0  0  0
 13 24  1  0  0  0  0
 14 15  1  0  0  0  0
 14 19  1  0  0  0  0
 14 25  1  0  0  0  0
 15 16  1  0  0  0  0
 15 26  1  0  0  0  0
 15 27  1  0  0  0  0
 16 17  1  0  0  0  0
 16 28  1  0  0  0  0
 16 29  1  0  0  0  0
 17 18  1  0  0  0  0
 17 30  1  0  0  0  0
 17 31  1  0  0  0  0
 18 19  1  0  0  0  0
 18 32  1  0  0  0  0
 18 33  1  0  0  0  0
 19 34  1  0  0  0  0
 19 35  1  0  0  0  0
M  CHG  1   9  -1
M  END
>  <Mol_ID>
3838

>  <Formula>
C13H16NNaO4S

>  <MolWeight>
305.32521

>  <Cat>
S6566

>  <Name>
NSC23005 Sodium

>  <Synonyms>
N/A

>  <Target>
Others

>  <Form>
Sodium

>  <CAS>
1796596-46-7

>  <URL>
http://www.selleck.cn/products/nsc23005-sodium.html

$$$$
