NSC228155.cdx
 OpenBabel08302520433D

 26 28  0  0  0  0  0  0  0  0999 V2000
   -2.1537   -0.7075    0.0577 C   0  0  0  0  0  0  0  0  0  0  0  0
   -2.1589    0.7098    0.0719 C   0  0  0  0  0  0  0  0  0  0  0  0
   -0.9569    1.4336    0.0544 C   0  0  0  0  0  0  0  0  0  0  0  0
    0.2496    0.7190    0.0169 C   0  0  0  0  0  0  0  0  0  0  0  0
    0.2393   -0.7454    0.0078 C   0  0  0  0  0  0  0  0  0  0  0  0
   -0.9701   -1.4853    0.0306 C   0  0  0  0  0  0  0  0  0  0  0  0
    1.5251    1.1248   -0.0403 N   0  0  0  0  0  0  0  0  0  0  0  0
    2.2926   -0.0234   -0.0684 O   0  0  0  0  0  0  0  0  0  0  0  0
    1.5125   -1.1635   -0.0388 N   0  0  0  0  0  0  0  0  0  0  0  0
   -0.9338    2.8667    0.0332 N   0  3  0  0  0  0  0  0  0  0  0  0
   -1.5546    3.4188   -0.8827 O   0  0  0  0  0  0  0  0  0  0  0  0
   -0.3456    3.4396    0.9587 O   0  5  0  0  0  0  0  0  0  0  0  0
   -0.9541   -3.2409   -0.1156 S   0  0  0  0  0  0  0  0  0  0  0  0
   -0.8819   -3.7825    1.5901 C   0  0  0  0  0  0  0  0  0  0  0  0
    0.2080   -4.5755    1.9962 C   0  0  0  0  0  0  0  0  0  0  0  0
    0.2603   -5.1068    3.2836 C   0  0  0  0  0  0  0  0  0  0  0  0
   -0.7690   -4.8538    4.1788 C   0  0  0  0  0  0  0  0  0  0  0  0
   -1.8390   -4.0605    3.7753 C   0  0  0  0  0  0  0  0  0  0  0  0
   -1.9189   -3.5216    2.4955 N   0  3  0  0  0  0  0  0  0  0  0  0
   -2.9403   -2.8174    2.1936 O   0  5  0  0  0  0  0  0  0  0  0  0
   -3.1175   -1.2233    0.0765 H   0  0  0  0  0  0  0  0  0  0  0  0
   -3.1144    1.2342    0.0942 H   0  0  0  0  0  0  0  0  0  0  0  0
    1.0161   -4.7937    1.2996 H   0  0  0  0  0  0  0  0  0  0  0  0
    1.1014   -5.7304    3.5826 H   0  0  0  0  0  0  0  0  0  0  0  0
   -0.7486   -5.2728    5.1813 H   0  0  0  0  0  0  0  0  0  0  0  0
   -2.6885   -3.8122    4.3943 H   0  0  0  0  0  0  0  0  0  0  0  0
  1  2  1  0  0  0  0
  1 21  1  0  0  0  0
  2  3  2  0  0  0  0
  2 22  1  0  0  0  0
  3 10  1  0  0  0  0
  4  5  1  0  0  0  0
  4  7  2  0  0  0  0
  4  3  1  0  0  0  0
  6  1  2  0  0  0  0
  6 13  1  0  0  0  0
  6  5  1  0  0  0  0
  7  8  1  0  0  0  0
  8  9  1  0  0  0  0
  9  5  2  0  0  0  0
 10 11  2  0  0  0  0
 10 12  1  0  0  0  0
 13 14  1  0  0  0  0
 14 15  2  0  0  0  0
 15 16  1  0  0  0  0
 15 23  1  0  0  0  0
 16 17  2  0  0  0  0
 16 24  1  0  0  0  0
 17 18  1  0  0  0  0
 17 25  1  0  0  0  0
 18 19  2  0  0  0  0
 18 26  1  0  0  0  0
 19 14  1  0  0  0  0
 19 20  1  0  0  0  0
M  CHG  4  10   1  12  -1  19   1  20  -1
M  END
>  <Mol_ID>
4066

>  <Formula>
C11H6N4O4S

>  <MolWeight>
290.25474

>  <Cat>
S8312

>  <Name>
NSC228155

>  <Synonyms>
N/A

>  <Target>
EGFR

>  <Form>
free base

>  <CAS>
113104-25-9

>  <URL>
http://selleckchem.com/products/nsc228155.html

$$$$
