NSC232003
 OpenBabel08302521453D

 19 19  0  0  0  0  0  0  0  0999 V2000
   -1.1428    0.9545   -0.0631 C   0  0  0  0  0  0  0  0  0  0  0  0
    0.1618    1.3564   -0.0603 N   0  0  0  0  0  0  0  0  0  0  0  0
    1.2604    0.5666    0.1222 C   0  0  0  0  0  0  0  0  0  0  0  0
    0.9930   -0.9013    0.0337 C   0  0  0  0  0  0  0  0  0  0  0  0
   -0.4492   -1.2290   -0.0812 C   0  0  0  0  0  0  0  0  0  0  0  0
   -1.4189   -0.3789   -0.1178 N   0  0  0  0  0  0  0  0  0  0  0  0
   -2.0231    1.8075    0.0049 O   0  0  0  0  0  0  0  0  0  0  0  0
    2.3473    1.0790    0.3722 O   0  0  0  0  0  0  0  0  0  0  0  0
    1.9560   -1.8641    0.0782 C   0  0  0  0  0  0  0  0  0  0  0  0
    1.6492   -3.3562    0.0288 C   0  0  0  0  0  0  0  0  0  0  0  0
    3.3363   -1.6567    0.2010 N   0  0  0  0  0  0  0  0  0  0  0  0
    3.9429   -0.6195   -0.5048 O   0  0  0  0  0  0  0  0  0  0  0  0
    0.2976    2.3516    0.0393 H   0  0  0  0  0  0  0  0  0  0  0  0
   -0.7402   -2.2839   -0.1315 H   0  0  0  0  0  0  0  0  0  0  0  0
    2.1014   -3.7924   -0.8696 H   0  0  0  0  0  0  0  0  0  0  0  0
    2.0890   -3.8510    0.9036 H   0  0  0  0  0  0  0  0  0  0  0  0
    0.5982   -3.6308    0.0198 H   0  0  0  0  0  0  0  0  0  0  0  0
    3.8826   -2.5171    0.0968 H   0  0  0  0  0  0  0  0  0  0  0  0
    3.7084    0.1816    0.0193 H   0  0  0  0  0  0  0  0  0  0  0  0
  1  2  1  0  0  0  0
  1  6  1  0  0  0  0
  1  7  2  0  0  0  0
  2  3  1  0  0  0  0
  2 13  1  0  0  0  0
  3  4  1  0  0  0  0
  3  8  2  0  0  0  0
  4  5  1  0  0  0  0
  4  9  2  3  0  0  0
  5  6  2  0  0  0  0
  5 14  1  0  0  0  0
  9 10  1  0  0  0  0
  9 11  1  0  0  0  0
 10 15  1  0  0  0  0
 10 16  1  0  0  0  0
 10 17  1  0  0  0  0
 11 12  1  0  0  0  0
 11 18  1  0  0  0  0
 12 19  1  0  0  0  0
M  END
>  <Mol_ID>
9400

>  <Formula>
C6H7N3O3

>  <MolWeight>
169.13808

>  <Cat>
E0351

>  <Name>
NSC232003

>  <Synonyms>
N/A

>  <Target>
E3 Ligase

>  <Form>
Free Base

>  <CAS>
1905453-18-0

>  <URL>
http://www.selleckchem.com/products/nsc232003.html

$$$$
