NSC59984.cdx
 OpenBabel08302520413D

 34 35  0  0  0  0  0  0  0  0999 V2000
    0.2911   -1.1831    0.2520 C   0  0  0  0  0  0  0  0  0  0  0  0
    0.9893    0.0062   -0.2813 N   0  0  0  0  0  0  0  0  0  0  0  0
    0.3415    1.2287    0.2345 C   0  0  0  0  0  0  0  0  0  0  0  0
   -1.1587    1.2879   -0.1259 C   0  0  0  0  0  0  0  0  0  0  0  0
   -1.8643    0.0719    0.2967 N   0  0  0  0  0  0  0  0  0  0  0  0
   -1.2085   -1.1768   -0.0994 C   0  0  0  0  0  0  0  0  0  0  0  0
    2.4067   -0.0231    0.0751 C   0  0  0  0  0  0  0  0  0  0  0  0
   -3.1257    0.0186    0.8547 C   0  0  0  0  0  0  0  0  0  0  0  0
   -3.8475    1.3024    0.9814 C   0  0  0  0  0  0  0  0  0  0  0  0
   -3.6665   -1.0155    1.2368 O   0  0  0  0  0  0  0  0  0  0  0  0
   -4.3218    1.6735    2.1796 C   0  0  0  0  0  0  0  0  0  0  0  0
   -5.0656    2.8772    2.3201 C   0  0  0  0  0  0  0  0  0  0  0  0
   -5.6030    3.4453    3.4740 C   0  0  0  0  0  0  0  0  0  0  0  0
   -6.2825    4.6371    3.1117 C   0  0  0  0  0  0  0  0  0  0  0  0
   -6.1198    4.7352    1.7554 C   0  0  0  0  0  0  0  0  0  0  0  0
   -5.3916    3.7041    1.2631 O   0  0  0  0  0  0  0  0  0  0  0  0
   -6.5725    5.7057    0.8069 N   0  3  0  0  0  0  0  0  0  0  0  0
   -7.2492    6.6369    1.2594 O   0  0  0  0  0  0  0  0  0  0  0  0
   -6.2551    5.5467   -0.3799 O   0  5  0  0  0  0  0  0  0  0  0  0
    0.7399   -2.0930   -0.1641 H   0  0  0  0  0  0  0  0  0  0  0  0
    0.4014   -1.2299    1.3438 H   0  0  0  0  0  0  0  0  0  0  0  0
    0.4468    1.2797    1.3266 H   0  0  0  0  0  0  0  0  0  0  0  0
    0.8325    2.1148   -0.1852 H   0  0  0  0  0  0  0  0  0  0  0  0
   -1.2838    1.3729   -1.2120 H   0  0  0  0  0  0  0  0  0  0  0  0
   -1.5981    2.1781    0.3319 H   0  0  0  0  0  0  0  0  0  0  0  0
   -1.3362   -1.2707   -1.1853 H   0  0  0  0  0  0  0  0  0  0  0  0
   -1.6975   -2.0414    0.3607 H   0  0  0  0  0  0  0  0  0  0  0  0
    2.9259    0.8446   -0.3469 H   0  0  0  0  0  0  0  0  0  0  0  0
    2.5650   -0.0255    1.1595 H   0  0  0  0  0  0  0  0  0  0  0  0
    2.8893   -0.9122   -0.3457 H   0  0  0  0  0  0  0  0  0  0  0  0
   -3.9992    1.8735    0.0732 H   0  0  0  0  0  0  0  0  0  0  0  0
   -4.1512    1.0549    3.0567 H   0  0  0  0  0  0  0  0  0  0  0  0
   -5.5169    3.0317    4.4725 H   0  0  0  0  0  0  0  0  0  0  0  0
   -6.8190    5.3248    3.7516 H   0  0  0  0  0  0  0  0  0  0  0  0
  1  2  1  0  0  0  0
  1 20  1  0  0  0  0
  1 21  1  0  0  0  0
  2  3  1  0  0  0  0
  2  7  1  0  0  0  0
  3  4  1  0  0  0  0
  3 22  1  0  0  0  0
  3 23  1  0  0  0  0
  4  5  1  0  0  0  0
  4 24  1  0  0  0  0
  4 25  1  0  0  0  0
  5  6  1  0  0  0  0
  5  8  1  0  0  0  0
  6  1  1  0  0  0  0
  6 26  1  0  0  0  0
  6 27  1  0  0  0  0
  7 28  1  0  0  0  0
  7 29  1  0  0  0  0
  7 30  1  0  0  0  0
  8  9  1  0  0  0  0
  8 10  2  0  0  0  0
  9 11  2  0  0  0  0
  9 31  1  0  0  0  0
 11 12  1  0  0  0  0
 11 32  1  0  0  0  0
 12 13  2  0  0  0  0
 13 14  1  0  0  0  0
 13 33  1  0  0  0  0
 14 15  2  0  0  0  0
 14 34  1  0  0  0  0
 15 16  1  0  0  0  0
 15 17  1  0  0  0  0
 16 12  1  0  0  0  0
 17 18  2  0  0  0  0
 17 19  1  0  0  0  0
M  CHG  2  17   1  19  -1
M  END
>  <Mol_ID>
3910

>  <Formula>
C12H15N3O4

>  <MolWeight>
265.2652

>  <Cat>
S8106

>  <Name>
NSC59984

>  <Synonyms>
N/A

>  <Target>
p53

>  <Form>
free base

>  <CAS>
803647-40-7

>  <URL>
http://selleckchem.com/products/nsc59984.html

$$$$
