NSC697923.cdx
 OpenBabel08302519583D

 27 28  0  0  0  0  0  0  0  0999 V2000
   -1.1519   -1.1790    0.0301 C   0  0  0  0  0  0  0  0  0  0  0  0
   -1.8356    0.0376    0.0053 C   0  0  0  0  0  0  0  0  0  0  0  0
   -1.1381    1.2478   -0.0216 C   0  0  0  0  0  0  0  0  0  0  0  0
    0.2580    1.2370   -0.0159 C   0  0  0  0  0  0  0  0  0  0  0  0
    0.9588    0.0238   -0.0013 C   0  0  0  0  0  0  0  0  0  0  0  0
    0.2438   -1.1818    0.0233 C   0  0  0  0  0  0  0  0  0  0  0  0
   -3.6019    0.0462   -0.0486 S   0  0  0  0  0  0  0  0  0  0  0  0
   -4.1547    0.1032    1.6586 C   0  0  0  0  0  0  0  0  0  0  0  0
   -5.3098    0.6666    2.1980 C   0  0  0  0  0  0  0  0  0  0  0  0
   -5.2682    0.5048    3.6020 C   0  0  0  0  0  0  0  0  0  0  0  0
   -4.1115   -0.1886    3.8473 C   0  0  0  0  0  0  0  0  0  0  0  0
   -3.4221   -0.4432    2.7023 O   0  0  0  0  0  0  0  0  0  0  0  0
   -3.5408   -0.6556    5.0742 N   0  3  0  0  0  0  0  0  0  0  0  0
   -4.1773   -0.4018    6.1046 O   0  0  0  0  0  0  0  0  0  0  0  0
   -2.4663   -1.2694    5.0137 O   0  5  0  0  0  0  0  0  0  0  0  0
    2.4599    0.0012   -0.0155 C   0  0  0  0  0  0  0  0  0  0  0  0
   -4.0432    1.3114   -0.6092 O   0  0  0  0  0  0  0  0  0  0  0  0
   -4.0782   -1.2237   -0.5577 O   0  0  0  0  0  0  0  0  0  0  0  0
   -1.6895   -2.1244    0.0621 H   0  0  0  0  0  0  0  0  0  0  0  0
   -1.6650    2.1998   -0.0430 H   0  0  0  0  0  0  0  0  0  0  0  0
    0.7968    2.1826   -0.0238 H   0  0  0  0  0  0  0  0  0  0  0  0
    0.7751   -2.1318    0.0407 H   0  0  0  0  0  0  0  0  0  0  0  0
   -6.0777    1.1585    1.6132 H   0  0  0  0  0  0  0  0  0  0  0  0
   -5.9870    0.8437    4.3354 H   0  0  0  0  0  0  0  0  0  0  0  0
    2.8377   -0.5280    0.8650 H   0  0  0  0  0  0  0  0  0  0  0  0
    2.8217   -0.4994   -0.9195 H   0  0  0  0  0  0  0  0  0  0  0  0
    2.8766    1.0137   -0.0025 H   0  0  0  0  0  0  0  0  0  0  0  0
  1  2  2  0  0  0  0
  1 19  1  0  0  0  0
  2  3  1  0  0  0  0
  2  7  1  0  0  0  0
  3  4  2  0  0  0  0
  3 20  1  0  0  0  0
  4  5  1  0  0  0  0
  4 21  1  0  0  0  0
  5  6  2  0  0  0  0
  5 16  1  0  0  0  0
  6  1  1  0  0  0  0
  6 22  1  0  0  0  0
  7  8  1  0  0  0  0
  7 17  2  0  0  0  0
  7 18  2  0  0  0  0
  8  9  2  0  0  0  0
  9 10  1  0  0  0  0
  9 23  1  0  0  0  0
 10 11  2  0  0  0  0
 10 24  1  0  0  0  0
 11 12  1  0  0  0  0
 11 13  1  0  0  0  0
 12  8  1  0  0  0  0
 13 14  2  0  0  0  0
 13 15  1  0  0  0  0
 16 25  1  0  0  0  0
 16 26  1  0  0  0  0
 16 27  1  0  0  0  0
M  CHG  2  13   1  15  -1
M  END
>  <Mol_ID>
2367

>  <Formula>
C11H9NO5S

>  <MolWeight>
267.25786

>  <Cat>
S7142

>  <Name>
NSC697923

>  <Synonyms>
N/A

>  <Target>
E2 conjugating

>  <Form>
free base

>  <CAS>
343351-67-7

>  <URL>
http://selleckchem.com/products/nsc697923.html

$$$$
