NSC 42834
 OpenBabel08302520403D

 50 52  0  0  0  0  0  0  0  0999 V2000
    1.1188   -0.1088    0.0292 C   0  0  0  0  0  0  0  0  0  0  0  0
    0.2423   -1.3962   -0.0318 C   0  0  0  0  0  0  0  0  0  0  0  0
   -0.8311   -1.4302    1.0971 C   0  0  0  0  0  0  0  0  0  0  0  0
   -1.7005   -0.1736    1.2419 C   0  0  0  0  0  0  0  0  0  0  0  0
    0.9640    0.7894   -0.8070 O   0  0  0  0  0  0  0  0  0  0  0  0
   -0.5016   -1.4329   -1.4242 C   0  0  0  0  0  0  0  0  0  0  0  0
    0.4052   -1.5280   -2.6679 C   0  0  0  0  0  0  0  0  0  0  0  0
   -0.3552   -1.5081   -3.9764 C   0  0  0  0  0  0  0  0  0  0  0  0
   -0.7288   -0.3012   -4.5655 C   0  0  0  0  0  0  0  0  0  0  0  0
   -1.3350   -0.3216   -5.8225 C   0  0  0  0  0  0  0  0  0  0  0  0
   -1.5596   -1.5399   -6.4505 C   0  0  0  0  0  0  0  0  0  0  0  0
   -1.1775   -2.6932   -5.7873 C   0  0  0  0  0  0  0  0  0  0  0  0
   -0.5889   -2.7049   -4.5692 N   0  0  0  0  0  0  0  0  0  0  0  0
   -2.5103   -0.1601    2.5230 C   0  0  0  0  0  0  0  0  0  0  0  0
   -3.7917    0.3870    2.5321 C   0  0  0  0  0  0  0  0  0  0  0  0
   -4.4666    0.5103    3.7448 C   0  0  0  0  0  0  0  0  0  0  0  0
   -3.8516    0.0839    4.9144 C   0  0  0  0  0  0  0  0  0  0  0  0
   -2.5828   -0.4589    4.8202 C   0  0  0  0  0  0  0  0  0  0  0  0
   -1.8986   -0.5783    3.6601 N   0  0  0  0  0  0  0  0  0  0  0  0
    2.1674    0.1578    1.0692 C   0  0  0  0  0  0  0  0  0  0  0  0
    3.2818    0.9205    0.6723 C   0  0  0  0  0  0  0  0  0  0  0  0
    4.2410    1.3408    1.5992 C   0  0  0  0  0  0  0  0  0  0  0  0
    4.0974    1.0068    2.9418 C   0  0  0  0  0  0  0  0  0  0  0  0
    3.0039    0.2469    3.3478 C   0  0  0  0  0  0  0  0  0  0  0  0
    2.0424   -0.1772    2.4198 C   0  0  0  0  0  0  0  0  0  0  0  0
    1.0918   -2.6741    0.1157 C   0  0  0  0  0  0  0  0  0  0  0  0
   -1.4966   -2.2908    0.9386 H   0  0  0  0  0  0  0  0  0  0  0  0
   -0.3436   -1.6572    2.0472 H   0  0  0  0  0  0  0  0  0  0  0  0
   -1.0875    0.7336    1.2461 H   0  0  0  0  0  0  0  0  0  0  0  0
   -2.3781   -0.1107    0.3829 H   0  0  0  0  0  0  0  0  0  0  0  0
   -1.1937   -2.2863   -1.4372 H   0  0  0  0  0  0  0  0  0  0  0  0
   -1.1299   -0.5380   -1.5227 H   0  0  0  0  0  0  0  0  0  0  0  0
    1.1398   -0.7170   -2.6954 H   0  0  0  0  0  0  0  0  0  0  0  0
    0.9850   -2.4570   -2.6378 H   0  0  0  0  0  0  0  0  0  0  0  0
   -0.5275    0.6431   -4.0702 H   0  0  0  0  0  0  0  0  0  0  0  0
   -1.6209    0.6069   -6.3089 H   0  0  0  0  0  0  0  0  0  0  0  0
   -2.0159   -1.5910   -7.4337 H   0  0  0  0  0  0  0  0  0  0  0  0
   -1.3270   -3.6706   -6.2364 H   0  0  0  0  0  0  0  0  0  0  0  0
   -4.2567    0.7330    1.6146 H   0  0  0  0  0  0  0  0  0  0  0  0
   -5.4596    0.9497    3.7766 H   0  0  0  0  0  0  0  0  0  0  0  0
   -4.3445    0.1791    5.8752 H   0  0  0  0  0  0  0  0  0  0  0  0
   -2.0611   -0.8143    5.7042 H   0  0  0  0  0  0  0  0  0  0  0  0
    3.3934    1.2230   -0.3680 H   0  0  0  0  0  0  0  0  0  0  0  0
    5.0818    1.9494    1.2761 H   0  0  0  0  0  0  0  0  0  0  0  0
    4.8222    1.3574    3.6731 H   0  0  0  0  0  0  0  0  0  0  0  0
    2.8763    0.0049    4.4020 H   0  0  0  0  0  0  0  0  0  0  0  0
    1.1888   -0.7135    2.8090 H   0  0  0  0  0  0  0  0  0  0  0  0
    1.8815   -2.7416   -0.6374 H   0  0  0  0  0  0  0  0  0  0  0  0
    1.5808   -2.7297    1.0936 H   0  0  0  0  0  0  0  0  0  0  0  0
    0.4596   -3.5670    0.0242 H   0  0  0  0  0  0  0  0  0  0  0  0
  1  2  1  0  0  0  0
  1  5  2  0  0  0  0
  1 20  1  0  0  0  0
  2  3  1  0  0  0  0
  2  6  1  0  0  0  0
  2 26  1  0  0  0  0
  3  4  1  0  0  0  0
  3 27  1  0  0  0  0
  3 28  1  0  0  0  0
  4 14  1  0  0  0  0
  4 29  1  0  0  0  0
  4 30  1  0  0  0  0
  6  7  1  0  0  0  0
  6 31  1  0  0  0  0
  6 32  1  0  0  0  0
  7  8  1  0  0  0  0
  7 33  1  0  0  0  0
  7 34  1  0  0  0  0
  8  9  2  0  0  0  0
  8 13  1  0  0  0  0
  9 10  1  0  0  0  0
  9 35  1  0  0  0  0
 10 11  2  0  0  0  0
 10 36  1  0  0  0  0
 11 12  1  0  0  0  0
 11 37  1  0  0  0  0
 12 13  2  0  0  0  0
 12 38  1  0  0  0  0
 14 15  2  0  0  0  0
 14 19  1  0  0  0  0
 15 16  1  0  0  0  0
 15 39  1  0  0  0  0
 16 17  2  0  0  0  0
 16 40  1  0  0  0  0
 17 18  1  0  0  0  0
 17 41  1  0  0  0  0
 18 19  2  0  0  0  0
 18 42  1  0  0  0  0
 20 21  2  0  0  0  0
 20 25  1  0  0  0  0
 21 22  1  0  0  0  0
 21 43  1  0  0  0  0
 22 23  2  0  0  0  0
 22 44  1  0  0  0  0
 23 24  1  0  0  0  0
 23 45  1  0  0  0  0
 24 25  2  0  0  0  0
 24 46  1  0  0  0  0
 25 47  1  0  0  0  0
 26 48  1  0  0  0  0
 26 49  1  0  0  0  0
 26 50  1  0  0  0  0
M  END
>  <Mol_ID>
3819

>  <Formula>
C23H24N2O

>  <MolWeight>
344.44946

>  <Cat>
S6524

>  <Name>
NSC 42834

>  <Synonyms>
JAK2 Inhibitor V, Z3

>  <Target>
JAK

>  <Form>
free base

>  <CAS>
195371-52-9

>  <URL>
http://www.selleck.cn/products/nsc-42834.html

$$$$
