NU1025.cdx
 OpenBabel08302519593D

 21 22  0  0  0  0  0  0  0  0999 V2000
    0.0480   -0.7102    0.0454 C   0  0  0  0  0  0  0  0  0  0  0  0
   -0.0241    0.6859    0.0280 C   0  0  0  0  0  0  0  0  0  0  0  0
   -1.2502    1.3611   -0.0045 C   0  0  0  0  0  0  0  0  0  0  0  0
   -2.4358    0.6293   -0.0230 C   0  0  0  0  0  0  0  0  0  0  0  0
   -2.3933   -0.7651    0.0168 C   0  0  0  0  0  0  0  0  0  0  0  0
   -1.1601   -1.4238    0.0602 C   0  0  0  0  0  0  0  0  0  0  0  0
    1.2830   -1.3924    0.0203 N   0  0  0  0  0  0  0  0  0  0  0  0
    2.3669   -0.6931   -0.0263 C   0  0  0  0  0  0  0  0  0  0  0  0
    2.3842    0.6736   -0.0179 N   0  0  0  0  0  0  0  0  0  0  0  0
    1.2443    1.4336    0.0308 C   0  0  0  0  0  0  0  0  0  0  0  0
    1.2819    2.6572    0.0710 O   0  0  0  0  0  0  0  0  0  0  0  0
    3.7032   -1.3724   -0.1102 C   0  0  0  0  0  0  0  0  0  0  0  0
   -1.1287   -2.7932    0.1118 O   0  0  0  0  0  0  0  0  0  0  0  0
   -1.2778    2.4482   -0.0286 H   0  0  0  0  0  0  0  0  0  0  0  0
   -3.3921    1.1456   -0.0703 H   0  0  0  0  0  0  0  0  0  0  0  0
   -3.3247   -1.3231    0.0007 H   0  0  0  0  0  0  0  0  0  0  0  0
    3.2518    1.1863   -0.0275 H   0  0  0  0  0  0  0  0  0  0  0  0
    3.8382   -2.0186    0.7614 H   0  0  0  0  0  0  0  0  0  0  0  0
    3.7300   -1.9913   -1.0129 H   0  0  0  0  0  0  0  0  0  0  0  0
    4.5230   -0.6512   -0.1532 H   0  0  0  0  0  0  0  0  0  0  0  0
   -2.0265   -3.1290    0.2549 H   0  0  0  0  0  0  0  0  0  0  0  0
  1  2  1  0  0  0  0
  1  7  1  0  0  0  0
  2  3  2  0  0  0  0
  3  4  1  0  0  0  0
  3 14  1  0  0  0  0
  4  5  2  0  0  0  0
  4 15  1  0  0  0  0
  5  6  1  0  0  0  0
  5 16  1  0  0  0  0
  6  1  2  0  0  0  0
  6 13  1  0  0  0  0
  7  8  2  0  0  0  0
  8  9  1  0  0  0  0
  8 12  1  0  0  0  0
  9 10  1  0  0  0  0
  9 17  1  0  0  0  0
 10  2  1  0  0  0  0
 10 11  2  0  0  0  0
 12 18  1  0  0  0  0
 12 19  1  0  0  0  0
 12 20  1  0  0  0  0
 13 21  1  0  0  0  0
M  END
>  <Mol_ID>
2584

>  <Formula>
C9H8N2O2

>  <MolWeight>
176.17202

>  <Cat>
S7730

>  <Name>
NU1025

>  <Synonyms>
NSC 696807

>  <Target>
PARP

>  <Form>
free base

>  <CAS>
90417-38-2

>  <URL>
http://selleckchem.com/products/nu1025.html

$$$$
