NU6027.cdx
 OpenBabel08302519513D

 35 36  0  0  0  0  0  0  0  0999 V2000
   -0.0778   -1.3733   -0.0897 C   0  0  0  0  0  0  0  0  0  0  0  0
   -0.7203   -1.0707   -1.4449 C   0  0  0  0  0  0  0  0  0  0  0  0
   -0.9052    0.4252   -1.6841 C   0  0  0  0  0  0  0  0  0  0  0  0
    0.3986    1.1865   -1.4607 C   0  0  0  0  0  0  0  0  0  0  0  0
    0.8852    0.9625   -0.0243 C   0  0  0  0  0  0  0  0  0  0  0  0
    1.1769   -0.5330    0.1778 C   0  0  0  0  0  0  0  0  0  0  0  0
    2.0661    1.8740    0.3369 C   0  0  0  0  0  0  0  0  0  0  0  0
    3.1655    1.7028   -0.5591 O   0  0  0  0  0  0  0  0  0  0  0  0
    4.2963    2.4147   -0.1619 C   0  0  0  0  0  0  0  0  0  0  0  0
    4.1357    3.3800    0.7766 N   0  0  0  0  0  0  0  0  0  0  0  0
    5.2392    3.9933    1.1981 C   0  0  0  0  0  0  0  0  0  0  0  0
    6.4702    3.6922    0.7902 N   0  0  0  0  0  0  0  0  0  0  0  0
    6.6016    2.7345   -0.1542 C   0  0  0  0  0  0  0  0  0  0  0  0
    5.5133    2.0740   -0.7371 C   0  0  0  0  0  0  0  0  0  0  0  0
    5.0937    5.0488    2.0740 N   0  0  0  0  0  0  0  0  0  0  0  0
    5.5615    1.1659   -1.7822 N   0  0  0  0  0  0  0  0  0  0  0  0
    7.9331    2.5205   -0.5372 N   0  0  0  0  0  0  0  0  0  0  0  0
    6.6510    0.6057   -1.9409 O   0  0  0  0  0  0  0  0  0  0  0  0
   -0.8116   -1.1807    0.7028 H   0  0  0  0  0  0  0  0  0  0  0  0
    0.1710   -2.4391   -0.0341 H   0  0  0  0  0  0  0  0  0  0  0  0
   -0.0937   -1.4879   -2.2425 H   0  0  0  0  0  0  0  0  0  0  0  0
   -1.6924   -1.5735   -1.5093 H   0  0  0  0  0  0  0  0  0  0  0  0
   -1.2691    0.5980   -2.7026 H   0  0  0  0  0  0  0  0  0  0  0  0
   -1.6721    0.8129   -1.0013 H   0  0  0  0  0  0  0  0  0  0  0  0
    1.1527    0.8404   -2.1798 H   0  0  0  0  0  0  0  0  0  0  0  0
    0.2385    2.2535   -1.6489 H   0  0  0  0  0  0  0  0  0  0  0  0
    0.0716    1.2357    0.6623 H   0  0  0  0  0  0  0  0  0  0  0  0
    1.5153   -0.7174    1.2043 H   0  0  0  0  0  0  0  0  0  0  0  0
    1.9842   -0.8608   -0.4886 H   0  0  0  0  0  0  0  0  0  0  0  0
    1.7190    2.9142    0.2851 H   0  0  0  0  0  0  0  0  0  0  0  0
    2.3751    1.6509    1.3668 H   0  0  0  0  0  0  0  0  0  0  0  0
    5.9008    5.6563    2.0093 H   0  0  0  0  0  0  0  0  0  0  0  0
    4.1916    5.4812    1.9378 H   0  0  0  0  0  0  0  0  0  0  0  0
    8.5425    2.9963    0.1228 H   0  0  0  0  0  0  0  0  0  0  0  0
    8.1442    1.5307   -0.6395 H   0  0  0  0  0  0  0  0  0  0  0  0
  1  2  1  0  0  0  0
  1 19  1  0  0  0  0
  1 20  1  0  0  0  0
  2  3  1  0  0  0  0
  2 21  1  0  0  0  0
  2 22  1  0  0  0  0
  3  4  1  0  0  0  0
  3 23  1  0  0  0  0
  3 24  1  0  0  0  0
  4  5  1  0  0  0  0
  4 25  1  0  0  0  0
  4 26  1  0  0  0  0
  5  6  1  0  0  0  0
  5  7  1  0  0  0  0
  5 27  1  0  0  0  0
  6  1  1  0  0  0  0
  6 28  1  0  0  0  0
  6 29  1  0  0  0  0
  7  8  1  0  0  0  0
  7 30  1  0  0  0  0
  7 31  1  0  0  0  0
  8  9  1  0  0  0  0
  9 10  2  0  0  0  0
 10 11  1  0  0  0  0
 11 12  2  0  0  0  0
 11 15  1  0  0  0  0
 12 13  1  0  0  0  0
 13 14  2  0  0  0  0
 13 17  1  0  0  0  0
 14  9  1  0  0  0  0
 14 16  1  0  0  0  0
 15 32  1  0  0  0  0
 15 33  1  0  0  0  0
 16 18  2  0  0  0  0
 17 34  1  0  0  0  0
 17 35  1  0  0  0  0
M  END
>  <Mol_ID>
1889

>  <Formula>
C11H17N5O2

>  <MolWeight>
251.28498

>  <Cat>
S7114

>  <Name>
NU6027

>  <Synonyms>
N/A

>  <Target>
CDK

>  <Form>
free base

>  <CAS>
220036-08-8

>  <URL>
http://selleckchem.com/products/nu6027.html

$$$$
