NU7026.cdx
 OpenBabel08302521393D

 36 39  0  0  0  0  0  0  0  0999 V2000
    2.8824   -1.4965    0.0328 C   0  0  0  0  0  0  0  0  0  0  0  0
    0.7796   -0.3410   -0.0819 C   0  0  0  0  0  0  0  0  0  0  0  0
    1.4921   -1.5238   -0.0993 O   0  0  0  0  0  0  0  0  0  0  0  0
    3.5740   -0.3472    0.0240 C   0  0  0  0  0  0  0  0  0  0  0  0
    1.4220    0.8966   -0.0828 C   0  0  0  0  0  0  0  0  0  0  0  0
    2.8855    0.9391   -0.0849 C   0  0  0  0  0  0  0  0  0  0  0  0
    3.5009   -2.7360    0.1765 N   0  0  0  0  0  0  0  0  0  0  0  0
   -0.6363   -0.4013   -0.0595 C   0  0  0  0  0  0  0  0  0  0  0  0
    0.6973    2.0871   -0.0584 C   0  0  0  0  0  0  0  0  0  0  0  0
    3.5133    1.9886   -0.1438 O   0  0  0  0  0  0  0  0  0  0  0  0
   -1.3698    0.8149   -0.0326 C   0  0  0  0  0  0  0  0  0  0  0  0
   -0.6930    2.0429   -0.0316 C   0  0  0  0  0  0  0  0  0  0  0  0
    4.0346   -5.2706    1.4096 O   0  0  0  0  0  0  0  0  0  0  0  0
    2.9631   -3.9872   -0.3889 C   0  0  0  0  0  0  0  0  0  0  0  0
    4.7398   -2.9571    0.9509 C   0  0  0  0  0  0  0  0  0  0  0  0
   -1.3647   -1.6116   -0.0532 C   0  0  0  0  0  0  0  0  0  0  0  0
    2.7959   -5.0371    0.7169 C   0  0  0  0  0  0  0  0  0  0  0  0
    4.5070   -4.0518    2.0053 C   0  0  0  0  0  0  0  0  0  0  0  0
   -2.7725    0.7895   -0.0026 C   0  0  0  0  0  0  0  0  0  0  0  0
   -2.7629   -1.6186   -0.0227 C   0  0  0  0  0  0  0  0  0  0  0  0
   -3.4666   -0.4189    0.0007 C   0  0  0  0  0  0  0  0  0  0  0  0
    4.6524   -0.3029    0.0803 H   0  0  0  0  0  0  0  0  0  0  0  0
    1.2117    3.0457   -0.0514 H   0  0  0  0  0  0  0  0  0  0  0  0
   -1.2456    2.9803   -0.0064 H   0  0  0  0  0  0  0  0  0  0  0  0
    3.6832   -4.3560   -1.1302 H   0  0  0  0  0  0  0  0  0  0  0  0
    2.0122   -3.8325   -0.9098 H   0  0  0  0  0  0  0  0  0  0  0  0
    5.5342   -3.2633    0.2605 H   0  0  0  0  0  0  0  0  0  0  0  0
    5.0712   -2.0495    1.4665 H   0  0  0  0  0  0  0  0  0  0  0  0
   -0.8417   -2.5648   -0.0691 H   0  0  0  0  0  0  0  0  0  0  0  0
    2.0341   -4.7279    1.4420 H   0  0  0  0  0  0  0  0  0  0  0  0
    2.4797   -5.9898    0.2808 H   0  0  0  0  0  0  0  0  0  0  0  0
    5.4454   -4.2749    2.5222 H   0  0  0  0  0  0  0  0  0  0  0  0
    3.7813   -3.7214    2.7589 H   0  0  0  0  0  0  0  0  0  0  0  0
   -3.3403    1.7177    0.0188 H   0  0  0  0  0  0  0  0  0  0  0  0
   -3.3019   -2.5628   -0.0160 H   0  0  0  0  0  0  0  0  0  0  0  0
   -4.5524   -0.4209    0.0268 H   0  0  0  0  0  0  0  0  0  0  0  0
  2  3  1  0  0  0  0
  3  1  1  0  0  0  0
  4  1  2  0  0  0  0
  4 22  1  0  0  0  0
  5  2  2  0  0  0  0
  6  4  1  0  0  0  0
  6  5  1  0  0  0  0
  7  1  1  0  0  0  0
  8  2  1  0  0  0  0
  9  5  1  0  0  0  0
  9 23  1  0  0  0  0
 10  6  2  0  0  0  0
 11  8  2  0  0  0  0
 12  9  2  0  0  0  0
 12 11  1  0  0  0  0
 12 24  1  0  0  0  0
 13 17  1  0  0  0  0
 13 18  1  0  0  0  0
 14  7  1  0  0  0  0
 14 25  1  0  0  0  0
 14 26  1  0  0  0  0
 15  7  1  0  0  0  0
 15 27  1  0  0  0  0
 15 28  1  0  0  0  0
 16  8  1  0  0  0  0
 16 29  1  0  0  0  0
 17 14  1  0  0  0  0
 17 30  1  0  0  0  0
 17 31  1  0  0  0  0
 18 15  1  0  0  0  0
 18 32  1  0  0  0  0
 18 33  1  0  0  0  0
 19 11  1  0  0  0  0
 19 34  1  0  0  0  0
 20 16  2  0  0  0  0
 20 35  1  0  0  0  0
 21 19  2  0  0  0  0
 21 20  1  0  0  0  0
 21 36  1  0  0  0  0
M  END
>  <Mol_ID>
8199

>  <Formula>
C17H15NO3

>  <MolWeight>
281.3059

>  <Cat>
S2893

>  <Name>
NU7026

>  <Synonyms>
LY293646

>  <Target>
Apoptosis related,DNA-PK,PI3K

>  <Form>
Free Base

>  <CAS>
154447-35-5

>  <URL>
http://selleckchem.com/products/nu7026.html

$$$$
