Nudifloric Acid
 OpenBabel08302521293D

 18 18  0  0  0  0  0  0  0  0999 V2000
   -1.6751    1.2412    0.0107 O   0  0  0  0  0  0  0  0  0  0  0  0
    3.3626   -2.5802    0.4039 O   0  0  0  0  0  0  0  0  0  0  0  0
    4.2810   -0.6745   -0.3425 O   0  0  0  0  0  0  0  0  0  0  0  0
   -0.4645   -0.7493    0.0046 N   0  0  0  0  0  0  0  0  0  0  0  0
    0.7769   -1.3765    0.0023 C   0  0  0  0  0  0  0  0  0  0  0  0
    1.9269   -0.6764    0.0198 C   0  0  0  0  0  0  0  0  0  0  0  0
   -0.6051    0.6396    0.0098 C   0  0  0  0  0  0  0  0  0  0  0  0
    1.8400    0.7765    0.0075 C   0  0  0  0  0  0  0  0  0  0  0  0
    0.6630    1.4117    0.0062 C   0  0  0  0  0  0  0  0  0  0  0  0
   -1.6663   -1.5720   -0.0221 C   0  0  0  0  0  0  0  0  0  0  0  0
    3.2871   -1.2969   -0.0047 C   0  0  0  0  0  0  0  0  0  0  0  0
    2.5550   -2.9831    0.7587 H   0  0  0  0  0  0  0  0  0  0  0  0
    0.7398   -2.4592   -0.0307 H   0  0  0  0  0  0  0  0  0  0  0  0
    2.7669    1.3446   -0.0133 H   0  0  0  0  0  0  0  0  0  0  0  0
    0.5773    2.4908   -0.0086 H   0  0  0  0  0  0  0  0  0  0  0  0
   -1.6594   -2.1793   -0.9332 H   0  0  0  0  0  0  0  0  0  0  0  0
   -1.6695   -2.2262    0.8549 H   0  0  0  0  0  0  0  0  0  0  0  0
   -2.5776   -0.9669   -0.0117 H   0  0  0  0  0  0  0  0  0  0  0  0
  1  7  2  0  0  0  0
  2 11  1  0  0  0  0
  2 12  1  0  0  0  0
  3 11  2  0  0  0  0
  4  5  1  0  0  0  0
  4  7  1  0  0  0  0
  4 10  1  0  0  0  0
  5  6  2  0  0  0  0
  5 13  1  0  0  0  0
  6  8  1  0  0  0  0
  6 11  1  0  0  0  0
  7  9  1  0  0  0  0
  8  9  2  0  0  0  0
  8 14  1  0  0  0  0
  9 15  1  0  0  0  0
 10 16  1  0  0  0  0
 10 17  1  0  0  0  0
 10 18  1  0  0  0  0
M  END
>  <Mol_ID>
5478

>  <Formula>
C7H7NO3

>  <MolWeight>
153.13538

>  <Cat>
S3313

>  <Name>
Nudifloric Acid

>  <Synonyms>
1-Methyl-6-oxo-1,6-dihydropyridine-3-carboxylic acid

>  <Target>
Others

>  <Form>
Free Base

>  <CAS>
3719-45-7

>  <URL>
https://www.selleckchem.com/products/nudifloric-acid.html

$$$$
