NUTRESTORE (glutamine).cdx
 OpenBabel08302520433D

 20 19  0  0  0  0  0  0  0  0999 V2000
   -1.1750    1.3038    0.5802 N   0  0  0  0  0  0  0  0  0  0  0  0
   -1.6667    0.2556   -0.1410 C   0  0  0  0  0  0  0  0  0  0  0  0
   -1.2244   -1.1060    0.3457 C   0  0  0  0  0  0  0  0  0  0  0  0
   -1.7683   -2.2271   -0.5454 C   0  0  0  0  0  0  0  0  0  0  0  0
   -1.3344   -3.6278   -0.0988 C   0  0  1  0  0  0  0  0  0  0  0  0
   -1.9748   -4.6876   -1.0203 C   0  0  0  0  0  0  0  0  0  0  0  0
   -1.0764   -5.4875   -1.6437 O   0  0  0  0  0  0  0  0  0  0  0  0
   -2.4048    0.4490   -1.0981 O   0  0  0  0  0  0  0  0  0  0  0  0
   -3.1793   -4.8197   -1.1843 O   0  0  0  0  0  0  0  0  0  0  0  0
    0.1392   -3.7246   -0.0702 N   0  0  0  0  0  0  0  0  0  0  0  0
   -0.4488    1.1997    1.2753 H   0  0  0  0  0  0  0  0  0  0  0  0
   -1.4081    2.2339    0.2590 H   0  0  0  0  0  0  0  0  0  0  0  0
   -0.1280   -1.1153    0.3541 H   0  0  0  0  0  0  0  0  0  0  0  0
   -1.5776   -1.2386    1.3750 H   0  0  0  0  0  0  0  0  0  0  0  0
   -2.8649   -2.1747   -0.5521 H   0  0  0  0  0  0  0  0  0  0  0  0
   -1.4573   -2.0558   -1.5850 H   0  0  0  0  0  0  0  0  0  0  0  0
   -1.6986   -3.8322    0.9147 H   0  0  0  0  0  0  0  0  0  0  0  0
   -0.1697   -5.2349   -1.3971 H   0  0  0  0  0  0  0  0  0  0  0  0
    0.4824   -4.5870    0.3445 H   0  0  0  0  0  0  0  0  0  0  0  0
    0.5824   -3.4771   -0.9514 H   0  0  0  0  0  0  0  0  0  0  0  0
  1  2  1  0  0  0  0
  1 11  1  0  0  0  0
  1 12  1  0  0  0  0
  2  3  1  0  0  0  0
  2  8  2  0  0  0  0
  3  4  1  0  0  0  0
  3 13  1  0  0  0  0
  3 14  1  0  0  0  0
  4  5  1  0  0  0  0
  4 15  1  0  0  0  0
  4 16  1  0  0  0  0
  5  6  1  0  0  0  0
  5 10  1  0  0  0  0
  5 17  1  1  0  0  0
  6  7  1  0  0  0  0
  6  9  2  0  0  0  0
  7 18  1  0  0  0  0
 10 19  1  0  0  0  0
 10 20  1  0  0  0  0
M  END
>  <Mol_ID>
4027

>  <Formula>
C5H10N2O3

>  <MolWeight>
146.1445

>  <Cat>
S1749

>  <Name>
L-Glutamine

>  <Synonyms>
N/A

>  <Target>
Others

>  <Form>
free base

>  <CAS>
56-85-9

>  <URL>
http://selleckchem.com/products/Glutamine.html

$$$$
