NVP-DKY709
 OpenBabel08302521353D

 58 62  0  0  0  0  0  0  0  0999 V2000
   -2.4237    1.1656   -0.3562 O   0  0  0  0  0  0  0  0  0  0  0  0
   -3.4050   -2.9398    1.9466 O   0  0  0  0  0  0  0  0  0  0  0  0
   -3.5077   -5.2761   -1.8811 O   0  0  0  0  0  0  0  0  0  0  0  0
    4.2221    0.2384    4.3711 C   0  0  0  0  0  0  0  0  0  0  0  0
    0.2849   -1.0151   -0.0827 C   0  0  0  0  0  0  0  0  0  0  0  0
   -0.2157    0.2763   -0.2142 C   0  0  0  0  0  0  0  0  0  0  0  0
   -0.8456   -1.9914   -0.0229 C   0  0  0  0  0  0  0  0  0  0  0  0
    1.6548   -1.2274   -0.0005 C   0  0  0  0  0  0  0  0  0  0  0  0
   -1.6775    0.2118   -0.2487 C   0  0  0  0  0  0  0  0  0  0  0  0
    0.5976    1.3820   -0.2954 C   0  0  0  0  0  0  0  0  0  0  0  0
   -2.0160   -1.1254   -0.1389 N   0  0  0  0  0  0  0  0  0  0  0  0
    2.5353   -0.1227   -0.0302 C   0  0  0  0  0  0  0  0  0  0  0  0
    1.9751    1.1707   -0.2177 C   0  0  0  0  0  0  0  0  0  0  0  0
   -3.4043   -1.5740   -0.0599 C   0  0  3  0  0  0  0  0  0  0  0  0
   -3.5525   -2.8735    0.7279 C   0  0  0  0  0  0  0  0  0  0  0  0
   -4.0685   -1.6842   -1.4321 C   0  0  0  0  0  0  0  0  0  0  0  0
   -3.6825   -4.0240   -0.0121 N   0  0  0  0  0  0  0  0  0  0  0  0
   -3.5789   -2.9002   -2.2005 C   0  0  0  0  0  0  0  0  0  0  0  0
   -3.6111   -4.1623   -1.3730 C   0  0  0  0  0  0  0  0  0  0  0  0
    4.0586   -0.3078    0.0902 C   0  0  0  0  0  0  0  0  0  0  0  0
    4.5175   -1.4919    0.9632 C   0  0  0  0  0  0  0  0  0  0  0  0
    4.8270    0.9080    0.6485 C   0  0  0  0  0  0  0  0  0  0  0  0
    4.1683   -1.2672    2.4366 C   0  0  0  0  0  0  0  0  0  0  0  0
    4.4885    1.1651    2.1219 C   0  0  0  0  0  0  0  0  0  0  0  0
    4.6760   -0.0053    2.9821 N   0  0  0  0  0  0  0  0  0  0  0  0
    2.7194    0.2684    4.6075 C   0  0  0  0  0  0  0  0  0  0  0  0
    2.0228   -0.9125    4.9175 C   0  0  0  0  0  0  0  0  0  0  0  0
    1.9881    1.4617    4.5001 C   0  0  0  0  0  0  0  0  0  0  0  0
    0.6342   -0.9100    5.0652 C   0  0  0  0  0  0  0  0  0  0  0  0
    0.6007    1.4654    4.6574 C   0  0  0  0  0  0  0  0  0  0  0  0
   -0.0783    0.2783    4.9289 C   0  0  0  0  0  0  0  0  0  0  0  0
    4.6592   -0.5324    5.0198 H   0  0  0  0  0  0  0  0  0  0  0  0
    4.6570    1.1779    4.7389 H   0  0  0  0  0  0  0  0  0  0  0  0
   -0.8607   -2.5205    0.9312 H   0  0  0  0  0  0  0  0  0  0  0  0
   -0.8188   -2.6827   -0.8698 H   0  0  0  0  0  0  0  0  0  0  0  0
    2.0185   -2.2444    0.1015 H   0  0  0  0  0  0  0  0  0  0  0  0
    0.1793    2.3762   -0.4073 H   0  0  0  0  0  0  0  0  0  0  0  0
    2.6090    2.0503   -0.2916 H   0  0  0  0  0  0  0  0  0  0  0  0
   -3.9568   -0.8047    0.4958 H   0  0  0  0  0  0  0  0  0  0  0  0
   -5.1544   -1.7702   -1.2934 H   0  0  0  0  0  0  0  0  0  0  0  0
   -3.8944   -0.7801   -2.0273 H   0  0  0  0  0  0  0  0  0  0  0  0
   -3.6707   -4.8843    0.5184 H   0  0  0  0  0  0  0  0  0  0  0  0
   -4.2246   -3.0533   -3.0731 H   0  0  0  0  0  0  0  0  0  0  0  0
   -2.5564   -2.7498   -2.5601 H   0  0  0  0  0  0  0  0  0  0  0  0
    4.4127   -0.4887   -0.9334 H   0  0  0  0  0  0  0  0  0  0  0  0
    4.0933   -2.4414    0.6211 H   0  0  0  0  0  0  0  0  0  0  0  0
    5.6065   -1.6097    0.8691 H   0  0  0  0  0  0  0  0  0  0  0  0
    5.9063    0.7214    0.5574 H   0  0  0  0  0  0  0  0  0  0  0  0
    4.6466    1.8124    0.0585 H   0  0  0  0  0  0  0  0  0  0  0  0
    3.0820   -1.3404    2.5283 H   0  0  0  0  0  0  0  0  0  0  0  0
    4.5962   -2.0953    3.0155 H   0  0  0  0  0  0  0  0  0  0  0  0
    5.1496    1.9665    2.4759 H   0  0  0  0  0  0  0  0  0  0  0  0
    3.4675    1.5506    2.1837 H   0  0  0  0  0  0  0  0  0  0  0  0
    2.5621   -1.8516    5.0206 H   0  0  0  0  0  0  0  0  0  0  0  0
    2.4956    2.3979    4.2800 H   0  0  0  0  0  0  0  0  0  0  0  0
    0.1071   -1.8365    5.2780 H   0  0  0  0  0  0  0  0  0  0  0  0
    0.0429    2.3941    4.5608 H   0  0  0  0  0  0  0  0  0  0  0  0
   -1.1602    0.2793    5.0340 H   0  0  0  0  0  0  0  0  0  0  0  0
  1  9  2  0  0  0  0
  2 15  2  0  0  0  0
  3 19  2  0  0  0  0
  4 25  1  0  0  0  0
  4 26  1  0  0  0  0
  4 32  1  0  0  0  0
  4 33  1  0  0  0  0
  5  6  2  0  0  0  0
  5  7  1  0  0  0  0
  5  8  1  0  0  0  0
  6  9  1  0  0  0  0
  6 10  1  0  0  0  0
  7 11  1  0  0  0  0
  7 34  1  0  0  0  0
  7 35  1  0  0  0  0
  8 12  2  0  0  0  0
  8 36  1  0  0  0  0
  9 11  1  0  0  0  0
 10 13  2  0  0  0  0
 10 37  1  0  0  0  0
 11 14  1  0  0  0  0
 12 13  1  0  0  0  0
 12 20  1  0  0  0  0
 13 38  1  0  0  0  0
 14 15  1  0  0  0  0
 14 16  1  0  0  0  0
 14 39  1  0  0  0  0
 15 17  1  0  0  0  0
 16 18  1  0  0  0  0
 16 40  1  0  0  0  0
 16 41  1  0  0  0  0
 17 19  1  0  0  0  0
 17 42  1  0  0  0  0
 18 19  1  0  0  0  0
 18 43  1  0  0  0  0
 18 44  1  0  0  0  0
 20 21  1  0  0  0  0
 20 22  1  0  0  0  0
 20 45  1  0  0  0  0
 21 23  1  0  0  0  0
 21 46  1  0  0  0  0
 21 47  1  0  0  0  0
 22 24  1  0  0  0  0
 22 48  1  0  0  0  0
 22 49  1  0  0  0  0
 23 25  1  0  0  0  0
 23 50  1  0  0  0  0
 23 51  1  0  0  0  0
 24 25  1  0  0  0  0
 24 52  1  0  0  0  0
 24 53  1  0  0  0  0
 26 27  2  0  0  0  0
 26 28  1  0  0  0  0
 27 29  1  0  0  0  0
 27 54  1  0  0  0  0
 28 30  2  0  0  0  0
 28 55  1  0  0  0  0
 29 31  2  0  0  0  0
 29 56  1  0  0  0  0
 30 31  1  0  0  0  0
 30 57  1  0  0  0  0
 31 58  1  0  0  0  0
M  END
>  <Mol_ID>
6834

>  <Formula>
C25H27N3O3

>  <MolWeight>
417.50018

>  <Cat>
E1204

>  <Name>
NVP-DKY709

>  <Target>
Others

>  <Form>
Free base

>  <CAS>
2291360-73-9

>  <URL>
http://www.selleckchem.com/products/nvp-dky709.html

$$$$
