NVP-AEW541
 OpenBabel08302521353D

 62 67  0  0  0  0  0  0  0  0999 V2000
    2.1414   -3.1147   -2.0171 C   0  0  0  0  0  0  0  0  0  0  0  0
    2.9910   -2.7679   -0.9550 C   0  0  0  0  0  0  0  0  0  0  0  0
    4.3449   -3.1227   -1.0248 C   0  0  0  0  0  0  0  0  0  0  0  0
    4.8380   -3.8100   -2.1361 C   0  0  0  0  0  0  0  0  0  0  0  0
    3.9831   -4.1514   -3.1837 C   0  0  0  0  0  0  0  0  0  0  0  0
    2.6362   -3.8006   -3.1260 C   0  0  0  0  0  0  0  0  0  0  0  0
    2.4254   -2.0949    0.2711 C   0  0  0  0  0  0  0  0  0  0  0  0
    2.0405   -3.1283    1.1768 O   0  0  0  0  0  0  0  0  0  0  0  0
    1.4543   -2.7444    2.3490 C   0  0  0  0  0  0  0  0  0  0  0  0
    0.7988   -1.5359    2.5744 C   0  0  0  0  0  0  0  0  0  0  0  0
    0.2304   -1.2766    3.8219 C   0  0  0  0  0  0  0  0  0  0  0  0
    0.3482   -2.2087    4.8546 C   0  0  0  0  0  0  0  0  0  0  0  0
    1.0005   -3.4316    4.6431 C   0  0  0  0  0  0  0  0  0  0  0  0
    1.5094   -3.7016    3.3687 C   0  0  0  0  0  0  0  0  0  0  0  0
    1.1054   -4.4133    5.7177 C   0  0  0  0  0  0  0  0  0  0  0  0
    0.0445   -4.6459    6.5751 C   0  0  0  0  0  0  0  0  0  0  0  0
    0.4041   -5.6217    7.4645 N   0  0  0  0  0  0  0  0  0  0  0  0
    1.6770   -6.0614    7.1873 C   0  0  0  0  0  0  0  0  0  0  0  0
    2.1660   -5.3022    6.1186 C   0  0  0  0  0  0  0  0  0  0  0  0
    2.3406   -7.0328    7.8404 N   0  0  0  0  0  0  0  0  0  0  0  0
    3.5660   -7.2324    7.3413 C   0  0  0  0  0  0  0  0  0  0  0  0
    4.1662   -6.5711    6.3401 N   0  0  0  0  0  0  0  0  0  0  0  0
    3.4971   -5.5708    5.7322 C   0  0  0  0  0  0  0  0  0  0  0  0
   -0.4883   -6.0092    8.5299 C   0  0  2  0  0  0  0  0  0  0  0  0
    0.1465   -5.9059    9.9452 C   0  0  0  0  0  0  0  0  0  0  0  0
   -0.6771   -7.1640   10.3249 C   0  0  1  0  0  0  0  0  0  0  0  0
   -0.6192   -7.5294    8.8133 C   0  0  0  0  0  0  0  0  0  0  0  0
    0.0001   -8.0892   11.3248 C   0  0  0  0  0  0  0  0  0  0  0  0
   -0.9023   -9.1784   11.7321 N   0  0  0  0  0  0  0  0  0  0  0  0
   -0.2003  -10.0899   12.6742 C   0  0  0  0  0  0  0  0  0  0  0  0
   -0.8297  -11.2677   11.9119 C   0  0  0  0  0  0  0  0  0  0  0  0
   -0.9247  -10.2793   10.7346 C   0  0  0  0  0  0  0  0  0  0  0  0
    4.2133   -4.8763    4.7817 N   0  0  0  0  0  0  0  0  0  0  0  0
    1.0841   -2.8656   -1.9750 H   0  0  0  0  0  0  0  0  0  0  0  0
    5.0195   -2.8809   -0.2067 H   0  0  0  0  0  0  0  0  0  0  0  0
    5.8868   -4.0921   -2.1794 H   0  0  0  0  0  0  0  0  0  0  0  0
    4.3644   -4.7011   -4.0400 H   0  0  0  0  0  0  0  0  0  0  0  0
    1.9676   -4.0726   -3.9385 H   0  0  0  0  0  0  0  0  0  0  0  0
    3.1798   -1.4427    0.7296 H   0  0  0  0  0  0  0  0  0  0  0  0
    1.5666   -1.4848   -0.0312 H   0  0  0  0  0  0  0  0  0  0  0  0
    0.6846   -0.7881    1.7980 H   0  0  0  0  0  0  0  0  0  0  0  0
   -0.3085   -0.3477    3.9919 H   0  0  0  0  0  0  0  0  0  0  0  0
   -0.0847   -1.9699    5.8234 H   0  0  0  0  0  0  0  0  0  0  0  0
    1.9581   -4.6678    3.1477 H   0  0  0  0  0  0  0  0  0  0  0  0
   -0.9373   -4.1929    6.6239 H   0  0  0  0  0  0  0  0  0  0  0  0
    4.1518   -8.0194    7.8067 H   0  0  0  0  0  0  0  0  0  0  0  0
   -1.4631   -5.5034    8.4794 H   0  0  0  0  0  0  0  0  0  0  0  0
    1.2316   -6.0409   10.0109 H   0  0  0  0  0  0  0  0  0  0  0  0
   -0.1154   -4.9990   10.5008 H   0  0  0  0  0  0  0  0  0  0  0  0
   -1.6907   -6.8883   10.6523 H   0  0  0  0  0  0  0  0  0  0  0  0
   -1.5304   -7.9913    8.4205 H   0  0  0  0  0  0  0  0  0  0  0  0
    0.2263   -8.1656    8.5370 H   0  0  0  0  0  0  0  0  0  0  0  0
    0.9543   -8.4627   10.9269 H   0  0  0  0  0  0  0  0  0  0  0  0
    0.2432   -7.5099   12.2223 H   0  0  0  0  0  0  0  0  0  0  0  0
    0.8961  -10.0770   12.6289 H   0  0  0  0  0  0  0  0  0  0  0  0
   -0.5115   -9.9924   13.7184 H   0  0  0  0  0  0  0  0  0  0  0  0
   -0.1880  -12.1388   11.7594 H   0  0  0  0  0  0  0  0  0  0  0  0
   -1.7980  -11.5925   12.3097 H   0  0  0  0  0  0  0  0  0  0  0  0
   -1.8498  -10.3483   10.1539 H   0  0  0  0  0  0  0  0  0  0  0  0
   -0.0702  -10.3318   10.0498 H   0  0  0  0  0  0  0  0  0  0  0  0
    3.7700   -4.1842    4.2032 H   0  0  0  0  0  0  0  0  0  0  0  0
    5.0257   -5.3660    4.4326 H   0  0  0  0  0  0  0  0  0  0  0  0
  1  2  2  0  0  0  0
  1 34  1  0  0  0  0
  2  3  1  0  0  0  0
  2  7  1  0  0  0  0
  3  4  2  0  0  0  0
  3 35  1  0  0  0  0
  4  5  1  0  0  0  0
  4 36  1  0  0  0  0
  5  6  2  0  0  0  0
  5 37  1  0  0  0  0
  6  1  1  0  0  0  0
  6 38  1  0  0  0  0
  7  8  1  0  0  0  0
  7 39  1  0  0  0  0
  7 40  1  0  0  0  0
  8  9  1  0  0  0  0
  9 10  2  0  0  0  0
 10 11  1  0  0  0  0
 10 41  1  0  0  0  0
 11 12  2  0  0  0  0
 11 42  1  0  0  0  0
 12 13  1  0  0  0  0
 12 43  1  0  0  0  0
 13 14  2  0  0  0  0
 13 15  1  0  0  0  0
 14  9  1  0  0  0  0
 14 44  1  0  0  0  0
 15 16  2  0  0  0  0
 16 17  1  0  0  0  0
 16 45  1  0  0  0  0
 17 18  1  0  0  0  0
 18 19  2  0  0  0  0
 18 20  1  0  0  0  0
 19 15  1  0  0  0  0
 20 21  2  0  0  0  0
 21 22  1  0  0  0  0
 21 46  1  0  0  0  0
 22 23  2  0  0  0  0
 23 19  1  0  0  0  0
 23 33  1  0  0  0  0
 24 25  1  0  0  0  0
 24 17  1  0  0  0  0
 24 47  1  6  0  0  0
 25 26  1  0  0  0  0
 25 48  1  0  0  0  0
 25 49  1  0  0  0  0
 26 27  1  0  0  0  0
 26 28  1  0  0  0  0
 26 50  1  1  0  0  0
 27 24  1  0  0  0  0
 27 51  1  0  0  0  0
 27 52  1  0  0  0  0
 28 29  1  0  0  0  0
 28 53  1  0  0  0  0
 28 54  1  0  0  0  0
 29 30  1  0  0  0  0
 30 31  1  0  0  0  0
 30 55  1  0  0  0  0
 30 56  1  0  0  0  0
 31 32  1  0  0  0  0
 31 57  1  0  0  0  0
 31 58  1  0  0  0  0
 32 29  1  0  0  0  0
 32 59  1  0  0  0  0
 32 60  1  0  0  0  0
 33 61  1  0  0  0  0
 33 62  1  0  0  0  0
M  END
>  <Mol_ID>
6649

>  <Formula>
C27H29N5O

>  <MolWeight>
439.55206

>  <Cat>
S1034

>  <Name>
NVP-AEW541

>  <Synonyms>
AEW541

>  <Target>
IGF-1R

>  <Form>
Free base

>  <CAS>
475489-16-8

>  <URL>
http://www.selleckchem.com/products/NVP-AEW541.html

$$$$
