NVP-AUY922 .cdx
 OpenBabel08302520393D

 65 68  0  0  0  0  0  0  0  0999 V2000
    0.1020    1.5524    1.0025 C   0  0  0  0  0  0  0  0  0  0  0  0
   -1.0178    0.8062    1.3622 C   0  0  0  0  0  0  0  0  0  0  0  0
   -1.1117   -0.5404    1.0123 C   0  0  0  0  0  0  0  0  0  0  0  0
   -0.0847   -1.1727    0.3022 C   0  0  0  0  0  0  0  0  0  0  0  0
    1.0721   -0.4158    0.0269 C   0  0  0  0  0  0  0  0  0  0  0  0
    1.1812    0.9502    0.3423 C   0  0  0  0  0  0  0  0  0  0  0  0
    0.0493    2.8848    1.3145 O   0  0  0  0  0  0  0  0  0  0  0  0
   -2.2651   -1.1553    1.4036 O   0  0  0  0  0  0  0  0  0  0  0  0
   -0.1217   -2.5916   -0.2414 C   0  0  0  0  0  0  0  0  0  0  0  0
   -0.0977   -3.6483    0.8612 C   0  0  0  0  0  0  0  0  0  0  0  0
   -1.2576   -2.8007   -1.2479 C   0  0  0  0  0  0  0  0  0  0  0  0
    2.4001    1.6731   -0.0207 C   0  0  0  0  0  0  0  0  0  0  0  0
    3.3295    1.6565   -1.0577 C   0  0  0  0  0  0  0  0  0  0  0  0
    4.3331    2.5928   -0.6178 C   0  0  0  0  0  0  0  0  0  0  0  0
    3.9546    3.1778    0.5363 N   0  0  0  0  0  0  0  0  0  0  0  0
    2.7762    2.5974    0.9001 O   0  0  0  0  0  0  0  0  0  0  0  0
    5.6276    3.0082   -1.1975 C   0  0  0  0  0  0  0  0  0  0  0  0
    6.1076    2.5202   -2.2204 O   0  0  0  0  0  0  0  0  0  0  0  0
    6.2669    3.9867   -0.4649 N   0  0  0  0  0  0  0  0  0  0  0  0
    7.5649    4.5479   -0.7813 C   0  0  0  0  0  0  0  0  0  0  0  0
    8.7069    3.7685   -0.1500 C   0  0  0  0  0  0  0  0  0  0  0  0
    3.1762    0.8406   -2.2724 C   0  0  0  0  0  0  0  0  0  0  0  0
    1.9108    0.6830   -2.8691 C   0  0  0  0  0  0  0  0  0  0  0  0
    1.7265   -0.0860   -4.0254 C   0  0  0  0  0  0  0  0  0  0  0  0
    2.8175   -0.6836   -4.6583 C   0  0  0  0  0  0  0  0  0  0  0  0
    4.0805   -0.5593   -4.0560 C   0  0  0  0  0  0  0  0  0  0  0  0
    4.2540    0.1840   -2.8740 C   0  0  0  0  0  0  0  0  0  0  0  0
    2.6472   -1.3648   -6.0050 C   0  0  0  0  0  0  0  0  0  0  0  0
    2.4747   -0.4152   -7.1218 N   0  0  0  0  0  0  0  0  0  0  0  0
    2.2673   -1.1161   -8.4103 C   0  0  0  0  0  0  0  0  0  0  0  0
    3.5447   -1.7329   -9.0139 C   0  0  0  0  0  0  0  0  0  0  0  0
    4.5968   -0.7690   -9.1369 O   0  0  0  0  0  0  0  0  0  0  0  0
    4.8737   -0.1521   -7.8731 C   0  0  0  0  0  0  0  0  0  0  0  0
    3.6145    0.5135   -7.2993 C   0  0  0  0  0  0  0  0  0  0  0  0
   -1.8329    1.2822    1.9015 H   0  0  0  0  0  0  0  0  0  0  0  0
    1.9055   -0.9070   -0.4749 H   0  0  0  0  0  0  0  0  0  0  0  0
    0.8450    3.3286    0.9731 H   0  0  0  0  0  0  0  0  0  0  0  0
   -2.2358   -2.0928    1.1706 H   0  0  0  0  0  0  0  0  0  0  0  0
    0.7990   -2.7554   -0.8203 H   0  0  0  0  0  0  0  0  0  0  0  0
   -0.9648   -3.5981    1.5236 H   0  0  0  0  0  0  0  0  0  0  0  0
   -0.0701   -4.6535    0.4272 H   0  0  0  0  0  0  0  0  0  0  0  0
    0.7974   -3.5300    1.4824 H   0  0  0  0  0  0  0  0  0  0  0  0
   -1.1597   -2.1003   -2.0865 H   0  0  0  0  0  0  0  0  0  0  0  0
   -1.2252   -3.8147   -1.6605 H   0  0  0  0  0  0  0  0  0  0  0  0
   -2.2498   -2.6525   -0.8142 H   0  0  0  0  0  0  0  0  0  0  0  0
    5.7892    4.3038    0.3735 H   0  0  0  0  0  0  0  0  0  0  0  0
    7.6909    4.5906   -1.8670 H   0  0  0  0  0  0  0  0  0  0  0  0
    7.5636    5.5727   -0.3959 H   0  0  0  0  0  0  0  0  0  0  0  0
    8.9950    2.9224   -0.7831 H   0  0  0  0  0  0  0  0  0  0  0  0
    9.5876    4.4107   -0.0374 H   0  0  0  0  0  0  0  0  0  0  0  0
    8.4415    3.3770    0.8369 H   0  0  0  0  0  0  0  0  0  0  0  0
    1.0282    1.1599   -2.4459 H   0  0  0  0  0  0  0  0  0  0  0  0
    0.7290   -0.1852   -4.4476 H   0  0  0  0  0  0  0  0  0  0  0  0
    4.9507   -1.0169   -4.5202 H   0  0  0  0  0  0  0  0  0  0  0  0
    5.2550    0.2458   -2.4540 H   0  0  0  0  0  0  0  0  0  0  0  0
    3.4773   -2.0610   -6.1751 H   0  0  0  0  0  0  0  0  0  0  0  0
    1.7456   -1.9892   -5.9376 H   0  0  0  0  0  0  0  0  0  0  0  0
    1.8809   -0.3745   -9.1237 H   0  0  0  0  0  0  0  0  0  0  0  0
    1.4866   -1.8800   -8.3185 H   0  0  0  0  0  0  0  0  0  0  0  0
    3.9042   -2.5794   -8.4188 H   0  0  0  0  0  0  0  0  0  0  0  0
    3.3308   -2.1083  -10.0202 H   0  0  0  0  0  0  0  0  0  0  0  0
    5.6464    0.6056   -8.0411 H   0  0  0  0  0  0  0  0  0  0  0  0
    5.2914   -0.9004   -7.1897 H   0  0  0  0  0  0  0  0  0  0  0  0
    3.2884    1.2921   -8.0023 H   0  0  0  0  0  0  0  0  0  0  0  0
    3.8524    1.0459   -6.3734 H   0  0  0  0  0  0  0  0  0  0  0  0
  1  2  2  0  0  0  0
  1  7  1  0  0  0  0
  2  3  1  0  0  0  0
  2 35  1  0  0  0  0
  3  4  2  0  0  0  0
  3  8  1  0  0  0  0
  4  5  1  0  0  0  0
  4  9  1  0  0  0  0
  5  6  2  0  0  0  0
  5 36  1  0  0  0  0
  6  1  1  0  0  0  0
  6 12  1  0  0  0  0
  7 37  1  0  0  0  0
  8 38  1  0  0  0  0
  9 10  1  0  0  0  0
  9 11  1  0  0  0  0
  9 39  1  0  0  0  0
 10 40  1  0  0  0  0
 10 41  1  0  0  0  0
 10 42  1  0  0  0  0
 11 43  1  0  0  0  0
 11 44  1  0  0  0  0
 11 45  1  0  0  0  0
 12 13  2  0  0  0  0
 13 14  1  0  0  0  0
 13 22  1  0  0  0  0
 14 15  2  0  0  0  0
 14 17  1  0  0  0  0
 15 16  1  0  0  0  0
 16 12  1  0  0  0  0
 17 18  2  0  0  0  0
 17 19  1  0  0  0  0
 19 20  1  0  0  0  0
 19 46  1  0  0  0  0
 20 21  1  0  0  0  0
 20 47  1  0  0  0  0
 20 48  1  0  0  0  0
 21 49  1  0  0  0  0
 21 50  1  0  0  0  0
 21 51  1  0  0  0  0
 22 23  2  0  0  0  0
 23 24  1  0  0  0  0
 23 52  1  0  0  0  0
 24 25  2  0  0  0  0
 24 53  1  0  0  0  0
 25 26  1  0  0  0  0
 25 28  1  0  0  0  0
 26 27  2  0  0  0  0
 26 54  1  0  0  0  0
 27 22  1  0  0  0  0
 27 55  1  0  0  0  0
 28 29  1  0  0  0  0
 28 56  1  0  0  0  0
 28 57  1  0  0  0  0
 29 30  1  0  0  0  0
 30 31  1  0  0  0  0
 30 58  1  0  0  0  0
 30 59  1  0  0  0  0
 31 32  1  0  0  0  0
 31 60  1  0  0  0  0
 31 61  1  0  0  0  0
 32 33  1  0  0  0  0
 33 34  1  0  0  0  0
 33 62  1  0  0  0  0
 33 63  1  0  0  0  0
 34 29  1  0  0  0  0
 34 64  1  0  0  0  0
 34 65  1  0  0  0  0
M  END
>  <Mol_ID>
42

>  <Formula>
C26H31N3O5

>  <MolWeight>
465.54144

>  <Cat>
S1069

>  <Name>
Luminespib (NVP-AUY922)

>  <Synonyms>
AUY-922, VER-52296

>  <Target>
Apoptosis related,Autophagy,HSP (HSP90),IGF-1R

>  <Form>
free base

>  <CAS>
747412-49-3

>  <URL>
http://selleckchem.com/products/NVP-AUY922.html

$$$$
