NVP-HSP990(HSP990) .cdx
 OpenBabel08302519583D

 46 49  0  0  0  0  0  0  0  0999 V2000
   -0.2428   -0.5125    1.0522 N   0  0  0  0  0  0  0  0  0  0  0  0
    0.5422    0.5851    1.0256 C   0  0  0  0  0  0  0  0  0  0  0  0
    0.9765    1.1488   -0.1592 C   0  0  0  0  0  0  0  0  0  0  0  0
    0.5918    0.5482   -1.3524 C   0  0  0  0  0  0  0  0  0  0  0  0
   -0.1801   -0.6117   -1.3212 C   0  0  0  0  0  0  0  0  0  0  0  0
   -0.5771   -1.1395   -0.0932 C   0  0  0  0  0  0  0  0  0  0  0  0
   -1.3376   -2.4161    0.0409 C   0  0  0  0  0  0  0  0  0  0  0  0
   -1.1919   -3.3413    1.1245 C   0  0  0  0  0  0  0  0  0  0  0  0
   -1.8540   -4.5945    1.0497 C   0  0  0  0  0  0  0  0  0  0  0  0
   -2.7023   -4.9159   -0.0060 C   0  0  0  0  0  0  0  0  0  0  0  0
   -2.9045   -3.9929   -1.0083 C   0  0  0  0  0  0  0  0  0  0  0  0
   -2.2364   -2.7715   -0.9926 C   0  0  0  0  0  0  0  0  0  0  0  0
   -3.7272   -4.2829   -2.0223 F   0  0  0  0  0  0  0  0  0  0  0  0
    0.8519    1.0211    2.2794 O   0  0  0  0  0  0  0  0  0  0  0  0
    1.7059    2.1489    2.3826 C   0  0  0  0  0  0  0  0  0  0  0  0
   -0.2933   -3.0680    2.3338 C   0  0  2  0  0  0  0  0  0  0  0  0
    1.0702   -3.4646    2.0515 N   0  0  0  0  0  0  0  0  0  0  0  0
    2.0555   -3.2878    2.9971 C   0  0  0  0  0  0  0  0  0  0  0  0
    1.6248   -3.2357    4.4217 C   0  0  0  0  0  0  0  0  0  0  0  0
    0.2837   -3.4367    4.7359 C   0  0  0  0  0  0  0  0  0  0  0  0
   -0.7500   -3.6747    3.6661 C   0  0  0  0  0  0  0  0  0  0  0  0
    2.4653   -3.0451    5.5098 C   0  0  0  0  0  0  0  0  0  0  0  0
    2.0030   -3.1161    6.7905 N   0  0  0  0  0  0  0  0  0  0  0  0
    0.7115   -3.3843    6.9822 C   0  0  0  0  0  0  0  0  0  0  0  0
   -0.1816   -3.5151    6.0061 N   0  0  0  0  0  0  0  0  0  0  0  0
    3.2212   -3.2128    2.6369 O   0  0  0  0  0  0  0  0  0  0  0  0
    3.9366   -2.7681    5.4405 C   0  0  0  0  0  0  0  0  0  0  0  0
    0.2647   -3.5245    8.2763 N   0  0  0  0  0  0  0  0  0  0  0  0
    1.6065    2.0282   -0.1895 H   0  0  0  0  0  0  0  0  0  0  0  0
    0.9102    0.9679   -2.3029 H   0  0  0  0  0  0  0  0  0  0  0  0
   -0.4360   -1.0945   -2.2589 H   0  0  0  0  0  0  0  0  0  0  0  0
   -1.7080   -5.3561    1.8120 H   0  0  0  0  0  0  0  0  0  0  0  0
   -3.2059   -5.8766   -0.0420 H   0  0  0  0  0  0  0  0  0  0  0  0
   -2.4413   -2.0918   -1.8167 H   0  0  0  0  0  0  0  0  0  0  0  0
    2.6906    1.9452    1.9487 H   0  0  0  0  0  0  0  0  0  0  0  0
    1.2464    3.0313    1.9262 H   0  0  0  0  0  0  0  0  0  0  0  0
    1.8501    2.3627    3.4462 H   0  0  0  0  0  0  0  0  0  0  0  0
   -0.2680   -2.0040    2.5555 H   0  0  0  0  0  0  0  0  0  0  0  0
    1.4120   -3.3452    1.1054 H   0  0  0  0  0  0  0  0  0  0  0  0
   -1.7038   -3.2199    3.9638 H   0  0  0  0  0  0  0  0  0  0  0  0
   -0.8956   -4.7569    3.6143 H   0  0  0  0  0  0  0  0  0  0  0  0
    4.1560   -1.8536    6.0029 H   0  0  0  0  0  0  0  0  0  0  0  0
    4.4847   -3.5949    5.9040 H   0  0  0  0  0  0  0  0  0  0  0  0
    4.3387   -2.6178    4.4417 H   0  0  0  0  0  0  0  0  0  0  0  0
   -0.7258   -3.3353    8.3252 H   0  0  0  0  0  0  0  0  0  0  0  0
    0.8736   -3.0326    8.9134 H   0  0  0  0  0  0  0  0  0  0  0  0
  1  2  2  0  0  0  0
  2  3  1  0  0  0  0
  2 14  1  0  0  0  0
  3  4  2  0  0  0  0
  3 29  1  0  0  0  0
  4  5  1  0  0  0  0
  4 30  1  0  0  0  0
  5  6  2  0  0  0  0
  5 31  1  0  0  0  0
  6  1  1  0  0  0  0
  6  7  1  0  0  0  0
  7  8  1  0  0  0  0
  8  9  2  0  0  0  0
  9 10  1  0  0  0  0
  9 32  1  0  0  0  0
 10 11  2  0  0  0  0
 10 33  1  0  0  0  0
 11 12  1  0  0  0  0
 11 13  1  0  0  0  0
 12  7  2  0  0  0  0
 12 34  1  0  0  0  0
 14 15  1  0  0  0  0
 15 35  1  0  0  0  0
 15 36  1  0  0  0  0
 15 37  1  0  0  0  0
 16  8  1  0  0  0  0
 16 17  1  0  0  0  0
 16 38  1  1  0  0  0
 17 18  1  0  0  0  0
 17 39  1  0  0  0  0
 18 19  1  0  0  0  0
 18 26  2  0  0  0  0
 19 20  2  0  0  0  0
 19 22  1  0  0  0  0
 20 21  1  0  0  0  0
 21 16  1  0  0  0  0
 21 40  1  0  0  0  0
 21 41  1  0  0  0  0
 22 23  2  0  0  0  0
 22 27  1  0  0  0  0
 23 24  1  0  0  0  0
 24 25  2  0  0  0  0
 24 28  1  0  0  0  0
 25 20  1  0  0  0  0
 27 42  1  0  0  0  0
 27 43  1  0  0  0  0
 27 44  1  0  0  0  0
 28 45  1  0  0  0  0
 28 46  1  0  0  0  0
M  END
>  <Mol_ID>
2460

>  <Formula>
C20H18FN5O2

>  <MolWeight>
379.3876232

>  <Cat>
S7097

>  <Name>
HSP990 (NVP-HSP990)

>  <Synonyms>
N/A

>  <Target>
Apoptosis related,HSP (HSP90)

>  <Form>
free base

>  <CAS>
934343-74-5

>  <URL>
http://selleckchem.com/products/hsp990-nvp-hsp990.html

$$$$
