NVP-BVU972.cdx
 OpenBabel08302521303D

 42 46  0  0  0  0  0  0  0  0999 V2000
    2.0568    0.9114    0.0556 C   0  0  0  0  0  0  0  0  0  0  0  0
    2.0508   -0.5754   -0.0012 C   0  0  0  0  0  0  0  0  0  0  0  0
    1.0042   -1.3414   -0.0527 N   0  0  0  0  0  0  0  0  0  0  0  0
   -0.1689   -0.6326   -0.0355 N   0  0  0  0  0  0  0  0  0  0  0  0
   -0.3094    0.7491   -0.0241 C   0  0  0  0  0  0  0  0  0  0  0  0
    0.8672    1.5249    0.0305 C   0  0  0  0  0  0  0  0  0  0  0  0
   -1.4415   -1.1545   -0.0404 C   0  0  0  0  0  0  0  0  0  0  0  0
   -2.2777   -0.0579   -0.0928 C   0  0  0  0  0  0  0  0  0  0  0  0
   -1.5712    1.1141   -0.0794 N   0  0  0  0  0  0  0  0  0  0  0  0
    3.3666   -1.1801   -0.0285 C   0  0  0  0  0  0  0  0  0  0  0  0
    3.7528   -2.4143   -0.6072 C   0  0  0  0  0  0  0  0  0  0  0  0
    5.0621   -2.6580   -0.4907 N   0  0  0  0  0  0  0  0  0  0  0  0
    5.5209   -1.5980    0.1938 N   0  0  0  0  0  0  0  0  0  0  0  0
    4.5483   -0.6919    0.5017 C   0  0  0  0  0  0  0  0  0  0  0  0
    6.9257   -1.5002    0.5103 C   0  0  0  0  0  0  0  0  0  0  0  0
   -1.7477   -2.6065   -0.0197 C   0  0  0  0  0  0  0  0  0  0  0  0
   -1.9309   -3.1593    1.3767 C   0  0  0  0  0  0  0  0  0  0  0  0
   -0.8459   -3.7040    2.0681 C   0  0  0  0  0  0  0  0  0  0  0  0
   -1.0227   -4.2599    3.3402 C   0  0  0  0  0  0  0  0  0  0  0  0
   -2.2613   -4.2830    3.9648 C   0  0  0  0  0  0  0  0  0  0  0  0
   -3.3557   -3.7034    3.2900 C   0  0  0  0  0  0  0  0  0  0  0  0
   -3.1836   -3.1440    2.0072 C   0  0  0  0  0  0  0  0  0  0  0  0
   -2.3800   -4.8526    5.1786 N   0  0  0  0  0  0  0  0  0  0  0  0
   -3.5991   -4.8589    5.7600 C   0  0  0  0  0  0  0  0  0  0  0  0
   -4.7280   -4.3040    5.1889 C   0  0  0  0  0  0  0  0  0  0  0  0
   -4.6017   -3.7165    3.9352 C   0  0  0  0  0  0  0  0  0  0  0  0
    2.9825    1.4682    0.0776 H   0  0  0  0  0  0  0  0  0  0  0  0
    0.7804    2.6046    0.0469 H   0  0  0  0  0  0  0  0  0  0  0  0
   -3.3594   -0.0548   -0.1348 H   0  0  0  0  0  0  0  0  0  0  0  0
    3.1309   -3.1300   -1.1312 H   0  0  0  0  0  0  0  0  0  0  0  0
    4.7756    0.2011    1.0665 H   0  0  0  0  0  0  0  0  0  0  0  0
    7.2322   -2.4136    1.0252 H   0  0  0  0  0  0  0  0  0  0  0  0
    7.4797   -1.3772   -0.4236 H   0  0  0  0  0  0  0  0  0  0  0  0
    7.0915   -0.6353    1.1581 H   0  0  0  0  0  0  0  0  0  0  0  0
   -2.6673   -2.7901   -0.5919 H   0  0  0  0  0  0  0  0  0  0  0  0
   -0.9718   -3.1794   -0.5430 H   0  0  0  0  0  0  0  0  0  0  0  0
    0.1457   -3.7106    1.6191 H   0  0  0  0  0  0  0  0  0  0  0  0
   -0.1694   -4.6943    3.8554 H   0  0  0  0  0  0  0  0  0  0  0  0
   -4.0373   -2.7069    1.4930 H   0  0  0  0  0  0  0  0  0  0  0  0
   -3.6422   -5.3379    6.7345 H   0  0  0  0  0  0  0  0  0  0  0  0
   -5.6813   -4.3302    5.7049 H   0  0  0  0  0  0  0  0  0  0  0  0
   -5.4752   -3.2740    3.4643 H   0  0  0  0  0  0  0  0  0  0  0  0
  1  2  1  0  0  0  0
  1 27  1  0  0  0  0
  2  3  2  0  0  0  0
  2 10  1  0  0  0  0
  3  4  1  0  0  0  0
  4  5  1  0  0  0  0
  4  7  1  0  0  0  0
  5  6  1  0  0  0  0
  6  1  2  0  0  0  0
  6 28  1  0  0  0  0
  7  8  2  0  0  0  0
  7 16  1  0  0  0  0
  8  9  1  0  0  0  0
  8 29  1  0  0  0  0
  9  5  2  0  0  0  0
 10 11  1  0  0  0  0
 11 12  2  0  0  0  0
 11 30  1  0  0  0  0
 12 13  1  0  0  0  0
 13 14  1  0  0  0  0
 13 15  1  0  0  0  0
 14 10  2  0  0  0  0
 14 31  1  0  0  0  0
 15 32  1  0  0  0  0
 15 33  1  0  0  0  0
 15 34  1  0  0  0  0
 16 17  1  0  0  0  0
 16 35  1  0  0  0  0
 16 36  1  0  0  0  0
 17 18  2  0  0  0  0
 18 19  1  0  0  0  0
 18 37  1  0  0  0  0
 19 20  2  0  0  0  0
 19 38  1  0  0  0  0
 20 21  1  0  0  0  0
 20 23  1  0  0  0  0
 21 22  2  0  0  0  0
 22 17  1  0  0  0  0
 22 39  1  0  0  0  0
 23 24  2  0  0  0  0
 24 25  1  0  0  0  0
 24 40  1  0  0  0  0
 25 26  2  0  0  0  0
 25 41  1  0  0  0  0
 26 21  1  0  0  0  0
 26 42  1  0  0  0  0
M  END
>  <Mol_ID>
541

>  <Formula>
C20H16N6

>  <MolWeight>
340.38124

>  <Cat>
S2761

>  <Name>
NVP-BVU972

>  <Synonyms>
N/A

>  <Target>
c-Met

>  <Form>
free base

>  <CAS>
1185763-69-2

>  <URL>
http://selleckchem.com/products/nvp-bvu972.html

$$$$
