NVP-TNKS656.cdx
 OpenBabel08302519593D

 70 74  0  0  0  0  0  0  0  0999 V2000
    4.1920   -7.4996    2.2659 O   0  0  0  0  0  0  0  0  0  0  0  0
    3.1725   -7.4778    1.2646 C   0  0  0  0  0  0  0  0  0  0  0  0
    2.5735   -6.0766    1.1597 C   0  0  0  0  0  0  0  0  0  0  0  0
    3.6537   -5.0332    1.0268 C   0  0  0  0  0  0  0  0  0  0  0  0
    4.9105   -5.3469    1.3793 C   0  0  0  0  0  0  0  0  0  0  0  0
    5.3205   -6.6864    1.9003 C   0  0  0  0  0  0  0  0  0  0  0  0
    3.2621   -3.8078    0.5409 N   0  0  0  0  0  0  0  0  0  0  0  0
    4.1686   -2.8830    0.4696 C   0  0  0  0  0  0  0  0  0  0  0  0
    5.4707   -3.0855    0.8364 N   0  0  0  0  0  0  0  0  0  0  0  0
    5.9363   -4.2952    1.2584 C   0  0  0  0  0  0  0  0  0  0  0  0
    7.1177   -4.5050    1.5122 O   0  0  0  0  0  0  0  0  0  0  0  0
    3.8012   -1.4700    0.0193 C   0  0  0  0  0  0  0  0  0  0  0  0
    4.4903   -1.0175   -1.1986 N   0  0  0  0  0  0  0  0  0  0  0  0
    5.7901   -0.5495   -1.0510 C   0  0  0  0  0  0  0  0  0  0  0  0
    3.8175   -1.2307   -2.4858 C   0  0  0  0  0  0  0  0  0  0  0  0
    2.5726   -0.3908   -2.6141 C   0  0  0  0  0  0  0  0  0  0  0  0
    1.7990   -0.4097   -3.9098 C   0  0  0  0  0  0  0  0  0  0  0  0
    2.5206    0.8388   -3.4871 C   0  0  0  0  0  0  0  0  0  0  0  0
    6.5804   -0.0478   -2.2648 C   0  0  0  0  0  0  0  0  0  0  0  0
    6.3371   -0.5612    0.0609 O   0  0  0  0  0  0  0  0  0  0  0  0
    6.9383   -1.1306   -3.2056 N   0  0  0  0  0  0  0  0  0  0  0  0
    7.7088   -0.5710   -4.3267 C   0  0  0  0  0  0  0  0  0  0  0  0
    7.9110   -1.6270   -5.4081 C   0  0  0  0  0  0  0  0  0  0  0  0
    8.6076   -2.8669   -4.8414 C   0  0  0  0  0  0  0  0  0  0  0  0
    7.8934   -3.3631   -3.5815 C   0  0  0  0  0  0  0  0  0  0  0  0
    7.6797   -2.2307   -2.5733 C   0  0  0  0  0  0  0  0  0  0  0  0
    8.6435   -3.9805   -5.8833 C   0  0  0  0  0  0  0  0  0  0  0  0
    9.7734   -4.9536   -5.8713 C   0  0  0  0  0  0  0  0  0  0  0  0
    7.7323   -4.1500   -6.6930 O   0  0  0  0  0  0  0  0  0  0  0  0
    9.5434   -6.2417   -6.3720 C   0  0  0  0  0  0  0  0  0  0  0  0
   10.5679   -7.1942   -6.3836 C   0  0  0  0  0  0  0  0  0  0  0  0
   11.8350   -6.8626   -5.9051 C   0  0  0  0  0  0  0  0  0  0  0  0
   12.0651   -5.5758   -5.4149 C   0  0  0  0  0  0  0  0  0  0  0  0
   11.0480   -4.6213   -5.3988 C   0  0  0  0  0  0  0  0  0  0  0  0
   12.9257   -7.6843   -5.8677 O   0  0  0  0  0  0  0  0  0  0  0  0
   12.7543   -9.0001   -6.3766 C   0  0  0  0  0  0  0  0  0  0  0  0
    3.5889   -7.8140    0.3070 H   0  0  0  0  0  0  0  0  0  0  0  0
    2.3969   -8.1932    1.5570 H   0  0  0  0  0  0  0  0  0  0  0  0
    1.8856   -6.0377    0.3084 H   0  0  0  0  0  0  0  0  0  0  0  0
    1.9976   -5.8559    2.0675 H   0  0  0  0  0  0  0  0  0  0  0  0
    5.9378   -6.5872    2.7991 H   0  0  0  0  0  0  0  0  0  0  0  0
    5.9047   -7.2263    1.1466 H   0  0  0  0  0  0  0  0  0  0  0  0
    6.1384   -2.3214    0.7608 H   0  0  0  0  0  0  0  0  0  0  0  0
    2.7187   -1.4269   -0.1199 H   0  0  0  0  0  0  0  0  0  0  0  0
    4.0464   -0.7854    0.8395 H   0  0  0  0  0  0  0  0  0  0  0  0
    4.4790   -1.0134   -3.3256 H   0  0  0  0  0  0  0  0  0  0  0  0
    3.5610   -2.2939   -2.5504 H   0  0  0  0  0  0  0  0  0  0  0  0
    1.9648   -0.3837   -1.7187 H   0  0  0  0  0  0  0  0  0  0  0  0
    2.1959   -0.9592   -4.7561 H   0  0  0  0  0  0  0  0  0  0  0  0
    0.7161   -0.4280   -3.8426 H   0  0  0  0  0  0  0  0  0  0  0  0
    1.9198    1.6753   -3.1461 H   0  0  0  0  0  0  0  0  0  0  0  0
    3.3968    1.1267   -4.0557 H   0  0  0  0  0  0  0  0  0  0  0  0
    5.9718    0.7141   -2.7664 H   0  0  0  0  0  0  0  0  0  0  0  0
    7.4822    0.4564   -1.8925 H   0  0  0  0  0  0  0  0  0  0  0  0
    8.6819   -0.1937   -3.9840 H   0  0  0  0  0  0  0  0  0  0  0  0
    7.1727    0.2751   -4.7730 H   0  0  0  0  0  0  0  0  0  0  0  0
    8.5130   -1.2087   -6.2247 H   0  0  0  0  0  0  0  0  0  0  0  0
    6.9378   -1.8891   -5.8414 H   0  0  0  0  0  0  0  0  0  0  0  0
    9.6202   -2.5594   -4.5692 H   0  0  0  0  0  0  0  0  0  0  0  0
    6.9216   -3.8021   -3.8477 H   0  0  0  0  0  0  0  0  0  0  0  0
    8.4730   -4.1669   -3.1111 H   0  0  0  0  0  0  0  0  0  0  0  0
    7.1178   -2.6501   -1.7320 H   0  0  0  0  0  0  0  0  0  0  0  0
    8.6451   -1.8857   -2.1811 H   0  0  0  0  0  0  0  0  0  0  0  0
    8.5608   -6.5108   -6.7564 H   0  0  0  0  0  0  0  0  0  0  0  0
   10.3416   -8.1800   -6.7762 H   0  0  0  0  0  0  0  0  0  0  0  0
   13.0554   -5.3113   -5.0483 H   0  0  0  0  0  0  0  0  0  0  0  0
   11.2895   -3.6293   -5.0380 H   0  0  0  0  0  0  0  0  0  0  0  0
   12.0564   -9.5698   -5.7548 H   0  0  0  0  0  0  0  0  0  0  0  0
   12.4316   -8.9840   -7.4227 H   0  0  0  0  0  0  0  0  0  0  0  0
   13.7262   -9.5009   -6.3377 H   0  0  0  0  0  0  0  0  0  0  0  0
  1  2  1  0  0  0  0
  2  3  1  0  0  0  0
  2 37  1  0  0  0  0
  2 38  1  0  0  0  0
  3  4  1  0  0  0  0
  3 39  1  0  0  0  0
  3 40  1  0  0  0  0
  4  5  2  0  0  0  0
  4  7  1  0  0  0  0
  5  6  1  0  0  0  0
  6  1  1  0  0  0  0
  6 41  1  0  0  0  0
  6 42  1  0  0  0  0
  7  8  2  0  0  0  0
  8  9  1  0  0  0  0
  8 12  1  0  0  0  0
  9 10  1  0  0  0  0
  9 43  1  0  0  0  0
 10  5  1  0  0  0  0
 10 11  2  0  0  0  0
 12 13  1  0  0  0  0
 12 44  1  0  0  0  0
 12 45  1  0  0  0  0
 13 14  1  0  0  0  0
 13 15  1  0  0  0  0
 14 19  1  0  0  0  0
 14 20  2  0  0  0  0
 15 16  1  0  0  0  0
 15 46  1  0  0  0  0
 15 47  1  0  0  0  0
 16 17  1  0  0  0  0
 16 48  1  0  0  0  0
 17 18  1  0  0  0  0
 17 49  1  0  0  0  0
 17 50  1  0  0  0  0
 18 16  1  0  0  0  0
 18 51  1  0  0  0  0
 18 52  1  0  0  0  0
 19 21  1  0  0  0  0
 19 53  1  0  0  0  0
 19 54  1  0  0  0  0
 21 22  1  0  0  0  0
 22 23  1  0  0  0  0
 22 55  1  0  0  0  0
 22 56  1  0  0  0  0
 23 24  1  0  0  0  0
 23 57  1  0  0  0  0
 23 58  1  0  0  0  0
 24 25  1  0  0  0  0
 24 27  1  0  0  0  0
 24 59  1  0  0  0  0
 25 26  1  0  0  0  0
 25 60  1  0  0  0  0
 25 61  1  0  0  0  0
 26 21  1  0  0  0  0
 26 62  1  0  0  0  0
 26 63  1  0  0  0  0
 27 28  1  0  0  0  0
 27 29  2  0  0  0  0
 28 30  2  0  0  0  0
 30 31  1  0  0  0  0
 30 64  1  0  0  0  0
 31 32  2  0  0  0  0
 31 65  1  0  0  0  0
 32 33  1  0  0  0  0
 32 35  1  0  0  0  0
 33 34  2  0  0  0  0
 33 66  1  0  0  0  0
 34 28  1  0  0  0  0
 34 67  1  0  0  0  0
 35 36  1  0  0  0  0
 36 68  1  0  0  0  0
 36 69  1  0  0  0  0
 36 70  1  0  0  0  0
M  END
>  <Mol_ID>
2641

>  <Formula>
C27H34N4O5

>  <MolWeight>
494.58266

>  <Cat>
S7238

>  <Name>
NVP-TNKS656

>  <Synonyms>
N/A

>  <Target>
PARP

>  <Form>
free base

>  <CAS>
1419949-20-4

>  <URL>
http://selleckchem.com/products/nvp-tnks656.html

$$$$
