NVP-TAE226.cdx
 OpenBabel08302521323D

 58 61  0  0  0  0  0  0  0  0999 V2000
    1.4302   -0.3402    0.1110 C   0  0  0  0  0  0  0  0  0  0  0  0
    0.4657   -1.1914    0.6693 C   0  0  0  0  0  0  0  0  0  0  0  0
   -0.9092   -0.9100    0.5881 C   0  0  0  0  0  0  0  0  0  0  0  0
   -1.3478    0.2435   -0.0866 C   0  0  0  0  0  0  0  0  0  0  0  0
   -0.3903    1.0981   -0.6390 C   0  0  0  0  0  0  0  0  0  0  0  0
    0.9699    0.8130   -0.5325 C   0  0  0  0  0  0  0  0  0  0  0  0
   -1.8999   -1.6880    1.1447 O   0  0  0  0  0  0  0  0  0  0  0  0
   -1.4766   -2.8194    1.8984 C   0  0  0  0  0  0  0  0  0  0  0  0
   -2.7198    0.4933   -0.2715 N   0  0  0  0  0  0  0  0  0  0  0  0
   -3.3737    1.7241   -0.3071 C   0  0  0  0  0  0  0  0  0  0  0  0
   -4.5732    1.7578   -0.9010 N   0  0  0  0  0  0  0  0  0  0  0  0
   -5.2121    2.9376   -0.9923 C   0  0  0  0  0  0  0  0  0  0  0  0
   -4.7385    4.0640   -0.3561 C   0  0  0  0  0  0  0  0  0  0  0  0
   -3.5249    3.9339    0.2671 C   0  0  0  0  0  0  0  0  0  0  0  0
   -2.8169    2.7967    0.2735 N   0  0  0  0  0  0  0  0  0  0  0  0
   -6.4263    3.0455   -1.7224 N   0  0  0  0  0  0  0  0  0  0  0  0
   -6.7573    2.3454   -2.9213 C   0  0  0  0  0  0  0  0  0  0  0  0
   -8.0332    2.4448   -3.5257 C   0  0  0  0  0  0  0  0  0  0  0  0
   -8.3099    1.7230   -4.7039 C   0  0  0  0  0  0  0  0  0  0  0  0
   -7.3264    0.9428   -5.3128 C   0  0  0  0  0  0  0  0  0  0  0  0
   -6.0534    0.8970   -4.7680 C   0  0  0  0  0  0  0  0  0  0  0  0
   -5.7747    1.6112   -3.6040 C   0  0  0  0  0  0  0  0  0  0  0  0
   -9.1439    3.3114   -3.0148 C   0  0  0  0  0  0  0  0  0  0  0  0
   -8.7677    4.5057   -2.4314 N   0  0  0  0  0  0  0  0  0  0  0  0
  -10.3063    2.9727   -3.1558 O   0  0  0  0  0  0  0  0  0  0  0  0
   -9.7165    5.4587   -1.9120 C   0  0  0  0  0  0  0  0  0  0  0  0
    2.7810   -0.6151    0.1535 N   0  0  0  0  0  0  0  0  0  0  0  0
    3.3305   -1.9764    0.1774 C   0  0  0  0  0  0  0  0  0  0  0  0
    4.0771   -2.2311    1.4934 C   0  0  0  0  0  0  0  0  0  0  0  0
    5.0716   -1.2230    1.7430 O   0  0  0  0  0  0  0  0  0  0  0  0
    4.4560    0.0742    1.8179 C   0  0  0  0  0  0  0  0  0  0  0  0
    3.7413    0.4419    0.5079 C   0  0  0  0  0  0  0  0  0  0  0  0
    0.8078   -2.0733    1.1956 H   0  0  0  0  0  0  0  0  0  0  0  0
   -0.6962    1.9801   -1.1955 H   0  0  0  0  0  0  0  0  0  0  0  0
    1.6713    1.4859   -1.0183 H   0  0  0  0  0  0  0  0  0  0  0  0
   -1.0143   -3.5667    1.2449 H   0  0  0  0  0  0  0  0  0  0  0  0
   -0.8008   -2.5346    2.7128 H   0  0  0  0  0  0  0  0  0  0  0  0
   -2.3612   -3.2741    2.3540 H   0  0  0  0  0  0  0  0  0  0  0  0
   -3.3256   -0.2105    0.1295 H   0  0  0  0  0  0  0  0  0  0  0  0
   -5.2590    5.0102   -0.3857 H   0  0  0  0  0  0  0  0  0  0  0  0
   -3.0629    4.7645    0.7913 H   0  0  0  0  0  0  0  0  0  0  0  0
   -7.1971    2.9754   -1.0561 H   0  0  0  0  0  0  0  0  0  0  0  0
   -9.2969    1.7774   -5.1612 H   0  0  0  0  0  0  0  0  0  0  0  0
   -7.5454    0.3806   -6.2169 H   0  0  0  0  0  0  0  0  0  0  0  0
   -5.2681    0.3040   -5.2279 H   0  0  0  0  0  0  0  0  0  0  0  0
   -4.7573    1.5477   -3.2282 H   0  0  0  0  0  0  0  0  0  0  0  0
   -7.7786    4.7289   -2.3991 H   0  0  0  0  0  0  0  0  0  0  0  0
   -9.7722    5.3265   -0.8281 H   0  0  0  0  0  0  0  0  0  0  0  0
   -9.3562    6.4662   -2.1324 H   0  0  0  0  0  0  0  0  0  0  0  0
  -10.7099    5.3195   -2.3461 H   0  0  0  0  0  0  0  0  0  0  0  0
    4.0396   -2.0581   -0.6551 H   0  0  0  0  0  0  0  0  0  0  0  0
    2.5706   -2.7480    0.0130 H   0  0  0  0  0  0  0  0  0  0  0  0
    3.3837   -2.2643    2.3417 H   0  0  0  0  0  0  0  0  0  0  0  0
    4.5920   -3.1958    1.4437 H   0  0  0  0  0  0  0  0  0  0  0  0
    5.2436    0.8049    2.0265 H   0  0  0  0  0  0  0  0  0  0  0  0
    3.7567    0.0860    2.6628 H   0  0  0  0  0  0  0  0  0  0  0  0
    4.4735    0.5245   -0.3032 H   0  0  0  0  0  0  0  0  0  0  0  0
    3.2699    1.4232    0.6334 H   0  0  0  0  0  0  0  0  0  0  0  0
  1  2  2  0  0  0  0
  1 27  1  0  0  0  0
  2  3  1  0  0  0  0
  2 33  1  0  0  0  0
  3  4  2  0  0  0  0
  3  7  1  0  0  0  0
  4  5  1  0  0  0  0
  4  9  1  0  0  0  0
  5  6  2  0  0  0  0
  5 34  1  0  0  0  0
  6  1  1  0  0  0  0
  6 35  1  0  0  0  0
  7  8  1  0  0  0  0
  8 36  1  0  0  0  0
  8 37  1  0  0  0  0
  8 38  1  0  0  0  0
  9 10  1  0  0  0  0
  9 39  1  0  0  0  0
 10 11  2  0  0  0  0
 11 12  1  0  0  0  0
 12 13  2  0  0  0  0
 12 16  1  0  0  0  0
 13 14  1  0  0  0  0
 13 40  1  0  0  0  0
 14 15  2  0  0  0  0
 14 41  1  0  0  0  0
 15 10  1  0  0  0  0
 16 17  1  0  0  0  0
 16 42  1  0  0  0  0
 17 18  2  0  0  0  0
 18 19  1  0  0  0  0
 18 23  1  0  0  0  0
 19 20  2  0  0  0  0
 19 43  1  0  0  0  0
 20 21  1  0  0  0  0
 20 44  1  0  0  0  0
 21 22  2  0  0  0  0
 21 45  1  0  0  0  0
 22 17  1  0  0  0  0
 22 46  1  0  0  0  0
 23 24  1  0  0  0  0
 23 25  2  0  0  0  0
 24 26  1  0  0  0  0
 24 47  1  0  0  0  0
 26 48  1  0  0  0  0
 26 49  1  0  0  0  0
 26 50  1  0  0  0  0
 27 28  1  0  0  0  0
 28 29  1  0  0  0  0
 28 51  1  0  0  0  0
 28 52  1  0  0  0  0
 29 30  1  0  0  0  0
 29 53  1  0  0  0  0
 29 54  1  0  0  0  0
 30 31  1  0  0  0  0
 31 32  1  0  0  0  0
 31 55  1  0  0  0  0
 31 56  1  0  0  0  0
 32 27  1  0  0  0  0
 32 57  1  0  0  0  0
 32 58  1  0  0  0  0
M  END
>  <Mol_ID>
591

>  <Formula>
C23H25ClN6O3

>  <MolWeight>
468.936

>  <Cat>
S2820

>  <Name>
TAE226 (NVP-TAE226)

>  <Synonyms>
N/A

>  <Target>
Apoptosis related,FAK,Pyk2

>  <Form>
free base

>  <CAS>
761437-28-9

>  <URL>
http://selleckchem.com/products/nvp-tae226.html

$$$$
