Nxy-059.cdx
 OpenBabel08302519553D

 34 34  0  0  0  0  0  0  0  0999 V2000
    1.3258   -0.0940   -0.1446 C   0  0  0  0  0  0  0  0  0  0  0  0
    0.4456   -1.1637    0.0993 C   0  0  0  0  0  0  0  0  0  0  0  0
   -0.9339   -0.9773    0.0989 C   0  0  0  0  0  0  0  0  0  0  0  0
   -1.4563    0.3006   -0.0929 C   0  0  0  0  0  0  0  0  0  0  0  0
   -0.6065    1.3968   -0.2892 C   0  0  0  0  0  0  0  0  0  0  0  0
    0.7895    1.1952   -0.3208 C   0  0  0  0  0  0  0  0  0  0  0  0
    1.8701    2.6018   -0.6842 S   0  0  0  0  0  0  0  0  0  0  0  0
   -3.2582    0.5201   -0.1176 S   0  0  0  0  0  0  0  0  0  0  0  0
    2.7801   -0.3789   -0.1138 C   0  0  0  0  0  0  0  0  0  0  0  0
    3.3291   -1.4745   -0.6090 N   0  3  0  0  0  0  0  0  0  0  0  0
    4.8038   -1.7942   -0.4600 C   0  0  0  0  0  0  0  0  0  0  0  0
    5.1294   -1.8784    1.0330 C   0  0  0  0  0  0  0  0  0  0  0  0
    5.0698   -3.1677   -1.1058 C   0  0  0  0  0  0  0  0  0  0  0  0
    5.6133   -0.7166   -1.1758 C   0  0  0  0  0  0  0  0  0  0  0  0
    2.6150   -2.3437   -1.2253 O   0  5  0  0  0  0  0  0  0  0  0  0
    2.6246    2.7579    0.5583 O   0  0  0  0  0  0  0  0  0  0  0  0
    2.6541    2.1314   -1.8267 O   0  0  0  0  0  0  0  0  0  0  0  0
    0.9611    3.7093   -0.9850 O   0  5  0  0  0  0  0  0  0  0  0  0
   -3.4948    1.3293    1.0774 O   0  5  0  0  0  0  0  0  0  0  0  0
   -3.4945    1.1857   -1.3945 O   0  0  0  0  0  0  0  0  0  0  0  0
   -3.7777   -0.8435   -0.0363 O   0  0  0  0  0  0  0  0  0  0  0  0
    0.8191   -2.1671    0.2768 H   0  0  0  0  0  0  0  0  0  0  0  0
   -1.5957   -1.8266    0.2396 H   0  0  0  0  0  0  0  0  0  0  0  0
   -1.0344    2.3868   -0.4319 H   0  0  0  0  0  0  0  0  0  0  0  0
    3.4542    0.3555    0.3476 H   0  0  0  0  0  0  0  0  0  0  0  0
    4.4984   -2.6203    1.5366 H   0  0  0  0  0  0  0  0  0  0  0  0
    6.1743   -2.1749    1.1842 H   0  0  0  0  0  0  0  0  0  0  0  0
    4.9863   -0.9220    1.5463 H   0  0  0  0  0  0  0  0  0  0  0  0
    4.7946   -3.1771   -2.1674 H   0  0  0  0  0  0  0  0  0  0  0  0
    6.1289   -3.4406   -1.0392 H   0  0  0  0  0  0  0  0  0  0  0  0
    4.4979   -3.9608   -0.6074 H   0  0  0  0  0  0  0  0  0  0  0  0
    5.2543   -0.5603   -2.1988 H   0  0  0  0  0  0  0  0  0  0  0  0
    5.5673    0.2448   -0.6544 H   0  0  0  0  0  0  0  0  0  0  0  0
    6.6702   -1.0030   -1.2324 H   0  0  0  0  0  0  0  0  0  0  0  0
  1  2  2  0  0  0  0
  1  9  1  0  0  0  0
  2  3  1  0  0  0  0
  2 22  1  0  0  0  0
  3  4  2  0  0  0  0
  3 23  1  0  0  0  0
  4  5  1  0  0  0  0
  4  8  1  0  0  0  0
  5  6  2  0  0  0  0
  5 24  1  0  0  0  0
  6  1  1  0  0  0  0
  6  7  1  0  0  0  0
  7 16  2  0  0  0  0
  7 17  2  0  0  0  0
  7 18  1  0  0  0  0
  8 19  1  0  0  0  0
  8 20  2  0  0  0  0
  8 21  2  0  0  0  0
  9 10  2  0  0  0  0
  9 25  1  0  0  0  0
 10 11  1  0  0  0  0
 10 15  1  0  0  0  0
 11 12  1  0  0  0  0
 11 13  1  0  0  0  0
 11 14  1  0  0  0  0
 12 26  1  0  0  0  0
 12 27  1  0  0  0  0
 12 28  1  0  0  0  0
 13 29  1  0  0  0  0
 13 30  1  0  0  0  0
 13 31  1  0  0  0  0
 14 32  1  0  0  0  0
 14 33  1  0  0  0  0
 14 34  1  0  0  0  0
M  CHG  4  10   1  15  -1  18  -1  19  -1
M  END
>  <Mol_ID>
2152

>  <Formula>
C11H13NNa2O7S2

>  <MolWeight>
381.33296

>  <Cat>
S6002

>  <Name>
Disufenton sodium

>  <Synonyms>
NXY-059, Cerovive

>  <Target>
Others

>  <Form>
Disodium salt

>  <CAS>
168021-79-2

>  <URL>
http://selleckchem.com/products/NXY-059.html

$$$$
