O-304
 OpenBabel08302521283D

 35 37  0  0  0  0  0  0  0  0999 V2000
   -0.3605   -1.5146   -0.2953 S   0  0  0  0  0  0  0  0  0  0  0  0
    1.6104    1.4741    0.7605 O   0  0  0  0  0  0  0  0  0  0  0  0
   -3.1442   -2.1574   -0.8431 O   0  0  0  0  0  0  0  0  0  0  0  0
    1.0374   -0.6387    0.0513 N   0  0  0  0  0  0  0  0  0  0  0  0
   -2.6484   -0.0194   -0.1030 N   0  0  0  0  0  0  0  0  0  0  0  0
   -0.5997    0.9627    0.3783 N   0  0  0  0  0  0  0  0  0  0  0  0
    2.3496   -1.2379    0.0240 C   0  0  0  0  0  0  0  0  0  0  0  0
    2.9661   -1.2665   -1.3566 C   0  0  0  0  0  0  0  0  0  0  0  0
    3.7428   -0.1901   -1.8068 C   0  0  0  0  0  0  0  0  0  0  0  0
    2.7761   -2.3658   -2.2088 C   0  0  0  0  0  0  0  0  0  0  0  0
    0.7593    0.6654    0.4190 C   0  0  0  0  0  0  0  0  0  0  0  0
   -1.2823   -0.0747    0.0178 C   0  0  0  0  0  0  0  0  0  0  0  0
    4.3400   -0.2249   -3.0685 C   0  0  0  0  0  0  0  0  0  0  0  0
    3.3733   -2.3978   -3.4712 C   0  0  0  0  0  0  0  0  0  0  0  0
   -4.9561   -0.7373   -0.5587 C   0  0  0  0  0  0  0  0  0  0  0  0
   -3.5003   -1.0342   -0.5067 C   0  0  0  0  0  0  0  0  0  0  0  0
    4.1592   -1.3297   -3.8988 C   0  0  0  0  0  0  0  0  0  0  0  0
   -5.5884    0.1609    0.3070 C   0  0  0  0  0  0  0  0  0  0  0  0
   -5.7253   -1.4820   -1.4682 C   0  0  0  0  0  0  0  0  0  0  0  0
   -6.9812    0.2949    0.2661 C   0  0  0  0  0  0  0  0  0  0  0  0
   -7.1109   -1.3408   -1.5079 C   0  0  0  0  0  0  0  0  0  0  0  0
   -7.7390   -0.4575   -0.6350 C   0  0  0  0  0  0  0  0  0  0  0  0
   -3.0259    0.9002    0.0767 H   0  0  0  0  0  0  0  0  0  0  0  0
    3.0122   -0.6894    0.7048 H   0  0  0  0  0  0  0  0  0  0  0  0
    2.2844   -2.2589    0.4237 H   0  0  0  0  0  0  0  0  0  0  0  0
    3.8942    0.6808   -1.1709 H   0  0  0  0  0  0  0  0  0  0  0  0
    2.1646   -3.2093   -1.8938 H   0  0  0  0  0  0  0  0  0  0  0  0
    4.9503    0.6106   -3.4024 H   0  0  0  0  0  0  0  0  0  0  0  0
    3.2277   -3.2578   -4.1205 H   0  0  0  0  0  0  0  0  0  0  0  0
    4.6284   -1.3566   -4.8787 H   0  0  0  0  0  0  0  0  0  0  0  0
   -5.0341    0.7252    1.0506 H   0  0  0  0  0  0  0  0  0  0  0  0
   -5.2450   -2.1948   -2.1367 H   0  0  0  0  0  0  0  0  0  0  0  0
   -7.4845    0.9694    0.9548 H   0  0  0  0  0  0  0  0  0  0  0  0
   -7.6964   -1.9356   -2.2056 H   0  0  0  0  0  0  0  0  0  0  0  0
   -8.8226   -0.3664   -0.6468 H   0  0  0  0  0  0  0  0  0  0  0  0
  1  4  1  0  0  0  0
  1 12  1  0  0  0  0
  2 11  2  0  0  0  0
  3 16  2  0  0  0  0
  4  7  1  0  0  0  0
  4 11  1  0  0  0  0
  5 12  1  0  0  0  0
  5 16  1  0  0  0  0
  5 23  1  0  0  0  0
  6 11  1  0  0  0  0
  6 12  2  0  0  0  0
  7  8  1  0  0  0  0
  7 24  1  0  0  0  0
  7 25  1  0  0  0  0
  8  9  2  0  0  0  0
  8 10  1  0  0  0  0
  9 13  1  0  0  0  0
  9 26  1  0  0  0  0
 10 14  2  0  0  0  0
 10 27  1  0  0  0  0
 13 17  2  0  0  0  0
 13 28  1  0  0  0  0
 14 17  1  0  0  0  0
 14 29  1  0  0  0  0
 15 16  1  0  0  0  0
 15 18  2  0  0  0  0
 15 19  1  0  0  0  0
 17 30  1  0  0  0  0
 18 20  1  0  0  0  0
 18 31  1  0  0  0  0
 19 21  2  0  0  0  0
 19 32  1  0  0  0  0
 20 22  2  0  0  0  0
 20 33  1  0  0  0  0
 21 22  1  0  0  0  0
 21 34  1  0  0  0  0
 22 35  1  0  0  0  0
M  END
>  <Mol_ID>
5397

>  <Formula>
C16H11Cl2N3O2S

>  <MolWeight>
380.24844

>  <Cat>
S0795

>  <Name>
O-304

>  <Synonyms>
O-304X

>  <Target>
AMPK

>  <Form>
Free Base

>  <CAS>
1261289-04-6

>  <URL>
https://www.selleckchem.com/products/o-304.html

$$$$
