O-Acetyl-L-serine hydrochloride
 OpenBabel08302521303D

 19 18  0  0  0  0  0  0  0  0999 V2000
    0.6356   -3.0187    2.5762 C   0  0  0  0  0  0  0  0  0  0  0  0
    0.1426   -1.6646    2.9919 C   0  0  0  0  0  0  0  0  0  0  0  0
    0.0722   -0.8298    1.9231 O   0  0  0  0  0  0  0  0  0  0  0  0
   -0.1355   -1.3592    4.1422 O   0  0  0  0  0  0  0  0  0  0  0  0
   -0.3964    0.5014    2.1929 C   0  0  0  0  0  0  0  0  0  0  0  0
    0.6989    1.4235    2.7502 C   0  0  1  0  0  0  0  0  0  0  0  0
    1.8699    1.4780    1.7570 C   0  0  0  0  0  0  0  0  0  0  0  0
    1.8387    2.5526    0.9309 O   0  0  0  0  0  0  0  0  0  0  0  0
    2.7513    0.6341    1.6841 O   0  0  0  0  0  0  0  0  0  0  0  0
    0.1651    2.7772    3.0339 N   0  0  0  0  0  0  0  0  0  0  0  0
    0.5289   -3.1529    1.4956 H   0  0  0  0  0  0  0  0  0  0  0  0
    0.0331   -3.7877    3.0671 H   0  0  0  0  0  0  0  0  0  0  0  0
    1.6871   -3.1248    2.8513 H   0  0  0  0  0  0  0  0  0  0  0  0
   -0.7661    0.8925    1.2375 H   0  0  0  0  0  0  0  0  0  0  0  0
   -1.2603    0.4631    2.8692 H   0  0  0  0  0  0  0  0  0  0  0  0
    1.1062    1.0268    3.6865 H   0  0  0  0  0  0  0  0  0  0  0  0
    1.0850    3.1336    1.1378 H   0  0  0  0  0  0  0  0  0  0  0  0
    0.8994    3.4367    3.2862 H   0  0  0  0  0  0  0  0  0  0  0  0
   -0.4788    3.1436    2.3415 H   0  0  0  0  0  0  0  0  0  0  0  0
  1  2  1  0  0  0  0
  1 11  1  0  0  0  0
  1 12  1  0  0  0  0
  1 13  1  0  0  0  0
  2  3  1  0  0  0  0
  2  4  2  0  0  0  0
  3  5  1  0  0  0  0
  5  6  1  0  0  0  0
  5 14  1  0  0  0  0
  5 15  1  0  0  0  0
  6  7  1  0  0  0  0
  6 10  1  0  0  0  0
  6 16  1  1  0  0  0
  7  8  1  0  0  0  0
  7  9  2  0  0  0  0
  8 17  1  0  0  0  0
 10 18  1  0  0  0  0
 10 19  1  0  0  0  0
M  END
>  <Mol_ID>
5506

>  <Formula>
C5H10ClNO4

>  <MolWeight>
183.5902

>  <Cat>
S3348

>  <Name>
O-Acetyl-L-serine hydrochloride

>  <Synonyms>
OAS HCl, O-Acetylserine HCl, O-Acetyl-L-serine HCl

>  <Target>
Others

>  <Form>
Hydrochloride

>  <CAS>
66638-22-0

>  <URL>
https://www.selleckchem.com/products/o-acetyl-l-serine-hydrochloride.html

$$$$
