O-Phosphoethanolamine
 OpenBabel08302521383D

 16 15  0  0  0  0  0  0  0  0999 V2000
    0.9303   -0.1385    0.0081 O   0  0  0  0  0  0  0  0  0  0  0  0
    0.3119    1.0958   -0.7889 P   0  0  0  0  0  0  0  0  0  0  0  0
    2.3459   -0.1578    0.1510 C   0  0  0  0  0  0  0  0  0  0  0  0
   -1.2672    0.9043   -0.6510 O   0  0  0  0  0  0  0  0  0  0  0  0
    0.5928    2.3536    0.1536 O   0  0  0  0  0  0  0  0  0  0  0  0
    0.7690    1.2977   -2.1907 O   0  0  0  0  0  0  0  0  0  0  0  0
    2.7185   -1.1092    1.2880 C   0  0  0  0  0  0  0  0  0  0  0  0
    2.2759   -2.4770    1.0047 N   0  0  0  0  0  0  0  0  0  0  0  0
    2.7991   -0.4725   -0.7952 H   0  0  0  0  0  0  0  0  0  0  0  0
    2.7096    0.8475    0.3913 H   0  0  0  0  0  0  0  0  0  0  0  0
   -1.6014    0.2636   -1.3004 H   0  0  0  0  0  0  0  0  0  0  0  0
    0.5049    3.1831   -0.3475 H   0  0  0  0  0  0  0  0  0  0  0  0
    3.8018   -1.1032    1.4436 H   0  0  0  0  0  0  0  0  0  0  0  0
    2.2356   -0.7755    2.2133 H   0  0  0  0  0  0  0  0  0  0  0  0
    2.3737   -3.0422    1.8465 H   0  0  0  0  0  0  0  0  0  0  0  0
    1.2752   -2.4427    0.7990 H   0  0  0  0  0  0  0  0  0  0  0  0
  1  2  1  0  0  0  0
  1  3  1  0  0  0  0
  2  4  1  0  0  0  0
  2  5  1  0  0  0  0
  2  6  2  0  0  0  0
  3  7  1  0  0  0  0
  3  9  1  0  0  0  0
  3 10  1  0  0  0  0
  4 11  1  0  0  0  0
  5 12  1  0  0  0  0
  7  8  1  0  0  0  0
  7 13  1  0  0  0  0
  7 14  1  0  0  0  0
  8 15  1  0  0  0  0
  8 16  1  0  0  0  0
M  END
>  <Mol_ID>
7932

>  <Formula>
C2H8NO4P

>  <MolWeight>
141.062981

>  <Cat>
S6483

>  <Name>
O-Phosphoethanolamine

>  <Synonyms>
N/A

>  <Target>
Others

>  <Form>
Free Base

>  <CAS>
1071-23-4

>  <URL>
http://www.selleck.cn/products/o-phosphoethanolamine.html

$$$$
