O4I2.cdx
 OpenBabel08302519593D

 29 30  0  0  0  0  0  0  0  0999 V2000
    0.4405    0.7323   -2.9199 C   0  0  0  0  0  0  0  0  0  0  0  0
    0.0210   -0.5640   -2.6461 C   0  0  0  0  0  0  0  0  0  0  0  0
   -0.7726   -0.8075   -1.5292 C   0  0  0  0  0  0  0  0  0  0  0  0
   -1.1117    0.2368   -0.6614 C   0  0  0  0  0  0  0  0  0  0  0  0
   -0.6488    1.5426   -0.8879 C   0  0  0  0  0  0  0  0  0  0  0  0
    0.0878    1.7727   -2.0599 C   0  0  0  0  0  0  0  0  0  0  0  0
   -0.9286    2.5478    0.0706 N   0  0  0  0  0  0  0  0  0  0  0  0
   -0.1427    3.6369    0.2707 C   0  0  0  0  0  0  0  0  0  0  0  0
    0.5848    4.2370   -0.6384 N   0  0  0  0  0  0  0  0  0  0  0  0
    1.4458    5.1730   -0.0888 C   0  0  0  0  0  0  0  0  0  0  0  0
    1.2780    5.3459    1.2713 C   0  0  0  0  0  0  0  0  0  0  0  0
    0.0176    4.3290    1.8455 S   0  0  0  0  0  0  0  0  0  0  0  0
    2.4484    5.8498   -0.9134 C   0  0  0  0  0  0  0  0  0  0  0  0
    2.3655    5.4731   -2.2238 O   0  0  0  0  0  0  0  0  0  0  0  0
    3.2731    6.6407   -0.4638 O   0  0  0  0  0  0  0  0  0  0  0  0
    3.3638    5.9892   -3.1121 C   0  0  0  0  0  0  0  0  0  0  0  0
    2.9382    7.3333   -3.6695 C   0  0  0  0  0  0  0  0  0  0  0  0
    1.0502    0.9451   -3.7939 H   0  0  0  0  0  0  0  0  0  0  0  0
    0.3122   -1.3763   -3.3043 H   0  0  0  0  0  0  0  0  0  0  0  0
   -1.1153   -1.8169   -1.3197 H   0  0  0  0  0  0  0  0  0  0  0  0
   -1.7185    0.0093    0.2098 H   0  0  0  0  0  0  0  0  0  0  0  0
    0.4201    2.7710   -2.3288 H   0  0  0  0  0  0  0  0  0  0  0  0
   -1.3910    2.1865    0.8954 H   0  0  0  0  0  0  0  0  0  0  0  0
    1.8263    5.9968    1.9372 H   0  0  0  0  0  0  0  0  0  0  0  0
    4.3386    6.0490   -2.6157 H   0  0  0  0  0  0  0  0  0  0  0  0
    3.4654    5.2706   -3.9326 H   0  0  0  0  0  0  0  0  0  0  0  0
    2.6867    8.0352   -2.8691 H   0  0  0  0  0  0  0  0  0  0  0  0
    3.7337    7.7654   -4.2837 H   0  0  0  0  0  0  0  0  0  0  0  0
    2.0429    7.2227   -4.2907 H   0  0  0  0  0  0  0  0  0  0  0  0
  1  2  2  0  0  0  0
  1 18  1  0  0  0  0
  2  3  1  0  0  0  0
  2 19  1  0  0  0  0
  3  4  2  0  0  0  0
  3 20  1  0  0  0  0
  4  5  1  0  0  0  0
  4 21  1  0  0  0  0
  5  6  2  0  0  0  0
  5  7  1  0  0  0  0
  6  1  1  0  0  0  0
  6 22  1  0  0  0  0
  7  8  1  0  0  0  0
  7 23  1  0  0  0  0
  8  9  2  0  0  0  0
  9 10  1  0  0  0  0
 10 11  2  0  0  0  0
 10 13  1  0  0  0  0
 11 12  1  0  0  0  0
 11 24  1  0  0  0  0
 12  8  1  0  0  0  0
 13 14  1  0  0  0  0
 13 15  2  0  0  0  0
 14 16  1  0  0  0  0
 16 17  1  0  0  0  0
 16 25  1  0  0  0  0
 16 26  1  0  0  0  0
 17 27  1  0  0  0  0
 17 28  1  0  0  0  0
 17 29  1  0  0  0  0
M  END
>  <Mol_ID>
2617

>  <Formula>
C12H11ClN2O2S

>  <MolWeight>
282.74594

>  <Cat>
S7944

>  <Name>
O4I2

>  <Synonyms>
N/A

>  <Target>
OCT

>  <Form>
free base

>  <CAS>
165682-93-9

>  <URL>
http://selleckchem.com/products/o4i2.html

$$$$
