OAC1.cdx
 OpenBabel08302519573D

 29 31  0  0  0  0  0  0  0  0999 V2000
    1.0558    0.0468   -1.2662 C   0  0  0  0  0  0  0  0  0  0  0  0
    0.5544   -1.1181   -0.6834 C   0  0  0  0  0  0  0  0  0  0  0  0
   -0.5008   -1.0459    0.2221 C   0  0  0  0  0  0  0  0  0  0  0  0
   -1.0428    0.1946    0.5560 C   0  0  0  0  0  0  0  0  0  0  0  0
   -0.5315    1.3754   -0.0052 C   0  0  0  0  0  0  0  0  0  0  0  0
    0.5129    1.2932   -0.9349 C   0  0  0  0  0  0  0  0  0  0  0  0
   -1.1688    2.6604    0.4095 C   0  0  0  0  0  0  0  0  0  0  0  0
   -0.3853    3.7952    0.3178 N   0  0  0  0  0  0  0  0  0  0  0  0
   -2.3348    2.6034    0.7910 O   0  0  0  0  0  0  0  0  0  0  0  0
   -0.8033    5.0757    0.7249 C   0  0  0  0  0  0  0  0  0  0  0  0
   -0.0267    6.1607    0.3249 C   0  0  0  0  0  0  0  0  0  0  0  0
   -0.4898    7.4438    0.6621 C   0  0  0  0  0  0  0  0  0  0  0  0
   -1.6529    7.5503    1.4215 C   0  0  0  0  0  0  0  0  0  0  0  0
   -2.3524    6.4330    1.8412 C   0  0  0  0  0  0  0  0  0  0  0  0
   -1.9144    5.2130    1.4710 N   0  0  0  0  0  0  0  0  0  0  0  0
   -0.0524    8.7691    0.3885 C   0  0  0  0  0  0  0  0  0  0  0  0
   -0.9443    9.6369    0.9798 C   0  0  0  0  0  0  0  0  0  0  0  0
   -1.9000    8.8883    1.6149 N   0  0  0  0  0  0  0  0  0  0  0  0
    1.8651   -0.0204   -1.9894 H   0  0  0  0  0  0  0  0  0  0  0  0
    0.9778   -2.0852   -0.9438 H   0  0  0  0  0  0  0  0  0  0  0  0
   -0.9069   -1.9507    0.6671 H   0  0  0  0  0  0  0  0  0  0  0  0
   -1.8742    0.2422    1.2585 H   0  0  0  0  0  0  0  0  0  0  0  0
    0.8994    2.1726   -1.4388 H   0  0  0  0  0  0  0  0  0  0  0  0
    0.5393    3.7302   -0.0724 H   0  0  0  0  0  0  0  0  0  0  0  0
    0.8686    6.0403   -0.2710 H   0  0  0  0  0  0  0  0  0  0  0  0
   -3.2544    6.4694    2.4395 H   0  0  0  0  0  0  0  0  0  0  0  0
    0.8127    9.0592   -0.1945 H   0  0  0  0  0  0  0  0  0  0  0  0
   -0.9838   10.7176    1.0007 H   0  0  0  0  0  0  0  0  0  0  0  0
   -2.6874    9.2597    2.1298 H   0  0  0  0  0  0  0  0  0  0  0  0
  1  2  2  0  0  0  0
  1 19  1  0  0  0  0
  2  3  1  0  0  0  0
  2 20  1  0  0  0  0
  3  4  2  0  0  0  0
  3 21  1  0  0  0  0
  4  5  1  0  0  0  0
  4 22  1  0  0  0  0
  5  6  2  0  0  0  0
  5  7  1  0  0  0  0
  6  1  1  0  0  0  0
  6 23  1  0  0  0  0
  7  8  1  0  0  0  0
  7  9  2  0  0  0  0
  8 10  1  0  0  0  0
  8 24  1  0  0  0  0
 10 11  2  0  0  0  0
 11 12  1  0  0  0  0
 11 25  1  0  0  0  0
 12 13  2  0  0  0  0
 12 16  1  0  0  0  0
 13 14  1  0  0  0  0
 14 15  2  0  0  0  0
 14 26  1  0  0  0  0
 15 10  1  0  0  0  0
 16 17  2  0  0  0  0
 16 27  1  0  0  0  0
 17 18  1  0  0  0  0
 17 28  1  0  0  0  0
 18 13  1  0  0  0  0
 18 29  1  0  0  0  0
M  END
>  <Mol_ID>
2253

>  <Formula>
C14H11N3O

>  <MolWeight>
237.25664

>  <Cat>
S7217

>  <Name>
OAC1

>  <Synonyms>
BAS 00287861

>  <Target>
OCT

>  <Form>
free base

>  <CAS>
300586-90-7

>  <URL>
http://selleckchem.com/products/oac1.html

$$$$
