OAC2
 OpenBabel08302520143D

 30 32  0  0  0  0  0  0  0  0999 V2000
   -1.5268    1.1461   -0.0420 N   0  0  0  0  0  0  0  0  0  0  0  0
   -2.4221    0.1118   -0.1412 C   0  0  0  0  0  0  0  0  0  0  0  0
   -1.7068   -1.0615   -0.1726 C   0  0  0  0  0  0  0  0  0  0  0  0
   -0.3292   -0.7227   -0.0965 C   0  0  0  0  0  0  0  0  0  0  0  0
    0.8556   -1.4837   -0.0925 C   0  0  0  0  0  0  0  0  0  0  0  0
    2.1082   -0.8619   -0.0273 C   0  0  0  0  0  0  0  0  0  0  0  0
    2.1613    0.5358    0.0535 C   0  0  0  0  0  0  0  0  0  0  0  0
    0.9940    1.3234    0.0639 C   0  0  0  0  0  0  0  0  0  0  0  0
   -0.2373    0.6623   -0.0191 C   0  0  0  0  0  0  0  0  0  0  0  0
    3.3293   -1.5880   -0.0408 N   0  0  0  0  0  0  0  0  0  0  0  0
    3.4393   -2.9663   -0.1459 C   0  0  0  0  0  0  0  0  0  0  0  0
    4.8063   -3.5627   -0.1234 C   0  0  0  0  0  0  0  0  0  0  0  0
    5.9061   -2.9637    0.4993 C   0  0  0  0  0  0  0  0  0  0  0  0
    7.1241   -3.6516    0.5618 C   0  0  0  0  0  0  0  0  0  0  0  0
    7.2462   -4.9301    0.0116 C   0  0  0  0  0  0  0  0  0  0  0  0
    6.1577   -5.5252   -0.6174 C   0  0  0  0  0  0  0  0  0  0  0  0
    4.9463   -4.8426   -0.6858 C   0  0  0  0  0  0  0  0  0  0  0  0
    2.5090   -3.7591   -0.2691 O   0  0  0  0  0  0  0  0  0  0  0  0
   -1.7753    2.1243    0.0016 H   0  0  0  0  0  0  0  0  0  0  0  0
   -3.4873    0.2958   -0.1848 H   0  0  0  0  0  0  0  0  0  0  0  0
   -2.1174   -2.0600   -0.2493 H   0  0  0  0  0  0  0  0  0  0  0  0
    0.7378   -2.5576   -0.1476 H   0  0  0  0  0  0  0  0  0  0  0  0
    3.1178    1.0485    0.1112 H   0  0  0  0  0  0  0  0  0  0  0  0
    1.0510    2.4051    0.1294 H   0  0  0  0  0  0  0  0  0  0  0  0
    4.1754   -1.0378   -0.0242 H   0  0  0  0  0  0  0  0  0  0  0  0
    5.8319   -1.9949    0.9821 H   0  0  0  0  0  0  0  0  0  0  0  0
    7.9774   -3.2033    1.0650 H   0  0  0  0  0  0  0  0  0  0  0  0
    8.1863   -5.4710    0.0862 H   0  0  0  0  0  0  0  0  0  0  0  0
    6.2383   -6.5247   -1.0370 H   0  0  0  0  0  0  0  0  0  0  0  0
    4.0926   -5.3249   -1.1614 H   0  0  0  0  0  0  0  0  0  0  0  0
  1  2  1  0  0  0  0
  1  9  1  0  0  0  0
  1 19  1  0  0  0  0
  2  3  2  0  0  0  0
  2 20  1  0  0  0  0
  3  4  1  0  0  0  0
  3 21  1  0  0  0  0
  4  5  1  0  0  0  0
  4  9  2  0  0  0  0
  5  6  2  0  0  0  0
  5 22  1  0  0  0  0
  6  7  1  0  0  0  0
  6 10  1  0  0  0  0
  7  8  2  0  0  0  0
  7 23  1  0  0  0  0
  8  9  1  0  0  0  0
  8 24  1  0  0  0  0
 10 11  1  0  0  0  0
 10 25  1  0  0  0  0
 11 12  1  0  0  0  0
 11 18  2  0  0  0  0
 12 13  2  0  0  0  0
 12 17  1  0  0  0  0
 13 14  1  0  0  0  0
 13 26  1  0  0  0  0
 14 15  2  0  0  0  0
 14 27  1  0  0  0  0
 15 16  1  0  0  0  0
 15 28  1  0  0  0  0
 16 17  2  0  0  0  0
 16 29  1  0  0  0  0
 17 30  1  0  0  0  0
M  END
>  <Mol_ID>
3178

>  <Formula>
C15H12N2O

>  <MolWeight>
236.26858

>  <Cat>
S5915

>  <Name>
OAC2

>  <Synonyms>
N/A

>  <Target>
OCT

>  <Form>
Free Base

>  <CAS>
6019-39-2

>  <URL>
http://www.selleckchem.com/products/oac2.html

$$$$
