Obtucarbamate A
 OpenBabel08302521503D

 31 31  0  0  0  0  0  0  0  0999 V2000
    0.9495   -0.0796   -0.0124 N   0  0  0  0  0  0  0  0  0  0  0  0
    0.4929   -1.0566   -0.8686 C   0  0  0  0  0  0  0  0  0  0  0  0
   -0.7759   -1.4732   -0.6473 O   0  0  0  0  0  0  0  0  0  0  0  0
    1.1979   -1.4350   -1.7986 O   0  0  0  0  0  0  0  0  0  0  0  0
   -1.3175   -2.4719   -1.5128 C   0  0  0  0  0  0  0  0  0  0  0  0
    1.9321    2.5317    1.0462 C   0  0  0  0  0  0  0  0  0  0  0  0
   -2.5621   -0.1505    3.4037 N   0  0  0  0  0  0  0  0  0  0  0  0
   -2.9097   -1.4763    3.3163 C   0  0  0  0  0  0  0  0  0  0  0  0
   -4.1051   -1.6613    3.9448 O   0  0  0  0  0  0  0  0  0  0  0  0
   -2.2789   -2.3829    2.7997 O   0  0  0  0  0  0  0  0  0  0  0  0
   -4.5412   -3.0222    3.9144 C   0  0  0  0  0  0  0  0  0  0  0  0
    0.3312    0.5099    1.1128 C   0  0  0  0  0  0  0  0  0  0  0  0
   -0.7131   -0.1413    1.7838 C   0  0  0  0  0  0  0  0  0  0  0  0
    0.7473    1.7701    1.5793 C   0  0  0  0  0  0  0  0  0  0  0  0
   -1.4578    0.4753    2.7898 C   0  0  0  0  0  0  0  0  0  0  0  0
   -0.0046    2.3948    2.5956 C   0  0  0  0  0  0  0  0  0  0  0  0
   -1.1190    1.7712    3.1679 C   0  0  0  0  0  0  0  0  0  0  0  0
    1.8084    0.3188   -0.3563 H   0  0  0  0  0  0  0  0  0  0  0  0
   -2.1355   -2.0231   -2.0836 H   0  0  0  0  0  0  0  0  0  0  0  0
   -0.5859   -2.9035   -2.1999 H   0  0  0  0  0  0  0  0  0  0  0  0
   -1.7300   -3.2733   -0.8922 H   0  0  0  0  0  0  0  0  0  0  0  0
    1.6031    3.4750    0.5987 H   0  0  0  0  0  0  0  0  0  0  0  0
    2.6268    2.7509    1.8653 H   0  0  0  0  0  0  0  0  0  0  0  0
    2.5044    1.9913    0.2907 H   0  0  0  0  0  0  0  0  0  0  0  0
   -3.1706    0.4068    3.9857 H   0  0  0  0  0  0  0  0  0  0  0  0
   -4.7366   -3.3423    2.8843 H   0  0  0  0  0  0  0  0  0  0  0  0
   -3.7992   -3.6768    4.3840 H   0  0  0  0  0  0  0  0  0  0  0  0
   -5.4729   -3.0984    4.4816 H   0  0  0  0  0  0  0  0  0  0  0  0
   -0.9549   -1.1585    1.5100 H   0  0  0  0  0  0  0  0  0  0  0  0
    0.2741    3.3898    2.9401 H   0  0  0  0  0  0  0  0  0  0  0  0
   -1.6840    2.2997    3.9306 H   0  0  0  0  0  0  0  0  0  0  0  0
  1  2  1  0  0  0  0
  1 12  1  0  0  0  0
  1 18  1  0  0  0  0
  2  3  1  0  0  0  0
  2  4  2  0  0  0  0
  3  5  1  0  0  0  0
  5 19  1  0  0  0  0
  5 20  1  0  0  0  0
  5 21  1  0  0  0  0
  6 14  1  0  0  0  0
  6 22  1  0  0  0  0
  6 23  1  0  0  0  0
  6 24  1  0  0  0  0
  7  8  1  0  0  0  0
  7 15  1  0  0  0  0
  7 25  1  0  0  0  0
  8  9  1  0  0  0  0
  8 10  2  0  0  0  0
  9 11  1  0  0  0  0
 11 26  1  0  0  0  0
 11 27  1  0  0  0  0
 11 28  1  0  0  0  0
 12 13  2  0  0  0  0
 12 14  1  0  0  0  0
 13 15  1  0  0  0  0
 13 29  1  0  0  0  0
 14 16  2  0  0  0  0
 15 17  2  0  0  0  0
 16 17  1  0  0  0  0
 16 30  1  0  0  0  0
 17 31  1  0  0  0  0
M  END
>  <Mol_ID>
9926

>  <Formula>
C11H14N2O4

>  <MolWeight>
238.23986

>  <Cat>
E5122

>  <Name>
Obtucarbamate A

>  <Synonyms>
N/A

>  <Target>
others

>  <Form>
free base

>  <CAS>
6935-99-5

>  <URL>
https://www.selleckchem.com/products/obtucarbamate-a.html

$$$$
