Octanoic acid
 OpenBabel08302520393D

 26 25  0  0  0  0  0  0  0  0999 V2000
    1.1537   -0.0354    0.0431 C   0  0  0  0  0  0  0  0  0  0  0  0
    0.6158    0.6034   -1.2390 C   0  0  0  0  0  0  0  0  0  0  0  0
    0.6494    0.6955    1.2883 C   0  0  0  0  0  0  0  0  0  0  0  0
    1.1244   -0.0664   -2.5206 C   0  0  0  0  0  0  0  0  0  0  0  0
    1.1749    0.0685    2.5605 C   0  0  0  0  0  0  0  0  0  0  0  0
    0.7852   -1.5516   -2.6871 C   0  0  0  0  0  0  0  0  0  0  0  0
    0.7420    0.7152    3.6682 O   0  0  0  0  0  0  0  0  0  0  0  0
    1.9033   -0.9077    2.6196 O   0  0  0  0  0  0  0  0  0  0  0  0
   -0.7157   -1.8412   -2.7210 C   0  0  0  0  0  0  0  0  0  0  0  0
   -0.9877   -3.3208   -2.9541 C   0  0  0  0  0  0  0  0  0  0  0  0
    2.2505   -0.0239    0.0279 H   0  0  0  0  0  0  0  0  0  0  0  0
    0.8474   -1.0862    0.0992 H   0  0  0  0  0  0  0  0  0  0  0  0
   -0.4798    0.6034   -1.2258 H   0  0  0  0  0  0  0  0  0  0  0  0
    0.9222    1.6572   -1.2650 H   0  0  0  0  0  0  0  0  0  0  0  0
    0.9740    1.7414    1.2625 H   0  0  0  0  0  0  0  0  0  0  0  0
   -0.4457    0.6606    1.3179 H   0  0  0  0  0  0  0  0  0  0  0  0
    0.7240    0.4855   -3.3803 H   0  0  0  0  0  0  0  0  0  0  0  0
    2.2152    0.0437   -2.5668 H   0  0  0  0  0  0  0  0  0  0  0  0
    1.2329   -1.8958   -3.6283 H   0  0  0  0  0  0  0  0  0  0  0  0
    1.2604   -2.1374   -1.8923 H   0  0  0  0  0  0  0  0  0  0  0  0
    0.1645    1.4780    3.4786 H   0  0  0  0  0  0  0  0  0  0  0  0
   -1.1842   -1.5445   -1.7771 H   0  0  0  0  0  0  0  0  0  0  0  0
   -1.1895   -1.2590   -3.5198 H   0  0  0  0  0  0  0  0  0  0  0  0
   -0.5530   -3.9290   -2.1547 H   0  0  0  0  0  0  0  0  0  0  0  0
   -2.0655   -3.5100   -2.9763 H   0  0  0  0  0  0  0  0  0  0  0  0
   -0.5652   -3.6536   -3.9076 H   0  0  0  0  0  0  0  0  0  0  0  0
  1  2  1  0  0  0  0
  1  3  1  0  0  0  0
  1 11  1  0  0  0  0
  1 12  1  0  0  0  0
  2  4  1  0  0  0  0
  2 13  1  0  0  0  0
  2 14  1  0  0  0  0
  3  5  1  0  0  0  0
  3 15  1  0  0  0  0
  3 16  1  0  0  0  0
  4  6  1  0  0  0  0
  4 17  1  0  0  0  0
  4 18  1  0  0  0  0
  5  7  1  0  0  0  0
  5  8  2  0  0  0  0
  6  9  1  0  0  0  0
  6 19  1  0  0  0  0
  6 20  1  0  0  0  0
  7 21  1  0  0  0  0
  9 10  1  0  0  0  0
  9 22  1  0  0  0  0
  9 23  1  0  0  0  0
 10 24  1  0  0  0  0
 10 25  1  0  0  0  0
 10 26  1  0  0  0  0
M  END
>  <Mol_ID>
3644

>  <Formula>
C8H16O2

>  <MolWeight>
144.21144

>  <Cat>
S6296

>  <Name>
Octanoic acid

>  <Synonyms>
caprylic acid

>  <Target>
Others

>  <Form>
free base

>  <CAS>
124-07-2

>  <URL>
http://www.selleck.cn/products/octanoic-acid.html

$$$$
