Octanedioic acid
 OpenBabel08302520383D

 26 25  0  0  0  0  0  0  0  0999 V2000
    1.4409   -1.0472   -1.9703 C   0  0  0  0  0  0  0  0  0  0  0  0
    0.3647   -0.5223   -1.0559 C   0  0  0  0  0  0  0  0  0  0  0  0
    2.5523   -1.4553   -1.3223 O   0  0  0  0  0  0  0  0  0  0  0  0
    1.3138   -1.1373   -3.1816 O   0  0  0  0  0  0  0  0  0  0  0  0
   -0.5514   -1.6513   -0.5955 C   0  0  0  0  0  0  0  0  0  0  0  0
   -1.6799   -1.1729    0.3231 C   0  0  0  0  0  0  0  0  0  0  0  0
   -2.6471   -0.1619   -0.3053 C   0  0  0  0  0  0  0  0  0  0  0  0
   -3.3533   -0.6393   -1.5773 C   0  0  0  0  0  0  0  0  0  0  0  0
   -4.2303   -1.8659   -1.3506 C   0  0  0  0  0  0  0  0  0  0  0  0
   -4.9116   -2.2776   -2.6292 C   0  0  0  0  0  0  0  0  0  0  0  0
   -4.1956   -3.1575   -3.3615 O   0  0  0  0  0  0  0  0  0  0  0  0
   -5.9955   -1.8446   -2.9929 O   0  0  0  0  0  0  0  0  0  0  0  0
    0.8204   -0.0039   -0.2052 H   0  0  0  0  0  0  0  0  0  0  0  0
   -0.1884    0.2367   -1.6197 H   0  0  0  0  0  0  0  0  0  0  0  0
    2.5210   -1.3373   -0.3546 H   0  0  0  0  0  0  0  0  0  0  0  0
   -0.9674   -2.1766   -1.4638 H   0  0  0  0  0  0  0  0  0  0  0  0
    0.0416   -2.4002   -0.0550 H   0  0  0  0  0  0  0  0  0  0  0  0
   -2.2433   -2.0463    0.6726 H   0  0  0  0  0  0  0  0  0  0  0  0
   -1.2414   -0.7225    1.2220 H   0  0  0  0  0  0  0  0  0  0  0  0
   -3.4033    0.1071    0.4436 H   0  0  0  0  0  0  0  0  0  0  0  0
   -2.1087    0.7670   -0.5293 H   0  0  0  0  0  0  0  0  0  0  0  0
   -3.9777    0.1808   -1.9546 H   0  0  0  0  0  0  0  0  0  0  0  0
   -2.6205   -0.8394   -2.3670 H   0  0  0  0  0  0  0  0  0  0  0  0
   -3.6601   -2.7170   -0.9654 H   0  0  0  0  0  0  0  0  0  0  0  0
   -5.0076   -1.6556   -0.6069 H   0  0  0  0  0  0  0  0  0  0  0  0
   -3.3349   -3.4025   -2.9720 H   0  0  0  0  0  0  0  0  0  0  0  0
  1  2  1  0  0  0  0
  1  3  1  0  0  0  0
  1  4  2  0  0  0  0
  2  5  1  0  0  0  0
  2 13  1  0  0  0  0
  2 14  1  0  0  0  0
  3 15  1  0  0  0  0
  5  6  1  0  0  0  0
  5 16  1  0  0  0  0
  5 17  1  0  0  0  0
  6  7  1  0  0  0  0
  6 18  1  0  0  0  0
  6 19  1  0  0  0  0
  7  8  1  0  0  0  0
  7 20  1  0  0  0  0
  7 21  1  0  0  0  0
  8  9  1  0  0  0  0
  8 22  1  0  0  0  0
  8 23  1  0  0  0  0
  9 10  1  0  0  0  0
  9 24  1  0  0  0  0
  9 25  1  0  0  0  0
 10 11  1  0  0  0  0
 10 12  2  0  0  0  0
 11 26  1  0  0  0  0
M  END
>  <Mol_ID>
3497

>  <Formula>
C8H14O4

>  <MolWeight>
174.19436

>  <Cat>
S6220

>  <Name>
Octanedioic acid

>  <Synonyms>
Suberic acid

>  <Target>
Others

>  <Form>
free base

>  <CAS>
505-48-6

>  <URL>
http://www.selleck.cn/products/octanedioic-acid.html

$$$$
