Octisalate
 OpenBabel08302520403D

 40 40  0  0  0  0  0  0  0  0999 V2000
    2.6051   -3.3277    0.9277 C   0  0  0  0  0  0  0  0  0  0  0  0
    1.2976   -4.0177    0.8209 C   0  0  0  0  0  0  0  0  0  0  0  0
    3.3882   -3.5357    2.0770 C   0  0  0  0  0  0  0  0  0  0  0  0
    3.0741   -2.4655   -0.0699 C   0  0  0  0  0  0  0  0  0  0  0  0
    0.3614   -3.2227    0.2472 O   0  0  0  0  0  0  0  0  0  0  0  0
    1.1066   -5.1196    1.3245 O   0  0  0  0  0  0  0  0  0  0  0  0
    4.5633   -2.8082    2.2732 C   0  0  0  0  0  0  0  0  0  0  0  0
    3.0644   -4.4428    3.0473 O   0  0  0  0  0  0  0  0  0  0  0  0
    4.2739   -1.7670    0.1123 C   0  0  0  0  0  0  0  0  0  0  0  0
   -0.9963   -3.7214    0.2198 C   0  0  0  0  0  0  0  0  0  0  0  0
    5.0006   -1.9166    1.2971 C   0  0  0  0  0  0  0  0  0  0  0  0
   -1.8209   -3.3086    1.4673 C   0  0  3  0  0  0  0  0  0  0  0  0
   -1.6583   -1.7922    1.7472 C   0  0  0  0  0  0  0  0  0  0  0  0
   -3.3228   -3.6558    1.3182 C   0  0  0  0  0  0  0  0  0  0  0  0
   -2.4480   -1.2250    2.9388 C   0  0  0  0  0  0  0  0  0  0  0  0
   -3.6593   -5.1223    1.1043 C   0  0  0  0  0  0  0  0  0  0  0  0
   -2.1497   -1.8610    4.2989 C   0  0  0  0  0  0  0  0  0  0  0  0
   -0.7277   -1.6094    4.7731 C   0  0  0  0  0  0  0  0  0  0  0  0
    2.5188   -2.3354   -0.9962 H   0  0  0  0  0  0  0  0  0  0  0  0
    5.1338   -2.9434    3.1866 H   0  0  0  0  0  0  0  0  0  0  0  0
    2.3801   -5.0478    2.6860 H   0  0  0  0  0  0  0  0  0  0  0  0
    4.6417   -1.0966   -0.6608 H   0  0  0  0  0  0  0  0  0  0  0  0
   -1.4547   -3.2988   -0.6814 H   0  0  0  0  0  0  0  0  0  0  0  0
   -0.9980   -4.8113    0.0893 H   0  0  0  0  0  0  0  0  0  0  0  0
    5.9142   -1.3455    1.4551 H   0  0  0  0  0  0  0  0  0  0  0  0
   -1.4133   -3.8558    2.3274 H   0  0  0  0  0  0  0  0  0  0  0  0
   -0.5961   -1.5550    1.8899 H   0  0  0  0  0  0  0  0  0  0  0  0
   -1.9736   -1.2396    0.8516 H   0  0  0  0  0  0  0  0  0  0  0  0
   -3.8564   -3.3564    2.2266 H   0  0  0  0  0  0  0  0  0  0  0  0
   -3.7550   -3.0710    0.4966 H   0  0  0  0  0  0  0  0  0  0  0  0
   -2.2505   -0.1488    3.0009 H   0  0  0  0  0  0  0  0  0  0  0  0
   -3.5248   -1.3071    2.7431 H   0  0  0  0  0  0  0  0  0  0  0  0
   -3.2291   -5.7475    1.8922 H   0  0  0  0  0  0  0  0  0  0  0  0
   -4.7476   -5.2511    1.1362 H   0  0  0  0  0  0  0  0  0  0  0  0
   -3.3154   -5.4821    0.1310 H   0  0  0  0  0  0  0  0  0  0  0  0
   -2.8391   -1.4343    5.0376 H   0  0  0  0  0  0  0  0  0  0  0  0
   -2.3481   -2.9378    4.2791 H   0  0  0  0  0  0  0  0  0  0  0  0
   -0.5200   -0.5360    4.8283 H   0  0  0  0  0  0  0  0  0  0  0  0
   -0.5837   -2.0320    5.7725 H   0  0  0  0  0  0  0  0  0  0  0  0
    0.0063   -2.0713    4.1059 H   0  0  0  0  0  0  0  0  0  0  0  0
  1  2  1  0  0  0  0
  1  3  2  0  0  0  0
  1  4  1  0  0  0  0
  2  5  1  0  0  0  0
  2  6  2  0  0  0  0
  3  7  1  0  0  0  0
  3  8  1  0  0  0  0
  4  9  2  0  0  0  0
  4 19  1  0  0  0  0
  5 10  1  0  0  0  0
  7 11  2  0  0  0  0
  7 20  1  0  0  0  0
  8 21  1  0  0  0  0
  9 11  1  0  0  0  0
  9 22  1  0  0  0  0
 10 12  1  0  0  0  0
 10 23  1  0  0  0  0
 10 24  1  0  0  0  0
 11 25  1  0  0  0  0
 12 13  1  0  0  0  0
 12 14  1  0  0  0  0
 12 26  1  0  0  0  0
 13 15  1  0  0  0  0
 13 27  1  0  0  0  0
 13 28  1  0  0  0  0
 14 16  1  0  0  0  0
 14 29  1  0  0  0  0
 14 30  1  0  0  0  0
 15 17  1  0  0  0  0
 15 31  1  0  0  0  0
 15 32  1  0  0  0  0
 16 33  1  0  0  0  0
 16 34  1  0  0  0  0
 16 35  1  0  0  0  0
 17 18  1  0  0  0  0
 17 36  1  0  0  0  0
 17 37  1  0  0  0  0
 18 38  1  0  0  0  0
 18 39  1  0  0  0  0
 18 40  1  0  0  0  0
M  END
>  <Mol_ID>
3727

>  <Formula>
C15H22O3

>  <MolWeight>
250.33338

>  <Cat>
S6405

>  <Name>
Octisalate

>  <Synonyms>
Ethylhexyl Salicylate, Octyl salicylate

>  <Target>
Others

>  <Form>
Free Base

>  <CAS>
118-60-5

>  <URL>
http://www.selleck.cn/products/octisalate.html

$$$$
