ODM-207
 OpenBabel08302521333D

 49 52  0  0  0  0  0  0  0  0999 V2000
    0.4810    0.3962    0.6678 O   0  0  0  0  0  0  0  0  0  0  0  0
   -1.2398    0.6604   -3.2386 O   0  0  0  0  0  0  0  0  0  0  0  0
    0.7293   -6.0392    3.8129 O   0  0  0  0  0  0  0  0  0  0  0  0
    0.6427   -3.9290    2.8934 N   0  0  0  0  0  0  0  0  0  0  0  0
   -2.4954    0.1138   -3.1875 N   0  0  0  0  0  0  0  0  0  0  0  0
    2.0860   -1.5693    5.0713 N   0  0  0  0  0  0  0  0  0  0  0  0
    0.0806   -3.0490    1.9237 C   0  0  0  0  0  0  0  0  0  0  0  0
   -0.8315   -3.5526    0.9925 C   0  0  0  0  0  0  0  0  0  0  0  0
   -0.7909   -1.4250   -0.2525 C   0  0  0  0  0  0  0  0  0  0  0  0
   -1.2404   -2.7516   -0.0908 C   0  0  0  0  0  0  0  0  0  0  0  0
    0.4460   -1.7082    1.8321 C   0  0  0  0  0  0  0  0  0  0  0  0
    1.8600   -3.5364    3.6192 C   0  0  0  0  0  0  0  0  0  0  0  0
    0.0586   -0.9078    0.7432 C   0  0  0  0  0  0  0  0  0  0  0  0
   -1.3546   -4.8991    1.1615 C   0  0  0  0  0  0  0  0  0  0  0  0
   -0.8929   -5.7031    2.1312 C   0  0  0  0  0  0  0  0  0  0  0  0
    0.2230   -5.2497    3.0185 C   0  0  0  0  0  0  0  0  0  0  0  0
   -1.2395   -0.6679   -1.4315 C   0  0  0  0  0  0  0  0  0  0  0  0
    1.6209   -2.8429    4.9414 C   0  0  0  0  0  0  0  0  0  0  0  0
   -0.4804    0.1841   -2.2158 C   0  0  0  0  0  0  0  0  0  0  0  0
   -2.5013   -0.6890   -2.1183 C   0  0  0  0  0  0  0  0  0  0  0  0
   -1.4456   -7.0835    2.3401 C   0  0  0  0  0  0  0  0  0  0  0  0
    0.9152    0.6746   -2.2433 C   0  0  0  0  0  0  0  0  0  0  0  0
   -3.7390   -1.4513   -1.8244 C   0  0  0  0  0  0  0  0  0  0  0  0
    1.0028   -3.5153    5.9931 C   0  0  0  0  0  0  0  0  0  0  0  0
    1.8010    0.6249    1.1758 C   0  0  0  0  0  0  0  0  0  0  0  0
    0.8418   -2.8645    7.2127 C   0  0  0  0  0  0  0  0  0  0  0  0
    1.9246   -0.9681    6.2721 C   0  0  0  0  0  0  0  0  0  0  0  0
    1.3114   -1.5673    7.3588 C   0  0  0  0  0  0  0  0  0  0  0  0
   -1.8959   -3.1988   -0.8314 H   0  0  0  0  0  0  0  0  0  0  0  0
    1.0338   -1.2615    2.6269 H   0  0  0  0  0  0  0  0  0  0  0  0
    2.4785   -4.4222    3.8092 H   0  0  0  0  0  0  0  0  0  0  0  0
    2.4835   -2.9080    2.9697 H   0  0  0  0  0  0  0  0  0  0  0  0
   -2.1597   -5.2257    0.5084 H   0  0  0  0  0  0  0  0  0  0  0  0
   -2.5051   -7.0286    2.6134 H   0  0  0  0  0  0  0  0  0  0  0  0
   -1.3480   -7.6783    1.4274 H   0  0  0  0  0  0  0  0  0  0  0  0
   -0.9358   -7.6277    3.1412 H   0  0  0  0  0  0  0  0  0  0  0  0
    1.1108    1.3624   -1.4221 H   0  0  0  0  0  0  0  0  0  0  0  0
    1.6240   -0.1574   -2.2028 H   0  0  0  0  0  0  0  0  0  0  0  0
    1.1134    1.2385   -3.1603 H   0  0  0  0  0  0  0  0  0  0  0  0
   -3.6049   -2.5099   -2.0678 H   0  0  0  0  0  0  0  0  0  0  0  0
   -4.0110   -1.3611   -0.7681 H   0  0  0  0  0  0  0  0  0  0  0  0
   -4.5826   -1.0907   -2.4225 H   0  0  0  0  0  0  0  0  0  0  0  0
    0.6618   -4.5393    5.8747 H   0  0  0  0  0  0  0  0  0  0  0  0
    2.2303    1.4764    0.6411 H   0  0  0  0  0  0  0  0  0  0  0  0
    1.7554    0.8793    2.2390 H   0  0  0  0  0  0  0  0  0  0  0  0
    2.4686   -0.2298    1.0079 H   0  0  0  0  0  0  0  0  0  0  0  0
    0.3615   -3.3758    8.0419 H   0  0  0  0  0  0  0  0  0  0  0  0
    2.3198    0.0414    6.3437 H   0  0  0  0  0  0  0  0  0  0  0  0
    1.2073   -1.0382    8.2996 H   0  0  0  0  0  0  0  0  0  0  0  0
  1 13  1  0  0  0  0
  1 25  1  0  0  0  0
  2  5  1  0  0  0  0
  2 19  1  0  0  0  0
  3 16  2  0  0  0  0
  4  7  1  0  0  0  0
  4 12  1  0  0  0  0
  4 16  1  0  0  0  0
  5 20  2  0  0  0  0
  6 18  2  0  0  0  0
  6 27  1  0  0  0  0
  7  8  1  0  0  0  0
  7 11  2  0  0  0  0
  8 10  2  0  0  0  0
  8 14  1  0  0  0  0
  9 10  1  0  0  0  0
  9 13  2  0  0  0  0
  9 17  1  0  0  0  0
 10 29  1  0  0  0  0
 11 13  1  0  0  0  0
 11 30  1  0  0  0  0
 12 18  1  0  0  0  0
 12 31  1  0  0  0  0
 12 32  1  0  0  0  0
 14 15  2  0  0  0  0
 14 33  1  0  0  0  0
 15 16  1  0  0  0  0
 15 21  1  0  0  0  0
 17 19  2  0  0  0  0
 17 20  1  0  0  0  0
 18 24  1  0  0  0  0
 19 22  1  0  0  0  0
 20 23  1  0  0  0  0
 21 34  1  0  0  0  0
 21 35  1  0  0  0  0
 21 36  1  0  0  0  0
 22 37  1  0  0  0  0
 22 38  1  0  0  0  0
 22 39  1  0  0  0  0
 23 40  1  0  0  0  0
 23 41  1  0  0  0  0
 23 42  1  0  0  0  0
 24 26  2  0  0  0  0
 24 43  1  0  0  0  0
 25 44  1  0  0  0  0
 25 45  1  0  0  0  0
 25 46  1  0  0  0  0
 26 28  1  0  0  0  0
 26 47  1  0  0  0  0
 27 28  2  0  0  0  0
 27 48  1  0  0  0  0
 28 49  1  0  0  0  0
M  END
>  <Mol_ID>
6398

>  <Formula>
C22H21N3O3

>  <MolWeight>
375.42044

>  <Cat>
E1095

>  <Name>
ODM-207

>  <Target>
Epigenetic Reader Domain

>  <Form>
free base

>  <CAS>
1801503-93-4

>  <URL>
http://www.selleckchem.com/products/odm-207.html

$$$$
