OF-1.cdx
 OpenBabel08302519583D

 44 46  0  0  0  0  0  0  0  0999 V2000
    0.3965    0.7282   -0.0855 C   0  0  0  0  0  0  0  0  0  0  0  0
    0.4499   -0.6663   -0.0617 C   0  0  0  0  0  0  0  0  0  0  0  0
    1.6485   -1.3483   -0.0659 C   0  0  0  0  0  0  0  0  0  0  0  0
    2.8310   -0.5865   -0.0726 C   0  0  0  0  0  0  0  0  0  0  0  0
    2.7625    0.8441   -0.0933 C   0  0  0  0  0  0  0  0  0  0  0  0
    1.5321    1.5077   -0.1213 C   0  0  0  0  0  0  0  0  0  0  0  0
   -0.9500    1.1052   -0.0403 N   0  0  0  0  0  0  0  0  0  0  0  0
   -1.7570   -0.0526    0.0081 C   0  0  0  0  0  0  0  0  0  0  0  0
   -0.8661   -1.1497   -0.0150 N   0  0  0  0  0  0  0  0  0  0  0  0
    3.9551    1.6444   -0.0322 N   0  0  0  0  0  0  0  0  0  0  0  0
    4.7439    2.0454   -1.4817 S   0  0  0  0  0  0  0  0  0  0  0  0
    4.0644    3.6364   -1.9782 C   0  0  0  0  0  0  0  0  0  0  0  0
    4.1707    4.8074   -1.2002 C   0  0  0  0  0  0  0  0  0  0  0  0
    3.6855    6.0210   -1.7411 C   0  0  0  0  0  0  0  0  0  0  0  0
    3.1394    6.0751   -3.0233 C   0  0  0  0  0  0  0  0  0  0  0  0
    3.0582    4.9248   -3.7955 C   0  0  0  0  0  0  0  0  0  0  0  0
    3.5172    3.7104   -3.2749 C   0  0  0  0  0  0  0  0  0  0  0  0
    2.5280    7.7223   -3.7202 Br  0  0  0  0  0  0  0  0  0  0  0  0
    4.7862    4.8958    0.1671 C   0  0  0  0  0  0  0  0  0  0  0  0
    6.1319    2.2829   -1.1394 O   0  0  0  0  0  0  0  0  0  0  0  0
    4.3858    1.0719   -2.4933 O   0  0  0  0  0  0  0  0  0  0  0  0
   -1.4286    2.4557   -0.0167 C   0  0  0  0  0  0  0  0  0  0  0  0
   -1.2555   -2.5313   -0.0016 C   0  0  0  0  0  0  0  0  0  0  0  0
   -2.9754   -0.0978    0.0630 O   0  0  0  0  0  0  0  0  0  0  0  0
    4.0916   -1.1339   -0.0132 O   0  0  0  0  0  0  0  0  0  0  0  0
    4.1674   -2.5596   -0.0488 C   0  0  0  0  0  0  0  0  0  0  0  0
    1.6449   -2.4284   -0.0374 H   0  0  0  0  0  0  0  0  0  0  0  0
    1.4821    2.5886   -0.1217 H   0  0  0  0  0  0  0  0  0  0  0  0
    4.6649    1.2563    0.5946 H   0  0  0  0  0  0  0  0  0  0  0  0
    3.7602    6.9386   -1.1576 H   0  0  0  0  0  0  0  0  0  0  0  0
    2.6617    4.9605   -4.8076 H   0  0  0  0  0  0  0  0  0  0  0  0
    3.4734    2.8274   -3.9112 H   0  0  0  0  0  0  0  0  0  0  0  0
    5.6001    5.6307    0.1587 H   0  0  0  0  0  0  0  0  0  0  0  0
    4.0304    5.2230    0.8892 H   0  0  0  0  0  0  0  0  0  0  0  0
    5.2023    3.9577    0.5279 H   0  0  0  0  0  0  0  0  0  0  0  0
   -1.0687    2.9485    0.8911 H   0  0  0  0  0  0  0  0  0  0  0  0
   -1.0556    2.9847   -0.8980 H   0  0  0  0  0  0  0  0  0  0  0  0
   -2.5214    2.4734   -0.0225 H   0  0  0  0  0  0  0  0  0  0  0  0
   -0.8757   -3.0217   -0.9027 H   0  0  0  0  0  0  0  0  0  0  0  0
   -0.8470   -3.0204    0.8878 H   0  0  0  0  0  0  0  0  0  0  0  0
   -2.3466   -2.6200    0.0149 H   0  0  0  0  0  0  0  0  0  0  0  0
    3.7145   -2.9967    0.8485 H   0  0  0  0  0  0  0  0  0  0  0  0
    3.7039   -2.9647   -0.9561 H   0  0  0  0  0  0  0  0  0  0  0  0
    5.2219   -2.8469   -0.0604 H   0  0  0  0  0  0  0  0  0  0  0  0
  1  2  1  0  0  0  0
  1  7  1  0  0  0  0
  2  3  2  0  0  0  0
  3  4  1  0  0  0  0
  3 27  1  0  0  0  0
  4  5  2  0  0  0  0
  4 25  1  0  0  0  0
  5  6  1  0  0  0  0
  5 10  1  0  0  0  0
  6  1  2  0  0  0  0
  6 28  1  0  0  0  0
  7  8  1  0  0  0  0
  7 22  1  0  0  0  0
  8  9  1  0  0  0  0
  8 24  2  0  0  0  0
  9  2  1  0  0  0  0
  9 23  1  0  0  0  0
 10 11  1  0  0  0  0
 10 29  1  0  0  0  0
 11 12  1  0  0  0  0
 11 20  2  0  0  0  0
 11 21  2  0  0  0  0
 12 13  2  0  0  0  0
 13 14  1  0  0  0  0
 13 19  1  0  0  0  0
 14 15  2  0  0  0  0
 14 30  1  0  0  0  0
 15 16  1  0  0  0  0
 15 18  1  0  0  0  0
 16 17  2  0  0  0  0
 16 31  1  0  0  0  0
 17 12  1  0  0  0  0
 17 32  1  0  0  0  0
 19 33  1  0  0  0  0
 19 34  1  0  0  0  0
 19 35  1  0  0  0  0
 22 36  1  0  0  0  0
 22 37  1  0  0  0  0
 22 38  1  0  0  0  0
 23 39  1  0  0  0  0
 23 40  1  0  0  0  0
 23 41  1  0  0  0  0
 25 26  1  0  0  0  0
 26 42  1  0  0  0  0
 26 43  1  0  0  0  0
 26 44  1  0  0  0  0
M  END
>  <Mol_ID>
2532

>  <Formula>
C17H18BrN3O4S

>  <MolWeight>
440.31152

>  <Cat>
S7681

>  <Name>
OF-1

>  <Synonyms>
N/A

>  <Target>
Epigenetic Reader Domain

>  <Form>
free base

>  <CAS>
919973-83-4

>  <URL>
http://selleckchem.com/products/of-1.html

$$$$
