Ofloxacin
 OpenBabel08302521393D

 46 49  0  0  0  0  0  0  0  0999 V2000
   -1.3124    2.4399    0.0921 C   0  0  0  0  0  0  0  0  0  0  0  0
    0.0941    2.4427    0.0412 C   0  0  0  0  0  0  0  0  0  0  0  0
    0.7447    1.1732    0.0059 C   0  0  0  0  0  0  0  0  0  0  0  0
    0.0281   -0.0338    0.0602 C   0  0  0  0  0  0  0  0  0  0  0  0
   -1.3790    0.0475    0.0986 C   0  0  0  0  0  0  0  0  0  0  0  0
   -2.0480    1.2646    0.1066 C   0  0  0  0  0  0  0  0  0  0  0  0
    0.6513   -1.2966    0.0540 N   0  0  0  0  0  0  0  0  0  0  0  0
   -0.1249   -2.4408    0.1048 C   0  0  0  0  0  0  0  0  0  0  0  0
   -1.4657   -2.4867    0.1140 C   0  0  0  0  0  0  0  0  0  0  0  0
   -2.1794   -1.1956    0.0861 C   0  0  0  0  0  0  0  0  0  0  0  0
   -3.4108   -1.1793    0.0471 O   0  0  0  0  0  0  0  0  0  0  0  0
   -2.1469   -3.7957    0.1147 C   0  0  0  0  0  0  0  0  0  0  0  0
   -3.4944   -3.7315    0.0760 O   0  0  0  0  0  0  0  0  0  0  0  0
   -1.5538   -4.8652    0.1385 O   0  0  0  0  0  0  0  0  0  0  0  0
    2.1008    1.1900   -0.2285 O   0  0  0  0  0  0  0  0  0  0  0  0
    2.1169   -1.3304   -0.1302 C   0  0  3  0  0  0  0  0  0  0  0  0
    2.8113    0.0131    0.1317 C   0  0  0  0  0  0  0  0  0  0  0  0
    2.4721   -1.8742   -1.5170 C   0  0  0  0  0  0  0  0  0  0  0  0
    0.8399    3.6181   -0.0477 N   0  0  0  0  0  0  0  0  0  0  0  0
   -2.0006    3.5927    0.1250 F   0  0  0  0  0  0  0  0  0  0  0  0
    0.2557    4.8349   -0.6281 C   0  0  0  0  0  0  0  0  0  0  0  0
    1.4001    5.6874   -1.2227 C   0  0  0  0  0  0  0  0  0  0  0  0
    2.4380    6.0347   -0.2219 N   0  0  0  0  0  0  0  0  0  0  0  0
    2.9503    4.7939    0.4125 C   0  0  0  0  0  0  0  0  0  0  0  0
    1.8246    3.9128    1.0099 C   0  0  0  0  0  0  0  0  0  0  0  0
    3.5257    6.7710   -0.8618 C   0  0  0  0  0  0  0  0  0  0  0  0
   -3.1333    1.3184    0.1149 H   0  0  0  0  0  0  0  0  0  0  0  0
    0.4470   -3.3674    0.0989 H   0  0  0  0  0  0  0  0  0  0  0  0
   -3.8487   -2.8097    0.0451 H   0  0  0  0  0  0  0  0  0  0  0  0
    2.5340   -2.0394    0.5976 H   0  0  0  0  0  0  0  0  0  0  0  0
    3.7501    0.0518   -0.4363 H   0  0  0  0  0  0  0  0  0  0  0  0
    3.1027    0.0956    1.1851 H   0  0  0  0  0  0  0  0  0  0  0  0
    3.5590   -1.9481   -1.6337 H   0  0  0  0  0  0  0  0  0  0  0  0
    2.0687   -2.8829   -1.6586 H   0  0  0  0  0  0  0  0  0  0  0  0
    2.0788   -1.2384   -2.3152 H   0  0  0  0  0  0  0  0  0  0  0  0
   -0.2868    5.4074    0.1352 H   0  0  0  0  0  0  0  0  0  0  0  0
   -0.4397    4.5926   -1.4402 H   0  0  0  0  0  0  0  0  0  0  0  0
    0.9686    6.6034   -1.6416 H   0  0  0  0  0  0  0  0  0  0  0  0
    1.8529    5.1253   -2.0518 H   0  0  0  0  0  0  0  0  0  0  0  0
    3.5039    4.1946   -0.3235 H   0  0  0  0  0  0  0  0  0  0  0  0
    3.6488    5.0580    1.2152 H   0  0  0  0  0  0  0  0  0  0  0  0
    1.3333    4.4481    1.8342 H   0  0  0  0  0  0  0  0  0  0  0  0
    2.2714    3.0118    1.4432 H   0  0  0  0  0  0  0  0  0  0  0  0
    4.2775    7.0648   -0.1217 H   0  0  0  0  0  0  0  0  0  0  0  0
    4.0214    6.1852   -1.6446 H   0  0  0  0  0  0  0  0  0  0  0  0
    3.1470    7.6947   -1.3131 H   0  0  0  0  0  0  0  0  0  0  0  0
  1  2  2  0  0  0  0
  1 20  1  0  0  0  0
  2  3  1  0  0  0  0
  2 19  1  0  0  0  0
  3  4  2  0  0  0  0
  3 15  1  0  0  0  0
  4  5  1  0  0  0  0
  4  7  1  0  0  0  0
  5  6  2  0  0  0  0
  6  1  1  0  0  0  0
  6 27  1  0  0  0  0
  7  8  1  0  0  0  0
  7 16  1  0  0  0  0
  8  9  2  0  0  0  0
  8 28  1  0  0  0  0
  9 10  1  0  0  0  0
  9 12  1  0  0  0  0
 10  5  1  0  0  0  0
 10 11  2  0  0  0  0
 12 13  1  0  0  0  0
 12 14  2  0  0  0  0
 13 29  1  0  0  0  0
 15 17  1  0  0  0  0
 16 18  1  0  0  0  0
 16 30  1  0  0  0  0
 17 16  1  0  0  0  0
 17 31  1  0  0  0  0
 17 32  1  0  0  0  0
 18 33  1  0  0  0  0
 18 34  1  0  0  0  0
 18 35  1  0  0  0  0
 19 21  1  0  0  0  0
 21 22  1  0  0  0  0
 21 36  1  0  0  0  0
 21 37  1  0  0  0  0
 22 23  1  0  0  0  0
 22 38  1  0  0  0  0
 22 39  1  0  0  0  0
 23 24  1  0  0  0  0
 23 26  1  0  0  0  0
 24 25  1  0  0  0  0
 24 40  1  0  0  0  0
 24 41  1  0  0  0  0
 25 19  1  0  0  0  0
 25 42  1  0  0  0  0
 25 43  1  0  0  0  0
 26 44  1  0  0  0  0
 26 45  1  0  0  0  0
 26 46  1  0  0  0  0
M  END
>  <Mol_ID>
8023

>  <Formula>
C18H20FN3O4

>  <MolWeight>
361.3675032

>  <Cat>
S1463

>  <Name>
Ofloxacin

>  <Synonyms>
DL8280

>  <Target>
Topoisomerase

>  <Form>
Free Base

>  <CAS>
82419-36-1

>  <URL>
http://www.selleck.cn/products/Ofloxacin(Floxin).html

$$$$
