OG-L002.cdx
 OpenBabel08302519583D

 32 34  0  0  0  0  0  0  0  0999 V2000
    0.7821   -0.1809   -0.4656 C   0  0  0  0  0  0  0  0  0  0  0  0
    0.1494   -1.3038    0.0504 C   0  0  0  0  0  0  0  0  0  0  0  0
   -1.1323   -1.1792    0.5707 C   0  0  0  0  0  0  0  0  0  0  0  0
   -1.7900    0.0505    0.5764 C   0  0  0  0  0  0  0  0  0  0  0  0
   -1.1712    1.2052    0.0679 C   0  0  0  0  0  0  0  0  0  0  0  0
    0.1322    1.0582   -0.4504 C   0  0  0  0  0  0  0  0  0  0  0  0
   -1.8503    2.5235    0.0724 C   0  0  0  0  0  0  0  0  0  0  0  0
   -1.7944   -2.2505    1.0954 O   0  0  0  0  0  0  0  0  0  0  0  0
   -2.7745    2.8908    1.0685 C   0  0  0  0  0  0  0  0  0  0  0  0
   -3.3918    4.1538    1.0728 C   0  0  0  0  0  0  0  0  0  0  0  0
   -3.0997    5.1044    0.0888 C   0  0  0  0  0  0  0  0  0  0  0  0
   -2.1968    4.7281   -0.9144 C   0  0  0  0  0  0  0  0  0  0  0  0
   -1.5898    3.4705   -0.9260 C   0  0  0  0  0  0  0  0  0  0  0  0
   -3.7326    6.4692    0.0255 C   0  0  2  0  0  0  0  0  0  0  0  0
   -2.7860    7.6558    0.0879 C   0  0  2  0  0  0  0  0  0  0  0  0
   -3.7944    7.4433    1.1710 C   0  0  0  0  0  0  0  0  0  0  0  0
   -2.9512    8.7059   -0.9156 N   0  0  0  0  0  0  0  0  0  0  0  0
    1.7849   -0.2566   -0.8803 H   0  0  0  0  0  0  0  0  0  0  0  0
    0.6648   -2.2613    0.0394 H   0  0  0  0  0  0  0  0  0  0  0  0
   -2.8001    0.0881    0.9756 H   0  0  0  0  0  0  0  0  0  0  0  0
    0.6704    1.9164   -0.8440 H   0  0  0  0  0  0  0  0  0  0  0  0
   -1.2212   -3.0314    1.0270 H   0  0  0  0  0  0  0  0  0  0  0  0
   -3.0261    2.1999    1.8689 H   0  0  0  0  0  0  0  0  0  0  0  0
   -4.1079    4.3887    1.8572 H   0  0  0  0  0  0  0  0  0  0  0  0
   -1.9624    5.4325   -1.7098 H   0  0  0  0  0  0  0  0  0  0  0  0
   -0.9159    3.2458   -1.7509 H   0  0  0  0  0  0  0  0  0  0  0  0
   -4.5633    6.5438   -0.6750 H   0  0  0  0  0  0  0  0  0  0  0  0
   -1.7533    7.4753    0.3837 H   0  0  0  0  0  0  0  0  0  0  0  0
   -4.6426    8.1174    1.2129 H   0  0  0  0  0  0  0  0  0  0  0  0
   -3.4354    7.1311    2.1443 H   0  0  0  0  0  0  0  0  0  0  0  0
   -2.3216    8.5411   -1.7015 H   0  0  0  0  0  0  0  0  0  0  0  0
   -2.6933    9.6126   -0.5370 H   0  0  0  0  0  0  0  0  0  0  0  0
  1  2  2  0  0  0  0
  1 18  1  0  0  0  0
  2  3  1  0  0  0  0
  2 19  1  0  0  0  0
  3  4  2  0  0  0  0
  3  8  1  0  0  0  0
  4  5  1  0  0  0  0
  4 20  1  0  0  0  0
  5  6  2  0  0  0  0
  5  7  1  0  0  0  0
  6  1  1  0  0  0  0
  6 21  1  0  0  0  0
  7  9  2  0  0  0  0
  8 22  1  0  0  0  0
  9 10  1  0  0  0  0
  9 23  1  0  0  0  0
 10 11  2  0  0  0  0
 10 24  1  0  0  0  0
 11 12  1  0  0  0  0
 12 13  2  0  0  0  0
 12 25  1  0  0  0  0
 13  7  1  0  0  0  0
 13 26  1  0  0  0  0
 14 11  1  0  0  0  0
 14 15  1  0  0  0  0
 14 27  1  6  0  0  0
 15 16  1  0  0  0  0
 15 28  1  1  0  0  0
 15 17  1  0  0  0  0
 16 14  1  0  0  0  0
 16 29  1  0  0  0  0
 16 30  1  0  0  0  0
 17 31  1  0  0  0  0
 17 32  1  0  0  0  0
M  END
>  <Mol_ID>
2395

>  <Formula>
C15H15NO

>  <MolWeight>
225.2857

>  <Cat>
S7237

>  <Name>
OG-L002

>  <Synonyms>
N/A

>  <Target>
Histone Demethylase,LSD1

>  <Form>
free base

>  <CAS>
1357302-64-7

>  <URL>
http://selleckchem.com/products/og-l002.html

$$$$
