Oglufanide
 OpenBabel08302521343D

 43 44  0  0  0  0  0  0  0  0999 V2000
    2.1529   -3.6206   -2.7903 C   0  0  0  0  0  0  0  0  0  0  0  0
    2.4616   -2.9476   -4.1228 C   0  0  2  0  0  0  0  0  0  0  0  0
    0.8093   -3.5541   -2.1152 C   0  0  0  0  0  0  0  0  0  0  0  0
    2.6404   -1.5012   -4.0797 N   0  0  0  0  0  0  0  0  0  0  0  0
    1.5387   -3.3096   -5.2918 C   0  0  0  0  0  0  0  0  0  0  0  0
   -0.4036   -2.8236   -2.3727 C   0  0  0  0  0  0  0  0  0  0  0  0
    0.5318   -4.3861   -1.0385 C   0  0  0  0  0  0  0  0  0  0  0  0
    3.6987   -0.8519   -3.4955 C   0  0  0  0  0  0  0  0  0  0  0  0
    1.7234   -2.4666   -6.3493 O   0  0  0  0  0  0  0  0  0  0  0  0
    0.8225   -4.2914   -5.3709 O   0  0  0  0  0  0  0  0  0  0  0  0
   -1.3996   -3.3910   -1.5660 C   0  0  0  0  0  0  0  0  0  0  0  0
   -0.8042   -1.7863   -3.2421 C   0  0  0  0  0  0  0  0  0  0  0  0
   -0.7903   -4.2892   -0.7288 N   0  0  0  0  0  0  0  0  0  0  0  0
    3.5553    0.6931   -3.5789 C   0  0  2  0  0  0  0  0  0  0  0  0
    4.6622   -1.4263   -2.9989 O   0  0  0  0  0  0  0  0  0  0  0  0
   -2.7584   -3.0672   -1.6685 C   0  0  0  0  0  0  0  0  0  0  0  0
   -2.1593   -1.4343   -3.3446 C   0  0  0  0  0  0  0  0  0  0  0  0
    3.5541    1.3557   -2.1974 C   0  0  0  0  0  0  0  0  0  0  0  0
    2.2827    1.0160   -4.2979 N   0  0  0  0  0  0  0  0  0  0  0  0
   -3.1254   -2.0926   -2.5932 C   0  0  0  0  0  0  0  0  0  0  0  0
    4.8810    1.2044   -1.4455 C   0  0  0  0  0  0  0  0  0  0  0  0
    4.8776    1.9970   -0.1678 C   0  0  0  0  0  0  0  0  0  0  0  0
    5.6823    1.4743    0.7832 O   0  0  0  0  0  0  0  0  0  0  0  0
    4.2540    3.0329    0.0099 O   0  0  0  0  0  0  0  0  0  0  0  0
    2.3254   -4.6954   -2.9607 H   0  0  0  0  0  0  0  0  0  0  0  0
    2.9083   -3.3176   -2.0533 H   0  0  0  0  0  0  0  0  0  0  0  0
    3.4438   -3.3393   -4.4271 H   0  0  0  0  0  0  0  0  0  0  0  0
    1.8914   -0.8674   -4.3633 H   0  0  0  0  0  0  0  0  0  0  0  0
    1.1637   -5.0918   -0.5149 H   0  0  0  0  0  0  0  0  0  0  0  0
    2.4445   -1.8285   -6.1608 H   0  0  0  0  0  0  0  0  0  0  0  0
   -0.0916   -1.2588   -3.8587 H   0  0  0  0  0  0  0  0  0  0  0  0
   -1.2685   -4.8342   -0.0250 H   0  0  0  0  0  0  0  0  0  0  0  0
    4.3878    1.0591   -4.1911 H   0  0  0  0  0  0  0  0  0  0  0  0
   -3.5075   -3.5774   -1.0711 H   0  0  0  0  0  0  0  0  0  0  0  0
   -2.4620   -0.6572   -4.0420 H   0  0  0  0  0  0  0  0  0  0  0  0
    3.3300    2.4241   -2.3192 H   0  0  0  0  0  0  0  0  0  0  0  0
    2.7491    0.9379   -1.5782 H   0  0  0  0  0  0  0  0  0  0  0  0
    2.4340    1.8630   -4.8513 H   0  0  0  0  0  0  0  0  0  0  0  0
    1.5743    1.2886   -3.6092 H   0  0  0  0  0  0  0  0  0  0  0  0
   -4.1767   -1.8482   -2.7250 H   0  0  0  0  0  0  0  0  0  0  0  0
    5.0376    0.1527   -1.1960 H   0  0  0  0  0  0  0  0  0  0  0  0
    5.7185    1.5519   -2.0614 H   0  0  0  0  0  0  0  0  0  0  0  0
    6.1231    0.6430    0.5200 H   0  0  0  0  0  0  0  0  0  0  0  0
  1  3  1  0  0  0  0
  1 25  1  0  0  0  0
  1 26  1  0  0  0  0
  2  5  1  0  0  0  0
  2 27  1  6  0  0  0
  2  4  1  0  0  0  0
  2  1  1  0  0  0  0
  3  6  1  0  0  0  0
  3  7  2  0  0  0  0
  4  8  1  0  0  0  0
  4 28  1  0  0  0  0
  5  9  1  0  0  0  0
  5 10  2  0  0  0  0
  6 11  2  0  0  0  0
  6 12  1  0  0  0  0
  7 13  1  0  0  0  0
  7 29  1  0  0  0  0
  8 15  2  0  0  0  0
  9 30  1  0  0  0  0
 11 13  1  0  0  0  0
 11 16  1  0  0  0  0
 12 17  2  0  0  0  0
 12 31  1  0  0  0  0
 13 32  1  0  0  0  0
 14 19  1  0  0  0  0
 14 33  1  6  0  0  0
 14 18  1  0  0  0  0
 14  8  1  0  0  0  0
 16 20  2  0  0  0  0
 16 34  1  0  0  0  0
 17 20  1  0  0  0  0
 17 35  1  0  0  0  0
 18 21  1  0  0  0  0
 18 36  1  0  0  0  0
 18 37  1  0  0  0  0
 19 38  1  0  0  0  0
 19 39  1  0  0  0  0
 20 40  1  0  0  0  0
 21 22  1  0  0  0  0
 21 41  1  0  0  0  0
 21 42  1  0  0  0  0
 22 23  1  0  0  0  0
 22 24  2  0  0  0  0
 23 43  1  0  0  0  0
M  END
>  <Mol_ID>
6525

>  <Formula>
C16H19N3O5

>  <MolWeight>
333.33916

>  <Cat>
P1152

>  <Name>
Oglufanide

>  <Synonyms>
H-Glu-Trp-OH, L-Glutamyl-L-tryptophan

>  <Target>
Antiviral,Bacterial,VEGFR

>  <Form>
free base

>  <CAS>
38101-59-6

>  <URL>
http://www.selleckchem.com/products/qglufanide.html

$$$$
