Olanzapine.cdx
 OpenBabel08302521383D

 42 45  0  0  0  0  0  0  0  0999 V2000
    0.2675   -0.7312    1.1882 N   0  0  0  0  0  0  0  0  0  0  0  0
   -0.8529   -0.2147    0.6266 C   0  0  0  0  0  0  0  0  0  0  0  0
   -1.0395    1.0895    0.2092 C   0  0  0  0  0  0  0  0  0  0  0  0
   -0.0698    2.1525    0.4287 C   0  0  0  0  0  0  0  0  0  0  0  0
    1.2211    2.0144    0.3728 N   0  0  0  0  0  0  0  0  0  0  0  0
    1.8929    0.8085    0.0976 C   0  0  0  0  0  0  0  0  0  0  0  0
    1.5106   -0.4806    0.5363 C   0  0  0  0  0  0  0  0  0  0  0  0
    3.0921    0.9438   -0.6214 C   0  0  0  0  0  0  0  0  0  0  0  0
    3.8852   -0.1576   -0.9440 C   0  0  0  0  0  0  0  0  0  0  0  0
    3.4929   -1.4252   -0.5380 C   0  0  0  0  0  0  0  0  0  0  0  0
    2.3149   -1.5868    0.1943 C   0  0  0  0  0  0  0  0  0  0  0  0
   -2.2403   -1.1814    0.3350 S   0  0  0  0  0  0  0  0  0  0  0  0
   -3.0676    0.0910   -0.4441 C   0  0  0  0  0  0  0  0  0  0  0  0
   -2.3201    1.2482   -0.4307 C   0  0  0  0  0  0  0  0  0  0  0  0
   -4.4240   -0.1034   -1.0283 C   0  0  0  0  0  0  0  0  0  0  0  0
   -0.6832    3.3798    0.6147 N   0  0  0  0  0  0  0  0  0  0  0  0
   -1.6247    3.6007    1.7313 C   0  0  0  0  0  0  0  0  0  0  0  0
   -2.6236    4.7160    1.3476 C   0  0  0  0  0  0  0  0  0  0  0  0
   -1.9210    5.9729    1.0042 N   0  0  0  0  0  0  0  0  0  0  0  0
   -0.9871    5.7068   -0.1137 C   0  0  0  0  0  0  0  0  0  0  0  0
    0.0370    4.6057    0.2426 C   0  0  0  0  0  0  0  0  0  0  0  0
   -2.8651    7.0291    0.6600 C   0  0  0  0  0  0  0  0  0  0  0  0
    0.2096   -1.6657    1.5741 H   0  0  0  0  0  0  0  0  0  0  0  0
    3.4001    1.9365   -0.9421 H   0  0  0  0  0  0  0  0  0  0  0  0
    4.8006   -0.0196   -1.5122 H   0  0  0  0  0  0  0  0  0  0  0  0
    4.0941   -2.2921   -0.8041 H   0  0  0  0  0  0  0  0  0  0  0  0
    2.0057   -2.5925    0.4656 H   0  0  0  0  0  0  0  0  0  0  0  0
   -2.6635    2.1878   -0.8510 H   0  0  0  0  0  0  0  0  0  0  0  0
   -4.3959   -0.8299   -1.8467 H   0  0  0  0  0  0  0  0  0  0  0  0
   -5.1314   -0.4502   -0.2692 H   0  0  0  0  0  0  0  0  0  0  0  0
   -4.8124    0.8373   -1.4363 H   0  0  0  0  0  0  0  0  0  0  0  0
   -1.0709    3.8869    2.6353 H   0  0  0  0  0  0  0  0  0  0  0  0
   -2.1882    2.6956    1.9813 H   0  0  0  0  0  0  0  0  0  0  0  0
   -3.3079    4.8842    2.1878 H   0  0  0  0  0  0  0  0  0  0  0  0
   -3.2280    4.3761    0.4950 H   0  0  0  0  0  0  0  0  0  0  0  0
   -1.5509    5.3877   -1.0022 H   0  0  0  0  0  0  0  0  0  0  0  0
   -0.4431    6.6196   -0.3796 H   0  0  0  0  0  0  0  0  0  0  0  0
    0.6886    4.9328    1.0629 H   0  0  0  0  0  0  0  0  0  0  0  0
    0.6652    4.4242   -0.6374 H   0  0  0  0  0  0  0  0  0  0  0  0
   -2.3295    7.9580    0.4346 H   0  0  0  0  0  0  0  0  0  0  0  0
   -3.4884    6.7695   -0.2023 H   0  0  0  0  0  0  0  0  0  0  0  0
   -3.5207    7.2446    1.5109 H   0  0  0  0  0  0  0  0  0  0  0  0
  1  2  1  0  0  0  0
  1 23  1  0  0  0  0
  2  3  2  0  0  0  0
  2 12  1  0  0  0  0
  3  4  1  0  0  0  0
  4  5  2  0  0  0  0
  4 16  1  0  0  0  0
  5  6  1  0  0  0  0
  6  7  2  0  0  0  0
  6  8  1  0  0  0  0
  7  1  1  0  0  0  0
  8  9  2  0  0  0  0
  8 24  1  0  0  0  0
  9 10  1  0  0  0  0
  9 25  1  0  0  0  0
 10 11  2  0  0  0  0
 10 26  1  0  0  0  0
 11  7  1  0  0  0  0
 11 27  1  0  0  0  0
 12 13  1  0  0  0  0
 13 14  2  0  0  0  0
 13 15  1  0  0  0  0
 14  3  1  0  0  0  0
 14 28  1  0  0  0  0
 15 29  1  0  0  0  0
 15 30  1  0  0  0  0
 15 31  1  0  0  0  0
 16 17  1  0  0  0  0
 17 18  1  0  0  0  0
 17 32  1  0  0  0  0
 17 33  1  0  0  0  0
 18 19  1  0  0  0  0
 18 34  1  0  0  0  0
 18 35  1  0  0  0  0
 19 20  1  0  0  0  0
 19 22  1  0  0  0  0
 20 21  1  0  0  0  0
 20 36  1  0  0  0  0
 20 37  1  0  0  0  0
 21 16  1  0  0  0  0
 21 38  1  0  0  0  0
 21 39  1  0  0  0  0
 22 40  1  0  0  0  0
 22 41  1  0  0  0  0
 22 42  1  0  0  0  0
M  END
>  <Mol_ID>
765

>  <Formula>
C17H20N4S

>  <MolWeight>
312.4325

>  <Cat>
S2493

>  <Name>
Olanzapine

>  <Synonyms>
LY170053,Zyprexa, Zalasta, Zolafren, Olzapin, Oferta, Zypadhera

>  <Target>
5-HT Receptor,Dopamine Receptor

>  <Form>
free base

>  <CAS>
132539-06-1

>  <URL>
http://selleckchem.com/products/Olanzapine(Zyprexa).html

$$$$
