Olodaterol (BI 1744)
 OpenBabel08302521313D

 54 56  0  0  0  0  0  0  0  0999 V2000
    3.0806    0.5879   -1.3952 O   0  0  0  0  0  0  0  0  0  0  0  0
    0.5658    1.7091    1.2598 O   0  0  0  0  0  0  0  0  0  0  0  0
    5.8986    2.4879    2.4397 O   0  0  0  0  0  0  0  0  0  0  0  0
    5.3372   -9.5147   -0.1649 O   0  0  0  0  0  0  0  0  0  0  0  0
   -0.8923    4.1544    3.4918 O   0  0  0  0  0  0  0  0  0  0  0  0
    2.5214   -2.2805   -0.8493 N   0  0  0  0  0  0  0  0  0  0  0  0
    1.2995    3.6686    3.1629 N   0  0  0  0  0  0  0  0  0  0  0  0
    2.8580   -3.7015   -0.5971 C   0  0  0  0  0  0  0  0  0  0  0  0
    4.4088   -3.9347   -0.6196 C   0  0  0  0  0  0  0  0  0  0  0  0
    2.9636   -1.3004    0.1620 C   0  0  0  0  0  0  0  0  0  0  0  0
    2.2146   -4.1760    0.7213 C   0  0  0  0  0  0  0  0  0  0  0  0
    2.1942   -4.4885   -1.7527 C   0  0  0  0  0  0  0  0  0  0  0  0
    2.4913    0.1479   -0.1670 C   0  0  1  0  0  0  0  0  0  0  0  0
    4.8304   -5.3842   -0.4705 C   0  0  0  0  0  0  0  0  0  0  0  0
    2.8539    1.1527    0.9130 C   0  0  0  0  0  0  0  0  0  0  0  0
    1.8825    1.9014    1.5970 C   0  0  0  0  0  0  0  0  0  0  0  0
    5.0068   -6.1978   -1.5961 C   0  0  0  0  0  0  0  0  0  0  0  0
    4.9433   -5.9596    0.8015 C   0  0  0  0  0  0  0  0  0  0  0  0
    4.2072    1.3811    1.2280 C   0  0  0  0  0  0  0  0  0  0  0  0
    2.2670    2.8720    2.5422 C   0  0  0  0  0  0  0  0  0  0  0  0
    4.5696    2.3264    2.1844 C   0  0  0  0  0  0  0  0  0  0  0  0
    3.6098    3.0846    2.8419 C   0  0  0  0  0  0  0  0  0  0  0  0
    5.1959   -7.5731   -1.4474 C   0  0  0  0  0  0  0  0  0  0  0  0
    5.1346   -7.3361    0.9481 C   0  0  0  0  0  0  0  0  0  0  0  0
   -0.3430    2.1165    2.2778 C   0  0  0  0  0  0  0  0  0  0  0  0
    5.2441   -8.1504   -0.1779 C   0  0  0  0  0  0  0  0  0  0  0  0
   -0.0345    3.4221    3.0005 C   0  0  0  0  0  0  0  0  0  0  0  0
    5.8850  -10.0925    1.0128 C   0  0  0  0  0  0  0  0  0  0  0  0
    2.7935    1.5061   -1.5283 H   0  0  0  0  0  0  0  0  0  0  0  0
    6.0187    3.2071    3.0812 H   0  0  0  0  0  0  0  0  0  0  0  0
    1.5176   -2.1805   -0.9970 H   0  0  0  0  0  0  0  0  0  0  0  0
    1.5544    4.4676    3.7285 H   0  0  0  0  0  0  0  0  0  0  0  0
    4.8271   -3.5425   -1.5577 H   0  0  0  0  0  0  0  0  0  0  0  0
    4.8963   -3.3617    0.1792 H   0  0  0  0  0  0  0  0  0  0  0  0
    4.0565   -1.3150    0.2107 H   0  0  0  0  0  0  0  0  0  0  0  0
    2.5687   -1.5660    1.1485 H   0  0  0  0  0  0  0  0  0  0  0  0
    1.1497   -3.9167    0.7579 H   0  0  0  0  0  0  0  0  0  0  0  0
    2.2699   -5.2642    0.8308 H   0  0  0  0  0  0  0  0  0  0  0  0
    2.7014   -3.7332    1.5963 H   0  0  0  0  0  0  0  0  0  0  0  0
    1.1210   -4.2732   -1.8236 H   0  0  0  0  0  0  0  0  0  0  0  0
    2.6491   -4.2413   -2.7190 H   0  0  0  0  0  0  0  0  0  0  0  0
    2.2784   -5.5706   -1.6079 H   0  0  0  0  0  0  0  0  0  0  0  0
    1.4077    0.1267   -0.3283 H   0  0  0  0  0  0  0  0  0  0  0  0
    4.9443   -5.7769   -2.5973 H   0  0  0  0  0  0  0  0  0  0  0  0
    4.8230   -5.3452    1.6912 H   0  0  0  0  0  0  0  0  0  0  0  0
    4.9905    0.8325    0.7073 H   0  0  0  0  0  0  0  0  0  0  0  0
    3.8980    3.8257    3.5786 H   0  0  0  0  0  0  0  0  0  0  0  0
    5.2824   -8.2032   -2.3290 H   0  0  0  0  0  0  0  0  0  0  0  0
    5.1416   -7.7423    1.9530 H   0  0  0  0  0  0  0  0  0  0  0  0
   -0.3927    1.3234    3.0337 H   0  0  0  0  0  0  0  0  0  0  0  0
   -1.3323    2.2043    1.8181 H   0  0  0  0  0  0  0  0  0  0  0  0
    6.9128   -9.7476    1.1642 H   0  0  0  0  0  0  0  0  0  0  0  0
    5.2681   -9.8977    1.8952 H   0  0  0  0  0  0  0  0  0  0  0  0
    5.9084  -11.1770    0.8695 H   0  0  0  0  0  0  0  0  0  0  0  0
  1 29  1  0  0  0  0
  2 16  1  0  0  0  0
  2 25  1  0  0  0  0
  3 21  1  0  0  0  0
  3 30  1  0  0  0  0
  4 26  1  0  0  0  0
  4 28  1  0  0  0  0
  5 27  2  0  0  0  0
  6  8  1  0  0  0  0
  6 10  1  0  0  0  0
  6 31  1  0  0  0  0
  7 20  1  0  0  0  0
  7 27  1  0  0  0  0
  7 32  1  0  0  0  0
  8  9  1  0  0  0  0
  8 11  1  0  0  0  0
  8 12  1  0  0  0  0
  9 14  1  0  0  0  0
  9 33  1  0  0  0  0
  9 34  1  0  0  0  0
 10 13  1  0  0  0  0
 10 35  1  0  0  0  0
 10 36  1  0  0  0  0
 11 37  1  0  0  0  0
 11 38  1  0  0  0  0
 11 39  1  0  0  0  0
 12 40  1  0  0  0  0
 12 41  1  0  0  0  0
 12 42  1  0  0  0  0
 13  1  1  0  0  0  0
 13 15  1  0  0  0  0
 13 43  1  6  0  0  0
 14 17  2  0  0  0  0
 14 18  1  0  0  0  0
 15 16  1  0  0  0  0
 15 19  2  0  0  0  0
 16 20  2  0  0  0  0
 17 23  1  0  0  0  0
 17 44  1  0  0  0  0
 18 24  2  0  0  0  0
 18 45  1  0  0  0  0
 19 21  1  0  0  0  0
 19 46  1  0  0  0  0
 20 22  1  0  0  0  0
 21 22  2  0  0  0  0
 22 47  1  0  0  0  0
 23 26  2  0  0  0  0
 23 48  1  0  0  0  0
 24 26  1  0  0  0  0
 24 49  1  0  0  0  0
 25 27  1  0  0  0  0
 25 50  1  0  0  0  0
 25 51  1  0  0  0  0
 28 52  1  0  0  0  0
 28 53  1  0  0  0  0
 28 54  1  0  0  0  0
M  END
>  <Mol_ID>
5879

>  <Formula>
C21H26N2O5

>  <MolWeight>
386.44154

>  <Cat>
S4485

>  <Name>
Olodaterol (BI 1744)

>  <Synonyms>
N/A

>  <Target>
Adrenergic Receptor

>  <Form>
Free Base

>  <CAS>
868049-49-4

>  <URL>
http://www.selleckchem.com/products/olodaterol-bi-1744-.html

$$$$
