Olodaterol hydrochloride
 OpenBabel08302520143D

 54 56  0  0  0  0  0  0  0  0999 V2000
   -1.1597    2.2114    1.7674 O   0  0  0  0  0  0  0  0  0  0  0  0
   -2.0078    1.4472    2.6130 C   0  0  0  0  0  0  0  0  0  0  0  0
   -2.4981    2.1209    3.8844 C   0  0  0  0  0  0  0  0  0  0  0  0
   -1.5992    2.9878    4.4475 N   0  0  0  0  0  0  0  0  0  0  0  0
   -0.4371    3.3703    3.7710 C   0  0  0  0  0  0  0  0  0  0  0  0
   -0.2292    2.9648    2.4428 C   0  0  0  0  0  0  0  0  0  0  0  0
    0.4769    4.2054    4.4102 C   0  0  0  0  0  0  0  0  0  0  0  0
    1.5796    4.6595    3.6981 C   0  0  0  0  0  0  0  0  0  0  0  0
    1.7845    4.2855    2.3719 C   0  0  0  0  0  0  0  0  0  0  0  0
    0.8979    3.4053    1.7254 C   0  0  0  0  0  0  0  0  0  0  0  0
   -3.5705    1.8611    4.4255 O   0  0  0  0  0  0  0  0  0  0  0  0
    1.1176    2.9659    0.2861 C   0  0  2  0  0  0  0  0  0  0  0  0
    1.2356    1.4254    0.0995 C   0  0  0  0  0  0  0  0  0  0  0  0
    2.4140    0.8455    0.7754 N   0  0  0  0  0  0  0  0  0  0  0  0
    2.7513   -1.1175   -0.8236 C   0  0  0  0  0  0  0  0  0  0  0  0
    2.5542   -0.6255    0.6518 C   0  0  0  0  0  0  0  0  0  0  0  0
    3.7777   -1.0045    1.5189 C   0  0  0  0  0  0  0  0  0  0  0  0
    1.3385   -1.3477    1.2705 C   0  0  0  0  0  0  0  0  0  0  0  0
    3.9760   -0.5688   -1.5292 C   0  0  0  0  0  0  0  0  0  0  0  0
    5.1975   -1.2471   -1.4411 C   0  0  0  0  0  0  0  0  0  0  0  0
    6.3607   -0.6779   -1.9612 C   0  0  0  0  0  0  0  0  0  0  0  0
    6.3238    0.5589   -2.6044 C   0  0  0  0  0  0  0  0  0  0  0  0
    5.1047    1.2162   -2.7463 C   0  0  0  0  0  0  0  0  0  0  0  0
    3.9377    0.6503   -2.2192 C   0  0  0  0  0  0  0  0  0  0  0  0
    7.5422    1.0427   -2.9898 O   0  0  0  0  0  0  0  0  0  0  0  0
    7.5436    1.9718   -4.0655 C   0  0  0  0  0  0  0  0  0  0  0  0
    2.2822    3.5710   -0.2978 O   0  0  0  0  0  0  0  0  0  0  0  0
    2.4981    5.4951    4.2618 O   0  0  0  0  0  0  0  0  0  0  0  0
   -1.4862    0.5222    2.8965 H   0  0  0  0  0  0  0  0  0  0  0  0
   -2.8834    1.1647    2.0199 H   0  0  0  0  0  0  0  0  0  0  0  0
   -1.8419    3.3845    5.3426 H   0  0  0  0  0  0  0  0  0  0  0  0
    0.3200    4.5081    5.4390 H   0  0  0  0  0  0  0  0  0  0  0  0
    2.6412    4.7033    1.8499 H   0  0  0  0  0  0  0  0  0  0  0  0
    0.2684    3.3259   -0.3080 H   0  0  0  0  0  0  0  0  0  0  0  0
    0.3234    0.9402    0.4469 H   0  0  0  0  0  0  0  0  0  0  0  0
    1.3020    1.2371   -0.9750 H   0  0  0  0  0  0  0  0  0  0  0  0
    3.2581    1.2670    0.3858 H   0  0  0  0  0  0  0  0  0  0  0  0
    2.8124   -2.2148   -0.8318 H   0  0  0  0  0  0  0  0  0  0  0  0
    1.8626   -0.8873   -1.4260 H   0  0  0  0  0  0  0  0  0  0  0  0
    3.5994   -0.7849    2.5789 H   0  0  0  0  0  0  0  0  0  0  0  0
    3.9989   -2.0752    1.4398 H   0  0  0  0  0  0  0  0  0  0  0  0
    4.6798   -0.4542    1.2292 H   0  0  0  0  0  0  0  0  0  0  0  0
    1.1471   -0.9978    2.2925 H   0  0  0  0  0  0  0  0  0  0  0  0
    0.4242   -1.2011    0.6869 H   0  0  0  0  0  0  0  0  0  0  0  0
    1.5128   -2.4288    1.3243 H   0  0  0  0  0  0  0  0  0  0  0  0
    5.2617   -2.2053   -0.9318 H   0  0  0  0  0  0  0  0  0  0  0  0
    7.3088   -1.1978   -1.8498 H   0  0  0  0  0  0  0  0  0  0  0  0
    5.0265    2.1877   -3.2226 H   0  0  0  0  0  0  0  0  0  0  0  0
    3.0057    1.1968   -2.3322 H   0  0  0  0  0  0  0  0  0  0  0  0
    7.1827    1.4940   -4.9818 H   0  0  0  0  0  0  0  0  0  0  0  0
    6.9713    2.8757   -3.8385 H   0  0  0  0  0  0  0  0  0  0  0  0
    8.5803    2.2810   -4.2305 H   0  0  0  0  0  0  0  0  0  0  0  0
    3.0303    3.2872    0.2547 H   0  0  0  0  0  0  0  0  0  0  0  0
    2.2652    5.6443    5.1924 H   0  0  0  0  0  0  0  0  0  0  0  0
  1  2  1  0  0  0  0
  1  6  1  0  0  0  0
  2  3  1  0  0  0  0
  2 29  1  0  0  0  0
  2 30  1  0  0  0  0
  3  4  1  0  0  0  0
  3 11  2  0  0  0  0
  4  5  1  0  0  0  0
  4 31  1  0  0  0  0
  5  6  2  0  0  0  0
  5  7  1  0  0  0  0
  6 10  1  0  0  0  0
  7  8  2  0  0  0  0
  7 32  1  0  0  0  0
  8  9  1  0  0  0  0
  8 28  1  0  0  0  0
  9 10  2  0  0  0  0
  9 33  1  0  0  0  0
 12 27  1  0  0  0  0
 12 34  1  6  0  0  0
 12 13  1  0  0  0  0
 12 10  1  0  0  0  0
 13 14  1  0  0  0  0
 13 35  1  0  0  0  0
 13 36  1  0  0  0  0
 14 16  1  0  0  0  0
 14 37  1  0  0  0  0
 15 16  1  0  0  0  0
 15 19  1  0  0  0  0
 15 38  1  0  0  0  0
 15 39  1  0  0  0  0
 16 17  1  0  0  0  0
 16 18  1  0  0  0  0
 17 40  1  0  0  0  0
 17 41  1  0  0  0  0
 17 42  1  0  0  0  0
 18 43  1  0  0  0  0
 18 44  1  0  0  0  0
 18 45  1  0  0  0  0
 19 20  2  0  0  0  0
 19 24  1  0  0  0  0
 20 21  1  0  0  0  0
 20 46  1  0  0  0  0
 21 22  2  0  0  0  0
 21 47  1  0  0  0  0
 22 23  1  0  0  0  0
 22 25  1  0  0  0  0
 23 24  2  0  0  0  0
 23 48  1  0  0  0  0
 24 49  1  0  0  0  0
 25 26  1  0  0  0  0
 26 50  1  0  0  0  0
 26 51  1  0  0  0  0
 26 52  1  0  0  0  0
 27 53  1  0  0  0  0
 28 54  1  0  0  0  0
M  END
>  <Mol_ID>
3186

>  <Formula>
C21H27ClN2O5

>  <MolWeight>
422.90248

>  <Cat>
S5925

>  <Name>
Olodaterol hydrochloride

>  <Synonyms>
BI-1744 HCl

>  <Target>
Adrenergic Receptor

>  <Form>
hydrochloride

>  <CAS>
869477-96-3

>  <URL>
http://www.selleckchem.com/products/olodaterol-hydrochloride.html

$$$$
