Olopatadine HCl.cdx
 OpenBabel08302521383D

 48 50  0  0  0  0  0  0  0  0999 V2000
    0.0554   -0.9839   -0.9996 C   0  0  0  0  0  0  0  0  0  0  0  0
    0.0224   -1.6080   -2.1984 C   0  0  0  0  0  0  0  0  0  0  0  0
    1.3087   -0.5201   -0.3652 C   0  0  0  0  0  0  0  0  0  0  0  0
    1.5121    0.8043    0.0620 C   0  0  0  0  0  0  0  0  0  0  0  0
    0.6185    1.8460    0.0335 O   0  0  0  0  0  0  0  0  0  0  0  0
   -0.5461    1.7553   -0.7900 C   0  0  0  0  0  0  0  0  0  0  0  0
   -1.5497    0.7446   -0.2908 C   0  0  0  0  0  0  0  0  0  0  0  0
   -1.2493   -0.6198   -0.4145 C   0  0  0  0  0  0  0  0  0  0  0  0
   -2.7629    1.1251    0.2957 C   0  0  0  0  0  0  0  0  0  0  0  0
   -3.6548    0.1540    0.7582 C   0  0  0  0  0  0  0  0  0  0  0  0
   -3.3433   -1.2009    0.6425 C   0  0  0  0  0  0  0  0  0  0  0  0
   -2.1407   -1.5901    0.0559 C   0  0  0  0  0  0  0  0  0  0  0  0
    2.3071   -1.4770   -0.1091 C   0  0  0  0  0  0  0  0  0  0  0  0
    3.5464   -1.1201    0.4329 C   0  0  0  0  0  0  0  0  0  0  0  0
    3.7576    0.2101    0.8024 C   0  0  0  0  0  0  0  0  0  0  0  0
    2.7380    1.1523    0.6445 C   0  0  0  0  0  0  0  0  0  0  0  0
    1.1621   -2.0218   -3.1003 C   0  0  0  0  0  0  0  0  0  0  0  0
    1.0840   -3.5339   -3.3835 C   0  0  0  0  0  0  0  0  0  0  0  0
    2.2001   -4.0847   -4.1741 N   0  0  0  0  0  0  0  0  0  0  0  0
    1.9820   -5.5231   -4.3817 C   0  0  0  0  0  0  0  0  0  0  0  0
    2.3340   -3.4237   -5.4757 C   0  0  0  0  0  0  0  0  0  0  0  0
    4.6374   -2.1482    0.5718 C   0  0  0  0  0  0  0  0  0  0  0  0
    5.5573   -2.2131   -0.6223 C   0  0  0  0  0  0  0  0  0  0  0  0
    4.9709   -2.5652   -1.7857 O   0  0  0  0  0  0  0  0  0  0  0  0
    6.7625   -2.0066   -0.5492 O   0  0  0  0  0  0  0  0  0  0  0  0
   -0.9557   -1.8294   -2.6301 H   0  0  0  0  0  0  0  0  0  0  0  0
   -0.2670    1.5725   -1.8361 H   0  0  0  0  0  0  0  0  0  0  0  0
   -1.0064    2.7509   -0.7856 H   0  0  0  0  0  0  0  0  0  0  0  0
   -3.0175    2.1764    0.4054 H   0  0  0  0  0  0  0  0  0  0  0  0
   -4.5917    0.4544    1.2209 H   0  0  0  0  0  0  0  0  0  0  0  0
   -4.0306   -1.9528    1.0202 H   0  0  0  0  0  0  0  0  0  0  0  0
   -1.8919   -2.6459   -0.0130 H   0  0  0  0  0  0  0  0  0  0  0  0
    2.1086   -2.5209   -0.3469 H   0  0  0  0  0  0  0  0  0  0  0  0
    4.7074    0.5250    1.2309 H   0  0  0  0  0  0  0  0  0  0  0  0
    2.9027    2.1766    0.9734 H   0  0  0  0  0  0  0  0  0  0  0  0
    1.0691   -1.4549   -4.0338 H   0  0  0  0  0  0  0  0  0  0  0  0
    2.1419   -1.7692   -2.6881 H   0  0  0  0  0  0  0  0  0  0  0  0
    1.0686   -4.0555   -2.4168 H   0  0  0  0  0  0  0  0  0  0  0  0
    0.1270   -3.7532   -3.8771 H   0  0  0  0  0  0  0  0  0  0  0  0
    1.0575   -5.7235   -4.9368 H   0  0  0  0  0  0  0  0  0  0  0  0
    2.8168   -5.9678   -4.9353 H   0  0  0  0  0  0  0  0  0  0  0  0
    1.9287   -6.0480   -3.4218 H   0  0  0  0  0  0  0  0  0  0  0  0
    1.3779   -3.3604   -6.0082 H   0  0  0  0  0  0  0  0  0  0  0  0
    2.7381   -2.4138   -5.3545 H   0  0  0  0  0  0  0  0  0  0  0  0
    3.0439   -3.9577   -6.1189 H   0  0  0  0  0  0  0  0  0  0  0  0
    5.2415   -1.9207    1.4596 H   0  0  0  0  0  0  0  0  0  0  0  0
    4.2200   -3.1467    0.7426 H   0  0  0  0  0  0  0  0  0  0  0  0
    4.0074   -2.7131   -1.7396 H   0  0  0  0  0  0  0  0  0  0  0  0
  1  2  2  0  0  0  0
  1  3  1  0  0  0  0
  2 17  1  0  0  0  0
  2 26  1  0  0  0  0
  3  4  2  0  0  0  0
  3 13  1  0  0  0  0
  4  5  1  0  0  0  0
  5  6  1  0  0  0  0
  6  7  1  0  0  0  0
  6 27  1  0  0  0  0
  6 28  1  0  0  0  0
  7  8  2  0  0  0  0
  7  9  1  0  0  0  0
  8  1  1  0  0  0  0
  9 10  2  0  0  0  0
  9 29  1  0  0  0  0
 10 11  1  0  0  0  0
 10 30  1  0  0  0  0
 11 12  2  0  0  0  0
 11 31  1  0  0  0  0
 12  8  1  0  0  0  0
 12 32  1  0  0  0  0
 13 14  2  0  0  0  0
 13 33  1  0  0  0  0
 14 15  1  0  0  0  0
 14 22  1  0  0  0  0
 15 16  2  0  0  0  0
 15 34  1  0  0  0  0
 16  4  1  0  0  0  0
 16 35  1  0  0  0  0
 17 18  1  0  0  0  0
 17 36  1  0  0  0  0
 17 37  1  0  0  0  0
 18 19  1  0  0  0  0
 18 38  1  0  0  0  0
 18 39  1  0  0  0  0
 19 20  1  0  0  0  0
 19 21  1  0  0  0  0
 20 40  1  0  0  0  0
 20 41  1  0  0  0  0
 20 42  1  0  0  0  0
 21 43  1  0  0  0  0
 21 44  1  0  0  0  0
 21 45  1  0  0  0  0
 22 23  1  0  0  0  0
 22 46  1  0  0  0  0
 22 47  1  0  0  0  0
 23 24  1  0  0  0  0
 23 25  2  0  0  0  0
 24 48  1  0  0  0  0
M  END
>  <Mol_ID>
766

>  <Formula>
C21H24ClNO3

>  <MolWeight>
373.87316

>  <Cat>
S2494

>  <Name>
Olopatadine HCl

>  <Synonyms>
ALO4943A,KW4679

>  <Target>
Histamine Receptor

>  <Form>
Hydrochloride

>  <CAS>
140462-76-6

>  <URL>
http://selleckchem.com/products/Olopatadine-hydrochloride(Opatanol).html

$$$$
