Oltipraz.cdx
 OpenBabel08302519553D

 19 20  0  0  0  0  0  0  0  0999 V2000
    0.9222    0.7567    0.7306 C   0  0  0  0  0  0  0  0  0  0  0  0
    1.3200   -0.3347   -0.0236 C   0  0  0  0  0  0  0  0  0  0  0  0
    0.5127   -1.3970   -0.2497 N   0  0  0  0  0  0  0  0  0  0  0  0
   -0.7290   -1.3182    0.2938 C   0  0  0  0  0  0  0  0  0  0  0  0
   -1.1249   -0.2132    1.0423 C   0  0  0  0  0  0  0  0  0  0  0  0
   -0.3090    0.8428    1.2829 N   0  0  0  0  0  0  0  0  0  0  0  0
   -1.6065   -2.4763    0.1016 C   0  0  0  0  0  0  0  0  0  0  0  0
   -2.5599   -2.4486   -1.3376 S   0  0  0  0  0  0  0  0  0  0  0  0
   -3.4328   -4.2494   -0.9803 S   0  0  0  0  0  0  0  0  0  0  0  0
   -2.6206   -4.6015    0.5433 C   0  0  0  0  0  0  0  0  0  0  0  0
   -1.6777   -3.5147    0.9550 C   0  0  0  0  0  0  0  0  0  0  0  0
   -0.8980   -3.6594    2.2281 C   0  0  0  0  0  0  0  0  0  0  0  0
   -2.9469   -6.0238    1.3717 S   0  0  0  0  0  0  0  0  0  0  0  0
    1.5872    1.5926    0.9135 H   0  0  0  0  0  0  0  0  0  0  0  0
    2.3080   -0.3859   -0.4678 H   0  0  0  0  0  0  0  0  0  0  0  0
   -2.1137   -0.1462    1.4840 H   0  0  0  0  0  0  0  0  0  0  0  0
   -1.5748   -3.7400    3.0851 H   0  0  0  0  0  0  0  0  0  0  0  0
   -0.2634   -4.5505    2.1927 H   0  0  0  0  0  0  0  0  0  0  0  0
   -0.2389   -2.8084    2.4251 H   0  0  0  0  0  0  0  0  0  0  0  0
  1  2  2  0  0  0  0
  1 14  1  0  0  0  0
  2  3  1  0  0  0  0
  2 15  1  0  0  0  0
  3  4  2  0  0  0  0
  4  5  1  0  0  0  0
  4  7  1  0  0  0  0
  5  6  2  0  0  0  0
  5 16  1  0  0  0  0
  6  1  1  0  0  0  0
  7  8  1  0  0  0  0
  8  9  1  0  0  0  0
  9 10  1  0  0  0  0
 10 11  1  0  0  0  0
 10 13  2  0  0  0  0
 11  7  2  0  0  0  0
 11 12  1  0  0  0  0
 12 17  1  0  0  0  0
 12 18  1  0  0  0  0
 12 19  1  0  0  0  0
M  END
>  <Mol_ID>
2185

>  <Formula>
C8H6N2S3

>  <MolWeight>
226.34164

>  <Cat>
S7864

>  <Name>
Oltipraz

>  <Synonyms>
N/A

>  <Target>
Nrf2

>  <Form>
free base

>  <CAS>
64224-21-1

>  <URL>
http://selleckchem.com/products/oltipraz.html

$$$$
