Omarigliptin (MK-3102).cdx
 OpenBabel08302520423D

 47 50  0  0  0  0  0  0  0  0999 V2000
    3.3811    0.7379    3.3577 C   0  0  0  0  0  0  0  0  0  0  0  0
    3.8950    0.7718    2.0612 C   0  0  0  0  0  0  0  0  0  0  0  0
    3.2251    1.4772    1.0583 C   0  0  0  0  0  0  0  0  0  0  0  0
    2.0252    2.1342    1.3195 C   0  0  0  0  0  0  0  0  0  0  0  0
    1.5506    2.1428    2.6487 C   0  0  0  0  0  0  0  0  0  0  0  0
    2.2216    1.4424    3.6453 C   0  0  0  0  0  0  0  0  0  0  0  0
    1.7444    1.4566    4.8976 F   0  0  0  0  0  0  0  0  0  0  0  0
    3.7860    1.5473   -0.1570 F   0  0  0  0  0  0  0  0  0  0  0  0
    1.2774    2.9359    0.2932 C   0  0  1  0  0  0  0  0  0  0  0  0
    1.8904    4.2308    0.3328 O   0  0  0  0  0  0  0  0  0  0  0  0
    1.0085    5.2232   -0.1643 C   0  0  0  0  0  0  0  0  0  0  0  0
    0.6309    4.9950   -1.6501 C   0  0  1  0  0  0  0  0  0  0  0  0
    0.2150    3.5162   -1.8821 C   0  0  0  0  0  0  0  0  0  0  0  0
    1.1778    2.5089   -1.1970 C   0  0  2  0  0  0  0  0  0  0  0  0
    0.6924    1.1396   -1.4429 N   0  0  0  0  0  0  0  0  0  0  0  0
   -0.4193    5.9606   -2.0402 N   0  0  3  0  0  0  0  0  0  0  0  0
    0.0230    7.3926   -1.8696 C   0  0  0  0  0  0  0  0  0  0  0  0
   -0.4279    8.0282   -3.1064 C   0  0  0  0  0  0  0  0  0  0  0  0
   -1.0109    7.1177   -3.9674 C   0  0  0  0  0  0  0  0  0  0  0  0
   -0.9997    5.7520   -3.4094 C   0  0  0  0  0  0  0  0  0  0  0  0
   -0.4375    9.2234   -3.7615 C   0  0  0  0  0  0  0  0  0  0  0  0
   -1.0408    8.9530   -4.9777 N   0  0  0  0  0  0  0  0  0  0  0  0
   -1.3856    7.6271   -5.1323 N   0  0  0  0  0  0  0  0  0  0  0  0
   -1.2389   10.1748   -6.1659 S   0  0  0  0  0  0  0  0  0  0  0  0
   -2.0900   11.1693   -5.5380 O   0  0  0  0  0  0  0  0  0  0  0  0
    0.1118   10.4977   -6.5968 O   0  0  0  0  0  0  0  0  0  0  0  0
   -2.1126    9.4655   -7.5364 C   0  0  0  0  0  0  0  0  0  0  0  0
    3.8839    0.1851    4.1455 H   0  0  0  0  0  0  0  0  0  0  0  0
    4.8234    0.2640    1.8240 H   0  0  0  0  0  0  0  0  0  0  0  0
    0.6656    2.7114    2.9231 H   0  0  0  0  0  0  0  0  0  0  0  0
    0.2455    3.0153    0.6675 H   0  0  0  0  0  0  0  0  0  0  0  0
    0.1177    5.2491    0.4756 H   0  0  0  0  0  0  0  0  0  0  0  0
    1.5240    6.1794   -0.0331 H   0  0  0  0  0  0  0  0  0  0  0  0
    1.5297    5.1626   -2.2598 H   0  0  0  0  0  0  0  0  0  0  0  0
   -0.8006    3.3652   -1.4880 H   0  0  0  0  0  0  0  0  0  0  0  0
    0.1691    3.2959   -2.9554 H   0  0  0  0  0  0  0  0  0  0  0  0
    2.1620    2.6055   -1.6756 H   0  0  0  0  0  0  0  0  0  0  0  0
    0.7651    0.9291   -2.4384 H   0  0  0  0  0  0  0  0  0  0  0  0
   -0.2982    1.0636   -1.2170 H   0  0  0  0  0  0  0  0  0  0  0  0
   -0.4609    7.8245   -0.9895 H   0  0  0  0  0  0  0  0  0  0  0  0
    1.1107    7.4918   -1.7848 H   0  0  0  0  0  0  0  0  0  0  0  0
   -0.3915    5.0979   -4.0406 H   0  0  0  0  0  0  0  0  0  0  0  0
   -2.0149    5.3514   -3.3156 H   0  0  0  0  0  0  0  0  0  0  0  0
   -0.0804   10.2145   -3.5185 H   0  0  0  0  0  0  0  0  0  0  0  0
   -1.5113    8.6602   -7.9606 H   0  0  0  0  0  0  0  0  0  0  0  0
   -3.0771    9.0928   -7.1867 H   0  0  0  0  0  0  0  0  0  0  0  0
   -2.2644   10.2479   -8.2828 H   0  0  0  0  0  0  0  0  0  0  0  0
  1  2  2  0  0  0  0
  1 28  1  0  0  0  0
  2  3  1  0  0  0  0
  2 29  1  0  0  0  0
  3  4  2  0  0  0  0
  3  8  1  0  0  0  0
  4  5  1  0  0  0  0
  5  6  2  0  0  0  0
  5 30  1  0  0  0  0
  6  1  1  0  0  0  0
  6  7  1  0  0  0  0
  9 10  1  0  0  0  0
  9 31  1  1  0  0  0
  9  4  1  0  0  0  0
 10 11  1  0  0  0  0
 11 32  1  0  0  0  0
 11 33  1  0  0  0  0
 12 11  1  0  0  0  0
 12 13  1  0  0  0  0
 12 16  1  0  0  0  0
 12 34  1  6  0  0  0
 13 14  1  0  0  0  0
 13 35  1  0  0  0  0
 13 36  1  0  0  0  0
 14  9  1  0  0  0  0
 14 37  1  6  0  0  0
 14 15  1  0  0  0  0
 15 38  1  0  0  0  0
 15 39  1  0  0  0  0
 16 17  1  0  0  0  0
 17 18  1  0  0  0  0
 17 40  1  0  0  0  0
 17 41  1  0  0  0  0
 18 19  1  0  0  0  0
 18 21  2  0  0  0  0
 19 20  1  0  0  0  0
 20 16  1  0  0  0  0
 20 42  1  0  0  0  0
 20 43  1  0  0  0  0
 21 22  1  0  0  0  0
 21 44  1  0  0  0  0
 22 23  1  0  0  0  0
 22 24  1  0  0  0  0
 23 19  2  0  0  0  0
 24 25  2  0  0  0  0
 24 26  2  0  0  0  0
 24 27  1  0  0  0  0
 27 45  1  0  0  0  0
 27 46  1  0  0  0  0
 27 47  1  0  0  0  0
M  END
>  <Mol_ID>
4001

>  <Formula>
C17H20F2N4O3S

>  <MolWeight>
398.4275064

>  <Cat>
S8565

>  <Name>
Omarigliptin (MK-3102)

>  <Synonyms>
N/A

>  <Target>
DPP

>  <Form>
free base

>  <CAS>
1226781-44-7

>  <URL>
http://selleckchem.com/products/omarigliptin-mk-3102.html

$$$$
