Omeprazole.cdx
 OpenBabel08302519573D

 43 45  0  0  0  0  0  0  0  0999 V2000
   -5.8316    2.4569    5.5354 C   0  0  0  0  0  0  0  0  0  0  0  0
   -6.4385    1.2045    5.6754 C   0  0  0  0  0  0  0  0  0  0  0  0
   -6.3507    0.2614    4.6409 C   0  0  0  0  0  0  0  0  0  0  0  0
   -5.6517    0.5881    3.4683 C   0  0  0  0  0  0  0  0  0  0  0  0
   -5.0397    1.8315    3.3690 C   0  0  0  0  0  0  0  0  0  0  0  0
   -5.1150    2.7991    4.3760 C   0  0  0  0  0  0  0  0  0  0  0  0
   -5.4528   -0.1502    2.3279 N   0  0  0  0  0  0  0  0  0  0  0  0
   -4.6938    0.5977    1.5546 C   0  0  0  0  0  0  0  0  0  0  0  0
   -4.4185    1.8040    2.1469 N   0  0  0  0  0  0  0  0  0  0  0  0
   -7.1471    0.7744    6.7667 O   0  0  0  0  0  0  0  0  0  0  0  0
   -7.2921    1.6808    7.8514 C   0  0  0  0  0  0  0  0  0  0  0  0
   -4.0900    0.1354   -0.0163 S   0  0  3  0  0  0  0  0  0  0  0  0
   -2.6027    0.3049    0.0597 O   0  0  0  0  0  0  0  0  0  0  0  0
   -4.5602   -1.6114    0.0269 C   0  0  0  0  0  0  0  0  0  0  0  0
   -4.1088   -2.3892   -1.1907 C   0  0  0  0  0  0  0  0  0  0  0  0
   -2.9053   -3.1227   -1.2423 C   0  0  0  0  0  0  0  0  0  0  0  0
   -2.6958   -3.9420   -2.3749 C   0  0  0  0  0  0  0  0  0  0  0  0
   -3.6582   -3.9917   -3.3991 C   0  0  0  0  0  0  0  0  0  0  0  0
   -4.7783   -3.1908   -3.2653 C   0  0  0  0  0  0  0  0  0  0  0  0
   -5.0191   -2.3989   -2.2026 N   0  0  0  0  0  0  0  0  0  0  0  0
   -1.9269   -3.0804   -0.1029 C   0  0  0  0  0  0  0  0  0  0  0  0
   -3.5097   -4.8881   -4.5917 C   0  0  0  0  0  0  0  0  0  0  0  0
   -1.6815   -4.8578   -2.5262 O   0  0  0  0  0  0  0  0  0  0  0  0
   -0.3529   -4.4527   -2.2295 C   0  0  0  0  0  0  0  0  0  0  0  0
   -5.8929    3.2025    6.3223 H   0  0  0  0  0  0  0  0  0  0  0  0
   -6.8159   -0.7130    4.7397 H   0  0  0  0  0  0  0  0  0  0  0  0
   -4.6440    3.7711    4.2766 H   0  0  0  0  0  0  0  0  0  0  0  0
   -3.8532    2.5346    1.7377 H   0  0  0  0  0  0  0  0  0  0  0  0
   -6.3208    1.9235    8.2958 H   0  0  0  0  0  0  0  0  0  0  0  0
   -7.8234    2.5875    7.5426 H   0  0  0  0  0  0  0  0  0  0  0  0
   -7.8958    1.1892    8.6204 H   0  0  0  0  0  0  0  0  0  0  0  0
   -4.2284   -2.0855    0.9550 H   0  0  0  0  0  0  0  0  0  0  0  0
   -5.6576   -1.6395    0.0531 H   0  0  0  0  0  0  0  0  0  0  0  0
   -5.5603   -3.1819   -4.0210 H   0  0  0  0  0  0  0  0  0  0  0  0
   -1.7626   -4.0884    0.2901 H   0  0  0  0  0  0  0  0  0  0  0  0
   -0.9821   -2.6377   -0.4326 H   0  0  0  0  0  0  0  0  0  0  0  0
   -2.2494   -2.4703    0.7404 H   0  0  0  0  0  0  0  0  0  0  0  0
   -2.6061   -4.6350   -5.1527 H   0  0  0  0  0  0  0  0  0  0  0  0
   -3.4630   -5.9364   -4.2787 H   0  0  0  0  0  0  0  0  0  0  0  0
   -4.3615   -4.7904   -5.2773 H   0  0  0  0  0  0  0  0  0  0  0  0
   -0.1493   -3.4206   -2.5303 H   0  0  0  0  0  0  0  0  0  0  0  0
   -0.1306   -4.6167   -1.1721 H   0  0  0  0  0  0  0  0  0  0  0  0
    0.3259   -5.1063   -2.7873 H   0  0  0  0  0  0  0  0  0  0  0  0
  1  2  2  0  0  0  0
  1 25  1  0  0  0  0
  2  3  1  0  0  0  0
  2 10  1  0  0  0  0
  3  4  2  0  0  0  0
  3 26  1  0  0  0  0
  4  5  1  0  0  0  0
  4  7  1  0  0  0  0
  5  6  2  0  0  0  0
  6  1  1  0  0  0  0
  6 27  1  0  0  0  0
  7  8  2  0  0  0  0
  8  9  1  0  0  0  0
  8 12  1  0  0  0  0
  9  5  1  0  0  0  0
  9 28  1  0  0  0  0
 10 11  1  0  0  0  0
 11 29  1  0  0  0  0
 11 30  1  0  0  0  0
 11 31  1  0  0  0  0
 12 13  2  0  0  0  0
 12 14  1  0  0  0  0
 14 15  1  0  0  0  0
 14 32  1  0  0  0  0
 14 33  1  0  0  0  0
 15 16  2  0  0  0  0
 16 17  1  0  0  0  0
 16 21  1  0  0  0  0
 17 18  2  0  0  0  0
 17 23  1  0  0  0  0
 18 19  1  0  0  0  0
 18 22  1  0  0  0  0
 19 20  2  0  0  0  0
 19 34  1  0  0  0  0
 20 15  1  0  0  0  0
 21 35  1  0  0  0  0
 21 36  1  0  0  0  0
 21 37  1  0  0  0  0
 22 38  1  0  0  0  0
 22 39  1  0  0  0  0
 22 40  1  0  0  0  0
 23 24  1  0  0  0  0
 24 41  1  0  0  0  0
 24 42  1  0  0  0  0
 24 43  1  0  0  0  0
M  END
>  <Mol_ID>
234

>  <Formula>
C17H19N3O3S

>  <MolWeight>
345.41606

>  <Cat>
S1389

>  <Name>
Omeprazole

>  <Synonyms>
N/A

>  <Target>
ATPase,Autophagy,Proton Pump

>  <Form>
free base

>  <CAS>
73590-58-6

>  <URL>
http://selleckchem.com/products/Omeprazole.html

$$$$
