ONC206
 OpenBabel08302521253D

 52 56  0  0  0  0  0  0  0  0999 V2000
    2.8632    0.7157    1.2628 F   0  0  0  0  0  0  0  0  0  0  0  0
   -1.6726    1.7079    0.4660 F   0  0  0  0  0  0  0  0  0  0  0  0
    1.1751   -4.1677    0.4407 O   0  0  0  0  0  0  0  0  0  0  0  0
    3.8503   -3.4918    3.2873 N   0  0  0  0  0  0  0  0  0  0  0  0
    1.1469   -6.7008    3.8038 N   0  0  0  0  0  0  0  0  0  0  0  0
    2.8124   -2.7781    1.2796 N   0  0  0  0  0  0  0  0  0  0  0  0
    5.0775   -2.2594    1.8089 N   0  0  0  0  0  0  0  0  0  0  0  0
    2.8817   -4.4321    3.5405 C   0  0  0  0  0  0  0  0  0  0  0  0
    1.9202   -4.6461    2.6220 C   0  0  0  0  0  0  0  0  0  0  0  0
    2.9235   -5.2653    4.7895 C   0  0  0  0  0  0  0  0  0  0  0  0
    0.8611   -5.6917    2.7584 C   0  0  0  0  0  0  0  0  0  0  0  0
    1.6173   -6.0431    5.0333 C   0  0  0  0  0  0  0  0  0  0  0  0
    3.9223   -2.8066    2.0924 C   0  0  0  0  0  0  0  0  0  0  0  0
    5.0294   -3.1644    4.0492 C   0  0  0  0  0  0  0  0  0  0  0  0
    1.9232   -3.8350    1.3657 C   0  0  0  0  0  0  0  0  0  0  0  0
    5.9605   -2.8293    2.8835 C   0  0  0  0  0  0  0  0  0  0  0  0
   -0.0481   -7.5198    4.0728 C   0  0  0  0  0  0  0  0  0  0  0  0
    2.7123   -1.8880    0.1290 C   0  0  0  0  0  0  0  0  0  0  0  0
   -0.5102   -8.3248    2.8708 C   0  0  0  0  0  0  0  0  0  0  0  0
    1.5277   -0.9327    0.2062 C   0  0  0  0  0  0  0  0  0  0  0  0
    0.3445   -9.2471    2.2496 C   0  0  0  0  0  0  0  0  0  0  0  0
   -1.7979   -8.1392    2.3468 C   0  0  0  0  0  0  0  0  0  0  0  0
    1.6694    0.3318    0.7879 C   0  0  0  0  0  0  0  0  0  0  0  0
    0.2587   -1.2839   -0.2920 C   0  0  0  0  0  0  0  0  0  0  0  0
   -0.0668   -9.9420    1.1118 C   0  0  0  0  0  0  0  0  0  0  0  0
   -2.2124   -8.8432    1.2151 C   0  0  0  0  0  0  0  0  0  0  0  0
    0.6047    1.2287    0.8774 C   0  0  0  0  0  0  0  0  0  0  0  0
   -0.8144   -0.3957   -0.2008 C   0  0  0  0  0  0  0  0  0  0  0  0
   -1.3436   -9.7381    0.5927 C   0  0  0  0  0  0  0  0  0  0  0  0
   -0.6359    0.8536    0.3831 C   0  0  0  0  0  0  0  0  0  0  0  0
    3.1219   -4.6350    5.6656 H   0  0  0  0  0  0  0  0  0  0  0  0
    3.7565   -5.9763    4.7050 H   0  0  0  0  0  0  0  0  0  0  0  0
    0.7559   -6.2137    1.7992 H   0  0  0  0  0  0  0  0  0  0  0  0
   -0.0878   -5.1771    2.9681 H   0  0  0  0  0  0  0  0  0  0  0  0
    0.8508   -5.3600    5.4258 H   0  0  0  0  0  0  0  0  0  0  0  0
    1.8107   -6.7930    5.8120 H   0  0  0  0  0  0  0  0  0  0  0  0
    4.8456   -2.2705    4.6548 H   0  0  0  0  0  0  0  0  0  0  0  0
    5.4085   -3.9667    4.6868 H   0  0  0  0  0  0  0  0  0  0  0  0
    6.7632   -2.1395    3.1663 H   0  0  0  0  0  0  0  0  0  0  0  0
    6.4166   -3.7532    2.4981 H   0  0  0  0  0  0  0  0  0  0  0  0
    0.1621   -8.2366    4.8743 H   0  0  0  0  0  0  0  0  0  0  0  0
   -0.8673   -6.8853    4.4306 H   0  0  0  0  0  0  0  0  0  0  0  0
    2.6183   -2.4951   -0.7833 H   0  0  0  0  0  0  0  0  0  0  0  0
    3.6354   -1.3013    0.0068 H   0  0  0  0  0  0  0  0  0  0  0  0
    1.3511   -9.4046    2.6394 H   0  0  0  0  0  0  0  0  0  0  0  0
   -2.4839   -7.4321    2.8072 H   0  0  0  0  0  0  0  0  0  0  0  0
    0.0954   -2.2554   -0.7579 H   0  0  0  0  0  0  0  0  0  0  0  0
    0.6127  -10.6342    0.6226 H   0  0  0  0  0  0  0  0  0  0  0  0
   -3.2091   -8.6852    0.8116 H   0  0  0  0  0  0  0  0  0  0  0  0
    0.7426    2.2044    1.3211 H   0  0  0  0  0  0  0  0  0  0  0  0
   -1.7999   -0.6672   -0.5846 H   0  0  0  0  0  0  0  0  0  0  0  0
   -1.6608  -10.2698   -0.3006 H   0  0  0  0  0  0  0  0  0  0  0  0
  1 23  1  0  0  0  0
  2 30  1  0  0  0  0
  3 15  2  0  0  0  0
  4  8  1  0  0  0  0
  4 13  1  0  0  0  0
  4 14  1  0  0  0  0
  5 11  1  0  0  0  0
  5 12  1  0  0  0  0
  5 17  1  0  0  0  0
  6 13  1  0  0  0  0
  6 15  1  0  0  0  0
  6 18  1  0  0  0  0
  7 13  2  0  0  0  0
  7 16  1  0  0  0  0
  8  9  2  0  0  0  0
  8 10  1  0  0  0  0
  9 11  1  0  0  0  0
  9 15  1  0  0  0  0
 10 12  1  0  0  0  0
 10 31  1  0  0  0  0
 10 32  1  0  0  0  0
 11 33  1  0  0  0  0
 11 34  1  0  0  0  0
 12 35  1  0  0  0  0
 12 36  1  0  0  0  0
 14 16  1  0  0  0  0
 14 37  1  0  0  0  0
 14 38  1  0  0  0  0
 16 39  1  0  0  0  0
 16 40  1  0  0  0  0
 17 19  1  0  0  0  0
 17 41  1  0  0  0  0
 17 42  1  0  0  0  0
 18 20  1  0  0  0  0
 18 43  1  0  0  0  0
 18 44  1  0  0  0  0
 19 21  2  0  0  0  0
 19 22  1  0  0  0  0
 20 23  2  0  0  0  0
 20 24  1  0  0  0  0
 21 25  1  0  0  0  0
 21 45  1  0  0  0  0
 22 26  2  0  0  0  0
 22 46  1  0  0  0  0
 23 27  1  0  0  0  0
 24 28  2  0  0  0  0
 24 47  1  0  0  0  0
 25 29  2  0  0  0  0
 25 48  1  0  0  0  0
 26 29  1  0  0  0  0
 26 49  1  0  0  0  0
 27 30  2  0  0  0  0
 27 50  1  0  0  0  0
 28 30  1  0  0  0  0
 28 51  1  0  0  0  0
 29 52  1  0  0  0  0
M  END
>  <Mol_ID>
5195

>  <Formula>
C23H22F2N4O

>  <MolWeight>
408.4437864

>  <Cat>
S6853

>  <Name>
ONC206

>  <Synonyms>
N/A

>  <Target>
Dopamine Receptor

>  <Form>
free base

>  <CAS>
1638178-87-6

>  <URL>
http://www.selleckchem.com/products/onc206.html

$$$$
