ONC212.cdx
 OpenBabel08302520433D

 55 59  0  0  0  0  0  0  0  0999 V2000
   -3.5664   -2.7004    2.1191 C   0  0  0  0  0  0  0  0  0  0  0  0
   -4.9528   -2.5313    2.0980 C   0  0  0  0  0  0  0  0  0  0  0  0
   -5.4987   -1.2585    1.9761 C   0  0  0  0  0  0  0  0  0  0  0  0
   -4.6587   -0.1433    1.8845 C   0  0  0  0  0  0  0  0  0  0  0  0
   -3.2605   -0.2969    1.9348 C   0  0  0  0  0  0  0  0  0  0  0  0
   -2.7266   -1.5908    2.0331 C   0  0  0  0  0  0  0  0  0  0  0  0
   -2.3596    0.9188    1.8755 C   0  0  0  0  0  0  0  0  0  0  0  0
   -1.3822    1.0103    2.9762 N   0  0  0  0  0  0  0  0  0  0  0  0
   -2.0060    1.1042    4.3078 C   0  0  0  0  0  0  0  0  0  0  0  0
   -0.9148    1.0096    5.4092 C   0  0  0  0  0  0  0  0  0  0  0  0
    0.2297    1.9638    5.1520 C   0  0  0  0  0  0  0  0  0  0  0  0
    0.2779    2.5934    3.9629 C   0  0  0  0  0  0  0  0  0  0  0  0
   -0.5192    2.1965    2.7583 C   0  0  0  0  0  0  0  0  0  0  0  0
    1.0101    2.4199    6.2055 N   0  0  0  0  0  0  0  0  0  0  0  0
    1.4700    3.7094    6.2046 C   0  0  0  0  0  0  0  0  0  0  0  0
    1.3523    4.4930    5.0758 N   0  0  0  0  0  0  0  0  0  0  0  0
    1.1246    3.8115    3.8772 C   0  0  0  0  0  0  0  0  0  0  0  0
    1.6196    4.1075    2.7922 O   0  0  0  0  0  0  0  0  0  0  0  0
    2.3253    5.5653    5.0603 C   0  0  0  0  0  0  0  0  0  0  0  0
    2.0422    6.7437    4.1861 C   0  0  0  0  0  0  0  0  0  0  0  0
    2.1728    1.7181    6.7580 C   0  0  0  0  0  0  0  0  0  0  0  0
    2.6986    2.7837    7.7423 C   0  0  0  0  0  0  0  0  0  0  0  0
    2.2225    4.0881    7.2002 N   0  0  0  0  0  0  0  0  0  0  0  0
    0.9426    7.5676    4.4365 C   0  0  0  0  0  0  0  0  0  0  0  0
    0.8344    8.7784    3.7612 C   0  0  0  0  0  0  0  0  0  0  0  0
    1.8178    9.1646    2.8344 C   0  0  0  0  0  0  0  0  0  0  0  0
    2.8843    8.3021    2.5531 C   0  0  0  0  0  0  0  0  0  0  0  0
    2.9939    7.0885    3.2156 C   0  0  0  0  0  0  0  0  0  0  0  0
    1.7691   10.5134    2.1699 C   0  0  0  0  0  0  0  0  0  0  0  0
    0.6855   11.2566    2.5244 F   0  0  0  0  0  0  0  0  0  0  0  0
    2.8585   11.2761    2.4767 F   0  0  0  0  0  0  0  0  0  0  0  0
    1.7434   10.4265    0.8140 F   0  0  0  0  0  0  0  0  0  0  0  0
   -3.1406   -3.6978    2.2092 H   0  0  0  0  0  0  0  0  0  0  0  0
   -5.6028   -3.3990    2.1682 H   0  0  0  0  0  0  0  0  0  0  0  0
   -6.5790   -1.1279    1.9361 H   0  0  0  0  0  0  0  0  0  0  0  0
   -5.1012    0.8428    1.7779 H   0  0  0  0  0  0  0  0  0  0  0  0
   -1.6462   -1.7316    2.0492 H   0  0  0  0  0  0  0  0  0  0  0  0
   -1.8233    0.8617    0.9175 H   0  0  0  0  0  0  0  0  0  0  0  0
   -2.9741    1.8272    1.8335 H   0  0  0  0  0  0  0  0  0  0  0  0
   -2.5615    2.0505    4.4013 H   0  0  0  0  0  0  0  0  0  0  0  0
   -2.7308    0.2998    4.4789 H   0  0  0  0  0  0  0  0  0  0  0  0
   -1.3940    1.2692    6.3628 H   0  0  0  0  0  0  0  0  0  0  0  0
   -0.5512   -0.0204    5.4912 H   0  0  0  0  0  0  0  0  0  0  0  0
    0.1666    1.9643    1.9330 H   0  0  0  0  0  0  0  0  0  0  0  0
   -1.1235    3.0615    2.4608 H   0  0  0  0  0  0  0  0  0  0  0  0
    2.4671    5.9858    6.0589 H   0  0  0  0  0  0  0  0  0  0  0  0
    3.2839    5.0990    4.7864 H   0  0  0  0  0  0  0  0  0  0  0  0
    2.9217    1.5879    5.9592 H   0  0  0  0  0  0  0  0  0  0  0  0
    1.9821    0.7599    7.2346 H   0  0  0  0  0  0  0  0  0  0  0  0
    3.7920    2.8398    7.7247 H   0  0  0  0  0  0  0  0  0  0  0  0
    2.3548    2.6417    8.7631 H   0  0  0  0  0  0  0  0  0  0  0  0
    0.2094    7.2968    5.1943 H   0  0  0  0  0  0  0  0  0  0  0  0
    0.0013    9.4404    3.9934 H   0  0  0  0  0  0  0  0  0  0  0  0
    3.6554    8.5800    1.8417 H   0  0  0  0  0  0  0  0  0  0  0  0
    3.8354    6.4362    3.0215 H   0  0  0  0  0  0  0  0  0  0  0  0
  1  2  2  0  0  0  0
  1 33  1  0  0  0  0
  2  3  1  0  0  0  0
  2 34  1  0  0  0  0
  3  4  2  0  0  0  0
  3 35  1  0  0  0  0
  4  5  1  0  0  0  0
  4 36  1  0  0  0  0
  5  6  2  0  0  0  0
  5  7  1  0  0  0  0
  6  1  1  0  0  0  0
  6 37  1  0  0  0  0
  7  8  1  0  0  0  0
  7 38  1  0  0  0  0
  7 39  1  0  0  0  0
  8  9  1  0  0  0  0
  9 10  1  0  0  0  0
  9 40  1  0  0  0  0
  9 41  1  0  0  0  0
 10 11  1  0  0  0  0
 10 42  1  0  0  0  0
 10 43  1  0  0  0  0
 11 12  2  0  0  0  0
 11 14  1  0  0  0  0
 12 13  1  0  0  0  0
 13  8  1  0  0  0  0
 13 44  1  0  0  0  0
 13 45  1  0  0  0  0
 14 15  1  0  0  0  0
 14 21  1  0  0  0  0
 15 16  1  0  0  0  0
 16 17  1  0  0  0  0
 16 19  1  0  0  0  0
 17 12  1  0  0  0  0
 17 18  2  0  0  0  0
 19 20  1  0  0  0  0
 19 46  1  0  0  0  0
 19 47  1  0  0  0  0
 20 24  2  0  0  0  0
 21 22  1  0  0  0  0
 21 48  1  0  0  0  0
 21 49  1  0  0  0  0
 22 23  1  0  0  0  0
 22 50  1  0  0  0  0
 22 51  1  0  0  0  0
 23 15  2  0  0  0  0
 24 25  1  0  0  0  0
 24 52  1  0  0  0  0
 25 26  2  0  0  0  0
 25 53  1  0  0  0  0
 26 27  1  0  0  0  0
 26 29  1  0  0  0  0
 27 28  2  0  0  0  0
 27 54  1  0  0  0  0
 28 20  1  0  0  0  0
 28 55  1  0  0  0  0
 29 30  1  0  0  0  0
 29 31  1  0  0  0  0
 29 32  1  0  0  0  0
M  END
>  <Mol_ID>
4033

>  <Formula>
C24H23F3N4O

>  <MolWeight>
440.4608296

>  <Cat>
S8673

>  <Name>
ONC212

>  <Synonyms>
N/A

>  <Target>
GPR

>  <Form>
free base

>  <CAS>
1807861-48-8

>  <URL>
http://selleckchem.com/products/onc212.html

$$$$
