ONC201.cdx
 OpenBabel08302519563D

 55 59  0  0  0  0  0  0  0  0999 V2000
   -1.9862   -1.1694   -2.3575 C   0  0  0  0  0  0  0  0  0  0  0  0
   -2.8754   -0.4532   -1.6640 C   0  0  0  0  0  0  0  0  0  0  0  0
   -3.0233   -0.6869   -0.3014 N   0  0  0  0  0  0  0  0  0  0  0  0
   -1.9151   -1.0973    0.4156 C   0  0  0  0  0  0  0  0  0  0  0  0
   -0.7365   -1.3581   -0.2580 N   0  0  0  0  0  0  0  0  0  0  0  0
   -0.9141   -1.8053   -1.5687 C   0  0  0  0  0  0  0  0  0  0  0  0
   -1.9764   -1.1955   -3.8462 C   0  0  0  0  0  0  0  0  0  0  0  0
   -2.1421    0.0941   -4.4980 N   0  0  0  0  0  0  0  0  0  0  0  0
   -3.2783    0.8714   -2.2684 C   0  0  0  0  0  0  0  0  0  0  0  0
   -0.9495    0.5313   -5.2303 C   0  0  0  0  0  0  0  0  0  0  0  0
   -0.6509   -0.3715   -6.4219 C   0  0  0  0  0  0  0  0  0  0  0  0
   -1.6089   -0.5518   -7.4333 C   0  0  0  0  0  0  0  0  0  0  0  0
   -1.3657   -1.4157   -8.5045 C   0  0  0  0  0  0  0  0  0  0  0  0
   -0.1573   -2.1052   -8.5847 C   0  0  0  0  0  0  0  0  0  0  0  0
    0.8089   -1.9269   -7.5966 C   0  0  0  0  0  0  0  0  0  0  0  0
    0.5662   -1.0636   -6.5223 C   0  0  0  0  0  0  0  0  0  0  0  0
   -2.8760    1.1222   -3.7557 C   0  0  0  0  0  0  0  0  0  0  0  0
   -0.2229   -2.6929   -2.0958 O   0  0  0  0  0  0  0  0  0  0  0  0
    0.3810   -1.8809    0.5111 C   0  0  0  0  0  0  0  0  0  0  0  0
    1.3640   -0.8005    0.9119 C   0  0  0  0  0  0  0  0  0  0  0  0
    1.1113   -0.0713    2.0945 C   0  0  0  0  0  0  0  0  0  0  0  0
    2.0197    0.8758    2.5688 C   0  0  0  0  0  0  0  0  0  0  0  0
    3.1994    1.1065    1.8730 C   0  0  0  0  0  0  0  0  0  0  0  0
    3.4543    0.4126    0.6908 C   0  0  0  0  0  0  0  0  0  0  0  0
    2.5368   -0.5246    0.1843 C   0  0  0  0  0  0  0  0  0  0  0  0
    2.9042   -1.2193   -1.0994 C   0  0  0  0  0  0  0  0  0  0  0  0
   -4.0079   -1.6697    0.2105 C   0  0  0  0  0  0  0  0  0  0  0  0
   -3.5385   -1.7923    1.6725 C   0  0  0  0  0  0  0  0  0  0  0  0
   -2.0820   -1.4774    1.6493 N   0  0  0  0  0  0  0  0  0  0  0  0
   -1.1004   -1.7410   -4.2087 H   0  0  0  0  0  0  0  0  0  0  0  0
   -2.8297   -1.8121   -4.1621 H   0  0  0  0  0  0  0  0  0  0  0  0
   -4.3450    1.0750   -2.1251 H   0  0  0  0  0  0  0  0  0  0  0  0
   -2.7436    1.6385   -1.6806 H   0  0  0  0  0  0  0  0  0  0  0  0
   -1.0834    1.5420   -5.6348 H   0  0  0  0  0  0  0  0  0  0  0  0
   -0.0852    0.5766   -4.5555 H   0  0  0  0  0  0  0  0  0  0  0  0
   -2.5628   -0.0331   -7.3735 H   0  0  0  0  0  0  0  0  0  0  0  0
   -2.1233   -1.5569   -9.2704 H   0  0  0  0  0  0  0  0  0  0  0  0
    0.0266   -2.7859   -9.4120 H   0  0  0  0  0  0  0  0  0  0  0  0
    1.7492   -2.4688   -7.6573 H   0  0  0  0  0  0  0  0  0  0  0  0
    1.3281   -0.9548   -5.7541 H   0  0  0  0  0  0  0  0  0  0  0  0
   -3.8074    1.2961   -4.3104 H   0  0  0  0  0  0  0  0  0  0  0  0
   -2.3472    2.0848   -3.8064 H   0  0  0  0  0  0  0  0  0  0  0  0
    0.0287   -2.3782    1.4177 H   0  0  0  0  0  0  0  0  0  0  0  0
    0.8920   -2.6759   -0.0339 H   0  0  0  0  0  0  0  0  0  0  0  0
    0.2017   -0.2547    2.6666 H   0  0  0  0  0  0  0  0  0  0  0  0
    1.8110    1.4184    3.4868 H   0  0  0  0  0  0  0  0  0  0  0  0
    3.9229    1.8249    2.2482 H   0  0  0  0  0  0  0  0  0  0  0  0
    4.3864    0.6000    0.1617 H   0  0  0  0  0  0  0  0  0  0  0  0
    3.2321   -0.4823   -1.8406 H   0  0  0  0  0  0  0  0  0  0  0  0
    3.7142   -1.9321   -0.9191 H   0  0  0  0  0  0  0  0  0  0  0  0
    2.0707   -1.7547   -1.5524 H   0  0  0  0  0  0  0  0  0  0  0  0
   -3.8435   -2.6395   -0.2904 H   0  0  0  0  0  0  0  0  0  0  0  0
   -5.0550   -1.3928    0.1046 H   0  0  0  0  0  0  0  0  0  0  0  0
   -3.6453   -2.8259    2.0280 H   0  0  0  0  0  0  0  0  0  0  0  0
   -4.0777   -1.1234    2.3464 H   0  0  0  0  0  0  0  0  0  0  0  0
  1  2  2  0  0  0  0
  1  7  1  0  0  0  0
  2  3  1  0  0  0  0
  3  4  1  0  0  0  0
  3 27  1  0  0  0  0
  4  5  1  0  0  0  0
  5  6  1  0  0  0  0
  5 19  1  0  0  0  0
  6  1  1  0  0  0  0
  6 18  2  0  0  0  0
  7  8  1  0  0  0  0
  7 30  1  0  0  0  0
  7 31  1  0  0  0  0
  8 10  1  0  0  0  0
  8 17  1  0  0  0  0
  9  2  1  0  0  0  0
  9 32  1  0  0  0  0
  9 33  1  0  0  0  0
 10 11  1  0  0  0  0
 10 34  1  0  0  0  0
 10 35  1  0  0  0  0
 11 12  2  0  0  0  0
 12 13  1  0  0  0  0
 12 36  1  0  0  0  0
 13 14  2  0  0  0  0
 13 37  1  0  0  0  0
 14 15  1  0  0  0  0
 14 38  1  0  0  0  0
 15 16  2  0  0  0  0
 15 39  1  0  0  0  0
 16 11  1  0  0  0  0
 16 40  1  0  0  0  0
 17  9  1  0  0  0  0
 17 41  1  0  0  0  0
 17 42  1  0  0  0  0
 19 20  1  0  0  0  0
 19 43  1  0  0  0  0
 19 44  1  0  0  0  0
 20 21  2  0  0  0  0
 21 22  1  0  0  0  0
 21 45  1  0  0  0  0
 22 23  2  0  0  0  0
 22 46  1  0  0  0  0
 23 24  1  0  0  0  0
 23 47  1  0  0  0  0
 24 25  2  0  0  0  0
 24 48  1  0  0  0  0
 25 20  1  0  0  0  0
 25 26  1  0  0  0  0
 26 49  1  0  0  0  0
 26 50  1  0  0  0  0
 26 51  1  0  0  0  0
 27 28  1  0  0  0  0
 27 52  1  0  0  0  0
 27 53  1  0  0  0  0
 28 29  1  0  0  0  0
 28 54  1  0  0  0  0
 28 55  1  0  0  0  0
 29  4  2  0  0  0  0
M  END
>  <Mol_ID>
2210

>  <Formula>
C24H26N4O

>  <MolWeight>
386.48944

>  <Cat>
S7963

>  <Name>
TIC10 (ONC201)

>  <Synonyms>
ONC201

>  <Target>
Akt,Apoptosis related,ERK,TNF-alpha

>  <Form>
free base

>  <CAS>
1616632-77-9

>  <URL>
http://selleckchem.com/products/tic-10.html

$$$$
