Oncrasin-1
 OpenBabel08302521283D

 31 33  0  0  0  0  0  0  0  0999 V2000
    1.5961    1.0621   -0.0319 N   0  0  0  0  0  0  0  0  0  0  0  0
    2.3942   -0.0498   -0.1431 C   0  0  0  0  0  0  0  0  0  0  0  0
    1.5945   -1.1745   -0.0890 C   0  0  0  0  0  0  0  0  0  0  0  0
    0.2417   -0.7208   -0.0277 C   0  0  0  0  0  0  0  0  0  0  0  0
   -1.0079   -1.3787    0.0082 C   0  0  0  0  0  0  0  0  0  0  0  0
   -2.1883   -0.6324    0.0355 C   0  0  0  0  0  0  0  0  0  0  0  0
   -2.1412    0.7567    0.0357 C   0  0  0  0  0  0  0  0  0  0  0  0
   -0.9187    1.4367    0.0168 C   0  0  0  0  0  0  0  0  0  0  0  0
    0.2662    0.6807   -0.0159 C   0  0  0  0  0  0  0  0  0  0  0  0
    2.0758   -2.5424   -0.1088 C   0  0  0  0  0  0  0  0  0  0  0  0
    3.2611   -2.8526   -0.2055 O   0  0  0  0  0  0  0  0  0  0  0  0
    2.1094    2.4298   -0.0056 C   0  0  0  0  0  0  0  0  0  0  0  0
    2.4762    2.8616    1.3945 C   0  0  0  0  0  0  0  0  0  0  0  0
    3.7580    2.6105    1.9096 C   0  0  0  0  0  0  0  0  0  0  0  0
    4.0798    2.9635    3.2224 C   0  0  0  0  0  0  0  0  0  0  0  0
    3.1285    3.5778    4.0335 C   0  0  0  0  0  0  0  0  0  0  0  0
    1.8597    3.8523    3.5288 C   0  0  0  0  0  0  0  0  0  0  0  0
    1.5337    3.4953    2.2180 C   0  0  0  0  0  0  0  0  0  0  0  0
    3.4707    0.0356   -0.2226 H   0  0  0  0  0  0  0  0  0  0  0  0
   -1.0640   -2.4648    0.0042 H   0  0  0  0  0  0  0  0  0  0  0  0
   -3.1486   -1.1430    0.0511 H   0  0  0  0  0  0  0  0  0  0  0  0
   -3.0691    1.3240    0.0507 H   0  0  0  0  0  0  0  0  0  0  0  0
   -0.9020    2.5214    0.0212 H   0  0  0  0  0  0  0  0  0  0  0  0
    1.2998   -3.3203   -0.0231 H   0  0  0  0  0  0  0  0  0  0  0  0
    2.9854    2.4672   -0.6647 H   0  0  0  0  0  0  0  0  0  0  0  0
    1.3588    3.0950   -0.4443 H   0  0  0  0  0  0  0  0  0  0  0  0
    4.5151    2.1272    1.2957 H   0  0  0  0  0  0  0  0  0  0  0  0
    5.0711    2.7501    3.6156 H   0  0  0  0  0  0  0  0  0  0  0  0
    3.3746    3.8387    5.0598 H   0  0  0  0  0  0  0  0  0  0  0  0
    1.1187    4.3368    4.1598 H   0  0  0  0  0  0  0  0  0  0  0  0
    0.5337    3.7093    1.8495 H   0  0  0  0  0  0  0  0  0  0  0  0
  1  2  1  0  0  0  0
  1  9  1  0  0  0  0
  1 12  1  0  0  0  0
  2  3  2  0  0  0  0
  2 19  1  0  0  0  0
  3  4  1  0  0  0  0
  3 10  1  0  0  0  0
  4  5  2  0  0  0  0
  4  9  1  0  0  0  0
  5  6  1  0  0  0  0
  5 20  1  0  0  0  0
  6  7  2  0  0  0  0
  6 21  1  0  0  0  0
  7  8  1  0  0  0  0
  7 22  1  0  0  0  0
  8  9  2  0  0  0  0
  8 23  1  0  0  0  0
 10 11  2  0  0  0  0
 10 24  1  0  0  0  0
 12 13  1  0  0  0  0
 12 25  1  0  0  0  0
 12 26  1  0  0  0  0
 13 14  2  0  0  0  0
 13 18  1  0  0  0  0
 14 15  1  0  0  0  0
 14 27  1  0  0  0  0
 15 16  2  0  0  0  0
 15 28  1  0  0  0  0
 16 17  1  0  0  0  0
 16 29  1  0  0  0  0
 17 18  2  0  0  0  0
 17 30  1  0  0  0  0
 18 31  1  0  0  0  0
M  END
>  <Mol_ID>
5393

>  <Formula>
C16H12ClNO

>  <MolWeight>
269.72558

>  <Cat>
S0780

>  <Name>
Oncrasin-1

>  <Synonyms>
N/A

>  <Target>
DNA/RNA Synthesis,PKC

>  <Form>
Free Base

>  <CAS>
75629-57-1

>  <URL>
https://www.selleckchem.com/products/oncrasin-1.html

$$$$
