Ondansetron hydrochloride.cdx
 OpenBabel08302519573D

 41 44  0  0  0  0  0  0  0  0999 V2000
    3.0704    1.1424    0.0363 C   0  0  0  0  0  0  0  0  0  0  0  0
    3.4885   -0.1837    0.0208 C   0  0  0  0  0  0  0  0  0  0  0  0
    2.5630   -1.2318    0.0157 C   0  0  0  0  0  0  0  0  0  0  0  0
    1.1946   -0.9129    0.0309 C   0  0  0  0  0  0  0  0  0  0  0  0
    0.7534    0.4180    0.0314 C   0  0  0  0  0  0  0  0  0  0  0  0
    1.7086    1.4555    0.0348 C   0  0  0  0  0  0  0  0  0  0  0  0
    0.0696   -1.7172    0.0309 N   0  0  0  0  0  0  0  0  0  0  0  0
   -1.0571   -0.9358    0.0664 C   0  0  0  0  0  0  0  0  0  0  0  0
   -0.6649    0.3896   -0.0056 C   0  0  0  0  0  0  0  0  0  0  0  0
   -2.4608   -1.4344    0.1142 C   0  0  0  0  0  0  0  0  0  0  0  0
   -3.4037   -0.2549    0.4100 C   0  0  0  0  0  0  0  0  0  0  0  0
   -3.0782    1.0083   -0.4220 C   0  0  3  0  0  0  0  0  0  0  0  0
   -1.6466    1.4615   -0.1274 C   0  0  0  0  0  0  0  0  0  0  0  0
   -3.1795    0.8165   -1.9422 C   0  0  0  0  0  0  0  0  0  0  0  0
   -4.5133    0.4704   -2.3942 N   0  0  0  0  0  0  0  0  0  0  0  0
   -5.5345    1.3241   -2.7380 C   0  0  0  0  0  0  0  0  0  0  0  0
   -6.6156    0.6395   -3.0596 N   0  0  0  0  0  0  0  0  0  0  0  0
   -6.2742   -0.6807   -2.9634 C   0  0  0  0  0  0  0  0  0  0  0  0
   -4.9649   -0.8110   -2.5797 C   0  0  0  0  0  0  0  0  0  0  0  0
   -1.3454    2.6525   -0.1104 O   0  0  0  0  0  0  0  0  0  0  0  0
    0.0546   -3.1625   -0.0419 C   0  0  0  0  0  0  0  0  0  0  0  0
   -5.4473    2.8077   -2.7479 C   0  0  0  0  0  0  0  0  0  0  0  0
    3.8040    1.9440    0.0454 H   0  0  0  0  0  0  0  0  0  0  0  0
    4.5520   -0.4101    0.0125 H   0  0  0  0  0  0  0  0  0  0  0  0
    2.9107   -2.2592    0.0001 H   0  0  0  0  0  0  0  0  0  0  0  0
    1.3875    2.4941    0.0405 H   0  0  0  0  0  0  0  0  0  0  0  0
   -2.7119   -1.8982   -0.8440 H   0  0  0  0  0  0  0  0  0  0  0  0
   -2.5809   -2.1974    0.8905 H   0  0  0  0  0  0  0  0  0  0  0  0
   -4.4447   -0.5636    0.2657 H   0  0  0  0  0  0  0  0  0  0  0  0
   -3.3082    0.0040    1.4744 H   0  0  0  0  0  0  0  0  0  0  0  0
   -3.7545    1.8099   -0.0979 H   0  0  0  0  0  0  0  0  0  0  0  0
   -2.8686    1.7237   -2.4718 H   0  0  0  0  0  0  0  0  0  0  0  0
   -2.5040    0.0312   -2.3023 H   0  0  0  0  0  0  0  0  0  0  0  0
   -6.9862   -1.4662   -3.1819 H   0  0  0  0  0  0  0  0  0  0  0  0
   -4.3510   -1.6841   -2.4120 H   0  0  0  0  0  0  0  0  0  0  0  0
   -0.4644   -3.5481    0.8390 H   0  0  0  0  0  0  0  0  0  0  0  0
   -0.4751   -3.4511   -0.9550 H   0  0  0  0  0  0  0  0  0  0  0  0
    1.0699   -3.5586   -0.0722 H   0  0  0  0  0  0  0  0  0  0  0  0
   -5.7831    3.1875   -3.7185 H   0  0  0  0  0  0  0  0  0  0  0  0
   -6.0996    3.2236   -1.9746 H   0  0  0  0  0  0  0  0  0  0  0  0
   -4.4375    3.1856   -2.5776 H   0  0  0  0  0  0  0  0  0  0  0  0
  1  2  2  0  0  0  0
  1 23  1  0  0  0  0
  2  3  1  0  0  0  0
  2 24  1  0  0  0  0
  3  4  2  0  0  0  0
  3 25  1  0  0  0  0
  4  5  1  0  0  0  0
  4  7  1  0  0  0  0
  5  6  2  0  0  0  0
  6  1  1  0  0  0  0
  6 26  1  0  0  0  0
  7  8  1  0  0  0  0
  7 21  1  0  0  0  0
  8  9  2  0  0  0  0
  8 10  1  0  0  0  0
  9  5  1  0  0  0  0
 10 11  1  0  0  0  0
 10 27  1  0  0  0  0
 10 28  1  0  0  0  0
 11 12  1  0  0  0  0
 11 29  1  0  0  0  0
 11 30  1  0  0  0  0
 12 13  1  0  0  0  0
 12 14  1  0  0  0  0
 12 31  1  0  0  0  0
 13  9  1  0  0  0  0
 13 20  2  0  0  0  0
 14 15  1  0  0  0  0
 14 32  1  0  0  0  0
 14 33  1  0  0  0  0
 15 16  1  0  0  0  0
 16 17  2  0  0  0  0
 16 22  1  0  0  0  0
 17 18  1  0  0  0  0
 18 19  2  0  0  0  0
 18 34  1  0  0  0  0
 19 15  1  0  0  0  0
 19 35  1  0  0  0  0
 21 36  1  0  0  0  0
 21 37  1  0  0  0  0
 21 38  1  0  0  0  0
 22 39  1  0  0  0  0
 22 40  1  0  0  0  0
 22 41  1  0  0  0  0
M  END
>  <Mol_ID>
235

>  <Formula>
C18H20ClN3O

>  <MolWeight>
329.8239

>  <Cat>
S1390

>  <Name>
Ondansetron HCl

>  <Synonyms>
Ondemet, Emeset, Emetron,GR 38032F,SN 307

>  <Target>
5-HT Receptor

>  <Form>
Hydrochloride

>  <CAS>
99614-01-4

>  <URL>
http://selleckchem.com/products/Ondansetron-hydrochloride.html

$$$$
