ONO-4059.cdx
 OpenBabel08302519563D

 58 62  0  0  0  0  0  0  0  0999 V2000
   -2.0908   -0.8044   -0.0992 N   0  0  0  0  0  0  0  0  0  0  0  0
   -2.0598    0.5457   -0.0741 C   0  0  0  0  0  0  0  0  0  0  0  0
   -0.9653    1.3132   -0.0367 N   0  0  0  0  0  0  0  0  0  0  0  0
    0.1677    0.6093   -0.0020 C   0  0  0  0  0  0  0  0  0  0  0  0
    0.2708   -0.7659   -0.0439 C   0  0  0  0  0  0  0  0  0  0  0  0
   -0.9119   -1.4597   -0.0766 C   0  0  0  0  0  0  0  0  0  0  0  0
    1.4588    1.1552    0.0843 N   0  0  0  0  0  0  0  0  0  0  0  0
    2.3934    0.1033    0.0722 C   0  0  0  0  0  0  0  0  0  0  0  0
    1.6342   -1.0943    0.0064 N   0  0  0  0  0  0  0  0  0  0  0  0
    2.1560   -2.3889   -0.0373 C   0  0  0  0  0  0  0  0  0  0  0  0
    3.0009   -2.8212    0.9876 C   0  0  0  0  0  0  0  0  0  0  0  0
    3.4791   -4.1327    0.9927 C   0  0  0  0  0  0  0  0  0  0  0  0
    3.1082   -5.0194   -0.0230 C   0  0  0  0  0  0  0  0  0  0  0  0
    2.3429   -4.5607   -1.0945 C   0  0  0  0  0  0  0  0  0  0  0  0
    1.8562   -3.2521   -1.0960 C   0  0  0  0  0  0  0  0  0  0  0  0
    3.4901   -6.3413   -0.0711 O   0  0  0  0  0  0  0  0  0  0  0  0
    3.5844   -7.0573    1.1022 C   0  0  0  0  0  0  0  0  0  0  0  0
    2.7579   -6.8595    2.2129 C   0  0  0  0  0  0  0  0  0  0  0  0
    2.9737   -7.5869    3.3836 C   0  0  0  0  0  0  0  0  0  0  0  0
    3.9733   -8.5572    3.4260 C   0  0  0  0  0  0  0  0  0  0  0  0
    4.7457   -8.8130    2.2932 C   0  0  0  0  0  0  0  0  0  0  0  0
    4.5506   -8.0643    1.1314 C   0  0  0  0  0  0  0  0  0  0  0  0
   -1.0106   -2.8418   -0.1398 N   0  0  0  0  0  0  0  0  0  0  0  0
    1.6889    2.5576   -0.1985 C   0  0  3  0  0  0  0  0  0  0  0  0
    2.8615    3.2098    0.5465 C   0  0  0  0  0  0  0  0  0  0  0  0
    2.8492    4.7201    0.2604 C   0  0  0  0  0  0  0  0  0  0  0  0
    2.8286    5.0353   -1.2432 C   0  0  0  0  0  0  0  0  0  0  0  0
    1.8213    4.2457   -1.9609 N   0  0  0  0  0  0  0  0  0  0  0  0
    1.8899    2.8043   -1.7041 C   0  0  0  0  0  0  0  0  0  0  0  0
    0.7352    4.8959   -2.5290 C   0  0  0  0  0  0  0  0  0  0  0  0
   -0.2408    4.0551   -3.2770 C   0  0  0  0  0  0  0  0  0  0  0  0
   -1.5189    4.4388   -3.4017 C   0  0  0  0  0  0  0  0  0  0  0  0
    0.5639    6.1108   -2.4586 O   0  0  0  0  0  0  0  0  0  0  0  0
    3.6081    0.2213    0.0564 O   0  0  0  0  0  0  0  0  0  0  0  0
   -3.0173    1.0567   -0.0770 H   0  0  0  0  0  0  0  0  0  0  0  0
    3.2554   -2.1598    1.8125 H   0  0  0  0  0  0  0  0  0  0  0  0
    4.1208   -4.4554    1.8084 H   0  0  0  0  0  0  0  0  0  0  0  0
    2.1155   -5.2238   -1.9252 H   0  0  0  0  0  0  0  0  0  0  0  0
    1.2564   -2.9109   -1.9368 H   0  0  0  0  0  0  0  0  0  0  0  0
    1.9568   -6.1268    2.1897 H   0  0  0  0  0  0  0  0  0  0  0  0
    2.3639   -7.3930    4.2620 H   0  0  0  0  0  0  0  0  0  0  0  0
    4.1442   -9.1205    4.3397 H   0  0  0  0  0  0  0  0  0  0  0  0
    5.5062   -9.5890    2.3175 H   0  0  0  0  0  0  0  0  0  0  0  0
    5.1599   -8.2587    0.2527 H   0  0  0  0  0  0  0  0  0  0  0  0
   -0.4412   -3.3112    0.5567 H   0  0  0  0  0  0  0  0  0  0  0  0
   -1.9915   -3.1041   -0.0825 H   0  0  0  0  0  0  0  0  0  0  0  0
    0.7855    3.0926    0.1269 H   0  0  0  0  0  0  0  0  0  0  0  0
    2.7851    3.0298    1.6244 H   0  0  0  0  0  0  0  0  0  0  0  0
    3.8196    2.7885    0.2177 H   0  0  0  0  0  0  0  0  0  0  0  0
    1.9578    5.1559    0.7293 H   0  0  0  0  0  0  0  0  0  0  0  0
    3.7199    5.1955    0.7246 H   0  0  0  0  0  0  0  0  0  0  0  0
    2.6652    6.1071   -1.3891 H   0  0  0  0  0  0  0  0  0  0  0  0
    3.7997    4.7900   -1.6889 H   0  0  0  0  0  0  0  0  0  0  0  0
    2.8726    2.4515   -2.0390 H   0  0  0  0  0  0  0  0  0  0  0  0
    1.1462    2.2491   -2.2741 H   0  0  0  0  0  0  0  0  0  0  0  0
    0.1063    3.1586   -3.7707 H   0  0  0  0  0  0  0  0  0  0  0  0
   -2.2274    3.8410   -3.9649 H   0  0  0  0  0  0  0  0  0  0  0  0
   -1.8815    5.3553   -2.9456 H   0  0  0  0  0  0  0  0  0  0  0  0
  1  2  2  0  0  0  0
  2  3  1  0  0  0  0
  2 35  1  0  0  0  0
  3  4  2  0  0  0  0
  4  5  1  0  0  0  0
  4  7  1  0  0  0  0
  5  6  2  0  0  0  0
  6  1  1  0  0  0  0
  6 23  1  0  0  0  0
  7  8  1  0  0  0  0
  7 24  1  0  0  0  0
  8  9  1  0  0  0  0
  8 34  2  0  0  0  0
  9  5  1  0  0  0  0
  9 10  1  0  0  0  0
 10 11  2  0  0  0  0
 11 12  1  0  0  0  0
 11 36  1  0  0  0  0
 12 13  2  0  0  0  0
 12 37  1  0  0  0  0
 13 14  1  0  0  0  0
 13 16  1  0  0  0  0
 14 15  2  0  0  0  0
 14 38  1  0  0  0  0
 15 10  1  0  0  0  0
 15 39  1  0  0  0  0
 16 17  1  0  0  0  0
 17 18  2  0  0  0  0
 18 19  1  0  0  0  0
 18 40  1  0  0  0  0
 19 20  2  0  0  0  0
 19 41  1  0  0  0  0
 20 21  1  0  0  0  0
 20 42  1  0  0  0  0
 21 22  2  0  0  0  0
 21 43  1  0  0  0  0
 22 17  1  0  0  0  0
 22 44  1  0  0  0  0
 23 45  1  0  0  0  0
 23 46  1  0  0  0  0
 24 25  1  0  0  0  0
 24 47  1  0  0  0  0
 25 26  1  0  0  0  0
 25 48  1  0  0  0  0
 25 49  1  0  0  0  0
 26 27  1  0  0  0  0
 26 50  1  0  0  0  0
 26 51  1  0  0  0  0
 27 28  1  0  0  0  0
 27 52  1  0  0  0  0
 27 53  1  0  0  0  0
 28 29  1  0  0  0  0
 28 30  1  0  0  0  0
 29 24  1  0  0  0  0
 29 54  1  0  0  0  0
 29 55  1  0  0  0  0
 30 31  1  0  0  0  0
 30 33  2  0  0  0  0
 31 32  2  0  0  0  0
 31 56  1  0  0  0  0
 32 57  1  0  0  0  0
 32 58  1  0  0  0  0
M  END
>  <Mol_ID>
2191

>  <Formula>
C25H24N6O3

>  <MolWeight>
456.49646

>  <Cat>
S7877

>  <Name>
ONO-4059 analogue

>  <Synonyms>
ONO-WG-307

>  <Target>
BTK

>  <Form>
free base

>  <CAS>
1351635-67-0

>  <URL>
http://selleckchem.com/products/ono-4059.html

$$$$
