ONO-4059 (GS-4059).cdx
 OpenBabel08302520413D

 56 60  0  0  0  0  0  0  0  0999 V2000
   -2.0206   -0.6075   -0.0879 N   0  0  0  0  0  0  0  0  0  0  0  0
   -1.9109    0.7401   -0.0182 C   0  0  0  0  0  0  0  0  0  0  0  0
   -0.7718    1.4547    0.0134 N   0  0  0  0  0  0  0  0  0  0  0  0
    0.3238    0.7083   -0.0526 C   0  0  0  0  0  0  0  0  0  0  0  0
    0.3345   -0.6799   -0.1729 C   0  0  0  0  0  0  0  0  0  0  0  0
   -0.8818   -1.3172   -0.1495 C   0  0  0  0  0  0  0  0  0  0  0  0
   -1.0379   -2.6983   -0.2073 N   0  0  0  0  0  0  0  0  0  0  0  0
    1.6677   -1.1097   -0.1856 N   0  0  0  0  0  0  0  0  0  0  0  0
    1.6568    1.1356    0.0632 N   0  0  0  0  0  0  0  0  0  0  0  0
    2.2140    2.4452    0.2804 C   0  0  2  0  0  0  0  0  0  0  0  0
    1.3246    3.6410    0.6557 C   0  0  0  0  0  0  0  0  0  0  0  0
    1.7848    4.7947   -0.2294 C   0  0  0  0  0  0  0  0  0  0  0  0
    3.0452    4.3671   -0.7846 N   0  0  0  0  0  0  0  0  0  0  0  0
    3.0725    2.9259   -0.9003 C   0  0  0  0  0  0  0  0  0  0  0  0
    2.4946    0.0046    0.0258 C   0  0  0  0  0  0  0  0  0  0  0  0
    3.7132    0.0217    0.1397 O   0  0  0  0  0  0  0  0  0  0  0  0
    2.0930   -2.4330   -0.1205 C   0  0  0  0  0  0  0  0  0  0  0  0
    2.8317   -2.8599    0.9876 C   0  0  0  0  0  0  0  0  0  0  0  0
    3.3270   -4.1595    1.0411 C   0  0  0  0  0  0  0  0  0  0  0  0
    3.0704   -5.0477   -0.0066 C   0  0  0  0  0  0  0  0  0  0  0  0
    2.3868   -4.6048   -1.1409 C   0  0  0  0  0  0  0  0  0  0  0  0
    1.8845   -3.3030   -1.1951 C   0  0  0  0  0  0  0  0  0  0  0  0
    3.5037   -6.3541   -0.0317 O   0  0  0  0  0  0  0  0  0  0  0  0
    3.5581   -7.0705    1.1433 C   0  0  0  0  0  0  0  0  0  0  0  0
    2.6610   -6.9104    2.2041 C   0  0  0  0  0  0  0  0  0  0  0  0
    2.8282   -7.6443    3.3783 C   0  0  0  0  0  0  0  0  0  0  0  0
    3.8520   -8.5853    3.4706 C   0  0  0  0  0  0  0  0  0  0  0  0
    4.7021   -8.8007    2.3860 C   0  0  0  0  0  0  0  0  0  0  0  0
    4.5559   -8.0429    1.2232 C   0  0  0  0  0  0  0  0  0  0  0  0
    3.9688    5.2502   -1.2812 C   0  0  0  0  0  0  0  0  0  0  0  0
    5.0599    4.7060   -2.0633 C   0  0  0  0  0  0  0  0  0  0  0  0
    3.9102    6.4654   -1.1214 O   0  0  0  0  0  0  0  0  0  0  0  0
    5.9184    4.2344   -2.7637 C   0  0  0  0  0  0  0  0  0  0  0  0
    6.9097    3.6526   -3.6652 C   0  0  0  0  0  0  0  0  0  0  0  0
   -2.8432    1.2944    0.0288 H   0  0  0  0  0  0  0  0  0  0  0  0
   -0.4521   -3.1890    0.4598 H   0  0  0  0  0  0  0  0  0  0  0  0
   -2.0225   -2.9214   -0.0886 H   0  0  0  0  0  0  0  0  0  0  0  0
    2.9073    2.3161    1.1247 H   0  0  0  0  0  0  0  0  0  0  0  0
    1.5189    3.8995    1.7046 H   0  0  0  0  0  0  0  0  0  0  0  0
    0.2491    3.4966    0.5712 H   0  0  0  0  0  0  0  0  0  0  0  0
    1.0910    4.9293   -1.0681 H   0  0  0  0  0  0  0  0  0  0  0  0
    1.8723    5.7449    0.3046 H   0  0  0  0  0  0  0  0  0  0  0  0
    4.0960    2.5394   -0.8580 H   0  0  0  0  0  0  0  0  0  0  0  0
    2.6350    2.6545   -1.8692 H   0  0  0  0  0  0  0  0  0  0  0  0
    3.0161   -2.1864    1.8216 H   0  0  0  0  0  0  0  0  0  0  0  0
    3.9060   -4.4631    1.9087 H   0  0  0  0  0  0  0  0  0  0  0  0
    2.2528   -5.2721   -1.9882 H   0  0  0  0  0  0  0  0  0  0  0  0
    1.3716   -2.9630   -2.0909 H   0  0  0  0  0  0  0  0  0  0  0  0
    1.8398   -6.2027    2.1397 H   0  0  0  0  0  0  0  0  0  0  0  0
    2.1595   -7.4803    4.2190 H   0  0  0  0  0  0  0  0  0  0  0  0
    3.9813   -9.1577    4.3854 H   0  0  0  0  0  0  0  0  0  0  0  0
    5.4832   -9.5537    2.4482 H   0  0  0  0  0  0  0  0  0  0  0  0
    5.2253   -8.2052    0.3824 H   0  0  0  0  0  0  0  0  0  0  0  0
    7.9206    3.7317   -3.2551 H   0  0  0  0  0  0  0  0  0  0  0  0
    6.6940    2.5940   -3.8419 H   0  0  0  0  0  0  0  0  0  0  0  0
    6.8922    4.1656   -4.6322 H   0  0  0  0  0  0  0  0  0  0  0  0
  1  2  2  0  0  0  0
  2  3  1  0  0  0  0
  2 35  1  0  0  0  0
  3  4  2  0  0  0  0
  4  5  1  0  0  0  0
  4  9  1  0  0  0  0
  5  6  2  0  0  0  0
  5  8  1  0  0  0  0
  6  1  1  0  0  0  0
  6  7  1  0  0  0  0
  7 36  1  0  0  0  0
  7 37  1  0  0  0  0
  8 15  1  0  0  0  0
  8 17  1  0  0  0  0
 10  9  1  0  0  0  0
 10 11  1  0  0  0  0
 10 38  1  1  0  0  0
 11 12  1  0  0  0  0
 11 39  1  0  0  0  0
 11 40  1  0  0  0  0
 12 13  1  0  0  0  0
 12 41  1  0  0  0  0
 12 42  1  0  0  0  0
 13 14  1  0  0  0  0
 13 30  1  0  0  0  0
 14 10  1  0  0  0  0
 14 43  1  0  0  0  0
 14 44  1  0  0  0  0
 15  9  1  0  0  0  0
 15 16  2  0  0  0  0
 17 18  2  0  0  0  0
 18 19  1  0  0  0  0
 18 45  1  0  0  0  0
 19 20  2  0  0  0  0
 19 46  1  0  0  0  0
 20 21  1  0  0  0  0
 20 23  1  0  0  0  0
 21 22  2  0  0  0  0
 21 47  1  0  0  0  0
 22 17  1  0  0  0  0
 22 48  1  0  0  0  0
 23 24  1  0  0  0  0
 24 25  2  0  0  0  0
 25 26  1  0  0  0  0
 25 49  1  0  0  0  0
 26 27  2  0  0  0  0
 26 50  1  0  0  0  0
 27 28  1  0  0  0  0
 27 51  1  0  0  0  0
 28 29  2  0  0  0  0
 28 52  1  0  0  0  0
 29 24  1  0  0  0  0
 29 53  1  0  0  0  0
 30 31  1  0  0  0  0
 30 32  2  0  0  0  0
 31 33  3  0  0  0  0
 33 34  1  0  0  0  0
 34 54  1  0  0  0  0
 34 55  1  0  0  0  0
 34 56  1  0  0  0  0
M  END
>  <Mol_ID>
3980

>  <Formula>
C25H23ClN6O3

>  <MolWeight>
490.94152

>  <Cat>
S8166

>  <Name>
tirabrutinib(ONO-4059) hydrochloride

>  <Synonyms>
GS-4059

>  <Target>
BTK

>  <Form>
hydrochloride

>  <CAS>
1439901-97-9

>  <URL>
http://selleckchem.com/products/ono-4059-gs-4059.html

$$$$
