Ononetin
 OpenBabel08302521373D

 33 34  0  0  0  0  0  0  0  0999 V2000
    0.9998    0.0556   -0.0980 C   0  0  0  0  0  0  0  0  0  0  0  0
    0.1539   -1.1905    0.0929 C   0  0  0  0  0  0  0  0  0  0  0  0
    0.7751    0.8296   -1.0338 O   0  0  0  0  0  0  0  0  0  0  0  0
    2.5793    2.4779   -0.3339 O   0  0  0  0  0  0  0  0  0  0  0  0
    5.3356    1.3671    3.3040 O   0  0  0  0  0  0  0  0  0  0  0  0
   -2.6324   -1.6314    5.0337 O   0  0  0  0  0  0  0  0  0  0  0  0
   -3.1068   -0.4747    5.7131 C   0  0  0  0  0  0  0  0  0  0  0  0
    2.1365    0.3728    0.8273 C   0  0  0  0  0  0  0  0  0  0  0  0
    2.8607    1.5655    0.6502 C   0  0  0  0  0  0  0  0  0  0  0  0
    2.5050   -0.4819    1.8779 C   0  0  0  0  0  0  0  0  0  0  0  0
    3.9273    1.8887    1.4876 C   0  0  0  0  0  0  0  0  0  0  0  0
    3.5700   -0.1532    2.7255 C   0  0  0  0  0  0  0  0  0  0  0  0
    4.2782    1.0246    2.5158 C   0  0  0  0  0  0  0  0  0  0  0  0
   -0.6094   -1.2585    1.3934 C   0  0  0  0  0  0  0  0  0  0  0  0
   -1.0977   -0.1058    2.0200 C   0  0  0  0  0  0  0  0  0  0  0  0
   -0.8683   -2.5051    1.9828 C   0  0  0  0  0  0  0  0  0  0  0  0
   -1.7715   -0.1849    3.2422 C   0  0  0  0  0  0  0  0  0  0  0  0
   -1.5518   -2.5805    3.2004 C   0  0  0  0  0  0  0  0  0  0  0  0
   -1.9963   -1.4227    3.8408 C   0  0  0  0  0  0  0  0  0  0  0  0
   -0.5771   -1.2281   -0.7252 H   0  0  0  0  0  0  0  0  0  0  0  0
    0.8093   -2.0612   -0.0321 H   0  0  0  0  0  0  0  0  0  0  0  0
    1.8348    2.1261   -0.8722 H   0  0  0  0  0  0  0  0  0  0  0  0
    5.5010    0.6538    3.9419 H   0  0  0  0  0  0  0  0  0  0  0  0
   -2.2841    0.2039    5.9632 H   0  0  0  0  0  0  0  0  0  0  0  0
   -3.8768    0.0371    5.1261 H   0  0  0  0  0  0  0  0  0  0  0  0
   -3.5642   -0.8007    6.6524 H   0  0  0  0  0  0  0  0  0  0  0  0
    1.9794   -1.4111    2.0733 H   0  0  0  0  0  0  0  0  0  0  0  0
    4.4820    2.8101    1.3336 H   0  0  0  0  0  0  0  0  0  0  0  0
    3.8273   -0.8249    3.5395 H   0  0  0  0  0  0  0  0  0  0  0  0
   -0.9495    0.8771    1.5756 H   0  0  0  0  0  0  0  0  0  0  0  0
   -0.5342   -3.4235    1.5087 H   0  0  0  0  0  0  0  0  0  0  0  0
   -2.1027    0.7421    3.6971 H   0  0  0  0  0  0  0  0  0  0  0  0
   -1.7379   -3.5518    3.6549 H   0  0  0  0  0  0  0  0  0  0  0  0
  1  2  1  0  0  0  0
  1  3  2  0  0  0  0
  1  8  1  0  0  0  0
  2 14  1  0  0  0  0
  2 20  1  0  0  0  0
  2 21  1  0  0  0  0
  4  9  1  0  0  0  0
  4 22  1  0  0  0  0
  5 13  1  0  0  0  0
  5 23  1  0  0  0  0
  6  7  1  0  0  0  0
  6 19  1  0  0  0  0
  7 24  1  0  0  0  0
  7 25  1  0  0  0  0
  7 26  1  0  0  0  0
  8  9  2  0  0  0  0
  8 10  1  0  0  0  0
  9 11  1  0  0  0  0
 10 12  2  0  0  0  0
 10 27  1  0  0  0  0
 11 13  2  0  0  0  0
 11 28  1  0  0  0  0
 12 13  1  0  0  0  0
 12 29  1  0  0  0  0
 14 15  2  0  0  0  0
 14 16  1  0  0  0  0
 15 17  1  0  0  0  0
 15 30  1  0  0  0  0
 16 18  2  0  0  0  0
 16 31  1  0  0  0  0
 17 19  2  0  0  0  0
 17 32  1  0  0  0  0
 18 19  1  0  0  0  0
 18 33  1  0  0  0  0
M  END
>  <Mol_ID>
7428

>  <Formula>
C15H14O4

>  <MolWeight>
258.26926

>  <Cat>
E4528

>  <Name>
Ononetin

>  <Target>
TRP Channel

>  <Form>
Free base

>  <CAS>
487-49-0

>  <URL>
https://www.selleckchem.com/products/ononetin.html

$$$$
