Opevesostat (ODM208)
 OpenBabel08302521353D

 55 58  0  0  0  0  0  0  0  0999 V2000
    0.9310   -0.0260   -0.0878 C   0  0  0  0  0  0  0  0  0  0  0  0
    1.9514   -4.5506    1.2430 O   0  0  0  0  0  0  0  0  0  0  0  0
   -0.6806   -4.7861    2.6611 O   0  0  0  0  0  0  0  0  0  0  0  0
    0.2074   -5.8868    2.8751 C   0  0  0  0  0  0  0  0  0  0  0  0
   -0.3136  -10.8053    1.4174 S   0  0  0  0  0  0  0  0  0  0  0  0
    0.4144  -12.1428    2.3423 C   0  0  0  0  0  0  0  0  0  0  0  0
   -1.6404  -11.2285    1.0176 O   0  0  0  0  0  0  0  0  0  0  0  0
    0.6452  -10.3340    0.4454 O   0  0  0  0  0  0  0  0  0  0  0  0
   -0.1367    0.4741   -0.9641 N   0  0  0  0  0  0  0  0  0  0  0  0
   -0.4718   -0.4706   -2.0649 C   0  0  0  0  0  0  0  0  0  0  0  0
    0.2835    1.7581   -1.6035 C   0  0  0  0  0  0  0  0  0  0  0  0
   -0.1483    0.2307   -3.3442 C   0  0  0  0  0  0  0  0  0  0  0  0
    0.2992    1.5170   -3.0776 C   0  0  0  0  0  0  0  0  0  0  0  0
   -0.2451   -0.2406   -4.6433 C   0  0  0  0  0  0  0  0  0  0  0  0
    0.6750    2.3718   -4.1019 C   0  0  0  0  0  0  0  0  0  0  0  0
    0.1324    0.6080   -5.6861 C   0  0  0  0  0  0  0  0  0  0  0  0
    0.5930    1.9064   -5.4182 C   0  0  0  0  0  0  0  0  0  0  0  0
    0.6405   -1.3292    0.6298 C   0  0  0  0  0  0  0  0  0  0  0  0
    1.4311   -2.4024    0.5002 C   0  0  0  0  0  0  0  0  0  0  0  0
   -0.4663   -1.3269    1.4664 O   0  0  0  0  0  0  0  0  0  0  0  0
    1.1369   -3.6339    1.2627 C   0  0  0  0  0  0  0  0  0  0  0  0
   -0.8326   -2.5108    2.0667 C   0  0  0  0  0  0  0  0  0  0  0  0
   -0.1551   -3.6670    2.0226 C   0  0  0  0  0  0  0  0  0  0  0  0
   -0.4299   -6.8971    3.8525 C   0  0  0  0  0  0  0  0  0  0  0  0
    0.5575   -8.0116    4.2245 C   0  0  0  0  0  0  0  0  0  0  0  0
   -1.7207   -7.5464    3.3349 C   0  0  0  0  0  0  0  0  0  0  0  0
    0.8002   -8.9879    3.0739 C   0  0  0  0  0  0  0  0  0  0  0  0
   -1.4715   -8.5313    2.1948 C   0  0  0  0  0  0  0  0  0  0  0  0
   -0.4898   -9.5802    2.6124 N   0  0  0  0  0  0  0  0  0  0  0  0
    1.1151    0.7256    0.6923 H   0  0  0  0  0  0  0  0  0  0  0  0
    1.8681   -0.1185   -0.6544 H   0  0  0  0  0  0  0  0  0  0  0  0
    0.4341   -6.3635    1.9158 H   0  0  0  0  0  0  0  0  0  0  0  0
    1.1314   -5.5189    3.3363 H   0  0  0  0  0  0  0  0  0  0  0  0
   -0.2473  -12.4047    3.1696 H   0  0  0  0  0  0  0  0  0  0  0  0
    0.5128  -12.9954    1.6663 H   0  0  0  0  0  0  0  0  0  0  0  0
    1.4031  -11.8534    2.6982 H   0  0  0  0  0  0  0  0  0  0  0  0
    0.0847   -1.4091   -2.0157 H   0  0  0  0  0  0  0  0  0  0  0  0
   -1.5440   -0.6877   -2.0261 H   0  0  0  0  0  0  0  0  0  0  0  0
   -0.4495    2.5352   -1.3601 H   0  0  0  0  0  0  0  0  0  0  0  0
    1.2730    2.0938   -1.2716 H   0  0  0  0  0  0  0  0  0  0  0  0
   -0.6040   -1.2431   -4.8515 H   0  0  0  0  0  0  0  0  0  0  0  0
    1.0281    3.3769   -3.8961 H   0  0  0  0  0  0  0  0  0  0  0  0
    0.0678    0.2631   -6.7157 H   0  0  0  0  0  0  0  0  0  0  0  0
    0.8851    2.5540   -6.2405 H   0  0  0  0  0  0  0  0  0  0  0  0
    2.3075   -2.4220   -0.1352 H   0  0  0  0  0  0  0  0  0  0  0  0
   -1.7695   -2.3930    2.5944 H   0  0  0  0  0  0  0  0  0  0  0  0
   -0.6910   -6.3417    4.7635 H   0  0  0  0  0  0  0  0  0  0  0  0
    1.5115   -7.5809    4.5498 H   0  0  0  0  0  0  0  0  0  0  0  0
    0.1556   -8.5663    5.0829 H   0  0  0  0  0  0  0  0  0  0  0  0
   -2.1878   -8.0922    4.1669 H   0  0  0  0  0  0  0  0  0  0  0  0
   -2.4425   -6.7853    3.0203 H   0  0  0  0  0  0  0  0  0  0  0  0
    1.3093   -8.4869    2.2442 H   0  0  0  0  0  0  0  0  0  0  0  0
    1.4571   -9.7795    3.4462 H   0  0  0  0  0  0  0  0  0  0  0  0
   -2.4294   -9.0062    1.9536 H   0  0  0  0  0  0  0  0  0  0  0  0
   -1.1122   -8.0119    1.3013 H   0  0  0  0  0  0  0  0  0  0  0  0
  1  9  1  0  0  0  0
  1 18  1  0  0  0  0
  1 30  1  0  0  0  0
  1 31  1  0  0  0  0
  2 21  2  0  0  0  0
  3  4  1  0  0  0  0
  3 23  1  0  0  0  0
  4 24  1  0  0  0  0
  4 32  1  0  0  0  0
  4 33  1  0  0  0  0
  5  6  1  0  0  0  0
  5  7  2  0  0  0  0
  5  8  2  0  0  0  0
  5 29  1  0  0  0  0
  6 34  1  0  0  0  0
  6 35  1  0  0  0  0
  6 36  1  0  0  0  0
  9 10  1  0  0  0  0
  9 11  1  0  0  0  0
 10 12  1  0  0  0  0
 10 37  1  0  0  0  0
 10 38  1  0  0  0  0
 11 13  1  0  0  0  0
 11 39  1  0  0  0  0
 11 40  1  0  0  0  0
 12 13  2  0  0  0  0
 12 14  1  0  0  0  0
 13 15  1  0  0  0  0
 14 16  2  0  0  0  0
 14 41  1  0  0  0  0
 15 17  2  0  0  0  0
 15 42  1  0  0  0  0
 16 17  1  0  0  0  0
 16 43  1  0  0  0  0
 17 44  1  0  0  0  0
 18 19  2  0  0  0  0
 18 20  1  0  0  0  0
 19 21  1  0  0  0  0
 19 45  1  0  0  0  0
 20 22  1  0  0  0  0
 21 23  1  0  0  0  0
 22 23  2  0  0  0  0
 22 46  1  0  0  0  0
 24 25  1  0  0  0  0
 24 26  1  0  0  0  0
 24 47  1  0  0  0  0
 25 27  1  0  0  0  0
 25 48  1  0  0  0  0
 25 49  1  0  0  0  0
 26 28  1  0  0  0  0
 26 50  1  0  0  0  0
 26 51  1  0  0  0  0
 27 29  1  0  0  0  0
 27 52  1  0  0  0  0
 27 53  1  0  0  0  0
 28 29  1  0  0  0  0
 28 54  1  0  0  0  0
 28 55  1  0  0  0  0
M  END
>  <Mol_ID>
6959

>  <Formula>
C21H26N2O5S

>  <MolWeight>
418.50654

>  <Cat>
E1650

>  <Name>
Opevesostat (ODM208)

>  <Target>
P450 (e.g. CYP17)

>  <Form>
free base

>  <CAS>
2231294-96-3

>  <URL>
https://www.selleckchem.com/products/odm208.html

$$$$
