Orelabrutinib (ICP-022)
 OpenBabel08302521263D

 57 60  0  0  0  0  0  0  0  0999 V2000
    1.9033    0.0722    1.5265 C   0  0  0  0  0  0  0  0  0  0  0  0
    3.0796    0.3361    2.2355 C   0  0  0  0  0  0  0  0  0  0  0  0
    3.0602    1.2150    3.3177 C   0  0  0  0  0  0  0  0  0  0  0  0
    1.8821    1.8814    3.6507 C   0  0  0  0  0  0  0  0  0  0  0  0
    0.7244    1.6709    2.9015 C   0  0  0  0  0  0  0  0  0  0  0  0
    0.7346    0.7661    1.8403 C   0  0  0  0  0  0  0  0  0  0  0  0
    1.8151   -0.8114    0.4756 O   0  0  0  0  0  0  0  0  0  0  0  0
    2.5259   -1.9860    0.5135 C   0  0  0  0  0  0  0  0  0  0  0  0
    2.9145   -2.6429    1.6782 C   0  0  0  0  0  0  0  0  0  0  0  0
    3.7054   -3.7882    1.6002 C   0  0  0  0  0  0  0  0  0  0  0  0
    4.0396   -4.3782    0.3657 C   0  0  0  0  0  0  0  0  0  0  0  0
    3.5269   -3.7680   -0.7898 C   0  0  0  0  0  0  0  0  0  0  0  0
    2.8121   -2.5671   -0.7191 C   0  0  0  0  0  0  0  0  0  0  0  0
    4.8216   -5.6340    0.3473 C   0  0  0  0  0  0  0  0  0  0  0  0
    4.5059   -6.4362    1.4128 N   0  0  0  0  0  0  0  0  0  0  0  0
    5.0126   -7.6813    1.5094 C   0  0  0  0  0  0  0  0  0  0  0  0
    5.9077   -8.1646    0.5672 C   0  0  0  0  0  0  0  0  0  0  0  0
    6.2688   -7.3428   -0.5001 C   0  0  0  0  0  0  0  0  0  0  0  0
    5.7338   -6.0510   -0.6230 C   0  0  0  0  0  0  0  0  0  0  0  0
    6.1788   -5.2772   -1.8084 C   0  0  0  0  0  0  0  0  0  0  0  0
    6.3847   -3.9324   -1.6911 N   0  0  0  0  0  0  0  0  0  0  0  0
    6.3933   -5.8405   -2.8764 O   0  0  0  0  0  0  0  0  0  0  0  0
    4.5612   -8.5457    2.6751 C   0  0  0  0  0  0  0  0  0  0  0  0
    3.1190   -8.2643    3.1440 C   0  0  0  0  0  0  0  0  0  0  0  0
    2.9789   -7.0448    4.0582 C   0  0  0  0  0  0  0  0  0  0  0  0
    3.9697   -7.0445    5.1342 N   0  0  0  0  0  0  0  0  0  0  0  0
    5.3535   -7.1947    4.6815 C   0  0  0  0  0  0  0  0  0  0  0  0
    5.5282   -8.4702    3.8637 C   0  0  0  0  0  0  0  0  0  0  0  0
    3.6051   -6.4407    6.3362 C   0  0  0  0  0  0  0  0  0  0  0  0
    2.5093   -5.9177    6.5255 O   0  0  0  0  0  0  0  0  0  0  0  0
    4.5968   -6.5096    7.4462 C   0  0  0  0  0  0  0  0  0  0  0  0
    4.5286   -5.6736    8.4930 C   0  0  0  0  0  0  0  0  0  0  0  0
    4.0119   -0.1562    1.9741 H   0  0  0  0  0  0  0  0  0  0  0  0
    3.9627    1.3761    3.9012 H   0  0  0  0  0  0  0  0  0  0  0  0
    1.8679    2.5707    4.4907 H   0  0  0  0  0  0  0  0  0  0  0  0
   -0.1882    2.2072    3.1471 H   0  0  0  0  0  0  0  0  0  0  0  0
   -0.1702    0.5936    1.2636 H   0  0  0  0  0  0  0  0  0  0  0  0
    2.6281   -2.2777    2.6609 H   0  0  0  0  0  0  0  0  0  0  0  0
    4.0422   -4.2411    2.5319 H   0  0  0  0  0  0  0  0  0  0  0  0
    3.6767   -4.2144   -1.7712 H   0  0  0  0  0  0  0  0  0  0  0  0
    2.4608   -2.0952   -1.6348 H   0  0  0  0  0  0  0  0  0  0  0  0
    6.3131   -9.1691    0.6391 H   0  0  0  0  0  0  0  0  0  0  0  0
    6.9628   -7.7173   -1.2514 H   0  0  0  0  0  0  0  0  0  0  0  0
    6.6131   -3.4285   -2.5400 H   0  0  0  0  0  0  0  0  0  0  0  0
    6.1802   -3.3901   -0.8631 H   0  0  0  0  0  0  0  0  0  0  0  0
    4.5660   -9.5802    2.3038 H   0  0  0  0  0  0  0  0  0  0  0  0
    2.4395   -8.1670    2.2887 H   0  0  0  0  0  0  0  0  0  0  0  0
    2.7794   -9.1404    3.7132 H   0  0  0  0  0  0  0  0  0  0  0  0
    3.0909   -6.1086    3.5057 H   0  0  0  0  0  0  0  0  0  0  0  0
    1.9661   -7.0352    4.4774 H   0  0  0  0  0  0  0  0  0  0  0  0
    6.0557   -7.2129    5.5160 H   0  0  0  0  0  0  0  0  0  0  0  0
    5.6053   -6.3060    4.0906 H   0  0  0  0  0  0  0  0  0  0  0  0
    5.3288   -9.3271    4.5216 H   0  0  0  0  0  0  0  0  0  0  0  0
    6.5695   -8.5608    3.5340 H   0  0  0  0  0  0  0  0  0  0  0  0
    5.3412   -7.2899    7.4297 H   0  0  0  0  0  0  0  0  0  0  0  0
    5.2346   -5.7541    9.3133 H   0  0  0  0  0  0  0  0  0  0  0  0
    3.7610   -4.9097    8.5619 H   0  0  0  0  0  0  0  0  0  0  0  0
  1  2  2  0  0  0  0
  1  7  1  0  0  0  0
  2  3  1  0  0  0  0
  2 33  1  0  0  0  0
  3  4  2  0  0  0  0
  3 34  1  0  0  0  0
  4  5  1  0  0  0  0
  4 35  1  0  0  0  0
  5  6  2  0  0  0  0
  5 36  1  0  0  0  0
  6  1  1  0  0  0  0
  6 37  1  0  0  0  0
  7  8  1  0  0  0  0
  8  9  2  0  0  0  0
  9 10  1  0  0  0  0
  9 38  1  0  0  0  0
 10 11  2  0  0  0  0
 10 39  1  0  0  0  0
 11 12  1  0  0  0  0
 11 14  1  0  0  0  0
 12 13  2  0  0  0  0
 12 40  1  0  0  0  0
 13  8  1  0  0  0  0
 13 41  1  0  0  0  0
 14 15  2  0  0  0  0
 15 16  1  0  0  0  0
 16 17  2  0  0  0  0
 16 23  1  0  0  0  0
 17 18  1  0  0  0  0
 17 42  1  0  0  0  0
 18 19  2  0  0  0  0
 18 43  1  0  0  0  0
 19 14  1  0  0  0  0
 19 20  1  0  0  0  0
 20 21  1  0  0  0  0
 20 22  2  0  0  0  0
 21 44  1  0  0  0  0
 21 45  1  0  0  0  0
 23 24  1  0  0  0  0
 23 46  1  0  0  0  0
 24 25  1  0  0  0  0
 24 47  1  0  0  0  0
 24 48  1  0  0  0  0
 25 26  1  0  0  0  0
 25 49  1  0  0  0  0
 25 50  1  0  0  0  0
 26 27  1  0  0  0  0
 26 29  1  0  0  0  0
 27 28  1  0  0  0  0
 27 51  1  0  0  0  0
 27 52  1  0  0  0  0
 28 23  1  0  0  0  0
 28 53  1  0  0  0  0
 28 54  1  0  0  0  0
 29 30  2  0  0  0  0
 29 31  1  0  0  0  0
 31 32  2  0  0  0  0
 31 55  1  0  0  0  0
 32 56  1  0  0  0  0
 32 57  1  0  0  0  0
M  END
>  <Mol_ID>
5238

>  <Formula>
C26H25N3O3

>  <MolWeight>
427.495

>  <Cat>
S9600

>  <Name>
Orelabrutinib (ICP-022)

>  <Synonyms>
ICP-022

>  <Target>
BTK

>  <Form>
free base

>  <CAS>
1655504-04-3

>  <URL>
http://www.selleckchem.com/products/orelabrutinib.html

$$$$
