Oridonin.cdx
 OpenBabel08302521373D

 54 58  0  0  0  0  0  0  0  0999 V2000
    1.4052    0.6157    0.3917 C   0  0  2  0  0  0  0  0  0  0  0  0
    2.9560    0.7446    0.4207 C   0  0  0  0  0  0  0  0  0  0  0  0
    3.4819    0.9827   -1.0088 C   0  0  0  0  0  0  0  0  0  0  0  0
    2.8237    2.1745   -1.6880 C   0  0  0  0  0  0  0  0  0  0  0  0
    1.3357    1.9149   -1.8643 C   0  0  1  0  0  0  0  0  0  0  0  0
    0.6003    1.5881   -0.5542 C   0  0  1  0  0  0  0  0  0  0  0  0
   -0.6825    1.1879    1.6795 C   0  0  1  0  0  0  0  0  0  0  0  0
    0.7486    0.6144    1.7835 C   0  0  1  0  0  0  0  0  0  0  0  0
   -1.5144    0.6921    0.4888 C   0  0  1  0  0  0  0  0  0  0  0  0
   -2.0406   -0.7215    0.6229 C   0  0  0  0  0  0  0  0  0  0  0  0
   -3.4566   -0.7259    0.1589 C   0  0  0  0  0  0  0  0  0  0  0  0
   -3.6326    0.5383   -0.6458 C   0  0  1  0  0  0  0  0  0  0  0  0
   -2.8542    1.4671    0.3008 C   0  0  1  0  0  0  0  0  0  0  0  0
   -2.9394    0.4737   -2.0287 C   0  0  0  0  0  0  0  0  0  0  0  0
   -0.7117    0.7715   -0.8430 C   0  0  3  0  0  0  0  0  0  0  0  0
   -1.5766    1.1956   -2.0493 C   0  0  0  0  0  0  0  0  0  0  0  0
   -4.3628   -1.5135    0.7366 C   0  0  0  0  0  0  0  0  0  0  0  0
   -1.4384   -1.7183    0.9621 O   0  0  0  0  0  0  0  0  0  0  0  0
   -1.2824    0.9804    2.9572 O   0  0  0  0  0  0  0  0  0  0  0  0
    0.8025   -0.6813    2.3669 O   0  0  0  0  0  0  0  0  0  0  0  0
    3.4486    1.8659    1.3562 C   0  0  0  0  0  0  0  0  0  0  0  0
    3.5438   -0.6018    0.9166 C   0  0  0  0  0  0  0  0  0  0  0  0
    0.7517    3.0613   -2.4900 O   0  0  0  0  0  0  0  0  0  0  0  0
    0.1777    2.8754    0.2151 C   0  0  0  0  0  0  0  0  0  0  0  0
   -0.4934    2.6028    1.4594 O   0  0  0  0  0  0  0  0  0  0  0  0
   -3.5668    1.6402    1.5278 O   0  0  0  0  0  0  0  0  0  0  0  0
    1.2493   -0.3924   -0.0208 H   0  0  0  0  0  0  0  0  0  0  0  0
    4.5692    1.1321   -0.9942 H   0  0  0  0  0  0  0  0  0  0  0  0
    3.3040    0.0883   -1.6206 H   0  0  0  0  0  0  0  0  0  0  0  0
    3.0001    3.1041   -1.1364 H   0  0  0  0  0  0  0  0  0  0  0  0
    3.2799    2.3271   -2.6734 H   0  0  0  0  0  0  0  0  0  0  0  0
    1.2206    1.0839   -2.5678 H   0  0  0  0  0  0  0  0  0  0  0  0
    1.2944    1.2624    2.4763 H   0  0  0  0  0  0  0  0  0  0  0  0
   -4.6900    0.8060   -0.7375 H   0  0  0  0  0  0  0  0  0  0  0  0
   -2.7116    2.4683   -0.1192 H   0  0  0  0  0  0  0  0  0  0  0  0
   -2.7955   -0.5681   -2.3473 H   0  0  0  0  0  0  0  0  0  0  0  0
   -3.5802    0.9361   -2.7884 H   0  0  0  0  0  0  0  0  0  0  0  0
   -0.4010   -0.2462   -1.1269 H   0  0  0  0  0  0  0  0  0  0  0  0
   -1.0645    0.9551   -2.9882 H   0  0  0  0  0  0  0  0  0  0  0  0
   -1.7384    2.2791   -2.0627 H   0  0  0  0  0  0  0  0  0  0  0  0
   -4.0565   -2.2630    1.4646 H   0  0  0  0  0  0  0  0  0  0  0  0
   -5.4246   -1.3457    0.5950 H   0  0  0  0  0  0  0  0  0  0  0  0
   -2.2195    0.7505    2.8099 H   0  0  0  0  0  0  0  0  0  0  0  0
    0.2694   -0.6160    3.1833 H   0  0  0  0  0  0  0  0  0  0  0  0
    3.4480    1.5464    2.4047 H   0  0  0  0  0  0  0  0  0  0  0  0
    4.4729    2.1675    1.1188 H   0  0  0  0  0  0  0  0  0  0  0  0
    2.8235    2.7589    1.2925 H   0  0  0  0  0  0  0  0  0  0  0  0
    3.0724   -1.4527    0.4068 H   0  0  0  0  0  0  0  0  0  0  0  0
    4.6183   -0.6675    0.7241 H   0  0  0  0  0  0  0  0  0  0  0  0
    3.3853   -0.7438    1.9908 H   0  0  0  0  0  0  0  0  0  0  0  0
    1.2226    3.2350   -3.3003 H   0  0  0  0  0  0  0  0  0  0  0  0
    1.0301    3.5247    0.4316 H   0  0  0  0  0  0  0  0  0  0  0  0
   -0.5188    3.4802   -0.3770 H   0  0  0  0  0  0  0  0  0  0  0  0
   -4.3100    2.2449    1.3431 H   0  0  0  0  0  0  0  0  0  0  0  0
  1  2  1  0  0  0  0
  1 27  1  6  0  0  0
  2  3  1  0  0  0  0
  2 21  1  0  0  0  0
  2 22  1  0  0  0  0
  3  4  1  0  0  0  0
  3 28  1  0  0  0  0
  3 29  1  0  0  0  0
  4  5  1  0  0  0  0
  4 30  1  0  0  0  0
  4 31  1  0  0  0  0
  5  6  1  0  0  0  0
  5 23  1  0  0  0  0
  5 32  1  6  0  0  0
  6  1  1  0  0  0  0
  6 15  1  0  0  0  0
  6 24  1  1  0  0  0
  7  8  1  0  0  0  0
  7 19  1  1  0  0  0
  7 25  1  0  0  0  0
  8  1  1  0  0  0  0
  8 20  1  0  0  0  0
  8 33  1  1  0  0  0
  9 10  1  1  0  0  0
  9 13  1  0  0  0  0
  9  7  1  0  0  0  0
 10 11  1  0  0  0  0
 10 18  2  0  0  0  0
 11 12  1  0  0  0  0
 11 17  2  0  0  0  0
 12 13  1  0  0  0  0
 12 14  1  0  0  0  0
 12 34  1  6  0  0  0
 13 26  1  0  0  0  0
 13 35  1  6  0  0  0
 14 16  1  0  0  0  0
 14 36  1  0  0  0  0
 14 37  1  0  0  0  0
 15  9  1  0  0  0  0
 15 16  1  0  0  0  0
 15 38  1  0  0  0  0
 16 39  1  0  0  0  0
 16 40  1  0  0  0  0
 17 41  1  0  0  0  0
 17 42  1  0  0  0  0
 19 43  1  0  0  0  0
 20 44  1  0  0  0  0
 21 45  1  0  0  0  0
 21 46  1  0  0  0  0
 21 47  1  0  0  0  0
 22 48  1  0  0  0  0
 22 49  1  0  0  0  0
 22 50  1  0  0  0  0
 23 51  1  0  0  0  0
 24 25  1  0  0  0  0
 24 52  1  0  0  0  0
 24 53  1  0  0  0  0
 26 54  1  0  0  0  0
M  END
>  <Mol_ID>
712

>  <Formula>
C20H28O6

>  <MolWeight>
364.43272

>  <Cat>
S2335

>  <Name>
Oridonin (NSC-250682)

>  <Synonyms>
Isodonol, Rubescenin

>  <Target>
Akt,Bacterial

>  <Form>
free base

>  <CAS>
28957-04-2

>  <URL>
http://selleckchem.com/products/Oridonin(Isodonol).html

$$$$
