OROTIC ACID.cdx
 OpenBabel08302521373D

 15 15  0  0  0  0  0  0  0  0999 V2000
    1.1467   -1.2359    0.0056 C   0  0  0  0  0  0  0  0  0  0  0  0
   -0.0561   -1.8204   -0.0012 C   0  0  0  0  0  0  0  0  0  0  0  0
   -1.2072   -1.0714    0.0075 N   0  0  0  0  0  0  0  0  0  0  0  0
   -1.2073    0.2951    0.0218 C   0  0  0  0  0  0  0  0  0  0  0  0
    0.0190    0.8903    0.0601 N   0  0  0  0  0  0  0  0  0  0  0  0
    1.2163    0.2350    0.0240 C   0  0  0  0  0  0  0  0  0  0  0  0
    2.2929    0.8181    0.0014 O   0  0  0  0  0  0  0  0  0  0  0  0
   -2.2530    0.9317   -0.0066 O   0  0  0  0  0  0  0  0  0  0  0  0
   -0.1002   -3.3065   -0.0398 C   0  0  0  0  0  0  0  0  0  0  0  0
   -1.2733   -3.8099    0.4011 O   0  0  0  0  0  0  0  0  0  0  0  0
    0.8195   -4.0080   -0.4272 O   0  0  0  0  0  0  0  0  0  0  0  0
    2.0856   -1.7764   -0.0164 H   0  0  0  0  0  0  0  0  0  0  0  0
   -2.1193   -1.4903   -0.1225 H   0  0  0  0  0  0  0  0  0  0  0  0
    0.0444    1.8990    0.0459 H   0  0  0  0  0  0  0  0  0  0  0  0
   -1.8116   -3.1824    0.9161 H   0  0  0  0  0  0  0  0  0  0  0  0
  1  2  2  0  0  0  0
  1 12  1  0  0  0  0
  2  3  1  0  0  0  0
  2  9  1  0  0  0  0
  3  4  1  0  0  0  0
  3 13  1  0  0  0  0
  4  5  1  0  0  0  0
  4  8  2  0  0  0  0
  5  6  1  0  0  0  0
  5 14  1  0  0  0  0
  6  1  1  0  0  0  0
  6  7  2  0  0  0  0
  9 10  1  0  0  0  0
  9 11  2  0  0  0  0
 10 15  1  0  0  0  0
M  END
>  <Mol_ID>
713

>  <Formula>
C5H4N2O4

>  <MolWeight>
156.09626

>  <Cat>
S2336

>  <Name>
Orotic acid (6-Carboxyuracil)

>  <Synonyms>
N/A

>  <Target>
Others

>  <Form>
free base

>  <CAS>
65-86-1

>  <URL>
http://selleckchem.com/products/Orotic-acid(6-Carboxyuracil).html

$$$$
