Oroxylin A-7-O-glucuronide
 OpenBabel08302521463D

 53 56  0  0  1  0  0  0  0  0999 V2000
   10.6910   -3.1280   -0.2972 O   0  0  0  0  0  0  0  0  0  0  0  0
   12.1302   -0.9706   -1.0537 O   0  0  0  0  0  0  0  0  0  0  0  0
    5.9095   -2.6197   -0.2727 O   0  0  0  0  0  0  0  0  0  0  0  0
    7.9958   -4.2391   -0.2016 O   0  0  0  0  0  0  0  0  0  0  0  0
    8.8005   -5.0325    0.6618 C   0  0  0  0  0  0  0  0  0  0  0  0
    3.1480   -2.9295   -1.1159 O   0  0  0  0  0  0  0  0  0  0  0  0
    4.6553    0.0386    3.4987 C   0  0  0  0  0  0  0  0  0  0  0  0
    5.8254   -0.5353    3.8724 O   0  0  0  0  0  0  0  0  0  0  0  0
    4.0931    0.8671    4.1977 O   0  0  0  0  0  0  0  0  0  0  0  0
    1.1838   -2.3983    0.9705 O   0  0  0  0  0  0  0  0  0  0  0  0
    1.8359   -0.1404    2.6273 O   0  0  0  0  0  0  0  0  0  0  0  0
    8.6240   -0.1727   -0.8711 C   0  0  0  0  0  0  0  0  0  0  0  0
    9.7488   -0.9870   -0.7473 C   0  0  0  0  0  0  0  0  0  0  0  0
    7.3393   -0.6992   -0.7361 C   0  0  0  0  0  0  0  0  0  0  0  0
    8.6833    1.1763   -1.1205 O   0  0  0  0  0  0  0  0  0  0  0  0
    9.5769   -2.3544   -0.4648 C   0  0  0  0  0  0  0  0  0  0  0  0
   11.0745   -0.3566   -0.9879 C   0  0  0  0  0  0  0  0  0  0  0  0
    7.1548   -2.0531   -0.4468 C   0  0  0  0  0  0  0  0  0  0  0  0
    9.9226    1.7594   -1.2373 C   0  0  0  0  0  0  0  0  0  0  0  0
    8.2823   -2.9022   -0.3360 C   0  0  0  0  0  0  0  0  0  0  0  0
   11.0877    1.0999   -1.1961 C   0  0  0  0  0  0  0  0  0  0  0  0
    9.8835    3.2076   -1.4623 C   0  0  0  0  0  0  0  0  0  0  0  0
    9.7707    3.7138   -2.7621 C   0  0  0  0  0  0  0  0  0  0  0  0
    9.9415    4.1034   -0.3815 C   0  0  0  0  0  0  0  0  0  0  0  0
    9.7197    5.0910   -2.9836 C   0  0  0  0  0  0  0  0  0  0  0  0
    9.8893    5.4805   -0.6053 C   0  0  0  0  0  0  0  0  0  0  0  0
    9.7773    5.9733   -1.9058 C   0  0  0  0  0  0  0  0  0  0  0  0
    4.8645   -1.7750    0.2422 C   0  0  2  0  0  0  0  0  0  0  0  0
    5.1692   -1.3511    1.5818 O   0  0  0  0  0  0  0  0  0  0  0  0
    3.5235   -2.5518    0.2191 C   0  0  1  0  0  0  0  0  0  0  0  0
    4.1934   -0.4286    2.1064 C   0  0  1  0  0  0  0  0  0  0  0  0
    2.4164   -1.6789    0.8363 C   0  0  2  0  0  0  0  0  0  0  0  0
    2.8171   -1.0884    2.1993 C   0  0  2  0  0  0  0  0  0  0  0  0
   10.6209   -3.8950   -0.8885 H   0  0  0  0  0  0  0  0  0  0  0  0
    9.7630   -5.2804    0.2112 H   0  0  0  0  0  0  0  0  0  0  0  0
    8.9233   -4.5750    1.6473 H   0  0  0  0  0  0  0  0  0  0  0  0
    8.2844   -5.9900    0.7928 H   0  0  0  0  0  0  0  0  0  0  0  0
    3.1296   -2.1430   -1.6871 H   0  0  0  0  0  0  0  0  0  0  0  0
    6.1451   -1.1437    3.1580 H   0  0  0  0  0  0  0  0  0  0  0  0
    1.3512   -3.2246    1.4589 H   0  0  0  0  0  0  0  0  0  0  0  0
    1.2360    0.0819    1.8942 H   0  0  0  0  0  0  0  0  0  0  0  0
    6.5092   -0.0193   -0.8863 H   0  0  0  0  0  0  0  0  0  0  0  0
   12.0489    1.5799   -1.3312 H   0  0  0  0  0  0  0  0  0  0  0  0
    9.7210    3.0357   -3.6109 H   0  0  0  0  0  0  0  0  0  0  0  0
   10.0239    3.7342    0.6381 H   0  0  0  0  0  0  0  0  0  0  0  0
    9.6324    5.4758   -3.9964 H   0  0  0  0  0  0  0  0  0  0  0  0
    9.9327    6.1717    0.2333 H   0  0  0  0  0  0  0  0  0  0  0  0
    9.7348    7.0457   -2.0786 H   0  0  0  0  0  0  0  0  0  0  0  0
    4.7413   -0.9069   -0.4164 H   0  0  0  0  0  0  0  0  0  0  0  0
    3.6126   -3.4884    0.7808 H   0  0  0  0  0  0  0  0  0  0  0  0
    4.1810    0.4683    1.4736 H   0  0  0  0  0  0  0  0  0  0  0  0
    2.1769   -0.8619    0.1438 H   0  0  0  0  0  0  0  0  0  0  0  0
    2.8298   -1.8921    2.9467 H   0  0  0  0  0  0  0  0  0  0  0  0
  1 16  1  0  0  0  0
  1 34  1  0  0  0  0
  2 17  2  0  0  0  0
  3 18  1  0  0  0  0
  4  5  1  0  0  0  0
  4 20  1  0  0  0  0
  5 35  1  0  0  0  0
  5 36  1  0  0  0  0
  5 37  1  0  0  0  0
  6 38  1  0  0  0  0
  7  8  1  0  0  0  0
  7  9  2  0  0  0  0
  8 39  1  0  0  0  0
 10 40  1  0  0  0  0
 11 41  1  0  0  0  0
 12 13  1  0  0  0  0
 12 14  2  0  0  0  0
 12 15  1  0  0  0  0
 13 16  2  0  0  0  0
 13 17  1  0  0  0  0
 14 18  1  0  0  0  0
 14 42  1  0  0  0  0
 15 19  1  0  0  0  0
 16 20  1  0  0  0  0
 17 21  1  0  0  0  0
 18 20  2  0  0  0  0
 19 21  2  0  0  0  0
 19 22  1  0  0  0  0
 21 43  1  0  0  0  0
 22 23  2  0  0  0  0
 22 24  1  0  0  0  0
 23 25  1  0  0  0  0
 23 44  1  0  0  0  0
 24 26  2  0  0  0  0
 24 45  1  0  0  0  0
 25 27  2  0  0  0  0
 25 46  1  0  0  0  0
 26 27  1  0  0  0  0
 26 47  1  0  0  0  0
 27 48  1  0  0  0  0
 28 29  1  0  0  0  0
 28 30  1  0  0  0  0
 28 49  1  6  0  0  0
 28  3  1  0  0  0  0
 29 31  1  0  0  0  0
 30  6  1  0  0  0  0
 30 32  1  0  0  0  0
 30 50  1  1  0  0  0
 31  7  1  0  0  0  0
 31 33  1  0  0  0  0
 31 51  1  6  0  0  0
 32 10  1  0  0  0  0
 32 33  1  0  0  0  0
 32 52  1  6  0  0  0
 33 11  1  0  0  0  0
 33 53  1  1  0  0  0
M  END
>  <Mol_ID>
9721

>  <Formula>
C22H20O11

>  <MolWeight>
460.3876

>  <Cat>
E0918

>  <Name>
Oroxylin A-7-O-glucuronide

>  <Synonyms>
Oroxylin A glucoronide, Oroxylin A-7-O-¦Â-D-glucuronide

>  <Target>
prolyl oligopeptidase

>  <Form>
Free Base

>  <CAS>
36948-76-2

>  <URL>
https://www.selleckchem.com/products/oroxyloside.html

$$$$
