Orphenadrine citrate.cdx
 OpenBabel08302521283D

 64 64  0  0  0  0  0  0  0  0999 V2000
    1.1846   -0.0157    0.7262 C   0  0  0  0  0  0  0  0  0  0  0  0
    2.7144   -0.0540    0.5616 C   0  0  3  0  0  0  0  0  0  0  0  0
    3.2594    0.8516   -0.4099 O   0  0  0  0  0  0  0  0  0  0  0  0
    3.5076   -0.1788    1.8646 C   0  0  0  0  0  0  0  0  0  0  0  0
    3.0121    2.2447   -0.3724 C   0  0  0  0  0  0  0  0  0  0  0  0
    3.5763    3.1006    0.7620 C   0  0  0  0  0  0  0  0  0  0  0  0
    5.0303    3.3257    0.7822 N   0  0  0  0  0  0  0  0  0  0  0  0
    5.5268    3.9344   -0.4507 C   0  0  0  0  0  0  0  0  0  0  0  0
    5.3382    4.1888    1.9292 C   0  0  0  0  0  0  0  0  0  0  0  0
    0.4233   -1.1871    0.5410 C   0  0  0  0  0  0  0  0  0  0  0  0
   -0.9655   -1.1763    0.7185 C   0  0  0  0  0  0  0  0  0  0  0  0
   -1.6150   -0.0022    1.0925 C   0  0  0  0  0  0  0  0  0  0  0  0
   -0.8757    1.1474    1.3422 C   0  0  0  0  0  0  0  0  0  0  0  0
    0.5096    1.1280    1.1905 C   0  0  0  0  0  0  0  0  0  0  0  0
    2.7930   -0.2893    3.0835 C   0  0  0  0  0  0  0  0  0  0  0  0
    3.4227   -0.4991    4.3021 C   0  0  0  0  0  0  0  0  0  0  0  0
    4.7987   -0.6249    4.3352 C   0  0  0  0  0  0  0  0  0  0  0  0
    5.5342   -0.5369    3.1518 C   0  0  0  0  0  0  0  0  0  0  0  0
    4.9122   -0.3133    1.9072 C   0  0  0  0  0  0  0  0  0  0  0  0
    5.8224   -0.3079    0.7073 C   0  0  0  0  0  0  0  0  0  0  0  0
   -0.1097   -0.2355   -2.1513 O   0  0  0  0  0  0  0  0  0  0  0  0
   -0.5461    1.0313   -2.0414 C   0  0  0  0  0  0  0  0  0  0  0  0
    0.4817    2.0596   -2.3911 C   0  0  0  0  0  0  0  0  0  0  0  0
    0.2825    2.4486   -3.8412 C   0  0  0  0  0  0  0  0  0  0  0  0
   -1.1084    3.0003   -4.1376 C   0  0  0  0  0  0  0  0  0  0  0  0
   -1.4242    4.1991   -3.2834 C   0  0  0  0  0  0  0  0  0  0  0  0
   -2.2657    3.9534   -2.2584 O   0  0  0  0  0  0  0  0  0  0  0  0
   -0.9193    5.2969   -3.4696 O   0  0  0  0  0  0  0  0  0  0  0  0
   -1.7148    1.3322   -1.8030 O   0  0  0  0  0  0  0  0  0  0  0  0
    1.3473    3.4336   -4.3309 C   0  0  0  0  0  0  0  0  0  0  0  0
    1.6962    3.5560   -5.4913 O   0  0  0  0  0  0  0  0  0  0  0  0
    1.8850    4.2012   -3.3605 O   0  0  0  0  0  0  0  0  0  0  0  0
    0.4762    1.2301   -4.5876 O   0  0  0  0  0  0  0  0  0  0  0  0
    2.9012   -1.0243    0.0756 H   0  0  0  0  0  0  0  0  0  0  0  0
    3.3466    2.6414   -1.3367 H   0  0  0  0  0  0  0  0  0  0  0  0
    1.9433    2.4189   -0.3778 H   0  0  0  0  0  0  0  0  0  0  0  0
    3.0723    4.0759    0.6771 H   0  0  0  0  0  0  0  0  0  0  0  0
    3.2666    2.6698    1.7187 H   0  0  0  0  0  0  0  0  0  0  0  0
    5.0628    4.9061   -0.6543 H   0  0  0  0  0  0  0  0  0  0  0  0
    6.6119    4.0747   -0.3915 H   0  0  0  0  0  0  0  0  0  0  0  0
    5.3661    3.2823   -1.3149 H   0  0  0  0  0  0  0  0  0  0  0  0
    4.6748    5.0627    1.9784 H   0  0  0  0  0  0  0  0  0  0  0  0
    5.2260    3.6225    2.8598 H   0  0  0  0  0  0  0  0  0  0  0  0
    6.3689    4.5538    1.8942 H   0  0  0  0  0  0  0  0  0  0  0  0
    0.8975   -2.1192    0.2380 H   0  0  0  0  0  0  0  0  0  0  0  0
   -1.5469   -2.0747    0.5271 H   0  0  0  0  0  0  0  0  0  0  0  0
   -2.6983    0.0239    1.1691 H   0  0  0  0  0  0  0  0  0  0  0  0
   -1.3738    2.0657    1.6405 H   0  0  0  0  0  0  0  0  0  0  0  0
    1.0557    2.0219    1.4697 H   0  0  0  0  0  0  0  0  0  0  0  0
    1.7061   -0.2520    3.1120 H   0  0  0  0  0  0  0  0  0  0  0  0
    2.8281   -0.5876    5.2066 H   0  0  0  0  0  0  0  0  0  0  0  0
    5.2980   -0.8107    5.2790 H   0  0  0  0  0  0  0  0  0  0  0  0
    6.6122   -0.6640    3.2032 H   0  0  0  0  0  0  0  0  0  0  0  0
    6.6673    0.3646    0.8917 H   0  0  0  0  0  0  0  0  0  0  0  0
    6.2097   -1.3174    0.5315 H   0  0  0  0  0  0  0  0  0  0  0  0
    5.3560    0.0251   -0.2172 H   0  0  0  0  0  0  0  0  0  0  0  0
    0.8507   -0.2960   -2.3330 H   0  0  0  0  0  0  0  0  0  0  0  0
    0.3862    2.9045   -1.6996 H   0  0  0  0  0  0  0  0  0  0  0  0
    1.4756    1.6265   -2.2666 H   0  0  0  0  0  0  0  0  0  0  0  0
   -1.1971    3.2952   -5.1881 H   0  0  0  0  0  0  0  0  0  0  0  0
   -1.8791    2.2317   -4.0165 H   0  0  0  0  0  0  0  0  0  0  0  0
   -2.5065    3.0034   -2.1271 H   0  0  0  0  0  0  0  0  0  0  0  0
    2.4395    4.8549   -3.8428 H   0  0  0  0  0  0  0  0  0  0  0  0
    0.4488    1.4625   -5.5345 H   0  0  0  0  0  0  0  0  0  0  0  0
  1  2  1  0  0  0  0
  1 10  2  0  0  0  0
  2  3  1  0  0  0  0
  2  4  1  0  0  0  0
  2 34  1  0  0  0  0
  3  5  1  0  0  0  0
  4 15  2  0  0  0  0
  5  6  1  0  0  0  0
  5 35  1  0  0  0  0
  5 36  1  0  0  0  0
  6  7  1  0  0  0  0
  6 37  1  0  0  0  0
  6 38  1  0  0  0  0
  7  8  1  0  0  0  0
  7  9  1  0  0  0  0
  8 39  1  0  0  0  0
  8 40  1  0  0  0  0
  8 41  1  0  0  0  0
  9 42  1  0  0  0  0
  9 43  1  0  0  0  0
  9 44  1  0  0  0  0
 10 11  1  0  0  0  0
 10 45  1  0  0  0  0
 11 12  2  0  0  0  0
 11 46  1  0  0  0  0
 12 13  1  0  0  0  0
 12 47  1  0  0  0  0
 13 14  2  0  0  0  0
 13 48  1  0  0  0  0
 14  1  1  0  0  0  0
 14 49  1  0  0  0  0
 15 16  1  0  0  0  0
 15 50  1  0  0  0  0
 16 17  2  0  0  0  0
 16 51  1  0  0  0  0
 17 18  1  0  0  0  0
 17 52  1  0  0  0  0
 18 19  2  0  0  0  0
 18 53  1  0  0  0  0
 19  4  1  0  0  0  0
 19 20  1  0  0  0  0
 20 54  1  0  0  0  0
 20 55  1  0  0  0  0
 20 56  1  0  0  0  0
 21 22  1  0  0  0  0
 21 57  1  0  0  0  0
 22 23  1  0  0  0  0
 22 29  2  0  0  0  0
 23 24  1  0  0  0  0
 23 58  1  0  0  0  0
 23 59  1  0  0  0  0
 24 25  1  0  0  0  0
 24 30  1  0  0  0  0
 24 33  1  0  0  0  0
 25 26  1  0  0  0  0
 25 60  1  0  0  0  0
 25 61  1  0  0  0  0
 26 27  1  0  0  0  0
 26 28  2  0  0  0  0
 27 62  1  0  0  0  0
 30 31  2  0  0  0  0
 30 32  1  0  0  0  0
 32 63  1  0  0  0  0
 33 64  1  0  0  0  0
M  END
>  <Mol_ID>
512

>  <Formula>
C24H31NO8

>  <MolWeight>
461.50484

>  <Cat>
S2054

>  <Name>
Orphenadrine Citrate

>  <Synonyms>
N/A

>  <Target>
AChR

>  <Form>
Citrate

>  <CAS>
4682-36-4

>  <URL>
http://selleckchem.com/products/orphenadrine-citrate-norflex.html

$$$$
