ORY-1001.cdx
 OpenBabel08302519593D

 39 41  0  0  0  0  0  0  0  0999 V2000
    0.6817    0.2117    2.5886 C   0  0  0  0  0  0  0  0  0  0  0  0
   -0.0629    1.4582    2.0993 C   0  0  3  0  0  0  0  0  0  0  0  0
   -0.3699    1.3157    0.6100 C   0  0  0  0  0  0  0  0  0  0  0  0
    0.9135    1.1482   -0.1999 C   0  0  0  0  0  0  0  0  0  0  0  0
    1.8151    0.0095    0.2997 C   0  0  3  0  0  0  0  0  0  0  0  0
    1.9958    0.0352    1.8285 C   0  0  0  0  0  0  0  0  0  0  0  0
   -1.2920    1.6419    2.8664 N   0  0  0  0  0  0  0  0  0  0  0  0
    3.1525    0.0826   -0.3139 N   0  0  0  0  0  0  0  0  0  0  0  0
    3.1759   -0.0875   -1.7765 C   0  0  2  0  0  0  0  0  0  0  0  0
    4.5113   -0.0428   -2.4651 C   0  0  0  0  0  0  0  0  0  0  0  0
    3.5428    1.0938   -2.6571 C   0  0  1  0  0  0  0  0  0  0  0  0
    2.8212    1.3269   -3.9678 C   0  0  0  0  0  0  0  0  0  0  0  0
    1.5262    1.8743   -3.9747 C   0  0  0  0  0  0  0  0  0  0  0  0
    0.8583    2.1845   -5.1618 C   0  0  0  0  0  0  0  0  0  0  0  0
    1.4801    1.9595   -6.3840 C   0  0  0  0  0  0  0  0  0  0  0  0
    2.7603    1.4147   -6.4126 C   0  0  0  0  0  0  0  0  0  0  0  0
    3.4211    1.1030   -5.2181 C   0  0  0  0  0  0  0  0  0  0  0  0
    0.8964    0.2932    3.6603 H   0  0  0  0  0  0  0  0  0  0  0  0
    0.0599   -0.6829    2.4543 H   0  0  0  0  0  0  0  0  0  0  0  0
    0.5703    2.3402    2.2644 H   0  0  0  0  0  0  0  0  0  0  0  0
   -1.0236    0.4507    0.4349 H   0  0  0  0  0  0  0  0  0  0  0  0
   -0.9101    2.1983    0.2452 H   0  0  0  0  0  0  0  0  0  0  0  0
    1.4622    2.0986   -0.1902 H   0  0  0  0  0  0  0  0  0  0  0  0
    0.6275    0.9501   -1.2374 H   0  0  0  0  0  0  0  0  0  0  0  0
    1.3491   -0.9490    0.0349 H   0  0  0  0  0  0  0  0  0  0  0  0
    2.6741    0.8502    2.1138 H   0  0  0  0  0  0  0  0  0  0  0  0
    2.4725   -0.8976    2.1574 H   0  0  0  0  0  0  0  0  0  0  0  0
   -1.7854    2.4656    2.5219 H   0  0  0  0  0  0  0  0  0  0  0  0
   -1.9210    0.8543    2.7195 H   0  0  0  0  0  0  0  0  0  0  0  0
    3.7647   -0.6030    0.1291 H   0  0  0  0  0  0  0  0  0  0  0  0
    2.4856   -0.8301   -2.1718 H   0  0  0  0  0  0  0  0  0  0  0  0
    5.3983    0.1636   -1.8752 H   0  0  0  0  0  0  0  0  0  0  0  0
    4.6802   -0.7481   -3.2689 H   0  0  0  0  0  0  0  0  0  0  0  0
    3.8037    2.0128   -2.1338 H   0  0  0  0  0  0  0  0  0  0  0  0
    1.0353    2.0940   -3.0314 H   0  0  0  0  0  0  0  0  0  0  0  0
   -0.1372    2.6180   -5.1256 H   0  0  0  0  0  0  0  0  0  0  0  0
    0.9743    2.2220   -7.3089 H   0  0  0  0  0  0  0  0  0  0  0  0
    3.2549    1.2454   -7.3651 H   0  0  0  0  0  0  0  0  0  0  0  0
    4.4290    0.6982   -5.2708 H   0  0  0  0  0  0  0  0  0  0  0  0
  1  2  1  0  0  0  0
  1 18  1  0  0  0  0
  1 19  1  0  0  0  0
  2  3  1  0  0  0  0
  2  7  1  0  0  0  0
  2 20  1  0  0  0  0
  3  4  1  0  0  0  0
  3 21  1  0  0  0  0
  3 22  1  0  0  0  0
  4  5  1  0  0  0  0
  4 23  1  0  0  0  0
  4 24  1  0  0  0  0
  5  6  1  0  0  0  0
  5  8  1  0  0  0  0
  5 25  1  0  0  0  0
  6  1  1  0  0  0  0
  6 26  1  0  0  0  0
  6 27  1  0  0  0  0
  7 28  1  0  0  0  0
  7 29  1  0  0  0  0
  8 30  1  0  0  0  0
  9  8  1  0  0  0  0
  9 10  1  0  0  0  0
  9 31  1  6  0  0  0
 10 11  1  0  0  0  0
 10 32  1  0  0  0  0
 10 33  1  0  0  0  0
 11  9  1  0  0  0  0
 11 12  1  0  0  0  0
 11 34  1  1  0  0  0
 12 13  2  0  0  0  0
 13 14  1  0  0  0  0
 13 35  1  0  0  0  0
 14 15  2  0  0  0  0
 14 36  1  0  0  0  0
 15 16  1  0  0  0  0
 15 37  1  0  0  0  0
 16 17  2  0  0  0  0
 16 38  1  0  0  0  0
 17 12  1  0  0  0  0
 17 39  1  0  0  0  0
M  END
>  <Mol_ID>
2629

>  <Formula>
C15H24Cl2N2

>  <MolWeight>
303.27046

>  <Cat>
S7795

>  <Name>
Iadademstat (ORY-1001) 2HCl

>  <Synonyms>
RG-6016

>  <Target>
Histone Demethylase,LSD1

>  <Form>
dihydrochloride

>  <CAS>
1431326-61-2

>  <URL>
http://selleckchem.com/products/ory-1001-rg-6016.html

$$$$
