OSI-906.cdx
 OpenBabel08302522033D

 55 60  0  0  0  0  0  0  0  0999 V2000
    5.9025    2.7720   -6.7818 C   0  0  0  0  0  0  0  0  0  0  0  0
    5.2500    1.7380   -6.1047 C   0  0  0  0  0  0  0  0  0  0  0  0
    4.1918    1.0839   -6.7516 C   0  0  0  0  0  0  0  0  0  0  0  0
    3.8896    1.3027   -8.0884 C   0  0  0  0  0  0  0  0  0  0  0  0
    4.5841    2.3239   -8.7639 C   0  0  0  0  0  0  0  0  0  0  0  0
    5.5609    3.0785   -8.0986 C   0  0  0  0  0  0  0  0  0  0  0  0
    2.9808    0.5167   -8.6956 N   0  0  0  0  0  0  0  0  0  0  0  0
    2.7132    0.7118  -10.0153 C   0  0  0  0  0  0  0  0  0  0  0  0
    3.3276    1.7310  -10.7329 C   0  0  0  0  0  0  0  0  0  0  0  0
    4.2702    2.5430  -10.1061 C   0  0  0  0  0  0  0  0  0  0  0  0
    1.7164   -0.2005  -10.6258 C   0  0  0  0  0  0  0  0  0  0  0  0
    0.7100   -0.8021   -9.8484 C   0  0  0  0  0  0  0  0  0  0  0  0
   -0.2932   -1.5864  -10.4290 C   0  0  0  0  0  0  0  0  0  0  0  0
   -0.3038   -1.8023  -11.8035 C   0  0  0  0  0  0  0  0  0  0  0  0
    0.7066   -1.2636  -12.5923 C   0  0  0  0  0  0  0  0  0  0  0  0
    1.7102   -0.4836  -12.0073 C   0  0  0  0  0  0  0  0  0  0  0  0
    5.6673    1.3821   -4.7633 C   0  0  0  0  0  0  0  0  0  0  0  0
    5.7207    0.1256   -4.1746 C   0  0  0  0  0  0  0  0  0  0  0  0
    6.1364    0.3707   -2.8775 N   0  0  0  0  0  0  0  0  0  0  0  0
    6.3999    1.7159   -2.7599 C   0  0  0  0  0  0  0  0  0  0  0  0
    6.1440    2.3391   -3.8904 N   0  0  0  0  0  0  0  0  0  0  0  0
    5.4422   -1.2495   -4.5509 C   0  0  0  0  0  0  0  0  0  0  0  0
    5.5170   -2.2053   -3.6498 N   0  0  0  0  0  0  0  0  0  0  0  0
    5.9051   -1.8952   -2.3652 C   0  0  0  0  0  0  0  0  0  0  0  0
    6.2286   -0.6600   -1.9611 C   0  0  0  0  0  0  0  0  0  0  0  0
    5.0982   -1.6811   -5.7909 N   0  0  0  0  0  0  0  0  0  0  0  0
    6.8541    2.4293   -1.4792 C   0  0  1  0  0  0  0  0  0  0  0  0
    8.3913    2.4842   -1.2768 C   0  0  0  0  0  0  0  0  0  0  0  0
    8.3914    3.9339   -1.8266 C   0  0  1  0  0  0  0  0  0  0  0  0
    6.8686    3.9747   -1.5180 C   0  0  0  0  0  0  0  0  0  0  0  0
    9.2161    4.9401   -1.0361 C   0  0  0  0  0  0  0  0  0  0  0  0
    8.7475    4.0593   -3.2201 O   0  0  0  0  0  0  0  0  0  0  0  0
    6.6864    3.3416   -6.2813 H   0  0  0  0  0  0  0  0  0  0  0  0
    3.5921    0.3528   -6.2136 H   0  0  0  0  0  0  0  0  0  0  0  0
    6.0812    3.8869   -8.6070 H   0  0  0  0  0  0  0  0  0  0  0  0
    3.0815    1.9185  -11.7740 H   0  0  0  0  0  0  0  0  0  0  0  0
    4.7566    3.3331  -10.6705 H   0  0  0  0  0  0  0  0  0  0  0  0
    0.6898   -0.6401   -8.7715 H   0  0  0  0  0  0  0  0  0  0  0  0
   -1.0723   -2.0161   -9.8045 H   0  0  0  0  0  0  0  0  0  0  0  0
   -1.0948   -2.3926  -12.2582 H   0  0  0  0  0  0  0  0  0  0  0  0
    0.7137   -1.4414  -13.6647 H   0  0  0  0  0  0  0  0  0  0  0  0
    2.4919   -0.0970  -12.6569 H   0  0  0  0  0  0  0  0  0  0  0  0
    5.9543   -2.7333   -1.6752 H   0  0  0  0  0  0  0  0  0  0  0  0
    6.5514   -0.4346   -0.9552 H   0  0  0  0  0  0  0  0  0  0  0  0
    5.1570   -1.1177   -6.6247 H   0  0  0  0  0  0  0  0  0  0  0  0
    4.8575   -2.6577   -5.8921 H   0  0  0  0  0  0  0  0  0  0  0  0
    6.3947    1.9702   -0.5954 H   0  0  0  0  0  0  0  0  0  0  0  0
    8.6850    2.4134   -0.2187 H   0  0  0  0  0  0  0  0  0  0  0  0
    8.9861    1.7560   -1.8343 H   0  0  0  0  0  0  0  0  0  0  0  0
    6.2454    4.4537   -2.2787 H   0  0  0  0  0  0  0  0  0  0  0  0
    6.6165    4.4254   -0.5494 H   0  0  0  0  0  0  0  0  0  0  0  0
   10.2865    4.7286   -1.1344 H   0  0  0  0  0  0  0  0  0  0  0  0
    9.0417    5.9561   -1.4082 H   0  0  0  0  0  0  0  0  0  0  0  0
    8.9687    4.9274    0.0302 H   0  0  0  0  0  0  0  0  0  0  0  0
    9.6602    3.7328   -3.2868 H   0  0  0  0  0  0  0  0  0  0  0  0
  1  2  2  0  0  0  0
  1 33  1  0  0  0  0
  2  3  1  0  0  0  0
  2 17  1  0  0  0  0
  3  4  2  0  0  0  0
  3 34  1  0  0  0  0
  4  5  1  0  0  0  0
  4  7  1  0  0  0  0
  5  6  2  0  0  0  0
  6  1  1  0  0  0  0
  6 35  1  0  0  0  0
  7  8  2  0  0  0  0
  8  9  1  0  0  0  0
  8 11  1  0  0  0  0
  9 10  2  0  0  0  0
  9 36  1  0  0  0  0
 10  5  1  0  0  0  0
 10 37  1  0  0  0  0
 11 12  2  0  0  0  0
 12 13  1  0  0  0  0
 12 38  1  0  0  0  0
 13 14  2  0  0  0  0
 13 39  1  0  0  0  0
 14 15  1  0  0  0  0
 14 40  1  0  0  0  0
 15 16  2  0  0  0  0
 15 41  1  0  0  0  0
 16 11  1  0  0  0  0
 16 42  1  0  0  0  0
 17 18  2  0  0  0  0
 18 19  1  0  0  0  0
 18 22  1  0  0  0  0
 19 20  1  0  0  0  0
 20 21  2  0  0  0  0
 21 17  1  0  0  0  0
 22 23  2  0  0  0  0
 22 26  1  0  0  0  0
 23 24  1  0  0  0  0
 24 25  2  0  0  0  0
 24 43  1  0  0  0  0
 25 19  1  0  0  0  0
 25 44  1  0  0  0  0
 26 45  1  0  0  0  0
 26 46  1  0  0  0  0
 27 28  1  0  0  0  0
 27 47  1  1  0  0  0
 27 20  1  0  0  0  0
 28 29  1  0  0  0  0
 28 48  1  0  0  0  0
 28 49  1  0  0  0  0
 29 30  1  0  0  0  0
 29 31  1  0  0  0  0
 29 32  1  6  0  0  0
 30 27  1  0  0  0  0
 30 50  1  0  0  0  0
 30 51  1  0  0  0  0
 31 52  1  0  0  0  0
 31 53  1  0  0  0  0
 31 54  1  0  0  0  0
 32 55  1  0  0  0  0
M  END
>  <Mol_ID>
1183

>  <Formula>
C26H23N5O

>  <MolWeight>
421.49372

>  <Cat>
S1091

>  <Name>
Linsitinib (OSI-906)

>  <Synonyms>
N/A

>  <Target>
IGF-1R

>  <Form>
free base

>  <CAS>
867160-71-2

>  <URL>
http://selleckchem.com/products/OSI-906.html

$$$$
