OSI-027.cdx
 OpenBabel08302521403D

 52 56  0  0  0  0  0  0  0  0999 V2000
   -1.9831   -0.8003   -0.2286 N   0  0  0  0  0  0  0  0  0  0  0  0
   -1.8840    0.5694   -0.1805 C   0  0  0  0  0  0  0  0  0  0  0  0
   -0.7959    1.2698   -0.0994 N   0  0  0  0  0  0  0  0  0  0  0  0
    0.3255    0.5228   -0.0538 N   0  0  0  0  0  0  0  0  0  0  0  0
    0.3475   -0.8424   -0.1011 C   0  0  0  0  0  0  0  0  0  0  0  0
   -0.8988   -1.5161   -0.1846 C   0  0  0  0  0  0  0  0  0  0  0  0
    1.6245    0.9663    0.0742 C   0  0  0  0  0  0  0  0  0  0  0  0
    2.4471   -0.0603    0.1941 N   0  0  0  0  0  0  0  0  0  0  0  0
    1.6726   -1.1868    0.0120 C   0  0  0  0  0  0  0  0  0  0  0  0
   -1.0527   -2.8749   -0.1777 N   0  0  0  0  0  0  0  0  0  0  0  0
    2.3014   -2.5293   -0.0115 C   0  0  0  0  0  0  0  0  0  0  0  0
    1.9928    2.4238    0.0631 C   0  0  2  0  0  0  0  0  0  0  0  0
    1.8961   -3.6558   -0.6811 N   0  0  0  0  0  0  0  0  0  0  0  0
    2.8467   -4.6573   -0.5481 C   0  0  0  0  0  0  0  0  0  0  0  0
    3.8369   -4.1574    0.3012 C   0  0  0  0  0  0  0  0  0  0  0  0
    3.4879   -2.8226    0.6193 C   0  0  0  0  0  0  0  0  0  0  0  0
    2.9207   -5.9409   -1.1220 C   0  0  0  0  0  0  0  0  0  0  0  0
    4.0508   -6.7111   -0.7942 C   0  0  0  0  0  0  0  0  0  0  0  0
    5.0343   -6.2404    0.0761 C   0  0  0  0  0  0  0  0  0  0  0  0
    4.9334   -4.9690    0.6378 C   0  0  0  0  0  0  0  0  0  0  0  0
    3.3891    2.6505   -0.5410 C   0  0  0  0  0  0  0  0  0  0  0  0
    3.7502    4.1356   -0.5709 C   0  0  0  0  0  0  0  0  0  0  0  0
    3.6629    4.7832    0.8184 C   0  0  2  0  0  0  0  0  0  0  0  0
    2.2985    4.5132    1.4658 C   0  0  0  0  0  0  0  0  0  0  0  0
    1.9350    3.0263    1.4720 C   0  0  0  0  0  0  0  0  0  0  0  0
    1.9118   -6.3345   -1.9581 O   0  0  0  0  0  0  0  0  0  0  0  0
    2.0688   -7.6138   -2.5704 C   0  0  0  0  0  0  0  0  0  0  0  0
    3.9256    6.2744    0.7196 C   0  0  0  0  0  0  0  0  0  0  0  0
    4.1916    6.9108   -0.2862 O   0  0  0  0  0  0  0  0  0  0  0  0
    3.8838    6.8918    1.9151 O   0  0  0  0  0  0  0  0  0  0  0  0
   -2.8423    1.1173   -0.2012 H   0  0  0  0  0  0  0  0  0  0  0  0
   -0.4415   -3.3549    0.4754 H   0  0  0  0  0  0  0  0  0  0  0  0
   -2.0237   -3.1272   -0.0147 H   0  0  0  0  0  0  0  0  0  0  0  0
    1.2718    2.9571   -0.5731 H   0  0  0  0  0  0  0  0  0  0  0  0
    1.0836   -3.7291   -1.2804 H   0  0  0  0  0  0  0  0  0  0  0  0
    4.0531   -2.1338    1.2338 H   0  0  0  0  0  0  0  0  0  0  0  0
    4.2014   -7.7011   -1.2143 H   0  0  0  0  0  0  0  0  0  0  0  0
    5.8964   -6.8609    0.3074 H   0  0  0  0  0  0  0  0  0  0  0  0
    5.7055   -4.5987    1.3053 H   0  0  0  0  0  0  0  0  0  0  0  0
    4.1489    2.1097    0.0392 H   0  0  0  0  0  0  0  0  0  0  0  0
    3.4311    2.2491   -1.5611 H   0  0  0  0  0  0  0  0  0  0  0  0
    4.7645    4.2552   -0.9722 H   0  0  0  0  0  0  0  0  0  0  0  0
    3.0804    4.6541   -1.2698 H   0  0  0  0  0  0  0  0  0  0  0  0
    4.4580    4.3589    1.4452 H   0  0  0  0  0  0  0  0  0  0  0  0
    2.2926    4.8837    2.4982 H   0  0  0  0  0  0  0  0  0  0  0  0
    1.5192    5.0752    0.9345 H   0  0  0  0  0  0  0  0  0  0  0  0
    0.9304    2.9054    1.8959 H   0  0  0  0  0  0  0  0  0  0  0  0
    2.6213    2.4889    2.1399 H   0  0  0  0  0  0  0  0  0  0  0  0
    2.9626   -7.6472   -3.2039 H   0  0  0  0  0  0  0  0  0  0  0  0
    2.0898   -8.4130   -1.8205 H   0  0  0  0  0  0  0  0  0  0  0  0
    1.2020   -7.7928   -3.2150 H   0  0  0  0  0  0  0  0  0  0  0  0
    4.0894    7.8290    1.7022 H   0  0  0  0  0  0  0  0  0  0  0  0
  1  2  1  0  0  0  0
  2  3  2  0  0  0  0
  2 31  1  0  0  0  0
  3  4  1  0  0  0  0
  4  5  1  0  0  0  0
  4  7  1  0  0  0  0
  5  6  1  0  0  0  0
  6  1  2  0  0  0  0
  6 10  1  0  0  0  0
  7  8  2  0  0  0  0
  8  9  1  0  0  0  0
  9  5  2  0  0  0  0
  9 11  1  0  0  0  0
 10 32  1  0  0  0  0
 10 33  1  0  0  0  0
 11 13  1  0  0  0  0
 12  7  1  0  0  0  0
 12 21  1  0  0  0  0
 12 34  1  6  0  0  0
 13 14  1  0  0  0  0
 13 35  1  0  0  0  0
 14 15  2  0  0  0  0
 14 17  1  0  0  0  0
 15 16  1  0  0  0  0
 16 11  2  0  0  0  0
 16 36  1  0  0  0  0
 17 18  2  0  0  0  0
 17 26  1  0  0  0  0
 18 19  1  0  0  0  0
 18 37  1  0  0  0  0
 19 20  2  0  0  0  0
 19 38  1  0  0  0  0
 20 15  1  0  0  0  0
 20 39  1  0  0  0  0
 21 22  1  0  0  0  0
 21 40  1  0  0  0  0
 21 41  1  0  0  0  0
 22 23  1  0  0  0  0
 22 42  1  0  0  0  0
 22 43  1  0  0  0  0
 23 24  1  0  0  0  0
 23 44  1  1  0  0  0
 23 28  1  0  0  0  0
 24 25  1  0  0  0  0
 24 45  1  0  0  0  0
 24 46  1  0  0  0  0
 25 12  1  0  0  0  0
 25 47  1  0  0  0  0
 25 48  1  0  0  0  0
 26 27  1  0  0  0  0
 27 49  1  0  0  0  0
 27 50  1  0  0  0  0
 27 51  1  0  0  0  0
 28 29  2  0  0  0  0
 28 30  1  0  0  0  0
 30 52  1  0  0  0  0
M  END
>  <Mol_ID>
811

>  <Formula>
C21H22N6O3

>  <MolWeight>
406.43778

>  <Cat>
S2624

>  <Name>
OSI-027

>  <Synonyms>
ASP4786, CERC 006, AEVI-006

>  <Target>
Autophagy,mTOR

>  <Form>
free base

>  <CAS>
936890-98-1

>  <URL>
http://selleckchem.com/products/OSI027.html

$$$$
