OSI 420.cdx
 OpenBabel08302521353D

 48 50  0  0  0  0  0  0  0  0999 V2000
    1.3907   -2.0523    2.4003 C   0  0  0  0  0  0  0  0  0  0  0  0
    1.5427   -1.4197    3.6413 C   0  0  0  0  0  0  0  0  0  0  0  0
    2.6694   -0.6374    3.8816 C   0  0  0  0  0  0  0  0  0  0  0  0
    3.6230   -0.4805    2.8817 C   0  0  0  0  0  0  0  0  0  0  0  0
    3.4634   -1.1268    1.6491 C   0  0  0  0  0  0  0  0  0  0  0  0
    2.3670   -1.9590    1.3800 C   0  0  0  0  0  0  0  0  0  0  0  0
    2.3081   -2.5813    0.1692 N   0  0  0  0  0  2  0  0  0  0  0  0
    1.6613   -3.7718    0.0520 C   0  0  0  0  0  0  0  0  0  0  0  0
    1.7339   -4.6295    1.0946 N   0  0  0  0  0  0  0  0  0  0  0  0
    1.0167   -5.7521    1.0223 C   0  0  0  0  0  0  0  0  0  0  0  0
    0.2229   -6.1361    0.0155 N   0  0  0  0  0  0  0  0  0  0  0  0
    0.2001   -5.3024   -1.0314 C   0  0  0  0  0  0  0  0  0  0  0  0
    0.9468   -4.1246   -1.1062 C   0  0  0  0  0  0  0  0  0  0  0  0
   -0.6604   -5.6028   -2.0732 C   0  0  0  0  0  0  0  0  0  0  0  0
   -0.8394   -4.7683   -3.1966 C   0  0  0  0  0  0  0  0  0  0  0  0
    0.0664   -3.7232   -3.3806 C   0  0  0  0  0  0  0  0  0  0  0  0
    0.9184   -3.3915   -2.3148 C   0  0  0  0  0  0  0  0  0  0  0  0
   -1.9192   -4.9611   -4.0457 O   0  0  0  0  0  0  0  0  0  0  0  0
    0.3015   -2.9121   -4.4464 O   0  0  0  0  0  0  0  0  0  0  0  0
   -3.0448   -5.5769   -3.3749 C   0  0  0  0  0  0  0  0  0  0  0  0
   -4.3832   -5.3199   -4.0652 C   0  0  0  0  0  0  0  0  0  0  0  0
   -5.4782   -5.9988   -3.4279 O   0  0  0  0  0  0  0  0  0  0  0  0
   -0.5077   -2.9023   -5.6121 C   0  0  0  0  0  0  0  0  0  0  0  0
   -1.6727   -1.9497   -5.3905 C   0  0  0  0  0  0  0  0  0  0  0  0
   -1.2007   -0.6875   -4.9131 O   0  0  0  0  0  0  0  0  0  0  0  0
    0.5580   -1.5961    4.6677 C   0  0  0  0  0  0  0  0  0  0  0  0
   -0.2613   -1.7568    5.5339 C   0  0  0  0  0  0  0  0  0  0  0  0
   -5.7445   -5.5574   -2.0990 C   0  0  0  0  0  0  0  0  0  0  0  0
    0.5013   -2.6562    2.2252 H   0  0  0  0  0  0  0  0  0  0  0  0
    2.8114   -0.1556    4.8460 H   0  0  0  0  0  0  0  0  0  0  0  0
    4.5025    0.1312    3.0521 H   0  0  0  0  0  0  0  0  0  0  0  0
    4.2265   -1.0016    0.8828 H   0  0  0  0  0  0  0  0  0  0  0  0
    1.0745   -6.4091    1.8801 H   0  0  0  0  0  0  0  0  0  0  0  0
   -1.2438   -6.5100   -1.9488 H   0  0  0  0  0  0  0  0  0  0  0  0
    1.5804   -2.5297   -2.4080 H   0  0  0  0  0  0  0  0  0  0  0  0
   -2.8905   -6.6622   -3.3271 H   0  0  0  0  0  0  0  0  0  0  0  0
   -3.1322   -5.1872   -2.3527 H   0  0  0  0  0  0  0  0  0  0  0  0
   -4.6024   -4.2484   -4.1259 H   0  0  0  0  0  0  0  0  0  0  0  0
   -4.3385   -5.6894   -5.0950 H   0  0  0  0  0  0  0  0  0  0  0  0
    0.1301   -2.4843   -6.4020 H   0  0  0  0  0  0  0  0  0  0  0  0
   -0.8034   -3.9005   -5.9481 H   0  0  0  0  0  0  0  0  0  0  0  0
   -2.2122   -1.7753   -6.3263 H   0  0  0  0  0  0  0  0  0  0  0  0
   -2.3686   -2.3409   -4.6468 H   0  0  0  0  0  0  0  0  0  0  0  0
   -0.5971   -0.8988   -4.1696 H   0  0  0  0  0  0  0  0  0  0  0  0
   -0.9859   -1.9183    6.2911 H   0  0  0  0  0  0  0  0  0  0  0  0
   -5.0173   -5.9826   -1.4002 H   0  0  0  0  0  0  0  0  0  0  0  0
   -5.7416   -4.4654   -2.0337 H   0  0  0  0  0  0  0  0  0  0  0  0
   -6.7346   -5.9203   -1.8055 H   0  0  0  0  0  0  0  0  0  0  0  0
  1  2  2  0  0  0  0
  1 29  1  0  0  0  0
  2  3  1  0  0  0  0
  2 26  1  0  0  0  0
  3  4  2  0  0  0  0
  3 30  1  0  0  0  0
  4  5  1  0  0  0  0
  4 31  1  0  0  0  0
  5  6  2  0  0  0  0
  5 32  1  0  0  0  0
  6  1  1  0  0  0  0
  6  7  1  0  0  0  0
  7  8  1  0  0  0  0
  8  9  2  0  0  0  0
  9 10  1  0  0  0  0
 10 11  2  0  0  0  0
 10 33  1  0  0  0  0
 11 12  1  0  0  0  0
 12 13  2  0  0  0  0
 12 14  1  0  0  0  0
 13  8  1  0  0  0  0
 14 15  2  0  0  0  0
 14 34  1  0  0  0  0
 15 16  1  0  0  0  0
 15 18  1  0  0  0  0
 16 17  2  0  0  0  0
 16 19  1  0  0  0  0
 17 13  1  0  0  0  0
 17 35  1  0  0  0  0
 18 20  1  0  0  0  0
 19 23  1  0  0  0  0
 20 21  1  0  0  0  0
 20 36  1  0  0  0  0
 20 37  1  0  0  0  0
 21 22  1  0  0  0  0
 21 38  1  0  0  0  0
 21 39  1  0  0  0  0
 22 28  1  0  0  0  0
 23 24  1  0  0  0  0
 23 40  1  0  0  0  0
 23 41  1  0  0  0  0
 24 25  1  0  0  0  0
 24 42  1  0  0  0  0
 24 43  1  0  0  0  0
 25 44  1  0  0  0  0
 26 27  3  0  0  0  0
 27 45  1  0  0  0  0
 28 46  1  0  0  0  0
 28 47  1  0  0  0  0
 28 48  1  0  0  0  0
M  END
>  <Mol_ID>
645

>  <Formula>
C21H22ClN3O4

>  <MolWeight>
415.87008

>  <Cat>
S2205

>  <Name>
OSI-420

>  <Synonyms>
DesMethyl Erlotinib (CP-473420) HCl

>  <Target>
EGFR

>  <Form>
Hydrochloride

>  <CAS>
183320-51-6

>  <URL>
http://selleckchem.com/products/OSI-420-Desmethyl-Erlotinib,CP-473420.html

$$$$
