Osthenol
 OpenBabel08302521593D

 31 32  0  0  0  0  0  0  0  0999 V2000
    1.0875   -0.2694    0.1497 C   0  0  0  0  0  0  0  0  0  0  0  0
    2.5454   -0.5095   -0.1315 C   0  0  0  0  0  0  0  0  0  0  0  0
    3.1186   -1.6655   -0.5262 C   0  0  0  0  0  0  0  0  0  0  0  0
    4.6015   -1.7275   -0.7640 C   0  0  0  0  0  0  0  0  0  0  0  0
    2.3516   -2.9373   -0.7673 C   0  0  0  0  0  0  0  0  0  0  0  0
    1.1040    2.5531    0.6042 O   0  0  0  0  0  0  0  0  0  0  0  0
    0.3688   -3.8981    3.4476 O   0  0  0  0  0  0  0  0  0  0  0  0
    0.4961   -0.4220    2.6166 C   0  0  0  0  0  0  0  0  0  0  0  0
    0.8101    0.3615    1.4971 C   0  0  0  0  0  0  0  0  0  0  0  0
    0.0743    0.1374    3.8270 C   0  0  0  0  0  0  0  0  0  0  0  0
    0.5957   -1.8302    2.4944 O   0  0  0  0  0  0  0  0  0  0  0  0
    0.7808    1.7535    1.6634 C   0  0  0  0  0  0  0  0  0  0  0  0
    0.0342    1.5248    3.9544 C   0  0  0  0  0  0  0  0  0  0  0  0
   -0.3824   -0.7369    4.8945 C   0  0  0  0  0  0  0  0  0  0  0  0
    0.2498   -2.6831    3.5239 C   0  0  0  0  0  0  0  0  0  0  0  0
    0.4056    2.3348    2.8801 C   0  0  0  0  0  0  0  0  0  0  0  0
   -0.3136   -2.0611    4.7389 C   0  0  0  0  0  0  0  0  0  0  0  0
    0.5034   -1.1931    0.0680 H   0  0  0  0  0  0  0  0  0  0  0  0
    0.6852    0.3781   -0.6379 H   0  0  0  0  0  0  0  0  0  0  0  0
    3.1792    0.3687   -0.0029 H   0  0  0  0  0  0  0  0  0  0  0  0
    5.1214   -1.9871    0.1640 H   0  0  0  0  0  0  0  0  0  0  0  0
    4.8560   -2.4771   -1.5216 H   0  0  0  0  0  0  0  0  0  0  0  0
    4.9885   -0.7695   -1.1267 H   0  0  0  0  0  0  0  0  0  0  0  0
    2.0801   -3.4108    0.1808 H   0  0  0  0  0  0  0  0  0  0  0  0
    1.4436   -2.7506   -1.3506 H   0  0  0  0  0  0  0  0  0  0  0  0
    2.9424   -3.6582   -1.3420 H   0  0  0  0  0  0  0  0  0  0  0  0
    1.0573    3.4842    0.8816 H   0  0  0  0  0  0  0  0  0  0  0  0
   -0.2943    1.9903    4.8818 H   0  0  0  0  0  0  0  0  0  0  0  0
   -0.8139   -0.3017    5.7896 H   0  0  0  0  0  0  0  0  0  0  0  0
    0.3701    3.4130    2.9959 H   0  0  0  0  0  0  0  0  0  0  0  0
   -0.6689   -2.7471    5.4957 H   0  0  0  0  0  0  0  0  0  0  0  0
  1  2  1  0  0  0  0
  1  9  1  0  0  0  0
  1 18  1  0  0  0  0
  1 19  1  0  0  0  0
  2  3  2  0  0  0  0
  2 20  1  0  0  0  0
  3  4  1  0  0  0  0
  3  5  1  0  0  0  0
  4 21  1  0  0  0  0
  4 22  1  0  0  0  0
  4 23  1  0  0  0  0
  5 24  1  0  0  0  0
  5 25  1  0  0  0  0
  5 26  1  0  0  0  0
  6 12  1  0  0  0  0
  6 27  1  0  0  0  0
  7 15  2  0  0  0  0
  8  9  2  0  0  0  0
  8 10  1  0  0  0  0
  8 11  1  0  0  0  0
  9 12  1  0  0  0  0
 10 13  2  0  0  0  0
 10 14  1  0  0  0  0
 11 15  1  0  0  0  0
 12 16  2  0  0  0  0
 13 16  1  0  0  0  0
 13 28  1  0  0  0  0
 14 17  2  0  0  0  0
 14 29  1  0  0  0  0
 15 17  1  0  0  0  0
 16 30  1  0  0  0  0
 17 31  1  0  0  0  0
M  END
>  <Mol_ID>
10129

>  <Formula>
C14H14O3

>  <MolWeight>
230.25916

>  <Cat>
S5852

>  <Name>
Osthenol

>  <Synonyms>
Ostenol

>  <Target>
hMAO-A

>  <Form>
Free Base

>  <CAS>
484-14-0

>  <URL>
https://www.selleckchem.com/products/osthenol.html

$$$$
