OT-82
 OpenBabel08302521313D

 53 56  0  0  0  0  0  0  0  0999 V2000
    0.9386    0.0952    0.0010 C   0  0  0  0  0  0  0  0  0  0  0  0
    0.1834    1.0436    0.8703 C   0  0  0  0  0  0  0  0  0  0  0  0
    0.6308    2.3512    1.1114 C   0  0  0  0  0  0  0  0  0  0  0  0
   -0.0251    3.1743    2.0441 C   0  0  0  0  0  0  0  0  0  0  0  0
   -1.1994    2.7318    2.7116 C   0  0  0  0  0  0  0  0  0  0  0  0
   -1.6482    1.4248    2.4032 C   0  0  0  0  0  0  0  0  0  0  0  0
   -0.9651    0.5898    1.5137 C   0  0  0  0  0  0  0  0  0  0  0  0
    0.3434   -0.7740   -0.6207 O   0  0  0  0  0  0  0  0  0  0  0  0
    2.3059    0.2394    0.0289 N   0  0  0  0  0  0  0  0  0  0  0  0
   -2.7757    5.6447    4.5867 C   0  0  0  0  0  0  0  0  0  0  0  0
   -2.1115    4.9332    3.5977 C   0  0  0  0  0  0  0  0  0  0  0  0
   -1.9612    3.5432    3.7130 C   0  0  0  0  0  0  0  0  0  0  0  0
   -2.5781    2.9468    4.8201 C   0  0  0  0  0  0  0  0  0  0  0  0
   -3.2715    3.7324    5.7317 C   0  0  0  0  0  0  0  0  0  0  0  0
   -3.3677    5.0724    5.6493 N   0  0  0  0  0  0  0  0  0  0  0  0
    3.1979   -0.7019   -0.6213 C   0  0  0  0  0  0  0  0  0  0  0  0
    3.5205   -0.3268   -2.0680 C   0  0  0  0  0  0  0  0  0  0  0  0
    4.1734    1.0525   -2.1983 C   0  0  0  0  0  0  0  0  0  0  0  0
    4.4717    2.0124   -5.7133 N   0  0  0  0  0  0  0  0  0  0  0  0
    5.7073    1.5099   -5.5636 N   0  0  0  0  0  0  0  0  0  0  0  0
    5.7362    1.1197   -4.2877 C   0  0  0  0  0  0  0  0  0  0  0  0
    4.5205    1.3735   -3.6117 C   0  0  0  0  0  0  0  0  0  0  0  0
    3.7321    1.9795   -4.5673 C   0  0  0  0  0  0  0  0  0  0  0  0
    0.5827    4.4443    2.3262 C   0  0  0  0  0  0  0  0  0  0  0  0
    1.0133    5.5349    2.6183 C   0  0  0  0  0  0  0  0  0  0  0  0
    1.4328    6.8545    2.9976 C   0  0  0  0  0  0  0  0  0  0  0  0
    0.5691    7.9446    2.8315 C   0  0  0  0  0  0  0  0  0  0  0  0
    0.9898    9.2305    3.1711 C   0  0  0  0  0  0  0  0  0  0  0  0
    2.2724    9.4222    3.6711 C   0  0  0  0  0  0  0  0  0  0  0  0
    3.1287    8.3463    3.8664 C   0  0  0  0  0  0  0  0  0  0  0  0
    2.7090    7.0552    3.5315 C   0  0  0  0  0  0  0  0  0  0  0  0
    2.6887   10.6586    3.9690 F   0  0  0  0  0  0  0  0  0  0  0  0
    1.4961    2.7361    0.5721 H   0  0  0  0  0  0  0  0  0  0  0  0
   -2.5494    1.0272    2.8672 H   0  0  0  0  0  0  0  0  0  0  0  0
   -1.3262   -0.4238    1.3378 H   0  0  0  0  0  0  0  0  0  0  0  0
    2.7229    0.8876    0.6780 H   0  0  0  0  0  0  0  0  0  0  0  0
   -2.8499    6.7270    4.5373 H   0  0  0  0  0  0  0  0  0  0  0  0
   -1.7225    5.4846    2.7515 H   0  0  0  0  0  0  0  0  0  0  0  0
   -2.5321    1.8766    4.9939 H   0  0  0  0  0  0  0  0  0  0  0  0
   -3.7820    3.2844    6.5794 H   0  0  0  0  0  0  0  0  0  0  0  0
    4.1166   -0.7344   -0.0251 H   0  0  0  0  0  0  0  0  0  0  0  0
    2.7483   -1.6999   -0.5946 H   0  0  0  0  0  0  0  0  0  0  0  0
    4.1960   -1.0891   -2.4762 H   0  0  0  0  0  0  0  0  0  0  0  0
    2.6048   -0.3629   -2.6717 H   0  0  0  0  0  0  0  0  0  0  0  0
    3.4999    1.8276   -1.8127 H   0  0  0  0  0  0  0  0  0  0  0  0
    5.0816    1.0928   -1.5841 H   0  0  0  0  0  0  0  0  0  0  0  0
    4.2001    2.3590   -6.6275 H   0  0  0  0  0  0  0  0  0  0  0  0
    6.6383    0.6612   -3.9025 H   0  0  0  0  0  0  0  0  0  0  0  0
    2.7231    2.3655   -4.5391 H   0  0  0  0  0  0  0  0  0  0  0  0
   -0.4359    7.8005    2.4418 H   0  0  0  0  0  0  0  0  0  0  0  0
    0.3323   10.0881    3.0395 H   0  0  0  0  0  0  0  0  0  0  0  0
    4.1227    8.5159    4.2721 H   0  0  0  0  0  0  0  0  0  0  0  0
    3.3809    6.2128    3.6892 H   0  0  0  0  0  0  0  0  0  0  0  0
  1  2  1  0  0  0  0
  1  8  2  0  0  0  0
  1  9  1  0  0  0  0
  2  3  2  0  0  0  0
  2  7  1  0  0  0  0
  3  4  1  0  0  0  0
  3 33  1  0  0  0  0
  4  5  2  0  0  0  0
  4 24  1  0  0  0  0
  5  6  1  0  0  0  0
  5 12  1  0  0  0  0
  6  7  2  0  0  0  0
  6 34  1  0  0  0  0
  7 35  1  0  0  0  0
  9 16  1  0  0  0  0
  9 36  1  0  0  0  0
 10 11  2  0  0  0  0
 10 15  1  0  0  0  0
 10 37  1  0  0  0  0
 11 12  1  0  0  0  0
 11 38  1  0  0  0  0
 12 13  2  0  0  0  0
 13 14  1  0  0  0  0
 13 39  1  0  0  0  0
 14 15  2  0  0  0  0
 14 40  1  0  0  0  0
 16 17  1  0  0  0  0
 16 41  1  0  0  0  0
 16 42  1  0  0  0  0
 17 18  1  0  0  0  0
 17 43  1  0  0  0  0
 17 44  1  0  0  0  0
 18 22  1  0  0  0  0
 18 45  1  0  0  0  0
 18 46  1  0  0  0  0
 19 20  1  0  0  0  0
 19 23  1  0  0  0  0
 19 47  1  0  0  0  0
 20 21  2  0  0  0  0
 21 22  1  0  0  0  0
 21 48  1  0  0  0  0
 22 23  2  0  0  0  0
 23 49  1  0  0  0  0
 24 25  3  0  0  0  0
 25 26  1  0  0  0  0
 26 27  2  0  0  0  0
 26 31  1  0  0  0  0
 27 28  1  0  0  0  0
 27 50  1  0  0  0  0
 28 29  2  0  0  0  0
 28 51  1  0  0  0  0
 29 30  1  0  0  0  0
 29 32  1  0  0  0  0
 30 31  2  0  0  0  0
 30 52  1  0  0  0  0
 31 53  1  0  0  0  0
M  END
>  <Mol_ID>
6033

>  <Formula>
C26H21FN4O

>  <MolWeight>
424.4695432

>  <Cat>
S9706

>  <Name>
OT-82

>  <Synonyms>
N/A

>  <Target>
NAMPT

>  <Form>
Free Base

>  <CAS>
1800487-55-1

>  <URL>
http://www.selleckchem.com/products/ot-82.html

$$$$
