OTS514.cdx
 OpenBabel08302520003D

 46 49  0  0  0  0  0  0  0  0999 V2000
    0.1093    2.0125   -3.5904 C   0  0  0  0  0  0  0  0  0  0  0  0
   -0.2130    2.9003   -4.7078 C   0  0  0  0  0  0  0  0  0  0  0  0
    0.1347    4.2460   -4.7310 C   0  0  0  0  0  0  0  0  0  0  0  0
    0.6894    4.6598   -3.4735 C   0  0  0  0  0  0  0  0  0  0  0  0
    1.1374    3.7776   -2.4286 C   0  0  0  0  0  0  0  0  0  0  0  0
    0.8555    2.4159   -2.4595 C   0  0  0  0  0  0  0  0  0  0  0  0
    1.3489    1.5134   -1.2973 C   0  0  2  0  0  0  0  0  0  0  0  0
    2.5952    0.6215   -1.6180 C   0  0  0  0  0  0  0  0  0  0  0  0
    0.2176    0.6720   -0.6941 C   0  0  0  0  0  0  0  0  0  0  0  0
    3.0746   -0.1702   -0.4719 N   0  0  0  0  0  0  0  0  0  0  0  0
    0.3678    5.1650   -6.0318 C   0  0  0  0  0  0  0  0  0  0  0  0
   -0.1986    5.2955   -7.3845 C   0  0  0  0  0  0  0  0  0  0  0  0
    0.7183    5.9390   -8.3324 C   0  0  0  0  0  0  0  0  0  0  0  0
    1.7369    6.8416   -8.0438 C   0  0  0  0  0  0  0  0  0  0  0  0
    2.1137    6.9196   -6.7376 C   0  0  0  0  0  0  0  0  0  0  0  0
    1.5879    5.9733   -5.8648 C   0  0  0  0  0  0  0  0  0  0  0  0
    2.5418    5.7406   -4.8843 O   0  0  0  0  0  0  0  0  0  0  0  0
    2.3915    7.6863   -9.0864 C   0  0  0  0  0  0  0  0  0  0  0  0
   -1.5702    5.0434   -8.1879 C   0  0  0  0  0  0  0  0  0  0  0  0
   -1.6003    5.4968   -9.5369 C   0  0  0  0  0  0  0  0  0  0  0  0
   -0.5207    6.1431  -10.2243 C   0  0  0  0  0  0  0  0  0  0  0  0
    0.6369    5.6294   -9.7186 N   0  0  0  0  0  0  0  0  0  0  0  0
   -2.9553    4.7893   -7.9146 C   0  0  0  0  0  0  0  0  0  0  0  0
   -3.8020    4.7762   -9.0528 C   0  0  0  0  0  0  0  0  0  0  0  0
   -2.9629    5.1509  -10.4688 S   0  0  0  0  0  0  0  0  0  0  0  0
   -0.5737    7.0465  -11.0528 O   0  0  0  0  0  0  0  0  0  0  0  0
   -0.2210    0.9708   -3.6406 H   0  0  0  0  0  0  0  0  0  0  0  0
   -0.6978    2.4517   -5.5621 H   0  0  0  0  0  0  0  0  0  0  0  0
    0.9527    5.7133   -3.3012 H   0  0  0  0  0  0  0  0  0  0  0  0
    1.7268    4.1958   -1.6042 H   0  0  0  0  0  0  0  0  0  0  0  0
    1.6742    2.1859   -0.4876 H   0  0  0  0  0  0  0  0  0  0  0  0
    2.3586   -0.0772   -2.4248 H   0  0  0  0  0  0  0  0  0  0  0  0
    3.4283    1.2477   -1.9579 H   0  0  0  0  0  0  0  0  0  0  0  0
    0.5649    0.1437    0.2226 H   0  0  0  0  0  0  0  0  0  0  0  0
   -0.6199    1.2881   -0.3943 H   0  0  0  0  0  0  0  0  0  0  0  0
   -0.1244   -0.1032   -1.3845 H   0  0  0  0  0  0  0  0  0  0  0  0
    3.9122   -0.6968   -0.7283 H   0  0  0  0  0  0  0  0  0  0  0  0
    3.3500    0.4354    0.2999 H   0  0  0  0  0  0  0  0  0  0  0  0
    2.9559    7.5393   -6.4402 H   0  0  0  0  0  0  0  0  0  0  0  0
    2.6746    4.7790   -4.8598 H   0  0  0  0  0  0  0  0  0  0  0  0
    1.8233    8.6142   -9.2151 H   0  0  0  0  0  0  0  0  0  0  0  0
    3.4195    7.9296   -8.8043 H   0  0  0  0  0  0  0  0  0  0  0  0
    2.4501    7.1781  -10.0533 H   0  0  0  0  0  0  0  0  0  0  0  0
    0.5241    4.6171   -9.7769 H   0  0  0  0  0  0  0  0  0  0  0  0
   -3.4471    4.6735   -6.9459 H   0  0  0  0  0  0  0  0  0  0  0  0
   -4.8738    4.6391   -9.1619 H   0  0  0  0  0  0  0  0  0  0  0  0
  1  2  2  0  0  0  0
  1 27  1  0  0  0  0
  2  3  1  0  0  0  0
  2 28  1  0  0  0  0
  3  4  2  0  0  0  0
  3 11  1  0  0  0  0
  4  5  1  0  0  0  0
  4 29  1  0  0  0  0
  5  6  2  0  0  0  0
  5 30  1  0  0  0  0
  6  1  1  0  0  0  0
  7  9  1  0  0  0  0
  7 31  1  1  0  0  0
  7  8  1  0  0  0  0
  7  6  1  0  0  0  0
  8 10  1  0  0  0  0
  8 32  1  0  0  0  0
  8 33  1  0  0  0  0
  9 34  1  0  0  0  0
  9 35  1  0  0  0  0
  9 36  1  0  0  0  0
 10 37  1  0  0  0  0
 10 38  1  0  0  0  0
 11 12  2  0  0  0  0
 12 13  1  0  0  0  0
 12 19  1  0  0  0  0
 13 14  2  0  0  0  0
 14 15  1  0  0  0  0
 14 18  1  0  0  0  0
 15 16  2  0  0  0  0
 15 39  1  0  0  0  0
 16 11  1  0  0  0  0
 16 17  1  0  0  0  0
 17 40  1  0  0  0  0
 18 41  1  0  0  0  0
 18 42  1  0  0  0  0
 18 43  1  0  0  0  0
 19 20  2  0  0  0  0
 19 23  1  0  0  0  0
 20 21  1  0  0  0  0
 21 22  1  0  0  0  0
 21 26  2  0  0  0  0
 22 13  1  0  0  0  0
 22 44  1  0  0  0  0
 23 24  2  0  0  0  0
 23 45  1  0  0  0  0
 24 25  1  0  0  0  0
 24 46  1  0  0  0  0
 25 20  1  0  0  0  0
M  END
>  <Mol_ID>
2724

>  <Formula>
C21H21ClN2O2S

>  <MolWeight>
400.92164

>  <Cat>
S7652

>  <Name>
OTS514 hydrochloride

>  <Synonyms>
N/A

>  <Target>
Apoptosis related,TOPK

>  <Form>
hydrochloride

>  <CAS>
2319647-76-0

>  <URL>
http://selleckchem.com/products/ots514.html

$$$$
