OX02983
 OpenBabel08302521333D

 46 49  0  0  0  0  0  0  0  0999 V2000
    1.0858   -0.1552   -0.3321 C   0  0  0  0  0  0  0  0  0  0  0  0
    0.4273    1.5925   -2.4076 O   0  0  0  0  0  0  0  0  0  0  0  0
   -2.9566    1.4914    3.5501 C   0  0  0  0  0  0  0  0  0  0  0  0
    0.2400   -1.8513   -1.9598 C   0  0  0  0  0  0  0  0  0  0  0  0
    0.2777   -0.5121   -1.4951 N   0  0  0  0  0  0  0  0  0  0  0  0
   -0.9688   -2.4624   -2.2983 C   0  0  0  0  0  0  0  0  0  0  0  0
    1.4301   -2.5645   -2.1426 C   0  0  0  0  0  0  0  0  0  0  0  0
   -0.2041    0.5369   -2.2786 C   0  0  0  0  0  0  0  0  0  0  0  0
   -0.9705   -3.7787   -2.8063 C   0  0  0  0  0  0  0  0  0  0  0  0
   -2.2619   -1.7234   -2.1358 C   0  0  0  0  0  0  0  0  0  0  0  0
    1.4154   -3.8587   -2.6868 C   0  0  0  0  0  0  0  0  0  0  0  0
   -1.6666    0.4598   -2.7626 C   0  0  0  0  0  0  0  0  0  0  0  0
    0.2141   -4.5038   -3.0249 C   0  0  0  0  0  0  0  0  0  0  0  0
   -2.3071   -0.7331   -3.1508 O   0  0  0  0  0  0  0  0  0  0  0  0
    0.1462    0.3084    0.7763 C   0  0  0  0  0  0  0  0  0  0  0  0
   -0.4267   -0.6222    1.6544 C   0  0  0  0  0  0  0  0  0  0  0  0
   -0.2762    1.6462    0.8498 C   0  0  0  0  0  0  0  0  0  0  0  0
   -1.4105   -0.2287    2.5685 C   0  0  0  0  0  0  0  0  0  0  0  0
   -1.2620    2.0398    1.7616 C   0  0  0  0  0  0  0  0  0  0  0  0
   -1.8443    1.1014    2.6196 C   0  0  0  0  0  0  0  0  0  0  0  0
    0.1903   -5.8748   -3.5949 C   0  0  0  0  0  0  0  0  0  0  0  0
   -0.7980   -6.2789   -4.5061 C   0  0  0  0  0  0  0  0  0  0  0  0
    1.1488   -6.8361   -3.2441 C   0  0  0  0  0  0  0  0  0  0  0  0
   -0.7935   -7.5782   -4.9960 C   0  0  0  0  0  0  0  0  0  0  0  0
    1.0786   -8.1094   -3.7937 C   0  0  0  0  0  0  0  0  0  0  0  0
    0.1248   -8.5034   -4.6592 N   0  0  0  0  0  0  0  0  0  0  0  0
    1.7928    0.6417   -0.5856 H   0  0  0  0  0  0  0  0  0  0  0  0
    1.6694   -1.0092    0.0288 H   0  0  0  0  0  0  0  0  0  0  0  0
   -3.8982    1.0395    3.2175 H   0  0  0  0  0  0  0  0  0  0  0  0
   -2.7397    1.1586    4.5692 H   0  0  0  0  0  0  0  0  0  0  0  0
   -3.0948    2.5773    3.5764 H   0  0  0  0  0  0  0  0  0  0  0  0
    2.3920   -2.0994   -1.9418 H   0  0  0  0  0  0  0  0  0  0  0  0
   -1.9321   -4.2356   -3.0385 H   0  0  0  0  0  0  0  0  0  0  0  0
   -3.1135   -2.3947   -2.2899 H   0  0  0  0  0  0  0  0  0  0  0  0
   -2.3730   -1.3017   -1.1281 H   0  0  0  0  0  0  0  0  0  0  0  0
    2.3729   -4.3413   -2.8740 H   0  0  0  0  0  0  0  0  0  0  0  0
   -2.2623    0.9209   -1.9624 H   0  0  0  0  0  0  0  0  0  0  0  0
   -1.7363    1.1356   -3.6224 H   0  0  0  0  0  0  0  0  0  0  0  0
   -0.1352   -1.6701    1.6110 H   0  0  0  0  0  0  0  0  0  0  0  0
    0.1393    2.3871    0.1671 H   0  0  0  0  0  0  0  0  0  0  0  0
   -1.8513   -0.9722    3.2282 H   0  0  0  0  0  0  0  0  0  0  0  0
   -1.5916    3.0773    1.7691 H   0  0  0  0  0  0  0  0  0  0  0  0
   -1.5693   -5.5984   -4.8522 H   0  0  0  0  0  0  0  0  0  0  0  0
    1.9442   -6.6172   -2.5400 H   0  0  0  0  0  0  0  0  0  0  0  0
   -1.5550   -7.9144   -5.6943 H   0  0  0  0  0  0  0  0  0  0  0  0
    1.8130   -8.8683   -3.5388 H   0  0  0  0  0  0  0  0  0  0  0  0
  1  5  1  0  0  0  0
  1 15  1  0  0  0  0
  1 27  1  0  0  0  0
  1 28  1  0  0  0  0
  2  8  2  0  0  0  0
  3 20  1  0  0  0  0
  3 29  1  0  0  0  0
  3 30  1  0  0  0  0
  3 31  1  0  0  0  0
  4  5  1  0  0  0  0
  4  6  1  0  0  0  0
  4  7  2  0  0  0  0
  5  8  1  0  0  0  0
  6  9  2  0  0  0  0
  6 10  1  0  0  0  0
  7 11  1  0  0  0  0
  7 32  1  0  0  0  0
  8 12  1  0  0  0  0
  9 13  1  0  0  0  0
  9 33  1  0  0  0  0
 10 14  1  0  0  0  0
 10 34  1  0  0  0  0
 10 35  1  0  0  0  0
 11 13  2  0  0  0  0
 11 36  1  0  0  0  0
 12 14  1  0  0  0  0
 12 37  1  0  0  0  0
 12 38  1  0  0  0  0
 13 21  1  0  0  0  0
 15 16  2  0  0  0  0
 15 17  1  0  0  0  0
 16 18  1  0  0  0  0
 16 39  1  0  0  0  0
 17 19  2  0  0  0  0
 17 40  1  0  0  0  0
 18 20  2  0  0  0  0
 18 41  1  0  0  0  0
 19 20  1  0  0  0  0
 19 42  1  0  0  0  0
 21 22  2  0  0  0  0
 21 23  1  0  0  0  0
 22 24  1  0  0  0  0
 22 43  1  0  0  0  0
 23 25  2  0  0  0  0
 23 44  1  0  0  0  0
 24 26  2  0  0  0  0
 24 45  1  0  0  0  0
 25 26  1  0  0  0  0
 25 46  1  0  0  0  0
M  END
>  <Mol_ID>
6360

>  <Formula>
C22H20N2O2

>  <MolWeight>
344.4064

>  <Cat>
E0820

>  <Name>
OX02983

>  <Target>
Anti-infection

>  <Form>
free base

>  <URL>
http://www.selleckchem.com/products/ox02983.html

$$$$
