Oxaprozin.cdx
 OpenBabel08302522053D

 37 39  0  0  0  0  0  0  0  0999 V2000
    0.5662   -1.0670   -0.0215 C   0  0  0  0  0  0  0  0  0  0  0  0
   -0.8195   -1.0090   -0.0050 C   0  0  0  0  0  0  0  0  0  0  0  0
   -1.2345    0.3047    0.0775 N   0  0  0  0  0  0  0  0  0  0  0  0
   -0.1129    0.9931    0.0512 C   0  0  0  0  0  0  0  0  0  0  0  0
    1.0202    0.2306   -0.0032 O   0  0  0  0  0  0  0  0  0  0  0  0
    1.5907   -2.1052   -0.0799 C   0  0  0  0  0  0  0  0  0  0  0  0
   -1.7575   -2.1161   -0.0872 C   0  0  0  0  0  0  0  0  0  0  0  0
    0.0787    2.4653    0.0341 C   0  0  0  0  0  0  0  0  0  0  0  0
   -1.0150    3.1829    0.8131 C   0  0  0  0  0  0  0  0  0  0  0  0
   -0.7501    4.6621    0.8574 C   0  0  0  0  0  0  0  0  0  0  0  0
   -2.9485   -2.0724    0.6484 C   0  0  0  0  0  0  0  0  0  0  0  0
   -3.8509   -3.1391    0.6022 C   0  0  0  0  0  0  0  0  0  0  0  0
   -3.5691   -4.2606   -0.1767 C   0  0  0  0  0  0  0  0  0  0  0  0
   -2.3992   -4.3069   -0.9294 C   0  0  0  0  0  0  0  0  0  0  0  0
   -1.5111   -3.2303   -0.9027 C   0  0  0  0  0  0  0  0  0  0  0  0
    2.7893   -1.8901   -0.7750 C   0  0  0  0  0  0  0  0  0  0  0  0
    3.7138   -2.9257   -0.9440 C   0  0  0  0  0  0  0  0  0  0  0  0
    3.4510   -4.1902   -0.4215 C   0  0  0  0  0  0  0  0  0  0  0  0
    2.2861   -4.4091    0.3072 C   0  0  0  0  0  0  0  0  0  0  0  0
    1.3762   -3.3664    0.4969 C   0  0  0  0  0  0  0  0  0  0  0  0
    0.1437    5.2676    0.2956 O   0  0  0  0  0  0  0  0  0  0  0  0
   -1.6480    5.3093    1.6198 O   0  0  0  0  0  0  0  0  0  0  0  0
    1.0622    2.7131    0.4514 H   0  0  0  0  0  0  0  0  0  0  0  0
    0.0818    2.8076   -1.0079 H   0  0  0  0  0  0  0  0  0  0  0  0
   -1.9908    3.0241    0.3415 H   0  0  0  0  0  0  0  0  0  0  0  0
   -1.0554    2.8099    1.8420 H   0  0  0  0  0  0  0  0  0  0  0  0
   -3.1781   -1.2051    1.2647 H   0  0  0  0  0  0  0  0  0  0  0  0
   -4.7731   -3.0939    1.1753 H   0  0  0  0  0  0  0  0  0  0  0  0
   -4.2662   -5.0939   -0.2057 H   0  0  0  0  0  0  0  0  0  0  0  0
   -2.1756   -5.1765   -1.5419 H   0  0  0  0  0  0  0  0  0  0  0  0
   -0.6193   -3.2802   -1.5233 H   0  0  0  0  0  0  0  0  0  0  0  0
    3.0015   -0.9185   -1.2164 H   0  0  0  0  0  0  0  0  0  0  0  0
    4.6305   -2.7482   -1.5004 H   0  0  0  0  0  0  0  0  0  0  0  0
    4.1544   -5.0035   -0.5797 H   0  0  0  0  0  0  0  0  0  0  0  0
    2.0749   -5.3928    0.7189 H   0  0  0  0  0  0  0  0  0  0  0  0
    0.4787   -3.5648    1.0792 H   0  0  0  0  0  0  0  0  0  0  0  0
   -1.3802    6.2515    1.5692 H   0  0  0  0  0  0  0  0  0  0  0  0
  1  2  2  0  0  0  0
  1  6  1  0  0  0  0
  2  3  1  0  0  0  0
  2  7  1  0  0  0  0
  3  4  2  0  0  0  0
  4  5  1  0  0  0  0
  4  8  1  0  0  0  0
  5  1  1  0  0  0  0
  6 16  2  0  0  0  0
  7 11  2  0  0  0  0
  8  9  1  0  0  0  0
  8 23  1  0  0  0  0
  8 24  1  0  0  0  0
  9 10  1  0  0  0  0
  9 25  1  0  0  0  0
  9 26  1  0  0  0  0
 10 21  2  0  0  0  0
 10 22  1  0  0  0  0
 11 12  1  0  0  0  0
 11 27  1  0  0  0  0
 12 13  2  0  0  0  0
 12 28  1  0  0  0  0
 13 14  1  0  0  0  0
 13 29  1  0  0  0  0
 14 15  2  0  0  0  0
 14 30  1  0  0  0  0
 15  7  1  0  0  0  0
 15 31  1  0  0  0  0
 16 17  1  0  0  0  0
 16 32  1  0  0  0  0
 17 18  2  0  0  0  0
 17 33  1  0  0  0  0
 18 19  1  0  0  0  0
 18 34  1  0  0  0  0
 19 20  2  0  0  0  0
 19 35  1  0  0  0  0
 20  6  1  0  0  0  0
 20 36  1  0  0  0  0
 22 37  1  0  0  0  0
M  END
>  <Mol_ID>
1357

>  <Formula>
C18H15NO3

>  <MolWeight>
293.3166

>  <Cat>
S4230

>  <Name>
Oxaprozin

>  <Synonyms>
WY-21743,nsc 310839

>  <Target>
COX

>  <Form>
free base

>  <CAS>
21256-18-8

>  <URL>
http://selleckchem.com/products/oxaprozin.html

$$$$
