Oxfendazole.cdx
 OpenBabel08302522013D

 35 37  0  0  0  0  0  0  0  0999 V2000
    1.1668   -0.1302   -0.0868 S   0  0  3  0  0  0  0  0  0  0  0  0
    0.3598   -0.4712   -1.6806 C   0  0  0  0  0  0  0  0  0  0  0  0
   -0.2499   -0.3651    1.0277 C   0  0  0  0  0  0  0  0  0  0  0  0
    2.0704   -1.3047    0.1582 O   0  0  0  0  0  0  0  0  0  0  0  0
   -0.1750   -1.3294    2.0477 C   0  0  0  0  0  0  0  0  0  0  0  0
   -1.1541   -1.4039    3.0445 C   0  0  0  0  0  0  0  0  0  0  0  0
   -2.2171   -0.5060    3.0437 C   0  0  0  0  0  0  0  0  0  0  0  0
   -2.3036    0.4601    2.0420 C   0  0  0  0  0  0  0  0  0  0  0  0
   -1.3235    0.5317    1.0406 C   0  0  0  0  0  0  0  0  0  0  0  0
    0.3904   -1.7643   -2.2444 C   0  0  0  0  0  0  0  0  0  0  0  0
   -0.0707   -1.9071   -3.5639 C   0  0  0  0  0  0  0  0  0  0  0  0
   -0.5395   -0.8400   -4.3185 C   0  0  0  0  0  0  0  0  0  0  0  0
   -0.5581    0.4432   -3.7567 C   0  0  0  0  0  0  0  0  0  0  0  0
   -0.1051    0.6146   -2.4392 C   0  0  0  0  0  0  0  0  0  0  0  0
   -0.1618   -2.9782   -4.4235 N   0  0  0  0  0  0  0  0  0  0  0  0
   -0.6902   -2.5406   -5.6191 C   0  0  0  0  0  0  0  0  0  0  0  0
   -0.9137   -1.2493   -5.5700 N   0  0  0  0  0  0  0  0  0  0  0  0
   -0.9206   -3.4012   -6.6625 N   0  0  0  0  0  0  0  0  0  0  0  0
   -1.4626   -2.9898   -7.8547 C   0  0  0  0  0  0  0  0  0  0  0  0
   -1.5842   -4.0788   -8.6671 O   0  0  0  0  0  0  0  0  0  0  0  0
   -2.1530   -3.7862   -9.9486 C   0  0  0  0  0  0  0  0  0  0  0  0
   -1.8035   -1.8643   -8.1913 O   0  0  0  0  0  0  0  0  0  0  0  0
    0.6756   -2.0043    2.1007 H   0  0  0  0  0  0  0  0  0  0  0  0
   -1.0660   -2.1435    3.8381 H   0  0  0  0  0  0  0  0  0  0  0  0
   -2.9649   -0.5458    3.8336 H   0  0  0  0  0  0  0  0  0  0  0  0
   -3.1215    1.1783    2.0612 H   0  0  0  0  0  0  0  0  0  0  0  0
   -1.3974    1.3285    0.3032 H   0  0  0  0  0  0  0  0  0  0  0  0
    0.8062   -2.6045   -1.6957 H   0  0  0  0  0  0  0  0  0  0  0  0
   -0.8910    1.2850   -4.3549 H   0  0  0  0  0  0  0  0  0  0  0  0
   -0.0763    1.6238   -2.0342 H   0  0  0  0  0  0  0  0  0  0  0  0
    0.1118   -3.9251   -4.2121 H   0  0  0  0  0  0  0  0  0  0  0  0
   -0.7144   -4.3821   -6.5907 H   0  0  0  0  0  0  0  0  0  0  0  0
   -3.1712   -3.3978   -9.8397 H   0  0  0  0  0  0  0  0  0  0  0  0
   -1.5252   -3.0773  -10.4985 H   0  0  0  0  0  0  0  0  0  0  0  0
   -2.2019   -4.7164  -10.5227 H   0  0  0  0  0  0  0  0  0  0  0  0
  1  2  1  0  0  0  0
  1  3  1  0  0  0  0
  1  4  2  0  0  0  0
  2 10  2  0  0  0  0
  3  5  2  0  0  0  0
  5  6  1  0  0  0  0
  5 23  1  0  0  0  0
  6  7  2  0  0  0  0
  6 24  1  0  0  0  0
  7  8  1  0  0  0  0
  7 25  1  0  0  0  0
  8  9  2  0  0  0  0
  8 26  1  0  0  0  0
  9  3  1  0  0  0  0
  9 27  1  0  0  0  0
 10 11  1  0  0  0  0
 10 28  1  0  0  0  0
 11 12  2  0  0  0  0
 11 15  1  0  0  0  0
 12 13  1  0  0  0  0
 13 14  2  0  0  0  0
 13 29  1  0  0  0  0
 14  2  1  0  0  0  0
 14 30  1  0  0  0  0
 15 16  1  0  0  0  0
 15 31  1  0  0  0  0
 16 17  2  0  0  0  0
 16 18  1  0  0  0  0
 17 12  1  0  0  0  0
 18 19  1  0  0  0  0
 18 32  1  0  0  0  0
 19 20  1  0  0  0  0
 19 22  2  0  0  0  0
 20 21  1  0  0  0  0
 21 33  1  0  0  0  0
 21 34  1  0  0  0  0
 21 35  1  0  0  0  0
M  END
>  <Mol_ID>
1111

>  <Formula>
C15H13N3O3S

>  <MolWeight>
315.34702

>  <Cat>
S1830

>  <Name>
Oxfendazole

>  <Synonyms>
RS-8858,Fenbendazole sulfoxide

>  <Target>
Parasite

>  <Form>
free base

>  <CAS>
53716-50-0

>  <URL>
http://selleckchem.com/products/oxfendazole.html

$$$$
