Oxibendazole.cdx
 OpenBabel08302521393D

 33 34  0  0  0  0  0  0  0  0999 V2000
    2.0927   -0.6784    0.2598 C   0  0  0  0  0  0  0  0  0  0  0  0
    2.0632    0.7051    0.4666 C   0  0  0  0  0  0  0  0  0  0  0  0
    0.8543    1.4068    0.4624 C   0  0  0  0  0  0  0  0  0  0  0  0
   -0.3347    0.7000    0.2524 C   0  0  0  0  0  0  0  0  0  0  0  0
   -0.2937   -0.6715    0.0464 C   0  0  0  0  0  0  0  0  0  0  0  0
    0.9052   -1.3953    0.0258 C   0  0  0  0  0  0  0  0  0  0  0  0
   -1.6175    1.1609    0.2162 N   0  0  0  0  0  0  0  0  0  0  0  0
   -2.3807    0.1183    0.0134 C   0  0  0  0  0  0  0  0  0  0  0  0
   -1.6181   -1.0220   -0.0966 N   0  0  0  0  0  0  0  0  0  0  0  0
    3.2349   -1.4401    0.2514 O   0  0  0  0  0  0  0  0  0  0  0  0
    4.3923   -0.8472    0.8484 C   0  0  0  0  0  0  0  0  0  0  0  0
    5.4897   -1.8995    0.9941 C   0  0  0  0  0  0  0  0  0  0  0  0
    5.0645   -3.0658    1.8740 C   0  0  0  0  0  0  0  0  0  0  0  0
   -3.7488    0.0971   -0.0723 N   0  0  0  0  0  0  0  0  0  0  0  0
   -4.4851    1.2519    0.0138 C   0  0  0  0  0  0  0  0  0  0  0  0
   -5.8098    0.9299   -0.0553 O   0  0  0  0  0  0  0  0  0  0  0  0
   -4.0896    2.4013    0.1284 O   0  0  0  0  0  0  0  0  0  0  0  0
   -6.6668    2.0732    0.0302 C   0  0  0  0  0  0  0  0  0  0  0  0
    2.9700    1.2789    0.6296 H   0  0  0  0  0  0  0  0  0  0  0  0
    0.8201    2.4795    0.6229 H   0  0  0  0  0  0  0  0  0  0  0  0
    0.9275   -2.4652   -0.1436 H   0  0  0  0  0  0  0  0  0  0  0  0
   -1.9625   -1.9560   -0.2475 H   0  0  0  0  0  0  0  0  0  0  0  0
    4.7678   -0.0419    0.2055 H   0  0  0  0  0  0  0  0  0  0  0  0
    4.1500   -0.4444    1.8399 H   0  0  0  0  0  0  0  0  0  0  0  0
    5.7600   -2.2882    0.0058 H   0  0  0  0  0  0  0  0  0  0  0  0
    6.3834   -1.4312    1.4224 H   0  0  0  0  0  0  0  0  0  0  0  0
    4.2026   -3.5904    1.4503 H   0  0  0  0  0  0  0  0  0  0  0  0
    5.8837   -3.7857    1.9672 H   0  0  0  0  0  0  0  0  0  0  0  0
    4.7988   -2.7216    2.8786 H   0  0  0  0  0  0  0  0  0  0  0  0
   -4.2622   -0.7600   -0.1908 H   0  0  0  0  0  0  0  0  0  0  0  0
   -6.5043    2.6102    0.9708 H   0  0  0  0  0  0  0  0  0  0  0  0
   -6.5043    2.7370   -0.8253 H   0  0  0  0  0  0  0  0  0  0  0  0
   -7.7044    1.7284    0.0075 H   0  0  0  0  0  0  0  0  0  0  0  0
  1  2  2  0  0  0  0
  1 10  1  0  0  0  0
  2  3  1  0  0  0  0
  2 19  1  0  0  0  0
  3  4  2  0  0  0  0
  3 20  1  0  0  0  0
  4  5  1  0  0  0  0
  4  7  1  0  0  0  0
  5  6  2  0  0  0  0
  6  1  1  0  0  0  0
  6 21  1  0  0  0  0
  7  8  2  0  0  0  0
  8  9  1  0  0  0  0
  8 14  1  0  0  0  0
  9  5  1  0  0  0  0
  9 22  1  0  0  0  0
 10 11  1  0  0  0  0
 11 12  1  0  0  0  0
 11 23  1  0  0  0  0
 11 24  1  0  0  0  0
 12 13  1  0  0  0  0
 12 25  1  0  0  0  0
 12 26  1  0  0  0  0
 13 27  1  0  0  0  0
 13 28  1  0  0  0  0
 13 29  1  0  0  0  0
 14 15  1  0  0  0  0
 14 30  1  0  0  0  0
 15 16  1  0  0  0  0
 15 17  2  0  0  0  0
 16 18  1  0  0  0  0
 18 31  1  0  0  0  0
 18 32  1  0  0  0  0
 18 33  1  0  0  0  0
M  END
>  <Mol_ID>
8215

>  <Formula>
C12H15N3O3

>  <MolWeight>
249.2658

>  <Cat>
S1851

>  <Name>
Oxibendazole

>  <Synonyms>
N/A

>  <Target>
Parasite

>  <Form>
Free Base

>  <CAS>
20559-55-1

>  <URL>
http://selleckchem.com/products/oxibendazole.html

$$$$
