Oxiracetam.cdx
 OpenBabel08302522063D

 21 21  0  0  0  0  0  0  0  0999 V2000
   -0.7712   -0.9406   -0.1158 N   0  0  0  0  0  0  0  0  0  0  0  0
    0.6675   -1.0455   -0.1437 C   0  0  0  0  0  0  0  0  0  0  0  0
   -1.2141    0.3673   -0.1621 C   0  0  0  0  0  0  0  0  0  0  0  0
   -1.6127   -2.0395   -0.5683 C   0  0  0  0  0  0  0  0  0  0  0  0
    1.1692    0.3728    0.1141 C   0  0  3  0  0  0  0  0  0  0  0  0
   -0.0219    1.2909   -0.1432 C   0  0  0  0  0  0  0  0  0  0  0  0
   -2.3818    0.7121   -0.2656 O   0  0  0  0  0  0  0  0  0  0  0  0
   -2.5660   -2.5238    0.5170 C   0  0  0  0  0  0  0  0  0  0  0  0
    1.6363    0.5272    1.4544 O   0  0  0  0  0  0  0  0  0  0  0  0
   -3.7438   -1.8359    0.6034 N   0  0  0  0  0  0  0  0  0  0  0  0
   -2.3015   -3.4374    1.2919 O   0  0  0  0  0  0  0  0  0  0  0  0
    0.9895   -1.7634    0.6176 H   0  0  0  0  0  0  0  0  0  0  0  0
    0.9643   -1.3892   -1.1392 H   0  0  0  0  0  0  0  0  0  0  0  0
   -2.1919   -1.7057   -1.4374 H   0  0  0  0  0  0  0  0  0  0  0  0
   -0.9872   -2.8805   -0.8845 H   0  0  0  0  0  0  0  0  0  0  0  0
    2.0138    0.6156   -0.5391 H   0  0  0  0  0  0  0  0  0  0  0  0
   -0.1428    2.0581    0.6237 H   0  0  0  0  0  0  0  0  0  0  0  0
    0.0517    1.7501   -1.1367 H   0  0  0  0  0  0  0  0  0  0  0  0
    0.9231    0.2720    2.0629 H   0  0  0  0  0  0  0  0  0  0  0  0
   -4.3396   -2.0646    1.3876 H   0  0  0  0  0  0  0  0  0  0  0  0
   -3.7669   -0.8733    0.2701 H   0  0  0  0  0  0  0  0  0  0  0  0
  1  2  1  0  0  0  0
  1  3  1  0  0  0  0
  1  4  1  0  0  0  0
  2  5  1  0  0  0  0
  2 12  1  0  0  0  0
  2 13  1  0  0  0  0
  3  6  1  0  0  0  0
  3  7  2  0  0  0  0
  4  8  1  0  0  0  0
  4 14  1  0  0  0  0
  4 15  1  0  0  0  0
  5  9  1  0  0  0  0
  5  6  1  0  0  0  0
  5 16  1  0  0  0  0
  6 17  1  0  0  0  0
  6 18  1  0  0  0  0
  8 10  1  0  0  0  0
  8 11  2  0  0  0  0
  9 19  1  0  0  0  0
 10 20  1  0  0  0  0
 10 21  1  0  0  0  0
M  END
>  <Mol_ID>
1414

>  <Formula>
C6H10N2O3

>  <MolWeight>
158.1552

>  <Cat>
S4270

>  <Name>
Oxiracetam

>  <Synonyms>
ISF 2522

>  <Target>
GABA Receptor

>  <Form>
free base

>  <CAS>
62613-82-5

>  <URL>
http://selleckchem.com/products/oxiracetam.html

$$$$
