Oxolamine Citrate
 OpenBabel08302521313D

 58 58  0  0  0  0  0  0  0  0999 V2000
   -0.2233    0.4910   -1.0801 O   0  0  0  0  0  0  0  0  0  0  0  0
    4.7281   -3.3418    1.8659 O   0  0  0  0  0  0  0  0  0  0  0  0
   -2.4595   -0.5214   -1.2089 O   0  0  0  0  0  0  0  0  0  0  0  0
   -1.8632   -2.6155   -0.6411 O   0  0  0  0  0  0  0  0  0  0  0  0
   -0.8598   -2.8546   -3.0298 O   0  0  0  0  0  0  0  0  0  0  0  0
    1.3251   -0.5330    3.0015 O   0  0  0  0  0  0  0  0  0  0  0  0
    0.4646   -1.2433   -3.8577 O   0  0  0  0  0  0  0  0  0  0  0  0
    2.1865    0.4860    1.1556 O   0  0  0  0  0  0  0  0  0  0  0  0
   -0.5893   -3.9005    2.0577 N   0  0  0  0  0  0  0  0  0  0  0  0
    4.0699   -4.4006    0.0221 N   0  0  0  0  0  0  0  0  0  0  0  0
    5.9006   -3.6233    1.1693 N   0  0  0  0  0  0  0  0  0  0  0  0
    0.8184   -3.9482    1.3643 C   0  0  0  0  0  0  0  0  0  0  0  0
   -0.8687   -4.9872    2.9724 C   0  0  0  0  0  0  0  0  0  0  0  0
   -1.4785   -2.7414    2.3848 C   0  0  0  0  0  0  0  0  0  0  0  0
    2.2853   -3.7214    1.9833 C   0  0  0  0  0  0  0  0  0  0  0  0
   -0.1491   -0.8530   -0.5793 C   0  0  0  0  0  0  0  0  0  0  0  0
    0.7022   -1.7495   -1.5120 C   0  0  0  0  0  0  0  0  0  0  0  0
    0.1433   -0.7498    0.9443 C   0  0  0  0  0  0  0  0  0  0  0  0
   -0.8435   -6.3205    2.2642 C   0  0  0  0  0  0  0  0  0  0  0  0
   -3.0172   -2.8249    2.6271 C   0  0  0  0  0  0  0  0  0  0  0  0
    3.6479   -3.8433    1.1587 C   0  0  0  0  0  0  0  0  0  0  0  0
   -1.5805   -1.4441   -0.7649 C   0  0  0  0  0  0  0  0  0  0  0  0
    0.1051   -1.9126   -2.9034 C   0  0  0  0  0  0  0  0  0  0  0  0
    1.3290   -0.2012    1.6708 C   0  0  0  0  0  0  0  0  0  0  0  0
    5.5000   -4.2687    0.0630 C   0  0  0  0  0  0  0  0  0  0  0  0
    6.4881   -4.8211   -0.9338 C   0  0  0  0  0  0  0  0  0  0  0  0
    6.0638   -5.3083   -2.1783 C   0  0  0  0  0  0  0  0  0  0  0  0
    7.8876   -4.9038   -0.6848 C   0  0  0  0  0  0  0  0  0  0  0  0
    6.9621   -5.8865   -3.1041 C   0  0  0  0  0  0  0  0  0  0  0  0
    8.7889   -5.4896   -1.6088 C   0  0  0  0  0  0  0  0  0  0  0  0
    8.3205   -5.9922   -2.8177 C   0  0  0  0  0  0  0  0  0  0  0  0
   -0.2932    1.1053   -0.3228 H   0  0  0  0  0  0  0  0  0  0  0  0
   -1.9351    0.2485   -1.5225 H   0  0  0  0  0  0  0  0  0  0  0  0
   -1.2315   -3.2697   -2.2140 H   0  0  0  0  0  0  0  0  0  0  0  0
    0.6161   -1.1254    3.3294 H   0  0  0  0  0  0  0  0  0  0  0  0
    0.7645   -3.2773    0.5300 H   0  0  0  0  0  0  0  0  0  0  0  0
    0.8692   -4.9040    0.8360 H   0  0  0  0  0  0  0  0  0  0  0  0
   -0.1960   -4.9306    3.8294 H   0  0  0  0  0  0  0  0  0  0  0  0
   -1.8836   -4.9023    3.3762 H   0  0  0  0  0  0  0  0  0  0  0  0
   -1.0736   -2.1856    3.2339 H   0  0  0  0  0  0  0  0  0  0  0  0
   -1.5482   -2.0824    1.5425 H   0  0  0  0  0  0  0  0  0  0  0  0
    2.4086   -4.4071    2.8264 H   0  0  0  0  0  0  0  0  0  0  0  0
    2.3241   -2.7054    2.3882 H   0  0  0  0  0  0  0  0  0  0  0  0
    1.7125   -1.3501   -1.6285 H   0  0  0  0  0  0  0  0  0  0  0  0
    0.8221   -2.7845   -1.1879 H   0  0  0  0  0  0  0  0  0  0  0  0
   -0.6989   -0.2254    1.4178 H   0  0  0  0  0  0  0  0  0  0  0  0
    0.2121   -1.7433    1.3064 H   0  0  0  0  0  0  0  0  0  0  0  0
    0.1329   -6.5387    1.8309 H   0  0  0  0  0  0  0  0  0  0  0  0
   -1.0795   -7.1079    2.9805 H   0  0  0  0  0  0  0  0  0  0  0  0
   -1.5947   -6.3438    1.4646 H   0  0  0  0  0  0  0  0  0  0  0  0
   -3.3004   -3.3424    3.5442 H   0  0  0  0  0  0  0  0  0  0  0  0
   -3.4150   -1.7983    2.7305 H   0  0  0  0  0  0  0  0  0  0  0  0
   -3.5532   -3.2544    1.7726 H   0  0  0  0  0  0  0  0  0  0  0  0
    5.0148   -5.2428   -2.4494 H   0  0  0  0  0  0  0  0  0  0  0  0
    8.3188   -4.5213    0.2397 H   0  0  0  0  0  0  0  0  0  0  0  0
    6.5921   -6.2638   -4.0560 H   0  0  0  0  0  0  0  0  0  0  0  0
    9.8545   -5.5601   -1.3882 H   0  0  0  0  0  0  0  0  0  0  0  0
    9.0043   -6.4550   -3.5300 H   0  0  0  0  0  0  0  0  0  0  0  0
  1 16  1  0  0  0  0
  1 32  1  0  0  0  0
  2 11  1  0  0  0  0
  2 21  1  0  0  0  0
  3 22  1  0  0  0  0
  3 33  1  0  0  0  0
  4 22  2  0  0  0  0
  5 23  1  0  0  0  0
  5 34  1  0  0  0  0
  6 24  1  0  0  0  0
  6 35  1  0  0  0  0
  7 23  2  0  0  0  0
  8 24  2  0  0  0  0
  9 12  1  0  0  0  0
  9 13  1  0  0  0  0
  9 14  1  0  0  0  0
 10 21  2  0  0  0  0
 10 25  1  0  0  0  0
 11 25  2  0  0  0  0
 12 15  1  0  0  0  0
 12 36  1  0  0  0  0
 12 37  1  0  0  0  0
 13 19  1  0  0  0  0
 13 38  1  0  0  0  0
 13 39  1  0  0  0  0
 14 20  1  0  0  0  0
 14 40  1  0  0  0  0
 14 41  1  0  0  0  0
 15 21  1  0  0  0  0
 15 42  1  0  0  0  0
 15 43  1  0  0  0  0
 16 17  1  0  0  0  0
 16 18  1  0  0  0  0
 16 22  1  0  0  0  0
 17 23  1  0  0  0  0
 17 44  1  0  0  0  0
 17 45  1  0  0  0  0
 18 24  1  0  0  0  0
 18 46  1  0  0  0  0
 18 47  1  0  0  0  0
 19 48  1  0  0  0  0
 19 49  1  0  0  0  0
 19 50  1  0  0  0  0
 20 51  1  0  0  0  0
 20 52  1  0  0  0  0
 20 53  1  0  0  0  0
 25 26  1  0  0  0  0
 26 27  2  0  0  0  0
 26 28  1  0  0  0  0
 27 29  1  0  0  0  0
 27 54  1  0  0  0  0
 28 30  2  0  0  0  0
 28 55  1  0  0  0  0
 29 31  2  0  0  0  0
 29 56  1  0  0  0  0
 30 31  1  0  0  0  0
 30 57  1  0  0  0  0
 31 58  1  0  0  0  0
M  END
>  <Mol_ID>
5749

>  <Formula>
C20H27N3O8

>  <MolWeight>
437.44368

>  <Cat>
S6437

>  <Name>
Oxolamine Citrate

>  <Synonyms>
SKF-9976 citrate, AF-438 citrate

>  <Target>
P450 (e.g. CYP17)

>  <Form>
Citrate

>  <CAS>
1949-20-8

>  <URL>
http://www.selleckchem.com/products/oxolamine-citrate.html

$$$$
