Oxprenolol HCl
 OpenBabel08302520303D

 42 42  0  0  0  0  0  0  0  0999 V2000
    3.2236    0.4176   -0.7292 C   0  0  0  0  0  0  0  0  0  0  0  0
    4.6077    0.2707   -0.9253 C   0  0  0  0  0  0  0  0  0  0  0  0
    5.3242    1.1253   -1.7691 C   0  0  0  0  0  0  0  0  0  0  0  0
    4.6784    2.1689   -2.4171 C   0  0  0  0  0  0  0  0  0  0  0  0
    3.3165    2.3588   -2.2025 C   0  0  0  0  0  0  0  0  0  0  0  0
    2.5863    1.5070   -1.3530 C   0  0  0  0  0  0  0  0  0  0  0  0
    1.2611    1.8500   -1.2998 O   0  0  0  0  0  0  0  0  0  0  0  0
    2.5065   -0.4250    0.0899 O   0  0  0  0  0  0  0  0  0  0  0  0
    0.5891    1.6777   -0.0565 C   0  0  0  0  0  0  0  0  0  0  0  0
   -0.4623    2.7537    0.0126 C   0  0  0  0  0  0  0  0  0  0  0  0
   -1.7844    2.5511    0.0446 C   0  0  0  0  0  0  0  0  0  0  0  0
    2.8722   -1.8239    0.0944 C   0  0  0  0  0  0  0  0  0  0  0  0
    2.3789   -2.5207    1.3868 C   0  0  3  0  0  0  0  0  0  0  0  0
    2.6512   -4.0571    1.3741 C   0  0  0  0  0  0  0  0  0  0  0  0
    3.0540   -1.9464    2.5256 O   0  0  0  0  0  0  0  0  0  0  0  0
    2.2585   -4.6560    2.6562 N   0  0  0  0  0  0  0  0  0  0  0  0
    2.4848   -6.0951    2.8153 C   0  0  0  0  0  0  0  0  0  0  0  0
    3.9537   -6.5236    2.7512 C   0  0  0  0  0  0  0  0  0  0  0  0
    1.9224   -6.5069    4.1818 C   0  0  0  0  0  0  0  0  0  0  0  0
    5.1785   -0.4891   -0.4043 H   0  0  0  0  0  0  0  0  0  0  0  0
    6.3930    0.9789   -1.9119 H   0  0  0  0  0  0  0  0  0  0  0  0
    5.2296    2.8399   -3.0712 H   0  0  0  0  0  0  0  0  0  0  0  0
    2.8119    3.1885   -2.6939 H   0  0  0  0  0  0  0  0  0  0  0  0
    0.1291    0.6849   -0.0375 H   0  0  0  0  0  0  0  0  0  0  0  0
    1.2615    1.8000    0.8002 H   0  0  0  0  0  0  0  0  0  0  0  0
   -0.0876    3.7774    0.0396 H   0  0  0  0  0  0  0  0  0  0  0  0
   -2.4746    3.3896    0.0871 H   0  0  0  0  0  0  0  0  0  0  0  0
   -2.2095    1.5536    0.0031 H   0  0  0  0  0  0  0  0  0  0  0  0
    2.4140   -2.2922   -0.7846 H   0  0  0  0  0  0  0  0  0  0  0  0
    3.9535   -1.9700    0.0448 H   0  0  0  0  0  0  0  0  0  0  0  0
    1.3100   -2.3247    1.5233 H   0  0  0  0  0  0  0  0  0  0  0  0
    2.1013   -4.5259    0.5508 H   0  0  0  0  0  0  0  0  0  0  0  0
    3.7231   -4.2165    1.2113 H   0  0  0  0  0  0  0  0  0  0  0  0
    3.9555   -2.3068    2.5509 H   0  0  0  0  0  0  0  0  0  0  0  0
    2.6604   -4.1232    3.4293 H   0  0  0  0  0  0  0  0  0  0  0  0
    1.9262   -6.6379    2.0438 H   0  0  0  0  0  0  0  0  0  0  0  0
    4.5543   -6.0320    3.5242 H   0  0  0  0  0  0  0  0  0  0  0  0
    4.0436   -7.6106    2.9077 H   0  0  0  0  0  0  0  0  0  0  0  0
    4.3971   -6.3061    1.7753 H   0  0  0  0  0  0  0  0  0  0  0  0
    0.8394   -6.3284    4.2328 H   0  0  0  0  0  0  0  0  0  0  0  0
    2.0858   -7.5746    4.3737 H   0  0  0  0  0  0  0  0  0  0  0  0
    2.3938   -5.9510    4.9991 H   0  0  0  0  0  0  0  0  0  0  0  0
  1  2  2  0  0  0  0
  1  8  1  0  0  0  0
  2  3  1  0  0  0  0
  2 20  1  0  0  0  0
  3  4  2  0  0  0  0
  3 21  1  0  0  0  0
  4  5  1  0  0  0  0
  4 22  1  0  0  0  0
  5  6  2  0  0  0  0
  5 23  1  0  0  0  0
  6  1  1  0  0  0  0
  6  7  1  0  0  0  0
  7  9  1  0  0  0  0
  8 12  1  0  0  0  0
  9 10  1  0  0  0  0
  9 24  1  0  0  0  0
  9 25  1  0  0  0  0
 10 11  2  0  0  0  0
 10 26  1  0  0  0  0
 11 27  1  0  0  0  0
 11 28  1  0  0  0  0
 12 13  1  0  0  0  0
 12 29  1  0  0  0  0
 12 30  1  0  0  0  0
 13 14  1  0  0  0  0
 13 15  1  0  0  0  0
 13 31  1  0  0  0  0
 14 16  1  0  0  0  0
 14 32  1  0  0  0  0
 14 33  1  0  0  0  0
 15 34  1  0  0  0  0
 16 17  1  0  0  0  0
 16 35  1  0  0  0  0
 17 18  1  0  0  0  0
 17 19  1  0  0  0  0
 17 36  1  0  0  0  0
 18 37  1  0  0  0  0
 18 38  1  0  0  0  0
 18 39  1  0  0  0  0
 19 40  1  0  0  0  0
 19 41  1  0  0  0  0
 19 42  1  0  0  0  0
M  END
>  <Mol_ID>
3323

>  <Formula>
C15H24ClNO3

>  <MolWeight>
301.80896

>  <Cat>
S4344

>  <Name>
Oxprenolol HCl

>  <Synonyms>
N/A

>  <Target>
Adrenergic Receptor

>  <Form>
hydrochloride

>  <CAS>
6452-73-9

>  <URL>
http://www.selleckchem.com/products/oxprenolol-hcl.html

$$$$
