Oxtriphylline
 OpenBabel08302521223D

 41 41  0  0  0  0  0  0  0  0999 V2000
   -0.1995    0.7736   -0.7158 C   0  0  0  0  0  0  0  0  0  0  0  0
   -0.2251   -0.9791   -0.1753 C   0  0  0  0  0  0  0  0  0  0  0  0
   -1.4452    1.4782   -0.6519 C   0  0  0  0  0  0  0  0  0  0  0  0
    1.4851    1.1805   -1.2086 N   0  5  0  0  0  0  0  0  0  0  0  0
   -1.4426   -1.5689    0.0143 N   0  0  0  0  0  0  0  0  0  0  0  0
    1.4371   -1.6464   -0.3354 N   0  0  0  0  0  0  0  0  0  0  0  0
   -2.5185    0.6042   -0.2477 N   0  0  0  0  0  0  0  0  0  0  0  0
   -1.6234    2.6884   -0.8058 O   0  0  0  0  0  0  0  0  0  0  0  0
    2.4768   -0.3059   -0.9952 C   0  0  0  0  0  0  0  0  0  0  0  0
   -2.6106   -0.8091   -0.0127 C   0  0  0  0  0  0  0  0  0  0  0  0
   -1.5065   -3.0152    0.1146 C   0  0  0  0  0  0  0  0  0  0  0  0
   -3.7635    1.3366   -0.0468 C   0  0  0  0  0  0  0  0  0  0  0  0
   -3.7061   -1.3468    0.1788 O   0  0  0  0  0  0  0  0  0  0  0  0
    1.2507    0.1181    0.4399 N   0  3  0  0  0  0  0  0  0  0  0  0
    0.7911   -0.5353   -1.7165 C   0  0  0  0  0  0  0  0  0  0  0  0
    0.7814   -0.8060    1.9175 C   0  0  0  0  0  0  0  0  0  0  0  0
    0.8662    1.7380    1.1372 C   0  0  0  0  0  0  0  0  0  0  0  0
    2.9581    0.2583    1.0889 C   0  0  0  0  0  0  0  0  0  0  0  0
    1.3519   -2.0436   -2.5483 C   0  0  0  0  0  0  0  0  0  0  0  0
    0.9167   -3.2835   -1.9857 O   0  0  0  0  0  0  0  0  0  0  0  0
    3.4893   -0.4292   -1.3813 H   0  0  0  0  0  0  0  0  0  0  0  0
   -1.3183   -3.4450   -0.8728 H   0  0  0  0  0  0  0  0  0  0  0  0
   -0.7613   -3.3747    0.8299 H   0  0  0  0  0  0  0  0  0  0  0  0
   -2.4936   -3.3540    0.4396 H   0  0  0  0  0  0  0  0  0  0  0  0
   -3.6570    1.9313    0.8684 H   0  0  0  0  0  0  0  0  0  0  0  0
   -3.9439    2.0207   -0.8823 H   0  0  0  0  0  0  0  0  0  0  0  0
   -4.6405    0.6957    0.0634 H   0  0  0  0  0  0  0  0  0  0  0  0
   -0.3166   -0.6318   -2.0516 H   0  0  0  0  0  0  0  0  0  0  0  0
    1.1281    0.1286   -2.6102 H   0  0  0  0  0  0  0  0  0  0  0  0
    1.2810   -0.3147    2.7537 H   0  0  0  0  0  0  0  0  0  0  0  0
   -0.2888   -0.6436    2.0756 H   0  0  0  0  0  0  0  0  0  0  0  0
    1.1199   -1.8419    1.8450 H   0  0  0  0  0  0  0  0  0  0  0  0
    1.4711    1.8424    2.0382 H   0  0  0  0  0  0  0  0  0  0  0  0
    1.1073    2.5490    0.4466 H   0  0  0  0  0  0  0  0  0  0  0  0
   -0.1722    1.6790    1.4762 H   0  0  0  0  0  0  0  0  0  0  0  0
    3.4157   -0.7351    1.0303 H   0  0  0  0  0  0  0  0  0  0  0  0
    3.4401    1.0797    0.5458 H   0  0  0  0  0  0  0  0  0  0  0  0
    2.8856    0.5375    2.1409 H   0  0  0  0  0  0  0  0  0  0  0  0
    0.9140   -1.9899   -3.5515 H   0  0  0  0  0  0  0  0  0  0  0  0
    2.4412   -2.0609   -2.6840 H   0  0  0  0  0  0  0  0  0  0  0  0
    1.1409   -3.0755   -1.0383 H   0  0  0  0  0  0  0  0  0  0  0  0
  1  2  2  0  0  0  0
  1  3  1  0  0  0  0
  1  4  1  0  0  0  0
  2  5  1  0  0  0  0
  2  6  1  0  0  0  0
  3  7  1  0  0  0  0
  3  8  2  0  0  0  0
  4  9  1  0  0  0  0
  5 10  1  0  0  0  0
  5 11  1  0  0  0  0
  6  9  2  0  0  0  0
  7 12  1  0  0  0  0
  7 10  1  0  0  0  0
  9 21  1  0  0  0  0
 10 13  2  0  0  0  0
 11 22  1  0  0  0  0
 11 23  1  0  0  0  0
 11 24  1  0  0  0  0
 12 25  1  0  0  0  0
 12 26  1  0  0  0  0
 12 27  1  0  0  0  0
 14 15  1  0  0  0  0
 14 16  1  0  0  0  0
 14 17  1  0  0  0  0
 14 18  1  0  0  0  0
 15 19  1  0  0  0  0
 15 28  1  0  0  0  0
 15 29  1  0  0  0  0
 16 30  1  0  0  0  0
 16 31  1  0  0  0  0
 16 32  1  0  0  0  0
 17 33  1  0  0  0  0
 17 34  1  0  0  0  0
 17 35  1  0  0  0  0
 18 36  1  0  0  0  0
 18 37  1  0  0  0  0
 18 38  1  0  0  0  0
 19 20  1  0  0  0  0
 19 39  1  0  0  0  0
 19 40  1  0  0  0  0
 20 41  1  0  0  0  0
M  CHG  2   4  -1  14   1
M  END
>  <Mol_ID>
4628

>  <Formula>
C12H21N5O3

>  <MolWeight>
283.32684

>  <Cat>
S9472

>  <Name>
Oxtriphylline

>  <Synonyms>
N/A

>  <Target>
PDE Inhibitor, Adenosine receptor, & Histone deacetylase

>  <Form>
Free Base

>  <CAS>
4499-40-5

>  <URL>
N/A

$$$$
