Oxyberberine
 OpenBabel08302521453D

 43 47  0  0  0  0  0  0  0  0999 V2000
    1.2156   -0.3129    0.4820 O   0  0  0  0  0  0  0  0  0  0  0  0
    0.9336    2.7388   -0.0100 O   0  0  0  0  0  0  0  0  0  0  0  0
   -0.1064    1.7910   -0.0142 C   0  0  0  0  0  0  0  0  0  0  0  0
    2.5878    4.9975   -0.1841 O   0  0  0  0  0  0  0  0  0  0  0  0
    1.2023    5.2969   -0.1928 C   0  0  0  0  0  0  0  0  0  0  0  0
    4.6266   -1.1513    0.0524 C   0  0  0  0  0  0  0  0  0  0  0  0
    5.4518   -2.3897    0.1398 C   0  0  0  0  0  0  0  0  0  0  0  0
    3.2440   -1.2503    0.0915 N   0  0  0  0  0  0  0  0  0  0  0  0
    5.1945    0.0557   -0.0444 C   0  0  0  0  0  0  0  0  0  0  0  0
    4.8340   -3.6502   -0.0733 C   0  0  0  0  0  0  0  0  0  0  0  0
    6.8199   -2.3591    0.4714 C   0  0  0  0  0  0  0  0  0  0  0  0
    2.3957   -0.1324    0.2047 C   0  0  0  0  0  0  0  0  0  0  0  0
    2.6238   -2.5712    0.2427 C   0  0  0  0  0  0  0  0  0  0  0  0
    4.3924    1.2748   -0.0612 C   0  0  0  0  0  0  0  0  0  0  0  0
    5.5655   -4.8478    0.0275 C   0  0  0  0  0  0  0  0  0  0  0  0
    3.3836   -3.6834   -0.4685 C   0  0  0  0  0  0  0  0  0  0  0  0
    7.5135   -3.5463    0.5364 C   0  0  0  0  0  0  0  0  0  0  0  0
    2.9782    1.2507    0.0210 C   0  0  0  0  0  0  0  0  0  0  0  0
    5.1038    2.4735   -0.1422 C   0  0  0  0  0  0  0  0  0  0  0  0
    6.9062   -4.7578    0.3260 C   0  0  0  0  0  0  0  0  0  0  0  0
    8.8442   -3.6680    0.8000 O   0  0  0  0  0  0  0  0  0  0  0  0
    2.2707    2.4871   -0.0315 C   0  0  0  0  0  0  0  0  0  0  0  0
    4.4227    3.6738   -0.1635 C   0  0  0  0  0  0  0  0  0  0  0  0
    7.7751   -5.7968    0.4394 O   0  0  0  0  0  0  0  0  0  0  0  0
    9.0202   -5.0842    0.6038 C   0  0  0  0  0  0  0  0  0  0  0  0
    3.0272    3.6947   -0.1240 C   0  0  0  0  0  0  0  0  0  0  0  0
   -0.0160    1.0838   -0.8425 H   0  0  0  0  0  0  0  0  0  0  0  0
   -0.2042    1.3299    0.9719 H   0  0  0  0  0  0  0  0  0  0  0  0
   -1.0417    2.3372   -0.1782 H   0  0  0  0  0  0  0  0  0  0  0  0
    0.7056    4.8690   -1.0690 H   0  0  0  0  0  0  0  0  0  0  0  0
    0.7268    4.9989    0.7471 H   0  0  0  0  0  0  0  0  0  0  0  0
    1.1021    6.3842   -0.2701 H   0  0  0  0  0  0  0  0  0  0  0  0
    6.2682    0.1860   -0.1112 H   0  0  0  0  0  0  0  0  0  0  0  0
    7.3547   -1.4408    0.6789 H   0  0  0  0  0  0  0  0  0  0  0  0
    1.5997   -2.5503   -0.1480 H   0  0  0  0  0  0  0  0  0  0  0  0
    2.5555   -2.7724    1.3203 H   0  0  0  0  0  0  0  0  0  0  0  0
    5.1024   -5.8154   -0.1317 H   0  0  0  0  0  0  0  0  0  0  0  0
    3.3190   -3.5544   -1.5561 H   0  0  0  0  0  0  0  0  0  0  0  0
    2.9294   -4.6494   -0.2190 H   0  0  0  0  0  0  0  0  0  0  0  0
    6.1899    2.4885   -0.1787 H   0  0  0  0  0  0  0  0  0  0  0  0
    4.9795    4.6058   -0.2188 H   0  0  0  0  0  0  0  0  0  0  0  0
    9.6268   -5.2357   -0.2975 H   0  0  0  0  0  0  0  0  0  0  0  0
    9.5585   -5.4946    1.4646 H   0  0  0  0  0  0  0  0  0  0  0  0
  1 12  2  0  0  0  0
  2  3  1  0  0  0  0
  2 22  1  0  0  0  0
  3 27  1  0  0  0  0
  3 28  1  0  0  0  0
  3 29  1  0  0  0  0
  4  5  1  0  0  0  0
  4 26  1  0  0  0  0
  5 30  1  0  0  0  0
  5 31  1  0  0  0  0
  5 32  1  0  0  0  0
  6  7  1  0  0  0  0
  6  8  1  0  0  0  0
  6  9  2  0  0  0  0
  7 10  2  0  0  0  0
  7 11  1  0  0  0  0
  8 12  1  0  0  0  0
  8 13  1  0  0  0  0
  9 14  1  0  0  0  0
  9 33  1  0  0  0  0
 10 15  1  0  0  0  0
 10 16  1  0  0  0  0
 11 17  2  0  0  0  0
 11 34  1  0  0  0  0
 12 18  1  0  0  0  0
 13 16  1  0  0  0  0
 13 35  1  0  0  0  0
 13 36  1  0  0  0  0
 14 18  2  0  0  0  0
 14 19  1  0  0  0  0
 15 20  2  0  0  0  0
 15 37  1  0  0  0  0
 16 38  1  0  0  0  0
 16 39  1  0  0  0  0
 17 20  1  0  0  0  0
 17 21  1  0  0  0  0
 18 22  1  0  0  0  0
 19 23  2  0  0  0  0
 19 40  1  0  0  0  0
 20 24  1  0  0  0  0
 21 25  1  0  0  0  0
 22 26  2  0  0  0  0
 23 26  1  0  0  0  0
 23 41  1  0  0  0  0
 24 25  1  0  0  0  0
 25 42  1  0  0  0  0
 25 43  1  0  0  0  0
M  END
>  <Mol_ID>
9588

>  <Formula>
C20H17NO5

>  <MolWeight>
351.35268

>  <Cat>
E2048

>  <Name>
Oxyberberine

>  <Synonyms>
NA

>  <Target>
Nrf2

>  <Form>
Free Base

>  <CAS>
549-21-3

>  <URL>
https://www.selleckchem.com/products/oxyberberine.html

$$$$
