Oxybuprocaine HCl.cdx
 OpenBabel08302522053D

 50 50  0  0  0  0  0  0  0  0999 V2000
   -2.0430    0.0716    1.0610 C   0  0  0  0  0  0  0  0  0  0  0  0
   -1.3876    1.2779    0.7645 C   0  0  0  0  0  0  0  0  0  0  0  0
   -1.3187   -1.1277    1.0247 C   0  0  0  0  0  0  0  0  0  0  0  0
   -3.5188    0.0645    1.3101 C   0  0  0  0  0  0  0  0  0  0  0  0
   -0.0506    1.2663    0.3298 C   0  0  0  0  0  0  0  0  0  0  0  0
   -0.0283   -1.1478    0.5008 C   0  0  0  0  0  0  0  0  0  0  0  0
   -3.9309   -1.2157    1.4539 O   0  0  0  0  0  0  0  0  0  0  0  0
   -4.2285    1.0571    1.3153 O   0  0  0  0  0  0  0  0  0  0  0  0
    0.5919    0.0337    0.0870 C   0  0  0  0  0  0  0  0  0  0  0  0
    0.7014    2.4082    0.1097 O   0  0  0  0  0  0  0  0  0  0  0  0
   -5.3337   -1.5132    1.5469 C   0  0  0  0  0  0  0  0  0  0  0  0
    1.6801   -0.0516   -0.7897 N   0  0  0  0  0  0  0  0  0  0  0  0
    0.3887    3.4952    0.9937 C   0  0  0  0  0  0  0  0  0  0  0  0
   -5.8899   -1.5266    2.9895 C   0  0  0  0  0  0  0  0  0  0  0  0
    1.5971    4.3793    1.3311 C   0  0  0  0  0  0  0  0  0  0  0  0
   -5.2803   -2.5174    3.9070 N   0  0  0  0  0  0  0  0  0  0  0  0
    2.2065    5.2066    0.1972 C   0  0  0  0  0  0  0  0  0  0  0  0
   -3.8555   -2.2676    4.1929 C   0  0  0  0  0  0  0  0  0  0  0  0
   -6.0270   -2.6729    5.1683 C   0  0  0  0  0  0  0  0  0  0  0  0
    2.9984    4.3960   -0.8129 C   0  0  0  0  0  0  0  0  0  0  0  0
   -3.5019   -0.8841    4.7350 C   0  0  0  0  0  0  0  0  0  0  0  0
   -7.3995   -3.3183    5.0018 C   0  0  0  0  0  0  0  0  0  0  0  0
   -1.9340    2.2150    0.8299 H   0  0  0  0  0  0  0  0  0  0  0  0
   -1.7720   -2.0725    1.3159 H   0  0  0  0  0  0  0  0  0  0  0  0
    0.4691   -2.1054    0.3692 H   0  0  0  0  0  0  0  0  0  0  0  0
   -5.9090   -0.8183    0.9237 H   0  0  0  0  0  0  0  0  0  0  0  0
   -5.4622   -2.5080    1.1041 H   0  0  0  0  0  0  0  0  0  0  0  0
    2.2528   -0.8837   -0.7377 H   0  0  0  0  0  0  0  0  0  0  0  0
    2.1772    0.8232   -0.9237 H   0  0  0  0  0  0  0  0  0  0  0  0
   -0.4030    4.1020    0.5419 H   0  0  0  0  0  0  0  0  0  0  0  0
    0.0324    3.1124    1.9590 H   0  0  0  0  0  0  0  0  0  0  0  0
   -5.8460   -0.5189    3.4153 H   0  0  0  0  0  0  0  0  0  0  0  0
   -6.9555   -1.7656    2.8803 H   0  0  0  0  0  0  0  0  0  0  0  0
    1.2687    5.0937    2.0979 H   0  0  0  0  0  0  0  0  0  0  0  0
    2.3873    3.7715    1.7881 H   0  0  0  0  0  0  0  0  0  0  0  0
    1.4324    5.7932   -0.3152 H   0  0  0  0  0  0  0  0  0  0  0  0
    2.8929    5.9324    0.6508 H   0  0  0  0  0  0  0  0  0  0  0  0
   -3.4932   -3.0175    4.9089 H   0  0  0  0  0  0  0  0  0  0  0  0
   -3.2651   -2.4749    3.2971 H   0  0  0  0  0  0  0  0  0  0  0  0
   -5.4615   -3.3415    5.8314 H   0  0  0  0  0  0  0  0  0  0  0  0
   -6.1315   -1.7186    5.6969 H   0  0  0  0  0  0  0  0  0  0  0  0
    2.3483    4.0005   -1.5947 H   0  0  0  0  0  0  0  0  0  0  0  0
    3.7472    5.0352   -1.2977 H   0  0  0  0  0  0  0  0  0  0  0  0
    3.5316    3.5644   -0.3396 H   0  0  0  0  0  0  0  0  0  0  0  0
   -3.9547   -0.7103    5.7145 H   0  0  0  0  0  0  0  0  0  0  0  0
   -2.4173   -0.7979    4.8458 H   0  0  0  0  0  0  0  0  0  0  0  0
   -3.8182   -0.0761    4.0684 H   0  0  0  0  0  0  0  0  0  0  0  0
   -7.3881   -4.1119    4.2470 H   0  0  0  0  0  0  0  0  0  0  0  0
   -7.7120   -3.7720    5.9479 H   0  0  0  0  0  0  0  0  0  0  0  0
   -8.1581   -2.5792    4.7238 H   0  0  0  0  0  0  0  0  0  0  0  0
  1  2  2  0  0  0  0
  1  3  1  0  0  0  0
  1  4  1  0  0  0  0
  2  5  1  0  0  0  0
  2 23  1  0  0  0  0
  3  6  2  0  0  0  0
  3 24  1  0  0  0  0
  4  7  1  0  0  0  0
  4  8  2  0  0  0  0
  5  9  2  0  0  0  0
  5 10  1  0  0  0  0
  6  9  1  0  0  0  0
  6 25  1  0  0  0  0
  7 11  1  0  0  0  0
  9 12  1  0  0  0  0
 10 13  1  0  0  0  0
 11 14  1  0  0  0  0
 11 26  1  0  0  0  0
 11 27  1  0  0  0  0
 12 28  1  0  0  0  0
 12 29  1  0  0  0  0
 13 15  1  0  0  0  0
 13 30  1  0  0  0  0
 13 31  1  0  0  0  0
 14 16  1  0  0  0  0
 14 32  1  0  0  0  0
 14 33  1  0  0  0  0
 15 17  1  0  0  0  0
 15 34  1  0  0  0  0
 15 35  1  0  0  0  0
 16 18  1  0  0  0  0
 16 19  1  0  0  0  0
 17 20  1  0  0  0  0
 17 36  1  0  0  0  0
 17 37  1  0  0  0  0
 18 21  1  0  0  0  0
 18 38  1  0  0  0  0
 18 39  1  0  0  0  0
 19 22  1  0  0  0  0
 19 40  1  0  0  0  0
 19 41  1  0  0  0  0
 20 42  1  0  0  0  0
 20 43  1  0  0  0  0
 20 44  1  0  0  0  0
 21 45  1  0  0  0  0
 21 46  1  0  0  0  0
 21 47  1  0  0  0  0
 22 48  1  0  0  0  0
 22 49  1  0  0  0  0
 22 50  1  0  0  0  0
M  END
>  <Mol_ID>
1358

>  <Formula>
C17H29ClN2O3

>  <MolWeight>
344.87676

>  <Cat>
S4229

>  <Name>
Oxybuprocaine HCl

>  <Synonyms>
oxybuprocaine hydrochloride

>  <Target>
Sodium Channel

>  <Form>
Hydrochloride

>  <CAS>
5987-82-6

>  <URL>
http://selleckchem.com/products/oxybuprocaine-hcl.html

$$$$
