Oxyimperatorin
 OpenBabel08302521463D

 35 38  0  0  0  0  0  0  0  0999 V2000
    1.3086    0.2263   -0.1229 O   0  0  0  0  0  0  0  0  0  0  0  0
    0.7133   -0.5886    0.9037 C   0  0  0  0  0  0  0  0  0  0  0  0
    3.2716    4.3507   -1.9532 O   0  0  0  0  0  0  0  0  0  0  0  0
    0.8027    1.8635    2.8112 C   0  0  0  0  0  0  0  0  0  0  0  0
   -1.7373    2.0797    2.5645 C   0  0  0  0  0  0  0  0  0  0  0  0
    2.6783    0.0409   -0.1897 C   0  0  0  0  0  0  0  0  0  0  0  0
    3.5174    1.1359   -0.4453 C   0  0  0  0  0  0  0  0  0  0  0  0
    3.3393   -1.1851   -0.0277 C   0  0  0  0  0  0  0  0  0  0  0  0
    4.9107    1.0537   -0.3253 C   0  0  0  0  0  0  0  0  0  0  0  0
    2.9236    2.3508   -0.8705 O   0  0  0  0  0  0  0  0  0  0  0  0
    4.7216   -1.3266    0.0316 C   0  0  0  0  0  0  0  0  0  0  0  0
    2.7469   -2.4063    0.1035 O   0  0  0  0  0  0  0  0  0  0  0  0
    5.5273   -0.1811   -0.0652 C   0  0  0  0  0  0  0  0  0  0  0  0
    5.6966    2.2715   -0.4206 C   0  0  0  0  0  0  0  0  0  0  0  0
    3.7130    3.4085   -1.3059 C   0  0  0  0  0  0  0  0  0  0  0  0
    4.9673   -2.7158    0.2060 C   0  0  0  0  0  0  0  0  0  0  0  0
    3.7370   -3.3267    0.2317 C   0  0  0  0  0  0  0  0  0  0  0  0
    5.1250    3.3825   -0.8870 C   0  0  0  0  0  0  0  0  0  0  0  0
   -0.5174    0.0724    1.4425 C   0  0  3  0  0  0  0  0  0  0  0  0
   -0.5005    1.2446    2.4107 C   0  0  0  0  0  0  0  0  0  0  0  0
   -0.6830   -0.1077    2.8588 O   0  0  0  0  0  0  0  0  0  0  0  0
    0.4236   -1.5482    0.4635 H   0  0  0  0  0  0  0  0  0  0  0  0
    1.4128   -0.7694    1.7315 H   0  0  0  0  0  0  0  0  0  0  0  0
    1.3517    1.2240    3.5107 H   0  0  0  0  0  0  0  0  0  0  0  0
    1.4337    2.0368    1.9352 H   0  0  0  0  0  0  0  0  0  0  0  0
    0.6554    2.8331    3.2966 H   0  0  0  0  0  0  0  0  0  0  0  0
   -1.8860    2.6986    1.6724 H   0  0  0  0  0  0  0  0  0  0  0  0
   -2.6292    1.4582    2.7000 H   0  0  0  0  0  0  0  0  0  0  0  0
   -1.6634    2.7381    3.4329 H   0  0  0  0  0  0  0  0  0  0  0  0
    6.6074   -0.2591    0.0225 H   0  0  0  0  0  0  0  0  0  0  0  0
    6.7305    2.2655   -0.0924 H   0  0  0  0  0  0  0  0  0  0  0  0
    5.9234   -3.2102    0.2910 H   0  0  0  0  0  0  0  0  0  0  0  0
    3.4089   -4.3521    0.3318 H   0  0  0  0  0  0  0  0  0  0  0  0
    5.6714    4.3134   -0.9895 H   0  0  0  0  0  0  0  0  0  0  0  0
   -1.3824   -0.0776    0.8080 H   0  0  0  0  0  0  0  0  0  0  0  0
  1  2  1  0  0  0  0
  1  6  1  0  0  0  0
  2 19  1  0  0  0  0
  2 22  1  0  0  0  0
  2 23  1  0  0  0  0
  3 15  2  0  0  0  0
  4 20  1  0  0  0  0
  4 24  1  0  0  0  0
  4 25  1  0  0  0  0
  4 26  1  0  0  0  0
  5 20  1  0  0  0  0
  5 27  1  0  0  0  0
  5 28  1  0  0  0  0
  5 29  1  0  0  0  0
  6  7  2  0  0  0  0
  6  8  1  0  0  0  0
  7  9  1  0  0  0  0
  7 10  1  0  0  0  0
  8 11  2  0  0  0  0
  8 12  1  0  0  0  0
  9 13  2  0  0  0  0
  9 14  1  0  0  0  0
 10 15  1  0  0  0  0
 11 13  1  0  0  0  0
 11 16  1  0  0  0  0
 12 17  1  0  0  0  0
 13 30  1  0  0  0  0
 14 18  2  0  0  0  0
 14 31  1  0  0  0  0
 15 18  1  0  0  0  0
 16 17  2  0  0  0  0
 16 32  1  0  0  0  0
 17 33  1  0  0  0  0
 18 34  1  0  0  0  0
 19 20  1  0  0  0  0
 19 21  1  0  0  0  0
 19 35  1  0  0  0  0
 20 21  1  0  0  0  0
M  END
>  <Mol_ID>
9740

>  <Formula>
C16H14O5

>  <MolWeight>
286.27936

>  <Cat>
E2211

>  <Name>
Oxyimperatorin

>  <Synonyms>
Prangenin, (+/-)-Heraclenin

>  <Target>
COX, NOS, NF-¦ÊB

>  <Form>
free base

>  <CAS>
35740-18-2

>  <URL>
https://www.selleckchem.com/products/oxyimperatorin.html

$$$$
