Oxymatrine.cdx
 OpenBabel08302521373D

 43 46  0  0  0  0  0  0  0  0999 V2000
   -2.9317    0.4954   -0.1577 C   0  0  0  0  0  0  0  0  0  0  0  0
   -3.1246    1.9891   -0.2353 C   0  0  0  0  0  0  0  0  0  0  0  0
   -1.9488    2.6692    0.4216 C   0  0  0  0  0  0  0  0  0  0  0  0
   -0.7031    2.5311   -0.4175 N   0  3  3  0  0  0  0  0  0  0  0  0
   -0.3582    1.0233   -0.6666 C   0  0  3  0  0  0  0  0  0  0  0  0
   -1.5133   -0.0068   -0.4848 C   0  0  3  0  0  0  0  0  0  0  0  0
    0.3820    3.3375    0.2574 C   0  0  0  0  0  0  0  0  0  0  0  0
    1.7703    2.9356   -0.1658 C   0  0  0  0  0  0  0  0  0  0  0  0
    1.9966    1.5354    0.3539 C   0  0  0  0  0  0  0  0  0  0  0  0
    1.1013    0.5197   -0.3693 C   0  0  3  0  0  0  0  0  0  0  0  0
    1.2538   -0.8637    0.3377 C   0  0  3  0  0  0  0  0  0  0  0  0
    0.0916   -1.7199    0.1939 N   0  0  0  0  0  0  0  0  0  0  0  0
   -1.1636   -1.0864    0.5290 C   0  0  0  0  0  0  0  0  0  0  0  0
    2.5616   -1.5543   -0.0959 C   0  0  0  0  0  0  0  0  0  0  0  0
    2.6462   -2.9274    0.5492 C   0  0  0  0  0  0  0  0  0  0  0  0
    1.4870   -3.7622    0.0512 C   0  0  0  0  0  0  0  0  0  0  0  0
    0.1552   -3.1069    0.3362 C   0  0  0  0  0  0  0  0  0  0  0  0
   -0.8281   -3.8046    0.5834 O   0  0  0  0  0  0  0  0  0  0  0  0
   -0.9363    3.1542   -1.6396 O   0  5  0  0  0  0  0  0  0  0  0  0
   -3.2144    0.1819    0.8573 H   0  0  0  0  0  0  0  0  0  0  0  0
   -3.6556    0.0002   -0.8181 H   0  0  0  0  0  0  0  0  0  0  0  0
   -3.2442    2.2991   -1.2781 H   0  0  0  0  0  0  0  0  0  0  0  0
   -4.0494    2.2598    0.2869 H   0  0  0  0  0  0  0  0  0  0  0  0
   -2.1334    3.7460    0.5304 H   0  0  0  0  0  0  0  0  0  0  0  0
   -1.7191    2.2381    1.4030 H   0  0  0  0  0  0  0  0  0  0  0  0
   -0.3201    1.0743   -1.7697 H   0  0  0  0  0  0  0  0  0  0  0  0
   -1.5979   -0.5255   -1.4538 H   0  0  0  0  0  0  0  0  0  0  0  0
    0.1880    4.3887    0.0065 H   0  0  0  0  0  0  0  0  0  0  0  0
    0.2538    3.2191    1.3390 H   0  0  0  0  0  0  0  0  0  0  0  0
    1.8954    2.9774   -1.2534 H   0  0  0  0  0  0  0  0  0  0  0  0
    2.5013    3.6176    0.2815 H   0  0  0  0  0  0  0  0  0  0  0  0
    3.0527    1.2729    0.2326 H   0  0  0  0  0  0  0  0  0  0  0  0
    1.7935    1.5106    1.4333 H   0  0  0  0  0  0  0  0  0  0  0  0
    1.5515    0.3997   -1.3687 H   0  0  0  0  0  0  0  0  0  0  0  0
    1.3329   -0.6925    1.4191 H   0  0  0  0  0  0  0  0  0  0  0  0
   -1.9746   -1.8228    0.5651 H   0  0  0  0  0  0  0  0  0  0  0  0
   -1.0712   -0.6662    1.5386 H   0  0  0  0  0  0  0  0  0  0  0  0
    2.5969   -1.6632   -1.1875 H   0  0  0  0  0  0  0  0  0  0  0  0
    3.4334   -0.9627    0.2004 H   0  0  0  0  0  0  0  0  0  0  0  0
    3.5950   -3.4117    0.2977 H   0  0  0  0  0  0  0  0  0  0  0  0
    2.6032   -2.8320    1.6415 H   0  0  0  0  0  0  0  0  0  0  0  0
    1.5558   -3.9276   -1.0302 H   0  0  0  0  0  0  0  0  0  0  0  0
    1.5053   -4.7412    0.5429 H   0  0  0  0  0  0  0  0  0  0  0  0
  1  2  1  0  0  0  0
  1 20  1  0  0  0  0
  1 21  1  0  0  0  0
  2  3  1  0  0  0  0
  2 22  1  0  0  0  0
  2 23  1  0  0  0  0
  3  4  1  0  0  0  0
  3 24  1  0  0  0  0
  3 25  1  0  0  0  0
  4  7  1  0  0  0  0
  4 19  1  0  0  0  0
  5  4  1  0  0  0  0
  5  6  1  0  0  0  0
  5 26  1  0  0  0  0
  6  1  1  0  0  0  0
  6 27  1  0  0  0  0
  7  8  1  0  0  0  0
  7 28  1  0  0  0  0
  7 29  1  0  0  0  0
  8  9  1  0  0  0  0
  8 30  1  0  0  0  0
  8 31  1  0  0  0  0
  9 32  1  0  0  0  0
  9 33  1  0  0  0  0
 10  9  1  0  0  0  0
 10  5  1  0  0  0  0
 10 11  1  0  0  0  0
 10 34  1  0  0  0  0
 11 12  1  0  0  0  0
 11 14  1  0  0  0  0
 11 35  1  0  0  0  0
 12 13  1  0  0  0  0
 13  6  1  0  0  0  0
 13 36  1  0  0  0  0
 13 37  1  0  0  0  0
 14 15  1  0  0  0  0
 14 38  1  0  0  0  0
 14 39  1  0  0  0  0
 15 16  1  0  0  0  0
 15 40  1  0  0  0  0
 15 41  1  0  0  0  0
 16 17  1  0  0  0  0
 16 42  1  0  0  0  0
 16 43  1  0  0  0  0
 17 12  1  0  0  0  0
 17 18  2  0  0  0  0
M  CHG  2   4   1  19  -1
M  END
>  <Mol_ID>
715

>  <Formula>
C15H24N2O2

>  <MolWeight>
264.36326

>  <Cat>
S2338

>  <Name>
Oxymatrine

>  <Synonyms>
Matrine N-oxide

>  <Target>
Immunology & Inflammation related

>  <Form>
free base

>  <CAS>
16837-52-8

>  <URL>
http://selleckchem.com/products/Oxymatrine(Matrine-N-oxide).html

$$$$
