Oxypurinol
 OpenBabel08302521373D

 15 16  0  0  0  0  0  0  0  0999 V2000
    1.0553    0.1374    0.0070 O   0  0  0  0  0  0  0  0  0  0  0  0
    5.0708    2.3246   -0.1976 O   0  0  0  0  0  0  0  0  0  0  0  0
    4.3988   -1.1020    0.0631 C   0  0  0  0  0  0  0  0  0  0  0  0
    3.0337   -1.1107    0.0717 C   0  0  0  0  0  0  0  0  0  0  0  0
    5.1056    0.0695   -0.0296 N   0  0  0  0  0  0  0  0  0  0  0  0
    4.8059   -2.3978    0.1687 N   0  0  0  0  0  0  0  0  0  0  0  0
    2.2782    0.0997   -0.0123 C   0  0  0  0  0  0  0  0  0  0  0  0
    2.6867   -2.4657    0.1799 C   0  0  0  0  0  0  0  0  0  0  0  0
    4.4075    1.3083   -0.1216 C   0  0  0  0  0  0  0  0  0  0  0  0
    3.7677   -3.2560    0.2336 N   0  0  0  0  0  0  0  0  0  0  0  0
    3.0440    1.2362   -0.1120 N   0  0  0  0  0  0  0  0  0  0  0  0
    6.1180    0.1014   -0.0341 H   0  0  0  0  0  0  0  0  0  0  0  0
    5.7461   -2.7783    0.2096 H   0  0  0  0  0  0  0  0  0  0  0  0
    1.6992   -2.9121    0.2247 H   0  0  0  0  0  0  0  0  0  0  0  0
    2.5432    2.1101   -0.1690 H   0  0  0  0  0  0  0  0  0  0  0  0
  1  7  2  0  0  0  0
  2  9  2  0  0  0  0
  3  4  2  0  0  0  0
  3  5  1  0  0  0  0
  3  6  1  0  0  0  0
  4  7  1  0  0  0  0
  4  8  1  0  0  0  0
  5  9  1  0  0  0  0
  5 12  1  0  0  0  0
  6 10  1  0  0  0  0
  6 13  1  0  0  0  0
  7 11  1  0  0  0  0
  8 10  2  0  0  0  0
  8 14  1  0  0  0  0
  9 11  1  0  0  0  0
 11 15  1  0  0  0  0
M  END
>  <Mol_ID>
7419

>  <Formula>
C5H4N4O2

>  <MolWeight>
152.11086

>  <Cat>
E4518

>  <Name>
Oxypurinol

>  <Synonyms>
Oxypurinol

>  <Target>
Endogenous Metabolite; ROS; Xanthine Oxidase

>  <Form>
Free base

>  <CAS>
2465-59-0

>  <URL>
https://www.selleckchem.com/products/oxypurinol.html

$$$$
