Oxypeucedanin hydrate
 OpenBabel08302521573D

 38 40  0  0  1  0  0  0  0  0999 V2000
    2.3073   -3.7107   -1.5513 O   0  0  0  0  0  0  0  0  0  0  0  0
    1.5409   -2.4936   -1.5730 C   0  0  0  0  0  0  0  0  0  0  0  0
    0.0750   -2.5624   -2.0676 C   0  0  2  0  0  0  0  0  0  0  0  0
   -0.5812   -1.1490   -2.2150 C   0  0  0  0  0  0  0  0  0  0  0  0
   -0.7290   -3.2957   -1.1281 O   0  0  0  0  0  0  0  0  0  0  0  0
    0.1857   -0.2127   -3.1512 C   0  0  0  0  0  0  0  0  0  0  0  0
   -2.0383   -1.2646   -2.6861 C   0  0  0  0  0  0  0  0  0  0  0  0
   -0.6038   -0.5468   -0.9055 O   0  0  0  0  0  0  0  0  0  0  0  0
   -1.1418   -4.9099    3.6830 O   0  0  0  0  0  0  0  0  0  0  0  0
    1.8931   -4.8140   -0.8624 C   0  0  0  0  0  0  0  0  0  0  0  0
    1.2855   -4.8449    0.4115 C   0  0  0  0  0  0  0  0  0  0  0  0
    2.1880   -6.0654   -1.4651 C   0  0  0  0  0  0  0  0  0  0  0  0
    0.7791   -6.0603    0.9060 C   0  0  0  0  0  0  0  0  0  0  0  0
    1.2319   -3.7121    1.3331 C   0  0  0  0  0  0  0  0  0  0  0  0
    1.7399   -7.2404   -0.8730 C   0  0  0  0  0  0  0  0  0  0  0  0
    2.9058   -6.4860   -2.6250 C   0  0  0  0  0  0  0  0  0  0  0  0
    0.9820   -7.2922    0.2853 C   0  0  0  0  0  0  0  0  0  0  0  0
   -0.0087   -6.1000    2.0826 O   0  0  0  0  0  0  0  0  0  0  0  0
    0.4706   -3.7529    2.4301 C   0  0  0  0  0  0  0  0  0  0  0  0
    2.1453   -8.3258   -1.5879 O   0  0  0  0  0  0  0  0  0  0  0  0
    2.8684   -7.8612   -2.6379 C   0  0  0  0  0  0  0  0  0  0  0  0
   -0.3177   -4.9433    2.7776 C   0  0  0  0  0  0  0  0  0  0  0  0
    1.6205   -1.9769   -0.6170 H   0  0  0  0  0  0  0  0  0  0  0  0
    2.0968   -1.8693   -2.2801 H   0  0  0  0  0  0  0  0  0  0  0  0
    0.0342   -3.1077   -3.0173 H   0  0  0  0  0  0  0  0  0  0  0  0
   -0.8869   -2.6770   -0.3845 H   0  0  0  0  0  0  0  0  0  0  0  0
    0.3218   -0.6586   -4.1407 H   0  0  0  0  0  0  0  0  0  0  0  0
   -0.3503    0.7365   -3.2732 H   0  0  0  0  0  0  0  0  0  0  0  0
    1.1633    0.0588   -2.7407 H   0  0  0  0  0  0  0  0  0  0  0  0
   -2.6554   -1.8029   -1.9590 H   0  0  0  0  0  0  0  0  0  0  0  0
   -2.4952   -0.2722   -2.7875 H   0  0  0  0  0  0  0  0  0  0  0  0
   -2.1062   -1.7727   -3.6526 H   0  0  0  0  0  0  0  0  0  0  0  0
   -1.0811    0.3022   -0.9784 H   0  0  0  0  0  0  0  0  0  0  0  0
    1.8723   -2.8574    1.1572 H   0  0  0  0  0  0  0  0  0  0  0  0
    3.4161   -5.8560   -3.3385 H   0  0  0  0  0  0  0  0  0  0  0  0
    0.6159   -8.2239    0.6938 H   0  0  0  0  0  0  0  0  0  0  0  0
    0.4186   -2.9281    3.1248 H   0  0  0  0  0  0  0  0  0  0  0  0
    3.2837   -8.6184   -3.2886 H   0  0  0  0  0  0  0  0  0  0  0  0
  1  2  1  0  0  0  0
  1 10  1  0  0  0  0
  2 23  1  0  0  0  0
  2 24  1  0  0  0  0
  3  5  1  0  0  0  0
  3 25  1  6  0  0  0
  3  4  1  0  0  0  0
  3  2  1  0  0  0  0
  4  6  1  0  0  0  0
  4  7  1  0  0  0  0
  4  8  1  0  0  0  0
  5 26  1  0  0  0  0
  6 27  1  0  0  0  0
  6 28  1  0  0  0  0
  6 29  1  0  0  0  0
  7 30  1  0  0  0  0
  7 31  1  0  0  0  0
  7 32  1  0  0  0  0
  8 33  1  0  0  0  0
  9 22  2  0  0  0  0
 10 11  2  0  0  0  0
 10 12  1  0  0  0  0
 11 13  1  0  0  0  0
 11 14  1  0  0  0  0
 12 15  2  0  0  0  0
 12 16  1  0  0  0  0
 13 17  2  0  0  0  0
 13 18  1  0  0  0  0
 14 19  2  0  0  0  0
 14 34  1  0  0  0  0
 15 17  1  0  0  0  0
 15 20  1  0  0  0  0
 16 21  2  0  0  0  0
 16 35  1  0  0  0  0
 17 36  1  0  0  0  0
 18 22  1  0  0  0  0
 19 22  1  0  0  0  0
 19 37  1  0  0  0  0
 20 21  1  0  0  0  0
 21 38  1  0  0  0  0
M  END
>  <Mol_ID>
10072

>  <Formula>
C16H16O6

>  <MolWeight>
304.29464

>  <Cat>
E5712

>  <Name>
Oxypeucedanin hydrate

>  <Synonyms>
(+)-Oxypeucedanin hydrate

>  <Target>
Antimicrobial

>  <Form>
Free Base

>  <CAS>
2643-85-8

>  <URL>
https://www.selleckchem.com/products/oxypeucedanin-hydrate.html

$$$$
