Oxysophocarpine
 OpenBabel08302521313D

 41 44  0  0  0  0  0  0  0  0999 V2000
    1.5851   -1.7389   11.0423 O   0  5  0  0  0  0  0  0  0  0  0  0
   -1.6291   -0.2095    5.2268 O   0  0  0  0  0  0  0  0  0  0  0  0
    1.5533   -2.6317    9.9771 N   0  3  1  0  0  0  0  0  0  0  0  0
    0.3259   -1.1335    6.0411 N   0  0  0  0  0  0  0  0  0  0  0  0
    1.0906   -1.8621    8.6905 C   0  0  3  0  0  0  0  0  0  0  0  0
    2.2017   -1.4407    7.6884 C   0  0  3  0  0  0  0  0  0  0  0  0
   -0.3474   -2.0977    8.1402 C   0  0  3  0  0  0  0  0  0  0  0  0
    1.7721   -1.0909    6.2374 C   0  0  3  0  0  0  0  0  0  0  0  0
    3.3968   -2.3980    7.6637 C   0  0  0  0  0  0  0  0  0  0  0  0
    2.9398   -3.2626    9.9026 C   0  0  0  0  0  0  0  0  0  0  0  0
   -0.3585   -2.2730    6.6250 C   0  0  0  0  0  0  0  0  0  0  0  0
    0.5964   -3.7460   10.3455 C   0  0  0  0  0  0  0  0  0  0  0  0
   -1.2134   -3.1523    8.8245 C   0  0  0  0  0  0  0  0  0  0  0  0
    3.9446   -2.5064    9.0719 C   0  0  0  0  0  0  0  0  0  0  0  0
   -0.8488   -3.3133   10.2847 C   0  0  0  0  0  0  0  0  0  0  0  0
    2.4805    0.2037    5.7601 C   0  0  0  0  0  0  0  0  0  0  0  0
   -0.4290   -0.1179    5.4873 C   0  0  0  0  0  0  0  0  0  0  0  0
    1.5678    1.3300    5.4152 C   0  0  0  0  0  0  0  0  0  0  0  0
    0.2509    1.1731    5.2657 C   0  0  0  0  0  0  0  0  0  0  0  0
    0.9147   -0.8846    9.1730 H   0  0  0  0  0  0  0  0  0  0  0  0
    2.6036   -0.5151    8.1279 H   0  0  0  0  0  0  0  0  0  0  0  0
   -0.8799   -1.1487    8.3270 H   0  0  0  0  0  0  0  0  0  0  0  0
    2.1414   -1.8952    5.5816 H   0  0  0  0  0  0  0  0  0  0  0  0
    4.1813   -2.0201    6.9975 H   0  0  0  0  0  0  0  0  0  0  0  0
    3.1018   -3.3855    7.2836 H   0  0  0  0  0  0  0  0  0  0  0  0
    3.2901   -3.3481   10.9396 H   0  0  0  0  0  0  0  0  0  0  0  0
    2.8249   -4.2752    9.5021 H   0  0  0  0  0  0  0  0  0  0  0  0
   -1.3918   -2.3262    6.2636 H   0  0  0  0  0  0  0  0  0  0  0  0
    0.1459   -3.1950    6.3139 H   0  0  0  0  0  0  0  0  0  0  0  0
    0.7791   -4.5688    9.6431 H   0  0  0  0  0  0  0  0  0  0  0  0
    0.8767   -4.0705   11.3542 H   0  0  0  0  0  0  0  0  0  0  0  0
   -2.2701   -2.8687    8.7429 H   0  0  0  0  0  0  0  0  0  0  0  0
   -1.1161   -4.1180    8.3126 H   0  0  0  0  0  0  0  0  0  0  0  0
    4.1373   -1.5111    9.4913 H   0  0  0  0  0  0  0  0  0  0  0  0
    4.8997   -3.0428    9.0649 H   0  0  0  0  0  0  0  0  0  0  0  0
   -1.0113   -2.3785   10.8333 H   0  0  0  0  0  0  0  0  0  0  0  0
   -1.4845   -4.0805   10.7387 H   0  0  0  0  0  0  0  0  0  0  0  0
    3.1991    0.5610    6.5088 H   0  0  0  0  0  0  0  0  0  0  0  0
    3.0878   -0.0256    4.8759 H   0  0  0  0  0  0  0  0  0  0  0  0
    2.0101    2.3154    5.2835 H   0  0  0  0  0  0  0  0  0  0  0  0
   -0.3937    1.9954    4.9921 H   0  0  0  0  0  0  0  0  0  0  0  0
  2 17  2  0  0  0  0
  3  1  1  1  0  0  0
  3 10  1  0  0  0  0
  3 12  1  0  0  0  0
  4 11  1  0  0  0  0
  4 17  1  0  0  0  0
  5  3  1  0  0  0  0
  5  6  1  0  0  0  0
  5  7  1  0  0  0  0
  5 20  1  0  0  0  0
  6  8  1  0  0  0  0
  6  9  1  0  0  0  0
  6 21  1  0  0  0  0
  7 11  1  0  0  0  0
  7 13  1  0  0  0  0
  7 22  1  0  0  0  0
  8  4  1  0  0  0  0
  8 16  1  0  0  0  0
  8 23  1  0  0  0  0
  9 14  1  0  0  0  0
  9 24  1  0  0  0  0
  9 25  1  0  0  0  0
 10 14  1  0  0  0  0
 10 26  1  0  0  0  0
 10 27  1  0  0  0  0
 11 28  1  0  0  0  0
 11 29  1  0  0  0  0
 12 15  1  0  0  0  0
 12 30  1  0  0  0  0
 12 31  1  0  0  0  0
 13 15  1  0  0  0  0
 13 32  1  0  0  0  0
 13 33  1  0  0  0  0
 14 34  1  0  0  0  0
 14 35  1  0  0  0  0
 15 36  1  0  0  0  0
 15 37  1  0  0  0  0
 16 18  1  0  0  0  0
 16 38  1  0  0  0  0
 16 39  1  0  0  0  0
 17 19  1  0  0  0  0
 18 19  2  0  0  0  0
 18 40  1  0  0  0  0
 19 41  1  0  0  0  0
M  CHG  2   1  -1   3   1
M  END
>  <Mol_ID>
6075

>  <Formula>
C15H22N2O2

>  <MolWeight>
262.34738

>  <Cat>
E0129

>  <Name>
Oxysophocarpine

>  <Synonyms>
OSC

>  <Target>
Apoptosis related,Immunology & Inflammation related,Nrf2

>  <Form>
Free Base

>  <CAS>
26904-64-3

>  <URL>
http://www.selleckchem.com/products/oxysophocarpine.html

$$$$
