Oxysophoridine
 OpenBabel08302521583D

 43 46  0  0  1  0  0  0  0  0999 V2000
    1.4412    1.2054   -0.5716 O   0  5  0  0  0  0  0  0  0  0  0  0
    3.4754   -5.5240    0.9647 O   0  0  0  0  0  0  0  0  0  0  0  0
    4.2814   -1.1773   -0.9087 C   0  0  1  0  0  0  0  0  0  0  0  0
    2.8211   -0.7317   -0.7531 C   0  0  3  0  0  0  0  0  0  0  0  0
    4.5371   -2.6718   -0.9416 C   0  0  3  0  0  0  0  0  0  0  0  0
    4.9343   -0.4151   -2.0657 C   0  0  0  0  0  0  0  0  0  0  0  0
    1.9882   -1.5460    0.2516 C   0  0  3  0  0  0  0  0  0  0  0  0
    2.7487    0.7722   -0.4465 N   0  3  3  0  0  0  0  0  0  0  0  0
    3.7789   -3.3926    0.0778 N   0  0  0  0  0  0  0  0  0  0  0  0
    4.4879   -3.4471   -2.2569 C   0  0  0  0  0  0  0  0  0  0  0  0
    4.9551    1.0663   -1.7154 C   0  0  0  0  0  0  0  0  0  0  0  0
    2.4149   -3.0172    0.4101 C   0  0  0  0  0  0  0  0  0  0  0  0
    1.6050   -0.8718    1.5980 C   0  0  0  0  0  0  0  0  0  0  0  0
    3.5493    1.5746   -1.4549 C   0  0  0  0  0  0  0  0  0  0  0  0
    3.2258    1.0152    0.9693 C   0  0  0  0  0  0  0  0  0  0  0  0
    4.1059   -4.7589    0.2407 C   0  0  0  0  0  0  0  0  0  0  0  0
    5.1882   -4.8067   -2.0450 C   0  0  0  0  0  0  0  0  0  0  0  0
    2.2316    0.4715    1.9709 C   0  0  0  0  0  0  0  0  0  0  0  0
    5.2991   -5.2211   -0.5673 C   0  0  0  0  0  0  0  0  0  0  0  0
    4.8210   -0.8728   -0.0070 H   0  0  0  0  0  0  0  0  0  0  0  0
    2.3284   -0.8196   -1.7331 H   0  0  0  0  0  0  0  0  0  0  0  0
    5.5883   -2.7409   -0.6234 H   0  0  0  0  0  0  0  0  0  0  0  0
    4.3760   -0.5702   -2.9987 H   0  0  0  0  0  0  0  0  0  0  0  0
    5.9585   -0.7634   -2.2381 H   0  0  0  0  0  0  0  0  0  0  0  0
    1.0032   -1.6329   -0.2378 H   0  0  0  0  0  0  0  0  0  0  0  0
    4.9900   -2.9183   -3.0738 H   0  0  0  0  0  0  0  0  0  0  0  0
    3.4506   -3.6151   -2.5702 H   0  0  0  0  0  0  0  0  0  0  0  0
    5.4054    1.6358   -2.5357 H   0  0  0  0  0  0  0  0  0  0  0  0
    5.5849    1.2250   -0.8324 H   0  0  0  0  0  0  0  0  0  0  0  0
    1.7697   -3.6321   -0.2332 H   0  0  0  0  0  0  0  0  0  0  0  0
    2.2195   -3.3760    1.4311 H   0  0  0  0  0  0  0  0  0  0  0  0
    1.7153   -1.5605    2.4433 H   0  0  0  0  0  0  0  0  0  0  0  0
    0.5178   -0.6908    1.5576 H   0  0  0  0  0  0  0  0  0  0  0  0
    3.5596    2.6090   -1.0927 H   0  0  0  0  0  0  0  0  0  0  0  0
    2.9615    1.5447   -2.3807 H   0  0  0  0  0  0  0  0  0  0  0  0
    4.2013    0.5459    1.1101 H   0  0  0  0  0  0  0  0  0  0  0  0
    3.3645    2.0944    1.0948 H   0  0  0  0  0  0  0  0  0  0  0  0
    6.2037   -4.7596   -2.4620 H   0  0  0  0  0  0  0  0  0  0  0  0
    4.6628   -5.5805   -2.6150 H   0  0  0  0  0  0  0  0  0  0  0  0
    2.6997    0.4039    2.9601 H   0  0  0  0  0  0  0  0  0  0  0  0
    1.4263    1.2105    2.0896 H   0  0  0  0  0  0  0  0  0  0  0  0
    6.2059   -4.8017   -0.1114 H   0  0  0  0  0  0  0  0  0  0  0  0
    5.3925   -6.3106   -0.4942 H   0  0  0  0  0  0  0  0  0  0  0  0
  1  8  1  0  0  0  0
  2 16  2  0  0  0  0
  3  4  1  0  0  0  0
  3  5  1  0  0  0  0
  3  6  1  0  0  0  0
  3 20  1  1  0  0  0
  4  7  1  0  0  0  0
  4  8  1  0  0  0  0
  4 21  1  0  0  0  0
  5  9  1  0  0  0  0
  5 10  1  0  0  0  0
  5 22  1  0  0  0  0
  6 11  1  0  0  0  0
  6 23  1  0  0  0  0
  6 24  1  0  0  0  0
  7 12  1  0  0  0  0
  7 13  1  0  0  0  0
  7 25  1  0  0  0  0
  8 14  1  0  0  0  0
  8 15  1  0  0  0  0
  9 12  1  0  0  0  0
  9 16  1  0  0  0  0
 10 17  1  0  0  0  0
 10 26  1  0  0  0  0
 10 27  1  0  0  0  0
 11 14  1  0  0  0  0
 11 28  1  0  0  0  0
 11 29  1  0  0  0  0
 12 30  1  0  0  0  0
 12 31  1  0  0  0  0
 13 18  1  0  0  0  0
 13 32  1  0  0  0  0
 13 33  1  0  0  0  0
 14 34  1  0  0  0  0
 14 35  1  0  0  0  0
 15 18  1  0  0  0  0
 15 36  1  0  0  0  0
 15 37  1  0  0  0  0
 16 19  1  0  0  0  0
 17 19  1  0  0  0  0
 17 38  1  0  0  0  0
 17 39  1  0  0  0  0
 18 40  1  0  0  0  0
 18 41  1  0  0  0  0
 19 42  1  0  0  0  0
 19 43  1  0  0  0  0
M  CHG  2   1  -1   8   1
M  END
>  <Mol_ID>
10093

>  <Formula>
C15H24N2O2

>  <MolWeight>
264.36326

>  <Cat>
S0912

>  <Name>
Oxysophoridine

>  <Synonyms>
Sophoridine N-oxide

>  <Target>
Nrf2, NF-¦ÊB

>  <Form>
Free Base

>  <CAS>
54809-74-4

>  <URL>
https://www.selleckchem.com/products/oxysophoridine.html

$$$$
