OXYTROL (oxybutynin).cdx
 OpenBabel08302521193D

 57 58  0  0  0  0  0  0  0  0999 V2000
    1.2409   -0.2664    0.1841 C   0  0  0  0  0  0  0  0  0  0  0  0
    0.2754   -1.0782   -0.4500 C   0  0  0  0  0  0  0  0  0  0  0  0
   -1.0863   -0.7551   -0.4737 C   0  0  0  0  0  0  0  0  0  0  0  0
   -1.5333    0.4100    0.1265 C   0  0  0  0  0  0  0  0  0  0  0  0
   -0.6203    1.2342    0.7697 C   0  0  0  0  0  0  0  0  0  0  0  0
    0.7428    0.9009    0.8010 C   0  0  0  0  0  0  0  0  0  0  0  0
    2.7618   -0.6073    0.1442 C   0  0  3  0  0  0  0  0  0  0  0  0
    3.5114    0.0022   -1.1036 C   0  0  0  0  0  0  0  0  0  0  0  0
    3.4498    1.5459   -1.2038 C   0  0  0  0  0  0  0  0  0  0  0  0
    2.3237   -3.0165   -0.3539 O   0  0  0  0  0  0  0  0  0  0  0  0
    3.0609   -2.1567    0.1265 C   0  0  0  0  0  0  0  0  0  0  0  0
    3.0769   -0.6430   -2.4360 C   0  0  0  0  0  0  0  0  0  0  0  0
    3.8261   -0.0810   -3.6394 C   0  0  0  0  0  0  0  0  0  0  0  0
    3.6978    1.4319   -3.7138 C   0  0  0  0  0  0  0  0  0  0  0  0
    4.2007    2.0785   -2.4289 C   0  0  0  0  0  0  0  0  0  0  0  0
    4.3155   -2.4489    0.5755 O   0  0  0  0  0  0  0  0  0  0  0  0
    3.4216   -0.0932    1.3222 O   0  0  0  0  0  0  0  0  0  0  0  0
    4.6551   -3.8421    0.4502 C   0  0  0  0  0  0  0  0  0  0  0  0
    3.9943   -4.6354    1.4884 C   0  0  0  0  0  0  0  0  0  0  0  0
    3.4005   -5.3027    2.4383 C   0  0  0  0  0  0  0  0  0  0  0  0
    2.7082   -6.0805    3.5456 C   0  0  0  0  0  0  0  0  0  0  0  0
    2.3665   -7.4368    3.1049 N   0  0  0  0  0  0  0  0  0  0  0  0
    3.5534   -8.2369    2.7509 C   0  0  0  0  0  0  0  0  0  0  0  0
    1.4710   -8.1514    4.0229 C   0  0  0  0  0  0  0  0  0  0  0  0
    4.6131   -8.4433    3.8328 C   0  0  0  0  0  0  0  0  0  0  0  0
    0.0804   -7.5248    4.1697 C   0  0  0  0  0  0  0  0  0  0  0  0
    0.5409   -1.9968   -0.9654 H   0  0  0  0  0  0  0  0  0  0  0  0
   -1.7873   -1.4199   -0.9724 H   0  0  0  0  0  0  0  0  0  0  0  0
   -2.5871    0.6744    0.0875 H   0  0  0  0  0  0  0  0  0  0  0  0
   -0.9656    2.1475    1.2467 H   0  0  0  0  0  0  0  0  0  0  0  0
    1.3889    1.6081    1.3105 H   0  0  0  0  0  0  0  0  0  0  0  0
    4.5793   -0.2326   -0.9716 H   0  0  0  0  0  0  0  0  0  0  0  0
    2.4090    1.8796   -1.2754 H   0  0  0  0  0  0  0  0  0  0  0  0
    3.8770    2.0053   -0.3055 H   0  0  0  0  0  0  0  0  0  0  0  0
    3.2566   -1.7228   -2.4136 H   0  0  0  0  0  0  0  0  0  0  0  0
    2.0031   -0.4962   -2.5927 H   0  0  0  0  0  0  0  0  0  0  0  0
    3.4306   -0.5337   -4.5554 H   0  0  0  0  0  0  0  0  0  0  0  0
    4.8851   -0.3605   -3.5757 H   0  0  0  0  0  0  0  0  0  0  0  0
    2.6475    1.7046   -3.8759 H   0  0  0  0  0  0  0  0  0  0  0  0
    4.2635    1.8092   -4.5730 H   0  0  0  0  0  0  0  0  0  0  0  0
    4.0771    3.1657   -2.4957 H   0  0  0  0  0  0  0  0  0  0  0  0
    5.2761    1.8876   -2.3186 H   0  0  0  0  0  0  0  0  0  0  0  0
    3.0892    0.7888    1.5235 H   0  0  0  0  0  0  0  0  0  0  0  0
    4.4166   -4.2056   -0.5559 H   0  0  0  0  0  0  0  0  0  0  0  0
    5.7432   -3.9213    0.5527 H   0  0  0  0  0  0  0  0  0  0  0  0
    3.3295   -6.0767    4.4471 H   0  0  0  0  0  0  0  0  0  0  0  0
    1.8017   -5.5155    3.7912 H   0  0  0  0  0  0  0  0  0  0  0  0
    3.2312   -9.2204    2.3886 H   0  0  0  0  0  0  0  0  0  0  0  0
    4.0392   -7.7798    1.8823 H   0  0  0  0  0  0  0  0  0  0  0  0
    1.3044   -9.1623    3.6284 H   0  0  0  0  0  0  0  0  0  0  0  0
    1.9212   -8.2664    5.0154 H   0  0  0  0  0  0  0  0  0  0  0  0
    4.2719   -9.1466    4.6026 H   0  0  0  0  0  0  0  0  0  0  0  0
    5.5164   -8.8632    3.3757 H   0  0  0  0  0  0  0  0  0  0  0  0
    4.9169   -7.5138    4.3173 H   0  0  0  0  0  0  0  0  0  0  0  0
   -0.3286   -7.2084    3.2057 H   0  0  0  0  0  0  0  0  0  0  0  0
   -0.6135   -8.2578    4.5964 H   0  0  0  0  0  0  0  0  0  0  0  0
    0.0965   -6.6627    4.8441 H   0  0  0  0  0  0  0  0  0  0  0  0
  1  2  2  0  0  0  0
  1  7  1  0  0  0  0
  2  3  1  0  0  0  0
  2 27  1  0  0  0  0
  3  4  2  0  0  0  0
  3 28  1  0  0  0  0
  4  5  1  0  0  0  0
  4 29  1  0  0  0  0
  5  6  2  0  0  0  0
  5 30  1  0  0  0  0
  6  1  1  0  0  0  0
  6 31  1  0  0  0  0
  7  8  1  0  0  0  0
  7 17  1  0  0  0  0
  8  9  1  0  0  0  0
  8 12  1  0  0  0  0
  8 32  1  0  0  0  0
  9 33  1  0  0  0  0
  9 34  1  0  0  0  0
 10 11  2  0  0  0  0
 11  7  1  0  0  0  0
 11 16  1  0  0  0  0
 12 13  1  0  0  0  0
 12 35  1  0  0  0  0
 12 36  1  0  0  0  0
 13 14  1  0  0  0  0
 13 37  1  0  0  0  0
 13 38  1  0  0  0  0
 14 15  1  0  0  0  0
 14 39  1  0  0  0  0
 14 40  1  0  0  0  0
 15  9  1  0  0  0  0
 15 41  1  0  0  0  0
 15 42  1  0  0  0  0
 16 18  1  0  0  0  0
 17 43  1  0  0  0  0
 18 19  1  0  0  0  0
 18 44  1  0  0  0  0
 18 45  1  0  0  0  0
 19 20  3  0  0  0  0
 20 21  1  0  0  0  0
 21 22  1  0  0  0  0
 21 46  1  0  0  0  0
 21 47  1  0  0  0  0
 22 23  1  0  0  0  0
 22 24  1  0  0  0  0
 23 25  1  0  0  0  0
 23 48  1  0  0  0  0
 23 49  1  0  0  0  0
 24 26  1  0  0  0  0
 24 50  1  0  0  0  0
 24 51  1  0  0  0  0
 25 52  1  0  0  0  0
 25 53  1  0  0  0  0
 25 54  1  0  0  0  0
 26 55  1  0  0  0  0
 26 56  1  0  0  0  0
 26 57  1  0  0  0  0
M  END
>  <Mol_ID>
426

>  <Formula>
C22H31NO3

>  <MolWeight>
357.48644

>  <Cat>
S1754

>  <Name>
Oxybutynin

>  <Synonyms>
N/A

>  <Target>
AChR

>  <Form>
Free Base

>  <CAS>
5633-20-5

>  <URL>
http://selleckchem.com/products/Oxybutynin(Ditropan).html

$$$$
