Ozagrel hydrochloride.cdx
 OpenBabel08302522033D

 29 30  0  0  0  0  0  0  0  0999 V2000
    1.3818   -0.2689    0.0330 C   0  0  0  0  0  0  0  0  0  0  0  0
    0.4612   -1.3208   -0.0624 C   0  0  0  0  0  0  0  0  0  0  0  0
   -0.9049   -1.0143   -0.0949 C   0  0  0  0  0  0  0  0  0  0  0  0
   -1.3397    0.3123   -0.0014 C   0  0  0  0  0  0  0  0  0  0  0  0
   -0.4221    1.3608    0.1406 C   0  0  0  0  0  0  0  0  0  0  0  0
    0.9442    1.0579    0.1213 C   0  0  0  0  0  0  0  0  0  0  0  0
   -0.9384    2.7302    0.2936 C   0  0  0  0  0  0  0  0  0  0  0  0
   -0.3189    3.6980    0.9887 C   0  0  0  0  0  0  0  0  0  0  0  0
   -0.9775    5.0097    1.1502 C   0  0  0  0  0  0  0  0  0  0  0  0
   -0.2214    5.8702    1.8606 O   0  0  0  0  0  0  0  0  0  0  0  0
   -2.0755    5.2951    0.7058 O   0  0  0  0  0  0  0  0  0  0  0  0
    0.9316   -2.7521   -0.1133 C   0  0  0  0  0  0  0  0  0  0  0  0
    1.0666   -3.3269    1.2143 N   0  0  0  0  0  0  0  0  0  0  0  0
    0.0821   -3.9674    1.9125 C   0  0  0  0  0  0  0  0  0  0  0  0
    0.5375   -4.4658    3.0412 N   0  0  0  0  0  0  0  0  0  0  0  0
    1.8670   -4.1349    3.0707 C   0  0  0  0  0  0  0  0  0  0  0  0
    2.2191   -3.4274    1.9443 C   0  0  0  0  0  0  0  0  0  0  0  0
    2.4509   -0.4718    0.0460 H   0  0  0  0  0  0  0  0  0  0  0  0
   -1.6490   -1.8036   -0.1818 H   0  0  0  0  0  0  0  0  0  0  0  0
   -2.4093    0.5149   -0.0164 H   0  0  0  0  0  0  0  0  0  0  0  0
    1.6918    1.8449    0.1790 H   0  0  0  0  0  0  0  0  0  0  0  0
   -1.9173    2.9219   -0.1467 H   0  0  0  0  0  0  0  0  0  0  0  0
    0.6348    3.5341    1.4686 H   0  0  0  0  0  0  0  0  0  0  0  0
    0.6326    5.5242    2.1745 H   0  0  0  0  0  0  0  0  0  0  0  0
    0.2316   -3.3759   -0.6805 H   0  0  0  0  0  0  0  0  0  0  0  0
    1.9040   -2.8261   -0.6145 H   0  0  0  0  0  0  0  0  0  0  0  0
   -0.9370   -4.0477    1.5571 H   0  0  0  0  0  0  0  0  0  0  0  0
    2.4996   -4.4319    3.8979 H   0  0  0  0  0  0  0  0  0  0  0  0
    3.1611   -3.0101    1.6188 H   0  0  0  0  0  0  0  0  0  0  0  0
  1  2  2  0  0  0  0
  1 18  1  0  0  0  0
  2  3  1  0  0  0  0
  2 12  1  0  0  0  0
  3  4  2  0  0  0  0
  3 19  1  0  0  0  0
  4  5  1  0  0  0  0
  4 20  1  0  0  0  0
  5  6  2  0  0  0  0
  5  7  1  0  0  0  0
  6  1  1  0  0  0  0
  6 21  1  0  0  0  0
  7  8  2  0  0  0  0
  7 22  1  0  0  0  0
  8  9  1  0  0  0  0
  8 23  1  0  0  0  0
  9 10  1  0  0  0  0
  9 11  2  0  0  0  0
 10 24  1  0  0  0  0
 12 13  1  0  0  0  0
 12 25  1  0  0  0  0
 12 26  1  0  0  0  0
 13 14  1  0  0  0  0
 14 15  2  0  0  0  0
 14 27  1  0  0  0  0
 15 16  1  0  0  0  0
 16 17  2  0  0  0  0
 16 28  1  0  0  0  0
 17 13  1  0  0  0  0
 17 29  1  0  0  0  0
M  END
>  <Mol_ID>
1181

>  <Formula>
C13H13ClN2O2

>  <MolWeight>
264.70752

>  <Cat>
S2067

>  <Name>
Ozagrel HCl

>  <Synonyms>
OKY-046 HCl

>  <Target>
P450 (e.g. CYP17),Prostaglandin Receptor

>  <Form>
HCl

>  <CAS>
78712-43-3

>  <URL>
http://selleckchem.com/products/ozagrel-hydrochloride.html

$$$$
