p-Anisic acid
 OpenBabel08302521363D

 19 19  0  0  0  0  0  0  0  0999 V2000
    1.0416   -0.0440   -0.0566 C   0  0  0  0  0  0  0  0  0  0  0  0
    0.4288   -1.0979    0.5195 O   0  0  0  0  0  0  0  0  0  0  0  0
    0.4376    0.8561   -0.6131 O   0  0  0  0  0  0  0  0  0  0  0  0
    6.6814   -0.0261    0.3789 O   0  0  0  0  0  0  0  0  0  0  0  0
    7.4051    1.1982    0.4138 C   0  0  0  0  0  0  0  0  0  0  0  0
    2.5210   -0.0492    0.0874 C   0  0  0  0  0  0  0  0  0  0  0  0
    3.1803    1.1847    0.1440 C   0  0  0  0  0  0  0  0  0  0  0  0
    3.2664   -1.2320    0.1169 C   0  0  0  0  0  0  0  0  0  0  0  0
    4.5747    1.2396    0.2500 C   0  0  0  0  0  0  0  0  0  0  0  0
    4.6593   -1.1695    0.2276 C   0  0  0  0  0  0  0  0  0  0  0  0
    5.3200    0.0616    0.2919 C   0  0  0  0  0  0  0  0  0  0  0  0
    0.9971   -1.6510    1.0855 H   0  0  0  0  0  0  0  0  0  0  0  0
    7.2211    1.7962   -0.4850 H   0  0  0  0  0  0  0  0  0  0  0  0
    7.1707    1.7649    1.3210 H   0  0  0  0  0  0  0  0  0  0  0  0
    8.4720    0.9559    0.4371 H   0  0  0  0  0  0  0  0  0  0  0  0
    2.6091    2.1106    0.0965 H   0  0  0  0  0  0  0  0  0  0  0  0
    2.7951   -2.2055    0.0185 H   0  0  0  0  0  0  0  0  0  0  0  0
    5.0439    2.2174    0.2868 H   0  0  0  0  0  0  0  0  0  0  0  0
    5.2412   -2.0891    0.2454 H   0  0  0  0  0  0  0  0  0  0  0  0
  1  2  1  0  0  0  0
  1  3  2  0  0  0  0
  1  6  1  0  0  0  0
  2 12  1  0  0  0  0
  4  5  1  0  0  0  0
  4 11  1  0  0  0  0
  5 13  1  0  0  0  0
  5 14  1  0  0  0  0
  5 15  1  0  0  0  0
  6  7  2  0  0  0  0
  6  8  1  0  0  0  0
  7  9  1  0  0  0  0
  7 16  1  0  0  0  0
  8 10  2  0  0  0  0
  8 17  1  0  0  0  0
  9 11  2  0  0  0  0
  9 18  1  0  0  0  0
 10 11  1  0  0  0  0
 10 19  1  0  0  0  0
M  END
>  <Mol_ID>
7073

>  <Formula>
C8H8O3

>  <MolWeight>
152.14732

>  <Cat>
E4086

>  <Name>
p-Anisic acid

>  <Synonyms>
4-Methoxybenzoic acid

>  <Target>
antibacterial

>  <Form>
free base

>  <CAS>
100-09-4

>  <URL>
https://www.selleckchem.com/products/p-anisic-acid.html

$$$$
