p-Coumaric acid ethyl ester
 OpenBabel08302520143D

 26 26  0  0  0  0  0  0  0  0999 V2000
    0.9957   -0.0085    0.1405 C   0  0  0  0  0  0  0  0  0  0  0  0
    0.2389    1.0966   -0.5268 C   0  0  0  0  0  0  0  0  0  0  0  0
   -1.0868    1.0487   -0.7025 C   0  0  0  0  0  0  0  0  0  0  0  0
   -1.8158    2.0552   -1.4755 C   0  0  0  0  0  0  0  0  0  0  0  0
   -1.9959    1.8903   -2.8569 C   0  0  0  0  0  0  0  0  0  0  0  0
   -2.7279    2.8251   -3.5961 C   0  0  0  0  0  0  0  0  0  0  0  0
   -3.2772    3.9252   -2.9479 C   0  0  0  0  0  0  0  0  0  0  0  0
   -3.1022    4.1042   -1.5799 C   0  0  0  0  0  0  0  0  0  0  0  0
   -2.3700    3.1700   -0.8422 C   0  0  0  0  0  0  0  0  0  0  0  0
   -4.0100    4.8543   -3.6245 O   0  0  0  0  0  0  0  0  0  0  0  0
    2.1966    0.0413    0.2744 O   0  0  0  0  0  0  0  0  0  0  0  0
    0.1872   -1.0343    0.5452 O   0  0  0  0  0  0  0  0  0  0  0  0
    0.7398   -2.1760    1.2598 C   0  0  0  0  0  0  0  0  0  0  0  0
    1.3532   -3.2044    0.3179 C   0  0  0  0  0  0  0  0  0  0  0  0
    0.8112    1.9458   -0.9011 H   0  0  0  0  0  0  0  0  0  0  0  0
   -1.6752    0.2248   -0.3124 H   0  0  0  0  0  0  0  0  0  0  0  0
   -1.5899    1.0205   -3.3703 H   0  0  0  0  0  0  0  0  0  0  0  0
   -2.8641    2.6728   -4.6629 H   0  0  0  0  0  0  0  0  0  0  0  0
   -3.5414    4.9659   -1.0858 H   0  0  0  0  0  0  0  0  0  0  0  0
   -2.2514    3.3129    0.2288 H   0  0  0  0  0  0  0  0  0  0  0  0
   -4.0865    4.5744   -4.5518 H   0  0  0  0  0  0  0  0  0  0  0  0
    1.4403   -1.8747    2.0539 H   0  0  0  0  0  0  0  0  0  0  0  0
   -0.1137   -2.6473    1.7673 H   0  0  0  0  0  0  0  0  0  0  0  0
    2.1872   -2.7875   -0.2511 H   0  0  0  0  0  0  0  0  0  0  0  0
    1.7170   -4.0783    0.8724 H   0  0  0  0  0  0  0  0  0  0  0  0
    0.6097   -3.5429   -0.4121 H   0  0  0  0  0  0  0  0  0  0  0  0
  1  2  1  0  0  0  0
  1 11  2  0  0  0  0
  1 12  1  0  0  0  0
  2  3  2  0  0  0  0
  2 15  1  0  0  0  0
  3  4  1  0  0  0  0
  3 16  1  0  0  0  0
  4  5  2  0  0  0  0
  4  9  1  0  0  0  0
  5  6  1  0  0  0  0
  5 17  1  0  0  0  0
  6  7  2  0  0  0  0
  6 18  1  0  0  0  0
  7  8  1  0  0  0  0
  7 10  1  0  0  0  0
  8  9  2  0  0  0  0
  8 19  1  0  0  0  0
  9 20  1  0  0  0  0
 10 21  1  0  0  0  0
 12 13  1  0  0  0  0
 13 14  1  0  0  0  0
 13 22  1  0  0  0  0
 13 23  1  0  0  0  0
 14 24  1  0  0  0  0
 14 25  1  0  0  0  0
 14 26  1  0  0  0  0
M  END
>  <Mol_ID>
3147

>  <Formula>
C11H12O3

>  <MolWeight>
192.21118

>  <Cat>
S5834

>  <Name>
p-Coumaric acid ethyl ester

>  <Synonyms>
N/A

>  <Target>
Immunology & Inflammation related

>  <Form>
ethyl ester

>  <CAS>
7362-39-2

>  <URL>
http://www.selleckchem.com/products/p-coumaric-acid-ethyl-ester.html

$$$$
