p-Hydroxybenzaldehyde
 OpenBabel08302520383D

 15 15  0  0  0  0  0  0  0  0999 V2000
   -1.8889    0.0597   -0.0109 C   0  0  0  0  0  0  0  0  0  0  0  0
   -1.2255   -1.1719   -0.0039 C   0  0  0  0  0  0  0  0  0  0  0  0
   -1.1636    1.2549   -0.0027 C   0  0  0  0  0  0  0  0  0  0  0  0
   -3.3652    0.1063   -0.0304 C   0  0  0  0  0  0  0  0  0  0  0  0
    0.1704   -1.2102    0.0073 C   0  0  0  0  0  0  0  0  0  0  0  0
    0.2317    1.2125    0.0089 C   0  0  0  0  0  0  0  0  0  0  0  0
   -4.0481   -0.9104   -0.0428 O   0  0  0  0  0  0  0  0  0  0  0  0
    0.8864   -0.0164    0.0111 C   0  0  0  0  0  0  0  0  0  0  0  0
    2.2494   -0.0048    0.0156 O   0  0  0  0  0  0  0  0  0  0  0  0
   -1.7932   -2.1003   -0.0083 H   0  0  0  0  0  0  0  0  0  0  0  0
   -1.6668    2.2180   -0.0065 H   0  0  0  0  0  0  0  0  0  0  0  0
   -3.8281    1.1074   -0.0351 H   0  0  0  0  0  0  0  0  0  0  0  0
    0.6748   -2.1721    0.0127 H   0  0  0  0  0  0  0  0  0  0  0  0
    0.8102    2.1331    0.0149 H   0  0  0  0  0  0  0  0  0  0  0  0
    2.5716   -0.9212   -0.0125 H   0  0  0  0  0  0  0  0  0  0  0  0
  1  2  2  0  0  0  0
  1  3  1  0  0  0  0
  1  4  1  0  0  0  0
  2  5  1  0  0  0  0
  2 10  1  0  0  0  0
  3  6  2  0  0  0  0
  3 11  1  0  0  0  0
  4  7  2  0  0  0  0
  4 12  1  0  0  0  0
  5  8  2  0  0  0  0
  5 13  1  0  0  0  0
  6  8  1  0  0  0  0
  6 14  1  0  0  0  0
  8  9  1  0  0  0  0
  9 15  1  0  0  0  0
M  END
>  <Mol_ID>
3460

>  <Formula>
C7H6O2

>  <MolWeight>
122.12134

>  <Cat>
S6008

>  <Name>
p-Hydroxybenzaldehyde

>  <Synonyms>
4-Hydroxybenzaldehyde, 4-Formylphenol, p-Formylphenol

>  <Target>
GABA Receptor

>  <Form>
free base

>  <CAS>
123-08-0

>  <URL>
http://www.selleck.cn/products/p-hydroxybenzaldehyde.html

$$$$
