p-Nitrobenzyl mesylate
 OpenBabel08302521343D

 24 24  0  0  0  0  0  0  0  0999 V2000
    0.9734   -0.0040    0.0130 C   0  0  0  0  0  0  0  0  0  0  0  0
    1.9661   -0.9865   -0.2289 O   0  0  0  0  0  0  0  0  0  0  0  0
    2.6604   -1.6451    1.0854 S   0  0  0  0  0  0  0  0  0  0  0  0
    3.7705   -2.7431    0.2391 C   0  0  0  0  0  0  0  0  0  0  0  0
    3.4313   -0.6214    1.7579 O   0  0  0  0  0  0  0  0  0  0  0  0
    1.6630   -2.4316    1.7799 O   0  0  0  0  0  0  0  0  0  0  0  0
   -0.9958    1.8564   -5.0931 N   0  3  0  0  0  0  0  0  0  0  0  0
   -1.5003    1.0193   -5.8554 O   0  5  0  0  0  0  0  0  0  0  0  0
   -0.8627    3.0593   -5.3602 O   0  0  0  0  0  0  0  0  0  0  0  0
    0.4448    0.4888   -1.3123 C   0  0  0  0  0  0  0  0  0  0  0  0
   -0.1861   -0.4008   -2.1970 C   0  0  0  0  0  0  0  0  0  0  0  0
    0.5717    1.8385   -1.6743 C   0  0  0  0  0  0  0  0  0  0  0  0
   -0.6654    0.0428   -3.4325 C   0  0  0  0  0  0  0  0  0  0  0  0
    0.0929    2.2926   -2.9068 C   0  0  0  0  0  0  0  0  0  0  0  0
   -0.5173    1.3895   -3.7858 C   0  0  0  0  0  0  0  0  0  0  0  0
    1.4094    0.8240    0.5837 H   0  0  0  0  0  0  0  0  0  0  0  0
    0.1479   -0.4284    0.5958 H   0  0  0  0  0  0  0  0  0  0  0  0
    4.4569   -2.1526   -0.3710 H   0  0  0  0  0  0  0  0  0  0  0  0
    4.3289   -3.3046    0.9915 H   0  0  0  0  0  0  0  0  0  0  0  0
    3.1881   -3.4278   -0.3805 H   0  0  0  0  0  0  0  0  0  0  0  0
   -0.2998   -1.4498   -1.9272 H   0  0  0  0  0  0  0  0  0  0  0  0
    1.0504    2.5481   -1.0010 H   0  0  0  0  0  0  0  0  0  0  0  0
   -1.1425   -0.6692   -4.1028 H   0  0  0  0  0  0  0  0  0  0  0  0
    0.2082    3.3434   -3.1655 H   0  0  0  0  0  0  0  0  0  0  0  0
  1  2  1  0  0  0  0
  1 10  1  0  0  0  0
  1 16  1  0  0  0  0
  1 17  1  0  0  0  0
  2  3  1  0  0  0  0
  3  4  1  0  0  0  0
  3  5  2  0  0  0  0
  3  6  2  0  0  0  0
  4 18  1  0  0  0  0
  4 19  1  0  0  0  0
  4 20  1  0  0  0  0
  7  8  1  0  0  0  0
  7  9  2  0  0  0  0
  7 15  1  0  0  0  0
 10 11  2  0  0  0  0
 10 12  1  0  0  0  0
 11 13  1  0  0  0  0
 11 21  1  0  0  0  0
 12 14  2  0  0  0  0
 12 22  1  0  0  0  0
 13 15  2  0  0  0  0
 13 23  1  0  0  0  0
 14 15  1  0  0  0  0
 14 24  1  0  0  0  0
M  CHG  2   7   1   8  -1
M  END
>  <Mol_ID>
6424

>  <Formula>
C8H9NO5S

>  <MolWeight>
231.22576

>  <Cat>
E1248

>  <Name>
p-Nitrobenzyl mesylate

>  <Target>
Others

>  <Form>
free base

>  <CAS>
39628-94-9

>  <URL>
http://www.selleckchem.com/products/p-nitrobenzyl-mesylate.html

$$$$
