p-Toluic acid
 OpenBabel08302521353D

 18 18  0  0  0  0  0  0  0  0999 V2000
    2.4962    0.0192    0.0418 C   0  0  0  0  0  0  0  0  0  0  0  0
    3.1121   -1.0295   -0.5404 O   0  0  0  0  0  0  0  0  0  0  0  0
    3.1052    0.9507    0.5401 O   0  0  0  0  0  0  0  0  0  0  0  0
   -3.3036    0.0074   -0.0420 C   0  0  0  0  0  0  0  0  0  0  0  0
    1.0101   -0.0321   -0.0099 C   0  0  0  0  0  0  0  0  0  0  0  0
    0.3141    1.1824   -0.0092 C   0  0  0  0  0  0  0  0  0  0  0  0
    0.2943   -1.2355   -0.0050 C   0  0  0  0  0  0  0  0  0  0  0  0
   -1.0815    1.1992   -0.0232 C   0  0  0  0  0  0  0  0  0  0  0  0
   -1.1053   -1.2156   -0.0244 C   0  0  0  0  0  0  0  0  0  0  0  0
   -1.8038   -0.0008   -0.0346 C   0  0  0  0  0  0  0  0  0  0  0  0
    2.5341   -1.6201   -1.0544 H   0  0  0  0  0  0  0  0  0  0  0  0
   -3.6782   -0.4992   -0.9368 H   0  0  0  0  0  0  0  0  0  0  0  0
   -3.6889   -0.5003    0.8483 H   0  0  0  0  0  0  0  0  0  0  0  0
   -3.7003    1.0280   -0.0435 H   0  0  0  0  0  0  0  0  0  0  0  0
    0.8616    2.1250    0.0127 H   0  0  0  0  0  0  0  0  0  0  0  0
    0.7978   -2.1964    0.0524 H   0  0  0  0  0  0  0  0  0  0  0  0
   -1.5993    2.1561   -0.0151 H   0  0  0  0  0  0  0  0  0  0  0  0
   -1.6536   -2.1552   -0.0121 H   0  0  0  0  0  0  0  0  0  0  0  0
  1  2  1  0  0  0  0
  1  3  2  0  0  0  0
  1  5  1  0  0  0  0
  2 11  1  0  0  0  0
  4 10  1  0  0  0  0
  4 12  1  0  0  0  0
  4 13  1  0  0  0  0
  4 14  1  0  0  0  0
  5  6  2  0  0  0  0
  5  7  1  0  0  0  0
  6  8  1  0  0  0  0
  6 15  1  0  0  0  0
  7  9  2  0  0  0  0
  7 16  1  0  0  0  0
  8 10  2  0  0  0  0
  8 17  1  0  0  0  0
  9 10  1  0  0  0  0
  9 18  1  0  0  0  0
M  END
>  <Mol_ID>
6993

>  <Formula>
C8H8O2

>  <MolWeight>
136.14792

>  <Cat>
E4074

>  <Name>
p-Toluic acid

>  <Synonyms>
p-Toluic Acid

>  <Target>
Endogenous Metabolite

>  <Form>
free base

>  <CAS>
99-94-5

>  <URL>
https://www.selleckchem.com/products/p-toluic-acid.html

$$$$
