p38-¦Á MAPK-IN-1
 OpenBabel08302521353D

 70 73  0  0  0  0  0  0  0  0999 V2000
    0.7619    0.1608   -0.2191 N   0  0  0  0  0  0  0  0  0  0  0  0
    0.3455   -0.7968   -1.1362 C   0  0  0  0  0  0  0  0  0  0  0  0
   -1.0211   -0.6907   -1.3592 N   0  0  0  0  0  0  0  0  0  0  0  0
    1.0922   -1.6228   -1.6477 O   0  0  0  0  0  0  0  0  0  0  0  0
    5.6857    1.1476   -0.2756 C   0  0  0  0  0  0  0  0  0  0  0  0
    6.6160   -0.0780   -0.3162 C   0  0  0  0  0  0  0  0  0  0  0  0
    5.6972    1.8197   -1.6657 C   0  0  0  0  0  0  0  0  0  0  0  0
    6.2643    2.1721    0.7284 C   0  0  0  0  0  0  0  0  0  0  0  0
   -0.0128   -0.9545    6.3642 C   0  0  0  0  0  0  0  0  0  0  0  0
   -3.9079   -3.5760   -5.1697 O   0  0  0  0  0  0  0  0  0  0  0  0
   -3.5309   -4.9174   -5.5024 C   0  0  0  0  0  0  0  0  0  0  0  0
   -4.5607   -5.5141   -6.4800 C   0  0  0  0  0  0  0  0  0  0  0  0
    2.6264    0.2309    1.4070 N   0  0  0  0  0  0  0  0  0  0  0  0
    2.1096    0.2311    0.1161 C   0  0  0  0  0  0  0  0  0  0  0  0
    3.9214    0.6510    1.4086 N   0  0  0  0  0  0  0  0  0  0  0  0
    3.1944    0.3705   -0.7235 C   0  0  0  0  0  0  0  0  0  0  0  0
    4.2780    0.7187    0.1186 C   0  0  0  0  0  0  0  0  0  0  0  0
    1.9921   -0.1536    2.6264 C   0  0  0  0  0  0  0  0  0  0  0  0
    0.7646   -0.8312    2.6452 C   0  0  0  0  0  0  0  0  0  0  0  0
    2.6215    0.1267    3.8467 C   0  0  0  0  0  0  0  0  0  0  0  0
    0.1155   -1.0908    3.8536 C   0  0  0  0  0  0  0  0  0  0  0  0
    1.9822   -0.1640    5.0561 C   0  0  0  0  0  0  0  0  0  0  0  0
    0.7081   -0.7402    5.0688 C   0  0  0  0  0  0  0  0  0  0  0  0
   -1.7647   -1.5224   -2.2237 C   0  0  0  0  0  0  0  0  0  0  0  0
   -1.3448   -2.7993   -2.5953 C   0  0  0  0  0  0  0  0  0  0  0  0
   -2.9558   -1.0228   -2.7573 C   0  0  0  0  0  0  0  0  0  0  0  0
   -2.0413   -3.5245   -3.5673 C   0  0  0  0  0  0  0  0  0  0  0  0
   -3.6488   -1.7468   -3.7357 C   0  0  0  0  0  0  0  0  0  0  0  0
   -3.1827   -2.9903   -4.1645 C   0  0  0  0  0  0  0  0  0  0  0  0
   -4.3071   -6.9264   -6.8389 N   0  0  0  0  0  0  0  0  0  0  0  0
   -5.3403   -7.4351   -7.7745 C   0  0  0  0  0  0  0  0  0  0  0  0
   -4.2771   -7.8467   -5.6758 C   0  0  0  0  0  0  0  0  0  0  0  0
   -6.7055   -7.7210   -7.1164 C   0  0  0  0  0  0  0  0  0  0  0  0
   -5.6549   -8.0565   -5.0295 C   0  0  0  0  0  0  0  0  0  0  0  0
   -6.5857   -8.5870   -5.9798 O   0  0  0  0  0  0  0  0  0  0  0  0
    0.0883    0.3988    0.4956 H   0  0  0  0  0  0  0  0  0  0  0  0
   -1.4177    0.2164   -1.1596 H   0  0  0  0  0  0  0  0  0  0  0  0
    6.2677   -0.8191   -1.0446 H   0  0  0  0  0  0  0  0  0  0  0  0
    7.6380    0.2063   -0.5947 H   0  0  0  0  0  0  0  0  0  0  0  0
    6.6638   -0.5739    0.6601 H   0  0  0  0  0  0  0  0  0  0  0  0
    5.0341    2.6932   -1.6897 H   0  0  0  0  0  0  0  0  0  0  0  0
    6.7045    2.1614   -1.9345 H   0  0  0  0  0  0  0  0  0  0  0  0
    5.3692    1.1322   -2.4533 H   0  0  0  0  0  0  0  0  0  0  0  0
    5.6294    3.0637    0.7948 H   0  0  0  0  0  0  0  0  0  0  0  0
    6.3495    1.7498    1.7365 H   0  0  0  0  0  0  0  0  0  0  0  0
    7.2666    2.4987    0.4281 H   0  0  0  0  0  0  0  0  0  0  0  0
    0.6009   -1.5410    7.0520 H   0  0  0  0  0  0  0  0  0  0  0  0
   -0.2477    0.0138    6.8181 H   0  0  0  0  0  0  0  0  0  0  0  0
   -0.9572   -1.4900    6.2122 H   0  0  0  0  0  0  0  0  0  0  0  0
   -2.5366   -4.9244   -5.9666 H   0  0  0  0  0  0  0  0  0  0  0  0
   -3.5247   -5.5056   -4.5804 H   0  0  0  0  0  0  0  0  0  0  0  0
   -5.5634   -5.3669   -6.0651 H   0  0  0  0  0  0  0  0  0  0  0  0
   -4.5305   -4.9085   -7.3953 H   0  0  0  0  0  0  0  0  0  0  0  0
    3.1692    0.3604   -1.8051 H   0  0  0  0  0  0  0  0  0  0  0  0
    0.2863   -1.2045    1.7479 H   0  0  0  0  0  0  0  0  0  0  0  0
    3.6092    0.5849    3.8738 H   0  0  0  0  0  0  0  0  0  0  0  0
   -0.8566   -1.5821    3.8396 H   0  0  0  0  0  0  0  0  0  0  0  0
    2.4853    0.0740    5.9907 H   0  0  0  0  0  0  0  0  0  0  0  0
   -0.4607   -3.2550   -2.1574 H   0  0  0  0  0  0  0  0  0  0  0  0
   -3.3366   -0.0487   -2.4642 H   0  0  0  0  0  0  0  0  0  0  0  0
   -1.6393   -4.4927   -3.8473 H   0  0  0  0  0  0  0  0  0  0  0  0
   -4.5462   -1.3258   -4.1822 H   0  0  0  0  0  0  0  0  0  0  0  0
   -4.9607   -8.3756   -8.1961 H   0  0  0  0  0  0  0  0  0  0  0  0
   -5.4650   -6.7521   -8.6230 H   0  0  0  0  0  0  0  0  0  0  0  0
   -3.9161   -8.8177   -6.0411 H   0  0  0  0  0  0  0  0  0  0  0  0
   -3.5394   -7.5327   -4.9274 H   0  0  0  0  0  0  0  0  0  0  0  0
   -7.2066   -6.7971   -6.8080 H   0  0  0  0  0  0  0  0  0  0  0  0
   -7.3603   -8.2232   -7.8360 H   0  0  0  0  0  0  0  0  0  0  0  0
   -5.5691   -8.7782   -4.2098 H   0  0  0  0  0  0  0  0  0  0  0  0
   -6.0543   -7.1275   -4.6052 H   0  0  0  0  0  0  0  0  0  0  0  0
  1  2  1  0  0  0  0
  1 14  1  0  0  0  0
  1 36  1  0  0  0  0
  2  3  1  0  0  0  0
  2  4  2  0  0  0  0
  3 24  1  0  0  0  0
  3 37  1  0  0  0  0
  5  6  1  0  0  0  0
  5  7  1  0  0  0  0
  5  8  1  0  0  0  0
  5 17  1  0  0  0  0
  6 38  1  0  0  0  0
  6 39  1  0  0  0  0
  6 40  1  0  0  0  0
  7 41  1  0  0  0  0
  7 42  1  0  0  0  0
  7 43  1  0  0  0  0
  8 44  1  0  0  0  0
  8 45  1  0  0  0  0
  8 46  1  0  0  0  0
  9 23  1  0  0  0  0
  9 47  1  0  0  0  0
  9 48  1  0  0  0  0
  9 49  1  0  0  0  0
 10 11  1  0  0  0  0
 10 29  1  0  0  0  0
 11 12  1  0  0  0  0
 11 50  1  0  0  0  0
 11 51  1  0  0  0  0
 12 30  1  0  0  0  0
 12 52  1  0  0  0  0
 12 53  1  0  0  0  0
 13 14  1  0  0  0  0
 13 15  1  0  0  0  0
 13 18  1  0  0  0  0
 14 16  2  0  0  0  0
 15 17  2  0  0  0  0
 16 17  1  0  0  0  0
 16 54  1  0  0  0  0
 18 19  2  0  0  0  0
 18 20  1  0  0  0  0
 19 21  1  0  0  0  0
 19 55  1  0  0  0  0
 20 22  2  0  0  0  0
 20 56  1  0  0  0  0
 21 23  2  0  0  0  0
 21 57  1  0  0  0  0
 22 23  1  0  0  0  0
 22 58  1  0  0  0  0
 24 25  2  0  0  0  0
 24 26  1  0  0  0  0
 25 27  1  0  0  0  0
 25 59  1  0  0  0  0
 26 28  2  0  0  0  0
 26 60  1  0  0  0  0
 27 29  2  0  0  0  0
 27 61  1  0  0  0  0
 28 29  1  0  0  0  0
 28 62  1  0  0  0  0
 30 31  1  0  0  0  0
 30 32  1  0  0  0  0
 31 33  1  0  0  0  0
 31 63  1  0  0  0  0
 31 64  1  0  0  0  0
 32 34  1  0  0  0  0
 32 65  1  0  0  0  0
 32 66  1  0  0  0  0
 33 35  1  0  0  0  0
 33 67  1  0  0  0  0
 33 68  1  0  0  0  0
 34 35  1  0  0  0  0
 34 69  1  0  0  0  0
 34 70  1  0  0  0  0
M  END
>  <Mol_ID>
6917

>  <Formula>
C27H35N5O3

>  <MolWeight>
477.5985

>  <Cat>
E2372

>  <Name>
p38-¦Á MAPK-IN-1

>  <Target>
p38 MAPK

>  <Form>
Free base

>  <CAS>
443913-15-3

>  <URL>
https://www.selleckchem.com/products/p38-alpha-mapk-in-1.html

$$$$
