PA-824.cdx
 OpenBabel08302521303D

 37 39  0  0  0  0  0  0  0  0999 V2000
   -0.9631    1.5054    0.7549 O   0  0  0  0  0  0  0  0  0  0  0  0
    0.1880    1.0448    0.2891 C   0  0  0  0  0  0  0  0  0  0  0  0
    0.3511   -0.2360   -0.1457 N   0  0  0  0  0  0  0  0  0  0  0  0
   -0.7101   -1.2107   -0.1666 C   0  0  0  0  0  0  0  0  0  0  0  0
   -2.1119   -0.5991    0.0001 C   0  0  1  0  0  0  0  0  0  0  0  0
   -2.1106    0.9378    0.1318 C   0  0  0  0  0  0  0  0  0  0  0  0
    1.3137    1.7146    0.2805 N   0  0  0  0  0  0  0  0  0  0  0  0
    2.2515    0.8031   -0.1726 C   0  0  0  0  0  0  0  0  0  0  0  0
    1.6719   -0.4278   -0.4260 C   0  0  0  0  0  0  0  0  0  0  0  0
   -2.8960   -1.0215   -1.1276 O   0  0  0  0  0  0  0  0  0  0  0  0
   -4.2733   -0.6549   -1.0673 C   0  0  0  0  0  0  0  0  0  0  0  0
   -4.9723   -1.2408   -2.2657 C   0  0  0  0  0  0  0  0  0  0  0  0
   -6.0889   -2.0715   -2.1130 C   0  0  0  0  0  0  0  0  0  0  0  0
   -6.7557   -2.5891   -3.2309 C   0  0  0  0  0  0  0  0  0  0  0  0
   -6.3387   -2.2484   -4.5159 C   0  0  0  0  0  0  0  0  0  0  0  0
   -5.2038   -1.4488   -4.6722 C   0  0  0  0  0  0  0  0  0  0  0  0
   -4.5288   -0.9429   -3.5602 C   0  0  0  0  0  0  0  0  0  0  0  0
   -6.9102   -2.6460   -5.6849 O   0  0  0  0  0  0  0  0  0  0  0  0
   -8.2913   -2.9714   -5.7180 C   0  0  0  0  0  0  0  0  0  0  0  0
   -8.9880   -2.5319   -4.6490 F   0  0  0  0  0  0  0  0  0  0  0  0
   -8.8343   -2.4048   -6.8199 F   0  0  0  0  0  0  0  0  0  0  0  0
   -8.4380   -4.3097   -5.8183 F   0  0  0  0  0  0  0  0  0  0  0  0
    3.6494    1.1568   -0.2976 N   0  3  0  0  0  0  0  0  0  0  0  0
    4.4308    0.2391   -0.5932 O   0  0  0  0  0  0  0  0  0  0  0  0
    3.9718    2.3352   -0.1042 O   0  5  0  0  0  0  0  0  0  0  0  0
   -0.5038   -1.9019    0.6592 H   0  0  0  0  0  0  0  0  0  0  0  0
   -0.6215   -1.7714   -1.1034 H   0  0  0  0  0  0  0  0  0  0  0  0
   -2.5553   -1.0384    0.9036 H   0  0  0  0  0  0  0  0  0  0  0  0
   -2.2566    1.4185   -0.8439 H   0  0  0  0  0  0  0  0  0  0  0  0
   -2.9746    1.2322    0.7416 H   0  0  0  0  0  0  0  0  0  0  0  0
    2.0833   -1.3748   -0.7488 H   0  0  0  0  0  0  0  0  0  0  0  0
   -4.7150   -1.0221   -0.1343 H   0  0  0  0  0  0  0  0  0  0  0  0
   -4.3861    0.4345   -1.1043 H   0  0  0  0  0  0  0  0  0  0  0  0
   -6.4517   -2.3260   -1.1193 H   0  0  0  0  0  0  0  0  0  0  0  0
   -7.5964   -3.2545   -3.0568 H   0  0  0  0  0  0  0  0  0  0  0  0
   -4.8455   -1.2052   -5.6703 H   0  0  0  0  0  0  0  0  0  0  0  0
   -3.6532   -0.3143   -3.7094 H   0  0  0  0  0  0  0  0  0  0  0  0
  1  2  1  0  0  0  0
  1  6  1  0  0  0  0
  2  3  1  0  0  0  0
  2  7  2  0  0  0  0
  3  4  1  0  0  0  0
  3  9  1  0  0  0  0
  4  5  1  0  0  0  0
  4 26  1  0  0  0  0
  4 27  1  0  0  0  0
  5  6  1  0  0  0  0
  5 28  1  1  0  0  0
  5 10  1  0  0  0  0
  6 29  1  0  0  0  0
  6 30  1  0  0  0  0
  7  8  1  0  0  0  0
  8  9  2  0  0  0  0
  8 23  1  0  0  0  0
  9 31  1  0  0  0  0
 10 11  1  0  0  0  0
 11 12  1  0  0  0  0
 11 32  1  0  0  0  0
 11 33  1  0  0  0  0
 12 13  2  0  0  0  0
 12 17  1  0  0  0  0
 13 14  1  0  0  0  0
 13 34  1  0  0  0  0
 14 15  2  0  0  0  0
 14 35  1  0  0  0  0
 15 16  1  0  0  0  0
 15 18  1  0  0  0  0
 16 17  2  0  0  0  0
 16 36  1  0  0  0  0
 17 37  1  0  0  0  0
 18 19  1  0  0  0  0
 19 20  1  0  0  0  0
 19 21  1  0  0  0  0
 19 22  1  0  0  0  0
 23 24  2  0  0  0  0
 23 25  1  0  0  0  0
M  CHG  2  23   1  25  -1
M  END
>  <Mol_ID>
532

>  <Formula>
C14H12F3N3O5

>  <MolWeight>
359.2573896

>  <Cat>
S1162

>  <Name>
Pretomanid (PA-824)

>  <Synonyms>
N/A

>  <Target>
Bacterial

>  <Form>
free base

>  <CAS>
187235-37-6

>  <URL>
http://selleckchem.com/products/pa-824.html

$$$$
