Pacritinib (SB1518).cdx
 OpenBabel08302520413D

 67 71  0  0  0  0  0  0  0  0999 V2000
   -0.5670    1.5061   -0.5015 C   0  0  0  0  0  0  0  0  0  0  0  0
   -0.6130    0.9730   -1.7497 C   0  0  0  0  0  0  0  0  0  0  0  0
    0.0597    1.5218   -2.7923 N   0  0  0  0  0  0  0  0  0  0  0  0
    0.9946    2.4938   -2.6093 C   0  0  0  0  0  0  0  0  0  0  0  0
    1.1979    2.9264   -1.3866 N   0  0  0  0  0  0  0  0  0  0  0  0
    0.2287    2.6169   -0.4452 C   0  0  0  0  0  0  0  0  0  0  0  0
   -0.3927    3.8802   -0.0091 C   0  0  0  0  0  0  0  0  0  0  0  0
   -0.6362    4.7339   -1.0880 C   0  0  0  0  0  0  0  0  0  0  0  0
   -0.0638    5.9808   -1.0498 C   0  0  0  0  0  0  0  0  0  0  0  0
    0.0468    6.5525    0.2183 C   0  0  0  0  0  0  0  0  0  0  0  0
   -0.2794    5.7943    1.3639 C   0  0  0  0  0  0  0  0  0  0  0  0
   -0.4044    4.4086    1.2617 C   0  0  0  0  0  0  0  0  0  0  0  0
    0.8017    6.3791   -2.2368 C   0  0  0  0  0  0  0  0  0  0  0  0
    0.4418    6.1599   -3.6128 O   0  0  0  0  0  0  0  0  0  0  0  0
   -0.8617    5.7459   -4.0610 C   0  0  0  0  0  0  0  0  0  0  0  0
   -0.6554    4.5591   -5.0320 C   0  0  0  0  0  0  0  0  0  0  0  0
   -0.8941    3.2204   -4.8695 C   0  0  0  0  0  0  0  0  0  0  0  0
   -0.2357    2.0120   -5.7103 C   0  0  0  0  0  0  0  0  0  0  0  0
    0.5488    0.8445   -5.2566 O   0  0  0  0  0  0  0  0  0  0  0  0
    1.8565    0.5244   -4.6418 C   0  0  0  0  0  0  0  0  0  0  0  0
    3.3068    1.1545   -4.8457 C   0  0  0  0  0  0  0  0  0  0  0  0
    3.5297    2.3458   -4.1878 C   0  0  0  0  0  0  0  0  0  0  0  0
    2.5333    3.1225   -4.5991 C   0  0  0  0  0  0  0  0  0  0  0  0
    2.5872    3.2633   -6.0286 C   0  0  0  0  0  0  0  0  0  0  0  0
    3.3366    2.2371   -6.7959 C   0  0  0  0  0  0  0  0  0  0  0  0
    3.8057    1.1181   -6.1252 C   0  0  0  0  0  0  0  0  0  0  0  0
    1.4554    3.3325   -3.7253 N   0  0  0  0  0  0  0  0  0  0  0  0
    4.0793   -0.1280   -6.6403 O   0  0  0  0  0  0  0  0  0  0  0  0
    5.3615   -0.4102   -7.2856 C   0  0  0  0  0  0  0  0  0  0  0  0
    5.6515   -1.9807   -7.2634 C   0  0  0  0  0  0  0  0  0  0  0  0
    6.7369   -2.5771   -8.1025 N   0  0  0  0  0  0  0  0  0  0  0  0
    6.6857   -4.0539   -8.1794 C   0  0  0  0  0  0  0  0  0  0  0  0
    8.0142   -4.6312   -7.7053 C   0  0  0  0  0  0  0  0  0  0  0  0
    8.9728   -3.4662   -7.6942 C   0  0  0  0  0  0  0  0  0  0  0  0
    8.1053   -2.2070   -7.7297 C   0  0  0  0  0  0  0  0  0  0  0  0
   -1.2691    1.2244    0.2729 H   0  0  0  0  0  0  0  0  0  0  0  0
   -1.3110    0.1789   -2.0023 H   0  0  0  0  0  0  0  0  0  0  0  0
   -0.7576    4.2473   -2.0513 H   0  0  0  0  0  0  0  0  0  0  0  0
    0.4563    7.5503    0.3468 H   0  0  0  0  0  0  0  0  0  0  0  0
   -0.2775    6.2576    2.3441 H   0  0  0  0  0  0  0  0  0  0  0  0
   -0.4094    3.7732    2.1408 H   0  0  0  0  0  0  0  0  0  0  0  0
    1.1977    7.3944   -2.1297 H   0  0  0  0  0  0  0  0  0  0  0  0
    1.7161    5.7695   -2.1096 H   0  0  0  0  0  0  0  0  0  0  0  0
   -1.5746    5.5631   -3.2587 H   0  0  0  0  0  0  0  0  0  0  0  0
   -1.2722    6.6003   -4.6131 H   0  0  0  0  0  0  0  0  0  0  0  0
   -0.0715    4.8661   -5.8947 H   0  0  0  0  0  0  0  0  0  0  0  0
   -1.5194    2.9152   -4.0317 H   0  0  0  0  0  0  0  0  0  0  0  0
   -1.1520    1.5016   -6.0426 H   0  0  0  0  0  0  0  0  0  0  0  0
    0.1912    2.4000   -6.6352 H   0  0  0  0  0  0  0  0  0  0  0  0
    1.7714    0.4747   -3.5537 H   0  0  0  0  0  0  0  0  0  0  0  0
    2.0098   -0.5369   -4.8537 H   0  0  0  0  0  0  0  0  0  0  0  0
    4.5096    2.8422   -4.3221 H   0  0  0  0  0  0  0  0  0  0  0  0
    1.9087    3.8815   -6.6084 H   0  0  0  0  0  0  0  0  0  0  0  0
    3.3259    2.2432   -7.8983 H   0  0  0  0  0  0  0  0  0  0  0  0
    1.5804    4.2356   -3.2924 H   0  0  0  0  0  0  0  0  0  0  0  0
    5.2611   -0.0806   -8.3237 H   0  0  0  0  0  0  0  0  0  0  0  0
    6.1885    0.1273   -6.8048 H   0  0  0  0  0  0  0  0  0  0  0  0
    5.7923   -2.2944   -6.2204 H   0  0  0  0  0  0  0  0  0  0  0  0
    4.7125   -2.4512   -7.5823 H   0  0  0  0  0  0  0  0  0  0  0  0
    6.5404   -4.3447   -9.2283 H   0  0  0  0  0  0  0  0  0  0  0  0
    5.8655   -4.5036   -7.6090 H   0  0  0  0  0  0  0  0  0  0  0  0
    7.9225   -5.0566   -6.6989 H   0  0  0  0  0  0  0  0  0  0  0  0
    8.3738   -5.4366   -8.3607 H   0  0  0  0  0  0  0  0  0  0  0  0
    9.6090   -3.4972   -6.8012 H   0  0  0  0  0  0  0  0  0  0  0  0
    9.6392   -3.5210   -8.5638 H   0  0  0  0  0  0  0  0  0  0  0  0
    8.1545   -1.7054   -6.7603 H   0  0  0  0  0  0  0  0  0  0  0  0
    8.5154   -1.5255   -8.4830 H   0  0  0  0  0  0  0  0  0  0  0  0
  1  2  2  0  0  0  0
  1 36  1  0  0  0  0
  2  3  1  0  0  0  0
  2 37  1  0  0  0  0
  3  4  2  0  0  0  0
  4  5  1  0  0  0  0
  4 27  1  0  0  0  0
  5  6  2  0  0  0  0
  6  1  1  0  0  0  0
  6  7  1  0  0  0  0
  7  8  2  0  0  0  0
  8  9  1  0  0  0  0
  8 38  1  0  0  0  0
  9 10  2  0  0  0  0
  9 13  1  0  0  0  0
 10 11  1  0  0  0  0
 10 39  1  0  0  0  0
 11 12  2  0  0  0  0
 11 40  1  0  0  0  0
 12  7  1  0  0  0  0
 12 41  1  0  0  0  0
 13 14  1  0  0  0  0
 13 42  1  0  0  0  0
 13 43  1  0  0  0  0
 14 15  1  0  0  0  0
 15 16  1  0  0  0  0
 15 44  1  0  0  0  0
 15 45  1  0  0  0  0
 16 17  2  0  0  0  0
 16 46  1  0  0  0  0
 17 18  1  0  0  0  0
 17 47  1  0  0  0  0
 18 19  1  0  0  0  0
 18 48  1  0  0  0  0
 18 49  1  0  0  0  0
 19 20  1  0  0  0  0
 20 21  1  0  0  0  0
 20 50  1  0  0  0  0
 20 51  1  0  0  0  0
 21 22  2  0  0  0  0
 22 23  1  0  0  0  0
 22 52  1  0  0  0  0
 23 24  2  0  0  0  0
 23 27  1  0  0  0  0
 24 25  1  0  0  0  0
 24 53  1  0  0  0  0
 25 26  2  0  0  0  0
 25 54  1  0  0  0  0
 26 21  1  0  0  0  0
 26 28  1  0  0  0  0
 27 55  1  0  0  0  0
 28 29  1  0  0  0  0
 29 30  1  0  0  0  0
 29 56  1  0  0  0  0
 29 57  1  0  0  0  0
 30 31  1  0  0  0  0
 30 58  1  0  0  0  0
 30 59  1  0  0  0  0
 31 32  1  0  0  0  0
 32 33  1  0  0  0  0
 32 60  1  0  0  0  0
 32 61  1  0  0  0  0
 33 34  1  0  0  0  0
 33 62  1  0  0  0  0
 33 63  1  0  0  0  0
 34 35  1  0  0  0  0
 34 64  1  0  0  0  0
 34 65  1  0  0  0  0
 35 31  1  0  0  0  0
 35 66  1  0  0  0  0
 35 67  1  0  0  0  0
M  END
>  <Mol_ID>
3893

>  <Formula>
C28H32N4O3

>  <MolWeight>
472.57868

>  <Cat>
S8057

>  <Name>
Pacritinib (SB1518)

>  <Synonyms>
N/A

>  <Target>
FLT3,JAK

>  <Form>
free base

>  <CAS>
937272-79-2

>  <URL>
http://selleckchem.com/products/pacritinib-sb1518.html

$$$$
