Palbociclib
 OpenBabel08302521453D

 62 66  0  0  0  0  0  0  0  0999 V2000
    1.0135   -0.0372    0.1065 O   0  0  0  0  0  0  0  0  0  0  0  0
    2.6036   -3.6822   -0.4610 O   0  0  0  0  0  0  0  0  0  0  0  0
    2.9845    1.1301    0.0872 N   0  0  0  0  0  0  0  0  0  0  0  0
    5.0611    2.2970    0.0632 N   0  0  0  0  0  0  0  0  0  0  0  0
   12.5434    4.3921   -0.3600 N   0  0  0  0  0  0  0  0  0  0  0  0
   15.2380    5.4752   -0.4474 N   0  0  0  0  0  0  0  0  0  0  0  0
    7.0922    1.1525    0.1011 N   0  0  0  0  0  0  0  0  0  0  0  0
    7.0566    3.5125    0.0722 N   0  0  0  0  0  0  0  0  0  0  0  0
    8.8636    4.7799   -0.7230 N   0  0  0  0  0  0  0  0  0  0  0  0
    2.3107    2.4377    0.0415 C   0  0  0  0  0  0  0  0  0  0  0  0
    1.3745    2.7350    1.2176 C   0  0  0  0  0  0  0  0  0  0  0  0
    1.4261    2.6568   -1.1877 C   0  0  0  0  0  0  0  0  0  0  0  0
    0.4528    3.8428    0.7069 C   0  0  0  0  0  0  0  0  0  0  0  0
    0.6132    3.8880   -0.8138 C   0  0  0  0  0  0  0  0  0  0  0  0
    4.4008    1.1105    0.0830 C   0  0  0  0  0  0  0  0  0  0  0  0
    2.2480   -0.0415    0.1000 C   0  0  0  0  0  0  0  0  0  0  0  0
    5.0445   -0.1102    0.0981 C   0  0  0  0  0  0  0  0  0  0  0  0
    2.9595   -1.3712    0.0827 C   0  0  0  0  0  0  0  0  0  0  0  0
    4.3164   -1.3987    0.0962 C   0  0  0  0  0  0  0  0  0  0  0  0
    6.4204   -0.0081    0.0959 C   0  0  0  0  0  0  0  0  0  0  0  0
    5.1983   -2.6283    0.1009 C   0  0  0  0  0  0  0  0  0  0  0  0
    2.1410   -2.6453    0.0184 C   0  0  0  0  0  0  0  0  0  0  0  0
   13.4967    4.0133    0.6909 C   0  0  0  0  0  0  0  0  0  0  0  0
   13.1533    4.7042   -1.6569 C   0  0  0  0  0  0  0  0  0  0  0  0
    6.3931    2.2892    0.0877 C   0  0  0  0  0  0  0  0  0  0  0  0
   14.5681    5.1231    0.8248 C   0  0  0  0  0  0  0  0  0  0  0  0
   14.2096    5.8136   -1.4593 C   0  0  0  0  0  0  0  0  0  0  0  0
   11.1966    4.1340   -0.2529 C   0  0  0  0  0  0  0  0  0  0  0  0
    0.7184   -2.6574    0.5278 C   0  0  0  0  0  0  0  0  0  0  0  0
    8.4329    3.7226   -0.0102 C   0  0  0  0  0  0  0  0  0  0  0  0
   10.7043    3.0758    0.4972 C   0  0  0  0  0  0  0  0  0  0  0  0
   10.2136    4.9458   -0.8325 C   0  0  0  0  0  0  0  0  0  0  0  0
    9.3335    2.8745    0.6288 C   0  0  0  0  0  0  0  0  0  0  0  0
   15.7388    4.6480   -0.7783 H   0  0  0  0  0  0  0  0  0  0  0  0
    6.5127    4.2371   -0.3658 H   0  0  0  0  0  0  0  0  0  0  0  0
    3.0493    3.2474    0.0345 H   0  0  0  0  0  0  0  0  0  0  0  0
    0.7717    1.8718    1.5139 H   0  0  0  0  0  0  0  0  0  0  0  0
    1.9334    3.0460    2.1067 H   0  0  0  0  0  0  0  0  0  0  0  0
    2.0190    2.8132   -2.0950 H   0  0  0  0  0  0  0  0  0  0  0  0
    0.7511    1.8181   -1.3823 H   0  0  0  0  0  0  0  0  0  0  0  0
   -0.5850    3.6393    0.9904 H   0  0  0  0  0  0  0  0  0  0  0  0
    0.7275    4.8089    1.1438 H   0  0  0  0  0  0  0  0  0  0  0  0
   -0.3525    3.9091   -1.3283 H   0  0  0  0  0  0  0  0  0  0  0  0
    1.1592    4.7947   -1.0993 H   0  0  0  0  0  0  0  0  0  0  0  0
    7.0768   -0.8707    0.0878 H   0  0  0  0  0  0  0  0  0  0  0  0
    5.8146   -2.6560   -0.8070 H   0  0  0  0  0  0  0  0  0  0  0  0
    5.8644   -2.6166    0.9729 H   0  0  0  0  0  0  0  0  0  0  0  0
    4.6839   -3.5852    0.1564 H   0  0  0  0  0  0  0  0  0  0  0  0
   13.0077    3.8997    1.6655 H   0  0  0  0  0  0  0  0  0  0  0  0
   13.9711    3.0572    0.4370 H   0  0  0  0  0  0  0  0  0  0  0  0
   13.6384    3.8001   -2.0497 H   0  0  0  0  0  0  0  0  0  0  0  0
   12.4234    5.0229   -2.4081 H   0  0  0  0  0  0  0  0  0  0  0  0
   14.1001    6.0275    1.2363 H   0  0  0  0  0  0  0  0  0  0  0  0
   15.3279    4.8069    1.5478 H   0  0  0  0  0  0  0  0  0  0  0  0
   13.7077    6.7420   -1.1583 H   0  0  0  0  0  0  0  0  0  0  0  0
   14.7087    6.0146   -2.4126 H   0  0  0  0  0  0  0  0  0  0  0  0
    0.6658   -2.2647    1.5461 H   0  0  0  0  0  0  0  0  0  0  0  0
    0.0620   -2.1084   -0.1512 H   0  0  0  0  0  0  0  0  0  0  0  0
    0.3541   -3.6901    0.5475 H   0  0  0  0  0  0  0  0  0  0  0  0
   11.3734    2.3688    0.9807 H   0  0  0  0  0  0  0  0  0  0  0  0
   10.4981    5.8264   -1.4017 H   0  0  0  0  0  0  0  0  0  0  0  0
    8.9883    2.0485    1.2361 H   0  0  0  0  0  0  0  0  0  0  0  0
  1 16  2  0  0  0  0
  2 22  2  0  0  0  0
  3 10  1  0  0  0  0
  3 15  1  0  0  0  0
  3 16  1  0  0  0  0
  4 15  2  0  0  0  0
  4 25  1  0  0  0  0
  5 23  1  0  0  0  0
  5 24  1  0  0  0  0
  5 28  1  0  0  0  0
  6 26  1  0  0  0  0
  6 27  1  0  0  0  0
  6 34  1  0  0  0  0
  7 20  1  0  0  0  0
  7 25  2  0  0  0  0
  8 25  1  0  0  0  0
  8 30  1  0  0  0  0
  8 35  1  0  0  0  0
  9 30  2  0  0  0  0
  9 32  1  0  0  0  0
 10 11  1  0  0  0  0
 10 12  1  0  0  0  0
 10 36  1  0  0  0  0
 11 13  1  0  0  0  0
 11 37  1  0  0  0  0
 11 38  1  0  0  0  0
 12 14  1  0  0  0  0
 12 39  1  0  0  0  0
 12 40  1  0  0  0  0
 13 14  1  0  0  0  0
 13 41  1  0  0  0  0
 13 42  1  0  0  0  0
 14 43  1  0  0  0  0
 14 44  1  0  0  0  0
 15 17  1  0  0  0  0
 16 18  1  0  0  0  0
 17 19  1  0  0  0  0
 17 20  2  0  0  0  0
 18 19  2  0  0  0  0
 18 22  1  0  0  0  0
 19 21  1  0  0  0  0
 20 45  1  0  0  0  0
 21 46  1  0  0  0  0
 21 47  1  0  0  0  0
 21 48  1  0  0  0  0
 22 29  1  0  0  0  0
 23 26  1  0  0  0  0
 23 49  1  0  0  0  0
 23 50  1  0  0  0  0
 24 27  1  0  0  0  0
 24 51  1  0  0  0  0
 24 52  1  0  0  0  0
 26 53  1  0  0  0  0
 26 54  1  0  0  0  0
 27 55  1  0  0  0  0
 27 56  1  0  0  0  0
 28 31  1  0  0  0  0
 28 32  2  0  0  0  0
 29 57  1  0  0  0  0
 29 58  1  0  0  0  0
 29 59  1  0  0  0  0
 30 33  1  0  0  0  0
 31 33  2  0  0  0  0
 31 60  1  0  0  0  0
 32 61  1  0  0  0  0
 33 62  1  0  0  0  0
M  END
>  <Mol_ID>
9370

>  <Formula>
C24H29N7O2

>  <MolWeight>
447.53276

>  <Cat>
S4482

>  <Name>
Palbociclib

>  <Synonyms>
Ibrance, PD 0332991

>  <Target>
CDK

>  <Form>
Free Base

>  <CAS>
571190-30-2

>  <URL>
http://www.selleckchem.com/products/palbociclib.html

$$$$
