Palifosfamide
 OpenBabel08302520143D

 22 21  0  0  0  0  0  0  0  0999 V2000
    1.0292   -0.0653    0.0699 P   0  0  0  0  0  0  0  0  0  0  0  0
    0.8335    1.2210    1.1309 N   0  0  0  0  0  0  0  0  0  0  0  0
    0.8372    0.7602   -1.3763 N   0  0  0  0  0  0  0  0  0  0  0  0
   -0.7008   -0.0653    0.0699 O   0  0  0  0  0  0  0  0  0  0  0  0
    2.5775   -0.0653    0.0699 O   0  0  0  0  0  0  0  0  0  0  0  0
    1.3537    1.0704    2.4853 C   0  0  0  0  0  0  0  0  0  0  0  0
    1.5441    0.2864   -2.5621 C   0  0  0  0  0  0  0  0  0  0  0  0
    1.0108    2.3022    3.3056 C   0  0  0  0  0  0  0  0  0  0  0  0
    1.1310   -1.1223   -2.9715 C   0  0  0  0  0  0  0  0  0  0  0  0
    1.3154    1.9992    0.6859 H   0  0  0  0  0  0  0  0  0  0  0  0
   -0.1618    0.7710   -1.5584 H   0  0  0  0  0  0  0  0  0  0  0  0
   -0.9530    0.1720    0.9837 H   0  0  0  0  0  0  0  0  0  0  0  0
    0.9098    0.1852    2.9517 H   0  0  0  0  0  0  0  0  0  0  0  0
    2.4399    0.9324    2.4732 H   0  0  0  0  0  0  0  0  0  0  0  0
    1.3345    0.9692   -3.3931 H   0  0  0  0  0  0  0  0  0  0  0  0
    2.6261    0.3165   -2.3996 H   0  0  0  0  0  0  0  0  0  0  0  0
   -0.0666    2.5026    3.2917 H   0  0  0  0  0  0  0  0  0  0  0  0
    1.3079    2.1533    4.3518 H   0  0  0  0  0  0  0  0  0  0  0  0
    1.5305    3.1876    2.9310 H   0  0  0  0  0  0  0  0  0  0  0  0
    0.0743   -1.1615   -3.2498 H   0  0  0  0  0  0  0  0  0  0  0  0
    1.7196   -1.4479   -3.8383 H   0  0  0  0  0  0  0  0  0  0  0  0
    1.3045   -1.8484   -2.1679 H   0  0  0  0  0  0  0  0  0  0  0  0
  1  2  1  0  0  0  0
  1  3  1  0  0  0  0
  1  4  1  0  0  0  0
  1  5  2  0  0  0  0
  2  6  1  0  0  0  0
  2 10  1  0  0  0  0
  3  7  1  0  0  0  0
  3 11  1  0  0  0  0
  4 12  1  0  0  0  0
  6  8  1  0  0  0  0
  6 13  1  0  0  0  0
  6 14  1  0  0  0  0
  7  9  1  0  0  0  0
  7 15  1  0  0  0  0
  7 16  1  0  0  0  0
  8 17  1  0  0  0  0
  8 18  1  0  0  0  0
  8 19  1  0  0  0  0
  9 20  1  0  0  0  0
  9 21  1  0  0  0  0
  9 22  1  0  0  0  0
M  END
>  <Mol_ID>
3153

>  <Formula>
C4H11Cl2N2O2P

>  <MolWeight>
221.022101

>  <Cat>
S5840

>  <Name>
Palifosfamide

>  <Synonyms>
ZIO-201, Isophosphamide mustard

>  <Target>
DNA alkylator

>  <Form>
Free Base

>  <CAS>
31645-39-3

>  <URL>
http://www.selleckchem.com/products/palifosfamide.html

$$$$
