Palmitoylglycine
 OpenBabel08302521373D

 57 56  0  0  0  0  0  0  0  0999 V2000
   -2.7583    0.1479    1.4915 C   0  0  0  0  0  0  0  0  0  0  0  0
   -1.2405   -0.0220    1.3366 C   0  0  0  0  0  0  0  0  0  0  0  0
   -3.1572    1.3006    2.3984 C   0  0  0  0  0  0  0  0  0  0  0  0
   -0.8336   -1.2047    0.4370 C   0  0  0  0  0  0  0  0  0  0  0  0
   -4.5342    1.4321    2.5683 N   0  0  0  0  0  0  0  0  0  0  0  0
   -2.3593    2.0207    2.9731 O   0  0  0  0  0  0  0  0  0  0  0  0
   -1.3865   -1.1249   -0.9879 C   0  0  0  0  0  0  0  0  0  0  0  0
   -5.0604    2.5249    3.3951 C   0  0  0  0  0  0  0  0  0  0  0  0
   -0.9646   -2.3302   -1.8344 C   0  0  0  0  0  0  0  0  0  0  0  0
   -5.2545    2.1256    4.8616 C   0  0  0  0  0  0  0  0  0  0  0  0
   -1.5291   -2.2149   -3.2524 C   0  0  0  0  0  0  0  0  0  0  0  0
   -4.9409    0.8380    5.1367 O   0  0  0  0  0  0  0  0  0  0  0  0
   -5.6972    2.8884    5.7158 O   0  0  0  0  0  0  0  0  0  0  0  0
   -1.1199   -3.4100   -4.1125 C   0  0  0  0  0  0  0  0  0  0  0  0
   -1.6882   -3.2965   -5.5282 C   0  0  0  0  0  0  0  0  0  0  0  0
   -1.2744   -4.4944   -6.3849 C   0  0  0  0  0  0  0  0  0  0  0  0
   -1.8395   -4.3814   -7.8022 C   0  0  0  0  0  0  0  0  0  0  0  0
   -1.4296   -5.5771   -8.6659 C   0  0  0  0  0  0  0  0  0  0  0  0
   -2.0007   -5.4640  -10.0839 C   0  0  0  0  0  0  0  0  0  0  0  0
   -1.5859   -6.6560  -10.9510 C   0  0  0  0  0  0  0  0  0  0  0  0
   -2.1491   -6.5615  -12.3711 C   0  0  0  0  0  0  0  0  0  0  0  0
   -1.7289   -7.7586  -13.2130 C   0  0  0  0  0  0  0  0  0  0  0  0
   -3.1699   -0.7638    1.9316 H   0  0  0  0  0  0  0  0  0  0  0  0
   -3.2296    0.3156    0.5179 H   0  0  0  0  0  0  0  0  0  0  0  0
   -0.7877    0.9015    0.9562 H   0  0  0  0  0  0  0  0  0  0  0  0
   -0.7919   -0.1916    2.3269 H   0  0  0  0  0  0  0  0  0  0  0  0
    0.2630   -1.2460    0.3907 H   0  0  0  0  0  0  0  0  0  0  0  0
   -1.1599   -2.1418    0.9035 H   0  0  0  0  0  0  0  0  0  0  0  0
   -5.1260    1.0891    1.8172 H   0  0  0  0  0  0  0  0  0  0  0  0
   -2.4800   -1.0793   -0.9647 H   0  0  0  0  0  0  0  0  0  0  0  0
   -1.0349   -0.2041   -1.4683 H   0  0  0  0  0  0  0  0  0  0  0  0
   -4.3793    3.3785    3.3491 H   0  0  0  0  0  0  0  0  0  0  0  0
   -6.0344    2.8146    2.9887 H   0  0  0  0  0  0  0  0  0  0  0  0
    0.1294   -2.3939   -1.8732 H   0  0  0  0  0  0  0  0  0  0  0  0
   -1.3212   -3.2612   -1.3748 H   0  0  0  0  0  0  0  0  0  0  0  0
   -2.6230   -2.1449   -3.2068 H   0  0  0  0  0  0  0  0  0  0  0  0
   -1.1691   -1.2896   -3.7187 H   0  0  0  0  0  0  0  0  0  0  0  0
   -4.5867    0.3988    4.3390 H   0  0  0  0  0  0  0  0  0  0  0  0
   -0.0252   -3.4706   -4.1535 H   0  0  0  0  0  0  0  0  0  0  0  0
   -1.4733   -4.3397   -3.6513 H   0  0  0  0  0  0  0  0  0  0  0  0
   -2.7826   -3.2342   -5.4792 H   0  0  0  0  0  0  0  0  0  0  0  0
   -1.3383   -2.3697   -5.9993 H   0  0  0  0  0  0  0  0  0  0  0  0
   -0.1793   -4.5546   -6.4235 H   0  0  0  0  0  0  0  0  0  0  0  0
   -1.6285   -5.4227   -5.9202 H   0  0  0  0  0  0  0  0  0  0  0  0
   -2.9332   -4.3150   -7.7533 H   0  0  0  0  0  0  0  0  0  0  0  0
   -1.4840   -3.4542   -8.2681 H   0  0  0  0  0  0  0  0  0  0  0  0
   -0.3350   -5.6389   -8.7063 H   0  0  0  0  0  0  0  0  0  0  0  0
   -1.7835   -6.5066   -8.2030 H   0  0  0  0  0  0  0  0  0  0  0  0
   -3.0951   -5.4100  -10.0289 H   0  0  0  0  0  0  0  0  0  0  0  0
   -1.6565   -4.5323  -10.5492 H   0  0  0  0  0  0  0  0  0  0  0  0
   -0.4913   -6.7122  -10.9952 H   0  0  0  0  0  0  0  0  0  0  0  0
   -1.9380   -7.5843  -10.4850 H   0  0  0  0  0  0  0  0  0  0  0  0
   -3.2438   -6.5187  -12.3342 H   0  0  0  0  0  0  0  0  0  0  0  0
   -1.8059   -5.6404  -12.8566 H   0  0  0  0  0  0  0  0  0  0  0  0
   -2.0680   -8.6942  -12.7568 H   0  0  0  0  0  0  0  0  0  0  0  0
   -2.1641   -7.6936  -14.2155 H   0  0  0  0  0  0  0  0  0  0  0  0
   -0.6401   -7.8053  -13.3201 H   0  0  0  0  0  0  0  0  0  0  0  0
  1  2  1  0  0  0  0
  1  3  1  0  0  0  0
  1 23  1  0  0  0  0
  1 24  1  0  0  0  0
  2  4  1  0  0  0  0
  2 25  1  0  0  0  0
  2 26  1  0  0  0  0
  3  5  1  0  0  0  0
  3  6  2  0  0  0  0
  4  7  1  0  0  0  0
  4 27  1  0  0  0  0
  4 28  1  0  0  0  0
  5  8  1  0  0  0  0
  5 29  1  0  0  0  0
  7  9  1  0  0  0  0
  7 30  1  0  0  0  0
  7 31  1  0  0  0  0
  8 10  1  0  0  0  0
  8 32  1  0  0  0  0
  8 33  1  0  0  0  0
  9 11  1  0  0  0  0
  9 34  1  0  0  0  0
  9 35  1  0  0  0  0
 10 12  1  0  0  0  0
 10 13  2  0  0  0  0
 11 14  1  0  0  0  0
 11 36  1  0  0  0  0
 11 37  1  0  0  0  0
 12 38  1  0  0  0  0
 14 15  1  0  0  0  0
 14 39  1  0  0  0  0
 14 40  1  0  0  0  0
 15 16  1  0  0  0  0
 15 41  1  0  0  0  0
 15 42  1  0  0  0  0
 16 17  1  0  0  0  0
 16 43  1  0  0  0  0
 16 44  1  0  0  0  0
 17 18  1  0  0  0  0
 17 45  1  0  0  0  0
 17 46  1  0  0  0  0
 18 19  1  0  0  0  0
 18 47  1  0  0  0  0
 18 48  1  0  0  0  0
 19 20  1  0  0  0  0
 19 49  1  0  0  0  0
 19 50  1  0  0  0  0
 20 21  1  0  0  0  0
 20 51  1  0  0  0  0
 20 52  1  0  0  0  0
 21 22  1  0  0  0  0
 21 53  1  0  0  0  0
 21 54  1  0  0  0  0
 22 55  1  0  0  0  0
 22 56  1  0  0  0  0
 22 57  1  0  0  0  0
M  END
>  <Mol_ID>
7409

>  <Formula>
C18H35NO3

>  <MolWeight>
313.4754

>  <Cat>
E4503

>  <Name>
Palmitoylglycine

>  <Synonyms>
N-palmitoyl glycine

>  <Target>
NOS

>  <Form>
Free base

>  <CAS>
2441-41-0

>  <URL>
https://www.selleckchem.com/products/palmitoylglycine.html

$$$$
