Palmaturbine
 OpenBabel08302521453D

 45 48  0  0  0  0  0  0  0  0999 V2000
    1.0804    0.3292   -0.1085 O   0  0  0  0  0  0  0  0  0  0  0  0
   -0.0386   -0.4953    0.0875 C   0  0  0  0  0  0  0  0  0  0  0  0
    2.7372   -2.5276    0.4024 O   0  0  0  0  0  0  0  0  0  0  0  0
    1.4382   -3.0583    0.4158 C   0  0  0  0  0  0  0  0  0  0  0  0
    8.9871    5.8159   -1.0632 O   0  0  0  0  0  0  0  0  0  0  0  0
    7.7348    8.4476   -0.4936 O   0  0  0  0  0  0  0  0  0  0  0  0
    9.1246    8.5308   -0.7620 C   0  0  0  0  0  0  0  0  0  0  0  0
    5.2986    2.4850   -0.2473 C   0  0  0  0  0  0  0  0  0  0  0  0
    4.5487    1.2252   -0.1146 C   0  0  0  0  0  0  0  0  0  0  0  0
    6.6167    2.3838   -0.5912 N   0  3  0  0  0  0  0  0  0  0  0  0
    4.7621    3.7572   -0.0128 C   0  0  0  0  0  0  0  0  0  0  0  0
    5.2166    0.0168    0.0613 C   0  0  0  0  0  0  0  0  0  0  0  0
    3.1472    1.1594   -0.1508 C   0  0  0  0  0  0  0  0  0  0  0  0
    7.3845    3.4882   -0.7390 C   0  0  0  0  0  0  0  0  0  0  0  0
    7.2262    1.0569   -0.8827 C   0  0  0  0  0  0  0  0  0  0  0  0
    5.5482    4.9037   -0.1404 C   0  0  0  0  0  0  0  0  0  0  0  0
    4.4886   -1.1660    0.2366 C   0  0  0  0  0  0  0  0  0  0  0  0
    6.7166    0.0105    0.0937 C   0  0  0  0  0  0  0  0  0  0  0  0
    2.3835   -0.0359    0.0072 C   0  0  0  0  0  0  0  0  0  0  0  0
    6.9000    4.7810   -0.5069 C   0  0  0  0  0  0  0  0  0  0  0  0
    5.0018    6.1705    0.0780 C   0  0  0  0  0  0  0  0  0  0  0  0
    3.0722   -1.2272    0.2143 C   0  0  0  0  0  0  0  0  0  0  0  0
    7.6884    5.9539   -0.6448 C   0  0  0  0  0  0  0  0  0  0  0  0
    5.7908    7.3100   -0.0622 C   0  0  0  0  0  0  0  0  0  0  0  0
    7.1388    7.2211   -0.4213 C   0  0  0  0  0  0  0  0  0  0  0  0
   -0.1263   -1.2311   -0.7107 H   0  0  0  0  0  0  0  0  0  0  0  0
   -0.0577   -0.9159    1.0925 H   0  0  0  0  0  0  0  0  0  0  0  0
   -0.9269    0.1410    0.0068 H   0  0  0  0  0  0  0  0  0  0  0  0
    0.8719   -2.6892    1.2700 H   0  0  0  0  0  0  0  0  0  0  0  0
    0.9435   -2.9227   -0.5453 H   0  0  0  0  0  0  0  0  0  0  0  0
    1.5307   -4.1400    0.5613 H   0  0  0  0  0  0  0  0  0  0  0  0
    9.4809    5.2994   -0.4040 H   0  0  0  0  0  0  0  0  0  0  0  0
    9.7087    8.0125    0.0046 H   0  0  0  0  0  0  0  0  0  0  0  0
    9.3558    8.1692   -1.7679 H   0  0  0  0  0  0  0  0  0  0  0  0
    9.4033    9.5888   -0.7230 H   0  0  0  0  0  0  0  0  0  0  0  0
    3.7217    3.8644    0.2853 H   0  0  0  0  0  0  0  0  0  0  0  0
    2.5727    2.0727   -0.3178 H   0  0  0  0  0  0  0  0  0  0  0  0
    8.4120    3.3204   -1.0561 H   0  0  0  0  0  0  0  0  0  0  0  0
    8.3153    1.1410   -0.8000 H   0  0  0  0  0  0  0  0  0  0  0  0
    6.9632    0.8262   -1.9210 H   0  0  0  0  0  0  0  0  0  0  0  0
    5.0342   -2.1002    0.3927 H   0  0  0  0  0  0  0  0  0  0  0  0
    7.0504    0.2349    1.1136 H   0  0  0  0  0  0  0  0  0  0  0  0
    7.1132   -0.9713   -0.1877 H   0  0  0  0  0  0  0  0  0  0  0  0
    3.9536    6.3001    0.3477 H   0  0  0  0  0  0  0  0  0  0  0  0
    5.3468    8.2916    0.1068 H   0  0  0  0  0  0  0  0  0  0  0  0
  1  2  1  0  0  0  0
  1 19  1  0  0  0  0
  2 26  1  0  0  0  0
  2 27  1  0  0  0  0
  2 28  1  0  0  0  0
  3  4  1  0  0  0  0
  3 22  1  0  0  0  0
  4 29  1  0  0  0  0
  4 30  1  0  0  0  0
  4 31  1  0  0  0  0
  5 23  1  0  0  0  0
  5 32  1  0  0  0  0
  6  7  1  0  0  0  0
  6 25  1  0  0  0  0
  7 33  1  0  0  0  0
  7 34  1  0  0  0  0
  7 35  1  0  0  0  0
  8  9  1  0  0  0  0
  8 10  1  0  0  0  0
  8 11  2  0  0  0  0
  9 12  2  0  0  0  0
  9 13  1  0  0  0  0
 10 14  2  0  0  0  0
 10 15  1  0  0  0  0
 11 16  1  0  0  0  0
 11 36  1  0  0  0  0
 12 17  1  0  0  0  0
 12 18  1  0  0  0  0
 13 19  2  0  0  0  0
 13 37  1  0  0  0  0
 14 20  1  0  0  0  0
 14 38  1  0  0  0  0
 15 18  1  0  0  0  0
 15 39  1  0  0  0  0
 15 40  1  0  0  0  0
 16 20  2  0  0  0  0
 16 21  1  0  0  0  0
 17 22  2  0  0  0  0
 17 41  1  0  0  0  0
 18 42  1  0  0  0  0
 18 43  1  0  0  0  0
 19 22  1  0  0  0  0
 20 23  1  0  0  0  0
 21 24  2  0  0  0  0
 21 44  1  0  0  0  0
 23 25  2  0  0  0  0
 24 25  1  0  0  0  0
 24 45  1  0  0  0  0
M  CHG  1  10   1
M  END
>  <Mol_ID>
9573

>  <Formula>
C20H20NO4+

>  <MolWeight>
338.3771

>  <Cat>
E2014

>  <Name>
Palmaturbine

>  <Synonyms>
Palmatrubin

>  <Target>
Antioxidant

>  <Form>
Free Base

>  <CAS>
16176-68-4

>  <URL>
https://www.selleckchem.com/products/palmaturbine.html

$$$$
