Pamapimod.cdx
 OpenBabel08302520413D

 49 51  0  0  0  0  0  0  0  0999 V2000
   -3.0449   -0.2730    0.0073 N   0  0  0  0  0  0  0  0  0  0  0  0
   -2.6467    1.0060    0.0198 C   0  0  0  0  0  0  0  0  0  0  0  0
   -1.3669    1.4034   -0.0173 N   0  0  0  0  0  0  0  0  0  0  0  0
   -0.4139    0.4446   -0.0289 C   0  0  0  0  0  0  0  0  0  0  0  0
   -0.7379   -0.8915   -0.0620 C   0  0  0  0  0  0  0  0  0  0  0  0
   -2.0742   -1.2006   -0.0457 C   0  0  0  0  0  0  0  0  0  0  0  0
    0.9592    0.8069   -0.0476 N   0  0  0  0  0  0  0  0  0  0  0  0
    1.9924   -0.1364   -0.1668 C   0  0  0  0  0  0  0  0  0  0  0  0
    1.5772   -1.6009   -0.0853 C   0  0  0  0  0  0  0  0  0  0  0  0
    0.2778   -1.9076   -0.0851 C   0  0  0  0  0  0  0  0  0  0  0  0
    2.5777   -2.5672    0.0226 O   0  0  0  0  0  0  0  0  0  0  0  0
    3.1685    0.1578   -0.3121 O   0  0  0  0  0  0  0  0  0  0  0  0
    1.2677    2.2275   -0.0220 C   0  0  0  0  0  0  0  0  0  0  0  0
   -3.6028    1.9857    0.0218 N   0  0  0  0  0  0  0  0  0  0  0  0
   -4.9063    1.8040    0.6426 C   0  0  0  0  0  0  0  0  0  0  0  0
   -5.0668    2.8471    1.7733 C   0  0  0  0  0  0  0  0  0  0  0  0
   -5.9992    1.9069   -0.4323 C   0  0  0  0  0  0  0  0  0  0  0  0
   -5.8887    0.8542   -1.5303 C   0  0  0  0  0  0  0  0  0  0  0  0
   -5.9557   -0.4590   -0.9844 O   0  0  0  0  0  0  0  0  0  0  0  0
   -6.4048    2.7926    2.5114 C   0  0  0  0  0  0  0  0  0  0  0  0
   -6.4131    3.7640    3.5548 O   0  0  0  0  0  0  0  0  0  0  0  0
    2.3050   -3.7626    0.6856 C   0  0  0  0  0  0  0  0  0  0  0  0
    2.8731   -4.9522    0.2211 C   0  0  0  0  0  0  0  0  0  0  0  0
    2.6412   -6.1585    0.8795 C   0  0  0  0  0  0  0  0  0  0  0  0
    1.8290   -6.1739    2.0086 C   0  0  0  0  0  0  0  0  0  0  0  0
    1.2371   -5.0113    2.4799 C   0  0  0  0  0  0  0  0  0  0  0  0
    1.4911   -3.8044    1.8317 C   0  0  0  0  0  0  0  0  0  0  0  0
    1.6212   -7.3221    2.6641 F   0  0  0  0  0  0  0  0  0  0  0  0
    3.6415   -4.9553   -0.8779 F   0  0  0  0  0  0  0  0  0  0  0  0
   -2.4235   -2.2275   -0.0770 H   0  0  0  0  0  0  0  0  0  0  0  0
   -0.0543   -2.9377   -0.0434 H   0  0  0  0  0  0  0  0  0  0  0  0
    0.8534    2.7002   -0.9191 H   0  0  0  0  0  0  0  0  0  0  0  0
    0.8301    2.6834    0.8717 H   0  0  0  0  0  0  0  0  0  0  0  0
    2.3458    2.4078   -0.0010 H   0  0  0  0  0  0  0  0  0  0  0  0
   -3.3283    2.8585   -0.4025 H   0  0  0  0  0  0  0  0  0  0  0  0
   -4.9785    0.8198    1.1228 H   0  0  0  0  0  0  0  0  0  0  0  0
   -4.2604    2.7078    2.5071 H   0  0  0  0  0  0  0  0  0  0  0  0
   -4.9222    3.8620    1.3815 H   0  0  0  0  0  0  0  0  0  0  0  0
   -6.9748    1.7743    0.0491 H   0  0  0  0  0  0  0  0  0  0  0  0
   -5.9908    2.9007   -0.8961 H   0  0  0  0  0  0  0  0  0  0  0  0
   -6.7242    0.9646   -2.2270 H   0  0  0  0  0  0  0  0  0  0  0  0
   -4.9654    0.9532   -2.1098 H   0  0  0  0  0  0  0  0  0  0  0  0
   -5.0803   -0.6307   -0.5777 H   0  0  0  0  0  0  0  0  0  0  0  0
   -7.2302    3.0476    1.8426 H   0  0  0  0  0  0  0  0  0  0  0  0
   -6.5985    1.8048    2.9422 H   0  0  0  0  0  0  0  0  0  0  0  0
   -6.3480    3.2958    4.4050 H   0  0  0  0  0  0  0  0  0  0  0  0
    3.0915   -7.0778    0.5234 H   0  0  0  0  0  0  0  0  0  0  0  0
    0.5945   -5.0411    3.3541 H   0  0  0  0  0  0  0  0  0  0  0  0
    1.0196   -2.9058    2.2218 H   0  0  0  0  0  0  0  0  0  0  0  0
  1  2  2  0  0  0  0
  2  3  1  0  0  0  0
  2 14  1  0  0  0  0
  3  4  2  0  0  0  0
  4  5  1  0  0  0  0
  4  7  1  0  0  0  0
  5  6  2  0  0  0  0
  6  1  1  0  0  0  0
  6 30  1  0  0  0  0
  7  8  1  0  0  0  0
  7 13  1  0  0  0  0
  8  9  1  0  0  0  0
  8 12  2  0  0  0  0
  9 10  2  0  0  0  0
  9 11  1  0  0  0  0
 10  5  1  0  0  0  0
 10 31  1  0  0  0  0
 11 22  1  0  0  0  0
 13 32  1  0  0  0  0
 13 33  1  0  0  0  0
 13 34  1  0  0  0  0
 14 15  1  0  0  0  0
 14 35  1  0  0  0  0
 15 16  1  0  0  0  0
 15 17  1  0  0  0  0
 15 36  1  0  0  0  0
 16 20  1  0  0  0  0
 16 37  1  0  0  0  0
 16 38  1  0  0  0  0
 17 18  1  0  0  0  0
 17 39  1  0  0  0  0
 17 40  1  0  0  0  0
 18 19  1  0  0  0  0
 18 41  1  0  0  0  0
 18 42  1  0  0  0  0
 19 43  1  0  0  0  0
 20 21  1  0  0  0  0
 20 44  1  0  0  0  0
 20 45  1  0  0  0  0
 21 46  1  0  0  0  0
 22 23  2  0  0  0  0
 23 24  1  0  0  0  0
 23 29  1  0  0  0  0
 24 25  2  0  0  0  0
 24 47  1  0  0  0  0
 25 26  1  0  0  0  0
 25 28  1  0  0  0  0
 26 27  2  0  0  0  0
 26 48  1  0  0  0  0
 27 22  1  0  0  0  0
 27 49  1  0  0  0  0
M  END
>  <Mol_ID>
3965

>  <Formula>
C19H20F2N4O4

>  <MolWeight>
406.3833064

>  <Cat>
S8125

>  <Name>
Pamapimod

>  <Synonyms>
R-1503,Ro4402257

>  <Target>
p38 MAPK

>  <Form>
free base

>  <CAS>
449811-01-2

>  <URL>
http://selleckchem.com/products/pamapimod-r-1503-ro4402257.html

$$$$
