PAMINE (methscopolamine bromide).cdx
 OpenBabel08302521243D

 48 50  0  0  0  0  0  0  0  0999 V2000
   55.6422   -0.1427    0.0447 Br  0  5  0  0  0  0  0  0  0  0  0  0
   -0.5606    0.0922    1.5496 C   0  0  2  0  0  0  0  0  0  0  0  0
   -1.1998   -1.2889    1.5183 C   0  0  2  0  0  0  0  0  0  0  0  0
   -2.4127   -1.1576    0.6496 C   0  0  2  0  0  0  0  0  0  0  0  0
   -2.4646    0.3045    0.2026 C   0  0  1  0  0  0  0  0  0  0  0  0
   -1.7223    1.1157    1.3080 N   0  3  0  0  0  0  0  0  0  0  0  0
   -1.6672    0.4570   -1.1047 C   0  0  0  0  0  0  0  0  0  0  0  0
    0.4314    0.1758    0.3530 C   0  0  0  0  0  0  0  0  0  0  0  0
   -0.2434   -0.1408   -1.0133 C   0  0  1  0  0  0  0  0  0  0  0  0
   -2.5162   -1.4474    2.0447 O   0  0  0  0  0  0  0  0  0  0  0  0
   -2.6422    1.2322    2.5573 C   0  0  0  0  0  0  0  0  0  0  0  0
   -1.3122    2.5409    0.9862 C   0  0  0  0  0  0  0  0  0  0  0  0
   -0.1451   -1.5924   -1.1687 O   0  0  0  0  0  0  0  0  0  0  0  0
   -0.5903   -2.1893   -2.3116 C   0  0  0  0  0  0  0  0  0  0  0  0
    0.2428   -3.4104   -2.6585 C   0  0  1  0  0  0  0  0  0  0  0  0
   -1.4575   -1.7149   -3.0369 O   0  0  0  0  0  0  0  0  0  0  0  0
    0.2324   -4.5667   -1.6704 C   0  0  0  0  0  0  0  0  0  0  0  0
   -0.1483   -3.9606   -4.0417 C   0  0  0  0  0  0  0  0  0  0  0  0
    0.0561   -2.9883   -5.0607 O   0  0  0  0  0  0  0  0  0  0  0  0
   -0.9344   -5.2983   -1.3986 C   0  0  0  0  0  0  0  0  0  0  0  0
   -0.8512   -6.5602   -0.8013 C   0  0  0  0  0  0  0  0  0  0  0  0
    0.3878   -7.0871   -0.4410 C   0  0  0  0  0  0  0  0  0  0  0  0
    1.5423   -6.3335   -0.6262 C   0  0  0  0  0  0  0  0  0  0  0  0
    1.4663   -5.0776   -1.2288 C   0  0  0  0  0  0  0  0  0  0  0  0
   -0.0793    0.3365    2.5014 H   0  0  0  0  0  0  0  0  0  0  0  0
   -0.5385   -2.1408    1.4662 H   0  0  0  0  0  0  0  0  0  0  0  0
   -2.6828   -1.9102   -0.0784 H   0  0  0  0  0  0  0  0  0  0  0  0
   -3.4809    0.6994    0.1129 H   0  0  0  0  0  0  0  0  0  0  0  0
   -1.5862    1.5182   -1.3702 H   0  0  0  0  0  0  0  0  0  0  0  0
   -2.2529    0.0150   -1.9101 H   0  0  0  0  0  0  0  0  0  0  0  0
    0.9057    1.1610    0.3175 H   0  0  0  0  0  0  0  0  0  0  0  0
    1.2463   -0.5401    0.5263 H   0  0  0  0  0  0  0  0  0  0  0  0
    0.3796    0.2777   -1.8142 H   0  0  0  0  0  0  0  0  0  0  0  0
   -3.0532    2.2467    2.5998 H   0  0  0  0  0  0  0  0  0  0  0  0
   -2.0446    1.0339    3.4497 H   0  0  0  0  0  0  0  0  0  0  0  0
   -3.4925    0.5515    2.4769 H   0  0  0  0  0  0  0  0  0  0  0  0
   -2.2037    3.0813    0.6514 H   0  0  0  0  0  0  0  0  0  0  0  0
   -0.5547    2.5779    0.2056 H   0  0  0  0  0  0  0  0  0  0  0  0
   -0.9120    2.9927    1.9001 H   0  0  0  0  0  0  0  0  0  0  0  0
    1.2641   -3.0148   -2.7491 H   0  0  0  0  0  0  0  0  0  0  0  0
    0.4804   -4.8232   -4.2935 H   0  0  0  0  0  0  0  0  0  0  0  0
   -1.1911   -4.2966   -4.0798 H   0  0  0  0  0  0  0  0  0  0  0  0
   -0.7312   -2.4074   -5.0516 H   0  0  0  0  0  0  0  0  0  0  0  0
   -1.9102   -4.9496   -1.7314 H   0  0  0  0  0  0  0  0  0  0  0  0
   -1.7477   -7.1624   -0.6674 H   0  0  0  0  0  0  0  0  0  0  0  0
    0.4571   -8.0961   -0.0391 H   0  0  0  0  0  0  0  0  0  0  0  0
    2.5109   -6.7481   -0.3548 H   0  0  0  0  0  0  0  0  0  0  0  0
    2.3926   -4.5427   -1.4291 H   0  0  0  0  0  0  0  0  0  0  0  0
  2  3  1  0  0  0  0
  2  6  1  0  0  0  0
  2  8  1  0  0  0  0
  2 25  1  1  0  0  0
  3  4  1  0  0  0  0
  3 10  1  0  0  0  0
  3 26  1  6  0  0  0
  4  5  1  0  0  0  0
  4 10  1  0  0  0  0
  4 27  1  6  0  0  0
  5  6  1  0  0  0  0
  5  7  1  0  0  0  0
  5 28  1  6  0  0  0
  6 11  1  0  0  0  0
  6 12  1  0  0  0  0
  7  9  1  0  0  0  0
  7 29  1  0  0  0  0
  7 30  1  0  0  0  0
  8  9  1  0  0  0  0
  8 31  1  0  0  0  0
  8 32  1  0  0  0  0
  9 13  1  0  0  0  0
  9 33  1  6  0  0  0
 11 34  1  0  0  0  0
 11 35  1  0  0  0  0
 11 36  1  0  0  0  0
 12 37  1  0  0  0  0
 12 38  1  0  0  0  0
 12 39  1  0  0  0  0
 13 14  1  0  0  0  0
 14 15  1  0  0  0  0
 14 16  2  0  0  0  0
 15 17  1  0  0  0  0
 15 18  1  0  0  0  0
 15 40  1  6  0  0  0
 17 20  2  0  0  0  0
 18 19  1  0  0  0  0
 18 41  1  0  0  0  0
 18 42  1  0  0  0  0
 19 43  1  0  0  0  0
 20 21  1  0  0  0  0
 20 44  1  0  0  0  0
 21 22  2  0  0  0  0
 21 45  1  0  0  0  0
 22 23  1  0  0  0  0
 22 46  1  0  0  0  0
 23 24  2  0  0  0  0
 23 47  1  0  0  0  0
 24 17  1  0  0  0  0
 24 48  1  0  0  0  0
M  CHG  2   1  -1   6   1
M  END
>  <Mol_ID>
472

>  <Formula>
C18H24BrNO4

>  <MolWeight>
398.29146

>  <Cat>
S1978

>  <Name>
Methscopolamine

>  <Synonyms>
N/A

>  <Target>
AChR

>  <Form>
quaternary-N bromide salt

>  <CAS>
155-41-9

>  <URL>
http://selleckchem.com/products/Methscopolamine-bromide(Pamine).html

$$$$
