Pamidronate Disodium.cdx
 OpenBabel08302520413D

 22 21  0  0  0  0  0  0  0  0999 V2000
    1.0396    0.0589   -0.0704 C   0  0  3  0  0  0  0  0  0  0  0  0
    0.5773    1.2987   -0.7116 O   0  0  0  0  0  0  0  0  0  0  0  0
    0.4296   -1.5172   -0.7722 P   0  0  3  0  0  0  0  0  0  0  0  0
    0.4643    0.0659    1.3844 C   0  0  0  0  0  0  0  0  0  0  0  0
    2.8696    0.0589   -0.0704 P   0  0  3  0  0  0  0  0  0  0  0  0
   -1.0598    0.2096    1.5014 C   0  0  0  0  0  0  0  0  0  0  0  0
   -1.8335   -0.9536    1.0614 N   0  0  0  0  0  0  0  0  0  0  0  0
    2.7880    0.9035   -1.3908 O   0  5  0  0  0  0  0  0  0  0  0  0
    2.8702    1.3251    0.9992 O   0  0  0  0  0  0  0  0  0  0  0  0
    4.4179    0.0589   -0.0704 O   0  0  0  0  0  0  0  0  0  0  0  0
   -0.5646   -0.6964   -1.6357 O   0  5  0  0  0  0  0  0  0  0  0  0
    1.7868   -1.6547   -1.6829 O   0  0  0  0  0  0  0  0  0  0  0  0
   -0.0866   -2.8508   -1.3660 O   0  0  0  0  0  0  0  0  0  0  0  0
    1.2732    1.3396   -1.4177 H   0  0  0  0  0  0  0  0  0  0  0  0
    0.7948   -0.8406    1.9055 H   0  0  0  0  0  0  0  0  0  0  0  0
    0.8667    0.9109    1.9452 H   0  0  0  0  0  0  0  0  0  0  0  0
   -1.2975    0.3506    2.5599 H   0  0  0  0  0  0  0  0  0  0  0  0
   -1.4076    1.1049    0.9778 H   0  0  0  0  0  0  0  0  0  0  0  0
   -2.8284   -0.7346    1.1442 H   0  0  0  0  0  0  0  0  0  0  0  0
   -1.7256   -1.0095    0.0157 H   0  0  0  0  0  0  0  0  0  0  0  0
    3.2991    1.9781    0.4094 H   0  0  0  0  0  0  0  0  0  0  0  0
    1.5357   -1.2547   -2.5320 H   0  0  0  0  0  0  0  0  0  0  0  0
  1  2  1  0  0  0  0
  1  3  1  0  0  0  0
  1  4  1  0  0  0  0
  1  5  1  0  0  0  0
  2 14  1  0  0  0  0
  3 11  1  0  0  0  0
  3 12  1  0  0  0  0
  3 13  2  0  0  0  0
  4  6  1  0  0  0  0
  4 15  1  0  0  0  0
  4 16  1  0  0  0  0
  5  8  1  0  0  0  0
  5  9  1  0  0  0  0
  5 10  2  0  0  0  0
  6  7  1  0  0  0  0
  6 17  1  0  0  0  0
  6 18  1  0  0  0  0
  7 19  1  0  0  0  0
  7 20  1  0  0  0  0
  9 21  1  0  0  0  0
 12 22  1  0  0  0  0
M  CHG  2   8  -1  11  -1
M  END
>  <Mol_ID>
3999

>  <Formula>
C3H9NNa2O7P2

>  <MolWeight>
279.033122

>  <Cat>
S1311

>  <Name>
Pamidronate Disodium

>  <Synonyms>
CGP 23339AE

>  <Target>
Others

>  <Form>
Disodium salt

>  <CAS>
57248-88-1

>  <URL>
http://selleckchem.com/products/Pamidronate-Disodium.html

$$$$
