Pamoic acid disodium
 OpenBabel08302521343D

 43 46  0  0  0  0  0  0  0  0999 V2000
    0.9697   -1.0217   -0.1464 C   0  0  0  0  0  0  0  0  0  0  0  0
    2.0977   -0.1866    0.1355 C   0  0  0  0  0  0  0  0  0  0  0  0
   -0.2112   -0.4376   -0.6541 C   0  0  0  0  0  0  0  0  0  0  0  0
    1.0161   -2.5291    0.0635 C   0  0  0  0  0  0  0  0  0  0  0  0
    2.0149    1.1956   -0.1565 C   0  0  0  0  0  0  0  0  0  0  0  0
    3.2954   -0.6439    0.7427 C   0  0  0  0  0  0  0  0  0  0  0  0
   -0.3155    0.9417   -0.8936 C   0  0  0  0  0  0  0  0  0  0  0  0
   -1.2764   -1.2664   -0.9340 O   0  0  0  0  0  0  0  0  0  0  0  0
    0.5837   -3.1636    1.3910 C   0  0  0  0  0  0  0  0  0  0  0  0
    0.8171    1.7350   -0.6520 C   0  0  0  0  0  0  0  0  0  0  0  0
    3.1218    2.0331    0.0752 C   0  0  0  0  0  0  0  0  0  0  0  0
    4.3713    0.2060    1.0072 C   0  0  0  0  0  0  0  0  0  0  0  0
   -1.5933    1.5744   -1.3973 C   0  0  0  0  0  0  0  0  0  0  0  0
    0.1258   -4.5296    1.4087 C   0  0  0  0  0  0  0  0  0  0  0  0
    0.7446   -2.4970    2.6302 C   0  0  0  0  0  0  0  0  0  0  0  0
    4.2954    1.5416    0.6447 C   0  0  0  0  0  0  0  0  0  0  0  0
   -1.6144    2.8331   -1.5778 O   0  0  0  0  0  0  0  0  0  0  0  0
   -2.5645    0.7760   -1.6259 O   0  5  0  0  0  0  0  0  0  0  0  0
   -0.1113   -5.1555    2.6610 C   0  0  0  0  0  0  0  0  0  0  0  0
   -0.1087   -5.3341    0.2593 C   0  0  0  0  0  0  0  0  0  0  0  0
    0.5729   -3.1435    3.8652 C   0  0  0  0  0  0  0  0  0  0  0  0
    1.0789   -1.1702    2.6376 O   0  0  0  0  0  0  0  0  0  0  0  0
    0.1459   -4.4747    3.8528 C   0  0  0  0  0  0  0  0  0  0  0  0
   -0.5898   -6.4717    2.7281 C   0  0  0  0  0  0  0  0  0  0  0  0
   -0.6097   -6.6397    0.3419 C   0  0  0  0  0  0  0  0  0  0  0  0
    0.8573   -2.4560    5.1850 C   0  0  0  0  0  0  0  0  0  0  0  0
   -0.8650   -7.2047    1.5798 C   0  0  0  0  0  0  0  0  0  0  0  0
    0.7777   -3.1509    6.2449 O   0  0  0  0  0  0  0  0  0  0  0  0
    1.1795   -1.2221    5.1275 O   0  5  0  0  0  0  0  0  0  0  0  0
    0.4309   -2.9542   -0.7584 H   0  0  0  0  0  0  0  0  0  0  0  0
    2.0330   -2.8890   -0.1460 H   0  0  0  0  0  0  0  0  0  0  0  0
    3.3648   -1.6690    1.1002 H   0  0  0  0  0  0  0  0  0  0  0  0
   -2.0167   -0.6624   -1.2126 H   0  0  0  0  0  0  0  0  0  0  0  0
    0.7363    2.8060   -0.8362 H   0  0  0  0  0  0  0  0  0  0  0  0
    3.0584    3.0899   -0.1704 H   0  0  0  0  0  0  0  0  0  0  0  0
    5.2448   -0.1800    1.5231 H   0  0  0  0  0  0  0  0  0  0  0  0
    5.1289    2.2080    0.8380 H   0  0  0  0  0  0  0  0  0  0  0  0
    0.0621   -4.9400   -0.7381 H   0  0  0  0  0  0  0  0  0  0  0  0
    1.1294   -0.8718    3.5824 H   0  0  0  0  0  0  0  0  0  0  0  0
    0.0128   -4.9720    4.8132 H   0  0  0  0  0  0  0  0  0  0  0  0
   -0.7910   -6.9230    3.6990 H   0  0  0  0  0  0  0  0  0  0  0  0
   -0.8125   -7.1989   -0.5664 H   0  0  0  0  0  0  0  0  0  0  0  0
   -1.2771   -8.2061    1.6579 H   0  0  0  0  0  0  0  0  0  0  0  0
  1  2  1  0  0  0  0
  1  3  2  0  0  0  0
  1  4  1  0  0  0  0
  2  5  2  0  0  0  0
  2  6  1  0  0  0  0
  3  7  1  0  0  0  0
  3  8  1  0  0  0  0
  4  9  1  0  0  0  0
  4 30  1  0  0  0  0
  4 31  1  0  0  0  0
  5 10  1  0  0  0  0
  5 11  1  0  0  0  0
  6 12  2  0  0  0  0
  6 32  1  0  0  0  0
  7 13  1  0  0  0  0
  7 10  2  0  0  0  0
  8 33  1  0  0  0  0
  9 14  1  0  0  0  0
  9 15  2  0  0  0  0
 10 34  1  0  0  0  0
 11 16  2  0  0  0  0
 11 35  1  0  0  0  0
 12 16  1  0  0  0  0
 12 36  1  0  0  0  0
 13 17  2  0  0  0  0
 13 18  1  0  0  0  0
 14 19  2  0  0  0  0
 14 20  1  0  0  0  0
 15 21  1  0  0  0  0
 15 22  1  0  0  0  0
 16 37  1  0  0  0  0
 19 23  1  0  0  0  0
 19 24  1  0  0  0  0
 20 25  2  0  0  0  0
 20 38  1  0  0  0  0
 21 26  1  0  0  0  0
 21 23  2  0  0  0  0
 22 39  1  0  0  0  0
 23 40  1  0  0  0  0
 24 27  2  0  0  0  0
 24 41  1  0  0  0  0
 25 27  1  0  0  0  0
 25 42  1  0  0  0  0
 26 28  2  0  0  0  0
 26 29  1  0  0  0  0
 27 43  1  0  0  0  0
M  CHG  2  18  -1  29  -1
M  END
>  <Mol_ID>
6487

>  <Formula>
C23H14Na2O6

>  <MolWeight>
432.3332

>  <Cat>
E2660

>  <Name>
Pamoic acid disodium

>  <Target>
ERK,GPR

>  <Form>
disodium salt

>  <CAS>
6640-22-8

>  <URL>
http://www.selleckchem.com/products/pamoic-acid-disodium.html

$$$$
