Pantoprazole sodium.cdx
 OpenBabel08302519503D

 40 42  0  0  0  0  0  0  0  0999 V2000
    5.2837   -3.3812    1.9344 C   0  0  0  0  0  0  0  0  0  0  0  0
    4.9192   -2.6383    3.0819 C   0  0  0  0  0  0  0  0  0  0  0  0
    4.9640   -2.6345    0.8503 N   0  0  0  0  0  0  0  0  0  0  0  0
    5.8809   -4.6374    2.0451 C   0  0  0  0  0  0  0  0  0  0  0  0
    4.3730   -1.4773    2.6507 N   0  5  0  0  0  0  0  0  0  0  0  0
    5.1486   -3.1357    4.3663 C   0  0  0  0  0  0  0  0  0  0  0  0
    4.3734   -1.5004    1.2994 C   0  0  0  0  0  0  0  0  0  0  0  0
    6.1501   -5.1117    3.3296 C   0  0  0  0  0  0  0  0  0  0  0  0
    5.7712   -4.3847    4.4729 C   0  0  0  0  0  0  0  0  0  0  0  0
    3.8894   -0.1540    0.2880 S   0  0  3  0  0  0  0  0  0  0  0  0
    6.7729   -6.3346    3.3730 O   0  0  0  0  0  0  0  0  0  0  0  0
    4.3974   -0.8893   -1.2942 C   0  0  0  0  0  0  0  0  0  0  0  0
    2.3880   -0.0294    0.3420 O   0  0  0  0  0  0  0  0  0  0  0  0
    7.6864   -6.4881    4.4433 C   0  0  0  0  0  0  0  0  0  0  0  0
    4.3055    0.0151   -2.5025 C   0  0  0  0  0  0  0  0  0  0  0  0
    7.0314   -7.0355    5.4977 F   0  0  0  0  0  0  0  0  0  0  0  0
    8.6161   -7.4020    4.0539 F   0  0  0  0  0  0  0  0  0  0  0  0
    5.1773   -0.1062   -3.6060 C   0  0  0  0  0  0  0  0  0  0  0  0
    3.3278    0.9623   -2.4619 N   0  0  0  0  0  0  0  0  0  0  0  0
    5.0834    0.8747   -4.6138 C   0  0  0  0  0  0  0  0  0  0  0  0
    6.1793   -1.0355   -3.7062 O   0  0  0  0  0  0  0  0  0  0  0  0
    3.2497    1.8637   -3.4489 C   0  0  0  0  0  0  0  0  0  0  0  0
    4.1075    1.8701   -4.5213 C   0  0  0  0  0  0  0  0  0  0  0  0
    5.8421    1.0364   -5.7459 O   0  0  0  0  0  0  0  0  0  0  0  0
    5.8550   -2.3932   -3.4140 C   0  0  0  0  0  0  0  0  0  0  0  0
    6.8782    0.1135   -6.0289 C   0  0  0  0  0  0  0  0  0  0  0  0
    6.1285   -5.1832    1.1473 H   0  0  0  0  0  0  0  0  0  0  0  0
    4.8485   -2.5431    5.2165 H   0  0  0  0  0  0  0  0  0  0  0  0
    5.9359   -4.7751    5.4724 H   0  0  0  0  0  0  0  0  0  0  0  0
    5.4534   -1.1325   -1.1560 H   0  0  0  0  0  0  0  0  0  0  0  0
    3.8053   -1.7920   -1.4775 H   0  0  0  0  0  0  0  0  0  0  0  0
    8.2055   -5.5697    4.7420 H   0  0  0  0  0  0  0  0  0  0  0  0
    2.4686    2.6080   -3.3346 H   0  0  0  0  0  0  0  0  0  0  0  0
    4.0264    2.6412   -5.2783 H   0  0  0  0  0  0  0  0  0  0  0  0
    6.2129   -2.6575   -2.4167 H   0  0  0  0  0  0  0  0  0  0  0  0
    4.7884   -2.6210   -3.5252 H   0  0  0  0  0  0  0  0  0  0  0  0
    6.4032   -3.0282   -4.1203 H   0  0  0  0  0  0  0  0  0  0  0  0
    7.6488    0.1258   -5.2553 H   0  0  0  0  0  0  0  0  0  0  0  0
    6.4775   -0.8897   -6.2006 H   0  0  0  0  0  0  0  0  0  0  0  0
    7.3555    0.4352   -6.9607 H   0  0  0  0  0  0  0  0  0  0  0  0
  1  2  2  0  0  0  0
  1  3  1  0  0  0  0
  1  4  1  0  0  0  0
  2  5  1  0  0  0  0
  2  6  1  0  0  0  0
  3  7  2  0  0  0  0
  4  8  2  0  0  0  0
  4 27  1  0  0  0  0
  5  7  1  0  0  0  0
  6  9  2  0  0  0  0
  6 28  1  0  0  0  0
  7 10  1  0  0  0  0
  8 11  1  0  0  0  0
  8  9  1  0  0  0  0
  9 29  1  0  0  0  0
 10 12  1  0  0  0  0
 10 13  2  0  0  0  0
 11 14  1  0  0  0  0
 12 15  1  0  0  0  0
 12 30  1  0  0  0  0
 12 31  1  0  0  0  0
 14 16  1  0  0  0  0
 14 17  1  0  0  0  0
 14 32  1  0  0  0  0
 15 18  2  0  0  0  0
 15 19  1  0  0  0  0
 18 20  1  0  0  0  0
 18 21  1  0  0  0  0
 19 22  2  0  0  0  0
 20 23  2  0  0  0  0
 20 24  1  0  0  0  0
 21 25  1  0  0  0  0
 22 23  1  0  0  0  0
 22 33  1  0  0  0  0
 23 34  1  0  0  0  0
 24 26  1  0  0  0  0
 25 35  1  0  0  0  0
 25 36  1  0  0  0  0
 25 37  1  0  0  0  0
 26 38  1  0  0  0  0
 26 39  1  0  0  0  0
 26 40  1  0  0  0  0
M  CHG  1   5  -1
M  END
>  <Mol_ID>
1502

>  <Formula>
C16H14F2N3NaO4S

>  <MolWeight>
405.3516364

>  <Cat>
S4538

>  <Name>
Pantoprazole sodium

>  <Synonyms>
SKF96022 sodium, BY-1023 sodium

>  <Target>
ATPase,Proton Pump

>  <Form>
Free Base

>  <CAS>
138786-67-1

>  <URL>
http://selleckchem.com/products/pantoprazole-sodium.html

$$$$
