PAP-1
 OpenBabel08302521323D

 44 47  0  0  0  0  0  0  0  0999 V2000
    1.6169    5.8495    4.5330 C   0  0  0  0  0  0  0  0  0  0  0  0
    1.5474    6.1466    3.0977 C   0  0  0  0  0  0  0  0  0  0  0  0
    1.6302    5.1807    2.1722 C   0  0  0  0  0  0  0  0  0  0  0  0
    1.7391    3.7746    2.5365 C   0  0  0  0  0  0  0  0  0  0  0  0
    2.0976    3.5402    3.8804 C   0  0  0  0  0  0  0  0  0  0  0  0
    2.0217    4.5667    4.8577 O   0  0  0  0  0  0  0  0  0  0  0  0
    2.5465    2.3141    4.3595 C   0  0  0  0  0  0  0  0  0  0  0  0
    2.6035    1.3153    3.4042 C   0  0  0  0  0  0  0  0  0  0  0  0
    2.1651    1.4426    2.0861 C   0  0  0  0  0  0  0  0  0  0  0  0
    1.6481    2.6853    1.6264 C   0  0  0  0  0  0  0  0  0  0  0  0
    3.1099    0.0748    3.6299 O   0  0  0  0  0  0  0  0  0  0  0  0
    2.4040    0.1648    1.5022 C   0  0  0  0  0  0  0  0  0  0  0  0
    3.0073   -0.6109    2.4656 C   0  0  0  0  0  0  0  0  0  0  0  0
    1.3960    6.7121    5.3728 O   0  0  0  0  0  0  0  0  0  0  0  0
    1.2067    2.7554    0.3192 O   0  0  0  0  0  0  0  0  0  0  0  0
    0.0377    3.5504    0.0713 C   0  0  0  0  0  0  0  0  0  0  0  0
   -0.4714    3.4185   -1.3754 C   0  0  0  0  0  0  0  0  0  0  0  0
   -1.1255    2.0957   -1.7837 C   0  0  0  0  0  0  0  0  0  0  0  0
   -2.3255    1.7495   -0.9098 C   0  0  0  0  0  0  0  0  0  0  0  0
   -3.0121    0.5984   -1.4163 O   0  0  0  0  0  0  0  0  0  0  0  0
   -4.1443    0.2807   -0.7020 C   0  0  0  0  0  0  0  0  0  0  0  0
   -5.1747   -0.3511   -1.4034 C   0  0  0  0  0  0  0  0  0  0  0  0
   -6.3745   -0.6692   -0.7569 C   0  0  0  0  0  0  0  0  0  0  0  0
   -6.5411   -0.3732    0.5967 C   0  0  0  0  0  0  0  0  0  0  0  0
   -5.5013    0.2157    1.3084 C   0  0  0  0  0  0  0  0  0  0  0  0
   -4.3059    0.5321    0.6635 C   0  0  0  0  0  0  0  0  0  0  0  0
    1.4775    7.1955    2.8353 H   0  0  0  0  0  0  0  0  0  0  0  0
    1.7101    5.4699    1.1345 H   0  0  0  0  0  0  0  0  0  0  0  0
    2.8732    2.1643    5.3787 H   0  0  0  0  0  0  0  0  0  0  0  0
    2.1977   -0.1343    0.4860 H   0  0  0  0  0  0  0  0  0  0  0  0
    3.4041   -1.6168    2.4851 H   0  0  0  0  0  0  0  0  0  0  0  0
   -0.7521    3.3441    0.8019 H   0  0  0  0  0  0  0  0  0  0  0  0
    0.2974    4.6045    0.1432 H   0  0  0  0  0  0  0  0  0  0  0  0
   -1.2075    4.2183   -1.5383 H   0  0  0  0  0  0  0  0  0  0  0  0
    0.3603    3.6130   -2.0628 H   0  0  0  0  0  0  0  0  0  0  0  0
   -1.4550    2.1737   -2.8289 H   0  0  0  0  0  0  0  0  0  0  0  0
   -0.3952    1.2799   -1.7613 H   0  0  0  0  0  0  0  0  0  0  0  0
   -1.9442    1.5437    0.0930 H   0  0  0  0  0  0  0  0  0  0  0  0
   -3.0202    2.5996   -0.8878 H   0  0  0  0  0  0  0  0  0  0  0  0
   -5.0554   -0.5851   -2.4581 H   0  0  0  0  0  0  0  0  0  0  0  0
   -7.1829   -1.1432   -1.3076 H   0  0  0  0  0  0  0  0  0  0  0  0
   -7.4747   -0.6073    1.0995 H   0  0  0  0  0  0  0  0  0  0  0  0
   -5.6137    0.4330    2.3674 H   0  0  0  0  0  0  0  0  0  0  0  0
   -3.5139    0.9638    1.2639 H   0  0  0  0  0  0  0  0  0  0  0  0
  1  2  1  0  0  0  0
  1  6  1  0  0  0  0
  1 14  2  0  0  0  0
  2  3  2  0  0  0  0
  2 27  1  0  0  0  0
  3  4  1  0  0  0  0
  3 28  1  0  0  0  0
  4  5  2  0  0  0  0
  5  6  1  0  0  0  0
  7  8  2  0  0  0  0
  7  5  1  0  0  0  0
  7 29  1  0  0  0  0
  8  9  1  0  0  0  0
  9 10  2  0  0  0  0
 10  4  1  0  0  0  0
 10 15  1  0  0  0  0
 11 13  1  0  0  0  0
 11  8  1  0  0  0  0
 12 13  2  0  0  0  0
 12  9  1  0  0  0  0
 12 30  1  0  0  0  0
 13 31  1  0  0  0  0
 15 16  1  0  0  0  0
 16 17  1  0  0  0  0
 16 32  1  0  0  0  0
 16 33  1  0  0  0  0
 17 18  1  0  0  0  0
 17 34  1  0  0  0  0
 17 35  1  0  0  0  0
 18 19  1  0  0  0  0
 18 36  1  0  0  0  0
 18 37  1  0  0  0  0
 19 20  1  0  0  0  0
 19 38  1  0  0  0  0
 19 39  1  0  0  0  0
 20 21  1  0  0  0  0
 21 22  2  0  0  0  0
 21 26  1  0  0  0  0
 22 23  1  0  0  0  0
 22 40  1  0  0  0  0
 23 24  2  0  0  0  0
 23 41  1  0  0  0  0
 24 25  1  0  0  0  0
 24 42  1  0  0  0  0
 25 26  2  0  0  0  0
 25 43  1  0  0  0  0
 26 44  1  0  0  0  0
M  END
>  <Mol_ID>
6260

>  <Formula>
C21H18O5

>  <MolWeight>
350.36462

>  <Cat>
E0378

>  <Name>
PAP-1

>  <Synonyms>
5-(4-Phenoxybutoxy)psoralen

>  <Target>
Potassium Channel

>  <Form>
free base

>  <CAS>
870653-45-5

>  <URL>
http://www.selleckchem.com/products/pap-1.html

$$$$
