Papain
 OpenBabel08302521453D

 30 30  0  0  0  0  0  0  0  0999 V2000
    2.7700   -0.2310   -1.3645 O   0  0  0  0  0  0  0  0  0  0  0  0
    4.3289   -2.4179   -1.1018 O   0  0  0  0  0  0  0  0  0  0  0  0
    5.3348   -3.1792    0.7717 O   0  0  0  0  0  0  0  0  0  0  0  0
    2.8925   -0.7891    0.8243 N   0  0  0  0  0  0  0  0  0  0  0  0
    4.5891    0.7340    4.1853 N   0  0  0  0  0  0  0  0  0  0  0  0
   -1.4364    0.3299   -1.1199 N   0  0  0  0  0  0  0  0  0  0  0  0
    4.3350    2.7372    3.2746 N   0  0  0  0  0  0  0  0  0  0  0  0
    4.3526   -0.9393    0.8097 C   0  0  3  0  0  0  0  0  0  0  0  0
    4.9527   -0.7977    2.2179 C   0  0  0  0  0  0  0  0  0  0  0  0
    4.7066    0.5432    2.8310 C   0  0  0  0  0  0  0  0  0  0  0  0
    0.7072   -0.2525   -0.0706 C   0  0  0  0  0  0  0  0  0  0  0  0
    2.1951   -0.3860   -0.2875 C   0  0  0  0  0  0  0  0  0  0  0  0
    0.0083    0.2468   -1.3288 C   0  0  0  0  0  0  0  0  0  0  0  0
    4.7235   -2.2924    0.1909 C   0  0  0  0  0  0  0  0  0  0  0  0
    4.5618    1.8085    2.2936 C   0  0  0  0  0  0  0  0  0  0  0  0
    4.3580    2.0639    4.4011 C   0  0  0  0  0  0  0  0  0  0  0  0
    3.8674   -1.6096   -1.4394 H   0  0  0  0  0  0  0  0  0  0  0  0
    2.3766   -1.1450    1.6198 H   0  0  0  0  0  0  0  0  0  0  0  0
    4.6607    0.0270    4.9044 H   0  0  0  0  0  0  0  0  0  0  0  0
   -1.8818    0.6053   -1.9962 H   0  0  0  0  0  0  0  0  0  0  0  0
   -1.8112   -0.5909   -0.8950 H   0  0  0  0  0  0  0  0  0  0  0  0
    4.7836   -0.1690    0.1566 H   0  0  0  0  0  0  0  0  0  0  0  0
    4.5389   -1.5748    2.8738 H   0  0  0  0  0  0  0  0  0  0  0  0
    6.0364   -0.9646    2.1776 H   0  0  0  0  0  0  0  0  0  0  0  0
    0.3194   -1.2380    0.2145 H   0  0  0  0  0  0  0  0  0  0  0  0
    0.5358    0.4393    0.7626 H   0  0  0  0  0  0  0  0  0  0  0  0
    0.3876    1.2379   -1.6021 H   0  0  0  0  0  0  0  0  0  0  0  0
    0.2122   -0.4235   -2.1714 H   0  0  0  0  0  0  0  0  0  0  0  0
    4.6003    2.1044    1.2516 H   0  0  0  0  0  0  0  0  0  0  0  0
    4.2193    2.4803    5.3896 H   0  0  0  0  0  0  0  0  0  0  0  0
  1 12  2  0  0  0  0
  2 14  1  0  0  0  0
  2 17  1  0  0  0  0
  3 14  2  0  0  0  0
  4  8  1  0  0  0  0
  4 12  1  0  0  0  0
  4 18  1  0  0  0  0
  5 10  1  0  0  0  0
  5 16  1  0  0  0  0
  5 19  1  0  0  0  0
  6 13  1  0  0  0  0
  6 20  1  0  0  0  0
  6 21  1  0  0  0  0
  7 15  1  0  0  0  0
  7 16  2  0  0  0  0
  8  9  1  0  0  0  0
  8 14  1  0  0  0  0
  8 22  1  0  0  0  0
  9 10  1  0  0  0  0
  9 23  1  0  0  0  0
  9 24  1  0  0  0  0
 10 15  2  0  0  0  0
 11 12  1  0  0  0  0
 11 13  1  0  0  0  0
 11 25  1  0  0  0  0
 11 26  1  0  0  0  0
 13 27  1  0  0  0  0
 13 28  1  0  0  0  0
 15 29  1  0  0  0  0
 16 30  1  0  0  0  0
M  END
>  <Mol_ID>
9410

>  <Formula>
C9H14N4O3

>  <MolWeight>
226.23246

>  <Cat>
E0149

>  <Name>
Papain

>  <Synonyms>
papaya proteinase I

>  <Target>
Others

>  <Form>
Free Base

>  <CAS>
9001-73-4

>  <URL>
http://www.selleckchem.com/products/papain.html

$$$$
