paquinimod
 OpenBabel08302521323D

 48 50  0  0  0  0  0  0  0  0999 V2000
    0.1607   -2.9104   -0.4331 O   0  0  0  0  0  0  0  0  0  0  0  0
    2.8615   -2.2477   -0.0151 C   0  0  0  0  0  0  0  0  0  0  0  0
    3.1467   -2.7403   -1.4274 C   0  0  0  0  0  0  0  0  0  0  0  0
   -1.4737    2.3814    0.2211 C   0  0  0  0  0  0  0  0  0  0  0  0
   -2.5635   -2.4351    0.2396 C   0  0  0  0  0  0  0  0  0  0  0  0
   -3.9228   -2.1667    0.0965 N   0  0  0  0  0  0  0  0  0  0  0  0
   -2.1618   -3.6083    0.3010 O   0  0  0  0  0  0  0  0  0  0  0  0
   -4.8616   -3.3014    0.0252 C   0  0  0  0  0  0  0  0  0  0  0  0
   -5.3511   -3.7714    1.3865 C   0  0  0  0  0  0  0  0  0  0  0  0
   -2.6427    0.2781    1.6103 O   0  0  0  0  0  0  0  0  0  0  0  0
    0.8337   -0.6135   -0.0062 C   0  0  0  0  0  0  0  0  0  0  0  0
    0.3986    0.7352   -0.0060 C   0  0  0  0  0  0  0  0  0  0  0  0
   -0.2386   -1.6498   -0.0183 C   0  0  0  0  0  0  0  0  0  0  0  0
    2.2316   -0.8701   -0.0230 C   0  0  0  0  0  0  0  0  0  0  0  0
   -0.9859    1.0143    0.1946 N   0  0  0  0  0  0  0  0  0  0  0  0
    1.3295    1.7848   -0.0927 C   0  0  0  0  0  0  0  0  0  0  0  0
   -1.5193   -1.3509    0.3037 C   0  0  0  0  0  0  0  0  0  0  0  0
    3.1369    0.2114   -0.0611 C   0  0  0  0  0  0  0  0  0  0  0  0
   -1.7783    0.0301    0.7750 C   0  0  0  0  0  0  0  0  0  0  0  0
    2.6920    1.5241   -0.1089 C   0  0  0  0  0  0  0  0  0  0  0  0
   -4.4824   -0.9046   -0.2261 C   0  0  0  0  0  0  0  0  0  0  0  0
   -4.1520   -0.2581   -1.4209 C   0  0  0  0  0  0  0  0  0  0  0  0
   -5.3739   -0.3006    0.6674 C   0  0  0  0  0  0  0  0  0  0  0  0
   -4.6791    1.0076   -1.6918 C   0  0  0  0  0  0  0  0  0  0  0  0
   -5.8710    0.9772    0.4100 C   0  0  0  0  0  0  0  0  0  0  0  0
   -5.5207    1.6323   -0.7691 C   0  0  0  0  0  0  0  0  0  0  0  0
   -0.5614   -3.5474   -0.2302 H   0  0  0  0  0  0  0  0  0  0  0  0
    3.8100   -2.2057    0.5377 H   0  0  0  0  0  0  0  0  0  0  0  0
    2.2592   -2.9648    0.5483 H   0  0  0  0  0  0  0  0  0  0  0  0
    3.8766   -2.0943   -1.9294 H   0  0  0  0  0  0  0  0  0  0  0  0
    3.5605   -3.7519   -1.3976 H   0  0  0  0  0  0  0  0  0  0  0  0
    2.2439   -2.7560   -2.0463 H   0  0  0  0  0  0  0  0  0  0  0  0
   -1.0953    2.8951    1.1045 H   0  0  0  0  0  0  0  0  0  0  0  0
   -1.1664    2.9002   -0.6960 H   0  0  0  0  0  0  0  0  0  0  0  0
   -2.5672    2.3929    0.2487 H   0  0  0  0  0  0  0  0  0  0  0  0
   -5.7176   -3.0417   -0.6100 H   0  0  0  0  0  0  0  0  0  0  0  0
   -4.3584   -4.1376   -0.4754 H   0  0  0  0  0  0  0  0  0  0  0  0
   -6.0613   -3.0589    1.8160 H   0  0  0  0  0  0  0  0  0  0  0  0
   -5.8694   -4.7309    1.2866 H   0  0  0  0  0  0  0  0  0  0  0  0
   -4.5254   -3.8968    2.0923 H   0  0  0  0  0  0  0  0  0  0  0  0
    1.0204    2.8242   -0.0959 H   0  0  0  0  0  0  0  0  0  0  0  0
    4.2102    0.0250   -0.0562 H   0  0  0  0  0  0  0  0  0  0  0  0
    3.4068    2.3426   -0.1333 H   0  0  0  0  0  0  0  0  0  0  0  0
   -3.5009   -0.7331   -2.1478 H   0  0  0  0  0  0  0  0  0  0  0  0
   -5.6096   -0.7746    1.6160 H   0  0  0  0  0  0  0  0  0  0  0  0
   -4.4225    1.5155   -2.6177 H   0  0  0  0  0  0  0  0  0  0  0  0
   -6.4996    1.4714    1.1456 H   0  0  0  0  0  0  0  0  0  0  0  0
   -5.8967    2.6339   -0.9627 H   0  0  0  0  0  0  0  0  0  0  0  0
  1 13  1  0  0  0  0
  1 27  1  0  0  0  0
  2  3  1  0  0  0  0
  2 14  1  0  0  0  0
  2 28  1  0  0  0  0
  2 29  1  0  0  0  0
  3 30  1  0  0  0  0
  3 31  1  0  0  0  0
  3 32  1  0  0  0  0
  4 15  1  0  0  0  0
  4 33  1  0  0  0  0
  4 34  1  0  0  0  0
  4 35  1  0  0  0  0
  5  6  1  0  0  0  0
  5  7  2  0  0  0  0
  5 17  1  0  0  0  0
  6  8  1  0  0  0  0
  6 21  1  0  0  0  0
  8  9  1  0  0  0  0
  8 36  1  0  0  0  0
  8 37  1  0  0  0  0
  9 38  1  0  0  0  0
  9 39  1  0  0  0  0
  9 40  1  0  0  0  0
 10 19  2  0  0  0  0
 11 12  2  0  0  0  0
 11 13  1  0  0  0  0
 11 14  1  0  0  0  0
 12 15  1  0  0  0  0
 12 16  1  0  0  0  0
 13 17  2  0  0  0  0
 14 18  2  0  0  0  0
 15 19  1  0  0  0  0
 16 20  2  0  0  0  0
 16 41  1  0  0  0  0
 17 19  1  0  0  0  0
 18 20  1  0  0  0  0
 18 42  1  0  0  0  0
 20 43  1  0  0  0  0
 21 22  2  0  0  0  0
 21 23  1  0  0  0  0
 22 24  1  0  0  0  0
 22 44  1  0  0  0  0
 23 25  2  0  0  0  0
 23 45  1  0  0  0  0
 24 26  2  0  0  0  0
 24 46  1  0  0  0  0
 25 26  1  0  0  0  0
 25 47  1  0  0  0  0
 26 48  1  0  0  0  0
M  END
>  <Mol_ID>
6111

>  <Formula>
C21H22N2O3

>  <MolWeight>
350.41098

>  <Cat>
S9963

>  <Name>
paquinimod

>  <Synonyms>
ABR 25757

>  <Target>
COVID-19,SARS-CoV

>  <Form>
free base

>  <CAS>
248282-01-1

>  <URL>
http://www.selleckchem.com/products/paquinimod.html

$$$$
