Paraxanthine
 OpenBabel08302521523D

 21 22  0  0  0  0  0  0  0  0999 V2000
    0.9456    0.1128   -0.0587 O   0  0  0  0  0  0  0  0  0  0  0  0
    1.2669   -2.9484   -0.0613 C   0  0  0  0  0  0  0  0  0  0  0  0
    5.0269    2.3283   -0.0590 O   0  0  0  0  0  0  0  0  0  0  0  0
    2.2496    2.5367   -0.0581 C   0  0  0  0  0  0  0  0  0  0  0  0
    4.3075   -1.0857   -0.0595 C   0  0  0  0  0  0  0  0  0  0  0  0
    2.9472   -1.0858   -0.0595 C   0  0  0  0  0  0  0  0  0  0  0  0
    5.0034    0.0790   -0.0595 N   0  0  0  0  0  0  0  0  0  0  0  0
    4.8308   -2.3350   -0.0603 N   0  0  0  0  0  0  0  0  0  0  0  0
    2.1730    0.1099   -0.0587 C   0  0  0  0  0  0  0  0  0  0  0  0
    2.6022   -2.4067   -0.0602 N   0  0  0  0  0  0  0  0  0  0  0  0
    4.3608    1.2928   -0.0589 C   0  0  0  0  0  0  0  0  0  0  0  0
    3.7719   -3.1242   -0.0614 C   0  0  0  0  0  0  0  0  0  0  0  0
    2.9588    1.2730   -0.0584 N   0  0  0  0  0  0  0  0  0  0  0  0
    0.7502   -2.6036    0.8379 H   0  0  0  0  0  0  0  0  0  0  0  0
    0.7511   -2.6018   -0.9603 H   0  0  0  0  0  0  0  0  0  0  0  0
    1.3147   -4.0405   -0.0624 H   0  0  0  0  0  0  0  0  0  0  0  0
    1.6103    2.5863   -0.9456 H   0  0  0  0  0  0  0  0  0  0  0  0
    1.6106    2.5860    0.8296 H   0  0  0  0  0  0  0  0  0  0  0  0
    2.9241    3.3965   -0.0581 H   0  0  0  0  0  0  0  0  0  0  0  0
    6.0125    0.0521   -0.0603 H   0  0  0  0  0  0  0  0  0  0  0  0
    3.7951   -4.2073   -0.0635 H   0  0  0  0  0  0  0  0  0  0  0  0
  1  9  2  0  0  0  0
  2 10  1  0  0  0  0
  2 14  1  0  0  0  0
  2 15  1  0  0  0  0
  2 16  1  0  0  0  0
  3 11  2  0  0  0  0
  4 13  1  0  0  0  0
  4 17  1  0  0  0  0
  4 18  1  0  0  0  0
  4 19  1  0  0  0  0
  5  6  2  0  0  0  0
  5  7  1  0  0  0  0
  5  8  1  0  0  0  0
  6  9  1  0  0  0  0
  6 10  1  0  0  0  0
  7 11  1  0  0  0  0
  7 20  1  0  0  0  0
  8 12  2  0  0  0  0
  9 13  1  0  0  0  0
 10 12  1  0  0  0  0
 11 13  1  0  0  0  0
 12 21  1  0  0  0  0
M  END
>  <Mol_ID>
9952

>  <Formula>
C7H8N4O2

>  <MolWeight>
180.16402

>  <Cat>
E5192

>  <Name>
Paraxanthine

>  <Synonyms>
1, 7-dimethylxanthine

>  <Target>
Dopamine Receptor

>  <Form>
free base

>  <CAS>
611-59-6

>  <URL>
https://www.selleckchem.com/products/paraxanthine.html

$$$$
