Parbendazole
 OpenBabel08302521233D

 35 36  0  0  0  0  0  0  0  0999 V2000
    0.8434   -0.4105   -0.2069 C   0  0  0  0  0  0  0  0  0  0  0  0
    0.2265    0.2756   -1.2176 N   0  0  0  0  0  0  0  0  0  0  0  0
    0.3650   -0.7021    0.8802 O   0  0  0  0  0  0  0  0  0  0  0  0
    2.0723   -0.7975   -0.6454 O   0  0  0  0  0  0  0  0  0  0  0  0
   -1.1294    0.4215   -1.2232 C   0  0  0  0  0  0  0  0  0  0  0  0
   -1.8726    0.2632   -2.2966 N   0  0  0  0  0  0  0  0  0  0  0  0
   -3.1689    0.3400   -1.8487 C   0  0  0  0  0  0  0  0  0  0  0  0
   -3.2097    0.7078   -0.5035 C   0  0  0  0  0  0  0  0  0  0  0  0
   -1.8968    0.7249   -0.1252 N   0  0  0  0  0  0  0  0  0  0  0  0
   -4.3699    0.0943   -2.5239 C   0  0  0  0  0  0  0  0  0  0  0  0
   -5.5784    0.2599   -1.8352 C   0  0  0  0  0  0  0  0  0  0  0  0
   -5.6037    0.6954   -0.4971 C   0  0  0  0  0  0  0  0  0  0  0  0
   -4.4015    0.9367    0.1863 C   0  0  0  0  0  0  0  0  0  0  0  0
   -6.9234    0.8998    0.2138 C   0  0  0  0  0  0  0  0  0  0  0  0
   -7.7567   -0.3741    0.4087 C   0  0  0  0  0  0  0  0  0  0  0  0
   -7.0781   -1.4955    1.2020 C   0  0  0  0  0  0  0  0  0  0  0  0
   -6.7391   -1.1208    2.6362 C   0  0  0  0  0  0  0  0  0  0  0  0
    2.7390   -1.7456    0.1889 C   0  0  0  0  0  0  0  0  0  0  0  0
    0.6688    0.1893   -2.1187 H   0  0  0  0  0  0  0  0  0  0  0  0
   -1.5307    0.8910    0.8044 H   0  0  0  0  0  0  0  0  0  0  0  0
   -4.3528   -0.2367   -3.5593 H   0  0  0  0  0  0  0  0  0  0  0  0
   -6.5074    0.0473   -2.3566 H   0  0  0  0  0  0  0  0  0  0  0  0
   -4.3920    1.2757    1.2225 H   0  0  0  0  0  0  0  0  0  0  0  0
   -6.7578    1.3842    1.1834 H   0  0  0  0  0  0  0  0  0  0  0  0
   -7.5108    1.6195   -0.3716 H   0  0  0  0  0  0  0  0  0  0  0  0
   -8.6923   -0.0996    0.9126 H   0  0  0  0  0  0  0  0  0  0  0  0
   -8.0448   -0.7748   -0.5712 H   0  0  0  0  0  0  0  0  0  0  0  0
   -7.7538   -2.3598    1.2236 H   0  0  0  0  0  0  0  0  0  0  0  0
   -6.1698   -1.8270    0.6869 H   0  0  0  0  0  0  0  0  0  0  0  0
   -7.6476   -0.9087    3.2092 H   0  0  0  0  0  0  0  0  0  0  0  0
   -6.2185   -1.9513    3.1254 H   0  0  0  0  0  0  0  0  0  0  0  0
   -6.0858   -0.2454    2.6879 H   0  0  0  0  0  0  0  0  0  0  0  0
    3.0615   -1.2757    1.1213 H   0  0  0  0  0  0  0  0  0  0  0  0
    2.0959   -2.6092    0.3865 H   0  0  0  0  0  0  0  0  0  0  0  0
    3.6222   -2.0984   -0.3509 H   0  0  0  0  0  0  0  0  0  0  0  0
  1  2  1  0  0  0  0
  1  3  2  0  0  0  0
  1  4  1  0  0  0  0
  2  5  1  0  0  0  0
  2 19  1  0  0  0  0
  4 18  1  0  0  0  0
  5  6  2  0  0  0  0
  5  9  1  0  0  0  0
  6  7  1  0  0  0  0
  7  8  2  0  0  0  0
  7 10  1  0  0  0  0
  8  9  1  0  0  0  0
  8 13  1  0  0  0  0
  9 20  1  0  0  0  0
 10 11  2  0  0  0  0
 10 21  1  0  0  0  0
 11 12  1  0  0  0  0
 11 22  1  0  0  0  0
 12 13  2  0  0  0  0
 12 14  1  0  0  0  0
 13 23  1  0  0  0  0
 14 15  1  0  0  0  0
 14 24  1  0  0  0  0
 14 25  1  0  0  0  0
 15 16  1  0  0  0  0
 15 26  1  0  0  0  0
 15 27  1  0  0  0  0
 16 17  1  0  0  0  0
 16 28  1  0  0  0  0
 16 29  1  0  0  0  0
 17 30  1  0  0  0  0
 17 31  1  0  0  0  0
 17 32  1  0  0  0  0
 18 33  1  0  0  0  0
 18 34  1  0  0  0  0
 18 35  1  0  0  0  0
M  END
>  <Mol_ID>
4880

>  <Formula>
C13H17N3O2

>  <MolWeight>
247.29298

>  <Cat>
S2444

>  <Name>
Parbendazole

>  <Synonyms>
SKF 29044

>  <Target>
Microtubule Associated

>  <Form>
Free Base

>  <CAS>
14255-87-9

>  <URL>
http://www.selleck.cn/products/parbendazole.html

$$$$
