Paroxetine hydrochloride.cdx
 OpenBabel08302522003D

 44 47  0  0  0  0  0  0  0  0999 V2000
   -1.4829    0.1209    0.3742 C   0  0  1  0  0  0  0  0  0  0  0  0
   -0.7402    1.4744    0.1476 C   0  0  1  0  0  0  0  0  0  0  0  0
    0.7123    1.3041   -0.3396 C   0  0  0  0  0  0  0  0  0  0  0  0
    1.4305    0.2121    0.3158 N   0  0  0  0  0  0  0  0  0  0  0  0
    0.7382   -1.0485    0.0664 C   0  0  0  0  0  0  0  0  0  0  0  0
   -0.5770   -1.0383    0.8311 C   0  0  0  0  0  0  0  0  0  0  0  0
   -2.6746    0.3315    1.3100 C   0  0  0  0  0  0  0  0  0  0  0  0
   -3.9654    0.3933    0.7589 C   0  0  0  0  0  0  0  0  0  0  0  0
   -1.6541    1.6909   -2.1048 O   0  0  0  0  0  0  0  0  0  0  0  0
   -1.5030    2.3877   -0.8595 C   0  0  0  0  0  0  0  0  0  0  0  0
   -2.5193    0.5707    2.6890 C   0  0  0  0  0  0  0  0  0  0  0  0
   -3.6225    0.9057    3.4810 C   0  0  0  0  0  0  0  0  0  0  0  0
   -4.8811    0.9991    2.9005 C   0  0  0  0  0  0  0  0  0  0  0  0
   -5.0610    0.7338    1.5512 C   0  0  0  0  0  0  0  0  0  0  0  0
   -2.0559    2.3620   -3.2217 C   0  0  0  0  0  0  0  0  0  0  0  0
   -2.0837    1.5788   -4.3850 C   0  0  0  0  0  0  0  0  0  0  0  0
   -2.4501    2.1690   -5.5779 C   0  0  0  0  0  0  0  0  0  0  0  0
   -2.7804    3.4980   -5.6508 C   0  0  0  0  0  0  0  0  0  0  0  0
   -2.7807    4.2979   -4.5277 C   0  0  0  0  0  0  0  0  0  0  0  0
   -2.4274    3.7197   -3.2949 C   0  0  0  0  0  0  0  0  0  0  0  0
   -2.5250    1.5470   -6.7873 O   0  0  0  0  0  0  0  0  0  0  0  0
   -2.9999    2.6279   -7.6179 C   0  0  0  0  0  0  0  0  0  0  0  0
   -3.0895    3.8869   -6.9165 O   0  0  0  0  0  0  0  0  0  0  0  0
   -5.9292    1.3687    3.6465 F   0  0  0  0  0  0  0  0  0  0  0  0
   -1.8783   -0.2120   -0.5948 H   0  0  0  0  0  0  0  0  0  0  0  0
   -0.6884    2.0137    1.1041 H   0  0  0  0  0  0  0  0  0  0  0  0
    0.7613    1.1703   -1.4260 H   0  0  0  0  0  0  0  0  0  0  0  0
    1.2554    2.2325   -0.1209 H   0  0  0  0  0  0  0  0  0  0  0  0
    2.3732    0.1561   -0.0707 H   0  0  0  0  0  0  0  0  0  0  0  0
    1.3585   -1.8827    0.4110 H   0  0  0  0  0  0  0  0  0  0  0  0
    0.5704   -1.2011   -1.0085 H   0  0  0  0  0  0  0  0  0  0  0  0
   -0.3623   -0.9971    1.9054 H   0  0  0  0  0  0  0  0  0  0  0  0
   -1.0974   -1.9911    0.6638 H   0  0  0  0  0  0  0  0  0  0  0  0
   -4.1150    0.2102   -0.3034 H   0  0  0  0  0  0  0  0  0  0  0  0
   -2.4951    2.6418   -0.4696 H   0  0  0  0  0  0  0  0  0  0  0  0
   -0.9322    3.3124   -1.0032 H   0  0  0  0  0  0  0  0  0  0  0  0
   -1.5370    0.5291    3.1569 H   0  0  0  0  0  0  0  0  0  0  0  0
   -3.5066    1.1140    4.5411 H   0  0  0  0  0  0  0  0  0  0  0  0
   -6.0520    0.8108    1.1144 H   0  0  0  0  0  0  0  0  0  0  0  0
   -1.8174    0.5295   -4.3483 H   0  0  0  0  0  0  0  0  0  0  0  0
   -3.0521    5.3458   -4.6020 H   0  0  0  0  0  0  0  0  0  0  0  0
   -2.4484    4.3516   -2.4117 H   0  0  0  0  0  0  0  0  0  0  0  0
   -2.3241    2.7405   -8.4738 H   0  0  0  0  0  0  0  0  0  0  0  0
   -3.9970    2.3694   -7.9951 H   0  0  0  0  0  0  0  0  0  0  0  0
  1  2  1  0  0  0  0
  1  7  1  0  0  0  0
  1 25  1  6  0  0  0
  2  3  1  0  0  0  0
  2 10  1  0  0  0  0
  2 26  1  1  0  0  0
  3  4  1  0  0  0  0
  3 27  1  0  0  0  0
  3 28  1  0  0  0  0
  4  5  1  0  0  0  0
  4 29  1  0  0  0  0
  5  6  1  0  0  0  0
  5 30  1  0  0  0  0
  5 31  1  0  0  0  0
  6  1  1  0  0  0  0
  6 32  1  0  0  0  0
  6 33  1  0  0  0  0
  7  8  2  0  0  0  0
  7 11  1  0  0  0  0
  8 34  1  0  0  0  0
  9 10  1  0  0  0  0
  9 15  1  0  0  0  0
 10 35  1  0  0  0  0
 10 36  1  0  0  0  0
 11 12  2  0  0  0  0
 11 37  1  0  0  0  0
 12 13  1  0  0  0  0
 12 38  1  0  0  0  0
 13 14  2  0  0  0  0
 13 24  1  0  0  0  0
 14  8  1  0  0  0  0
 14 39  1  0  0  0  0
 15 16  2  0  0  0  0
 16 17  1  0  0  0  0
 16 40  1  0  0  0  0
 17 18  2  0  0  0  0
 17 21  1  0  0  0  0
 18 19  1  0  0  0  0
 19 20  2  0  0  0  0
 19 41  1  0  0  0  0
 20 15  1  0  0  0  0
 20 42  1  0  0  0  0
 21 22  1  0  0  0  0
 22 23  1  0  0  0  0
 22 43  1  0  0  0  0
 22 44  1  0  0  0  0
 23 18  1  0  0  0  0
M  END
>  <Mol_ID>
1080

>  <Formula>
C19H21ClFNO3

>  <MolWeight>
365.8263432

>  <Cat>
S3005

>  <Name>
Paroxetine HCl

>  <Synonyms>
BRL-29060A, FG-7051

>  <Target>
Serotonin Transporter

>  <Form>
Hydrochloride

>  <CAS>
78246-49-8

>  <URL>
http://selleckchem.com/products/paroxetine-hcl.html

$$$$
