Parsaclisib (INCB050465)
 OpenBabel08302521353D

 52 55  0  0  0  0  0  0  0  0999 V2000
    0.8337   -0.3277    0.9477 F   0  0  0  0  0  0  0  0  0  0  0  0
   -1.5031    3.7338   -0.0102 O   0  0  0  0  0  0  0  0  0  0  0  0
    4.0872    1.8256   -1.9093 O   0  0  0  0  0  0  0  0  0  0  0  0
    2.3385    3.3076   -1.7203 N   0  0  0  0  0  0  0  0  0  0  0  0
   -5.0759    1.6315    0.3741 N   0  0  0  0  0  0  0  0  0  0  0  0
   -5.8326    0.7423    1.0580 N   0  0  0  0  0  0  0  0  0  0  0  0
   -4.8870    2.5500   -1.8781 N   0  0  0  0  0  0  0  0  0  0  0  0
   -6.5618    1.6353   -3.3660 N   0  0  0  0  0  0  0  0  0  0  0  0
   -8.1833    0.0833   -2.7288 N   0  0  0  0  0  0  0  0  0  0  0  0
    1.0487    2.3009   -0.0362 C   0  0  2  0  0  0  0  0  0  0  0  0
    1.0146    3.3310   -1.1649 C   0  0  0  0  0  0  0  0  0  0  0  0
    2.1282    1.3022   -0.5540 C   0  0  0  0  0  0  0  0  0  0  0  0
   -0.2901    1.7258    0.4441 C   0  0  0  0  0  0  0  0  0  0  0  0
   -4.0845    2.4573    1.0804 C   0  0  2  0  0  0  0  0  0  0  0  0
   -1.5196    2.4636    0.5262 C   0  0  0  0  0  0  0  0  0  0  0  0
   -2.6879    1.8421    1.0476 C   0  0  0  0  0  0  0  0  0  0  0  0
    3.0054    2.1363   -1.4535 C   0  0  0  0  0  0  0  0  0  0  0  0
   -0.2831    0.4142    0.9635 C   0  0  0  0  0  0  0  0  0  0  0  0
   -2.5838    0.5381    1.5883 C   0  0  0  0  0  0  0  0  0  0  0  0
   -4.5218    2.8110    2.5139 C   0  0  0  0  0  0  0  0  0  0  0  0
   -1.3981   -0.1684    1.5354 C   0  0  0  0  0  0  0  0  0  0  0  0
   -5.4370    1.7537   -0.9433 C   0  0  0  0  0  0  0  0  0  0  0  0
   -6.5129    0.9005   -1.1201 C   0  0  0  0  0  0  0  0  0  0  0  0
   -6.7121    0.3042    0.1508 C   0  0  0  0  0  0  0  0  0  0  0  0
   -2.1772    4.8169    0.6534 C   0  0  0  0  0  0  0  0  0  0  0  0
   -7.0890    0.8618   -2.3922 C   0  0  0  0  0  0  0  0  0  0  0  0
   -7.7306   -0.6918    0.5510 C   0  0  0  0  0  0  0  0  0  0  0  0
   -3.2528    5.4292   -0.2516 C   0  0  0  0  0  0  0  0  0  0  0  0
   -5.5091    2.4208   -3.0616 C   0  0  0  0  0  0  0  0  0  0  0  0
    2.7084    3.9622   -2.3999 H   0  0  0  0  0  0  0  0  0  0  0  0
   -8.2839   -0.7783   -2.2105 H   0  0  0  0  0  0  0  0  0  0  0  0
   -8.2746    0.0112   -3.7365 H   0  0  0  0  0  0  0  0  0  0  0  0
    1.4886    2.7857    0.8485 H   0  0  0  0  0  0  0  0  0  0  0  0
    0.3090    3.0690   -1.9591 H   0  0  0  0  0  0  0  0  0  0  0  0
    0.8169    4.3424   -0.8007 H   0  0  0  0  0  0  0  0  0  0  0  0
    1.7103    0.4848   -1.1504 H   0  0  0  0  0  0  0  0  0  0  0  0
    2.7352    0.9034    0.2648 H   0  0  0  0  0  0  0  0  0  0  0  0
   -4.1055    3.3686    0.5046 H   0  0  0  0  0  0  0  0  0  0  0  0
   -3.4489    0.0539    2.0416 H   0  0  0  0  0  0  0  0  0  0  0  0
   -3.7631    3.4049    3.0366 H   0  0  0  0  0  0  0  0  0  0  0  0
   -5.4487    3.3957    2.4993 H   0  0  0  0  0  0  0  0  0  0  0  0
   -4.7011    1.9223    3.1282 H   0  0  0  0  0  0  0  0  0  0  0  0
   -1.3355   -1.1766    1.9350 H   0  0  0  0  0  0  0  0  0  0  0  0
   -2.5821    4.5347    1.6269 H   0  0  0  0  0  0  0  0  0  0  0  0
   -1.4337    5.5914    0.8694 H   0  0  0  0  0  0  0  0  0  0  0  0
   -8.7368   -0.3217    0.3353 H   0  0  0  0  0  0  0  0  0  0  0  0
   -7.5724   -1.6280    0.0087 H   0  0  0  0  0  0  0  0  0  0  0  0
   -7.6741   -0.9090    1.6237 H   0  0  0  0  0  0  0  0  0  0  0  0
   -3.4198    4.8395   -1.1586 H   0  0  0  0  0  0  0  0  0  0  0  0
   -4.2086    5.5191    0.2821 H   0  0  0  0  0  0  0  0  0  0  0  0
   -2.9843    6.4455   -0.5535 H   0  0  0  0  0  0  0  0  0  0  0  0
   -5.1171    3.0231   -3.8769 H   0  0  0  0  0  0  0  0  0  0  0  0
  1 18  1  0  0  0  0
  2 15  1  0  0  0  0
  2 25  1  0  0  0  0
  3 17  2  0  0  0  0
  4 11  1  0  0  0  0
  4 17  1  0  0  0  0
  4 30  1  0  0  0  0
  5  6  1  0  0  0  0
  5 14  1  0  0  0  0
  5 22  1  0  0  0  0
  6 24  2  0  0  0  0
  7 22  1  0  0  0  0
  7 29  2  0  0  0  0
  8 26  2  0  0  0  0
  8 29  1  0  0  0  0
  9 26  1  0  0  0  0
  9 31  1  0  0  0  0
  9 32  1  0  0  0  0
 10 11  1  0  0  0  0
 10 12  1  0  0  0  0
 10 33  1  1  0  0  0
 10 13  1  0  0  0  0
 11 34  1  0  0  0  0
 11 35  1  0  0  0  0
 12 17  1  0  0  0  0
 12 36  1  0  0  0  0
 12 37  1  0  0  0  0
 13 15  2  0  0  0  0
 13 18  1  0  0  0  0
 14 16  1  0  0  0  0
 14 20  1  0  0  0  0
 14 38  1  6  0  0  0
 15 16  1  0  0  0  0
 16 19  2  0  0  0  0
 18 21  2  0  0  0  0
 19 21  1  0  0  0  0
 19 39  1  0  0  0  0
 20 40  1  0  0  0  0
 20 41  1  0  0  0  0
 20 42  1  0  0  0  0
 21 43  1  0  0  0  0
 22 23  2  0  0  0  0
 23 24  1  0  0  0  0
 23 26  1  0  0  0  0
 24 27  1  0  0  0  0
 25 28  1  0  0  0  0
 25 44  1  0  0  0  0
 25 45  1  0  0  0  0
 27 46  1  0  0  0  0
 27 47  1  0  0  0  0
 27 48  1  0  0  0  0
 28 49  1  0  0  0  0
 28 50  1  0  0  0  0
 28 51  1  0  0  0  0
 29 52  1  0  0  0  0
M  END
>  <Mol_ID>
6793

>  <Formula>
C20H22ClFN6O2

>  <MolWeight>
432.8790832

>  <Cat>
E0121

>  <Name>
Parsaclisib (INCB050465)

>  <Synonyms>
INCB-50465, IBI376

>  <Target>
PI3K

>  <Form>
Free base

>  <CAS>
1426698-88-5

>  <URL>
http://www.selleckchem.com/products/parsaclisib-incb050465.html

$$$$
