Parthenolide
 OpenBabel08302521372D

 38 40  0  0  0  0  0  0  0  0999 V2000
    2.7622    0.0000    0.0000 C   0  0  0  0  0  0  0  0  0  0  0  0
    6.0444    6.7721    0.0000 C   0  0  0  0  0  0  0  0  0  0  0  0
    8.3079    4.7341    0.0000 O   0  0  0  0  0  0  0  0  0  0  0  0
    0.0000    5.9997    0.0000 C   0  0  0  0  0  0  0  0  0  0  0  0
    4.4072    2.0314    0.0000 C   0  0  3  0  0  0  0  0  0  0  0  0
    4.9768    3.3105    0.0000 C   0  0  3  0  0  0  0  0  0  0  0  0
    3.1948    1.3314    0.0000 C   0  0  3  0  0  0  0  0  0  0  0  0
    4.4072    0.6314    0.0000 O   0  0  0  0  0  0  0  0  0  0  0  0
    4.6857    4.6799    0.0000 C   0  0  3  0  0  0  0  0  0  0  0  0
    6.3690    3.1641    0.0000 O   0  0  0  0  0  0  0  0  0  0  0  0
    1.8025    1.4777    0.0000 C   0  0  0  0  0  0  0  0  0  0  0  0
    5.8981    5.3798    0.0000 C   0  0  0  0  0  0  0  0  0  0  0  0
    3.6452    5.6166    0.0000 C   0  0  0  0  0  0  0  0  0  0  0  0
    6.9385    4.4430    0.0000 C   0  0  0  0  0  0  0  0  0  0  0  0
    0.7620    2.4146    0.0000 C   0  0  0  0  0  0  0  0  0  0  0  0
    2.2529    5.7630    0.0000 C   0  0  0  0  0  0  0  0  0  0  0  0
    0.4710    3.7840    0.0000 C   0  0  0  0  0  0  0  0  0  0  0  0
    1.0404    5.0630    0.0000 C   0  0  0  0  0  0  0  0  0  0  0  0
    1.7156   -0.2225    0.0000 H   0  0  0  0  0  0  0  0  0  0  0  0
    3.4782   -0.7952    0.0000 H   0  0  0  0  0  0  0  0  0  0  0  0
    2.4316   -1.0176    0.0000 H   0  0  0  0  0  0  0  0  0  0  0  0
    6.9872    7.1919    0.0000 H   0  0  0  0  0  0  0  0  0  0  0  0
    5.2095    7.3787    0.0000 H   0  0  0  0  0  0  0  0  0  0  0  0
    0.2224    7.0463    0.0000 H   0  0  0  0  0  0  0  0  0  0  0  0
   -1.0176    5.6690    0.0000 H   0  0  0  0  0  0  0  0  0  0  0  0
   -0.7952    6.7156    0.0000 H   0  0  0  0  0  0  0  0  0  0  0  0
    3.6121    2.7474    0.0000 H   0  0  0  0  0  0  0  0  0  0  0  0
    3.9127    3.4224    0.0000 H   0  0  0  0  0  0  0  0  0  0  0  0
    5.6632    4.2447    0.0000 H   0  0  0  0  0  0  0  0  0  0  0  0
    1.3673    0.5002    0.0000 H   0  0  0  0  0  0  0  0  0  0  0  0
    0.7559    1.2552    0.0000 H   0  0  0  0  0  0  0  0  0  0  0  0
    4.0804    6.5941    0.0000 H   0  0  0  0  0  0  0  0  0  0  0  0
    3.1102    6.5433    0.0000 H   0  0  0  0  0  0  0  0  0  0  0  0
   -0.1647    1.8796    0.0000 H   0  0  0  0  0  0  0  0  0  0  0  0
   -0.2155    2.8499    0.0000 H   0  0  0  0  0  0  0  0  0  0  0  0
    2.0305    6.8096    0.0000 H   0  0  0  0  0  0  0  0  0  0  0  0
    1.2754    6.1982    0.0000 H   0  0  0  0  0  0  0  0  0  0  0  0
   -0.5553    3.8919    0.0000 H   0  0  0  0  0  0  0  0  0  0  0  0
  1  7  1  0  0  0  0
  1 19  1  0  0  0  0
  1 20  1  0  0  0  0
  1 21  1  0  0  0  0
  2 12  2  0  0  0  0
  2 22  1  0  0  0  0
  2 23  1  0  0  0  0
  3 14  2  0  0  0  0
  4 18  1  0  0  0  0
  4 24  1  0  0  0  0
  4 25  1  0  0  0  0
  4 26  1  0  0  0  0
  5  6  1  0  0  0  0
  5  7  1  0  0  0  0
  5  8  1  0  0  0  0
  5 27  1  0  0  0  0
  6  9  1  0  0  0  0
  6 10  1  0  0  0  0
  6 28  1  0  0  0  0
  7  8  1  0  0  0  0
  7 11  1  0  0  0  0
  9 12  1  0  0  0  0
  9 13  1  0  0  0  0
  9 29  1  0  0  0  0
 10 14  1  0  0  0  0
 11 15  1  0  0  0  0
 11 30  1  0  0  0  0
 11 31  1  0  0  0  0
 12 14  1  0  0  0  0
 13 16  1  0  0  0  0
 13 32  1  0  0  0  0
 13 33  1  0  0  0  0
 15 17  1  0  0  0  0
 15 34  1  0  0  0  0
 15 35  1  0  0  0  0
 16 18  1  0  0  0  0
 16 36  1  0  0  0  0
 16 37  1  0  0  0  0
 17 18  2  0  0  0  0
 17 38  1  0  0  0  0
M  END
>  <Mol_ID>
7396

>  <Formula>
C15H20O3

>  <MolWeight>
248.3175

>  <Cat>
E4486

>  <Name>
Parthenolide

>  <Synonyms>
(-)-Parthenolide

>  <Target>
HDAC

>  <Form>
free base

>  <CAS>
29552-41-8

>  <URL>
https://www.selleckchem.com/products/parthenolide.html

$$$$
