Parthenolide.cdx
 OpenBabel08302521373D

 38 40  0  0  0  0  0  0  0  0999 V2000
    2.3339   -2.3825   -0.9828 C   0  0  0  0  0  0  0  0  0  0  0  0
    1.3034   -3.3711   -0.4355 C   0  0  0  0  0  0  0  0  0  0  0  0
    0.1048   -3.4857   -1.3062 C   0  0  2  0  0  0  0  0  0  0  0  0
   -1.0958   -2.5735   -1.1868 C   0  0  2  0  0  0  0  0  0  0  0  0
    1.6448   -0.1611    0.0093 C   0  0  0  0  0  0  0  0  0  0  0  0
    1.9293   -0.9327   -1.0534 C   0  0  0  0  0  0  0  0  0  0  0  0
   -1.4761   -1.4722   -0.2509 C   0  0  2  0  0  0  0  0  0  0  0  0
   -1.1075   -1.3486    1.2409 C   0  0  1  0  0  0  0  0  0  0  0  0
    0.1516   -0.7828    1.9599 C   0  0  0  0  0  0  0  0  0  0  0  0
    1.5612   -0.7223    1.3915 C   0  0  0  0  0  0  0  0  0  0  0  0
   -2.9477   -1.6351   -0.2006 O   0  0  0  0  0  0  0  0  0  0  0  0
   -3.4539   -1.0984    0.9312 C   0  0  0  0  0  0  0  0  0  0  0  0
   -2.2949   -0.4515    1.5446 C   0  0  2  0  0  0  0  0  0  0  0  0
    1.4969    1.3310   -0.1015 C   0  0  0  0  0  0  0  0  0  0  0  0
   -2.4159    0.8511    1.8578 C   0  0  0  0  0  0  0  0  0  0  0  0
   -4.6073   -1.1029    1.3195 O   0  0  0  0  0  0  0  0  0  0  0  0
   -1.0784   -3.8931   -0.6060 O   0  0  0  0  0  0  0  0  0  0  0  0
    0.3087   -4.1935   -2.6209 C   0  0  0  0  0  0  0  0  0  0  0  0
    3.2452   -2.4516   -0.3765 H   0  0  0  0  0  0  0  0  0  0  0  0
    2.6380   -2.6901   -1.9900 H   0  0  0  0  0  0  0  0  0  0  0  0
    1.7786   -4.3568   -0.3597 H   0  0  0  0  0  0  0  0  0  0  0  0
    0.9898   -3.1410    0.5844 H   0  0  0  0  0  0  0  0  0  0  0  0
   -1.6682   -2.4549   -2.1059 H   0  0  0  0  0  0  0  0  0  0  0  0
    1.9794   -0.4719   -2.0407 H   0  0  0  0  0  0  0  0  0  0  0  0
   -1.2931   -0.5269   -0.7778 H   0  0  0  0  0  0  0  0  0  0  0  0
   -1.2960   -2.3270    1.7103 H   0  0  0  0  0  0  0  0  0  0  0  0
    0.2382   -1.3656    2.8925 H   0  0  0  0  0  0  0  0  0  0  0  0
   -0.0319    0.2225    2.3480 H   0  0  0  0  0  0  0  0  0  0  0  0
    2.0537   -1.6909    1.4966 H   0  0  0  0  0  0  0  0  0  0  0  0
    2.1654   -0.0825    2.0541 H   0  0  0  0  0  0  0  0  0  0  0  0
    2.3855    1.8191    0.3291 H   0  0  0  0  0  0  0  0  0  0  0  0
    1.4097    1.6663   -1.1358 H   0  0  0  0  0  0  0  0  0  0  0  0
    0.6214    1.6950    0.4440 H   0  0  0  0  0  0  0  0  0  0  0  0
   -1.5664    1.4998    2.0304 H   0  0  0  0  0  0  0  0  0  0  0  0
   -3.3866    1.3401    1.8222 H   0  0  0  0  0  0  0  0  0  0  0  0
   -0.6387   -4.4344   -3.1140 H   0  0  0  0  0  0  0  0  0  0  0  0
    0.8573   -5.1307   -2.4785 H   0  0  0  0  0  0  0  0  0  0  0  0
    0.8846   -3.5622   -3.3087 H   0  0  0  0  0  0  0  0  0  0  0  0
  1  2  1  0  0  0  0
  1 19  1  0  0  0  0
  1 20  1  0  0  0  0
  2  3  1  0  0  0  0
  2 21  1  0  0  0  0
  2 22  1  0  0  0  0
  3  4  1  0  0  0  0
  3 17  1  0  0  0  0
  3 18  1  6  0  0  0
  4  7  1  0  0  0  0
  4 17  1  0  0  0  0
  4 23  1  6  0  0  0
  5  6  2  0  0  0  0
  5 14  1  0  0  0  0
  6  1  1  0  0  0  0
  6 24  1  0  0  0  0
  7  8  1  0  0  0  0
  7 11  1  0  0  0  0
  7 25  1  6  0  0  0
  8  9  1  0  0  0  0
  8 13  1  0  0  0  0
  8 26  1  1  0  0  0
  9 10  1  0  0  0  0
  9 27  1  0  0  0  0
  9 28  1  0  0  0  0
 10  5  1  0  0  0  0
 10 29  1  0  0  0  0
 10 30  1  0  0  0  0
 11 12  1  0  0  0  0
 12 13  1  0  0  0  0
 12 16  2  0  0  0  0
 13 15  2  6  0  0  0
 14 31  1  0  0  0  0
 14 32  1  0  0  0  0
 14 33  1  0  0  0  0
 15 34  1  0  0  0  0
 15 35  1  0  0  0  0
 18 36  1  0  0  0  0
 18 37  1  0  0  0  0
 18 38  1  0  0  0  0
M  END
>  <Mol_ID>
717

>  <Formula>
C15H20O3

>  <MolWeight>
248.3175

>  <Cat>
S2341

>  <Name>
(-)-Parthenolide

>  <Synonyms>
N/A

>  <Target>
HDAC,MDM2/MDMX,NF-¦ÊB,p53

>  <Form>
free base

>  <CAS>
20554-84-1

>  <URL>
http://selleckchem.com/products/Parthenolide((-)-Parthenolide).html

$$$$
