pasiniazid.cdx
 OpenBabel08302519583D

 35 35  0  0  0  0  0  0  0  0999 V2000
    1.0999    1.4490   -1.5388 C   0  0  0  0  0  0  0  0  0  0  0  0
   -0.2448    1.5204   -1.8490 C   0  0  0  0  0  0  0  0  0  0  0  0
   -1.0025    0.4428   -2.1447 N   0  0  0  0  0  0  0  0  0  0  0  0
   -0.3871   -0.7604   -2.1242 C   0  0  0  0  0  0  0  0  0  0  0  0
    0.9560   -0.9396   -1.8364 C   0  0  0  0  0  0  0  0  0  0  0  0
    1.7099    0.1927   -1.5311 C   0  0  0  0  0  0  0  0  0  0  0  0
    3.1149    0.1085   -1.0589 C   0  0  0  0  0  0  0  0  0  0  0  0
    3.8802   -0.9607   -1.4994 N   0  0  0  0  0  0  0  0  0  0  0  0
    3.5475    0.9535   -0.2774 O   0  0  0  0  0  0  0  0  0  0  0  0
    5.2088   -1.0853   -1.0341 N   0  0  0  0  0  0  0  0  0  0  0  0
   -0.5002   -1.9377    1.3427 C   0  0  0  0  0  0  0  0  0  0  0  0
   -1.6720   -1.2011    1.1572 C   0  0  0  0  0  0  0  0  0  0  0  0
   -1.6582    0.1895    1.2774 C   0  0  0  0  0  0  0  0  0  0  0  0
   -0.4712    0.8346    1.6232 C   0  0  0  0  0  0  0  0  0  0  0  0
    0.7096    0.1069    1.7868 C   0  0  0  0  0  0  0  0  0  0  0  0
    0.7079   -1.2820    1.6216 C   0  0  0  0  0  0  0  0  0  0  0  0
   -2.7761    0.9230    0.8400 N   0  0  0  0  0  0  0  0  0  0  0  0
    1.9640   -2.0610    1.6657 C   0  0  0  0  0  0  0  0  0  0  0  0
    1.8209    0.8667    2.0260 O   0  0  0  0  0  0  0  0  0  0  0  0
    2.9917   -1.7453    2.2364 O   0  0  0  0  0  0  0  0  0  0  0  0
    1.9123   -3.1464    0.8739 O   0  0  0  0  0  0  0  0  0  0  0  0
    1.6485    2.3456   -1.2670 H   0  0  0  0  0  0  0  0  0  0  0  0
   -0.7712    2.4706   -1.8351 H   0  0  0  0  0  0  0  0  0  0  0  0
   -1.0352   -1.6125   -2.3120 H   0  0  0  0  0  0  0  0  0  0  0  0
    1.3568   -1.9441   -1.7775 H   0  0  0  0  0  0  0  0  0  0  0  0
    3.5071   -1.6853   -2.1063 H   0  0  0  0  0  0  0  0  0  0  0  0
    5.8293   -0.6693   -1.7352 H   0  0  0  0  0  0  0  0  0  0  0  0
    5.3041   -0.4465   -0.2284 H   0  0  0  0  0  0  0  0  0  0  0  0
   -0.5325   -3.0178    1.2206 H   0  0  0  0  0  0  0  0  0  0  0  0
   -2.5925   -1.7081    0.8793 H   0  0  0  0  0  0  0  0  0  0  0  0
   -0.4307    1.9177    1.6976 H   0  0  0  0  0  0  0  0  0  0  0  0
   -2.7000    1.9124    1.0586 H   0  0  0  0  0  0  0  0  0  0  0  0
   -2.8695    0.8118   -0.1735 H   0  0  0  0  0  0  0  0  0  0  0  0
    2.5933    0.5041    1.5446 H   0  0  0  0  0  0  0  0  0  0  0  0
    2.8154   -3.5305    0.9551 H   0  0  0  0  0  0  0  0  0  0  0  0
  1  2  2  0  0  0  0
  1 22  1  0  0  0  0
  2  3  1  0  0  0  0
  2 23  1  0  0  0  0
  3  4  2  0  0  0  0
  4  5  1  0  0  0  0
  4 24  1  0  0  0  0
  5  6  2  0  0  0  0
  5 25  1  0  0  0  0
  6  1  1  0  0  0  0
  6  7  1  0  0  0  0
  7  8  1  0  0  0  0
  7  9  2  0  0  0  0
  8 10  1  0  0  0  0
  8 26  1  0  0  0  0
 10 27  1  0  0  0  0
 10 28  1  0  0  0  0
 11 12  2  0  0  0  0
 11 29  1  0  0  0  0
 12 13  1  0  0  0  0
 12 30  1  0  0  0  0
 13 14  2  0  0  0  0
 13 17  1  0  0  0  0
 14 15  1  0  0  0  0
 14 31  1  0  0  0  0
 15 16  2  0  0  0  0
 15 19  1  0  0  0  0
 16 11  1  0  0  0  0
 16 18  1  0  0  0  0
 17 32  1  0  0  0  0
 17 33  1  0  0  0  0
 18 20  2  0  0  0  0
 18 21  1  0  0  0  0
 19 34  1  0  0  0  0
 21 35  1  0  0  0  0
M  END
>  <Mol_ID>
2304

>  <Formula>
C13H14N4O4

>  <MolWeight>
290.27466

>  <Cat>
S4404

>  <Name>
Pasiniazid

>  <Synonyms>
Paraniazide,Pasiniazide

>  <Target>
Bacterial

>  <Form>
Isonicotinic

>  <CAS>
2066-89-9

>  <URL>
http://www.selleckchem.com/products/pasiniazid.html

$$$$
