Pazopanib.cdx
 OpenBabel08302522033D

 54 57  0  0  0  0  0  0  0  0999 V2000
   -5.3757    2.7690   -1.3984 C   0  0  0  0  0  0  0  0  0  0  0  0
   -4.3986    3.6482   -1.8919 C   0  0  0  0  0  0  0  0  0  0  0  0
   -3.0502    3.2568   -1.7763 C   0  0  0  0  0  0  0  0  0  0  0  0
   -2.6855    2.0546   -1.1624 C   0  0  0  0  0  0  0  0  0  0  0  0
   -3.6558    1.1803   -0.6804 C   0  0  0  0  0  0  0  0  0  0  0  0
   -4.9932    1.5620   -0.7796 C   0  0  0  0  0  0  0  0  0  0  0  0
   -7.1290    3.0474   -1.4411 S   0  0  0  0  0  0  0  0  0  0  0  0
   -7.6368    2.9694   -0.0949 O   0  0  0  0  0  0  0  0  0  0  0  0
   -7.4724    4.1241   -2.3366 O   0  0  0  0  0  0  0  0  0  0  0  0
   -7.6952    1.6708   -2.2289 N   0  0  0  0  0  0  0  0  0  0  0  0
   -4.6576    4.9591   -2.5761 C   0  0  0  0  0  0  0  0  0  0  0  0
   -3.2617   -0.0137   -0.0585 N   0  0  0  0  0  0  0  0  0  0  0  0
   -3.9736   -1.2165   -0.0453 C   0  0  0  0  0  0  0  0  0  0  0  0
   -4.7631   -1.5330   -1.0859 N   0  0  0  0  0  0  0  0  0  0  0  0
   -5.4083   -2.7121   -1.0854 C   0  0  0  0  0  0  0  0  0  0  0  0
   -5.2431   -3.5898   -0.0295 C   0  0  0  0  0  0  0  0  0  0  0  0
   -4.4249   -3.1880    0.9974 C   0  0  0  0  0  0  0  0  0  0  0  0
   -3.7847   -2.0094    1.0160 N   0  0  0  0  0  0  0  0  0  0  0  0
   -6.2350   -3.0652   -2.1758 N   0  0  0  0  0  0  0  0  0  0  0  0
   -5.8966   -2.4411   -3.4585 C   0  0  0  0  0  0  0  0  0  0  0  0
   -9.3801   -6.4926   -3.8111 N   0  0  0  0  0  0  0  0  0  0  0  0
  -10.4421   -6.9721   -3.1285 N   0  0  0  0  0  0  0  0  0  0  0  0
  -10.6472   -6.3754   -1.9058 C   0  0  0  0  0  0  0  0  0  0  0  0
   -9.6455   -5.4406   -1.8223 C   0  0  0  0  0  0  0  0  0  0  0  0
   -9.4259   -4.5730   -0.7606 C   0  0  0  0  0  0  0  0  0  0  0  0
   -8.2731   -3.7867   -0.9816 C   0  0  0  0  0  0  0  0  0  0  0  0
   -7.4128   -3.8628   -2.1417 C   0  0  0  0  0  0  0  0  0  0  0  0
   -7.7187   -4.7403   -3.2141 C   0  0  0  0  0  0  0  0  0  0  0  0
   -8.8556   -5.5457   -3.0191 C   0  0  0  0  0  0  0  0  0  0  0  0
  -11.7355   -6.7647   -0.9757 C   0  0  0  0  0  0  0  0  0  0  0  0
  -11.2068   -8.0353   -3.7392 C   0  0  0  0  0  0  0  0  0  0  0  0
   -2.2611    3.8937   -2.1741 H   0  0  0  0  0  0  0  0  0  0  0  0
   -1.6336    1.7866   -1.0979 H   0  0  0  0  0  0  0  0  0  0  0  0
   -5.7625    0.9107   -0.3678 H   0  0  0  0  0  0  0  0  0  0  0  0
   -8.1881    1.0614   -1.5762 H   0  0  0  0  0  0  0  0  0  0  0  0
   -8.2497    1.9499   -3.0370 H   0  0  0  0  0  0  0  0  0  0  0  0
   -3.8782    5.6813   -2.3049 H   0  0  0  0  0  0  0  0  0  0  0  0
   -4.6388    4.8255   -3.6624 H   0  0  0  0  0  0  0  0  0  0  0  0
   -5.5934    5.4292   -2.2785 H   0  0  0  0  0  0  0  0  0  0  0  0
   -2.8496    0.1124    0.8576 H   0  0  0  0  0  0  0  0  0  0  0  0
   -5.7096   -4.5657   -0.0157 H   0  0  0  0  0  0  0  0  0  0  0  0
   -4.2489   -3.8308    1.8543 H   0  0  0  0  0  0  0  0  0  0  0  0
   -5.6588   -3.2022   -4.2102 H   0  0  0  0  0  0  0  0  0  0  0  0
   -6.7315   -1.8334   -3.8267 H   0  0  0  0  0  0  0  0  0  0  0  0
   -5.0148   -1.7916   -3.4215 H   0  0  0  0  0  0  0  0  0  0  0  0
  -10.0326   -4.4813    0.1255 H   0  0  0  0  0  0  0  0  0  0  0  0
   -8.0293   -3.0570   -0.2073 H   0  0  0  0  0  0  0  0  0  0  0  0
   -7.1135   -4.8520   -4.1002 H   0  0  0  0  0  0  0  0  0  0  0  0
  -12.7136   -6.6029   -1.4382 H   0  0  0  0  0  0  0  0  0  0  0  0
  -11.6473   -7.8216   -0.7018 H   0  0  0  0  0  0  0  0  0  0  0  0
  -11.7063   -6.1820   -0.0495 H   0  0  0  0  0  0  0  0  0  0  0  0
  -11.6102   -7.6656   -4.6853 H   0  0  0  0  0  0  0  0  0  0  0  0
  -10.5372   -8.8817   -3.9132 H   0  0  0  0  0  0  0  0  0  0  0  0
  -12.0242   -8.3415   -3.0848 H   0  0  0  0  0  0  0  0  0  0  0  0
  1  2  2  0  0  0  0
  1  6  1  0  0  0  0
  1  7  1  0  0  0  0
  2  3  1  0  0  0  0
  2 11  1  0  0  0  0
  3  4  2  0  0  0  0
  3 32  1  0  0  0  0
  4  5  1  0  0  0  0
  4 33  1  0  0  0  0
  5  6  2  0  0  0  0
  5 12  1  0  0  0  0
  6 34  1  0  0  0  0
  7  8  2  0  0  0  0
  7  9  2  0  0  0  0
  7 10  1  0  0  0  0
 10 35  1  0  0  0  0
 10 36  1  0  0  0  0
 11 37  1  0  0  0  0
 11 38  1  0  0  0  0
 11 39  1  0  0  0  0
 12 13  1  0  0  0  0
 12 40  1  0  0  0  0
 13 14  2  0  0  0  0
 13 18  1  0  0  0  0
 14 15  1  0  0  0  0
 15 16  2  0  0  0  0
 15 19  1  0  0  0  0
 16 17  1  0  0  0  0
 16 41  1  0  0  0  0
 17 18  2  0  0  0  0
 17 42  1  0  0  0  0
 19 20  1  0  0  0  0
 19 27  1  0  0  0  0
 20 43  1  0  0  0  0
 20 44  1  0  0  0  0
 20 45  1  0  0  0  0
 21 22  1  0  0  0  0
 21 29  2  0  0  0  0
 22 23  1  0  0  0  0
 22 31  1  0  0  0  0
 23 24  2  0  0  0  0
 23 30  1  0  0  0  0
 24 25  1  0  0  0  0
 24 29  1  0  0  0  0
 25 26  2  0  0  0  0
 25 46  1  0  0  0  0
 26 27  1  0  0  0  0
 26 47  1  0  0  0  0
 27 28  2  0  0  0  0
 28 29  1  0  0  0  0
 28 48  1  0  0  0  0
 30 49  1  0  0  0  0
 30 50  1  0  0  0  0
 30 51  1  0  0  0  0
 31 52  1  0  0  0  0
 31 53  1  0  0  0  0
 31 54  1  0  0  0  0
M  END
>  <Mol_ID>
1164

>  <Formula>
C21H23N7O2S

>  <MolWeight>
437.51802

>  <Cat>
S3012

>  <Name>
Pazopanib

>  <Synonyms>
GW786034

>  <Target>
Autophagy,Cathepsin B,c-Kit,CSF-1R,Cysteine Protease,FGFR,PDGFR,VEGFR

>  <Form>
Free Base

>  <CAS>
444731-52-6

>  <URL>
http://selleckchem.com/products/pazopanib.html

$$$$
