PBD-150
 OpenBabel08302521313D

 42 43  0  0  0  0  0  0  0  0999 V2000
    0.9219    0.1933    0.7782 S   0  0  0  0  0  0  0  0  0  0  0  0
    2.9040   -5.9704   -1.0563 O   0  0  0  0  0  0  0  0  0  0  0  0
    0.6660   -5.5406   -2.7946 O   0  0  0  0  0  0  0  0  0  0  0  0
    2.7489    2.4194   -3.9829 N   0  0  0  0  0  0  0  0  0  0  0  0
    3.2821    1.0894    0.1650 N   0  0  0  0  0  0  0  0  0  0  0  0
    3.0466   -1.1737   -0.2577 N   0  0  0  0  0  0  0  0  0  0  0  0
    1.7768    1.9920   -5.9252 N   0  0  0  0  0  0  0  0  0  0  0  0
    4.0528    1.3157   -2.1996 C   0  0  0  0  0  0  0  0  0  0  0  0
    3.0151    2.3790   -2.5574 C   0  0  0  0  0  0  0  0  0  0  0  0
    4.4213    1.3049   -0.7129 C   0  0  0  0  0  0  0  0  0  0  0  0
    3.4043    3.1859   -4.9074 C   0  0  0  0  0  0  0  0  0  0  0  0
    1.7736    1.7244   -4.6384 C   0  0  0  0  0  0  0  0  0  0  0  0
    2.4680   -0.0112    0.1826 C   0  0  0  0  0  0  0  0  0  0  0  0
    2.4134   -2.2920   -0.8431 C   0  0  0  0  0  0  0  0  0  0  0  0
    2.7863    2.9007   -6.1024 C   0  0  0  0  0  0  0  0  0  0  0  0
    2.9783   -3.5598   -0.6478 C   0  0  0  0  0  0  0  0  0  0  0  0
    2.4319   -4.7009   -1.2606 C   0  0  0  0  0  0  0  0  0  0  0  0
    1.3073   -2.1580   -1.6795 C   0  0  0  0  0  0  0  0  0  0  0  0
    1.3310   -4.5477   -2.1211 C   0  0  0  0  0  0  0  0  0  0  0  0
    0.7696   -3.2802   -2.3094 C   0  0  0  0  0  0  0  0  0  0  0  0
    3.9293   -6.1615   -0.0918 C   0  0  0  0  0  0  0  0  0  0  0  0
    1.4629   -6.6046   -3.3009 C   0  0  0  0  0  0  0  0  0  0  0  0
    2.8435    1.9145    0.5631 H   0  0  0  0  0  0  0  0  0  0  0  0
    3.9766   -1.3286    0.1125 H   0  0  0  0  0  0  0  0  0  0  0  0
    4.9681    1.4862   -2.7800 H   0  0  0  0  0  0  0  0  0  0  0  0
    3.6798    0.3303   -2.5023 H   0  0  0  0  0  0  0  0  0  0  0  0
    2.0586    2.1924   -2.0564 H   0  0  0  0  0  0  0  0  0  0  0  0
    3.3566    3.3774   -2.2608 H   0  0  0  0  0  0  0  0  0  0  0  0
    4.8662    2.2640   -0.4257 H   0  0  0  0  0  0  0  0  0  0  0  0
    5.1626    0.5226   -0.5202 H   0  0  0  0  0  0  0  0  0  0  0  0
    4.2232    3.8452   -4.6526 H   0  0  0  0  0  0  0  0  0  0  0  0
    1.0943    1.0446   -4.1399 H   0  0  0  0  0  0  0  0  0  0  0  0
    3.0119    3.3047   -7.0831 H   0  0  0  0  0  0  0  0  0  0  0  0
    3.8293   -3.6448    0.0182 H   0  0  0  0  0  0  0  0  0  0  0  0
    0.8703   -1.1876   -1.8922 H   0  0  0  0  0  0  0  0  0  0  0  0
   -0.0855   -3.1646   -2.9716 H   0  0  0  0  0  0  0  0  0  0  0  0
    4.8449   -5.6353   -0.3799 H   0  0  0  0  0  0  0  0  0  0  0  0
    3.5946   -5.8616    0.9066 H   0  0  0  0  0  0  0  0  0  0  0  0
    4.1609   -7.2305   -0.0591 H   0  0  0  0  0  0  0  0  0  0  0  0
    2.4057   -6.2481   -3.7300 H   0  0  0  0  0  0  0  0  0  0  0  0
    1.6324   -7.3635   -2.5320 H   0  0  0  0  0  0  0  0  0  0  0  0
    0.8965   -7.0865   -4.1044 H   0  0  0  0  0  0  0  0  0  0  0  0
  1 13  2  0  0  0  0
  2 17  1  0  0  0  0
  2 21  1  0  0  0  0
  3 19  1  0  0  0  0
  3 22  1  0  0  0  0
  4  9  1  0  0  0  0
  4 11  1  0  0  0  0
  4 12  1  0  0  0  0
  5 10  1  0  0  0  0
  5 13  1  0  0  0  0
  5 23  1  0  0  0  0
  6 13  1  0  0  0  0
  6 14  1  0  0  0  0
  6 24  1  0  0  0  0
  7 12  2  0  0  0  0
  7 15  1  0  0  0  0
  8  9  1  0  0  0  0
  8 10  1  0  0  0  0
  8 25  1  0  0  0  0
  8 26  1  0  0  0  0
  9 27  1  0  0  0  0
  9 28  1  0  0  0  0
 10 29  1  0  0  0  0
 10 30  1  0  0  0  0
 11 15  2  0  0  0  0
 11 31  1  0  0  0  0
 12 32  1  0  0  0  0
 14 16  2  0  0  0  0
 14 18  1  0  0  0  0
 15 33  1  0  0  0  0
 16 17  1  0  0  0  0
 16 34  1  0  0  0  0
 17 19  2  0  0  0  0
 18 20  2  0  0  0  0
 18 35  1  0  0  0  0
 19 20  1  0  0  0  0
 20 36  1  0  0  0  0
 21 37  1  0  0  0  0
 21 38  1  0  0  0  0
 21 39  1  0  0  0  0
 22 40  1  0  0  0  0
 22 41  1  0  0  0  0
 22 42  1  0  0  0  0
M  END
>  <Mol_ID>
5987

>  <Formula>
C15H20N4O2S

>  <MolWeight>
320.4099

>  <Cat>
S0529

>  <Name>
PBD-150

>  <Synonyms>
N/A

>  <Target>
Beta Amyloid

>  <Form>
Free Base

>  <CAS>
790663-33-1

>  <URL>
http://www.selleckchem.com/products/pbd-150.html

$$$$
