PBIT
 OpenBabel08302521353D

 28 30  0  0  0  0  0  0  0  0999 V2000
    1.2180   -0.2322    0.2704 O   0  0  0  0  0  0  0  0  0  0  0  0
    0.7267    6.3722   -0.1946 C   0  0  0  0  0  0  0  0  0  0  0  0
    3.1429    1.1448    0.0401 N   0  0  0  0  0  0  0  0  0  0  0  0
    4.8504    0.9085   -0.1132 S   0  0  0  0  0  0  0  0  0  0  0  0
    2.4238   -0.0543    0.1634 C   0  0  0  0  0  0  0  0  0  0  0  0
    4.6674   -0.8404   -0.0183 C   0  0  0  0  0  0  0  0  0  0  0  0
    3.3351   -1.2117    0.1040 C   0  0  0  0  0  0  0  0  0  0  0  0
    5.6649   -1.8016   -0.0724 C   0  0  0  0  0  0  0  0  0  0  0  0
    2.9531   -2.5476    0.1417 C   0  0  0  0  0  0  0  0  0  0  0  0
    5.2995   -3.1507   -0.0248 C   0  0  0  0  0  0  0  0  0  0  0  0
    3.9501   -3.5229    0.0725 C   0  0  0  0  0  0  0  0  0  0  0  0
    2.5640    2.4475    0.0166 C   0  0  0  0  0  0  0  0  0  0  0  0
    1.2854    2.6855    0.5391 C   0  0  0  0  0  0  0  0  0  0  0  0
    3.2469    3.5407   -0.5423 C   0  0  0  0  0  0  0  0  0  0  0  0
    0.7036    3.9588    0.4900 C   0  0  0  0  0  0  0  0  0  0  0  0
    2.6598    4.8102   -0.6119 C   0  0  0  0  0  0  0  0  0  0  0  0
    1.3798    5.0276   -0.1018 C   0  0  0  0  0  0  0  0  0  0  0  0
   -0.2026    6.2993   -0.7692 H   0  0  0  0  0  0  0  0  0  0  0  0
    0.5028    6.7567    0.8058 H   0  0  0  0  0  0  0  0  0  0  0  0
    1.3731    7.0996   -0.6982 H   0  0  0  0  0  0  0  0  0  0  0  0
    6.7099   -1.5181   -0.1548 H   0  0  0  0  0  0  0  0  0  0  0  0
    1.9046   -2.8228    0.2140 H   0  0  0  0  0  0  0  0  0  0  0  0
    6.0679   -3.9198   -0.0701 H   0  0  0  0  0  0  0  0  0  0  0  0
    3.6797   -4.5765    0.0931 H   0  0  0  0  0  0  0  0  0  0  0  0
    0.7159    1.8951    1.0210 H   0  0  0  0  0  0  0  0  0  0  0  0
    4.2330    3.4257   -0.9832 H   0  0  0  0  0  0  0  0  0  0  0  0
   -0.2883    4.1030    0.9133 H   0  0  0  0  0  0  0  0  0  0  0  0
    3.2111    5.6209   -1.0831 H   0  0  0  0  0  0  0  0  0  0  0  0
  1  5  2  0  0  0  0
  2 17  1  0  0  0  0
  2 18  1  0  0  0  0
  2 19  1  0  0  0  0
  2 20  1  0  0  0  0
  3  4  1  0  0  0  0
  3  5  1  0  0  0  0
  3 12  1  0  0  0  0
  4  6  1  0  0  0  0
  5  7  1  0  0  0  0
  6  7  2  0  0  0  0
  6  8  1  0  0  0  0
  7  9  1  0  0  0  0
  8 10  2  0  0  0  0
  8 21  1  0  0  0  0
  9 11  2  0  0  0  0
  9 22  1  0  0  0  0
 10 11  1  0  0  0  0
 10 23  1  0  0  0  0
 11 24  1  0  0  0  0
 12 13  2  0  0  0  0
 12 14  1  0  0  0  0
 13 15  1  0  0  0  0
 13 25  1  0  0  0  0
 14 16  2  0  0  0  0
 14 26  1  0  0  0  0
 15 17  2  0  0  0  0
 15 27  1  0  0  0  0
 16 17  1  0  0  0  0
 16 28  1  0  0  0  0
M  END
>  <Mol_ID>
6976

>  <Formula>
C14H11NOS

>  <MolWeight>
241.30824

>  <Cat>
E1733

>  <Name>
PBIT

>  <Target>
Histone Demethylase

>  <Form>
free base

>  <CAS>
2514-30-9

>  <URL>
https://www.selleckchem.com/products/pbit.html

$$$$
