PBTZ169
 OpenBabel08302521353D

 54 57  0  0  0  0  0  0  0  0999 V2000
    8.2361    2.6829   -0.9396 N   0  3  0  0  0  0  0  0  0  0  0  0
    8.6331    3.3476    0.0258 O   0  5  0  0  0  0  0  0  0  0  0  0
    8.6955    2.7228   -2.0873 O   0  0  0  0  0  0  0  0  0  0  0  0
    2.9881    0.5237    1.0643 O   0  0  0  0  0  0  0  0  0  0  0  0
    6.7886   -2.0538   -1.0804 C   0  0  0  0  0  0  0  0  0  0  0  0
    5.7465   -2.8867   -0.8225 F   0  0  0  0  0  0  0  0  0  0  0  0
    7.0360   -2.1639   -2.4144 F   0  0  0  0  0  0  0  0  0  0  0  0
    7.8697   -2.5824   -0.4507 F   0  0  0  0  0  0  0  0  0  0  0  0
    0.3340    7.4341    0.1218 C   0  0  0  0  0  0  0  0  0  0  0  0
    5.9198    2.1397   -0.2218 C   0  0  0  0  0  0  0  0  0  0  0  0
    5.0057    1.1410    0.1189 C   0  0  0  0  0  0  0  0  0  0  0  0
    7.1815    1.7166   -0.6895 C   0  0  0  0  0  0  0  0  0  0  0  0
    5.4521    3.8395   -0.2127 S   0  0  0  0  0  0  0  0  0  0  0  0
    5.3155   -0.2215   -0.1020 C   0  0  0  0  0  0  0  0  0  0  0  0
    3.6887    1.4704    0.7166 C   0  0  0  0  0  0  0  0  0  0  0  0
    7.4890    0.3668   -0.9336 C   0  0  0  0  0  0  0  0  0  0  0  0
    3.8648    3.8299    0.5194 C   0  0  0  0  0  0  0  0  0  0  0  0
    6.5297   -0.6166   -0.6827 C   0  0  0  0  0  0  0  0  0  0  0  0
    3.2562    2.7504    0.8850 N   0  0  0  0  0  0  0  0  0  0  0  0
    3.2801    5.0797    0.7290 N   0  0  0  0  0  0  0  0  0  0  0  0
    3.2862    6.0996   -0.3479 C   0  0  0  0  0  0  0  0  0  0  0  0
    2.0328    5.0989    1.5255 C   0  0  0  0  0  0  0  0  0  0  0  0
    2.7867    7.4905    0.1205 C   0  0  0  0  0  0  0  0  0  0  0  0
    1.6769    6.5141    2.0018 C   0  0  0  0  0  0  0  0  0  0  0  0
    1.5537    7.5191    0.9380 N   0  0  0  0  0  0  0  0  0  0  0  0
   -1.0419    7.5095    0.8707 C   0  0  0  0  0  0  0  0  0  0  0  0
   -2.1708    7.6404   -0.1814 C   0  0  0  0  0  0  0  0  0  0  0  0
   -1.0324    8.5714    1.9911 C   0  0  0  0  0  0  0  0  0  0  0  0
   -3.3908    8.4813    0.1866 C   0  0  0  0  0  0  0  0  0  0  0  0
   -2.3444    9.2713    2.2882 C   0  0  0  0  0  0  0  0  0  0  0  0
   -3.0506    9.6971    1.0200 C   0  0  0  0  0  0  0  0  0  0  0  0
    0.3634    8.2927   -0.5656 H   0  0  0  0  0  0  0  0  0  0  0  0
    0.3450    6.5361   -0.5087 H   0  0  0  0  0  0  0  0  0  0  0  0
    4.5760   -0.9857    0.1510 H   0  0  0  0  0  0  0  0  0  0  0  0
    8.4609    0.0887   -1.3425 H   0  0  0  0  0  0  0  0  0  0  0  0
    4.2997    6.2483   -0.7374 H   0  0  0  0  0  0  0  0  0  0  0  0
    2.6661    5.7396   -1.1776 H   0  0  0  0  0  0  0  0  0  0  0  0
    1.2101    4.6783    0.9367 H   0  0  0  0  0  0  0  0  0  0  0  0
    2.1588    4.4783    2.4219 H   0  0  0  0  0  0  0  0  0  0  0  0
    3.5843    7.9451    0.7223 H   0  0  0  0  0  0  0  0  0  0  0  0
    2.6841    8.1446   -0.7564 H   0  0  0  0  0  0  0  0  0  0  0  0
    2.4665    6.8595    2.6839 H   0  0  0  0  0  0  0  0  0  0  0  0
    0.7743    6.4678    2.6146 H   0  0  0  0  0  0  0  0  0  0  0  0
   -1.1947    6.5355    1.3621 H   0  0  0  0  0  0  0  0  0  0  0  0
   -1.7669    8.0406   -1.1192 H   0  0  0  0  0  0  0  0  0  0  0  0
   -2.5240    6.6313   -0.4362 H   0  0  0  0  0  0  0  0  0  0  0  0
   -0.7084    8.0869    2.9243 H   0  0  0  0  0  0  0  0  0  0  0  0
   -0.2758    9.3353    1.7777 H   0  0  0  0  0  0  0  0  0  0  0  0
   -3.8947    8.8026   -0.7337 H   0  0  0  0  0  0  0  0  0  0  0  0
   -4.1136    7.8609    0.7309 H   0  0  0  0  0  0  0  0  0  0  0  0
   -2.1468   10.1487    2.9155 H   0  0  0  0  0  0  0  0  0  0  0  0
   -2.9998    8.6122    2.8734 H   0  0  0  0  0  0  0  0  0  0  0  0
   -2.4194   10.3929    0.4483 H   0  0  0  0  0  0  0  0  0  0  0  0
   -3.9690   10.2398    1.2751 H   0  0  0  0  0  0  0  0  0  0  0  0
  1  2  1  0  0  0  0
  1  3  2  0  0  0  0
  1 12  1  0  0  0  0
  4 15  2  0  0  0  0
  5  6  1  0  0  0  0
  5  7  1  0  0  0  0
  5  8  1  0  0  0  0
  5 18  1  0  0  0  0
  9 25  1  0  0  0  0
  9 26  1  0  0  0  0
  9 32  1  0  0  0  0
  9 33  1  0  0  0  0
 10 11  1  0  0  0  0
 10 12  2  0  0  0  0
 10 13  1  0  0  0  0
 11 14  2  0  0  0  0
 11 15  1  0  0  0  0
 12 16  1  0  0  0  0
 13 17  1  0  0  0  0
 14 18  1  0  0  0  0
 14 34  1  0  0  0  0
 15 19  1  0  0  0  0
 16 18  2  0  0  0  0
 16 35  1  0  0  0  0
 17 19  2  0  0  0  0
 17 20  1  0  0  0  0
 20 21  1  0  0  0  0
 20 22  1  0  0  0  0
 21 23  1  0  0  0  0
 21 36  1  0  0  0  0
 21 37  1  0  0  0  0
 22 24  1  0  0  0  0
 22 38  1  0  0  0  0
 22 39  1  0  0  0  0
 23 25  1  0  0  0  0
 23 40  1  0  0  0  0
 23 41  1  0  0  0  0
 24 25  1  0  0  0  0
 24 42  1  0  0  0  0
 24 43  1  0  0  0  0
 26 27  1  0  0  0  0
 26 28  1  0  0  0  0
 26 44  1  0  0  0  0
 27 29  1  0  0  0  0
 27 45  1  0  0  0  0
 27 46  1  0  0  0  0
 28 30  1  0  0  0  0
 28 47  1  0  0  0  0
 28 48  1  0  0  0  0
 29 31  1  0  0  0  0
 29 49  1  0  0  0  0
 29 50  1  0  0  0  0
 30 31  1  0  0  0  0
 30 51  1  0  0  0  0
 30 52  1  0  0  0  0
 31 53  1  0  0  0  0
 31 54  1  0  0  0  0
M  CHG  2   1   1   2  -1
M  END
>  <Mol_ID>
6690

>  <Formula>
C20H23F3N4O3S

>  <MolWeight>
456.4818296

>  <Cat>
S6549

>  <Name>
PBTZ169

>  <Synonyms>
macozinone

>  <Target>
Antibiotics,Bacterial

>  <Form>
Free base

>  <CAS>
1377239-83-2

>  <URL>
http://www.selleckchem.com/products/pbtz169.html

$$$$
