PCI-34051.cdx
 OpenBabel08302521303D

 38 40  0  0  0  0  0  0  0  0999 V2000
   -1.6438   -1.0476   -0.1110 N   0  0  0  0  0  0  0  0  0  0  0  0
   -2.4842    0.0397   -0.1653 C   0  0  0  0  0  0  0  0  0  0  0  0
   -1.7139    1.1765   -0.1326 C   0  0  0  0  0  0  0  0  0  0  0  0
   -0.3564    0.7728   -0.0545 C   0  0  0  0  0  0  0  0  0  0  0  0
    0.8559    1.4845    0.0301 C   0  0  0  0  0  0  0  0  0  0  0  0
    2.0659    0.7857    0.0899 C   0  0  0  0  0  0  0  0  0  0  0  0
    2.0953   -0.6139    0.0406 C   0  0  0  0  0  0  0  0  0  0  0  0
    0.8886   -1.3373   -0.0291 C   0  0  0  0  0  0  0  0  0  0  0  0
   -0.3259   -0.6244   -0.0661 C   0  0  0  0  0  0  0  0  0  0  0  0
    3.3829   -1.3802    0.0943 C   0  0  0  0  0  0  0  0  0  0  0  0
    3.3746   -2.5894    0.3079 O   0  0  0  0  0  0  0  0  0  0  0  0
    4.5399   -0.6504   -0.1023 N   0  0  0  0  0  0  0  0  0  0  0  0
   -2.1114   -2.4303   -0.0346 C   0  0  0  0  0  0  0  0  0  0  0  0
   -2.1226   -3.1012   -1.3847 C   0  0  0  0  0  0  0  0  0  0  0  0
   -1.3396   -4.2391   -1.6116 C   0  0  0  0  0  0  0  0  0  0  0  0
   -1.3056   -4.8314   -2.8760 C   0  0  0  0  0  0  0  0  0  0  0  0
   -2.0675   -4.3188   -3.9264 C   0  0  0  0  0  0  0  0  0  0  0  0
   -2.8789   -3.2095   -3.7007 C   0  0  0  0  0  0  0  0  0  0  0  0
   -2.9098   -2.6087   -2.4370 C   0  0  0  0  0  0  0  0  0  0  0  0
   -1.8861   -4.9454   -5.1277 O   0  0  0  0  0  0  0  0  0  0  0  0
   -2.9439   -4.8369   -6.0705 C   0  0  0  0  0  0  0  0  0  0  0  0
    5.7243   -1.4038   -0.2641 O   0  0  0  0  0  0  0  0  0  0  0  0
   -3.5584   -0.0851   -0.2232 H   0  0  0  0  0  0  0  0  0  0  0  0
   -2.0882    2.1920   -0.1588 H   0  0  0  0  0  0  0  0  0  0  0  0
    0.8493    2.5704    0.0699 H   0  0  0  0  0  0  0  0  0  0  0  0
    2.9732    1.3729    0.1997 H   0  0  0  0  0  0  0  0  0  0  0  0
    0.9002   -2.4238   -0.0550 H   0  0  0  0  0  0  0  0  0  0  0  0
    4.5288    0.2297   -0.6042 H   0  0  0  0  0  0  0  0  0  0  0  0
   -1.4653   -2.9543    0.6794 H   0  0  0  0  0  0  0  0  0  0  0  0
   -3.1223   -2.4257    0.3909 H   0  0  0  0  0  0  0  0  0  0  0  0
   -0.7323   -4.6657   -0.8161 H   0  0  0  0  0  0  0  0  0  0  0  0
   -0.6718   -5.6986   -3.0457 H   0  0  0  0  0  0  0  0  0  0  0  0
   -3.4712   -2.7604   -4.4904 H   0  0  0  0  0  0  0  0  0  0  0  0
   -3.5364   -1.7306   -2.2935 H   0  0  0  0  0  0  0  0  0  0  0  0
   -3.8348   -5.3553   -5.7024 H   0  0  0  0  0  0  0  0  0  0  0  0
   -3.1706   -3.7996   -6.3325 H   0  0  0  0  0  0  0  0  0  0  0  0
   -2.6177   -5.3344   -6.9891 H   0  0  0  0  0  0  0  0  0  0  0  0
    5.8855   -1.7236    0.6448 H   0  0  0  0  0  0  0  0  0  0  0  0
  1  2  1  0  0  0  0
  1  9  1  0  0  0  0
  1 13  1  0  0  0  0
  2  3  2  0  0  0  0
  2 23  1  0  0  0  0
  3  4  1  0  0  0  0
  3 24  1  0  0  0  0
  4  5  2  0  0  0  0
  4  9  1  0  0  0  0
  5  6  1  0  0  0  0
  5 25  1  0  0  0  0
  6  7  2  0  0  0  0
  6 26  1  0  0  0  0
  7  8  1  0  0  0  0
  7 10  1  0  0  0  0
  8  9  2  0  0  0  0
  8 27  1  0  0  0  0
 10 11  2  0  0  0  0
 10 12  1  0  0  0  0
 12 22  1  0  0  0  0
 12 28  1  0  0  0  0
 13 14  1  0  0  0  0
 13 29  1  0  0  0  0
 13 30  1  0  0  0  0
 14 15  2  0  0  0  0
 14 19  1  0  0  0  0
 15 16  1  0  0  0  0
 15 31  1  0  0  0  0
 16 17  2  0  0  0  0
 16 32  1  0  0  0  0
 17 18  1  0  0  0  0
 17 20  1  0  0  0  0
 18 19  2  0  0  0  0
 18 33  1  0  0  0  0
 19 34  1  0  0  0  0
 20 21  1  0  0  0  0
 21 35  1  0  0  0  0
 21 36  1  0  0  0  0
 21 37  1  0  0  0  0
 22 38  1  0  0  0  0
M  END
>  <Mol_ID>
542

>  <Formula>
C17H16N2O3

>  <MolWeight>
296.32054

>  <Cat>
S2012

>  <Name>
PCI-34051

>  <Synonyms>
N/A

>  <Target>
Apoptosis related,HDAC

>  <Form>
free base

>  <CAS>
950762-95-5

>  <URL>
http://selleckchem.com/products/pci-34051.html

$$$$
