PCI-32765.cdx
 OpenBabel08302521383D

 57 61  0  0  0  0  0  0  0  0999 V2000
   -2.1039    0.6432    0.0402 C   0  0  0  0  0  0  0  0  0  0  0  0
   -2.1909   -0.6966    0.0700 N   0  0  0  0  0  0  0  0  0  0  0  0
   -1.0549   -1.4219    0.0742 C   0  0  0  0  0  0  0  0  0  0  0  0
    0.1797   -0.7490    0.0389 C   0  0  0  0  0  0  0  0  0  0  0  0
    0.1157    0.6352    0.0152 C   0  0  0  0  0  0  0  0  0  0  0  0
   -0.9943    1.3937    0.0148 N   0  0  0  0  0  0  0  0  0  0  0  0
    1.5837   -1.0476   -0.0189 C   0  0  0  0  0  0  0  0  0  0  0  0
    2.3165    0.0805   -0.0014 N   0  0  0  0  0  0  0  0  0  0  0  0
    1.4041    1.0781   -0.0357 N   0  0  0  0  0  0  0  0  0  0  0  0
    1.8770    2.4403   -0.1858 C   0  0  3  0  0  0  0  0  0  0  0  0
    1.0577    3.5195    0.5336 C   0  0  0  0  0  0  0  0  0  0  0  0
    1.8064    4.7852    0.4731 N   0  0  0  0  0  0  0  0  0  0  0  0
    2.0334    5.2861   -0.8848 C   0  0  0  0  0  0  0  0  0  0  0  0
    2.7042    4.2198   -1.7617 C   0  0  0  0  0  0  0  0  0  0  0  0
    2.0106    2.8544   -1.6618 C   0  0  0  0  0  0  0  0  0  0  0  0
    2.3783    5.4529    1.5424 C   0  0  0  0  0  0  0  0  0  0  0  0
    2.2697    4.8010    2.8796 C   0  0  0  0  0  0  0  0  0  0  0  0
    2.2919    5.5369    3.9970 C   0  0  0  0  0  0  0  0  0  0  0  0
    2.9598    6.5318    1.4333 O   0  0  0  0  0  0  0  0  0  0  0  0
    2.2426   -2.3518   -0.1337 C   0  0  0  0  0  0  0  0  0  0  0  0
    1.5944   -3.3933   -0.8080 C   0  0  0  0  0  0  0  0  0  0  0  0
    2.1455   -4.6655   -0.8700 C   0  0  0  0  0  0  0  0  0  0  0  0
    3.4476   -4.8921   -0.4336 C   0  0  0  0  0  0  0  0  0  0  0  0
    4.1244   -3.8599    0.2204 C   0  0  0  0  0  0  0  0  0  0  0  0
    3.5199   -2.6006    0.3833 C   0  0  0  0  0  0  0  0  0  0  0  0
    4.1123   -6.0839   -0.6136 O   0  0  0  0  0  0  0  0  0  0  0  0
    3.7963   -6.8677   -1.7079 C   0  0  0  0  0  0  0  0  0  0  0  0
    3.4120   -6.3559   -2.9543 C   0  0  0  0  0  0  0  0  0  0  0  0
    3.0034   -7.2143   -3.9745 C   0  0  0  0  0  0  0  0  0  0  0  0
    3.0610   -8.5922   -3.7846 C   0  0  0  0  0  0  0  0  0  0  0  0
    3.5325   -9.1097   -2.5775 C   0  0  0  0  0  0  0  0  0  0  0  0
    3.8950   -8.2490   -1.5375 C   0  0  0  0  0  0  0  0  0  0  0  0
   -1.2326   -2.7971    0.1057 N   0  0  0  0  0  0  0  0  0  0  0  0
   -3.0480    1.1788    0.0361 H   0  0  0  0  0  0  0  0  0  0  0  0
    2.8822    2.4419    0.2617 H   0  0  0  0  0  0  0  0  0  0  0  0
    0.1012    3.7040    0.0265 H   0  0  0  0  0  0  0  0  0  0  0  0
    0.8082    3.2304    1.5558 H   0  0  0  0  0  0  0  0  0  0  0  0
    2.6522    6.1893   -0.8783 H   0  0  0  0  0  0  0  0  0  0  0  0
    1.0579    5.5601   -1.3030 H   0  0  0  0  0  0  0  0  0  0  0  0
    3.7473    4.1013   -1.4424 H   0  0  0  0  0  0  0  0  0  0  0  0
    2.7234    4.5526   -2.8049 H   0  0  0  0  0  0  0  0  0  0  0  0
    2.5803    2.1073   -2.2271 H   0  0  0  0  0  0  0  0  0  0  0  0
    1.0180    2.9114   -2.1275 H   0  0  0  0  0  0  0  0  0  0  0  0
    2.2290    3.7224    2.9434 H   0  0  0  0  0  0  0  0  0  0  0  0
    2.2392    5.0672    4.9729 H   0  0  0  0  0  0  0  0  0  0  0  0
    2.3674    6.6200    3.9598 H   0  0  0  0  0  0  0  0  0  0  0  0
    0.6489   -3.2331   -1.3183 H   0  0  0  0  0  0  0  0  0  0  0  0
    1.5552   -5.4582   -1.3273 H   0  0  0  0  0  0  0  0  0  0  0  0
    5.1320   -4.0283    0.5925 H   0  0  0  0  0  0  0  0  0  0  0  0
    4.0691   -1.8108    0.8949 H   0  0  0  0  0  0  0  0  0  0  0  0
    3.3842   -5.2845   -3.1343 H   0  0  0  0  0  0  0  0  0  0  0  0
    2.6379   -6.8039   -4.9122 H   0  0  0  0  0  0  0  0  0  0  0  0
    2.7483   -9.2617   -4.5816 H   0  0  0  0  0  0  0  0  0  0  0  0
    3.6071  -10.1857   -2.4434 H   0  0  0  0  0  0  0  0  0  0  0  0
    4.2424   -8.6585   -0.5930 H   0  0  0  0  0  0  0  0  0  0  0  0
   -0.5413   -3.3193    0.6291 H   0  0  0  0  0  0  0  0  0  0  0  0
   -2.1995   -3.0384    0.2885 H   0  0  0  0  0  0  0  0  0  0  0  0
  1  2  2  0  0  0  0
  1 34  1  0  0  0  0
  2  3  1  0  0  0  0
  3  4  2  0  0  0  0
  3 33  1  0  0  0  0
  4  5  1  0  0  0  0
  4  7  1  0  0  0  0
  5  6  2  0  0  0  0
  6  1  1  0  0  0  0
  7  8  2  0  0  0  0
  7 20  1  0  0  0  0
  8  9  1  0  0  0  0
  9  5  1  0  0  0  0
  9 10  1  0  0  0  0
 10 11  1  0  0  0  0
 10 35  1  0  0  0  0
 11 12  1  0  0  0  0
 11 36  1  0  0  0  0
 11 37  1  0  0  0  0
 12 13  1  0  0  0  0
 12 16  1  0  0  0  0
 13 14  1  0  0  0  0
 13 38  1  0  0  0  0
 13 39  1  0  0  0  0
 14 15  1  0  0  0  0
 14 40  1  0  0  0  0
 14 41  1  0  0  0  0
 15 10  1  0  0  0  0
 15 42  1  0  0  0  0
 15 43  1  0  0  0  0
 16 17  1  0  0  0  0
 16 19  2  0  0  0  0
 17 18  2  0  0  0  0
 17 44  1  0  0  0  0
 18 45  1  0  0  0  0
 18 46  1  0  0  0  0
 20 21  2  0  0  0  0
 21 22  1  0  0  0  0
 21 47  1  0  0  0  0
 22 23  2  0  0  0  0
 22 48  1  0  0  0  0
 23 24  1  0  0  0  0
 23 26  1  0  0  0  0
 24 25  2  0  0  0  0
 24 49  1  0  0  0  0
 25 20  1  0  0  0  0
 25 50  1  0  0  0  0
 26 27  1  0  0  0  0
 27 28  2  0  0  0  0
 28 29  1  0  0  0  0
 28 51  1  0  0  0  0
 29 30  2  0  0  0  0
 29 52  1  0  0  0  0
 30 31  1  0  0  0  0
 30 53  1  0  0  0  0
 31 32  2  0  0  0  0
 31 54  1  0  0  0  0
 32 27  1  0  0  0  0
 32 55  1  0  0  0  0
 33 56  1  0  0  0  0
 33 57  1  0  0  0  0
M  END
>  <Mol_ID>
753

>  <Formula>
C25H24N6O2

>  <MolWeight>
440.49706

>  <Cat>
S2680

>  <Name>
Ibrutinib (PCI-32765)

>  <Synonyms>
PCI-32765,Imbruvica

>  <Target>
BTK,Target Protein Ligand

>  <Form>
free base

>  <CAS>
936563-96-1

>  <URL>
http://selleckchem.com/products/pci-32765.html

$$$$
