PCI 29732
 OpenBabel08302521233D

 49 53  0  0  0  0  0  0  0  0999 V2000
   -2.0226    0.7336    0.0240 C   0  0  0  0  0  0  0  0  0  0  0  0
   -0.8927    1.4558    0.0271 N   0  0  0  0  0  0  0  0  0  0  0  0
    0.1967    0.6713    0.0231 C   0  0  0  0  0  0  0  0  0  0  0  0
    0.2246   -0.7139    0.0156 C   0  0  0  0  0  0  0  0  0  0  0  0
   -1.0277   -1.3585    0.0257 C   0  0  0  0  0  0  0  0  0  0  0  0
   -2.1478   -0.6052    0.0236 N   0  0  0  0  0  0  0  0  0  0  0  0
    2.3813    0.0564    0.0264 N   0  0  0  0  0  0  0  0  0  0  0  0
    1.5025    1.0771    0.0107 N   0  0  0  0  0  0  0  0  0  0  0  0
    1.6181   -1.0506   -0.0231 C   0  0  0  0  0  0  0  0  0  0  0  0
    2.2452   -2.3685   -0.1219 C   0  0  0  0  0  0  0  0  0  0  0  0
    1.6164   -3.4107   -0.8054 C   0  0  0  0  0  0  0  0  0  0  0  0
    2.1769   -4.6827   -0.8552 C   0  0  0  0  0  0  0  0  0  0  0  0
    3.4683   -4.8919   -0.3735 C   0  0  0  0  0  0  0  0  0  0  0  0
    4.1223   -3.8661    0.3050 C   0  0  0  0  0  0  0  0  0  0  0  0
    3.5080   -2.6112    0.4447 C   0  0  0  0  0  0  0  0  0  0  0  0
    4.1567   -6.0756   -0.5298 O   0  0  0  0  0  0  0  0  0  0  0  0
    3.9269   -6.8411   -1.6556 C   0  0  0  0  0  0  0  0  0  0  0  0
    3.5824   -6.3210   -2.9095 C   0  0  0  0  0  0  0  0  0  0  0  0
    3.2671   -7.1769   -3.9641 C   0  0  0  0  0  0  0  0  0  0  0  0
    3.3758   -8.5545   -3.7938 C   0  0  0  0  0  0  0  0  0  0  0  0
    3.8081   -9.0747   -2.5732 C   0  0  0  0  0  0  0  0  0  0  0  0
    4.0796   -8.2192   -1.5036 C   0  0  0  0  0  0  0  0  0  0  0  0
    1.9695    2.4450   -0.0578 C   0  0  0  0  0  0  0  0  0  0  0  0
    2.8945    2.7353   -1.2426 C   0  0  0  0  0  0  0  0  0  0  0  0
    3.6035    4.0341   -0.8681 C   0  0  0  0  0  0  0  0  0  0  0  0
    3.4466    4.1901    0.6458 C   0  0  0  0  0  0  0  0  0  0  0  0
    2.8128    2.8931    1.1355 C   0  0  0  0  0  0  0  0  0  0  0  0
   -1.2376   -2.7309    0.0438 N   0  0  0  0  0  0  0  0  0  0  0  0
   -2.9541    1.2922    0.0204 H   0  0  0  0  0  0  0  0  0  0  0  0
    0.6838   -3.2518   -1.3397 H   0  0  0  0  0  0  0  0  0  0  0  0
    1.6148   -5.4800   -1.3326 H   0  0  0  0  0  0  0  0  0  0  0  0
    5.1159   -4.0277    0.7145 H   0  0  0  0  0  0  0  0  0  0  0  0
    4.0341   -1.8190    0.9692 H   0  0  0  0  0  0  0  0  0  0  0  0
    3.5173   -5.2487   -3.0735 H   0  0  0  0  0  0  0  0  0  0  0  0
    2.9335   -6.7650   -4.9130 H   0  0  0  0  0  0  0  0  0  0  0  0
    3.1338   -9.2221   -4.6170 H   0  0  0  0  0  0  0  0  0  0  0  0
    3.9220  -10.1480   -2.4517 H   0  0  0  0  0  0  0  0  0  0  0  0
    4.3992   -8.6286   -0.5493 H   0  0  0  0  0  0  0  0  0  0  0  0
    1.0903    3.0980   -0.1326 H   0  0  0  0  0  0  0  0  0  0  0  0
    3.6403    1.9417   -1.3741 H   0  0  0  0  0  0  0  0  0  0  0  0
    2.3436    2.8216   -2.1849 H   0  0  0  0  0  0  0  0  0  0  0  0
    4.6583    3.9997   -1.1604 H   0  0  0  0  0  0  0  0  0  0  0  0
    3.1490    4.8873   -1.3839 H   0  0  0  0  0  0  0  0  0  0  0  0
    4.4022    4.3906    1.1397 H   0  0  0  0  0  0  0  0  0  0  0  0
    2.7822    5.0362    0.8590 H   0  0  0  0  0  0  0  0  0  0  0  0
    2.2138    3.0430    2.0394 H   0  0  0  0  0  0  0  0  0  0  0  0
    3.5959    2.1622    1.3716 H   0  0  0  0  0  0  0  0  0  0  0  0
   -0.5614   -3.2620    0.5777 H   0  0  0  0  0  0  0  0  0  0  0  0
   -2.2101   -2.9427    0.2397 H   0  0  0  0  0  0  0  0  0  0  0  0
  1  2  2  0  0  0  0
  1  6  1  0  0  0  0
  1 29  1  0  0  0  0
  2  3  1  0  0  0  0
  3  4  2  0  0  0  0
  3  8  1  0  0  0  0
  4  5  1  0  0  0  0
  4  9  1  0  0  0  0
  5  6  2  0  0  0  0
  5 28  1  0  0  0  0
  7  8  1  0  0  0  0
  7  9  2  0  0  0  0
  8 23  1  0  0  0  0
  9 10  1  0  0  0  0
 10 11  2  0  0  0  0
 10 15  1  0  0  0  0
 11 12  1  0  0  0  0
 11 30  1  0  0  0  0
 12 13  2  0  0  0  0
 12 31  1  0  0  0  0
 13 14  1  0  0  0  0
 13 16  1  0  0  0  0
 14 15  2  0  0  0  0
 14 32  1  0  0  0  0
 15 33  1  0  0  0  0
 16 17  1  0  0  0  0
 17 18  2  0  0  0  0
 17 22  1  0  0  0  0
 18 19  1  0  0  0  0
 18 34  1  0  0  0  0
 19 20  2  0  0  0  0
 19 35  1  0  0  0  0
 20 21  1  0  0  0  0
 20 36  1  0  0  0  0
 21 22  2  0  0  0  0
 21 37  1  0  0  0  0
 22 38  1  0  0  0  0
 23 24  1  0  0  0  0
 23 27  1  0  0  0  0
 23 39  1  0  0  0  0
 24 25  1  0  0  0  0
 24 40  1  0  0  0  0
 24 41  1  0  0  0  0
 25 26  1  0  0  0  0
 25 42  1  0  0  0  0
 25 43  1  0  0  0  0
 26 27  1  0  0  0  0
 26 44  1  0  0  0  0
 26 45  1  0  0  0  0
 27 46  1  0  0  0  0
 27 47  1  0  0  0  0
 28 48  1  0  0  0  0
 28 49  1  0  0  0  0
M  END
>  <Mol_ID>
4773

>  <Formula>
C22H21N5O

>  <MolWeight>
371.43504

>  <Cat>
S6725

>  <Name>
PCI 29732

>  <Synonyms>
N/A

>  <Target>
BTK

>  <Form>
Free Base

>  <CAS>
330786-25-9

>  <URL>
http://www.selleck.cn/products/pci-29732.html

$$$$
