PD-L1 inhibitor 2.cdx
 OpenBabel08302519563D

 60 62  0  0  0  0  0  0  0  0999 V2000
   -1.7130   -0.0381   -0.0478 N   0  0  0  0  0  0  0  0  0  0  0  0
   -1.0319    1.0362   -0.5078 C   0  0  0  0  0  0  0  0  0  0  0  0
    0.1948    0.9190   -1.1407 C   0  0  0  0  0  0  0  0  0  0  0  0
    0.8488   -0.3076   -1.1014 C   0  0  0  0  0  0  0  0  0  0  0  0
    0.2453   -1.3939   -0.4679 C   0  0  0  0  0  0  0  0  0  0  0  0
   -1.0724   -1.2289   -0.0519 C   0  0  0  0  0  0  0  0  0  0  0  0
   -1.6673    2.2224   -0.2647 O   0  0  0  0  0  0  0  0  0  0  0  0
   -1.7278   -2.3536    0.4116 O   0  0  0  0  0  0  0  0  0  0  0  0
   -3.0557   -2.1154    0.8588 C   0  0  0  0  0  0  0  0  0  0  0  0
    1.0683   -2.6067   -0.1248 C   0  0  0  0  0  0  0  0  0  0  0  0
    1.8387   -2.4204    1.1168 N   0  0  0  0  0  0  0  0  0  0  0  0
    1.0214   -2.3474    2.3394 C   0  0  0  0  0  0  0  0  0  0  0  0
    0.2050   -3.6148    2.6556 C   0  0  0  0  0  0  0  0  0  0  0  0
   -0.6572   -3.4406    3.8070 N   0  0  0  0  0  0  0  0  0  0  0  0
   -0.2437   -3.7549    5.0775 C   0  0  0  0  0  0  0  0  0  0  0  0
   -1.2639   -3.5004    6.1491 C   0  0  0  0  0  0  0  0  0  0  0  0
    0.8536   -4.2182    5.3302 O   0  0  0  0  0  0  0  0  0  0  0  0
   -0.8896    3.4286   -0.2300 C   0  0  0  0  0  0  0  0  0  0  0  0
   -0.0152    3.6516    1.0043 C   0  0  0  0  0  0  0  0  0  0  0  0
   -0.4025    3.3160    2.3314 C   0  0  0  0  0  0  0  0  0  0  0  0
    0.5707    3.2982    3.3751 C   0  0  0  0  0  0  0  0  0  0  0  0
    1.7723    4.0002    3.1268 C   0  0  0  0  0  0  0  0  0  0  0  0
    2.0788    4.5251    1.8746 C   0  0  0  0  0  0  0  0  0  0  0  0
    1.2201    4.2918    0.8094 C   0  0  0  0  0  0  0  0  0  0  0  0
   -1.8731    3.1696    2.6343 C   0  0  0  0  0  0  0  0  0  0  0  0
    0.4937    2.4694    4.6288 C   0  0  0  0  0  0  0  0  0  0  0  0
    1.6590    1.7986    5.0777 C   0  0  0  0  0  0  0  0  0  0  0  0
    1.6635    0.9366    6.1836 C   0  0  0  0  0  0  0  0  0  0  0  0
    0.4869    0.6959    6.8724 C   0  0  0  0  0  0  0  0  0  0  0  0
   -0.6769    1.3452    6.4710 C   0  0  0  0  0  0  0  0  0  0  0  0
   -0.6675    2.2310    5.3776 C   0  0  0  0  0  0  0  0  0  0  0  0
    0.6902    1.7504   -1.6201 H   0  0  0  0  0  0  0  0  0  0  0  0
    1.8553   -0.3937   -1.5029 H   0  0  0  0  0  0  0  0  0  0  0  0
   -3.0814   -1.3625    1.6523 H   0  0  0  0  0  0  0  0  0  0  0  0
   -3.7126   -1.8426    0.0265 H   0  0  0  0  0  0  0  0  0  0  0  0
   -3.4312   -3.0520    1.2860 H   0  0  0  0  0  0  0  0  0  0  0  0
    0.4748   -3.5257   -0.1097 H   0  0  0  0  0  0  0  0  0  0  0  0
    1.7972   -2.7609   -0.9315 H   0  0  0  0  0  0  0  0  0  0  0  0
    2.5042   -3.1848    1.2187 H   0  0  0  0  0  0  0  0  0  0  0  0
    1.7012   -2.1545    3.1804 H   0  0  0  0  0  0  0  0  0  0  0  0
    0.3666   -1.4662    2.3142 H   0  0  0  0  0  0  0  0  0  0  0  0
   -0.4549   -3.8943    1.8345 H   0  0  0  0  0  0  0  0  0  0  0  0
    0.8804   -4.4580    2.8306 H   0  0  0  0  0  0  0  0  0  0  0  0
   -1.5119   -2.9179    3.6792 H   0  0  0  0  0  0  0  0  0  0  0  0
   -1.4578   -4.4325    6.6841 H   0  0  0  0  0  0  0  0  0  0  0  0
   -0.8738   -2.7515    6.8467 H   0  0  0  0  0  0  0  0  0  0  0  0
   -2.2124   -3.1361    5.7373 H   0  0  0  0  0  0  0  0  0  0  0  0
   -1.6011    4.2602   -0.2798 H   0  0  0  0  0  0  0  0  0  0  0  0
   -0.2962    3.5135   -1.1473 H   0  0  0  0  0  0  0  0  0  0  0  0
    2.5069    4.1264    3.9218 H   0  0  0  0  0  0  0  0  0  0  0  0
    3.0107    5.0634    1.7258 H   0  0  0  0  0  0  0  0  0  0  0  0
    1.5107    4.6457   -0.1772 H   0  0  0  0  0  0  0  0  0  0  0  0
   -2.1340    2.1700    2.9823 H   0  0  0  0  0  0  0  0  0  0  0  0
   -2.1456    3.9260    3.3831 H   0  0  0  0  0  0  0  0  0  0  0  0
   -2.5090    3.4094    1.7775 H   0  0  0  0  0  0  0  0  0  0  0  0
    2.6017    1.9167    4.5443 H   0  0  0  0  0  0  0  0  0  0  0  0
    2.5863    0.4421    6.4792 H   0  0  0  0  0  0  0  0  0  0  0  0
    0.4761    0.0119    7.7140 H   0  0  0  0  0  0  0  0  0  0  0  0
   -1.6072    1.1598    7.0044 H   0  0  0  0  0  0  0  0  0  0  0  0
   -1.6039    2.7190    5.1354 H   0  0  0  0  0  0  0  0  0  0  0  0
  1  2  2  0  0  0  0
  2  3  1  0  0  0  0
  2  7  1  0  0  0  0
  3  4  2  0  0  0  0
  3 32  1  0  0  0  0
  4  5  1  0  0  0  0
  4 33  1  0  0  0  0
  5  6  2  0  0  0  0
  5 10  1  0  0  0  0
  6  1  1  0  0  0  0
  6  8  1  0  0  0  0
  7 18  1  0  0  0  0
  8  9  1  0  0  0  0
  9 34  1  0  0  0  0
  9 35  1  0  0  0  0
  9 36  1  0  0  0  0
 10 11  1  0  0  0  0
 10 37  1  0  0  0  0
 10 38  1  0  0  0  0
 11 12  1  0  0  0  0
 11 39  1  0  0  0  0
 12 13  1  0  0  0  0
 12 40  1  0  0  0  0
 12 41  1  0  0  0  0
 13 14  1  0  0  0  0
 13 42  1  0  0  0  0
 13 43  1  0  0  0  0
 14 15  1  0  0  0  0
 14 44  1  0  0  0  0
 15 16  1  0  0  0  0
 15 17  2  0  0  0  0
 16 45  1  0  0  0  0
 16 46  1  0  0  0  0
 16 47  1  0  0  0  0
 18 19  1  0  0  0  0
 18 48  1  0  0  0  0
 18 49  1  0  0  0  0
 19 20  2  0  0  0  0
 20 21  1  0  0  0  0
 20 25  1  0  0  0  0
 21 22  2  0  0  0  0
 21 26  1  0  0  0  0
 22 23  1  0  0  0  0
 22 50  1  0  0  0  0
 23 24  2  0  0  0  0
 23 51  1  0  0  0  0
 24 19  1  0  0  0  0
 24 52  1  0  0  0  0
 25 53  1  0  0  0  0
 25 54  1  0  0  0  0
 25 55  1  0  0  0  0
 26 27  2  0  0  0  0
 27 28  1  0  0  0  0
 27 56  1  0  0  0  0
 28 29  2  0  0  0  0
 28 57  1  0  0  0  0
 29 30  1  0  0  0  0
 29 58  1  0  0  0  0
 30 31  2  0  0  0  0
 30 59  1  0  0  0  0
 31 26  1  0  0  0  0
 31 60  1  0  0  0  0
M  END
>  <Mol_ID>
2197

>  <Formula>
C25H29N3O3

>  <MolWeight>
419.51606

>  <Cat>
S7912

>  <Name>
BMS202 (PD-1/PD-L1 inhibitor 2)

>  <Synonyms>
N/A

>  <Target>
PD-1/PD-L1

>  <Form>
free base

>  <CAS>
1675203-84-5

>  <URL>
http://selleckchem.com/products/pd-1-pd-l1-inhibitor-2.html

$$$$
