PD128907.cdx
 OpenBabel08302522063D

 37 39  0  0  0  0  0  0  0  0999 V2000
    2.9229    1.6166    0.1509 C   0  0  0  0  0  0  0  0  0  0  0  0
    3.5851    0.4163    0.3856 C   0  0  0  0  0  0  0  0  0  0  0  0
    2.8408   -0.7576    0.5008 C   0  0  0  0  0  0  0  0  0  0  0  0
    1.4528   -0.7253    0.3551 C   0  0  0  0  0  0  0  0  0  0  0  0
    0.7824    0.4814    0.1162 C   0  0  0  0  0  0  0  0  0  0  0  0
    1.5379    1.6584    0.0131 C   0  0  0  0  0  0  0  0  0  0  0  0
    0.8192   -1.9320    0.4885 O   0  0  0  0  0  0  0  0  0  0  0  0
   -0.4813   -1.9731   -0.1121 C   0  0  0  0  0  0  0  0  0  0  0  0
   -1.3690   -0.8207    0.3614 C   0  0  1  0  0  0  0  0  0  0  0  0
   -0.7087    0.4930   -0.1277 C   0  0  1  0  0  0  0  0  0  0  0  0
   -2.8341   -0.8989    0.0658 N   0  0  0  0  0  0  0  0  0  0  0  0
   -3.4515    0.3511    0.5900 C   0  0  0  0  0  0  0  0  0  0  0  0
   -2.7249    1.6554    0.2004 C   0  0  0  0  0  0  0  0  0  0  0  0
   -1.3286    1.6138    0.5205 O   0  0  0  0  0  0  0  0  0  0  0  0
    3.6160    2.7877    0.0380 O   0  0  0  0  0  0  0  0  0  0  0  0
   -3.2336   -1.1376   -1.3308 C   0  0  0  0  0  0  0  0  0  0  0  0
   -3.0220   -2.5593   -1.8826 C   0  0  0  0  0  0  0  0  0  0  0  0
   -3.5865   -3.6786   -1.0160 C   0  0  0  0  0  0  0  0  0  0  0  0
    4.6646    0.3705    0.4799 H   0  0  0  0  0  0  0  0  0  0  0  0
    3.3417   -1.7037    0.6858 H   0  0  0  0  0  0  0  0  0  0  0  0
    1.0491    2.6133   -0.1674 H   0  0  0  0  0  0  0  0  0  0  0  0
   -0.9225   -2.9332    0.1712 H   0  0  0  0  0  0  0  0  0  0  0  0
   -0.3361   -1.9625   -1.1969 H   0  0  0  0  0  0  0  0  0  0  0  0
   -1.3021   -0.8211    1.4616 H   0  0  0  0  0  0  0  0  0  0  0  0
   -0.8410    0.6052   -1.2129 H   0  0  0  0  0  0  0  0  0  0  0  0
   -3.4495    0.2749    1.6846 H   0  0  0  0  0  0  0  0  0  0  0  0
   -4.5073    0.4193    0.3005 H   0  0  0  0  0  0  0  0  0  0  0  0
   -2.8382    1.8747   -0.8673 H   0  0  0  0  0  0  0  0  0  0  0  0
   -3.1597    2.4945    0.7550 H   0  0  0  0  0  0  0  0  0  0  0  0
    4.5598    2.6112    0.1820 H   0  0  0  0  0  0  0  0  0  0  0  0
   -4.3151   -0.9609   -1.4109 H   0  0  0  0  0  0  0  0  0  0  0  0
   -2.7605   -0.4172   -2.0077 H   0  0  0  0  0  0  0  0  0  0  0  0
   -3.4974   -2.6206   -2.8699 H   0  0  0  0  0  0  0  0  0  0  0  0
   -1.9668   -2.7531   -2.0744 H   0  0  0  0  0  0  0  0  0  0  0  0
   -4.6513   -3.8258   -1.2195 H   0  0  0  0  0  0  0  0  0  0  0  0
   -3.0736   -4.6190   -1.2464 H   0  0  0  0  0  0  0  0  0  0  0  0
   -3.4626   -3.4907    0.0538 H   0  0  0  0  0  0  0  0  0  0  0  0
  1  2  2  0  0  0  0
  1 15  1  0  0  0  0
  2  3  1  0  0  0  0
  2 19  1  0  0  0  0
  3  4  2  0  0  0  0
  3 20  1  0  0  0  0
  4  5  1  0  0  0  0
  4  7  1  0  0  0  0
  5  6  2  0  0  0  0
  6  1  1  0  0  0  0
  6 21  1  0  0  0  0
  7  8  1  0  0  0  0
  8 22  1  0  0  0  0
  8 23  1  0  0  0  0
  9  8  1  0  0  0  0
  9 10  1  0  0  0  0
  9 11  1  0  0  0  0
  9 24  1  1  0  0  0
 10  5  1  0  0  0  0
 10 14  1  0  0  0  0
 10 25  1  6  0  0  0
 11 12  1  0  0  0  0
 11 16  1  0  0  0  0
 12 13  1  0  0  0  0
 12 26  1  0  0  0  0
 12 27  1  0  0  0  0
 13 14  1  0  0  0  0
 13 28  1  0  0  0  0
 13 29  1  0  0  0  0
 15 30  1  0  0  0  0
 16 17  1  0  0  0  0
 16 31  1  0  0  0  0
 16 32  1  0  0  0  0
 17 18  1  0  0  0  0
 17 33  1  0  0  0  0
 17 34  1  0  0  0  0
 18 35  1  0  0  0  0
 18 36  1  0  0  0  0
 18 37  1  0  0  0  0
M  END
>  <Mol_ID>
1450

>  <Formula>
C14H20ClNO3

>  <MolWeight>
285.7665

>  <Cat>
S2168

>  <Name>
PD128907 HCl

>  <Synonyms>
N/A

>  <Target>
Dopamine Receptor

>  <Form>
Hydrochloride

>  <CAS>
112960-16-4

>  <URL>
http://selleckchem.com/products/PD-128907.html

$$$$
