PD146176
 OpenBabel08302521353D

 28 31  0  0  0  0  0  0  0  0999 V2000
   -1.6381   -2.3975    0.5284 S   0  0  0  0  0  0  0  0  0  0  0  0
    0.6845    1.3506    0.1253 N   0  0  0  0  0  0  0  0  0  0  0  0
    0.5364   -0.8483   -0.1530 C   0  0  0  0  0  0  0  0  0  0  0  0
   -0.2049    0.3141   -0.0153 C   0  0  0  0  0  0  0  0  0  0  0  0
    1.9153   -0.4999   -0.0866 C   0  0  0  0  0  0  0  0  0  0  0  0
    1.9818    0.8832    0.0806 C   0  0  0  0  0  0  0  0  0  0  0  0
   -1.6673    0.3899    0.0084 C   0  0  0  0  0  0  0  0  0  0  0  0
   -0.0615   -2.1919   -0.3697 C   0  0  0  0  0  0  0  0  0  0  0  0
   -2.4083   -0.7987    0.2108 C   0  0  0  0  0  0  0  0  0  0  0  0
    3.1162   -1.2347   -0.1558 C   0  0  0  0  0  0  0  0  0  0  0  0
    3.1983    1.5704    0.1770 C   0  0  0  0  0  0  0  0  0  0  0  0
   -2.3563    1.5941   -0.1883 C   0  0  0  0  0  0  0  0  0  0  0  0
   -3.8084   -0.7596    0.2121 C   0  0  0  0  0  0  0  0  0  0  0  0
    4.3385   -0.5644   -0.0545 C   0  0  0  0  0  0  0  0  0  0  0  0
    4.3767    0.8183    0.1075 C   0  0  0  0  0  0  0  0  0  0  0  0
   -3.7549    1.6176   -0.1941 C   0  0  0  0  0  0  0  0  0  0  0  0
   -4.4791    0.4432    0.0014 C   0  0  0  0  0  0  0  0  0  0  0  0
    0.4355    2.3173    0.2628 H   0  0  0  0  0  0  0  0  0  0  0  0
    0.6184   -2.9842   -0.0434 H   0  0  0  0  0  0  0  0  0  0  0  0
   -0.2549   -2.3353   -1.4385 H   0  0  0  0  0  0  0  0  0  0  0  0
    3.0968   -2.3133   -0.2805 H   0  0  0  0  0  0  0  0  0  0  0  0
    3.2362    2.6482    0.3045 H   0  0  0  0  0  0  0  0  0  0  0  0
   -1.8240    2.5252   -0.3573 H   0  0  0  0  0  0  0  0  0  0  0  0
   -4.3838   -1.6692    0.3711 H   0  0  0  0  0  0  0  0  0  0  0  0
    5.2651   -1.1318   -0.1012 H   0  0  0  0  0  0  0  0  0  0  0  0
    5.3384    1.3202    0.1835 H   0  0  0  0  0  0  0  0  0  0  0  0
   -4.2824    2.5542   -0.3571 H   0  0  0  0  0  0  0  0  0  0  0  0
   -5.5661    0.4615   -0.0093 H   0  0  0  0  0  0  0  0  0  0  0  0
  1  8  1  0  0  0  0
  1  9  1  0  0  0  0
  2  4  1  0  0  0  0
  2  6  1  0  0  0  0
  2 18  1  0  0  0  0
  3  4  2  0  0  0  0
  3  5  1  0  0  0  0
  3  8  1  0  0  0  0
  4  7  1  0  0  0  0
  5  6  2  0  0  0  0
  5 10  1  0  0  0  0
  6 11  1  0  0  0  0
  7  9  2  0  0  0  0
  7 12  1  0  0  0  0
  8 19  1  0  0  0  0
  8 20  1  0  0  0  0
  9 13  1  0  0  0  0
 10 14  2  0  0  0  0
 10 21  1  0  0  0  0
 11 15  2  0  0  0  0
 11 22  1  0  0  0  0
 12 16  2  0  0  0  0
 12 23  1  0  0  0  0
 13 17  2  0  0  0  0
 13 24  1  0  0  0  0
 14 15  1  0  0  0  0
 14 25  1  0  0  0  0
 15 26  1  0  0  0  0
 16 17  1  0  0  0  0
 16 27  1  0  0  0  0
 17 28  1  0  0  0  0
M  END
>  <Mol_ID>
6712

>  <Formula>
C15H11NS

>  <MolWeight>
237.31954

>  <Cat>
S6956

>  <Name>
PD146176

>  <Synonyms>
NSC168807

>  <Target>
Lipoxygenase

>  <Form>
Free base

>  <CAS>
4079-26-9

>  <URL>
http://www.selleckchem.com/products/pd146176.html

$$$$
