PD98059
 OpenBabel08302521433D

 33 35  0  0  0  0  0  0  0  0999 V2000
    2.0063    1.5863   -0.6812 C   0  0  0  0  0  0  0  0  0  0  0  0
    2.3407    0.3714   -1.2830 C   0  0  0  0  0  0  0  0  0  0  0  0
    1.4604   -0.7107   -1.2212 C   0  0  0  0  0  0  0  0  0  0  0  0
    0.2429   -0.5742   -0.5523 C   0  0  0  0  0  0  0  0  0  0  0  0
   -0.0814    0.6339    0.0640 C   0  0  0  0  0  0  0  0  0  0  0  0
    0.7943    1.7194   -0.0025 C   0  0  0  0  0  0  0  0  0  0  0  0
   -0.5983   -1.6576   -0.5540 O   0  0  0  0  0  0  0  0  0  0  0  0
   -1.8342   -1.5185    0.0492 C   0  0  0  0  0  0  0  0  0  0  0  0
   -2.2543   -0.4261    0.7024 C   0  0  0  0  0  0  0  0  0  0  0  0
   -1.3682    0.7443    0.7701 C   0  0  0  0  0  0  0  0  0  0  0  0
   -2.7405   -2.6591   -0.1618 C   0  0  0  0  0  0  0  0  0  0  0  0
   -2.7674   -3.6648    0.8161 C   0  0  0  0  0  0  0  0  0  0  0  0
   -3.6223   -4.7466    0.6802 C   0  0  0  0  0  0  0  0  0  0  0  0
   -4.4607   -4.8151   -0.4292 C   0  0  0  0  0  0  0  0  0  0  0  0
   -4.4558   -3.8269   -1.4310 C   0  0  0  0  0  0  0  0  0  0  0  0
   -3.5503   -2.7461   -1.3346 C   0  0  0  0  0  0  0  0  0  0  0  0
   -1.7032    1.7607    1.3642 O   0  0  0  0  0  0  0  0  0  0  0  0
   -3.5507   -1.6475   -2.2316 N   0  0  0  0  0  0  0  0  0  0  0  0
   -5.3889   -4.1187   -2.3890 O   0  0  0  0  0  0  0  0  0  0  0  0
   -5.6168   -3.2582   -3.4859 C   0  0  0  0  0  0  0  0  0  0  0  0
    2.6904    2.4299   -0.7398 H   0  0  0  0  0  0  0  0  0  0  0  0
    3.2893    0.2687   -1.8063 H   0  0  0  0  0  0  0  0  0  0  0  0
    1.7211   -1.6532   -1.6937 H   0  0  0  0  0  0  0  0  0  0  0  0
    0.5317    2.6656    0.4659 H   0  0  0  0  0  0  0  0  0  0  0  0
   -3.2395   -0.3344    1.1454 H   0  0  0  0  0  0  0  0  0  0  0  0
   -2.1224   -3.6002    1.6917 H   0  0  0  0  0  0  0  0  0  0  0  0
   -3.6523   -5.5257    1.4372 H   0  0  0  0  0  0  0  0  0  0  0  0
   -5.1496   -5.6539   -0.5161 H   0  0  0  0  0  0  0  0  0  0  0  0
   -2.7021   -1.0912   -2.1732 H   0  0  0  0  0  0  0  0  0  0  0  0
   -3.7156   -1.9043   -3.1910 H   0  0  0  0  0  0  0  0  0  0  0  0
   -5.9213   -2.2586   -3.1629 H   0  0  0  0  0  0  0  0  0  0  0  0
   -4.7514   -3.2412   -4.1538 H   0  0  0  0  0  0  0  0  0  0  0  0
   -6.4458   -3.6762   -4.0665 H   0  0  0  0  0  0  0  0  0  0  0  0
  1  2  2  0  0  0  0
  1 21  1  0  0  0  0
  2  3  1  0  0  0  0
  2 22  1  0  0  0  0
  3  4  2  0  0  0  0
  3 23  1  0  0  0  0
  4  5  1  0  0  0  0
  4  7  1  0  0  0  0
  5  6  2  0  0  0  0
  6  1  1  0  0  0  0
  6 24  1  0  0  0  0
  7  8  1  0  0  0  0
  8  9  2  0  0  0  0
  8 11  1  0  0  0  0
  9 10  1  0  0  0  0
  9 25  1  0  0  0  0
 10  5  1  0  0  0  0
 10 17  2  0  0  0  0
 11 12  2  0  0  0  0
 12 13  1  0  0  0  0
 12 26  1  0  0  0  0
 13 14  2  0  0  0  0
 13 27  1  0  0  0  0
 14 15  1  0  0  0  0
 14 28  1  0  0  0  0
 15 16  2  0  0  0  0
 15 19  1  0  0  0  0
 16 11  1  0  0  0  0
 16 18  1  0  0  0  0
 18 29  1  0  0  0  0
 18 30  1  0  0  0  0
 19 20  1  0  0  0  0
 20 31  1  0  0  0  0
 20 32  1  0  0  0  0
 20 33  1  0  0  0  0
M  END
>  <Mol_ID>
102

>  <Formula>
C16H13NO3

>  <MolWeight>
267.27932

>  <Cat>
S1177

>  <Name>
PD98059

>  <Synonyms>
N/A

>  <Target>
AhR,MEK

>  <Form>
free base

>  <CAS>
167869-21-8

>  <URL>
http://selleckchem.com/products/PD-98059.html

$$$$
