PD 169316
 OpenBabel08302521243D

 40 43  0  0  0  0  0  0  0  0999 V2000
   -0.7776    0.9410    0.2021 C   0  0  0  0  0  0  0  0  0  0  0  0
    0.5942    1.1252    0.1926 C   0  0  0  0  0  0  0  0  0  0  0  0
    1.4175    0.0592   -0.1825 C   0  0  0  0  0  0  0  0  0  0  0  0
    0.8098   -1.1107   -0.6408 C   0  0  0  0  0  0  0  0  0  0  0  0
   -0.5748   -1.1852   -0.6360 C   0  0  0  0  0  0  0  0  0  0  0  0
   -1.3801   -0.1938   -0.2058 N   0  0  0  0  0  0  0  0  0  0  0  0
    5.0443   -0.1463   -0.5163 C   0  0  0  0  0  0  0  0  0  0  0  0
    5.0285    0.4477    0.6630 N   0  0  0  0  0  0  0  0  0  0  0  0
    3.6985    0.6258    0.9940 C   0  0  0  0  0  0  0  0  0  0  0  0
    2.8696    0.1281   -0.0094 C   0  0  0  0  0  0  0  0  0  0  0  0
    3.7586   -0.3558   -0.9460 N   0  0  0  0  0  0  0  0  0  0  0  0
    6.2308   -0.5658   -1.2714 C   0  0  0  0  0  0  0  0  0  0  0  0
    7.4121   -0.8931   -0.5874 C   0  0  0  0  0  0  0  0  0  0  0  0
    8.5512   -1.3273   -1.2774 C   0  0  0  0  0  0  0  0  0  0  0  0
    8.5140   -1.4247   -2.6733 C   0  0  0  0  0  0  0  0  0  0  0  0
    7.3514   -1.0838   -3.3756 C   0  0  0  0  0  0  0  0  0  0  0  0
    6.2180   -0.6572   -2.6736 C   0  0  0  0  0  0  0  0  0  0  0  0
    9.6976   -1.8859   -3.4101 N   0  3  0  0  0  0  0  0  0  0  0  0
   10.7076   -2.1808   -2.7521 O   0  0  0  0  0  0  0  0  0  0  0  0
    9.6179   -1.9582   -4.6405 O   0  5  0  0  0  0  0  0  0  0  0  0
    3.2762    1.3249    2.2040 C   0  0  0  0  0  0  0  0  0  0  0  0
    4.0006    2.4421    2.6428 C   0  0  0  0  0  0  0  0  0  0  0  0
    3.4959    3.2584    3.6598 C   0  0  0  0  0  0  0  0  0  0  0  0
    2.2663    2.9582    4.2357 C   0  0  0  0  0  0  0  0  0  0  0  0
    1.5700    1.8158    3.8697 C   0  0  0  0  0  0  0  0  0  0  0  0
    2.0980    0.9770    2.8860 C   0  0  0  0  0  0  0  0  0  0  0  0
    1.7413    3.7862    5.1480 F   0  0  0  0  0  0  0  0  0  0  0  0
   -1.4421    1.7164    0.5716 H   0  0  0  0  0  0  0  0  0  0  0  0
    1.0052    2.0695    0.5366 H   0  0  0  0  0  0  0  0  0  0  0  0
    1.3861   -1.9729   -0.9567 H   0  0  0  0  0  0  0  0  0  0  0  0
   -1.0873   -2.0835   -0.9684 H   0  0  0  0  0  0  0  0  0  0  0  0
    3.5002   -0.8071   -1.8095 H   0  0  0  0  0  0  0  0  0  0  0  0
    7.4444   -0.8177    0.4994 H   0  0  0  0  0  0  0  0  0  0  0  0
    9.4468   -1.5830   -0.7146 H   0  0  0  0  0  0  0  0  0  0  0  0
    7.3119   -1.1420   -4.4627 H   0  0  0  0  0  0  0  0  0  0  0  0
    5.3358   -0.3781   -3.2446 H   0  0  0  0  0  0  0  0  0  0  0  0
    4.9431    2.7033    2.1647 H   0  0  0  0  0  0  0  0  0  0  0  0
    4.0376    4.1412    3.9827 H   0  0  0  0  0  0  0  0  0  0  0  0
    0.6105    1.5953    4.3278 H   0  0  0  0  0  0  0  0  0  0  0  0
    1.5428    0.0818    2.6159 H   0  0  0  0  0  0  0  0  0  0  0  0
  1  2  2  0  0  0  0
  1  6  1  0  0  0  0
  1 28  1  0  0  0  0
  2  3  1  0  0  0  0
  2 29  1  0  0  0  0
  3  4  2  0  0  0  0
  3 10  1  0  0  0  0
  4  5  1  0  0  0  0
  4 30  1  0  0  0  0
  5  6  2  0  0  0  0
  5 31  1  0  0  0  0
  7  8  2  0  0  0  0
  7 11  1  0  0  0  0
  7 12  1  0  0  0  0
  8  9  1  0  0  0  0
  9 10  2  0  0  0  0
  9 21  1  0  0  0  0
 10 11  1  0  0  0  0
 11 32  1  0  0  0  0
 12 13  2  0  0  0  0
 12 17  1  0  0  0  0
 13 14  1  0  0  0  0
 13 33  1  0  0  0  0
 14 15  2  0  0  0  0
 14 34  1  0  0  0  0
 15 16  1  0  0  0  0
 15 18  1  0  0  0  0
 16 17  2  0  0  0  0
 16 35  1  0  0  0  0
 17 36  1  0  0  0  0
 18 19  2  0  0  0  0
 18 20  1  0  0  0  0
 21 22  2  0  0  0  0
 21 26  1  0  0  0  0
 22 23  1  0  0  0  0
 22 37  1  0  0  0  0
 23 24  2  0  0  0  0
 23 38  1  0  0  0  0
 24 25  1  0  0  0  0
 24 27  1  0  0  0  0
 25 26  2  0  0  0  0
 25 39  1  0  0  0  0
 26 40  1  0  0  0  0
M  CHG  2  18   1  20  -1
M  END
>  <Mol_ID>
4917

>  <Formula>
C20H13FN4O2

>  <MolWeight>
360.3412232

>  <Cat>
S5183

>  <Name>
PD 169316

>  <Synonyms>
N/A

>  <Target>
Enterovirus,p38 MAPK,TGF-beta/Smad

>  <Form>
Free Base

>  <CAS>
152121-53-4

>  <URL>
http://www.selleckchem.com/products/pd-169316.html

$$$$
