PD 151746 .cdx
 OpenBabel08302519583D

 24 25  0  0  0  0  0  0  0  0999 V2000
    1.5331   -1.1178    0.0095 C   0  0  0  0  0  0  0  0  0  0  0  0
    1.7555    0.2526    0.0069 C   0  0  0  0  0  0  0  0  0  0  0  0
    0.7021    1.1740   -0.0120 C   0  0  0  0  0  0  0  0  0  0  0  0
   -0.6293    0.6972   -0.0248 C   0  0  0  0  0  0  0  0  0  0  0  0
   -0.8208   -0.6886   -0.0134 C   0  0  0  0  0  0  0  0  0  0  0  0
    0.2325   -1.6175   -0.0022 C   0  0  0  0  0  0  0  0  0  0  0  0
   -1.9370    1.3062   -0.0404 C   0  0  0  0  0  0  0  0  0  0  0  0
   -2.8529    0.2787    0.0352 C   0  0  0  0  0  0  0  0  0  0  0  0
   -2.1747   -0.9111   -0.0044 N   0  0  0  0  0  0  0  0  0  0  0  0
    3.0180    0.7029    0.0252 F   0  0  0  0  0  0  0  0  0  0  0  0
   -2.2345    2.7128   -0.0254 C   0  0  0  0  0  0  0  0  0  0  0  0
   -3.2975    3.4074   -0.4876 C   0  0  0  0  0  0  0  0  0  0  0  0
   -4.6774    2.7728   -1.3395 S   0  0  0  0  0  0  0  0  0  0  0  0
   -3.2829    4.8991   -0.2693 C   0  0  0  0  0  0  0  0  0  0  0  0
   -4.3609    5.5395   -0.7826 O   0  0  0  0  0  0  0  0  0  0  0  0
   -2.3954    5.4990    0.3107 O   0  0  0  0  0  0  0  0  0  0  0  0
    2.3820   -1.7978    0.0248 H   0  0  0  0  0  0  0  0  0  0  0  0
    0.9269    2.2347   -0.0076 H   0  0  0  0  0  0  0  0  0  0  0  0
    0.0467   -2.6869    0.0068 H   0  0  0  0  0  0  0  0  0  0  0  0
   -3.9296    0.2667    0.1271 H   0  0  0  0  0  0  0  0  0  0  0  0
   -2.6037   -1.8272    0.0172 H   0  0  0  0  0  0  0  0  0  0  0  0
   -1.4460    3.3067    0.4468 H   0  0  0  0  0  0  0  0  0  0  0  0
   -4.2473    1.5305   -1.5872 H   0  0  0  0  0  0  0  0  0  0  0  0
   -4.9817    4.9173   -1.2152 H   0  0  0  0  0  0  0  0  0  0  0  0
  1  2  2  0  0  0  0
  1 17  1  0  0  0  0
  2  3  1  0  0  0  0
  2 10  1  0  0  0  0
  3  4  2  0  0  0  0
  3 18  1  0  0  0  0
  4  5  1  0  0  0  0
  4  7  1  0  0  0  0
  5  6  2  0  0  0  0
  6  1  1  0  0  0  0
  6 19  1  0  0  0  0
  7  8  2  0  0  0  0
  7 11  1  0  0  0  0
  8  9  1  0  0  0  0
  8 20  1  0  0  0  0
  9  5  1  0  0  0  0
  9 21  1  0  0  0  0
 11 12  2  0  0  0  0
 11 22  1  0  0  0  0
 12 13  1  0  0  0  0
 12 14  1  0  0  0  0
 13 23  1  0  0  0  0
 14 15  1  0  0  0  0
 14 16  2  0  0  0  0
 15 24  1  0  0  0  0
M  END
>  <Mol_ID>
2453

>  <Formula>
C11H8FNO2S

>  <MolWeight>
237.2501232

>  <Cat>
S7424

>  <Name>
PD 151746

>  <Synonyms>
N/A

>  <Target>
Cysteine Protease

>  <Form>
free base

>  <CAS>
179461-52-0

>  <URL>
http://selleckchem.com/products/pd-151746.html

$$$$
