PDEC-NB
 OpenBabel08302521313D

 35 36  0  0  0  0  0  0  0  0999 V2000
    1.0351   -0.8822    0.3872 S   0  0  0  0  0  0  0  0  0  0  0  0
    0.0048   -0.5851   -1.3679 S   0  0  0  0  0  0  0  0  0  0  0  0
    1.0252    2.7731    1.6090 O   0  0  0  0  0  0  0  0  0  0  0  0
    2.6320    1.8789    0.4222 O   0  0  0  0  0  0  0  0  0  0  0  0
    0.8498    2.7857   -0.7192 O   0  0  0  0  0  0  0  0  0  0  0  0
   -3.3387    6.7078    3.8391 O   0  5  0  0  0  0  0  0  0  0  0  0
   -2.3368    8.0290    2.4025 O   0  0  0  0  0  0  0  0  0  0  0  0
   -2.5007    6.9312    2.9557 N   0  3  0  0  0  0  0  0  0  0  0  0
    1.6947   -1.6681   -3.1312 N   0  0  0  0  0  0  0  0  0  0  0  0
    0.0614    3.7666    1.8097 C   0  0  0  0  0  0  0  0  0  0  0  0
    2.9609    0.9612   -0.6234 C   0  0  0  0  0  0  0  0  0  0  0  0
    2.7613   -0.4445   -0.0610 C   0  0  0  0  0  0  0  0  0  0  0  0
   -1.6389    5.8213    2.5373 C   0  0  0  0  0  0  0  0  0  0  0  0
   -0.9124    3.5288    2.7775 C   0  0  0  0  0  0  0  0  0  0  0  0
    0.1951    5.0129    1.2006 C   0  0  0  0  0  0  0  0  0  0  0  0
   -1.7751    4.5645    3.1455 C   0  0  0  0  0  0  0  0  0  0  0  0
   -0.6606    6.0491    1.5598 C   0  0  0  0  0  0  0  0  0  0  0  0
    1.4455    2.5137    0.3130 C   0  0  0  0  0  0  0  0  0  0  0  0
    0.6222   -1.9343   -2.3472 C   0  0  0  0  0  0  0  0  0  0  0  0
    0.0398   -3.1916   -2.2566 C   0  0  0  0  0  0  0  0  0  0  0  0
    0.5754   -4.2267   -3.0164 C   0  0  0  0  0  0  0  0  0  0  0  0
    1.6660   -3.9723   -3.8401 C   0  0  0  0  0  0  0  0  0  0  0  0
    2.1850   -2.6892   -3.8648 C   0  0  0  0  0  0  0  0  0  0  0  0
    4.0242    1.1063   -0.8463 H   0  0  0  0  0  0  0  0  0  0  0  0
    2.4167    1.1418   -1.5560 H   0  0  0  0  0  0  0  0  0  0  0  0
    3.3236   -0.5255    0.8766 H   0  0  0  0  0  0  0  0  0  0  0  0
    3.1556   -1.2004   -0.7436 H   0  0  0  0  0  0  0  0  0  0  0  0
   -0.9832    2.5582    3.2620 H   0  0  0  0  0  0  0  0  0  0  0  0
    0.9795    5.1923    0.4693 H   0  0  0  0  0  0  0  0  0  0  0  0
   -2.5223    4.3835    3.9161 H   0  0  0  0  0  0  0  0  0  0  0  0
   -0.5365    7.0196    1.0894 H   0  0  0  0  0  0  0  0  0  0  0  0
   -0.8066   -3.3687   -1.6014 H   0  0  0  0  0  0  0  0  0  0  0  0
    0.1440   -5.2220   -2.9648 H   0  0  0  0  0  0  0  0  0  0  0  0
    2.1012   -4.7560   -4.4503 H   0  0  0  0  0  0  0  0  0  0  0  0
    3.0351   -2.4399   -4.4935 H   0  0  0  0  0  0  0  0  0  0  0  0
  1  2  1  0  0  0  0
  1 12  1  0  0  0  0
  2 19  1  0  0  0  0
  3 10  1  0  0  0  0
  3 18  1  0  0  0  0
  4 11  1  0  0  0  0
  4 18  1  0  0  0  0
  5 18  2  0  0  0  0
  6  8  1  0  0  0  0
  7  8  2  0  0  0  0
  8 13  1  0  0  0  0
  9 19  2  0  0  0  0
  9 23  1  0  0  0  0
 10 14  2  0  0  0  0
 10 15  1  0  0  0  0
 11 12  1  0  0  0  0
 11 24  1  0  0  0  0
 11 25  1  0  0  0  0
 12 26  1  0  0  0  0
 12 27  1  0  0  0  0
 13 16  2  0  0  0  0
 13 17  1  0  0  0  0
 14 16  1  0  0  0  0
 14 28  1  0  0  0  0
 15 17  2  0  0  0  0
 15 29  1  0  0  0  0
 16 30  1  0  0  0  0
 17 31  1  0  0  0  0
 19 20  1  0  0  0  0
 20 21  2  0  0  0  0
 20 32  1  0  0  0  0
 21 22  1  0  0  0  0
 21 33  1  0  0  0  0
 22 23  2  0  0  0  0
 22 34  1  0  0  0  0
 23 35  1  0  0  0  0
M  CHG  2   6  -1   8   1
M  END
>  <Mol_ID>
5989

>  <Formula>
C14H12N2O5S2

>  <MolWeight>
352.38548

>  <Cat>
S0627

>  <Name>
PDEC-NB

>  <Synonyms>
N/A

>  <Target>
ADC Linker

>  <Form>
Free Base

>  <CAS>
874302-76-8

>  <URL>
http://www.selleckchem.com/products/pdec-nb.html

$$$$
