PDM-11
 OpenBabel08302521273D

 34 35  0  0  0  0  0  0  0  0999 V2000
    0.9939    0.0208    0.1926 O   0  0  0  0  0  0  0  0  0  0  0  0
    0.7636   -4.1528    2.4932 O   0  0  0  0  0  0  0  0  0  0  0  0
   -1.1012   -2.8813   -0.4698 C   0  0  0  0  0  0  0  0  0  0  0  0
   -0.6847   -3.7658    0.5390 C   0  0  0  0  0  0  0  0  0  0  0  0
   -0.5237   -1.6086   -0.5396 C   0  0  0  0  0  0  0  0  0  0  0  0
    0.4674   -1.2314    0.3695 C   0  0  0  0  0  0  0  0  0  0  0  0
    0.2806   -3.3822    1.4704 C   0  0  0  0  0  0  0  0  0  0  0  0
   -2.0601   -3.3799   -1.4682 C   0  0  0  0  0  0  0  0  0  0  0  0
    0.8472   -2.1094    1.3853 C   0  0  0  0  0  0  0  0  0  0  0  0
   -3.9624   -3.2112   -3.0505 C   0  0  0  0  0  0  0  0  0  0  0  0
   -3.0143   -2.6513   -2.0701 C   0  0  0  0  0  0  0  0  0  0  0  0
   -4.4066   -4.5407   -2.9925 C   0  0  0  0  0  0  0  0  0  0  0  0
   -4.4864   -2.3769   -4.0480 C   0  0  0  0  0  0  0  0  0  0  0  0
   -5.3241   -5.0323   -3.9246 C   0  0  0  0  0  0  0  0  0  0  0  0
   -5.4080   -2.8676   -4.9785 C   0  0  0  0  0  0  0  0  0  0  0  0
   -5.8239   -4.1958   -4.9186 C   0  0  0  0  0  0  0  0  0  0  0  0
    2.3592    0.1508    0.5830 C   0  0  0  0  0  0  0  0  0  0  0  0
    0.2525   -5.4752    2.6006 C   0  0  0  0  0  0  0  0  0  0  0  0
   -1.1340   -4.7530    0.5796 H   0  0  0  0  0  0  0  0  0  0  0  0
   -0.8071   -0.9126   -1.3242 H   0  0  0  0  0  0  0  0  0  0  0  0
   -1.9494   -4.4353   -1.7040 H   0  0  0  0  0  0  0  0  0  0  0  0
    1.5850   -1.8267    2.1291 H   0  0  0  0  0  0  0  0  0  0  0  0
   -3.1287   -1.5926   -1.8526 H   0  0  0  0  0  0  0  0  0  0  0  0
   -4.0531   -5.2122   -2.2147 H   0  0  0  0  0  0  0  0  0  0  0  0
   -4.1761   -1.3366   -4.1156 H   0  0  0  0  0  0  0  0  0  0  0  0
   -5.6516   -6.0674   -3.8679 H   0  0  0  0  0  0  0  0  0  0  0  0
   -5.8021   -2.2108   -5.7500 H   0  0  0  0  0  0  0  0  0  0  0  0
   -6.5397   -4.5774   -5.6414 H   0  0  0  0  0  0  0  0  0  0  0  0
    2.7264    1.1001    0.1893 H   0  0  0  0  0  0  0  0  0  0  0  0
    2.4567    0.1829    1.6729 H   0  0  0  0  0  0  0  0  0  0  0  0
    2.9748   -0.6495    0.1573 H   0  0  0  0  0  0  0  0  0  0  0  0
   -0.8148   -5.4626    2.8445 H   0  0  0  0  0  0  0  0  0  0  0  0
    0.4444   -6.0524    1.6899 H   0  0  0  0  0  0  0  0  0  0  0  0
    0.7785   -5.9706    3.4223 H   0  0  0  0  0  0  0  0  0  0  0  0
  1  6  1  0  0  0  0
  1 17  1  0  0  0  0
  2  7  1  0  0  0  0
  2 18  1  0  0  0  0
  3  4  2  0  0  0  0
  3  5  1  0  0  0  0
  3  8  1  0  0  0  0
  4  7  1  0  0  0  0
  4 19  1  0  0  0  0
  5  6  2  0  0  0  0
  5 20  1  0  0  0  0
  6  9  1  0  0  0  0
  7  9  2  0  0  0  0
  8 11  2  0  0  0  0
  8 21  1  0  0  0  0
  9 22  1  0  0  0  0
 10 11  1  0  0  0  0
 10 12  2  0  0  0  0
 10 13  1  0  0  0  0
 11 23  1  0  0  0  0
 12 14  1  0  0  0  0
 12 24  1  0  0  0  0
 13 15  2  0  0  0  0
 13 25  1  0  0  0  0
 14 16  2  0  0  0  0
 14 26  1  0  0  0  0
 15 16  1  0  0  0  0
 15 27  1  0  0  0  0
 16 28  1  0  0  0  0
 17 29  1  0  0  0  0
 17 30  1  0  0  0  0
 17 31  1  0  0  0  0
 18 32  1  0  0  0  0
 18 33  1  0  0  0  0
 18 34  1  0  0  0  0
M  END
>  <Mol_ID>
5349

>  <Formula>
C16H15ClO2

>  <MolWeight>
274.7421

>  <Cat>
S0155

>  <Name>
PDM-11

>  <Synonyms>
N/A

>  <Target>
AhR

>  <Form>
Free Base

>  <CAS>
1032508-03-4

>  <URL>
https://www.selleckchem.com/products/pdm11.html

$$$$
