PEAQX
 OpenBabel08302521333D

 44 46  0  0  0  0  0  0  0  0999 V2000
    1.0633   -0.0657    0.0409 C   0  0  3  0  0  0  0  0  0  0  0  0
    0.3569    0.5863   -1.0818 N   0  0  0  0  0  0  0  0  0  0  0  0
    0.4533   -1.7902    0.0957 P   0  0  0  0  0  0  0  0  0  0  0  0
    0.7143    1.9850   -1.3608 C   0  0  1  0  0  0  0  0  0  0  0  0
    1.0674   -2.0487   -1.2915 O   0  0  0  0  0  0  0  0  0  0  0  0
    1.6673   -2.2624    1.0977 O   0  0  0  0  0  0  0  0  0  0  0  0
   -0.1233   -3.4204    0.1475 O   0  0  0  0  0  0  0  0  0  0  0  0
    2.1992    2.2626   -1.6336 C   0  0  0  0  0  0  0  0  0  0  0  0
    5.1947    1.9386    2.4577 O   0  0  0  0  0  0  0  0  0  0  0  0
    4.3691    2.6919    5.0521 O   0  0  0  0  0  0  0  0  0  0  0  0
   -2.6103    4.0305   -6.2043 Br  0  0  0  0  0  0  0  0  0  0  0  0
    0.7549    0.6251    1.4036 C   0  0  0  0  0  0  0  0  0  0  0  0
    1.7124    1.1645    2.2989 C   0  0  0  0  0  0  0  0  0  0  0  0
   -0.5945    0.6187    1.8298 C   0  0  0  0  0  0  0  0  0  0  0  0
    1.3079    1.6133    3.5800 C   0  0  0  0  0  0  0  0  0  0  0  0
    3.0715    1.2923    1.9688 N   0  0  0  0  0  0  0  0  0  0  0  0
   -0.9761    1.0663    3.0962 C   0  0  0  0  0  0  0  0  0  0  0  0
   -0.0234    1.5530    3.9774 C   0  0  0  0  0  0  0  0  0  0  0  0
    2.2423    2.1281    4.4976 N   0  0  0  0  0  0  0  0  0  0  0  0
    4.0294    1.8173    2.8143 C   0  0  0  0  0  0  0  0  0  0  0  0
    3.5831    2.2532    4.2203 C   0  0  0  0  0  0  0  0  0  0  0  0
   -0.1047    2.4787   -2.5500 C   0  0  0  0  0  0  0  0  0  0  0  0
   -1.0019    3.5477   -2.3981 C   0  0  0  0  0  0  0  0  0  0  0  0
    0.0309    1.8877   -3.8197 C   0  0  0  0  0  0  0  0  0  0  0  0
   -1.7463    4.0110   -3.4864 C   0  0  0  0  0  0  0  0  0  0  0  0
   -0.7153    2.3468   -4.9054 C   0  0  0  0  0  0  0  0  0  0  0  0
   -1.6007    3.4068   -4.7333 C   0  0  0  0  0  0  0  0  0  0  0  0
    2.1419   -0.0788   -0.1449 H   0  0  0  0  0  0  0  0  0  0  0  0
    0.5525    0.0087   -1.9082 H   0  0  0  0  0  0  0  0  0  0  0  0
    0.4283    2.5919   -0.4921 H   0  0  0  0  0  0  0  0  0  0  0  0
    2.4085   -2.5839    0.5404 H   0  0  0  0  0  0  0  0  0  0  0  0
   -0.0273   -3.7519    1.0598 H   0  0  0  0  0  0  0  0  0  0  0  0
    2.6044    1.6189   -2.4211 H   0  0  0  0  0  0  0  0  0  0  0  0
    2.3437    3.3027   -1.9552 H   0  0  0  0  0  0  0  0  0  0  0  0
    2.8083    2.1257   -0.7380 H   0  0  0  0  0  0  0  0  0  0  0  0
   -1.3796    0.2470    1.1629 H   0  0  0  0  0  0  0  0  0  0  0  0
    3.4213    1.0486    1.0538 H   0  0  0  0  0  0  0  0  0  0  0  0
   -2.0226    1.0265    3.3967 H   0  0  0  0  0  0  0  0  0  0  0  0
   -0.3318    1.8903    4.9693 H   0  0  0  0  0  0  0  0  0  0  0  0
    1.9468    2.4279    5.4149 H   0  0  0  0  0  0  0  0  0  0  0  0
   -1.1262    4.0306   -1.4311 H   0  0  0  0  0  0  0  0  0  0  0  0
    0.7213    1.0607   -3.9722 H   0  0  0  0  0  0  0  0  0  0  0  0
   -2.4350    4.8405   -3.3507 H   0  0  0  0  0  0  0  0  0  0  0  0
   -0.5974    1.8700   -5.8746 H   0  0  0  0  0  0  0  0  0  0  0  0
  1  2  1  0  0  0  0
  1  3  1  0  0  0  0
  1 12  1  0  0  0  0
  1 28  1  0  0  0  0
  2  4  1  0  0  0  0
  2 29  1  0  0  0  0
  3  5  2  0  0  0  0
  3  6  1  0  0  0  0
  3  7  1  0  0  0  0
  4  8  1  0  0  0  0
  4 22  1  0  0  0  0
  4 30  1  1  0  0  0
  6 31  1  0  0  0  0
  7 32  1  0  0  0  0
  8 33  1  0  0  0  0
  8 34  1  0  0  0  0
  8 35  1  0  0  0  0
  9 20  2  0  0  0  0
 10 21  2  0  0  0  0
 11 27  1  0  0  0  0
 12 13  1  0  0  0  0
 12 14  2  0  0  0  0
 13 15  2  0  0  0  0
 13 16  1  0  0  0  0
 14 17  1  0  0  0  0
 14 36  1  0  0  0  0
 15 18  1  0  0  0  0
 15 19  1  0  0  0  0
 16 20  1  0  0  0  0
 16 37  1  0  0  0  0
 17 18  2  0  0  0  0
 17 38  1  0  0  0  0
 18 39  1  0  0  0  0
 19 21  1  0  0  0  0
 19 40  1  0  0  0  0
 20 21  1  0  0  0  0
 22 23  2  0  0  0  0
 22 24  1  0  0  0  0
 23 25  1  0  0  0  0
 23 41  1  0  0  0  0
 24 26  2  0  0  0  0
 24 42  1  0  0  0  0
 25 27  2  0  0  0  0
 25 43  1  0  0  0  0
 26 27  1  0  0  0  0
 26 44  1  0  0  0  0
M  END
>  <Mol_ID>
6387

>  <Formula>
C17H17BrN3O5P

>  <MolWeight>
454.211741

>  <Cat>
E1050

>  <Name>
PEAQX

>  <Synonyms>
NVP-AAM077

>  <Target>
NMDAR

>  <Form>
free base

>  <CAS>
459836-30-7

>  <URL>
http://www.selleckchem.com/products/peaqx.html

$$$$
