Pectolinarigenin
 OpenBabel08302521243D

 37 39  0  0  0  0  0  0  0  0999 V2000
    1.9849    0.9851   -0.0108 C   0  0  0  0  0  0  0  0  0  0  0  0
    2.3716   -0.3592    0.0196 C   0  0  0  0  0  0  0  0  0  0  0  0
    1.4035   -1.3698    0.0372 C   0  0  0  0  0  0  0  0  0  0  0  0
    0.0459   -1.0604    0.0128 C   0  0  0  0  0  0  0  0  0  0  0  0
   -0.3711    0.2673   -0.0138 C   0  0  0  0  0  0  0  0  0  0  0  0
    0.5996    1.2757   -0.0202 C   0  0  0  0  0  0  0  0  0  0  0  0
   -0.8186   -2.1264    0.0113 O   0  0  0  0  0  0  0  0  0  0  0  0
   -2.1724   -1.8674   -0.0728 C   0  0  0  0  0  0  0  0  0  0  0  0
   -2.7007   -0.6347   -0.1095 C   0  0  0  0  0  0  0  0  0  0  0  0
   -1.8240    0.5403   -0.0468 C   0  0  0  0  0  0  0  0  0  0  0  0
    3.6398   -0.8612    0.0437 O   0  0  0  0  0  0  0  0  0  0  0  0
    2.7414    2.1264   -0.0339 O   0  0  0  0  0  0  0  0  0  0  0  0
    4.1533    2.0650   -0.0235 C   0  0  0  0  0  0  0  0  0  0  0  0
    0.2180    2.5961   -0.0365 O   0  0  0  0  0  0  0  0  0  0  0  0
   -2.3339    1.6513   -0.0194 O   0  0  0  0  0  0  0  0  0  0  0  0
   -3.0357   -3.0578   -0.0955 C   0  0  0  0  0  0  0  0  0  0  0  0
   -2.5890   -4.2516   -0.6742 C   0  0  0  0  0  0  0  0  0  0  0  0
   -3.3726   -5.4089   -0.6161 C   0  0  0  0  0  0  0  0  0  0  0  0
   -4.6150   -5.3831    0.0183 C   0  0  0  0  0  0  0  0  0  0  0  0
   -5.0782   -4.1958    0.5758 C   0  0  0  0  0  0  0  0  0  0  0  0
   -4.2977   -3.0380    0.5142 C   0  0  0  0  0  0  0  0  0  0  0  0
   -5.4659   -6.4426    0.1568 O   0  0  0  0  0  0  0  0  0  0  0  0
   -5.0362   -7.6815   -0.3902 C   0  0  0  0  0  0  0  0  0  0  0  0
    1.7173   -2.4118    0.0629 H   0  0  0  0  0  0  0  0  0  0  0  0
   -3.7611   -0.4419   -0.1689 H   0  0  0  0  0  0  0  0  0  0  0  0
    4.3033   -0.1829   -0.1111 H   0  0  0  0  0  0  0  0  0  0  0  0
    4.5176    1.6226    0.9087 H   0  0  0  0  0  0  0  0  0  0  0  0
    4.5294    1.5441   -0.9089 H   0  0  0  0  0  0  0  0  0  0  0  0
    4.5377    3.0883   -0.0738 H   0  0  0  0  0  0  0  0  0  0  0  0
    1.0373    3.1242   -0.0206 H   0  0  0  0  0  0  0  0  0  0  0  0
   -1.6197   -4.2965   -1.1667 H   0  0  0  0  0  0  0  0  0  0  0  0
   -2.9746   -6.3134   -1.0615 H   0  0  0  0  0  0  0  0  0  0  0  0
   -6.0398   -4.1620    1.0767 H   0  0  0  0  0  0  0  0  0  0  0  0
   -4.6848   -2.1310    0.9722 H   0  0  0  0  0  0  0  0  0  0  0  0
   -4.8134   -7.5894   -1.4582 H   0  0  0  0  0  0  0  0  0  0  0  0
   -4.1748   -8.0728    0.1616 H   0  0  0  0  0  0  0  0  0  0  0  0
   -5.8567   -8.3974   -0.2859 H   0  0  0  0  0  0  0  0  0  0  0  0
  1  2  2  0  0  0  0
  1 12  1  0  0  0  0
  2  3  1  0  0  0  0
  2 11  1  0  0  0  0
  3  4  2  0  0  0  0
  3 24  1  0  0  0  0
  4  5  1  0  0  0  0
  4  7  1  0  0  0  0
  5  6  2  0  0  0  0
  6  1  1  0  0  0  0
  6 14  1  0  0  0  0
  7  8  1  0  0  0  0
  8  9  2  0  0  0  0
  8 16  1  0  0  0  0
  9 10  1  0  0  0  0
  9 25  1  0  0  0  0
 10  5  1  0  0  0  0
 10 15  2  0  0  0  0
 11 26  1  0  0  0  0
 12 13  1  0  0  0  0
 13 27  1  0  0  0  0
 13 28  1  0  0  0  0
 13 29  1  0  0  0  0
 14 30  1  0  0  0  0
 16 17  2  0  0  0  0
 17 18  1  0  0  0  0
 17 31  1  0  0  0  0
 18 19  2  0  0  0  0
 18 32  1  0  0  0  0
 19 20  1  0  0  0  0
 19 22  1  0  0  0  0
 20 21  2  0  0  0  0
 20 33  1  0  0  0  0
 21 16  1  0  0  0  0
 21 34  1  0  0  0  0
 22 23  1  0  0  0  0
 23 35  1  0  0  0  0
 23 36  1  0  0  0  0
 23 37  1  0  0  0  0
M  END
>  <Mol_ID>
5133

>  <Formula>
C17H14O6

>  <MolWeight>
314.28946

>  <Cat>
S3255

>  <Name>
Pectolinarigenin

>  <Synonyms>
N/A

>  <Target>
COX,Lipoxygenase

>  <Form>
free base

>  <CAS>
520-12-7

>  <URL>
http://www.selleckchem.com/products/pectolinarigenin.html

$$$$
