Pefloxacine mesylate.cdx
 OpenBabel08302521303D

 53 54  0  0  0  0  0  0  0  0999 V2000
   -2.4493   -0.7442   -0.2697 C   0  0  0  0  0  0  0  0  0  0  0  0
   -2.5048    0.6593   -0.1597 C   0  0  0  0  0  0  0  0  0  0  0  0
   -1.3207    1.3559   -0.4607 C   0  0  0  0  0  0  0  0  0  0  0  0
   -0.1221    0.7131   -0.8347 C   0  0  0  0  0  0  0  0  0  0  0  0
   -0.1731   -0.6830   -1.0173 C   0  0  0  0  0  0  0  0  0  0  0  0
   -1.3223   -1.4124   -0.7233 C   0  0  0  0  0  0  0  0  0  0  0  0
   -3.6389    1.3155    0.2857 N   0  0  0  0  0  0  0  0  0  0  0  0
    1.1232    1.3867   -0.9550 N   0  0  0  0  0  0  0  0  0  0  0  0
    2.2781    0.6068   -1.0279 C   0  0  0  0  0  0  0  0  0  0  0  0
    2.3348   -0.7282   -1.1799 C   0  0  0  0  0  0  0  0  0  0  0  0
    1.0499   -1.4235   -1.4087 C   0  0  0  0  0  0  0  0  0  0  0  0
   -3.6399    2.6587    0.8892 C   0  0  0  0  0  0  0  0  0  0  0  0
   -4.7026    2.7227    2.0191 C   0  0  0  0  0  0  0  0  0  0  0  0
   -6.0484    2.3098    1.5611 N   0  0  0  0  0  0  0  0  0  0  0  0
   -5.9642    0.9427    0.9953 C   0  0  0  0  0  0  0  0  0  0  0  0
   -4.9684    0.8756   -0.1788 C   0  0  0  0  0  0  0  0  0  0  0  0
   -7.0117    2.3471    2.6566 C   0  0  0  0  0  0  0  0  0  0  0  0
   -3.4804   -1.4988    0.1450 F   0  0  0  0  0  0  0  0  0  0  0  0
    1.1984    2.8105   -0.5645 C   0  0  0  0  0  0  0  0  0  0  0  0
    0.8488    3.7238   -1.7266 C   0  0  0  0  0  0  0  0  0  0  0  0
    0.9759   -2.5646   -1.8471 O   0  0  0  0  0  0  0  0  0  0  0  0
    3.5773   -1.4792   -0.9271 C   0  0  0  0  0  0  0  0  0  0  0  0
    3.9319   -2.5437   -1.3916 O   0  0  0  0  0  0  0  0  0  0  0  0
    4.3203   -0.8997    0.0553 O   0  0  0  0  0  0  0  0  0  0  0  0
    1.7547   -0.5781    2.5762 S   0  0  0  0  0  0  0  0  0  0  0  0
    0.5644    0.7431    2.6898 C   0  0  0  0  0  0  0  0  0  0  0  0
    1.4201   -1.4666    1.4940 O   0  0  0  0  0  0  0  0  0  0  0  0
    2.0553   -1.0718    3.9029 O   0  0  0  0  0  0  0  0  0  0  0  0
    3.0233    0.2993    2.0884 O   0  0  0  0  0  0  0  0  0  0  0  0
   -1.3473    2.4356   -0.3800 H   0  0  0  0  0  0  0  0  0  0  0  0
   -1.3279   -2.4974   -0.7738 H   0  0  0  0  0  0  0  0  0  0  0  0
    3.1881    1.1774   -0.8528 H   0  0  0  0  0  0  0  0  0  0  0  0
   -3.8583    3.4156    0.1249 H   0  0  0  0  0  0  0  0  0  0  0  0
   -2.6702    2.9030    1.3382 H   0  0  0  0  0  0  0  0  0  0  0  0
   -4.7395    3.7487    2.4040 H   0  0  0  0  0  0  0  0  0  0  0  0
   -4.3704    2.0766    2.8441 H   0  0  0  0  0  0  0  0  0  0  0  0
   -5.6497    0.2286    1.7694 H   0  0  0  0  0  0  0  0  0  0  0  0
   -6.9489    0.6280    0.6330 H   0  0  0  0  0  0  0  0  0  0  0  0
   -5.3024    1.5329   -0.9926 H   0  0  0  0  0  0  0  0  0  0  0  0
   -4.9787   -0.1365   -0.5907 H   0  0  0  0  0  0  0  0  0  0  0  0
   -8.0035    2.0491    2.2986 H   0  0  0  0  0  0  0  0  0  0  0  0
   -6.7310    1.6858    3.4838 H   0  0  0  0  0  0  0  0  0  0  0  0
   -7.1103    3.3668    3.0435 H   0  0  0  0  0  0  0  0  0  0  0  0
    0.5629    3.0286    0.3024 H   0  0  0  0  0  0  0  0  0  0  0  0
    2.2118    3.0565   -0.2230 H   0  0  0  0  0  0  0  0  0  0  0  0
   -0.1739    3.5638   -2.0805 H   0  0  0  0  0  0  0  0  0  0  0  0
    0.9362    4.7703   -1.4170 H   0  0  0  0  0  0  0  0  0  0  0  0
    1.5252    3.5570   -2.5703 H   0  0  0  0  0  0  0  0  0  0  0  0
    5.0574   -1.5503    0.1476 H   0  0  0  0  0  0  0  0  0  0  0  0
    0.9421    1.6232    2.1686 H   0  0  0  0  0  0  0  0  0  0  0  0
   -0.3740    0.4169    2.2416 H   0  0  0  0  0  0  0  0  0  0  0  0
    0.4164    0.9750    3.7455 H   0  0  0  0  0  0  0  0  0  0  0  0
    3.5134   -0.1999    1.3958 H   0  0  0  0  0  0  0  0  0  0  0  0
  1  2  2  0  0  0  0
  1 18  1  0  0  0  0
  2  3  1  0  0  0  0
  2  7  1  0  0  0  0
  3  4  2  0  0  0  0
  3 30  1  0  0  0  0
  4  5  1  0  0  0  0
  4  8  1  0  0  0  0
  5  6  2  0  0  0  0
  6  1  1  0  0  0  0
  6 31  1  0  0  0  0
  7 12  1  0  0  0  0
  8  9  1  0  0  0  0
  8 19  1  0  0  0  0
  9 10  2  0  0  0  0
  9 32  1  0  0  0  0
 10 11  1  0  0  0  0
 10 22  1  0  0  0  0
 11  5  1  0  0  0  0
 11 21  2  0  0  0  0
 12 13  1  0  0  0  0
 12 33  1  0  0  0  0
 12 34  1  0  0  0  0
 13 14  1  0  0  0  0
 13 35  1  0  0  0  0
 13 36  1  0  0  0  0
 14 15  1  0  0  0  0
 14 17  1  0  0  0  0
 15 16  1  0  0  0  0
 15 37  1  0  0  0  0
 15 38  1  0  0  0  0
 16  7  1  0  0  0  0
 16 39  1  0  0  0  0
 16 40  1  0  0  0  0
 17 41  1  0  0  0  0
 17 42  1  0  0  0  0
 17 43  1  0  0  0  0
 19 20  1  0  0  0  0
 19 44  1  0  0  0  0
 19 45  1  0  0  0  0
 20 46  1  0  0  0  0
 20 47  1  0  0  0  0
 20 48  1  0  0  0  0
 22 23  2  0  0  0  0
 22 24  1  0  0  0  0
 24 49  1  0  0  0  0
 25 26  1  0  0  0  0
 25 27  2  0  0  0  0
 25 28  2  0  0  0  0
 25 29  1  0  0  0  0
 26 50  1  0  0  0  0
 26 51  1  0  0  0  0
 26 52  1  0  0  0  0
 29 53  1  0  0  0  0
M  END
>  <Mol_ID>
535

>  <Formula>
C18H24FN3O6S

>  <MolWeight>
429.4630632

>  <Cat>
S1855

>  <Name>
Pefloxacin Mesylate

>  <Synonyms>
Pefloxacinium mesylate

>  <Target>
Bacterial

>  <Form>
Mesylate

>  <CAS>
70458-95-6

>  <URL>
http://selleckchem.com/products/pefloxacin-mesylate.html

$$$$
