Peimisine
 OpenBabel08302522033D

 72 77  0  0  1  0  0  0  0  0999 V2000
    0.3927    1.5281   -0.3475 C   0  0  0  0  0  0  0  0  0  0  0  0
    2.9001    2.3230    3.4915 C   0  0  0  0  0  0  0  0  0  0  0  0
    5.0016    5.2578   -1.8396 C   0  0  0  0  0  0  0  0  0  0  0  0
   -1.2017    7.1153   -2.1414 C   0  0  0  0  0  0  0  0  0  0  0  0
   -1.9981    9.1658    0.6789 O   0  0  0  0  0  0  0  0  0  0  0  0
   -5.0965    8.1659   -3.3998 O   0  0  0  0  0  0  0  0  0  0  0  0
    0.9663    2.9541    1.8688 C   0  0  2  0  0  0  0  0  0  0  0  0
    0.0455    2.5630    0.6882 C   0  0  0  0  0  0  0  0  0  0  0  0
    1.4619    4.2787    1.4593 O   0  0  0  0  0  0  0  0  0  0  0  0
    2.2712    2.1269    2.1026 C   0  0  1  0  0  0  0  0  0  0  0  0
    0.1740    3.2599    3.1531 C   0  0  0  0  0  0  0  0  0  0  0  0
   -0.9763    3.4049    0.4435 C   0  0  0  0  0  0  0  0  0  0  0  0
    2.8267    4.1747    1.0943 C   0  0  1  0  0  0  0  0  0  0  0  0
    3.1462    2.6859    0.9901 C   0  0  1  0  0  0  0  0  0  0  0  0
   -1.1770    3.9331    2.9379 C   0  0  0  0  0  0  0  0  0  0  0  0
   -1.5333    4.3192    1.5170 C   0  0  1  0  0  0  0  0  0  0  0  0
   -1.1814    4.0552   -0.9300 C   0  0  0  0  0  0  0  0  0  0  0  0
    3.1411    4.8580   -0.2192 C   0  0  0  0  0  0  0  0  0  0  0  0
    4.5800    2.4545    0.8246 N   0  0  0  0  0  0  0  0  0  0  0  0
   -1.2660    5.6735    0.8447 C   0  0  1  0  0  0  0  0  0  0  0  0
   -1.9732    5.2940   -0.4942 C   0  0  1  0  0  0  0  0  0  0  0  0
    4.6298    4.6230   -0.5070 C   0  0  1  0  0  0  0  0  0  0  0  0
    4.9882    3.1109   -0.4514 C   0  0  0  0  0  0  0  0  0  0  0  0
   -1.7236    6.9400    1.5641 C   0  0  0  0  0  0  0  0  0  0  0  0
   -2.3770    6.4284   -1.4331 C   0  0  1  0  0  0  0  0  0  0  0  0
   -2.2450    7.9704    0.5707 C   0  0  0  0  0  0  0  0  0  0  0  0
   -3.1666    7.3921   -0.4885 C   0  0  1  0  0  0  0  0  0  0  0  0
   -3.3189    5.8339   -2.5268 C   0  0  0  0  0  0  0  0  0  0  0  0
   -4.0748    8.3594   -1.2210 C   0  0  0  0  0  0  0  0  0  0  0  0
   -4.7919    6.0900   -2.2187 C   0  0  0  0  0  0  0  0  0  0  0  0
   -5.0806    7.5907   -2.0966 C   0  0  2  0  0  0  0  0  0  0  0  0
    1.2071    1.8309   -1.0054 H   0  0  0  0  0  0  0  0  0  0  0  0
    0.6247    0.5702    0.1260 H   0  0  0  0  0  0  0  0  0  0  0  0
   -0.4613    1.3371   -1.0107 H   0  0  0  0  0  0  0  0  0  0  0  0
    2.2454    1.9304    4.2777 H   0  0  0  0  0  0  0  0  0  0  0  0
    3.0845    3.3780    3.7205 H   0  0  0  0  0  0  0  0  0  0  0  0
    3.8527    1.7924    3.5720 H   0  0  0  0  0  0  0  0  0  0  0  0
    6.0792    5.1867   -2.0180 H   0  0  0  0  0  0  0  0  0  0  0  0
    4.4797    4.7800   -2.6765 H   0  0  0  0  0  0  0  0  0  0  0  0
    4.7339    6.3217   -1.8440 H   0  0  0  0  0  0  0  0  0  0  0  0
   -0.4785    7.5496   -1.4383 H   0  0  0  0  0  0  0  0  0  0  0  0
   -1.5545    7.9275   -2.7826 H   0  0  0  0  0  0  0  0  0  0  0  0
   -0.6555    6.4128   -2.7812 H   0  0  0  0  0  0  0  0  0  0  0  0
   -4.2006    8.0939   -3.7711 H   0  0  0  0  0  0  0  0  0  0  0  0
    2.0877    1.0487    1.9731 H   0  0  0  0  0  0  0  0  0  0  0  0
    0.0133    2.3409    3.7304 H   0  0  0  0  0  0  0  0  0  0  0  0
    0.7498    3.9430    3.7899 H   0  0  0  0  0  0  0  0  0  0  0  0
    3.4046    4.6538    1.8930 H   0  0  0  0  0  0  0  0  0  0  0  0
    2.7211    2.2922    0.0680 H   0  0  0  0  0  0  0  0  0  0  0  0
   -1.9208    3.1721    3.2308 H   0  0  0  0  0  0  0  0  0  0  0  0
   -1.3453    4.7584    3.6362 H   0  0  0  0  0  0  0  0  0  0  0  0
   -2.6274    4.1803    1.5293 H   0  0  0  0  0  0  0  0  0  0  0  0
   -1.7162    3.4139   -1.6301 H   0  0  0  0  0  0  0  0  0  0  0  0
   -0.2126    4.3477   -1.3595 H   0  0  0  0  0  0  0  0  0  0  0  0
    2.8969    5.9235   -0.1620 H   0  0  0  0  0  0  0  0  0  0  0  0
    2.5101    4.4485   -1.0202 H   0  0  0  0  0  0  0  0  0  0  0  0
    5.0952    2.8919    1.5900 H   0  0  0  0  0  0  0  0  0  0  0  0
   -0.1959    5.8262    0.6374 H   0  0  0  0  0  0  0  0  0  0  0  0
   -2.9627    4.8773   -0.2408 H   0  0  0  0  0  0  0  0  0  0  0  0
    5.2077    5.1309    0.2755 H   0  0  0  0  0  0  0  0  0  0  0  0
    6.0668    2.9779   -0.5763 H   0  0  0  0  0  0  0  0  0  0  0  0
    4.5094    2.5855   -1.2907 H   0  0  0  0  0  0  0  0  0  0  0  0
   -2.5143    6.7295    2.2836 H   0  0  0  0  0  0  0  0  0  0  0  0
   -0.8809    7.3713    2.1209 H   0  0  0  0  0  0  0  0  0  0  0  0
   -3.8622    6.7985    0.1277 H   0  0  0  0  0  0  0  0  0  0  0  0
   -3.0829    6.2410   -3.5165 H   0  0  0  0  0  0  0  0  0  0  0  0
   -3.1721    4.7519   -2.6289 H   0  0  0  0  0  0  0  0  0  0  0  0
   -3.4970    9.0901   -1.7964 H   0  0  0  0  0  0  0  0  0  0  0  0
   -4.6360    8.9422   -0.4767 H   0  0  0  0  0  0  0  0  0  0  0  0
   -5.0713    5.5675   -1.2939 H   0  0  0  0  0  0  0  0  0  0  0  0
   -5.4029    5.6471   -3.0182 H   0  0  0  0  0  0  0  0  0  0  0  0
   -6.0895    7.7129   -1.6875 H   0  0  0  0  0  0  0  0  0  0  0  0
  1  8  1  0  0  0  0
  1 32  1  0  0  0  0
  1 33  1  0  0  0  0
  1 34  1  0  0  0  0
  2 35  1  0  0  0  0
  2 36  1  0  0  0  0
  2 37  1  0  0  0  0
  3 38  1  0  0  0  0
  3 39  1  0  0  0  0
  3 40  1  0  0  0  0
  4 41  1  0  0  0  0
  4 42  1  0  0  0  0
  4 43  1  0  0  0  0
  5 26  2  0  0  0  0
  6 44  1  0  0  0  0
  7  8  1  6  0  0  0
  7  9  1  0  0  0  0
  7 10  1  0  0  0  0
  7 11  1  0  0  0  0
  8 12  2  0  0  0  0
  9 13  1  0  0  0  0
 10  2  1  0  0  0  0
 10 14  1  0  0  0  0
 10 45  1  6  0  0  0
 11 15  1  0  0  0  0
 11 46  1  0  0  0  0
 11 47  1  0  0  0  0
 12 16  1  0  0  0  0
 12 17  1  0  0  0  0
 13 14  1  0  0  0  0
 13 18  1  0  0  0  0
 13 48  1  1  0  0  0
 14 19  1  0  0  0  0
 14 49  1  6  0  0  0
 15 50  1  0  0  0  0
 15 51  1  0  0  0  0
 16 15  1  0  0  0  0
 16 20  1  0  0  0  0
 16 52  1  6  0  0  0
 17 53  1  0  0  0  0
 17 54  1  0  0  0  0
 18 22  1  0  0  0  0
 18 55  1  0  0  0  0
 18 56  1  0  0  0  0
 19 23  1  0  0  0  0
 19 57  1  0  0  0  0
 20 21  1  0  0  0  0
 20 24  1  0  0  0  0
 20 58  1  6  0  0  0
 21 17  1  0  0  0  0
 21 25  1  0  0  0  0
 21 59  1  1  0  0  0
 22  3  1  0  0  0  0
 22 23  1  0  0  0  0
 22 60  1  1  0  0  0
 23 61  1  0  0  0  0
 23 62  1  0  0  0  0
 24 26  1  0  0  0  0
 24 63  1  0  0  0  0
 24 64  1  0  0  0  0
 25  4  1  6  0  0  0
 25 27  1  0  0  0  0
 25 28  1  0  0  0  0
 26 27  1  0  0  0  0
 27 29  1  0  0  0  0
 27 65  1  1  0  0  0
 28 30  1  0  0  0  0
 28 66  1  0  0  0  0
 28 67  1  0  0  0  0
 29 31  1  0  0  0  0
 29 68  1  0  0  0  0
 29 69  1  0  0  0  0
 30 31  1  0  0  0  0
 30 70  1  0  0  0  0
 30 71  1  0  0  0  0
 31  6  1  0  0  0  0
 31 72  1  1  0  0  0
M  END
>  <Mol_ID>
10089

>  <Formula>
C27H41NO3

>  <MolWeight>
427.61934

>  <Cat>
S0907

>  <Name>
Peimisine

>  <Synonyms>
Ebeiensine

>  <Target>
M2 Muscarinic Receptors, Angiotensin-Converting Enzyme (ACE), Nav1.7 Channels, Kv1.2 Channels, Kv1.3 Channels, hERG Channels

>  <Form>
Free base

>  <CAS>
19773-24-1

>  <URL>
https://www.selleckchem.com/products/peimisine.html

$$$$
