Pemetrexed (LY-231514) disodium
 OpenBabel08302520413D

 50 52  0  0  0  0  0  0  0  0999 V2000
   -0.4680   -0.9873   -0.6617 C   0  0  0  0  0  0  0  0  0  0  0  0
   -0.8171    1.4076    0.0488 N   0  0  0  0  0  0  0  0  0  0  0  0
   -0.0516    0.1496    0.3461 C   0  0  1  0  0  0  0  0  0  0  0  0
   -0.0410   -0.1842    1.8451 C   0  0  0  0  0  0  0  0  0  0  0  0
    0.9848   -1.2347    2.2736 C   0  0  0  0  0  0  0  0  0  0  0  0
    2.4743   -0.9054    2.1515 C   0  0  0  0  0  0  0  0  0  0  0  0
    2.7912    0.3181    2.1808 O   0  0  0  0  0  0  0  0  0  0  0  0
    3.2417   -1.9139    2.1117 O   0  5  0  0  0  0  0  0  0  0  0  0
   -1.2198   -1.9103   -0.2380 O   0  0  0  0  0  0  0  0  0  0  0  0
   -0.0709   -0.7823   -1.8573 O   0  5  0  0  0  0  0  0  0  0  0  0
   -2.0608    1.6988    0.5668 C   0  0  0  0  0  0  0  0  0  0  0  0
   -2.8389    2.7842   -0.0985 C   0  0  0  0  0  0  0  0  0  0  0  0
   -2.7368    3.0824   -1.4574 C   0  0  0  0  0  0  0  0  0  0  0  0
   -3.5705    4.0565   -2.0265 C   0  0  0  0  0  0  0  0  0  0  0  0
   -4.5264    4.7422   -1.2574 C   0  0  0  0  0  0  0  0  0  0  0  0
   -4.6027    4.4514    0.1116 C   0  0  0  0  0  0  0  0  0  0  0  0
   -3.7731    3.4817    0.6807 C   0  0  0  0  0  0  0  0  0  0  0  0
   -2.5704    1.1816    1.5540 O   0  0  0  0  0  0  0  0  0  0  0  0
   -5.5093    5.7459   -1.8333 C   0  0  0  0  0  0  0  0  0  0  0  0
   -5.4077    5.9734   -3.3439 C   0  0  0  0  0  0  0  0  0  0  0  0
  -10.1357    6.9033   -5.4994 C   0  0  0  0  0  0  0  0  0  0  0  0
   -9.3520    8.0250   -5.4830 N   0  0  0  0  0  0  0  0  0  0  0  0
   -8.1543    7.9112   -4.8928 C   0  0  0  0  0  0  0  0  0  0  0  0
   -7.7020    6.7247   -4.3802 C   0  0  0  0  0  0  0  0  0  0  0  0
   -8.5610    5.5397   -4.4555 C   0  0  0  0  0  0  0  0  0  0  0  0
   -9.8158    5.7333   -5.0377 N   0  0  0  0  0  0  0  0  0  0  0  0
   -7.2302    8.8854   -4.7149 N   0  0  0  0  0  0  0  0  0  0  0  0
   -6.3824    6.9719   -3.8910 C   0  0  0  0  0  0  0  0  0  0  0  0
   -6.1403    8.3261   -4.0912 C   0  0  0  0  0  0  0  0  0  0  0  0
   -8.1954    4.4526   -4.0298 O   0  0  0  0  0  0  0  0  0  0  0  0
  -11.3524    7.1051   -6.0731 N   0  0  0  0  0  0  0  0  0  0  0  0
   -0.5608    1.7789   -0.8514 H   0  0  0  0  0  0  0  0  0  0  0  0
    0.9778    0.4158    0.0682 H   0  0  0  0  0  0  0  0  0  0  0  0
    0.1353    0.7369    2.4164 H   0  0  0  0  0  0  0  0  0  0  0  0
   -1.0267   -0.5553    2.1479 H   0  0  0  0  0  0  0  0  0  0  0  0
    0.8204   -1.4300    3.3427 H   0  0  0  0  0  0  0  0  0  0  0  0
    0.7773   -2.1786    1.7564 H   0  0  0  0  0  0  0  0  0  0  0  0
   -2.0558    2.5307   -2.1005 H   0  0  0  0  0  0  0  0  0  0  0  0
   -3.4685    4.2327   -3.0935 H   0  0  0  0  0  0  0  0  0  0  0  0
   -5.3290    4.9534    0.7459 H   0  0  0  0  0  0  0  0  0  0  0  0
   -3.8691    3.2436    1.7387 H   0  0  0  0  0  0  0  0  0  0  0  0
   -6.5241    5.4001   -1.5938 H   0  0  0  0  0  0  0  0  0  0  0  0
   -5.3672    6.7019   -1.3115 H   0  0  0  0  0  0  0  0  0  0  0  0
   -4.3956    6.3219   -3.5889 H   0  0  0  0  0  0  0  0  0  0  0  0
   -5.5443    5.0240   -3.8758 H   0  0  0  0  0  0  0  0  0  0  0  0
   -9.7601    8.9014   -5.7747 H   0  0  0  0  0  0  0  0  0  0  0  0
   -7.3059    9.8479   -5.0108 H   0  0  0  0  0  0  0  0  0  0  0  0
   -5.2670    8.9258   -3.8694 H   0  0  0  0  0  0  0  0  0  0  0  0
  -11.3195    7.5953   -6.9569 H   0  0  0  0  0  0  0  0  0  0  0  0
  -11.8344    6.2152   -6.1792 H   0  0  0  0  0  0  0  0  0  0  0  0
  1  3  1  0  0  0  0
  1  9  2  0  0  0  0
  1 10  1  0  0  0  0
  2 11  1  0  0  0  0
  2 32  1  0  0  0  0
  3  2  1  0  0  0  0
  3  4  1  0  0  0  0
  3 33  1  6  0  0  0
  4  5  1  0  0  0  0
  4 34  1  0  0  0  0
  4 35  1  0  0  0  0
  5  6  1  0  0  0  0
  5 36  1  0  0  0  0
  5 37  1  0  0  0  0
  6  7  2  0  0  0  0
  6  8  1  0  0  0  0
 11 12  1  0  0  0  0
 11 18  2  0  0  0  0
 12 13  2  0  0  0  0
 12 17  1  0  0  0  0
 13 14  1  0  0  0  0
 13 38  1  0  0  0  0
 14 15  2  0  0  0  0
 14 39  1  0  0  0  0
 15 16  1  0  0  0  0
 15 19  1  0  0  0  0
 16 17  2  0  0  0  0
 16 40  1  0  0  0  0
 17 41  1  0  0  0  0
 19 20  1  0  0  0  0
 19 42  1  0  0  0  0
 19 43  1  0  0  0  0
 20 28  1  0  0  0  0
 20 44  1  0  0  0  0
 20 45  1  0  0  0  0
 21 22  1  0  0  0  0
 21 26  2  0  0  0  0
 21 31  1  0  0  0  0
 22 23  1  0  0  0  0
 22 46  1  0  0  0  0
 23 24  2  0  0  0  0
 23 27  1  0  0  0  0
 24 25  1  0  0  0  0
 24 28  1  0  0  0  0
 25 26  1  0  0  0  0
 25 30  2  0  0  0  0
 27 29  1  0  0  0  0
 27 47  1  0  0  0  0
 28 29  2  0  0  0  0
 29 48  1  0  0  0  0
 31 49  1  0  0  0  0
 31 50  1  0  0  0  0
M  CHG  2   8  -1  10  -1
M  END
>  <Mol_ID>
3995

>  <Formula>
C20H19N5Na2O6

>  <MolWeight>
471.3743

>  <Cat>
S1135

>  <Name>
Pemetrexed (LY-231514) disodium

>  <Synonyms>
LY-231514 disodium

>  <Target>
Apoptosis related,Autophagy,DHFR,DNA/RNA Synthesis,Thymidylate Synthase

>  <Form>
Disodium salt

>  <CAS>
150399-23-8

>  <URL>
http://selleckchem.com/products/Pemetrexed-disodium.html

$$$$
