Pemigatinib (INCB054828)
 OpenBabel08302521243D

 62 66  0  0  0  0  0  0  0  0999 V2000
    0.1316   -1.7840    0.1173 C   0  0  0  0  0  0  0  0  0  0  0  0
    0.9070   -1.0567    1.0308 C   0  0  0  0  0  0  0  0  0  0  0  0
    0.8001    0.3393    1.0585 C   0  0  0  0  0  0  0  0  0  0  0  0
   -0.0399    1.0002    0.1706 C   0  0  0  0  0  0  0  0  0  0  0  0
   -0.8074    0.2537   -0.7395 C   0  0  0  0  0  0  0  0  0  0  0  0
   -0.7395   -1.1371   -0.7676 C   0  0  0  0  0  0  0  0  0  0  0  0
    1.7900   -1.6030    1.9238 O   0  0  0  0  0  0  0  0  0  0  0  0
    1.9183   -3.0195    1.9219 C   0  0  0  0  0  0  0  0  0  0  0  0
   -1.4524   -1.9790   -1.5789 O   0  0  0  0  0  0  0  0  0  0  0  0
   -2.3750   -1.3835   -2.4867 C   0  0  0  0  0  0  0  0  0  0  0  0
   -1.6630    0.9100   -1.5406 F   0  0  0  0  0  0  0  0  0  0  0  0
    1.5485    1.0519    1.9172 F   0  0  0  0  0  0  0  0  0  0  0  0
   -0.1092    2.4186    0.1192 N   0  0  0  0  0  0  0  0  0  0  0  0
   -0.6969    3.1384    1.2231 C   0  0  0  0  0  0  0  0  0  0  0  0
   -1.6697    4.1786    0.7652 C   0  0  0  0  0  0  0  0  0  0  0  0
   -1.6930    4.5950   -0.5763 C   0  0  0  0  0  0  0  0  0  0  0  0
   -0.7124    4.0519   -1.4658 N   0  0  0  0  0  0  0  0  0  0  0  0
    0.1284    3.0033   -1.1044 C   0  0  0  0  0  0  0  0  0  0  0  0
    0.9634    2.5276   -1.8813 O   0  0  0  0  0  0  0  0  0  0  0  0
   -0.7062    4.3539   -2.8896 C   0  0  0  0  0  0  0  0  0  0  0  0
   -1.5740    3.3618   -3.6606 C   0  0  0  0  0  0  0  0  0  0  0  0
   -2.5224    4.7856    1.6838 C   0  0  0  0  0  0  0  0  0  0  0  0
   -3.4016    5.7752    1.4183 N   0  0  0  0  0  0  0  0  0  0  0  0
   -3.4148    6.1264    0.1175 C   0  0  0  0  0  0  0  0  0  0  0  0
   -2.6560    5.5789   -0.9171 C   0  0  0  0  0  0  0  0  0  0  0  0
   -4.1745    7.1474   -0.3774 N   0  0  0  0  0  0  0  0  0  0  0  0
   -3.8975    7.3228   -1.7133 C   0  0  0  0  0  0  0  0  0  0  0  0
   -3.1110    6.2514   -2.0882 C   0  0  0  0  0  0  0  0  0  0  0  0
   -4.4073    8.4538   -2.5334 C   0  0  0  0  0  0  0  0  0  0  0  0
   -3.5190    9.6107   -2.6274 N   0  0  0  0  0  0  0  0  0  0  0  0
   -2.1757    9.3783   -3.1842 C   0  0  0  0  0  0  0  0  0  0  0  0
   -1.0659    9.1055   -2.1485 C   0  0  0  0  0  0  0  0  0  0  0  0
   -1.0595   10.0899   -1.1073 O   0  0  0  0  0  0  0  0  0  0  0  0
   -2.3314   10.1229   -0.4523 C   0  0  0  0  0  0  0  0  0  0  0  0
   -3.4523   10.4733   -1.4423 C   0  0  0  0  0  0  0  0  0  0  0  0
    0.1775   -2.8676    0.0684 H   0  0  0  0  0  0  0  0  0  0  0  0
    0.9680   -3.4986    2.1795 H   0  0  0  0  0  0  0  0  0  0  0  0
    2.2966   -3.3827    0.9602 H   0  0  0  0  0  0  0  0  0  0  0  0
    2.6471   -3.2908    2.6911 H   0  0  0  0  0  0  0  0  0  0  0  0
   -3.1766   -0.8646   -1.9497 H   0  0  0  0  0  0  0  0  0  0  0  0
   -1.8679   -0.7179   -3.1932 H   0  0  0  0  0  0  0  0  0  0  0  0
   -2.8363   -2.1875   -3.0680 H   0  0  0  0  0  0  0  0  0  0  0  0
   -1.2112    2.4276    1.8825 H   0  0  0  0  0  0  0  0  0  0  0  0
    0.1139    3.6151    1.7854 H   0  0  0  0  0  0  0  0  0  0  0  0
   -0.9706    5.3920   -3.0773 H   0  0  0  0  0  0  0  0  0  0  0  0
    0.3197    4.2794   -3.2728 H   0  0  0  0  0  0  0  0  0  0  0  0
   -2.5850    3.2980   -3.2464 H   0  0  0  0  0  0  0  0  0  0  0  0
   -1.6424    3.6416   -4.7151 H   0  0  0  0  0  0  0  0  0  0  0  0
   -1.1422    2.3538   -3.6139 H   0  0  0  0  0  0  0  0  0  0  0  0
   -2.5064    4.4879    2.7330 H   0  0  0  0  0  0  0  0  0  0  0  0
   -4.7605    7.7338    0.1963 H   0  0  0  0  0  0  0  0  0  0  0  0
   -2.8209    6.0822   -3.1135 H   0  0  0  0  0  0  0  0  0  0  0  0
   -4.5889    8.0836   -3.5509 H   0  0  0  0  0  0  0  0  0  0  0  0
   -5.3943    8.7696   -2.1713 H   0  0  0  0  0  0  0  0  0  0  0  0
   -1.8980   10.3021   -3.7097 H   0  0  0  0  0  0  0  0  0  0  0  0
   -2.1843    8.5956   -3.9518 H   0  0  0  0  0  0  0  0  0  0  0  0
   -1.1485    8.1142   -1.6968 H   0  0  0  0  0  0  0  0  0  0  0  0
   -0.0886    9.1481   -2.6409 H   0  0  0  0  0  0  0  0  0  0  0  0
   -2.2808   10.8896    0.3270 H   0  0  0  0  0  0  0  0  0  0  0  0
   -2.5035    9.1681    0.0506 H   0  0  0  0  0  0  0  0  0  0  0  0
   -3.2565   11.4893   -1.8107 H   0  0  0  0  0  0  0  0  0  0  0  0
   -4.4194   10.5210   -0.9297 H   0  0  0  0  0  0  0  0  0  0  0  0
  1  2  2  0  0  0  0
  1 36  1  0  0  0  0
  2  3  1  0  0  0  0
  2  7  1  0  0  0  0
  3  4  2  0  0  0  0
  3 12  1  0  0  0  0
  4  5  1  0  0  0  0
  4 13  1  0  0  0  0
  5  6  2  0  0  0  0
  5 11  1  0  0  0  0
  6  1  1  0  0  0  0
  6  9  1  0  0  0  0
  7  8  1  0  0  0  0
  8 37  1  0  0  0  0
  8 38  1  0  0  0  0
  8 39  1  0  0  0  0
  9 10  1  0  0  0  0
 10 40  1  0  0  0  0
 10 41  1  0  0  0  0
 10 42  1  0  0  0  0
 13 14  1  0  0  0  0
 14 15  1  0  0  0  0
 14 43  1  0  0  0  0
 14 44  1  0  0  0  0
 15 16  2  0  0  0  0
 15 22  1  0  0  0  0
 16 17  1  0  0  0  0
 17 18  1  0  0  0  0
 17 20  1  0  0  0  0
 18 13  1  0  0  0  0
 18 19  2  0  0  0  0
 20 21  1  0  0  0  0
 20 45  1  0  0  0  0
 20 46  1  0  0  0  0
 21 47  1  0  0  0  0
 21 48  1  0  0  0  0
 21 49  1  0  0  0  0
 22 23  2  0  0  0  0
 22 50  1  0  0  0  0
 23 24  1  0  0  0  0
 24 25  2  0  0  0  0
 24 26  1  0  0  0  0
 25 16  1  0  0  0  0
 26 27  1  0  0  0  0
 26 51  1  0  0  0  0
 27 28  2  0  0  0  0
 27 29  1  0  0  0  0
 28 25  1  0  0  0  0
 28 52  1  0  0  0  0
 29 30  1  0  0  0  0
 29 53  1  0  0  0  0
 29 54  1  0  0  0  0
 30 31  1  0  0  0  0
 31 32  1  0  0  0  0
 31 55  1  0  0  0  0
 31 56  1  0  0  0  0
 32 33  1  0  0  0  0
 32 57  1  0  0  0  0
 32 58  1  0  0  0  0
 33 34  1  0  0  0  0
 34 35  1  0  0  0  0
 34 59  1  0  0  0  0
 34 60  1  0  0  0  0
 35 30  1  0  0  0  0
 35 61  1  0  0  0  0
 35 62  1  0  0  0  0
M  END
>  <Mol_ID>
5037

>  <Formula>
C24H27F2N5O4

>  <MolWeight>
487.4990864

>  <Cat>
S0088

>  <Name>
Pemigatinib (INCB054828)

>  <Synonyms>
Pemazyre

>  <Target>
FGFR

>  <Form>
free base

>  <CAS>
1513857-77-6

>  <URL>
http://www.selleckchem.com/products/pemigatinib-incb054828.html

$$$$
