Pemirolast potassium.cdx
 OpenBabel08302521383D

 24 26  0  0  0  0  0  0  0  0999 V2000
    2.3887    0.7591   -0.0005 C   0  0  0  0  0  0  0  0  0  0  0  0
    3.7052    1.4800   -0.0873 C   0  0  0  0  0  0  0  0  0  0  0  0
    1.0997    1.4834    0.1625 C   0  0  0  0  0  0  0  0  0  0  0  0
    2.3016   -0.5785   -0.0966 C   0  0  0  0  0  0  0  0  0  0  0  0
    4.8799    0.8314   -0.3096 N   0  5  0  0  0  0  0  0  0  0  0  0
    3.8956    2.8139    0.0291 N   0  0  0  0  0  0  0  0  0  0  0  0
   -0.0555    0.6916    0.0574 N   0  0  0  0  0  0  0  0  0  0  0  0
    1.0235    2.6921    0.3865 O   0  0  0  0  0  0  0  0  0  0  0  0
    1.1617   -1.3348   -0.0242 N   0  0  0  0  0  0  0  0  0  0  0  0
    5.8176    1.8040   -0.3437 N   0  0  0  0  0  0  0  0  0  0  0  0
    5.2282    2.9952   -0.1205 N   0  0  0  0  0  0  0  0  0  0  0  0
    0.0368   -0.6942    0.0346 C   0  0  0  0  0  0  0  0  0  0  0  0
   -1.2914    1.3271    0.0062 C   0  0  0  0  0  0  0  0  0  0  0  0
   -1.2569   -1.4646    0.0942 C   0  0  0  0  0  0  0  0  0  0  0  0
   -2.4393    0.6414   -0.0517 C   0  0  0  0  0  0  0  0  0  0  0  0
   -2.4167   -0.7933    0.0221 C   0  0  0  0  0  0  0  0  0  0  0  0
   -1.1728   -2.9473    0.2723 C   0  0  0  0  0  0  0  0  0  0  0  0
    3.2137   -1.1579   -0.2395 H   0  0  0  0  0  0  0  0  0  0  0  0
   -1.2868    2.4139   -0.0068 H   0  0  0  0  0  0  0  0  0  0  0  0
   -3.3926    1.1524   -0.1124 H   0  0  0  0  0  0  0  0  0  0  0  0
   -3.3713   -1.3088    0.0640 H   0  0  0  0  0  0  0  0  0  0  0  0
   -0.6357   -3.4131   -0.5594 H   0  0  0  0  0  0  0  0  0  0  0  0
   -0.6538   -3.1878    1.2056 H   0  0  0  0  0  0  0  0  0  0  0  0
   -2.1663   -3.4053    0.3247 H   0  0  0  0  0  0  0  0  0  0  0  0
  1  2  1  0  0  0  0
  1  3  1  0  0  0  0
  1  4  2  0  0  0  0
  2  5  1  0  0  0  0
  2  6  2  0  0  0  0
  3  7  1  0  0  0  0
  3  8  2  0  0  0  0
  4  9  1  0  0  0  0
  4 18  1  0  0  0  0
  5 10  1  0  0  0  0
  6 11  1  0  0  0  0
  7 12  1  0  0  0  0
  7 13  1  0  0  0  0
  9 12  2  0  0  0  0
 10 11  2  0  0  0  0
 12 14  1  0  0  0  0
 13 15  2  0  0  0  0
 13 19  1  0  0  0  0
 14 16  2  0  0  0  0
 14 17  1  0  0  0  0
 15 16  1  0  0  0  0
 15 20  1  0  0  0  0
 16 21  1  0  0  0  0
 17 22  1  0  0  0  0
 17 23  1  0  0  0  0
 17 24  1  0  0  0  0
M  CHG  1   5  -1
M  END
>  <Mol_ID>
7738

>  <Formula>
C10H7KN6O

>  <MolWeight>
266.30048

>  <Cat>
S4008

>  <Name>
Pemirolast potassium

>  <Synonyms>
BMY26517

>  <Target>
Histamine Receptor

>  <Form>
Potassium

>  <CAS>
100299-08-9

>  <URL>
http://selleckchem.com/products/pemirolast-bmy-26517-potassium.html

$$$$
