Penciclovir.cdx
 OpenBabel08302522043D

 33 34  0  0  0  0  0  0  0  0999 V2000
    1.7799   -2.0071   -2.7440 N   0  0  0  0  0  0  0  0  0  0  0  0
    2.4189   -0.8992   -2.9631 C   0  0  0  0  0  0  0  0  0  0  0  0
    2.3859    0.2244   -2.1714 N   0  0  0  0  0  0  0  0  0  0  0  0
    1.6388    0.1546   -1.0599 C   0  0  0  0  0  0  0  0  0  0  0  0
    0.9293   -0.9699   -0.7261 C   0  0  0  0  0  0  0  0  0  0  0  0
    0.9558   -2.1367   -1.6197 C   0  0  0  0  0  0  0  0  0  0  0  0
    1.4289    1.0668   -0.0751 N   0  0  0  0  0  0  0  0  0  0  0  0
    0.6080    0.4507    0.8402 C   0  0  0  0  0  0  0  0  0  0  0  0
    0.2940   -0.7793    0.4815 N   0  0  0  0  0  0  0  0  0  0  0  0
    0.3106   -3.1547   -1.3894 O   0  0  0  0  0  0  0  0  0  0  0  0
    3.2165   -0.7687   -4.0520 N   0  0  0  0  0  0  0  0  0  0  0  0
    1.9186    2.4240    0.0223 C   0  0  0  0  0  0  0  0  0  0  0  0
    2.8243    2.6886    1.2350 C   0  0  0  0  0  0  0  0  0  0  0  0
    4.0902    1.8117    1.3540 C   0  0  0  0  0  0  0  0  0  0  0  0
    5.0799    2.0155    0.1947 C   0  0  0  0  0  0  0  0  0  0  0  0
    4.7948    2.1037    2.6878 C   0  0  0  0  0  0  0  0  0  0  0  0
    5.9374    1.2727    2.8430 O   0  0  0  0  0  0  0  0  0  0  0  0
    4.5284    1.5742   -1.0409 O   0  0  0  0  0  0  0  0  0  0  0  0
    2.9079    1.0498   -2.4548 H   0  0  0  0  0  0  0  0  0  0  0  0
    0.2778    0.9390    1.7489 H   0  0  0  0  0  0  0  0  0  0  0  0
    4.0883   -0.2744   -3.9171 H   0  0  0  0  0  0  0  0  0  0  0  0
    3.3577   -1.6639   -4.5113 H   0  0  0  0  0  0  0  0  0  0  0  0
    2.4138    2.6957   -0.9134 H   0  0  0  0  0  0  0  0  0  0  0  0
    1.0303    3.0646    0.0877 H   0  0  0  0  0  0  0  0  0  0  0  0
    3.1155    3.7479    1.2170 H   0  0  0  0  0  0  0  0  0  0  0  0
    2.2222    2.5608    2.1460 H   0  0  0  0  0  0  0  0  0  0  0  0
    3.7857    0.7573    1.3560 H   0  0  0  0  0  0  0  0  0  0  0  0
    5.3517    3.0705    0.0927 H   0  0  0  0  0  0  0  0  0  0  0  0
    5.9995    1.4436    0.3500 H   0  0  0  0  0  0  0  0  0  0  0  0
    5.1300    3.1454    2.7334 H   0  0  0  0  0  0  0  0  0  0  0  0
    4.1291    1.9279    3.5397 H   0  0  0  0  0  0  0  0  0  0  0  0
    5.6288    0.3637    3.0042 H   0  0  0  0  0  0  0  0  0  0  0  0
    4.3823    0.6135   -0.9385 H   0  0  0  0  0  0  0  0  0  0  0  0
  1  2  2  0  0  0  0
  2  3  1  0  0  0  0
  2 11  1  0  0  0  0
  3  4  1  0  0  0  0
  3 19  1  0  0  0  0
  4  5  2  0  0  0  0
  4  7  1  0  0  0  0
  5  6  1  0  0  0  0
  6  1  1  0  0  0  0
  6 10  2  0  0  0  0
  7  8  1  0  0  0  0
  7 12  1  0  0  0  0
  8  9  2  0  0  0  0
  8 20  1  0  0  0  0
  9  5  1  0  0  0  0
 11 21  1  0  0  0  0
 11 22  1  0  0  0  0
 12 13  1  0  0  0  0
 12 23  1  0  0  0  0
 12 24  1  0  0  0  0
 13 14  1  0  0  0  0
 13 25  1  0  0  0  0
 13 26  1  0  0  0  0
 14 15  1  0  0  0  0
 14 16  1  0  0  0  0
 14 27  1  0  0  0  0
 15 18  1  0  0  0  0
 15 28  1  0  0  0  0
 15 29  1  0  0  0  0
 16 17  1  0  0  0  0
 16 30  1  0  0  0  0
 16 31  1  0  0  0  0
 17 32  1  0  0  0  0
 18 33  1  0  0  0  0
M  END
>  <Mol_ID>
1289

>  <Formula>
C10H15N5O3

>  <MolWeight>
253.2578

>  <Cat>
S4184

>  <Name>
Penciclovir

>  <Synonyms>
BRL-39123, VSA 671,NSC-759624

>  <Target>
Antiviral

>  <Form>
free base

>  <CAS>
39809-25-1

>  <URL>
http://selleckchem.com/products/penciclovir.html

$$$$
