pentoxifylline.cdx
 OpenBabel08302519583D

 38 39  0  0  0  0  0  0  0  0999 V2000
   -2.0811    0.6254   -0.0757 N   0  0  0  0  0  0  0  0  0  0  0  0
   -2.1192   -0.7821    0.0322 C   0  0  0  0  0  0  0  0  0  0  0  0
   -0.8972   -1.4583    0.0001 N   0  0  0  0  0  0  0  0  0  0  0  0
    0.2702   -0.7364   -0.0398 C   0  0  0  0  0  0  0  0  0  0  0  0
    0.2698    0.6214   -0.1202 C   0  0  0  0  0  0  0  0  0  0  0  0
   -0.9177    1.3964   -0.1971 C   0  0  0  0  0  0  0  0  0  0  0  0
    1.5331   -1.2416    0.0202 N   0  0  0  0  0  0  0  0  0  0  0  0
    2.3154   -0.1799   -0.0000 C   0  0  0  0  0  0  0  0  0  0  0  0
    1.5883    0.9781   -0.0882 N   0  0  0  0  0  0  0  0  0  0  0  0
    2.1175    2.3185   -0.0869 C   0  0  0  0  0  0  0  0  0  0  0  0
   -0.9094    2.6157   -0.3427 O   0  0  0  0  0  0  0  0  0  0  0  0
   -3.1902   -1.3835    0.1567 O   0  0  0  0  0  0  0  0  0  0  0  0
   -0.8516   -2.9082    0.0601 C   0  0  0  0  0  0  0  0  0  0  0  0
   -3.3547    1.3443   -0.0083 C   0  0  0  0  0  0  0  0  0  0  0  0
   -3.7147    1.7129    1.4391 C   0  0  0  0  0  0  0  0  0  0  0  0
   -5.0449    2.4663    1.5082 C   0  0  0  0  0  0  0  0  0  0  0  0
   -5.4261    2.8274    2.9449 C   0  0  0  0  0  0  0  0  0  0  0  0
   -6.7414    3.5857    3.0202 C   0  0  0  0  0  0  0  0  0  0  0  0
   -7.2241    3.9807    4.3923 C   0  0  0  0  0  0  0  0  0  0  0  0
   -7.4070    3.8603    2.0219 O   0  0  0  0  0  0  0  0  0  0  0  0
    3.3969   -0.1930    0.0556 H   0  0  0  0  0  0  0  0  0  0  0  0
    1.8082    2.8186   -1.0072 H   0  0  0  0  0  0  0  0  0  0  0  0
    1.7272    2.8424    0.7898 H   0  0  0  0  0  0  0  0  0  0  0  0
    3.2087    2.2800   -0.0352 H   0  0  0  0  0  0  0  0  0  0  0  0
   -0.3089   -3.2808   -0.8131 H   0  0  0  0  0  0  0  0  0  0  0  0
   -0.3306   -3.2150    0.9720 H   0  0  0  0  0  0  0  0  0  0  0  0
   -1.8526   -3.3477    0.0610 H   0  0  0  0  0  0  0  0  0  0  0  0
   -3.2902    2.2540   -0.6150 H   0  0  0  0  0  0  0  0  0  0  0  0
   -4.1472    0.7264   -0.4432 H   0  0  0  0  0  0  0  0  0  0  0  0
   -3.7733    0.8035    2.0494 H   0  0  0  0  0  0  0  0  0  0  0  0
   -2.9187    2.3308    1.8729 H   0  0  0  0  0  0  0  0  0  0  0  0
   -4.9791    3.3810    0.9059 H   0  0  0  0  0  0  0  0  0  0  0  0
   -5.8377    1.8522    1.0632 H   0  0  0  0  0  0  0  0  0  0  0  0
   -5.5262    1.9173    3.5466 H   0  0  0  0  0  0  0  0  0  0  0  0
   -4.6494    3.4593    3.3899 H   0  0  0  0  0  0  0  0  0  0  0  0
   -7.4605    5.0483    4.3975 H   0  0  0  0  0  0  0  0  0  0  0  0
   -8.1126    3.3970    4.6460 H   0  0  0  0  0  0  0  0  0  0  0  0
   -6.4504    3.7948    5.1417 H   0  0  0  0  0  0  0  0  0  0  0  0
  1  2  1  0  0  0  0
  1 14  1  0  0  0  0
  2  3  1  0  0  0  0
  2 12  2  0  0  0  0
  3  4  1  0  0  0  0
  3 13  1  0  0  0  0
  4  5  2  0  0  0  0
  4  7  1  0  0  0  0
  5  6  1  0  0  0  0
  6  1  1  0  0  0  0
  6 11  2  0  0  0  0
  7  8  2  0  0  0  0
  8  9  1  0  0  0  0
  8 21  1  0  0  0  0
  9  5  1  0  0  0  0
  9 10  1  0  0  0  0
 10 22  1  0  0  0  0
 10 23  1  0  0  0  0
 10 24  1  0  0  0  0
 13 25  1  0  0  0  0
 13 26  1  0  0  0  0
 13 27  1  0  0  0  0
 14 15  1  0  0  0  0
 14 28  1  0  0  0  0
 14 29  1  0  0  0  0
 15 16  1  0  0  0  0
 15 30  1  0  0  0  0
 15 31  1  0  0  0  0
 16 17  1  0  0  0  0
 16 32  1  0  0  0  0
 16 33  1  0  0  0  0
 17 18  1  0  0  0  0
 17 34  1  0  0  0  0
 17 35  1  0  0  0  0
 18 19  1  0  0  0  0
 18 20  2  0  0  0  0
 19 36  1  0  0  0  0
 19 37  1  0  0  0  0
 19 38  1  0  0  0  0
M  END
>  <Mol_ID>
2305

>  <Formula>
C13H18N4O3

>  <MolWeight>
278.30702

>  <Cat>
S4345

>  <Name>
Pentoxifylline

>  <Synonyms>
N/A

>  <Target>
PDE

>  <Form>
Free Base

>  <CAS>
6493-05-6

>  <URL>
http://www.selleckchem.com/products/pentoxifylline.html

$$$$
