Pentostatin
 OpenBabel08302521273D

 35 37  0  0  0  0  0  0  0  0999 V2000
    1.7106    0.3299   -1.1677 O   0  0  0  0  0  0  0  0  0  0  0  0
   -1.3136    0.1908    0.0884 O   0  0  0  0  0  0  0  0  0  0  0  0
    2.2726    3.1255   -1.2196 O   0  0  0  0  0  0  0  0  0  0  0  0
    4.8682   -2.7986    2.7255 O   0  0  0  0  0  0  0  0  0  0  0  0
    2.4061   -1.9049   -0.5757 N   0  0  0  0  0  0  0  0  0  0  0  0
    2.9642   -3.9236    0.1482 N   0  0  0  0  0  0  0  0  0  0  0  0
    4.4649   -0.6946   -0.1787 N   0  0  0  0  0  0  0  0  0  0  0  0
    6.6311   -1.4180    0.7350 N   0  0  0  0  0  0  0  0  0  0  0  0
    1.3322   -0.9291   -0.5842 C   0  0  1  0  0  0  0  0  0  0  0  0
    0.8231   -0.5672    0.8079 C   0  0  0  0  0  0  0  0  0  0  0  0
   -0.0185    0.6469    0.4947 C   0  0  1  0  0  0  0  0  0  0  0  0
    0.7652    1.3230   -0.6436 C   0  0  1  0  0  0  0  0  0  0  0  0
    1.5573    2.5288   -0.1425 C   0  0  0  0  0  0  0  0  0  0  0  0
    3.6807   -1.7856   -0.0949 C   0  0  0  0  0  0  0  0  0  0  0  0
    3.9218   -3.0062    0.5102 C   0  0  0  0  0  0  0  0  0  0  0  0
    2.1231   -3.2527   -0.6068 C   0  0  0  0  0  0  0  0  0  0  0  0
    5.0585   -3.3358    1.4081 C   0  0  1  0  0  0  0  0  0  0  0  0
    6.3974   -2.8720    0.8203 C   0  0  0  0  0  0  0  0  0  0  0  0
    5.7633   -0.5979    0.2774 C   0  0  0  0  0  0  0  0  0  0  0  0
   -1.3817    0.1613   -0.8826 H   0  0  0  0  0  0  0  0  0  0  0  0
    2.8105    2.4203   -1.6218 H   0  0  0  0  0  0  0  0  0  0  0  0
    3.9669   -3.0503    2.9872 H   0  0  0  0  0  0  0  0  0  0  0  0
    4.1605    0.0796   -0.7620 H   0  0  0  0  0  0  0  0  0  0  0  0
    0.5207   -1.3412   -1.1990 H   0  0  0  0  0  0  0  0  0  0  0  0
    1.6519   -0.2783    1.4633 H   0  0  0  0  0  0  0  0  0  0  0  0
    0.2689   -1.3869    1.2755 H   0  0  0  0  0  0  0  0  0  0  0  0
   -0.1734    1.2922    1.3638 H   0  0  0  0  0  0  0  0  0  0  0  0
    0.1123    1.6174   -1.4749 H   0  0  0  0  0  0  0  0  0  0  0  0
    0.8866    3.2857    0.2777 H   0  0  0  0  0  0  0  0  0  0  0  0
    2.2856    2.2380    0.6196 H   0  0  0  0  0  0  0  0  0  0  0  0
    1.2580   -3.6574   -1.1093 H   0  0  0  0  0  0  0  0  0  0  0  0
    5.0957   -4.4247    1.5264 H   0  0  0  0  0  0  0  0  0  0  0  0
    7.1926   -3.2712    1.4623 H   0  0  0  0  0  0  0  0  0  0  0  0
    6.5477   -3.3093   -0.1736 H   0  0  0  0  0  0  0  0  0  0  0  0
    6.1021    0.4537    0.2061 H   0  0  0  0  0  0  0  0  0  0  0  0
  1  9  1  0  0  0  0
  1 12  1  0  0  0  0
  2 20  1  0  0  0  0
  3 13  1  0  0  0  0
  3 21  1  0  0  0  0
  4 22  1  0  0  0  0
  5 14  1  0  0  0  0
  5 16  1  0  0  0  0
  6 15  1  0  0  0  0
  6 16  2  0  0  0  0
  7 14  1  0  0  0  0
  7 19  1  0  0  0  0
  7 23  1  0  0  0  0
  8 18  1  0  0  0  0
  8 19  2  0  0  0  0
  9 10  1  0  0  0  0
  9 24  1  6  0  0  0
  9  5  1  0  0  0  0
 10 11  1  0  0  0  0
 10 25  1  0  0  0  0
 10 26  1  0  0  0  0
 11  2  1  0  0  0  0
 11 12  1  0  0  0  0
 11 27  1  1  0  0  0
 12 28  1  6  0  0  0
 12 13  1  0  0  0  0
 13 29  1  0  0  0  0
 13 30  1  0  0  0  0
 14 15  2  0  0  0  0
 15 17  1  0  0  0  0
 16 31  1  0  0  0  0
 17 18  1  0  0  0  0
 17 32  1  1  0  0  0
 17  4  1  0  0  0  0
 18 33  1  0  0  0  0
 18 34  1  0  0  0  0
 19 35  1  0  0  0  0
M  END
>  <Mol_ID>
5327

>  <Formula>
C11H16N4O4

>  <MolWeight>
268.26914

>  <Cat>
S9521

>  <Name>
Pentostatin

>  <Synonyms>
CI-825,Deoxycoformycin

>  <Target>
Adenosine Deaminase,DNA/RNA Synthesis

>  <Form>
Free Base

>  <CAS>
53910-25-1

>  <URL>
https://www.selleckchem.com/products/pentostatin.html

$$$$
