PEO-IAA
 OpenBabel08302521243D

 37 39  0  0  0  0  0  0  0  0999 V2000
   -1.5823   -1.0663   -0.1425 C   0  0  0  0  0  0  0  0  0  0  0  0
   -0.7559   -0.4946   -1.1721 C   0  0  0  0  0  0  0  0  0  0  0  0
   -2.0922   -2.4933   -0.1015 C   0  0  3  0  0  0  0  0  0  0  0  0
   -1.7691   -0.0710    0.8001 C   0  0  0  0  0  0  0  0  0  0  0  0
   -0.4394    0.8077   -0.7830 C   0  0  0  0  0  0  0  0  0  0  0  0
   -0.2469   -0.9663   -2.4013 C   0  0  0  0  0  0  0  0  0  0  0  0
   -2.9805   -2.8434    1.1010 C   0  0  0  0  0  0  0  0  0  0  0  0
   -2.8978   -2.8806   -1.3423 C   0  0  0  0  0  0  0  0  0  0  0  0
   -1.0380    1.0242    0.4328 N   0  0  0  0  0  0  0  0  0  0  0  0
    0.3676    1.6562   -1.5473 C   0  0  0  0  0  0  0  0  0  0  0  0
    0.5393   -0.1196   -3.1924 C   0  0  0  0  0  0  0  0  0  0  0  0
   -2.2429   -2.8689    2.4291 C   0  0  0  0  0  0  0  0  0  0  0  0
   -3.5960   -1.8824   -1.9360 O   0  0  0  0  0  0  0  0  0  0  0  0
   -2.9972   -4.0365   -1.7322 O   0  0  0  0  0  0  0  0  0  0  0  0
    0.8444    1.1701   -2.7673 C   0  0  0  0  0  0  0  0  0  0  0  0
   -3.0233   -3.1780    3.6672 C   0  0  0  0  0  0  0  0  0  0  0  0
   -1.0380   -2.6567    2.5226 O   0  0  0  0  0  0  0  0  0  0  0  0
   -4.3813   -3.5197    3.6311 C   0  0  0  0  0  0  0  0  0  0  0  0
   -2.3546   -3.1586    4.8995 C   0  0  0  0  0  0  0  0  0  0  0  0
   -5.0467   -3.8765    4.8067 C   0  0  0  0  0  0  0  0  0  0  0  0
   -3.0233   -3.5144    6.0718 C   0  0  0  0  0  0  0  0  0  0  0  0
   -4.3656   -3.8845    6.0229 C   0  0  0  0  0  0  0  0  0  0  0  0
   -1.2035   -3.1391   -0.1018 H   0  0  0  0  0  0  0  0  0  0  0  0
   -2.3024   -0.0640    1.7423 H   0  0  0  0  0  0  0  0  0  0  0  0
   -0.4640   -1.9726   -2.7492 H   0  0  0  0  0  0  0  0  0  0  0  0
   -3.8174   -2.1371    1.1656 H   0  0  0  0  0  0  0  0  0  0  0  0
   -3.3936   -3.8502    0.9545 H   0  0  0  0  0  0  0  0  0  0  0  0
   -0.9403    1.8701    0.9782 H   0  0  0  0  0  0  0  0  0  0  0  0
    0.6160    2.6580   -1.2126 H   0  0  0  0  0  0  0  0  0  0  0  0
    0.9172   -0.4770   -4.1477 H   0  0  0  0  0  0  0  0  0  0  0  0
   -3.4083   -0.9937   -1.5679 H   0  0  0  0  0  0  0  0  0  0  0  0
    1.4663    1.8085   -3.3902 H   0  0  0  0  0  0  0  0  0  0  0  0
   -4.9446   -3.5366    2.7031 H   0  0  0  0  0  0  0  0  0  0  0  0
   -1.3029   -2.8812    4.9505 H   0  0  0  0  0  0  0  0  0  0  0  0
   -6.0954   -4.1631    4.7715 H   0  0  0  0  0  0  0  0  0  0  0  0
   -2.4912   -3.5163    7.0203 H   0  0  0  0  0  0  0  0  0  0  0  0
   -4.8804   -4.1837    6.9326 H   0  0  0  0  0  0  0  0  0  0  0  0
  1  2  1  0  0  0  0
  1  3  1  0  0  0  0
  1  4  2  0  0  0  0
  2  5  2  0  0  0  0
  2  6  1  0  0  0  0
  3  7  1  0  0  0  0
  3  8  1  0  0  0  0
  3 23  1  0  0  0  0
  4  9  1  0  0  0  0
  4 24  1  0  0  0  0
  5 10  1  0  0  0  0
  5  9  1  0  0  0  0
  6 11  2  0  0  0  0
  6 25  1  0  0  0  0
  7 12  1  0  0  0  0
  7 26  1  0  0  0  0
  7 27  1  0  0  0  0
  8 13  1  0  0  0  0
  8 14  2  0  0  0  0
  9 28  1  0  0  0  0
 10 15  2  0  0  0  0
 10 29  1  0  0  0  0
 11 15  1  0  0  0  0
 11 30  1  0  0  0  0
 12 16  1  0  0  0  0
 12 17  2  0  0  0  0
 13 31  1  0  0  0  0
 15 32  1  0  0  0  0
 16 18  2  0  0  0  0
 16 19  1  0  0  0  0
 18 20  1  0  0  0  0
 18 33  1  0  0  0  0
 19 21  2  0  0  0  0
 19 34  1  0  0  0  0
 20 22  2  0  0  0  0
 20 35  1  0  0  0  0
 21 22  1  0  0  0  0
 21 36  1  0  0  0  0
 22 37  1  0  0  0  0
M  END
>  <Mol_ID>
4935

>  <Formula>
C18H15NO3

>  <MolWeight>
293.3166

>  <Cat>
S6788

>  <Name>
PEO-IAA

>  <Synonyms>
2-(1H-Indol-3-yl)-4-oxo-4-phenyl-butyric acid

>  <Target>
Others

>  <Form>
Free Base

>  <CAS>
6266-66-6

>  <URL>
http://www.selleckchem.com/products/peo-iaa.html

$$$$
