Pergolide mesylate salt.cdx
 OpenBabel08302522033D

 57 59  0  0  0  0  0  0  0  0999 V2000
    7.6459    6.4389   -1.2739 C   0  0  0  0  0  0  0  0  0  0  0  0
    7.3787    5.8332   -0.0428 C   0  0  0  0  0  0  0  0  0  0  0  0
    8.0123    5.8269   -2.4858 C   0  0  0  0  0  0  0  0  0  0  0  0
    7.5492    7.8023   -1.4726 C   0  0  0  0  0  0  0  0  0  0  0  0
    7.6744    4.3524    0.0572 C   0  0  2  0  0  0  0  0  0  0  0  0
    6.9903    6.6874    0.9991 C   0  0  0  0  0  0  0  0  0  0  0  0
    8.0131    4.3494   -2.6303 C   0  0  0  0  0  0  0  0  0  0  0  0
    8.3233    6.8377   -3.3649 C   0  0  0  0  0  0  0  0  0  0  0  0
    7.9506    8.0240   -2.7718 N   0  0  0  0  0  0  0  0  0  0  0  0
    7.1097    8.6557   -0.4617 C   0  0  0  0  0  0  0  0  0  0  0  0
    7.5205    3.6098   -1.3325 C   0  0  1  0  0  0  0  0  0  0  0  0
    6.7940    3.6204    1.0764 C   0  0  0  0  0  0  0  0  0  0  0  0
    6.8351    8.0653    0.7819 C   0  0  0  0  0  0  0  0  0  0  0  0
    8.0064    2.2041   -1.2574 N   0  0  0  0  0  0  0  0  0  0  0  0
    7.0981    2.1097    1.1483 C   0  0  2  0  0  0  0  0  0  0  0  0
    7.2281    1.4620   -0.2492 C   0  0  0  0  0  0  0  0  0  0  0  0
    9.4731    2.1093   -1.1270 C   0  0  0  0  0  0  0  0  0  0  0  0
    5.9670    1.4648    1.9813 C   0  0  0  0  0  0  0  0  0  0  0  0
   10.0778    0.6999   -1.0998 C   0  0  0  0  0  0  0  0  0  0  0  0
    6.1689   -0.3136    2.3039 S   0  0  0  0  0  0  0  0  0  0  0  0
    9.7323   -0.1467   -2.3159 C   0  0  0  0  0  0  0  0  0  0  0  0
    4.5825   -0.6063    3.1305 C   0  0  0  0  0  0  0  0  0  0  0  0
  -41.3324    1.0792    1.1945 C   0  0  0  0  0  0  0  0  0  0  0  0
  -42.4868    0.1609    0.2091 S   0  0  0  0  0  0  0  0  0  0  0  0
  -42.6518    1.2199   -0.9992 O   0  0  0  0  0  0  0  0  0  0  0  0
  -43.7553    0.0676    0.8908 O   0  0  0  0  0  0  0  0  0  0  0  0
  -41.8310   -0.9880   -0.3796 O   0  0  0  0  0  0  0  0  0  0  0  0
    8.7157    4.2914    0.3967 H   0  0  0  0  0  0  0  0  0  0  0  0
    6.8078    6.2985    1.9973 H   0  0  0  0  0  0  0  0  0  0  0  0
    8.9906    4.0221   -2.9856 H   0  0  0  0  0  0  0  0  0  0  0  0
    7.3050    4.0933   -3.4327 H   0  0  0  0  0  0  0  0  0  0  0  0
    8.7223    6.8179   -4.3700 H   0  0  0  0  0  0  0  0  0  0  0  0
    7.9705    8.9272   -3.2223 H   0  0  0  0  0  0  0  0  0  0  0  0
    6.9945    9.7215   -0.6190 H   0  0  0  0  0  0  0  0  0  0  0  0
    6.4311    3.5423   -1.4970 H   0  0  0  0  0  0  0  0  0  0  0  0
    5.7380    3.7766    0.8137 H   0  0  0  0  0  0  0  0  0  0  0  0
    6.9245    4.0475    2.0788 H   0  0  0  0  0  0  0  0  0  0  0  0
    6.5082    8.6978    1.6050 H   0  0  0  0  0  0  0  0  0  0  0  0
    8.0525    1.9871    1.6782 H   0  0  0  0  0  0  0  0  0  0  0  0
    6.2208    1.3252   -0.6648 H   0  0  0  0  0  0  0  0  0  0  0  0
    7.6173    0.4436   -0.1509 H   0  0  0  0  0  0  0  0  0  0  0  0
    9.8314    2.6387   -0.2391 H   0  0  0  0  0  0  0  0  0  0  0  0
    9.9425    2.6013   -1.9849 H   0  0  0  0  0  0  0  0  0  0  0  0
    5.0093    1.6074    1.4657 H   0  0  0  0  0  0  0  0  0  0  0  0
    5.8955    1.9685    2.9522 H   0  0  0  0  0  0  0  0  0  0  0  0
   11.1707    0.7985   -1.0531 H   0  0  0  0  0  0  0  0  0  0  0  0
    9.7837    0.1824   -0.1819 H   0  0  0  0  0  0  0  0  0  0  0  0
    9.9178   -1.2028   -2.0958 H   0  0  0  0  0  0  0  0  0  0  0  0
   10.3591    0.1298   -3.1704 H   0  0  0  0  0  0  0  0  0  0  0  0
    8.6855   -0.0440   -2.6137 H   0  0  0  0  0  0  0  0  0  0  0  0
    3.7516   -0.3951    2.4513 H   0  0  0  0  0  0  0  0  0  0  0  0
    4.4961    0.0244    4.0194 H   0  0  0  0  0  0  0  0  0  0  0  0
    4.5206   -1.6530    3.4388 H   0  0  0  0  0  0  0  0  0  0  0  0
  -40.6560    1.6294    0.5370 H   0  0  0  0  0  0  0  0  0  0  0  0
  -40.7633    0.3682    1.7967 H   0  0  0  0  0  0  0  0  0  0  0  0
  -41.8856    1.7656    1.8397 H   0  0  0  0  0  0  0  0  0  0  0  0
  -42.3771    0.7686   -1.8261 H   0  0  0  0  0  0  0  0  0  0  0  0
  1  2  1  0  0  0  0
  1  3  1  0  0  0  0
  1  4  2  0  0  0  0
  2  5  1  0  0  0  0
  2  6  2  0  0  0  0
  3  7  1  0  0  0  0
  3  8  2  0  0  0  0
  4  9  1  0  0  0  0
  4 10  1  0  0  0  0
  5 11  1  0  0  0  0
  5 12  1  0  0  0  0
  5 28  1  1  0  0  0
  6 13  1  0  0  0  0
  6 29  1  0  0  0  0
  7 30  1  0  0  0  0
  7 31  1  0  0  0  0
  8  9  1  0  0  0  0
  8 32  1  0  0  0  0
  9 33  1  0  0  0  0
 10 13  2  0  0  0  0
 10 34  1  0  0  0  0
 11  7  1  0  0  0  0
 11 14  1  0  0  0  0
 11 35  1  6  0  0  0
 12 15  1  0  0  0  0
 12 36  1  0  0  0  0
 12 37  1  0  0  0  0
 13 38  1  0  0  0  0
 14 16  1  0  0  0  0
 14 17  1  0  0  0  0
 15 18  1  0  0  0  0
 15 16  1  0  0  0  0
 15 39  1  1  0  0  0
 16 40  1  0  0  0  0
 16 41  1  0  0  0  0
 17 19  1  0  0  0  0
 17 42  1  0  0  0  0
 17 43  1  0  0  0  0
 18 20  1  0  0  0  0
 18 44  1  0  0  0  0
 18 45  1  0  0  0  0
 19 21  1  0  0  0  0
 19 46  1  0  0  0  0
 19 47  1  0  0  0  0
 20 22  1  0  0  0  0
 21 48  1  0  0  0  0
 21 49  1  0  0  0  0
 21 50  1  0  0  0  0
 22 51  1  0  0  0  0
 22 52  1  0  0  0  0
 22 53  1  0  0  0  0
 23 24  1  0  0  0  0
 23 54  1  0  0  0  0
 23 55  1  0  0  0  0
 23 56  1  0  0  0  0
 24 25  1  0  0  0  0
 24 26  2  0  0  0  0
 24 27  2  0  0  0  0
 25 57  1  0  0  0  0
M  END
>  <Mol_ID>
1186

>  <Formula>
C20H30N2O3S2

>  <MolWeight>
410.5938

>  <Cat>
S4000

>  <Name>
Pergolide Mesylate

>  <Synonyms>
LY127809

>  <Target>
Dopamine Receptor

>  <Form>
Mesylate

>  <CAS>
66104-23-2

>  <URL>
http://selleckchem.com/products/Pergolide-mesylate.html

$$$$
