Perospirone
 OpenBabel08302521303D

 60 64  0  0  0  0  0  0  0  0999 V2000
    9.5532   -3.1177    2.7067 S   0  0  0  0  0  0  0  0  0  0  0  0
   -2.4123   -6.7758   -0.2957 O   0  0  0  0  0  0  0  0  0  0  0  0
    0.5408   -4.5080   -2.9620 O   0  0  0  0  0  0  0  0  0  0  0  0
   -0.6651   -5.7978   -1.4653 N   0  0  0  0  0  0  0  0  0  0  0  0
    3.7105   -4.5680   -0.0155 N   0  0  0  0  0  0  0  0  0  0  0  0
    6.2917   -3.2532    0.7964 N   0  0  0  0  0  0  0  0  0  0  0  0
    8.2055   -3.8152    2.0854 N   0  0  0  0  0  0  0  0  0  0  0  0
   -2.8088   -4.9799   -1.8676 C   0  0  2  0  0  0  0  0  0  0  0  0
   -1.8855   -4.5460   -3.0097 C   0  0  1  0  0  0  0  0  0  0  0  0
   -3.1367   -3.8849   -0.8455 C   0  0  0  0  0  0  0  0  0  0  0  0
   -1.9825   -3.0884   -3.4606 C   0  0  0  0  0  0  0  0  0  0  0  0
   -3.4429   -2.5477   -1.4919 C   0  0  0  0  0  0  0  0  0  0  0  0
   -2.2573   -2.0999   -2.3331 C   0  0  0  0  0  0  0  0  0  0  0  0
   -1.9782   -6.0087   -1.1392 C   0  0  0  0  0  0  0  0  0  0  0  0
   -0.5131   -4.9135   -2.4978 C   0  0  0  0  0  0  0  0  0  0  0  0
    0.4363   -6.1886   -0.5978 C   0  0  0  0  0  0  0  0  0  0  0  0
    0.7202   -5.0380    0.3788 C   0  0  0  0  0  0  0  0  0  0  0  0
    1.7750   -5.3237    1.4466 C   0  0  0  0  0  0  0  0  0  0  0  0
    3.2030   -5.5631    0.9345 C   0  0  0  0  0  0  0  0  0  0  0  0
    5.0362   -4.9572   -0.5476 C   0  0  0  0  0  0  0  0  0  0  0  0
    3.7978   -3.1776    0.4840 C   0  0  0  0  0  0  0  0  0  0  0  0
    6.2251   -4.6847    0.3969 C   0  0  0  0  0  0  0  0  0  0  0  0
    5.0094   -2.8069    1.3857 C   0  0  0  0  0  0  0  0  0  0  0  0
    7.4455   -2.9067    1.4741 C   0  0  0  0  0  0  0  0  0  0  0  0
    7.9825   -1.5391    1.5084 C   0  0  0  0  0  0  0  0  0  0  0  0
    9.2138   -1.5261    2.1762 C   0  0  0  0  0  0  0  0  0  0  0  0
    7.5307   -0.2980    0.9832 C   0  0  0  0  0  0  0  0  0  0  0  0
    9.9934   -0.3648    2.3361 C   0  0  0  0  0  0  0  0  0  0  0  0
    8.2933    0.8690    1.1479 C   0  0  0  0  0  0  0  0  0  0  0  0
    9.5125    0.8352    1.8140 C   0  0  0  0  0  0  0  0  0  0  0  0
   -3.7230   -5.4310   -2.2676 H   0  0  0  0  0  0  0  0  0  0  0  0
   -2.0539   -5.1947   -3.8822 H   0  0  0  0  0  0  0  0  0  0  0  0
   -3.9830   -4.2066   -0.2265 H   0  0  0  0  0  0  0  0  0  0  0  0
   -2.2993   -3.7473   -0.1469 H   0  0  0  0  0  0  0  0  0  0  0  0
   -1.0702   -2.7799   -3.9842 H   0  0  0  0  0  0  0  0  0  0  0  0
   -2.7968   -3.0056   -4.1901 H   0  0  0  0  0  0  0  0  0  0  0  0
   -3.6473   -1.8049   -0.7127 H   0  0  0  0  0  0  0  0  0  0  0  0
   -4.3440   -2.6271   -2.1107 H   0  0  0  0  0  0  0  0  0  0  0  0
   -1.3680   -1.9997   -1.6986 H   0  0  0  0  0  0  0  0  0  0  0  0
   -2.4610   -1.1091   -2.7541 H   0  0  0  0  0  0  0  0  0  0  0  0
    1.3127   -6.4061   -1.2157 H   0  0  0  0  0  0  0  0  0  0  0  0
    0.1532   -7.0920   -0.0463 H   0  0  0  0  0  0  0  0  0  0  0  0
   -0.2136   -4.7816    0.8972 H   0  0  0  0  0  0  0  0  0  0  0  0
    0.9943   -4.1385   -0.1854 H   0  0  0  0  0  0  0  0  0  0  0  0
    1.4596   -6.1996    2.0279 H   0  0  0  0  0  0  0  0  0  0  0  0
    1.7832   -4.4843    2.1524 H   0  0  0  0  0  0  0  0  0  0  0  0
    3.1937   -6.5418    0.4344 H   0  0  0  0  0  0  0  0  0  0  0  0
    3.8672   -5.6658    1.7999 H   0  0  0  0  0  0  0  0  0  0  0  0
    5.0357   -6.0179   -0.8290 H   0  0  0  0  0  0  0  0  0  0  0  0
    5.1980   -4.4042   -1.4815 H   0  0  0  0  0  0  0  0  0  0  0  0
    3.8438   -2.5351   -0.4063 H   0  0  0  0  0  0  0  0  0  0  0  0
    2.8717   -2.8843    0.9898 H   0  0  0  0  0  0  0  0  0  0  0  0
    6.1425   -5.3204    1.2884 H   0  0  0  0  0  0  0  0  0  0  0  0
    7.1451   -4.9658   -0.1312 H   0  0  0  0  0  0  0  0  0  0  0  0
    4.8782   -3.2557    2.3782 H   0  0  0  0  0  0  0  0  0  0  0  0
    5.0081   -1.7177    1.5115 H   0  0  0  0  0  0  0  0  0  0  0  0
    6.5936   -0.2507    0.4369 H   0  0  0  0  0  0  0  0  0  0  0  0
   10.9528   -0.4028    2.8456 H   0  0  0  0  0  0  0  0  0  0  0  0
    7.9321    1.8127    0.7441 H   0  0  0  0  0  0  0  0  0  0  0  0
   10.0978    1.7458    1.9275 H   0  0  0  0  0  0  0  0  0  0  0  0
  1  7  1  0  0  0  0
  1 26  1  0  0  0  0
  2 14  2  0  0  0  0
  3 15  2  0  0  0  0
  4 14  1  0  0  0  0
  4 15  1  0  0  0  0
  4 16  1  0  0  0  0
  5 19  1  0  0  0  0
  5 20  1  0  0  0  0
  5 21  1  0  0  0  0
  6 22  1  0  0  0  0
  6 23  1  0  0  0  0
  6 24  1  0  0  0  0
  7 24  2  0  0  0  0
  8  9  1  0  0  0  0
  8 10  1  0  0  0  0
  8 14  1  0  0  0  0
  8 31  1  6  0  0  0
  9 11  1  0  0  0  0
  9 15  1  0  0  0  0
  9 32  1  6  0  0  0
 10 12  1  0  0  0  0
 10 33  1  0  0  0  0
 10 34  1  0  0  0  0
 11 13  1  0  0  0  0
 11 35  1  0  0  0  0
 11 36  1  0  0  0  0
 12 13  1  0  0  0  0
 12 37  1  0  0  0  0
 12 38  1  0  0  0  0
 13 39  1  0  0  0  0
 13 40  1  0  0  0  0
 16 17  1  0  0  0  0
 16 41  1  0  0  0  0
 16 42  1  0  0  0  0
 17 18  1  0  0  0  0
 17 43  1  0  0  0  0
 17 44  1  0  0  0  0
 18 19  1  0  0  0  0
 18 45  1  0  0  0  0
 18 46  1  0  0  0  0
 19 47  1  0  0  0  0
 19 48  1  0  0  0  0
 20 22  1  0  0  0  0
 20 49  1  0  0  0  0
 20 50  1  0  0  0  0
 21 23  1  0  0  0  0
 21 51  1  0  0  0  0
 21 52  1  0  0  0  0
 22 53  1  0  0  0  0
 22 54  1  0  0  0  0
 23 55  1  0  0  0  0
 23 56  1  0  0  0  0
 24 25  1  0  0  0  0
 25 26  2  0  0  0  0
 25 27  1  0  0  0  0
 26 28  1  0  0  0  0
 27 29  2  0  0  0  0
 27 57  1  0  0  0  0
 28 30  2  0  0  0  0
 28 58  1  0  0  0  0
 29 30  1  0  0  0  0
 29 59  1  0  0  0  0
 30 60  1  0  0  0  0
M  END
>  <Mol_ID>
5725

>  <Formula>
C23H30N4O2S

>  <MolWeight>
426.5749

>  <Cat>
S5185

>  <Name>
Perospirone

>  <Synonyms>
SM-9018 free base

>  <Target>
5-HT Receptor,Dopamine Receptor

>  <Form>
Free Base

>  <CAS>
150915-41-6

>  <URL>
http://www.selleckchem.com/products/perospirone.html

$$$$
