Persicogenin
 OpenBabel08302521463D

 39 41  0  0  1  0  0  0  0  0999 V2000
    0.9412    2.3539   -0.0597 O   0  0  0  0  0  0  0  0  0  0  0  0
   -1.6629    2.0831   -0.1592 O   0  0  0  0  0  0  0  0  0  0  0  0
   -3.2436   -2.4577    0.0254 O   0  0  0  0  0  0  0  0  0  0  0  0
   -4.5904   -2.0030   -0.0476 C   0  0  0  0  0  0  0  0  0  0  0  0
    5.1623   -3.8875    2.5003 O   0  0  0  0  0  0  0  0  0  0  0  0
    7.4191   -3.5569    0.5997 O   0  0  0  0  0  0  0  0  0  0  0  0
    7.6495   -4.4939    1.6420 C   0  0  0  0  0  0  0  0  0  0  0  0
   -0.0754    0.2458   -0.0146 C   0  0  0  0  0  0  0  0  0  0  0  0
    0.1333   -1.1281    0.0620 C   0  0  0  0  0  0  0  0  0  0  0  0
    1.0941    1.1387    0.0438 C   0  0  0  0  0  0  0  0  0  0  0  0
   -1.3800    0.7446   -0.0926 C   0  0  0  0  0  0  0  0  0  0  0  0
    1.3690   -1.7042    0.1683 O   0  0  0  0  0  0  0  0  0  0  0  0
   -0.9596   -1.9962    0.0803 C   0  0  0  0  0  0  0  0  0  0  0  0
    2.4258    0.5011    0.3215 C   0  0  0  0  0  0  0  0  0  0  0  0
   -2.4727   -0.1234   -0.0868 C   0  0  0  0  0  0  0  0  0  0  0  0
    2.4488   -0.8841   -0.3107 C   0  0  1  0  0  0  0  0  0  0  0  0
   -2.2666   -1.5004    0.0017 C   0  0  0  0  0  0  0  0  0  0  0  0
    3.7581   -1.5967   -0.0054 C   0  0  0  0  0  0  0  0  0  0  0  0
    3.9005   -2.4162    1.1276 C   0  0  0  0  0  0  0  0  0  0  0  0
    4.8619   -1.4408   -0.8517 C   0  0  0  0  0  0  0  0  0  0  0  0
    5.0992   -3.0966    1.3862 C   0  0  0  0  0  0  0  0  0  0  0  0
    6.0573   -2.1185   -0.5878 C   0  0  0  0  0  0  0  0  0  0  0  0
    6.1889   -2.9625    0.5223 C   0  0  0  0  0  0  0  0  0  0  0  0
   -0.8133    2.5786   -0.1425 H   0  0  0  0  0  0  0  0  0  0  0  0
   -4.8411   -1.3743    0.8132 H   0  0  0  0  0  0  0  0  0  0  0  0
   -4.7790   -1.4785   -0.9902 H   0  0  0  0  0  0  0  0  0  0  0  0
   -5.2429   -2.8811   -0.0191 H   0  0  0  0  0  0  0  0  0  0  0  0
    4.3017   -3.8760    2.9497 H   0  0  0  0  0  0  0  0  0  0  0  0
    7.6351   -4.0058    2.6213 H   0  0  0  0  0  0  0  0  0  0  0  0
    6.9508   -5.3354    1.5903 H   0  0  0  0  0  0  0  0  0  0  0  0
    8.6549   -4.9039    1.5007 H   0  0  0  0  0  0  0  0  0  0  0  0
   -0.7973   -3.0691    0.1511 H   0  0  0  0  0  0  0  0  0  0  0  0
    3.2144    1.1311   -0.1044 H   0  0  0  0  0  0  0  0  0  0  0  0
    2.5543    0.4597    1.4099 H   0  0  0  0  0  0  0  0  0  0  0  0
   -3.4670    0.3078   -0.1412 H   0  0  0  0  0  0  0  0  0  0  0  0
    2.3413   -0.8144   -1.4031 H   0  0  0  0  0  0  0  0  0  0  0  0
    3.0574   -2.5320    1.8049 H   0  0  0  0  0  0  0  0  0  0  0  0
    4.8057   -0.8019   -1.7305 H   0  0  0  0  0  0  0  0  0  0  0  0
    6.9015   -1.9963   -1.2638 H   0  0  0  0  0  0  0  0  0  0  0  0
  1 10  2  0  0  0  0
  2 11  1  0  0  0  0
  2 24  1  0  0  0  0
  3  4  1  0  0  0  0
  3 17  1  0  0  0  0
  4 25  1  0  0  0  0
  4 26  1  0  0  0  0
  4 27  1  0  0  0  0
  5 21  1  0  0  0  0
  5 28  1  0  0  0  0
  6  7  1  0  0  0  0
  6 23  1  0  0  0  0
  7 29  1  0  0  0  0
  7 30  1  0  0  0  0
  7 31  1  0  0  0  0
  8  9  2  0  0  0  0
  8 10  1  0  0  0  0
  8 11  1  0  0  0  0
  9 12  1  0  0  0  0
  9 13  1  0  0  0  0
 10 14  1  0  0  0  0
 11 15  2  0  0  0  0
 12 16  1  0  0  0  0
 13 17  2  0  0  0  0
 13 32  1  0  0  0  0
 14 16  1  0  0  0  0
 14 33  1  0  0  0  0
 14 34  1  0  0  0  0
 15 17  1  0  0  0  0
 15 35  1  0  0  0  0
 16 36  1  6  0  0  0
 16 18  1  0  0  0  0
 18 19  2  0  0  0  0
 18 20  1  0  0  0  0
 19 21  1  0  0  0  0
 19 37  1  0  0  0  0
 20 22  2  0  0  0  0
 20 38  1  0  0  0  0
 21 23  2  0  0  0  0
 22 23  1  0  0  0  0
 22 39  1  0  0  0  0
M  END
>  <Mol_ID>
9640

>  <Formula>
C17H16O6

>  <MolWeight>
316.30534

>  <Cat>
E2094

>  <Name>
Persicogenin

>  <Synonyms>
NA

>  <Target>
Apoptosis

>  <Form>
Free Base

>  <CAS>
28590-40-1

>  <URL>
https://www.selleckchem.com/products/persicogenin.html

$$$$
