PF-04981517.cdx
 OpenBabel08302522033D

 66 71  0  0  0  0  0  0  0  0999 V2000
    1.9415   -0.8400   -0.0201 C   0  0  0  0  0  0  0  0  0  0  0  0
    3.0444   -1.5809    0.6877 C   0  0  0  0  0  0  0  0  0  0  0  0
    4.3308   -1.8881    0.1375 C   0  0  0  0  0  0  0  0  0  0  0  0
    2.6684   -2.6344    1.4487 N   0  0  0  0  0  0  0  0  0  0  0  0
    4.1089   -3.2319   -0.2055 C   0  0  0  0  0  0  0  0  0  0  0  0
    3.4035   -3.6372    0.9235 N   0  0  0  0  0  0  0  0  0  0  0  0
    5.7182   -1.7622    0.4422 C   0  0  0  0  0  0  0  0  0  0  0  0
    1.8578    0.2159   -0.9353 C   0  0  0  0  0  0  0  0  0  0  0  0
    6.3026   -1.1959    1.5648 N   0  0  0  0  0  0  0  0  0  0  0  0
   -0.2678   -0.5922   -0.6088 N   0  0  0  0  0  0  0  0  0  0  0  0
    0.5928   -1.2455    0.1664 C   0  0  0  0  0  0  0  0  0  0  0  0
    0.5199    0.2068   -1.3484 N   0  0  0  0  0  0  0  0  0  0  0  0
    4.8832   -4.0094   -0.9780 N   0  0  0  0  0  0  0  0  0  0  0  0
    6.5519   -2.4123   -0.4341 N   0  0  0  0  0  0  0  0  0  0  0  0
    6.1926   -0.5446    5.2226 N   0  0  0  0  0  0  0  0  0  0  0  0
    5.5518   -0.7480    2.7341 C   0  0  0  0  0  0  0  0  0  0  0  0
    6.6452   -0.4697    3.8106 C   0  0  2  0  0  0  0  0  0  0  0  0
    2.8382    1.1621   -1.5002 C   0  0  0  0  0  0  0  0  0  0  0  0
    6.0710   -3.4391   -1.1576 C   0  0  0  0  0  0  0  0  0  0  0  0
    7.5991   -1.7547    1.9754 C   0  0  0  0  0  0  0  0  0  0  0  0
    7.7290   -1.4970    3.4764 C   0  0  0  0  0  0  0  0  0  0  0  0
    4.1222    0.7551   -1.8500 C   0  0  0  0  0  0  0  0  0  0  0  0
    2.4869    2.4997   -1.7654 C   0  0  0  0  0  0  0  0  0  0  0  0
    3.8875   -4.6824    1.8085 C   0  0  0  0  0  0  0  0  0  0  0  0
    3.3554    3.3569   -2.4515 C   0  0  0  0  0  0  0  0  0  0  0  0
    5.0195    1.6254   -2.4725 C   0  0  0  0  0  0  0  0  0  0  0  0
    4.6309    2.9208   -2.8140 C   0  0  0  0  0  0  0  0  0  0  0  0
   -0.1102    0.8488   -2.4800 C   0  0  0  0  0  0  0  0  0  0  0  0
    5.1297    0.4257    5.5282 C   0  0  0  0  0  0  0  0  0  0  0  0
    7.2659   -0.3675    6.2133 C   0  0  0  0  0  0  0  0  0  0  0  0
    5.5367    3.7987   -3.6209 C   0  0  0  0  0  0  0  0  0  0  0  0
    5.5985    1.8703    5.3675 C   0  0  0  0  0  0  0  0  0  0  0  0
    7.8967    1.0246    6.1928 C   0  0  0  0  0  0  0  0  0  0  0  0
    6.8823    2.1704    6.1435 C   0  0  0  0  0  0  0  0  0  0  0  0
    0.2091   -2.0197    0.8188 H   0  0  0  0  0  0  0  0  0  0  0  0
    4.8502   -1.5105    3.0916 H   0  0  0  0  0  0  0  0  0  0  0  0
    5.0054    0.1724    2.5029 H   0  0  0  0  0  0  0  0  0  0  0  0
    7.0754    0.5155    3.5909 H   0  0  0  0  0  0  0  0  0  0  0  0
    6.7422   -3.8980   -1.8713 H   0  0  0  0  0  0  0  0  0  0  0  0
    8.4068   -1.2615    1.4244 H   0  0  0  0  0  0  0  0  0  0  0  0
    7.6798   -2.8386    1.8134 H   0  0  0  0  0  0  0  0  0  0  0  0
    8.7291   -1.1197    3.7200 H   0  0  0  0  0  0  0  0  0  0  0  0
    7.5930   -2.4305    4.0352 H   0  0  0  0  0  0  0  0  0  0  0  0
    4.4468   -0.2634   -1.6992 H   0  0  0  0  0  0  0  0  0  0  0  0
    1.5092    2.8878   -1.4873 H   0  0  0  0  0  0  0  0  0  0  0  0
    4.1585   -4.2007    2.7544 H   0  0  0  0  0  0  0  0  0  0  0  0
    3.1087   -5.4171    1.9452 H   0  0  0  0  0  0  0  0  0  0  0  0
    4.7918   -5.1305    1.3850 H   0  0  0  0  0  0  0  0  0  0  0  0
    3.0231    4.3585   -2.7177 H   0  0  0  0  0  0  0  0  0  0  0  0
    6.0158    1.2609   -2.7167 H   0  0  0  0  0  0  0  0  0  0  0  0
   -0.6145    0.0801   -3.0734 H   0  0  0  0  0  0  0  0  0  0  0  0
   -0.8413    1.5667   -2.1049 H   0  0  0  0  0  0  0  0  0  0  0  0
    0.6196    1.3450   -3.1220 H   0  0  0  0  0  0  0  0  0  0  0  0
    4.7880    0.2694    6.5618 H   0  0  0  0  0  0  0  0  0  0  0  0
    4.2472    0.2381    4.9083 H   0  0  0  0  0  0  0  0  0  0  0  0
    8.0440   -1.1304    6.0924 H   0  0  0  0  0  0  0  0  0  0  0  0
    6.8541   -0.5580    7.2154 H   0  0  0  0  0  0  0  0  0  0  0  0
    5.1693    3.8627   -4.6499 H   0  0  0  0  0  0  0  0  0  0  0  0
    5.5880    4.8035   -3.1898 H   0  0  0  0  0  0  0  0  0  0  0  0
    6.5544    3.3996   -3.6473 H   0  0  0  0  0  0  0  0  0  0  0  0
    4.8068    2.5497    5.7037 H   0  0  0  0  0  0  0  0  0  0  0  0
    5.7492    2.0950    4.3052 H   0  0  0  0  0  0  0  0  0  0  0  0
    8.5772    1.1005    5.3375 H   0  0  0  0  0  0  0  0  0  0  0  0
    8.5217    1.1466    7.0876 H   0  0  0  0  0  0  0  0  0  0  0  0
    7.3659    3.0533    5.7061 H   0  0  0  0  0  0  0  0  0  0  0  0
    6.6127    2.4469    7.1686 H   0  0  0  0  0  0  0  0  0  0  0  0
  2  1  1  0  0  0  0
  3  2  1  0  0  0  0
  4  2  2  0  0  0  0
  5  3  2  0  0  0  0
  6  4  1  0  0  0  0
  6  5  1  0  0  0  0
  7  3  1  0  0  0  0
  8  1  2  0  0  0  0
  9  7  1  0  0  0  0
 10 11  2  0  0  0  0
 11  1  1  0  0  0  0
 11 35  1  0  0  0  0
 12  8  1  0  0  0  0
 12 10  1  0  0  0  0
 13  5  1  0  0  0  0
 14  7  2  0  0  0  0
 16  9  1  0  0  0  0
 16 36  1  0  0  0  0
 16 37  1  0  0  0  0
 17 16  1  0  0  0  0
 17 38  1  6  0  0  0
 17 15  1  0  0  0  0
 18  8  1  0  0  0  0
 19 13  2  0  0  0  0
 19 14  1  0  0  0  0
 19 39  1  0  0  0  0
 20  9  1  0  0  0  0
 20 40  1  0  0  0  0
 20 41  1  0  0  0  0
 21 20  1  0  0  0  0
 21 17  1  0  0  0  0
 21 42  1  0  0  0  0
 21 43  1  0  0  0  0
 22 18  2  0  0  0  0
 22 44  1  0  0  0  0
 23 18  1  0  0  0  0
 23 45  1  0  0  0  0
 24  6  1  0  0  0  0
 24 46  1  0  0  0  0
 24 47  1  0  0  0  0
 24 48  1  0  0  0  0
 25 23  2  0  0  0  0
 25 49  1  0  0  0  0
 26 22  1  0  0  0  0
 26 50  1  0  0  0  0
 27 25  1  0  0  0  0
 27 26  2  0  0  0  0
 28 12  1  0  0  0  0
 28 51  1  0  0  0  0
 28 52  1  0  0  0  0
 28 53  1  0  0  0  0
 29 15  1  0  0  0  0
 29 54  1  0  0  0  0
 29 55  1  0  0  0  0
 30 15  1  0  0  0  0
 30 56  1  0  0  0  0
 30 57  1  0  0  0  0
 31 27  1  0  0  0  0
 31 58  1  0  0  0  0
 31 59  1  0  0  0  0
 31 60  1  0  0  0  0
 32 29  1  0  0  0  0
 32 61  1  0  0  0  0
 32 62  1  0  0  0  0
 33 30  1  0  0  0  0
 33 63  1  0  0  0  0
 33 64  1  0  0  0  0
 34 32  1  0  0  0  0
 34 33  1  0  0  0  0
 34 65  1  0  0  0  0
 34 66  1  0  0  0  0
M  END
>  <Mol_ID>
1189

>  <Formula>
C26H32N8

>  <MolWeight>
456.58588

>  <Cat>
S2921

>  <Name>
PF-4981517

>  <Synonyms>
CYP3cide, PF-04981517

>  <Target>
P450 (e.g. CYP17)

>  <Form>
free base

>  <CAS>
1390637-82-7

>  <URL>
http://selleckchem.com/products/pf-4981517.html

$$$$
