PF-00835231
 OpenBabel08302521313D

 66 68  0  0  0  0  0  0  0  0999 V2000
   -3.6285    6.5203   -1.0142 N   0  0  0  0  0  0  0  0  0  0  0  0
   -4.7412    5.9219   -0.4507 C   0  0  0  0  0  0  0  0  0  0  0  0
   -5.7526    6.8657   -0.5303 C   0  0  0  0  0  0  0  0  0  0  0  0
   -5.2141    8.0849   -1.0373 C   0  0  0  0  0  0  0  0  0  0  0  0
   -5.7614    9.3731   -1.2530 C   0  0  0  0  0  0  0  0  0  0  0  0
   -4.9059   10.3819   -1.7191 C   0  0  0  0  0  0  0  0  0  0  0  0
   -3.5582   10.1145   -1.9853 C   0  0  0  0  0  0  0  0  0  0  0  0
   -3.0186    8.8417   -1.8032 C   0  0  0  0  0  0  0  0  0  0  0  0
   -3.8716    7.8438   -1.3174 C   0  0  0  0  0  0  0  0  0  0  0  0
   -4.7267    4.5726    0.0877 C   0  0  0  0  0  0  0  0  0  0  0  0
   -3.7312    3.8558    0.0465 O   0  0  0  0  0  0  0  0  0  0  0  0
   -5.9048    4.1603    0.6621 N   0  0  0  0  0  0  0  0  0  0  0  0
   -7.0898    9.5351   -0.9617 O   0  0  0  0  0  0  0  0  0  0  0  0
   -7.6420   10.8264   -1.1394 C   0  0  0  0  0  0  0  0  0  0  0  0
   -6.1348    2.8275    1.2165 C   0  0  1  0  0  0  0  0  0  0  0  0
   -5.5150    2.6371    2.6259 C   0  0  0  0  0  0  0  0  0  0  0  0
   -5.6964    3.7720    3.6665 C   0  0  0  0  0  0  0  0  0  0  0  0
   -7.1376    3.9176    4.1455 C   0  0  0  0  0  0  0  0  0  0  0  0
   -4.8013    3.5409    4.8985 C   0  0  0  0  0  0  0  0  0  0  0  0
   -7.6600    2.5006    1.0608 C   0  0  0  0  0  0  0  0  0  0  0  0
   -8.5015    3.3867    0.9177 O   0  0  0  0  0  0  0  0  0  0  0  0
   -7.9981    1.1625    1.0204 N   0  0  0  0  0  0  0  0  0  0  0  0
   -9.3615    0.6196    0.7836 C   0  0  2  0  0  0  0  0  0  0  0  0
   -9.8706    0.5996   -0.6764 C   0  0  0  0  0  0  0  0  0  0  0  0
   -8.8673    0.6810   -1.8075 C   0  0  0  0  0  0  0  0  0  0  0  0
  -10.4404    1.2149    1.7185 C   0  0  0  0  0  0  0  0  0  0  0  0
  -11.4679   -0.9731    3.8359 N   0  0  0  0  0  0  0  0  0  0  0  0
  -11.3149   -1.0232    2.4674 C   0  0  0  0  0  0  0  0  0  0  0  0
  -11.6966    0.3305    1.9061 C   0  0  1  0  0  0  0  0  0  0  0  0
  -12.6106    0.8586    3.0247 C   0  0  0  0  0  0  0  0  0  0  0  0
  -11.9912    0.2814    4.2841 C   0  0  0  0  0  0  0  0  0  0  0  0
  -10.8506   -1.9650    1.8495 O   0  0  0  0  0  0  0  0  0  0  0  0
  -11.0539    0.3692   -0.9615 O   0  0  0  0  0  0  0  0  0  0  0  0
   -9.5391    0.7831   -3.0615 O   0  0  0  0  0  0  0  0  0  0  0  0
   -2.7395    6.0520   -1.1309 H   0  0  0  0  0  0  0  0  0  0  0  0
   -6.7787    6.7412   -0.2119 H   0  0  0  0  0  0  0  0  0  0  0  0
   -5.2619   11.3952   -1.8773 H   0  0  0  0  0  0  0  0  0  0  0  0
   -2.9179   10.9281   -2.3334 H   0  0  0  0  0  0  0  0  0  0  0  0
   -1.9720    8.6482   -2.0176 H   0  0  0  0  0  0  0  0  0  0  0  0
   -6.7158    4.7663    0.6188 H   0  0  0  0  0  0  0  0  0  0  0  0
   -7.1837   11.5529   -0.4638 H   0  0  0  0  0  0  0  0  0  0  0  0
   -7.5695   11.1551   -2.1848 H   0  0  0  0  0  0  0  0  0  0  0  0
   -8.7109   10.7694   -0.8927 H   0  0  0  0  0  0  0  0  0  0  0  0
   -5.6197    2.1226    0.5490 H   0  0  0  0  0  0  0  0  0  0  0  0
   -5.8546    1.6878    3.0571 H   0  0  0  0  0  0  0  0  0  0  0  0
   -4.4303    2.5291    2.4756 H   0  0  0  0  0  0  0  0  0  0  0  0
   -5.3783    4.7201    3.2165 H   0  0  0  0  0  0  0  0  0  0  0  0
   -7.4505    3.0453    4.7299 H   0  0  0  0  0  0  0  0  0  0  0  0
   -7.2371    4.8003    4.7875 H   0  0  0  0  0  0  0  0  0  0  0  0
   -7.8323    4.0422    3.3153 H   0  0  0  0  0  0  0  0  0  0  0  0
   -3.7583    3.3656    4.6157 H   0  0  0  0  0  0  0  0  0  0  0  0
   -4.8191    4.4190    5.5560 H   0  0  0  0  0  0  0  0  0  0  0  0
   -5.1412    2.6822    5.4888 H   0  0  0  0  0  0  0  0  0  0  0  0
   -7.2649    0.4848    1.1965 H   0  0  0  0  0  0  0  0  0  0  0  0
   -9.2142   -0.4364    1.0289 H   0  0  0  0  0  0  0  0  0  0  0  0
   -8.2334    1.5596   -1.6892 H   0  0  0  0  0  0  0  0  0  0  0  0
   -8.2698   -0.2337   -1.8181 H   0  0  0  0  0  0  0  0  0  0  0  0
   -9.9819    1.4075    2.6952 H   0  0  0  0  0  0  0  0  0  0  0  0
  -10.7689    2.1883    1.3318 H   0  0  0  0  0  0  0  0  0  0  0  0
  -11.1574   -1.7408    4.4200 H   0  0  0  0  0  0  0  0  0  0  0  0
  -12.2883    0.2139    0.9948 H   0  0  0  0  0  0  0  0  0  0  0  0
  -12.7028    1.9480    3.0460 H   0  0  0  0  0  0  0  0  0  0  0  0
  -13.6190    0.4404    2.8940 H   0  0  0  0  0  0  0  0  0  0  0  0
  -11.1595    0.8908    4.6487 H   0  0  0  0  0  0  0  0  0  0  0  0
  -12.7149    0.1244    5.0860 H   0  0  0  0  0  0  0  0  0  0  0  0
  -10.4315    0.3978   -2.9245 H   0  0  0  0  0  0  0  0  0  0  0  0
  1  2  1  0  0  0  0
  1  9  1  0  0  0  0
  1 35  1  0  0  0  0
  2  3  2  0  0  0  0
  2 10  1  0  0  0  0
  3  4  1  0  0  0  0
  3 36  1  0  0  0  0
  4  5  1  0  0  0  0
  4  9  2  0  0  0  0
  5  6  2  0  0  0  0
  5 13  1  0  0  0  0
  6  7  1  0  0  0  0
  6 37  1  0  0  0  0
  7  8  2  0  0  0  0
  7 38  1  0  0  0  0
  8  9  1  0  0  0  0
  8 39  1  0  0  0  0
 10 11  2  0  0  0  0
 10 12  1  0  0  0  0
 12 15  1  0  0  0  0
 12 40  1  0  0  0  0
 13 14  1  0  0  0  0
 14 41  1  0  0  0  0
 14 42  1  0  0  0  0
 14 43  1  0  0  0  0
 15 16  1  0  0  0  0
 15 20  1  0  0  0  0
 15 44  1  6  0  0  0
 16 17  1  0  0  0  0
 16 45  1  0  0  0  0
 16 46  1  0  0  0  0
 17 18  1  0  0  0  0
 17 19  1  0  0  0  0
 17 47  1  0  0  0  0
 18 48  1  0  0  0  0
 18 49  1  0  0  0  0
 18 50  1  0  0  0  0
 19 51  1  0  0  0  0
 19 52  1  0  0  0  0
 19 53  1  0  0  0  0
 20 21  2  0  0  0  0
 20 22  1  0  0  0  0
 22 54  1  0  0  0  0
 23 26  1  0  0  0  0
 23 55  1  1  0  0  0
 23 24  1  0  0  0  0
 23 22  1  0  0  0  0
 24 25  1  0  0  0  0
 24 33  2  0  0  0  0
 25 34  1  0  0  0  0
 25 56  1  0  0  0  0
 25 57  1  0  0  0  0
 26 58  1  0  0  0  0
 26 59  1  0  0  0  0
 27 28  1  0  0  0  0
 27 31  1  0  0  0  0
 27 60  1  0  0  0  0
 28 29  1  0  0  0  0
 28 32  2  0  0  0  0
 29 30  1  0  0  0  0
 29 61  1  6  0  0  0
 29 26  1  0  0  0  0
 30 31  1  0  0  0  0
 30 62  1  0  0  0  0
 30 63  1  0  0  0  0
 31 64  1  0  0  0  0
 31 65  1  0  0  0  0
 34 66  1  0  0  0  0
M  END
>  <Mol_ID>
5777

>  <Formula>
C24H32N4O6

>  <MolWeight>
472.53408

>  <Cat>
S9731

>  <Name>
PF-00835231

>  <Synonyms>
N/A

>  <Target>
COVID-19,SARS-CoV

>  <Form>
Free Base

>  <CAS>
870153-29-0

>  <URL>
http://www.selleckchem.com/products/pf-00835231.html

$$$$
