PF-03084014.cdx
 OpenBabel08302520413D

 76 78  0  0  0  0  0  0  0  0999 V2000
   -0.3694   -0.0093    8.9043 C   0  0  0  0  0  0  0  0  0  0  0  0
    0.8423    0.2074    8.2665 C   0  0  0  0  0  0  0  0  0  0  0  0
    1.1075   -0.3493    7.0140 C   0  0  0  0  0  0  0  0  0  0  0  0
    0.1422   -1.1485    6.3792 C   0  0  0  0  0  0  0  0  0  0  0  0
   -1.1041   -1.3434    7.0064 C   0  0  0  0  0  0  0  0  0  0  0  0
   -1.3294   -0.7874    8.2717 C   0  0  0  0  0  0  0  0  0  0  0  0
    0.4449   -1.7336    5.0250 C   0  0  0  0  0  0  0  0  0  0  0  0
   -0.5196   -2.8520    4.6284 C   0  0  0  0  0  0  0  0  0  0  0  0
   -1.9812   -2.4475    4.8686 C   0  0  1  0  0  0  0  0  0  0  0  0
   -2.1715   -2.2012    6.3802 C   0  0  0  0  0  0  0  0  0  0  0  0
   -2.4934   -1.0098    8.8977 F   0  0  0  0  0  0  0  0  0  0  0  0
    1.7742    0.9673    8.8553 F   0  0  0  0  0  0  0  0  0  0  0  0
   -2.4155   -1.2899    4.0397 N   0  0  0  0  0  0  0  0  0  0  0  0
   -2.3621   -1.5574    2.5711 C   0  0  2  0  0  0  0  0  0  0  0  0
   -2.6870   -0.2691    1.7572 C   0  0  0  0  0  0  0  0  0  0  0  0
   -2.2839    0.9101    2.3449 N   0  0  0  0  0  0  0  0  0  0  0  0
   -3.1637   -0.3587    0.6253 O   0  0  0  0  0  0  0  0  0  0  0  0
   -2.5178    2.1350    1.7476 C   0  0  0  0  0  0  0  0  0  0  0  0
   -2.0006    3.3498    2.1394 C   0  0  0  0  0  0  0  0  0  0  0  0
   -2.5196    4.2700    1.2553 N   0  0  0  0  0  0  0  0  0  0  0  0
   -3.3226    3.5737    0.3929 C   0  0  0  0  0  0  0  0  0  0  0  0
   -3.3313    2.2963    0.6704 N   0  0  0  0  0  0  0  0  0  0  0  0
   -2.3365    5.7315    1.2325 C   0  0  0  0  0  0  0  0  0  0  0  0
   -3.7027    6.4534    1.4803 C   0  0  0  0  0  0  0  0  0  0  0  0
   -1.2860    6.1990    2.2615 C   0  0  0  0  0  0  0  0  0  0  0  0
   -1.8260    6.1794   -0.1634 C   0  0  0  0  0  0  0  0  0  0  0  0
   -4.3782    6.1747    2.7645 N   0  0  0  0  0  0  0  0  0  0  0  0
   -5.6286    6.9497    2.8295 C   0  0  0  0  0  0  0  0  0  0  0  0
   -6.4921    6.7596    4.1072 C   0  0  0  0  0  0  0  0  0  0  0  0
   -3.3054   -2.7199    2.1562 C   0  0  0  0  0  0  0  0  0  0  0  0
   -3.2152   -3.2254    0.7096 C   0  0  0  0  0  0  0  0  0  0  0  0
   -1.8264   -3.6989    0.3163 C   0  0  0  0  0  0  0  0  0  0  0  0
   -5.7105    7.1730    5.3648 C   0  0  0  0  0  0  0  0  0  0  0  0
   -7.7265    7.6763    3.9690 C   0  0  0  0  0  0  0  0  0  0  0  0
   -6.9823    5.3085    4.2673 C   0  0  0  0  0  0  0  0  0  0  0  0
   -0.5636    0.4211    9.8772 H   0  0  0  0  0  0  0  0  0  0  0  0
    2.0671   -0.1555    6.5444 H   0  0  0  0  0  0  0  0  0  0  0  0
    1.4622   -2.1386    5.0172 H   0  0  0  0  0  0  0  0  0  0  0  0
    0.4052   -0.9280    4.2813 H   0  0  0  0  0  0  0  0  0  0  0  0
   -0.2994   -3.7497    5.2216 H   0  0  0  0  0  0  0  0  0  0  0  0
   -0.3434   -3.1463    3.5869 H   0  0  0  0  0  0  0  0  0  0  0  0
   -2.6268   -3.3022    4.6507 H   0  0  0  0  0  0  0  0  0  0  0  0
   -3.1644   -1.7856    6.5725 H   0  0  0  0  0  0  0  0  0  0  0  0
   -2.1350   -3.1781    6.8925 H   0  0  0  0  0  0  0  0  0  0  0  0
   -3.3882   -1.0669    4.2829 H   0  0  0  0  0  0  0  0  0  0  0  0
   -1.3264   -1.7875    2.3020 H   0  0  0  0  0  0  0  0  0  0  0  0
   -1.7885    0.8683    3.2244 H   0  0  0  0  0  0  0  0  0  0  0  0
   -1.3255    3.6188    2.9374 H   0  0  0  0  0  0  0  0  0  0  0  0
   -3.8841    4.0350   -0.4094 H   0  0  0  0  0  0  0  0  0  0  0  0
   -3.5289    7.5356    1.4094 H   0  0  0  0  0  0  0  0  0  0  0  0
   -4.3912    6.1960    0.6635 H   0  0  0  0  0  0  0  0  0  0  0  0
   -0.3110    5.7358    2.0629 H   0  0  0  0  0  0  0  0  0  0  0  0
   -1.1440    7.2847    2.2190 H   0  0  0  0  0  0  0  0  0  0  0  0
   -1.5733    5.9426    3.2862 H   0  0  0  0  0  0  0  0  0  0  0  0
   -0.8755    5.6987   -0.4199 H   0  0  0  0  0  0  0  0  0  0  0  0
   -2.5410    5.9404   -0.9593 H   0  0  0  0  0  0  0  0  0  0  0  0
   -1.6706    7.2652   -0.1938 H   0  0  0  0  0  0  0  0  0  0  0  0
   -4.5978    5.1771    2.8224 H   0  0  0  0  0  0  0  0  0  0  0  0
   -5.3732    8.0144    2.7493 H   0  0  0  0  0  0  0  0  0  0  0  0
   -6.2465    6.7033    1.9555 H   0  0  0  0  0  0  0  0  0  0  0  0
   -3.1121   -3.6018    2.7722 H   0  0  0  0  0  0  0  0  0  0  0  0
   -4.3438   -2.4239    2.3567 H   0  0  0  0  0  0  0  0  0  0  0  0
   -3.9116   -4.0662    0.6031 H   0  0  0  0  0  0  0  0  0  0  0  0
   -3.5641   -2.4767   -0.0045 H   0  0  0  0  0  0  0  0  0  0  0  0
   -1.5211   -4.5521    0.9298 H   0  0  0  0  0  0  0  0  0  0  0  0
   -1.8243   -4.0156   -0.7312 H   0  0  0  0  0  0  0  0  0  0  0  0
   -1.0776   -2.9095    0.4219 H   0  0  0  0  0  0  0  0  0  0  0  0
   -5.3801    8.2156    5.2998 H   0  0  0  0  0  0  0  0  0  0  0  0
   -6.3315    7.0761    6.2628 H   0  0  0  0  0  0  0  0  0  0  0  0
   -4.8225    6.5487    5.5102 H   0  0  0  0  0  0  0  0  0  0  0  0
   -8.3158    7.4116    3.0828 H   0  0  0  0  0  0  0  0  0  0  0  0
   -8.3845    7.5975    4.8416 H   0  0  0  0  0  0  0  0  0  0  0  0
   -7.4310    8.7268    3.8715 H   0  0  0  0  0  0  0  0  0  0  0  0
   -7.2926    4.8835    3.3083 H   0  0  0  0  0  0  0  0  0  0  0  0
   -6.2079    4.6638    4.6910 H   0  0  0  0  0  0  0  0  0  0  0  0
   -7.8469    5.2611    4.9407 H   0  0  0  0  0  0  0  0  0  0  0  0
  1  2  2  0  0  0  0
  1 36  1  0  0  0  0
  2  3  1  0  0  0  0
  2 12  1  0  0  0  0
  3  4  2  0  0  0  0
  3 37  1  0  0  0  0
  4  5  1  0  0  0  0
  4  7  1  0  0  0  0
  5  6  2  0  0  0  0
  6  1  1  0  0  0  0
  6 11  1  0  0  0  0
  7  8  1  0  0  0  0
  7 38  1  0  0  0  0
  7 39  1  0  0  0  0
  8  9  1  0  0  0  0
  8 40  1  0  0  0  0
  8 41  1  0  0  0  0
  9 10  1  0  0  0  0
  9 13  1  0  0  0  0
  9 42  1  6  0  0  0
 10  5  1  0  0  0  0
 10 43  1  0  0  0  0
 10 44  1  0  0  0  0
 13 45  1  0  0  0  0
 14 30  1  0  0  0  0
 14 46  1  6  0  0  0
 14 15  1  0  0  0  0
 14 13  1  0  0  0  0
 15 16  1  0  0  0  0
 15 17  2  0  0  0  0
 16 18  1  0  0  0  0
 16 47  1  0  0  0  0
 18 19  2  0  0  0  0
 19 20  1  0  0  0  0
 19 48  1  0  0  0  0
 20 21  1  0  0  0  0
 20 23  1  0  0  0  0
 21 22  2  0  0  0  0
 21 49  1  0  0  0  0
 22 18  1  0  0  0  0
 23 24  1  0  0  0  0
 23 25  1  0  0  0  0
 23 26  1  0  0  0  0
 24 27  1  0  0  0  0
 24 50  1  0  0  0  0
 24 51  1  0  0  0  0
 25 52  1  0  0  0  0
 25 53  1  0  0  0  0
 25 54  1  0  0  0  0
 26 55  1  0  0  0  0
 26 56  1  0  0  0  0
 26 57  1  0  0  0  0
 27 28  1  0  0  0  0
 27 58  1  0  0  0  0
 28 29  1  0  0  0  0
 28 59  1  0  0  0  0
 28 60  1  0  0  0  0
 29 33  1  0  0  0  0
 29 34  1  0  0  0  0
 29 35  1  0  0  0  0
 30 31  1  0  0  0  0
 30 61  1  0  0  0  0
 30 62  1  0  0  0  0
 31 32  1  0  0  0  0
 31 63  1  0  0  0  0
 31 64  1  0  0  0  0
 32 65  1  0  0  0  0
 32 66  1  0  0  0  0
 32 67  1  0  0  0  0
 33 68  1  0  0  0  0
 33 69  1  0  0  0  0
 33 70  1  0  0  0  0
 34 71  1  0  0  0  0
 34 72  1  0  0  0  0
 34 73  1  0  0  0  0
 35 74  1  0  0  0  0
 35 75  1  0  0  0  0
 35 76  1  0  0  0  0
M  END
>  <Mol_ID>
3886

>  <Formula>
C27H41F2N5O

>  <MolWeight>
489.6441464

>  <Cat>
S8018

>  <Name>
Nirogacestat (PF-03084014)

>  <Synonyms>
PF-3084014

>  <Target>
Apoptosis related,Secretase

>  <Form>
free base

>  <CAS>
1290543-63-3

>  <URL>
http://selleckchem.com/products/pf-03084014-pf-3084014.html

$$$$
