PF-06726304.cdx
 OpenBabel08302520433D

 51 54  0  0  0  0  0  0  0  0999 V2000
    2.4885    1.1843   -0.1834 C   0  0  0  0  0  0  0  0  0  0  0  0
    2.8976   -0.1387    0.0325 C   0  0  0  0  0  0  0  0  0  0  0  0
    1.9680   -1.1685    0.2123 C   0  0  0  0  0  0  0  0  0  0  0  0
    0.6000   -0.8880    0.2041 C   0  0  0  0  0  0  0  0  0  0  0  0
    0.1764    0.4383    0.0281 C   0  0  0  0  0  0  0  0  0  0  0  0
    1.1152    1.4574   -0.1878 C   0  0  0  0  0  0  0  0  0  0  0  0
   -0.4104   -1.9729    0.4368 C   0  0  0  0  0  0  0  0  0  0  0  0
   -1.7167   -1.6120   -0.2585 C   0  0  0  0  0  0  0  0  0  0  0  0
   -2.1753   -0.2812    0.1245 N   0  0  0  0  0  0  0  0  0  0  0  0
   -1.2785    0.7833    0.1128 C   0  0  0  0  0  0  0  0  0  0  0  0
    3.4818    2.2367   -0.3870 C   0  0  0  0  0  0  0  0  0  0  0  0
   -3.6165   -0.0301    0.1889 C   0  0  0  0  0  0  0  0  0  0  0  0
   -4.1248   -0.2567    1.5905 C   0  0  0  0  0  0  0  0  0  0  0  0
   -4.2067    0.6683    2.5765 C   0  0  0  0  0  0  0  0  0  0  0  0
   -4.6916    0.2957    3.8980 C   0  0  0  0  0  0  0  0  0  0  0  0
   -5.1786   -0.9286    4.1392 C   0  0  0  0  0  0  0  0  0  0  0  0
   -5.1812   -1.8510    3.1243 N   0  0  0  0  0  0  0  0  0  0  0  0
   -4.6808   -1.6250    1.8654 C   0  0  0  0  0  0  0  0  0  0  0  0
   -4.7144   -2.5071    1.0119 O   0  0  0  0  0  0  0  0  0  0  0  0
   -5.7205   -1.3569    5.4671 C   0  0  0  0  0  0  0  0  0  0  0  0
   -3.8526    2.1230    2.4363 C   0  0  0  0  0  0  0  0  0  0  0  0
   -1.6101    1.9622    0.1888 O   0  0  0  0  0  0  0  0  0  0  0  0
    3.3697    3.5487    0.0404 C   0  0  0  0  0  0  0  0  0  0  0  0
    4.4880    4.2363   -0.3133 O   0  0  0  0  0  0  0  0  0  0  0  0
    5.3633    3.4031   -0.9696 N   0  0  0  0  0  0  0  0  0  0  0  0
    4.7663    2.2068   -1.0161 C   0  0  0  0  0  0  0  0  0  0  0  0
    5.4671    1.0860   -1.6893 C   0  0  0  0  0  0  0  0  0  0  0  0
    2.3649    4.3416    0.7802 C   0  0  0  0  0  0  0  0  0  0  0  0
    3.9506   -0.4016    0.0862 H   0  0  0  0  0  0  0  0  0  0  0  0
    2.3224   -2.1867    0.3654 H   0  0  0  0  0  0  0  0  0  0  0  0
    0.7443    2.4622   -0.3671 H   0  0  0  0  0  0  0  0  0  0  0  0
   -0.5683   -2.0777    1.5165 H   0  0  0  0  0  0  0  0  0  0  0  0
   -0.0454   -2.9307    0.0483 H   0  0  0  0  0  0  0  0  0  0  0  0
   -2.4735   -2.3608   -0.0180 H   0  0  0  0  0  0  0  0  0  0  0  0
   -1.5841   -1.6033   -1.3482 H   0  0  0  0  0  0  0  0  0  0  0  0
   -3.8251    0.9932   -0.1388 H   0  0  0  0  0  0  0  0  0  0  0  0
   -4.1189   -0.6706   -0.5443 H   0  0  0  0  0  0  0  0  0  0  0  0
   -4.6547    1.0410    4.6881 H   0  0  0  0  0  0  0  0  0  0  0  0
   -5.5608   -2.7765    3.2795 H   0  0  0  0  0  0  0  0  0  0  0  0
   -6.7903   -1.5769    5.3890 H   0  0  0  0  0  0  0  0  0  0  0  0
   -5.2055   -2.2550    5.8234 H   0  0  0  0  0  0  0  0  0  0  0  0
   -5.5941   -0.5785    6.2275 H   0  0  0  0  0  0  0  0  0  0  0  0
   -4.5675    2.7479    2.9860 H   0  0  0  0  0  0  0  0  0  0  0  0
   -2.8529    2.3179    2.8361 H   0  0  0  0  0  0  0  0  0  0  0  0
   -3.8948    2.4712    1.4022 H   0  0  0  0  0  0  0  0  0  0  0  0
    5.7343    0.3053   -0.9711 H   0  0  0  0  0  0  0  0  0  0  0  0
    4.8349    0.6483   -2.4680 H   0  0  0  0  0  0  0  0  0  0  0  0
    6.3985    1.4176   -2.1607 H   0  0  0  0  0  0  0  0  0  0  0  0
    1.4488    4.4583    0.1942 H   0  0  0  0  0  0  0  0  0  0  0  0
    2.1177    3.8612    1.7313 H   0  0  0  0  0  0  0  0  0  0  0  0
    2.7355    5.3484    0.9984 H   0  0  0  0  0  0  0  0  0  0  0  0
  1  2  2  0  0  0  0
  1 11  1  0  0  0  0
  2  3  1  0  0  0  0
  2 29  1  0  0  0  0
  3  4  2  0  0  0  0
  3 30  1  0  0  0  0
  4  5  1  0  0  0  0
  4  7  1  0  0  0  0
  5  6  2  0  0  0  0
  6  1  1  0  0  0  0
  6 31  1  0  0  0  0
  7  8  1  0  0  0  0
  7 32  1  0  0  0  0
  7 33  1  0  0  0  0
  8  9  1  0  0  0  0
  8 34  1  0  0  0  0
  8 35  1  0  0  0  0
  9 10  1  0  0  0  0
  9 12  1  0  0  0  0
 10  5  1  0  0  0  0
 10 22  2  0  0  0  0
 11 23  2  0  0  0  0
 12 13  1  0  0  0  0
 12 36  1  0  0  0  0
 12 37  1  0  0  0  0
 13 14  2  0  0  0  0
 14 15  1  0  0  0  0
 14 21  1  0  0  0  0
 15 16  2  0  0  0  0
 15 38  1  0  0  0  0
 16 17  1  0  0  0  0
 16 20  1  0  0  0  0
 17 18  1  0  0  0  0
 17 39  1  0  0  0  0
 18 13  1  0  0  0  0
 18 19  2  0  0  0  0
 20 40  1  0  0  0  0
 20 41  1  0  0  0  0
 20 42  1  0  0  0  0
 21 43  1  0  0  0  0
 21 44  1  0  0  0  0
 21 45  1  0  0  0  0
 23 24  1  0  0  0  0
 23 28  1  0  0  0  0
 24 25  1  0  0  0  0
 25 26  2  0  0  0  0
 26 11  1  0  0  0  0
 26 27  1  0  0  0  0
 27 46  1  0  0  0  0
 27 47  1  0  0  0  0
 27 48  1  0  0  0  0
 28 49  1  0  0  0  0
 28 50  1  0  0  0  0
 28 51  1  0  0  0  0
M  END
>  <Mol_ID>
4161

>  <Formula>
C22H21Cl2N3O3

>  <MolWeight>
446.32644

>  <Cat>
S8494

>  <Name>
PF-06726304

>  <Synonyms>
PF-6726304

>  <Target>
EZH1/2,Histone Methyltransferase

>  <Form>
free base

>  <CAS>
1616287-82-1

>  <URL>
http://selleckchem.com/products/pf-06726304.html

$$$$
