PF-04802367
 OpenBabel08302521353D

 41 43  0  0  0  0  0  0  0  0999 V2000
    1.0350    0.0672   -0.1467 C   0  0  0  0  0  0  0  0  0  0  0  0
    0.5426    1.2035   -0.7875 N   0  0  0  0  0  0  0  0  0  0  0  0
    0.2919   -0.7840    0.2995 O   0  0  0  0  0  0  0  0  0  0  0  0
   -0.8865    1.4436   -0.9218 C   0  0  0  0  0  0  0  0  0  0  0  0
   -1.4953    2.2091    0.2691 C   0  0  0  0  0  0  0  0  0  0  0  0
   -0.9109    3.6078    0.5108 C   0  0  0  0  0  0  0  0  0  0  0  0
    2.1779   -6.6836    0.0453 O   0  0  0  0  0  0  0  0  0  0  0  0
    1.0352   -7.1941   -0.6321 C   0  0  0  0  0  0  0  0  0  0  0  0
    3.2913   -1.1802   -0.0381 C   0  0  0  0  0  0  0  0  0  0  0  0
    2.5024   -0.0330   -0.0854 C   0  0  0  0  0  0  0  0  0  0  0  0
    4.6003   -0.7877    0.0410 O   0  0  0  0  0  0  0  0  0  0  0  0
    3.3321    1.0817   -0.0314 N   0  0  0  0  0  0  0  0  0  0  0  0
    4.5447    0.5693    0.0291 C   0  0  0  0  0  0  0  0  0  0  0  0
    3.0674   -2.6103   -0.1184 C   0  0  0  0  0  0  0  0  0  0  0  0
    1.9954   -3.1006   -0.8715 C   0  0  0  0  0  0  0  0  0  0  0  0
    3.8774   -3.5180    0.5759 C   0  0  0  0  0  0  0  0  0  0  0  0
    1.6825   -4.4588   -0.8679 C   0  0  0  0  0  0  0  0  0  0  0  0
    3.5518   -4.8773    0.5901 C   0  0  0  0  0  0  0  0  0  0  0  0
    2.4377   -5.3496   -0.1081 C   0  0  0  0  0  0  0  0  0  0  0  0
   -1.4788    4.3378    1.6271 N   0  0  0  0  0  0  0  0  0  0  0  0
   -1.0428    4.3505    2.9191 C   0  0  0  0  0  0  0  0  0  0  0  0
   -2.4342    5.2742    1.4441 N   0  0  0  0  0  0  0  0  0  0  0  0
   -1.6654    5.2926    3.5917 N   0  0  0  0  0  0  0  0  0  0  0  0
   -2.5055    5.8283    2.6587 C   0  0  0  0  0  0  0  0  0  0  0  0
    1.1715    1.7064   -1.4008 H   0  0  0  0  0  0  0  0  0  0  0  0
   -1.0325    1.9642   -1.8757 H   0  0  0  0  0  0  0  0  0  0  0  0
   -1.4030    0.4795   -1.0128 H   0  0  0  0  0  0  0  0  0  0  0  0
   -2.5781    2.2867    0.1078 H   0  0  0  0  0  0  0  0  0  0  0  0
   -1.3466    1.6069    1.1726 H   0  0  0  0  0  0  0  0  0  0  0  0
    0.1625    3.5285    0.7019 H   0  0  0  0  0  0  0  0  0  0  0  0
   -1.0525    4.2325   -0.3776 H   0  0  0  0  0  0  0  0  0  0  0  0
    0.1364   -6.6001   -0.4340 H   0  0  0  0  0  0  0  0  0  0  0  0
    1.2269   -7.2561   -1.7081 H   0  0  0  0  0  0  0  0  0  0  0  0
    0.8435   -8.2046   -0.2576 H   0  0  0  0  0  0  0  0  0  0  0  0
    5.4848    1.0956    0.0487 H   0  0  0  0  0  0  0  0  0  0  0  0
    1.3673   -2.4199   -1.4379 H   0  0  0  0  0  0  0  0  0  0  0  0
    4.7364   -3.1709    1.1463 H   0  0  0  0  0  0  0  0  0  0  0  0
    0.8217   -4.7779   -1.4444 H   0  0  0  0  0  0  0  0  0  0  0  0
    4.1586   -5.5708    1.1677 H   0  0  0  0  0  0  0  0  0  0  0  0
   -0.2886    3.6790    3.3014 H   0  0  0  0  0  0  0  0  0  0  0  0
   -3.1833    6.6466    2.8708 H   0  0  0  0  0  0  0  0  0  0  0  0
  1  2  1  0  0  0  0
  1  3  2  0  0  0  0
  1 10  1  0  0  0  0
  2  4  1  0  0  0  0
  2 25  1  0  0  0  0
  4  5  1  0  0  0  0
  4 26  1  0  0  0  0
  4 27  1  0  0  0  0
  5  6  1  0  0  0  0
  5 28  1  0  0  0  0
  5 29  1  0  0  0  0
  6 20  1  0  0  0  0
  6 30  1  0  0  0  0
  6 31  1  0  0  0  0
  7  8  1  0  0  0  0
  7 19  1  0  0  0  0
  8 32  1  0  0  0  0
  8 33  1  0  0  0  0
  8 34  1  0  0  0  0
  9 10  2  0  0  0  0
  9 11  1  0  0  0  0
  9 14  1  0  0  0  0
 10 12  1  0  0  0  0
 11 13  1  0  0  0  0
 12 13  2  0  0  0  0
 13 35  1  0  0  0  0
 14 15  2  0  0  0  0
 14 16  1  0  0  0  0
 15 17  1  0  0  0  0
 15 36  1  0  0  0  0
 16 18  2  0  0  0  0
 16 37  1  0  0  0  0
 17 19  2  0  0  0  0
 17 38  1  0  0  0  0
 18 19  1  0  0  0  0
 18 39  1  0  0  0  0
 20 21  1  0  0  0  0
 20 22  1  0  0  0  0
 21 23  2  0  0  0  0
 21 40  1  0  0  0  0
 22 24  2  0  0  0  0
 23 24  1  0  0  0  0
 24 41  1  0  0  0  0
M  END
>  <Mol_ID>
6868

>  <Formula>
C16H16ClN5O3

>  <MolWeight>
361.78294

>  <Cat>
E2819

>  <Name>
PF-04802367

>  <Synonyms>
PF-367

>  <Target>
GSK-3

>  <Form>
Free base

>  <CAS>
1962178-27-3

>  <URL>
http://www.selleckchem.com/products/pf-04802367.html

$$$$
