PF-05175157
 OpenBabel08302521353D

 57 61  0  0  0  0  0  0  0  0999 V2000
    0.2386    0.3130   -0.1399 C   0  0  0  0  0  0  0  0  0  0  0  0
    0.1157    1.6614   -0.3295 C   0  0  0  0  0  0  0  0  0  0  0  0
   -1.0862    2.2786   -0.8752 C   0  0  0  0  0  0  0  0  0  0  0  0
   -2.1899    1.2876   -1.3710 C   0  0  0  0  0  0  0  0  0  0  0  0
   -1.6702   -0.1685   -1.6393 C   0  0  0  0  0  0  0  0  0  0  0  0
   -0.9062   -0.5551   -0.3378 C   0  0  0  0  0  0  0  0  0  0  0  0
   -0.8699   -0.1211   -3.0144 C   0  0  0  0  0  0  0  0  0  0  0  0
   -0.6546   -1.4670   -3.7132 C   0  0  0  0  0  0  0  0  0  0  0  0
   -0.7956   -2.5098   -2.7510 N   0  0  0  0  0  0  0  0  0  0  0  0
   -2.2182   -2.5979   -2.3333 C   0  0  0  0  0  0  0  0  0  0  0  0
   -2.7611   -1.2710   -1.7133 C   0  0  0  0  0  0  0  0  0  0  0  0
    1.5890    0.0626    0.0949 C   0  0  0  0  0  0  0  0  0  0  0  0
    2.2612    1.2020    0.2299 N   0  0  0  0  0  0  0  0  0  0  0  0
    1.3304    2.1673    0.0051 N   0  0  0  0  0  0  0  0  0  0  0  0
    1.7786    3.5492   -0.0441 C   0  0  0  0  0  0  0  0  0  0  0  0
    2.7950    3.8319    1.0680 C   0  0  0  0  0  0  0  0  0  0  0  0
    2.3228    3.8163   -1.4423 C   0  0  0  0  0  0  0  0  0  0  0  0
    0.4302   -2.6610   -2.0234 C   0  0  0  0  0  0  0  0  0  0  0  0
    1.3794   -1.9501   -2.3703 O   0  0  0  0  0  0  0  0  0  0  0  0
    0.8095   -3.5887   -0.9165 C   0  0  0  0  0  0  0  0  0  0  0  0
    2.2185   -3.7798   -0.8295 C   0  0  0  0  0  0  0  0  0  0  0  0
    2.8054   -4.8006   -0.0948 C   0  0  0  0  0  0  0  0  0  0  0  0
    1.9340   -5.6516    0.5665 C   0  0  0  0  0  0  0  0  0  0  0  0
    0.5804   -5.3284    0.6613 C   0  0  0  0  0  0  0  0  0  0  0  0
   -0.0249   -4.2525   -0.0151 C   0  0  0  0  0  0  0  0  0  0  0  0
    2.1984   -6.8744    1.1099 N   0  0  0  0  0  0  0  0  0  0  0  0
    1.0267   -7.3338    1.4814 C   0  0  0  0  0  0  0  0  0  0  0  0
    0.0826   -6.3331    1.4568 N   0  0  0  0  0  0  0  0  0  0  0  0
    0.7043   -8.7441    1.7793 C   0  0  0  0  0  0  0  0  0  0  0  0
   -1.2685    3.4930   -0.9178 O   0  0  0  0  0  0  0  0  0  0  0  0
   -2.6266    1.7093   -2.2847 H   0  0  0  0  0  0  0  0  0  0  0  0
   -2.9764    1.2705   -0.6084 H   0  0  0  0  0  0  0  0  0  0  0  0
   -1.5817   -0.3912    0.5195 H   0  0  0  0  0  0  0  0  0  0  0  0
   -0.6551   -1.6020   -0.2331 H   0  0  0  0  0  0  0  0  0  0  0  0
    0.1057    0.3575   -2.8771 H   0  0  0  0  0  0  0  0  0  0  0  0
   -1.4026    0.5058   -3.7410 H   0  0  0  0  0  0  0  0  0  0  0  0
    0.3199   -1.5136   -4.2196 H   0  0  0  0  0  0  0  0  0  0  0  0
   -1.3771   -1.6438   -4.5192 H   0  0  0  0  0  0  0  0  0  0  0  0
   -2.4515   -3.4875   -1.7443 H   0  0  0  0  0  0  0  0  0  0  0  0
   -2.7722   -2.7132   -3.2789 H   0  0  0  0  0  0  0  0  0  0  0  0
   -3.1393   -1.5049   -0.7079 H   0  0  0  0  0  0  0  0  0  0  0  0
   -3.6381   -0.9085   -2.2640 H   0  0  0  0  0  0  0  0  0  0  0  0
    2.1220   -0.8767    0.1496 H   0  0  0  0  0  0  0  0  0  0  0  0
    0.9035    4.1801    0.1409 H   0  0  0  0  0  0  0  0  0  0  0  0
    3.6806    3.1892    0.9940 H   0  0  0  0  0  0  0  0  0  0  0  0
    3.1323    4.8712    1.0437 H   0  0  0  0  0  0  0  0  0  0  0  0
    2.3430    3.6419    2.0501 H   0  0  0  0  0  0  0  0  0  0  0  0
    1.5307    3.6742   -2.1881 H   0  0  0  0  0  0  0  0  0  0  0  0
    2.7018    4.8364   -1.5381 H   0  0  0  0  0  0  0  0  0  0  0  0
    3.1271    3.1168   -1.6999 H   0  0  0  0  0  0  0  0  0  0  0  0
    2.9003   -3.1583   -1.4119 H   0  0  0  0  0  0  0  0  0  0  0  0
    3.8698   -4.9957   -0.1554 H   0  0  0  0  0  0  0  0  0  0  0  0
   -1.0744   -4.0236    0.1084 H   0  0  0  0  0  0  0  0  0  0  0  0
   -0.8714   -6.4222    1.7703 H   0  0  0  0  0  0  0  0  0  0  0  0
    0.1441   -9.1756    0.9418 H   0  0  0  0  0  0  0  0  0  0  0  0
    1.6229   -9.3275    1.8963 H   0  0  0  0  0  0  0  0  0  0  0  0
    0.1075   -8.8328    2.6884 H   0  0  0  0  0  0  0  0  0  0  0  0
  1  2  2  0  0  0  0
  1 12  1  0  0  0  0
  2  3  1  0  0  0  0
  3  4  1  0  0  0  0
  3 30  2  0  0  0  0
  4  5  1  0  0  0  0
  4 31  1  0  0  0  0
  4 32  1  0  0  0  0
  5  6  1  0  0  0  0
  5  7  1  0  0  0  0
  6  1  1  0  0  0  0
  6 33  1  0  0  0  0
  6 34  1  0  0  0  0
  7  8  1  0  0  0  0
  7 35  1  0  0  0  0
  7 36  1  0  0  0  0
  8  9  1  0  0  0  0
  8 37  1  0  0  0  0
  8 38  1  0  0  0  0
  9 10  1  0  0  0  0
  9 18  1  0  0  0  0
 10 11  1  0  0  0  0
 10 39  1  0  0  0  0
 10 40  1  0  0  0  0
 11  5  1  0  0  0  0
 11 41  1  0  0  0  0
 11 42  1  0  0  0  0
 12 13  2  0  0  0  0
 12 43  1  0  0  0  0
 13 14  1  0  0  0  0
 14  2  1  0  0  0  0
 14 15  1  0  0  0  0
 15 16  1  0  0  0  0
 15 17  1  0  0  0  0
 15 44  1  0  0  0  0
 16 45  1  0  0  0  0
 16 46  1  0  0  0  0
 16 47  1  0  0  0  0
 17 48  1  0  0  0  0
 17 49  1  0  0  0  0
 17 50  1  0  0  0  0
 18 19  2  0  0  0  0
 18 20  1  0  0  0  0
 20 21  2  0  0  0  0
 21 22  1  0  0  0  0
 21 51  1  0  0  0  0
 22 23  2  0  0  0  0
 22 52  1  0  0  0  0
 23 24  1  0  0  0  0
 23 26  1  0  0  0  0
 24 25  2  0  0  0  0
 25 20  1  0  0  0  0
 25 53  1  0  0  0  0
 26 27  2  0  0  0  0
 27 28  1  0  0  0  0
 27 29  1  0  0  0  0
 28 24  1  0  0  0  0
 28 54  1  0  0  0  0
 29 55  1  0  0  0  0
 29 56  1  0  0  0  0
 29 57  1  0  0  0  0
M  END
>  <Mol_ID>
6697

>  <Formula>
C23H27N5O2

>  <MolWeight>
405.49278

>  <Cat>
S6672

>  <Name>
PF-05175157

>  <Synonyms>
N/A

>  <Target>
Acetyl-CoA carboxylase

>  <Form>
Free base

>  <CAS>
1301214-47-0

>  <URL>
http://www.selleckchem.com/products/pf-05175157.html

$$$$
