PF-04171426.cdx
 OpenBabel08302522033D

 47 48  0  0  0  0  0  0  0  0999 V2000
    1.2809   -2.8428    1.5467 C   0  0  0  0  0  0  0  0  0  0  0  0
    1.1541   -2.3950    0.1282 C   0  0  2  0  0  0  0  0  0  0  0  0
    2.3620   -2.9932    2.2759 N   0  0  0  0  0  0  0  0  0  0  0  0
    0.1283   -3.1106    2.2247 O   0  0  0  0  0  0  0  0  0  0  0  0
    0.3359   -1.0856    0.0224 C   0  0  0  0  0  0  0  0  0  0  0  0
    0.4778   -3.4756   -0.7383 C   0  0  0  0  0  0  0  0  0  0  0  0
    1.8408   -3.3920    3.4990 C   0  0  0  0  0  0  0  0  0  0  0  0
    0.4987   -3.4716    3.5170 N   0  0  0  0  0  0  0  0  0  0  0  0
    0.8699    0.0947    0.8538 C   0  0  0  0  0  0  0  0  0  0  0  0
    1.2138   -4.7978   -0.7531 C   0  0  0  0  0  0  0  0  0  0  0  0
    2.6881   -3.6928    4.6602 C   0  0  0  0  0  0  0  0  0  0  0  0
   -0.0174    1.3332    0.6555 C   0  0  0  0  0  0  0  0  0  0  0  0
    0.4141   -5.8642   -1.0979 N   0  0  0  0  0  0  0  0  0  0  0  0
    2.4084   -4.9285   -0.5011 O   0  0  0  0  0  0  0  0  0  0  0  0
    4.0351   -3.6051    4.4116 N   0  0  0  0  0  0  0  0  0  0  0  0
    2.2777   -3.9995    5.7765 O   0  0  0  0  0  0  0  0  0  0  0  0
    0.3605    2.5437    1.5312 C   0  0  0  0  0  0  0  0  0  0  0  0
    1.0662   -7.1141   -1.2004 O   0  0  0  0  0  0  0  0  0  0  0  0
   -0.6370    3.6954    1.2983 C   0  0  0  0  0  0  0  0  0  0  0  0
    1.7871    3.0541    1.2821 C   0  0  0  0  0  0  0  0  0  0  0  0
   -0.3216    4.9174    2.1608 C   0  0  0  0  0  0  0  0  0  0  0  0
    2.1082    4.2244    2.2114 C   0  0  0  0  0  0  0  0  0  0  0  0
    1.1276    5.3753    2.0169 C   0  0  0  0  0  0  0  0  0  0  0  0
    2.1642   -2.2084   -0.2603 H   0  0  0  0  0  0  0  0  0  0  0  0
    0.3074   -0.7811   -1.0323 H   0  0  0  0  0  0  0  0  0  0  0  0
   -0.7041   -1.2807    0.3172 H   0  0  0  0  0  0  0  0  0  0  0  0
   -0.5510   -3.6474   -0.3976 H   0  0  0  0  0  0  0  0  0  0  0  0
    0.4258   -3.1315   -1.7794 H   0  0  0  0  0  0  0  0  0  0  0  0
    0.8841   -0.1679    1.9191 H   0  0  0  0  0  0  0  0  0  0  0  0
    1.9005    0.3050    0.5510 H   0  0  0  0  0  0  0  0  0  0  0  0
   -0.0061    1.6206   -0.4028 H   0  0  0  0  0  0  0  0  0  0  0  0
   -1.0532    1.0538    0.8928 H   0  0  0  0  0  0  0  0  0  0  0  0
   -0.4518   -5.7665   -1.6193 H   0  0  0  0  0  0  0  0  0  0  0  0
    4.6862   -3.8304    5.1497 H   0  0  0  0  0  0  0  0  0  0  0  0
    4.3655   -3.3956    3.4773 H   0  0  0  0  0  0  0  0  0  0  0  0
    0.2845    2.2334    2.5823 H   0  0  0  0  0  0  0  0  0  0  0  0
    1.9762   -6.9073   -0.8935 H   0  0  0  0  0  0  0  0  0  0  0  0
   -0.6204    3.9901    0.2406 H   0  0  0  0  0  0  0  0  0  0  0  0
   -1.6577    3.3593    1.5158 H   0  0  0  0  0  0  0  0  0  0  0  0
    2.5224    2.2620    1.4524 H   0  0  0  0  0  0  0  0  0  0  0  0
    1.8936    3.3750    0.2375 H   0  0  0  0  0  0  0  0  0  0  0  0
   -0.9919    5.7415    1.8889 H   0  0  0  0  0  0  0  0  0  0  0  0
   -0.5237    4.6785    3.2118 H   0  0  0  0  0  0  0  0  0  0  0  0
    3.1300    4.5739    2.0292 H   0  0  0  0  0  0  0  0  0  0  0  0
    2.0689    3.8812    3.2528 H   0  0  0  0  0  0  0  0  0  0  0  0
    1.2754    5.8157    1.0246 H   0  0  0  0  0  0  0  0  0  0  0  0
    1.3370    6.1649    2.7499 H   0  0  0  0  0  0  0  0  0  0  0  0
  1  3  2  0  0  0  0
  1  4  1  0  0  0  0
  2  6  1  0  0  0  0
  2 24  1  6  0  0  0
  2  5  1  0  0  0  0
  2  1  1  0  0  0  0
  3  7  1  0  0  0  0
  4  8  1  0  0  0  0
  5  9  1  0  0  0  0
  5 25  1  0  0  0  0
  5 26  1  0  0  0  0
  6 10  1  0  0  0  0
  6 27  1  0  0  0  0
  6 28  1  0  0  0  0
  7 11  1  0  0  0  0
  7  8  2  0  0  0  0
  9 12  1  0  0  0  0
  9 29  1  0  0  0  0
  9 30  1  0  0  0  0
 10 13  1  0  0  0  0
 10 14  2  0  0  0  0
 11 15  1  0  0  0  0
 11 16  2  0  0  0  0
 12 17  1  0  0  0  0
 12 31  1  0  0  0  0
 12 32  1  0  0  0  0
 13 18  1  0  0  0  0
 13 33  1  0  0  0  0
 15 34  1  0  0  0  0
 15 35  1  0  0  0  0
 17 19  1  0  0  0  0
 17 20  1  0  0  0  0
 17 36  1  0  0  0  0
 18 37  1  0  0  0  0
 19 21  1  0  0  0  0
 19 38  1  0  0  0  0
 19 39  1  0  0  0  0
 20 22  1  0  0  0  0
 20 40  1  0  0  0  0
 20 41  1  0  0  0  0
 21 23  1  0  0  0  0
 21 42  1  0  0  0  0
 21 43  1  0  0  0  0
 22 23  1  0  0  0  0
 22 44  1  0  0  0  0
 22 45  1  0  0  0  0
 23 46  1  0  0  0  0
 23 47  1  0  0  0  0
M  END
>  <Mol_ID>
1190

>  <Formula>
C15H24N4O4

>  <MolWeight>
324.37546

>  <Cat>
S2224

>  <Name>
UK 383367

>  <Synonyms>
N/A

>  <Target>
Procollagen C Proteinase

>  <Form>
free base

>  <CAS>
348622-88-8

>  <URL>
http://selleckchem.com/products/UK-383367.html

$$$$
