PF-06409577.cdx
 OpenBabel08302520433D

 40 43  0  0  0  0  0  0  0  0999 V2000
    1.3464   -0.3274    0.1194 C   0  0  0  0  0  0  0  0  0  0  0  0
    0.4021   -1.3798    0.0759 C   0  0  0  0  0  0  0  0  0  0  0  0
   -0.9897   -1.1642   -0.0369 C   0  0  0  0  0  0  0  0  0  0  0  0
   -1.5083    0.1311   -0.1120 C   0  0  0  0  0  0  0  0  0  0  0  0
   -0.5689    1.1781   -0.0736 C   0  0  0  0  0  0  0  0  0  0  0  0
    0.8120    0.9598    0.0383 C   0  0  0  0  0  0  0  0  0  0  0  0
    2.9274   -0.6192    0.2119 C   0  0  0  0  0  0  0  0  0  0  0  0
    3.3576   -1.3621   -0.9617 O   0  0  0  0  0  0  0  0  0  0  0  0
   -2.9408    0.4474   -0.3895 C   0  0  0  0  0  0  0  0  0  0  0  0
   -3.4564    1.6869    0.0585 C   0  0  0  0  0  0  0  0  0  0  0  0
   -4.4096    2.3888   -0.6812 C   0  0  0  0  0  0  0  0  0  0  0  0
   -4.8508    1.7270   -1.8141 C   0  0  0  0  0  0  0  0  0  0  0  0
   -4.7824    0.3422   -1.9685 C   0  0  0  0  0  0  0  0  0  0  0  0
   -3.7028   -0.2994   -1.3221 C   0  0  0  0  0  0  0  0  0  0  0  0
   -5.0878    2.2051   -3.1096 N   0  0  0  0  0  0  0  0  0  0  0  0
   -5.0295    1.0745   -3.9496 C   0  0  0  0  0  0  0  0  0  0  0  0
   -5.6192    0.1262   -3.1097 C   0  0  0  0  0  0  0  0  0  0  0  0
   -7.1031    0.0345   -3.1455 C   0  0  0  0  0  0  0  0  0  0  0  0
   -7.7164   -0.0037   -1.9334 O   0  0  0  0  0  0  0  0  0  0  0  0
   -7.7525    0.0813   -4.1828 O   0  0  0  0  0  0  0  0  0  0  0  0
    3.8791    0.5821    0.5737 C   0  0  0  0  0  0  0  0  0  0  0  0
    4.6519   -0.3626    1.5072 C   0  0  0  0  0  0  0  0  0  0  0  0
    3.3979   -1.2491    1.5691 C   0  0  0  0  0  0  0  0  0  0  0  0
    0.7712   -2.4034    0.0927 H   0  0  0  0  0  0  0  0  0  0  0  0
   -1.6435   -2.0289   -0.0979 H   0  0  0  0  0  0  0  0  0  0  0  0
   -0.8788    2.2109   -0.1828 H   0  0  0  0  0  0  0  0  0  0  0  0
    1.4679    1.8294    0.0268 H   0  0  0  0  0  0  0  0  0  0  0  0
    4.3126   -1.4992   -0.8521 H   0  0  0  0  0  0  0  0  0  0  0  0
   -2.9528    2.2207    0.8611 H   0  0  0  0  0  0  0  0  0  0  0  0
   -4.5760    3.4457   -0.5102 H   0  0  0  0  0  0  0  0  0  0  0  0
   -3.3581   -1.2648   -1.6894 H   0  0  0  0  0  0  0  0  0  0  0  0
   -4.7584    3.1148   -3.3957 H   0  0  0  0  0  0  0  0  0  0  0  0
   -4.1622    1.0050   -4.5984 H   0  0  0  0  0  0  0  0  0  0  0  0
   -7.0828    0.0819   -1.1978 H   0  0  0  0  0  0  0  0  0  0  0  0
    4.4684    0.9881   -0.2545 H   0  0  0  0  0  0  0  0  0  0  0  0
    3.4133    1.4164    1.1093 H   0  0  0  0  0  0  0  0  0  0  0  0
    5.5141   -0.8448    1.0335 H   0  0  0  0  0  0  0  0  0  0  0  0
    4.9704    0.0719    2.4586 H   0  0  0  0  0  0  0  0  0  0  0  0
    2.7427   -1.0271    2.4197 H   0  0  0  0  0  0  0  0  0  0  0  0
    3.5941   -2.3248    1.5478 H   0  0  0  0  0  0  0  0  0  0  0  0
  1  2  2  0  0  0  0
  1  7  1  0  0  0  0
  2  3  1  0  0  0  0
  2 24  1  0  0  0  0
  3  4  2  0  0  0  0
  3 25  1  0  0  0  0
  4  5  1  0  0  0  0
  4  9  1  0  0  0  0
  5  6  2  0  0  0  0
  5 26  1  0  0  0  0
  6  1  1  0  0  0  0
  6 27  1  0  0  0  0
  7  8  1  0  0  0  0
  7 21  1  0  0  0  0
  8 28  1  0  0  0  0
  9 10  2  0  0  0  0
 10 11  1  0  0  0  0
 10 29  1  0  0  0  0
 11 12  2  0  0  0  0
 11 30  1  0  0  0  0
 12 13  1  0  0  0  0
 12 15  1  0  0  0  0
 13 14  2  0  0  0  0
 14  9  1  0  0  0  0
 14 31  1  0  0  0  0
 15 16  1  0  0  0  0
 15 32  1  0  0  0  0
 16 17  2  0  0  0  0
 16 33  1  0  0  0  0
 17 13  1  0  0  0  0
 17 18  1  0  0  0  0
 18 19  1  0  0  0  0
 18 20  2  0  0  0  0
 19 34  1  0  0  0  0
 21 22  1  0  0  0  0
 21 35  1  0  0  0  0
 21 36  1  0  0  0  0
 22 23  1  0  0  0  0
 22 37  1  0  0  0  0
 22 38  1  0  0  0  0
 23  7  1  0  0  0  0
 23 39  1  0  0  0  0
 23 40  1  0  0  0  0
M  END
>  <Mol_ID>
4167

>  <Formula>
C19H16ClNO3

>  <MolWeight>
341.78824

>  <Cat>
S8335

>  <Name>
PF-06409577

>  <Synonyms>
N/A

>  <Target>
AMPK

>  <Form>
free base

>  <CAS>
1467057-23-3

>  <URL>
http://selleckchem.com/products/pf-06409577.html

$$$$
