PF-07220060 (CDK4/6-IN-6)
 OpenBabel08302521353D

 59 62  0  0  1  0  0  0  0  0999 V2000
    7.2651   -8.0146    0.8865 C   0  0  0  0  0  0  0  0  0  0  0  0
    7.1562   -6.6099    0.2869 C   0  0  0  0  0  0  0  0  0  0  0  0
    8.2613   -8.8864    0.1119 C   0  0  0  0  0  0  0  0  0  0  0  0
    1.7607  -10.4003    0.4721 F   0  0  0  0  0  0  0  0  0  0  0  0
    5.7863   -8.5987    3.6670 C   0  0  0  0  0  0  0  0  0  0  0  0
    4.6008   -8.4624    4.6367 C   0  0  0  0  0  0  0  0  0  0  0  0
    6.7348   -9.6985    4.1458 C   0  0  0  0  0  0  0  0  0  0  0  0
    6.4776   -7.3465    3.6698 O   0  0  0  0  0  0  0  0  0  0  0  0
    1.8452   -8.7657   -6.2451 N   0  0  0  0  0  0  0  0  0  0  0  0
    2.7645  -11.2660   -7.8020 O   0  0  0  0  0  0  0  0  0  0  0  0
    5.0955   -9.0045    0.0327 C   0  0  0  0  0  0  0  0  0  0  0  0
    3.9605   -9.4920    0.6696 C   0  0  0  0  0  0  0  0  0  0  0  0
    5.9492   -8.6307    1.0629 N   0  0  0  0  0  0  0  0  0  0  0  0
    5.1782   -8.9535   -1.3722 C   0  0  0  0  0  0  0  0  0  0  0  0
    4.1150   -9.4422    2.0261 N   0  0  0  0  0  0  0  0  0  0  0  0
    2.8771   -9.9344   -0.1071 C   0  0  0  0  0  0  0  0  0  0  0  0
    5.2896   -8.8777    2.2652 C   0  0  0  0  0  0  0  0  0  0  0  0
    4.0943   -9.4117   -2.1591 C   0  0  0  0  0  0  0  0  0  0  0  0
    2.9487   -9.8857   -1.5023 C   0  0  0  0  0  0  0  0  0  0  0  0
    4.1639   -9.3853   -3.6373 C   0  0  0  0  0  0  0  0  0  0  0  0
    3.0063   -9.1177   -4.2850 N   0  0  0  0  0  0  0  0  0  0  0  0
    5.3407   -9.6141   -4.3236 C   0  0  0  0  0  0  0  0  0  0  0  0
    3.0355   -9.0507   -5.6207 C   0  0  0  0  0  0  0  0  0  0  0  0
    5.2682   -9.5405   -5.6908 C   0  0  0  0  0  0  0  0  0  0  0  0
    4.1335   -9.2715   -6.3586 N   0  0  0  0  0  0  0  0  0  0  0  0
    1.6447   -9.0421   -7.6682 C   0  0  1  0  0  0  0  0  0  0  0  0
    1.5353  -10.5564   -7.9848 C   0  0  1  0  0  0  0  0  0  0  0  0
    0.3607   -8.3258   -8.1076 C   0  0  0  0  0  0  0  0  0  0  0  0
    1.1060  -10.7452   -9.4437 C   0  0  0  0  0  0  0  0  0  0  0  0
    0.0426   -8.6371   -9.5603 C   0  0  0  0  0  0  0  0  0  0  0  0
   -0.0977  -10.0428   -9.7448 O   0  0  0  0  0  0  0  0  0  0  0  0
    7.7165   -7.9061    1.8733 H   0  0  0  0  0  0  0  0  0  0  0  0
    8.1477   -6.1852    0.1001 H   0  0  0  0  0  0  0  0  0  0  0  0
    6.6122   -6.6002   -0.6613 H   0  0  0  0  0  0  0  0  0  0  0  0
    6.6278   -5.9382    0.9727 H   0  0  0  0  0  0  0  0  0  0  0  0
    8.4636   -9.8152    0.6555 H   0  0  0  0  0  0  0  0  0  0  0  0
    7.9155   -9.1567   -0.8872 H   0  0  0  0  0  0  0  0  0  0  0  0
    9.2159   -8.3596   -0.0074 H   0  0  0  0  0  0  0  0  0  0  0  0
    3.9619   -9.3522    4.6397 H   0  0  0  0  0  0  0  0  0  0  0  0
    4.9473   -8.2914    5.6628 H   0  0  0  0  0  0  0  0  0  0  0  0
    3.9823   -7.5964    4.3713 H   0  0  0  0  0  0  0  0  0  0  0  0
    7.6707   -9.6947    3.5762 H   0  0  0  0  0  0  0  0  0  0  0  0
    7.0150   -9.5426    5.1947 H   0  0  0  0  0  0  0  0  0  0  0  0
    6.2841  -10.6931    4.0581 H   0  0  0  0  0  0  0  0  0  0  0  0
    6.6539   -7.1213    4.5995 H   0  0  0  0  0  0  0  0  0  0  0  0
    1.0765   -8.9281   -5.6064 H   0  0  0  0  0  0  0  0  0  0  0  0
    3.4058  -10.6478   -7.3966 H   0  0  0  0  0  0  0  0  0  0  0  0
    6.0576   -8.5394   -1.8530 H   0  0  0  0  0  0  0  0  0  0  0  0
    2.0871  -10.2299   -2.0701 H   0  0  0  0  0  0  0  0  0  0  0  0
    6.2733   -9.8516   -3.8308 H   0  0  0  0  0  0  0  0  0  0  0  0
    6.1465   -9.7037   -6.3087 H   0  0  0  0  0  0  0  0  0  0  0  0
    2.4833   -8.6169   -8.2368 H   0  0  0  0  0  0  0  0  0  0  0  0
    0.7861  -11.0083   -7.3231 H   0  0  0  0  0  0  0  0  0  0  0  0
   -0.4745   -8.6638   -7.4795 H   0  0  0  0  0  0  0  0  0  0  0  0
    0.4546   -7.2432   -7.9649 H   0  0  0  0  0  0  0  0  0  0  0  0
    1.9012  -10.4255  -10.1299 H   0  0  0  0  0  0  0  0  0  0  0  0
    0.9406  -11.8089   -9.6478 H   0  0  0  0  0  0  0  0  0  0  0  0
   -0.9061   -8.1696   -9.8426 H   0  0  0  0  0  0  0  0  0  0  0  0
    0.8158   -8.2505  -10.2346 H   0  0  0  0  0  0  0  0  0  0  0  0
  1  2  1  0  0  0  0
  1  3  1  0  0  0  0
  1 13  1  0  0  0  0
  1 32  1  0  0  0  0
  2 33  1  0  0  0  0
  2 34  1  0  0  0  0
  2 35  1  0  0  0  0
  3 36  1  0  0  0  0
  3 37  1  0  0  0  0
  3 38  1  0  0  0  0
  4 16  1  0  0  0  0
  5  6  1  0  0  0  0
  5  7  1  0  0  0  0
  5  8  1  0  0  0  0
  5 17  1  0  0  0  0
  6 39  1  0  0  0  0
  6 40  1  0  0  0  0
  6 41  1  0  0  0  0
  7 42  1  0  0  0  0
  7 43  1  0  0  0  0
  7 44  1  0  0  0  0
  8 45  1  0  0  0  0
  9 23  1  0  0  0  0
  9 46  1  0  0  0  0
 10 47  1  0  0  0  0
 11 12  2  0  0  0  0
 11 13  1  0  0  0  0
 11 14  1  0  0  0  0
 12 15  1  0  0  0  0
 12 16  1  0  0  0  0
 13 17  1  0  0  0  0
 14 18  2  0  0  0  0
 14 48  1  0  0  0  0
 15 17  2  0  0  0  0
 16 19  2  0  0  0  0
 18 19  1  0  0  0  0
 18 20  1  0  0  0  0
 19 49  1  0  0  0  0
 20 21  2  0  0  0  0
 20 22  1  0  0  0  0
 21 23  1  0  0  0  0
 22 24  2  0  0  0  0
 22 50  1  0  0  0  0
 23 25  2  0  0  0  0
 24 25  1  0  0  0  0
 24 51  1  0  0  0  0
 26 27  1  0  0  0  0
 26 28  1  0  0  0  0
 26 52  1  6  0  0  0
 26  9  1  0  0  0  0
 27 10  1  0  0  0  0
 27 29  1  0  0  0  0
 27 53  1  1  0  0  0
 28 30  1  0  0  0  0
 28 54  1  0  0  0  0
 28 55  1  0  0  0  0
 29 31  1  0  0  0  0
 29 56  1  0  0  0  0
 29 57  1  0  0  0  0
 30 31  1  0  0  0  0
 30 58  1  0  0  0  0
 30 59  1  0  0  0  0
M  END
>  <Mol_ID>
6940

>  <Formula>
C22H27ClFN5O3

>  <MolWeight>
463.9328832

>  <Cat>
E1495

>  <Name>
PF-07220060 (CDK4/6-IN-6)

>  <Synonyms>
CDK4/6-IN-6

>  <Target>
CDK

>  <Form>
free base

>  <CAS>
2380321-51-5

>  <URL>
https://www.selleckchem.com/products/pf-07220060.html

$$$$
