PF-06446846
 OpenBabel08302521353D

 51 55  0  0  0  0  0  0  0  0999 V2000
    0.8747    0.0787   -0.1562 N   0  0  0  0  0  0  0  0  0  0  0  0
    0.3642   -0.4503   -1.3590 C   0  0  0  0  0  0  0  0  0  0  0  0
    1.0881   -0.7490   -2.3147 O   0  0  0  0  0  0  0  0  0  0  0  0
    0.0637    0.7159    0.8105 C   0  0  0  0  0  0  0  0  0  0  0  0
   -0.7120    1.8218    0.4492 C   0  0  0  0  0  0  0  0  0  0  0  0
    0.0397    0.2051    2.0528 N   0  0  0  0  0  0  0  0  0  0  0  0
   -1.4761    2.4473    1.4309 C   0  0  0  0  0  0  0  0  0  0  0  0
   -0.6969    0.8337    2.9891 C   0  0  0  0  0  0  0  0  0  0  0  0
   -1.4593    1.9540    2.7301 C   0  0  0  0  0  0  0  0  0  0  0  0
    2.3478    0.1396    0.0746 C   0  0  2  0  0  0  0  0  0  0  0  0
    2.9115   -1.0287    0.8996 C   0  0  0  0  0  0  0  0  0  0  0  0
    2.8927    1.4895    0.6115 C   0  0  0  0  0  0  0  0  0  0  0  0
    2.8810   -0.8002    2.4105 C   0  0  0  0  0  0  0  0  0  0  0  0
    2.7540    1.6856    2.0556 N   0  0  0  0  0  0  0  0  0  0  0  0
    3.3527    0.5953    2.8234 C   0  0  0  0  0  0  0  0  0  0  0  0
   -1.1094   -0.7353   -1.5034 C   0  0  0  0  0  0  0  0  0  0  0  0
   -1.7168   -0.7068   -2.7753 C   0  0  0  0  0  0  0  0  0  0  0  0
   -1.8874   -1.1219   -0.4114 C   0  0  0  0  0  0  0  0  0  0  0  0
   -3.0819   -1.0293   -2.9452 C   0  0  0  0  0  0  0  0  0  0  0  0
   -3.2429   -1.3990   -0.5597 C   0  0  0  0  0  0  0  0  0  0  0  0
   -3.8369   -1.4103   -1.8302 C   0  0  0  0  0  0  0  0  0  0  0  0
   -5.0790   -2.0939   -1.9500 N   0  0  0  0  0  0  0  0  0  0  0  0
   -5.8955   -2.3429   -3.0478 C   0  0  0  0  0  0  0  0  0  0  0  0
   -5.3765   -3.0277   -0.9929 N   0  0  0  0  0  0  0  0  0  0  0  0
   -6.1807   -3.6965   -2.8798 C   0  0  0  0  0  0  0  0  0  0  0  0
   -6.2985   -1.5529   -4.0718 N   0  0  0  0  0  0  0  0  0  0  0  0
   -5.8282   -4.0980   -1.6289 N   0  0  0  0  0  0  0  0  0  0  0  0
   -6.7727   -4.3919   -3.9326 C   0  0  0  0  0  0  0  0  0  0  0  0
   -7.0609   -2.2415   -4.9681 C   0  0  0  0  0  0  0  0  0  0  0  0
   -7.2635   -3.6216   -4.9836 C   0  0  0  0  0  0  0  0  0  0  0  0
   -0.6911    2.2126   -0.5613 H   0  0  0  0  0  0  0  0  0  0  0  0
   -2.0638    3.3266    1.1877 H   0  0  0  0  0  0  0  0  0  0  0  0
   -0.6392    0.4012    3.9834 H   0  0  0  0  0  0  0  0  0  0  0  0
   -2.0168    2.4361    3.5240 H   0  0  0  0  0  0  0  0  0  0  0  0
    2.7811    0.0323   -0.9237 H   0  0  0  0  0  0  0  0  0  0  0  0
    2.4116   -1.9683    0.6473 H   0  0  0  0  0  0  0  0  0  0  0  0
    3.9675   -1.1501    0.6195 H   0  0  0  0  0  0  0  0  0  0  0  0
    3.9596    1.5619    0.3651 H   0  0  0  0  0  0  0  0  0  0  0  0
    2.4018    2.3258    0.0945 H   0  0  0  0  0  0  0  0  0  0  0  0
    1.8800   -0.9958    2.8000 H   0  0  0  0  0  0  0  0  0  0  0  0
    3.5189   -1.5475    2.8985 H   0  0  0  0  0  0  0  0  0  0  0  0
    3.1725    2.5732    2.3341 H   0  0  0  0  0  0  0  0  0  0  0  0
    3.1102    0.7447    3.8832 H   0  0  0  0  0  0  0  0  0  0  0  0
    4.4439    0.6511    2.7423 H   0  0  0  0  0  0  0  0  0  0  0  0
   -1.1083   -0.4921   -3.6540 H   0  0  0  0  0  0  0  0  0  0  0  0
   -1.4550   -1.2705    0.5739 H   0  0  0  0  0  0  0  0  0  0  0  0
   -3.4930   -1.0696   -3.9528 H   0  0  0  0  0  0  0  0  0  0  0  0
   -3.8015   -1.6963    0.3274 H   0  0  0  0  0  0  0  0  0  0  0  0
   -6.8985   -5.4665   -3.8865 H   0  0  0  0  0  0  0  0  0  0  0  0
   -7.5421   -1.6261   -5.7278 H   0  0  0  0  0  0  0  0  0  0  0  0
   -7.8266   -4.0929   -5.7829 H   0  0  0  0  0  0  0  0  0  0  0  0
  1  2  1  0  0  0  0
  1  4  1  0  0  0  0
  2  3  2  0  0  0  0
  2 16  1  0  0  0  0
  4  5  2  0  0  0  0
  4  6  1  0  0  0  0
  5  7  1  0  0  0  0
  5 31  1  0  0  0  0
  6  8  2  0  0  0  0
  7  9  2  0  0  0  0
  7 32  1  0  0  0  0
  8  9  1  0  0  0  0
  8 33  1  0  0  0  0
  9 34  1  0  0  0  0
 10  1  1  0  0  0  0
 10 11  1  0  0  0  0
 10 12  1  0  0  0  0
 10 35  1  6  0  0  0
 11 13  1  0  0  0  0
 11 36  1  0  0  0  0
 11 37  1  0  0  0  0
 12 14  1  0  0  0  0
 12 38  1  0  0  0  0
 12 39  1  0  0  0  0
 13 15  1  0  0  0  0
 13 40  1  0  0  0  0
 13 41  1  0  0  0  0
 14 15  1  0  0  0  0
 14 42  1  0  0  0  0
 15 43  1  0  0  0  0
 15 44  1  0  0  0  0
 16 17  2  0  0  0  0
 16 18  1  0  0  0  0
 17 19  1  0  0  0  0
 17 45  1  0  0  0  0
 18 20  2  0  0  0  0
 18 46  1  0  0  0  0
 19 21  2  0  0  0  0
 19 47  1  0  0  0  0
 20 21  1  0  0  0  0
 20 48  1  0  0  0  0
 21 22  1  0  0  0  0
 22 23  1  0  0  0  0
 22 24  1  0  0  0  0
 23 25  2  0  0  0  0
 23 26  1  0  0  0  0
 24 27  2  0  0  0  0
 25 27  1  0  0  0  0
 25 28  1  0  0  0  0
 26 29  2  0  0  0  0
 28 30  2  0  0  0  0
 28 49  1  0  0  0  0
 29 30  1  0  0  0  0
 29 50  1  0  0  0  0
 30 51  1  0  0  0  0
M  END
>  <Mol_ID>
6893

>  <Formula>
C22H20ClN7O

>  <MolWeight>
433.8935

>  <Cat>
S0849

>  <Name>
PF-06446846

>  <Synonyms>
N/A

>  <Target>
PCSK9

>  <Form>
Free base

>  <CAS>
1632250-49-7

>  <URL>
http://www.selleckchem.com/products/pf-06446846.html

$$$$
