PF-04995274
 OpenBabel08302521283D

 63 67  0  0  0  0  0  0  0  0999 V2000
   -2.0361    0.6444    6.7022 O   0  0  0  0  0  0  0  0  0  0  0  0
   -3.4609   -0.8163    9.5674 O   0  0  0  0  0  0  0  0  0  0  0  0
    2.7178   -1.5185    0.7974 O   0  0  0  0  0  0  0  0  0  0  0  0
    1.4601   -2.5757   -2.1820 O   0  0  0  0  0  0  0  0  0  0  0  0
    0.2622   -3.1869   -5.0746 O   0  0  0  0  0  0  0  0  0  0  0  0
    3.6897   -4.7806    1.3103 O   0  0  0  0  0  0  0  0  0  0  0  0
   -0.1499   -1.5958    5.3571 N   0  0  0  0  0  0  0  0  0  0  0  0
    3.7338   -3.4435    1.6204 N   0  0  0  0  0  0  0  0  0  0  0  0
   -2.1208   -0.7570    6.9919 C   0  0  0  0  0  0  0  0  0  0  0  0
    1.6409   -1.0827    3.0057 C   0  0  0  0  0  0  0  0  0  0  0  0
   -1.5904   -1.5841    5.7733 C   0  0  0  0  0  0  0  0  0  0  0  0
   -0.0607   -2.4980    4.1810 C   0  0  0  0  0  0  0  0  0  0  0  0
    0.3817   -0.2593    5.0448 C   0  0  0  0  0  0  0  0  0  0  0  0
    1.2848   -2.5031    3.4512 C   0  0  0  0  0  0  0  0  0  0  0  0
    1.7353   -0.2603    4.2992 C   0  0  0  0  0  0  0  0  0  0  0  0
   -1.3929   -1.0736    8.3072 C   0  0  0  0  0  0  0  0  0  0  0  0
   -3.6290   -1.0610    7.1654 C   0  0  0  0  0  0  0  0  0  0  0  0
    2.9069   -0.9725    2.1250 C   0  0  0  0  0  0  0  0  0  0  0  0
   -2.0953   -0.4136    9.4962 C   0  0  0  0  0  0  0  0  0  0  0  0
   -4.1916   -0.3963    8.4162 C   0  0  0  0  0  0  0  0  0  0  0  0
    3.0423   -2.8313    0.6502 C   0  0  0  0  0  0  0  0  0  0  0  0
    1.7485   -2.1137   -3.5178 C   0  0  2  0  0  0  0  0  0  0  0  0
    2.6712   -3.7203   -0.4036 C   0  0  0  0  0  0  0  0  0  0  0  0
    0.5621   -1.2055   -3.8231 C   0  0  0  0  0  0  0  0  0  0  0  0
    1.6568   -3.0317   -4.7436 C   0  0  0  0  0  0  0  0  0  0  0  0
   -0.4659   -2.2156   -4.3177 C   0  0  0  0  0  0  0  0  0  0  0  0
    2.0098   -3.7205   -1.6623 C   0  0  0  0  0  0  0  0  0  0  0  0
    3.0251   -4.9511    0.1405 C   0  0  0  0  0  0  0  0  0  0  0  0
    1.6563   -4.9674   -2.2122 C   0  0  0  0  0  0  0  0  0  0  0  0
    2.7003   -6.1920   -0.3965 C   0  0  0  0  0  0  0  0  0  0  0  0
    1.9865   -6.1760   -1.5900 C   0  0  0  0  0  0  0  0  0  0  0  0
   -1.1106    0.9148    6.8321 H   0  0  0  0  0  0  0  0  0  0  0  0
    0.8063   -0.6998    2.4007 H   0  0  0  0  0  0  0  0  0  0  0  0
   -1.8547   -2.6318    5.9780 H   0  0  0  0  0  0  0  0  0  0  0  0
   -2.1863   -1.2713    4.9042 H   0  0  0  0  0  0  0  0  0  0  0  0
   -0.8254   -2.2237    3.4407 H   0  0  0  0  0  0  0  0  0  0  0  0
   -0.2790   -3.5247    4.5001 H   0  0  0  0  0  0  0  0  0  0  0  0
    0.5509    0.2772    5.9851 H   0  0  0  0  0  0  0  0  0  0  0  0
   -0.3399    0.3124    4.4512 H   0  0  0  0  0  0  0  0  0  0  0  0
    1.1953   -3.1746    2.5944 H   0  0  0  0  0  0  0  0  0  0  0  0
    2.0661   -2.9126    4.1084 H   0  0  0  0  0  0  0  0  0  0  0  0
    2.5151   -0.6661    4.9480 H   0  0  0  0  0  0  0  0  0  0  0  0
    2.0189    0.7788    4.0763 H   0  0  0  0  0  0  0  0  0  0  0  0
   -1.3966   -2.1592    8.4613 H   0  0  0  0  0  0  0  0  0  0  0  0
   -0.3548   -0.7352    8.2753 H   0  0  0  0  0  0  0  0  0  0  0  0
   -4.1972   -0.7141    6.2948 H   0  0  0  0  0  0  0  0  0  0  0  0
   -3.7752   -2.1458    7.2549 H   0  0  0  0  0  0  0  0  0  0  0  0
    3.0986    0.0955    1.9576 H   0  0  0  0  0  0  0  0  0  0  0  0
    3.8090   -1.3403    2.6290 H   0  0  0  0  0  0  0  0  0  0  0  0
   -1.6144   -0.7267   10.4289 H   0  0  0  0  0  0  0  0  0  0  0  0
   -2.0359    0.6780    9.4489 H   0  0  0  0  0  0  0  0  0  0  0  0
   -5.2371   -0.6953    8.5563 H   0  0  0  0  0  0  0  0  0  0  0  0
   -4.1739    0.6969    8.3430 H   0  0  0  0  0  0  0  0  0  0  0  0
    2.6979   -1.5661   -3.4962 H   0  0  0  0  0  0  0  0  0  0  0  0
    0.1873   -0.6468   -2.9600 H   0  0  0  0  0  0  0  0  0  0  0  0
    0.8044   -0.5052   -4.6287 H   0  0  0  0  0  0  0  0  0  0  0  0
    2.1151   -2.5391   -5.6114 H   0  0  0  0  0  0  0  0  0  0  0  0
    2.1220   -4.0125   -4.6560 H   0  0  0  0  0  0  0  0  0  0  0  0
   -0.9440   -2.7452   -3.4841 H   0  0  0  0  0  0  0  0  0  0  0  0
   -1.2504   -1.7611   -4.9305 H   0  0  0  0  0  0  0  0  0  0  0  0
    1.0340   -5.0197   -3.1022 H   0  0  0  0  0  0  0  0  0  0  0  0
    2.9350   -7.1114    0.1272 H   0  0  0  0  0  0  0  0  0  0  0  0
    1.6458   -7.1150   -2.0214 H   0  0  0  0  0  0  0  0  0  0  0  0
  1  9  1  0  0  0  0
  1 32  1  0  0  0  0
  2 19  1  0  0  0  0
  2 20  1  0  0  0  0
  3 18  1  0  0  0  0
  3 21  1  0  0  0  0
  4 27  1  0  0  0  0
  5 25  1  0  0  0  0
  5 26  1  0  0  0  0
  6  8  1  0  0  0  0
  6 28  1  0  0  0  0
  7 11  1  0  0  0  0
  7 12  1  0  0  0  0
  7 13  1  0  0  0  0
  8 21  2  0  0  0  0
  9 11  1  0  0  0  0
  9 16  1  0  0  0  0
  9 17  1  0  0  0  0
 10 14  1  0  0  0  0
 10 15  1  0  0  0  0
 10 18  1  0  0  0  0
 10 33  1  0  0  0  0
 11 34  1  0  0  0  0
 11 35  1  0  0  0  0
 12 14  1  0  0  0  0
 12 36  1  0  0  0  0
 12 37  1  0  0  0  0
 13 15  1  0  0  0  0
 13 38  1  0  0  0  0
 13 39  1  0  0  0  0
 14 40  1  0  0  0  0
 14 41  1  0  0  0  0
 15 42  1  0  0  0  0
 15 43  1  0  0  0  0
 16 19  1  0  0  0  0
 16 44  1  0  0  0  0
 16 45  1  0  0  0  0
 17 20  1  0  0  0  0
 17 46  1  0  0  0  0
 17 47  1  0  0  0  0
 18 48  1  0  0  0  0
 18 49  1  0  0  0  0
 19 50  1  0  0  0  0
 19 51  1  0  0  0  0
 20 52  1  0  0  0  0
 20 53  1  0  0  0  0
 21 23  1  0  0  0  0
 22 24  1  0  0  0  0
 22 25  1  0  0  0  0
 22 54  1  6  0  0  0
 22  4  1  0  0  0  0
 23 27  1  0  0  0  0
 23 28  2  0  0  0  0
 24 26  1  0  0  0  0
 24 55  1  0  0  0  0
 24 56  1  0  0  0  0
 25 57  1  0  0  0  0
 25 58  1  0  0  0  0
 26 59  1  0  0  0  0
 26 60  1  0  0  0  0
 27 29  2  0  0  0  0
 28 30  1  0  0  0  0
 29 31  1  0  0  0  0
 29 61  1  0  0  0  0
 30 31  2  0  0  0  0
 30 62  1  0  0  0  0
 31 63  1  0  0  0  0
M  END
>  <Mol_ID>
5387

>  <Formula>
C23H32N2O6

>  <MolWeight>
432.50998

>  <Cat>
S0496

>  <Name>
PF-04995274

>  <Synonyms>
PF-4995274

>  <Target>
5-HT Receptor

>  <Form>
Free Base

>  <CAS>
1331782-27-4

>  <URL>
https://www.selleckchem.com/products/pf-04995274.html

$$$$
