PF-6260933
 OpenBabel08302520403D

 34 36  0  0  0  0  0  0  0  0999 V2000
    0.9158   -0.0711    0.0483 C   0  0  0  0  0  0  0  0  0  0  0  0
    0.1896   -1.2741    0.1096 C   0  0  0  0  0  0  0  0  0  0  0  0
   -1.2160   -1.1388    0.0427 C   0  0  0  0  0  0  0  0  0  0  0  0
   -1.8611    0.1056   -0.0530 C   0  0  0  0  0  0  0  0  0  0  0  0
   -1.0110    1.2062   -0.0694 C   0  0  0  0  0  0  0  0  0  0  0  0
    0.3400    1.1453   -0.0281 N   0  0  0  0  0  0  0  0  0  0  0  0
    2.3082   -0.0179    0.0819 N   0  0  0  0  0  0  0  0  0  0  0  0
    0.8032   -2.6273    0.2428 C   0  0  0  0  0  0  0  0  0  0  0  0
    1.9626   -2.8492    1.0092 C   0  0  0  0  0  0  0  0  0  0  0  0
    2.5359   -4.1195    1.1319 C   0  0  0  0  0  0  0  0  0  0  0  0
    1.9399   -5.2161    0.5214 C   0  0  0  0  0  0  0  0  0  0  0  0
    0.7790   -5.0387   -0.2221 C   0  0  0  0  0  0  0  0  0  0  0  0
    0.2283   -3.7602   -0.3700 C   0  0  0  0  0  0  0  0  0  0  0  0
   -3.9657    1.2627   -0.8180 C   0  0  0  0  0  0  0  0  0  0  0  0
   -3.3305    0.2288   -0.1277 C   0  0  0  0  0  0  0  0  0  0  0  0
   -4.1944   -0.6926    0.4796 C   0  0  0  0  0  0  0  0  0  0  0  0
   -5.5789   -0.5552    0.3688 C   0  0  0  0  0  0  0  0  0  0  0  0
   -6.0929    0.5205   -0.3315 C   0  0  0  0  0  0  0  0  0  0  0  0
   -5.3105    1.4280   -0.9325 N   0  0  0  0  0  0  0  0  0  0  0  0
   -7.4670    0.6789   -0.4809 N   0  0  0  0  0  0  0  0  0  0  0  0
   -1.8257   -2.0393    0.0720 H   0  0  0  0  0  0  0  0  0  0  0  0
   -1.3942    2.2226   -0.1069 H   0  0  0  0  0  0  0  0  0  0  0  0
    2.5688    0.9567   -0.0442 H   0  0  0  0  0  0  0  0  0  0  0  0
    2.7154   -0.6228   -0.6223 H   0  0  0  0  0  0  0  0  0  0  0  0
    2.4399   -2.0267    1.5387 H   0  0  0  0  0  0  0  0  0  0  0  0
    3.4447   -4.2461    1.7153 H   0  0  0  0  0  0  0  0  0  0  0  0
    2.3762   -6.2053    0.6292 H   0  0  0  0  0  0  0  0  0  0  0  0
    0.2995   -5.8938   -0.6916 H   0  0  0  0  0  0  0  0  0  0  0  0
   -0.6670   -3.6676   -0.9817 H   0  0  0  0  0  0  0  0  0  0  0  0
   -3.3999    2.0257   -1.3500 H   0  0  0  0  0  0  0  0  0  0  0  0
   -3.8080   -1.5326    1.0495 H   0  0  0  0  0  0  0  0  0  0  0  0
   -6.2395   -1.2875    0.8192 H   0  0  0  0  0  0  0  0  0  0  0  0
   -7.6127    1.5534   -0.9798 H   0  0  0  0  0  0  0  0  0  0  0  0
   -7.9451    0.6697    0.4120 H   0  0  0  0  0  0  0  0  0  0  0  0
  1  2  2  0  0  0  0
  1  6  1  0  0  0  0
  1  7  1  0  0  0  0
  2  3  1  0  0  0  0
  2  8  1  0  0  0  0
  3  4  2  0  0  0  0
  3 21  1  0  0  0  0
  4  5  1  0  0  0  0
  4 15  1  0  0  0  0
  5  6  2  0  0  0  0
  5 22  1  0  0  0  0
  7 23  1  0  0  0  0
  7 24  1  0  0  0  0
  8  9  2  0  0  0  0
  8 13  1  0  0  0  0
  9 10  1  0  0  0  0
  9 25  1  0  0  0  0
 10 11  2  0  0  0  0
 10 26  1  0  0  0  0
 11 12  1  0  0  0  0
 11 27  1  0  0  0  0
 12 13  2  0  0  0  0
 12 28  1  0  0  0  0
 13 29  1  0  0  0  0
 14 15  2  0  0  0  0
 14 19  1  0  0  0  0
 14 30  1  0  0  0  0
 15 16  1  0  0  0  0
 16 17  2  0  0  0  0
 16 31  1  0  0  0  0
 17 18  1  0  0  0  0
 17 32  1  0  0  0  0
 18 19  2  0  0  0  0
 18 20  1  0  0  0  0
 20 33  1  0  0  0  0
 20 34  1  0  0  0  0
M  END
>  <Mol_ID>
3802

>  <Formula>
C16H13ClN4

>  <MolWeight>
296.75422

>  <Cat>
S6499

>  <Name>
PF-6260933

>  <Synonyms>
PF-06260933

>  <Target>
MAP4K

>  <Form>
free base

>  <CAS>
1811510-56-1

>  <URL>
http://www.selleck.cn/products/pf-6260933.html

$$$$
