PF-8380.cdx
 OpenBabel08302520413D

 53 56  0  0  0  0  0  0  0  0999 V2000
    7.0075   -4.0381   -3.8684 C   0  0  0  0  0  0  0  0  0  0  0  0
    7.0193   -2.6119   -3.8337 C   0  0  0  0  0  0  0  0  0  0  0  0
    7.8090   -1.9200   -4.7674 C   0  0  0  0  0  0  0  0  0  0  0  0
    8.5554   -2.6705   -5.6599 C   0  0  0  0  0  0  0  0  0  0  0  0
    8.5199   -4.0535   -5.6770 C   0  0  0  0  0  0  0  0  0  0  0  0
    7.7478   -4.7750   -4.8028 C   0  0  0  0  0  0  0  0  0  0  0  0
    9.4463   -2.1761   -6.6113 O   0  0  0  0  0  0  0  0  0  0  0  0
    9.9804   -3.3475   -7.1769 C   0  0  0  0  0  0  0  0  0  0  0  0
    9.3933   -4.4671   -6.6383 N   0  0  0  0  0  0  0  0  0  0  0  0
    6.1926   -1.9344   -2.7607 C   0  0  0  0  0  0  0  0  0  0  0  0
    5.6677   -2.6407   -1.8995 O   0  0  0  0  0  0  0  0  0  0  0  0
    6.0030   -0.4166   -2.7676 C   0  0  0  0  0  0  0  0  0  0  0  0
    5.1830    0.1014   -1.5523 C   0  0  0  0  0  0  0  0  0  0  0  0
    5.1867    1.5801   -1.4496 N   0  0  0  0  0  0  0  0  0  0  0  0
    4.3127    2.2382   -2.4531 C   0  0  0  0  0  0  0  0  0  0  0  0
    4.4178    3.7833   -2.3792 C   0  0  0  0  0  0  0  0  0  0  0  0
    4.1281    4.2572   -1.0271 N   0  0  0  0  0  0  0  0  0  0  0  0
    4.9342    3.6019    0.0027 C   0  0  0  0  0  0  0  0  0  0  0  0
    4.7854    2.0617   -0.0960 C   0  0  0  0  0  0  0  0  0  0  0  0
    3.0294    5.0352   -0.6983 C   0  0  0  0  0  0  0  0  0  0  0  0
    2.3728    5.4923   -1.7981 O   0  0  0  0  0  0  0  0  0  0  0  0
    2.6854    5.2760    0.4521 O   0  0  0  0  0  0  0  0  0  0  0  0
    1.1825    6.2760   -1.5993 C   0  0  0  0  0  0  0  0  0  0  0  0
    1.3521    7.6282   -2.2539 C   0  0  0  0  0  0  0  0  0  0  0  0
    0.7003    7.9518   -3.4543 C   0  0  0  0  0  0  0  0  0  0  0  0
    0.9095    9.1922   -4.0657 C   0  0  0  0  0  0  0  0  0  0  0  0
    1.7640   10.1251   -3.4806 C   0  0  0  0  0  0  0  0  0  0  0  0
    2.3951    9.8253   -2.2749 C   0  0  0  0  0  0  0  0  0  0  0  0
    2.1901    8.5868   -1.6648 C   0  0  0  0  0  0  0  0  0  0  0  0
   10.8598   -3.3597   -8.0254 O   0  0  0  0  0  0  0  0  0  0  0  0
    6.4121   -4.5854   -3.1378 H   0  0  0  0  0  0  0  0  0  0  0  0
    7.8752   -0.8372   -4.7879 H   0  0  0  0  0  0  0  0  0  0  0  0
    7.7280   -5.8574   -4.8095 H   0  0  0  0  0  0  0  0  0  0  0  0
    9.6475   -5.4077   -6.8898 H   0  0  0  0  0  0  0  0  0  0  0  0
    6.9933    0.0511   -2.7481 H   0  0  0  0  0  0  0  0  0  0  0  0
    5.4910   -0.1527   -3.6981 H   0  0  0  0  0  0  0  0  0  0  0  0
    4.1565   -0.2882   -1.5847 H   0  0  0  0  0  0  0  0  0  0  0  0
    5.6398   -0.3142   -0.6439 H   0  0  0  0  0  0  0  0  0  0  0  0
    4.5929    1.9308   -3.4635 H   0  0  0  0  0  0  0  0  0  0  0  0
    3.2661    1.9442   -2.2900 H   0  0  0  0  0  0  0  0  0  0  0  0
    5.4414    4.0972   -2.6189 H   0  0  0  0  0  0  0  0  0  0  0  0
    3.7530    4.2362   -3.1187 H   0  0  0  0  0  0  0  0  0  0  0  0
    5.9822    3.8774   -0.1806 H   0  0  0  0  0  0  0  0  0  0  0  0
    4.6737    3.9611    1.0031 H   0  0  0  0  0  0  0  0  0  0  0  0
    3.7433    1.7867    0.1194 H   0  0  0  0  0  0  0  0  0  0  0  0
    5.4167    1.6037    0.6741 H   0  0  0  0  0  0  0  0  0  0  0  0
    0.3615    5.7310   -2.0802 H   0  0  0  0  0  0  0  0  0  0  0  0
    0.9057    6.4012   -0.5468 H   0  0  0  0  0  0  0  0  0  0  0  0
    0.0264    7.2413   -3.9285 H   0  0  0  0  0  0  0  0  0  0  0  0
    0.4117    9.4306   -5.0026 H   0  0  0  0  0  0  0  0  0  0  0  0
    1.9380   11.0830   -3.9625 H   0  0  0  0  0  0  0  0  0  0  0  0
    3.0551   10.5553   -1.8113 H   0  0  0  0  0  0  0  0  0  0  0  0
    2.6917    8.3651   -0.7247 H   0  0  0  0  0  0  0  0  0  0  0  0
  1  2  2  0  0  0  0
  1 31  1  0  0  0  0
  2  3  1  0  0  0  0
  2 10  1  0  0  0  0
  3  4  2  0  0  0  0
  3 32  1  0  0  0  0
  4  5  1  0  0  0  0
  4  7  1  0  0  0  0
  5  6  2  0  0  0  0
  6  1  1  0  0  0  0
  6 33  1  0  0  0  0
  7  8  1  0  0  0  0
  8  9  1  0  0  0  0
  8 30  2  0  0  0  0
  9  5  1  0  0  0  0
  9 34  1  0  0  0  0
 10 11  2  0  0  0  0
 10 12  1  0  0  0  0
 12 13  1  0  0  0  0
 12 35  1  0  0  0  0
 12 36  1  0  0  0  0
 13 14  1  0  0  0  0
 13 37  1  0  0  0  0
 13 38  1  0  0  0  0
 14 15  1  0  0  0  0
 15 16  1  0  0  0  0
 15 39  1  0  0  0  0
 15 40  1  0  0  0  0
 16 17  1  0  0  0  0
 16 41  1  0  0  0  0
 16 42  1  0  0  0  0
 17 18  1  0  0  0  0
 17 20  1  0  0  0  0
 18 19  1  0  0  0  0
 18 43  1  0  0  0  0
 18 44  1  0  0  0  0
 19 14  1  0  0  0  0
 19 45  1  0  0  0  0
 19 46  1  0  0  0  0
 20 21  1  0  0  0  0
 20 22  2  0  0  0  0
 21 23  1  0  0  0  0
 23 24  1  0  0  0  0
 23 47  1  0  0  0  0
 23 48  1  0  0  0  0
 24 25  2  0  0  0  0
 25 26  1  0  0  0  0
 25 49  1  0  0  0  0
 26 27  2  0  0  0  0
 26 50  1  0  0  0  0
 27 28  1  0  0  0  0
 27 51  1  0  0  0  0
 28 29  2  0  0  0  0
 28 52  1  0  0  0  0
 29 24  1  0  0  0  0
 29 53  1  0  0  0  0
M  END
>  <Mol_ID>
3943

>  <Formula>
C22H21Cl2N3O5

>  <MolWeight>
478.32524

>  <Cat>
S8218

>  <Name>
PF-8380

>  <Synonyms>
N/A

>  <Target>
PDE

>  <Form>
free base

>  <CAS>
1144035-53-9

>  <URL>
http://selleckchem.com/products/pf-8380.html

$$$$
