PF-9363 (CTx-648)
 OpenBabel08302521353D

 51 54  0  0  0  0  0  0  0  0999 V2000
    0.6870    0.8181    1.7022 S   0  0  0  0  0  0  0  0  0  0  0  0
    2.2481    4.8792    0.7190 O   0  0  0  0  0  0  0  0  0  0  0  0
    1.9994    1.7071   -2.7693 O   0  0  0  0  0  0  0  0  0  0  0  0
    2.0490    1.0213    2.1289 O   0  0  0  0  0  0  0  0  0  0  0  0
    0.3526   -0.4624    1.0852 O   0  0  0  0  0  0  0  0  0  0  0  0
   -2.4355    0.5789    1.9277 O   0  0  0  0  0  0  0  0  0  0  0  0
    1.0298    2.2939    4.6895 O   0  0  0  0  0  0  0  0  0  0  0  0
    0.3114    1.9697    0.4596 N   0  0  0  0  0  0  0  0  0  0  0  0
    6.9089    3.7599   -1.8124 N   0  0  0  0  0  0  0  0  0  0  0  0
    1.1702    4.0881    1.0267 N   0  0  0  0  0  0  0  0  0  0  0  0
    7.5050    4.2039   -0.6837 N   0  0  0  0  0  0  0  0  0  0  0  0
    2.1565    3.2825   -0.8580 C   0  0  0  0  0  0  0  0  0  0  0  0
    4.5432    4.2787   -2.0704 C   0  0  0  0  0  0  0  0  0  0  0  0
    2.8625    4.3837   -0.3784 C   0  0  0  0  0  0  0  0  0  0  0  0
    1.2128    3.0363    0.2177 C   0  0  0  0  0  0  0  0  0  0  0  0
    2.5840    2.7699   -2.0976 C   0  0  0  0  0  0  0  0  0  0  0  0
    4.0374    4.9067   -0.9250 C   0  0  0  0  0  0  0  0  0  0  0  0
    5.9549    4.6060   -2.5285 C   0  0  0  0  0  0  0  0  0  0  0  0
    3.7847    3.2571   -2.6802 C   0  0  0  0  0  0  0  0  0  0  0  0
   -0.4118    1.0122    3.1304 C   0  0  0  0  0  0  0  0  0  0  0  0
   -1.6704    0.3918    3.0686 C   0  0  0  0  0  0  0  0  0  0  0  0
   -0.0462    1.5102    4.3873 C   0  0  0  0  0  0  0  0  0  0  0  0
   -2.4070    0.0129    4.2093 C   0  0  0  0  0  0  0  0  0  0  0  0
   -0.8700    1.2811    5.5194 C   0  0  0  0  0  0  0  0  0  0  0  0
    7.2324    2.4630   -2.1117 C   0  0  0  0  0  0  0  0  0  0  0  0
   -2.0086    0.4785    5.4480 C   0  0  0  0  0  0  0  0  0  0  0  0
    7.9911    2.0071   -1.0594 C   0  0  0  0  0  0  0  0  0  0  0  0
    0.6828    1.9935   -3.2393 C   0  0  0  0  0  0  0  0  0  0  0  0
    8.1359    3.1228   -0.2148 C   0  0  0  0  0  0  0  0  0  0  0  0
   -2.7632    1.9870    1.9173 C   0  0  0  0  0  0  0  0  0  0  0  0
    1.1927    3.3857    3.7954 C   0  0  0  0  0  0  0  0  0  0  0  0
    0.0932    1.4017   -0.3601 H   0  0  0  0  0  0  0  0  0  0  0  0
    4.5794    5.7022   -0.4175 H   0  0  0  0  0  0  0  0  0  0  0  0
    6.0933    4.4314   -3.5996 H   0  0  0  0  0  0  0  0  0  0  0  0
    6.2164    5.6498   -2.3237 H   0  0  0  0  0  0  0  0  0  0  0  0
    4.1580    2.7999   -3.5985 H   0  0  0  0  0  0  0  0  0  0  0  0
   -3.3503   -0.5211    4.1101 H   0  0  0  0  0  0  0  0  0  0  0  0
   -0.6237    1.7573    6.4691 H   0  0  0  0  0  0  0  0  0  0  0  0
    6.8475    1.9694   -2.9895 H   0  0  0  0  0  0  0  0  0  0  0  0
   -2.6191    0.3055    6.3332 H   0  0  0  0  0  0  0  0  0  0  0  0
    8.3762    1.0070   -0.9190 H   0  0  0  0  0  0  0  0  0  0  0  0
    0.0462    1.1547   -2.9443 H   0  0  0  0  0  0  0  0  0  0  0  0
    0.2517    2.9208   -2.8466 H   0  0  0  0  0  0  0  0  0  0  0  0
    0.6857    2.0438   -4.3347 H   0  0  0  0  0  0  0  0  0  0  0  0
    8.6694    3.1873    0.7240 H   0  0  0  0  0  0  0  0  0  0  0  0
   -3.1020    2.3438    2.9018 H   0  0  0  0  0  0  0  0  0  0  0  0
   -1.8914    2.5779    1.6205 H   0  0  0  0  0  0  0  0  0  0  0  0
   -3.5578    2.1605    1.1947 H   0  0  0  0  0  0  0  0  0  0  0  0
    2.0662    3.1805    3.1760 H   0  0  0  0  0  0  0  0  0  0  0  0
    0.2941    3.5713    3.1961 H   0  0  0  0  0  0  0  0  0  0  0  0
    1.3988    4.3020    4.3529 H   0  0  0  0  0  0  0  0  0  0  0  0
  1  4  2  0  0  0  0
  1  5  2  0  0  0  0
  1  8  1  0  0  0  0
  1 20  1  0  0  0  0
  2 10  1  0  0  0  0
  2 14  1  0  0  0  0
  3 16  1  0  0  0  0
  3 28  1  0  0  0  0
  6 21  1  0  0  0  0
  6 30  1  0  0  0  0
  7 22  1  0  0  0  0
  7 31  1  0  0  0  0
  8 15  1  0  0  0  0
  8 32  1  0  0  0  0
  9 11  1  0  0  0  0
  9 18  1  0  0  0  0
  9 25  1  0  0  0  0
 10 15  2  0  0  0  0
 11 29  2  0  0  0  0
 12 14  2  0  0  0  0
 12 15  1  0  0  0  0
 12 16  1  0  0  0  0
 13 17  2  0  0  0  0
 13 18  1  0  0  0  0
 13 19  1  0  0  0  0
 14 17  1  0  0  0  0
 16 19  2  0  0  0  0
 17 33  1  0  0  0  0
 18 34  1  0  0  0  0
 18 35  1  0  0  0  0
 19 36  1  0  0  0  0
 20 21  2  0  0  0  0
 20 22  1  0  0  0  0
 21 23  1  0  0  0  0
 22 24  2  0  0  0  0
 23 26  2  0  0  0  0
 23 37  1  0  0  0  0
 24 26  1  0  0  0  0
 24 38  1  0  0  0  0
 25 27  2  0  0  0  0
 25 39  1  0  0  0  0
 26 40  1  0  0  0  0
 27 29  1  0  0  0  0
 27 41  1  0  0  0  0
 28 42  1  0  0  0  0
 28 43  1  0  0  0  0
 28 44  1  0  0  0  0
 29 45  1  0  0  0  0
 30 46  1  0  0  0  0
 30 47  1  0  0  0  0
 30 48  1  0  0  0  0
 31 49  1  0  0  0  0
 31 50  1  0  0  0  0
 31 51  1  0  0  0  0
M  END
>  <Mol_ID>
6797

>  <Formula>
C20H20N4O6S

>  <MolWeight>
444.461

>  <Cat>
E0146

>  <Name>
PF-9363 (CTx-648)

>  <Synonyms>
N/A

>  <Target>
Histone Acetyltransferase

>  <Form>
Free base

>  <CAS>
2569009-58-9

>  <URL>
http://www.selleckchem.com/products/pf-9363-ctx-648.html

$$$$
