PF477736.cdx
 OpenBabel08302522013D

 56 60  0  0  0  0  0  0  0  0999 V2000
    2.3256   -0.7579   -0.4039 C   0  0  0  0  0  0  0  0  0  0  0  0
    2.2063    0.6183   -0.1808 C   0  0  0  0  0  0  0  0  0  0  0  0
    0.9338    1.1849    0.0672 C   0  0  0  0  0  0  0  0  0  0  0  0
   -0.1662    0.3255    0.1551 C   0  0  0  0  0  0  0  0  0  0  0  0
   -0.0272   -1.0523    0.0584 C   0  0  0  0  0  0  0  0  0  0  0  0
    1.2075   -1.5970   -0.3142 C   0  0  0  0  0  0  0  0  0  0  0  0
   -1.5234    0.5506    0.2977 N   0  0  0  0  0  0  0  0  0  0  0  0
   -2.2034   -0.6519    0.3381 C   0  0  0  0  0  0  0  0  0  0  0  0
   -1.2617   -1.6539    0.4305 C   0  0  0  0  0  0  0  0  0  0  0  0
   -3.6758   -0.7687    0.1659 C   0  0  0  0  0  0  0  0  0  0  0  0
    3.3228    1.4784   -0.2070 N   0  0  0  0  0  0  0  0  0  0  0  0
    4.5947    1.1813   -0.6771 C   0  0  0  0  0  0  0  0  0  0  0  0
    5.5817    2.3783   -0.5675 C   0  0  1  0  0  0  0  0  0  0  0  0
    6.6187    2.3498   -1.7323 C   0  0  0  0  0  0  0  0  0  0  0  0
    4.9569    0.1077   -1.1427 O   0  0  0  0  0  0  0  0  0  0  0  0
    4.8201    3.6496   -0.4529 N   0  0  0  0  0  0  0  0  0  0  0  0
    7.7097    3.4302   -1.5777 C   0  0  0  0  0  0  0  0  0  0  0  0
    8.7060    3.4282   -2.7383 C   0  0  0  0  0  0  0  0  0  0  0  0
    7.9976    3.5536   -4.0820 C   0  0  0  0  0  0  0  0  0  0  0  0
    6.9722    2.4428   -4.2592 C   0  0  0  0  0  0  0  0  0  0  0  0
    5.9536    2.4387   -3.1219 C   0  0  0  0  0  0  0  0  0  0  0  0
   -4.5980    0.2790   -0.0388 C   0  0  0  0  0  0  0  0  0  0  0  0
   -5.8291   -0.1654   -0.2972 N   0  0  0  0  0  0  0  0  0  0  0  0
   -5.6932   -1.5037   -0.2747 N   0  0  0  0  0  0  0  0  0  0  0  0
   -4.4207   -1.9156    0.0248 C   0  0  0  0  0  0  0  0  0  0  0  0
   -6.8303   -2.3280   -0.6092 C   0  0  0  0  0  0  0  0  0  0  0  0
   -1.4011   -3.0604    0.7560 C   0  0  0  0  0  0  0  0  0  0  0  0
   -0.7381   -4.0031    0.1484 N   0  0  0  0  0  0  0  0  0  0  0  0
    0.0402   -3.6311   -0.9537 N   0  0  0  0  0  0  0  0  0  0  0  0
    1.2669   -3.0438   -0.6314 C   0  0  0  0  0  0  0  0  0  0  0  0
    2.3345   -3.6338   -0.6853 O   0  0  0  0  0  0  0  0  0  0  0  0
    3.2760   -1.2259   -0.6296 H   0  0  0  0  0  0  0  0  0  0  0  0
    0.8100    2.2652    0.1759 H   0  0  0  0  0  0  0  0  0  0  0  0
   -1.9535    1.4556    0.2573 H   0  0  0  0  0  0  0  0  0  0  0  0
    3.2091    2.4468    0.0909 H   0  0  0  0  0  0  0  0  0  0  0  0
    6.1165    2.2304    0.3791 H   0  0  0  0  0  0  0  0  0  0  0  0
    7.1336    1.3780   -1.6856 H   0  0  0  0  0  0  0  0  0  0  0  0
    5.4927    4.4181   -0.3774 H   0  0  0  0  0  0  0  0  0  0  0  0
    4.3293    3.8154   -1.3327 H   0  0  0  0  0  0  0  0  0  0  0  0
    7.2571    4.4266   -1.5248 H   0  0  0  0  0  0  0  0  0  0  0  0
    8.2542    3.2758   -0.6384 H   0  0  0  0  0  0  0  0  0  0  0  0
    9.4107    4.2591   -2.6186 H   0  0  0  0  0  0  0  0  0  0  0  0
    9.2962    2.5039   -2.7191 H   0  0  0  0  0  0  0  0  0  0  0  0
    7.4978    4.5282   -4.1461 H   0  0  0  0  0  0  0  0  0  0  0  0
    8.7302    3.5156   -4.8958 H   0  0  0  0  0  0  0  0  0  0  0  0
    6.4513    2.5693   -5.2149 H   0  0  0  0  0  0  0  0  0  0  0  0
    7.4836    1.4730   -4.3004 H   0  0  0  0  0  0  0  0  0  0  0  0
    5.2768    1.5911   -3.2752 H   0  0  0  0  0  0  0  0  0  0  0  0
    5.3449    3.3470   -3.1933 H   0  0  0  0  0  0  0  0  0  0  0  0
   -4.4256    1.3462   -0.0496 H   0  0  0  0  0  0  0  0  0  0  0  0
   -4.1716   -2.9682    0.0457 H   0  0  0  0  0  0  0  0  0  0  0  0
   -7.6271   -2.1220    0.1101 H   0  0  0  0  0  0  0  0  0  0  0  0
   -7.1560   -2.0705   -1.6214 H   0  0  0  0  0  0  0  0  0  0  0  0
   -6.5460   -3.3814   -0.5665 H   0  0  0  0  0  0  0  0  0  0  0  0
   -2.0291   -3.3300    1.6210 H   0  0  0  0  0  0  0  0  0  0  0  0
   -0.5178   -2.9987   -1.5396 H   0  0  0  0  0  0  0  0  0  0  0  0
  1  2  2  0  0  0  0
  1 32  1  0  0  0  0
  2  3  1  0  0  0  0
  2 11  1  0  0  0  0
  3  4  2  0  0  0  0
  3 33  1  0  0  0  0
  4  5  1  0  0  0  0
  4  7  1  0  0  0  0
  5  6  2  0  0  0  0
  6  1  1  0  0  0  0
  7  8  1  0  0  0  0
  7 34  1  0  0  0  0
  8  9  2  0  0  0  0
  8 10  1  0  0  0  0
  9  5  1  0  0  0  0
  9 27  1  0  0  0  0
 10 22  1  0  0  0  0
 11 12  1  0  0  0  0
 11 35  1  0  0  0  0
 12 13  1  0  0  0  0
 12 15  2  0  0  0  0
 13 14  1  0  0  0  0
 13 16  1  0  0  0  0
 13 36  1  1  0  0  0
 14 17  1  0  0  0  0
 14 37  1  0  0  0  0
 16 38  1  0  0  0  0
 16 39  1  0  0  0  0
 17 18  1  0  0  0  0
 17 40  1  0  0  0  0
 17 41  1  0  0  0  0
 18 19  1  0  0  0  0
 18 42  1  0  0  0  0
 18 43  1  0  0  0  0
 19 20  1  0  0  0  0
 19 44  1  0  0  0  0
 19 45  1  0  0  0  0
 20 21  1  0  0  0  0
 20 46  1  0  0  0  0
 20 47  1  0  0  0  0
 21 14  1  0  0  0  0
 21 48  1  0  0  0  0
 21 49  1  0  0  0  0
 22 23  2  0  0  0  0
 22 50  1  0  0  0  0
 23 24  1  0  0  0  0
 24 25  1  0  0  0  0
 24 26  1  0  0  0  0
 25 10  2  0  0  0  0
 25 51  1  0  0  0  0
 26 52  1  0  0  0  0
 26 53  1  0  0  0  0
 26 54  1  0  0  0  0
 27 28  2  0  0  0  0
 27 55  1  0  0  0  0
 28 29  1  0  0  0  0
 29 30  1  0  0  0  0
 29 56  1  0  0  0  0
 30  6  1  0  0  0  0
 30 31  2  0  0  0  0
M  END
>  <Mol_ID>
1089

>  <Formula>
C22H25N7O2

>  <MolWeight>
419.4796

>  <Cat>
S2904

>  <Name>
PF-477736

>  <Synonyms>
PF-736, PF-00477736

>  <Target>
Chk

>  <Form>
free base

>  <CAS>
952021-60-2

>  <URL>
http://selleckchem.com/products/pf-477736.html

$$$$
