PF 04418948.cdx
 OpenBabel08302519563D

 50 53  0  0  0  0  0  0  0  0999 V2000
   -4.3289   -1.5222    6.2081 C   0  0  0  0  0  0  0  0  0  0  0  0
   -4.5122   -0.1503    6.3694 C   0  0  0  0  0  0  0  0  0  0  0  0
   -4.5397    0.6757    5.2366 C   0  0  0  0  0  0  0  0  0  0  0  0
   -4.3616    0.1481    3.9421 C   0  0  0  0  0  0  0  0  0  0  0  0
   -4.2076   -1.2463    3.7996 C   0  0  0  0  0  0  0  0  0  0  0  0
   -4.2020   -2.0650    4.9317 C   0  0  0  0  0  0  0  0  0  0  0  0
   -4.3076    0.9443    2.7819 C   0  0  0  0  0  0  0  0  0  0  0  0
   -4.0531    0.3712    1.5260 C   0  0  0  0  0  0  0  0  0  0  0  0
   -3.8875   -1.0103    1.3967 C   0  0  0  0  0  0  0  0  0  0  0  0
   -4.0194   -1.8083    2.5321 C   0  0  0  0  0  0  0  0  0  0  0  0
   -4.6676    0.4849    7.5718 O   0  0  0  0  0  0  0  0  0  0  0  0
   -4.5872   -0.3337    8.7366 C   0  0  0  0  0  0  0  0  0  0  0  0
   -3.5633   -1.4797    0.1456 O   0  0  0  0  0  0  0  0  0  0  0  0
   -3.4262   -2.9125    0.0362 C   0  0  0  0  0  0  0  0  0  0  0  0
   -2.9011   -3.2667   -1.3565 C   0  0  0  0  0  0  0  0  0  0  0  0
   -3.8444   -2.7896   -2.4777 C   0  0  0  0  0  0  0  0  0  0  0  0
   -3.8520   -4.1489   -2.9694 N   0  0  0  0  0  0  0  0  0  0  0  0
   -3.2603   -4.7202   -1.7776 C   0  0  0  0  0  0  0  0  0  0  0  0
   -4.2153   -4.7555   -4.1489 C   0  0  0  0  0  0  0  0  0  0  0  0
   -4.9680   -3.9408   -5.1399 C   0  0  0  0  0  0  0  0  0  0  0  0
   -3.9639   -5.9314   -4.4027 O   0  0  0  0  0  0  0  0  0  0  0  0
   -4.7717   -4.1488   -6.5126 C   0  0  0  0  0  0  0  0  0  0  0  0
   -5.4915   -3.3886   -7.4427 C   0  0  0  0  0  0  0  0  0  0  0  0
   -6.3948   -2.4258   -7.0002 C   0  0  0  0  0  0  0  0  0  0  0  0
   -6.6192   -2.2292   -5.6458 C   0  0  0  0  0  0  0  0  0  0  0  0
   -5.9301   -3.0099   -4.7204 C   0  0  0  0  0  0  0  0  0  0  0  0
   -7.0703   -1.6870   -7.8897 F   0  0  0  0  0  0  0  0  0  0  0  0
   -1.3911   -2.8860   -1.5182 C   0  0  0  0  0  0  0  0  0  0  0  0
   -1.1386   -1.5560   -1.3674 O   0  0  0  0  0  0  0  0  0  0  0  0
   -0.4703   -3.6606   -1.7455 O   0  0  0  0  0  0  0  0  0  0  0  0
   -4.2719   -2.2019    7.0505 H   0  0  0  0  0  0  0  0  0  0  0  0
   -4.6792    1.7465    5.3769 H   0  0  0  0  0  0  0  0  0  0  0  0
   -4.0610   -3.1393    4.8348 H   0  0  0  0  0  0  0  0  0  0  0  0
   -4.4300    2.0230    2.8583 H   0  0  0  0  0  0  0  0  0  0  0  0
   -3.9754    1.0180    0.6561 H   0  0  0  0  0  0  0  0  0  0  0  0
   -3.9439   -2.8881    2.4728 H   0  0  0  0  0  0  0  0  0  0  0  0
   -5.3452   -1.1248    8.7236 H   0  0  0  0  0  0  0  0  0  0  0  0
   -3.5819   -0.7552    8.8483 H   0  0  0  0  0  0  0  0  0  0  0  0
   -4.7858    0.2953    9.6090 H   0  0  0  0  0  0  0  0  0  0  0  0
   -2.7146   -3.2897    0.7803 H   0  0  0  0  0  0  0  0  0  0  0  0
   -4.4123   -3.3641    0.2045 H   0  0  0  0  0  0  0  0  0  0  0  0
   -4.8234   -2.4547   -2.1238 H   0  0  0  0  0  0  0  0  0  0  0  0
   -3.4236   -2.0555   -3.1687 H   0  0  0  0  0  0  0  0  0  0  0  0
   -2.4254   -5.4001   -1.9642 H   0  0  0  0  0  0  0  0  0  0  0  0
   -4.0131   -5.2313   -1.1679 H   0  0  0  0  0  0  0  0  0  0  0  0
   -4.0676   -4.9032   -6.8588 H   0  0  0  0  0  0  0  0  0  0  0  0
   -5.3561   -3.5423   -8.5084 H   0  0  0  0  0  0  0  0  0  0  0  0
   -7.3373   -1.4868   -5.3135 H   0  0  0  0  0  0  0  0  0  0  0  0
   -6.1766   -2.8995   -3.6715 H   0  0  0  0  0  0  0  0  0  0  0  0
   -1.9189   -1.0407   -1.0719 H   0  0  0  0  0  0  0  0  0  0  0  0
  1  2  2  0  0  0  0
  1 31  1  0  0  0  0
  2  3  1  0  0  0  0
  2 11  1  0  0  0  0
  3  4  2  0  0  0  0
  3 32  1  0  0  0  0
  4  5  1  0  0  0  0
  4  7  1  0  0  0  0
  5  6  2  0  0  0  0
  6  1  1  0  0  0  0
  6 33  1  0  0  0  0
  7  8  2  0  0  0  0
  7 34  1  0  0  0  0
  8  9  1  0  0  0  0
  8 35  1  0  0  0  0
  9 10  2  0  0  0  0
  9 13  1  0  0  0  0
 10  5  1  0  0  0  0
 10 36  1  0  0  0  0
 11 12  1  0  0  0  0
 12 37  1  0  0  0  0
 12 38  1  0  0  0  0
 12 39  1  0  0  0  0
 13 14  1  0  0  0  0
 14 15  1  0  0  0  0
 14 40  1  0  0  0  0
 14 41  1  0  0  0  0
 15 16  1  0  0  0  0
 15 28  1  0  0  0  0
 16 17  1  0  0  0  0
 16 42  1  0  0  0  0
 16 43  1  0  0  0  0
 17 18  1  0  0  0  0
 17 19  1  0  0  0  0
 18 15  1  0  0  0  0
 18 44  1  0  0  0  0
 18 45  1  0  0  0  0
 19 20  1  0  0  0  0
 19 21  2  0  0  0  0
 20 22  2  0  0  0  0
 22 23  1  0  0  0  0
 22 46  1  0  0  0  0
 23 24  2  0  0  0  0
 23 47  1  0  0  0  0
 24 25  1  0  0  0  0
 24 27  1  0  0  0  0
 25 26  2  0  0  0  0
 25 48  1  0  0  0  0
 26 20  1  0  0  0  0
 26 49  1  0  0  0  0
 28 29  1  0  0  0  0
 28 30  2  0  0  0  0
 29 50  1  0  0  0  0
M  END
>  <Mol_ID>
2204

>  <Formula>
C23H20FNO5

>  <MolWeight>
409.4070032

>  <Cat>
S7211

>  <Name>
PF-04418948

>  <Synonyms>
N/A

>  <Target>
Prostaglandin Receptor

>  <Form>
free base

>  <CAS>
1078166-57-0

>  <URL>
http://selleckchem.com/products/pf-04418948.html

$$$$
