PF 3716556.cdx
 OpenBabel08302521243D

 55 58  0  0  0  0  0  0  0  0999 V2000
   -4.7005    2.0773   -3.7976 C   0  0  0  0  0  0  0  0  0  0  0  0
   -3.4658    2.7217   -3.7802 C   0  0  0  0  0  0  0  0  0  0  0  0
   -2.8498    3.0721   -2.5646 C   0  0  0  0  0  0  0  0  0  0  0  0
   -3.4880    2.7341   -1.3456 C   0  0  0  0  0  0  0  0  0  0  0  0
   -4.7076    2.0414   -1.3899 C   0  0  0  0  0  0  0  0  0  0  0  0
   -5.3221    1.7399   -2.6019 C   0  0  0  0  0  0  0  0  0  0  0  0
   -2.9252    3.1566   -0.0180 C   0  0  1  0  0  0  0  0  0  0  0  0
   -3.8667    2.8440    1.1465 C   0  0  0  0  0  0  0  0  0  0  0  0
   -4.5823    1.5296    0.8961 C   0  0  0  0  0  0  0  0  0  0  0  0
   -5.3949    1.6339   -0.2714 O   0  0  0  0  0  0  0  0  0  0  0  0
   -1.4960    3.7373   -2.6364 C   0  0  0  0  0  0  0  0  0  0  0  0
   -1.6097    2.5695    0.1839 N   0  0  0  0  0  0  0  0  0  0  0  0
   -0.7128    3.0076    1.1315 C   0  0  0  0  0  0  0  0  0  0  0  0
   -0.3065    4.2849    1.2006 C   0  0  0  0  0  0  0  0  0  0  0  0
    0.3765    4.8842    2.3483 C   0  0  0  0  0  0  0  0  0  0  0  0
    0.3520    4.1602    3.4901 C   0  0  0  0  0  0  0  0  0  0  0  0
   -0.1046    2.8253    3.4409 N   0  0  0  0  0  0  0  0  0  0  0  0
   -0.4348    2.1829    2.2617 C   0  0  0  0  0  0  0  0  0  0  0  0
   -0.4099    1.9223    4.4376 C   0  0  0  0  0  0  0  0  0  0  0  0
   -0.6807    0.7272    3.7907 C   0  0  0  0  0  0  0  0  0  0  0  0
   -0.6008    0.8860    2.4358 N   0  0  0  0  0  0  0  0  0  0  0  0
   -1.1430   -0.5811    4.3007 C   0  0  0  0  0  0  0  0  0  0  0  0
    0.8011    6.3194    2.1372 C   0  0  0  0  0  0  0  0  0  0  0  0
    1.9994    6.8103    2.6269 N   0  0  0  0  0  0  0  0  0  0  0  0
    2.4831    8.0750    2.0371 C   0  0  0  0  0  0  0  0  0  0  0  0
    0.1044    7.0183    1.3928 O   0  0  0  0  0  0  0  0  0  0  0  0
    2.8397    6.1730    3.6223 C   0  0  0  0  0  0  0  0  0  0  0  0
    1.8131    9.3175    2.6271 C   0  0  0  0  0  0  0  0  0  0  0  0
    2.0965    9.4265    4.0202 O   0  0  0  0  0  0  0  0  0  0  0  0
   -5.1719    1.8275   -4.7423 H   0  0  0  0  0  0  0  0  0  0  0  0
   -2.9807    2.9616   -4.7237 H   0  0  0  0  0  0  0  0  0  0  0  0
   -6.2802    1.2240   -2.6121 H   0  0  0  0  0  0  0  0  0  0  0  0
   -2.8272    4.2481   -0.0409 H   0  0  0  0  0  0  0  0  0  0  0  0
   -4.6255    3.6362    1.2082 H   0  0  0  0  0  0  0  0  0  0  0  0
   -3.3474    2.8110    2.1129 H   0  0  0  0  0  0  0  0  0  0  0  0
   -3.8911    0.6805    0.7971 H   0  0  0  0  0  0  0  0  0  0  0  0
   -5.2458    1.3070    1.7326 H   0  0  0  0  0  0  0  0  0  0  0  0
   -1.3054    4.3801   -1.7728 H   0  0  0  0  0  0  0  0  0  0  0  0
   -0.7080    2.9833   -2.7049 H   0  0  0  0  0  0  0  0  0  0  0  0
   -1.4343    4.3898   -3.5114 H   0  0  0  0  0  0  0  0  0  0  0  0
   -1.2853    1.8379   -0.4418 H   0  0  0  0  0  0  0  0  0  0  0  0
   -0.6201    4.9699    0.4096 H   0  0  0  0  0  0  0  0  0  0  0  0
    0.6523    4.5266    4.4599 H   0  0  0  0  0  0  0  0  0  0  0  0
   -0.4757    2.2143    5.4753 H   0  0  0  0  0  0  0  0  0  0  0  0
   -0.3651   -1.3404    4.1802 H   0  0  0  0  0  0  0  0  0  0  0  0
   -1.4418   -0.5330    5.3495 H   0  0  0  0  0  0  0  0  0  0  0  0
   -2.0152   -0.9060    3.7184 H   0  0  0  0  0  0  0  0  0  0  0  0
    3.5727    8.1308    2.1704 H   0  0  0  0  0  0  0  0  0  0  0  0
    2.2988    8.0501    0.9566 H   0  0  0  0  0  0  0  0  0  0  0  0
    2.2796    6.1111    4.5598 H   0  0  0  0  0  0  0  0  0  0  0  0
    3.1165    5.1696    3.2876 H   0  0  0  0  0  0  0  0  0  0  0  0
    3.7451    6.7563    3.8048 H   0  0  0  0  0  0  0  0  0  0  0  0
    2.2060   10.2153    2.1355 H   0  0  0  0  0  0  0  0  0  0  0  0
    0.7293    9.3095    2.4921 H   0  0  0  0  0  0  0  0  0  0  0  0
    1.5971    8.7069    4.4435 H   0  0  0  0  0  0  0  0  0  0  0  0
  1  2  2  0  0  0  0
  1 30  1  0  0  0  0
  2  3  1  0  0  0  0
  2 31  1  0  0  0  0
  3  4  2  0  0  0  0
  3 11  1  0  0  0  0
  4  5  1  0  0  0  0
  4  7  1  0  0  0  0
  5  6  2  0  0  0  0
  6  1  1  0  0  0  0
  6 32  1  0  0  0  0
  7  8  1  0  0  0  0
  7 33  1  6  0  0  0
  7 12  1  0  0  0  0
  8  9  1  0  0  0  0
  8 34  1  0  0  0  0
  8 35  1  0  0  0  0
  9 10  1  0  0  0  0
  9 36  1  0  0  0  0
  9 37  1  0  0  0  0
 10  5  1  0  0  0  0
 11 38  1  0  0  0  0
 11 39  1  0  0  0  0
 11 40  1  0  0  0  0
 12 13  1  0  0  0  0
 12 41  1  0  0  0  0
 13 14  2  0  0  0  0
 14 15  1  0  0  0  0
 14 42  1  0  0  0  0
 15 16  2  0  0  0  0
 15 23  1  0  0  0  0
 16 17  1  0  0  0  0
 16 43  1  0  0  0  0
 17 18  1  0  0  0  0
 17 19  1  0  0  0  0
 18 13  1  0  0  0  0
 19 20  2  0  0  0  0
 19 44  1  0  0  0  0
 20 21  1  0  0  0  0
 20 22  1  0  0  0  0
 21 18  2  0  0  0  0
 22 45  1  0  0  0  0
 22 46  1  0  0  0  0
 22 47  1  0  0  0  0
 23 24  1  0  0  0  0
 23 26  2  0  0  0  0
 24 25  1  0  0  0  0
 24 27  1  0  0  0  0
 25 28  1  0  0  0  0
 25 48  1  0  0  0  0
 25 49  1  0  0  0  0
 27 50  1  0  0  0  0
 27 51  1  0  0  0  0
 27 52  1  0  0  0  0
 28 29  1  0  0  0  0
 28 53  1  0  0  0  0
 28 54  1  0  0  0  0
 29 55  1  0  0  0  0
M  END
>  <Mol_ID>
471

>  <Formula>
C22H26N4O3

>  <MolWeight>
394.46684

>  <Cat>
S2222

>  <Name>
PF-3716556

>  <Synonyms>
N/A

>  <Target>
ATPase,Proton Pump

>  <Form>
Free Base

>  <CAS>
928774-43-0

>  <URL>
http://selleckchem.com/products/PF-3716556.html

$$$$
