PF 429242
 OpenBabel08302520403D

 65 67  0  0  0  0  0  0  0  0999 V2000
    3.6020   -1.0278    3.6628 C   0  0  0  0  0  0  0  0  0  0  0  0
    4.9097   -1.7531    3.6971 C   0  0  0  0  0  0  0  0  0  0  0  0
    5.2325   -2.7826    2.8093 C   0  0  0  0  0  0  0  0  0  0  0  0
    6.4862   -3.3818    2.8372 C   0  0  0  0  0  0  0  0  0  0  0  0
    7.4163   -3.0481    3.8257 C   0  0  0  0  0  0  0  0  0  0  0  0
    7.0576   -2.0982    4.7917 C   0  0  0  0  0  0  0  0  0  0  0  0
    5.8206   -1.4516    4.7226 C   0  0  0  0  0  0  0  0  0  0  0  0
    3.0495   -0.9089    4.7553 O   0  0  0  0  0  0  0  0  0  0  0  0
    3.0737   -0.4654    2.4691 N   0  0  0  0  0  0  0  0  0  0  0  0
    1.8165   -1.6685   -0.2997 N   0  0  0  0  0  0  0  0  0  0  0  0
    2.9227   -2.0997    0.5578 C   0  0  0  0  0  0  0  0  0  0  0  0
    3.5889   -0.8322    1.1216 C   0  0  1  0  0  0  0  0  0  0  0  0
    3.3734    0.1645   -0.0156 C   0  0  0  0  0  0  0  0  0  0  0  0
    2.1727   -0.3439   -0.8081 C   0  0  0  0  0  0  0  0  0  0  0  0
    1.7199    0.1276    2.5438 C   0  0  0  0  0  0  0  0  0  0  0  0
    1.4276    1.1027    3.7061 C   0  0  0  0  0  0  0  0  0  0  0  0
    0.1924    1.9787    3.5577 C   0  0  0  0  0  0  0  0  0  0  0  0
    0.0546    3.1960    4.2530 C   0  0  0  0  0  0  0  0  0  0  0  0
   -1.0197    4.0515    3.9625 C   0  0  0  0  0  0  0  0  0  0  0  0
   -1.9957    3.6910    3.0362 C   0  0  0  0  0  0  0  0  0  0  0  0
   -1.9250    2.4503    2.4180 C   0  0  0  0  0  0  0  0  0  0  0  0
   -0.8518    1.5984    2.6891 C   0  0  0  0  0  0  0  0  0  0  0  0
    0.9426    3.7183    5.1576 O   0  0  0  0  0  0  0  0  0  0  0  0
    1.4186    2.8310    6.1663 C   0  0  0  0  0  0  0  0  0  0  0  0
    8.7766   -3.7055    3.7947 C   0  0  0  0  0  0  0  0  0  0  0  0
    9.5580   -3.3052    2.6109 N   0  0  0  0  0  0  0  0  0  0  0  0
    9.8757   -1.8674    2.5786 C   0  0  0  0  0  0  0  0  0  0  0  0
   10.6539   -1.3123    3.7681 C   0  0  0  0  0  0  0  0  0  0  0  0
   10.7458   -4.1381    2.3919 C   0  0  0  0  0  0  0  0  0  0  0  0
   10.3970   -5.5822    2.0345 C   0  0  0  0  0  0  0  0  0  0  0  0
    4.5381   -3.1427    2.0744 H   0  0  0  0  0  0  0  0  0  0  0  0
    6.7503   -4.1098    2.0706 H   0  0  0  0  0  0  0  0  0  0  0  0
    7.7458   -1.8487    5.5990 H   0  0  0  0  0  0  0  0  0  0  0  0
    5.5580   -0.7091    5.4754 H   0  0  0  0  0  0  0  0  0  0  0  0
    0.9725   -1.5941    0.2708 H   0  0  0  0  0  0  0  0  0  0  0  0
    3.6402   -2.6534   -0.0588 H   0  0  0  0  0  0  0  0  0  0  0  0
    2.5500   -2.7754    1.3347 H   0  0  0  0  0  0  0  0  0  0  0  0
    4.6696   -0.9627    1.2120 H   0  0  0  0  0  0  0  0  0  0  0  0
    3.2634    1.2008    0.3158 H   0  0  0  0  0  0  0  0  0  0  0  0
    4.2498    0.1298   -0.6766 H   0  0  0  0  0  0  0  0  0  0  0  0
    1.3186    0.3347   -0.7101 H   0  0  0  0  0  0  0  0  0  0  0  0
    2.4136   -0.4106   -1.8746 H   0  0  0  0  0  0  0  0  0  0  0  0
    1.5567    0.6968    1.6239 H   0  0  0  0  0  0  0  0  0  0  0  0
    1.0063   -0.7007    2.5555 H   0  0  0  0  0  0  0  0  0  0  0  0
    1.2951    0.5394    4.6340 H   0  0  0  0  0  0  0  0  0  0  0  0
    2.3024    1.7564    3.8017 H   0  0  0  0  0  0  0  0  0  0  0  0
   -1.0892    5.0146    4.4627 H   0  0  0  0  0  0  0  0  0  0  0  0
   -2.8085    4.3736    2.8036 H   0  0  0  0  0  0  0  0  0  0  0  0
   -2.6925    2.1501    1.7087 H   0  0  0  0  0  0  0  0  0  0  0  0
   -0.8384    0.6374    2.1814 H   0  0  0  0  0  0  0  0  0  0  0  0
    0.7260    2.0126    6.3900 H   0  0  0  0  0  0  0  0  0  0  0  0
    2.4023    2.4465    5.8828 H   0  0  0  0  0  0  0  0  0  0  0  0
    1.5579    3.4084    7.0860 H   0  0  0  0  0  0  0  0  0  0  0  0
    9.3235   -3.5314    4.7294 H   0  0  0  0  0  0  0  0  0  0  0  0
    8.5770   -4.7833    3.7735 H   0  0  0  0  0  0  0  0  0  0  0  0
   10.4343   -1.6414    1.6610 H   0  0  0  0  0  0  0  0  0  0  0  0
    8.9454   -1.2962    2.4718 H   0  0  0  0  0  0  0  0  0  0  0  0
   11.6695   -1.7154    3.8052 H   0  0  0  0  0  0  0  0  0  0  0  0
   10.7255   -0.2223    3.6818 H   0  0  0  0  0  0  0  0  0  0  0  0
   10.1640   -1.5193    4.7234 H   0  0  0  0  0  0  0  0  0  0  0  0
   11.3101   -3.7374    1.5403 H   0  0  0  0  0  0  0  0  0  0  0  0
   11.4160   -4.1213    3.2590 H   0  0  0  0  0  0  0  0  0  0  0  0
    9.6002   -5.6273    1.2842 H   0  0  0  0  0  0  0  0  0  0  0  0
   11.2741   -6.0885    1.6177 H   0  0  0  0  0  0  0  0  0  0  0  0
   10.0782   -6.1506    2.9132 H   0  0  0  0  0  0  0  0  0  0  0  0
  1  2  1  0  0  0  0
  1  8  2  0  0  0  0
  1  9  1  0  0  0  0
  2  3  2  0  0  0  0
  2  7  1  0  0  0  0
  3  4  1  0  0  0  0
  3 31  1  0  0  0  0
  4  5  2  0  0  0  0
  4 32  1  0  0  0  0
  5  6  1  0  0  0  0
  5 25  1  0  0  0  0
  6  7  2  0  0  0  0
  6 33  1  0  0  0  0
  7 34  1  0  0  0  0
  9 15  1  0  0  0  0
 10 11  1  0  0  0  0
 10 14  1  0  0  0  0
 10 35  1  0  0  0  0
 11 12  1  0  0  0  0
 11 36  1  0  0  0  0
 11 37  1  0  0  0  0
 12 13  1  0  0  0  0
 12 38  1  1  0  0  0
 12  9  1  0  0  0  0
 13 14  1  0  0  0  0
 13 39  1  0  0  0  0
 13 40  1  0  0  0  0
 14 41  1  0  0  0  0
 14 42  1  0  0  0  0
 15 16  1  0  0  0  0
 15 43  1  0  0  0  0
 15 44  1  0  0  0  0
 16 17  1  0  0  0  0
 16 45  1  0  0  0  0
 16 46  1  0  0  0  0
 17 18  2  0  0  0  0
 17 22  1  0  0  0  0
 18 19  1  0  0  0  0
 18 23  1  0  0  0  0
 19 20  2  0  0  0  0
 19 47  1  0  0  0  0
 20 21  1  0  0  0  0
 20 48  1  0  0  0  0
 21 22  2  0  0  0  0
 21 49  1  0  0  0  0
 22 50  1  0  0  0  0
 23 24  1  0  0  0  0
 24 51  1  0  0  0  0
 24 52  1  0  0  0  0
 24 53  1  0  0  0  0
 25 26  1  0  0  0  0
 25 54  1  0  0  0  0
 25 55  1  0  0  0  0
 26 27  1  0  0  0  0
 26 29  1  0  0  0  0
 27 28  1  0  0  0  0
 27 56  1  0  0  0  0
 27 57  1  0  0  0  0
 28 58  1  0  0  0  0
 28 59  1  0  0  0  0
 28 60  1  0  0  0  0
 29 30  1  0  0  0  0
 29 61  1  0  0  0  0
 29 62  1  0  0  0  0
 30 63  1  0  0  0  0
 30 64  1  0  0  0  0
 30 65  1  0  0  0  0
M  END
>  <Mol_ID>
3738

>  <Formula>
C25H35N3O2

>  <MolWeight>
409.5643

>  <Cat>
S6418

>  <Name>
PF 429242

>  <Synonyms>
N/A

>  <Target>
S1P Receptor

>  <Form>
Free Base

>  <CAS>
947303-87-9

>  <URL>
http://www.selleck.cn/products/pf429242.html

$$$$
