PF 4800567
 OpenBabel08302521233D

 43 46  0  0  0  0  0  0  0  0999 V2000
   -2.0160    0.6759   -0.0781 C   0  0  0  0  0  0  0  0  0  0  0  0
   -0.9034    1.4283   -0.1123 N   0  0  0  0  0  0  0  0  0  0  0  0
    0.2018    0.6626   -0.1419 C   0  0  0  0  0  0  0  0  0  0  0  0
    0.2504   -0.7222   -0.1339 C   0  0  0  0  0  0  0  0  0  0  0  0
   -0.9758   -1.3975   -0.1178 C   0  0  0  0  0  0  0  0  0  0  0  0
   -2.1109   -0.6680   -0.0810 N   0  0  0  0  0  0  0  0  0  0  0  0
    2.3982    0.0790   -0.1082 N   0  0  0  0  0  0  0  0  0  0  0  0
    1.5037    1.0887   -0.1564 N   0  0  0  0  0  0  0  0  0  0  0  0
    1.6375   -1.0286   -0.0880 C   0  0  0  0  0  0  0  0  0  0  0  0
   -1.1257   -2.7685   -0.1224 N   0  0  0  0  0  0  0  0  0  0  0  0
    3.3780    4.2306   -1.1988 C   0  0  0  0  0  0  0  0  0  0  0  0
    2.8814    2.7973   -1.3099 C   0  0  0  0  0  0  0  0  0  0  0  0
    1.9657    2.4688   -0.1260 C   0  0  0  0  0  0  0  0  0  0  0  0
    2.6563    2.8087    1.1984 C   0  0  0  0  0  0  0  0  0  0  0  0
    3.1581    4.2436    1.1649 C   0  0  0  0  0  0  0  0  0  0  0  0
    4.0271    4.4475    0.0530 O   0  0  0  0  0  0  0  0  0  0  0  0
    2.2758   -2.3625    0.1307 C   0  0  0  0  0  0  0  0  0  0  0  0
    2.3336   -3.1695   -1.0496 O   0  0  0  0  0  0  0  0  0  0  0  0
    2.8995   -4.4099   -0.8789 C   0  0  0  0  0  0  0  0  0  0  0  0
    3.3128   -4.9532    0.3423 C   0  0  0  0  0  0  0  0  0  0  0  0
    3.8532   -6.2402    0.4000 C   0  0  0  0  0  0  0  0  0  0  0  0
    3.9904   -6.9921   -0.7617 C   0  0  0  0  0  0  0  0  0  0  0  0
    3.5939   -6.4530   -1.9859 C   0  0  0  0  0  0  0  0  0  0  0  0
    3.0466   -5.1693   -2.0421 C   0  0  0  0  0  0  0  0  0  0  0  0
   -2.9576    1.2154   -0.0368 H   0  0  0  0  0  0  0  0  0  0  0  0
   -0.3566   -3.3615    0.1431 H   0  0  0  0  0  0  0  0  0  0  0  0
   -2.0650   -3.0692    0.1038 H   0  0  0  0  0  0  0  0  0  0  0  0
    4.1056    4.4346   -1.9904 H   0  0  0  0  0  0  0  0  0  0  0  0
    2.5567    4.9477   -1.3112 H   0  0  0  0  0  0  0  0  0  0  0  0
    3.7466    2.1218   -1.3067 H   0  0  0  0  0  0  0  0  0  0  0  0
    2.3572    2.6486   -2.2608 H   0  0  0  0  0  0  0  0  0  0  0  0
    1.0687    3.1001   -0.2140 H   0  0  0  0  0  0  0  0  0  0  0  0
    1.9707    2.6649    2.0413 H   0  0  0  0  0  0  0  0  0  0  0  0
    3.5116    2.1391    1.3558 H   0  0  0  0  0  0  0  0  0  0  0  0
    2.3284    4.9584    1.1174 H   0  0  0  0  0  0  0  0  0  0  0  0
    3.7260    4.4586    2.0759 H   0  0  0  0  0  0  0  0  0  0  0  0
    3.2928   -2.2054    0.5145 H   0  0  0  0  0  0  0  0  0  0  0  0
    1.6878   -2.8794    0.8991 H   0  0  0  0  0  0  0  0  0  0  0  0
    3.2343   -4.4082    1.2765 H   0  0  0  0  0  0  0  0  0  0  0  0
    4.1657   -6.6516    1.3568 H   0  0  0  0  0  0  0  0  0  0  0  0
    4.4100   -7.9936   -0.7139 H   0  0  0  0  0  0  0  0  0  0  0  0
    3.7042   -7.0395   -2.8942 H   0  0  0  0  0  0  0  0  0  0  0  0
    2.7399   -4.7590   -3.0015 H   0  0  0  0  0  0  0  0  0  0  0  0
  1  2  2  0  0  0  0
  1  6  1  0  0  0  0
  1 25  1  0  0  0  0
  2  3  1  0  0  0  0
  3  4  2  0  0  0  0
  3  8  1  0  0  0  0
  4  5  1  0  0  0  0
  4  9  1  0  0  0  0
  5  6  2  0  0  0  0
  5 10  1  0  0  0  0
  7  8  1  0  0  0  0
  7  9  2  0  0  0  0
  8 13  1  0  0  0  0
  9 17  1  0  0  0  0
 10 26  1  0  0  0  0
 10 27  1  0  0  0  0
 11 12  1  0  0  0  0
 11 16  1  0  0  0  0
 11 28  1  0  0  0  0
 11 29  1  0  0  0  0
 12 13  1  0  0  0  0
 12 30  1  0  0  0  0
 12 31  1  0  0  0  0
 13 14  1  0  0  0  0
 13 32  1  0  0  0  0
 14 15  1  0  0  0  0
 14 33  1  0  0  0  0
 14 34  1  0  0  0  0
 15 16  1  0  0  0  0
 15 35  1  0  0  0  0
 15 36  1  0  0  0  0
 17 18  1  0  0  0  0
 17 37  1  0  0  0  0
 17 38  1  0  0  0  0
 18 19  1  0  0  0  0
 19 20  2  0  0  0  0
 19 24  1  0  0  0  0
 20 21  1  0  0  0  0
 20 39  1  0  0  0  0
 21 22  2  0  0  0  0
 21 40  1  0  0  0  0
 22 23  1  0  0  0  0
 22 41  1  0  0  0  0
 23 24  2  0  0  0  0
 23 42  1  0  0  0  0
 24 43  1  0  0  0  0
M  END
>  <Mol_ID>
4824

>  <Formula>
C17H18ClN5O2

>  <MolWeight>
359.81012

>  <Cat>
S2249

>  <Name>
PF 4800567

>  <Synonyms>
N/A

>  <Target>
Casein Kinase

>  <Form>
Free Base

>  <CAS>
1188296-52-7

>  <URL>
http://www.selleck.cn/products/pf-4800567.html

$$$$
