PF 573228.cdx
 OpenBabel08302522013D

 54 57  0  0  0  0  0  0  0  0999 V2000
   -1.3332    1.7534    3.9676 N   0  0  0  0  0  0  0  0  0  0  0  0
   -0.6430    2.9164    3.7743 C   0  0  0  0  0  0  0  0  0  0  0  0
   -0.9058    3.6318    2.4692 C   0  0  0  0  0  0  0  0  0  0  0  0
   -1.0539    2.6569    1.3092 C   0  0  0  0  0  0  0  0  0  0  0  0
   -2.0232    1.5561    1.6497 C   0  0  0  0  0  0  0  0  0  0  0  0
   -2.7596    0.8788    0.6547 C   0  0  0  0  0  0  0  0  0  0  0  0
   -3.5913   -0.2026    0.9846 C   0  0  0  0  0  0  0  0  0  0  0  0
   -3.6757   -0.5589    2.3436 C   0  0  0  0  0  0  0  0  0  0  0  0
   -2.9183    0.0704    3.3303 C   0  0  0  0  0  0  0  0  0  0  0  0
   -2.0983    1.1280    2.9800 C   0  0  0  0  0  0  0  0  0  0  0  0
    0.0542    3.3985    4.6667 O   0  0  0  0  0  0  0  0  0  0  0  0
   -4.2592   -0.9450   -0.0165 N   0  0  0  0  0  0  0  0  0  0  0  0
   -4.6282   -2.2966    0.0199 C   0  0  0  0  0  0  0  0  0  0  0  0
   -5.3325   -2.8398   -0.9921 N   0  0  0  0  0  0  0  0  0  0  0  0
   -5.6355   -4.1703   -0.9583 C   0  0  0  0  0  0  0  0  0  0  0  0
   -5.1526   -4.9811    0.0522 C   0  0  0  0  0  0  0  0  0  0  0  0
   -4.4854   -4.3220    1.0579 C   0  0  0  0  0  0  0  0  0  0  0  0
   -4.2210   -3.0166    1.0596 N   0  0  0  0  0  0  0  0  0  0  0  0
   -5.2527   -6.4468    0.2852 C   0  0  0  0  0  0  0  0  0  0  0  0
   -5.6276   -7.2299   -0.7525 F   0  0  0  0  0  0  0  0  0  0  0  0
   -4.0575   -6.9748    0.6878 F   0  0  0  0  0  0  0  0  0  0  0  0
   -6.1244   -6.7331    1.2952 F   0  0  0  0  0  0  0  0  0  0  0  0
   -6.4238   -4.5639   -2.0231 N   0  0  0  0  0  0  0  0  0  0  0  0
   -7.2914   -5.7213   -1.9866 C   0  0  0  0  0  0  0  0  0  0  0  0
   -8.4701   -5.6273   -2.9171 C   0  0  0  0  0  0  0  0  0  0  0  0
   -8.4084   -6.2436   -4.1751 C   0  0  0  0  0  0  0  0  0  0  0  0
   -9.5376   -6.2705   -4.9940 C   0  0  0  0  0  0  0  0  0  0  0  0
  -10.7390   -5.6988   -4.5703 C   0  0  0  0  0  0  0  0  0  0  0  0
  -10.7994   -5.0766   -3.3227 C   0  0  0  0  0  0  0  0  0  0  0  0
   -9.6702   -5.0353   -2.5015 C   0  0  0  0  0  0  0  0  0  0  0  0
   -9.4512   -7.1156   -6.5552 S   0  0  0  0  0  0  0  0  0  0  0  0
   -8.4186   -8.1288   -6.4445 O   0  0  0  0  0  0  0  0  0  0  0  0
  -10.8061   -7.4709   -6.9286 O   0  0  0  0  0  0  0  0  0  0  0  0
   -8.8811   -5.8545   -7.6600 C   0  0  0  0  0  0  0  0  0  0  0  0
   -1.2684    1.3479    4.8930 H   0  0  0  0  0  0  0  0  0  0  0  0
   -1.8230    4.2189    2.6009 H   0  0  0  0  0  0  0  0  0  0  0  0
   -0.0823    4.3260    2.2722 H   0  0  0  0  0  0  0  0  0  0  0  0
   -1.3902    3.2027    0.4213 H   0  0  0  0  0  0  0  0  0  0  0  0
   -0.0827    2.2010    1.0790 H   0  0  0  0  0  0  0  0  0  0  0  0
   -2.6548    1.1854   -0.3832 H   0  0  0  0  0  0  0  0  0  0  0  0
   -4.3367   -1.3584    2.6658 H   0  0  0  0  0  0  0  0  0  0  0  0
   -2.9923   -0.2759    4.3564 H   0  0  0  0  0  0  0  0  0  0  0  0
   -4.2719   -0.5787   -0.9557 H   0  0  0  0  0  0  0  0  0  0  0  0
   -4.1161   -4.8456    1.9373 H   0  0  0  0  0  0  0  0  0  0  0  0
   -6.7562   -3.7590   -2.5482 H   0  0  0  0  0  0  0  0  0  0  0  0
   -6.7189   -6.5901   -2.3196 H   0  0  0  0  0  0  0  0  0  0  0  0
   -7.6682   -5.9164   -0.9757 H   0  0  0  0  0  0  0  0  0  0  0  0
   -7.4927   -6.7434   -4.4906 H   0  0  0  0  0  0  0  0  0  0  0  0
  -11.6310   -5.7490   -5.1910 H   0  0  0  0  0  0  0  0  0  0  0  0
  -11.7359   -4.6455   -2.9758 H   0  0  0  0  0  0  0  0  0  0  0  0
   -9.7441   -4.5805   -1.5147 H   0  0  0  0  0  0  0  0  0  0  0  0
   -9.5965   -5.0305   -7.6582 H   0  0  0  0  0  0  0  0  0  0  0  0
   -7.8957   -5.5137   -7.3346 H   0  0  0  0  0  0  0  0  0  0  0  0
   -8.8134   -6.2853   -8.6615 H   0  0  0  0  0  0  0  0  0  0  0  0
  1  2  1  0  0  0  0
  1 10  1  0  0  0  0
  1 35  1  0  0  0  0
  2  3  1  0  0  0  0
  2 11  2  0  0  0  0
  3  4  1  0  0  0  0
  3 36  1  0  0  0  0
  3 37  1  0  0  0  0
  4  5  1  0  0  0  0
  4 38  1  0  0  0  0
  4 39  1  0  0  0  0
  5  6  1  0  0  0  0
  5 10  2  0  0  0  0
  6  7  2  0  0  0  0
  6 40  1  0  0  0  0
  7  8  1  0  0  0  0
  7 12  1  0  0  0  0
  8  9  2  0  0  0  0
  8 41  1  0  0  0  0
  9 10  1  0  0  0  0
  9 42  1  0  0  0  0
 12 13  1  0  0  0  0
 12 43  1  0  0  0  0
 13 14  2  0  0  0  0
 13 18  1  0  0  0  0
 14 15  1  0  0  0  0
 15 16  2  0  0  0  0
 15 23  1  0  0  0  0
 16 17  1  0  0  0  0
 16 19  1  0  0  0  0
 17 18  2  0  0  0  0
 17 44  1  0  0  0  0
 19 20  1  0  0  0  0
 19 21  1  0  0  0  0
 19 22  1  0  0  0  0
 23 24  1  0  0  0  0
 23 45  1  0  0  0  0
 24 25  1  0  0  0  0
 24 46  1  0  0  0  0
 24 47  1  0  0  0  0
 25 26  2  0  0  0  0
 25 30  1  0  0  0  0
 26 27  1  0  0  0  0
 26 48  1  0  0  0  0
 27 28  2  0  0  0  0
 27 31  1  0  0  0  0
 28 29  1  0  0  0  0
 28 49  1  0  0  0  0
 29 30  2  0  0  0  0
 29 50  1  0  0  0  0
 30 51  1  0  0  0  0
 31 32  2  0  0  0  0
 31 33  2  0  0  0  0
 31 34  1  0  0  0  0
 34 52  1  0  0  0  0
 34 53  1  0  0  0  0
 34 54  1  0  0  0  0
M  END
>  <Mol_ID>
1095

>  <Formula>
C22H20F3N5O3S

>  <MolWeight>
491.4861096

>  <Cat>
S2013

>  <Name>
PF-573228

>  <Synonyms>
N/A

>  <Target>
Apoptosis related,FAK

>  <Form>
free base

>  <CAS>
869288-64-2

>  <URL>
http://selleckchem.com/products/pf-573228.html

$$$$
