PfDHODH-IN-2
 OpenBabel08302521333D

 31 32  0  0  0  0  0  0  0  0999 V2000
   -0.6750    1.4277   -0.0497 C   0  0  0  0  0  0  0  0  0  0  0  0
    0.6699    1.3207    0.0191 C   0  0  0  0  0  0  0  0  0  0  0  0
    1.0941   -0.1017    0.1005 C   0  0  0  0  0  0  0  0  0  0  0  0
   -0.0164   -1.1031    0.0127 C   0  0  0  0  0  0  0  0  0  0  0  0
   -1.5247   -0.1236   -0.0564 S   0  0  0  0  0  0  0  0  0  0  0  0
    1.6719    2.4031    0.0006 C   0  0  0  0  0  0  0  0  0  0  0  0
    2.8038    2.2818    0.4443 O   0  0  0  0  0  0  0  0  0  0  0  0
    1.1964    3.5339   -0.5765 O   0  0  0  0  0  0  0  0  0  0  0  0
    2.2658   -0.4595    0.1867 O   0  0  0  0  0  0  0  0  0  0  0  0
   -1.4479    2.5677   -0.1984 N   0  0  0  0  0  0  0  0  0  0  0  0
   -1.7150    3.5358    0.8061 C   0  0  0  0  0  0  0  0  0  0  0  0
   -0.9745    3.6679    1.9842 C   0  0  0  0  0  0  0  0  0  0  0  0
   -1.2536    4.6933    2.8956 C   0  0  0  0  0  0  0  0  0  0  0  0
   -2.2718    5.6078    2.6366 C   0  0  0  0  0  0  0  0  0  0  0  0
   -3.0087    5.5033    1.4623 C   0  0  0  0  0  0  0  0  0  0  0  0
   -2.7219    4.4843    0.5503 C   0  0  0  0  0  0  0  0  0  0  0  0
    2.1109    4.6399   -0.6289 C   0  0  0  0  0  0  0  0  0  0  0  0
    2.2362    5.3214    0.7235 C   0  0  0  0  0  0  0  0  0  0  0  0
   -0.0123   -1.7519    0.8913 H   0  0  0  0  0  0  0  0  0  0  0  0
    0.0877   -1.6860   -0.9049 H   0  0  0  0  0  0  0  0  0  0  0  0
   -2.3357    2.3131   -0.6328 H   0  0  0  0  0  0  0  0  0  0  0  0
   -0.1687    2.9825    2.2250 H   0  0  0  0  0  0  0  0  0  0  0  0
   -0.6650    4.7821    3.8051 H   0  0  0  0  0  0  0  0  0  0  0  0
   -2.4839    6.4045    3.3453 H   0  0  0  0  0  0  0  0  0  0  0  0
   -3.7997    6.2174    1.2491 H   0  0  0  0  0  0  0  0  0  0  0  0
   -3.2975    4.4364   -0.3711 H   0  0  0  0  0  0  0  0  0  0  0  0
    3.0872    4.3139   -1.0062 H   0  0  0  0  0  0  0  0  0  0  0  0
    1.7065    5.3510   -1.3567 H   0  0  0  0  0  0  0  0  0  0  0  0
    2.6653    4.6492    1.4725 H   0  0  0  0  0  0  0  0  0  0  0  0
    2.8749    6.2057    0.6518 H   0  0  0  0  0  0  0  0  0  0  0  0
    1.2528    5.6267    1.0951 H   0  0  0  0  0  0  0  0  0  0  0  0
  1  2  2  0  0  0  0
  1  5  1  0  0  0  0
  1 10  1  0  0  0  0
  2  3  1  0  0  0  0
  2  6  1  0  0  0  0
  3  4  1  0  0  0  0
  3  9  2  0  0  0  0
  4  5  1  0  0  0  0
  4 19  1  0  0  0  0
  4 20  1  0  0  0  0
  6  7  2  0  0  0  0
  6  8  1  0  0  0  0
  8 17  1  0  0  0  0
 10 11  1  0  0  0  0
 10 21  1  0  0  0  0
 11 12  2  0  0  0  0
 11 16  1  0  0  0  0
 12 13  1  0  0  0  0
 12 22  1  0  0  0  0
 13 14  2  0  0  0  0
 13 23  1  0  0  0  0
 14 15  1  0  0  0  0
 14 24  1  0  0  0  0
 15 16  2  0  0  0  0
 15 25  1  0  0  0  0
 16 26  1  0  0  0  0
 17 18  1  0  0  0  0
 17 27  1  0  0  0  0
 17 28  1  0  0  0  0
 18 29  1  0  0  0  0
 18 30  1  0  0  0  0
 18 31  1  0  0  0  0
M  END
>  <Mol_ID>
6343

>  <Formula>
C13H12ClNO3S

>  <MolWeight>
297.75728

>  <Cat>
E0788

>  <Name>
PfDHODH-IN-2

>  <Target>
Dehydrogenase

>  <Form>
free base

>  <CAS>
425629-94-3

>  <URL>
http://www.selleckchem.com/products/pfdhodh-in-2.html

$$$$
