PFI-4.cdx
 OpenBabel08302519593D

 52 55  0  0  0  0  0  0  0  0999 V2000
    2.9668   -0.5826    0.1165 C   0  0  0  0  0  0  0  0  0  0  0  0
    2.9538    0.8618    0.0594 C   0  0  0  0  0  0  0  0  0  0  0  0
    1.6975    1.4985    0.0085 C   0  0  0  0  0  0  0  0  0  0  0  0
    0.5394    0.7391    0.0248 C   0  0  0  0  0  0  0  0  0  0  0  0
    0.5806   -0.6549    0.0689 C   0  0  0  0  0  0  0  0  0  0  0  0
    1.7788   -1.3388    0.1281 C   0  0  0  0  0  0  0  0  0  0  0  0
   -0.8025    1.1319   -0.0205 N   0  0  0  0  0  0  0  0  0  0  0  0
   -1.6319   -0.0160   -0.0190 C   0  0  0  0  0  0  0  0  0  0  0  0
   -0.7444   -1.1215    0.0569 N   0  0  0  0  0  0  0  0  0  0  0  0
   -1.1450   -2.4880    0.0297 C   0  0  0  0  0  0  0  0  0  0  0  0
   -1.2832    2.4841   -0.0447 C   0  0  0  0  0  0  0  0  0  0  0  0
    4.1602    1.5923    0.0270 N   0  0  0  0  0  0  0  0  0  0  0  0
    4.1643   -1.2869    0.4064 N   0  0  0  0  0  0  0  0  0  0  0  0
    4.8930   -1.9886   -0.5635 C   0  0  0  0  0  0  0  0  0  0  0  0
    6.1243   -2.6914   -0.0452 C   0  0  0  0  0  0  0  0  0  0  0  0
    4.5854   -2.0397   -1.7470 O   0  0  0  0  0  0  0  0  0  0  0  0
    7.2982   -2.9901   -0.7653 C   0  0  0  0  0  0  0  0  0  0  0  0
    8.3061   -3.7580   -0.1395 C   0  0  0  0  0  0  0  0  0  0  0  0
    8.1804   -4.2274    1.1651 C   0  0  0  0  0  0  0  0  0  0  0  0
    7.0240   -3.9510    1.8729 C   0  0  0  0  0  0  0  0  0  0  0  0
    6.0076   -3.2055    1.2710 C   0  0  0  0  0  0  0  0  0  0  0  0
    7.6549   -2.7426   -2.0615 O   0  0  0  0  0  0  0  0  0  0  0  0
    7.2992   -1.5298   -2.6965 C   0  0  0  0  0  0  0  0  0  0  0  0
    4.2262    3.0270    0.3295 C   0  0  0  0  0  0  0  0  0  0  0  0
    4.9619    3.6749   -0.8363 C   0  0  0  0  0  0  0  0  0  0  0  0
    5.7930    2.5650   -1.4384 C   0  0  0  0  0  0  0  0  0  0  0  0
    5.0452    1.2767   -1.1091 C   0  0  0  0  0  0  0  0  0  0  0  0
   -2.8433   -0.0456   -0.0730 O   0  0  0  0  0  0  0  0  0  0  0  0
    1.5998    2.5735   -0.0759 H   0  0  0  0  0  0  0  0  0  0  0  0
    1.7997   -2.4144    0.2439 H   0  0  0  0  0  0  0  0  0  0  0  0
   -0.7667   -2.9564   -0.8886 H   0  0  0  0  0  0  0  0  0  0  0  0
   -0.7445   -3.0170    0.9027 H   0  0  0  0  0  0  0  0  0  0  0  0
   -2.2398   -2.5657    0.0305 H   0  0  0  0  0  0  0  0  0  0  0  0
   -0.9597    2.9983    0.8654 H   0  0  0  0  0  0  0  0  0  0  0  0
   -0.8799    2.9994   -0.9225 H   0  0  0  0  0  0  0  0  0  0  0  0
   -2.3749    2.5036   -0.0903 H   0  0  0  0  0  0  0  0  0  0  0  0
    4.7086   -0.8800    1.1601 H   0  0  0  0  0  0  0  0  0  0  0  0
    9.2095   -4.0045   -0.6977 H   0  0  0  0  0  0  0  0  0  0  0  0
    8.9719   -4.8252    1.6093 H   0  0  0  0  0  0  0  0  0  0  0  0
    6.8961   -4.3353    2.8820 H   0  0  0  0  0  0  0  0  0  0  0  0
    5.0884   -3.0762    1.8400 H   0  0  0  0  0  0  0  0  0  0  0  0
    6.4357   -1.6953   -3.3423 H   0  0  0  0  0  0  0  0  0  0  0  0
    7.1475   -0.7044   -2.0027 H   0  0  0  0  0  0  0  0  0  0  0  0
    8.1340   -1.2479   -3.3531 H   0  0  0  0  0  0  0  0  0  0  0  0
    4.8098    3.1373    1.2497 H   0  0  0  0  0  0  0  0  0  0  0  0
    3.2747    3.5350    0.4969 H   0  0  0  0  0  0  0  0  0  0  0  0
    4.2521    4.0626   -1.5754 H   0  0  0  0  0  0  0  0  0  0  0  0
    5.5837    4.5131   -0.5033 H   0  0  0  0  0  0  0  0  0  0  0  0
    5.9245    2.6918   -2.5191 H   0  0  0  0  0  0  0  0  0  0  0  0
    6.7938    2.5466   -0.9902 H   0  0  0  0  0  0  0  0  0  0  0  0
    4.5043    0.9164   -1.9919 H   0  0  0  0  0  0  0  0  0  0  0  0
    5.7741    0.5267   -0.7981 H   0  0  0  0  0  0  0  0  0  0  0  0
  1  2  1  0  0  0  0
  1 13  1  0  0  0  0
  2  3  2  0  0  0  0
  2 12  1  0  0  0  0
  3  4  1  0  0  0  0
  3 29  1  0  0  0  0
  4  5  2  0  0  0  0
  4  7  1  0  0  0  0
  5  6  1  0  0  0  0
  6  1  2  0  0  0  0
  6 30  1  0  0  0  0
  7  8  1  0  0  0  0
  7 11  1  0  0  0  0
  8  9  1  0  0  0  0
  8 28  2  0  0  0  0
  9  5  1  0  0  0  0
  9 10  1  0  0  0  0
 10 31  1  0  0  0  0
 10 32  1  0  0  0  0
 10 33  1  0  0  0  0
 11 34  1  0  0  0  0
 11 35  1  0  0  0  0
 11 36  1  0  0  0  0
 12 24  1  0  0  0  0
 13 14  1  0  0  0  0
 13 37  1  0  0  0  0
 14 15  1  0  0  0  0
 14 16  2  0  0  0  0
 15 17  2  0  0  0  0
 17 18  1  0  0  0  0
 17 22  1  0  0  0  0
 18 19  2  0  0  0  0
 18 38  1  0  0  0  0
 19 20  1  0  0  0  0
 19 39  1  0  0  0  0
 20 21  2  0  0  0  0
 20 40  1  0  0  0  0
 21 15  1  0  0  0  0
 21 41  1  0  0  0  0
 22 23  1  0  0  0  0
 23 42  1  0  0  0  0
 23 43  1  0  0  0  0
 23 44  1  0  0  0  0
 24 25  1  0  0  0  0
 24 45  1  0  0  0  0
 24 46  1  0  0  0  0
 25 26  1  0  0  0  0
 25 47  1  0  0  0  0
 25 48  1  0  0  0  0
 26 27  1  0  0  0  0
 26 49  1  0  0  0  0
 26 50  1  0  0  0  0
 27 12  1  0  0  0  0
 27 51  1  0  0  0  0
 27 52  1  0  0  0  0
M  END
>  <Mol_ID>
2614

>  <Formula>
C21H24N4O3

>  <MolWeight>
380.44026

>  <Cat>
S7906

>  <Name>
PFI-4

>  <Synonyms>
N/A

>  <Target>
Epigenetic Reader Domain

>  <Form>
free base

>  <CAS>
900305-37-5

>  <URL>
http://selleckchem.com/products/pfi-4.html

$$$$
