PFI-90
 OpenBabel08302521313D

 26 27  0  0  0  0  0  0  0  0999 V2000
   -0.8333    0.9981    0.4406 C   0  0  0  0  0  0  0  0  0  0  0  0
    0.5471    1.1316    0.4866 C   0  0  0  0  0  0  0  0  0  0  0  0
    1.3278   -0.0150    0.3874 C   0  0  0  0  0  0  0  0  0  0  0  0
    0.7040   -1.2503    0.2483 C   0  0  0  0  0  0  0  0  0  0  0  0
   -0.6874   -1.2903    0.2142 C   0  0  0  0  0  0  0  0  0  0  0  0
   -1.4755   -0.1844    0.3057 N   0  0  0  0  0  0  0  0  0  0  0  0
   -1.3718   -2.6100    0.0530 C   0  0  0  0  0  0  0  0  0  0  0  0
   -2.7490   -2.5605   -0.0392 N   0  0  0  0  0  0  0  0  0  0  0  0
   -0.7357   -3.6631    0.0095 O   0  0  0  0  0  0  0  0  0  0  0  0
   -3.4420   -3.7754   -0.1968 N   0  0  0  0  0  0  0  0  0  0  0  0
   -4.6559   -3.8255    0.5338 C   0  0  0  0  0  0  0  0  0  0  0  0
   -5.1417   -2.7192    1.1442 N   0  0  0  0  0  0  0  0  0  0  0  0
   -6.3260   -2.8289    1.7893 C   0  0  0  0  0  0  0  0  0  0  0  0
   -7.0741   -3.9912    1.8472 C   0  0  0  0  0  0  0  0  0  0  0  0
   -6.5832   -5.1148    1.1976 C   0  0  0  0  0  0  0  0  0  0  0  0
   -5.3635   -5.0306    0.5306 C   0  0  0  0  0  0  0  0  0  0  0  0
   -1.4772    1.8708    0.5129 H   0  0  0  0  0  0  0  0  0  0  0  0
    1.0053    2.1091    0.5962 H   0  0  0  0  0  0  0  0  0  0  0  0
    2.4122    0.0510    0.4162 H   0  0  0  0  0  0  0  0  0  0  0  0
    1.2882   -2.1615    0.1635 H   0  0  0  0  0  0  0  0  0  0  0  0
   -3.2932   -1.7145    0.1295 H   0  0  0  0  0  0  0  0  0  0  0  0
   -2.8410   -4.5602    0.0708 H   0  0  0  0  0  0  0  0  0  0  0  0
   -6.6718   -1.9209    2.2758 H   0  0  0  0  0  0  0  0  0  0  0  0
   -8.0206   -4.0196    2.3768 H   0  0  0  0  0  0  0  0  0  0  0  0
   -7.1434   -6.0453    1.2010 H   0  0  0  0  0  0  0  0  0  0  0  0
   -4.9748   -5.8934    0.0003 H   0  0  0  0  0  0  0  0  0  0  0  0
  1  2  2  0  0  0  0
  1 17  1  0  0  0  0
  2  3  1  0  0  0  0
  2 18  1  0  0  0  0
  3  4  2  0  0  0  0
  3 19  1  0  0  0  0
  4  5  1  0  0  0  0
  4 20  1  0  0  0  0
  5  6  2  0  0  0  0
  5  7  1  0  0  0  0
  6  1  1  0  0  0  0
  7  8  1  0  0  0  0
  7  9  2  0  0  0  0
  8 10  1  0  0  0  0
  8 21  1  0  0  0  0
 10 11  1  0  0  0  0
 10 22  1  0  0  0  0
 11 12  2  0  0  0  0
 12 13  1  0  0  0  0
 13 14  2  0  0  0  0
 13 23  1  0  0  0  0
 14 15  1  0  0  0  0
 14 24  1  0  0  0  0
 15 16  2  0  0  0  0
 15 25  1  0  0  0  0
 16 11  1  0  0  0  0
 16 26  1  0  0  0  0
M  END
>  <Mol_ID>
5939

>  <Formula>
C11H10N4O

>  <MolWeight>
214.2233

>  <Cat>
S9882

>  <Name>
PFI-90

>  <Synonyms>
N/A

>  <Target>
Histone Demethylase

>  <Form>
Free Base

>  <CAS>
53995-62-3

>  <URL>
http://www.selleckchem.com/products/pfi-90.html

$$$$
