PFI-2.cdx
 OpenBabel08302519583D

 59 62  0  0  0  0  0  0  0  0999 V2000
    0.7038    2.8867    2.1053 C   0  0  0  0  0  0  0  0  0  0  0  0
    1.4651    3.3765    3.1843 C   0  0  0  0  0  0  0  0  0  0  0  0
    2.8547    3.3088    3.1175 C   0  0  0  0  0  0  0  0  0  0  0  0
    3.4927    2.7526    2.0221 C   0  0  0  0  0  0  0  0  0  0  0  0
    2.7373    2.2742    0.9512 C   0  0  0  0  0  0  0  0  0  0  0  0
    1.3437    2.3551    0.9768 C   0  0  0  0  0  0  0  0  0  0  0  0
   -0.8031    2.9431    2.1798 C   0  0  0  0  0  0  0  0  0  0  0  0
   -1.2947    3.0355    3.6291 C   0  0  0  0  0  0  0  0  0  0  0  0
   -0.6224    4.1268    4.3331 N   0  0  0  0  0  0  0  0  0  0  0  0
    0.8122    3.8472    4.4637 C   0  0  0  0  0  0  0  0  0  0  0  0
    3.5998    3.7298    4.1499 F   0  0  0  0  0  0  0  0  0  0  0  0
    3.5678    1.3321   -0.2992 S   0  0  0  0  0  0  0  0  0  0  0  0
    4.0805    2.4798   -1.4015 N   0  0  0  0  0  0  0  0  0  0  0  0
    5.2898    3.3175   -1.1470 C   0  0  1  0  0  0  0  0  0  0  0  0
    6.5241    2.3921   -1.0983 C   0  0  0  0  0  0  0  0  0  0  0  0
    6.7570    1.6368   -2.0482 O   0  0  0  0  0  0  0  0  0  0  0  0
    7.3049    2.3797    0.0416 N   0  0  0  0  0  0  0  0  0  0  0  0
    4.7107    0.7057    0.3215 O   0  0  0  0  0  0  0  0  0  0  0  0
    2.5699    0.5469   -0.9911 O   0  0  0  0  0  0  0  0  0  0  0  0
    5.4268    4.3183   -2.3255 C   0  0  0  0  0  0  0  0  0  0  0  0
    4.2778    5.3129   -2.3889 C   0  0  0  0  0  0  0  0  0  0  0  0
    3.0885    4.9877   -3.0605 C   0  0  0  0  0  0  0  0  0  0  0  0
    1.9878    5.8446   -3.0238 C   0  0  0  0  0  0  0  0  0  0  0  0
    2.0717    7.0594   -2.3484 C   0  0  0  0  0  0  0  0  0  0  0  0
    3.2683    7.4405   -1.7256 C   0  0  0  0  0  0  0  0  0  0  0  0
    4.3618    6.5521   -1.7385 C   0  0  0  0  0  0  0  0  0  0  0  0
    3.3973    8.7920   -1.0682 C   0  0  0  0  0  0  0  0  0  0  0  0
    2.2558    9.5356   -1.1104 F   0  0  0  0  0  0  0  0  0  0  0  0
    3.7383    8.7053    0.2477 F   0  0  0  0  0  0  0  0  0  0  0  0
    4.3605    9.5594   -1.6520 F   0  0  0  0  0  0  0  0  0  0  0  0
    7.3285    3.3175    1.1485 C   0  0  0  0  0  0  0  0  0  0  0  0
    8.7344    3.1559    1.7070 C   0  0  0  0  0  0  0  0  0  0  0  0
    8.9819    1.6587    1.5661 C   0  0  0  0  0  0  0  0  0  0  0  0
    8.2095    1.2689    0.3051 C   0  0  0  0  0  0  0  0  0  0  0  0
    4.5665    2.6435    2.0404 H   0  0  0  0  0  0  0  0  0  0  0  0
    0.7575    1.9577    0.1485 H   0  0  0  0  0  0  0  0  0  0  0  0
   -1.2346    2.0504    1.7157 H   0  0  0  0  0  0  0  0  0  0  0  0
   -1.1440    3.8184    1.6121 H   0  0  0  0  0  0  0  0  0  0  0  0
   -1.1280    2.0855    4.1548 H   0  0  0  0  0  0  0  0  0  0  0  0
   -2.3744    3.2161    3.6306 H   0  0  0  0  0  0  0  0  0  0  0  0
   -1.0163    4.2322    5.2662 H   0  0  0  0  0  0  0  0  0  0  0  0
    1.3102    4.7547    4.8131 H   0  0  0  0  0  0  0  0  0  0  0  0
    0.9624    3.0688    5.2260 H   0  0  0  0  0  0  0  0  0  0  0  0
    4.0346    2.0868   -2.3422 H   0  0  0  0  0  0  0  0  0  0  0  0
    5.1555    3.8655   -0.2131 H   0  0  0  0  0  0  0  0  0  0  0  0
    6.3763    4.8647   -2.2549 H   0  0  0  0  0  0  0  0  0  0  0  0
    5.4737    3.7813   -3.2842 H   0  0  0  0  0  0  0  0  0  0  0  0
    2.9987    4.0493   -3.6043 H   0  0  0  0  0  0  0  0  0  0  0  0
    1.0618    5.5632   -3.5210 H   0  0  0  0  0  0  0  0  0  0  0  0
    1.2011    7.7137   -2.3199 H   0  0  0  0  0  0  0  0  0  0  0  0
    5.2852    6.8411   -1.2377 H   0  0  0  0  0  0  0  0  0  0  0  0
    6.6029    2.9852    1.8912 H   0  0  0  0  0  0  0  0  0  0  0  0
    7.0991    4.3378    0.8337 H   0  0  0  0  0  0  0  0  0  0  0  0
    9.4525    3.7085    1.0894 H   0  0  0  0  0  0  0  0  0  0  0  0
    8.8255    3.5050    2.7395 H   0  0  0  0  0  0  0  0  0  0  0  0
   10.0451    1.4118    1.4947 H   0  0  0  0  0  0  0  0  0  0  0  0
    8.5750    1.1288    2.4364 H   0  0  0  0  0  0  0  0  0  0  0  0
    8.8629    1.0997   -0.5548 H   0  0  0  0  0  0  0  0  0  0  0  0
    7.6168    0.3649    0.4807 H   0  0  0  0  0  0  0  0  0  0  0  0
  1  2  1  0  0  0  0
  1  7  1  0  0  0  0
  2  3  2  0  0  0  0
  3  4  1  0  0  0  0
  3 11  1  0  0  0  0
  4  5  2  0  0  0  0
  4 35  1  0  0  0  0
  5  6  1  0  0  0  0
  5 12  1  0  0  0  0
  6  1  2  0  0  0  0
  6 36  1  0  0  0  0
  7  8  1  0  0  0  0
  7 37  1  0  0  0  0
  7 38  1  0  0  0  0
  8  9  1  0  0  0  0
  8 39  1  0  0  0  0
  8 40  1  0  0  0  0
  9 10  1  0  0  0  0
  9 41  1  0  0  0  0
 10  2  1  0  0  0  0
 10 42  1  0  0  0  0
 10 43  1  0  0  0  0
 12 13  1  0  0  0  0
 12 18  2  0  0  0  0
 12 19  2  0  0  0  0
 13 14  1  0  0  0  0
 13 44  1  0  0  0  0
 14 15  1  0  0  0  0
 14 20  1  0  0  0  0
 14 45  1  1  0  0  0
 15 16  2  0  0  0  0
 15 17  1  0  0  0  0
 17 31  1  0  0  0  0
 20 21  1  0  0  0  0
 20 46  1  0  0  0  0
 20 47  1  0  0  0  0
 21 22  2  0  0  0  0
 22 23  1  0  0  0  0
 22 48  1  0  0  0  0
 23 24  2  0  0  0  0
 23 49  1  0  0  0  0
 24 25  1  0  0  0  0
 24 50  1  0  0  0  0
 25 26  2  0  0  0  0
 25 27  1  0  0  0  0
 26 21  1  0  0  0  0
 26 51  1  0  0  0  0
 27 28  1  0  0  0  0
 27 29  1  0  0  0  0
 27 30  1  0  0  0  0
 31 32  1  0  0  0  0
 31 52  1  0  0  0  0
 31 53  1  0  0  0  0
 32 33  1  0  0  0  0
 32 54  1  0  0  0  0
 32 55  1  0  0  0  0
 33 34  1  0  0  0  0
 33 56  1  0  0  0  0
 33 57  1  0  0  0  0
 34 17  1  0  0  0  0
 34 58  1  0  0  0  0
 34 59  1  0  0  0  0
M  END
>  <Mol_ID>
2484

>  <Formula>
C23H25F4N3O3S

>  <MolWeight>
499.5215128

>  <Cat>
S7294

>  <Name>
PFI-2 HCl

>  <Synonyms>
N/A

>  <Target>
Histone Methyltransferase,SETD

>  <Form>
Hydrochloride

>  <CAS>
1627607-87-7

>  <URL>
http://selleckchem.com/products/pfi-2.html

$$$$
