PFK158
 OpenBabel08302521223D

 35 37  0  0  0  0  0  0  0  0999 V2000
    2.4364   -0.6800    0.0032 C   0  0  0  0  0  0  0  0  0  0  0  0
    2.3898    0.7174   -0.0015 C   0  0  0  0  0  0  0  0  0  0  0  0
    1.1341    1.3533   -0.0026 C   0  0  0  0  0  0  0  0  0  0  0  0
   -0.0596    0.6391   -0.0042 C   0  0  0  0  0  0  0  0  0  0  0  0
    0.0088   -0.7676   -0.0018 C   0  0  0  0  0  0  0  0  0  0  0  0
    1.2540   -1.4172    0.0028 C   0  0  0  0  0  0  0  0  0  0  0  0
   -1.2312    1.3003   -0.0080 N   0  0  0  0  0  0  0  0  0  0  0  0
   -2.3856    0.5860   -0.0202 C   0  0  0  0  0  0  0  0  0  0  0  0
   -2.4060   -0.8005   -0.0168 C   0  0  0  0  0  0  0  0  0  0  0  0
   -1.1931   -1.4834   -0.0069 C   0  0  0  0  0  0  0  0  0  0  0  0
    3.6534    1.5415   -0.0069 C   0  0  0  0  0  0  0  0  0  0  0  0
   -3.6454    1.3436   -0.0100 C   0  0  0  0  0  0  0  0  0  0  0  0
   -3.6770    2.6843    0.0163 C   0  0  0  0  0  0  0  0  0  0  0  0
   -4.9624    3.4232    0.1012 C   0  0  0  0  0  0  0  0  0  0  0  0
   -4.8949    4.8050    0.6459 C   0  0  0  0  0  0  0  0  0  0  0  0
   -6.0251    2.9414   -0.2723 O   0  0  0  0  0  0  0  0  0  0  0  0
   -5.8076    5.7588    0.2011 C   0  0  0  0  0  0  0  0  0  0  0  0
   -5.7077    7.0381    0.7190 C   0  0  0  0  0  0  0  0  0  0  0  0
   -4.7864    7.4082    1.6361 N   0  0  0  0  0  0  0  0  0  0  0  0
   -3.9340    6.4559    2.0679 C   0  0  0  0  0  0  0  0  0  0  0  0
   -3.9495    5.1522    1.6137 C   0  0  0  0  0  0  0  0  0  0  0  0
    4.7907    0.7906   -0.0071 F   0  0  0  0  0  0  0  0  0  0  0  0
    3.7432    2.3517   -1.0969 F   0  0  0  0  0  0  0  0  0  0  0  0
    3.7483    2.3583    1.0781 F   0  0  0  0  0  0  0  0  0  0  0  0
    3.3924   -1.2027    0.0037 H   0  0  0  0  0  0  0  0  0  0  0  0
    1.0841    2.4421   -0.0056 H   0  0  0  0  0  0  0  0  0  0  0  0
    1.3106   -2.5046    0.0055 H   0  0  0  0  0  0  0  0  0  0  0  0
   -3.3400   -1.3523   -0.0173 H   0  0  0  0  0  0  0  0  0  0  0  0
   -1.1937   -2.5700   -0.0027 H   0  0  0  0  0  0  0  0  0  0  0  0
   -4.5696    0.7723    0.0062 H   0  0  0  0  0  0  0  0  0  0  0  0
   -2.7633    3.2674    0.0026 H   0  0  0  0  0  0  0  0  0  0  0  0
   -6.5690    5.5178   -0.5332 H   0  0  0  0  0  0  0  0  0  0  0  0
   -6.3831    7.8280    0.4019 H   0  0  0  0  0  0  0  0  0  0  0  0
   -3.2151    6.7793    2.8171 H   0  0  0  0  0  0  0  0  0  0  0  0
   -3.2476    4.4347    2.0238 H   0  0  0  0  0  0  0  0  0  0  0  0
  1  2  2  0  0  0  0
  1 25  1  0  0  0  0
  2  3  1  0  0  0  0
  2 11  1  0  0  0  0
  3  4  2  0  0  0  0
  3 26  1  0  0  0  0
  4  5  1  0  0  0  0
  4  7  1  0  0  0  0
  5  6  2  0  0  0  0
  6  1  1  0  0  0  0
  6 27  1  0  0  0  0
  7  8  2  0  0  0  0
  8  9  1  0  0  0  0
  8 12  1  0  0  0  0
  9 10  2  0  0  0  0
  9 28  1  0  0  0  0
 10  5  1  0  0  0  0
 10 29  1  0  0  0  0
 11 22  1  0  0  0  0
 11 23  1  0  0  0  0
 11 24  1  0  0  0  0
 12 13  2  0  0  0  0
 12 30  1  0  0  0  0
 13 14  1  0  0  0  0
 13 31  1  0  0  0  0
 14 15  1  0  0  0  0
 14 16  2  0  0  0  0
 15 17  2  0  0  0  0
 17 18  1  0  0  0  0
 17 32  1  0  0  0  0
 18 19  2  0  0  0  0
 18 33  1  0  0  0  0
 19 20  1  0  0  0  0
 20 21  2  0  0  0  0
 20 34  1  0  0  0  0
 21 15  1  0  0  0  0
 21 35  1  0  0  0  0
M  END
>  <Mol_ID>
4667

>  <Formula>
C18H11F3N2O

>  <MolWeight>
328.2879496

>  <Cat>
S8807

>  <Name>
PFK158

>  <Synonyms>
N/A

>  <Target>
Autophagy,PFKFB

>  <Form>
free base

>  <CAS>
1462249-75-7

>  <URL>
http://www.selleck.cn/products/pfk158.html

$$$$
