PH-002
 OpenBabel08302521353D

 69 72  0  0  0  0  0  0  0  0999 V2000
   -2.1349   -2.3578   -5.1908 O   0  0  0  0  0  0  0  0  0  0  0  0
   -3.7510   -3.8032   -4.4736 O   0  0  0  0  0  0  0  0  0  0  0  0
   -0.0680    5.3815   -1.8206 O   0  0  0  0  0  0  0  0  0  0  0  0
    2.3933    6.2033    5.3047 O   0  0  0  0  0  0  0  0  0  0  0  0
   -3.8577   -0.0401   -0.9761 N   0  0  0  0  0  0  0  0  0  0  0  0
   -3.5124   -1.7766   -3.3974 N   0  0  0  0  0  0  0  0  0  0  0  0
   -1.2999    5.3927    0.1414 N   0  0  0  0  0  0  0  0  0  0  0  0
    0.8774    5.7705    3.5973 N   0  0  0  0  0  0  0  0  0  0  0  0
    0.4915    5.8537    2.2794 N   0  0  0  0  0  0  0  0  0  0  0  0
   -2.6967    0.0120   -1.8929 C   0  0  0  0  0  0  0  0  0  0  0  0
   -4.4673   -1.3867   -1.0723 C   0  0  0  0  0  0  0  0  0  0  0  0
   -2.9855   -0.4153   -3.3498 C   0  0  0  0  0  0  0  0  0  0  0  0
   -4.6578   -1.9930   -2.4980 C   0  0  0  0  0  0  0  0  0  0  0  0
   -4.8188    1.0796   -1.0957 C   0  0  0  0  0  0  0  0  0  0  0  0
   -3.1740   -2.7264   -4.3724 C   0  0  0  0  0  0  0  0  0  0  0  0
   -4.1803    2.4393   -0.8057 C   0  0  0  0  0  0  0  0  0  0  0  0
   -1.5925   -3.2438   -6.2373 C   0  0  0  0  0  0  0  0  0  0  0  0
   -3.5780    3.1669   -1.8406 C   0  0  0  0  0  0  0  0  0  0  0  0
   -4.0367    2.9295    0.5005 C   0  0  0  0  0  0  0  0  0  0  0  0
   -2.6007   -3.5366   -7.3586 C   0  0  0  0  0  0  0  0  0  0  0  0
   -0.4123   -2.4831   -6.8795 C   0  0  0  0  0  0  0  0  0  0  0  0
   -1.0346   -4.5619   -5.6778 C   0  0  0  0  0  0  0  0  0  0  0  0
   -2.6695    4.1952   -1.5588 C   0  0  0  0  0  0  0  0  0  0  0  0
   -3.1605    3.9920    0.7772 C   0  0  0  0  0  0  0  0  0  0  0  0
   -2.3837    4.5531   -0.2382 C   0  0  0  0  0  0  0  0  0  0  0  0
    0.8428    6.6023   -0.0163 C   0  0  0  0  0  0  0  0  0  0  0  0
   -0.2074    5.7079   -0.6382 C   0  0  0  0  0  0  0  0  0  0  0  0
    1.2519    6.4846    1.4404 C   0  0  0  0  0  0  0  0  0  0  0  0
    2.4907    7.1978    1.8641 C   0  0  0  0  0  0  0  0  0  0  0  0
    2.8831    7.0828    3.1942 C   0  0  0  0  0  0  0  0  0  0  0  0
    2.0535    6.3012    4.1214 C   0  0  0  0  0  0  0  0  0  0  0  0
    3.2141    8.0408    1.0099 C   0  0  0  0  0  0  0  0  0  0  0  0
    3.9997    7.7916    3.6707 C   0  0  0  0  0  0  0  0  0  0  0  0
    4.2973    8.7803    1.4941 C   0  0  0  0  0  0  0  0  0  0  0  0
    4.6926    8.6535    2.8232 C   0  0  0  0  0  0  0  0  0  0  0  0
   -0.0937    5.2176    4.5232 C   0  0  0  0  0  0  0  0  0  0  0  0
   -1.1780    5.5498    1.1403 H   0  0  0  0  0  0  0  0  0  0  0  0
   -2.2119    0.9898   -1.8767 H   0  0  0  0  0  0  0  0  0  0  0  0
   -1.9407   -0.6714   -1.4832 H   0  0  0  0  0  0  0  0  0  0  0  0
   -3.7941   -2.0614   -0.5247 H   0  0  0  0  0  0  0  0  0  0  0  0
   -5.4142   -1.4258   -0.5184 H   0  0  0  0  0  0  0  0  0  0  0  0
   -3.7501    0.2387   -3.7880 H   0  0  0  0  0  0  0  0  0  0  0  0
   -2.0828   -0.3204   -3.9567 H   0  0  0  0  0  0  0  0  0  0  0  0
   -5.5276   -1.5239   -2.9720 H   0  0  0  0  0  0  0  0  0  0  0  0
   -4.8676   -3.0646   -2.4083 H   0  0  0  0  0  0  0  0  0  0  0  0
   -5.3075    1.0943   -2.0767 H   0  0  0  0  0  0  0  0  0  0  0  0
   -5.6228    0.9428   -0.3579 H   0  0  0  0  0  0  0  0  0  0  0  0
   -3.7244    2.8669   -2.8758 H   0  0  0  0  0  0  0  0  0  0  0  0
   -4.5511    2.4450    1.3285 H   0  0  0  0  0  0  0  0  0  0  0  0
   -3.0091   -2.6118   -7.7779 H   0  0  0  0  0  0  0  0  0  0  0  0
   -2.1226   -4.0944   -8.1761 H   0  0  0  0  0  0  0  0  0  0  0  0
   -3.4430   -4.1384   -7.0073 H   0  0  0  0  0  0  0  0  0  0  0  0
    0.3435   -2.2176   -6.1328 H   0  0  0  0  0  0  0  0  0  0  0  0
    0.0780   -3.0819   -7.6587 H   0  0  0  0  0  0  0  0  0  0  0  0
   -0.7488   -1.5481   -7.3408 H   0  0  0  0  0  0  0  0  0  0  0  0
   -0.3473   -4.3831   -4.8453 H   0  0  0  0  0  0  0  0  0  0  0  0
   -1.8285   -5.2204   -5.3140 H   0  0  0  0  0  0  0  0  0  0  0  0
   -0.4911   -5.1184   -6.4538 H   0  0  0  0  0  0  0  0  0  0  0  0
   -2.1604    4.6638   -2.3962 H   0  0  0  0  0  0  0  0  0  0  0  0
   -3.0329    4.3124    1.8073 H   0  0  0  0  0  0  0  0  0  0  0  0
    1.7474    6.4305   -0.6158 H   0  0  0  0  0  0  0  0  0  0  0  0
    0.5132    7.6339   -0.1830 H   0  0  0  0  0  0  0  0  0  0  0  0
    2.9389    8.1772   -0.0314 H   0  0  0  0  0  0  0  0  0  0  0  0
    4.3062    7.7032    4.7133 H   0  0  0  0  0  0  0  0  0  0  0  0
    4.8202    9.4709    0.8348 H   0  0  0  0  0  0  0  0  0  0  0  0
    5.5249    9.2435    3.2026 H   0  0  0  0  0  0  0  0  0  0  0  0
    0.3999    4.6503    5.3200 H   0  0  0  0  0  0  0  0  0  0  0  0
   -0.6350    6.0554    4.9781 H   0  0  0  0  0  0  0  0  0  0  0  0
   -0.7978    4.5701    3.9941 H   0  0  0  0  0  0  0  0  0  0  0  0
  1 15  1  0  0  0  0
  1 17  1  0  0  0  0
  2 15  2  0  0  0  0
  3 27  2  0  0  0  0
  4 31  2  0  0  0  0
  5 10  1  0  0  0  0
  5 11  1  0  0  0  0
  5 14  1  0  0  0  0
  6 12  1  0  0  0  0
  6 13  1  0  0  0  0
  6 15  1  0  0  0  0
  7 25  1  0  0  0  0
  7 27  1  0  0  0  0
  7 37  1  0  0  0  0
  8  9  1  0  0  0  0
  8 31  1  0  0  0  0
  8 36  1  0  0  0  0
  9 28  2  0  0  0  0
 10 12  1  0  0  0  0
 10 38  1  0  0  0  0
 10 39  1  0  0  0  0
 11 13  1  0  0  0  0
 11 40  1  0  0  0  0
 11 41  1  0  0  0  0
 12 42  1  0  0  0  0
 12 43  1  0  0  0  0
 13 44  1  0  0  0  0
 13 45  1  0  0  0  0
 14 16  1  0  0  0  0
 14 46  1  0  0  0  0
 14 47  1  0  0  0  0
 16 18  2  0  0  0  0
 16 19  1  0  0  0  0
 17 20  1  0  0  0  0
 17 21  1  0  0  0  0
 17 22  1  0  0  0  0
 18 23  1  0  0  0  0
 18 48  1  0  0  0  0
 19 24  2  0  0  0  0
 19 49  1  0  0  0  0
 20 50  1  0  0  0  0
 20 51  1  0  0  0  0
 20 52  1  0  0  0  0
 21 53  1  0  0  0  0
 21 54  1  0  0  0  0
 21 55  1  0  0  0  0
 22 56  1  0  0  0  0
 22 57  1  0  0  0  0
 22 58  1  0  0  0  0
 23 25  2  0  0  0  0
 23 59  1  0  0  0  0
 24 25  1  0  0  0  0
 24 60  1  0  0  0  0
 26 27  1  0  0  0  0
 26 28  1  0  0  0  0
 26 61  1  0  0  0  0
 26 62  1  0  0  0  0
 28 29  1  0  0  0  0
 29 30  2  0  0  0  0
 29 32  1  0  0  0  0
 30 31  1  0  0  0  0
 30 33  1  0  0  0  0
 32 34  2  0  0  0  0
 32 63  1  0  0  0  0
 33 35  2  0  0  0  0
 33 64  1  0  0  0  0
 34 35  1  0  0  0  0
 34 65  1  0  0  0  0
 35 66  1  0  0  0  0
 36 67  1  0  0  0  0
 36 68  1  0  0  0  0
 36 69  1  0  0  0  0
M  END
>  <Mol_ID>
6616

>  <Formula>
C27H33N5O4

>  <MolWeight>
491.58202

>  <Cat>
S0082

>  <Name>
PH-002

>  <Synonyms>
N/A

>  <Target>
Others

>  <Form>
Free base

>  <CAS>
1311174-68-1

>  <URL>
http://www.selleckchem.com/products/ph-002.html

$$$$
