PHA.cdx
 OpenBabel08302521493D

 27 29  0  0  0  0  0  0  0  0999 V2000
   -0.7482    0.9711    0.4185 C   0  0  0  0  0  0  0  0  0  0  0  0
   -1.3853   -0.0564   -0.1809 N   0  0  0  0  0  0  0  0  0  0  0  0
   -0.6077   -1.0328   -0.6907 C   0  0  0  0  0  0  0  0  0  0  0  0
    0.7765   -1.0234   -0.6386 C   0  0  0  0  0  0  0  0  0  0  0  0
    1.4165    0.0543   -0.0230 C   0  0  0  0  0  0  0  0  0  0  0  0
    0.6298    1.0690    0.5249 C   0  0  0  0  0  0  0  0  0  0  0  0
    2.8762    0.1273    0.0480 C   0  0  0  0  0  0  0  0  0  0  0  0
    3.7001   -0.3996   -0.9283 N   0  0  0  0  0  0  0  0  0  0  0  0
    5.0061   -0.1653   -0.6079 C   0  0  0  0  0  0  0  0  0  0  0  0
    5.0510    0.5125    0.5896 C   0  0  0  0  0  0  0  0  0  0  0  0
    3.7074    0.7058    0.9964 C   0  0  0  0  0  0  0  0  0  0  0  0
    6.1731   -0.5737   -1.4199 C   0  0  0  0  0  0  0  0  0  0  0  0
    7.4986   -0.1355   -0.7614 C   0  0  0  0  0  0  0  0  0  0  0  0
    7.4312    0.5315    0.5357 N   0  0  0  0  0  0  0  0  0  0  0  0
    6.2950    0.9013    1.2178 C   0  0  0  0  0  0  0  0  0  0  0  0
    6.3601    1.5096    2.2800 O   0  0  0  0  0  0  0  0  0  0  0  0
   -1.3945    1.7444    0.8237 H   0  0  0  0  0  0  0  0  0  0  0  0
   -1.1425   -1.8548   -1.1585 H   0  0  0  0  0  0  0  0  0  0  0  0
    1.3288   -1.8559   -1.0573 H   0  0  0  0  0  0  0  0  0  0  0  0
    1.0718    1.9300    1.0143 H   0  0  0  0  0  0  0  0  0  0  0  0
    3.3770   -0.8677   -1.7632 H   0  0  0  0  0  0  0  0  0  0  0  0
    3.3894    1.2085    1.9021 H   0  0  0  0  0  0  0  0  0  0  0  0
    6.1028   -0.1327   -2.4213 H   0  0  0  0  0  0  0  0  0  0  0  0
    6.1725   -1.6617   -1.5546 H   0  0  0  0  0  0  0  0  0  0  0  0
    8.0321    0.5467   -1.4330 H   0  0  0  0  0  0  0  0  0  0  0  0
    8.1478   -1.0086   -0.6297 H   0  0  0  0  0  0  0  0  0  0  0  0
    8.2879    0.8232    0.9865 H   0  0  0  0  0  0  0  0  0  0  0  0
  1  2  2  0  0  0  0
  1 17  1  0  0  0  0
  2  3  1  0  0  0  0
  3  4  2  0  0  0  0
  3 18  1  0  0  0  0
  4  5  1  0  0  0  0
  4 19  1  0  0  0  0
  5  6  2  0  0  0  0
  5  7  1  0  0  0  0
  6  1  1  0  0  0  0
  6 20  1  0  0  0  0
  7  8  1  0  0  0  0
  8  9  1  0  0  0  0
  8 21  1  0  0  0  0
  9 10  2  0  0  0  0
  9 12  1  0  0  0  0
 10 11  1  0  0  0  0
 11  7  2  0  0  0  0
 11 22  1  0  0  0  0
 12 13  1  0  0  0  0
 12 23  1  0  0  0  0
 12 24  1  0  0  0  0
 13 14  1  0  0  0  0
 13 25  1  0  0  0  0
 13 26  1  0  0  0  0
 14 15  1  0  0  0  0
 14 27  1  0  0  0  0
 15 10  1  0  0  0  0
 15 16  2  0  0  0  0
M  END
>  <Mol_ID>
978

>  <Formula>
C12H11N3O

>  <MolWeight>
213.23524

>  <Cat>
S2742

>  <Name>
PHA-767491 HCl

>  <Synonyms>
CAY10572, NMS 1116354

>  <Target>
CDK

>  <Form>
HCl

>  <CAS>
942425-68-5

>  <URL>
http://selleckchem.com/products/pha-767491.html

$$$$
