Phellopterin
 OpenBabel08302521493D

 38 40  0  0  0  0  0  0  0  0999 V2000
    1.3804    0.1717    0.2580 O   0  0  0  0  0  0  0  0  0  0  0  0
    0.7169   -0.9460    0.8645 C   0  0  0  0  0  0  0  0  0  0  0  0
   -0.6185   -0.4579    1.3294 C   0  0  0  0  0  0  0  0  0  0  0  0
   -1.8217   -0.9970    1.0530 C   0  0  0  0  0  0  0  0  0  0  0  0
   -3.0715   -0.2823    1.4799 C   0  0  0  0  0  0  0  0  0  0  0  0
   -2.0110   -2.2740    0.2815 C   0  0  0  0  0  0  0  0  0  0  0  0
    6.9334   -0.4537   -0.2517 O   0  0  0  0  0  0  0  0  0  0  0  0
    7.9675    0.5033   -0.2758 C   0  0  0  0  0  0  0  0  0  0  0  0
    2.8777    4.6963   -0.0329 O   0  0  0  0  0  0  0  0  0  0  0  0
    3.5524    1.1568   -0.0170 C   0  0  0  0  0  0  0  0  0  0  0  0
    2.7417    0.0129    0.0938 C   0  0  0  0  0  0  0  0  0  0  0  0
    4.9631    1.1257   -0.1387 C   0  0  0  0  0  0  0  0  0  0  0  0
    2.8502    2.4009    0.0214 O   0  0  0  0  0  0  0  0  0  0  0  0
    3.4249   -1.1977    0.0027 C   0  0  0  0  0  0  0  0  0  0  0  0
    5.6155   -0.1380   -0.1699 C   0  0  0  0  0  0  0  0  0  0  0  0
    5.6179    2.4363   -0.2138 C   0  0  0  0  0  0  0  0  0  0  0  0
    3.4727    3.6275   -0.0563 C   0  0  0  0  0  0  0  0  0  0  0  0
    4.7998   -1.3001   -0.1141 C   0  0  0  0  0  0  0  0  0  0  0  0
    2.8611   -2.4420    0.0179 O   0  0  0  0  0  0  0  0  0  0  0  0
    4.9369    3.5849   -0.1708 C   0  0  0  0  0  0  0  0  0  0  0  0
    5.0689   -2.7047   -0.1323 C   0  0  0  0  0  0  0  0  0  0  0  0
    3.8629   -3.3465   -0.0597 C   0  0  0  0  0  0  0  0  0  0  0  0
    0.6012   -1.7433    0.1248 H   0  0  0  0  0  0  0  0  0  0  0  0
    1.2753   -1.3081    1.7367 H   0  0  0  0  0  0  0  0  0  0  0  0
   -0.5719    0.4588    1.9147 H   0  0  0  0  0  0  0  0  0  0  0  0
   -3.4549    0.3037    0.6380 H   0  0  0  0  0  0  0  0  0  0  0  0
   -3.8457   -0.9861    1.7981 H   0  0  0  0  0  0  0  0  0  0  0  0
   -2.8850    0.4015    2.3149 H   0  0  0  0  0  0  0  0  0  0  0  0
   -1.5130   -2.2308   -0.6917 H   0  0  0  0  0  0  0  0  0  0  0  0
   -1.6190   -3.1264    0.8478 H   0  0  0  0  0  0  0  0  0  0  0  0
   -3.0716   -2.4712    0.0919 H   0  0  0  0  0  0  0  0  0  0  0  0
    7.9326    1.0868   -1.1998 H   0  0  0  0  0  0  0  0  0  0  0  0
    7.9591    1.1241    0.6244 H   0  0  0  0  0  0  0  0  0  0  0  0
    8.9186   -0.0376   -0.2782 H   0  0  0  0  0  0  0  0  0  0  0  0
    6.6854    2.5245   -0.3078 H   0  0  0  0  0  0  0  0  0  0  0  0
    5.4356    4.5456   -0.2226 H   0  0  0  0  0  0  0  0  0  0  0  0
    6.0419   -3.1754   -0.1952 H   0  0  0  0  0  0  0  0  0  0  0  0
    3.5585   -4.3845   -0.0474 H   0  0  0  0  0  0  0  0  0  0  0  0
  1  2  1  0  0  0  0
  1 11  1  0  0  0  0
  2  3  1  0  0  0  0
  2 23  1  0  0  0  0
  2 24  1  0  0  0  0
  3  4  2  0  0  0  0
  3 25  1  0  0  0  0
  4  5  1  0  0  0  0
  4  6  1  0  0  0  0
  5 26  1  0  0  0  0
  5 27  1  0  0  0  0
  5 28  1  0  0  0  0
  6 29  1  0  0  0  0
  6 30  1  0  0  0  0
  6 31  1  0  0  0  0
  7  8  1  0  0  0  0
  7 15  1  0  0  0  0
  8 32  1  0  0  0  0
  8 33  1  0  0  0  0
  8 34  1  0  0  0  0
  9 17  2  0  0  0  0
 10 11  2  0  0  0  0
 10 12  1  0  0  0  0
 10 13  1  0  0  0  0
 11 14  1  0  0  0  0
 12 15  2  0  0  0  0
 12 16  1  0  0  0  0
 13 17  1  0  0  0  0
 14 18  2  0  0  0  0
 14 19  1  0  0  0  0
 15 18  1  0  0  0  0
 16 20  2  0  0  0  0
 16 35  1  0  0  0  0
 17 20  1  0  0  0  0
 18 21  1  0  0  0  0
 19 22  1  0  0  0  0
 20 36  1  0  0  0  0
 21 22  2  0  0  0  0
 21 37  1  0  0  0  0
 22 38  1  0  0  0  0
M  END
>  <Mol_ID>
9846

>  <Formula>
C17H16O5

>  <MolWeight>
300.30594

>  <Cat>
E2528

>  <Name>
Phellopterin

>  <Synonyms>
NA

>  <Target>
STAT3

>  <Form>
free base

>  <CAS>
2543-94-4

>  <URL>
https://www.selleckchem.com/products/phellopterin.html

$$$$
