Phenyl-ac-Gly-OH
 OpenBabel08302520383D

 25 25  0  0  0  0  0  0  0  0999 V2000
   -3.2123    3.5001    2.8834 C   0  0  0  0  0  0  0  0  0  0  0  0
   -2.2007    2.3654    2.8356 C   0  0  0  0  0  0  0  0  0  0  0  0
   -2.7472    1.2321    2.1170 N   0  0  0  0  0  0  0  0  0  0  0  0
   -2.0229    0.0776    1.9452 C   0  0  0  0  0  0  0  0  0  0  0  0
   -0.8823   -0.0535    2.3815 O   0  0  0  0  0  0  0  0  0  0  0  0
   -2.7546   -1.0227    1.2000 C   0  0  0  0  0  0  0  0  0  0  0  0
   -2.5132   -1.0280   -0.2893 C   0  0  0  0  0  0  0  0  0  0  0  0
   -1.2169   -1.1715   -0.8045 C   0  0  0  0  0  0  0  0  0  0  0  0
   -1.0058   -1.2582   -2.1821 C   0  0  0  0  0  0  0  0  0  0  0  0
   -2.0866   -1.2041   -3.0596 C   0  0  0  0  0  0  0  0  0  0  0  0
   -3.3784   -1.0519   -2.5610 C   0  0  0  0  0  0  0  0  0  0  0  0
   -3.5919   -0.9636   -1.1837 C   0  0  0  0  0  0  0  0  0  0  0  0
   -4.3260    3.4480    2.3767 O   0  0  0  0  0  0  0  0  0  0  0  0
   -2.7679    4.5932    3.5457 O   0  0  0  0  0  0  0  0  0  0  0  0
   -1.2949    2.7005    2.3217 H   0  0  0  0  0  0  0  0  0  0  0  0
   -1.9617    2.0445    3.8542 H   0  0  0  0  0  0  0  0  0  0  0  0
   -3.6424    1.3553    1.6517 H   0  0  0  0  0  0  0  0  0  0  0  0
   -2.4412   -1.9879    1.6193 H   0  0  0  0  0  0  0  0  0  0  0  0
   -3.8274   -0.9396    1.4158 H   0  0  0  0  0  0  0  0  0  0  0  0
   -0.3612   -1.2321   -0.1334 H   0  0  0  0  0  0  0  0  0  0  0  0
    0.0026   -1.3803   -2.5692 H   0  0  0  0  0  0  0  0  0  0  0  0
   -1.9226   -1.2871   -4.1308 H   0  0  0  0  0  0  0  0  0  0  0  0
   -4.2225   -1.0142   -3.2452 H   0  0  0  0  0  0  0  0  0  0  0  0
   -4.6108   -0.8621   -0.8170 H   0  0  0  0  0  0  0  0  0  0  0  0
   -1.8608    4.5062    3.8984 H   0  0  0  0  0  0  0  0  0  0  0  0
  1  2  1  0  0  0  0
  1 13  2  0  0  0  0
  1 14  1  0  0  0  0
  2  3  1  0  0  0  0
  2 15  1  0  0  0  0
  2 16  1  0  0  0  0
  3  4  1  0  0  0  0
  3 17  1  0  0  0  0
  4  5  2  0  0  0  0
  4  6  1  0  0  0  0
  6  7  1  0  0  0  0
  6 18  1  0  0  0  0
  6 19  1  0  0  0  0
  7  8  2  0  0  0  0
  7 12  1  0  0  0  0
  8  9  1  0  0  0  0
  8 20  1  0  0  0  0
  9 10  2  0  0  0  0
  9 21  1  0  0  0  0
 10 11  1  0  0  0  0
 10 22  1  0  0  0  0
 11 12  2  0  0  0  0
 11 23  1  0  0  0  0
 12 24  1  0  0  0  0
 14 25  1  0  0  0  0
M  END
>  <Mol_ID>
3534

>  <Formula>
C10H11NO3

>  <MolWeight>
193.19924

>  <Cat>
S6051

>  <Name>
Phenyl-ac-Gly-OH

>  <Synonyms>
N-(2-Phenylacetyl)glycine, 2-Phenylacetyl glycine, Phenaceturic acid, Phenacetylglycine

>  <Target>
Others

>  <Form>
free base

>  <CAS>
500-98-1

>  <URL>
http://www.selleck.cn/products/phenyl-ac-gly-oh.html

$$$$
