Phenytoin.cdx
 OpenBabel08302521393D

 31 33  0  0  0  0  0  0  0  0999 V2000
   -0.7391   -1.3668   -0.0172 C   0  0  0  0  0  0  0  0  0  0  0  0
    0.7057   -1.1828   -0.0082 N   0  0  0  0  0  0  0  0  0  0  0  0
    1.0880    0.1272   -0.0095 C   0  0  0  0  0  0  0  0  0  0  0  0
   -0.0079    0.9093   -0.0659 N   0  0  0  0  0  0  0  0  0  0  0  0
   -1.1359    0.1467   -0.0740 C   0  0  0  0  0  0  0  0  0  0  0  0
    2.2419    0.5142    0.0395 O   0  0  0  0  0  0  0  0  0  0  0  0
   -2.2634    0.6214   -0.1050 O   0  0  0  0  0  0  0  0  0  0  0  0
   -1.1363   -2.1875   -1.2510 C   0  0  0  0  0  0  0  0  0  0  0  0
   -1.2655   -1.9834    1.2908 C   0  0  0  0  0  0  0  0  0  0  0  0
   -0.4182   -2.3179    2.3627 C   0  0  0  0  0  0  0  0  0  0  0  0
   -0.9348   -2.8219    3.5598 C   0  0  0  0  0  0  0  0  0  0  0  0
   -2.3057   -3.0095    3.7083 C   0  0  0  0  0  0  0  0  0  0  0  0
   -3.1629   -2.7053    2.6558 C   0  0  0  0  0  0  0  0  0  0  0  0
   -2.6492   -2.1981    1.4593 C   0  0  0  0  0  0  0  0  0  0  0  0
   -0.6030   -3.4819   -1.4270 C   0  0  0  0  0  0  0  0  0  0  0  0
   -1.0439   -4.3104   -2.4610 C   0  0  0  0  0  0  0  0  0  0  0  0
   -2.0184   -3.8605   -3.3461 C   0  0  0  0  0  0  0  0  0  0  0  0
   -2.5269   -2.5718   -3.2187 C   0  0  0  0  0  0  0  0  0  0  0  0
   -2.0871   -1.7405   -2.1851 C   0  0  0  0  0  0  0  0  0  0  0  0
    1.3867   -1.9260    0.0279 H   0  0  0  0  0  0  0  0  0  0  0  0
    0.0095    1.9118   -0.0721 H   0  0  0  0  0  0  0  0  0  0  0  0
    0.6577   -2.1774    2.2959 H   0  0  0  0  0  0  0  0  0  0  0  0
   -0.2636   -3.0572    4.3820 H   0  0  0  0  0  0  0  0  0  0  0  0
   -2.7057   -3.3869    4.6459 H   0  0  0  0  0  0  0  0  0  0  0  0
   -4.2347   -2.8511    2.7683 H   0  0  0  0  0  0  0  0  0  0  0  0
   -3.3488   -1.9556    0.6594 H   0  0  0  0  0  0  0  0  0  0  0  0
    0.1405   -3.8710   -0.7344 H   0  0  0  0  0  0  0  0  0  0  0  0
   -0.6429   -5.3158   -2.5600 H   0  0  0  0  0  0  0  0  0  0  0  0
   -2.3880   -4.5162   -4.1299 H   0  0  0  0  0  0  0  0  0  0  0  0
   -3.2858   -2.2161   -3.9116 H   0  0  0  0  0  0  0  0  0  0  0  0
   -2.5341   -0.7511   -2.1152 H   0  0  0  0  0  0  0  0  0  0  0  0
  1  2  1  0  0  0  0
  1  8  1  0  0  0  0
  1  9  1  0  0  0  0
  2  3  1  0  0  0  0
  2 20  1  0  0  0  0
  3  4  1  0  0  0  0
  3  6  2  0  0  0  0
  4  5  1  0  0  0  0
  4 21  1  0  0  0  0
  5  1  1  0  0  0  0
  5  7  2  0  0  0  0
  8 15  2  0  0  0  0
  9 10  2  0  0  0  0
 10 11  1  0  0  0  0
 10 22  1  0  0  0  0
 11 12  2  0  0  0  0
 11 23  1  0  0  0  0
 12 13  1  0  0  0  0
 12 24  1  0  0  0  0
 13 14  2  0  0  0  0
 13 25  1  0  0  0  0
 14  9  1  0  0  0  0
 14 26  1  0  0  0  0
 15 16  1  0  0  0  0
 15 27  1  0  0  0  0
 16 17  2  0  0  0  0
 16 28  1  0  0  0  0
 17 18  1  0  0  0  0
 17 29  1  0  0  0  0
 18 19  2  0  0  0  0
 18 30  1  0  0  0  0
 19  8  1  0  0  0  0
 19 31  1  0  0  0  0
M  END
>  <Mol_ID>
784

>  <Formula>
C15H12N2O2

>  <MolWeight>
252.26798

>  <Cat>
S2525

>  <Name>
Phenytoin

>  <Synonyms>
Di-Hydan, Dihycon, Dilabid, Diphedan, Diphenat, Diphenylan, Diphenylhydantoin, Hydantol, Lehydan, NSC 8722

>  <Target>
Sodium Channel

>  <Form>
Free Base

>  <CAS>
57-41-0

>  <URL>
http://selleckchem.com/products/Phenytoin-Lepitoin.html

$$$$
