Phenol, 4-[2-(3-hydroxy-5-methoxyphenyl)ethyl]-2-
 OpenBabel08302521503D

 38 39  0  0  0  0  0  0  0  0999 V2000
    0.7896   -0.0423    0.1040 C   0  0  0  0  0  0  0  0  0  0  0  0
    0.6243   -1.4381   -0.5124 C   0  0  0  0  0  0  0  0  0  0  0  0
    1.1018   -0.3725    5.0716 O   0  0  0  0  0  0  0  0  0  0  0  0
    2.4754    0.0003    5.0654 C   0  0  0  0  0  0  0  0  0  0  0  0
   -3.0656    0.5166    3.1234 O   0  0  0  0  0  0  0  0  0  0  0  0
    4.6266   -2.3518   -3.3539 O   0  0  0  0  0  0  0  0  0  0  0  0
    5.3254   -2.8443   -2.2161 C   0  0  0  0  0  0  0  0  0  0  0  0
    3.3185   -1.4251   -5.4894 O   0  0  0  0  0  0  0  0  0  0  0  0
    0.1890    0.0421    1.4913 C   0  0  0  0  0  0  0  0  0  0  0  0
    0.9837   -0.1890    2.6264 C   0  0  0  0  0  0  0  0  0  0  0  0
   -1.1766    0.3122    1.6533 C   0  0  0  0  0  0  0  0  0  0  0  0
    0.4241   -0.1503    3.9052 C   0  0  0  0  0  0  0  0  0  0  0  0
   -1.7308    0.3076    2.9310 C   0  0  0  0  0  0  0  0  0  0  0  0
   -0.9435    0.0817    4.0520 C   0  0  0  0  0  0  0  0  0  0  0  0
    1.3128   -1.5274   -1.8552 C   0  0  0  0  0  0  0  0  0  0  0  0
    2.6465   -1.9700   -1.9325 C   0  0  0  0  0  0  0  0  0  0  0  0
    0.6575   -1.1137   -3.0241 C   0  0  0  0  0  0  0  0  0  0  0  0
    3.3284   -1.9599   -3.1509 C   0  0  0  0  0  0  0  0  0  0  0  0
    1.3346   -1.0954   -4.2427 C   0  0  0  0  0  0  0  0  0  0  0  0
    2.6621   -1.5017   -4.2921 C   0  0  0  0  0  0  0  0  0  0  0  0
    0.3259    0.7173   -0.5368 H   0  0  0  0  0  0  0  0  0  0  0  0
    1.8533    0.2293    0.1560 H   0  0  0  0  0  0  0  0  0  0  0  0
    1.0361   -2.2031    0.1590 H   0  0  0  0  0  0  0  0  0  0  0  0
   -0.4388   -1.6866   -0.6277 H   0  0  0  0  0  0  0  0  0  0  0  0
    3.0740   -0.7086    4.4852 H   0  0  0  0  0  0  0  0  0  0  0  0
    2.6092    1.0233    4.6974 H   0  0  0  0  0  0  0  0  0  0  0  0
    2.8337   -0.0322    6.0990 H   0  0  0  0  0  0  0  0  0  0  0  0
   -3.5157    0.4436    2.2668 H   0  0  0  0  0  0  0  0  0  0  0  0
    5.4720   -2.0493   -1.4775 H   0  0  0  0  0  0  0  0  0  0  0  0
    4.8145   -3.7066   -1.7741 H   0  0  0  0  0  0  0  0  0  0  0  0
    6.3124   -3.1803   -2.5479 H   0  0  0  0  0  0  0  0  0  0  0  0
    4.2354   -1.6976   -5.2907 H   0  0  0  0  0  0  0  0  0  0  0  0
    2.0370   -0.4182    2.4936 H   0  0  0  0  0  0  0  0  0  0  0  0
   -1.7933    0.5202    0.7872 H   0  0  0  0  0  0  0  0  0  0  0  0
   -1.3899    0.0889    5.0405 H   0  0  0  0  0  0  0  0  0  0  0  0
    3.1318   -2.3024   -1.0205 H   0  0  0  0  0  0  0  0  0  0  0  0
   -0.3792   -0.7847   -2.9906 H   0  0  0  0  0  0  0  0  0  0  0  0
    0.8363   -0.7587   -5.1479 H   0  0  0  0  0  0  0  0  0  0  0  0
  1  2  1  0  0  0  0
  1  9  1  0  0  0  0
  1 21  1  0  0  0  0
  1 22  1  0  0  0  0
  2 15  1  0  0  0  0
  2 23  1  0  0  0  0
  2 24  1  0  0  0  0
  3  4  1  0  0  0  0
  3 12  1  0  0  0  0
  4 25  1  0  0  0  0
  4 26  1  0  0  0  0
  4 27  1  0  0  0  0
  5 13  1  0  0  0  0
  5 28  1  0  0  0  0
  6  7  1  0  0  0  0
  6 18  1  0  0  0  0
  7 29  1  0  0  0  0
  7 30  1  0  0  0  0
  7 31  1  0  0  0  0
  8 20  1  0  0  0  0
  8 32  1  0  0  0  0
  9 10  2  0  0  0  0
  9 11  1  0  0  0  0
 10 12  1  0  0  0  0
 10 33  1  0  0  0  0
 11 13  2  0  0  0  0
 11 34  1  0  0  0  0
 12 14  2  0  0  0  0
 13 14  1  0  0  0  0
 14 35  1  0  0  0  0
 15 16  2  0  0  0  0
 15 17  1  0  0  0  0
 16 18  1  0  0  0  0
 16 36  1  0  0  0  0
 17 19  2  0  0  0  0
 17 37  1  0  0  0  0
 18 20  2  0  0  0  0
 19 20  1  0  0  0  0
 19 38  1  0  0  0  0
M  END
>  <Mol_ID>
9905

>  <Formula>
C16H18O4

>  <MolWeight>
274.31172

>  <Cat>
E5047

>  <Name>
Phenol, 4-[2-(3-hydroxy-5-methoxyphenyl)ethyl]-2-

>  <Synonyms>
Gigantol

>  <Target>
Others

>  <Form>
free base

>  <CAS>
83088-28-2

>  <URL>
https://www.selleckchem.com/products/phenol-4-2-3-hydroxy-5-methoxyphenyl-ethyl-2-methoxy.html

$$$$
