Phenol Red sodium salt
 OpenBabel08302521303D

 38 41  0  0  0  0  0  0  0  0999 V2000
   -1.5881   -1.5001    0.0332 S   0  0  0  0  0  0  0  0  0  0  0  0
   -2.5897   -0.2262    0.1115 O   0  0  0  0  0  0  0  0  0  0  0  0
   -1.7362   -2.1690   -1.2413 O   0  0  0  0  0  0  0  0  0  0  0  0
   -1.6339   -2.2109    1.2946 O   0  0  0  0  0  0  0  0  0  0  0  0
   -3.9591    3.6645   -4.6226 O   0  5  0  0  0  0  0  0  0  0  0  0
   -3.7711    3.9759    4.5945 O   0  0  0  0  0  0  0  0  0  0  0  0
   -1.9123    1.0583    0.0290 C   0  0  3  0  0  0  0  0  0  0  0  0
   -0.4064    0.7573    0.0532 C   0  0  0  0  0  0  0  0  0  0  0  0
   -0.1075   -0.6005    0.0055 C   0  0  0  0  0  0  0  0  0  0  0  0
   -2.4324    1.6807   -1.2779 C   0  0  0  0  0  0  0  0  0  0  0  0
   -2.3308    1.8704    1.2832 C   0  0  0  0  0  0  0  0  0  0  0  0
    0.6567    1.6558    0.1003 C   0  0  0  0  0  0  0  0  0  0  0  0
    1.1746   -1.1233   -0.0047 C   0  0  0  0  0  0  0  0  0  0  0  0
   -3.8094    1.9135   -1.4364 C   0  0  0  0  0  0  0  0  0  0  0  0
   -1.6064    2.0893   -2.3310 C   0  0  0  0  0  0  0  0  0  0  0  0
   -2.6239    1.2253    2.5016 C   0  0  0  0  0  0  0  0  0  0  0  0
   -2.4631    3.2753    1.2417 C   0  0  0  0  0  0  0  0  0  0  0  0
    1.9715    1.1648    0.0748 C   0  0  0  0  0  0  0  0  0  0  0  0
    2.2288   -0.2154    0.0230 C   0  0  0  0  0  0  0  0  0  0  0  0
   -4.3125    2.5808   -2.5649 C   0  0  0  0  0  0  0  0  0  0  0  0
   -2.1358    2.7496   -3.4538 C   0  0  0  0  0  0  0  0  0  0  0  0
   -3.0901    1.9440    3.6069 C   0  0  0  0  0  0  0  0  0  0  0  0
   -2.9470    3.9915    2.3413 C   0  0  0  0  0  0  0  0  0  0  0  0
   -3.4996    3.0385   -3.6124 C   0  0  0  0  0  0  0  0  0  0  0  0
   -3.2674    3.3168    3.5122 C   0  0  0  0  0  0  0  0  0  0  0  0
   -3.9519    4.8923    4.3274 H   0  0  0  0  0  0  0  0  0  0  0  0
    0.4804    2.7282    0.1306 H   0  0  0  0  0  0  0  0  0  0  0  0
    1.3473   -2.1936   -0.0322 H   0  0  0  0  0  0  0  0  0  0  0  0
   -4.5155    1.6123   -0.6665 H   0  0  0  0  0  0  0  0  0  0  0  0
   -0.5338    1.9332   -2.3231 H   0  0  0  0  0  0  0  0  0  0  0  0
   -2.5266    0.1460    2.5984 H   0  0  0  0  0  0  0  0  0  0  0  0
   -2.2393    3.8274    0.3285 H   0  0  0  0  0  0  0  0  0  0  0  0
    2.8058    1.8638    0.0894 H   0  0  0  0  0  0  0  0  0  0  0  0
    3.2557   -0.5739    0.0068 H   0  0  0  0  0  0  0  0  0  0  0  0
   -5.3844    2.7680   -2.6270 H   0  0  0  0  0  0  0  0  0  0  0  0
   -1.4528    3.0683   -4.2413 H   0  0  0  0  0  0  0  0  0  0  0  0
   -3.3385    1.4248    4.5279 H   0  0  0  0  0  0  0  0  0  0  0  0
   -3.0844    5.0646    2.2511 H   0  0  0  0  0  0  0  0  0  0  0  0
  1  2  1  0  0  0  0
  1  3  2  0  0  0  0
  1  4  2  0  0  0  0
  1  9  1  0  0  0  0
  2  7  1  0  0  0  0
  5 24  1  0  0  0  0
  6 25  1  0  0  0  0
  6 26  1  0  0  0  0
  7  8  1  0  0  0  0
  7 10  1  0  0  0  0
  7 11  1  0  0  0  0
  8  9  2  0  0  0  0
  8 12  1  0  0  0  0
  9 13  1  0  0  0  0
 10 14  2  0  0  0  0
 10 15  1  0  0  0  0
 11 16  2  0  0  0  0
 11 17  1  0  0  0  0
 12 18  2  0  0  0  0
 12 27  1  0  0  0  0
 13 19  2  0  0  0  0
 13 28  1  0  0  0  0
 14 20  1  0  0  0  0
 14 29  1  0  0  0  0
 15 21  2  0  0  0  0
 15 30  1  0  0  0  0
 16 22  1  0  0  0  0
 16 31  1  0  0  0  0
 17 23  2  0  0  0  0
 17 32  1  0  0  0  0
 18 19  1  0  0  0  0
 18 33  1  0  0  0  0
 19 34  1  0  0  0  0
 20 24  2  0  0  0  0
 20 35  1  0  0  0  0
 21 24  1  0  0  0  0
 21 36  1  0  0  0  0
 22 25  2  0  0  0  0
 22 37  1  0  0  0  0
 23 25  1  0  0  0  0
 23 38  1  0  0  0  0
M  CHG  1   5  -1
M  END
>  <Mol_ID>
5607

>  <Formula>
C19H13NaO5S

>  <MolWeight>
376.35829

>  <Cat>
S4418

>  <Name>
Phenol Red sodium salt

>  <Synonyms>
Phenolsulfonephthalein sodium salt

>  <Target>
Dyes,Estrogen/progestogen Receptor

>  <Form>
Sodium salt

>  <CAS>
34487-61-1

>  <URL>
http://www.selleckchem.com/products/phenol-red-sodium-salt.html

$$$$
