Phenformin hydrochloride.cdx
 OpenBabel08302521403D

 30 30  0  0  0  0  0  0  0  0999 V2000
   -3.9725   -3.5596   -0.4350 C   0  0  0  0  0  0  0  0  0  0  0  0
   -4.7669   -2.5634   -0.9986 C   0  0  0  0  0  0  0  0  0  0  0  0
   -4.3806   -1.2245   -0.9094 C   0  0  0  0  0  0  0  0  0  0  0  0
   -3.1913   -0.8669   -0.2578 C   0  0  0  0  0  0  0  0  0  0  0  0
   -2.3979   -1.8778    0.3023 C   0  0  0  0  0  0  0  0  0  0  0  0
   -2.7875   -3.2166    0.2135 C   0  0  0  0  0  0  0  0  0  0  0  0
   -2.7840    0.5835   -0.1509 C   0  0  0  0  0  0  0  0  0  0  0  0
   -3.3208    1.2665    1.1158 C   0  0  0  0  0  0  0  0  0  0  0  0
   -3.0309    2.7033    1.0847 N   0  0  0  0  0  0  0  0  0  0  0  0
   -3.2648    3.4971    2.1762 C   0  0  0  0  0  0  0  0  0  0  0  0
   -3.2274    4.8160    1.8298 N   0  0  0  0  0  0  0  0  0  0  0  0
   -3.1417    5.9963    2.4911 C   0  0  0  0  0  0  0  0  0  0  0  0
   -3.3522    7.1562    1.9669 N   0  0  0  0  0  0  0  0  0  0  0  0
   -3.5053    3.0375    3.3516 N   0  0  0  0  0  0  0  0  0  0  0  0
   -2.7722    5.9559    3.7904 N   0  0  0  0  0  0  0  0  0  0  0  0
   -4.2763   -4.6008   -0.5005 H   0  0  0  0  0  0  0  0  0  0  0  0
   -5.6899   -2.8305   -1.5076 H   0  0  0  0  0  0  0  0  0  0  0  0
   -5.0155   -0.4619   -1.3553 H   0  0  0  0  0  0  0  0  0  0  0  0
   -1.4681   -1.6323    0.8105 H   0  0  0  0  0  0  0  0  0  0  0  0
   -2.1663   -3.9941    0.6516 H   0  0  0  0  0  0  0  0  0  0  0  0
   -1.6882    0.6548   -0.1772 H   0  0  0  0  0  0  0  0  0  0  0  0
   -3.1290    1.1210   -1.0442 H   0  0  0  0  0  0  0  0  0  0  0  0
   -4.4086    1.1429    1.1690 H   0  0  0  0  0  0  0  0  0  0  0  0
   -2.8853    0.7955    2.0051 H   0  0  0  0  0  0  0  0  0  0  0  0
   -2.1341    2.9116    0.6507 H   0  0  0  0  0  0  0  0  0  0  0  0
   -3.5062    4.9222    0.8650 H   0  0  0  0  0  0  0  0  0  0  0  0
   -3.6231    7.0668    0.9860 H   0  0  0  0  0  0  0  0  0  0  0  0
   -3.6869    3.8421    3.9612 H   0  0  0  0  0  0  0  0  0  0  0  0
   -1.9937    5.3322    3.9715 H   0  0  0  0  0  0  0  0  0  0  0  0
   -2.5673    6.8969    4.1160 H   0  0  0  0  0  0  0  0  0  0  0  0
  1  2  2  0  0  0  0
  1 16  1  0  0  0  0
  2  3  1  0  0  0  0
  2 17  1  0  0  0  0
  3  4  2  0  0  0  0
  3 18  1  0  0  0  0
  4  5  1  0  0  0  0
  4  7  1  0  0  0  0
  5  6  2  0  0  0  0
  5 19  1  0  0  0  0
  6  1  1  0  0  0  0
  6 20  1  0  0  0  0
  7  8  1  0  0  0  0
  7 21  1  0  0  0  0
  7 22  1  0  0  0  0
  8  9  1  0  0  0  0
  8 23  1  0  0  0  0
  8 24  1  0  0  0  0
  9 10  1  0  0  0  0
  9 25  1  0  0  0  0
 10 11  1  0  0  0  0
 10 14  2  0  0  0  0
 11 12  1  0  0  0  0
 11 26  1  0  0  0  0
 12 13  2  0  0  0  0
 12 15  1  0  0  0  0
 13 27  1  0  0  0  0
 14 28  1  0  0  0  0
 15 29  1  0  0  0  0
 15 30  1  0  0  0  0
M  END
>  <Mol_ID>
806

>  <Formula>
C10H16ClN5

>  <MolWeight>
241.72054

>  <Cat>
S2542

>  <Name>
Phenformin (NSC-756501) HCl

>  <Synonyms>
Phenethylbiguanide HCl

>  <Target>
AMPK

>  <Form>
Hydrochloride

>  <CAS>
834-28-6

>  <URL>
http://selleckchem.com/products/Phenformin-hydrochloride.html

$$$$
