Phentolamine mesilate.cdx
 OpenBabel08302521443D

 49 50  0  0  0  0  0  0  0  0999 V2000
   -1.7071   -1.6044    0.3099 C   0  0  0  0  0  0  0  0  0  0  0  0
   -2.3980   -2.8246    0.1804 N   0  0  0  0  0  0  0  0  0  0  0  0
   -3.8019   -2.8832    0.0381 C   0  0  0  0  0  0  0  0  0  0  0  0
   -1.6342   -4.0613   -0.1051 C   0  0  0  0  0  0  0  0  0  0  0  0
   -0.7765   -4.4579    1.0956 C   0  0  0  0  0  0  0  0  0  0  0  0
   -0.5504   -1.3546   -0.4085 C   0  0  0  0  0  0  0  0  0  0  0  0
   -0.1142   -0.0512   -0.5482 C   0  0  0  0  0  0  0  0  0  0  0  0
   -0.6577    0.9839    0.2049 C   0  0  0  0  0  0  0  0  0  0  0  0
   -1.7177    0.7234    1.0600 C   0  0  0  0  0  0  0  0  0  0  0  0
   -2.2558   -0.5581    1.0846 C   0  0  0  0  0  0  0  0  0  0  0  0
   -4.5034   -1.8133   -0.5534 C   0  0  0  0  0  0  0  0  0  0  0  0
   -5.8882   -1.7122   -0.4606 C   0  0  0  0  0  0  0  0  0  0  0  0
   -6.6063   -2.7168    0.1828 C   0  0  0  0  0  0  0  0  0  0  0  0
   -5.9309   -3.8413    0.6708 C   0  0  0  0  0  0  0  0  0  0  0  0
   -4.5410   -3.9236    0.6011 C   0  0  0  0  0  0  0  0  0  0  0  0
    0.7860    0.1918   -1.5475 O   0  0  0  0  0  0  0  0  0  0  0  0
   -8.0823   -2.5896    0.3908 C   0  0  0  0  0  0  0  0  0  0  0  0
   -0.9599   -3.9215    2.3478 N   0  0  0  0  0  0  0  0  0  0  0  0
    0.1686   -4.2626    3.1672 C   0  0  0  0  0  0  0  0  0  0  0  0
    0.7443   -5.4411    2.3734 C   0  0  0  0  0  0  0  0  0  0  0  0
    0.1841   -5.3453    0.9885 N   0  0  0  0  0  0  0  0  0  0  0  0
    2.7753    1.6876    0.3378 C   0  0  0  0  0  0  0  0  0  0  0  0
    2.5685    2.6992   -1.1290 S   0  0  0  0  0  0  0  0  0  0  0  0
    2.8301    1.5568   -2.2298 O   0  0  0  0  0  0  0  0  0  0  0  0
    1.1966    3.1262   -1.2689 O   0  0  0  0  0  0  0  0  0  0  0  0
    3.6565    3.6481   -1.1775 O   0  0  0  0  0  0  0  0  0  0  0  0
   -2.2776   -4.9157   -0.3413 H   0  0  0  0  0  0  0  0  0  0  0  0
   -0.9934   -3.9510   -0.9888 H   0  0  0  0  0  0  0  0  0  0  0  0
   -0.0522   -2.1363   -0.9668 H   0  0  0  0  0  0  0  0  0  0  0  0
   -0.3131    2.0066    0.1101 H   0  0  0  0  0  0  0  0  0  0  0  0
   -2.1776    1.5235    1.6336 H   0  0  0  0  0  0  0  0  0  0  0  0
   -3.1575   -0.7303    1.6723 H   0  0  0  0  0  0  0  0  0  0  0  0
   -3.9649   -1.0047   -1.0454 H   0  0  0  0  0  0  0  0  0  0  0  0
   -6.3840   -0.8270   -0.8543 H   0  0  0  0  0  0  0  0  0  0  0  0
   -6.4798   -4.6395    1.1625 H   0  0  0  0  0  0  0  0  0  0  0  0
   -4.0424   -4.7691    1.0649 H   0  0  0  0  0  0  0  0  0  0  0  0
    0.6835   -0.5561   -2.1703 H   0  0  0  0  0  0  0  0  0  0  0  0
   -8.6053   -3.3958   -0.1290 H   0  0  0  0  0  0  0  0  0  0  0  0
   -8.3077   -2.6382    1.4615 H   0  0  0  0  0  0  0  0  0  0  0  0
   -8.4600   -1.6331    0.0163 H   0  0  0  0  0  0  0  0  0  0  0  0
   -1.3903   -3.0041    2.4115 H   0  0  0  0  0  0  0  0  0  0  0  0
   -0.1411   -4.5480    4.1752 H   0  0  0  0  0  0  0  0  0  0  0  0
    0.8894   -3.4395    3.2253 H   0  0  0  0  0  0  0  0  0  0  0  0
    1.8373   -5.4065    2.3417 H   0  0  0  0  0  0  0  0  0  0  0  0
    0.4375   -6.3947    2.8181 H   0  0  0  0  0  0  0  0  0  0  0  0
    2.4620    0.6609    0.1487 H   0  0  0  0  0  0  0  0  0  0  0  0
    2.1743    2.1130    1.1439 H   0  0  0  0  0  0  0  0  0  0  0  0
    3.8318    1.6848    0.6056 H   0  0  0  0  0  0  0  0  0  0  0  0
    1.9689    1.0912   -2.3463 H   0  0  0  0  0  0  0  0  0  0  0  0
  1  2  1  0  0  0  0
  1  6  2  0  0  0  0
  2  3  1  0  0  0  0
  2  4  1  0  0  0  0
  3 11  2  0  0  0  0
  4  5  1  0  0  0  0
  4 27  1  0  0  0  0
  4 28  1  0  0  0  0
  5 18  1  0  0  0  0
  6  7  1  0  0  0  0
  6 29  1  0  0  0  0
  7  8  2  0  0  0  0
  7 16  1  0  0  0  0
  8  9  1  0  0  0  0
  8 30  1  0  0  0  0
  9 10  2  0  0  0  0
  9 31  1  0  0  0  0
 10  1  1  0  0  0  0
 10 32  1  0  0  0  0
 11 12  1  0  0  0  0
 11 33  1  0  0  0  0
 12 13  2  0  0  0  0
 12 34  1  0  0  0  0
 13 14  1  0  0  0  0
 13 17  1  0  0  0  0
 14 15  2  0  0  0  0
 14 35  1  0  0  0  0
 15  3  1  0  0  0  0
 15 36  1  0  0  0  0
 16 37  1  0  0  0  0
 17 38  1  0  0  0  0
 17 39  1  0  0  0  0
 17 40  1  0  0  0  0
 18 19  1  0  0  0  0
 18 41  1  0  0  0  0
 19 20  1  0  0  0  0
 19 42  1  0  0  0  0
 19 43  1  0  0  0  0
 20 21  1  0  0  0  0
 20 44  1  0  0  0  0
 20 45  1  0  0  0  0
 21  5  2  0  0  0  0
 22 23  1  0  0  0  0
 22 46  1  0  0  0  0
 22 47  1  0  0  0  0
 22 48  1  0  0  0  0
 23 24  1  0  0  0  0
 23 25  2  0  0  0  0
 23 26  2  0  0  0  0
 24 49  1  0  0  0  0
M  END
>  <Mol_ID>
925

>  <Formula>
C18H23N3O4S

>  <MolWeight>
377.45792

>  <Cat>
S2038

>  <Name>
Phentolamine Mesylate

>  <Synonyms>
Phentolamine methanesulfonate

>  <Target>
Adrenergic Receptor

>  <Form>
Mesylate

>  <CAS>
65-28-1

>  <URL>
http://selleckchem.com/products/phentolamine-mesilate.html

$$$$
