pheniramine maleate .cdx
 OpenBabel08302522053D

 50 50  0  0  0  0  0  0  0  0999 V2000
    1.6746   -0.4098    0.8650 C   0  0  0  0  0  0  0  0  0  0  0  0
    0.8011   -1.4341    1.2115 C   0  0  0  0  0  0  0  0  0  0  0  0
   -0.5486   -1.1466    1.3853 C   0  0  0  0  0  0  0  0  0  0  0  0
   -1.0129    0.1665    1.2376 C   0  0  0  0  0  0  0  0  0  0  0  0
   -0.1444    1.2287    0.9069 C   0  0  0  0  0  0  0  0  0  0  0  0
    1.2037    0.9013    0.6966 C   0  0  0  0  0  0  0  0  0  0  0  0
   -0.6744    2.6670    0.9589 C   0  0  3  0  0  0  0  0  0  0  0  0
   -0.0482    3.5656    2.0700 C   0  0  0  0  0  0  0  0  0  0  0  0
   -0.9362    3.4994   -0.2994 C   0  0  0  0  0  0  0  0  0  0  0  0
   -2.0244    4.3196   -0.1992 N   0  0  0  0  0  0  0  0  0  0  0  0
   -2.1631    5.3449   -1.0693 C   0  0  0  0  0  0  0  0  0  0  0  0
   -1.2626    5.6012   -2.0784 C   0  0  0  0  0  0  0  0  0  0  0  0
   -0.2023    4.7169   -2.2385 C   0  0  0  0  0  0  0  0  0  0  0  0
   -0.0398    3.6403   -1.3524 C   0  0  0  0  0  0  0  0  0  0  0  0
    1.4727    3.8218    2.0851 C   0  0  0  0  0  0  0  0  0  0  0  0
    2.0542    4.2777    0.8179 N   0  0  0  0  0  0  0  0  0  0  0  0
    1.7249    5.6769    0.5274 C   0  0  0  0  0  0  0  0  0  0  0  0
    3.5060    4.0982    0.7704 C   0  0  0  0  0  0  0  0  0  0  0  0
   -0.0238   -0.5438   -2.4273 C   0  0  0  0  0  0  0  0  0  0  0  0
   -1.1724    0.3402   -2.6167 C   0  0  0  0  0  0  0  0  0  0  0  0
    1.0873    0.0108   -2.9333 O   0  0  0  0  0  0  0  0  0  0  0  0
   -0.0388   -1.6457   -1.9126 O   0  0  0  0  0  0  0  0  0  0  0  0
   -2.4182    0.1572   -2.1594 C   0  0  0  0  0  0  0  0  0  0  0  0
   -3.0811   -0.8854   -1.3513 C   0  0  0  0  0  0  0  0  0  0  0  0
   -2.3786   -1.9730   -1.0126 O   0  0  0  0  0  0  0  0  0  0  0  0
   -4.2526   -0.7457   -1.0239 O   0  0  0  0  0  0  0  0  0  0  0  0
    2.7364   -0.6266    0.7553 H   0  0  0  0  0  0  0  0  0  0  0  0
    1.1602   -2.4549    1.3338 H   0  0  0  0  0  0  0  0  0  0  0  0
   -1.2479   -1.9418    1.6374 H   0  0  0  0  0  0  0  0  0  0  0  0
   -2.0728    0.3535    1.4125 H   0  0  0  0  0  0  0  0  0  0  0  0
    1.9284    1.6659    0.4453 H   0  0  0  0  0  0  0  0  0  0  0  0
   -1.7043    2.5251    1.3292 H   0  0  0  0  0  0  0  0  0  0  0  0
   -0.5610    4.5372    2.0721 H   0  0  0  0  0  0  0  0  0  0  0  0
   -0.2981    3.1073    3.0366 H   0  0  0  0  0  0  0  0  0  0  0  0
   -3.0180    5.9910   -0.8919 H   0  0  0  0  0  0  0  0  0  0  0  0
   -1.3714    6.4819   -2.7039 H   0  0  0  0  0  0  0  0  0  0  0  0
    0.5455    4.9096   -3.0038 H   0  0  0  0  0  0  0  0  0  0  0  0
    0.8427    3.0191   -1.4259 H   0  0  0  0  0  0  0  0  0  0  0  0
    1.7000    4.5406    2.8826 H   0  0  0  0  0  0  0  0  0  0  0  0
    1.9482    2.8867    2.4025 H   0  0  0  0  0  0  0  0  0  0  0  0
    2.2124    6.3680    1.2237 H   0  0  0  0  0  0  0  0  0  0  0  0
    2.0435    5.9316   -0.4905 H   0  0  0  0  0  0  0  0  0  0  0  0
    0.6488    5.8635    0.5768 H   0  0  0  0  0  0  0  0  0  0  0  0
    4.0507    4.9286    1.2323 H   0  0  0  0  0  0  0  0  0  0  0  0
    3.8247    3.1725    1.2622 H   0  0  0  0  0  0  0  0  0  0  0  0
    3.8237    4.0154   -0.2756 H   0  0  0  0  0  0  0  0  0  0  0  0
   -0.9627    1.2387   -3.1916 H   0  0  0  0  0  0  0  0  0  0  0  0
    1.7984   -0.6407   -2.7601 H   0  0  0  0  0  0  0  0  0  0  0  0
   -3.1340    0.9422   -2.4052 H   0  0  0  0  0  0  0  0  0  0  0  0
   -1.4191   -1.9569   -1.2312 H   0  0  0  0  0  0  0  0  0  0  0  0
  1  2  2  0  0  0  0
  1 27  1  0  0  0  0
  2  3  1  0  0  0  0
  2 28  1  0  0  0  0
  3  4  2  0  0  0  0
  3 29  1  0  0  0  0
  4  5  1  0  0  0  0
  4 30  1  0  0  0  0
  5  6  2  0  0  0  0
  5  7  1  0  0  0  0
  6  1  1  0  0  0  0
  6 31  1  0  0  0  0
  7  8  1  0  0  0  0
  7  9  1  0  0  0  0
  7 32  1  0  0  0  0
  8 15  1  0  0  0  0
  8 33  1  0  0  0  0
  8 34  1  0  0  0  0
  9 10  2  0  0  0  0
 10 11  1  0  0  0  0
 11 12  2  0  0  0  0
 11 35  1  0  0  0  0
 12 13  1  0  0  0  0
 12 36  1  0  0  0  0
 13 14  2  0  0  0  0
 13 37  1  0  0  0  0
 14  9  1  0  0  0  0
 14 38  1  0  0  0  0
 15 16  1  0  0  0  0
 15 39  1  0  0  0  0
 15 40  1  0  0  0  0
 16 17  1  0  0  0  0
 16 18  1  0  0  0  0
 17 41  1  0  0  0  0
 17 42  1  0  0  0  0
 17 43  1  0  0  0  0
 18 44  1  0  0  0  0
 18 45  1  0  0  0  0
 18 46  1  0  0  0  0
 19 20  1  0  0  0  0
 19 21  1  0  0  0  0
 19 22  2  0  0  0  0
 20 23  2  0  0  0  0
 20 47  1  0  0  0  0
 21 48  1  0  0  0  0
 23 24  1  0  0  0  0
 23 49  1  0  0  0  0
 24 25  1  0  0  0  0
 24 26  2  0  0  0  0
 25 50  1  0  0  0  0
M  END
>  <Mol_ID>
1359

>  <Formula>
C20H24N2O4

>  <MolWeight>
356.41556

>  <Cat>
S4045

>  <Name>
Pheniramine Maleate

>  <Synonyms>
N/A

>  <Target>
Histamine Receptor

>  <Form>
Maleate

>  <CAS>
132-20-7

>  <URL>
http://selleckchem.com/products/pheniramine-maleate.html

$$$$
