Phenylephrine
 OpenBabel08302521373D

 25 25  0  0  1  0  0  0  0  0999 V2000
    1.0342   -0.1545   -0.0127 C   0  0  2  0  0  0  0  0  0  0  0  0
    0.4696   -1.3301    0.8436 C   0  0  0  0  0  0  0  0  0  0  0  0
    0.6969    1.0779    0.6451 O   0  0  0  0  0  0  0  0  0  0  0  0
    0.8086   -2.6790    0.3664 N   0  0  0  0  0  0  0  0  0  0  0  0
    0.3358   -3.7059    1.2855 C   0  0  0  0  0  0  0  0  0  0  0  0
   -1.5879    1.8609   -3.7189 O   0  0  0  0  0  0  0  0  0  0  0  0
    0.5320   -0.1224   -1.4495 C   0  0  0  0  0  0  0  0  0  0  0  0
   -0.3243    0.8890   -1.9200 C   0  0  0  0  0  0  0  0  0  0  0  0
    0.9430   -1.1105   -2.3616 C   0  0  0  0  0  0  0  0  0  0  0  0
   -0.7776    0.8735   -3.2388 C   0  0  0  0  0  0  0  0  0  0  0  0
    0.4493   -1.1429   -3.6680 C   0  0  0  0  0  0  0  0  0  0  0  0
   -0.4191   -0.1479   -4.1070 C   0  0  0  0  0  0  0  0  0  0  0  0
    2.1302   -0.2018   -0.0330 H   0  0  0  0  0  0  0  0  0  0  0  0
    0.8619   -1.2085    1.8625 H   0  0  0  0  0  0  0  0  0  0  0  0
   -0.6201   -1.2228    0.9215 H   0  0  0  0  0  0  0  0  0  0  0  0
    1.0030    1.0060    1.5646 H   0  0  0  0  0  0  0  0  0  0  0  0
    0.3371   -2.8243   -0.5285 H   0  0  0  0  0  0  0  0  0  0  0  0
   -0.7501   -3.6603    1.4135 H   0  0  0  0  0  0  0  0  0  0  0  0
    0.5847   -4.6920    0.8802 H   0  0  0  0  0  0  0  0  0  0  0  0
    0.8205   -3.6183    2.2622 H   0  0  0  0  0  0  0  0  0  0  0  0
   -1.6499    2.5550   -3.0417 H   0  0  0  0  0  0  0  0  0  0  0  0
   -0.6253    1.6903   -1.2510 H   0  0  0  0  0  0  0  0  0  0  0  0
    1.6535   -1.8784   -2.0577 H   0  0  0  0  0  0  0  0  0  0  0  0
    0.7498   -1.9382   -4.3444 H   0  0  0  0  0  0  0  0  0  0  0  0
   -0.7983   -0.1579   -5.1236 H   0  0  0  0  0  0  0  0  0  0  0  0
  1  2  1  0  0  0  0
  1  3  1  0  0  0  0
  1  7  1  0  0  0  0
  1 13  1  6  0  0  0
  2  4  1  0  0  0  0
  2 14  1  0  0  0  0
  2 15  1  0  0  0  0
  3 16  1  0  0  0  0
  4  5  1  0  0  0  0
  4 17  1  0  0  0  0
  5 18  1  0  0  0  0
  5 19  1  0  0  0  0
  5 20  1  0  0  0  0
  6 10  1  0  0  0  0
  6 21  1  0  0  0  0
  7  8  2  0  0  0  0
  7  9  1  0  0  0  0
  8 10  1  0  0  0  0
  8 22  1  0  0  0  0
  9 11  2  0  0  0  0
  9 23  1  0  0  0  0
 10 12  2  0  0  0  0
 11 12  1  0  0  0  0
 11 24  1  0  0  0  0
 12 25  1  0  0  0  0
M  END
>  <Mol_ID>
7378

>  <Formula>
C9H13NO2

>  <MolWeight>
167.20502

>  <Cat>
E4434

>  <Name>
Phenylephrine

>  <Synonyms>
Phenylephrine

>  <Target>
Adrenergic Receptor

>  <Form>
free base

>  <CAS>
59-42-7

>  <URL>
https://www.selleckchem.com/products/phenylephrine.html

$$$$
