Phenylalanylalanine
 OpenBabel08302521453D

 33 33  0  0  1  0  0  0  0  0999 V2000
   -0.0283    2.8533   -5.4022 C   0  0  0  0  0  0  0  0  0  0  0  0
   -1.0168    3.7097   -4.5802 C   0  0  1  0  0  0  0  0  0  0  0  0
   -0.5904    3.5825   -3.0962 C   0  0  0  0  0  0  0  0  0  0  0  0
   -0.9997    5.1207   -5.0254 N   0  0  0  0  0  0  0  0  0  0  0  0
   -0.8164    4.6891   -2.3097 N   0  0  0  0  0  0  0  0  0  0  0  0
   -0.0364    2.5842   -2.6424 O   0  0  0  0  0  0  0  0  0  0  0  0
    0.0478    4.9387   -1.1654 C   0  0  2  0  0  0  0  0  0  0  0  0
   -0.5129    6.0941   -0.3404 C   0  0  0  0  0  0  0  0  0  0  0  0
    1.4482    5.3166   -1.6571 C   0  0  0  0  0  0  0  0  0  0  0  0
   -0.1821    6.0453    0.9725 O   0  0  0  0  0  0  0  0  0  0  0  0
   -1.1670    7.0121   -0.8198 O   0  0  0  0  0  0  0  0  0  0  0  0
   -0.1714    2.9003   -6.9035 C   0  0  0  0  0  0  0  0  0  0  0  0
    0.9039    3.3259   -7.6974 C   0  0  0  0  0  0  0  0  0  0  0  0
   -1.3434    2.4582   -7.5299 C   0  0  0  0  0  0  0  0  0  0  0  0
    0.8096    3.3073   -9.0899 C   0  0  0  0  0  0  0  0  0  0  0  0
   -1.4337    2.4379   -8.9212 C   0  0  0  0  0  0  0  0  0  0  0  0
   -0.3560    2.8542   -9.7005 C   0  0  0  0  0  0  0  0  0  0  0  0
   -0.1163    1.7998   -5.1002 H   0  0  0  0  0  0  0  0  0  0  0  0
    0.9987    3.1418   -5.1337 H   0  0  0  0  0  0  0  0  0  0  0  0
   -2.0360    3.3201   -4.6736 H   0  0  0  0  0  0  0  0  0  0  0  0
   -1.7114    5.6759   -4.5623 H   0  0  0  0  0  0  0  0  0  0  0  0
   -0.0845    5.5347   -4.8600 H   0  0  0  0  0  0  0  0  0  0  0  0
   -1.2795    5.4984   -2.7022 H   0  0  0  0  0  0  0  0  0  0  0  0
    0.0812    4.0312   -0.5524 H   0  0  0  0  0  0  0  0  0  0  0  0
    2.1007    5.6104   -0.8304 H   0  0  0  0  0  0  0  0  0  0  0  0
    1.9184    4.4814   -2.1858 H   0  0  0  0  0  0  0  0  0  0  0  0
    1.3961    6.1555   -2.3610 H   0  0  0  0  0  0  0  0  0  0  0  0
    0.3328    5.2558    1.2312 H   0  0  0  0  0  0  0  0  0  0  0  0
    1.8253    3.6730   -7.2376 H   0  0  0  0  0  0  0  0  0  0  0  0
   -2.1908    2.1193   -6.9377 H   0  0  0  0  0  0  0  0  0  0  0  0
    1.6489    3.6347   -9.6960 H   0  0  0  0  0  0  0  0  0  0  0  0
   -2.3458    2.0855   -9.3996 H   0  0  0  0  0  0  0  0  0  0  0  0
   -0.4276    2.8263  -10.7859 H   0  0  0  0  0  0  0  0  0  0  0  0
  1  2  1  0  0  0  0
  1 12  1  0  0  0  0
  1 18  1  0  0  0  0
  1 19  1  0  0  0  0
  2  3  1  0  0  0  0
  2  4  1  0  0  0  0
  2 20  1  6  0  0  0
  3  5  1  0  0  0  0
  3  6  2  0  0  0  0
  4 21  1  0  0  0  0
  4 22  1  0  0  0  0
  5 23  1  0  0  0  0
  7  9  1  0  0  0  0
  7 24  1  1  0  0  0
  7  8  1  0  0  0  0
  7  5  1  0  0  0  0
  8 10  1  0  0  0  0
  8 11  2  0  0  0  0
  9 25  1  0  0  0  0
  9 26  1  0  0  0  0
  9 27  1  0  0  0  0
 10 28  1  0  0  0  0
 12 13  2  0  0  0  0
 12 14  1  0  0  0  0
 13 15  1  0  0  0  0
 13 29  1  0  0  0  0
 14 16  2  0  0  0  0
 14 30  1  0  0  0  0
 15 17  2  0  0  0  0
 15 31  1  0  0  0  0
 16 17  1  0  0  0  0
 16 32  1  0  0  0  0
 17 33  1  0  0  0  0
M  END
>  <Mol_ID>
9532

>  <Formula>
C12H16N2O3

>  <MolWeight>
236.26704

>  <Cat>
E4504

>  <Name>
Phenylalanylalanine

>  <Synonyms>
H-Phe-Ala-OH

>  <Target>
Others

>  <Form>
Free base

>  <CAS>
3918-87-4

>  <URL>
https://www.selleckchem.com/products/phenylalanylalanine.html

$$$$
