Phenprocoumon
 OpenBabel08302520403D

 37 39  0  0  0  0  0  0  0  0999 V2000
   -2.7770    1.3989    0.1760 C   0  0  0  0  0  0  0  0  0  0  0  0
   -3.0529    0.0394    0.3190 C   0  0  0  0  0  0  0  0  0  0  0  0
   -2.0142   -0.8980    0.2684 C   0  0  0  0  0  0  0  0  0  0  0  0
   -0.6877   -0.4873    0.0860 C   0  0  0  0  0  0  0  0  0  0  0  0
   -0.4386    0.8718   -0.0362 C   0  0  0  0  0  0  0  0  0  0  0  0
   -1.4621    1.8211   -0.0053 C   0  0  0  0  0  0  0  0  0  0  0  0
    0.4445   -1.4175    0.0634 C   0  0  0  0  0  0  0  0  0  0  0  0
    1.7160   -0.9694    0.0238 C   0  0  0  0  0  0  0  0  0  0  0  0
    1.9659    0.5013   -0.1038 C   0  0  0  0  0  0  0  0  0  0  0  0
    0.8723    1.3478   -0.1718 O   0  0  0  0  0  0  0  0  0  0  0  0
    0.0833   -2.7471    0.1093 O   0  0  0  0  0  0  0  0  0  0  0  0
    3.1022    0.9576   -0.1694 O   0  0  0  0  0  0  0  0  0  0  0  0
    2.9839   -1.8227    0.1097 C   0  0  3  0  0  0  0  0  0  0  0  0
    3.0280   -2.6774    1.3880 C   0  0  0  0  0  0  0  0  0  0  0  0
    3.0885   -4.0814    1.3771 C   0  0  0  0  0  0  0  0  0  0  0  0
    3.1819   -4.8064    2.5684 C   0  0  0  0  0  0  0  0  0  0  0  0
    3.2143   -4.1433    3.7918 C   0  0  0  0  0  0  0  0  0  0  0  0
    3.1454   -2.7552    3.8269 C   0  0  0  0  0  0  0  0  0  0  0  0
    3.0548   -2.0275    2.6373 C   0  0  0  0  0  0  0  0  0  0  0  0
    3.2612   -2.6139   -1.1939 C   0  0  0  0  0  0  0  0  0  0  0  0
    3.4873   -1.7371   -2.4176 C   0  0  0  0  0  0  0  0  0  0  0  0
   -3.5836    2.1261    0.2151 H   0  0  0  0  0  0  0  0  0  0  0  0
   -4.0759   -0.2948    0.4765 H   0  0  0  0  0  0  0  0  0  0  0  0
   -2.2522   -1.9525    0.3913 H   0  0  0  0  0  0  0  0  0  0  0  0
   -1.2343    2.8777   -0.1078 H   0  0  0  0  0  0  0  0  0  0  0  0
    0.8745   -3.3052    0.1505 H   0  0  0  0  0  0  0  0  0  0  0  0
    3.8607   -1.1705    0.2275 H   0  0  0  0  0  0  0  0  0  0  0  0
    3.0819   -4.6445    0.4479 H   0  0  0  0  0  0  0  0  0  0  0  0
    3.2430   -5.8917    2.5393 H   0  0  0  0  0  0  0  0  0  0  0  0
    3.3012   -4.7097    4.7157 H   0  0  0  0  0  0  0  0  0  0  0  0
    3.1737   -2.2332    4.7808 H   0  0  0  0  0  0  0  0  0  0  0  0
    3.0209   -0.9408    2.6945 H   0  0  0  0  0  0  0  0  0  0  0  0
    4.1668   -3.2209   -1.0610 H   0  0  0  0  0  0  0  0  0  0  0  0
    2.4449   -3.3134   -1.4083 H   0  0  0  0  0  0  0  0  0  0  0  0
    4.3623   -1.0940   -2.2803 H   0  0  0  0  0  0  0  0  0  0  0  0
    3.6691   -2.3679   -3.2940 H   0  0  0  0  0  0  0  0  0  0  0  0
    2.6195   -1.1081   -2.6352 H   0  0  0  0  0  0  0  0  0  0  0  0
  1  2  2  0  0  0  0
  1 22  1  0  0  0  0
  2  3  1  0  0  0  0
  2 23  1  0  0  0  0
  3  4  2  0  0  0  0
  3 24  1  0  0  0  0
  4  5  1  0  0  0  0
  4  7  1  0  0  0  0
  5  6  2  0  0  0  0
  6  1  1  0  0  0  0
  6 25  1  0  0  0  0
  7  8  2  0  0  0  0
  7 11  1  0  0  0  0
  8  9  1  0  0  0  0
  8 13  1  0  0  0  0
  9 10  1  0  0  0  0
  9 12  2  0  0  0  0
 10  5  1  0  0  0  0
 11 26  1  0  0  0  0
 13 14  1  0  0  0  0
 13 20  1  0  0  0  0
 13 27  1  0  0  0  0
 14 15  2  0  0  0  0
 15 16  1  0  0  0  0
 15 28  1  0  0  0  0
 16 17  2  0  0  0  0
 16 29  1  0  0  0  0
 17 18  1  0  0  0  0
 17 30  1  0  0  0  0
 18 19  2  0  0  0  0
 18 31  1  0  0  0  0
 19 14  1  0  0  0  0
 19 32  1  0  0  0  0
 20 21  1  0  0  0  0
 20 33  1  0  0  0  0
 20 34  1  0  0  0  0
 21 35  1  0  0  0  0
 21 36  1  0  0  0  0
 21 37  1  0  0  0  0
M  END
>  <Mol_ID>
3790

>  <Formula>
C18H16O3

>  <MolWeight>
280.31784

>  <Cat>
S2188

>  <Name>
Phenprocoumon

>  <Synonyms>
Marcoumar, Marcumar and Falithrom,Ro 1-4849

>  <Target>
5-alpha Reductase

>  <Form>
free base

>  <CAS>
435-97-2,53621-47-9 (sodium salt)

>  <URL>
http://www.selleck.cn/products/Phenprocoumon(Marcumar).html

$$$$
