Phenyl acetate
 OpenBabel08302521363D

 18 18  0  0  0  0  0  0  0  0999 V2000
    1.1847    0.1041   -0.3446 O   0  0  0  0  0  0  0  0  0  0  0  0
    0.3776    1.2228   -0.5663 C   0  0  0  0  0  0  0  0  0  0  0  0
   -1.0601    0.7918   -0.5551 C   0  0  0  0  0  0  0  0  0  0  0  0
    0.7426    2.3824   -0.6999 O   0  0  0  0  0  0  0  0  0  0  0  0
    2.5949    0.0896   -0.2076 C   0  0  0  0  0  0  0  0  0  0  0  0
    3.4178    1.2076   -0.3075 C   0  0  0  0  0  0  0  0  0  0  0  0
    3.1396   -1.1683    0.0649 C   0  0  0  0  0  0  0  0  0  0  0  0
    4.7952    1.0650   -0.1138 C   0  0  0  0  0  0  0  0  0  0  0  0
    4.5140   -1.3062    0.2551 C   0  0  0  0  0  0  0  0  0  0  0  0
    5.3422   -0.1877    0.1711 C   0  0  0  0  0  0  0  0  0  0  0  0
   -1.4322    0.7857    0.4724 H   0  0  0  0  0  0  0  0  0  0  0  0
   -1.6506    1.4882   -1.1572 H   0  0  0  0  0  0  0  0  0  0  0  0
   -1.1670   -0.2027   -0.9978 H   0  0  0  0  0  0  0  0  0  0  0  0
    3.0273    2.1953   -0.5270 H   0  0  0  0  0  0  0  0  0  0  0  0
    2.4938   -2.0392    0.1359 H   0  0  0  0  0  0  0  0  0  0  0  0
    5.4431    1.9355   -0.1808 H   0  0  0  0  0  0  0  0  0  0  0  0
    4.9384   -2.2825    0.4733 H   0  0  0  0  0  0  0  0  0  0  0  0
    6.4129   -0.2902    0.3280 H   0  0  0  0  0  0  0  0  0  0  0  0
  1  2  1  0  0  0  0
  1  5  1  0  0  0  0
  2  3  1  0  0  0  0
  2  4  2  0  0  0  0
  3 11  1  0  0  0  0
  3 12  1  0  0  0  0
  3 13  1  0  0  0  0
  5  6  2  0  0  0  0
  5  7  1  0  0  0  0
  6  8  1  0  0  0  0
  6 14  1  0  0  0  0
  7  9  2  0  0  0  0
  7 15  1  0  0  0  0
  8 10  2  0  0  0  0
  8 16  1  0  0  0  0
  9 10  1  0  0  0  0
  9 17  1  0  0  0  0
 10 18  1  0  0  0  0
M  END
>  <Mol_ID>
7042

>  <Formula>
C8H8O2

>  <MolWeight>
136.14792

>  <Cat>
E4048

>  <Name>
Phenyl acetate

>  <Synonyms>
Phenyl acetate

>  <Target>
Others

>  <Form>
free base

>  <CAS>
122-79-2

>  <URL>
https://www.selleckchem.com/products/phenyl-acetate.html

$$$$
