Phensuximide
 OpenBabel08302521223D

 25 26  0  0  0  0  0  0  0  0999 V2000
   -0.7507   -0.9146   -0.2004 C   0  0  3  0  0  0  0  0  0  0  0  0
   -1.1331   -1.2259   -1.6378 C   0  0  0  0  0  0  0  0  0  0  0  0
    0.7529   -0.9141   -0.0082 C   0  0  0  0  0  0  0  0  0  0  0  0
   -1.1465    0.4709    0.3088 C   0  0  0  0  0  0  0  0  0  0  0  0
   -1.3077   -2.5679   -2.0146 C   0  0  0  0  0  0  0  0  0  0  0  0
   -1.2920   -0.2351   -2.6209 C   0  0  0  0  0  0  0  0  0  0  0  0
    1.1670    0.3819    0.1291 N   0  0  0  0  0  0  0  0  0  0  0  0
    1.4621   -1.9097   -0.0054 O   0  0  0  0  0  0  0  0  0  0  0  0
    0.1230    1.2588    0.1754 C   0  0  0  0  0  0  0  0  0  0  0  0
   -1.6636   -2.9057   -3.3222 C   0  0  0  0  0  0  0  0  0  0  0  0
   -1.6520   -0.5754   -3.9272 C   0  0  0  0  0  0  0  0  0  0  0  0
    2.5479    0.7951    0.1797 C   0  0  0  0  0  0  0  0  0  0  0  0
    0.1864    2.4781    0.1682 O   0  0  0  0  0  0  0  0  0  0  0  0
   -1.8430   -1.9085   -4.2766 C   0  0  0  0  0  0  0  0  0  0  0  0
   -1.1981   -1.6641    0.4647 H   0  0  0  0  0  0  0  0  0  0  0  0
   -1.9748    0.9338   -0.2320 H   0  0  0  0  0  0  0  0  0  0  0  0
   -1.3955    0.4352    1.3761 H   0  0  0  0  0  0  0  0  0  0  0  0
   -1.1602   -3.3672   -1.2894 H   0  0  0  0  0  0  0  0  0  0  0  0
   -1.1412    0.8183   -2.3983 H   0  0  0  0  0  0  0  0  0  0  0  0
   -1.7973   -3.9491   -3.5951 H   0  0  0  0  0  0  0  0  0  0  0  0
   -1.7819    0.2050   -4.6731 H   0  0  0  0  0  0  0  0  0  0  0  0
    2.7896    1.3195   -0.7495 H   0  0  0  0  0  0  0  0  0  0  0  0
    2.6827    1.4906    1.0137 H   0  0  0  0  0  0  0  0  0  0  0  0
    3.2124   -0.0640    0.3003 H   0  0  0  0  0  0  0  0  0  0  0  0
   -2.1234   -2.1704   -5.2935 H   0  0  0  0  0  0  0  0  0  0  0  0
  1  2  1  0  0  0  0
  1  3  1  0  0  0  0
  1  4  1  0  0  0  0
  1 15  1  0  0  0  0
  2  5  2  0  0  0  0
  2  6  1  0  0  0  0
  3  7  1  0  0  0  0
  3  8  2  0  0  0  0
  4  9  1  0  0  0  0
  4 16  1  0  0  0  0
  4 17  1  0  0  0  0
  5 10  1  0  0  0  0
  5 18  1  0  0  0  0
  6 11  2  0  0  0  0
  6 19  1  0  0  0  0
  7 12  1  0  0  0  0
  7  9  1  0  0  0  0
  9 13  2  0  0  0  0
 10 14  2  0  0  0  0
 10 20  1  0  0  0  0
 11 14  1  0  0  0  0
 11 21  1  0  0  0  0
 12 22  1  0  0  0  0
 12 23  1  0  0  0  0
 12 24  1  0  0  0  0
 14 25  1  0  0  0  0
M  END
>  <Mol_ID>
4619

>  <Formula>
C11H11NO2

>  <MolWeight>
189.21054

>  <Cat>
S9457

>  <Name>
Phensuximide

>  <Synonyms>
N/A

>  <Target>
cAMP/cGMP

>  <Form>
Free Base

>  <CAS>
86-34-0

>  <URL>
N/A

$$$$
