Phenyl-¦Â-D-glucopyranoside
 OpenBabel08302521363D

 34 35  0  0  1  0  0  0  0  0999 V2000
    2.9094    1.1648    0.4335 O   0  0  0  0  0  0  0  0  0  0  0  0
    2.5388    0.7798   -2.4063 O   0  0  0  0  0  0  0  0  0  0  0  0
    3.0369   -1.8735   -3.3848 O   0  0  0  0  0  0  0  0  0  0  0  0
    2.9259   -3.4523    1.3533 C   0  0  0  0  0  0  0  0  0  0  0  0
    2.4361   -3.0595    2.6396 O   0  0  0  0  0  0  0  0  0  0  0  0
    2.3820   -4.0289   -1.5152 O   0  0  0  0  0  0  0  0  0  0  0  0
    2.4850   -0.0882   -0.1043 C   0  0  1  0  0  0  0  0  0  0  0  0
    3.0133   -0.2646   -1.5431 C   0  0  1  0  0  0  0  0  0  0  0  0
    2.9794   -1.1614    0.7076 O   0  0  0  0  0  0  0  0  0  0  0  0
    2.5457   -1.6386   -2.0619 C   0  0  2  0  0  0  0  0  0  0  0  0
    2.4577   -2.4343    0.3106 C   0  0  1  0  0  0  0  0  0  0  0  0
    2.9378   -2.7797   -1.1024 C   0  0  1  0  0  0  0  0  0  0  0  0
    2.3150    1.5552    1.6006 C   0  0  0  0  0  0  0  0  0  0  0  0
    1.4323    0.7849    2.3737 C   0  0  0  0  0  0  0  0  0  0  0  0
    2.6411    2.8392    2.0377 C   0  0  0  0  0  0  0  0  0  0  0  0
    0.8972    1.2879    3.5596 C   0  0  0  0  0  0  0  0  0  0  0  0
    2.1026    3.3444    3.2244 C   0  0  0  0  0  0  0  0  0  0  0  0
    1.2326    2.5689    3.9847 C   0  0  0  0  0  0  0  0  0  0  0  0
    2.0225    0.3787   -3.1286 H   0  0  0  0  0  0  0  0  0  0  0  0
    4.0069   -1.7768   -3.3792 H   0  0  0  0  0  0  0  0  0  0  0  0
    2.5531   -4.4574    1.1385 H   0  0  0  0  0  0  0  0  0  0  0  0
    4.0183   -3.4840    1.4190 H   0  0  0  0  0  0  0  0  0  0  0  0
    2.7723   -2.1521    2.7814 H   0  0  0  0  0  0  0  0  0  0  0  0
    1.5894   -3.8640   -2.0566 H   0  0  0  0  0  0  0  0  0  0  0  0
    1.3864   -0.0982   -0.1478 H   0  0  0  0  0  0  0  0  0  0  0  0
    4.1099   -0.2112   -1.5584 H   0  0  0  0  0  0  0  0  0  0  0  0
    1.4537   -1.6262   -2.1750 H   0  0  0  0  0  0  0  0  0  0  0  0
    1.3620   -2.3900    0.3514 H   0  0  0  0  0  0  0  0  0  0  0  0
    4.0287   -2.8960   -1.1196 H   0  0  0  0  0  0  0  0  0  0  0  0
    1.1460   -0.2221    2.0905 H   0  0  0  0  0  0  0  0  0  0  0  0
    3.3250    3.4525    1.4528 H   0  0  0  0  0  0  0  0  0  0  0  0
    0.2230    0.6732    4.1513 H   0  0  0  0  0  0  0  0  0  0  0  0
    2.3667    4.3450    3.5556 H   0  0  0  0  0  0  0  0  0  0  0  0
    0.8182    2.9591    4.9112 H   0  0  0  0  0  0  0  0  0  0  0  0
  1 13  1  0  0  0  0
  2 19  1  0  0  0  0
  3 20  1  0  0  0  0
  4  5  1  0  0  0  0
  4 21  1  0  0  0  0
  4 22  1  0  0  0  0
  5 23  1  0  0  0  0
  6 24  1  0  0  0  0
  7  8  1  0  0  0  0
  7  9  1  0  0  0  0
  7 25  1  6  0  0  0
  7  1  1  0  0  0  0
  8  2  1  0  0  0  0
  8 10  1  0  0  0  0
  8 26  1  1  0  0  0
  9 11  1  0  0  0  0
 10  3  1  0  0  0  0
 10 12  1  0  0  0  0
 10 27  1  6  0  0  0
 11  4  1  0  0  0  0
 11 12  1  0  0  0  0
 11 28  1  1  0  0  0
 12  6  1  0  0  0  0
 12 29  1  1  0  0  0
 13 14  2  0  0  0  0
 13 15  1  0  0  0  0
 14 16  1  0  0  0  0
 14 30  1  0  0  0  0
 15 17  2  0  0  0  0
 15 31  1  0  0  0  0
 16 18  2  0  0  0  0
 16 32  1  0  0  0  0
 17 18  1  0  0  0  0
 17 33  1  0  0  0  0
 18 34  1  0  0  0  0
M  END
>  <Mol_ID>
7267

>  <Formula>
C12H16O6

>  <MolWeight>
256.25184

>  <Cat>
E4284

>  <Name>
Phenyl-¦Â-D-glucopyranoside

>  <Synonyms>
Phenyl-¦Â-D-glucopyranoside

>  <Target>
Others

>  <Form>
free base

>  <CAS>
1464-44-4

>  <URL>
https://www.selleckchem.com/products/phenyl-beta-d-glucopyranoside.html

$$$$
