Phenelzine sulfate
 OpenBabel08302521313D

 29 28  0  0  0  0  0  0  0  0999 V2000
    1.5938   -0.4445    1.1228 C   0  0  0  0  0  0  0  0  0  0  0  0
    0.7201   -1.5396    1.1000 C   0  0  0  0  0  0  0  0  0  0  0  0
    1.0546    0.8337    1.3600 C   0  0  0  0  0  0  0  0  0  0  0  0
    3.0766   -0.5397    0.8197 C   0  0  0  0  0  0  0  0  0  0  0  0
   -0.6610   -1.3510    1.2157 C   0  0  0  0  0  0  0  0  0  0  0  0
   -0.3239    1.0207    1.4809 C   0  0  0  0  0  0  0  0  0  0  0  0
    3.6704   -1.8875    0.3611 C   0  0  0  0  0  0  0  0  0  0  0  0
   -1.1834   -0.0703    1.3864 C   0  0  0  0  0  0  0  0  0  0  0  0
    3.0803   -2.4920   -0.8527 N   0  0  0  0  0  0  0  0  0  0  0  0
    3.3470   -1.6553   -2.0023 N   0  0  0  0  0  0  0  0  0  0  0  0
   -0.0400    0.3408   -3.0817 S   0  0  0  0  0  0  0  0  0  0  0  0
    0.6513    0.1878   -1.6521 O   0  0  0  0  0  0  0  0  0  0  0  0
   -0.6191    1.8305   -2.9496 O   0  0  0  0  0  0  0  0  0  0  0  0
   -1.1422   -0.5813   -3.1016 O   0  0  0  0  0  0  0  0  0  0  0  0
    1.0208    0.3435   -4.0593 O   0  0  0  0  0  0  0  0  0  0  0  0
    1.0903   -2.5491    0.9383 H   0  0  0  0  0  0  0  0  0  0  0  0
    1.7120    1.7004    1.4056 H   0  0  0  0  0  0  0  0  0  0  0  0
    3.3035    0.2098    0.0490 H   0  0  0  0  0  0  0  0  0  0  0  0
    3.6183   -0.2275    1.7218 H   0  0  0  0  0  0  0  0  0  0  0  0
   -1.3306   -2.2057    1.1478 H   0  0  0  0  0  0  0  0  0  0  0  0
   -0.7252    2.0200    1.6299 H   0  0  0  0  0  0  0  0  0  0  0  0
    4.7516   -1.7642    0.2131 H   0  0  0  0  0  0  0  0  0  0  0  0
    3.5564   -2.6113    1.1771 H   0  0  0  0  0  0  0  0  0  0  0  0
   -2.2591    0.0758    1.4488 H   0  0  0  0  0  0  0  0  0  0  0  0
    3.5286   -3.4083   -0.9751 H   0  0  0  0  0  0  0  0  0  0  0  0
    3.0689   -2.1228   -2.8730 H   0  0  0  0  0  0  0  0  0  0  0  0
    2.7598   -0.8116   -1.9874 H   0  0  0  0  0  0  0  0  0  0  0  0
    0.1397   -0.4800   -1.1412 H   0  0  0  0  0  0  0  0  0  0  0  0
   -0.1486    2.2754   -2.2149 H   0  0  0  0  0  0  0  0  0  0  0  0
  1  2  2  0  0  0  0
  1  3  1  0  0  0  0
  1  4  1  0  0  0  0
  2  5  1  0  0  0  0
  2 16  1  0  0  0  0
  3  6  2  0  0  0  0
  3 17  1  0  0  0  0
  4  7  1  0  0  0  0
  4 18  1  0  0  0  0
  4 19  1  0  0  0  0
  5  8  2  0  0  0  0
  5 20  1  0  0  0  0
  6  8  1  0  0  0  0
  6 21  1  0  0  0  0
  7  9  1  0  0  0  0
  7 22  1  0  0  0  0
  7 23  1  0  0  0  0
  8 24  1  0  0  0  0
  9 10  1  0  0  0  0
  9 25  1  0  0  0  0
 10 26  1  0  0  0  0
 10 27  1  0  0  0  0
 11 12  1  0  0  0  0
 11 13  1  0  0  0  0
 11 14  2  0  0  0  0
 11 15  2  0  0  0  0
 12 28  1  0  0  0  0
 13 29  1  0  0  0  0
M  END
>  <Mol_ID>
5956

>  <Formula>
C8H14N2O4S

>  <MolWeight>
234.27276

>  <Cat>
E0165

>  <Name>
Phenelzine sulfate

>  <Synonyms>
N/A

>  <Target>
MAO

>  <Form>
Sulfate

>  <CAS>
156-51-4

>  <URL>
http://www.selleckchem.com/products/phenelzine-sulfate.html

$$$$
