Phenylglyoxylic acid
 OpenBabel08302520383D

 17 17  0  0  0  0  0  0  0  0999 V2000
    1.4172   -0.1477    0.0613 C   0  0  0  0  0  0  0  0  0  0  0  0
    2.8758   -0.3800    0.1419 C   0  0  0  0  0  0  0  0  0  0  0  0
    0.5771   -1.2703    0.0638 C   0  0  0  0  0  0  0  0  0  0  0  0
    0.8583    1.1333    0.0238 C   0  0  0  0  0  0  0  0  0  0  0  0
    3.8918    0.6026   -0.4369 C   0  0  0  0  0  0  0  0  0  0  0  0
    3.3445   -1.3933    0.6625 O   0  0  0  0  0  0  0  0  0  0  0  0
   -0.8083   -1.1131    0.0143 C   0  0  0  0  0  0  0  0  0  0  0  0
   -0.5313    1.2862   -0.0169 C   0  0  0  0  0  0  0  0  0  0  0  0
    5.1407    0.1604   -0.1853 O   0  0  0  0  0  0  0  0  0  0  0  0
    3.6153    1.6141   -1.0467 O   0  0  0  0  0  0  0  0  0  0  0  0
   -1.3615    0.1650   -0.0229 C   0  0  0  0  0  0  0  0  0  0  0  0
    0.9981   -2.2744    0.0995 H   0  0  0  0  0  0  0  0  0  0  0  0
    1.4760    2.0279    0.0407 H   0  0  0  0  0  0  0  0  0  0  0  0
   -1.4546   -1.9871    0.0090 H   0  0  0  0  0  0  0  0  0  0  0  0
   -0.9675    2.2830   -0.0399 H   0  0  0  0  0  0  0  0  0  0  0  0
    5.0786   -0.6975    0.3002 H   0  0  0  0  0  0  0  0  0  0  0  0
   -2.4417    0.2889   -0.0536 H   0  0  0  0  0  0  0  0  0  0  0  0
  1  2  1  0  0  0  0
  1  3  2  0  0  0  0
  1  4  1  0  0  0  0
  2  5  1  0  0  0  0
  2  6  2  0  0  0  0
  3  7  1  0  0  0  0
  3 12  1  0  0  0  0
  4  8  2  0  0  0  0
  4 13  1  0  0  0  0
  5  9  1  0  0  0  0
  5 10  2  0  0  0  0
  7 11  2  0  0  0  0
  7 14  1  0  0  0  0
  8 11  1  0  0  0  0
  8 15  1  0  0  0  0
  9 16  1  0  0  0  0
 11 17  1  0  0  0  0
M  END
>  <Mol_ID>
3536

>  <Formula>
C8H6O3

>  <MolWeight>
150.13144

>  <Cat>
S6053

>  <Name>
Phenylglyoxylic acid

>  <Synonyms>
Benzoyl formate, Phenylglyoxalic acid, Phenylglyoxylate

>  <Target>
Others

>  <Form>
free base

>  <CAS>
611-73-4

>  <URL>
http://www.selleck.cn/products/phenylglyoxylic-acid.html

$$$$
