Phenylephrine hydrochloride.cdx
 OpenBabel08302521433D

 25 25  0  0  0  0  0  0  0  0999 V2000
   -1.5511    3.5000    3.7460 C   0  0  0  0  0  0  0  0  0  0  0  0
   -1.1515    4.8270    3.6745 C   0  0  0  0  0  0  0  0  0  0  0  0
   -0.9921    5.4189    2.4237 C   0  0  0  0  0  0  0  0  0  0  0  0
   -1.1969    4.6717    1.2572 C   0  0  0  0  0  0  0  0  0  0  0  0
   -1.5686    3.3168    1.3184 C   0  0  0  0  0  0  0  0  0  0  0  0
   -1.7844    2.7603    2.5898 C   0  0  0  0  0  0  0  0  0  0  0  0
   -1.7282    2.8722    4.9433 O   0  0  0  0  0  0  0  0  0  0  0  0
   -1.7966    2.4724    0.0708 C   0  0  2  0  0  0  0  0  0  0  0  0
   -0.8203    1.2686   -0.1188 C   0  0  0  0  0  0  0  0  0  0  0  0
   -0.8657    0.2208    0.9101 N   0  0  0  0  0  0  0  0  0  0  0  0
    0.0333   -0.8798    0.5868 C   0  0  0  0  0  0  0  0  0  0  0  0
   -1.6968    3.2921   -1.1063 O   0  0  0  0  0  0  0  0  0  0  0  0
   -0.9790    5.4149    4.5697 H   0  0  0  0  0  0  0  0  0  0  0  0
   -0.7149    6.4672    2.3509 H   0  0  0  0  0  0  0  0  0  0  0  0
   -1.0862    5.1778    0.3011 H   0  0  0  0  0  0  0  0  0  0  0  0
   -2.1497    1.7409    2.6950 H   0  0  0  0  0  0  0  0  0  0  0  0
   -1.5344    3.5033    5.6553 H   0  0  0  0  0  0  0  0  0  0  0  0
   -2.8295    2.1054    0.0926 H   0  0  0  0  0  0  0  0  0  0  0  0
   -1.0551    0.8167   -1.0928 H   0  0  0  0  0  0  0  0  0  0  0  0
    0.2035    1.6556   -0.2031 H   0  0  0  0  0  0  0  0  0  0  0  0
   -0.5628    0.6192    1.8001 H   0  0  0  0  0  0  0  0  0  0  0  0
    1.0726   -0.5411    0.5266 H   0  0  0  0  0  0  0  0  0  0  0  0
   -0.0269   -1.6384    1.3739 H   0  0  0  0  0  0  0  0  0  0  0  0
   -0.2459   -1.3596   -0.3561 H   0  0  0  0  0  0  0  0  0  0  0  0
   -0.7559    3.5134   -1.2145 H   0  0  0  0  0  0  0  0  0  0  0  0
  1  2  2  0  0  0  0
  1  7  1  0  0  0  0
  2  3  1  0  0  0  0
  2 13  1  0  0  0  0
  3  4  2  0  0  0  0
  3 14  1  0  0  0  0
  4  5  1  0  0  0  0
  4 15  1  0  0  0  0
  5  6  2  0  0  0  0
  6  1  1  0  0  0  0
  6 16  1  0  0  0  0
  7 17  1  0  0  0  0
  8 12  1  0  0  0  0
  8 18  1  1  0  0  0
  8  9  1  0  0  0  0
  8  5  1  0  0  0  0
  9 10  1  0  0  0  0
  9 19  1  0  0  0  0
  9 20  1  0  0  0  0
 10 11  1  0  0  0  0
 10 21  1  0  0  0  0
 11 22  1  0  0  0  0
 11 23  1  0  0  0  0
 11 24  1  0  0  0  0
 12 25  1  0  0  0  0
M  END
>  <Mol_ID>
884

>  <Formula>
C9H14ClNO2

>  <MolWeight>
203.66596

>  <Cat>
S2569

>  <Name>
Phenylephrine (NCI-C55641) HCl

>  <Synonyms>
NCI-c55641,Phenylephrine hydrochloride,(R)-(-)-Phenylephrine hydrochloride, L-Phenylephrine hydrochloride

>  <Target>
Adrenergic Receptor

>  <Form>
Hydrochloride

>  <CAS>
61-76-7

>  <URL>
http://selleckchem.com/products/Phenylephrine-hydrochloride.html

$$$$
