Phenethyl ferulate
 OpenBabel08302521493D

 40 41  0  0  0  0  0  0  0  0999 V2000
    0.4723   -0.2650    0.7098 C   0  0  0  0  0  0  0  0  0  0  0  0
   -0.2079   -0.8986   -0.2552 C   0  0  0  0  0  0  0  0  0  0  0  0
   -1.5415   -0.6289   -0.8347 C   0  0  0  0  0  0  0  0  0  0  0  0
   -1.9128    0.6549   -0.6613 O   0  0  0  0  0  0  0  0  0  0  0  0
   -2.1008   -1.4609   -1.5317 O   0  0  0  0  0  0  0  0  0  0  0  0
   -2.3702    1.3774   -1.8198 C   0  0  0  0  0  0  0  0  0  0  0  0
   -3.5915    0.8033   -2.5327 C   0  0  0  0  0  0  0  0  0  0  0  0
   -0.5295    4.4842    1.8691 O   0  0  0  0  0  0  0  0  0  0  0  0
   -0.1425    4.9515    0.5834 C   0  0  0  0  0  0  0  0  0  0  0  0
   -1.2967    3.6756    4.2768 O   0  0  0  0  0  0  0  0  0  0  0  0
   -0.0051    0.8076    1.5857 C   0  0  0  0  0  0  0  0  0  0  0  0
   -0.0136    2.1584    1.1973 C   0  0  0  0  0  0  0  0  0  0  0  0
   -0.4313    0.4428    2.8710 C   0  0  0  0  0  0  0  0  0  0  0  0
   -0.4551    3.1329    2.0927 C   0  0  0  0  0  0  0  0  0  0  0  0
   -0.8625    1.4124    3.7684 C   0  0  0  0  0  0  0  0  0  0  0  0
   -0.8706    2.7379    3.3719 C   0  0  0  0  0  0  0  0  0  0  0  0
   -4.0517    1.6585   -3.6897 C   0  0  0  0  0  0  0  0  0  0  0  0
   -3.4265    1.5523   -4.9418 C   0  0  0  0  0  0  0  0  0  0  0  0
   -5.1385    2.5285   -3.5459 C   0  0  0  0  0  0  0  0  0  0  0  0
   -3.9160    2.2603   -6.0407 C   0  0  0  0  0  0  0  0  0  0  0  0
   -5.6273    3.2348   -4.6470 C   0  0  0  0  0  0  0  0  0  0  0  0
   -5.0256    3.0901   -5.8962 C   0  0  0  0  0  0  0  0  0  0  0  0
    1.4668   -0.6315    0.9623 H   0  0  0  0  0  0  0  0  0  0  0  0
    0.2575   -1.7594   -0.7283 H   0  0  0  0  0  0  0  0  0  0  0  0
   -2.5990    2.3895   -1.4650 H   0  0  0  0  0  0  0  0  0  0  0  0
   -1.5181    1.4776   -2.5032 H   0  0  0  0  0  0  0  0  0  0  0  0
   -3.3808   -0.1907   -2.9385 H   0  0  0  0  0  0  0  0  0  0  0  0
   -4.4067    0.6527   -1.8151 H   0  0  0  0  0  0  0  0  0  0  0  0
    0.9101    4.7287    0.3821 H   0  0  0  0  0  0  0  0  0  0  0  0
   -0.7932    4.5445   -0.1972 H   0  0  0  0  0  0  0  0  0  0  0  0
   -0.2581    6.0400    0.5804 H   0  0  0  0  0  0  0  0  0  0  0  0
   -1.2263    4.5301    3.8039 H   0  0  0  0  0  0  0  0  0  0  0  0
    0.3197    2.4177    0.1980 H   0  0  0  0  0  0  0  0  0  0  0  0
   -0.4191   -0.5986    3.1799 H   0  0  0  0  0  0  0  0  0  0  0  0
   -1.1895    1.1363    4.7668 H   0  0  0  0  0  0  0  0  0  0  0  0
   -2.5735    0.8902   -5.0769 H   0  0  0  0  0  0  0  0  0  0  0  0
   -5.6312    2.6391   -2.5827 H   0  0  0  0  0  0  0  0  0  0  0  0
   -3.4457    2.1471   -7.0144 H   0  0  0  0  0  0  0  0  0  0  0  0
   -6.4924    3.8829   -4.5343 H   0  0  0  0  0  0  0  0  0  0  0  0
   -5.4269    3.6173   -6.7579 H   0  0  0  0  0  0  0  0  0  0  0  0
  1  2  2  3  0  0  0
  1 11  1  0  0  0  0
  1 23  1  0  0  0  0
  2  3  1  0  0  0  0
  2 24  1  0  0  0  0
  3  4  1  0  0  0  0
  3  5  2  0  0  0  0
  4  6  1  0  0  0  0
  6  7  1  0  0  0  0
  6 25  1  0  0  0  0
  6 26  1  0  0  0  0
  7 17  1  0  0  0  0
  7 27  1  0  0  0  0
  7 28  1  0  0  0  0
  8  9  1  0  0  0  0
  8 14  1  0  0  0  0
  9 29  1  0  0  0  0
  9 30  1  0  0  0  0
  9 31  1  0  0  0  0
 10 16  1  0  0  0  0
 10 32  1  0  0  0  0
 11 12  2  0  0  0  0
 11 13  1  0  0  0  0
 12 14  1  0  0  0  0
 12 33  1  0  0  0  0
 13 15  2  0  0  0  0
 13 34  1  0  0  0  0
 14 16  2  0  0  0  0
 15 16  1  0  0  0  0
 15 35  1  0  0  0  0
 17 18  2  0  0  0  0
 17 19  1  0  0  0  0
 18 20  1  0  0  0  0
 18 36  1  0  0  0  0
 19 21  2  0  0  0  0
 19 37  1  0  0  0  0
 20 22  2  0  0  0  0
 20 38  1  0  0  0  0
 21 22  1  0  0  0  0
 21 39  1  0  0  0  0
 22 40  1  0  0  0  0
M  END
>  <Mol_ID>
9845

>  <Formula>
C18H18O4

>  <MolWeight>
298.33312

>  <Cat>
E2526

>  <Name>
Phenethyl ferulate

>  <Synonyms>
N/A

>  <Target>
COX

>  <Form>
free base

>  <CAS>
71835-85-3

>  <URL>
https://www.selleckchem.com/products/phenethyl-ferulate.html

$$$$
