Phillygenin
 OpenBabel08302521263D

 51 54  0  0  0  0  0  0  0  0999 V2000
    0.3988    3.6933    2.3313 O   0  0  0  0  0  0  0  0  0  0  0  0
   -0.0547    2.4758    1.9029 C   0  0  0  0  0  0  0  0  0  0  0  0
    0.6763    1.7838    0.9252 C   0  0  0  0  0  0  0  0  0  0  0  0
    1.8491    2.1384    0.3117 O   0  0  0  0  0  0  0  0  0  0  0  0
    2.4257    3.4009    0.6019 C   0  0  0  0  0  0  0  0  0  0  0  0
    0.2005    0.5481    0.4609 C   0  0  0  0  0  0  0  0  0  0  0  0
   -0.9830   -0.0048    0.9471 C   0  0  0  0  0  0  0  0  0  0  0  0
   -1.7130    0.6523    1.9385 C   0  0  0  0  0  0  0  0  0  0  0  0
   -3.0022    0.0453    2.4583 C   0  0  2  0  0  0  0  0  0  0  0  0
   -4.0943    0.9430    2.1913 O   0  0  0  0  0  0  0  0  0  0  0  0
   -4.4419    1.6104    3.4050 C   0  0  0  0  0  0  0  0  0  0  0  0
   -4.0070    0.7230    4.5610 C   0  0  2  0  0  0  0  0  0  0  0  0
   -3.1324    1.4429    5.5953 C   0  0  1  0  0  0  0  0  0  0  0  0
   -3.4511    1.2130    7.0634 C   0  0  0  0  0  0  0  0  0  0  0  0
   -2.4202    1.2395    8.0160 C   0  0  0  0  0  0  0  0  0  0  0  0
   -2.6916    1.0951    9.3767 C   0  0  0  0  0  0  0  0  0  0  0  0
   -4.0066    0.9366    9.8176 C   0  0  0  0  0  0  0  0  0  0  0  0
   -4.2223    0.8113   11.1616 O   0  0  0  0  0  0  0  0  0  0  0  0
   -5.0581    0.9215    8.8970 C   0  0  0  0  0  0  0  0  0  0  0  0
   -6.3994    0.7861    9.1354 O   0  0  0  0  0  0  0  0  0  0  0  0
   -6.8314    0.6736   10.4828 C   0  0  0  0  0  0  0  0  0  0  0  0
   -4.7662    1.0710    7.5310 C   0  0  0  0  0  0  0  0  0  0  0  0
   -1.7855    0.9911    5.3323 O   0  0  0  0  0  0  0  0  0  0  0  0
   -1.8661   -0.3248    4.7751 C   0  0  0  0  0  0  0  0  0  0  0  0
   -3.1186   -0.3329    3.9363 C   0  0  2  0  0  0  0  0  0  0  0  0
   -1.2199    1.8816    2.4091 C   0  0  0  0  0  0  0  0  0  0  0  0
   -0.4541    4.5273    3.1085 C   0  0  0  0  0  0  0  0  0  0  0  0
    1.7715    4.2163    0.2784 H   0  0  0  0  0  0  0  0  0  0  0  0
    2.7049    3.4854    1.6558 H   0  0  0  0  0  0  0  0  0  0  0  0
    3.3506    3.4755    0.0209 H   0  0  0  0  0  0  0  0  0  0  0  0
    0.7617    0.0167   -0.3046 H   0  0  0  0  0  0  0  0  0  0  0  0
   -1.3175   -0.9546    0.5433 H   0  0  0  0  0  0  0  0  0  0  0  0
   -3.2107   -0.8535    1.8638 H   0  0  0  0  0  0  0  0  0  0  0  0
   -3.9647    2.5953    3.4041 H   0  0  0  0  0  0  0  0  0  0  0  0
   -5.5224    1.7841    3.4103 H   0  0  0  0  0  0  0  0  0  0  0  0
   -4.8986    0.2598    4.9924 H   0  0  0  0  0  0  0  0  0  0  0  0
   -3.1432    2.5299    5.4510 H   0  0  0  0  0  0  0  0  0  0  0  0
   -1.3867    1.3796    7.7007 H   0  0  0  0  0  0  0  0  0  0  0  0
   -1.8608    1.1136   10.0754 H   0  0  0  0  0  0  0  0  0  0  0  0
   -3.3835    0.9469   11.6303 H   0  0  0  0  0  0  0  0  0  0  0  0
   -6.4671   -0.2521   10.9394 H   0  0  0  0  0  0  0  0  0  0  0  0
   -6.5563    1.5583   11.0653 H   0  0  0  0  0  0  0  0  0  0  0  0
   -7.9246    0.6230   10.4739 H   0  0  0  0  0  0  0  0  0  0  0  0
   -5.6059    1.0904    6.8407 H   0  0  0  0  0  0  0  0  0  0  0  0
   -1.9532   -1.0336    5.6068 H   0  0  0  0  0  0  0  0  0  0  0  0
   -0.9481   -0.5656    4.2331 H   0  0  0  0  0  0  0  0  0  0  0  0
   -3.5992   -1.3176    3.9988 H   0  0  0  0  0  0  0  0  0  0  0  0
   -1.7610    2.3701    3.2087 H   0  0  0  0  0  0  0  0  0  0  0  0
   -0.2199    4.4076    4.1711 H   0  0  0  0  0  0  0  0  0  0  0  0
   -0.2438    5.5642    2.8292 H   0  0  0  0  0  0  0  0  0  0  0  0
   -1.5235    4.3761    2.9323 H   0  0  0  0  0  0  0  0  0  0  0  0
  1  2  1  0  0  0  0
  1 27  1  0  0  0  0
  2  3  2  0  0  0  0
  2 26  1  0  0  0  0
  3  4  1  0  0  0  0
  3  6  1  0  0  0  0
  4  5  1  0  0  0  0
  5 28  1  0  0  0  0
  5 29  1  0  0  0  0
  5 30  1  0  0  0  0
  6  7  2  0  0  0  0
  6 31  1  0  0  0  0
  7 32  1  0  0  0  0
  8  7  1  0  0  0  0
  9  8  1  0  0  0  0
  9 10  1  0  0  0  0
  9 25  1  0  0  0  0
  9 33  1  6  0  0  0
 10 11  1  0  0  0  0
 11 34  1  0  0  0  0
 11 35  1  0  0  0  0
 12 11  1  0  0  0  0
 12 13  1  0  0  0  0
 12 36  1  1  0  0  0
 13 23  1  0  0  0  0
 13 37  1  6  0  0  0
 13 14  1  0  0  0  0
 14 15  2  0  0  0  0
 14 22  1  0  0  0  0
 15 16  1  0  0  0  0
 15 38  1  0  0  0  0
 16 17  2  0  0  0  0
 16 39  1  0  0  0  0
 17 18  1  0  0  0  0
 18 40  1  0  0  0  0
 19 17  1  0  0  0  0
 19 20  1  0  0  0  0
 20 21  1  0  0  0  0
 21 41  1  0  0  0  0
 21 42  1  0  0  0  0
 21 43  1  0  0  0  0
 22 19  2  0  0  0  0
 22 44  1  0  0  0  0
 24 23  1  0  0  0  0
 24 45  1  0  0  0  0
 24 46  1  0  0  0  0
 25 24  1  0  0  0  0
 25 12  1  0  0  0  0
 25 47  1  1  0  0  0
 26  8  2  0  0  0  0
 26 48  1  0  0  0  0
 27 49  1  0  0  0  0
 27 50  1  0  0  0  0
 27 51  1  0  0  0  0
M  END
>  <Mol_ID>
5295

>  <Formula>
C21H24O6

>  <MolWeight>
372.41166

>  <Cat>
S9187

>  <Name>
Phillygenin

>  <Synonyms>
Sylvatesmin

>  <Target>
LDL

>  <Form>
Free Base

>  <CAS>
487-39-8

>  <URL>
https://www.selleckchem.com/products/phillygenin.html

$$$$
