Phloretin.cdx
 OpenBabel08302521373D

 34 35  0  0  0  0  0  0  0  0999 V2000
   -1.0185    0.4173    3.7789 C   0  0  0  0  0  0  0  0  0  0  0  0
   -0.2464    1.5678    3.6702 C   0  0  0  0  0  0  0  0  0  0  0  0
   -0.2727    2.3077    2.4805 C   0  0  0  0  0  0  0  0  0  0  0  0
   -1.0544    1.9091    1.3856 C   0  0  0  0  0  0  0  0  0  0  0  0
   -1.8150    0.7302    1.5306 C   0  0  0  0  0  0  0  0  0  0  0  0
   -1.7991   -0.0087    2.7149 C   0  0  0  0  0  0  0  0  0  0  0  0
   -1.1313    2.6561    0.0847 C   0  0  0  0  0  0  0  0  0  0  0  0
   -0.4365    3.9934   -0.0925 C   0  0  0  0  0  0  0  0  0  0  0  0
   -0.7328    4.5986   -1.4698 C   0  0  0  0  0  0  0  0  0  0  0  0
   -2.6212    0.2229    0.5421 O   0  0  0  0  0  0  0  0  0  0  0  0
   -0.0495    5.9323   -1.6553 C   0  0  0  0  0  0  0  0  0  0  0  0
    1.2250    6.0019   -2.2362 C   0  0  0  0  0  0  0  0  0  0  0  0
    1.8756    7.2302   -2.3769 C   0  0  0  0  0  0  0  0  0  0  0  0
    1.2502    8.3902   -1.9324 C   0  0  0  0  0  0  0  0  0  0  0  0
   -0.0165    8.3421   -1.3639 C   0  0  0  0  0  0  0  0  0  0  0  0
   -0.6671    7.1150   -1.2247 C   0  0  0  0  0  0  0  0  0  0  0  0
   -1.0398   -0.3276    4.9199 O   0  0  0  0  0  0  0  0  0  0  0  0
    0.5308    3.4125    2.4545 O   0  0  0  0  0  0  0  0  0  0  0  0
   -1.7969    2.1596   -0.8256 O   0  0  0  0  0  0  0  0  0  0  0  0
    1.8551    9.6079   -2.0349 O   0  0  0  0  0  0  0  0  0  0  0  0
    0.3853    1.8922    4.4918 H   0  0  0  0  0  0  0  0  0  0  0  0
   -2.3934   -0.9145    2.7995 H   0  0  0  0  0  0  0  0  0  0  0  0
   -0.7955    4.6809    0.6802 H   0  0  0  0  0  0  0  0  0  0  0  0
    0.6447    3.8503    0.0118 H   0  0  0  0  0  0  0  0  0  0  0  0
   -0.4131    3.9117   -2.2639 H   0  0  0  0  0  0  0  0  0  0  0  0
   -1.8148    4.7252   -1.6063 H   0  0  0  0  0  0  0  0  0  0  0  0
   -2.5260    0.7950   -0.2530 H   0  0  0  0  0  0  0  0  0  0  0  0
    1.7183    5.0969   -2.5847 H   0  0  0  0  0  0  0  0  0  0  0  0
    2.8610    7.2596   -2.8305 H   0  0  0  0  0  0  0  0  0  0  0  0
   -0.4956    9.2577   -1.0291 H   0  0  0  0  0  0  0  0  0  0  0  0
   -1.6596    7.0896   -0.7809 H   0  0  0  0  0  0  0  0  0  0  0  0
   -0.4767    0.0918    5.5907 H   0  0  0  0  0  0  0  0  0  0  0  0
   -0.0054    4.1655    2.7639 H   0  0  0  0  0  0  0  0  0  0  0  0
    2.7320    9.4842   -2.4336 H   0  0  0  0  0  0  0  0  0  0  0  0
  1  2  2  0  0  0  0
  1 17  1  0  0  0  0
  2  3  1  0  0  0  0
  2 21  1  0  0  0  0
  3  4  2  0  0  0  0
  3 18  1  0  0  0  0
  4  5  1  0  0  0  0
  4  7  1  0  0  0  0
  5  6  2  0  0  0  0
  6  1  1  0  0  0  0
  6 22  1  0  0  0  0
  7  8  1  0  0  0  0
  7 19  2  0  0  0  0
  8  9  1  0  0  0  0
  8 23  1  0  0  0  0
  8 24  1  0  0  0  0
  9 11  1  0  0  0  0
  9 25  1  0  0  0  0
  9 26  1  0  0  0  0
 10  5  1  0  0  0  0
 10 27  1  0  0  0  0
 11 12  2  0  0  0  0
 12 13  1  0  0  0  0
 12 28  1  0  0  0  0
 13 14  2  0  0  0  0
 13 29  1  0  0  0  0
 14 15  1  0  0  0  0
 14 20  1  0  0  0  0
 15 16  2  0  0  0  0
 15 30  1  0  0  0  0
 16 11  1  0  0  0  0
 16 31  1  0  0  0  0
 17 32  1  0  0  0  0
 18 33  1  0  0  0  0
 20 34  1  0  0  0  0
M  END
>  <Mol_ID>
718

>  <Formula>
C15H14O5

>  <MolWeight>
274.26866

>  <Cat>
S2342

>  <Name>
Phloretin (RJC 02792)

>  <Synonyms>
NSC 407292, Dihydronaringenin

>  <Target>
SGLT

>  <Form>
free base

>  <CAS>
60-82-2

>  <URL>
http://selleckchem.com/products/Phloretin(Dihydronaringenin).html

$$$$
