Phospho(enol)pyruvic acid monopotassium salt
 OpenBabel08302521393D

 15 14  0  0  0  0  0  0  0  0999 V2000
    1.8275    2.1039    1.4100 P   0  0  0  0  0  0  0  0  0  0  0  0
    1.1210    0.6067    1.4542 O   0  0  0  0  0  0  0  0  0  0  0  0
    1.5929    2.4577   -0.1703 O   0  0  0  0  0  0  0  0  0  0  0  0
    1.0263   -0.1278    2.6248 C   0  0  0  0  0  0  0  0  0  0  0  0
    0.9807   -1.6149    2.5040 C   0  0  0  0  0  0  0  0  0  0  0  0
    1.0600   -2.0041    1.2149 O   0  0  0  0  0  0  0  0  0  0  0  0
    3.2638    1.5503    1.2428 O   0  0  0  0  0  0  0  0  0  0  0  0
    0.2227    2.7224    1.5969 O   0  0  0  0  0  0  0  0  0  0  0  0
    0.9540    0.4189    3.8477 C   0  0  0  0  0  0  0  0  0  0  0  0
    0.8754   -2.3917    3.4407 O   0  0  0  0  0  0  0  0  0  0  0  0
    2.1866    3.1838   -0.4427 H   0  0  0  0  0  0  0  0  0  0  0  0
    1.1810   -1.2348    0.6219 H   0  0  0  0  0  0  0  0  0  0  0  0
   -0.2423    2.4620    0.7762 H   0  0  0  0  0  0  0  0  0  0  0  0
    0.9437    1.4900    4.0091 H   0  0  0  0  0  0  0  0  0  0  0  0
    0.8784   -0.2045    4.7357 H   0  0  0  0  0  0  0  0  0  0  0  0
  1  2  1  0  0  0  0
  1  3  1  0  0  0  0
  1  7  2  0  0  0  0
  1  8  1  0  0  0  0
  2  4  1  0  0  0  0
  3 11  1  0  0  0  0
  4  5  1  0  0  0  0
  4  9  2  0  0  0  0
  5  6  1  0  0  0  0
  5 10  2  0  0  0  0
  6 12  1  0  0  0  0
  8 13  1  0  0  0  0
  9 14  1  0  0  0  0
  9 15  1  0  0  0  0
M  END
>  <Mol_ID>
7969

>  <Formula>
C3H4KO6P

>  <MolWeight>
206.132321

>  <Cat>
S3335

>  <Name>
Phospho(enol)pyruvic acid monopotassium salt

>  <Synonyms>
Potassium 1-carboxyvinyl hydrogenphosphate

>  <Target>
Others

>  <Form>
Monopotassium salt

>  <CAS>
4265-07-0

>  <URL>
https://www.selleckchem.com/products/phosphoenolpyruvic-acid-monopotassium-salt.html

$$$$
