Phthalic acid
 OpenBabel08302520383D

 18 18  0  0  0  0  0  0  0  0999 V2000
    0.9711    0.2105    0.0003 C   0  0  0  0  0  0  0  0  0  0  0  0
    0.4083   -0.9361   -0.7716 C   0  0  0  0  0  0  0  0  0  0  0  0
    0.8233   -2.2775   -0.7279 C   0  0  0  0  0  0  0  0  0  0  0  0
    1.9764   -2.7351    0.0703 C   0  0  0  0  0  0  0  0  0  0  0  0
    0.1358   -3.2447   -1.4909 C   0  0  0  0  0  0  0  0  0  0  0  0
   -0.9585   -2.8934   -2.2802 C   0  0  0  0  0  0  0  0  0  0  0  0
   -1.3851   -1.5720   -2.3149 C   0  0  0  0  0  0  0  0  0  0  0  0
   -0.7096   -0.6061   -1.5669 C   0  0  0  0  0  0  0  0  0  0  0  0
    0.2449    1.1208    0.3759 O   0  0  0  0  0  0  0  0  0  0  0  0
    2.3052    0.2827    0.1383 O   0  0  0  0  0  0  0  0  0  0  0  0
    2.9674   -2.0717    0.3108 O   0  0  0  0  0  0  0  0  0  0  0  0
    1.8457   -4.0010    0.5026 O   0  0  0  0  0  0  0  0  0  0  0  0
    0.4534   -4.2860   -1.4777 H   0  0  0  0  0  0  0  0  0  0  0  0
   -1.4801   -3.6512   -2.8597 H   0  0  0  0  0  0  0  0  0  0  0  0
   -2.2464   -1.2901   -2.9164 H   0  0  0  0  0  0  0  0  0  0  0  0
   -1.0706    0.4228   -1.5992 H   0  0  0  0  0  0  0  0  0  0  0  0
    2.8160   -0.5476    0.0037 H   0  0  0  0  0  0  0  0  0  0  0  0
    2.6629   -4.1932    1.0098 H   0  0  0  0  0  0  0  0  0  0  0  0
  1  2  1  0  0  0  0
  1  9  2  0  0  0  0
  1 10  1  0  0  0  0
  2  3  2  0  0  0  0
  2  8  1  0  0  0  0
  3  4  1  0  0  0  0
  3  5  1  0  0  0  0
  4 11  2  0  0  0  0
  4 12  1  0  0  0  0
  5  6  2  0  0  0  0
  5 13  1  0  0  0  0
  6  7  1  0  0  0  0
  6 14  1  0  0  0  0
  7  8  2  0  0  0  0
  7 15  1  0  0  0  0
  8 16  1  0  0  0  0
 10 17  1  0  0  0  0
 12 18  1  0  0  0  0
M  END
>  <Mol_ID>
3492

>  <Formula>
C8H6O4

>  <MolWeight>
166.13084

>  <Cat>
S6215

>  <Name>
Phthalic acid

>  <Synonyms>
1,2-Benzenedioic acid

>  <Target>
Others

>  <Form>
free base

>  <CAS>
88-99-3

>  <URL>
http://www.selleck.cn/products/phthalic-acid.html

$$$$
