phthalylsulfacetamide.cdx
 OpenBabel08302519583D

 39 40  0  0  0  0  0  0  0  0999 V2000
    0.2434   -4.3529   -1.4126 C   0  0  0  0  0  0  0  0  0  0  0  0
    0.3989   -3.9860   -0.0594 C   0  0  0  0  0  0  0  0  0  0  0  0
   -0.6158   -4.4158    0.8256 C   0  0  0  0  0  0  0  0  0  0  0  0
   -1.6913   -5.2101    0.3996 C   0  0  0  0  0  0  0  0  0  0  0  0
   -1.7582   -5.6484   -0.9161 C   0  0  0  0  0  0  0  0  0  0  0  0
   -0.7974   -5.2174   -1.8246 C   0  0  0  0  0  0  0  0  0  0  0  0
    0.9814   -3.6836   -2.4880 C   0  0  0  0  0  0  0  0  0  0  0  0
    1.1978   -2.4819   -2.4775 O   0  0  0  0  0  0  0  0  0  0  0  0
    1.4789   -4.4983   -3.4343 O   0  0  0  0  0  0  0  0  0  0  0  0
    1.5418   -3.1880    0.5661 C   0  0  0  0  0  0  0  0  0  0  0  0
    1.4459   -2.8993    1.7585 O   0  0  0  0  0  0  0  0  0  0  0  0
    2.6573   -2.8936   -0.2065 N   0  0  0  0  0  0  0  0  0  0  0  0
    3.7344   -2.0151    0.0886 C   0  0  0  0  0  0  0  0  0  0  0  0
    3.8892   -1.3102    1.2829 C   0  0  0  0  0  0  0  0  0  0  0  0
    4.8411   -0.2792    1.3783 C   0  0  0  0  0  0  0  0  0  0  0  0
    5.6645    0.0242    0.2867 C   0  0  0  0  0  0  0  0  0  0  0  0
    5.6012   -0.7547   -0.8662 C   0  0  0  0  0  0  0  0  0  0  0  0
    4.6429   -1.7707   -0.9573 C   0  0  0  0  0  0  0  0  0  0  0  0
    6.5751    1.5569    0.2517 S   0  0  0  0  0  0  0  0  0  0  0  0
    8.0261    1.2036    0.9659 N   0  0  0  0  0  0  0  0  0  0  0  0
    6.7909    1.9576   -1.1207 O   0  0  0  0  0  0  0  0  0  0  0  0
    5.9237    2.4563    1.1814 O   0  0  0  0  0  0  0  0  0  0  0  0
    9.0336    0.4142    0.4106 C   0  0  0  0  0  0  0  0  0  0  0  0
   10.2867    0.3272    1.2412 C   0  0  0  0  0  0  0  0  0  0  0  0
    8.9233   -0.1744   -0.6547 O   0  0  0  0  0  0  0  0  0  0  0  0
   -0.5962   -4.1063    1.8708 H   0  0  0  0  0  0  0  0  0  0  0  0
   -2.4828   -5.4757    1.0989 H   0  0  0  0  0  0  0  0  0  0  0  0
   -2.5866   -6.2724   -1.2458 H   0  0  0  0  0  0  0  0  0  0  0  0
   -0.9161   -5.4999   -2.8696 H   0  0  0  0  0  0  0  0  0  0  0  0
    1.2961   -5.4492   -3.3318 H   0  0  0  0  0  0  0  0  0  0  0  0
    2.6310   -3.1294   -1.1864 H   0  0  0  0  0  0  0  0  0  0  0  0
    3.2349   -1.4852    2.1315 H   0  0  0  0  0  0  0  0  0  0  0  0
    4.8782    0.3244    2.2825 H   0  0  0  0  0  0  0  0  0  0  0  0
    6.2408   -0.5374   -1.7205 H   0  0  0  0  0  0  0  0  0  0  0  0
    4.5726   -2.3232   -1.8924 H   0  0  0  0  0  0  0  0  0  0  0  0
    8.1633    1.7109    1.8335 H   0  0  0  0  0  0  0  0  0  0  0  0
   10.5513   -0.7260    1.3689 H   0  0  0  0  0  0  0  0  0  0  0  0
   11.1015    0.8516    0.7340 H   0  0  0  0  0  0  0  0  0  0  0  0
   10.1405    0.7673    2.2317 H   0  0  0  0  0  0  0  0  0  0  0  0
  1  2  2  0  0  0  0
  1  7  1  0  0  0  0
  2  3  1  0  0  0  0
  2 10  1  0  0  0  0
  3  4  2  0  0  0  0
  3 26  1  0  0  0  0
  4  5  1  0  0  0  0
  4 27  1  0  0  0  0
  5  6  2  0  0  0  0
  5 28  1  0  0  0  0
  6  1  1  0  0  0  0
  6 29  1  0  0  0  0
  7  8  2  0  0  0  0
  7  9  1  0  0  0  0
  9 30  1  0  0  0  0
 10 11  2  0  0  0  0
 10 12  1  0  0  0  0
 12 13  1  0  0  0  0
 12 31  1  0  0  0  0
 13 14  2  0  0  0  0
 14 15  1  0  0  0  0
 14 32  1  0  0  0  0
 15 16  2  0  0  0  0
 15 33  1  0  0  0  0
 16 17  1  0  0  0  0
 16 19  1  0  0  0  0
 17 18  2  0  0  0  0
 17 34  1  0  0  0  0
 18 13  1  0  0  0  0
 18 35  1  0  0  0  0
 19 20  1  0  0  0  0
 19 21  2  0  0  0  0
 19 22  2  0  0  0  0
 20 23  1  0  0  0  0
 20 36  1  0  0  0  0
 23 24  1  0  0  0  0
 23 25  2  0  0  0  0
 24 37  1  0  0  0  0
 24 38  1  0  0  0  0
 24 39  1  0  0  0  0
M  END
>  <Mol_ID>
2306

>  <Formula>
C16H14N2O6S

>  <MolWeight>
362.35716

>  <Cat>
S4365

>  <Name>
Phthalylsulfacetamide

>  <Synonyms>
N/A

>  <Target>
Others

>  <Form>
Free Base

>  <CAS>
131-69-1

>  <URL>
http://www.selleckchem.com/products/phthalylsulfacetamide.html

$$$$
