Phthalide
 OpenBabel08302521363D

 16 17  0  0  0  0  0  0  0  0999 V2000
    2.2000    1.3964   -0.0166 O   0  0  0  0  0  0  0  0  0  0  0  0
    0.0323    0.3920   -0.0111 C   0  0  0  0  0  0  0  0  0  0  0  0
   -0.3934   -0.9202    0.0019 C   0  0  0  0  0  0  0  0  0  0  0  0
    1.4882    0.4126   -0.0141 C   0  0  0  0  0  0  0  0  0  0  0  0
   -0.8459    1.4614   -0.0163 C   0  0  0  0  0  0  0  0  0  0  0  0
   -1.7442   -1.2205    0.0165 C   0  0  0  0  0  0  0  0  0  0  0  0
    0.7829   -1.8108   -0.0039 C   0  0  0  0  0  0  0  0  0  0  0  0
    1.8976   -0.8925   -0.0095 O   0  0  0  0  0  0  0  0  0  0  0  0
   -2.2112    1.1737   -0.0034 C   0  0  0  0  0  0  0  0  0  0  0  0
   -2.6568   -0.1597    0.0150 C   0  0  0  0  0  0  0  0  0  0  0  0
   -0.4812    2.4837   -0.0293 H   0  0  0  0  0  0  0  0  0  0  0  0
   -2.0950   -2.2480    0.0297 H   0  0  0  0  0  0  0  0  0  0  0  0
    0.8318   -2.4276   -0.9053 H   0  0  0  0  0  0  0  0  0  0  0  0
    0.8409   -2.4293    0.8960 H   0  0  0  0  0  0  0  0  0  0  0  0
   -2.9360    1.9850   -0.0063 H   0  0  0  0  0  0  0  0  0  0  0  0
   -3.7252   -0.3667    0.0280 H   0  0  0  0  0  0  0  0  0  0  0  0
  1  4  2  0  0  0  0
  2  3  2  0  0  0  0
  2  4  1  0  0  0  0
  2  5  1  0  0  0  0
  3  6  1  0  0  0  0
  3  7  1  0  0  0  0
  4  8  1  0  0  0  0
  5  9  2  0  0  0  0
  5 11  1  0  0  0  0
  6 10  2  0  0  0  0
  6 12  1  0  0  0  0
  7  8  1  0  0  0  0
  7 13  1  0  0  0  0
  7 14  1  0  0  0  0
  9 10  1  0  0  0  0
  9 15  1  0  0  0  0
 10 16  1  0  0  0  0
M  END
>  <Mol_ID>
7201

>  <Formula>
C8H6O2

>  <MolWeight>
134.13204

>  <Cat>
E4201

>  <Name>
Phthalide

>  <Synonyms>
3H-isobenzofuran-1-one

>  <Target>
Immunology & Inflammation related

>  <Form>
Free base

>  <CAS>
87-41-2

>  <URL>
https://www.selleckchem.com/products/phthalide.html

$$$$
