Phytosphingosine
 OpenBabel08302521373D

 61 60  0  0  1  0  0  0  0  0999 V2000
    0.0433   -1.1245   -4.1978 C   0  0  2  0  0  0  0  0  0  0  0  0
    0.1357   -1.0091   -2.6652 C   0  0  0  0  0  0  0  0  0  0  0  0
   -0.4832    0.1460   -4.9199 C   0  0  2  0  0  0  0  0  0  0  0  0
   -0.8688   -2.1982   -4.4868 O   0  0  0  0  0  0  0  0  0  0  0  0
    0.6772   -2.2670   -1.9607 C   0  0  0  0  0  0  0  0  0  0  0  0
    0.4298    1.3965   -4.8407 C   0  0  2  0  0  0  0  0  0  0  0  0
   -1.7987    0.4524   -4.4191 O   0  0  0  0  0  0  0  0  0  0  0  0
    2.0759   -2.7062   -2.3926 C   0  0  0  0  0  0  0  0  0  0  0  0
   -0.1990    2.5875   -5.6031 C   0  0  0  0  0  0  0  0  0  0  0  0
    1.7939    1.1528   -5.3523 N   0  0  0  0  0  0  0  0  0  0  0  0
    3.1423   -1.6331   -2.1557 C   0  0  0  0  0  0  0  0  0  0  0  0
    0.6847    3.7132   -5.5786 O   0  0  0  0  0  0  0  0  0  0  0  0
    4.5374   -2.0599   -2.6170 C   0  0  0  0  0  0  0  0  0  0  0  0
    4.5907   -2.3281   -4.1207 C   0  0  0  0  0  0  0  0  0  0  0  0
    5.9919   -2.7148   -4.5788 C   0  0  0  0  0  0  0  0  0  0  0  0
    5.9929   -3.0157   -6.0773 C   0  0  0  0  0  0  0  0  0  0  0  0
    7.3827   -3.4234   -6.5542 C   0  0  0  0  0  0  0  0  0  0  0  0
    7.3867   -3.7078   -8.0542 C   0  0  0  0  0  0  0  0  0  0  0  0
    8.7794   -4.1159   -8.5320 C   0  0  0  0  0  0  0  0  0  0  0  0
    8.7878   -4.4044  -10.0344 C   0  0  0  0  0  0  0  0  0  0  0  0
   10.1814   -4.8016  -10.5140 C   0  0  0  0  0  0  0  0  0  0  0  0
   10.1902   -5.0846  -12.0055 C   0  0  0  0  0  0  0  0  0  0  0  0
    1.0112   -1.4022   -4.6241 H   0  0  0  0  0  0  0  0  0  0  0  0
    0.7395   -0.1421   -2.3820 H   0  0  0  0  0  0  0  0  0  0  0  0
   -0.8670   -0.8441   -2.2506 H   0  0  0  0  0  0  0  0  0  0  0  0
   -0.6338   -0.1118   -5.9763 H   0  0  0  0  0  0  0  0  0  0  0  0
   -1.7666   -1.8183   -4.4270 H   0  0  0  0  0  0  0  0  0  0  0  0
    0.6817   -2.0864   -0.8779 H   0  0  0  0  0  0  0  0  0  0  0  0
   -0.0139   -3.1029   -2.1264 H   0  0  0  0  0  0  0  0  0  0  0  0
    0.5335    1.7047   -3.7936 H   0  0  0  0  0  0  0  0  0  0  0  0
   -1.7224    0.6504   -3.4693 H   0  0  0  0  0  0  0  0  0  0  0  0
    2.3507   -3.6109   -1.8363 H   0  0  0  0  0  0  0  0  0  0  0  0
    2.0360   -2.9985   -3.4450 H   0  0  0  0  0  0  0  0  0  0  0  0
   -0.3774    2.3335   -6.6543 H   0  0  0  0  0  0  0  0  0  0  0  0
   -1.1510    2.8935   -5.1592 H   0  0  0  0  0  0  0  0  0  0  0  0
    2.3139    2.0322   -5.2610 H   0  0  0  0  0  0  0  0  0  0  0  0
    1.7436    1.0319   -6.3684 H   0  0  0  0  0  0  0  0  0  0  0  0
    2.8770   -0.7069   -2.6761 H   0  0  0  0  0  0  0  0  0  0  0  0
    3.1824   -1.3968   -1.0858 H   0  0  0  0  0  0  0  0  0  0  0  0
    0.7234    4.0306   -4.6601 H   0  0  0  0  0  0  0  0  0  0  0  0
    5.2454   -1.2598   -2.3673 H   0  0  0  0  0  0  0  0  0  0  0  0
    4.8552   -2.9508   -2.0634 H   0  0  0  0  0  0  0  0  0  0  0  0
    3.9110   -3.1454   -4.3833 H   0  0  0  0  0  0  0  0  0  0  0  0
    4.2530   -1.4380   -4.6655 H   0  0  0  0  0  0  0  0  0  0  0  0
    6.6941   -1.9020   -4.3589 H   0  0  0  0  0  0  0  0  0  0  0  0
    6.3291   -3.5987   -4.0244 H   0  0  0  0  0  0  0  0  0  0  0  0
    5.2797   -3.8218   -6.2914 H   0  0  0  0  0  0  0  0  0  0  0  0
    5.6535   -2.1314   -6.6301 H   0  0  0  0  0  0  0  0  0  0  0  0
    8.0981   -2.6238   -6.3279 H   0  0  0  0  0  0  0  0  0  0  0  0
    7.7099   -4.3162   -6.0082 H   0  0  0  0  0  0  0  0  0  0  0  0
    6.6711   -4.5084   -8.2799 H   0  0  0  0  0  0  0  0  0  0  0  0
    7.0570   -2.8160   -8.6008 H   0  0  0  0  0  0  0  0  0  0  0  0
    9.4933   -3.3127   -8.3074 H   0  0  0  0  0  0  0  0  0  0  0  0
    9.1115   -5.0062   -7.9828 H   0  0  0  0  0  0  0  0  0  0  0  0
    8.0771   -5.2139  -10.2524 H   0  0  0  0  0  0  0  0  0  0  0  0
    8.4455   -3.5183  -10.5780 H   0  0  0  0  0  0  0  0  0  0  0  0
   10.8957   -3.9940  -10.2973 H   0  0  0  0  0  0  0  0  0  0  0  0
   10.5253   -5.6889   -9.9736 H   0  0  0  0  0  0  0  0  0  0  0  0
    9.8730   -4.2083  -12.5762 H   0  0  0  0  0  0  0  0  0  0  0  0
   11.1994   -5.3582  -12.3332 H   0  0  0  0  0  0  0  0  0  0  0  0
    9.5191   -5.9167  -12.2499 H   0  0  0  0  0  0  0  0  0  0  0  0
  1  2  1  0  0  0  0
  1  4  1  0  0  0  0
  1 23  1  6  0  0  0
  2  5  1  0  0  0  0
  2 24  1  0  0  0  0
  2 25  1  0  0  0  0
  3  7  1  0  0  0  0
  3 26  1  6  0  0  0
  3  6  1  0  0  0  0
  3  1  1  0  0  0  0
  4 27  1  0  0  0  0
  5  8  1  0  0  0  0
  5 28  1  0  0  0  0
  5 29  1  0  0  0  0
  6 30  1  1  0  0  0
  6 10  1  0  0  0  0
  6  9  1  0  0  0  0
  7 31  1  0  0  0  0
  8 11  1  0  0  0  0
  8 32  1  0  0  0  0
  8 33  1  0  0  0  0
  9 12  1  0  0  0  0
  9 34  1  0  0  0  0
  9 35  1  0  0  0  0
 10 36  1  0  0  0  0
 10 37  1  0  0  0  0
 11 13  1  0  0  0  0
 11 38  1  0  0  0  0
 11 39  1  0  0  0  0
 12 40  1  0  0  0  0
 13 14  1  0  0  0  0
 13 41  1  0  0  0  0
 13 42  1  0  0  0  0
 14 15  1  0  0  0  0
 14 43  1  0  0  0  0
 14 44  1  0  0  0  0
 15 16  1  0  0  0  0
 15 45  1  0  0  0  0
 15 46  1  0  0  0  0
 16 17  1  0  0  0  0
 16 47  1  0  0  0  0
 16 48  1  0  0  0  0
 17 18  1  0  0  0  0
 17 49  1  0  0  0  0
 17 50  1  0  0  0  0
 18 19  1  0  0  0  0
 18 51  1  0  0  0  0
 18 52  1  0  0  0  0
 19 20  1  0  0  0  0
 19 53  1  0  0  0  0
 19 54  1  0  0  0  0
 20 21  1  0  0  0  0
 20 55  1  0  0  0  0
 20 56  1  0  0  0  0
 21 22  1  0  0  0  0
 21 57  1  0  0  0  0
 21 58  1  0  0  0  0
 22 59  1  0  0  0  0
 22 60  1  0  0  0  0
 22 61  1  0  0  0  0
M  END
>  <Mol_ID>
7470

>  <Formula>
C18H39NO3

>  <MolWeight>
317.50716

>  <Cat>
E4575

>  <Name>
Phytosphingosine

>  <Synonyms>
PHYTOSPHINGOSINE

>  <Target>
Apoptosis

>  <Form>
Free base

>  <CAS>
554-62-1

>  <URL>
https://www.selleckchem.com/products/phytosphingosine.html

$$$$
