Pidotimod.cdx
 OpenBabel08302521443D

 28 29  0  0  0  0  0  0  0  0999 V2000
    1.1390    0.0523   -0.2326 S   0  0  0  0  0  0  0  0  0  0  0  0
   -0.0697   -1.2720   -0.3924 C   0  0  0  0  0  0  0  0  0  0  0  0
   -1.3061   -0.7378    0.1235 N   0  0  0  0  0  0  0  0  0  0  0  0
   -1.4685    0.7104   -0.0979 C   0  0  1  0  0  0  0  0  0  0  0  0
   -0.1030    1.3653   -0.3113 C   0  0  0  0  0  0  0  0  0  0  0  0
   -2.3476    1.0690   -1.3003 C   0  0  0  0  0  0  0  0  0  0  0  0
   -2.6934    2.2007   -1.6093 O   0  0  0  0  0  0  0  0  0  0  0  0
   -2.6800    0.0287   -2.0928 O   0  0  0  0  0  0  0  0  0  0  0  0
   -2.3607   -1.4444    0.6663 C   0  0  0  0  0  0  0  0  0  0  0  0
   -3.3707   -0.8427    1.0536 O   0  0  0  0  0  0  0  0  0  0  0  0
   -1.4729   -3.7942    0.1048 N   0  0  0  0  0  0  0  0  0  0  0  0
   -2.2480   -2.9516    0.9758 C   0  0  1  0  0  0  0  0  0  0  0  0
   -1.6145   -3.1983    2.3403 C   0  0  0  0  0  0  0  0  0  0  0  0
   -1.1375   -4.6457    2.2658 C   0  0  0  0  0  0  0  0  0  0  0  0
   -0.9059   -4.8496    0.7876 C   0  0  0  0  0  0  0  0  0  0  0  0
   -0.3631   -5.8045    0.2653 O   0  0  0  0  0  0  0  0  0  0  0  0
    0.2784   -2.1478    0.1516 H   0  0  0  0  0  0  0  0  0  0  0  0
   -0.2083   -1.5168   -1.4508 H   0  0  0  0  0  0  0  0  0  0  0  0
   -1.9656    1.1356    0.7836 H   0  0  0  0  0  0  0  0  0  0  0  0
   -0.0124    1.8678   -1.2797 H   0  0  0  0  0  0  0  0  0  0  0  0
    0.1006    2.1058    0.4679 H   0  0  0  0  0  0  0  0  0  0  0  0
   -3.2396    0.4337   -2.7889 H   0  0  0  0  0  0  0  0  0  0  0  0
   -1.6029   -3.8725   -0.8972 H   0  0  0  0  0  0  0  0  0  0  0  0
   -3.2662   -3.3624    0.9532 H   0  0  0  0  0  0  0  0  0  0  0  0
   -2.3189   -3.0378    3.1632 H   0  0  0  0  0  0  0  0  0  0  0  0
   -0.7584   -2.5330    2.5087 H   0  0  0  0  0  0  0  0  0  0  0  0
   -1.9152   -5.3388    2.6009 H   0  0  0  0  0  0  0  0  0  0  0  0
   -0.2197   -4.8019    2.8373 H   0  0  0  0  0  0  0  0  0  0  0  0
  1  2  1  0  0  0  0
  1  5  1  0  0  0  0
  2  3  1  0  0  0  0
  2 17  1  0  0  0  0
  2 18  1  0  0  0  0
  3  4  1  0  0  0  0
  3  9  1  0  0  0  0
  4  5  1  0  0  0  0
  4  6  1  0  0  0  0
  4 19  1  1  0  0  0
  5 20  1  0  0  0  0
  5 21  1  0  0  0  0
  6  7  2  0  0  0  0
  6  8  1  0  0  0  0
  8 22  1  0  0  0  0
  9 10  2  0  0  0  0
 11 12  1  0  0  0  0
 11 15  1  0  0  0  0
 11 23  1  0  0  0  0
 12 13  1  0  0  0  0
 12  9  1  0  0  0  0
 12 24  1  1  0  0  0
 13 14  1  0  0  0  0
 13 25  1  0  0  0  0
 13 26  1  0  0  0  0
 14 15  1  0  0  0  0
 14 27  1  0  0  0  0
 14 28  1  0  0  0  0
 15 16  2  0  0  0  0
M  END
>  <Mol_ID>
915

>  <Formula>
C9H12N2O4S

>  <MolWeight>
244.26758

>  <Cat>
S3106

>  <Name>
Pidotimod

>  <Synonyms>
Pidotomod

>  <Target>
Immunology & Inflammation related

>  <Form>
free base

>  <CAS>
121808-62-6

>  <URL>
http://selleckchem.com/products/pidotimod.html

$$$$
