Pifithrin-¦Â
 OpenBabel08302521383D

 35 38  0  0  0  0  0  0  0  0999 V2000
    2.1439    0.1701    0.9220 C   0  0  0  0  0  0  0  0  0  0  0  0
   -5.7367   -0.1707    0.1819 N   0  0  0  0  0  0  0  0  0  0  0  0
   -7.0941   -0.3137    0.3994 C   0  0  0  0  0  0  0  0  0  0  0  0
   -5.4021    0.4995   -0.9587 C   0  0  0  0  0  0  0  0  0  0  0  0
   -4.5644   -0.5055    0.8001 C   0  0  0  0  0  0  0  0  0  0  0  0
   -7.8115    0.2527   -0.5932 C   0  0  0  0  0  0  0  0  0  0  0  0
   -7.7019   -0.9730    1.5912 C   0  0  0  0  0  0  0  0  0  0  0  0
   -4.1203    0.6517   -1.1269 N   0  0  0  0  0  0  0  0  0  0  0  0
   -6.8093    0.9940   -1.8476 S   0  0  0  0  0  0  0  0  0  0  0  0
   -3.5685    0.0259   -0.0166 C   0  0  0  0  0  0  0  0  0  0  0  0
   -9.3038    0.2651   -0.6569 C   0  0  0  0  0  0  0  0  0  0  0  0
   -9.1956   -0.6235    1.7221 C   0  0  0  0  0  0  0  0  0  0  0  0
   -9.9217   -0.6888    0.3739 C   0  0  0  0  0  0  0  0  0  0  0  0
   -2.1290   -0.0011    0.2216 C   0  0  0  0  0  0  0  0  0  0  0  0
   -1.5530   -0.6952    1.2927 C   0  0  0  0  0  0  0  0  0  0  0  0
   -1.2783    0.7138   -0.6361 C   0  0  0  0  0  0  0  0  0  0  0  0
   -0.1685   -0.6528    1.5137 C   0  0  0  0  0  0  0  0  0  0  0  0
    0.1028    0.7579   -0.4158 C   0  0  0  0  0  0  0  0  0  0  0  0
    0.6674    0.0832    0.6689 C   0  0  0  0  0  0  0  0  0  0  0  0
    2.7038   -0.1878    0.0518 H   0  0  0  0  0  0  0  0  0  0  0  0
    2.4283    1.2073    1.1296 H   0  0  0  0  0  0  0  0  0  0  0  0
    2.4409   -0.4365    1.7840 H   0  0  0  0  0  0  0  0  0  0  0  0
   -4.5402   -1.0475    1.7329 H   0  0  0  0  0  0  0  0  0  0  0  0
   -7.1886   -0.6702    2.5109 H   0  0  0  0  0  0  0  0  0  0  0  0
   -7.5913   -2.0599    1.4954 H   0  0  0  0  0  0  0  0  0  0  0  0
   -9.6491   -0.0203   -1.6577 H   0  0  0  0  0  0  0  0  0  0  0  0
   -9.6592    1.2854   -0.4680 H   0  0  0  0  0  0  0  0  0  0  0  0
   -9.2992    0.3893    2.1334 H   0  0  0  0  0  0  0  0  0  0  0  0
   -9.6733   -1.3045    2.4357 H   0  0  0  0  0  0  0  0  0  0  0  0
   -9.8792   -1.7173   -0.0077 H   0  0  0  0  0  0  0  0  0  0  0  0
  -10.9826   -0.4451    0.5059 H   0  0  0  0  0  0  0  0  0  0  0  0
   -2.1650   -1.2753    1.9772 H   0  0  0  0  0  0  0  0  0  0  0  0
   -1.6920    1.2577   -1.4844 H   0  0  0  0  0  0  0  0  0  0  0  0
    0.2474   -1.1936    2.3612 H   0  0  0  0  0  0  0  0  0  0  0  0
    0.7295    1.3339   -1.0939 H   0  0  0  0  0  0  0  0  0  0  0  0
  1 19  1  0  0  0  0
  1 20  1  0  0  0  0
  1 21  1  0  0  0  0
  1 22  1  0  0  0  0
  2  3  1  0  0  0  0
  2  4  1  0  0  0  0
  2  5  1  0  0  0  0
  3  6  2  0  0  0  0
  3  7  1  0  0  0  0
  4  8  2  0  0  0  0
  4  9  1  0  0  0  0
  5 10  2  0  0  0  0
  5 23  1  0  0  0  0
  6  9  1  0  0  0  0
  6 11  1  0  0  0  0
  7 12  1  0  0  0  0
  7 24  1  0  0  0  0
  7 25  1  0  0  0  0
  8 10  1  0  0  0  0
 10 14  1  0  0  0  0
 11 13  1  0  0  0  0
 11 26  1  0  0  0  0
 11 27  1  0  0  0  0
 12 13  1  0  0  0  0
 12 28  1  0  0  0  0
 12 29  1  0  0  0  0
 13 30  1  0  0  0  0
 13 31  1  0  0  0  0
 14 15  2  0  0  0  0
 14 16  1  0  0  0  0
 15 17  1  0  0  0  0
 15 32  1  0  0  0  0
 16 18  2  0  0  0  0
 16 33  1  0  0  0  0
 17 19  2  0  0  0  0
 17 34  1  0  0  0  0
 18 19  1  0  0  0  0
 18 35  1  0  0  0  0
M  END
>  <Mol_ID>
7614

>  <Formula>
C16H16N2S

>  <MolWeight>
268.37664

>  <Cat>
E2943

>  <Name>
Pifithrin-¦Â

>  <Synonyms>
PFT ¦Â hydrobromide; Cyclic Pifithrin-¦Á hydrobromide

>  <Target>
p53

>  <Form>
free base

>  <CAS>
60477-34-1

>  <URL>
https://www.selleckchem.com/products/pifithrin-beta.html

$$$$
