PIK-294.cdx
 OpenBabel08302521393D

 60 65  0  0  0  0  0  0  0  0999 V2000
    1.9428   -2.6636    1.8987 N   0  0  0  0  0  0  0  0  0  0  0  0
    2.7106   -1.5874    2.1587 C   0  0  0  0  0  0  0  0  0  0  0  0
    2.6517   -0.3865    1.5854 N   0  0  0  0  0  0  0  0  0  0  0  0
    1.6356   -0.3097    0.7089 C   0  0  0  0  0  0  0  0  0  0  0  0
    0.7495   -1.3127    0.3530 C   0  0  0  0  0  0  0  0  0  0  0  0
    0.9695   -2.5512    0.9765 C   0  0  0  0  0  0  0  0  0  0  0  0
    1.2729    0.7858   -0.0060 N   0  0  0  0  0  0  0  0  0  0  0  0
    0.2467    0.5648   -0.8536 N   0  0  0  0  0  0  0  0  0  0  0  0
   -0.1206   -0.6978   -0.6059 C   0  0  0  0  0  0  0  0  0  0  0  0
    0.2753   -3.7238    0.6885 N   0  0  0  0  0  0  0  0  0  0  0  0
    1.9270    2.0621   -0.0169 C   0  0  0  0  0  0  0  0  0  0  0  0
   -1.2732   -1.2520   -1.3211 C   0  0  0  0  0  0  0  0  0  0  0  0
   -2.0740   -2.2370   -0.7332 C   0  0  0  0  0  0  0  0  0  0  0  0
   -3.1313   -2.8060   -1.4602 C   0  0  0  0  0  0  0  0  0  0  0  0
   -3.4358   -2.3550   -2.7278 C   0  0  0  0  0  0  0  0  0  0  0  0
   -2.6901   -1.3354   -3.2991 C   0  0  0  0  0  0  0  0  0  0  0  0
   -1.6034   -0.7809   -2.6080 C   0  0  0  0  0  0  0  0  0  0  0  0
   -3.8594   -3.8404   -0.9214 O   0  0  0  0  0  0  0  0  0  0  0  0
    2.5565    2.4900    1.3236 C   0  0  0  0  0  0  0  0  0  0  0  0
    3.7927    3.0906    1.2429 N   0  0  0  0  0  0  0  0  0  0  0  0
    4.0346    4.2127    2.0547 C   0  0  0  0  0  0  0  0  0  0  0  0
    2.8217    4.6121    2.8517 C   0  0  0  0  0  0  0  0  0  0  0  0
    2.2393    3.4642    3.3495 C   0  0  0  0  0  0  0  0  0  0  0  0
    1.8116    2.5278    2.3873 N   0  0  0  0  0  0  0  0  0  0  0  0
    5.0894    4.7921    2.2141 O   0  0  0  0  0  0  0  0  0  0  0  0
    4.9058    2.2484    0.8065 C   0  0  0  0  0  0  0  0  0  0  0  0
    5.5798    1.3416    1.6582 C   0  0  0  0  0  0  0  0  0  0  0  0
    6.6277    0.5478    1.1283 C   0  0  0  0  0  0  0  0  0  0  0  0
    6.9496    0.5909   -0.2231 C   0  0  0  0  0  0  0  0  0  0  0  0
    6.2314    1.4248   -1.0671 C   0  0  0  0  0  0  0  0  0  0  0  0
    5.2221    2.2518   -0.5610 C   0  0  0  0  0  0  0  0  0  0  0  0
    2.4270    5.8454    3.3780 C   0  0  0  0  0  0  0  0  0  0  0  0
    1.8757    5.8797    4.6795 C   0  0  0  0  0  0  0  0  0  0  0  0
    1.4703    4.6966    5.2699 C   0  0  0  0  0  0  0  0  0  0  0  0
    1.7435    3.4800    4.6475 C   0  0  0  0  0  0  0  0  0  0  0  0
    1.5089    6.6835    2.4638 C   0  0  0  0  0  0  0  0  0  0  0  0
    5.2825    1.1144    3.1171 C   0  0  0  0  0  0  0  0  0  0  0  0
    3.4725   -1.7134    2.9220 H   0  0  0  0  0  0  0  0  0  0  0  0
    0.0709   -3.8295   -0.2995 H   0  0  0  0  0  0  0  0  0  0  0  0
    0.7894   -4.5021    1.0958 H   0  0  0  0  0  0  0  0  0  0  0  0
    2.6229    2.0759   -0.8580 H   0  0  0  0  0  0  0  0  0  0  0  0
    1.1526    2.8136   -0.2409 H   0  0  0  0  0  0  0  0  0  0  0  0
   -1.8989   -2.5587    0.2829 H   0  0  0  0  0  0  0  0  0  0  0  0
   -4.2684   -2.8026   -3.2735 H   0  0  0  0  0  0  0  0  0  0  0  0
   -2.9371   -0.9533   -4.2837 H   0  0  0  0  0  0  0  0  0  0  0  0
   -1.0169    0.0136   -3.0643 H   0  0  0  0  0  0  0  0  0  0  0  0
   -3.4373   -4.1265   -0.1053 H   0  0  0  0  0  0  0  0  0  0  0  0
    7.1931   -0.1215    1.7815 H   0  0  0  0  0  0  0  0  0  0  0  0
    7.7499   -0.0243   -0.6144 H   0  0  0  0  0  0  0  0  0  0  0  0
    6.4557    1.4406   -2.1353 H   0  0  0  0  0  0  0  0  0  0  0  0
    4.6875    2.8905   -1.2448 H   0  0  0  0  0  0  0  0  0  0  0  0
    1.5821    6.8310    5.1247 H   0  0  0  0  0  0  0  0  0  0  0  0
    0.8436    4.7218    6.1607 H   0  0  0  0  0  0  0  0  0  0  0  0
    1.7090    2.5589    5.2181 H   0  0  0  0  0  0  0  0  0  0  0  0
    1.9489    6.8947    1.4914 H   0  0  0  0  0  0  0  0  0  0  0  0
    0.5864    6.0956    2.3195 H   0  0  0  0  0  0  0  0  0  0  0  0
    1.2077    7.6183    2.9561 H   0  0  0  0  0  0  0  0  0  0  0  0
    5.1560    0.0417    3.3012 H   0  0  0  0  0  0  0  0  0  0  0  0
    6.1172    1.4649    3.7300 H   0  0  0  0  0  0  0  0  0  0  0  0
    4.3692    1.6037    3.4495 H   0  0  0  0  0  0  0  0  0  0  0  0
  1  2  2  0  0  0  0
  2  3  1  0  0  0  0
  2 38  1  0  0  0  0
  3  4  2  0  0  0  0
  4  5  1  0  0  0  0
  4  7  1  0  0  0  0
  5  6  2  0  0  0  0
  6  1  1  0  0  0  0
  6 10  1  0  0  0  0
  7  8  1  0  0  0  0
  7 11  1  0  0  0  0
  8  9  2  0  0  0  0
  9  5  1  0  0  0  0
  9 12  1  0  0  0  0
 10 39  1  0  0  0  0
 10 40  1  0  0  0  0
 11 19  1  0  0  0  0
 11 41  1  0  0  0  0
 11 42  1  0  0  0  0
 12 13  2  0  0  0  0
 13 14  1  0  0  0  0
 13 43  1  0  0  0  0
 14 15  2  0  0  0  0
 14 18  1  0  0  0  0
 15 16  1  0  0  0  0
 15 44  1  0  0  0  0
 16 17  2  0  0  0  0
 16 45  1  0  0  0  0
 17 12  1  0  0  0  0
 17 46  1  0  0  0  0
 18 47  1  0  0  0  0
 19 20  1  0  0  0  0
 20 21  1  0  0  0  0
 20 26  1  0  0  0  0
 21 22  1  0  0  0  0
 21 25  2  0  0  0  0
 22 23  2  0  0  0  0
 22 32  1  0  0  0  0
 23 24  1  0  0  0  0
 24 19  2  0  0  0  0
 26 27  2  0  0  0  0
 27 28  1  0  0  0  0
 27 37  1  0  0  0  0
 28 29  2  0  0  0  0
 28 48  1  0  0  0  0
 29 30  1  0  0  0  0
 29 49  1  0  0  0  0
 30 31  2  0  0  0  0
 30 50  1  0  0  0  0
 31 26  1  0  0  0  0
 31 51  1  0  0  0  0
 32 33  2  0  0  0  0
 32 36  1  0  0  0  0
 33 34  1  0  0  0  0
 33 52  1  0  0  0  0
 34 35  2  0  0  0  0
 34 53  1  0  0  0  0
 35 23  1  0  0  0  0
 35 54  1  0  0  0  0
 36 55  1  0  0  0  0
 36 56  1  0  0  0  0
 36 57  1  0  0  0  0
 37 58  1  0  0  0  0
 37 59  1  0  0  0  0
 37 60  1  0  0  0  0
M  END
>  <Mol_ID>
800

>  <Formula>
C28H23N7O2

>  <MolWeight>
489.52792

>  <Cat>
S2227

>  <Name>
PIK-294

>  <Synonyms>
N/A

>  <Target>
PI3K

>  <Form>
free base

>  <CAS>
900185-02-6

>  <URL>
http://selleckchem.com/products/PIK-294.html

$$$$
