PIK-108
 OpenBabel08302521353D

 51 54  0  0  0  0  0  0  0  0999 V2000
    0.9802   -0.1302   -0.2063 C   0  0  3  0  0  0  0  0  0  0  0  0
    2.0339    0.8547    0.0066 N   0  0  0  0  0  0  0  0  0  0  0  0
   -0.1695    0.4508   -1.0235 C   0  0  0  0  0  0  0  0  0  0  0  0
   -1.1271   -0.5733    5.5883 O   0  0  0  0  0  0  0  0  0  0  0  0
    0.6251   -4.3291    2.5322 C   0  0  0  0  0  0  0  0  0  0  0  0
   -0.0089   -0.0619    2.2037 C   0  0  0  0  0  0  0  0  0  0  0  0
   -0.3164   -0.7583    3.3773 C   0  0  0  0  0  0  0  0  0  0  0  0
    0.5507   -0.7577    1.1150 C   0  0  0  0  0  0  0  0  0  0  0  0
   -0.2475    1.2899    2.0914 O   0  0  0  0  0  0  0  0  0  0  0  0
   -0.8518   -0.0284    4.5244 C   0  0  0  0  0  0  0  0  0  0  0  0
   -0.1112   -2.1363    3.4906 C   0  0  0  0  0  0  0  0  0  0  0  0
    0.7537   -2.1542    1.2516 C   0  0  0  0  0  0  0  0  0  0  0  0
   -0.7733    2.0049    3.1772 C   0  0  0  0  0  0  0  0  0  0  0  0
   -1.0523    1.4102    4.3479 C   0  0  0  0  0  0  0  0  0  0  0  0
    0.4180   -2.8488    2.4190 C   0  0  0  0  0  0  0  0  0  0  0  0
   -0.9625    3.3727    2.9549 N   0  0  0  0  0  0  0  0  0  0  0  0
   -1.3751    3.8769    1.6233 C   0  0  0  0  0  0  0  0  0  0  0  0
   -1.3120    4.3376    4.0250 C   0  0  0  0  0  0  0  0  0  0  0  0
   -0.8140    5.2858    1.3865 C   0  0  0  0  0  0  0  0  0  0  0  0
   -0.7295    5.7188    3.6962 C   0  0  0  0  0  0  0  0  0  0  0  0
   -1.2001    6.1959    2.4280 O   0  0  0  0  0  0  0  0  0  0  0  0
    3.1519    0.9966   -0.8082 C   0  0  0  0  0  0  0  0  0  0  0  0
    3.4692    0.1399   -1.8721 C   0  0  0  0  0  0  0  0  0  0  0  0
    4.1110    1.9632   -0.4687 C   0  0  0  0  0  0  0  0  0  0  0  0
    4.6811    0.2412   -2.5678 C   0  0  0  0  0  0  0  0  0  0  0  0
    5.3259    2.0728   -1.1609 C   0  0  0  0  0  0  0  0  0  0  0  0
    5.6136    1.2054   -2.2075 C   0  0  0  0  0  0  0  0  0  0  0  0
    1.3779   -0.9544   -0.8047 H   0  0  0  0  0  0  0  0  0  0  0  0
    1.7446    1.6883    0.5087 H   0  0  0  0  0  0  0  0  0  0  0  0
   -0.8255   -0.3545   -1.3741 H   0  0  0  0  0  0  0  0  0  0  0  0
   -0.7844    1.1521   -0.4546 H   0  0  0  0  0  0  0  0  0  0  0  0
    0.2059    0.9784   -1.9078 H   0  0  0  0  0  0  0  0  0  0  0  0
    1.3105   -4.5534    3.3558 H   0  0  0  0  0  0  0  0  0  0  0  0
   -0.3323   -4.8279    2.7127 H   0  0  0  0  0  0  0  0  0  0  0  0
    1.0531   -4.7461    1.6148 H   0  0  0  0  0  0  0  0  0  0  0  0
   -0.3653   -2.6486    4.4182 H   0  0  0  0  0  0  0  0  0  0  0  0
    1.1922   -2.7141    0.4258 H   0  0  0  0  0  0  0  0  0  0  0  0
   -1.4592    1.9239    5.2060 H   0  0  0  0  0  0  0  0  0  0  0  0
   -2.4724    3.9084    1.5942 H   0  0  0  0  0  0  0  0  0  0  0  0
   -1.0394    3.2210    0.8149 H   0  0  0  0  0  0  0  0  0  0  0  0
   -2.4059    4.3995    4.1035 H   0  0  0  0  0  0  0  0  0  0  0  0
   -0.9130    4.0287    4.9957 H   0  0  0  0  0  0  0  0  0  0  0  0
    0.2803    5.2630    1.3199 H   0  0  0  0  0  0  0  0  0  0  0  0
   -1.1994    5.6839    0.4424 H   0  0  0  0  0  0  0  0  0  0  0  0
   -1.0314    6.4424    4.4602 H   0  0  0  0  0  0  0  0  0  0  0  0
    0.3669    5.6845    3.6831 H   0  0  0  0  0  0  0  0  0  0  0  0
    2.7884   -0.6380   -2.1984 H   0  0  0  0  0  0  0  0  0  0  0  0
    3.9311    2.6359    0.3660 H   0  0  0  0  0  0  0  0  0  0  0  0
    4.8958   -0.4480   -3.3806 H   0  0  0  0  0  0  0  0  0  0  0  0
    6.0532    2.8238   -0.8647 H   0  0  0  0  0  0  0  0  0  0  0  0
    6.5633    1.2694   -2.7323 H   0  0  0  0  0  0  0  0  0  0  0  0
  1  2  1  0  0  0  0
  1  3  1  0  0  0  0
  1  8  1  0  0  0  0
  1 28  1  0  0  0  0
  2 22  1  0  0  0  0
  2 29  1  0  0  0  0
  3 30  1  0  0  0  0
  3 31  1  0  0  0  0
  3 32  1  0  0  0  0
  4 10  2  0  0  0  0
  5 15  1  0  0  0  0
  5 33  1  0  0  0  0
  5 34  1  0  0  0  0
  5 35  1  0  0  0  0
  6  7  2  0  0  0  0
  6  8  1  0  0  0  0
  6  9  1  0  0  0  0
  7 10  1  0  0  0  0
  7 11  1  0  0  0  0
  8 12  2  0  0  0  0
  9 13  1  0  0  0  0
 10 14  1  0  0  0  0
 11 15  2  0  0  0  0
 11 36  1  0  0  0  0
 12 15  1  0  0  0  0
 12 37  1  0  0  0  0
 13 14  2  0  0  0  0
 13 16  1  0  0  0  0
 14 38  1  0  0  0  0
 16 17  1  0  0  0  0
 16 18  1  0  0  0  0
 17 19  1  0  0  0  0
 17 39  1  0  0  0  0
 17 40  1  0  0  0  0
 18 20  1  0  0  0  0
 18 41  1  0  0  0  0
 18 42  1  0  0  0  0
 19 21  1  0  0  0  0
 19 43  1  0  0  0  0
 19 44  1  0  0  0  0
 20 21  1  0  0  0  0
 20 45  1  0  0  0  0
 20 46  1  0  0  0  0
 22 23  2  0  0  0  0
 22 24  1  0  0  0  0
 23 25  1  0  0  0  0
 23 47  1  0  0  0  0
 24 26  2  0  0  0  0
 24 48  1  0  0  0  0
 25 27  2  0  0  0  0
 25 49  1  0  0  0  0
 26 27  1  0  0  0  0
 26 50  1  0  0  0  0
 27 51  1  0  0  0  0
M  END
>  <Mol_ID>
6871

>  <Formula>
C22H24N2O3

>  <MolWeight>
364.43756

>  <Cat>
E2823

>  <Name>
PIK-108

>  <Target>
PI3K

>  <Form>
Free base

>  <CAS>
901398-68-3

>  <URL>
http://www.selleckchem.com/products/pik-108.html

$$$$
