PIK-75 Hydrochloride.cdx
 OpenBabel08302521393D

 41 43  0  0  0  0  0  0  0  0999 V2000
   -1.8326    0.8865   -0.8124 C   0  0  0  0  0  0  0  0  0  0  0  0
   -1.7848   -0.5372   -1.1126 C   0  0  0  0  0  0  0  0  0  0  0  0
   -0.7490   -1.2640   -0.6586 C   0  0  0  0  0  0  0  0  0  0  0  0
    0.2558   -0.6451    0.0901 N   0  0  0  0  0  0  0  0  0  0  0  0
    0.2309    0.7184    0.3943 C   0  0  0  0  0  0  0  0  0  0  0  0
   -0.8650    1.4837   -0.0896 C   0  0  0  0  0  0  0  0  0  0  0  0
    1.4153   -1.1474    0.6562 C   0  0  0  0  0  0  0  0  0  0  0  0
    2.0070   -0.0575    1.2695 C   0  0  0  0  0  0  0  0  0  0  0  0
    1.2747    1.0821    1.1045 N   0  0  0  0  0  0  0  0  0  0  0  0
   -3.1666   -1.2765   -2.1164 Br  0  0  0  0  0  0  0  0  0  0  0  0
    1.9503   -2.4851    0.6244 C   0  0  0  0  0  0  0  0  0  0  0  0
    1.3384   -3.4360    0.0049 N   0  0  0  0  0  0  0  0  0  0  0  0
    1.8782   -4.8026   -0.0624 N   0  0  0  0  0  0  0  0  0  0  0  0
    3.5595   -5.2507   -0.0296 S   0  0  0  0  0  0  0  0  0  0  0  0
    0.8655   -5.7814   -0.5062 C   0  0  0  0  0  0  0  0  0  0  0  0
    4.0980   -5.4233   -1.7493 C   0  0  0  0  0  0  0  0  0  0  0  0
    4.3167   -4.1905    0.5664 O   0  0  0  0  0  0  0  0  0  0  0  0
    3.6506   -6.6017    0.5263 O   0  0  0  0  0  0  0  0  0  0  0  0
    4.7329   -4.4045   -2.4983 C   0  0  0  0  0  0  0  0  0  0  0  0
    5.1653   -4.6788   -3.8102 C   0  0  0  0  0  0  0  0  0  0  0  0
    4.9138   -5.9033   -4.4088 C   0  0  0  0  0  0  0  0  0  0  0  0
    4.2789   -6.9011   -3.6719 C   0  0  0  0  0  0  0  0  0  0  0  0
    3.9343   -6.6945   -2.3290 C   0  0  0  0  0  0  0  0  0  0  0  0
    4.9234   -2.9859   -2.0563 C   0  0  0  0  0  0  0  0  0  0  0  0
    3.9160   -8.1493   -4.3535 N   0  3  0  0  0  0  0  0  0  0  0  0
    4.1931   -8.2500   -5.5563 O   0  0  0  0  0  0  0  0  0  0  0  0
    3.3252   -9.0140   -3.6916 O   0  5  0  0  0  0  0  0  0  0  0  0
   -2.6687    1.4708   -1.1838 H   0  0  0  0  0  0  0  0  0  0  0  0
   -0.6577   -2.3239   -0.8507 H   0  0  0  0  0  0  0  0  0  0  0  0
   -0.8944    2.5434    0.1365 H   0  0  0  0  0  0  0  0  0  0  0  0
    2.9407   -0.0445    1.8198 H   0  0  0  0  0  0  0  0  0  0  0  0
    2.8973   -2.5993    1.1668 H   0  0  0  0  0  0  0  0  0  0  0  0
    0.0901   -5.8822    0.2628 H   0  0  0  0  0  0  0  0  0  0  0  0
    0.3681   -5.4240   -1.4143 H   0  0  0  0  0  0  0  0  0  0  0  0
    1.2880   -6.7650   -0.7066 H   0  0  0  0  0  0  0  0  0  0  0  0
    5.6672   -3.9080   -4.3945 H   0  0  0  0  0  0  0  0  0  0  0  0
    5.1964   -6.0443   -5.4492 H   0  0  0  0  0  0  0  0  0  0  0  0
    3.4896   -7.4992   -1.7488 H   0  0  0  0  0  0  0  0  0  0  0  0
    3.9528   -2.5609   -1.7934 H   0  0  0  0  0  0  0  0  0  0  0  0
    5.6578   -2.9433   -1.2531 H   0  0  0  0  0  0  0  0  0  0  0  0
    5.3140   -2.3546   -2.8683 H   0  0  0  0  0  0  0  0  0  0  0  0
  1  2  1  0  0  0  0
  1 28  1  0  0  0  0
  2  3  2  0  0  0  0
  2 10  1  0  0  0  0
  3  4  1  0  0  0  0
  3 29  1  0  0  0  0
  4  5  1  0  0  0  0
  4  7  1  0  0  0  0
  5  6  1  0  0  0  0
  6  1  2  0  0  0  0
  6 30  1  0  0  0  0
  7  8  2  0  0  0  0
  7 11  1  0  0  0  0
  8  9  1  0  0  0  0
  8 31  1  0  0  0  0
  9  5  2  0  0  0  0
 11 12  2  0  0  0  0
 11 32  1  0  0  0  0
 12 13  1  0  0  0  0
 13 14  1  0  0  0  0
 13 15  1  0  0  0  0
 14 16  1  0  0  0  0
 14 17  2  0  0  0  0
 14 18  2  0  0  0  0
 15 33  1  0  0  0  0
 15 34  1  0  0  0  0
 15 35  1  0  0  0  0
 16 19  2  0  0  0  0
 19 20  1  0  0  0  0
 19 24  1  0  0  0  0
 20 21  2  0  0  0  0
 20 36  1  0  0  0  0
 21 22  1  0  0  0  0
 21 37  1  0  0  0  0
 22 23  2  0  0  0  0
 22 25  1  0  0  0  0
 23 16  1  0  0  0  0
 23 38  1  0  0  0  0
 24 39  1  0  0  0  0
 24 40  1  0  0  0  0
 24 41  1  0  0  0  0
 25 26  2  0  0  0  0
 25 27  1  0  0  0  0
M  CHG  2  25   1  27  -1
M  END
>  <Mol_ID>
8212

>  <Formula>
C16H15BrClN5O4S

>  <MolWeight>
488.7434

>  <Cat>
S1205

>  <Name>
PIK-75 HCl

>  <Synonyms>
N/A

>  <Target>
DNA-PK,PI3K

>  <Form>
Hydrochloride

>  <CAS>
372196-77-5

>  <URL>
http://selleckchem.com/products/PIK-75-Hydrochloride.html

$$$$
