PIK 293.cdx
 OpenBabel08302521353D

 49 53  0  0  0  0  0  0  0  0999 V2000
    2.2851    0.6646    0.3018 C   0  0  0  0  0  0  0  0  0  0  0  0
    2.3922   -0.7136    0.4156 N   0  0  0  0  0  0  0  0  0  0  0  0
    1.2562   -1.5186    0.6289 C   0  0  0  0  0  0  0  0  0  0  0  0
   -0.0493   -0.8256    0.5676 C   0  0  0  0  0  0  0  0  0  0  0  0
   -0.0099    0.5731    0.5525 C   0  0  0  0  0  0  0  0  0  0  0  0
    1.1719    1.3049    0.4690 N   0  0  0  0  0  0  0  0  0  0  0  0
   -1.2780   -1.4995    0.3983 C   0  0  0  0  0  0  0  0  0  0  0  0
   -2.4387   -0.7382    0.1668 C   0  0  0  0  0  0  0  0  0  0  0  0
   -2.3955    0.6549    0.1771 C   0  0  0  0  0  0  0  0  0  0  0  0
   -1.1896    1.3041    0.3968 C   0  0  0  0  0  0  0  0  0  0  0  0
   -1.3993   -2.9990    0.3739 C   0  0  0  0  0  0  0  0  0  0  0  0
    1.3156   -2.7366    0.8141 O   0  0  0  0  0  0  0  0  0  0  0  0
    3.6378   -1.3798    0.2114 C   0  0  0  0  0  0  0  0  0  0  0  0
    3.8830   -2.1065   -0.9737 C   0  0  0  0  0  0  0  0  0  0  0  0
    5.1222   -2.7505   -1.1265 C   0  0  0  0  0  0  0  0  0  0  0  0
    6.0978   -2.6722   -0.1326 C   0  0  0  0  0  0  0  0  0  0  0  0
    5.8495   -1.9499    1.0309 C   0  0  0  0  0  0  0  0  0  0  0  0
    4.6241   -1.3032    1.2022 C   0  0  0  0  0  0  0  0  0  0  0  0
    2.8903   -2.2224   -2.0974 C   0  0  0  0  0  0  0  0  0  0  0  0
    3.4248    1.4744   -0.2665 C   0  0  0  0  0  0  0  0  0  0  0  0
    4.1868    2.3262    0.6223 N   0  0  0  0  0  0  0  0  0  0  0  0
    5.1398    3.0929    0.0245 N   0  0  0  0  0  0  0  0  0  0  0  0
    5.9946    3.3470    1.0153 C   0  0  0  0  0  0  0  0  0  0  0  0
    5.5705    2.8041    2.2368 C   0  0  0  0  0  0  0  0  0  0  0  0
    4.3187    2.2680    1.9839 C   0  0  0  0  0  0  0  0  0  0  0  0
    6.0835    2.6362    3.5211 C   0  0  0  0  0  0  0  0  0  0  0  0
    5.2770    2.1433    4.4789 N   0  0  0  0  0  0  0  0  0  0  0  0
    4.0256    1.7771    4.1313 C   0  0  0  0  0  0  0  0  0  0  0  0
    3.4943    1.7227    2.8946 N   0  0  0  0  0  0  0  0  0  0  0  0
    7.4216    2.8569    3.8290 N   0  0  0  0  0  0  0  0  0  0  0  0
   -3.3877   -1.2293   -0.0431 H   0  0  0  0  0  0  0  0  0  0  0  0
   -3.2940    1.2344   -0.0269 H   0  0  0  0  0  0  0  0  0  0  0  0
   -1.1434    2.3909    0.3715 H   0  0  0  0  0  0  0  0  0  0  0  0
   -0.8950   -3.4093   -0.5061 H   0  0  0  0  0  0  0  0  0  0  0  0
   -0.9851   -3.4358    1.2877 H   0  0  0  0  0  0  0  0  0  0  0  0
   -2.4483   -3.3122    0.3299 H   0  0  0  0  0  0  0  0  0  0  0  0
    5.3310   -3.3233   -2.0283 H   0  0  0  0  0  0  0  0  0  0  0  0
    7.0475   -3.1849   -0.2654 H   0  0  0  0  0  0  0  0  0  0  0  0
    6.6040   -1.9053    1.8123 H   0  0  0  0  0  0  0  0  0  0  0  0
    4.4351   -0.7737    2.1329 H   0  0  0  0  0  0  0  0  0  0  0  0
    3.3566   -1.9120   -3.0386 H   0  0  0  0  0  0  0  0  0  0  0  0
    2.5493   -3.2582   -2.1897 H   0  0  0  0  0  0  0  0  0  0  0  0
    2.0115   -1.5868   -1.9620 H   0  0  0  0  0  0  0  0  0  0  0  0
    4.1498    0.8495   -0.7948 H   0  0  0  0  0  0  0  0  0  0  0  0
    2.9898    2.1453   -1.0198 H   0  0  0  0  0  0  0  0  0  0  0  0
    6.8986    3.8997    0.7977 H   0  0  0  0  0  0  0  0  0  0  0  0
    3.3783    1.4683    4.9478 H   0  0  0  0  0  0  0  0  0  0  0  0
    7.6708    2.3182    4.6542 H   0  0  0  0  0  0  0  0  0  0  0  0
    8.0449    2.7275    3.0375 H   0  0  0  0  0  0  0  0  0  0  0  0
  1  2  1  0  0  0  0
  1 20  1  0  0  0  0
  2  3  1  0  0  0  0
  2 13  1  0  0  0  0
  3  4  1  0  0  0  0
  3 12  2  0  0  0  0
  4  5  2  0  0  0  0
  4  7  1  0  0  0  0
  5  6  1  0  0  0  0
  6  1  2  0  0  0  0
  7  8  2  0  0  0  0
  7 11  1  0  0  0  0
  8  9  1  0  0  0  0
  8 31  1  0  0  0  0
  9 10  2  0  0  0  0
  9 32  1  0  0  0  0
 10  5  1  0  0  0  0
 10 33  1  0  0  0  0
 11 34  1  0  0  0  0
 11 35  1  0  0  0  0
 11 36  1  0  0  0  0
 13 14  2  0  0  0  0
 14 15  1  0  0  0  0
 14 19  1  0  0  0  0
 15 16  2  0  0  0  0
 15 37  1  0  0  0  0
 16 17  1  0  0  0  0
 16 38  1  0  0  0  0
 17 18  2  0  0  0  0
 17 39  1  0  0  0  0
 18 13  1  0  0  0  0
 18 40  1  0  0  0  0
 19 41  1  0  0  0  0
 19 42  1  0  0  0  0
 19 43  1  0  0  0  0
 20 21  1  0  0  0  0
 20 44  1  0  0  0  0
 20 45  1  0  0  0  0
 21 22  1  0  0  0  0
 22 23  2  0  0  0  0
 23 24  1  0  0  0  0
 23 46  1  0  0  0  0
 24 25  2  0  0  0  0
 24 26  1  0  0  0  0
 25 21  1  0  0  0  0
 26 27  2  0  0  0  0
 26 30  1  0  0  0  0
 27 28  1  0  0  0  0
 28 29  2  0  0  0  0
 28 47  1  0  0  0  0
 29 25  1  0  0  0  0
 30 48  1  0  0  0  0
 30 49  1  0  0  0  0
M  END
>  <Mol_ID>
646

>  <Formula>
C22H19N7O

>  <MolWeight>
397.43256

>  <Cat>
S2207

>  <Name>
PIK-293

>  <Synonyms>
N/A

>  <Target>
PI3K

>  <Form>
free base

>  <CAS>
900185-01-5

>  <URL>
http://selleckchem.com/products/PIK-293.html

$$$$
