pim inhibitor I(SMI-4a).cdx
 OpenBabel08302520403D

 24 25  0  0  0  0  0  0  0  0999 V2000
    4.3107    1.0475    1.4500 S   0  0  0  0  0  0  0  0  0  0  0  0
    4.8457   -0.6193    1.5261 C   0  0  0  0  0  0  0  0  0  0  0  0
    3.9685   -1.4132    0.8595 N   0  0  0  0  0  0  0  0  0  0  0  0
    2.8870   -0.8259    0.2745 C   0  0  0  0  0  0  0  0  0  0  0  0
    2.9304    0.6429    0.4989 C   0  0  0  0  0  0  0  0  0  0  0  0
    5.8574   -0.9926    2.0919 O   0  0  0  0  0  0  0  0  0  0  0  0
    2.0249   -1.4212   -0.3538 O   0  0  0  0  0  0  0  0  0  0  0  0
    2.0155    1.4680   -0.0258 C   0  0  0  0  0  0  0  0  0  0  0  0
    2.0388    2.9278    0.0841 C   0  0  0  0  0  0  0  0  0  0  0  0
    1.3942    3.5698    1.1461 C   0  0  0  0  0  0  0  0  0  0  0  0
    1.4208    4.9701    1.2589 C   0  0  0  0  0  0  0  0  0  0  0  0
    2.1043    5.7188    0.2878 C   0  0  0  0  0  0  0  0  0  0  0  0
    2.7493    5.0806   -0.7722 C   0  0  0  0  0  0  0  0  0  0  0  0
    2.7151    3.6892   -0.8745 C   0  0  0  0  0  0  0  0  0  0  0  0
    0.7328    5.6640    2.4091 C   0  0  0  0  0  0  0  0  0  0  0  0
    0.1167    4.8060    3.2703 F   0  0  0  0  0  0  0  0  0  0  0  0
    1.5947    6.3963    3.1673 F   0  0  0  0  0  0  0  0  0  0  0  0
   -0.2324    6.5312    1.9958 F   0  0  0  0  0  0  0  0  0  0  0  0
    4.1228   -2.4055    0.7913 H   0  0  0  0  0  0  0  0  0  0  0  0
    1.1909    1.0657   -0.6122 H   0  0  0  0  0  0  0  0  0  0  0  0
    0.8702    2.9790    1.8969 H   0  0  0  0  0  0  0  0  0  0  0  0
    2.1401    6.8055    0.3578 H   0  0  0  0  0  0  0  0  0  0  0  0
    3.2825    5.6656   -1.5178 H   0  0  0  0  0  0  0  0  0  0  0  0
    3.2238    3.2055   -1.7058 H   0  0  0  0  0  0  0  0  0  0  0  0
  1  2  1  0  0  0  0
  1  5  1  0  0  0  0
  2  3  1  0  0  0  0
  2  6  2  0  0  0  0
  3  4  1  0  0  0  0
  3 19  1  0  0  0  0
  4  5  1  0  0  0  0
  4  7  2  0  0  0  0
  5  8  2  0  0  0  0
  8  9  1  0  0  0  0
  8 20  1  0  0  0  0
  9 10  2  0  0  0  0
  9 14  1  0  0  0  0
 10 11  1  0  0  0  0
 10 21  1  0  0  0  0
 11 12  2  0  0  0  0
 11 15  1  0  0  0  0
 12 13  1  0  0  0  0
 12 22  1  0  0  0  0
 13 14  2  0  0  0  0
 13 23  1  0  0  0  0
 14 24  1  0  0  0  0
 15 16  1  0  0  0  0
 15 17  1  0  0  0  0
 15 18  1  0  0  0  0
M  END
>  <Mol_ID>
3865

>  <Formula>
C11H6F3NO2S

>  <MolWeight>
273.2310496

>  <Cat>
S8005

>  <Name>
SMI-4a

>  <Synonyms>
TCS PIM-1 4a

>  <Target>
Pim

>  <Form>
free base

>  <CAS>
438190-29-5

>  <URL>
http://selleckchem.com/products/smi-4a.html

$$$$
