Pimelic acid
 OpenBabel08302521293D

 23 22  0  0  0  0  0  0  0  0999 V2000
   -0.8550   -3.8158   -3.1056 O   0  0  0  0  0  0  0  0  0  0  0  0
   -5.1521    1.4617    2.3499 O   0  0  0  0  0  0  0  0  0  0  0  0
   -2.0633   -1.9444   -3.1551 O   0  0  0  0  0  0  0  0  0  0  0  0
   -3.1007    2.2235    2.8962 O   0  0  0  0  0  0  0  0  0  0  0  0
   -1.2137   -1.2344    1.0500 C   0  0  0  0  0  0  0  0  0  0  0  0
   -1.5600   -1.3509   -0.4352 C   0  0  0  0  0  0  0  0  0  0  0  0
   -1.7708    0.0373    1.7006 C   0  0  0  0  0  0  0  0  0  0  0  0
   -0.9428   -2.5923   -1.0790 C   0  0  0  0  0  0  0  0  0  0  0  0
   -3.2982    0.1268    1.6779 C   0  0  0  0  0  0  0  0  0  0  0  0
   -1.3559   -2.7098   -2.5231 C   0  0  0  0  0  0  0  0  0  0  0  0
   -3.8013    1.3731    2.3706 C   0  0  0  0  0  0  0  0  0  0  0  0
   -1.1936   -3.7742   -4.0240 H   0  0  0  0  0  0  0  0  0  0  0  0
   -5.5881    0.7203    1.8897 H   0  0  0  0  0  0  0  0  0  0  0  0
   -1.5842   -2.1144    1.5892 H   0  0  0  0  0  0  0  0  0  0  0  0
   -0.1226   -1.2288    1.1656 H   0  0  0  0  0  0  0  0  0  0  0  0
   -1.2148   -0.4539   -0.9643 H   0  0  0  0  0  0  0  0  0  0  0  0
   -2.6473   -1.3953   -0.5627 H   0  0  0  0  0  0  0  0  0  0  0  0
   -1.4246    0.0721    2.7419 H   0  0  0  0  0  0  0  0  0  0  0  0
   -1.3426    0.9180    1.2060 H   0  0  0  0  0  0  0  0  0  0  0  0
   -1.2808   -3.4917   -0.5526 H   0  0  0  0  0  0  0  0  0  0  0  0
    0.1500   -2.5380   -1.0334 H   0  0  0  0  0  0  0  0  0  0  0  0
   -3.6621    0.1595    0.6466 H   0  0  0  0  0  0  0  0  0  0  0  0
   -3.7267   -0.7442    2.1860 H   0  0  0  0  0  0  0  0  0  0  0  0
  1 10  1  0  0  0  0
  1 12  1  0  0  0  0
  2 11  1  0  0  0  0
  2 13  1  0  0  0  0
  3 10  2  0  0  0  0
  4 11  2  0  0  0  0
  5  6  1  0  0  0  0
  5  7  1  0  0  0  0
  5 14  1  0  0  0  0
  5 15  1  0  0  0  0
  6  8  1  0  0  0  0
  6 16  1  0  0  0  0
  6 17  1  0  0  0  0
  7  9  1  0  0  0  0
  7 18  1  0  0  0  0
  7 19  1  0  0  0  0
  8 10  1  0  0  0  0
  8 20  1  0  0  0  0
  8 21  1  0  0  0  0
  9 11  1  0  0  0  0
  9 22  1  0  0  0  0
  9 23  1  0  0  0  0
M  END
>  <Mol_ID>
5467

>  <Formula>
C7H12O4

>  <MolWeight>
160.16778

>  <Cat>
S3145

>  <Name>
Pimelic acid

>  <Synonyms>
Heptanedioic acid, 1,5-Pentanedicarboxylic acid, 1,7-Heptanedioic acid

>  <Target>
Others

>  <Form>
Free Base

>  <CAS>
111-16-0

>  <URL>
https://www.selleckchem.com/products/pimelic-acid.html

$$$$
