Pimicotinib
 OpenBabel08302521353D

 55 58  0  0  0  0  0  0  0  0999 V2000
    0.8336    0.4058    0.1291 O   0  0  0  0  0  0  0  0  0  0  0  0
    2.3459    3.9017    6.8926 C   0  0  0  0  0  0  0  0  0  0  0  0
    2.1128   -2.2037   -0.0890 C   0  0  0  0  0  0  0  0  0  0  0  0
    6.3777   -0.1312    0.2775 N   0  0  0  0  0  0  0  0  0  0  0  0
    7.0001   -1.3626    0.3371 C   0  0  0  0  0  0  0  0  0  0  0  0
    6.4371   -2.4530    0.4632 O   0  0  0  0  0  0  0  0  0  0  0  0
    8.9746    0.9200    0.4912 O   0  0  0  0  0  0  0  0  0  0  0  0
   11.5633    0.0404   -0.7694 C   0  0  0  0  0  0  0  0  0  0  0  0
   11.3902   -0.8519    1.5639 C   0  0  0  0  0  0  0  0  0  0  0  0
   -0.2230    2.7585    2.7946 C   0  0  0  0  0  0  0  0  0  0  0  0
    0.5986    1.8717    2.0964 C   0  0  0  0  0  0  0  0  0  0  0  0
   -1.4570    3.1082    2.3597 N   0  0  0  0  0  0  0  0  0  0  0  0
    0.1428    1.3263    0.8969 C   0  0  0  0  0  0  0  0  0  0  0  0
   -1.8897    2.5419    1.2140 C   0  0  0  0  0  0  0  0  0  0  0  0
   -1.1392    1.6508    0.4617 C   0  0  0  0  0  0  0  0  0  0  0  0
    0.1847    3.3453    4.0605 C   0  0  0  0  0  0  0  0  0  0  0  0
   -0.5160    4.2161    4.9288 C   0  0  0  0  0  0  0  0  0  0  0  0
    1.3881    3.1396    4.7056 C   0  0  0  0  0  0  0  0  0  0  0  0
    0.1806    4.5239    6.0299 N   0  0  0  0  0  0  0  0  0  0  0  0
    1.3298    3.8475    5.8701 N   0  0  0  0  0  0  0  0  0  0  0  0
    2.2080    0.3351    0.1736 C   0  0  0  0  0  0  0  0  0  0  0  0
    2.8362   -0.9061    0.1036 C   0  0  0  0  0  0  0  0  0  0  0  0
    3.0355    1.4603    0.1542 C   0  0  0  0  0  0  0  0  0  0  0  0
    4.1867   -1.0413    0.1701 N   0  0  0  0  0  0  0  0  0  0  0  0
    4.4361    1.3160    0.1901 C   0  0  0  0  0  0  0  0  0  0  0  0
    4.9801    0.0372    0.2289 C   0  0  0  0  0  0  0  0  0  0  0  0
    8.3955   -1.3310    0.2276 N   0  0  0  0  0  0  0  0  0  0  0  0
    9.1124   -2.5797    0.1464 C   0  0  0  0  0  0  0  0  0  0  0  0
    9.2856   -0.2495    0.3108 C   0  0  0  0  0  0  0  0  0  0  0  0
   10.4808   -2.2036   -0.3754 C   0  0  0  0  0  0  0  0  0  0  0  0
   10.7161   -0.7951    0.1885 C   0  0  0  0  0  0  0  0  0  0  0  0
    2.6032    4.9477    7.0731 H   0  0  0  0  0  0  0  0  0  0  0  0
    1.9488    3.4360    7.7977 H   0  0  0  0  0  0  0  0  0  0  0  0
    3.2297    3.3558    6.5512 H   0  0  0  0  0  0  0  0  0  0  0  0
    2.7130   -2.8506   -0.7427 H   0  0  0  0  0  0  0  0  0  0  0  0
    1.9819   -2.7201    0.8658 H   0  0  0  0  0  0  0  0  0  0  0  0
    1.1438   -2.0738   -0.5767 H   0  0  0  0  0  0  0  0  0  0  0  0
    6.9697    0.6894    0.2904 H   0  0  0  0  0  0  0  0  0  0  0  0
   11.6087    1.0879   -0.4537 H   0  0  0  0  0  0  0  0  0  0  0  0
   12.5888   -0.3434   -0.8235 H   0  0  0  0  0  0  0  0  0  0  0  0
   11.1503    0.0243   -1.7843 H   0  0  0  0  0  0  0  0  0  0  0  0
   12.4184   -1.2252    1.4802 H   0  0  0  0  0  0  0  0  0  0  0  0
   11.4341    0.1426    2.0217 H   0  0  0  0  0  0  0  0  0  0  0  0
   10.8567   -1.5085    2.2591 H   0  0  0  0  0  0  0  0  0  0  0  0
    1.5683    1.6015    2.4886 H   0  0  0  0  0  0  0  0  0  0  0  0
   -2.8938    2.8258    0.9089 H   0  0  0  0  0  0  0  0  0  0  0  0
   -1.5545    1.2141   -0.4397 H   0  0  0  0  0  0  0  0  0  0  0  0
   -1.5069    4.6310    4.7994 H   0  0  0  0  0  0  0  0  0  0  0  0
    2.2595    2.5535    4.4557 H   0  0  0  0  0  0  0  0  0  0  0  0
    2.6063    2.4570    0.0952 H   0  0  0  0  0  0  0  0  0  0  0  0
    5.0633    2.1957    0.1699 H   0  0  0  0  0  0  0  0  0  0  0  0
    9.1611   -3.0134    1.1516 H   0  0  0  0  0  0  0  0  0  0  0  0
    8.6027   -3.2875   -0.5160 H   0  0  0  0  0  0  0  0  0  0  0  0
   11.2470   -2.9303   -0.0861 H   0  0  0  0  0  0  0  0  0  0  0  0
   10.4484   -2.1805   -1.4723 H   0  0  0  0  0  0  0  0  0  0  0  0
  1 13  1  0  0  0  0
  1 21  1  0  0  0  0
  2 20  1  0  0  0  0
  2 32  1  0  0  0  0
  2 33  1  0  0  0  0
  2 34  1  0  0  0  0
  3 22  1  0  0  0  0
  3 35  1  0  0  0  0
  3 36  1  0  0  0  0
  3 37  1  0  0  0  0
  4  5  1  0  0  0  0
  4 26  1  0  0  0  0
  4 38  1  0  0  0  0
  5  6  2  0  0  0  0
  5 27  1  0  0  0  0
  7 29  2  0  0  0  0
  8 31  1  0  0  0  0
  8 39  1  0  0  0  0
  8 40  1  0  0  0  0
  8 41  1  0  0  0  0
  9 31  1  0  0  0  0
  9 42  1  0  0  0  0
  9 43  1  0  0  0  0
  9 44  1  0  0  0  0
 10 11  2  0  0  0  0
 10 12  1  0  0  0  0
 10 16  1  0  0  0  0
 11 13  1  0  0  0  0
 11 45  1  0  0  0  0
 12 14  2  0  0  0  0
 13 15  2  0  0  0  0
 14 15  1  0  0  0  0
 14 46  1  0  0  0  0
 15 47  1  0  0  0  0
 16 17  1  0  0  0  0
 16 18  2  0  0  0  0
 17 19  2  0  0  0  0
 17 48  1  0  0  0  0
 18 20  1  0  0  0  0
 18 49  1  0  0  0  0
 19 20  1  0  0  0  0
 21 22  2  0  0  0  0
 21 23  1  0  0  0  0
 22 24  1  0  0  0  0
 23 25  2  0  0  0  0
 23 50  1  0  0  0  0
 24 26  2  0  0  0  0
 25 26  1  0  0  0  0
 25 51  1  0  0  0  0
 27 28  1  0  0  0  0
 27 29  1  0  0  0  0
 28 30  1  0  0  0  0
 28 52  1  0  0  0  0
 28 53  1  0  0  0  0
 29 31  1  0  0  0  0
 30 31  1  0  0  0  0
 30 54  1  0  0  0  0
 30 55  1  0  0  0  0
M  END
>  <Mol_ID>
6973

>  <Formula>
C22H24N6O3

>  <MolWeight>
420.46436

>  <Cat>
E1727

>  <Name>
Pimicotinib

>  <Synonyms>
ABSK021

>  <Target>
CSF-1R

>  <Form>
free base

>  <CAS>
2253123-16-7

>  <URL>
https://www.selleckchem.com/products/pimicotinib.html

$$$$
