Pimitespib (TAS-116)
 OpenBabel08302521233D

 60 64  0  0  0  0  0  0  0  0999 V2000
    1.5736    0.6458   -0.7054 O   0  0  0  0  0  0  0  0  0  0  0  0
    5.2355    2.7164    4.2236 N   0  0  0  0  0  0  0  0  0  0  0  0
    5.1731    4.0502    4.4138 N   0  0  0  0  0  0  0  0  0  0  0  0
    7.8375    3.5969    8.1085 N   0  0  0  0  0  0  0  0  0  0  0  0
    6.3335    0.8033    5.2840 N   0  0  0  0  0  0  0  0  0  0  0  0
    8.4167    4.4030   10.1137 N   0  0  0  0  0  0  0  0  0  0  0  0
    9.2755    8.8901    9.5818 N   0  0  0  0  0  0  0  0  0  0  0  0
    9.4430    8.5025   10.8606 N   0  0  0  0  0  0  0  0  0  0  0  0
    2.2127   -1.3445    0.1651 N   0  0  0  0  0  0  0  0  0  0  0  0
    6.5025    3.1391    6.0393 C   0  0  0  0  0  0  0  0  0  0  0  0
    5.8715    4.3137    5.5202 C   0  0  0  0  0  0  0  0  0  0  0  0
    5.8337    5.7495    5.9930 C   0  0  0  0  0  0  0  0  0  0  0  0
    6.0674    2.1253    5.1725 C   0  0  0  0  0  0  0  0  0  0  0  0
    7.3043    2.7182    7.1375 C   0  0  0  0  0  0  0  0  0  0  0  0
    4.4868    2.0912    3.1672 C   0  0  0  0  0  0  0  0  0  0  0  0
    6.5575    6.6780    5.0064 C   0  0  0  0  0  0  0  0  0  0  0  0
    4.4104    6.2403    6.2777 C   0  0  0  0  0  0  0  0  0  0  0  0
    3.3364    2.6897    2.5909 C   0  0  0  0  0  0  0  0  0  0  0  0
    7.5631    1.3456    7.2855 C   0  0  0  0  0  0  0  0  0  0  0  0
    4.9027    0.8315    2.6942 C   0  0  0  0  0  0  0  0  0  0  0  0
    2.7255    4.0155    3.0027 C   0  0  0  0  0  0  0  0  0  0  0  0
    7.0791    0.4639    6.3424 C   0  0  0  0  0  0  0  0  0  0  0  0
    2.6379    1.9879    1.5791 C   0  0  0  0  0  0  0  0  0  0  0  0
    8.2776    4.8796    7.9163 C   0  0  0  0  0  0  0  0  0  0  0  0
    8.0627    3.3277    9.4424 C   0  0  0  0  0  0  0  0  0  0  0  0
    3.0418    0.7209    1.1538 C   0  0  0  0  0  0  0  0  0  0  0  0
    4.1878    0.1500    1.7014 C   0  0  0  0  0  0  0  0  0  0  0  0
    8.5109    5.3883    9.1702 C   0  0  0  0  0  0  0  0  0  0  0  0
    3.2603    5.1803    2.1783 C   0  0  0  0  0  0  0  0  0  0  0  0
    8.8421    6.7506    9.5352 C   0  0  0  0  0  0  0  0  0  0  0  0
    2.2321    0.0286    0.1185 C   0  0  0  0  0  0  0  0  0  0  0  0
    8.8846    7.8801    8.7500 C   0  0  0  0  0  0  0  0  0  0  0  0
    9.1727    7.1925   10.8279 C   0  0  0  0  0  0  0  0  0  0  0  0
    9.5450   10.2600    9.2185 C   0  0  0  0  0  0  0  0  0  0  0  0
    2.4995   -1.8478    0.9915 H   0  0  0  0  0  0  0  0  0  0  0  0
    1.5526   -1.7932   -0.4534 H   0  0  0  0  0  0  0  0  0  0  0  0
    6.3238    5.8456    6.9567 H   0  0  0  0  0  0  0  0  0  0  0  0
    6.2767    6.4795    3.9659 H   0  0  0  0  0  0  0  0  0  0  0  0
    6.3481    7.7318    5.2154 H   0  0  0  0  0  0  0  0  0  0  0  0
    7.6421    6.5381    5.0760 H   0  0  0  0  0  0  0  0  0  0  0  0
    3.9840    5.6849    7.1216 H   0  0  0  0  0  0  0  0  0  0  0  0
    4.4144    7.3001    6.5570 H   0  0  0  0  0  0  0  0  0  0  0  0
    3.7411    6.1201    5.4225 H   0  0  0  0  0  0  0  0  0  0  0  0
    8.1749    0.9499    8.0899 H   0  0  0  0  0  0  0  0  0  0  0  0
    5.8121    0.3588    3.0549 H   0  0  0  0  0  0  0  0  0  0  0  0
    1.6358    3.9701    2.8701 H   0  0  0  0  0  0  0  0  0  0  0  0
    2.8392    4.1929    4.0766 H   0  0  0  0  0  0  0  0  0  0  0  0
    7.2975   -0.5993    6.4197 H   0  0  0  0  0  0  0  0  0  0  0  0
    1.7457    2.4312    1.1334 H   0  0  0  0  0  0  0  0  0  0  0  0
    8.3694    5.3214    6.9380 H   0  0  0  0  0  0  0  0  0  0  0  0
    7.8944    2.3561    9.8872 H   0  0  0  0  0  0  0  0  0  0  0  0
    4.5572   -0.8098    1.3500 H   0  0  0  0  0  0  0  0  0  0  0  0
    2.9728    5.0757    1.1266 H   0  0  0  0  0  0  0  0  0  0  0  0
    2.8480    6.1242    2.5469 H   0  0  0  0  0  0  0  0  0  0  0  0
    4.3520    5.2476    2.2139 H   0  0  0  0  0  0  0  0  0  0  0  0
    8.6880    8.0458    7.7006 H   0  0  0  0  0  0  0  0  0  0  0  0
    9.2317    6.6134   11.7406 H   0  0  0  0  0  0  0  0  0  0  0  0
    8.9598   10.9152    9.8682 H   0  0  0  0  0  0  0  0  0  0  0  0
   10.6146   10.4415    9.3518 H   0  0  0  0  0  0  0  0  0  0  0  0
    9.2657   10.4224    8.1746 H   0  0  0  0  0  0  0  0  0  0  0  0
  1 31  2  0  0  0  0
  2  3  1  0  0  0  0
  2 13  1  0  0  0  0
  2 15  1  0  0  0  0
  3 11  2  0  0  0  0
  4 14  1  0  0  0  0
  4 24  1  0  0  0  0
  4 25  1  0  0  0  0
  5 13  1  0  0  0  0
  5 22  2  0  0  0  0
  6 25  2  0  0  0  0
  6 28  1  0  0  0  0
  7  8  1  0  0  0  0
  7 32  1  0  0  0  0
  7 34  1  0  0  0  0
  8 33  2  0  0  0  0
  9 31  1  0  0  0  0
  9 35  1  0  0  0  0
  9 36  1  0  0  0  0
 10 11  1  0  0  0  0
 10 13  2  0  0  0  0
 10 14  1  0  0  0  0
 11 12  1  0  0  0  0
 12 16  1  0  0  0  0
 12 17  1  0  0  0  0
 12 37  1  0  0  0  0
 14 19  2  0  0  0  0
 15 18  2  0  0  0  0
 15 20  1  0  0  0  0
 16 38  1  0  0  0  0
 16 39  1  0  0  0  0
 16 40  1  0  0  0  0
 17 41  1  0  0  0  0
 17 42  1  0  0  0  0
 17 43  1  0  0  0  0
 18 21  1  0  0  0  0
 18 23  1  0  0  0  0
 19 22  1  0  0  0  0
 19 44  1  0  0  0  0
 20 27  2  0  0  0  0
 20 45  1  0  0  0  0
 21 29  1  0  0  0  0
 21 46  1  0  0  0  0
 21 47  1  0  0  0  0
 22 48  1  0  0  0  0
 23 26  2  0  0  0  0
 23 49  1  0  0  0  0
 24 28  2  0  0  0  0
 24 50  1  0  0  0  0
 25 51  1  0  0  0  0
 26 27  1  0  0  0  0
 26 31  1  0  0  0  0
 27 52  1  0  0  0  0
 28 30  1  0  0  0  0
 29 53  1  0  0  0  0
 29 54  1  0  0  0  0
 29 55  1  0  0  0  0
 30 32  2  0  0  0  0
 30 33  1  0  0  0  0
 32 56  1  0  0  0  0
 33 57  1  0  0  0  0
 34 58  1  0  0  0  0
 34 59  1  0  0  0  0
 34 60  1  0  0  0  0
M  END
>  <Mol_ID>
4799

>  <Formula>
C25H26N8O

>  <MolWeight>
454.52694

>  <Cat>
S7716

>  <Name>
Pimitespib (TAS-116)

>  <Synonyms>
N/A

>  <Target>
HSP (HSP90)

>  <Form>
Free Base

>  <CAS>
1260533-36-5

>  <URL>
http://www.selleck.cn/products/tas-116.html

$$$$
