Pimobendan.cdx
 OpenBabel08302520143D

 43 46  0  0  0  0  0  0  0  0999 V2000
    0.9203    1.4064   -0.1742 C   0  0  0  0  0  0  0  0  0  0  0  0
   -0.2506    0.6413   -0.1189 C   0  0  0  0  0  0  0  0  0  0  0  0
   -0.1633   -0.7403   -0.0627 C   0  0  0  0  0  0  0  0  0  0  0  0
    1.0460   -1.4356   -0.0727 C   0  0  0  0  0  0  0  0  0  0  0  0
    2.2085   -0.6595   -0.1239 C   0  0  0  0  0  0  0  0  0  0  0  0
    2.1564    0.7449   -0.1582 C   0  0  0  0  0  0  0  0  0  0  0  0
   -1.5573    1.0546   -0.1113 N   0  0  0  0  0  0  0  0  0  0  0  0
   -2.2866   -0.0440   -0.0398 C   0  0  0  0  0  0  0  0  0  0  0  0
   -1.4689   -1.1508   -0.0122 N   0  0  0  0  0  0  0  0  0  0  0  0
    3.4406    1.5189   -0.1367 C   0  0  0  0  0  0  0  0  0  0  0  0
   -3.7478   -0.1113   -0.0470 C   0  0  0  0  0  0  0  0  0  0  0  0
    3.4491    2.8833    0.5424 C   0  0  3  0  0  0  0  0  0  0  0  0
    4.7373    3.6690    0.3423 C   0  0  0  0  0  0  0  0  0  0  0  0
    5.8980    2.9006   -0.2121 C   0  0  0  0  0  0  0  0  0  0  0  0
    5.6692    1.6292   -0.6411 N   0  0  0  0  0  0  0  0  0  0  0  0
    4.4934    0.9637   -0.6512 N   0  0  0  0  0  0  0  0  0  0  0  0
   -4.4833    0.9405   -0.6097 C   0  0  0  0  0  0  0  0  0  0  0  0
   -5.8807    0.8903   -0.6718 C   0  0  0  0  0  0  0  0  0  0  0  0
   -6.5639   -0.2098   -0.1563 C   0  0  0  0  0  0  0  0  0  0  0  0
   -5.8383   -1.2511    0.4254 C   0  0  0  0  0  0  0  0  0  0  0  0
   -4.4429   -1.2040    0.4840 C   0  0  0  0  0  0  0  0  0  0  0  0
   -7.9188   -0.3887   -0.1516 O   0  0  0  0  0  0  0  0  0  0  0  0
   -8.7027    0.6460   -0.7313 C   0  0  0  0  0  0  0  0  0  0  0  0
    7.0150    3.4091   -0.3066 O   0  0  0  0  0  0  0  0  0  0  0  0
    3.1530    2.7112    2.0374 C   0  0  0  0  0  0  0  0  0  0  0  0
    0.8228    2.4828   -0.2205 H   0  0  0  0  0  0  0  0  0  0  0  0
    1.0890   -2.5198   -0.0327 H   0  0  0  0  0  0  0  0  0  0  0  0
    3.1730   -1.1661   -0.1186 H   0  0  0  0  0  0  0  0  0  0  0  0
   -1.7836   -2.1083    0.0066 H   0  0  0  0  0  0  0  0  0  0  0  0
    2.6470    3.4914    0.1106 H   0  0  0  0  0  0  0  0  0  0  0  0
    5.0672    4.1244    1.2841 H   0  0  0  0  0  0  0  0  0  0  0  0
    4.5468    4.4940   -0.3555 H   0  0  0  0  0  0  0  0  0  0  0  0
    6.4626    1.1431   -1.0489 H   0  0  0  0  0  0  0  0  0  0  0  0
   -3.9633    1.8078   -1.0153 H   0  0  0  0  0  0  0  0  0  0  0  0
   -6.3984    1.7261   -1.1303 H   0  0  0  0  0  0  0  0  0  0  0  0
   -6.3666   -2.1065    0.8399 H   0  0  0  0  0  0  0  0  0  0  0  0
   -3.9210   -2.0254    0.9654 H   0  0  0  0  0  0  0  0  0  0  0  0
   -8.5401    1.6014   -0.2217 H   0  0  0  0  0  0  0  0  0  0  0  0
   -8.5060    0.7309   -1.8051 H   0  0  0  0  0  0  0  0  0  0  0  0
   -9.7556    0.3776   -0.6032 H   0  0  0  0  0  0  0  0  0  0  0  0
    3.1112    3.6833    2.5396 H   0  0  0  0  0  0  0  0  0  0  0  0
    2.1883    2.2221    2.2090 H   0  0  0  0  0  0  0  0  0  0  0  0
    3.9193    2.0992    2.5241 H   0  0  0  0  0  0  0  0  0  0  0  0
  1  2  2  0  0  0  0
  1 26  1  0  0  0  0
  2  3  1  0  0  0  0
  2  7  1  0  0  0  0
  3  4  2  0  0  0  0
  4  5  1  0  0  0  0
  4 27  1  0  0  0  0
  5  6  2  0  0  0  0
  5 28  1  0  0  0  0
  6  1  1  0  0  0  0
  6 10  1  0  0  0  0
  7  8  2  0  0  0  0
  8  9  1  0  0  0  0
  8 11  1  0  0  0  0
  9  3  1  0  0  0  0
  9 29  1  0  0  0  0
 10 12  1  0  0  0  0
 11 17  2  0  0  0  0
 12 13  1  0  0  0  0
 12 25  1  0  0  0  0
 12 30  1  0  0  0  0
 13 14  1  0  0  0  0
 13 31  1  0  0  0  0
 13 32  1  0  0  0  0
 14 15  1  0  0  0  0
 14 24  2  0  0  0  0
 15 16  1  0  0  0  0
 15 33  1  0  0  0  0
 16 10  2  0  0  0  0
 17 18  1  0  0  0  0
 17 34  1  0  0  0  0
 18 19  2  0  0  0  0
 18 35  1  0  0  0  0
 19 20  1  0  0  0  0
 19 22  1  0  0  0  0
 20 21  2  0  0  0  0
 20 36  1  0  0  0  0
 21 11  1  0  0  0  0
 21 37  1  0  0  0  0
 22 23  1  0  0  0  0
 23 38  1  0  0  0  0
 23 39  1  0  0  0  0
 23 40  1  0  0  0  0
 25 41  1  0  0  0  0
 25 42  1  0  0  0  0
 25 43  1  0  0  0  0
M  END
>  <Mol_ID>
316

>  <Formula>
C19H18N4O2

>  <MolWeight>
334.37182

>  <Cat>
S1550

>  <Name>
Pimobendan

>  <Synonyms>
UD-CG 115 BS

>  <Target>
PDE

>  <Form>
free base

>  <CAS>
74150-27-9

>  <URL>
http://selleckchem.com/products/Pimobendan(Vetmedin).html

$$$$
