PIN1 inhibitor API-1
 OpenBabel08302521253D

 39 41  0  0  0  0  0  0  0  0999 V2000
    3.7875    1.5920   -1.8022 C   0  0  0  0  0  0  0  0  0  0  0  0
    2.3875    2.2048   -2.0687 C   0  0  0  0  0  0  0  0  0  0  0  0
    4.6611    1.5469   -2.6781 O   0  0  0  0  0  0  0  0  0  0  0  0
    4.1185    1.0708   -0.5740 N   0  0  0  0  0  0  0  0  0  0  0  0
    1.5451    2.1692   -0.9973 F   0  0  0  0  0  0  0  0  0  0  0  0
    2.4656    3.5150   -2.4366 F   0  0  0  0  0  0  0  0  0  0  0  0
    1.7326    1.5612   -3.0761 F   0  0  0  0  0  0  0  0  0  0  0  0
    3.2901    1.0146    0.6084 C   0  0  0  0  0  0  0  0  0  0  0  0
    4.0371    0.4411    1.7816 C   0  0  0  0  0  0  0  0  0  0  0  0
    4.7350    1.2840    2.6574 C   0  0  0  0  0  0  0  0  0  0  0  0
    5.3916    0.7618    3.7735 C   0  0  0  0  0  0  0  0  0  0  0  0
    5.3766   -0.6151    4.0236 C   0  0  0  0  0  0  0  0  0  0  0  0
    4.7088   -1.4626    3.1305 C   0  0  0  0  0  0  0  0  0  0  0  0
    4.0529   -0.9405    2.0138 C   0  0  0  0  0  0  0  0  0  0  0  0
    6.0817   -1.1839    5.2271 C   0  0  0  0  0  0  0  0  0  0  0  0
    5.1842   -1.2630    6.3381 O   0  0  0  0  0  0  0  0  0  0  0  0
    8.0682   -2.3738    6.8647 N   0  0  0  0  0  0  0  0  0  0  0  0
    8.9264   -2.9833    7.6355 C   0  0  0  0  0  0  0  0  0  0  0  0
    8.5179   -3.3193    8.9221 N   0  0  0  0  0  0  0  0  0  0  0  0
    7.2914   -2.8905    8.9474 C   0  0  0  0  0  0  0  0  0  0  0  0
    6.4049   -3.0013    9.9744 N   0  0  0  0  0  0  0  0  0  0  0  0
    5.2166   -2.5346    9.7253 C   0  0  0  0  0  0  0  0  0  0  0  0
    4.8411   -1.9310    8.5589 N   0  0  0  0  0  0  0  0  0  0  0  0
    5.7047   -1.8205    7.4884 C   0  0  0  0  0  0  0  0  0  0  0  0
    6.9576   -2.2795    7.6583 C   0  0  0  0  0  0  0  0  0  0  0  0
    4.2309   -2.6365   10.6482 N   0  0  0  0  0  0  0  0  0  0  0  0
    5.0578    0.6922   -0.5225 H   0  0  0  0  0  0  0  0  0  0  0  0
    2.9453    2.0274    0.8437 H   0  0  0  0  0  0  0  0  0  0  0  0
    2.4044    0.4082    0.3878 H   0  0  0  0  0  0  0  0  0  0  0  0
    4.7630    2.3578    2.4839 H   0  0  0  0  0  0  0  0  0  0  0  0
    5.9185    1.4354    4.4465 H   0  0  0  0  0  0  0  0  0  0  0  0
    4.7004   -2.5375    3.3012 H   0  0  0  0  0  0  0  0  0  0  0  0
    3.5447   -1.6218    1.3347 H   0  0  0  0  0  0  0  0  0  0  0  0
    6.4486   -2.1838    4.9621 H   0  0  0  0  0  0  0  0  0  0  0  0
    6.9326   -0.5353    5.4758 H   0  0  0  0  0  0  0  0  0  0  0  0
    9.9410   -3.2325    7.2889 H   0  0  0  0  0  0  0  0  0  0  0  0
    3.8667   -1.7643    8.3524 H   0  0  0  0  0  0  0  0  0  0  0  0
    4.5996   -2.9042   11.5556 H   0  0  0  0  0  0  0  0  0  0  0  0
    3.5981   -1.8523   10.7143 H   0  0  0  0  0  0  0  0  0  0  0  0
  1  2  1  0  0  0  0
  1  3  2  0  0  0  0
  1  4  1  0  0  0  0
  2  5  1  0  0  0  0
  2  6  1  0  0  0  0
  2  7  1  0  0  0  0
  4  8  1  0  0  0  0
  4 27  1  0  0  0  0
  8  9  1  0  0  0  0
  8 28  1  0  0  0  0
  8 29  1  0  0  0  0
  9 10  2  0  0  0  0
  9 14  1  0  0  0  0
 10 11  1  0  0  0  0
 10 30  1  0  0  0  0
 11 12  2  0  0  0  0
 11 31  1  0  0  0  0
 12 13  1  0  0  0  0
 12 15  1  0  0  0  0
 13 14  2  0  0  0  0
 13 32  1  0  0  0  0
 14 33  1  0  0  0  0
 15 16  1  0  0  0  0
 15 34  1  0  0  0  0
 15 35  1  0  0  0  0
 16 24  1  0  0  0  0
 17 18  2  0  0  0  0
 17 25  1  0  0  0  0
 18 19  1  0  0  0  0
 18 36  1  0  0  0  0
 19 20  2  0  0  0  0
 20 21  1  0  0  0  0
 20 25  1  0  0  0  0
 21 22  2  0  0  0  0
 22 23  1  0  0  0  0
 22 26  1  0  0  0  0
 23 24  1  0  0  0  0
 23 37  1  0  0  0  0
 24 25  2  0  0  0  0
 26 38  1  0  0  0  0
 26 39  1  0  0  0  0
M  END
>  <Mol_ID>
5205

>  <Formula>
C15H13F3N6O2

>  <MolWeight>
366.2979296

>  <Cat>
S6893

>  <Name>
PIN1 inhibitor API-1

>  <Synonyms>
N/A

>  <Target>
DNA/RNA Synthesis

>  <Form>
free base

>  <CAS>
680622-70-2

>  <URL>
http://www.selleckchem.com/products/pin1-inhibitor-api-1.html

$$$$
