Pindolol
 OpenBabel08302520323D

 38 39  0  0  0  0  0  0  0  0999 V2000
    0.1709   -3.4194    2.2355 C   0  0  0  0  0  0  0  0  0  0  0  0
   -0.7034   -3.2623    3.3222 C   0  0  0  0  0  0  0  0  0  0  0  0
   -1.8317   -2.4503    3.2410 C   0  0  0  0  0  0  0  0  0  0  0  0
   -2.1852   -2.0442    1.9558 C   0  0  0  0  0  0  0  0  0  0  0  0
   -1.3676   -2.2430    0.8417 C   0  0  0  0  0  0  0  0  0  0  0  0
   -0.0752   -2.7997    0.9977 C   0  0  0  0  0  0  0  0  0  0  0  0
   -3.3386   -1.4247    1.5278 N   0  0  0  0  0  0  0  0  0  0  0  0
   -3.3797   -1.4326    0.1562 C   0  0  0  0  0  0  0  0  0  0  0  0
   -2.1434   -1.8494   -0.2931 C   0  0  0  0  0  0  0  0  0  0  0  0
    0.8127   -2.7190   -0.0616 O   0  0  0  0  0  0  0  0  0  0  0  0
    2.1116   -3.3261    0.0614 C   0  0  0  0  0  0  0  0  0  0  0  0
    3.0159   -3.1667   -1.1837 C   0  0  3  0  0  0  0  0  0  0  0  0
    3.3293   -1.7037   -1.6010 C   0  0  0  0  0  0  0  0  0  0  0  0
    4.2672   -3.8425   -0.9236 O   0  0  0  0  0  0  0  0  0  0  0  0
    4.2350   -1.6569   -2.7702 N   0  0  0  0  0  0  0  0  0  0  0  0
    4.5878   -0.3181   -3.2641 C   0  0  0  0  0  0  0  0  0  0  0  0
    5.3589    0.5660   -2.2802 C   0  0  0  0  0  0  0  0  0  0  0  0
    5.4781   -0.4901   -4.5086 C   0  0  0  0  0  0  0  0  0  0  0  0
    1.0519   -4.0317    2.3943 H   0  0  0  0  0  0  0  0  0  0  0  0
   -0.4904   -3.7628    4.2650 H   0  0  0  0  0  0  0  0  0  0  0  0
   -2.4449   -2.2335    4.1053 H   0  0  0  0  0  0  0  0  0  0  0  0
   -4.0965   -1.1435    2.1316 H   0  0  0  0  0  0  0  0  0  0  0  0
   -4.2763   -1.1474   -0.3697 H   0  0  0  0  0  0  0  0  0  0  0  0
   -1.8562   -1.9664   -1.3268 H   0  0  0  0  0  0  0  0  0  0  0  0
    2.6317   -3.0326    0.9794 H   0  0  0  0  0  0  0  0  0  0  0  0
    1.9275   -4.4175    0.1653 H   0  0  0  0  0  0  0  0  0  0  0  0
    2.5439   -3.6712   -2.0355 H   0  0  0  0  0  0  0  0  0  0  0  0
    2.3996   -1.2001   -1.8498 H   0  0  0  0  0  0  0  0  0  0  0  0
    3.7948   -1.2058   -0.7475 H   0  0  0  0  0  0  0  0  0  0  0  0
    4.9081   -3.1652   -0.6628 H   0  0  0  0  0  0  0  0  0  0  0  0
    5.0609   -2.2327   -2.6354 H   0  0  0  0  0  0  0  0  0  0  0  0
    3.6715    0.2065   -3.5574 H   0  0  0  0  0  0  0  0  0  0  0  0
    6.3985    0.2286   -2.1980 H   0  0  0  0  0  0  0  0  0  0  0  0
    5.3963    1.5990   -2.6514 H   0  0  0  0  0  0  0  0  0  0  0  0
    4.9211    0.6031   -1.2804 H   0  0  0  0  0  0  0  0  0  0  0  0
    4.9110   -0.8816   -5.3586 H   0  0  0  0  0  0  0  0  0  0  0  0
    5.9214    0.4668   -4.8100 H   0  0  0  0  0  0  0  0  0  0  0  0
    6.3115   -1.1762   -4.3140 H   0  0  0  0  0  0  0  0  0  0  0  0
  1  2  2  0  0  0  0
  1 19  1  0  0  0  0
  2  3  1  0  0  0  0
  2 20  1  0  0  0  0
  3  4  2  0  0  0  0
  3 21  1  0  0  0  0
  4  5  1  0  0  0  0
  4  7  1  0  0  0  0
  5  6  2  0  0  0  0
  6  1  1  0  0  0  0
  6 10  1  0  0  0  0
  7  8  1  0  0  0  0
  7 22  1  0  0  0  0
  8  9  2  0  0  0  0
  8 23  1  0  0  0  0
  9  5  1  0  0  0  0
  9 24  1  0  0  0  0
 10 11  1  0  0  0  0
 11 12  1  0  0  0  0
 11 25  1  0  0  0  0
 11 26  1  0  0  0  0
 12 13  1  0  0  0  0
 12 14  1  0  0  0  0
 12 27  1  0  0  0  0
 13 15  1  0  0  0  0
 13 28  1  0  0  0  0
 13 29  1  0  0  0  0
 14 30  1  0  0  0  0
 15 16  1  0  0  0  0
 15 31  1  0  0  0  0
 16 17  1  0  0  0  0
 16 18  1  0  0  0  0
 16 32  1  0  0  0  0
 17 33  1  0  0  0  0
 17 34  1  0  0  0  0
 17 35  1  0  0  0  0
 18 36  1  0  0  0  0
 18 37  1  0  0  0  0
 18 38  1  0  0  0  0
M  END
>  <Mol_ID>
3329

>  <Formula>
C14H20N2O2

>  <MolWeight>
248.3208

>  <Cat>
S4406

>  <Name>
Pindolol

>  <Synonyms>
N/A

>  <Target>
5-HT Receptor

>  <Form>
Free Base

>  <CAS>
13523-86-9

>  <URL>
http://www.selleckchem.com/products/pindolol.html

$$$$
