(?)-¦Â-Pinene
 OpenBabel08302520393D

 26 27  0  0  0  0  0  0  0  0999 V2000
    1.3391    0.1687   -1.2760 C   0  0  0  0  0  0  0  0  0  0  0  0
    0.7694    1.2481   -0.2464 C   0  0  1  0  0  0  0  0  0  0  0  0
   -0.7558    1.4713   -0.2353 C   0  0  0  0  0  0  0  0  0  0  0  0
   -1.5107    0.1684    0.0953 C   0  0  0  0  0  0  0  0  0  0  0  0
   -0.6974   -1.0473   -0.2837 C   0  0  0  0  0  0  0  0  0  0  0  0
    0.8010   -0.8628   -0.1867 C   0  0  2  0  0  0  0  0  0  0  0  0
    2.8664    0.2358   -1.4597 C   0  0  0  0  0  0  0  0  0  0  0  0
    0.6972    0.0213   -2.6652 C   0  0  0  0  0  0  0  0  0  0  0  0
    1.1748    0.2295    0.8716 C   0  0  0  0  0  0  0  0  0  0  0  0
   -1.2065   -2.1656   -0.8170 C   0  0  0  0  0  0  0  0  0  0  0  0
    1.3167    2.1978   -0.2313 H   0  0  0  0  0  0  0  0  0  0  0  0
   -1.0841    1.8665   -1.2026 H   0  0  0  0  0  0  0  0  0  0  0  0
   -1.0162    2.2314    0.5111 H   0  0  0  0  0  0  0  0  0  0  0  0
   -2.4944    0.1718   -0.3847 H   0  0  0  0  0  0  0  0  0  0  0  0
   -1.6928    0.1263    1.1785 H   0  0  0  0  0  0  0  0  0  0  0  0
    1.3573   -1.8028   -0.0952 H   0  0  0  0  0  0  0  0  0  0  0  0
    3.4061    0.4665   -0.5359 H   0  0  0  0  0  0  0  0  0  0  0  0
    3.2527   -0.7126   -1.8439 H   0  0  0  0  0  0  0  0  0  0  0  0
    3.1317    1.0264   -2.1714 H   0  0  0  0  0  0  0  0  0  0  0  0
    1.3083    0.4849   -3.4467 H   0  0  0  0  0  0  0  0  0  0  0  0
   -0.2927    0.4773   -2.7274 H   0  0  0  0  0  0  0  0  0  0  0  0
    0.5966   -1.0379   -2.9318 H   0  0  0  0  0  0  0  0  0  0  0  0
    2.2277    0.2419    1.1720 H   0  0  0  0  0  0  0  0  0  0  0  0
    0.5923    0.2489    1.7988 H   0  0  0  0  0  0  0  0  0  0  0  0
   -2.2751   -2.2764   -0.9624 H   0  0  0  0  0  0  0  0  0  0  0  0
   -0.5720   -2.9793   -1.1508 H   0  0  0  0  0  0  0  0  0  0  0  0
  1  2  1  0  0  0  0
  1  7  1  0  0  0  0
  1  8  1  0  0  0  0
  2  3  1  0  0  0  0
  2  9  1  0  0  0  0
  2 11  1  1  0  0  0
  3  4  1  0  0  0  0
  3 12  1  0  0  0  0
  3 13  1  0  0  0  0
  4  5  1  0  0  0  0
  4 14  1  0  0  0  0
  4 15  1  0  0  0  0
  5  6  1  0  0  0  0
  5 10  2  0  0  0  0
  6  1  1  0  0  0  0
  6  9  1  0  0  0  0
  6 16  1  1  0  0  0
  7 17  1  0  0  0  0
  7 18  1  0  0  0  0
  7 19  1  0  0  0  0
  8 20  1  0  0  0  0
  8 21  1  0  0  0  0
  8 22  1  0  0  0  0
  9 23  1  0  0  0  0
  9 24  1  0  0  0  0
 10 25  1  0  0  0  0
 10 26  1  0  0  0  0
M  END
>  <Mol_ID>
3628

>  <Formula>
C10H16

>  <MolWeight>
136.23404

>  <Cat>
S6275

>  <Name>
(?)-¦Â-Pinene

>  <Synonyms>
Nopinene

>  <Target>
Others

>  <Form>
free base

>  <CAS>
18172-67-3

>  <URL>
http://www.selleck.cn/products/pinene.html

$$$$
