Pinostrobin
 OpenBabel08302521463D

 34 36  0  0  1  0  0  0  0  0999 V2000
    0.9228    2.3440   -0.0340 O   0  0  0  0  0  0  0  0  0  0  0  0
   -1.6689    2.0710   -0.1468 O   0  0  0  0  0  0  0  0  0  0  0  0
   -3.2582   -2.4617    0.0226 O   0  0  0  0  0  0  0  0  0  0  0  0
   -4.6019   -1.9937   -0.0612 C   0  0  0  0  0  0  0  0  0  0  0  0
   -0.0839    0.2313    0.0137 C   0  0  0  0  0  0  0  0  0  0  0  0
    0.1288   -1.1433    0.0997 C   0  0  0  0  0  0  0  0  0  0  0  0
    1.0805    1.1293    0.0672 C   0  0  0  0  0  0  0  0  0  0  0  0
   -1.3868    0.7327   -0.0762 C   0  0  0  0  0  0  0  0  0  0  0  0
    1.3703   -1.7137    0.2216 O   0  0  0  0  0  0  0  0  0  0  0  0
   -0.9678   -2.0095    0.1070 C   0  0  0  0  0  0  0  0  0  0  0  0
    2.4138    0.4983    0.3303 C   0  0  0  0  0  0  0  0  0  0  0  0
   -2.4786   -0.1330   -0.0806 C   0  0  0  0  0  0  0  0  0  0  0  0
    2.4334   -0.8923   -0.2925 C   0  0  1  0  0  0  0  0  0  0  0  0
   -2.2733   -1.5099    0.0124 C   0  0  0  0  0  0  0  0  0  0  0  0
    3.7814   -1.5456   -0.0190 C   0  0  0  0  0  0  0  0  0  0  0  0
    4.8542   -1.3166   -0.8993 C   0  0  0  0  0  0  0  0  0  0  0  0
    4.0165   -2.3122    1.1327 C   0  0  0  0  0  0  0  0  0  0  0  0
    6.1248   -1.8285   -0.6278 C   0  0  0  0  0  0  0  0  0  0  0  0
    5.2888   -2.8251    1.4001 C   0  0  0  0  0  0  0  0  0  0  0  0
    6.3431   -2.5785    0.5246 C   0  0  0  0  0  0  0  0  0  0  0  0
   -0.8187    2.5664   -0.1177 H   0  0  0  0  0  0  0  0  0  0  0  0
   -4.8530   -1.3588    0.7950 H   0  0  0  0  0  0  0  0  0  0  0  0
   -4.7793   -1.4705   -1.0068 H   0  0  0  0  0  0  0  0  0  0  0  0
   -5.2639   -2.8646   -0.0340 H   0  0  0  0  0  0  0  0  0  0  0  0
   -0.8080   -3.0825    0.1817 H   0  0  0  0  0  0  0  0  0  0  0  0
    3.1928    1.1301   -0.1122 H   0  0  0  0  0  0  0  0  0  0  0  0
    2.5582    0.4667    1.4162 H   0  0  0  0  0  0  0  0  0  0  0  0
   -3.4705    0.3006   -0.1465 H   0  0  0  0  0  0  0  0  0  0  0  0
    2.2970   -0.8350   -1.3825 H   0  0  0  0  0  0  0  0  0  0  0  0
    4.7111   -0.7224   -1.7990 H   0  0  0  0  0  0  0  0  0  0  0  0
    3.2102   -2.5099    1.8377 H   0  0  0  0  0  0  0  0  0  0  0  0
    6.9466   -1.6366   -1.3136 H   0  0  0  0  0  0  0  0  0  0  0  0
    5.4573   -3.4127    2.3002 H   0  0  0  0  0  0  0  0  0  0  0  0
    7.3340   -2.9685    0.7422 H   0  0  0  0  0  0  0  0  0  0  0  0
  1  7  2  0  0  0  0
  2  8  1  0  0  0  0
  2 21  1  0  0  0  0
  3  4  1  0  0  0  0
  3 14  1  0  0  0  0
  4 22  1  0  0  0  0
  4 23  1  0  0  0  0
  4 24  1  0  0  0  0
  5  6  2  0  0  0  0
  5  7  1  0  0  0  0
  5  8  1  0  0  0  0
  6  9  1  0  0  0  0
  6 10  1  0  0  0  0
  7 11  1  0  0  0  0
  8 12  2  0  0  0  0
  9 13  1  0  0  0  0
 10 14  2  0  0  0  0
 10 25  1  0  0  0  0
 11 13  1  0  0  0  0
 11 26  1  0  0  0  0
 11 27  1  0  0  0  0
 12 14  1  0  0  0  0
 12 28  1  0  0  0  0
 13 29  1  6  0  0  0
 13 15  1  0  0  0  0
 15 16  2  0  0  0  0
 15 17  1  0  0  0  0
 16 18  1  0  0  0  0
 16 30  1  0  0  0  0
 17 19  2  0  0  0  0
 17 31  1  0  0  0  0
 18 20  2  0  0  0  0
 18 32  1  0  0  0  0
 19 20  1  0  0  0  0
 19 33  1  0  0  0  0
 20 34  1  0  0  0  0
M  END
>  <Mol_ID>
9651

>  <Formula>
C16H14O4

>  <MolWeight>
270.27996

>  <Cat>
E2113

>  <Name>
Pinostrobin

>  <Synonyms>
NA

>  <Target>
PCSK9

>  <Form>
Free Base

>  <CAS>
480-37-5

>  <URL>
https://www.selleckchem.com/products/pinostrobin.html

$$$$
