Pinostilbene
 OpenBabel08302521503D

 32 33  0  0  0  0  0  0  0  0999 V2000
    0.9687    0.0677    0.0396 C   0  0  0  0  0  0  0  0  0  0  0  0
    0.3905    0.6095    1.1209 C   0  0  0  0  0  0  0  0  0  0  0  0
   -1.3421    0.4855   -4.3156 O   0  0  0  0  0  0  0  0  0  0  0  0
   -1.0035    1.8640   -4.3906 C   0  0  0  0  0  0  0  0  0  0  0  0
   -1.2995   -3.6636   -2.1402 O   0  0  0  0  0  0  0  0  0  0  0  0
    3.0755    2.9171    5.4949 O   0  0  0  0  0  0  0  0  0  0  0  0
    0.1788   -0.4868   -1.0621 C   0  0  0  0  0  0  0  0  0  0  0  0
   -0.1965    0.3322   -2.1384 C   0  0  0  0  0  0  0  0  0  0  0  0
   -0.1972   -1.8333   -1.0449 C   0  0  0  0  0  0  0  0  0  0  0  0
   -0.9256   -0.1985   -3.2061 C   0  0  0  0  0  0  0  0  0  0  0  0
   -0.9226   -2.3522   -2.1109 C   0  0  0  0  0  0  0  0  0  0  0  0
   -1.2821   -1.5488   -3.1877 C   0  0  0  0  0  0  0  0  0  0  0  0
    1.1354    1.1971    2.2429 C   0  0  0  0  0  0  0  0  0  0  0  0
    2.3915    1.8011    2.0728 C   0  0  0  0  0  0  0  0  0  0  0  0
    0.5488    1.2083    3.5143 C   0  0  0  0  0  0  0  0  0  0  0  0
    3.0587    2.3789    3.1563 C   0  0  0  0  0  0  0  0  0  0  0  0
    1.2133    1.7849    4.5985 C   0  0  0  0  0  0  0  0  0  0  0  0
    2.4623    2.3629    4.4117 C   0  0  0  0  0  0  0  0  0  0  0  0
    2.0461    0.0072   -0.0767 H   0  0  0  0  0  0  0  0  0  0  0  0
   -0.6950    0.6237    1.2132 H   0  0  0  0  0  0  0  0  0  0  0  0
   -1.4869    2.4309   -3.5883 H   0  0  0  0  0  0  0  0  0  0  0  0
    0.0819    2.0076   -4.3795 H   0  0  0  0  0  0  0  0  0  0  0  0
   -1.3786    2.2482   -5.3441 H   0  0  0  0  0  0  0  0  0  0  0  0
   -0.9720   -4.1003   -1.3382 H   0  0  0  0  0  0  0  0  0  0  0  0
    3.9265    3.2896    5.2115 H   0  0  0  0  0  0  0  0  0  0  0  0
    0.0936    1.3778   -2.1197 H   0  0  0  0  0  0  0  0  0  0  0  0
    0.0796   -2.4620   -0.2038 H   0  0  0  0  0  0  0  0  0  0  0  0
   -1.8432   -1.9734   -4.0160 H   0  0  0  0  0  0  0  0  0  0  0  0
    2.8609    1.8400    1.0937 H   0  0  0  0  0  0  0  0  0  0  0  0
   -0.4306    0.7635    3.6758 H   0  0  0  0  0  0  0  0  0  0  0  0
    4.0300    2.8360    2.9962 H   0  0  0  0  0  0  0  0  0  0  0  0
    0.7562    1.7854    5.5837 H   0  0  0  0  0  0  0  0  0  0  0  0
  1  2  2  0  0  0  0
  1  7  1  0  0  0  0
  1 19  1  0  0  0  0
  2 13  1  0  0  0  0
  2 20  1  0  0  0  0
  3  4  1  0  0  0  0
  3 10  1  0  0  0  0
  4 21  1  0  0  0  0
  4 22  1  0  0  0  0
  4 23  1  0  0  0  0
  5 11  1  0  0  0  0
  5 24  1  0  0  0  0
  6 18  1  0  0  0  0
  6 25  1  0  0  0  0
  7  8  2  0  0  0  0
  7  9  1  0  0  0  0
  8 10  1  0  0  0  0
  8 26  1  0  0  0  0
  9 11  2  0  0  0  0
  9 27  1  0  0  0  0
 10 12  2  0  0  0  0
 11 12  1  0  0  0  0
 12 28  1  0  0  0  0
 13 14  2  0  0  0  0
 13 15  1  0  0  0  0
 14 16  1  0  0  0  0
 14 29  1  0  0  0  0
 15 17  2  0  0  0  0
 15 30  1  0  0  0  0
 16 18  2  0  0  0  0
 16 31  1  0  0  0  0
 17 18  1  0  0  0  0
 17 32  1  0  0  0  0
M  END
>  <Mol_ID>
9881

>  <Formula>
C15H14O3

>  <MolWeight>
242.26986

>  <Cat>
E2736

>  <Name>
Pinostilbene

>  <Synonyms>
N/A

>  <Target>
Dehydrogenase,  JNK, Caspase

>  <Form>
free base

>  <CAS>
42438-89-1

>  <URL>
https://www.selleckchem.com/products/pinostilbene.html

$$$$
