Pinocembrin-7-O-¦Â-D-glucopyranoside
 OpenBabel08302521503D

 52 55  0  0  1  0  0  0  0  0999 V2000
  -11.8412   -3.6607   -0.5908 O   0  0  0  0  0  0  0  0  0  0  0  0
   -9.6719   -5.0624   -1.0554 O   0  0  0  0  0  0  0  0  0  0  0  0
   -5.5490   -3.0590   -0.0080 O   0  0  0  0  0  0  0  0  0  0  0  0
   -2.9431   -2.6734    1.2186 O   0  0  0  0  0  0  0  0  0  0  0  0
   -4.9243    0.5748   -2.9916 C   0  0  0  0  0  0  0  0  0  0  0  0
   -6.3325    0.7965   -2.8862 O   0  0  0  0  0  0  0  0  0  0  0  0
   -1.0519   -1.2393   -0.4731 O   0  0  0  0  0  0  0  0  0  0  0  0
   -2.2033    0.9392   -1.9819 O   0  0  0  0  0  0  0  0  0  0  0  0
   -8.9837   -1.7282    0.3597 C   0  0  0  0  0  0  0  0  0  0  0  0
   -9.7062   -2.8131   -0.1374 C   0  0  0  0  0  0  0  0  0  0  0  0
   -9.5652   -0.5730    0.8148 O   0  0  0  0  0  0  0  0  0  0  0  0
   -7.5935   -1.7882    0.4411 C   0  0  0  0  0  0  0  0  0  0  0  0
  -11.1766   -2.7227   -0.1547 C   0  0  0  0  0  0  0  0  0  0  0  0
   -9.0265   -3.9570   -0.5639 C   0  0  0  0  0  0  0  0  0  0  0  0
  -10.8383   -0.3215    0.1994 C   0  0  1  0  0  0  0  0  0  0  0  0
   -6.9121   -2.9180   -0.0169 C   0  0  0  0  0  0  0  0  0  0  0  0
  -11.7907   -1.4873    0.4434 C   0  0  0  0  0  0  0  0  0  0  0  0
   -7.6373   -4.0119   -0.5000 C   0  0  0  0  0  0  0  0  0  0  0  0
  -11.3837    0.9782    0.7596 C   0  0  0  0  0  0  0  0  0  0  0  0
  -11.6726    2.0489   -0.1011 C   0  0  0  0  0  0  0  0  0  0  0  0
  -11.6194    1.1403    2.1343 C   0  0  0  0  0  0  0  0  0  0  0  0
  -12.2055    3.2398    0.3970 C   0  0  0  0  0  0  0  0  0  0  0  0
  -12.1560    2.3306    2.6295 C   0  0  0  0  0  0  0  0  0  0  0  0
  -12.4540    3.3776    1.7604 C   0  0  0  0  0  0  0  0  0  0  0  0
   -4.7956   -1.8485   -0.1863 C   0  0  2  0  0  0  0  0  0  0  0  0
   -5.1036   -1.2592   -1.4546 O   0  0  0  0  0  0  0  0  0  0  0  0
   -3.2890   -2.1866   -0.0890 C   0  0  1  0  0  0  0  0  0  0  0  0
   -4.4058   -0.0284   -1.6818 C   0  0  1  0  0  0  0  0  0  0  0  0
   -2.4507   -0.9374   -0.4182 C   0  0  2  0  0  0  0  0  0  0  0  0
   -2.8985   -0.2838   -1.7358 C   0  0  2  0  0  0  0  0  0  0  0  0
  -10.6395   -4.8905   -1.0331 H   0  0  0  0  0  0  0  0  0  0  0  0
   -3.0663   -1.9612    1.8689 H   0  0  0  0  0  0  0  0  0  0  0  0
   -4.4474    1.5344   -3.2105 H   0  0  0  0  0  0  0  0  0  0  0  0
   -4.7616   -0.1044   -3.8349 H   0  0  0  0  0  0  0  0  0  0  0  0
   -6.7141   -0.0682   -2.6395 H   0  0  0  0  0  0  0  0  0  0  0  0
   -0.9183   -1.9778   -1.0943 H   0  0  0  0  0  0  0  0  0  0  0  0
   -1.8351    1.2710   -1.1435 H   0  0  0  0  0  0  0  0  0  0  0  0
   -7.0776   -0.9331    0.8625 H   0  0  0  0  0  0  0  0  0  0  0  0
  -10.6680   -0.1933   -0.8799 H   0  0  0  0  0  0  0  0  0  0  0  0
  -12.7583   -1.2995   -0.0317 H   0  0  0  0  0  0  0  0  0  0  0  0
  -11.9446   -1.6851    1.5092 H   0  0  0  0  0  0  0  0  0  0  0  0
   -7.1169   -4.9043   -0.8392 H   0  0  0  0  0  0  0  0  0  0  0  0
  -11.4848    1.9676   -1.1699 H   0  0  0  0  0  0  0  0  0  0  0  0
  -11.3836    0.3395    2.8320 H   0  0  0  0  0  0  0  0  0  0  0  0
  -12.4276    4.0606   -0.2805 H   0  0  0  0  0  0  0  0  0  0  0  0
  -12.3415    2.4410    3.6949 H   0  0  0  0  0  0  0  0  0  0  0  0
  -12.8753    4.3024    2.1460 H   0  0  0  0  0  0  0  0  0  0  0  0
   -5.0290   -1.1524    0.6286 H   0  0  0  0  0  0  0  0  0  0  0  0
   -3.0407   -2.9954   -0.7855 H   0  0  0  0  0  0  0  0  0  0  0  0
   -4.6564    0.6676   -0.8699 H   0  0  0  0  0  0  0  0  0  0  0  0
   -2.5445   -0.2118    0.3993 H   0  0  0  0  0  0  0  0  0  0  0  0
   -2.6571   -0.9613   -2.5646 H   0  0  0  0  0  0  0  0  0  0  0  0
  1 13  2  0  0  0  0
  2 14  1  0  0  0  0
  2 31  1  0  0  0  0
  3 16  1  0  0  0  0
  4 32  1  0  0  0  0
  5  6  1  0  0  0  0
  5 33  1  0  0  0  0
  5 34  1  0  0  0  0
  6 35  1  0  0  0  0
  7 36  1  0  0  0  0
  8 37  1  0  0  0  0
  9 10  2  0  0  0  0
  9 11  1  0  0  0  0
  9 12  1  0  0  0  0
 10 13  1  0  0  0  0
 10 14  1  0  0  0  0
 11 15  1  0  0  0  0
 12 16  2  0  0  0  0
 12 38  1  0  0  0  0
 13 17  1  0  0  0  0
 14 18  2  0  0  0  0
 15 17  1  0  0  0  0
 15 39  1  6  0  0  0
 15 19  1  0  0  0  0
 16 18  1  0  0  0  0
 17 40  1  0  0  0  0
 17 41  1  0  0  0  0
 18 42  1  0  0  0  0
 19 20  2  0  0  0  0
 19 21  1  0  0  0  0
 20 22  1  0  0  0  0
 20 43  1  0  0  0  0
 21 23  2  0  0  0  0
 21 44  1  0  0  0  0
 22 24  2  0  0  0  0
 22 45  1  0  0  0  0
 23 24  1  0  0  0  0
 23 46  1  0  0  0  0
 24 47  1  0  0  0  0
 25 26  1  0  0  0  0
 25 27  1  0  0  0  0
 25 48  1  1  0  0  0
 25  3  1  0  0  0  0
 26 28  1  0  0  0  0
 27  4  1  0  0  0  0
 27 29  1  0  0  0  0
 27 49  1  6  0  0  0
 28  5  1  0  0  0  0
 28 30  1  0  0  0  0
 28 50  1  1  0  0  0
 29  7  1  0  0  0  0
 29 30  1  0  0  0  0
 29 51  1  1  0  0  0
 30  8  1  0  0  0  0
 30 52  1  6  0  0  0
M  END
>  <Mol_ID>
9935

>  <Formula>
C21H22O9

>  <MolWeight>
418.39398

>  <Cat>
E5162

>  <Name>
Pinocembrin-7-O-¦Â-D-glucopyranoside

>  <Synonyms>
Pinocembrin 7-O-¦Â-D-Glucoside

>  <Target>
HIV

>  <Form>
free base

>  <CAS>
75829-43-5

>  <URL>
https://www.selleckchem.com/products/pinocembrin-7-o-beta-d-glucopyranoside.html

$$$$
