Pinoresinol
 OpenBabel08302521493D

 48 51  0  0  1  0  0  0  0  0999 V2000
   -5.4062   -1.4702    3.7952 O   0  0  0  0  0  0  0  0  0  0  0  0
   -5.0162   -2.5994    4.5709 C   0  0  0  0  0  0  0  0  0  0  0  0
    2.3825   -3.2611   -6.1168 O   0  0  0  0  0  0  0  0  0  0  0  0
    2.6233   -1.8986   -5.7777 C   0  0  0  0  0  0  0  0  0  0  0  0
   -6.1002    0.6661    2.3430 O   0  0  0  0  0  0  0  0  0  0  0  0
    1.9503   -5.8320   -6.7239 O   0  0  0  0  0  0  0  0  0  0  0  0
   -1.6022   -2.8237   -1.0299 C   0  0  1  0  0  0  0  0  0  0  0  0
   -1.0040   -4.2153   -1.1549 C   0  0  1  0  0  0  0  0  0  0  0  0
   -1.9112   -2.6670    0.4590 C   0  0  2  0  0  0  0  0  0  0  0  0
   -0.5077   -1.9002   -1.5127 C   0  0  0  0  0  0  0  0  0  0  0  0
    0.4598   -4.0173   -1.5457 C   0  0  2  0  0  0  0  0  0  0  0  0
   -1.1478   -4.8240    0.2290 C   0  0  0  0  0  0  0  0  0  0  0  0
   -2.0900   -4.0167    0.9273 O   0  0  0  0  0  0  0  0  0  0  0  0
    0.7230   -2.6137   -1.3476 O   0  0  0  0  0  0  0  0  0  0  0  0
   -3.1163   -1.8354    0.8596 C   0  0  0  0  0  0  0  0  0  0  0  0
   -3.7539   -2.1221    2.0880 C   0  0  0  0  0  0  0  0  0  0  0  0
   -3.5469   -0.7154    0.1317 C   0  0  0  0  0  0  0  0  0  0  0  0
   -4.7617   -1.3043    2.5959 C   0  0  0  0  0  0  0  0  0  0  0  0
   -4.5697    0.1015    0.6241 C   0  0  0  0  0  0  0  0  0  0  0  0
   -5.1495   -0.1885    1.8534 C   0  0  0  0  0  0  0  0  0  0  0  0
    0.8027   -4.4697   -2.9581 C   0  0  0  0  0  0  0  0  0  0  0  0
    1.3948   -3.5885   -3.8832 C   0  0  0  0  0  0  0  0  0  0  0  0
    0.6114   -5.8159   -3.3325 C   0  0  0  0  0  0  0  0  0  0  0  0
    1.7810   -4.0296   -5.1517 C   0  0  0  0  0  0  0  0  0  0  0  0
    0.9861   -6.2578   -4.6035 C   0  0  0  0  0  0  0  0  0  0  0  0
    1.5688   -5.3658   -5.4952 C   0  0  0  0  0  0  0  0  0  0  0  0
   -5.2895   -3.5320    4.0661 H   0  0  0  0  0  0  0  0  0  0  0  0
   -3.9456   -2.5746    4.8050 H   0  0  0  0  0  0  0  0  0  0  0  0
   -5.5602   -2.5585    5.5199 H   0  0  0  0  0  0  0  0  0  0  0  0
    1.6797   -1.3578   -5.6505 H   0  0  0  0  0  0  0  0  0  0  0  0
    3.2534   -1.8129   -4.8853 H   0  0  0  0  0  0  0  0  0  0  0  0
    3.1654   -1.4362   -6.6070 H   0  0  0  0  0  0  0  0  0  0  0  0
   -6.3174    0.3132    3.2281 H   0  0  0  0  0  0  0  0  0  0  0  0
    2.3490   -5.0593   -7.1705 H   0  0  0  0  0  0  0  0  0  0  0  0
   -2.5067   -2.7198   -1.6393 H   0  0  0  0  0  0  0  0  0  0  0  0
   -1.5653   -4.8192   -1.8764 H   0  0  0  0  0  0  0  0  0  0  0  0
   -1.0462   -2.2487    0.9926 H   0  0  0  0  0  0  0  0  0  0  0  0
   -0.6269   -1.6744   -2.5779 H   0  0  0  0  0  0  0  0  0  0  0  0
   -0.4516   -0.9516   -0.9708 H   0  0  0  0  0  0  0  0  0  0  0  0
    1.1464   -4.5600   -0.8847 H   0  0  0  0  0  0  0  0  0  0  0  0
   -0.2143   -4.8247    0.8026 H   0  0  0  0  0  0  0  0  0  0  0  0
   -1.5188   -5.8522    0.1899 H   0  0  0  0  0  0  0  0  0  0  0  0
   -3.4186   -2.9938    2.6427 H   0  0  0  0  0  0  0  0  0  0  0  0
   -3.0867   -0.4455   -0.8148 H   0  0  0  0  0  0  0  0  0  0  0  0
   -4.8944    0.9765    0.0680 H   0  0  0  0  0  0  0  0  0  0  0  0
    1.5643   -2.5615   -3.5820 H   0  0  0  0  0  0  0  0  0  0  0  0
    0.1798   -6.5304   -2.6377 H   0  0  0  0  0  0  0  0  0  0  0  0
    0.8488   -7.2957   -4.8899 H   0  0  0  0  0  0  0  0  0  0  0  0
  1  2  1  0  0  0  0
  1 18  1  0  0  0  0
  2 27  1  0  0  0  0
  2 28  1  0  0  0  0
  2 29  1  0  0  0  0
  3  4  1  0  0  0  0
  3 24  1  0  0  0  0
  4 30  1  0  0  0  0
  4 31  1  0  0  0  0
  4 32  1  0  0  0  0
  5 20  1  0  0  0  0
  5 33  1  0  0  0  0
  6 26  1  0  0  0  0
  6 34  1  0  0  0  0
  7  8  1  0  0  0  0
  7  9  1  0  0  0  0
  7 10  1  0  0  0  0
  7 35  1  6  0  0  0
  8 11  1  0  0  0  0
  8 12  1  0  0  0  0
  8 36  1  6  0  0  0
  9 13  1  0  0  0  0
  9 37  1  1  0  0  0
  9 15  1  0  0  0  0
 10 14  1  0  0  0  0
 10 38  1  0  0  0  0
 10 39  1  0  0  0  0
 11 14  1  0  0  0  0
 11 40  1  1  0  0  0
 11 21  1  0  0  0  0
 12 13  1  0  0  0  0
 12 41  1  0  0  0  0
 12 42  1  0  0  0  0
 15 16  2  0  0  0  0
 15 17  1  0  0  0  0
 16 18  1  0  0  0  0
 16 43  1  0  0  0  0
 17 19  2  0  0  0  0
 17 44  1  0  0  0  0
 18 20  2  0  0  0  0
 19 20  1  0  0  0  0
 19 45  1  0  0  0  0
 21 22  2  0  0  0  0
 21 23  1  0  0  0  0
 22 24  1  0  0  0  0
 22 46  1  0  0  0  0
 23 25  2  0  0  0  0
 23 47  1  0  0  0  0
 24 26  2  0  0  0  0
 25 26  1  0  0  0  0
 25 48  1  0  0  0  0
M  END
>  <Mol_ID>
9800

>  <Formula>
C20H22O6

>  <MolWeight>
358.38508

>  <Cat>
E2334

>  <Name>
Pinoresinol

>  <Synonyms>
(+)-Pinoresinol

>  <Target>
Carbohydrate Metabolism, NF-¦ÊB

>  <Form>
free base

>  <CAS>
487-36-5

>  <URL>
https://www.selleckchem.com/products/pinoresinol.html

$$$$
