(¡À)-Pinocembrin
 OpenBabel08302521453D

 31 33  0  0  0  0  0  0  0  0999 V2000
    2.2759    1.6602   -0.0690 O   0  0  0  0  0  0  0  0  0  0  0  0
   -0.1537    2.6397   -0.1451 O   0  0  0  0  0  0  0  0  0  0  0  0
   -3.6837   -0.4737   -0.0009 O   0  0  0  0  0  0  0  0  0  0  0  0
    0.3890    0.2716   -0.0170 C   0  0  0  0  0  0  0  0  0  0  0  0
   -0.0629   -1.0481    0.0443 C   0  0  0  0  0  0  0  0  0  0  0  0
    1.8388    0.5186    0.0545 C   0  0  0  0  0  0  0  0  0  0  0  0
   -0.5295    1.3250   -0.0887 C   0  0  0  0  0  0  0  0  0  0  0  0
    0.7662   -2.1349    0.1369 O   0  0  0  0  0  0  0  0  0  0  0  0
   -1.4333   -1.3149    0.0561 C   0  0  0  0  0  0  0  0  0  0  0  0
    2.7068   -0.6621    0.3708 C   0  0  0  0  0  0  0  0  0  0  0  0
   -1.8959    1.0607   -0.0850 C   0  0  0  0  0  0  0  0  0  0  0  0
    2.1116   -1.8883   -0.3082 C   0  0  3  0  0  0  0  0  0  0  0  0
   -2.3374   -0.2568   -0.0104 C   0  0  0  0  0  0  0  0  0  0  0  0
    2.9701   -3.1085   -0.0130 C   0  0  0  0  0  0  0  0  0  0  0  0
    4.0699   -3.4030   -0.8363 C   0  0  0  0  0  0  0  0  0  0  0  0
    2.7283   -3.9286    1.1001 C   0  0  0  0  0  0  0  0  0  0  0  0
    4.8988   -4.4916   -0.5550 C   0  0  0  0  0  0  0  0  0  0  0  0
    3.5566   -5.0185    1.3773 C   0  0  0  0  0  0  0  0  0  0  0  0
    4.6421   -5.2988    0.5507 C   0  0  0  0  0  0  0  0  0  0  0  0
    0.8293    2.6802   -0.1424 H   0  0  0  0  0  0  0  0  0  0  0  0
   -3.8531   -1.4283    0.0614 H   0  0  0  0  0  0  0  0  0  0  0  0
   -1.7759   -2.3435    0.1146 H   0  0  0  0  0  0  0  0  0  0  0  0
    2.7411   -0.7695    1.4613 H   0  0  0  0  0  0  0  0  0  0  0  0
    3.7198   -0.4656    0.0026 H   0  0  0  0  0  0  0  0  0  0  0  0
   -2.6113    1.8770   -0.1286 H   0  0  0  0  0  0  0  0  0  0  0  0
    2.0707   -1.7518   -1.3986 H   0  0  0  0  0  0  0  0  0  0  0  0
    4.2945   -2.7827   -1.7010 H   0  0  0  0  0  0  0  0  0  0  0  0
    1.8904   -3.7252    1.7645 H   0  0  0  0  0  0  0  0  0  0  0  0
    5.7488   -4.7082   -1.1978 H   0  0  0  0  0  0  0  0  0  0  0  0
    3.3557   -5.6472    2.2413 H   0  0  0  0  0  0  0  0  0  0  0  0
    5.2885   -6.1445    0.7699 H   0  0  0  0  0  0  0  0  0  0  0  0
  1  6  2  0  0  0  0
  2  7  1  0  0  0  0
  2 20  1  0  0  0  0
  3 13  1  0  0  0  0
  3 21  1  0  0  0  0
  4  5  2  0  0  0  0
  4  6  1  0  0  0  0
  4  7  1  0  0  0  0
  5  8  1  0  0  0  0
  5  9  1  0  0  0  0
  6 10  1  0  0  0  0
  7 11  2  0  0  0  0
  8 12  1  0  0  0  0
  9 13  2  0  0  0  0
  9 22  1  0  0  0  0
 10 12  1  0  0  0  0
 10 23  1  0  0  0  0
 10 24  1  0  0  0  0
 11 13  1  0  0  0  0
 11 25  1  0  0  0  0
 12 14  1  0  0  0  0
 12 26  1  0  0  0  0
 14 15  2  0  0  0  0
 14 16  1  0  0  0  0
 15 17  1  0  0  0  0
 15 27  1  0  0  0  0
 16 18  2  0  0  0  0
 16 28  1  0  0  0  0
 17 19  2  0  0  0  0
 17 29  1  0  0  0  0
 18 19  1  0  0  0  0
 18 30  1  0  0  0  0
 19 31  1  0  0  0  0
M  END
>  <Mol_ID>
9611

>  <Formula>
C15H12O4

>  <MolWeight>
256.25338

>  <Cat>
E2191

>  <Name>
(¡À)-Pinocembrin

>  <Synonyms>
(¡À)-5,7-Dihydroxyflavanone

>  <Target>
GPR

>  <Form>
free base

>  <CAS>
68745-38-0

>  <URL>
https://www.selleckchem.com/products/-pinocembrin.html

$$$$
