Pioglitazone.cdx
 OpenBabel08302521453D

 45 47  0  0  0  0  0  0  0  0999 V2000
   -3.9006   -7.2715    0.8348 C   0  0  0  0  0  0  0  0  0  0  0  0
   -4.6847   -6.1645    1.1576 C   0  0  0  0  0  0  0  0  0  0  0  0
   -4.0751   -4.9495    1.4737 C   0  0  0  0  0  0  0  0  0  0  0  0
   -2.6870   -4.8758    1.4689 C   0  0  0  0  0  0  0  0  0  0  0  0
   -1.9076   -5.9197    1.0922 N   0  0  0  0  0  0  0  0  0  0  0  0
   -2.5222   -7.0824    0.7883 C   0  0  0  0  0  0  0  0  0  0  0  0
   -4.4900   -8.6387    0.6287 C   0  0  0  0  0  0  0  0  0  0  0  0
   -4.4731   -9.4522    1.9182 C   0  0  0  0  0  0  0  0  0  0  0  0
   -1.9666   -3.7043    2.0763 C   0  0  0  0  0  0  0  0  0  0  0  0
   -1.9828   -2.3931    1.3017 C   0  0  0  0  0  0  0  0  0  0  0  0
   -3.2396   -1.6985    1.3751 O   0  0  0  0  0  0  0  0  0  0  0  0
   -3.1100   -0.3266    1.2984 C   0  0  0  0  0  0  0  0  0  0  0  0
   -2.0048    0.3215    0.7438 C   0  0  0  0  0  0  0  0  0  0  0  0
   -1.8136    1.6900    0.9343 C   0  0  0  0  0  0  0  0  0  0  0  0
   -2.7614    2.4400    1.6365 C   0  0  0  0  0  0  0  0  0  0  0  0
   -3.9478    1.8155    2.0465 C   0  0  0  0  0  0  0  0  0  0  0  0
   -4.1202    0.4352    1.8780 C   0  0  0  0  0  0  0  0  0  0  0  0
   -2.4528    3.8580    2.0575 C   0  0  0  0  0  0  0  0  0  0  0  0
   -2.0752    4.8147    0.9225 C   0  0  3  0  0  0  0  0  0  0  0  0
   -3.2656    5.1082    0.0341 C   0  0  0  0  0  0  0  0  0  0  0  0
   -3.8834    6.2664    0.3894 N   0  0  0  0  0  0  0  0  0  0  0  0
   -3.2266    7.1171    1.2059 C   0  0  0  0  0  0  0  0  0  0  0  0
   -1.6824    6.4456    1.6650 S   0  0  0  0  0  0  0  0  0  0  0  0
   -3.6230    8.2134    1.5615 O   0  0  0  0  0  0  0  0  0  0  0  0
   -3.6495    4.3954   -0.8839 O   0  0  0  0  0  0  0  0  0  0  0  0
   -5.7672   -6.2488    1.2088 H   0  0  0  0  0  0  0  0  0  0  0  0
   -4.6750   -4.0983    1.7805 H   0  0  0  0  0  0  0  0  0  0  0  0
   -1.8519   -7.8980    0.5335 H   0  0  0  0  0  0  0  0  0  0  0  0
   -5.5182   -8.5567    0.2570 H   0  0  0  0  0  0  0  0  0  0  0  0
   -3.9233   -9.1684   -0.1464 H   0  0  0  0  0  0  0  0  0  0  0  0
   -5.1513   -9.0227    2.6636 H   0  0  0  0  0  0  0  0  0  0  0  0
   -4.7920  -10.4812    1.7243 H   0  0  0  0  0  0  0  0  0  0  0  0
   -3.4715   -9.4878    2.3615 H   0  0  0  0  0  0  0  0  0  0  0  0
   -2.3403   -3.5567    3.0958 H   0  0  0  0  0  0  0  0  0  0  0  0
   -0.9114   -3.9949    2.1741 H   0  0  0  0  0  0  0  0  0  0  0  0
   -1.2031   -1.7902    1.7889 H   0  0  0  0  0  0  0  0  0  0  0  0
   -1.7188   -2.5454    0.2504 H   0  0  0  0  0  0  0  0  0  0  0  0
   -1.2385   -0.2237    0.2005 H   0  0  0  0  0  0  0  0  0  0  0  0
   -0.8926    2.1405    0.5743 H   0  0  0  0  0  0  0  0  0  0  0  0
   -4.7266    2.3849    2.5492 H   0  0  0  0  0  0  0  0  0  0  0  0
   -5.0234   -0.0422    2.2510 H   0  0  0  0  0  0  0  0  0  0  0  0
   -3.3058    4.2531    2.6211 H   0  0  0  0  0  0  0  0  0  0  0  0
   -1.6181    3.7906    2.7704 H   0  0  0  0  0  0  0  0  0  0  0  0
   -1.2270    4.4793    0.3132 H   0  0  0  0  0  0  0  0  0  0  0  0
   -4.7137    6.5742   -0.0893 H   0  0  0  0  0  0  0  0  0  0  0  0
  1  2  2  0  0  0  0
  1  7  1  0  0  0  0
  2  3  1  0  0  0  0
  2 26  1  0  0  0  0
  3  4  2  0  0  0  0
  3 27  1  0  0  0  0
  4  5  1  0  0  0  0
  4  9  1  0  0  0  0
  5  6  2  0  0  0  0
  6  1  1  0  0  0  0
  6 28  1  0  0  0  0
  7  8  1  0  0  0  0
  7 29  1  0  0  0  0
  7 30  1  0  0  0  0
  8 31  1  0  0  0  0
  8 32  1  0  0  0  0
  8 33  1  0  0  0  0
  9 10  1  0  0  0  0
  9 34  1  0  0  0  0
  9 35  1  0  0  0  0
 10 11  1  0  0  0  0
 10 36  1  0  0  0  0
 10 37  1  0  0  0  0
 11 12  1  0  0  0  0
 12 13  2  0  0  0  0
 13 14  1  0  0  0  0
 13 38  1  0  0  0  0
 14 15  2  0  0  0  0
 14 39  1  0  0  0  0
 15 16  1  0  0  0  0
 15 18  1  0  0  0  0
 16 17  2  0  0  0  0
 16 40  1  0  0  0  0
 17 12  1  0  0  0  0
 17 41  1  0  0  0  0
 18 19  1  0  0  0  0
 18 42  1  0  0  0  0
 18 43  1  0  0  0  0
 19 20  1  0  0  0  0
 19 44  1  0  0  0  0
 20 21  1  0  0  0  0
 20 25  2  0  0  0  0
 21 22  1  0  0  0  0
 21 45  1  0  0  0  0
 22 23  1  0  0  0  0
 22 24  2  0  0  0  0
 23 19  1  0  0  0  0
M  END
>  <Mol_ID>
939

>  <Formula>
C19H20N2O3S

>  <MolWeight>
356.4387

>  <Cat>
S2590

>  <Name>
Pioglitazone (AD-4833)

>  <Synonyms>
U 72107

>  <Target>
PPAR

>  <Form>
Free Base

>  <CAS>
111025-46-8

>  <URL>
https://www.selleckchem.com/products/pioglitazone.html

$$$$
