Piperonyl acetone
 OpenBabel08302520393D

 26 27  0  0  0  0  0  0  0  0999 V2000
   -0.2430   -0.6388   -0.1435 C   0  0  0  0  0  0  0  0  0  0  0  0
   -0.2228    0.7289   -0.0166 C   0  0  0  0  0  0  0  0  0  0  0  0
    0.9187   -1.3840   -0.1803 C   0  0  0  0  0  0  0  0  0  0  0  0
   -1.5096   -1.1317   -0.2103 O   0  0  0  0  0  0  0  0  0  0  0  0
    0.9587    1.4288    0.0581 C   0  0  0  0  0  0  0  0  0  0  0  0
   -1.4697    1.2685    0.0214 O   0  0  0  0  0  0  0  0  0  0  0  0
    2.1499   -0.7128   -0.0579 C   0  0  0  0  0  0  0  0  0  0  0  0
   -2.2778    0.0750   -0.0174 C   0  0  0  0  0  0  0  0  0  0  0  0
    2.1517    0.6986    0.0306 C   0  0  0  0  0  0  0  0  0  0  0  0
    3.4334   -1.5193   -0.0578 C   0  0  0  0  0  0  0  0  0  0  0  0
    4.5353   -0.9287    0.8235 C   0  0  0  0  0  0  0  0  0  0  0  0
    5.7612   -1.8149    0.9174 C   0  0  0  0  0  0  0  0  0  0  0  0
    6.9146   -1.2624    1.7182 C   0  0  0  0  0  0  0  0  0  0  0  0
    5.8486   -2.8945    0.3386 O   0  0  0  0  0  0  0  0  0  0  0  0
    0.8678   -2.4632   -0.2864 H   0  0  0  0  0  0  0  0  0  0  0  0
    0.9621    2.5096    0.1457 H   0  0  0  0  0  0  0  0  0  0  0  0
   -3.0033    0.1685   -0.8335 H   0  0  0  0  0  0  0  0  0  0  0  0
   -2.8231   -0.0075    0.9300 H   0  0  0  0  0  0  0  0  0  0  0  0
    3.0834    1.2545    0.0842 H   0  0  0  0  0  0  0  0  0  0  0  0
    3.2123   -2.5355    0.2955 H   0  0  0  0  0  0  0  0  0  0  0  0
    3.7863   -1.6157   -1.0920 H   0  0  0  0  0  0  0  0  0  0  0  0
    4.8714    0.0343    0.4249 H   0  0  0  0  0  0  0  0  0  0  0  0
    4.1583   -0.7746    1.8414 H   0  0  0  0  0  0  0  0  0  0  0  0
    7.4702   -2.0844    2.1760 H   0  0  0  0  0  0  0  0  0  0  0  0
    7.5692   -0.6860    1.0601 H   0  0  0  0  0  0  0  0  0  0  0  0
    6.5409   -0.6155    2.5171 H   0  0  0  0  0  0  0  0  0  0  0  0
  1  2  1  0  0  0  0
  1  3  2  0  0  0  0
  1  4  1  0  0  0  0
  2  5  2  0  0  0  0
  2  6  1  0  0  0  0
  3  7  1  0  0  0  0
  3 15  1  0  0  0  0
  4  8  1  0  0  0  0
  5  9  1  0  0  0  0
  5 16  1  0  0  0  0
  6  8  1  0  0  0  0
  7 10  1  0  0  0  0
  7  9  2  0  0  0  0
  8 17  1  0  0  0  0
  8 18  1  0  0  0  0
  9 19  1  0  0  0  0
 10 11  1  0  0  0  0
 10 20  1  0  0  0  0
 10 21  1  0  0  0  0
 11 12  1  0  0  0  0
 11 22  1  0  0  0  0
 11 23  1  0  0  0  0
 12 13  1  0  0  0  0
 12 14  2  0  0  0  0
 13 24  1  0  0  0  0
 13 25  1  0  0  0  0
 13 26  1  0  0  0  0
M  END
>  <Mol_ID>
3585

>  <Formula>
C11H12O3

>  <MolWeight>
192.21118

>  <Cat>
S6139

>  <Name>
Piperonyl acetone

>  <Synonyms>
N/A

>  <Target>
Others

>  <Form>
free base

>  <CAS>
55418-52-5

>  <URL>
http://www.selleck.cn/products/piperonyl-acetone.html

$$$$
