Piperonylic acid
 OpenBabel08302521363D

 18 19  0  0  0  0  0  0  0  0999 V2000
    0.9579   -0.0972    0.0172 C   0  0  0  0  0  0  0  0  0  0  0  0
    0.3348    0.9467   -0.5685 O   0  0  0  0  0  0  0  0  0  0  0  0
    0.3557   -1.0256    0.5283 O   0  0  0  0  0  0  0  0  0  0  0  0
    4.5271    1.0960   -0.0697 C   0  0  0  0  0  0  0  0  0  0  0  0
    5.2004   -0.1040   -0.0785 C   0  0  0  0  0  0  0  0  0  0  0  0
    3.1484    1.1655   -0.0499 C   0  0  0  0  0  0  0  0  0  0  0  0
    5.3721    2.1623   -0.0643 O   0  0  0  0  0  0  0  0  0  0  0  0
    4.5352   -1.3096   -0.0693 C   0  0  0  0  0  0  0  0  0  0  0  0
    6.5499    0.0583   -0.0793 O   0  0  0  0  0  0  0  0  0  0  0  0
    2.4408   -0.0454   -0.0480 C   0  0  0  0  0  0  0  0  0  0  0  0
    6.6534    1.4960   -0.0244 C   0  0  0  0  0  0  0  0  0  0  0  0
    3.1369   -1.2761   -0.0485 C   0  0  0  0  0  0  0  0  0  0  0  0
    0.9056    1.5388   -1.0915 H   0  0  0  0  0  0  0  0  0  0  0  0
    2.6610    2.1314    0.0040 H   0  0  0  0  0  0  0  0  0  0  0  0
    5.0759   -2.2493   -0.0624 H   0  0  0  0  0  0  0  0  0  0  0  0
    7.2552    1.8380   -0.8739 H   0  0  0  0  0  0  0  0  0  0  0  0
    7.1640    1.7758    0.9044 H   0  0  0  0  0  0  0  0  0  0  0  0
    2.5813   -2.2129   -0.0212 H   0  0  0  0  0  0  0  0  0  0  0  0
  1  2  1  0  0  0  0
  1  3  2  0  0  0  0
  1 10  1  0  0  0  0
  2 13  1  0  0  0  0
  4  5  1  0  0  0  0
  4  6  2  0  0  0  0
  4  7  1  0  0  0  0
  5  8  2  0  0  0  0
  5  9  1  0  0  0  0
  6 10  1  0  0  0  0
  6 14  1  0  0  0  0
  7 11  1  0  0  0  0
  8 12  1  0  0  0  0
  8 15  1  0  0  0  0
  9 11  1  0  0  0  0
 10 12  2  0  0  0  0
 11 16  1  0  0  0  0
 11 17  1  0  0  0  0
 12 18  1  0  0  0  0
M  END
>  <Mol_ID>
7058

>  <Formula>
C8H6O4

>  <MolWeight>
166.13084

>  <Cat>
E4070

>  <Name>
Piperonylic acid

>  <Synonyms>
Piperonylic acid

>  <Target>
P450

>  <Form>
Free base

>  <CAS>
94-53-1

>  <URL>
https://www.selleckchem.com/products/piperonylic-acid.html

$$$$
