Piperlongumine.cdx
 OpenBabel08302519583D

 42 43  0  0  0  0  0  0  0  0999 V2000
   -3.9109    3.2037    5.2347 C   0  0  0  0  0  0  0  0  0  0  0  0
   -4.0345    1.9098    5.5518 C   0  0  0  0  0  0  0  0  0  0  0  0
   -3.4907    0.8396    4.6645 C   0  0  0  0  0  0  0  0  0  0  0  0
   -3.3340    1.3574    3.2361 C   0  0  0  0  0  0  0  0  0  0  0  0
   -2.6851    2.6689    3.1715 N   0  0  0  0  0  0  0  0  0  0  0  0
   -3.1596    3.6635    4.0335 C   0  0  0  0  0  0  0  0  0  0  0  0
   -2.9979    4.8740    3.9090 O   0  0  0  0  0  0  0  0  0  0  0  0
   -1.8811    2.9135    2.0496 C   0  0  0  0  0  0  0  0  0  0  0  0
   -1.1524    4.2138    2.0081 C   0  0  0  0  0  0  0  0  0  0  0  0
   -0.8731    4.8321    0.8520 C   0  0  0  0  0  0  0  0  0  0  0  0
   -0.2329    6.1582    0.7877 C   0  0  0  0  0  0  0  0  0  0  0  0
    0.6099    6.4703   -0.2830 C   0  0  0  0  0  0  0  0  0  0  0  0
    1.2385    7.7270   -0.3848 C   0  0  0  0  0  0  0  0  0  0  0  0
    1.0157    8.7075    0.6095 C   0  0  0  0  0  0  0  0  0  0  0  0
    0.1165    8.4132    1.6579 C   0  0  0  0  0  0  0  0  0  0  0  0
   -0.4878    7.1494    1.7374 C   0  0  0  0  0  0  0  0  0  0  0  0
   -0.2302    9.2304    2.7078 O   0  0  0  0  0  0  0  0  0  0  0  0
   -0.2740   10.6301    2.4584 C   0  0  0  0  0  0  0  0  0  0  0  0
    1.6183    9.9366    0.6901 O   0  0  0  0  0  0  0  0  0  0  0  0
    2.5957   10.3328   -0.2568 C   0  0  0  0  0  0  0  0  0  0  0  0
    2.0668    8.0464   -1.4308 O   0  0  0  0  0  0  0  0  0  0  0  0
    2.3111    7.0734   -2.4366 C   0  0  0  0  0  0  0  0  0  0  0  0
   -1.7602    2.1179    1.1176 O   0  0  0  0  0  0  0  0  0  0  0  0
   -4.2923    3.9918    5.8750 H   0  0  0  0  0  0  0  0  0  0  0  0
   -4.5366    1.6213    6.4709 H   0  0  0  0  0  0  0  0  0  0  0  0
   -4.1660   -0.0234    4.6691 H   0  0  0  0  0  0  0  0  0  0  0  0
   -2.5253    0.5069    5.0621 H   0  0  0  0  0  0  0  0  0  0  0  0
   -4.3275    1.4756    2.7810 H   0  0  0  0  0  0  0  0  0  0  0  0
   -2.7954    0.6135    2.6389 H   0  0  0  0  0  0  0  0  0  0  0  0
   -0.8705    4.6458    2.9615 H   0  0  0  0  0  0  0  0  0  0  0  0
   -1.1355    4.3678   -0.0980 H   0  0  0  0  0  0  0  0  0  0  0  0
    0.7755    5.7020   -1.0315 H   0  0  0  0  0  0  0  0  0  0  0  0
   -1.1801    6.9645    2.5588 H   0  0  0  0  0  0  0  0  0  0  0  0
    0.7180   11.0755    2.5776 H   0  0  0  0  0  0  0  0  0  0  0  0
   -0.7094   10.8658    1.4812 H   0  0  0  0  0  0  0  0  0  0  0  0
   -0.9167   11.0815    3.2211 H   0  0  0  0  0  0  0  0  0  0  0  0
    3.4487    9.6475   -0.2717 H   0  0  0  0  0  0  0  0  0  0  0  0
    2.1499   10.4678   -1.2469 H   0  0  0  0  0  0  0  0  0  0  0  0
    2.9789   11.3094    0.0567 H   0  0  0  0  0  0  0  0  0  0  0  0
    2.8343    6.2051   -2.0235 H   0  0  0  0  0  0  0  0  0  0  0  0
    1.3844    6.7818   -2.9406 H   0  0  0  0  0  0  0  0  0  0  0  0
    2.9644    7.5295   -3.1869 H   0  0  0  0  0  0  0  0  0  0  0  0
  1  2  2  0  0  0  0
  1 24  1  0  0  0  0
  2  3  1  0  0  0  0
  2 25  1  0  0  0  0
  3  4  1  0  0  0  0
  3 26  1  0  0  0  0
  3 27  1  0  0  0  0
  4  5  1  0  0  0  0
  4 28  1  0  0  0  0
  4 29  1  0  0  0  0
  5  6  1  0  0  0  0
  5  8  1  0  0  0  0
  6  1  1  0  0  0  0
  6  7  2  0  0  0  0
  8  9  1  0  0  0  0
  8 23  2  0  0  0  0
  9 10  2  0  0  0  0
  9 30  1  0  0  0  0
 10 11  1  0  0  0  0
 10 31  1  0  0  0  0
 11 12  2  0  0  0  0
 12 13  1  0  0  0  0
 12 32  1  0  0  0  0
 13 14  2  0  0  0  0
 13 21  1  0  0  0  0
 14 15  1  0  0  0  0
 14 19  1  0  0  0  0
 15 16  2  0  0  0  0
 15 17  1  0  0  0  0
 16 11  1  0  0  0  0
 16 33  1  0  0  0  0
 17 18  1  0  0  0  0
 18 34  1  0  0  0  0
 18 35  1  0  0  0  0
 18 36  1  0  0  0  0
 19 20  1  0  0  0  0
 20 37  1  0  0  0  0
 20 38  1  0  0  0  0
 20 39  1  0  0  0  0
 21 22  1  0  0  0  0
 22 40  1  0  0  0  0
 22 41  1  0  0  0  0
 22 42  1  0  0  0  0
M  END
>  <Mol_ID>
2516

>  <Formula>
C17H19NO5

>  <MolWeight>
317.33646

>  <Cat>
S7551

>  <Name>
Piperlongumine

>  <Synonyms>
PPLGM, Piplartine

>  <Target>
CRM1,ROS

>  <Form>
free base

>  <CAS>
20069-09-4

>  <URL>
http://selleckchem.com/products/piperlongumine.html

$$$$
