Piperine.cdx
 OpenBabel08302521373D

 40 42  0  0  0  0  0  0  0  0999 V2000
    1.8215    1.0147   -2.2304 C   0  0  0  0  0  0  0  0  0  0  0  0
    2.9722    0.6023   -1.3119 C   0  0  0  0  0  0  0  0  0  0  0  0
    2.4647   -0.2510   -0.2351 N   0  0  0  0  0  0  0  0  0  0  0  0
    1.8205   -1.4769   -0.7099 C   0  0  0  0  0  0  0  0  0  0  0  0
    0.6534   -1.1482   -1.6431 C   0  0  0  0  0  0  0  0  0  0  0  0
    1.0795   -0.2095   -2.7730 C   0  0  0  0  0  0  0  0  0  0  0  0
    2.5175   -0.0055    1.1356 C   0  0  0  0  0  0  0  0  0  0  0  0
    3.1417    1.2767    1.5894 C   0  0  0  0  0  0  0  0  0  0  0  0
    4.1913    1.2795    2.4242 C   0  0  0  0  0  0  0  0  0  0  0  0
    4.8111    2.5120    2.8787 C   0  0  0  0  0  0  0  0  0  0  0  0
    5.8794    2.5674    3.6969 C   0  0  0  0  0  0  0  0  0  0  0  0
    6.5234    3.8303    4.1038 C   0  0  0  0  0  0  0  0  0  0  0  0
    5.8076    5.0339    4.2179 C   0  0  0  0  0  0  0  0  0  0  0  0
    7.9057    3.8230    4.4039 C   0  0  0  0  0  0  0  0  0  0  0  0
    8.5769    4.9980    4.7675 C   0  0  0  0  0  0  0  0  0  0  0  0
    7.8444    6.1616    4.8297 C   0  0  0  0  0  0  0  0  0  0  0  0
    6.4951    6.1776    4.5683 C   0  0  0  0  0  0  0  0  0  0  0  0
    8.3288    7.3931    5.1403 O   0  0  0  0  0  0  0  0  0  0  0  0
    7.1417    8.1981    4.9824 C   0  0  0  0  0  0  0  0  0  0  0  0
    5.9598    7.4238    4.6896 O   0  0  0  0  0  0  0  0  0  0  0  0
    2.0737   -0.7809    1.9714 O   0  0  0  0  0  0  0  0  0  0  0  0
    2.2021    1.6134   -3.0642 H   0  0  0  0  0  0  0  0  0  0  0  0
    1.1159    1.6414   -1.6716 H   0  0  0  0  0  0  0  0  0  0  0  0
    3.7045    0.0117   -1.8770 H   0  0  0  0  0  0  0  0  0  0  0  0
    3.4886    1.4885   -0.9377 H   0  0  0  0  0  0  0  0  0  0  0  0
    1.4658   -2.0988    0.1183 H   0  0  0  0  0  0  0  0  0  0  0  0
    2.5782   -2.0615   -1.2500 H   0  0  0  0  0  0  0  0  0  0  0  0
   -0.1475   -0.6698   -1.0655 H   0  0  0  0  0  0  0  0  0  0  0  0
    0.2407   -2.0703   -2.0663 H   0  0  0  0  0  0  0  0  0  0  0  0
    0.1983    0.1112   -3.3427 H   0  0  0  0  0  0  0  0  0  0  0  0
    1.7305   -0.7502   -3.4713 H   0  0  0  0  0  0  0  0  0  0  0  0
    2.6913    2.1975    1.2567 H   0  0  0  0  0  0  0  0  0  0  0  0
    4.6233    0.3354    2.7679 H   0  0  0  0  0  0  0  0  0  0  0  0
    4.3820    3.4337    2.4974 H   0  0  0  0  0  0  0  0  0  0  0  0
    6.3422    1.6554    4.0667 H   0  0  0  0  0  0  0  0  0  0  0  0
    4.7410    5.0847    4.0325 H   0  0  0  0  0  0  0  0  0  0  0  0
    8.4743    2.8974    4.3374 H   0  0  0  0  0  0  0  0  0  0  0  0
    9.6395    4.9962    4.9828 H   0  0  0  0  0  0  0  0  0  0  0  0
    6.9751    8.7661    5.9046 H   0  0  0  0  0  0  0  0  0  0  0  0
    7.3065    8.9058    4.1610 H   0  0  0  0  0  0  0  0  0  0  0  0
  1  2  1  0  0  0  0
  1 22  1  0  0  0  0
  1 23  1  0  0  0  0
  2  3  1  0  0  0  0
  2 24  1  0  0  0  0
  2 25  1  0  0  0  0
  3  4  1  0  0  0  0
  3  7  1  0  0  0  0
  4  5  1  0  0  0  0
  4 26  1  0  0  0  0
  4 27  1  0  0  0  0
  5  6  1  0  0  0  0
  5 28  1  0  0  0  0
  5 29  1  0  0  0  0
  6  1  1  0  0  0  0
  6 30  1  0  0  0  0
  6 31  1  0  0  0  0
  7  8  1  0  0  0  0
  7 21  2  0  0  0  0
  8  9  2  0  0  0  0
  8 32  1  0  0  0  0
  9 10  1  0  0  0  0
  9 33  1  0  0  0  0
 10 11  2  0  0  0  0
 10 34  1  0  0  0  0
 11 12  1  0  0  0  0
 11 35  1  0  0  0  0
 12 13  2  0  0  0  0
 12 14  1  0  0  0  0
 13 36  1  0  0  0  0
 14 15  2  0  0  0  0
 14 37  1  0  0  0  0
 15 16  1  0  0  0  0
 15 38  1  0  0  0  0
 16 17  2  0  0  0  0
 16 18  1  0  0  0  0
 17 13  1  0  0  0  0
 18 19  1  0  0  0  0
 19 20  1  0  0  0  0
 19 39  1  0  0  0  0
 19 40  1  0  0  0  0
 20 17  1  0  0  0  0
M  END
>  <Mol_ID>
720

>  <Formula>
C17H19NO3

>  <MolWeight>
285.33766

>  <Cat>
S2344

>  <Name>
Piperine

>  <Synonyms>
1-Piperoylpiperidine

>  <Target>
P450 (e.g. CYP17)

>  <Form>
free base

>  <CAS>
94-62-2

>  <URL>
http://selleckchem.com/products/Piperine(1-Piperoylpiperidine).html

$$$$
