Piperoxan hydrochloride
 OpenBabel08302521243D

 36 38  0  0  0  0  0  0  0  0999 V2000
   -2.5848   -0.9210    0.0063 C   0  0  0  0  0  0  0  0  0  0  0  0
   -2.7039    0.4670    0.0833 C   0  0  0  0  0  0  0  0  0  0  0  0
   -1.5579    1.2651    0.0972 C   0  0  0  0  0  0  0  0  0  0  0  0
   -0.2964    0.6768    0.0370 C   0  0  0  0  0  0  0  0  0  0  0  0
   -0.1764   -0.7129   -0.0340 C   0  0  0  0  0  0  0  0  0  0  0  0
   -1.3210   -1.5104   -0.0583 C   0  0  0  0  0  0  0  0  0  0  0  0
    0.7781    1.5249    0.0658 O   0  0  0  0  0  0  0  0  0  0  0  0
    1.9978    0.8697   -0.3068 C   0  0  0  0  0  0  0  0  0  0  0  0
    2.1161   -0.5117    0.3344 C   0  0  3  0  0  0  0  0  0  0  0  0
    1.0292   -1.3605   -0.0895 O   0  0  0  0  0  0  0  0  0  0  0  0
    3.4248   -1.2150   -0.0839 C   0  0  0  0  0  0  0  0  0  0  0  0
    4.6854   -0.5181    0.2620 N   0  0  0  0  0  0  0  0  0  0  0  0
    4.8911   -0.4873    1.7212 C   0  0  0  0  0  0  0  0  0  0  0  0
    6.2343    0.1320    2.1174 C   0  0  0  0  0  0  0  0  0  0  0  0
    7.3930   -0.5658    1.4204 C   0  0  0  0  0  0  0  0  0  0  0  0
    7.1601   -0.5577   -0.0829 C   0  0  0  0  0  0  0  0  0  0  0  0
    5.8094   -1.1839   -0.4264 C   0  0  0  0  0  0  0  0  0  0  0  0
   -3.4756   -1.5442    0.0023 H   0  0  0  0  0  0  0  0  0  0  0  0
   -3.6860    0.9300    0.1315 H   0  0  0  0  0  0  0  0  0  0  0  0
   -1.6491    2.3454    0.1464 H   0  0  0  0  0  0  0  0  0  0  0  0
   -1.2273   -2.5919   -0.1119 H   0  0  0  0  0  0  0  0  0  0  0  0
    2.8161    1.5179    0.0233 H   0  0  0  0  0  0  0  0  0  0  0  0
    2.0339    0.8118   -1.4016 H   0  0  0  0  0  0  0  0  0  0  0  0
    2.0536   -0.4388    1.4275 H   0  0  0  0  0  0  0  0  0  0  0  0
    3.4274   -2.2348    0.3270 H   0  0  0  0  0  0  0  0  0  0  0  0
    3.3799   -1.3504   -1.1743 H   0  0  0  0  0  0  0  0  0  0  0  0
    4.8262   -1.4987    2.1413 H   0  0  0  0  0  0  0  0  0  0  0  0
    4.1058    0.1147    2.1921 H   0  0  0  0  0  0  0  0  0  0  0  0
    6.3640    0.0657    3.2036 H   0  0  0  0  0  0  0  0  0  0  0  0
    6.2412    1.1985    1.8588 H   0  0  0  0  0  0  0  0  0  0  0  0
    8.3380   -0.0679    1.6612 H   0  0  0  0  0  0  0  0  0  0  0  0
    7.4720   -1.6009    1.7775 H   0  0  0  0  0  0  0  0  0  0  0  0
    7.1988    0.4733   -0.4568 H   0  0  0  0  0  0  0  0  0  0  0  0
    7.9617   -1.1109   -0.5852 H   0  0  0  0  0  0  0  0  0  0  0  0
    5.6680   -1.1012   -1.5117 H   0  0  0  0  0  0  0  0  0  0  0  0
    5.8339   -2.2527   -0.1810 H   0  0  0  0  0  0  0  0  0  0  0  0
  1  2  2  0  0  0  0
  1 18  1  0  0  0  0
  2  3  1  0  0  0  0
  2 19  1  0  0  0  0
  3  4  2  0  0  0  0
  3 20  1  0  0  0  0
  4  5  1  0  0  0  0
  4  7  1  0  0  0  0
  5  6  2  0  0  0  0
  6  1  1  0  0  0  0
  6 21  1  0  0  0  0
  7  8  1  0  0  0  0
  8  9  1  0  0  0  0
  8 22  1  0  0  0  0
  8 23  1  0  0  0  0
  9 10  1  0  0  0  0
  9 11  1  0  0  0  0
  9 24  1  0  0  0  0
 10  5  1  0  0  0  0
 11 12  1  0  0  0  0
 11 25  1  0  0  0  0
 11 26  1  0  0  0  0
 12 13  1  0  0  0  0
 13 14  1  0  0  0  0
 13 27  1  0  0  0  0
 13 28  1  0  0  0  0
 14 15  1  0  0  0  0
 14 29  1  0  0  0  0
 14 30  1  0  0  0  0
 15 16  1  0  0  0  0
 15 31  1  0  0  0  0
 15 32  1  0  0  0  0
 16 17  1  0  0  0  0
 16 33  1  0  0  0  0
 16 34  1  0  0  0  0
 17 12  1  0  0  0  0
 17 35  1  0  0  0  0
 17 36  1  0  0  0  0
M  END
>  <Mol_ID>
5041

>  <Formula>
C14H20ClNO2

>  <MolWeight>
269.7671

>  <Cat>
S0116

>  <Name>
Piperoxan hydrochloride

>  <Synonyms>
Benodaine, Fourneau 933, F933, DL-Piperoxan

>  <Target>
Adrenergic Receptor

>  <Form>
hydrochloride

>  <CAS>
135-87-5

>  <URL>
http://www.selleckchem.com/products/piperoxan-hydrochloride.html

$$$$
