Pipobroman
 OpenBabel08302521303D

 32 32  0  0  0  0  0  0  0  0999 V2000
    5.1164   -0.5871    1.1276 Br  0  0  0  0  0  0  0  0  0  0  0  0
   -5.9300   -0.5342   -0.4470 Br  0  0  0  0  0  0  0  0  0  0  0  0
    3.6231   -0.8529   -3.3142 O   0  0  0  0  0  0  0  0  0  0  0  0
   -2.9970   -1.4805   -3.9523 O   0  0  0  0  0  0  0  0  0  0  0  0
    1.5798    0.0464   -2.7699 N   0  0  0  0  0  0  0  0  0  0  0  0
   -1.1507   -0.7953   -2.7754 N   0  0  0  0  0  0  0  0  0  0  0  0
   -0.4991   -0.3660   -1.5294 C   0  0  0  0  0  0  0  0  0  0  0  0
    0.6291    0.6277   -1.8226 C   0  0  0  0  0  0  0  0  0  0  0  0
   -0.2302   -1.2732   -3.8300 C   0  0  0  0  0  0  0  0  0  0  0  0
    0.9670   -0.3255   -4.0529 C   0  0  0  0  0  0  0  0  0  0  0  0
    2.8673   -0.3760   -2.4676 C   0  0  0  0  0  0  0  0  0  0  0  0
   -2.5145   -1.0184   -2.9171 C   0  0  0  0  0  0  0  0  0  0  0  0
    3.2983   -0.2326   -1.0186 C   0  0  0  0  0  0  0  0  0  0  0  0
   -3.3987   -0.6607   -1.7350 C   0  0  0  0  0  0  0  0  0  0  0  0
    4.6797   -0.8044   -0.7649 C   0  0  0  0  0  0  0  0  0  0  0  0
   -4.8641   -0.9125   -2.0372 C   0  0  0  0  0  0  0  0  0  0  0  0
   -0.0981   -1.2687   -1.0530 H   0  0  0  0  0  0  0  0  0  0  0  0
   -1.2092    0.0898   -0.8367 H   0  0  0  0  0  0  0  0  0  0  0  0
    1.1098    0.9404   -0.8935 H   0  0  0  0  0  0  0  0  0  0  0  0
    0.2184    1.5301   -2.2937 H   0  0  0  0  0  0  0  0  0  0  0  0
    0.1336   -2.2531   -3.4977 H   0  0  0  0  0  0  0  0  0  0  0  0
   -0.7631   -1.4228   -4.7745 H   0  0  0  0  0  0  0  0  0  0  0  0
    0.6228    0.6032   -4.5245 H   0  0  0  0  0  0  0  0  0  0  0  0
    1.6943   -0.7930   -4.7231 H   0  0  0  0  0  0  0  0  0  0  0  0
    2.5697   -0.7698   -0.3996 H   0  0  0  0  0  0  0  0  0  0  0  0
    3.2830    0.8287   -0.7443 H   0  0  0  0  0  0  0  0  0  0  0  0
   -3.0868   -1.2656   -0.8748 H   0  0  0  0  0  0  0  0  0  0  0  0
   -3.2573    0.3988   -1.4925 H   0  0  0  0  0  0  0  0  0  0  0  0
    5.4614   -0.2867   -1.3265 H   0  0  0  0  0  0  0  0  0  0  0  0
    4.7311   -1.8773   -0.9711 H   0  0  0  0  0  0  0  0  0  0  0  0
   -5.2405   -0.2544   -2.8257 H   0  0  0  0  0  0  0  0  0  0  0  0
   -5.0659   -1.9530   -2.3060 H   0  0  0  0  0  0  0  0  0  0  0  0
  1 15  1  0  0  0  0
  2 16  1  0  0  0  0
  3 11  2  0  0  0  0
  4 12  2  0  0  0  0
  5  8  1  0  0  0  0
  5 10  1  0  0  0  0
  5 11  1  0  0  0  0
  6  7  1  0  0  0  0
  6  9  1  0  0  0  0
  6 12  1  0  0  0  0
  7  8  1  0  0  0  0
  7 17  1  0  0  0  0
  7 18  1  0  0  0  0
  8 19  1  0  0  0  0
  8 20  1  0  0  0  0
  9 10  1  0  0  0  0
  9 21  1  0  0  0  0
  9 22  1  0  0  0  0
 10 23  1  0  0  0  0
 10 24  1  0  0  0  0
 11 13  1  0  0  0  0
 12 14  1  0  0  0  0
 13 15  1  0  0  0  0
 13 25  1  0  0  0  0
 13 26  1  0  0  0  0
 14 16  1  0  0  0  0
 14 27  1  0  0  0  0
 14 28  1  0  0  0  0
 15 29  1  0  0  0  0
 15 30  1  0  0  0  0
 16 31  1  0  0  0  0
 16 32  1  0  0  0  0
M  END
>  <Mol_ID>
5641

>  <Formula>
C10H16Br2N2O2

>  <MolWeight>
356.05424

>  <Cat>
S4447

>  <Name>
Pipobroman

>  <Synonyms>
PB, Vercyte

>  <Target>
DNA alkylator

>  <Form>
Free Base

>  <CAS>
54-91-1

>  <URL>
http://www.selleckchem.com/products/pipobroman.html

$$$$
