Pircetam.cdx
 OpenBabel08302522003D

 20 20  0  0  0  0  0  0  0  0999 V2000
   -0.1112   -1.0890   -0.0362 N   0  0  0  0  0  0  0  0  0  0  0  0
    0.7192    0.0056    0.1351 C   0  0  0  0  0  0  0  0  0  0  0  0
   -0.1548    1.2331    0.2299 C   0  0  0  0  0  0  0  0  0  0  0  0
   -1.5056    0.7390   -0.2779 C   0  0  0  0  0  0  0  0  0  0  0  0
   -1.5035   -0.7395    0.0609 C   0  0  0  0  0  0  0  0  0  0  0  0
    0.3175   -3.0868    1.4118 C   0  0  0  0  0  0  0  0  0  0  0  0
    0.3380   -2.4768    0.0081 C   0  0  0  0  0  0  0  0  0  0  0  0
    0.1569   -4.2863    1.6178 O   0  0  0  0  0  0  0  0  0  0  0  0
    0.6167   -2.2412    2.4442 N   0  0  0  0  0  0  0  0  0  0  0  0
    1.9261   -0.0219    0.2866 O   0  0  0  0  0  0  0  0  0  0  0  0
   -0.2127    1.5457    1.2761 H   0  0  0  0  0  0  0  0  0  0  0  0
    0.2385    2.0434   -0.3888 H   0  0  0  0  0  0  0  0  0  0  0  0
   -2.3500    1.2741    0.1637 H   0  0  0  0  0  0  0  0  0  0  0  0
   -1.5543    0.8687   -1.3654 H   0  0  0  0  0  0  0  0  0  0  0  0
   -1.8541   -0.9236    1.0811 H   0  0  0  0  0  0  0  0  0  0  0  0
   -2.0922   -1.3264   -0.6496 H   0  0  0  0  0  0  0  0  0  0  0  0
   -0.3203   -3.0606   -0.6430 H   0  0  0  0  0  0  0  0  0  0  0  0
    1.3635   -2.5343   -0.3705 H   0  0  0  0  0  0  0  0  0  0  0  0
    1.0579   -1.3484    2.2542 H   0  0  0  0  0  0  0  0  0  0  0  0
    0.7546   -2.6549    3.3565 H   0  0  0  0  0  0  0  0  0  0  0  0
  1  2  1  0  0  0  0
  1  5  1  0  0  0  0
  1  7  1  0  0  0  0
  2  3  1  0  0  0  0
  2 10  2  0  0  0  0
  3  4  1  0  0  0  0
  3 11  1  0  0  0  0
  3 12  1  0  0  0  0
  4  5  1  0  0  0  0
  4 13  1  0  0  0  0
  4 14  1  0  0  0  0
  5 15  1  0  0  0  0
  5 16  1  0  0  0  0
  6  7  1  0  0  0  0
  6  8  2  0  0  0  0
  6  9  1  0  0  0  0
  7 17  1  0  0  0  0
  7 18  1  0  0  0  0
  9 19  1  0  0  0  0
  9 20  1  0  0  0  0
M  END
>  <Mol_ID>
1043

>  <Formula>
C6H10N2O2

>  <MolWeight>
142.1558

>  <Cat>
S3070

>  <Name>
Piracetam

>  <Synonyms>
UCB 6215

>  <Target>
GluR

>  <Form>
free base

>  <CAS>
7491-74-9

>  <URL>
http://selleckchem.com/products/piracetam.html

$$$$
