Pirenperone
 OpenBabel08302521243D

 53 56  0  0  0  0  0  0  0  0999 V2000
    7.6249    0.9079    0.3943 C   0  0  0  0  0  0  0  0  0  0  0  0
    7.6363    2.0099   -0.4448 N   0  0  0  0  0  0  0  0  0  0  0  0
    6.5496    0.3655    0.8747 N   0  0  0  0  0  0  0  0  0  0  0  0
    8.9471    0.3237    0.7567 C   0  0  0  0  0  0  0  0  0  0  0  0
    6.4362    2.5492   -0.8689 C   0  0  0  0  0  0  0  0  0  0  0  0
    8.8296    2.5454   -0.9144 C   0  0  0  0  0  0  0  0  0  0  0  0
    5.3484    0.9832    0.6304 C   0  0  0  0  0  0  0  0  0  0  0  0
   10.0731    0.8846    0.2988 C   0  0  0  0  0  0  0  0  0  0  0  0
    5.2216    2.0659   -0.1565 C   0  0  0  0  0  0  0  0  0  0  0  0
    6.3251    3.3843   -1.7687 O   0  0  0  0  0  0  0  0  0  0  0  0
   10.0165    2.0353   -0.5638 C   0  0  0  0  0  0  0  0  0  0  0  0
    4.1947    0.3555    1.3722 C   0  0  0  0  0  0  0  0  0  0  0  0
    3.9992    2.9264   -0.3088 C   0  0  0  0  0  0  0  0  0  0  0  0
    3.1010    2.5354   -1.4913 C   0  0  0  0  0  0  0  0  0  0  0  0
    1.8915    3.3772   -1.5336 N   0  0  0  0  0  0  0  0  0  0  0  0
    2.1954    4.7721   -1.8910 C   0  0  0  0  0  0  0  0  0  0  0  0
    0.8854    2.8215   -2.4466 C   0  0  0  0  0  0  0  0  0  0  0  0
    0.9479    5.6369   -1.7414 C   0  0  0  0  0  0  0  0  0  0  0  0
   -0.4179    3.6123   -2.3325 C   0  0  0  0  0  0  0  0  0  0  0  0
   -0.1887    5.0999   -2.6112 C   0  0  0  0  0  0  0  0  0  0  0  0
   -1.4742    5.8798   -2.3619 C   0  0  0  0  0  0  0  0  0  0  0  0
   -2.4738    6.0157   -3.4652 C   0  0  0  0  0  0  0  0  0  0  0  0
   -1.7243    6.3917   -1.2710 O   0  0  0  0  0  0  0  0  0  0  0  0
   -2.2944    5.4334   -4.7297 C   0  0  0  0  0  0  0  0  0  0  0  0
   -3.6324    6.7724   -3.2211 C   0  0  0  0  0  0  0  0  0  0  0  0
   -3.2439    5.6190   -5.7332 C   0  0  0  0  0  0  0  0  0  0  0  0
   -4.5842    6.9516   -4.2257 C   0  0  0  0  0  0  0  0  0  0  0  0
   -4.3789    6.3757   -5.4735 C   0  0  0  0  0  0  0  0  0  0  0  0
   -5.2859    6.5532   -6.4418 F   0  0  0  0  0  0  0  0  0  0  0  0
    8.9447   -0.5410    1.4082 H   0  0  0  0  0  0  0  0  0  0  0  0
    8.7575    3.4083   -1.5721 H   0  0  0  0  0  0  0  0  0  0  0  0
   11.0455    0.4820    0.5622 H   0  0  0  0  0  0  0  0  0  0  0  0
   10.9432    2.4687   -0.9250 H   0  0  0  0  0  0  0  0  0  0  0  0
    4.0729   -0.6839    1.0518 H   0  0  0  0  0  0  0  0  0  0  0  0
    4.3850    0.3658    2.4494 H   0  0  0  0  0  0  0  0  0  0  0  0
    3.2365    0.8551    1.1992 H   0  0  0  0  0  0  0  0  0  0  0  0
    3.4129    2.9223    0.6182 H   0  0  0  0  0  0  0  0  0  0  0  0
    4.3366    3.9644   -0.4044 H   0  0  0  0  0  0  0  0  0  0  0  0
    3.6469    2.5793   -2.4417 H   0  0  0  0  0  0  0  0  0  0  0  0
    2.7994    1.4892   -1.3449 H   0  0  0  0  0  0  0  0  0  0  0  0
    2.5851    4.8369   -2.9154 H   0  0  0  0  0  0  0  0  0  0  0  0
    2.9526    5.2041   -1.2320 H   0  0  0  0  0  0  0  0  0  0  0  0
    0.6706    1.7770   -2.1908 H   0  0  0  0  0  0  0  0  0  0  0  0
    1.2434    2.8353   -3.4847 H   0  0  0  0  0  0  0  0  0  0  0  0
    1.1805    6.6700   -2.0287 H   0  0  0  0  0  0  0  0  0  0  0  0
    0.6533    5.6678   -0.6841 H   0  0  0  0  0  0  0  0  0  0  0  0
   -0.8399    3.4802   -1.3267 H   0  0  0  0  0  0  0  0  0  0  0  0
   -1.1576    3.2004   -3.0289 H   0  0  0  0  0  0  0  0  0  0  0  0
    0.1316    5.2446   -3.6474 H   0  0  0  0  0  0  0  0  0  0  0  0
   -1.4240    4.8292   -4.9658 H   0  0  0  0  0  0  0  0  0  0  0  0
   -3.7970    7.2285   -2.2456 H   0  0  0  0  0  0  0  0  0  0  0  0
   -3.1038    5.1784   -6.7149 H   0  0  0  0  0  0  0  0  0  0  0  0
   -5.4796    7.5370   -4.0428 H   0  0  0  0  0  0  0  0  0  0  0  0
  1  2  1  0  0  0  0
  1  3  2  0  0  0  0
  1  4  1  0  0  0  0
  2  5  1  0  0  0  0
  2  6  1  0  0  0  0
  3  7  1  0  0  0  0
  4  8  2  0  0  0  0
  4 30  1  0  0  0  0
  5  9  1  0  0  0  0
  5 10  2  0  0  0  0
  6 11  2  0  0  0  0
  6 31  1  0  0  0  0
  7 12  1  0  0  0  0
  7  9  2  0  0  0  0
  8 11  1  0  0  0  0
  8 32  1  0  0  0  0
  9 13  1  0  0  0  0
 11 33  1  0  0  0  0
 12 34  1  0  0  0  0
 12 35  1  0  0  0  0
 12 36  1  0  0  0  0
 13 14  1  0  0  0  0
 13 37  1  0  0  0  0
 13 38  1  0  0  0  0
 14 15  1  0  0  0  0
 14 39  1  0  0  0  0
 14 40  1  0  0  0  0
 15 16  1  0  0  0  0
 15 17  1  0  0  0  0
 16 18  1  0  0  0  0
 16 41  1  0  0  0  0
 16 42  1  0  0  0  0
 17 19  1  0  0  0  0
 17 43  1  0  0  0  0
 17 44  1  0  0  0  0
 18 20  1  0  0  0  0
 18 45  1  0  0  0  0
 18 46  1  0  0  0  0
 19 20  1  0  0  0  0
 19 47  1  0  0  0  0
 19 48  1  0  0  0  0
 20 21  1  0  0  0  0
 20 49  1  0  0  0  0
 21 22  1  0  0  0  0
 21 23  2  0  0  0  0
 22 24  2  0  0  0  0
 22 25  1  0  0  0  0
 24 26  1  0  0  0  0
 24 50  1  0  0  0  0
 25 27  2  0  0  0  0
 25 51  1  0  0  0  0
 26 28  2  0  0  0  0
 26 52  1  0  0  0  0
 27 28  1  0  0  0  0
 27 53  1  0  0  0  0
 28 29  1  0  0  0  0
M  END
>  <Mol_ID>
4994

>  <Formula>
C23H24FN3O2

>  <MolWeight>
393.4539632

>  <Cat>
S0779

>  <Name>
Pirenperone

>  <Synonyms>
R-47456, R-50656

>  <Target>
5-HT Receptor

>  <Form>
Free Base

>  <CAS>
75444-65-4

>  <URL>
http://www.selleckchem.com/products/pirenperone.html

$$$$
