Pirtobrutinib (LOXO-305)
 OpenBabel08302521353D

 55 57  0  0  0  0  0  0  0  0999 V2000
    1.5340   -0.0220    0.0947 C   0  0  0  0  0  0  0  0  0  0  0  0
    0.6478   -1.1005    0.2124 C   0  0  0  0  0  0  0  0  0  0  0  0
   -0.7356   -0.8952    0.1681 C   0  0  0  0  0  0  0  0  0  0  0  0
   -1.2117    0.4221    0.1081 C   0  0  0  0  0  0  0  0  0  0  0  0
   -0.3203    1.5042    0.0072 C   0  0  0  0  0  0  0  0  0  0  0  0
    1.0657    1.2943   -0.0291 C   0  0  0  0  0  0  0  0  0  0  0  0
    1.9989    2.4096   -0.2768 C   0  0  0  0  0  0  0  0  0  0  0  0
   -1.6769   -2.0753    0.1259 C   0  0  0  0  0  0  0  0  0  0  0  0
   -2.0187   -2.5547    1.4455 N   0  0  0  0  0  0  0  0  0  0  0  0
   -2.9945   -3.5226    1.6202 C   0  0  0  0  0  0  0  0  0  0  0  0
   -3.6218   -4.0032    0.6910 O   0  0  0  0  0  0  0  0  0  0  0  0
   -3.2675   -3.9206    3.0362 C   0  0  0  0  0  0  0  0  0  0  0  0
   -3.2309   -2.8821    3.9896 C   0  0  0  0  0  0  0  0  0  0  0  0
   -3.5460   -3.1231    5.3200 C   0  0  0  0  0  0  0  0  0  0  0  0
   -3.9257   -4.3845    5.7433 C   0  0  0  0  0  0  0  0  0  0  0  0
   -3.9918   -5.4173    4.8073 C   0  0  0  0  0  0  0  0  0  0  0  0
   -3.6580   -5.2087    3.4541 C   0  0  0  0  0  0  0  0  0  0  0  0
    3.3299    2.6111    0.2326 C   0  0  0  0  0  0  0  0  0  0  0  0
    3.7983    3.7239   -0.4484 C   0  0  0  0  0  0  0  0  0  0  0  0
    2.7741    4.1449   -1.2599 N   0  0  0  0  0  0  0  0  0  0  0  0
    1.6647    3.3869   -1.1457 N   0  0  0  0  0  0  0  0  0  0  0  0
    4.9998    4.3372   -0.3842 N   0  0  0  0  0  0  0  0  0  0  0  0
    4.1249    1.8831    1.2068 C   0  0  0  0  0  0  0  0  0  0  0  0
    5.3532    1.8895    1.2208 O   0  0  0  0  0  0  0  0  0  0  0  0
    3.4545    1.2137    2.1899 N   0  0  0  0  0  0  0  0  0  0  0  0
    2.8491    5.2516   -2.1995 C   0  0  1  0  0  0  0  0  0  0  0  0
    1.9576    5.1387   -3.4387 C   0  0  0  0  0  0  0  0  0  0  0  0
    2.6874    6.5820   -1.4836 C   0  0  0  0  0  0  0  0  0  0  0  0
   -3.8464   -6.3376    2.7048 O   0  0  0  0  0  0  0  0  0  0  0  0
   -3.5038   -2.1108    6.1967 F   0  0  0  0  0  0  0  0  0  0  0  0
   -2.8788   -6.6508    1.7117 C   0  0  0  0  0  0  0  0  0  0  0  0
    2.4935    6.4803   -0.1516 F   0  0  0  0  0  0  0  0  0  0  0  0
    3.8154    7.3254   -1.6513 F   0  0  0  0  0  0  0  0  0  0  0  0
    1.6659    7.3190   -1.9787 F   0  0  0  0  0  0  0  0  0  0  0  0
    2.5990   -0.2392    0.0565 H   0  0  0  0  0  0  0  0  0  0  0  0
    1.0507   -2.1092    0.2819 H   0  0  0  0  0  0  0  0  0  0  0  0
   -2.2830    0.6169    0.0898 H   0  0  0  0  0  0  0  0  0  0  0  0
   -0.7203    2.5131   -0.0857 H   0  0  0  0  0  0  0  0  0  0  0  0
   -2.5957   -1.8190   -0.4159 H   0  0  0  0  0  0  0  0  0  0  0  0
   -1.2143   -2.9047   -0.4207 H   0  0  0  0  0  0  0  0  0  0  0  0
   -1.4447   -2.2520    2.2193 H   0  0  0  0  0  0  0  0  0  0  0  0
   -3.0004   -1.8595    3.7065 H   0  0  0  0  0  0  0  0  0  0  0  0
   -4.1941   -4.5533    6.7820 H   0  0  0  0  0  0  0  0  0  0  0  0
   -4.3187   -6.4038    5.1304 H   0  0  0  0  0  0  0  0  0  0  0  0
    5.2526    5.2347   -0.7848 H   0  0  0  0  0  0  0  0  0  0  0  0
    5.7220    3.9485    0.2305 H   0  0  0  0  0  0  0  0  0  0  0  0
    2.4624    1.3172    2.3393 H   0  0  0  0  0  0  0  0  0  0  0  0
    4.0203    0.7973    2.9150 H   0  0  0  0  0  0  0  0  0  0  0  0
    3.8731    5.2110   -2.5962 H   0  0  0  0  0  0  0  0  0  0  0  0
    0.8948    5.1853   -3.1822 H   0  0  0  0  0  0  0  0  0  0  0  0
    2.1722    5.9598   -4.1333 H   0  0  0  0  0  0  0  0  0  0  0  0
    2.1401    4.2000   -3.9717 H   0  0  0  0  0  0  0  0  0  0  0  0
   -3.2257   -6.3208    0.7312 H   0  0  0  0  0  0  0  0  0  0  0  0
   -1.8835   -6.2590    1.9408 H   0  0  0  0  0  0  0  0  0  0  0  0
   -2.8034   -7.7433    1.6601 H   0  0  0  0  0  0  0  0  0  0  0  0
  1  2  2  0  0  0  0
  1 35  1  0  0  0  0
  2  3  1  0  0  0  0
  2 36  1  0  0  0  0
  3  4  2  0  0  0  0
  3  8  1  0  0  0  0
  4  5  1  0  0  0  0
  4 37  1  0  0  0  0
  5  6  2  0  0  0  0
  5 38  1  0  0  0  0
  6  1  1  0  0  0  0
  6  7  1  0  0  0  0
  7 18  1  0  0  0  0
  8  9  1  0  0  0  0
  8 39  1  0  0  0  0
  8 40  1  0  0  0  0
  9 10  1  0  0  0  0
  9 41  1  0  0  0  0
 10 11  2  0  0  0  0
 10 12  1  0  0  0  0
 12 13  2  0  0  0  0
 13 14  1  0  0  0  0
 13 42  1  0  0  0  0
 14 15  2  0  0  0  0
 14 30  1  0  0  0  0
 15 16  1  0  0  0  0
 15 43  1  0  0  0  0
 16 17  2  0  0  0  0
 16 44  1  0  0  0  0
 17 12  1  0  0  0  0
 17 29  1  0  0  0  0
 18 19  2  0  0  0  0
 18 23  1  0  0  0  0
 19 20  1  0  0  0  0
 19 22  1  0  0  0  0
 20 21  1  0  0  0  0
 20 26  1  0  0  0  0
 21  7  2  0  0  0  0
 22 45  1  0  0  0  0
 22 46  1  0  0  0  0
 23 24  2  0  0  0  0
 23 25  1  0  0  0  0
 25 47  1  0  0  0  0
 25 48  1  0  0  0  0
 26 27  1  0  0  0  0
 26 28  1  0  0  0  0
 26 49  1  6  0  0  0
 27 50  1  0  0  0  0
 27 51  1  0  0  0  0
 27 52  1  0  0  0  0
 28 32  1  0  0  0  0
 28 33  1  0  0  0  0
 28 34  1  0  0  0  0
 29 31  1  0  0  0  0
 31 53  1  0  0  0  0
 31 54  1  0  0  0  0
 31 55  1  0  0  0  0
M  END
>  <Mol_ID>
6776

>  <Formula>
C22H21F4N5O3

>  <MolWeight>
479.4274528

>  <Cat>
S9825

>  <Name>
Pirtobrutinib (LOXO-305)

>  <Synonyms>
LY 3527727, RXC-005

>  <Target>
BTK

>  <Form>
Free base

>  <CAS>
2101700-15-4

>  <URL>
http://www.selleckchem.com/products/pirtobrutinib-loxo-305.html

$$$$
