Pitolisant hydrochloride
 OpenBabel08302520143D

 46 47  0  0  0  0  0  0  0  0999 V2000
    3.9514   -2.3488   -2.5395 N   0  0  0  0  0  0  0  0  0  0  0  0
    3.8658   -3.6638   -1.8822 C   0  0  0  0  0  0  0  0  0  0  0  0
    3.9478   -4.8476   -2.8486 C   0  0  0  0  0  0  0  0  0  0  0  0
    4.4953   -4.4512   -4.2124 C   0  0  0  0  0  0  0  0  0  0  0  0
    5.6418   -3.4637   -4.0255 C   0  0  0  0  0  0  0  0  0  0  0  0
    5.1843   -2.1707   -3.3018 C   0  0  0  0  0  0  0  0  0  0  0  0
    3.5145   -1.3095   -1.5974 C   0  0  0  0  0  0  0  0  0  0  0  0
    3.8008    0.1958   -1.6907 C   0  0  0  0  0  0  0  0  0  0  0  0
    3.4340    0.8860   -2.9923 C   0  0  0  0  0  0  0  0  0  0  0  0
    3.1347    2.2533   -2.6937 O   0  0  0  0  0  0  0  0  0  0  0  0
    2.8266    3.0422   -3.8340 C   0  0  0  0  0  0  0  0  0  0  0  0
    1.3528    2.9969   -4.2627 C   0  0  0  0  0  0  0  0  0  0  0  0
    0.8591    1.7576   -5.0252 C   0  0  0  0  0  0  0  0  0  0  0  0
    0.1858    0.5595   -4.3933 C   0  0  0  0  0  0  0  0  0  0  0  0
   -0.0839    0.3924   -3.0216 C   0  0  0  0  0  0  0  0  0  0  0  0
   -0.7084   -0.7664   -2.5543 C   0  0  0  0  0  0  0  0  0  0  0  0
   -1.1004   -1.7801   -3.4385 C   0  0  0  0  0  0  0  0  0  0  0  0
   -0.8537   -1.6273   -4.7915 C   0  0  0  0  0  0  0  0  0  0  0  0
   -0.2174   -0.4725   -5.2623 C   0  0  0  0  0  0  0  0  0  0  0  0
    2.9102   -3.7497   -1.3488 H   0  0  0  0  0  0  0  0  0  0  0  0
    4.6519   -3.7599   -1.1201 H   0  0  0  0  0  0  0  0  0  0  0  0
    2.9614   -5.3097   -2.9699 H   0  0  0  0  0  0  0  0  0  0  0  0
    4.5982   -5.6138   -2.4065 H   0  0  0  0  0  0  0  0  0  0  0  0
    4.8239   -5.3452   -4.7545 H   0  0  0  0  0  0  0  0  0  0  0  0
    3.6987   -3.9911   -4.8111 H   0  0  0  0  0  0  0  0  0  0  0  0
    6.4316   -3.9540   -3.4409 H   0  0  0  0  0  0  0  0  0  0  0  0
    6.0768   -3.2203   -5.0021 H   0  0  0  0  0  0  0  0  0  0  0  0
    6.0147   -1.8078   -2.6846 H   0  0  0  0  0  0  0  0  0  0  0  0
    5.0044   -1.4171   -4.0767 H   0  0  0  0  0  0  0  0  0  0  0  0
    2.4198   -1.3986   -1.5817 H   0  0  0  0  0  0  0  0  0  0  0  0
    3.8475   -1.5880   -0.5883 H   0  0  0  0  0  0  0  0  0  0  0  0
    3.2007    0.6606   -0.8912 H   0  0  0  0  0  0  0  0  0  0  0  0
    4.8381    0.4223   -1.4254 H   0  0  0  0  0  0  0  0  0  0  0  0
    4.2623    0.8344   -3.7046 H   0  0  0  0  0  0  0  0  0  0  0  0
    2.5618    0.4162   -3.4304 H   0  0  0  0  0  0  0  0  0  0  0  0
    3.0356    4.0801   -3.5356 H   0  0  0  0  0  0  0  0  0  0  0  0
    3.5148    2.8323   -4.6612 H   0  0  0  0  0  0  0  0  0  0  0  0
    0.6965    3.2409   -3.4219 H   0  0  0  0  0  0  0  0  0  0  0  0
    1.2611    3.8253   -4.9808 H   0  0  0  0  0  0  0  0  0  0  0  0
    0.0924    2.1410   -5.7235 H   0  0  0  0  0  0  0  0  0  0  0  0
    1.6822    1.3926   -5.6644 H   0  0  0  0  0  0  0  0  0  0  0  0
    0.2170    1.1431   -2.2972 H   0  0  0  0  0  0  0  0  0  0  0  0
   -0.8950   -0.9055   -1.4875 H   0  0  0  0  0  0  0  0  0  0  0  0
   -1.5773   -2.6833   -3.0772 H   0  0  0  0  0  0  0  0  0  0  0  0
   -1.1541   -2.4027   -5.5020 H   0  0  0  0  0  0  0  0  0  0  0  0
   -0.0286   -0.3786   -6.3314 H   0  0  0  0  0  0  0  0  0  0  0  0
  1  2  1  0  0  0  0
  1  6  1  0  0  0  0
  1  7  1  0  0  0  0
  2  3  1  0  0  0  0
  2 20  1  0  0  0  0
  2 21  1  0  0  0  0
  3  4  1  0  0  0  0
  3 22  1  0  0  0  0
  3 23  1  0  0  0  0
  4  5  1  0  0  0  0
  4 24  1  0  0  0  0
  4 25  1  0  0  0  0
  5  6  1  0  0  0  0
  5 26  1  0  0  0  0
  5 27  1  0  0  0  0
  6 28  1  0  0  0  0
  6 29  1  0  0  0  0
  7  8  1  0  0  0  0
  7 30  1  0  0  0  0
  7 31  1  0  0  0  0
  8  9  1  0  0  0  0
  8 32  1  0  0  0  0
  8 33  1  0  0  0  0
  9 10  1  0  0  0  0
  9 34  1  0  0  0  0
  9 35  1  0  0  0  0
 10 11  1  0  0  0  0
 11 12  1  0  0  0  0
 11 36  1  0  0  0  0
 11 37  1  0  0  0  0
 12 13  1  0  0  0  0
 12 38  1  0  0  0  0
 12 39  1  0  0  0  0
 13 14  1  0  0  0  0
 13 40  1  0  0  0  0
 13 41  1  0  0  0  0
 14 15  2  0  0  0  0
 14 19  1  0  0  0  0
 15 16  1  0  0  0  0
 15 42  1  0  0  0  0
 16 17  2  0  0  0  0
 16 43  1  0  0  0  0
 17 18  1  0  0  0  0
 17 44  1  0  0  0  0
 18 19  2  0  0  0  0
 18 45  1  0  0  0  0
 19 46  1  0  0  0  0
M  END
>  <Mol_ID>
3187

>  <Formula>
C17H27Cl2NO

>  <MolWeight>
332.30838

>  <Cat>
S5926

>  <Name>
Pitolisant hydrochloride

>  <Synonyms>
Tiprolisant hydrochloride, BF-2649 HCl

>  <Target>
Histamine Receptor

>  <Form>
hydrochloride

>  <CAS>
903576-44-3

>  <URL>
http://www.selleckchem.com/products/pitolisant-hydrochloride.html

$$$$
