Pizotifen
 OpenBabel08302521303D

 42 45  0  0  0  0  0  0  0  0999 V2000
    3.3175   -0.9659    0.8437 S   0  0  0  0  0  0  0  0  0  0  0  0
    0.4745    2.5756   -4.8311 N   0  0  0  0  0  0  0  0  0  0  0  0
    0.3538    1.8589   -1.9186 C   0  0  0  0  0  0  0  0  0  0  0  0
   -0.8703    2.3667   -2.6823 C   0  0  0  0  0  0  0  0  0  0  0  0
    1.6391    2.3078   -2.6073 C   0  0  0  0  0  0  0  0  0  0  0  0
    0.3183    1.0790   -0.7958 C   0  0  0  0  0  0  0  0  0  0  0  0
   -0.7714    2.1079   -4.2001 C   0  0  0  0  0  0  0  0  0  0  0  0
    1.6233    2.0056   -4.1121 C   0  0  0  0  0  0  0  0  0  0  0  0
   -1.0133    0.6406   -0.2735 C   0  0  0  0  0  0  0  0  0  0  0  0
    1.5271    0.5965   -0.1490 C   0  0  0  0  0  0  0  0  0  0  0  0
   -1.3649   -0.7244   -0.2804 C   0  0  0  0  0  0  0  0  0  0  0  0
   -0.3941   -1.7709   -0.7783 C   0  0  0  0  0  0  0  0  0  0  0  0
    0.8263   -1.9284    0.1300 C   0  0  0  0  0  0  0  0  0  0  0  0
    1.7353   -0.7283    0.2053 C   0  0  0  0  0  0  0  0  0  0  0  0
    0.5448    4.0350   -4.8999 C   0  0  0  0  0  0  0  0  0  0  0  0
    2.6344    1.4214    0.2359 C   0  0  0  0  0  0  0  0  0  0  0  0
   -1.9238    1.5816    0.2367 C   0  0  0  0  0  0  0  0  0  0  0  0
   -2.6324   -1.1130    0.1856 C   0  0  0  0  0  0  0  0  0  0  0  0
    3.6949    0.6908    0.7173 C   0  0  0  0  0  0  0  0  0  0  0  0
   -3.1868    1.1844    0.6773 C   0  0  0  0  0  0  0  0  0  0  0  0
   -3.5409   -0.1629    0.6501 C   0  0  0  0  0  0  0  0  0  0  0  0
   -0.9685    3.4410   -2.4957 H   0  0  0  0  0  0  0  0  0  0  0  0
   -1.8033    1.9100   -2.3523 H   0  0  0  0  0  0  0  0  0  0  0  0
    1.7718    3.3827   -2.4314 H   0  0  0  0  0  0  0  0  0  0  0  0
    2.5321    1.8195   -2.2170 H   0  0  0  0  0  0  0  0  0  0  0  0
   -1.6352    2.5579   -4.7048 H   0  0  0  0  0  0  0  0  0  0  0  0
   -0.8610    1.0281   -4.3759 H   0  0  0  0  0  0  0  0  0  0  0  0
    1.6198    0.9166   -4.2545 H   0  0  0  0  0  0  0  0  0  0  0  0
    2.5594    2.3560   -4.5666 H   0  0  0  0  0  0  0  0  0  0  0  0
   -0.9043   -2.7408   -0.8344 H   0  0  0  0  0  0  0  0  0  0  0  0
   -0.0945   -1.5331   -1.8076 H   0  0  0  0  0  0  0  0  0  0  0  0
    0.4955   -2.1735    1.1483 H   0  0  0  0  0  0  0  0  0  0  0  0
    1.4016   -2.7904   -0.2334 H   0  0  0  0  0  0  0  0  0  0  0  0
    0.4742    4.5231   -3.9216 H   0  0  0  0  0  0  0  0  0  0  0  0
    1.4853    4.3494   -5.3631 H   0  0  0  0  0  0  0  0  0  0  0  0
   -0.2624    4.4224   -5.5273 H   0  0  0  0  0  0  0  0  0  0  0  0
    2.6780    2.4957    0.1024 H   0  0  0  0  0  0  0  0  0  0  0  0
   -1.6606    2.6366    0.2624 H   0  0  0  0  0  0  0  0  0  0  0  0
   -2.9214   -2.1610    0.1869 H   0  0  0  0  0  0  0  0  0  0  0  0
    4.6708    1.0545    1.0112 H   0  0  0  0  0  0  0  0  0  0  0  0
   -3.8947    1.9268    1.0366 H   0  0  0  0  0  0  0  0  0  0  0  0
   -4.5229   -0.4718    0.9950 H   0  0  0  0  0  0  0  0  0  0  0  0
  1 14  1  0  0  0  0
  1 19  1  0  0  0  0
  2  7  1  0  0  0  0
  2  8  1  0  0  0  0
  2 15  1  0  0  0  0
  3  4  1  0  0  0  0
  3  5  1  0  0  0  0
  3  6  2  0  0  0  0
  4  7  1  0  0  0  0
  4 22  1  0  0  0  0
  4 23  1  0  0  0  0
  5  8  1  0  0  0  0
  5 24  1  0  0  0  0
  5 25  1  0  0  0  0
  6  9  1  0  0  0  0
  6 10  1  0  0  0  0
  7 26  1  0  0  0  0
  7 27  1  0  0  0  0
  8 28  1  0  0  0  0
  8 29  1  0  0  0  0
  9 11  2  0  0  0  0
  9 17  1  0  0  0  0
 10 14  2  0  0  0  0
 10 16  1  0  0  0  0
 11 12  1  0  0  0  0
 11 18  1  0  0  0  0
 12 13  1  0  0  0  0
 12 30  1  0  0  0  0
 12 31  1  0  0  0  0
 13 14  1  0  0  0  0
 13 32  1  0  0  0  0
 13 33  1  0  0  0  0
 15 34  1  0  0  0  0
 15 35  1  0  0  0  0
 15 36  1  0  0  0  0
 16 19  2  0  0  0  0
 16 37  1  0  0  0  0
 17 20  2  0  0  0  0
 17 38  1  0  0  0  0
 18 21  2  0  0  0  0
 18 39  1  0  0  0  0
 19 40  1  0  0  0  0
 20 21  1  0  0  0  0
 20 41  1  0  0  0  0
 21 42  1  0  0  0  0
M  END
>  <Mol_ID>
5727

>  <Formula>
C19H21NS

>  <MolWeight>
295.44174

>  <Cat>
S5770

>  <Name>
Pizotifen

>  <Synonyms>
Pizotyline, BC-105

>  <Target>
5-HT Receptor

>  <Form>
Free Base

>  <CAS>
15574-96-6

>  <URL>
http://www.selleckchem.com/products/pizotifen.html

$$$$
