Pizotifen malate.cdx
 OpenBabel08302519583D

 57 59  0  0  0  0  0  0  0  0999 V2000
    0.2209    0.5815   -1.2366 C   0  0  0  0  0  0  0  0  0  0  0  0
    1.4890    0.0739   -0.6878 C   0  0  0  0  0  0  0  0  0  0  0  0
    1.8124   -1.2560   -0.4964 C   0  0  0  0  0  0  0  0  0  0  0  0
    0.9742   -2.5010   -0.5867 C   0  0  0  0  0  0  0  0  0  0  0  0
   -0.3065   -2.3702   -1.3879 C   0  0  0  0  0  0  0  0  0  0  0  0
   -1.3100   -1.4227   -0.7765 C   0  0  0  0  0  0  0  0  0  0  0  0
   -1.0970   -0.0224   -0.7522 C   0  0  0  0  0  0  0  0  0  0  0  0
   -2.4793   -1.9917   -0.2187 C   0  0  0  0  0  0  0  0  0  0  0  0
   -3.4362   -1.2024    0.4043 C   0  0  0  0  0  0  0  0  0  0  0  0
   -3.2442    0.1720    0.4436 C   0  0  0  0  0  0  0  0  0  0  0  0
   -2.1085    0.7530   -0.1479 C   0  0  0  0  0  0  0  0  0  0  0  0
    2.5866    0.9162   -0.2666 C   0  0  0  0  0  0  0  0  0  0  0  0
    3.7457    0.2154   -0.0372 C   0  0  0  0  0  0  0  0  0  0  0  0
    3.4756   -1.4618   -0.0967 S   0  0  0  0  0  0  0  0  0  0  0  0
    0.2776    1.5421   -2.2079 C   0  0  0  0  0  0  0  0  0  0  0  0
   -0.8733    2.2531   -2.8945 C   0  0  0  0  0  0  0  0  0  0  0  0
   -0.7647    2.1786   -4.4379 C   0  0  0  0  0  0  0  0  0  0  0  0
    0.5098    2.6338   -5.0250 N   0  0  0  0  0  0  0  0  0  0  0  0
    1.6324    1.9870   -4.3461 C   0  0  0  0  0  0  0  0  0  0  0  0
    1.5873    2.0939   -2.8171 C   0  0  0  0  0  0  0  0  0  0  0  0
    0.6572    4.0870   -5.0452 C   0  0  0  0  0  0  0  0  0  0  0  0
    0.6556    0.4465    2.6503 C   0  0  0  0  0  0  0  0  0  0  0  0
    0.0731   -0.6159    2.7623 O   0  0  0  0  0  0  0  0  0  0  0  0
    2.0109    0.5026    2.6687 O   0  0  0  0  0  0  0  0  0  0  0  0
    0.0515    1.8252    2.3605 C   0  0  3  0  0  0  0  0  0  0  0  0
   -0.7888    2.3856    3.4826 C   0  0  0  0  0  0  0  0  0  0  0  0
   -2.1557    1.7995    3.5888 C   0  0  0  0  0  0  0  0  0  0  0  0
   -3.1532    2.1425    2.9797 O   0  0  0  0  0  0  0  0  0  0  0  0
   -2.2312    0.8212    4.5296 O   0  0  0  0  0  0  0  0  0  0  0  0
    1.0797    2.7944    2.0802 O   0  0  0  0  0  0  0  0  0  0  0  0
    0.7501   -2.8236    0.4395 H   0  0  0  0  0  0  0  0  0  0  0  0
    1.5701   -3.3009   -1.0447 H   0  0  0  0  0  0  0  0  0  0  0  0
   -0.7532   -3.3717   -1.4423 H   0  0  0  0  0  0  0  0  0  0  0  0
   -0.1132   -2.0729   -2.4245 H   0  0  0  0  0  0  0  0  0  0  0  0
   -2.6410   -3.0677   -0.2522 H   0  0  0  0  0  0  0  0  0  0  0  0
   -4.3137   -1.6560    0.8561 H   0  0  0  0  0  0  0  0  0  0  0  0
   -3.9741    0.7918    0.9625 H   0  0  0  0  0  0  0  0  0  0  0  0
   -2.0117    1.8342   -0.0775 H   0  0  0  0  0  0  0  0  0  0  0  0
    2.5574    2.0041   -0.2632 H   0  0  0  0  0  0  0  0  0  0  0  0
    4.7322    0.6113    0.1745 H   0  0  0  0  0  0  0  0  0  0  0  0
   -1.8530    1.8580   -2.6023 H   0  0  0  0  0  0  0  0  0  0  0  0
   -0.8667    3.3095   -2.5893 H   0  0  0  0  0  0  0  0  0  0  0  0
   -0.9043    1.1307   -4.7351 H   0  0  0  0  0  0  0  0  0  0  0  0
   -1.5949    2.7288   -4.8963 H   0  0  0  0  0  0  0  0  0  0  0  0
    1.6514    0.9263   -4.6255 H   0  0  0  0  0  0  0  0  0  0  0  0
    2.5876    2.3967   -4.7065 H   0  0  0  0  0  0  0  0  0  0  0  0
    1.7153    3.1357   -2.4962 H   0  0  0  0  0  0  0  0  0  0  0  0
    2.4822    1.5626   -2.5020 H   0  0  0  0  0  0  0  0  0  0  0  0
    0.6718    4.5385   -4.0490 H   0  0  0  0  0  0  0  0  0  0  0  0
    1.5905    4.3637   -5.5528 H   0  0  0  0  0  0  0  0  0  0  0  0
   -0.1507    4.5462   -5.6229 H   0  0  0  0  0  0  0  0  0  0  0  0
    2.2951   -0.4342    2.5776 H   0  0  0  0  0  0  0  0  0  0  0  0
   -0.5140    1.7411    1.4431 H   0  0  0  0  0  0  0  0  0  0  0  0
   -0.2758    2.3082    4.4480 H   0  0  0  0  0  0  0  0  0  0  0  0
   -0.9407    3.4608    3.3236 H   0  0  0  0  0  0  0  0  0  0  0  0
   -3.1788    0.5782    4.5635 H   0  0  0  0  0  0  0  0  0  0  0  0
    1.9063    2.2742    2.0117 H   0  0  0  0  0  0  0  0  0  0  0  0
  1  2  1  0  0  0  0
  1 15  2  0  0  0  0
  2  3  2  0  0  0  0
  2 12  1  0  0  0  0
  3  4  1  0  0  0  0
  4  5  1  0  0  0  0
  4 31  1  0  0  0  0
  4 32  1  0  0  0  0
  5  6  1  0  0  0  0
  5 33  1  0  0  0  0
  5 34  1  0  0  0  0
  6  7  2  0  0  0  0
  6  8  1  0  0  0  0
  7  1  1  0  0  0  0
  8  9  2  0  0  0  0
  8 35  1  0  0  0  0
  9 10  1  0  0  0  0
  9 36  1  0  0  0  0
 10 11  2  0  0  0  0
 10 37  1  0  0  0  0
 11  7  1  0  0  0  0
 11 38  1  0  0  0  0
 12 13  2  0  0  0  0
 12 39  1  0  0  0  0
 13 14  1  0  0  0  0
 13 40  1  0  0  0  0
 14  3  1  0  0  0  0
 15 16  1  0  0  0  0
 16 17  1  0  0  0  0
 16 41  1  0  0  0  0
 16 42  1  0  0  0  0
 17 18  1  0  0  0  0
 17 43  1  0  0  0  0
 17 44  1  0  0  0  0
 18 19  1  0  0  0  0
 18 21  1  0  0  0  0
 19 20  1  0  0  0  0
 19 45  1  0  0  0  0
 19 46  1  0  0  0  0
 20 15  1  0  0  0  0
 20 47  1  0  0  0  0
 20 48  1  0  0  0  0
 21 49  1  0  0  0  0
 21 50  1  0  0  0  0
 21 51  1  0  0  0  0
 22 25  1  0  0  0  0
 22 23  2  0  0  0  0
 22 24  1  0  0  0  0
 24 52  1  0  0  0  0
 25 26  1  0  0  0  0
 25 30  1  0  0  0  0
 25 53  1  0  0  0  0
 26 27  1  0  0  0  0
 26 54  1  0  0  0  0
 26 55  1  0  0  0  0
 27 28  2  0  0  0  0
 27 29  1  0  0  0  0
 29 56  1  0  0  0  0
 30 57  1  0  0  0  0
M  END
>  <Mol_ID>
236

>  <Formula>
C23H27NO5S

>  <MolWeight>
429.52918

>  <Cat>
S1394

>  <Name>
Pizotifen Malate

>  <Synonyms>
Sandomigran, pizotyline,BC-105

>  <Target>
5-HT Receptor

>  <Form>
Malate

>  <CAS>
5189-11-7

>  <URL>
http://selleckchem.com/products/Pizotifen-malate.html

$$$$
