PJ34.cdx
 OpenBabel08302519583D

 39 41  0  0  0  0  0  0  0  0999 V2000
   -0.8555    0.5876   -0.0176 C   0  0  0  0  0  0  0  0  0  0  0  0
    0.6114    0.7323   -0.0138 C   0  0  0  0  0  0  0  0  0  0  0  0
   -1.4312   -0.6876   -0.0221 C   0  0  0  0  0  0  0  0  0  0  0  0
   -1.7232    1.6884   -0.0128 C   0  0  0  0  0  0  0  0  0  0  0  0
    1.4152   -0.4197   -0.0051 C   0  0  0  0  0  0  0  0  0  0  0  0
    1.2652    1.9814   -0.0205 C   0  0  0  0  0  0  0  0  0  0  0  0
   -0.6014   -1.8165   -0.0223 N   0  0  0  0  0  0  0  0  0  0  0  0
   -2.8217   -0.8484   -0.0207 C   0  0  0  0  0  0  0  0  0  0  0  0
   -3.1130    1.5608   -0.0220 C   0  0  0  0  0  0  0  0  0  0  0  0
    0.7765   -1.7636   -0.0141 C   0  0  0  0  0  0  0  0  0  0  0  0
    2.8158   -0.3222    0.0074 C   0  0  0  0  0  0  0  0  0  0  0  0
    2.6596    2.0781   -0.0092 C   0  0  0  0  0  0  0  0  0  0  0  0
   -3.6612    0.2764   -0.0193 C   0  0  0  0  0  0  0  0  0  0  0  0
   -3.9677    2.6853   -0.0238 N   0  0  0  0  0  0  0  0  0  0  0  0
    1.4462   -2.7913   -0.0150 O   0  0  0  0  0  0  0  0  0  0  0  0
    3.4335    0.9267    0.0067 C   0  0  0  0  0  0  0  0  0  0  0  0
   -3.5789    4.0218   -0.0715 C   0  0  0  0  0  0  0  0  0  0  0  0
   -4.7474    5.0012   -0.0139 C   0  0  0  0  0  0  0  0  0  0  0  0
   -5.5913    4.7795    1.1826 N   0  0  0  0  0  0  0  0  0  0  0  0
   -2.4325    4.4549   -0.1694 O   0  0  0  0  0  0  0  0  0  0  0  0
   -4.8155    5.0185    2.4105 C   0  0  0  0  0  0  0  0  0  0  0  0
   -6.7174    5.7196    1.1387 C   0  0  0  0  0  0  0  0  0  0  0  0
   -1.2897    2.6755    0.0131 H   0  0  0  0  0  0  0  0  0  0  0  0
    0.7121    2.9168   -0.0368 H   0  0  0  0  0  0  0  0  0  0  0  0
   -1.0016   -2.7461   -0.0286 H   0  0  0  0  0  0  0  0  0  0  0  0
   -3.2646   -1.8413   -0.0219 H   0  0  0  0  0  0  0  0  0  0  0  0
    3.4253   -1.2238    0.0175 H   0  0  0  0  0  0  0  0  0  0  0  0
    3.1272    3.0599   -0.0140 H   0  0  0  0  0  0  0  0  0  0  0  0
   -4.7382    0.1279   -0.0201 H   0  0  0  0  0  0  0  0  0  0  0  0
   -4.9643    2.5239    0.0715 H   0  0  0  0  0  0  0  0  0  0  0  0
    4.5170    1.0034    0.0182 H   0  0  0  0  0  0  0  0  0  0  0  0
   -4.3384    6.0202   -0.0292 H   0  0  0  0  0  0  0  0  0  0  0  0
   -5.3291    4.8594   -0.9323 H   0  0  0  0  0  0  0  0  0  0  0  0
   -4.3879    6.0278    2.4426 H   0  0  0  0  0  0  0  0  0  0  0  0
   -5.4500    4.8859    3.2938 H   0  0  0  0  0  0  0  0  0  0  0  0
   -3.9987    4.2958    2.5126 H   0  0  0  0  0  0  0  0  0  0  0  0
   -6.3839    6.7645    1.1155 H   0  0  0  0  0  0  0  0  0  0  0  0
   -7.3337    5.5360    0.2519 H   0  0  0  0  0  0  0  0  0  0  0  0
   -7.3668    5.5852    2.0102 H   0  0  0  0  0  0  0  0  0  0  0  0
  1  2  1  0  0  0  0
  1  3  1  0  0  0  0
  1  4  2  0  0  0  0
  2  5  2  0  0  0  0
  2  6  1  0  0  0  0
  3  7  1  0  0  0  0
  3  8  2  0  0  0  0
  4  9  1  0  0  0  0
  4 23  1  0  0  0  0
  5 10  1  0  0  0  0
  5 11  1  0  0  0  0
  6 12  2  0  0  0  0
  6 24  1  0  0  0  0
  7 10  1  0  0  0  0
  7 25  1  0  0  0  0
  8 13  1  0  0  0  0
  8 26  1  0  0  0  0
  9 14  1  0  0  0  0
  9 13  2  0  0  0  0
 10 15  2  0  0  0  0
 11 16  2  0  0  0  0
 11 27  1  0  0  0  0
 12 16  1  0  0  0  0
 12 28  1  0  0  0  0
 13 29  1  0  0  0  0
 14 17  1  0  0  0  0
 14 30  1  0  0  0  0
 16 31  1  0  0  0  0
 17 18  1  0  0  0  0
 17 20  2  0  0  0  0
 18 19  1  0  0  0  0
 18 32  1  0  0  0  0
 18 33  1  0  0  0  0
 19 21  1  0  0  0  0
 19 22  1  0  0  0  0
 21 34  1  0  0  0  0
 21 35  1  0  0  0  0
 21 36  1  0  0  0  0
 22 37  1  0  0  0  0
 22 38  1  0  0  0  0
 22 39  1  0  0  0  0
M  END
>  <Mol_ID>
2494

>  <Formula>
C17H18ClN3O2

>  <MolWeight>
331.79672

>  <Cat>
S7300

>  <Name>
PJ34 HCl

>  <Synonyms>
N/A

>  <Target>
PARP

>  <Form>
Hydrochloride

>  <CAS>
344458-15-7

>  <URL>
http://selleckchem.com/products/pj34-hcl.html

$$$$
