PK11007.cdx
 OpenBabel08302520433D

 19 19  0  0  0  0  0  0  0  0999 V2000
    0.0355    1.2335    0.0042 C   0  0  0  0  0  0  0  0  0  0  0  0
    1.2029    0.5582    0.0208 N   0  0  0  0  0  0  0  0  0  0  0  0
    1.0908   -0.7816    0.0128 C   0  0  0  0  0  0  0  0  0  0  0  0
   -0.1167   -1.4375   -0.0105 C   0  0  0  0  0  0  0  0  0  0  0  0
   -1.2375   -0.6297   -0.0257 C   0  0  0  0  0  0  0  0  0  0  0  0
   -1.2121    0.7248   -0.0191 N   0  0  0  0  0  0  0  0  0  0  0  0
    0.1607    3.0168    0.0132 S   0  0  0  0  0  0  0  0  0  0  0  0
   -2.5874   -1.2597   -0.0508 C   0  0  0  0  0  0  0  0  0  0  0  0
   -3.5669   -0.3266   -0.0630 O   0  0  0  0  0  0  0  0  0  0  0  0
   -2.7808   -2.4624   -0.0588 O   0  0  0  0  0  0  0  0  0  0  0  0
   -0.3495    3.5035   -1.2580 O   0  0  0  0  0  0  0  0  0  0  0  0
   -0.3867    3.4937    1.2724 O   0  0  0  0  0  0  0  0  0  0  0  0
    1.9060    3.3362    0.0400 C   0  0  0  0  0  0  0  0  0  0  0  0
    2.0286   -1.3319    0.0262 H   0  0  0  0  0  0  0  0  0  0  0  0
   -0.1847   -2.5184   -0.0161 H   0  0  0  0  0  0  0  0  0  0  0  0
   -3.1794    0.5784   -0.0529 H   0  0  0  0  0  0  0  0  0  0  0  0
    2.3375    2.9066    0.9463 H   0  0  0  0  0  0  0  0  0  0  0  0
    2.3648    2.9086   -0.8538 H   0  0  0  0  0  0  0  0  0  0  0  0
    2.0530    4.4185    0.0433 H   0  0  0  0  0  0  0  0  0  0  0  0
  1  2  2  0  0  0  0
  1  7  1  0  0  0  0
  2  3  1  0  0  0  0
  3  4  2  0  0  0  0
  3 14  1  0  0  0  0
  4  5  1  0  0  0  0
  4 15  1  0  0  0  0
  5  6  2  0  0  0  0
  5  8  1  0  0  0  0
  6  1  1  0  0  0  0
  7 11  2  0  0  0  0
  7 12  2  0  0  0  0
  7 13  1  0  0  0  0
  8  9  1  0  0  0  0
  8 10  2  0  0  0  0
  9 16  1  0  0  0  0
 13 17  1  0  0  0  0
 13 18  1  0  0  0  0
 13 19  1  0  0  0  0
M  END
>  <Mol_ID>
4217

>  <Formula>
C6H5ClN2O4S

>  <MolWeight>
236.6329

>  <Cat>
S8728

>  <Name>
PK11000

>  <Synonyms>
N/A

>  <Target>
p53

>  <Form>
free base

>  <CAS>
38275-34-2

>  <URL>
https://www.selleckchem.com/products/pk11000.html

$$$$
