PK11007
 OpenBabel08302521353D

 38 40  0  0  0  0  0  0  0  0999 V2000
    1.0945    0.2346   -0.0789 S   0  0  0  0  0  0  0  0  0  0  0  0
    0.6405   -1.4912    0.1394 C   0  0  0  0  0  0  0  0  0  0  0  0
    0.6981    0.9730    1.1102 O   0  0  0  0  0  0  0  0  0  0  0  0
    0.6772    0.6553   -1.4069 O   0  0  0  0  0  0  0  0  0  0  0  0
    5.7276    2.4861   -0.2287 C   0  0  0  0  0  0  0  0  0  0  0  0
    5.0610    3.6916   -0.1804 N   0  0  0  0  0  0  0  0  0  0  0  0
    6.9452    2.3352   -0.2844 O   0  0  0  0  0  0  0  0  0  0  0  0
   -4.9753   -1.9022    0.5768 F   0  0  0  0  0  0  0  0  0  0  0  0
    6.5247    8.5069    0.7951 C   0  0  0  0  0  0  0  0  0  0  0  0
    2.8886    0.1883   -0.0832 C   0  0  0  0  0  0  0  0  0  0  0  0
    3.5369    1.3780   -0.1606 N   0  0  0  0  0  0  0  0  0  0  0  0
    3.4254   -1.0491    0.0154 N   0  0  0  0  0  0  0  0  0  0  0  0
    4.8844    1.2512   -0.1516 C   0  0  0  0  0  0  0  0  0  0  0  0
    4.7669   -1.0876    0.0357 C   0  0  0  0  0  0  0  0  0  0  0  0
    5.5489    0.0370   -0.0518 C   0  0  0  0  0  0  0  0  0  0  0  0
   -0.8614   -1.6211    0.2539 C   0  0  0  0  0  0  0  0  0  0  0  0
   -1.6549   -1.8186   -0.8886 C   0  0  0  0  0  0  0  0  0  0  0  0
   -1.4874   -1.5427    1.5097 C   0  0  0  0  0  0  0  0  0  0  0  0
   -3.0439   -1.9173   -0.7770 C   0  0  0  0  0  0  0  0  0  0  0  0
   -2.8762   -1.6407    1.6175 C   0  0  0  0  0  0  0  0  0  0  0  0
   -3.6420   -1.8221    0.4734 C   0  0  0  0  0  0  0  0  0  0  0  0
    5.7791    4.8604   -0.1081 C   0  0  0  0  0  0  0  0  0  0  0  0
    4.8993    6.2726    0.2816 S   0  0  0  0  0  0  0  0  0  0  0  0
    7.0700    5.0477   -0.2504 N   0  0  0  0  0  0  0  0  0  0  0  0
    6.4144    7.0959    0.3471 C   0  0  0  0  0  0  0  0  0  0  0  0
    7.4426    6.3496    0.0079 N   0  0  0  0  0  0  0  0  0  0  0  0
    1.0098   -2.0619   -0.7189 H   0  0  0  0  0  0  0  0  0  0  0  0
    1.1188   -1.8677    1.0494 H   0  0  0  0  0  0  0  0  0  0  0  0
    4.0549    3.7189   -0.0730 H   0  0  0  0  0  0  0  0  0  0  0  0
    5.7168    9.1282    0.3994 H   0  0  0  0  0  0  0  0  0  0  0  0
    6.5049    8.5559    1.8890 H   0  0  0  0  0  0  0  0  0  0  0  0
    7.4755    8.9375    0.4619 H   0  0  0  0  0  0  0  0  0  0  0  0
    5.2152   -2.0712    0.1302 H   0  0  0  0  0  0  0  0  0  0  0  0
    6.6308   -0.0263   -0.0333 H   0  0  0  0  0  0  0  0  0  0  0  0
   -1.2012   -1.8871   -1.8761 H   0  0  0  0  0  0  0  0  0  0  0  0
   -0.9004   -1.3919    2.4141 H   0  0  0  0  0  0  0  0  0  0  0  0
   -3.6638   -2.0601   -1.6568 H   0  0  0  0  0  0  0  0  0  0  0  0
   -3.3649   -1.5681    2.5841 H   0  0  0  0  0  0  0  0  0  0  0  0
  1  2  1  0  0  0  0
  1  3  2  0  0  0  0
  1  4  2  0  0  0  0
  1 10  1  0  0  0  0
  2 16  1  0  0  0  0
  2 27  1  0  0  0  0
  2 28  1  0  0  0  0
  5  6  1  0  0  0  0
  5  7  2  0  0  0  0
  5 13  1  0  0  0  0
  6 22  1  0  0  0  0
  6 29  1  0  0  0  0
  8 21  1  0  0  0  0
  9 25  1  0  0  0  0
  9 30  1  0  0  0  0
  9 31  1  0  0  0  0
  9 32  1  0  0  0  0
 10 11  2  0  0  0  0
 10 12  1  0  0  0  0
 11 13  1  0  0  0  0
 12 14  2  0  0  0  0
 13 15  2  0  0  0  0
 14 15  1  0  0  0  0
 14 33  1  0  0  0  0
 15 34  1  0  0  0  0
 16 17  2  0  0  0  0
 16 18  1  0  0  0  0
 17 19  1  0  0  0  0
 17 35  1  0  0  0  0
 18 20  2  0  0  0  0
 18 36  1  0  0  0  0
 19 21  2  0  0  0  0
 19 37  1  0  0  0  0
 20 21  1  0  0  0  0
 20 38  1  0  0  0  0
 22 23  1  0  0  0  0
 22 24  2  0  0  0  0
 23 25  1  0  0  0  0
 24 26  1  0  0  0  0
 25 26  2  0  0  0  0
M  END
>  <Mol_ID>
6978

>  <Formula>
C15H11ClFN5O3S2

>  <MolWeight>
427.8609432

>  <Cat>
E1735

>  <Name>
PK11007

>  <Target>
p53

>  <Form>
free base

>  <CAS>
874146-69-7

>  <URL>
https://www.selleckchem.com/products/pk11007.html

$$$$
