PKC-theta inhibitor
 OpenBabel08302520403D

 57 59  0  0  0  0  0  0  0  0999 V2000
    6.1884   -0.8378   -6.9934 F   0  0  0  0  0  0  0  0  0  0  0  0
    8.1947   -1.1651   -6.2051 F   0  0  0  0  0  0  0  0  0  0  0  0
    7.3341    0.8493   -6.1602 F   0  0  0  0  0  0  0  0  0  0  0  0
    8.7543   -7.0668    0.8972 O   0  5  0  0  0  0  0  0  0  0  0  0
    6.8208   -7.9613    1.4595 O   0  0  0  0  0  0  0  0  0  0  0  0
    6.5656   -0.7258   -4.7123 O   0  0  0  0  0  0  0  0  0  0  0  0
    7.7372   -6.5990   -1.9242 N   0  0  0  0  0  0  0  0  0  0  0  0
    9.6584  -11.6550   -1.8735 N   0  0  0  0  0  0  0  0  0  0  0  0
    6.3531   -4.7189   -1.6438 N   0  0  0  0  0  0  0  0  0  0  0  0
    7.5152   -7.1042    0.8960 N   0  3  0  0  0  0  0  0  0  0  0  0
    5.3669   -4.1608    0.4336 N   0  0  0  0  0  0  0  0  0  0  0  0
    4.9840   -2.8243   -1.4053 N   0  0  0  0  0  0  0  0  0  0  0  0
    7.9048   -7.8178   -4.0617 C   0  0  3  0  0  0  0  0  0  0  0  0
    9.4320  -10.3913   -4.0222 C   0  0  3  0  0  0  0  0  0  0  0  0
    7.3473   -9.0858   -3.3862 C   0  0  0  0  0  0  0  0  0  0  0  0
    9.4363   -7.8419   -4.1926 C   0  0  0  0  0  0  0  0  0  0  0  0
    7.8952  -10.3614   -4.0164 C   0  0  0  0  0  0  0  0  0  0  0  0
    9.9468   -9.1572   -4.7841 C   0  0  0  0  0  0  0  0  0  0  0  0
    7.4092   -6.5434   -3.3497 C   0  0  0  0  0  0  0  0  0  0  0  0
   10.0680  -10.4676   -2.6162 C   0  0  0  0  0  0  0  0  0  0  0  0
    6.9773   -5.7746   -1.0937 C   0  0  0  0  0  0  0  0  0  0  0  0
    6.8350   -6.0270    0.2536 C   0  0  0  0  0  0  0  0  0  0  0  0
    5.5966   -3.9322   -0.8685 C   0  0  0  0  0  0  0  0  0  0  0  0
    5.9865   -5.2272    0.9763 C   0  0  0  0  0  0  0  0  0  0  0  0
    5.6893   -2.1423   -2.4799 C   0  0  0  0  0  0  0  0  0  0  0  0
    4.7269   -1.4052   -3.3948 C   0  0  0  0  0  0  0  0  0  0  0  0
    5.2150   -0.6669   -4.4958 C   0  0  0  0  0  0  0  0  0  0  0  0
    3.3374   -1.4730   -3.1906 C   0  0  0  0  0  0  0  0  0  0  0  0
    4.3231    0.0636   -5.2880 C   0  0  0  0  0  0  0  0  0  0  0  0
    2.4536   -0.7930   -4.0242 C   0  0  0  0  0  0  0  0  0  0  0  0
    2.9475   -0.0109   -5.0608 C   0  0  0  0  0  0  0  0  0  0  0  0
    7.0489   -0.4651   -6.0216 C   0  0  0  0  0  0  0  0  0  0  0  0
    8.7304   -6.4811   -1.7287 H   0  0  0  0  0  0  0  0  0  0  0  0
   10.1008  -11.6371   -0.9542 H   0  0  0  0  0  0  0  0  0  0  0  0
    8.6566  -11.6141   -1.6887 H   0  0  0  0  0  0  0  0  0  0  0  0
    4.6767   -2.2293   -0.6456 H   0  0  0  0  0  0  0  0  0  0  0  0
    7.5008   -7.7906   -5.0840 H   0  0  0  0  0  0  0  0  0  0  0  0
    9.7468  -11.2839   -4.5795 H   0  0  0  0  0  0  0  0  0  0  0  0
    7.5812   -9.0948   -2.3157 H   0  0  0  0  0  0  0  0  0  0  0  0
    6.2529   -9.0876   -3.4598 H   0  0  0  0  0  0  0  0  0  0  0  0
    9.7582   -7.0140   -4.8367 H   0  0  0  0  0  0  0  0  0  0  0  0
    9.9119   -7.6729   -3.2208 H   0  0  0  0  0  0  0  0  0  0  0  0
    7.4855  -11.2349   -3.4980 H   0  0  0  0  0  0  0  0  0  0  0  0
    7.5326  -10.4280   -5.0505 H   0  0  0  0  0  0  0  0  0  0  0  0
   11.0429   -9.1514   -4.8002 H   0  0  0  0  0  0  0  0  0  0  0  0
    9.6219   -9.2240   -5.8308 H   0  0  0  0  0  0  0  0  0  0  0  0
    6.3198   -6.4987   -3.4882 H   0  0  0  0  0  0  0  0  0  0  0  0
    7.8430   -5.6490   -3.8125 H   0  0  0  0  0  0  0  0  0  0  0  0
   11.1590  -10.4892   -2.7190 H   0  0  0  0  0  0  0  0  0  0  0  0
    9.8263   -9.5842   -2.0168 H   0  0  0  0  0  0  0  0  0  0  0  0
    5.7719   -5.4061    2.0258 H   0  0  0  0  0  0  0  0  0  0  0  0
    6.2677   -2.8321   -3.1055 H   0  0  0  0  0  0  0  0  0  0  0  0
    6.3853   -1.4179   -2.0360 H   0  0  0  0  0  0  0  0  0  0  0  0
    2.9196   -2.0750   -2.3865 H   0  0  0  0  0  0  0  0  0  0  0  0
    4.6639    0.6940   -6.1069 H   0  0  0  0  0  0  0  0  0  0  0  0
    1.3830   -0.8764   -3.8583 H   0  0  0  0  0  0  0  0  0  0  0  0
    2.2589    0.5300   -5.7044 H   0  0  0  0  0  0  0  0  0  0  0  0
  1 32  1  0  0  0  0
  2 32  1  0  0  0  0
  3 32  1  0  0  0  0
  4 10  1  0  0  0  0
  5 10  2  0  0  0  0
  6 27  1  0  0  0  0
  6 32  1  0  0  0  0
  7 19  1  0  0  0  0
  7 21  1  0  0  0  0
  7 33  1  0  0  0  0
  8 20  1  0  0  0  0
  8 34  1  0  0  0  0
  8 35  1  0  0  0  0
  9 21  2  0  0  0  0
  9 23  1  0  0  0  0
 10 22  1  0  0  0  0
 11 23  2  0  0  0  0
 11 24  1  0  0  0  0
 12 23  1  0  0  0  0
 12 25  1  0  0  0  0
 12 36  1  0  0  0  0
 13 15  1  0  0  0  0
 13 16  1  0  0  0  0
 13 19  1  0  0  0  0
 13 37  1  0  0  0  0
 14 17  1  0  0  0  0
 14 18  1  0  0  0  0
 14 20  1  0  0  0  0
 14 38  1  0  0  0  0
 15 17  1  0  0  0  0
 15 39  1  0  0  0  0
 15 40  1  0  0  0  0
 16 18  1  0  0  0  0
 16 41  1  0  0  0  0
 16 42  1  0  0  0  0
 17 43  1  0  0  0  0
 17 44  1  0  0  0  0
 18 45  1  0  0  0  0
 18 46  1  0  0  0  0
 19 47  1  0  0  0  0
 19 48  1  0  0  0  0
 20 49  1  0  0  0  0
 20 50  1  0  0  0  0
 21 22  1  0  0  0  0
 22 24  2  0  0  0  0
 24 51  1  0  0  0  0
 25 26  1  0  0  0  0
 25 52  1  0  0  0  0
 25 53  1  0  0  0  0
 26 27  2  0  0  0  0
 26 28  1  0  0  0  0
 27 29  1  0  0  0  0
 28 30  2  0  0  0  0
 28 54  1  0  0  0  0
 29 31  2  0  0  0  0
 29 55  1  0  0  0  0
 30 31  1  0  0  0  0
 30 56  1  0  0  0  0
 31 57  1  0  0  0  0
M  CHG  2   4  -1  10   1
M  END
>  <Mol_ID>
3846

>  <Formula>
C20H25F3N6O3

>  <MolWeight>
454.4461096

>  <Cat>
S6577

>  <Name>
PKC-theta inhibitor

>  <Synonyms>
N/A

>  <Target>
PKC

>  <Form>
free base

>  <CAS>
736048-65-0

>  <URL>
http://www.selleck.cn/products/pkc-theta-inhibitor.html

$$$$
