PKR-IN-C16
 OpenBabel08302521303D

 27 30  0  0  0  0  0  0  0  0999 V2000
    1.7091   -1.7952    0.0948 S   0  0  0  0  0  0  0  0  0  0  0  0
    3.0983   -0.7714    0.0167 C   0  0  0  0  0  0  0  0  0  0  0  0
    2.8702    0.5296    0.0244 N   0  0  0  0  0  0  0  0  0  0  0  0
    1.5049    0.7491    0.0691 C   0  0  0  0  0  0  0  0  0  0  0  0
    0.7703   -0.4177    0.1350 C   0  0  0  0  0  0  0  0  0  0  0  0
    0.8010    1.9749    0.0269 C   0  0  0  0  0  0  0  0  0  0  0  0
   -0.6078    1.9988    0.0008 C   0  0  0  0  0  0  0  0  0  0  0  0
   -1.2428    0.7652    0.0385 C   0  0  0  0  0  0  0  0  0  0  0  0
   -0.5882   -0.4902    0.1374 C   0  0  0  0  0  0  0  0  0  0  0  0
   -2.6027    0.5610   -0.0553 N   0  0  0  0  0  0  0  0  0  0  0  0
   -1.6646   -1.5573    0.1673 C   0  0  0  0  0  0  0  0  0  0  0  0
   -2.9545   -0.7811   -0.0605 C   0  0  0  0  0  0  0  0  0  0  0  0
   -4.0742   -1.2130   -0.2720 O   0  0  0  0  0  0  0  0  0  0  0  0
   -1.5321   -2.8726    0.4035 C   0  0  0  0  0  0  0  0  0  0  0  0
   -4.4365   -4.8519   -0.2222 C   0  0  0  0  0  0  0  0  0  0  0  0
   -3.9247   -5.6440    0.6927 N   0  0  0  0  0  0  0  0  0  0  0  0
   -2.7653   -5.0270    1.0902 C   0  0  0  0  0  0  0  0  0  0  0  0
   -2.5650   -3.8416    0.4085 C   0  0  0  0  0  0  0  0  0  0  0  0
   -3.6373   -3.7709   -0.4452 N   0  0  0  0  0  0  0  0  0  0  0  0
    4.0973   -1.1835   -0.0421 H   0  0  0  0  0  0  0  0  0  0  0  0
    1.3621    2.9039   -0.0204 H   0  0  0  0  0  0  0  0  0  0  0  0
   -1.1619    2.9280   -0.0619 H   0  0  0  0  0  0  0  0  0  0  0  0
   -3.2900    1.2841   -0.2044 H   0  0  0  0  0  0  0  0  0  0  0  0
   -0.5541   -3.2631    0.6661 H   0  0  0  0  0  0  0  0  0  0  0  0
   -5.3692   -4.9961   -0.7477 H   0  0  0  0  0  0  0  0  0  0  0  0
   -2.1404   -5.4678    1.8563 H   0  0  0  0  0  0  0  0  0  0  0  0
   -3.8598   -2.9969   -1.0604 H   0  0  0  0  0  0  0  0  0  0  0  0
  1  2  1  0  0  0  0
  1  5  1  0  0  0  0
  2  3  2  0  0  0  0
  2 20  1  0  0  0  0
  3  4  1  0  0  0  0
  4  5  2  0  0  0  0
  4  6  1  0  0  0  0
  5  9  1  0  0  0  0
  6  7  2  0  0  0  0
  6 21  1  0  0  0  0
  7  8  1  0  0  0  0
  7 22  1  0  0  0  0
  8  9  2  0  0  0  0
  8 10  1  0  0  0  0
  9 11  1  0  0  0  0
 10 12  1  0  0  0  0
 10 23  1  0  0  0  0
 11 12  1  0  0  0  0
 11 14  2  0  0  0  0
 12 13  2  0  0  0  0
 14 18  1  0  0  0  0
 14 24  1  0  0  0  0
 15 16  2  0  0  0  0
 15 19  1  0  0  0  0
 15 25  1  0  0  0  0
 16 17  1  0  0  0  0
 17 18  2  0  0  0  0
 17 26  1  0  0  0  0
 18 19  1  0  0  0  0
 19 27  1  0  0  0  0
M  END
>  <Mol_ID>
5651

>  <Formula>
C13H8N4OS

>  <MolWeight>
268.29382

>  <Cat>
S9668

>  <Name>
PKR-IN-C16

>  <Synonyms>
imoxin, C16, Imidazolo-oxindole PKR inhibitor C16

>  <Target>
Apoptosis related,eIF,Interleukins,PKR

>  <Form>
Free Base

>  <CAS>
608512-97-6

>  <URL>
http://www.selleckchem.com/products/pkr-in-c16.html

$$$$
