PKR-IN-2
 OpenBabel08302521343D

 61 64  0  0  0  0  0  0  0  0999 V2000
    0.6644   -0.0820   -0.2934 S   0  0  0  0  0  0  0  0  0  0  0  0
    0.2753    0.5239    1.2568 N   0  0  0  0  0  0  0  0  0  0  0  0
    1.3986    0.9303   -1.0140 O   0  0  0  0  0  0  0  0  0  0  0  0
   -0.5195   -0.6963   -0.8658 O   0  0  0  0  0  0  0  0  0  0  0  0
   -2.9911    5.1707    0.8704 C   0  0  0  0  0  0  0  0  0  0  0  0
   -2.7481    6.2136    1.4771 O   0  0  0  0  0  0  0  0  0  0  0  0
   -3.4415    5.9226   -4.3054 C   0  0  0  0  0  0  0  0  0  0  0  0
   -3.3374    4.8574   -5.4269 C   0  0  0  0  0  0  0  0  0  0  0  0
   -4.6938    4.3973   -5.9601 C   0  0  0  0  0  0  0  0  0  0  0  0
   -2.4974    5.4144   -6.5816 C   0  0  0  0  0  0  0  0  0  0  0  0
   -5.5745    5.2655   -3.3007 O   0  0  0  0  0  0  0  0  0  0  0  0
    1.3658   -2.3943    0.9819 C   0  0  0  0  0  0  0  0  0  0  0  0
    1.8057   -1.3731    0.1384 C   0  0  0  0  0  0  0  0  0  0  0  0
    2.2991   -3.4044    1.3285 C   0  0  0  0  0  0  0  0  0  0  0  0
    0.1043   -2.4368    1.4886 N   0  0  0  0  0  0  0  0  0  0  0  0
    3.1207   -1.3119   -0.3435 C   0  0  0  0  0  0  0  0  0  0  0  0
    3.6032   -3.3349    0.8542 C   0  0  0  0  0  0  0  0  0  0  0  0
    1.9661   -4.4388    2.1225 N   0  0  0  0  0  0  0  0  0  0  0  0
   -0.2168   -3.5004    2.2588 C   0  0  0  0  0  0  0  0  0  0  0  0
    4.0252   -2.2975    0.0257 C   0  0  0  0  0  0  0  0  0  0  0  0
    0.6947   -4.4798    2.5709 C   0  0  0  0  0  0  0  0  0  0  0  0
   -0.5494    1.6932    1.2786 C   0  0  0  0  0  0  0  0  0  0  0  0
   -1.9366    1.5615    1.3105 C   0  0  0  0  0  0  0  0  0  0  0  0
    0.0341    2.9613    1.2533 C   0  0  0  0  0  0  0  0  0  0  0  0
   -2.7414    2.7021    1.3376 C   0  0  0  0  0  0  0  0  0  0  0  0
   -0.7740    4.1040    1.2157 C   0  0  0  0  0  0  0  0  0  0  0  0
   -2.1658    3.9704    1.1869 C   0  0  0  0  0  0  0  0  0  0  0  0
   -3.9503    5.0736   -0.1457 N   0  0  0  0  0  0  0  0  0  0  0  0
   -4.6491    6.2732   -0.5977 C   0  0  0  0  0  0  0  0  0  0  0  0
   -4.1369    3.9377   -1.0512 C   0  0  0  0  0  0  0  0  0  0  0  0
   -4.1491    6.6880   -1.9884 C   0  0  0  0  0  0  0  0  0  0  0  0
   -3.5966    4.2457   -2.4328 C   0  0  0  0  0  0  0  0  0  0  0  0
   -4.1978    5.5263   -3.0116 C   0  0  0  0  0  0  0  0  0  0  0  0
   -0.1632   -0.2575    1.7586 H   0  0  0  0  0  0  0  0  0  0  0  0
   -3.9055    6.8240   -4.7252 H   0  0  0  0  0  0  0  0  0  0  0  0
   -2.4158    6.2022   -4.0239 H   0  0  0  0  0  0  0  0  0  0  0  0
   -2.8045    3.9772   -5.0461 H   0  0  0  0  0  0  0  0  0  0  0  0
   -5.3666    5.2452   -6.1225 H   0  0  0  0  0  0  0  0  0  0  0  0
   -4.5867    3.8670   -6.9127 H   0  0  0  0  0  0  0  0  0  0  0  0
   -5.1725    3.7015   -5.2641 H   0  0  0  0  0  0  0  0  0  0  0  0
   -1.4870    5.6650   -6.2418 H   0  0  0  0  0  0  0  0  0  0  0  0
   -2.4007    4.6765   -7.3856 H   0  0  0  0  0  0  0  0  0  0  0  0
   -2.9517    6.3173   -7.0024 H   0  0  0  0  0  0  0  0  0  0  0  0
   -5.9279    6.0218   -3.7990 H   0  0  0  0  0  0  0  0  0  0  0  0
    3.4445   -0.4985   -0.9898 H   0  0  0  0  0  0  0  0  0  0  0  0
    4.3098   -4.1103    1.1454 H   0  0  0  0  0  0  0  0  0  0  0  0
   -1.2407   -3.5413    2.6168 H   0  0  0  0  0  0  0  0  0  0  0  0
    5.0551   -2.2631   -0.3222 H   0  0  0  0  0  0  0  0  0  0  0  0
    0.4364   -5.3287    3.1943 H   0  0  0  0  0  0  0  0  0  0  0  0
   -2.4050    0.5813    1.2789 H   0  0  0  0  0  0  0  0  0  0  0  0
    1.1158    3.0674    1.2456 H   0  0  0  0  0  0  0  0  0  0  0  0
   -3.8233    2.5924    1.3695 H   0  0  0  0  0  0  0  0  0  0  0  0
   -0.3207    5.0925    1.1724 H   0  0  0  0  0  0  0  0  0  0  0  0
   -4.5183    7.1005    0.1076 H   0  0  0  0  0  0  0  0  0  0  0  0
   -5.7211    6.0425   -0.6295 H   0  0  0  0  0  0  0  0  0  0  0  0
   -3.6245    3.0381   -0.7362 H   0  0  0  0  0  0  0  0  0  0  0  0
   -5.2063    3.7016   -1.0703 H   0  0  0  0  0  0  0  0  0  0  0  0
   -3.1209    7.0575   -1.8945 H   0  0  0  0  0  0  0  0  0  0  0  0
   -4.7688    7.5216   -2.3431 H   0  0  0  0  0  0  0  0  0  0  0  0
   -3.8337    3.3844   -3.0684 H   0  0  0  0  0  0  0  0  0  0  0  0
   -2.5041    4.3317   -2.3787 H   0  0  0  0  0  0  0  0  0  0  0  0
  1  2  1  0  0  0  0
  1  3  2  0  0  0  0
  1  4  2  0  0  0  0
  1 13  1  0  0  0  0
  2 22  1  0  0  0  0
  2 34  1  0  0  0  0
  5  6  2  0  0  0  0
  5 27  1  0  0  0  0
  5 28  1  0  0  0  0
  7  8  1  0  0  0  0
  7 33  1  0  0  0  0
  7 35  1  0  0  0  0
  7 36  1  0  0  0  0
  8  9  1  0  0  0  0
  8 10  1  0  0  0  0
  8 37  1  0  0  0  0
  9 38  1  0  0  0  0
  9 39  1  0  0  0  0
  9 40  1  0  0  0  0
 10 41  1  0  0  0  0
 10 42  1  0  0  0  0
 10 43  1  0  0  0  0
 11 33  1  0  0  0  0
 11 44  1  0  0  0  0
 12 13  1  0  0  0  0
 12 14  1  0  0  0  0
 12 15  2  0  0  0  0
 13 16  2  0  0  0  0
 14 17  1  0  0  0  0
 14 18  2  0  0  0  0
 15 19  1  0  0  0  0
 16 20  1  0  0  0  0
 16 45  1  0  0  0  0
 17 20  2  0  0  0  0
 17 46  1  0  0  0  0
 18 21  1  0  0  0  0
 19 21  2  0  0  0  0
 19 47  1  0  0  0  0
 20 48  1  0  0  0  0
 21 49  1  0  0  0  0
 22 23  2  0  0  0  0
 22 24  1  0  0  0  0
 23 25  1  0  0  0  0
 23 50  1  0  0  0  0
 24 26  2  0  0  0  0
 24 51  1  0  0  0  0
 25 27  2  0  0  0  0
 25 52  1  0  0  0  0
 26 27  1  0  0  0  0
 26 53  1  0  0  0  0
 28 29  1  0  0  0  0
 28 30  1  0  0  0  0
 29 31  1  0  0  0  0
 29 54  1  0  0  0  0
 29 55  1  0  0  0  0
 30 32  1  0  0  0  0
 30 56  1  0  0  0  0
 30 57  1  0  0  0  0
 31 33  1  0  0  0  0
 31 58  1  0  0  0  0
 31 59  1  0  0  0  0
 32 33  1  0  0  0  0
 32 60  1  0  0  0  0
 32 61  1  0  0  0  0
M  END
>  <Mol_ID>
6449

>  <Formula>
C24H28N4O4S

>  <MolWeight>
468.56852

>  <Cat>
E2388

>  <Name>
PKR-IN-2

>  <Target>
PKR

>  <Form>
free base

>  <CAS>
1628428-01-2

>  <URL>
http://www.selleckchem.com/products/pkr-in-2.html

$$$$
