Pleconaril
 OpenBabel08302521243D

 45 47  0  0  0  0  0  0  0  0999 V2000
   -0.6280   -0.9149    1.0052 O   0  0  0  0  0  0  0  0  0  0  0  0
   -0.4338    0.3867    1.4683 N   0  0  0  0  0  0  0  0  0  0  0  0
   -0.0010    1.0557    0.3909 C   0  0  0  0  0  0  0  0  0  0  0  0
    0.1211    0.2663   -0.7362 N   0  0  0  0  0  0  0  0  0  0  0  0
   -0.2780   -0.9160   -0.3146 C   0  0  0  0  0  0  0  0  0  0  0  0
   -0.4070   -2.2064   -1.0417 C   0  0  0  0  0  0  0  0  0  0  0  0
   -0.8764   -3.2152   -0.2593 F   0  0  0  0  0  0  0  0  0  0  0  0
   -1.2578   -2.1157   -2.1008 F   0  0  0  0  0  0  0  0  0  0  0  0
    0.7847   -2.6338   -1.5427 F   0  0  0  0  0  0  0  0  0  0  0  0
    0.3357    2.4753    0.3375 C   0  0  0  0  0  0  0  0  0  0  0  0
    0.1954    3.3205    1.4348 C   0  0  0  0  0  0  0  0  0  0  0  0
    0.5637    4.6787    1.3410 C   0  0  0  0  0  0  0  0  0  0  0  0
    1.1291    5.1892    0.1470 C   0  0  0  0  0  0  0  0  0  0  0  0
    1.0378    4.4113   -1.0117 C   0  0  0  0  0  0  0  0  0  0  0  0
    0.7215    3.0438   -0.8814 C   0  0  0  0  0  0  0  0  0  0  0  0
    1.6621    6.4455    0.2468 O   0  0  0  0  0  0  0  0  0  0  0  0
    2.7738    6.8195   -0.5737 C   0  0  0  0  0  0  0  0  0  0  0  0
    4.1606    6.6651    0.0493 C   0  0  0  0  0  0  0  0  0  0  0  0
    4.6248    5.2527    0.3847 C   0  0  0  0  0  0  0  0  0  0  0  0
    5.6127    4.7297   -1.7979 O   0  0  0  0  0  0  0  0  0  0  0  0
    5.9908    3.6316   -2.5632 N   0  0  0  0  0  0  0  0  0  0  0  0
    5.4939    2.5606   -1.9297 C   0  0  0  0  0  0  0  0  0  0  0  0
    4.6899    2.9464   -0.8355 C   0  0  0  0  0  0  0  0  0  0  0  0
    4.8745    4.3053   -0.7346 C   0  0  0  0  0  0  0  0  0  0  0  0
    5.8862    1.1872   -2.3305 C   0  0  0  0  0  0  0  0  0  0  0  0
    0.9091    4.9513   -2.4147 C   0  0  0  0  0  0  0  0  0  0  0  0
    0.2404    5.5979    2.4920 C   0  0  0  0  0  0  0  0  0  0  0  0
   -0.2230    2.9373    2.3648 H   0  0  0  0  0  0  0  0  0  0  0  0
    0.7097    2.4263   -1.7798 H   0  0  0  0  0  0  0  0  0  0  0  0
    2.8033    6.3512   -1.5489 H   0  0  0  0  0  0  0  0  0  0  0  0
    2.6278    7.8922   -0.7552 H   0  0  0  0  0  0  0  0  0  0  0  0
    4.8867    7.1292   -0.6320 H   0  0  0  0  0  0  0  0  0  0  0  0
    4.1882    7.2464    0.9786 H   0  0  0  0  0  0  0  0  0  0  0  0
    5.5920    5.3540    0.8970 H   0  0  0  0  0  0  0  0  0  0  0  0
    3.9477    4.7957    1.1129 H   0  0  0  0  0  0  0  0  0  0  0  0
    4.1889    2.3095   -0.1236 H   0  0  0  0  0  0  0  0  0  0  0  0
    5.5669    0.9548   -3.3500 H   0  0  0  0  0  0  0  0  0  0  0  0
    6.9754    1.0740   -2.2737 H   0  0  0  0  0  0  0  0  0  0  0  0
    5.4493    0.4414   -1.6564 H   0  0  0  0  0  0  0  0  0  0  0  0
   -0.1588    5.0908   -2.6222 H   0  0  0  0  0  0  0  0  0  0  0  0
    1.3738    5.9114   -2.6125 H   0  0  0  0  0  0  0  0  0  0  0  0
    1.3069    4.2373   -3.1434 H   0  0  0  0  0  0  0  0  0  0  0  0
    1.1464    6.0310    2.9214 H   0  0  0  0  0  0  0  0  0  0  0  0
   -0.4238    6.3982    2.1417 H   0  0  0  0  0  0  0  0  0  0  0  0
   -0.3023    5.0705    3.2857 H   0  0  0  0  0  0  0  0  0  0  0  0
  1  2  1  0  0  0  0
  1  5  1  0  0  0  0
  2  3  2  0  0  0  0
  3  4  1  0  0  0  0
  3 10  1  0  0  0  0
  4  5  2  0  0  0  0
  5  6  1  0  0  0  0
  6  7  1  0  0  0  0
  6  8  1  0  0  0  0
  6  9  1  0  0  0  0
 10 11  2  0  0  0  0
 10 15  1  0  0  0  0
 11 12  1  0  0  0  0
 11 28  1  0  0  0  0
 12 13  2  0  0  0  0
 12 27  1  0  0  0  0
 13 14  1  0  0  0  0
 13 16  1  0  0  0  0
 14 15  2  0  0  0  0
 14 26  1  0  0  0  0
 15 29  1  0  0  0  0
 16 17  1  0  0  0  0
 17 18  1  0  0  0  0
 17 30  1  0  0  0  0
 17 31  1  0  0  0  0
 18 19  1  0  0  0  0
 18 32  1  0  0  0  0
 18 33  1  0  0  0  0
 19 24  1  0  0  0  0
 19 34  1  0  0  0  0
 19 35  1  0  0  0  0
 20 21  1  0  0  0  0
 20 24  1  0  0  0  0
 21 22  2  0  0  0  0
 22 23  1  0  0  0  0
 22 25  1  0  0  0  0
 23 24  2  0  0  0  0
 23 36  1  0  0  0  0
 25 37  1  0  0  0  0
 25 38  1  0  0  0  0
 25 39  1  0  0  0  0
 26 40  1  0  0  0  0
 26 41  1  0  0  0  0
 26 42  1  0  0  0  0
 27 43  1  0  0  0  0
 27 44  1  0  0  0  0
 27 45  1  0  0  0  0
M  END
>  <Mol_ID>
4983

>  <Formula>
C18H18F3N3O3

>  <MolWeight>
381.3490296

>  <Cat>
S0436

>  <Name>
Pleconaril

>  <Synonyms>
APO-P001, Picovir, VP 63843, WIN 63843

>  <Target>
Enterovirus

>  <Form>
Free Base

>  <CAS>
153168-05-9

>  <URL>
http://www.selleckchem.com/products/pleconaril.html

$$$$
