PLpro inhibitor
 OpenBabel08302521263D

 48 50  0  0  0  0  0  0  0  0999 V2000
    2.8725   -1.1256   -0.2198 O   0  0  0  0  0  0  0  0  0  0  0  0
   -1.1916    3.2757    0.8072 O   0  0  0  0  0  0  0  0  0  0  0  0
    2.7052    1.1569   -0.0264 N   0  0  0  0  0  0  0  0  0  0  0  0
   -2.3494    1.9180   -0.6954 N   0  0  0  0  0  0  0  0  0  0  0  0
    4.1014    1.4726    0.2756 C   0  0  1  0  0  0  0  0  0  0  0  0
    4.5602    1.0419    1.6711 C   0  0  0  0  0  0  0  0  0  0  0  0
    3.9610    1.5927    2.8529 C   0  0  0  0  0  0  0  0  0  0  0  0
    4.4685    1.2273    4.1277 C   0  0  0  0  0  0  0  0  0  0  0  0
    4.9968    1.1269   -0.9235 C   0  0  0  0  0  0  0  0  0  0  0  0
    5.6280    0.1345    1.8223 C   0  0  0  0  0  0  0  0  0  0  0  0
    2.2179   -0.0977   -0.3356 C   0  0  0  0  0  0  0  0  0  0  0  0
    0.8228   -0.1161   -0.9112 C   0  0  0  0  0  0  0  0  0  0  0  0
    2.8677    2.4939    2.8413 C   0  0  0  0  0  0  0  0  0  0  0  0
    5.5755    0.3758    4.2246 C   0  0  0  0  0  0  0  0  0  0  0  0
    6.1442   -0.1776    3.0795 C   0  0  0  0  0  0  0  0  0  0  0  0
    3.8663    1.7129    5.3021 C   0  0  0  0  0  0  0  0  0  0  0  0
    0.4481   -1.0196   -1.9292 C   0  0  0  0  0  0  0  0  0  0  0  0
   -0.1210    0.8339   -0.4530 C   0  0  0  0  0  0  0  0  0  0  0  0
    2.2597    2.9476    4.0144 C   0  0  0  0  0  0  0  0  0  0  0  0
    2.7521    2.5470    5.2461 C   0  0  0  0  0  0  0  0  0  0  0  0
   -1.3962    0.9284   -1.0201 C   0  0  0  0  0  0  0  0  0  0  0  0
   -0.8630   -0.9620   -2.4349 C   0  0  0  0  0  0  0  0  0  0  0  0
   -1.7666    0.0045   -1.9962 C   0  0  0  0  0  0  0  0  0  0  0  0
    1.3454   -2.0651   -2.5358 C   0  0  0  0  0  0  0  0  0  0  0  0
   -2.1886    3.0015    0.1516 C   0  0  0  0  0  0  0  0  0  0  0  0
   -3.4181    3.8777    0.1863 C   0  0  0  0  0  0  0  0  0  0  0  0
    2.1105    1.9557   -0.1910 H   0  0  0  0  0  0  0  0  0  0  0  0
   -3.2310    1.8603   -1.1912 H   0  0  0  0  0  0  0  0  0  0  0  0
    4.1312    2.5706    0.3082 H   0  0  0  0  0  0  0  0  0  0  0  0
    4.6352    1.6513   -1.8175 H   0  0  0  0  0  0  0  0  0  0  0  0
    6.0332    1.4389   -0.7583 H   0  0  0  0  0  0  0  0  0  0  0  0
    4.9941    0.0580   -1.1586 H   0  0  0  0  0  0  0  0  0  0  0  0
    6.0892   -0.3352    0.9573 H   0  0  0  0  0  0  0  0  0  0  0  0
    2.4469    2.8516    1.9075 H   0  0  0  0  0  0  0  0  0  0  0  0
    5.9924    0.1211    5.1955 H   0  0  0  0  0  0  0  0  0  0  0  0
    6.9838   -0.8581    3.1759 H   0  0  0  0  0  0  0  0  0  0  0  0
    4.2490    1.4229    6.2778 H   0  0  0  0  0  0  0  0  0  0  0  0
    0.1535    1.4943    0.3633 H   0  0  0  0  0  0  0  0  0  0  0  0
    1.3938    3.6015    3.9539 H   0  0  0  0  0  0  0  0  0  0  0  0
    2.2697    2.8781    6.1612 H   0  0  0  0  0  0  0  0  0  0  0  0
   -1.1813   -1.6666   -3.2027 H   0  0  0  0  0  0  0  0  0  0  0  0
   -2.7572    0.0272   -2.4433 H   0  0  0  0  0  0  0  0  0  0  0  0
    1.0547   -3.0589   -2.1796 H   0  0  0  0  0  0  0  0  0  0  0  0
    1.2418   -2.0456   -3.6281 H   0  0  0  0  0  0  0  0  0  0  0  0
    2.4060   -1.9118   -2.3391 H   0  0  0  0  0  0  0  0  0  0  0  0
   -3.7627    4.0981   -0.8295 H   0  0  0  0  0  0  0  0  0  0  0  0
   -4.2142    3.3789    0.7449 H   0  0  0  0  0  0  0  0  0  0  0  0
   -3.1777    4.8262    0.6758 H   0  0  0  0  0  0  0  0  0  0  0  0
  1 11  2  0  0  0  0
  2 25  2  0  0  0  0
  3 11  1  0  0  0  0
  3 27  1  0  0  0  0
  4 21  1  0  0  0  0
  4 25  1  0  0  0  0
  4 28  1  0  0  0  0
  5  3  1  0  0  0  0
  5  6  1  0  0  0  0
  5  9  1  0  0  0  0
  5 29  1  1  0  0  0
  6  7  1  0  0  0  0
  6 10  2  0  0  0  0
  7  8  2  0  0  0  0
  7 13  1  0  0  0  0
  8 14  1  0  0  0  0
  8 16  1  0  0  0  0
  9 30  1  0  0  0  0
  9 31  1  0  0  0  0
  9 32  1  0  0  0  0
 10 15  1  0  0  0  0
 10 33  1  0  0  0  0
 11 12  1  0  0  0  0
 12 17  2  0  0  0  0
 12 18  1  0  0  0  0
 13 19  2  0  0  0  0
 13 34  1  0  0  0  0
 14 15  2  0  0  0  0
 14 35  1  0  0  0  0
 15 36  1  0  0  0  0
 16 20  2  0  0  0  0
 16 37  1  0  0  0  0
 17 22  1  0  0  0  0
 17 24  1  0  0  0  0
 18 21  2  0  0  0  0
 18 38  1  0  0  0  0
 19 20  1  0  0  0  0
 19 39  1  0  0  0  0
 20 40  1  0  0  0  0
 21 23  1  0  0  0  0
 22 23  2  0  0  0  0
 22 41  1  0  0  0  0
 23 42  1  0  0  0  0
 24 43  1  0  0  0  0
 24 44  1  0  0  0  0
 24 45  1  0  0  0  0
 25 26  1  0  0  0  0
 26 46  1  0  0  0  0
 26 47  1  0  0  0  0
 26 48  1  0  0  0  0
M  END
>  <Mol_ID>
5265

>  <Formula>
C22H22N2O2

>  <MolWeight>
346.42228

>  <Cat>
S0515

>  <Name>
PLpro inhibitor

>  <Synonyms>
N/A

>  <Target>
DUB,SARS-CoV

>  <Form>
Free Base

>  <CAS>
1093070-14-4

>  <URL>
https://www.selleckchem.com/products/plpro-inhibitor.html

$$$$
