PLX5622
 OpenBabel08302521233D

 48 51  0  0  0  0  0  0  0  0999 V2000
   -0.1392   -6.0270   -2.4277 C   0  0  0  0  0  0  0  0  0  0  0  0
   -1.0854   -6.6428   -3.2450 C   0  0  0  0  0  0  0  0  0  0  0  0
   -2.3832   -6.2837   -3.3695 N   0  0  0  0  0  0  0  0  0  0  0  0
   -2.7120   -5.2350   -2.5952 C   0  0  0  0  0  0  0  0  0  0  0  0
   -1.8894   -4.5199   -1.7312 C   0  0  0  0  0  0  0  0  0  0  0  0
   -0.5445   -4.9290   -1.6544 C   0  0  0  0  0  0  0  0  0  0  0  0
   -3.9619   -4.6903   -2.5384 N   0  0  0  0  0  0  0  0  0  0  0  0
   -3.9699   -3.6390   -1.6621 C   0  0  0  0  0  0  0  0  0  0  0  0
   -2.6995   -3.5036   -1.1196 C   0  0  0  0  0  0  0  0  0  0  0  0
    1.2707   -6.5263   -2.3644 C   0  0  0  0  0  0  0  0  0  0  0  0
   -2.2599   -2.4764   -0.1233 C   0  0  0  0  0  0  0  0  0  0  0  0
   -2.9948   -2.7711    1.1523 C   0  0  0  0  0  0  0  0  0  0  0  0
   -4.2170   -2.1699    1.4397 C   0  0  0  0  0  0  0  0  0  0  0  0
   -4.9556   -2.3980    2.5489 N   0  0  0  0  0  0  0  0  0  0  0  0
   -4.4594   -3.2548    3.4555 C   0  0  0  0  0  0  0  0  0  0  0  0
   -3.2345   -3.8949    3.2610 C   0  0  0  0  0  0  0  0  0  0  0  0
   -2.5024   -3.6689    2.0963 C   0  0  0  0  0  0  0  0  0  0  0  0
   -4.7237   -1.2924    0.5597 F   0  0  0  0  0  0  0  0  0  0  0  0
   -5.1786   -3.5668    4.6001 N   0  0  0  0  0  0  0  0  0  0  0  0
   -6.6180   -3.3064    4.6810 C   0  0  0  0  0  0  0  0  0  0  0  0
   -7.3197   -4.5400    5.2198 C   0  0  0  0  0  0  0  0  0  0  0  0
   -8.7093   -4.6092    5.3979 C   0  0  0  0  0  0  0  0  0  0  0  0
   -9.3470   -5.7044    5.8861 N   0  0  0  0  0  0  0  0  0  0  0  0
   -8.5899   -6.7766    6.2111 C   0  0  0  0  0  0  0  0  0  0  0  0
   -7.2225   -6.8117    6.0620 C   0  0  0  0  0  0  0  0  0  0  0  0
   -6.5839   -5.6971    5.5647 C   0  0  0  0  0  0  0  0  0  0  0  0
   -6.5197   -7.8989    6.4022 F   0  0  0  0  0  0  0  0  0  0  0  0
   -9.4815   -3.5123    5.0709 O   0  0  0  0  0  0  0  0  0  0  0  0
  -10.8829   -3.7478    5.2578 C   0  0  0  0  0  0  0  0  0  0  0  0
   -0.8104   -7.4979   -3.8596 H   0  0  0  0  0  0  0  0  0  0  0  0
    0.1585   -4.4135   -1.0086 H   0  0  0  0  0  0  0  0  0  0  0  0
   -4.7450   -5.0332   -3.0739 H   0  0  0  0  0  0  0  0  0  0  0  0
   -4.8821   -3.0833   -1.4847 H   0  0  0  0  0  0  0  0  0  0  0  0
    1.9664   -5.7459   -2.6880 H   0  0  0  0  0  0  0  0  0  0  0  0
    1.5171   -6.8278   -1.3412 H   0  0  0  0  0  0  0  0  0  0  0  0
    1.4181   -7.3971   -3.0122 H   0  0  0  0  0  0  0  0  0  0  0  0
   -1.1808   -2.5152    0.0455 H   0  0  0  0  0  0  0  0  0  0  0  0
   -2.4828   -1.4654   -0.4847 H   0  0  0  0  0  0  0  0  0  0  0  0
   -2.8723   -4.6144    3.9901 H   0  0  0  0  0  0  0  0  0  0  0  0
   -1.5724   -4.2036    1.9273 H   0  0  0  0  0  0  0  0  0  0  0  0
   -4.6664   -3.3628    5.4500 H   0  0  0  0  0  0  0  0  0  0  0  0
   -6.7818   -2.4658    5.3688 H   0  0  0  0  0  0  0  0  0  0  0  0
   -7.0514   -3.0491    3.7090 H   0  0  0  0  0  0  0  0  0  0  0  0
   -9.1266   -7.6306    6.6023 H   0  0  0  0  0  0  0  0  0  0  0  0
   -5.5079   -5.7424    5.4386 H   0  0  0  0  0  0  0  0  0  0  0  0
  -11.2534   -4.5182    4.5691 H   0  0  0  0  0  0  0  0  0  0  0  0
  -11.1135   -4.0162    6.2966 H   0  0  0  0  0  0  0  0  0  0  0  0
  -11.4220   -2.8209    5.0378 H   0  0  0  0  0  0  0  0  0  0  0  0
  1  2  2  0  0  0  0
  1 10  1  0  0  0  0
  2  3  1  0  0  0  0
  2 30  1  0  0  0  0
  3  4  2  0  0  0  0
  4  5  1  0  0  0  0
  4  7  1  0  0  0  0
  5  6  2  0  0  0  0
  6  1  1  0  0  0  0
  6 31  1  0  0  0  0
  7  8  1  0  0  0  0
  7 32  1  0  0  0  0
  8  9  2  0  0  0  0
  8 33  1  0  0  0  0
  9  5  1  0  0  0  0
  9 11  1  0  0  0  0
 10 34  1  0  0  0  0
 10 35  1  0  0  0  0
 10 36  1  0  0  0  0
 11 12  1  0  0  0  0
 11 37  1  0  0  0  0
 11 38  1  0  0  0  0
 12 13  2  0  0  0  0
 13 14  1  0  0  0  0
 13 18  1  0  0  0  0
 14 15  2  0  0  0  0
 15 16  1  0  0  0  0
 15 19  1  0  0  0  0
 16 17  2  0  0  0  0
 16 39  1  0  0  0  0
 17 12  1  0  0  0  0
 17 40  1  0  0  0  0
 19 20  1  0  0  0  0
 19 41  1  0  0  0  0
 20 21  1  0  0  0  0
 20 42  1  0  0  0  0
 20 43  1  0  0  0  0
 21 22  2  0  0  0  0
 22 23  1  0  0  0  0
 22 28  1  0  0  0  0
 23 24  2  0  0  0  0
 24 25  1  0  0  0  0
 24 44  1  0  0  0  0
 25 26  2  0  0  0  0
 25 27  1  0  0  0  0
 26 21  1  0  0  0  0
 26 45  1  0  0  0  0
 28 29  1  0  0  0  0
 29 46  1  0  0  0  0
 29 47  1  0  0  0  0
 29 48  1  0  0  0  0
M  END
>  <Mol_ID>
4815

>  <Formula>
C21H19F2N5O

>  <MolWeight>
395.4052664

>  <Cat>
S8874

>  <Name>
PLX5622

>  <Synonyms>
N/A

>  <Target>
CSF-1R

>  <Form>
Free Base

>  <CAS>
1303420-67-8

>  <URL>
http://www.selleck.cn/products/plx5622.html

$$$$
