PMPA tetrasodium salt
 OpenBabel08302521383D

 25 24  0  0  0  0  0  0  0  0999 V2000
    1.0334   -0.3479   -0.1306 O   0  0  0  0  0  0  0  0  0  0  0  0
    0.1815   -0.3216   -1.1758 C   0  0  0  0  0  0  0  0  0  0  0  0
    0.8661   -0.1808   -2.5261 C   0  0  3  0  0  0  0  0  0  0  0  0
   -1.0282   -0.3715   -1.0347 O   0  0  0  0  0  0  0  0  0  0  0  0
    0.2766   -1.2155   -3.4989 C   0  0  0  0  0  0  0  0  0  0  0  0
    0.7379    1.2792   -2.9789 C   0  0  0  0  0  0  0  0  0  0  0  0
    0.8799   -1.1804   -4.9064 C   0  0  0  0  0  0  0  0  0  0  0  0
    0.3717   -2.3227   -5.7614 C   0  0  0  0  0  0  0  0  0  0  0  0
    0.9118   -2.3214   -7.0019 O   0  0  0  0  0  0  0  0  0  0  0  0
   -0.4355   -3.1671   -5.4058 O   0  0  0  0  0  0  0  0  0  0  0  0
    1.6044    2.3820   -1.8678 P   0  0  0  0  0  0  0  0  0  0  0  0
    2.7319    1.7452   -1.1230 O   0  0  0  0  0  0  0  0  0  0  0  0
    1.9980    3.6662   -2.7355 O   0  0  0  0  0  0  0  0  0  0  0  0
    0.5114    3.0343   -0.9078 O   0  0  0  0  0  0  0  0  0  0  0  0
    1.9733   -0.1509   -0.3406 H   0  0  0  0  0  0  0  0  0  0  0  0
    1.9280   -0.4230   -2.4050 H   0  0  0  0  0  0  0  0  0  0  0  0
    0.4395   -2.2143   -3.0694 H   0  0  0  0  0  0  0  0  0  0  0  0
   -0.8115   -1.0978   -3.5699 H   0  0  0  0  0  0  0  0  0  0  0  0
    1.2042    1.3931   -3.9627 H   0  0  0  0  0  0  0  0  0  0  0  0
   -0.3090    1.5856   -3.0756 H   0  0  0  0  0  0  0  0  0  0  0  0
    0.6094   -0.2478   -5.4084 H   0  0  0  0  0  0  0  0  0  0  0  0
    1.9698   -1.2583   -4.8470 H   0  0  0  0  0  0  0  0  0  0  0  0
    1.5473   -1.5992   -7.1655 H   0  0  0  0  0  0  0  0  0  0  0  0
    1.3058    3.9899   -3.3421 H   0  0  0  0  0  0  0  0  0  0  0  0
    0.9177    3.5670   -0.1948 H   0  0  0  0  0  0  0  0  0  0  0  0
  1  2  1  0  0  0  0
  1 15  1  0  0  0  0
  2  3  1  0  0  0  0
  2  4  2  0  0  0  0
  3  5  1  0  0  0  0
  3  6  1  0  0  0  0
  3 16  1  0  0  0  0
  5  7  1  0  0  0  0
  5 17  1  0  0  0  0
  5 18  1  0  0  0  0
  6 11  1  0  0  0  0
  6 19  1  0  0  0  0
  6 20  1  0  0  0  0
  7  8  1  0  0  0  0
  7 21  1  0  0  0  0
  7 22  1  0  0  0  0
  8  9  1  0  0  0  0
  8 10  2  0  0  0  0
  9 23  1  0  0  0  0
 11 12  2  0  0  0  0
 11 13  1  0  0  0  0
 11 14  1  0  0  0  0
 13 24  1  0  0  0  0
 14 25  1  0  0  0  0
M  END
>  <Mol_ID>
7941

>  <Formula>
C6H7Na4O7P

>  <MolWeight>
314.048421

>  <Cat>
S0189

>  <Name>
PMPA tetrasodium salt

>  <Synonyms>
PMPA sodium

>  <Target>
Others

>  <Form>
tetrasodium

>  <CAS>
373645-42-2

>  <URL>
http://www.selleckchem.com/products/2-pmpa.html

$$$$
