PMSF.cdx
 OpenBabel08302521313D

 18 18  0  0  0  0  0  0  0  0999 V2000
    1.4037   -0.2123    0.0723 C   0  0  0  0  0  0  0  0  0  0  0  0
    0.5220   -1.3019    0.0065 C   0  0  0  0  0  0  0  0  0  0  0  0
   -0.8575   -1.0937   -0.0541 C   0  0  0  0  0  0  0  0  0  0  0  0
   -1.3702    0.2017   -0.0528 C   0  0  0  0  0  0  0  0  0  0  0  0
   -0.5041    1.2914   -0.0063 C   0  0  0  0  0  0  0  0  0  0  0  0
    0.8759    1.0871    0.0513 C   0  0  0  0  0  0  0  0  0  0  0  0
    2.8871   -0.4305    0.1996 C   0  0  0  0  0  0  0  0  0  0  0  0
    3.6469   -0.5833   -1.4031 S   0  0  0  0  0  0  0  0  0  0  0  0
    3.4622    0.6451   -2.1525 O   0  0  0  0  0  0  0  0  0  0  0  0
    4.9704   -1.1511   -1.2168 O   0  0  0  0  0  0  0  0  0  0  0  0
    2.8327   -1.6935   -2.1915 F   0  0  0  0  0  0  0  0  0  0  0  0
    0.8959   -2.3240    0.0144 H   0  0  0  0  0  0  0  0  0  0  0  0
   -1.5350   -1.9431   -0.0947 H   0  0  0  0  0  0  0  0  0  0  0  0
   -2.4449    0.3622   -0.0883 H   0  0  0  0  0  0  0  0  0  0  0  0
   -0.9041    2.3025   -0.0101 H   0  0  0  0  0  0  0  0  0  0  0  0
    1.5325    1.9548    0.0867 H   0  0  0  0  0  0  0  0  0  0  0  0
    3.3716    0.4011    0.7204 H   0  0  0  0  0  0  0  0  0  0  0  0
    3.0985   -1.3478    0.7572 H   0  0  0  0  0  0  0  0  0  0  0  0
  1  2  2  0  0  0  0
  1  6  1  0  0  0  0
  1  7  1  0  0  0  0
  2  3  1  0  0  0  0
  2 12  1  0  0  0  0
  3  4  2  0  0  0  0
  3 13  1  0  0  0  0
  4  5  1  0  0  0  0
  4 14  1  0  0  0  0
  5  6  2  0  0  0  0
  5 15  1  0  0  0  0
  6 16  1  0  0  0  0
  7  8  1  0  0  0  0
  7 17  1  0  0  0  0
  7 18  1  0  0  0  0
  8  9  2  0  0  0  0
  8 10  2  0  0  0  0
  8 11  1  0  0  0  0
M  END
>  <Mol_ID>
570

>  <Formula>
C7H7FO2S

>  <MolWeight>
174.1926832

>  <Cat>
S3025

>  <Name>
PMSF

>  <Synonyms>
Phenylmethylsulfonyl Fluoride, Benzylsulfonyl fluoride

>  <Target>
Cysteine Protease,Serine Protease

>  <Form>
free base

>  <CAS>
329-98-6

>  <URL>
http://selleckchem.com/products/pmsf-phenylmethylsulfonyl-fluoride.html

$$$$
