PNPP
 OpenBabel08302521353D

 18 18  0  0  0  0  0  0  0  0999 V2000
    1.2326    0.2753    0.1367 P   0  0  0  0  0  0  0  0  0  0  0  0
    0.9061   -0.0982    1.7054 O   0  0  0  0  0  0  0  0  0  0  0  0
    0.9004    1.7589    0.0511 O   0  5  0  0  0  0  0  0  0  0  0  0
    0.2987   -0.6232   -0.6685 O   0  5  0  0  0  0  0  0  0  0  0  0
    2.7164   -0.0341   -0.0512 O   0  0  0  0  0  0  0  0  0  0  0  0
    1.9260   -5.9891    3.7395 O   0  5  0  0  0  0  0  0  0  0  0  0
    0.4195   -5.3054    5.1736 O   0  0  0  0  0  0  0  0  0  0  0  0
    1.1475   -5.1297    4.1821 N   0  3  0  0  0  0  0  0  0  0  0  0
    0.9929   -1.3514    2.2412 C   0  0  0  0  0  0  0  0  0  0  0  0
    1.0906   -3.8285    3.5086 C   0  0  0  0  0  0  0  0  0  0  0  0
    1.8182   -2.3570    1.7422 C   0  0  0  0  0  0  0  0  0  0  0  0
    0.2144   -1.5856    3.3775 C   0  0  0  0  0  0  0  0  0  0  0  0
    1.8778   -3.6008    2.3744 C   0  0  0  0  0  0  0  0  0  0  0  0
    0.2508   -2.8265    4.0146 C   0  0  0  0  0  0  0  0  0  0  0  0
    2.4175   -2.1661    0.8540 H   0  0  0  0  0  0  0  0  0  0  0  0
   -0.4283   -0.7888    3.7391 H   0  0  0  0  0  0  0  0  0  0  0  0
    2.5347   -4.3593    1.9616 H   0  0  0  0  0  0  0  0  0  0  0  0
   -0.3750   -2.9882    4.8857 H   0  0  0  0  0  0  0  0  0  0  0  0
  1  2  1  0  0  0  0
  1  3  1  0  0  0  0
  1  4  1  0  0  0  0
  1  5  2  0  0  0  0
  2  9  1  0  0  0  0
  6  8  1  0  0  0  0
  7  8  2  0  0  0  0
  8 10  1  0  0  0  0
  9 11  2  0  0  0  0
  9 12  1  0  0  0  0
 10 13  2  0  0  0  0
 10 14  1  0  0  0  0
 11 13  1  0  0  0  0
 11 15  1  0  0  0  0
 12 14  2  0  0  0  0
 12 16  1  0  0  0  0
 13 17  1  0  0  0  0
 14 18  1  0  0  0  0
M  CHG  4   3  -1   4  -1   6  -1   8   1
M  END
>  <Mol_ID>
6682

>  <Formula>
C6H4NNa2O6P

>  <MolWeight>
263.052361

>  <Cat>
S4614

>  <Name>
PNPP

>  <Synonyms>
p-nitrophenyl phosphonate

>  <Target>
Dyes

>  <Form>
Free base

>  <CAS>
4264-83-9

>  <URL>
http://www.selleckchem.com/products/pnpp.html

$$$$
