PNU-282987 S enantiomer free base
 OpenBabel08302521323D

 35 37  0  0  0  0  0  0  0  0999 V2000
    2.6184   -0.4867    1.0717 C   0  0  0  0  0  0  0  0  0  0  0  0
    1.8364   -1.6542    1.5590 C   0  0  0  0  0  0  0  0  0  0  0  0
    0.4824   -1.8123    1.2385 C   0  0  0  0  0  0  0  0  0  0  0  0
   -0.1857   -2.9820    1.6028 C   0  0  0  0  0  0  0  0  0  0  0  0
    0.4910   -3.9855    2.2969 C   0  0  0  0  0  0  0  0  0  0  0  0
    1.8263   -3.8082    2.6610 C   0  0  0  0  0  0  0  0  0  0  0  0
    2.4982   -2.6391    2.3014 C   0  0  0  0  0  0  0  0  0  0  0  0
    3.5523   -0.0408    1.7239 O   0  0  0  0  0  0  0  0  0  0  0  0
    2.2727   -0.0328   -0.1907 N   0  0  0  0  0  0  0  0  0  0  0  0
    2.8351    3.3732   -1.2513 N   0  0  3  0  0  0  0  0  0  0  0  0
    3.1792    2.3137   -0.2651 C   0  0  0  0  0  0  0  0  0  0  0  0
    3.1417    0.8957   -0.8994 C   0  0  2  0  0  0  0  0  0  0  0  0
    2.7410    1.0317   -2.3875 C   0  0  3  0  0  0  0  0  0  0  0  0
    3.7995    1.9271   -3.0534 C   0  0  0  0  0  0  0  0  0  0  0  0
    3.7908    3.3101   -2.3788 C   0  0  0  0  0  0  0  0  0  0  0  0
    1.4705    3.1031   -1.7507 C   0  0  0  0  0  0  0  0  0  0  0  0
    1.3969    1.7709   -2.5112 C   0  0  0  0  0  0  0  0  0  0  0  0
   -0.0603   -1.0313    0.7132 H   0  0  0  0  0  0  0  0  0  0  0  0
   -1.2326   -3.1149    1.3404 H   0  0  0  0  0  0  0  0  0  0  0  0
   -0.0249   -4.9059    2.5601 H   0  0  0  0  0  0  0  0  0  0  0  0
    2.3480   -4.5859    3.2139 H   0  0  0  0  0  0  0  0  0  0  0  0
    3.5431   -2.5080    2.5754 H   0  0  0  0  0  0  0  0  0  0  0  0
    1.6528   -0.6098   -0.7408 H   0  0  0  0  0  0  0  0  0  0  0  0
    2.5007    2.3890    0.5941 H   0  0  0  0  0  0  0  0  0  0  0  0
    4.1829    2.5087    0.1334 H   0  0  0  0  0  0  0  0  0  0  0  0
    4.1518    0.4662   -0.8496 H   0  0  0  0  0  0  0  0  0  0  0  0
    2.6921    0.0550   -2.8806 H   0  0  0  0  0  0  0  0  0  0  0  0
    4.7915    1.4688   -2.9624 H   0  0  0  0  0  0  0  0  0  0  0  0
    3.5884    2.0310   -4.1241 H   0  0  0  0  0  0  0  0  0  0  0  0
    4.7990    3.5567   -2.0242 H   0  0  0  0  0  0  0  0  0  0  0  0
    3.5402    4.0821   -3.1169 H   0  0  0  0  0  0  0  0  0  0  0  0
    0.7636    3.0926   -0.9115 H   0  0  0  0  0  0  0  0  0  0  0  0
    1.1426    3.9245   -2.3995 H   0  0  0  0  0  0  0  0  0  0  0  0
    1.1807    1.9640   -3.5698 H   0  0  0  0  0  0  0  0  0  0  0  0
    0.5754    1.1575   -2.1245 H   0  0  0  0  0  0  0  0  0  0  0  0
  1  2  1  0  0  0  0
  1  8  2  0  0  0  0
  1  9  1  0  0  0  0
  2  3  2  0  0  0  0
  2  7  1  0  0  0  0
  3  4  1  0  0  0  0
  3 18  1  0  0  0  0
  4  5  2  0  0  0  0
  4 19  1  0  0  0  0
  5  6  1  0  0  0  0
  5 20  1  0  0  0  0
  6  7  2  0  0  0  0
  6 21  1  0  0  0  0
  7 22  1  0  0  0  0
  9 23  1  0  0  0  0
 10 11  1  0  0  0  0
 10 15  1  0  0  0  0
 10 16  1  0  0  0  0
 11 12  1  0  0  0  0
 11 24  1  0  0  0  0
 11 25  1  0  0  0  0
 12 13  1  0  0  0  0
 12  9  1  0  0  0  0
 12 26  1  1  0  0  0
 13 14  1  0  0  0  0
 13 27  1  0  0  0  0
 14 15  1  0  0  0  0
 14 28  1  0  0  0  0
 14 29  1  0  0  0  0
 15 30  1  0  0  0  0
 15 31  1  0  0  0  0
 16 17  1  0  0  0  0
 16 32  1  0  0  0  0
 16 33  1  0  0  0  0
 17 13  1  0  0  0  0
 17 34  1  0  0  0  0
 17 35  1  0  0  0  0
M  END
>  <Mol_ID>
6168

>  <Formula>
C14H17ClN2O

>  <MolWeight>
264.75058

>  <Cat>
S0521

>  <Name>
PNU-282987 S enantiomer free base

>  <Synonyms>
N/A

>  <Target>
AChR

>  <Form>
free base

>  <CAS>
737727-12-7

>  <URL>
http://www.selleckchem.com/products/pnu-282987-s-enantiomer-free-base.html

$$$$
