PNU-120596.cdx
 OpenBabel08302521423D

 35 36  0  0  0  0  0  0  0  0999 V2000
    1.3454   -0.3327    0.0840 C   0  0  0  0  0  0  0  0  0  0  0  0
    0.4282   -1.3810   -0.0644 C   0  0  0  0  0  0  0  0  0  0  0  0
   -0.9466   -1.0986   -0.0698 C   0  0  0  0  0  0  0  0  0  0  0  0
   -1.4152    0.2127    0.0615 C   0  0  0  0  0  0  0  0  0  0  0  0
   -0.5090    1.2561    0.1871 C   0  0  0  0  0  0  0  0  0  0  0  0
    0.8601    0.9808    0.1689 C   0  0  0  0  0  0  0  0  0  0  0  0
    2.7103   -0.3862   -0.0041 O   0  0  0  0  0  0  0  0  0  0  0  0
   -0.8389    2.5807    0.2781 O   0  0  0  0  0  0  0  0  0  0  0  0
   -2.0951    2.8557    0.8876 C   0  0  0  0  0  0  0  0  0  0  0  0
    3.3841   -1.4956    0.5653 C   0  0  0  0  0  0  0  0  0  0  0  0
    0.8256   -2.7210   -0.2051 N   0  0  0  0  0  0  0  0  0  0  0  0
    0.3053   -3.6597   -1.0594 C   0  0  0  0  0  0  0  0  0  0  0  0
   -0.2761   -3.1454   -2.1899 N   0  0  0  0  0  0  0  0  0  0  0  0
    0.4893   -4.8515   -0.8262 O   0  0  0  0  0  0  0  0  0  0  0  0
   -0.7194   -3.9493   -3.2132 C   0  0  0  0  0  0  0  0  0  0  0  0
   -0.6045   -3.5573   -4.4863 N   0  0  0  0  0  0  0  0  0  0  0  0
   -1.0400   -4.6286   -5.2480 O   0  0  0  0  0  0  0  0  0  0  0  0
   -1.4847   -5.6141   -4.4236 C   0  0  0  0  0  0  0  0  0  0  0  0
   -1.3315   -5.2157   -3.1208 C   0  0  0  0  0  0  0  0  0  0  0  0
   -1.9915   -6.8365   -5.0660 C   0  0  0  0  0  0  0  0  0  0  0  0
   -1.6806   -1.8983   -0.1432 H   0  0  0  0  0  0  0  0  0  0  0  0
   -2.4899    0.3829    0.0410 H   0  0  0  0  0  0  0  0  0  0  0  0
    1.5652    1.8067    0.2248 H   0  0  0  0  0  0  0  0  0  0  0  0
   -2.9257    2.5775    0.2314 H   0  0  0  0  0  0  0  0  0  0  0  0
   -2.1779    2.3584    1.8602 H   0  0  0  0  0  0  0  0  0  0  0  0
   -2.1535    3.9349    1.0567 H   0  0  0  0  0  0  0  0  0  0  0  0
    2.9395   -1.8047    1.5167 H   0  0  0  0  0  0  0  0  0  0  0  0
    3.4317   -2.3240   -0.1478 H   0  0  0  0  0  0  0  0  0  0  0  0
    4.4153   -1.1892    0.7668 H   0  0  0  0  0  0  0  0  0  0  0  0
    1.5316   -3.0903    0.4137 H   0  0  0  0  0  0  0  0  0  0  0  0
    0.0682   -2.2465   -2.4977 H   0  0  0  0  0  0  0  0  0  0  0  0
   -1.6011   -5.7631   -2.2302 H   0  0  0  0  0  0  0  0  0  0  0  0
   -2.6194   -6.5928   -5.9277 H   0  0  0  0  0  0  0  0  0  0  0  0
   -1.1579   -7.4572   -5.4078 H   0  0  0  0  0  0  0  0  0  0  0  0
   -2.5904   -7.4250   -4.3640 H   0  0  0  0  0  0  0  0  0  0  0  0
  1  2  2  0  0  0  0
  1  7  1  0  0  0  0
  2  3  1  0  0  0  0
  2 11  1  0  0  0  0
  3  4  2  0  0  0  0
  3 21  1  0  0  0  0
  4  5  1  0  0  0  0
  4 22  1  0  0  0  0
  5  6  2  0  0  0  0
  5  8  1  0  0  0  0
  6  1  1  0  0  0  0
  6 23  1  0  0  0  0
  7 10  1  0  0  0  0
  8  9  1  0  0  0  0
  9 24  1  0  0  0  0
  9 25  1  0  0  0  0
  9 26  1  0  0  0  0
 10 27  1  0  0  0  0
 10 28  1  0  0  0  0
 10 29  1  0  0  0  0
 11 12  1  0  0  0  0
 11 30  1  0  0  0  0
 12 13  1  0  0  0  0
 12 14  2  0  0  0  0
 13 15  1  0  0  0  0
 13 31  1  0  0  0  0
 15 16  2  0  0  0  0
 16 17  1  0  0  0  0
 17 18  1  0  0  0  0
 18 19  2  0  0  0  0
 18 20  1  0  0  0  0
 19 15  1  0  0  0  0
 19 32  1  0  0  0  0
 20 33  1  0  0  0  0
 20 34  1  0  0  0  0
 20 35  1  0  0  0  0
M  END
>  <Mol_ID>
830

>  <Formula>
C13H14ClN3O4

>  <MolWeight>
311.72096

>  <Cat>
S2629

>  <Name>
PNU-120596

>  <Synonyms>
Nsc 216666

>  <Target>
AChR

>  <Form>
free base

>  <CAS>
501925-31-1

>  <URL>
http://selleckchem.com/products/pnu120596.html

$$$$
