PNU-282987
 OpenBabel08302521313D

 35 37  0  0  0  0  0  0  0  0999 V2000
    3.7712    0.8361    2.7270 C   0  0  0  0  0  0  0  0  0  0  0  0
    3.4441    1.3438    4.0892 C   0  0  0  0  0  0  0  0  0  0  0  0
    2.1988    1.0791    4.6781 C   0  0  0  0  0  0  0  0  0  0  0  0
    1.9045    1.5764    5.9485 C   0  0  0  0  0  0  0  0  0  0  0  0
    2.8467    2.3462    6.6315 C   0  0  0  0  0  0  0  0  0  0  0  0
    4.0793    2.6269    6.0434 C   0  0  0  0  0  0  0  0  0  0  0  0
    4.3778    2.1304    4.7706 C   0  0  0  0  0  0  0  0  0  0  0  0
    4.4373    1.5098    1.9529 O   0  0  0  0  0  0  0  0  0  0  0  0
    3.2765   -0.4151    2.4344 N   0  0  0  0  0  0  0  0  0  0  0  0
    4.9583   -2.5451    0.0599 N   0  0  3  0  0  0  0  0  0  0  0  0
    4.6391   -1.1291    0.3992 C   0  0  0  0  0  0  0  0  0  0  0  0
    3.2512   -0.9879    1.0903 C   0  0  1  0  0  0  0  0  0  0  0  0
    2.5976   -2.3910    1.1408 C   0  0  3  0  0  0  0  0  0  0  0  0
    3.5183   -3.3415    1.9324 C   0  0  0  0  0  0  0  0  0  0  0  0
    4.9230   -3.3323    1.3095 C   0  0  0  0  0  0  0  0  0  0  0  0
    3.9343   -3.0678   -0.8693 C   0  0  0  0  0  0  0  0  0  0  0  0
    2.5160   -2.9306   -0.2949 C   0  0  0  0  0  0  0  0  0  0  0  0
    1.4370    0.5145    4.1477 H   0  0  0  0  0  0  0  0  0  0  0  0
    0.9366    1.3749    6.4017 H   0  0  0  0  0  0  0  0  0  0  0  0
    2.6107    2.7391    7.6176 H   0  0  0  0  0  0  0  0  0  0  0  0
    4.8064    3.2361    6.5726 H   0  0  0  0  0  0  0  0  0  0  0  0
    5.3390    2.3579    4.3135 H   0  0  0  0  0  0  0  0  0  0  0  0
    2.7625   -0.9027    3.1547 H   0  0  0  0  0  0  0  0  0  0  0  0
    4.6415   -0.5415   -0.5288 H   0  0  0  0  0  0  0  0  0  0  0  0
    5.4484   -0.7186    1.0133 H   0  0  0  0  0  0  0  0  0  0  0  0
    2.6282   -0.3157    0.4860 H   0  0  0  0  0  0  0  0  0  0  0  0
    1.6018   -2.3498    1.5958 H   0  0  0  0  0  0  0  0  0  0  0  0
    3.5766   -3.0433    2.9854 H   0  0  0  0  0  0  0  0  0  0  0  0
    3.1071   -4.3578    1.9128 H   0  0  0  0  0  0  0  0  0  0  0  0
    5.6495   -2.9238    2.0234 H   0  0  0  0  0  0  0  0  0  0  0  0
    5.2506   -4.3604    1.1125 H   0  0  0  0  0  0  0  0  0  0  0  0
    3.9995   -2.5454   -1.8314 H   0  0  0  0  0  0  0  0  0  0  0  0
    4.1445   -4.1217   -1.0938 H   0  0  0  0  0  0  0  0  0  0  0  0
    2.0158   -3.9067   -0.3009 H   0  0  0  0  0  0  0  0  0  0  0  0
    1.9184   -2.2558   -0.9189 H   0  0  0  0  0  0  0  0  0  0  0  0
  1  2  1  0  0  0  0
  1  8  2  0  0  0  0
  1  9  1  0  0  0  0
  2  3  2  0  0  0  0
  2  7  1  0  0  0  0
  3  4  1  0  0  0  0
  3 18  1  0  0  0  0
  4  5  2  0  0  0  0
  4 19  1  0  0  0  0
  5  6  1  0  0  0  0
  5 20  1  0  0  0  0
  6  7  2  0  0  0  0
  6 21  1  0  0  0  0
  7 22  1  0  0  0  0
  9 23  1  0  0  0  0
 10 11  1  0  0  0  0
 10 15  1  0  0  0  0
 10 16  1  0  0  0  0
 11 12  1  0  0  0  0
 11 24  1  0  0  0  0
 11 25  1  0  0  0  0
 12 13  1  0  0  0  0
 12 26  1  6  0  0  0
 12  9  1  0  0  0  0
 13 14  1  0  0  0  0
 13 27  1  0  0  0  0
 14 15  1  0  0  0  0
 14 28  1  0  0  0  0
 14 29  1  0  0  0  0
 15 30  1  0  0  0  0
 15 31  1  0  0  0  0
 16 17  1  0  0  0  0
 16 32  1  0  0  0  0
 16 33  1  0  0  0  0
 17 13  1  0  0  0  0
 17 34  1  0  0  0  0
 17 35  1  0  0  0  0
M  END
>  <Mol_ID>
5992

>  <Formula>
C14H17ClN2O

>  <MolWeight>
264.75058

>  <Cat>
S0720

>  <Name>
PNU-282987

>  <Synonyms>
N/A

>  <Target>
AChR

>  <Form>
Free Base

>  <CAS>
711085-63-1

>  <URL>
http://www.selleckchem.com/products/pnu-282987-.html

$$$$
