PNU-74654.cdx
 OpenBabel08302520433D

 40 42  0  0  0  0  0  0  0  0999 V2000
    1.3735   -0.0938    0.0163 C   0  0  0  0  0  0  0  0  0  0  0  0
    0.5824   -1.2533   -0.0354 C   0  0  0  0  0  0  0  0  0  0  0  0
   -0.8178   -1.1512    0.0096 C   0  0  0  0  0  0  0  0  0  0  0  0
   -1.4016    0.1258    0.0272 C   0  0  0  0  0  0  0  0  0  0  0  0
   -0.6085    1.2771    0.0261 C   0  0  0  0  0  0  0  0  0  0  0  0
    0.7797    1.1666    0.0222 C   0  0  0  0  0  0  0  0  0  0  0  0
   -1.7367   -2.3351   -0.0005 C   0  0  0  0  0  0  0  0  0  0  0  0
    1.1587   -2.5051   -0.0743 O   0  0  0  0  0  0  0  0  0  0  0  0
    2.2215   -2.7393   -0.9173 C   0  0  0  0  0  0  0  0  0  0  0  0
    3.0887   -3.7614   -0.5269 C   0  0  0  0  0  0  0  0  0  0  0  0
    4.2182   -4.0518   -1.2912 C   0  0  0  0  0  0  0  0  0  0  0  0
    4.4799   -3.3237   -2.4519 C   0  0  0  0  0  0  0  0  0  0  0  0
    3.5914   -2.3345   -2.8693 C   0  0  0  0  0  0  0  0  0  0  0  0
    2.4485   -2.0597   -2.1177 C   0  0  0  0  0  0  0  0  0  0  0  0
   -1.2209   -3.5080    0.5373 N   0  0  0  0  0  0  0  0  0  0  0  0
   -2.8791   -2.1940   -0.4313 O   0  0  0  0  0  0  0  0  0  0  0  0
   -1.8595   -4.7203    0.6523 N   0  0  0  0  0  0  0  0  0  0  0  0
   -2.7705   -5.0261   -0.2205 C   0  0  0  0  0  0  0  0  0  0  0  0
   -3.4689   -6.2826   -0.1509 C   0  0  0  0  0  0  0  0  0  0  0  0
   -4.3666   -6.5613   -1.1461 O   0  0  0  0  0  0  0  0  0  0  0  0
   -4.8885   -7.7923   -0.8897 C   0  0  0  0  0  0  0  0  0  0  0  0
   -4.3345   -8.3132    0.2585 C   0  0  0  0  0  0  0  0  0  0  0  0
   -3.4178   -7.3426    0.7335 C   0  0  0  0  0  0  0  0  0  0  0  0
   -5.8907   -8.2797   -1.8573 C   0  0  0  0  0  0  0  0  0  0  0  0
    2.4602   -0.1624    0.0233 H   0  0  0  0  0  0  0  0  0  0  0  0
   -2.4850    0.2303    0.0421 H   0  0  0  0  0  0  0  0  0  0  0  0
   -1.0751    2.2596    0.0324 H   0  0  0  0  0  0  0  0  0  0  0  0
    1.3994    2.0605    0.0206 H   0  0  0  0  0  0  0  0  0  0  0  0
    2.8894   -4.3298    0.3784 H   0  0  0  0  0  0  0  0  0  0  0  0
    4.8972   -4.8412   -0.9798 H   0  0  0  0  0  0  0  0  0  0  0  0
    5.3709   -3.5349   -3.0371 H   0  0  0  0  0  0  0  0  0  0  0  0
    3.7870   -1.7747   -3.7806 H   0  0  0  0  0  0  0  0  0  0  0  0
    1.7569   -1.3023   -2.4765 H   0  0  0  0  0  0  0  0  0  0  0  0
   -0.3367   -3.4632    1.0368 H   0  0  0  0  0  0  0  0  0  0  0  0
   -3.0315   -4.3834   -1.0763 H   0  0  0  0  0  0  0  0  0  0  0  0
   -4.5633   -9.2754    0.6977 H   0  0  0  0  0  0  0  0  0  0  0  0
   -2.7916   -7.4008    1.6116 H   0  0  0  0  0  0  0  0  0  0  0  0
   -6.7402   -7.5914   -1.9061 H   0  0  0  0  0  0  0  0  0  0  0  0
   -5.4511   -8.3562   -2.8563 H   0  0  0  0  0  0  0  0  0  0  0  0
   -6.2672   -9.2670   -1.5735 H   0  0  0  0  0  0  0  0  0  0  0  0
  1  2  2  0  0  0  0
  1 25  1  0  0  0  0
  2  3  1  0  0  0  0
  2  8  1  0  0  0  0
  3  4  2  0  0  0  0
  3  7  1  0  0  0  0
  4  5  1  0  0  0  0
  4 26  1  0  0  0  0
  5  6  2  0  0  0  0
  5 27  1  0  0  0  0
  6  1  1  0  0  0  0
  6 28  1  0  0  0  0
  7 15  1  0  0  0  0
  7 16  2  0  0  0  0
  8  9  1  0  0  0  0
  9 10  2  0  0  0  0
 10 11  1  0  0  0  0
 10 29  1  0  0  0  0
 11 12  2  0  0  0  0
 11 30  1  0  0  0  0
 12 13  1  0  0  0  0
 12 31  1  0  0  0  0
 13 14  2  0  0  0  0
 13 32  1  0  0  0  0
 14  9  1  0  0  0  0
 14 33  1  0  0  0  0
 15 17  1  0  0  0  0
 15 34  1  0  0  0  0
 17 18  2  0  0  0  0
 18 19  1  0  0  0  0
 18 35  1  0  0  0  0
 19 20  1  0  0  0  0
 20 21  1  0  0  0  0
 21 22  2  0  0  0  0
 21 24  1  0  0  0  0
 22 23  1  0  0  0  0
 22 36  1  0  0  0  0
 23 19  2  0  0  0  0
 23 37  1  0  0  0  0
 24 38  1  0  0  0  0
 24 39  1  0  0  0  0
 24 40  1  0  0  0  0
M  END
>  <Mol_ID>
4104

>  <Formula>
C19H16N2O3

>  <MolWeight>
320.34194

>  <Cat>
S8429

>  <Name>
PNU-74654

>  <Synonyms>
N/A

>  <Target>
Wnt/beta-catenin

>  <Form>
free base

>  <CAS>
113906-27-7

>  <URL>
http://selleckchem.com/products/pnu-74654.html

$$$$
