Podophyllotoxin (Podofilox)
 OpenBabel08302521353D

 52 56  0  0  0  0  0  0  0  0999 V2000
    2.4462    0.6797   -0.1156 C   0  0  0  0  0  0  0  0  0  0  0  0
    2.4353   -0.6925   -0.0536 C   0  0  0  0  0  0  0  0  0  0  0  0
    1.2593   -1.4121    0.0243 C   0  0  0  0  0  0  0  0  0  0  0  0
    0.0433   -0.7011    0.0243 C   0  0  0  0  0  0  0  0  0  0  0  0
    0.0570    0.7380   -0.0311 C   0  0  0  0  0  0  0  0  0  0  0  0
    1.2855    1.4214   -0.1049 C   0  0  0  0  0  0  0  0  0  0  0  0
   -1.2860   -1.4911    0.1663 C   0  0  3  0  0  0  0  0  0  0  0  0
   -2.3811   -0.6052   -0.4265 C   0  0  2  0  0  0  0  0  0  0  0  0
   -2.4261    0.7060    0.3205 C   0  0  1  0  0  0  0  0  0  0  0  0
   -1.2351    1.5533   -0.0799 C   0  0  1  0  0  0  0  0  0  0  0  0
    3.7080    1.1843   -0.1937 O   0  0  0  0  0  0  0  0  0  0  0  0
    4.4716   -0.0326   -0.3236 C   0  0  0  0  0  0  0  0  0  0  0  0
    3.6893   -1.2196   -0.0778 O   0  0  0  0  0  0  0  0  0  0  0  0
   -3.8133   -1.0420   -0.3787 C   0  0  0  0  0  0  0  0  0  0  0  0
   -4.6038    0.0452   -0.0945 O   0  0  0  0  0  0  0  0  0  0  0  0
   -3.7989    1.2298   -0.0006 C   0  0  0  0  0  0  0  0  0  0  0  0
   -1.1873    2.6758    0.7908 O   0  0  0  0  0  0  0  0  0  0  0  0
   -4.2314   -2.1405   -0.6740 O   0  0  0  0  0  0  0  0  0  0  0  0
   -1.5268   -1.9420    1.6125 C   0  0  0  0  0  0  0  0  0  0  0  0
   -1.0476   -1.1926    2.6977 C   0  0  0  0  0  0  0  0  0  0  0  0
   -1.1292   -1.6431    4.0187 C   0  0  0  0  0  0  0  0  0  0  0  0
   -1.7919   -2.8544    4.3038 C   0  0  0  0  0  0  0  0  0  0  0  0
   -2.3528   -3.5850    3.2312 C   0  0  0  0  0  0  0  0  0  0  0  0
   -2.2060   -3.1280    1.9058 C   0  0  0  0  0  0  0  0  0  0  0  0
   -1.9288   -3.4109    5.5480 O   0  0  0  0  0  0  0  0  0  0  0  0
   -1.3871   -2.7782    6.6945 C   0  0  0  0  0  0  0  0  0  0  0  0
   -0.6114   -0.8970    5.0476 O   0  0  0  0  0  0  0  0  0  0  0  0
    0.5420   -0.1057    4.7782 C   0  0  0  0  0  0  0  0  0  0  0  0
   -3.0530   -4.7672    3.2748 O   0  0  0  0  0  0  0  0  0  0  0  0
   -3.2800   -5.4050    4.5227 C   0  0  0  0  0  0  0  0  0  0  0  0
    1.2881   -2.4965    0.0866 H   0  0  0  0  0  0  0  0  0  0  0  0
    1.3289    2.5050   -0.1649 H   0  0  0  0  0  0  0  0  0  0  0  0
   -1.1941   -2.3934   -0.4569 H   0  0  0  0  0  0  0  0  0  0  0  0
   -2.1691   -0.4244   -1.4919 H   0  0  0  0  0  0  0  0  0  0  0  0
   -2.4224    0.5536    1.4057 H   0  0  0  0  0  0  0  0  0  0  0  0
   -1.3611    1.9250   -1.1042 H   0  0  0  0  0  0  0  0  0  0  0  0
    5.3131   -0.0039    0.3779 H   0  0  0  0  0  0  0  0  0  0  0  0
    4.8684   -0.0851   -1.3454 H   0  0  0  0  0  0  0  0  0  0  0  0
   -3.8500    1.7784   -0.9411 H   0  0  0  0  0  0  0  0  0  0  0  0
   -4.1821    1.8608    0.8099 H   0  0  0  0  0  0  0  0  0  0  0  0
   -0.7088    2.4122    1.5952 H   0  0  0  0  0  0  0  0  0  0  0  0
   -0.6000   -0.2250    2.5024 H   0  0  0  0  0  0  0  0  0  0  0  0
   -2.6340   -3.7359    1.1070 H   0  0  0  0  0  0  0  0  0  0  0  0
   -0.2959   -2.7117    6.6360 H   0  0  0  0  0  0  0  0  0  0  0  0
   -1.8576   -1.8065    6.8720 H   0  0  0  0  0  0  0  0  0  0  0  0
   -1.6236   -3.4083    7.5562 H   0  0  0  0  0  0  0  0  0  0  0  0
    1.3447   -0.6934    4.3188 H   0  0  0  0  0  0  0  0  0  0  0  0
    0.2884    0.7659    4.1676 H   0  0  0  0  0  0  0  0  0  0  0  0
    0.9108    0.2703    5.7377 H   0  0  0  0  0  0  0  0  0  0  0  0
   -2.3413   -5.7661    4.9544 H   0  0  0  0  0  0  0  0  0  0  0  0
   -3.8360   -4.7625    5.2123 H   0  0  0  0  0  0  0  0  0  0  0  0
   -3.9080   -6.2826    4.3362 H   0  0  0  0  0  0  0  0  0  0  0  0
  1  2  1  0  0  0  0
  1 11  1  0  0  0  0
  2  3  2  0  0  0  0
  3  4  1  0  0  0  0
  3 31  1  0  0  0  0
  4  5  2  0  0  0  0
  4  7  1  0  0  0  0
  5  6  1  0  0  0  0
  6  1  2  0  0  0  0
  6 32  1  0  0  0  0
  7 19  1  0  0  0  0
  7 33  1  0  0  0  0
  8  7  1  0  0  0  0
  8  9  1  0  0  0  0
  8 14  1  0  0  0  0
  8 34  1  6  0  0  0
  9 10  1  0  0  0  0
  9 16  1  0  0  0  0
  9 35  1  1  0  0  0
 10  5  1  0  0  0  0
 10 17  1  0  0  0  0
 10 36  1  6  0  0  0
 11 12  1  0  0  0  0
 12 13  1  0  0  0  0
 12 37  1  0  0  0  0
 12 38  1  0  0  0  0
 13  2  1  0  0  0  0
 14 15  1  0  0  0  0
 14 18  2  0  0  0  0
 15 16  1  0  0  0  0
 16 39  1  0  0  0  0
 16 40  1  0  0  0  0
 17 41  1  0  0  0  0
 19 20  2  0  0  0  0
 20 21  1  0  0  0  0
 20 42  1  0  0  0  0
 21 22  2  0  0  0  0
 21 27  1  0  0  0  0
 22 23  1  0  0  0  0
 22 25  1  0  0  0  0
 23 24  2  0  0  0  0
 23 29  1  0  0  0  0
 24 19  1  0  0  0  0
 24 43  1  0  0  0  0
 25 26  1  0  0  0  0
 26 44  1  0  0  0  0
 26 45  1  0  0  0  0
 26 46  1  0  0  0  0
 27 28  1  0  0  0  0
 28 47  1  0  0  0  0
 28 48  1  0  0  0  0
 28 49  1  0  0  0  0
 29 30  1  0  0  0  0
 30 50  1  0  0  0  0
 30 51  1  0  0  0  0
 30 52  1  0  0  0  0
M  END
>  <Mol_ID>
6658

>  <Formula>
C22H22O8

>  <MolWeight>
414.40528

>  <Cat>
S2345

>  <Name>
Podophyllotoxin (Podofilox)

>  <Synonyms>
Condylox,Podofilox

>  <Target>
5-alpha Reductase

>  <Form>
Free base

>  <CAS>
518-28-5

>  <URL>
http://www.selleckchem.com/products/Podophyllotoxin(Podofilox).html

$$$$
