Podophyllotoxone
 OpenBabel08302521503D

 50 54  0  0  1  0  0  0  0  0999 V2000
    1.0886    0.1826   -0.3364 O   0  0  0  0  0  0  0  0  0  0  0  0
    6.6123   -1.2767   -0.3234 O   0  0  0  0  0  0  0  0  0  0  0  0
    3.6239   -2.9471    5.1817 O   0  0  0  0  0  0  0  0  0  0  0  0
    4.9567   -3.2935    4.8234 C   0  0  0  0  0  0  0  0  0  0  0  0
   -0.8368   -1.6263    3.6228 O   0  0  0  0  0  0  0  0  0  0  0  0
   -1.4283   -1.5021    4.9067 C   0  0  0  0  0  0  0  0  0  0  0  0
    0.9009   -2.2839    5.8216 O   0  0  0  0  0  0  0  0  0  0  0  0
    1.7113   -2.6366    6.9302 C   0  0  0  0  0  0  0  0  0  0  0  0
    2.6111   -2.4388    0.3338 C   0  0  2  0  0  0  0  0  0  0  0  0
    3.7213   -3.4838    0.0925 C   0  0  0  0  0  0  0  0  0  0  0  0
    3.1166   -1.1306   -0.2670 C   0  0  2  0  0  0  0  0  0  0  0  0
    5.0888   -3.0908   -0.0838 C   0  0  0  0  0  0  0  0  0  0  0  0
    3.3933   -4.8514    0.1133 C   0  0  0  0  0  0  0  0  0  0  0  0
    4.3999   -0.6979    0.3986 C   0  0  1  0  0  0  0  0  0  0  0  0
    2.2948    0.1104   -0.1908 C   0  0  0  0  0  0  0  0  0  0  0  0
    5.4743   -1.6436   -0.0571 C   0  0  0  0  0  0  0  0  0  0  0  0
    6.0971   -4.0499   -0.2455 C   0  0  0  0  0  0  0  0  0  0  0  0
    4.4141   -5.7642   -0.0533 C   0  0  0  0  0  0  0  0  0  0  0  0
    4.5000    0.7408   -0.0143 C   0  0  0  0  0  0  0  0  0  0  0  0
    3.1332    1.1906   -0.0719 O   0  0  0  0  0  0  0  0  0  0  0  0
    5.7229   -5.3755   -0.2274 C   0  0  0  0  0  0  0  0  0  0  0  0
    4.2728   -7.1171   -0.0610 O   0  0  0  0  0  0  0  0  0  0  0  0
    6.5623   -6.4367   -0.3656 O   0  0  0  0  0  0  0  0  0  0  0  0
    5.6182   -7.5279   -0.3823 C   0  0  0  0  0  0  0  0  0  0  0  0
    2.1981   -2.3651    1.8048 C   0  0  0  0  0  0  0  0  0  0  0  0
    3.0985   -2.6476    2.8404 C   0  0  0  0  0  0  0  0  0  0  0  0
    0.8939   -2.0217    2.1651 C   0  0  0  0  0  0  0  0  0  0  0  0
    2.7255   -2.6391    4.1920 C   0  0  0  0  0  0  0  0  0  0  0  0
    0.4853   -1.9878    3.5136 C   0  0  0  0  0  0  0  0  0  0  0  0
    1.3983   -2.3128    4.5448 C   0  0  0  0  0  0  0  0  0  0  0  0
    4.9819   -4.1492    4.1404 H   0  0  0  0  0  0  0  0  0  0  0  0
    5.4807   -2.4301    4.4003 H   0  0  0  0  0  0  0  0  0  0  0  0
    5.4820   -3.5902    5.7358 H   0  0  0  0  0  0  0  0  0  0  0  0
   -1.4927   -2.4745    5.4059 H   0  0  0  0  0  0  0  0  0  0  0  0
   -0.9144   -0.7542    5.5191 H   0  0  0  0  0  0  0  0  0  0  0  0
   -2.4536   -1.1455    4.7666 H   0  0  0  0  0  0  0  0  0  0  0  0
    2.0442   -3.6774    6.8669 H   0  0  0  0  0  0  0  0  0  0  0  0
    2.5437   -1.9372    7.0535 H   0  0  0  0  0  0  0  0  0  0  0  0
    1.0923   -2.5533    7.8290 H   0  0  0  0  0  0  0  0  0  0  0  0
    1.7336   -2.7618   -0.2446 H   0  0  0  0  0  0  0  0  0  0  0  0
    3.2861   -1.2862   -1.3464 H   0  0  0  0  0  0  0  0  0  0  0  0
    2.3743   -5.1922    0.2710 H   0  0  0  0  0  0  0  0  0  0  0  0
    4.3531   -0.7277    1.4933 H   0  0  0  0  0  0  0  0  0  0  0  0
    7.1379   -3.7683   -0.3715 H   0  0  0  0  0  0  0  0  0  0  0  0
    4.9709    0.8951   -0.9912 H   0  0  0  0  0  0  0  0  0  0  0  0
    5.0350    1.3354    0.7315 H   0  0  0  0  0  0  0  0  0  0  0  0
    5.9405   -8.2896    0.3364 H   0  0  0  0  0  0  0  0  0  0  0  0
    5.6161   -7.9692   -1.3864 H   0  0  0  0  0  0  0  0  0  0  0  0
    4.1210   -2.8899    2.5783 H   0  0  0  0  0  0  0  0  0  0  0  0
    0.1597   -1.7756    1.3973 H   0  0  0  0  0  0  0  0  0  0  0  0
  1 15  2  0  0  0  0
  2 16  2  0  0  0  0
  3  4  1  0  0  0  0
  3 28  1  0  0  0  0
  4 31  1  0  0  0  0
  4 32  1  0  0  0  0
  4 33  1  0  0  0  0
  5  6  1  0  0  0  0
  5 29  1  0  0  0  0
  6 34  1  0  0  0  0
  6 35  1  0  0  0  0
  6 36  1  0  0  0  0
  7  8  1  0  0  0  0
  7 30  1  0  0  0  0
  8 37  1  0  0  0  0
  8 38  1  0  0  0  0
  8 39  1  0  0  0  0
  9 10  1  0  0  0  0
  9 11  1  0  0  0  0
  9 25  1  0  0  0  0
  9 40  1  6  0  0  0
 10 12  1  0  0  0  0
 10 13  2  0  0  0  0
 11 14  1  0  0  0  0
 11 15  1  0  0  0  0
 11 41  1  6  0  0  0
 12 16  1  0  0  0  0
 12 17  2  0  0  0  0
 13 18  1  0  0  0  0
 13 42  1  0  0  0  0
 14 16  1  0  0  0  0
 14 19  1  0  0  0  0
 14 43  1  1  0  0  0
 15 20  1  0  0  0  0
 17 21  1  0  0  0  0
 17 44  1  0  0  0  0
 18 21  2  0  0  0  0
 18 22  1  0  0  0  0
 19 20  1  0  0  0  0
 19 45  1  0  0  0  0
 19 46  1  0  0  0  0
 21 23  1  0  0  0  0
 22 24  1  0  0  0  0
 23 24  1  0  0  0  0
 24 47  1  0  0  0  0
 24 48  1  0  0  0  0
 25 26  2  0  0  0  0
 25 27  1  0  0  0  0
 26 28  1  0  0  0  0
 26 49  1  0  0  0  0
 27 29  2  0  0  0  0
 27 50  1  0  0  0  0
 28 30  2  0  0  0  0
 29 30  1  0  0  0  0
M  END
>  <Mol_ID>
9872

>  <Formula>
C22H20O8

>  <MolWeight>
412.3894

>  <Cat>
E2624

>  <Name>
Podophyllotoxone

>  <Synonyms>
NA

>  <Target>
tubulin polymerization

>  <Form>
Free Base

>  <CAS>
477-49-6

>  <URL>
https://www.selleckchem.com/products/podophyllotoxon.html

$$$$
