Poly-D-lysine hydrobromide
 OpenBabel08302521383D

 26 24  0  0  0  0  0  0  0  0999 V2000
    0.6595    0.0198   -0.1968 C   0  0  2  0  0  0  0  0  0  0  0  0
    0.2088    0.1114    1.2794 C   0  0  0  0  0  0  0  0  0  0  0  0
    0.2896    1.2443   -1.0017 C   0  0  0  0  0  0  0  0  0  0  0  0
    0.0873   -1.1702   -0.8258 N   0  0  0  0  0  0  0  0  0  0  0  0
    0.8601    1.2715    2.0532 C   0  0  0  0  0  0  0  0  0  0  0  0
   -1.0004    1.6151   -1.1606 O   0  0  0  0  0  0  0  0  0  0  0  0
    1.1663    1.9041   -1.5329 O   0  0  0  0  0  0  0  0  0  0  0  0
    0.3961    1.3400    3.5214 C   0  0  0  0  0  0  0  0  0  0  0  0
    0.7969    0.1081    4.3514 C   0  0  0  0  0  0  0  0  0  0  0  0
    0.3550    0.2607    5.7343 N   0  0  0  0  0  0  0  0  0  0  0  0
    3.5980   -1.9323    1.2464 Br  0  0  0  0  0  0  0  0  0  0  0  0
    1.7657   -0.0859   -0.2173 H   0  0  0  0  0  0  0  0  0  0  0  0
   -0.8969    0.2089    1.3294 H   0  0  0  0  0  0  0  0  0  0  0  0
    0.4971   -0.8448    1.7611 H   0  0  0  0  0  0  0  0  0  0  0  0
    0.4407   -2.0270   -0.3362 H   0  0  0  0  0  0  0  0  0  0  0  0
   -0.9558   -1.1595   -0.7458 H   0  0  0  0  0  0  0  0  0  0  0  0
    1.9671    1.1759    2.0202 H   0  0  0  0  0  0  0  0  0  0  0  0
    0.5807    2.2308    1.5647 H   0  0  0  0  0  0  0  0  0  0  0  0
   -1.7297    1.1243   -0.7655 H   0  0  0  0  0  0  0  0  0  0  0  0
    0.8595    2.2386    3.9860 H   0  0  0  0  0  0  0  0  0  0  0  0
   -0.7085    1.4656    3.5568 H   0  0  0  0  0  0  0  0  0  0  0  0
    0.3205   -0.8045    3.9402 H   0  0  0  0  0  0  0  0  0  0  0  0
    1.9020   -0.0215    4.3248 H   0  0  0  0  0  0  0  0  0  0  0  0
    0.6183   -0.6031    6.2624 H   0  0  0  0  0  0  0  0  0  0  0  0
    0.8578    1.0666    6.1711 H   0  0  0  0  0  0  0  0  0  0  0  0
    3.9411   -0.5937    0.5895 H   0  0  0  0  0  0  0  0  0  0  0  0
  1  2  1  0  0  0  0
  1  3  1  0  0  0  0
  1  4  1  0  0  0  0
  1 12  1  6  0  0  0
  2  5  1  0  0  0  0
  2 13  1  0  0  0  0
  2 14  1  0  0  0  0
  3  6  1  0  0  0  0
  3  7  2  0  0  0  0
  4 15  1  0  0  0  0
  4 16  1  0  0  0  0
  5  8  1  0  0  0  0
  5 17  1  0  0  0  0
  5 18  1  0  0  0  0
  6 19  1  0  0  0  0
  8  9  1  0  0  0  0
  8 20  1  0  0  0  0
  8 21  1  0  0  0  0
  9 10  1  0  0  0  0
  9 22  1  0  0  0  0
  9 23  1  0  0  0  0
 10 24  1  0  0  0  0
 10 25  1  0  0  0  0
 11 26  1  0  0  0  0
M  END
>  <Mol_ID>
7654

>  <Formula>
C6H15BrN2O2

>  <MolWeight>
227.0995

>  <Cat>
E4024

>  <Name>
Poly-D-lysine hydrobromide

>  <Target>
Others

>  <Form>
hydrobromide

>  <CAS>
27964-99-4

>  <URL>
https://www.selleckchem.com/products/poly-d-lysine-hydrobromide.html

$$$$
