Poly(2-hydroxyethyl methacrylate)
 OpenBabel08302521353D

 19 18  0  0  0  0  0  0  0  0999 V2000
    1.0012    0.0419   -0.2893 C   0  0  0  0  0  0  0  0  0  0  0  0
    0.1545    0.8588   -1.2161 C   0  0  0  0  0  0  0  0  0  0  0  0
    0.2786   -0.3431    0.7967 O   0  0  0  0  0  0  0  0  0  0  0  0
    2.1787   -0.2101   -0.4780 O   0  0  0  0  0  0  0  0  0  0  0  0
    0.8090    1.4779   -2.4183 C   0  0  0  0  0  0  0  0  0  0  0  0
   -1.1602    1.0380   -1.0068 C   0  0  0  0  0  0  0  0  0  0  0  0
    0.9441   -1.1669    1.7774 C   0  0  0  0  0  0  0  0  0  0  0  0
    1.7016   -0.3055    2.7829 C   0  0  0  0  0  0  0  0  0  0  0  0
    0.8240    0.6338    3.4038 O   0  0  0  0  0  0  0  0  0  0  0  0
    0.2653    1.2066   -3.3316 H   0  0  0  0  0  0  0  0  0  0  0  0
    0.7971    2.5697   -2.3295 H   0  0  0  0  0  0  0  0  0  0  0  0
    1.8461    1.1659   -2.5544 H   0  0  0  0  0  0  0  0  0  0  0  0
   -1.6869    0.6052   -0.1620 H   0  0  0  0  0  0  0  0  0  0  0  0
   -1.7569    1.6374   -1.6905 H   0  0  0  0  0  0  0  0  0  0  0  0
    0.1509   -1.7191    2.2923 H   0  0  0  0  0  0  0  0  0  0  0  0
    1.6038   -1.9001    1.3006 H   0  0  0  0  0  0  0  0  0  0  0  0
    2.1317   -0.9315    3.5704 H   0  0  0  0  0  0  0  0  0  0  0  0
    2.5070    0.2574    2.3035 H   0  0  0  0  0  0  0  0  0  0  0  0
    0.4697    1.1927    2.6891 H   0  0  0  0  0  0  0  0  0  0  0  0
  1  2  1  0  0  0  0
  1  3  1  0  0  0  0
  1  4  2  0  0  0  0
  2  5  1  0  0  0  0
  2  6  2  0  0  0  0
  3  7  1  0  0  0  0
  5 10  1  0  0  0  0
  5 11  1  0  0  0  0
  5 12  1  0  0  0  0
  6 13  1  0  0  0  0
  6 14  1  0  0  0  0
  7  8  1  0  0  0  0
  7 15  1  0  0  0  0
  7 16  1  0  0  0  0
  8  9  1  0  0  0  0
  8 17  1  0  0  0  0
  8 18  1  0  0  0  0
  9 19  1  0  0  0  0
M  END
>  <Mol_ID>
6991

>  <Formula>
C6H10O3

>  <MolWeight>
130.1418

>  <Cat>
E4026

>  <Name>
Poly(2-hydroxyethyl methacrylate)

>  <Target>
Others

>  <Form>
free base

>  <CAS>
25249-16-5

>  <URL>
https://www.selleckchem.com/products/poly-2-hydroxyethyl-methacrylate.html

$$$$
