Poly(vinyl alcohol)
 OpenBabel08302521373D

  7  6  0  0  0  0  0  0  0  0999 V2000
    1.0226   -0.0520    0.0368 C   0  0  0  0  0  0  0  0  0  0  0  0
    0.3690    0.3425    1.1299 C   0  0  0  0  0  0  0  0  0  0  0  0
    0.4238   -0.4681   -1.1166 O   0  0  0  0  0  0  0  0  0  0  0  0
    2.1028   -0.0812   -0.0443 H   0  0  0  0  0  0  0  0  0  0  0  0
   -0.7133    0.3625    1.1854 H   0  0  0  0  0  0  0  0  0  0  0  0
    0.9208    0.6597    2.0089 H   0  0  0  0  0  0  0  0  0  0  0  0
   -0.5410   -0.4263   -1.0007 H   0  0  0  0  0  0  0  0  0  0  0  0
  1  2  2  0  0  0  0
  1  3  1  0  0  0  0
  1  4  1  0  0  0  0
  2  5  1  0  0  0  0
  2  6  1  0  0  0  0
  3  7  1  0  0  0  0
M  END
>  <Mol_ID>
7591

>  <Formula>
C2H4O

>  <MolWeight>
44.05256

>  <Cat>
E2904

>  <Name>
Poly(vinyl alcohol)

>  <Target>
others

>  <Form>
free base

>  <CAS>
9002-89-5

>  <URL>
https://www.selleckchem.com/products/poly-vinyl-alcohol.html

$$$$
