Polyporusterone A
 OpenBabel08302521463D

 80 83  0  0  1  0  0  0  0  0999 V2000
    2.0649   -0.5294    2.1564 O   0  0  0  0  0  0  0  0  0  0  0  0
    2.9797    0.0267   -1.5183 C   0  0  0  0  0  0  0  0  0  0  0  0
   -0.9882    0.2719   -2.3246 C   0  0  0  0  0  0  0  0  0  0  0  0
   -1.1416    3.4723   -0.2161 O   0  0  0  0  0  0  0  0  0  0  0  0
    5.5075   -1.5026   -0.4638 C   0  0  2  0  0  0  0  0  0  0  0  0
    6.8898   -1.7464    0.2446 C   0  0  1  0  0  0  0  0  0  0  0  0
    5.0729   -2.7481   -1.2526 C   0  0  0  0  0  0  0  0  0  0  0  0
    5.7852   -0.4780   -1.4440 O   0  0  0  0  0  0  0  0  0  0  0  0
    7.0584   -2.9994    1.1264 C   0  0  0  0  0  0  0  0  0  0  0  0
    7.8869   -1.8001   -0.8085 O   0  0  0  0  0  0  0  0  0  0  0  0
    8.5163   -3.1898    1.6641 C   0  0  1  0  0  0  0  0  0  0  0  0
    9.0230   -2.0041    2.5381 C   0  0  0  0  0  0  0  0  0  0  0  0
    8.6415   -4.5497    2.3695 C   0  0  0  0  0  0  0  0  0  0  0  0
    8.1685   -1.7577    3.7830 C   0  0  0  0  0  0  0  0  0  0  0  0
   10.4960   -2.1543    2.9432 C   0  0  0  0  0  0  0  0  0  0  0  0
   -4.0156   -2.4604    0.3542 O   0  0  0  0  0  0  0  0  0  0  0  0
   -4.7704    0.1494    0.5150 O   0  0  0  0  0  0  0  0  0  0  0  0
    0.8785    0.6110    0.4122 C   0  0  0  0  0  0  0  0  0  0  0  0
    2.2526    0.1759    0.9155 C   0  0  2  0  0  0  0  0  0  0  0  0
   -0.0545   -0.5347   -0.0244 C   0  0  1  0  0  0  0  0  0  0  0  0
    0.4984    1.8991    0.3584 C   0  0  0  0  0  0  0  0  0  0  0  0
    2.9330   -0.7297   -0.1531 C   0  0  2  0  0  0  0  0  0  0  0  0
    3.3561    1.1903    1.2448 C   0  0  0  0  0  0  0  0  0  0  0  0
   -1.3232   -0.0644   -0.8447 C   0  0  1  0  0  0  0  0  0  0  0  0
    0.6544   -1.7319   -0.7126 C   0  0  0  0  0  0  0  0  0  0  0  0
   -0.8727    2.2855   -0.0531 C   0  0  0  0  0  0  0  0  0  0  0  0
    4.3597   -0.9767    0.4699 C   0  0  2  0  0  0  0  0  0  0  0  0
    2.0830   -2.0153   -0.2498 C   0  0  0  0  0  0  0  0  0  0  0  0
    4.6737    0.3851    1.1547 C   0  0  0  0  0  0  0  0  0  0  0  0
   -1.9281    1.2018   -0.1874 C   0  0  2  0  0  0  0  0  0  0  0  0
   -2.4096   -1.1747   -0.8728 C   0  0  0  0  0  0  0  0  0  0  0  0
   -2.5602    0.9375    1.1897 C   0  0  0  0  0  0  0  0  0  0  0  0
   -2.9900   -1.4822    0.5081 C   0  0  1  0  0  0  0  0  0  0  0  0
   -3.5558   -0.2222    1.1792 C   0  0  2  0  0  0  0  0  0  0  0  0
    1.2150   -0.9923    2.1533 H   0  0  0  0  0  0  0  0  0  0  0  0
    3.2729    1.0753   -1.4044 H   0  0  0  0  0  0  0  0  0  0  0  0
    3.6552   -0.4261   -2.2407 H   0  0  0  0  0  0  0  0  0  0  0  0
    2.0122    0.0476   -2.0241 H   0  0  0  0  0  0  0  0  0  0  0  0
   -0.7521   -0.6250   -2.9063 H   0  0  0  0  0  0  0  0  0  0  0  0
   -1.8478    0.7329   -2.8260 H   0  0  0  0  0  0  0  0  0  0  0  0
   -0.1475    0.9648   -2.4164 H   0  0  0  0  0  0  0  0  0  0  0  0
    7.1327   -0.8502    0.8210 H   0  0  0  0  0  0  0  0  0  0  0  0
    4.3338   -2.5000   -2.0202 H   0  0  0  0  0  0  0  0  0  0  0  0
    5.9000   -3.1928   -1.8130 H   0  0  0  0  0  0  0  0  0  0  0  0
    4.6599   -3.5185   -0.5939 H   0  0  0  0  0  0  0  0  0  0  0  0
    6.7220   -0.6060   -1.7040 H   0  0  0  0  0  0  0  0  0  0  0  0
    6.3420   -2.9833    1.9542 H   0  0  0  0  0  0  0  0  0  0  0  0
    6.8248   -3.8898    0.5277 H   0  0  0  0  0  0  0  0  0  0  0  0
    7.8350   -2.6790   -1.2257 H   0  0  0  0  0  0  0  0  0  0  0  0
    9.1827   -3.2475    0.7917 H   0  0  0  0  0  0  0  0  0  0  0  0
    8.9808   -1.0937    1.9286 H   0  0  0  0  0  0  0  0  0  0  0  0
    8.3599   -5.3635    1.6926 H   0  0  0  0  0  0  0  0  0  0  0  0
    9.6734   -4.7479    2.6774 H   0  0  0  0  0  0  0  0  0  0  0  0
    8.0008   -4.6128    3.2536 H   0  0  0  0  0  0  0  0  0  0  0  0
    8.1394   -2.6349    4.4364 H   0  0  0  0  0  0  0  0  0  0  0  0
    8.5708   -0.9239    4.3686 H   0  0  0  0  0  0  0  0  0  0  0  0
    7.1416   -1.4954    3.5130 H   0  0  0  0  0  0  0  0  0  0  0  0
   11.1301   -2.3024    2.0628 H   0  0  0  0  0  0  0  0  0  0  0  0
   10.8464   -1.2483    3.4513 H   0  0  0  0  0  0  0  0  0  0  0  0
   10.6545   -2.9911    3.6299 H   0  0  0  0  0  0  0  0  0  0  0  0
   -4.8538   -1.9570    0.2665 H   0  0  0  0  0  0  0  0  0  0  0  0
   -4.5590    0.6502   -0.2912 H   0  0  0  0  0  0  0  0  0  0  0  0
   -0.4143   -0.9344    0.9307 H   0  0  0  0  0  0  0  0  0  0  0  0
    1.1414    2.7261    0.6395 H   0  0  0  0  0  0  0  0  0  0  0  0
    3.3929    2.0262    0.5393 H   0  0  0  0  0  0  0  0  0  0  0  0
    3.2438    1.6201    2.2486 H   0  0  0  0  0  0  0  0  0  0  0  0
    0.0593   -2.6393   -0.5523 H   0  0  0  0  0  0  0  0  0  0  0  0
    0.6900   -1.6051   -1.7968 H   0  0  0  0  0  0  0  0  0  0  0  0
    4.2441   -1.7189    1.2738 H   0  0  0  0  0  0  0  0  0  0  0  0
    2.0448   -2.5281    0.7196 H   0  0  0  0  0  0  0  0  0  0  0  0
    2.5127   -2.7381   -0.9436 H   0  0  0  0  0  0  0  0  0  0  0  0
    5.4205    0.9709    0.6093 H   0  0  0  0  0  0  0  0  0  0  0  0
    5.0779    0.2061    2.1585 H   0  0  0  0  0  0  0  0  0  0  0  0
   -2.7038    1.6055   -0.8544 H   0  0  0  0  0  0  0  0  0  0  0  0
   -3.2281   -0.8763   -1.5432 H   0  0  0  0  0  0  0  0  0  0  0  0
   -2.0193   -2.0980   -1.3193 H   0  0  0  0  0  0  0  0  0  0  0  0
   -1.7766    0.7294    1.9285 H   0  0  0  0  0  0  0  0  0  0  0  0
   -3.0648    1.8525    1.5250 H   0  0  0  0  0  0  0  0  0  0  0  0
   -2.2268   -1.9358    1.1469 H   0  0  0  0  0  0  0  0  0  0  0  0
   -3.8451   -0.4655    2.2067 H   0  0  0  0  0  0  0  0  0  0  0  0
  1 35  1  0  0  0  0
  2 36  1  0  0  0  0
  2 37  1  0  0  0  0
  2 38  1  0  0  0  0
  3 39  1  0  0  0  0
  3 40  1  0  0  0  0
  3 41  1  0  0  0  0
  4 26  2  0  0  0  0
  5  6  1  0  0  0  0
  5  7  1  0  0  0  0
  5  8  1  6  0  0  0
  6  9  1  0  0  0  0
  6 10  1  0  0  0  0
  6 42  1  1  0  0  0
  7 43  1  0  0  0  0
  7 44  1  0  0  0  0
  7 45  1  0  0  0  0
  8 46  1  0  0  0  0
  9 11  1  0  0  0  0
  9 47  1  0  0  0  0
  9 48  1  0  0  0  0
 10 49  1  0  0  0  0
 11 12  1  0  0  0  0
 11 13  1  0  0  0  0
 11 50  1  6  0  0  0
 12 14  1  0  0  0  0
 12 15  1  0  0  0  0
 12 51  1  0  0  0  0
 13 52  1  0  0  0  0
 13 53  1  0  0  0  0
 13 54  1  0  0  0  0
 14 55  1  0  0  0  0
 14 56  1  0  0  0  0
 14 57  1  0  0  0  0
 15 58  1  0  0  0  0
 15 59  1  0  0  0  0
 15 60  1  0  0  0  0
 16 61  1  0  0  0  0
 17 62  1  0  0  0  0
 18 19  1  0  0  0  0
 18 20  1  0  0  0  0
 18 21  2  0  0  0  0
 19  1  1  1  0  0  0
 19 22  1  0  0  0  0
 19 23  1  0  0  0  0
 20 24  1  0  0  0  0
 20 25  1  0  0  0  0
 20 63  1  1  0  0  0
 21 26  1  0  0  0  0
 21 64  1  0  0  0  0
 22  2  1  6  0  0  0
 22 27  1  0  0  0  0
 22 28  1  0  0  0  0
 23 29  1  0  0  0  0
 23 65  1  0  0  0  0
 23 66  1  0  0  0  0
 24  3  1  6  0  0  0
 24 30  1  0  0  0  0
 24 31  1  0  0  0  0
 25 28  1  0  0  0  0
 25 67  1  0  0  0  0
 25 68  1  0  0  0  0
 26 30  1  0  0  0  0
 27 29  1  0  0  0  0
 27 69  1  1  0  0  0
 27  5  1  0  0  0  0
 28 70  1  0  0  0  0
 28 71  1  0  0  0  0
 29 72  1  0  0  0  0
 29 73  1  0  0  0  0
 30 32  1  0  0  0  0
 30 74  1  6  0  0  0
 31 33  1  0  0  0  0
 31 75  1  0  0  0  0
 31 76  1  0  0  0  0
 32 34  1  0  0  0  0
 32 77  1  0  0  0  0
 32 78  1  0  0  0  0
 33 16  1  0  0  0  0
 33 34  1  0  0  0  0
 33 79  1  1  0  0  0
 34 17  1  0  0  0  0
 34 80  1  1  0  0  0
M  END
>  <Mol_ID>
9666

>  <Formula>
C28H46O6

>  <MolWeight>
478.66124

>  <Cat>
E0592

>  <Name>
Polyporusterone A

>  <Synonyms>
NA

>  <Target>
NA

>  <Form>
Free Base

>  <CAS>
141360-88-5

>  <URL>
https://www.selleckchem.com/products/polyporusterone-a.html

$$$$
