POMHEX
 OpenBabel08302521383D

 58 58  0  0  0  0  0  0  0  0999 V2000
    1.0576   -0.0640   -0.0508 P   0  0  0  0  0  0  0  0  0  0  0  0
    1.1559    1.5939    0.1149 O   0  0  0  0  0  0  0  0  0  0  0  0
    1.1515   -0.0745   -1.7030 O   0  0  0  0  0  0  0  0  0  0  0  0
   -0.4907   -0.0640   -0.0508 O   0  0  0  0  0  0  0  0  0  0  0  0
    0.5721    2.2249    1.2390 C   0  0  0  0  0  0  0  0  0  0  0  0
    1.0579   -1.2865   -2.4073 C   0  0  0  0  0  0  0  0  0  0  0  0
    0.7106    3.6611    1.1711 O   0  0  0  0  0  0  0  0  0  0  0  0
    1.2488   -1.0548   -3.8081 O   0  0  0  0  0  0  0  0  0  0  0  0
    1.8543    4.2046    1.6649 C   0  0  0  0  0  0  0  0  0  0  0  0
    0.1330   -0.6359   -4.4458 C   0  0  0  0  0  0  0  0  0  0  0  0
    1.8489    5.7494    1.6068 C   0  0  0  0  0  0  0  0  0  0  0  0
    2.7592    3.5463    2.1736 O   0  0  0  0  0  0  0  0  0  0  0  0
    0.3735   -0.2770   -5.9231 C   0  0  0  0  0  0  0  0  0  0  0  0
   -0.9794   -0.5843   -3.9318 O   0  0  0  0  0  0  0  0  0  0  0  0
    0.6443    6.3194    0.8383 C   0  0  0  0  0  0  0  0  0  0  0  0
    1.8236    6.2906    3.0475 C   0  0  0  0  0  0  0  0  0  0  0  0
    3.1320    6.2719    0.9303 C   0  0  0  0  0  0  0  0  0  0  0  0
    1.8546   -0.2962   -6.3293 C   0  0  0  0  0  0  0  0  0  0  0  0
   -0.4032   -1.3064   -6.7576 C   0  0  0  0  0  0  0  0  0  0  0  0
   -0.1920    1.1303   -6.1881 C   0  0  0  0  0  0  0  0  0  0  0  0
    3.5405    1.8879   -1.3522 O   0  0  0  0  0  0  0  0  0  0  0  0
    4.5872    0.4892   -3.2927 O   0  0  0  0  0  0  0  0  0  0  0  0
    2.8876   -0.0640   -0.0508 C   0  0  3  0  0  0  0  0  0  0  0  0
    3.5513    0.6722   -1.1954 C   0  0  0  0  0  0  0  0  0  0  0  0
    3.6872   -1.2739    0.4293 C   0  0  0  0  0  0  0  0  0  0  0  0
    4.0634   -0.1854   -2.1662 N   0  0  0  0  0  0  0  0  0  0  0  0
    4.2783   -2.1547   -0.6597 C   0  0  0  0  0  0  0  0  0  0  0  0
    4.8208   -1.3824   -1.8589 C   0  0  0  0  0  0  0  0  0  0  0  0
   -0.5058    2.0339    1.2463 H   0  0  0  0  0  0  0  0  0  0  0  0
    0.9868    1.8271    2.1721 H   0  0  0  0  0  0  0  0  0  0  0  0
    1.8727   -1.9430   -2.0940 H   0  0  0  0  0  0  0  0  0  0  0  0
    0.1215   -1.8145   -2.1910 H   0  0  0  0  0  0  0  0  0  0  0  0
   -0.3023    6.0360    1.3119 H   0  0  0  0  0  0  0  0  0  0  0  0
    0.6768    7.4136    0.7979 H   0  0  0  0  0  0  0  0  0  0  0  0
    0.6239    5.9497   -0.1930 H   0  0  0  0  0  0  0  0  0  0  0  0
    2.6695    5.9081    3.6298 H   0  0  0  0  0  0  0  0  0  0  0  0
    1.8839    7.3867    3.0634 H   0  0  0  0  0  0  0  0  0  0  0  0
    0.9058    5.9977    3.5669 H   0  0  0  0  0  0  0  0  0  0  0  0
    4.0333    5.8577    1.3962 H   0  0  0  0  0  0  0  0  0  0  0  0
    3.1580    6.0175   -0.1330 H   0  0  0  0  0  0  0  0  0  0  0  0
    3.1979    7.3641    1.0084 H   0  0  0  0  0  0  0  0  0  0  0  0
    2.2713   -1.3087   -6.2825 H   0  0  0  0  0  0  0  0  0  0  0  0
    1.9862    0.0697   -7.3537 H   0  0  0  0  0  0  0  0  0  0  0  0
    2.4597    0.3373   -5.6704 H   0  0  0  0  0  0  0  0  0  0  0  0
   -1.4298   -1.4283   -6.3907 H   0  0  0  0  0  0  0  0  0  0  0  0
   -0.4611   -1.0083   -7.8093 H   0  0  0  0  0  0  0  0  0  0  0  0
    0.0737   -2.2919   -6.7130 H   0  0  0  0  0  0  0  0  0  0  0  0
   -1.1311    1.3076   -5.6542 H   0  0  0  0  0  0  0  0  0  0  0  0
    0.5121    1.9088   -5.8717 H   0  0  0  0  0  0  0  0  0  0  0  0
   -0.3885    1.2826   -7.2565 H   0  0  0  0  0  0  0  0  0  0  0  0
    3.9643    1.2496   -3.3588 H   0  0  0  0  0  0  0  0  0  0  0  0
    3.0688    0.6162    0.7997 H   0  0  0  0  0  0  0  0  0  0  0  0
    4.5390   -0.8908    1.0117 H   0  0  0  0  0  0  0  0  0  0  0  0
    3.0941   -1.8748    1.1276 H   0  0  0  0  0  0  0  0  0  0  0  0
    3.5221   -2.8725   -0.9908 H   0  0  0  0  0  0  0  0  0  0  0  0
    5.0916   -2.7590   -0.2333 H   0  0  0  0  0  0  0  0  0  0  0  0
    4.7785   -2.0181   -2.7482 H   0  0  0  0  0  0  0  0  0  0  0  0
    5.8682   -1.1051   -1.6979 H   0  0  0  0  0  0  0  0  0  0  0  0
  1  2  1  0  0  0  0
  1  3  1  0  0  0  0
  1  4  2  0  0  0  0
  1 23  1  0  0  0  0
  2  5  1  0  0  0  0
  3  6  1  0  0  0  0
  5  7  1  0  0  0  0
  5 29  1  0  0  0  0
  5 30  1  0  0  0  0
  6  8  1  0  0  0  0
  6 31  1  0  0  0  0
  6 32  1  0  0  0  0
  7  9  1  0  0  0  0
  8 10  1  0  0  0  0
  9 11  1  0  0  0  0
  9 12  2  0  0  0  0
 10 13  1  0  0  0  0
 10 14  2  0  0  0  0
 11 15  1  0  0  0  0
 11 16  1  0  0  0  0
 11 17  1  0  0  0  0
 13 18  1  0  0  0  0
 13 19  1  0  0  0  0
 13 20  1  0  0  0  0
 15 33  1  0  0  0  0
 15 34  1  0  0  0  0
 15 35  1  0  0  0  0
 16 36  1  0  0  0  0
 16 37  1  0  0  0  0
 16 38  1  0  0  0  0
 17 39  1  0  0  0  0
 17 40  1  0  0  0  0
 17 41  1  0  0  0  0
 18 42  1  0  0  0  0
 18 43  1  0  0  0  0
 18 44  1  0  0  0  0
 19 45  1  0  0  0  0
 19 46  1  0  0  0  0
 19 47  1  0  0  0  0
 20 48  1  0  0  0  0
 20 49  1  0  0  0  0
 20 50  1  0  0  0  0
 21 24  2  0  0  0  0
 22 26  1  0  0  0  0
 22 51  1  0  0  0  0
 23 24  1  0  0  0  0
 23 25  1  0  0  0  0
 23 52  1  0  0  0  0
 24 26  1  0  0  0  0
 25 27  1  0  0  0  0
 25 53  1  0  0  0  0
 25 54  1  0  0  0  0
 26 28  1  0  0  0  0
 27 28  1  0  0  0  0
 27 55  1  0  0  0  0
 27 56  1  0  0  0  0
 28 57  1  0  0  0  0
 28 58  1  0  0  0  0
M  END
>  <Mol_ID>
7691

>  <Formula>
C17H30NO9P

>  <MolWeight>
423.395161

>  <Cat>
E1028

>  <Name>
POMHEX

>  <Target>
Others

>  <Form>
phosphate

>  <CAS>
2004714-34-3

>  <URL>
https://www.selleckchem.com/products/pomhex.html

$$$$
