Ponesimod (ACT-128800).cdx
 OpenBabel08302520413D

 56 58  0  0  0  0  0  0  0  0999 V2000
    1.0838   -0.2010   -0.6926 C   0  0  0  0  0  0  0  0  0  0  0  0
    0.1793   -1.2634   -0.5715 C   0  0  0  0  0  0  0  0  0  0  0  0
   -1.1277   -1.0422   -0.1219 C   0  0  0  0  0  0  0  0  0  0  0  0
   -1.5266    0.2573    0.1853 C   0  0  0  0  0  0  0  0  0  0  0  0
   -0.6161    1.3183    0.0698 C   0  0  0  0  0  0  0  0  0  0  0  0
    0.6960    1.0983   -0.3667 C   0  0  0  0  0  0  0  0  0  0  0  0
    1.5038    2.2088   -0.3911 O   0  0  0  0  0  0  0  0  0  0  0  0
   -2.0167   -2.2013    0.0316 C   0  0  0  0  0  0  0  0  0  0  0  0
   -2.1181   -2.9380    1.1480 C   0  0  0  0  0  0  0  0  0  0  0  0
   -1.3611   -2.6464    2.6617 S   0  0  0  0  0  0  0  0  0  0  0  0
   -1.8563   -4.1945    3.3081 C   0  0  0  0  0  0  0  0  0  0  0  0
   -2.7129   -4.8259    2.4235 N   0  0  0  0  0  0  0  0  0  0  0  0
   -2.8721   -4.2248    1.1837 C   0  0  0  0  0  0  0  0  0  0  0  0
   -1.4636   -4.7162    4.4148 N   0  0  0  0  0  0  0  0  0  0  0  0
   -0.5091   -4.0133    5.2653 C   0  0  0  0  0  0  0  0  0  0  0  0
   -0.0798   -4.9320    6.4107 C   0  0  0  0  0  0  0  0  0  0  0  0
    0.6803   -6.1642    5.9376 C   0  0  0  0  0  0  0  0  0  0  0  0
   -3.5035   -4.6439    0.2211 O   0  0  0  0  0  0  0  0  0  0  0  0
   -3.2322   -6.1269    2.6951 C   0  0  0  0  0  0  0  0  0  0  0  0
   -2.9231   -7.1802    1.8188 C   0  0  0  0  0  0  0  0  0  0  0  0
   -3.2868   -8.4928    2.1261 C   0  0  0  0  0  0  0  0  0  0  0  0
   -3.9747   -8.7672    3.3028 C   0  0  0  0  0  0  0  0  0  0  0  0
   -4.3356   -7.7234    4.1525 C   0  0  0  0  0  0  0  0  0  0  0  0
   -3.9938   -6.3928    3.8514 C   0  0  0  0  0  0  0  0  0  0  0  0
   -4.5198   -5.3162    4.7601 C   0  0  0  0  0  0  0  0  0  0  0  0
    2.7175    2.1099   -1.1527 C   0  0  0  0  0  0  0  0  0  0  0  0
    3.6528    3.3021   -0.8766 C   0  0  1  0  0  0  0  0  0  0  0  0
    3.0072    4.6735   -1.0942 C   0  0  0  0  0  0  0  0  0  0  0  0
    4.1370    3.2271    0.4717 O   0  0  0  0  0  0  0  0  0  0  0  0
    1.9862    4.9151   -0.1269 O   0  0  0  0  0  0  0  0  0  0  0  0
    2.0883   -0.4463   -1.0185 H   0  0  0  0  0  0  0  0  0  0  0  0
    0.5138   -2.2710   -0.8122 H   0  0  0  0  0  0  0  0  0  0  0  0
   -2.5387    0.4582    0.5282 H   0  0  0  0  0  0  0  0  0  0  0  0
   -0.9357    2.3233    0.3329 H   0  0  0  0  0  0  0  0  0  0  0  0
   -2.5337   -2.5102   -0.8752 H   0  0  0  0  0  0  0  0  0  0  0  0
    0.3817   -3.7047    4.7057 H   0  0  0  0  0  0  0  0  0  0  0  0
   -0.9816   -3.1232    5.6963 H   0  0  0  0  0  0  0  0  0  0  0  0
    0.5656   -4.3645    7.0913 H   0  0  0  0  0  0  0  0  0  0  0  0
   -0.9562   -5.2513    6.9856 H   0  0  0  0  0  0  0  0  0  0  0  0
    1.5454   -5.8871    5.3267 H   0  0  0  0  0  0  0  0  0  0  0  0
    1.0431   -6.7351    6.7993 H   0  0  0  0  0  0  0  0  0  0  0  0
    0.0390   -6.8268    5.3483 H   0  0  0  0  0  0  0  0  0  0  0  0
   -2.3531   -6.9994    0.9111 H   0  0  0  0  0  0  0  0  0  0  0  0
   -3.0132   -9.3026    1.4550 H   0  0  0  0  0  0  0  0  0  0  0  0
   -4.2386   -9.7908    3.5568 H   0  0  0  0  0  0  0  0  0  0  0  0
   -4.8986   -7.9482    5.0573 H   0  0  0  0  0  0  0  0  0  0  0  0
   -5.5982   -5.4529    4.9028 H   0  0  0  0  0  0  0  0  0  0  0  0
   -4.0229   -5.3580    5.7329 H   0  0  0  0  0  0  0  0  0  0  0  0
   -4.3947   -4.3136    4.3417 H   0  0  0  0  0  0  0  0  0  0  0  0
    3.2746    1.2078   -0.8851 H   0  0  0  0  0  0  0  0  0  0  0  0
    2.4543    2.0892   -2.2165 H   0  0  0  0  0  0  0  0  0  0  0  0
    4.5255    3.2077   -1.5323 H   0  0  0  0  0  0  0  0  0  0  0  0
    3.7594    5.4579   -0.9544 H   0  0  0  0  0  0  0  0  0  0  0  0
    2.5876    4.7704   -2.0994 H   0  0  0  0  0  0  0  0  0  0  0  0
    3.5136    3.7514    1.0138 H   0  0  0  0  0  0  0  0  0  0  0  0
    1.3846    4.1440   -0.1451 H   0  0  0  0  0  0  0  0  0  0  0  0
  1  2  2  0  0  0  0
  1 31  1  0  0  0  0
  2  3  1  0  0  0  0
  2 32  1  0  0  0  0
  3  4  2  0  0  0  0
  3  8  1  0  0  0  0
  4  5  1  0  0  0  0
  4 33  1  0  0  0  0
  5  6  2  0  0  0  0
  5 34  1  0  0  0  0
  6  1  1  0  0  0  0
  6  7  1  0  0  0  0
  7 26  1  0  0  0  0
  8  9  2  0  0  0  0
  8 35  1  0  0  0  0
  9 10  1  0  0  0  0
 10 11  1  0  0  0  0
 11 12  1  0  0  0  0
 11 14  2  0  0  0  0
 12 13  1  0  0  0  0
 12 19  1  0  0  0  0
 13  9  1  0  0  0  0
 13 18  2  0  0  0  0
 14 15  1  0  0  0  0
 15 16  1  0  0  0  0
 15 36  1  0  0  0  0
 15 37  1  0  0  0  0
 16 17  1  0  0  0  0
 16 38  1  0  0  0  0
 16 39  1  0  0  0  0
 17 40  1  0  0  0  0
 17 41  1  0  0  0  0
 17 42  1  0  0  0  0
 19 20  2  0  0  0  0
 20 21  1  0  0  0  0
 20 43  1  0  0  0  0
 21 22  2  0  0  0  0
 21 44  1  0  0  0  0
 22 23  1  0  0  0  0
 22 45  1  0  0  0  0
 23 24  2  0  0  0  0
 23 46  1  0  0  0  0
 24 19  1  0  0  0  0
 24 25  1  0  0  0  0
 25 47  1  0  0  0  0
 25 48  1  0  0  0  0
 25 49  1  0  0  0  0
 26 27  1  0  0  0  0
 26 50  1  0  0  0  0
 26 51  1  0  0  0  0
 27 28  1  0  0  0  0
 27 29  1  0  0  0  0
 27 52  1  6  0  0  0
 28 30  1  0  0  0  0
 28 53  1  0  0  0  0
 28 54  1  0  0  0  0
 29 55  1  0  0  0  0
 30 56  1  0  0  0  0
M  END
>  <Mol_ID>
3935

>  <Formula>
C23H25ClN2O4S

>  <MolWeight>
460.9736

>  <Cat>
S8241

>  <Name>
Ponesimod

>  <Synonyms>
ACT-128800

>  <Target>
S1P Receptor

>  <Form>
free base

>  <CAS>
854107-55-4

>  <URL>
http://selleckchem.com/products/ponesimod-act-128800.html

$$$$
