Ponicidin
 OpenBabel08302521463D

 52 57  0  0  1  0  0  0  0  0999 V2000
    1.3296    0.1034    1.4051 O   0  0  0  0  0  0  0  0  0  0  0  0
    4.4948   -1.1137    2.8137 O   0  0  0  0  0  0  0  0  0  0  0  0
    2.5410    2.2138    0.2954 O   0  0  0  0  0  0  0  0  0  0  0  0
    3.1819   -3.4548    3.8367 C   0  0  0  0  0  0  0  0  0  0  0  0
    5.5271   -2.0362   -3.3190 O   0  0  0  0  0  0  0  0  0  0  0  0
    2.9248    1.3556   -3.1663 C   0  0  0  0  0  0  0  0  0  0  0  0
    3.7002    3.2604   -1.8454 C   0  0  0  0  0  0  0  0  0  0  0  0
    3.2166   -1.4896    0.8169 C   0  0  1  0  0  0  0  0  0  0  0  0
    4.3571   -2.0792   -0.3376 C   0  0  3  0  0  0  0  0  0  0  0  0
    2.4160   -0.1234    0.5188 C   0  0  2  0  0  0  0  0  0  0  0  0
    2.0466   -2.4655    0.6045 C   0  0  2  0  0  0  0  0  0  0  0  0
    3.6850   -1.7709    2.1829 C   0  0  0  0  0  0  0  0  0  0  0  0
    4.1338   -0.8226   -1.5166 C   0  0  3  0  0  0  0  0  0  0  0  0
    3.8667   -3.6530   -0.9635 C   0  0  0  0  0  0  0  0  0  0  0  0
    3.3502    1.0463    0.3715 C   0  0  3  0  0  0  0  0  0  0  0  0
    1.7173   -0.0889   -0.8263 O   0  0  0  0  0  0  0  0  0  0  0  0
    2.6333   -3.7835    1.2617 C   0  0  3  0  0  0  0  0  0  0  0  0
    1.7043   -2.4031   -0.9587 O   0  0  0  0  0  0  0  0  0  0  0  0
    3.1319   -3.1358    2.5560 C   0  0  0  0  0  0  0  0  0  0  0  0
    2.3894   -1.1006   -1.6767 C   0  0  3  0  0  0  0  0  0  0  0  0
    4.2052    0.7600   -0.9133 C   0  0  3  0  0  0  0  0  0  0  0  0
    5.3710   -0.8540   -2.5287 C   0  0  3  0  0  0  0  0  0  0  0  0
    2.8703   -4.5228   -0.0630 C   0  0  0  0  0  0  0  0  0  0  0  0
    4.0198    1.7784   -2.1464 C   0  0  0  0  0  0  0  0  0  0  0  0
    5.6505    0.3742   -3.4454 C   0  0  0  0  0  0  0  0  0  0  0  0
    5.3851    1.7510   -2.8468 C   0  0  0  0  0  0  0  0  0  0  0  0
    0.5484   -0.1055    0.8564 H   0  0  0  0  0  0  0  0  0  0  0  0
    1.6605    1.9440   -0.0145 H   0  0  0  0  0  0  0  0  0  0  0  0
    3.6423   -2.7955    4.5938 H   0  0  0  0  0  0  0  0  0  0  0  0
    2.8182   -4.4050    4.2236 H   0  0  0  0  0  0  0  0  0  0  0  0
    6.3748   -1.9919   -3.8140 H   0  0  0  0  0  0  0  0  0  0  0  0
    1.9261    1.4397   -2.7404 H   0  0  0  0  0  0  0  0  0  0  0  0
    2.9587    1.9933   -4.0548 H   0  0  0  0  0  0  0  0  0  0  0  0
    3.0496    0.3345   -3.5414 H   0  0  0  0  0  0  0  0  0  0  0  0
    4.3603    3.6998   -1.0948 H   0  0  0  0  0  0  0  0  0  0  0  0
    3.7889    3.8640   -2.7618 H   0  0  0  0  0  0  0  0  0  0  0  0
    2.6569    3.4158   -1.5493 H   0  0  0  0  0  0  0  0  0  0  0  0
    5.3789   -2.1707    0.0369 H   0  0  0  0  0  0  0  0  0  0  0  0
    1.0685   -2.2481    1.0689 H   0  0  0  0  0  0  0  0  0  0  0  0
    4.7317   -4.2781   -1.2060 H   0  0  0  0  0  0  0  0  0  0  0  0
    3.3681   -3.5373   -1.9420 H   0  0  0  0  0  0  0  0  0  0  0  0
    3.9862    1.1527    1.2561 H   0  0  0  0  0  0  0  0  0  0  0  0
    3.7238   -4.0341    1.2995 H   0  0  0  0  0  0  0  0  0  0  0  0
    2.8723   -1.3502   -0.8887 H   0  0  0  0  0  0  0  0  0  0  0  0
    5.2386    0.8658   -0.5429 H   0  0  0  0  0  0  0  0  0  0  0  0
    6.2476   -0.8596   -1.8563 H   0  0  0  0  0  0  0  0  0  0  0  0
    3.1884   -5.5655    0.0880 H   0  0  0  0  0  0  0  0  0  0  0  0
    1.8782   -4.6641   -0.5341 H   0  0  0  0  0  0  0  0  0  0  0  0
    6.7051    0.3634   -3.7636 H   0  0  0  0  0  0  0  0  0  0  0  0
    5.0955    0.2725   -4.3852 H   0  0  0  0  0  0  0  0  0  0  0  0
    6.1813    2.0213   -2.1347 H   0  0  0  0  0  0  0  0  0  0  0  0
    5.4391    2.5141   -3.6347 H   0  0  0  0  0  0  0  0  0  0  0  0
  1 27  1  0  0  0  0
  2 12  2  0  0  0  0
  3 28  1  0  0  0  0
  4 19  2  0  0  0  0
  4 29  1  0  0  0  0
  4 30  1  0  0  0  0
  5 31  1  0  0  0  0
  6 24  1  0  0  0  0
  6 32  1  0  0  0  0
  6 33  1  0  0  0  0
  6 34  1  0  0  0  0
  7 24  1  0  0  0  0
  7 35  1  0  0  0  0
  7 36  1  0  0  0  0
  7 37  1  0  0  0  0
  8  9  1  0  0  0  0
  8 10  1  0  0  0  0
  8 11  1  0  0  0  0
  8 12  1  1  0  0  0
  9 14  1  0  0  0  0
  9 38  1  0  0  0  0
 10  1  1  1  0  0  0
 10 15  1  0  0  0  0
 10 16  1  0  0  0  0
 11 17  1  0  0  0  0
 11 18  1  0  0  0  0
 11 39  1  1  0  0  0
 12 19  1  0  0  0  0
 13  9  1  0  0  0  0
 13 20  1  0  0  0  0
 13 21  1  0  0  0  0
 13 22  1  0  0  0  0
 14 23  1  0  0  0  0
 14 40  1  0  0  0  0
 14 41  1  0  0  0  0
 15  3  1  0  0  0  0
 15 21  1  0  0  0  0
 15 42  1  0  0  0  0
 17 19  1  0  0  0  0
 17 23  1  0  0  0  0
 17 43  1  0  0  0  0
 20 16  1  0  0  0  0
 20 18  1  0  0  0  0
 20 44  1  0  0  0  0
 21 24  1  0  0  0  0
 21 45  1  0  0  0  0
 22  5  1  0  0  0  0
 22 25  1  0  0  0  0
 22 46  1  0  0  0  0
 23 47  1  0  0  0  0
 23 48  1  0  0  0  0
 24 26  1  0  0  0  0
 25 26  1  0  0  0  0
 25 49  1  0  0  0  0
 25 50  1  0  0  0  0
 26 51  1  0  0  0  0
 26 52  1  0  0  0  0
M  END
>  <Mol_ID>
9749

>  <Formula>
C20H26O6

>  <MolWeight>
362.41684

>  <Cat>
E2223

>  <Name>
Ponicidin

>  <Synonyms>
Rubescensine B

>  <Target>
PGAM5, Apoptosis

>  <Form>
Free Base

>  <CAS>
52617-37-5

>  <URL>
https://www.selleckchem.com/products/ponicidin.html

$$$$
