Potassium sorbate
 OpenBabel08302521383D

 15 14  0  0  0  0  0  0  0  0999 V2000
    1.1514   -0.0676    0.1359 O   0  5  0  0  0  0  0  0  0  0  0  0
    3.1614    0.8015   -0.5254 O   0  0  0  0  0  0  0  0  0  0  0  0
    3.2750   -3.0090    2.3740 C   0  0  0  0  0  0  0  0  0  0  0  0
    2.6566   -3.9559    3.0945 C   0  0  0  0  0  0  0  0  0  0  0  0
    2.5597   -2.0107    1.6144 C   0  0  0  0  0  0  0  0  0  0  0  0
    3.3739   -4.9970    3.8868 C   0  0  0  0  0  0  0  0  0  0  0  0
    3.1760   -1.0632    0.8935 C   0  0  0  0  0  0  0  0  0  0  0  0
    2.4110   -0.0088    0.0912 C   0  0  0  0  0  0  0  0  0  0  0  0
    4.3609   -2.9660    2.3413 H   0  0  0  0  0  0  0  0  0  0  0  0
    1.5696   -3.9888    3.1195 H   0  0  0  0  0  0  0  0  0  0  0  0
    1.4706   -2.0316    1.6304 H   0  0  0  0  0  0  0  0  0  0  0  0
    3.0964   -4.9193    4.9424 H   0  0  0  0  0  0  0  0  0  0  0  0
    3.0964   -5.9937    3.5304 H   0  0  0  0  0  0  0  0  0  0  0  0
    4.4615   -4.8988    3.8120 H   0  0  0  0  0  0  0  0  0  0  0  0
    4.2580   -0.9988    0.8445 H   0  0  0  0  0  0  0  0  0  0  0  0
  1  8  1  0  0  0  0
  2  8  2  0  0  0  0
  3  4  2  0  0  0  0
  3  5  1  0  0  0  0
  3  9  1  0  0  0  0
  4  6  1  0  0  0  0
  4 10  1  0  0  0  0
  5  7  2  0  0  0  0
  5 11  1  0  0  0  0
  6 12  1  0  0  0  0
  6 13  1  0  0  0  0
  6 14  1  0  0  0  0
  7  8  1  0  0  0  0
  7 15  1  0  0  0  0
M  CHG  1   1  -1
M  END
>  <Mol_ID>
7963

>  <Formula>
C6H7KO2

>  <MolWeight>
150.21688

>  <Cat>
S3142

>  <Name>
Potassium sorbate

>  <Synonyms>
Sorbic acid potassium

>  <Target>
Bacterial

>  <Form>
Potassium

>  <CAS>
24634-61-5

>  <URL>
https://www.selleckchem.com/products/potassium-sorbate.html

$$$$
