Potassium 7-hydroxy-1-naphthalenesulfona
 OpenBabel08302521363D

 23 24  0  0  0  0  0  0  0  0999 V2000
    0.9366   -0.0109   -0.0780 S   0  0  0  0  0  0  0  0  0  0  0  0
    0.4505   -0.6383   -1.2872 O   0  0  0  0  0  0  0  0  0  0  0  0
    0.4698   -0.4113    1.2302 O   0  0  0  0  0  0  0  0  0  0  0  0
    0.5505    1.5535   -0.2192 O   0  0  0  0  0  0  0  0  0  0  0  0
    2.9468   -4.9713   -0.0875 O   0  0  0  0  0  0  0  0  0  0  0  0
    3.4047   -1.3185   -0.0764 C   0  0  0  0  0  0  0  0  0  0  0  0
    4.8238   -1.2646   -0.0598 C   0  0  0  0  0  0  0  0  0  0  0  0
    2.7102   -0.0734   -0.0765 C   0  0  0  0  0  0  0  0  0  0  0  0
    2.8102   -2.6087   -0.0866 C   0  0  0  0  0  0  0  0  0  0  0  0
    5.5829   -2.4462   -0.0468 C   0  0  0  0  0  0  0  0  0  0  0  0
    5.4886   -0.0279   -0.0544 C   0  0  0  0  0  0  0  0  0  0  0  0
    3.3959    1.1511   -0.0729 C   0  0  0  0  0  0  0  0  0  0  0  0
    3.5874   -3.7673   -0.0759 C   0  0  0  0  0  0  0  0  0  0  0  0
    4.9705   -3.6964   -0.0533 C   0  0  0  0  0  0  0  0  0  0  0  0
    4.7836    1.1709   -0.0618 C   0  0  0  0  0  0  0  0  0  0  0  0
   -0.4263    1.6248   -0.2183 H   0  0  0  0  0  0  0  0  0  0  0  0
    3.6109   -5.6790   -0.0799 H   0  0  0  0  0  0  0  0  0  0  0  0
    1.7287   -2.7334   -0.1074 H   0  0  0  0  0  0  0  0  0  0  0  0
    6.6705   -2.4005   -0.0298 H   0  0  0  0  0  0  0  0  0  0  0  0
    6.5759    0.0104   -0.0427 H   0  0  0  0  0  0  0  0  0  0  0  0
    2.8616    2.0984   -0.0724 H   0  0  0  0  0  0  0  0  0  0  0  0
    5.5858   -4.5911   -0.0409 H   0  0  0  0  0  0  0  0  0  0  0  0
    5.3180    2.1176   -0.0567 H   0  0  0  0  0  0  0  0  0  0  0  0
  1  2  2  0  0  0  0
  1  3  2  0  0  0  0
  1  4  1  0  0  0  0
  1  8  1  0  0  0  0
  4 16  1  0  0  0  0
  5 13  1  0  0  0  0
  5 17  1  0  0  0  0
  6  7  1  0  0  0  0
  6  8  2  0  0  0  0
  6  9  1  0  0  0  0
  7 10  1  0  0  0  0
  7 11  2  0  0  0  0
  8 12  1  0  0  0  0
  9 13  2  0  0  0  0
  9 18  1  0  0  0  0
 10 14  2  0  0  0  0
 10 19  1  0  0  0  0
 11 15  1  0  0  0  0
 11 20  1  0  0  0  0
 12 15  2  0  0  0  0
 12 21  1  0  0  0  0
 13 14  1  0  0  0  0
 14 22  1  0  0  0  0
 15 23  1  0  0  0  0
M  END
>  <Mol_ID>
7284

>  <Formula>
C10H8KO4S

>  <MolWeight>
263.33142

>  <Cat>
E4311

>  <Name>
Potassium 7-hydroxy-1-naphthalenesulfona

>  <Synonyms>
Potassium 7-hydroxy-1-naphthalenesulfona

>  <Target>
Others

>  <Form>
potassium salt

>  <CAS>
30252-40-5

>  <URL>
https://www.selleckchem.com/products/potassium-7-hydroxy-1-naphthalenesulfona.html

$$$$
