PP1.cdx
 OpenBabel08302519513D

 40 42  0  0  0  0  0  0  0  0999 V2000
   -2.1758   -0.6696    0.0071 N   0  0  0  0  0  0  0  0  0  0  0  0
   -2.0590    0.6674    0.0146 C   0  0  0  0  0  0  0  0  0  0  0  0
   -0.9330    1.3922    0.0242 N   0  0  0  0  0  0  0  0  0  0  0  0
    0.1674    0.6197   -0.0143 C   0  0  0  0  0  0  0  0  0  0  0  0
    0.1940   -0.7669   -0.0356 C   0  0  0  0  0  0  0  0  0  0  0  0
   -1.0533   -1.4140   -0.0027 C   0  0  0  0  0  0  0  0  0  0  0  0
    1.4762    1.0372   -0.0371 N   0  0  0  0  0  0  0  0  0  0  0  0
    2.3499   -0.0009   -0.0151 N   0  0  0  0  0  0  0  0  0  0  0  0
    1.5815   -1.1064   -0.0718 C   0  0  0  0  0  0  0  0  0  0  0  0
   -1.2527   -2.7877    0.0450 N   0  0  0  0  0  0  0  0  0  0  0  0
    1.9904    2.4230   -0.0035 C   0  0  0  0  0  0  0  0  0  0  0  0
    2.1224    2.8843    1.4595 C   0  0  0  0  0  0  0  0  0  0  0  0
    3.3839    2.5026   -0.6768 C   0  0  0  0  0  0  0  0  0  0  0  0
    1.0850    3.4205   -0.7597 C   0  0  0  0  0  0  0  0  0  0  0  0
    2.1991   -2.4378   -0.1137 C   0  0  0  0  0  0  0  0  0  0  0  0
    3.3880   -2.7040    0.5820 C   0  0  0  0  0  0  0  0  0  0  0  0
    3.9088   -4.0017    0.6395 C   0  0  0  0  0  0  0  0  0  0  0  0
    3.2471   -5.0596    0.0064 C   0  0  0  0  0  0  0  0  0  0  0  0
    2.0931   -4.7902   -0.7311 C   0  0  0  0  0  0  0  0  0  0  0  0
    1.6022   -3.4857   -0.8207 C   0  0  0  0  0  0  0  0  0  0  0  0
    3.7396   -6.4729    0.1203 C   0  0  0  0  0  0  0  0  0  0  0  0
   -2.9897    1.2249    0.0189 H   0  0  0  0  0  0  0  0  0  0  0  0
   -0.5626   -3.2921    0.5893 H   0  0  0  0  0  0  0  0  0  0  0  0
   -2.2183   -2.9917    0.2761 H   0  0  0  0  0  0  0  0  0  0  0  0
    2.8167    2.2472    2.0196 H   0  0  0  0  0  0  0  0  0  0  0  0
    2.4980    3.9127    1.5163 H   0  0  0  0  0  0  0  0  0  0  0  0
    1.1573    2.8554    1.9784 H   0  0  0  0  0  0  0  0  0  0  0  0
    3.3423    2.1387   -1.7076 H   0  0  0  0  0  0  0  0  0  0  0  0
    3.7533    3.5351   -0.6993 H   0  0  0  0  0  0  0  0  0  0  0  0
    4.1303    1.9071   -0.1383 H   0  0  0  0  0  0  0  0  0  0  0  0
    0.8989    3.0898   -1.7876 H   0  0  0  0  0  0  0  0  0  0  0  0
    0.1184    3.5638   -0.2666 H   0  0  0  0  0  0  0  0  0  0  0  0
    1.5470    4.4140   -0.8071 H   0  0  0  0  0  0  0  0  0  0  0  0
    3.9110   -1.8990    1.0978 H   0  0  0  0  0  0  0  0  0  0  0  0
    4.8281   -4.1798    1.1918 H   0  0  0  0  0  0  0  0  0  0  0  0
    1.5617   -5.5922   -1.2394 H   0  0  0  0  0  0  0  0  0  0  0  0
    0.7247   -3.3088   -1.4395 H   0  0  0  0  0  0  0  0  0  0  0  0
    3.0175   -7.0722    0.6901 H   0  0  0  0  0  0  0  0  0  0  0  0
    3.8598   -6.9136   -0.8736 H   0  0  0  0  0  0  0  0  0  0  0  0
    4.7025   -6.5256    0.6337 H   0  0  0  0  0  0  0  0  0  0  0  0
  1  2  2  0  0  0  0
  2  3  1  0  0  0  0
  2 22  1  0  0  0  0
  3  4  2  0  0  0  0
  4  5  1  0  0  0  0
  4  7  1  0  0  0  0
  5  6  2  0  0  0  0
  6  1  1  0  0  0  0
  6 10  1  0  0  0  0
  7  8  1  0  0  0  0
  7 11  1  0  0  0  0
  8  9  2  0  0  0  0
  9  5  1  0  0  0  0
  9 15  1  0  0  0  0
 10 23  1  0  0  0  0
 10 24  1  0  0  0  0
 11 12  1  0  0  0  0
 11 13  1  0  0  0  0
 11 14  1  0  0  0  0
 12 25  1  0  0  0  0
 12 26  1  0  0  0  0
 12 27  1  0  0  0  0
 13 28  1  0  0  0  0
 13 29  1  0  0  0  0
 13 30  1  0  0  0  0
 14 31  1  0  0  0  0
 14 32  1  0  0  0  0
 14 33  1  0  0  0  0
 15 16  2  0  0  0  0
 16 17  1  0  0  0  0
 16 34  1  0  0  0  0
 17 18  2  0  0  0  0
 17 35  1  0  0  0  0
 18 19  1  0  0  0  0
 18 21  1  0  0  0  0
 19 20  2  0  0  0  0
 19 36  1  0  0  0  0
 20 15  1  0  0  0  0
 20 37  1  0  0  0  0
 21 38  1  0  0  0  0
 21 39  1  0  0  0  0
 21 40  1  0  0  0  0
M  END
>  <Mol_ID>
1884

>  <Formula>
C16H19N5

>  <MolWeight>
281.35556

>  <Cat>
S7060

>  <Name>
PP1

>  <Synonyms>
AGL 1872, EI 275

>  <Target>
Src

>  <Form>
free base

>  <CAS>
172889-26-8

>  <URL>
http://selleckchem.com/products/pp1.html

$$$$
