PP121.cdx
 OpenBabel08302521403D

 41 45  0  0  0  0  0  0  0  0999 V2000
   -2.1393   -0.7884   -0.2288 C   0  0  0  0  0  0  0  0  0  0  0  0
   -0.9437   -1.4006    0.1537 C   0  0  0  0  0  0  0  0  0  0  0  0
    0.3101   -0.9043   -0.0055 N   0  0  0  0  0  0  0  0  0  0  0  0
    0.3203    0.2551   -0.6822 C   0  0  0  0  0  0  0  0  0  0  0  0
   -0.7719    0.9572   -1.1777 C   0  0  0  0  0  0  0  0  0  0  0  0
   -2.0499    0.4275   -0.9238 C   0  0  0  0  0  0  0  0  0  0  0  0
    1.4558    0.9335   -1.0275 N   0  0  0  0  0  0  0  0  0  0  0  0
    1.1265    2.0330   -1.7791 C   0  0  0  0  0  0  0  0  0  0  0  0
   -0.2495    2.0819   -1.8737 C   0  0  0  0  0  0  0  0  0  0  0  0
   -4.4449   -1.2444   -0.8517 N   0  0  0  0  0  0  0  0  0  0  0  0
   -3.4375   -1.4178    0.0267 C   0  0  0  0  0  0  0  0  0  0  0  0
   -3.8489   -2.2453    1.1208 C   0  0  0  0  0  0  0  0  0  0  0  0
   -5.1451   -2.6228    0.8088 C   0  0  0  0  0  0  0  0  0  0  0  0
   -5.4499   -2.0111   -0.3756 N   0  0  0  0  0  0  0  0  0  0  0  0
   -6.6862   -2.1435   -1.1174 C   0  0  0  0  0  0  0  0  0  0  0  0
   -6.5084   -2.7013   -2.5316 C   0  0  0  0  0  0  0  0  0  0  0  0
   -7.7524   -2.2562   -3.2987 C   0  0  0  0  0  0  0  0  0  0  0  0
   -8.4098   -1.1561   -2.4675 C   0  0  0  0  0  0  0  0  0  0  0  0
   -7.4235   -0.8260   -1.3534 C   0  0  0  0  0  0  0  0  0  0  0  0
   -3.3275   -2.7536    2.3221 C   0  0  0  0  0  0  0  0  0  0  0  0
   -4.0936   -3.5836    3.0629 N   0  0  0  0  0  0  0  0  0  0  0  0
   -5.3311   -3.8787    2.6306 C   0  0  0  0  0  0  0  0  0  0  0  0
   -5.9440   -3.4363    1.5203 N   0  0  0  0  0  0  0  0  0  0  0  0
   -2.0722   -2.4770    2.8390 N   0  0  0  0  0  0  0  0  0  0  0  0
   -0.9455   -2.3850    0.6156 H   0  0  0  0  0  0  0  0  0  0  0  0
   -2.9395    0.9340   -1.2877 H   0  0  0  0  0  0  0  0  0  0  0  0
    2.3848    0.6233   -0.7852 H   0  0  0  0  0  0  0  0  0  0  0  0
    1.8969    2.6746   -2.1844 H   0  0  0  0  0  0  0  0  0  0  0  0
   -0.8171    2.8318   -2.4097 H   0  0  0  0  0  0  0  0  0  0  0  0
   -7.3446   -2.8195   -0.5562 H   0  0  0  0  0  0  0  0  0  0  0  0
   -5.6163   -2.2915   -3.0204 H   0  0  0  0  0  0  0  0  0  0  0  0
   -6.4017   -3.7912   -2.5287 H   0  0  0  0  0  0  0  0  0  0  0  0
   -7.4798   -1.8919   -4.2950 H   0  0  0  0  0  0  0  0  0  0  0  0
   -8.4471   -3.0917   -3.4383 H   0  0  0  0  0  0  0  0  0  0  0  0
   -8.6502   -0.2753   -3.0709 H   0  0  0  0  0  0  0  0  0  0  0  0
   -9.3493   -1.5281   -2.0418 H   0  0  0  0  0  0  0  0  0  0  0  0
   -7.9317   -0.4679   -0.4520 H   0  0  0  0  0  0  0  0  0  0  0  0
   -6.7412   -0.0339   -1.6861 H   0  0  0  0  0  0  0  0  0  0  0  0
   -5.9036   -4.5535    3.2583 H   0  0  0  0  0  0  0  0  0  0  0  0
   -1.7326   -1.5338    2.6936 H   0  0  0  0  0  0  0  0  0  0  0  0
   -2.0013   -2.8112    3.7956 H   0  0  0  0  0  0  0  0  0  0  0  0
  1  2  2  0  0  0  0
  1 11  1  0  0  0  0
  2  3  1  0  0  0  0
  2 25  1  0  0  0  0
  3  4  2  0  0  0  0
  4  5  1  0  0  0  0
  4  7  1  0  0  0  0
  5  6  2  0  0  0  0
  6  1  1  0  0  0  0
  6 26  1  0  0  0  0
  7  8  1  0  0  0  0
  7 27  1  0  0  0  0
  8  9  2  0  0  0  0
  8 28  1  0  0  0  0
  9  5  1  0  0  0  0
  9 29  1  0  0  0  0
 10 11  2  0  0  0  0
 11 12  1  0  0  0  0
 12 13  2  0  0  0  0
 12 20  1  0  0  0  0
 13 14  1  0  0  0  0
 14 10  1  0  0  0  0
 14 15  1  0  0  0  0
 15 16  1  0  0  0  0
 15 30  1  0  0  0  0
 16 17  1  0  0  0  0
 16 31  1  0  0  0  0
 16 32  1  0  0  0  0
 17 18  1  0  0  0  0
 17 33  1  0  0  0  0
 17 34  1  0  0  0  0
 18 19  1  0  0  0  0
 18 35  1  0  0  0  0
 18 36  1  0  0  0  0
 19 15  1  0  0  0  0
 19 37  1  0  0  0  0
 19 38  1  0  0  0  0
 20 21  2  0  0  0  0
 20 24  1  0  0  0  0
 21 22  1  0  0  0  0
 22 23  2  0  0  0  0
 22 39  1  0  0  0  0
 23 13  1  0  0  0  0
 24 40  1  0  0  0  0
 24 41  1  0  0  0  0
M  END
>  <Mol_ID>
812

>  <Formula>
C17H17N7

>  <MolWeight>
319.36378

>  <Cat>
S2622

>  <Name>
PP121

>  <Synonyms>
N/A

>  <Target>
Bcr-Abl,DNA-PK,mTOR,PDGFR,Src,VEGFR

>  <Form>
free base

>  <CAS>
1092788-83-4

>  <URL>
http://selleckchem.com/products/PP121.html

$$$$
