PP2.cdx
 OpenBabel08302519513D

 37 39  0  0  0  0  0  0  0  0999 V2000
   -2.1740   -0.6690    0.0237 N   0  0  0  0  0  0  0  0  0  0  0  0
   -2.0561    0.6685    0.0329 C   0  0  0  0  0  0  0  0  0  0  0  0
   -0.9308    1.3958    0.0334 N   0  0  0  0  0  0  0  0  0  0  0  0
    0.1717    0.6239   -0.0094 C   0  0  0  0  0  0  0  0  0  0  0  0
    0.1964   -0.7645   -0.0292 C   0  0  0  0  0  0  0  0  0  0  0  0
   -1.0496   -1.4128    0.0071 C   0  0  0  0  0  0  0  0  0  0  0  0
    1.4780    1.0419   -0.0385 N   0  0  0  0  0  0  0  0  0  0  0  0
    2.3536    0.0052   -0.0244 N   0  0  0  0  0  0  0  0  0  0  0  0
    1.5885   -1.1014   -0.0711 C   0  0  0  0  0  0  0  0  0  0  0  0
   -1.2479   -2.7872    0.0488 N   0  0  0  0  0  0  0  0  0  0  0  0
    1.9921    2.4269   -0.0055 C   0  0  0  0  0  0  0  0  0  0  0  0
    2.1398    2.8829    1.4583 C   0  0  0  0  0  0  0  0  0  0  0  0
    3.3762    2.5104   -0.6925 C   0  0  0  0  0  0  0  0  0  0  0  0
    1.0768    3.4280   -0.7456 C   0  0  0  0  0  0  0  0  0  0  0  0
    2.2097   -2.4345   -0.1004 C   0  0  0  0  0  0  0  0  0  0  0  0
    3.4019   -2.6834    0.5947 C   0  0  0  0  0  0  0  0  0  0  0  0
    3.9287   -3.9775    0.6654 C   0  0  0  0  0  0  0  0  0  0  0  0
    3.2624   -5.0382    0.0541 C   0  0  0  0  0  0  0  0  0  0  0  0
    2.1077   -4.7960   -0.6836 C   0  0  0  0  0  0  0  0  0  0  0  0
    1.6091   -3.4963   -0.7910 C   0  0  0  0  0  0  0  0  0  0  0  0
   -2.9874    1.2253    0.0447 H   0  0  0  0  0  0  0  0  0  0  0  0
   -0.5585   -3.2927    0.5923 H   0  0  0  0  0  0  0  0  0  0  0  0
   -2.2134   -2.9912    0.2813 H   0  0  0  0  0  0  0  0  0  0  0  0
    2.8423    2.2459    2.0076 H   0  0  0  0  0  0  0  0  0  0  0  0
    2.5129    3.9127    1.5159 H   0  0  0  0  0  0  0  0  0  0  0  0
    1.1808    2.8481    1.9879 H   0  0  0  0  0  0  0  0  0  0  0  0
    3.3228    2.1492   -1.7262 H   0  0  0  0  0  0  0  0  0  0  0  0
    3.7459    3.5421   -0.7181 H   0  0  0  0  0  0  0  0  0  0  0  0
    4.1298    1.9133   -0.1679 H   0  0  0  0  0  0  0  0  0  0  0  0
    0.8808    3.1032   -1.7735 H   0  0  0  0  0  0  0  0  0  0  0  0
    0.1158    3.5669   -0.2411 H   0  0  0  0  0  0  0  0  0  0  0  0
    1.5374    4.4224   -0.7916 H   0  0  0  0  0  0  0  0  0  0  0  0
    3.9265   -1.8690    1.0911 H   0  0  0  0  0  0  0  0  0  0  0  0
    4.8534   -4.1584    1.2075 H   0  0  0  0  0  0  0  0  0  0  0  0
    3.6497   -6.0502    0.1406 H   0  0  0  0  0  0  0  0  0  0  0  0
    1.5875   -5.6162   -1.1722 H   0  0  0  0  0  0  0  0  0  0  0  0
    0.7312   -3.3304   -1.4113 H   0  0  0  0  0  0  0  0  0  0  0  0
  1  2  2  0  0  0  0
  2  3  1  0  0  0  0
  2 21  1  0  0  0  0
  3  4  2  0  0  0  0
  4  5  1  0  0  0  0
  4  7  1  0  0  0  0
  5  6  2  0  0  0  0
  6  1  1  0  0  0  0
  6 10  1  0  0  0  0
  7  8  1  0  0  0  0
  7 11  1  0  0  0  0
  8  9  2  0  0  0  0
  9  5  1  0  0  0  0
  9 15  1  0  0  0  0
 10 22  1  0  0  0  0
 10 23  1  0  0  0  0
 11 12  1  0  0  0  0
 11 13  1  0  0  0  0
 11 14  1  0  0  0  0
 12 24  1  0  0  0  0
 12 25  1  0  0  0  0
 12 26  1  0  0  0  0
 13 27  1  0  0  0  0
 13 28  1  0  0  0  0
 13 29  1  0  0  0  0
 14 30  1  0  0  0  0
 14 31  1  0  0  0  0
 14 32  1  0  0  0  0
 15 16  2  0  0  0  0
 16 17  1  0  0  0  0
 16 33  1  0  0  0  0
 17 18  2  0  0  0  0
 17 34  1  0  0  0  0
 18 19  1  0  0  0  0
 18 35  1  0  0  0  0
 19 20  2  0  0  0  0
 19 36  1  0  0  0  0
 20 15  1  0  0  0  0
 20 37  1  0  0  0  0
M  END
>  <Mol_ID>
1877

>  <Formula>
C15H16ClN5

>  <MolWeight>
301.77404

>  <Cat>
S7008

>  <Name>
PP2

>  <Synonyms>
AG 1879,AGL 1879

>  <Target>
Src

>  <Form>
free base

>  <CAS>
172889-27-9

>  <URL>
http://selleckchem.com/products/pp2.html

$$$$
