PQR620
 OpenBabel08302521243D

 57 62  0  0  0  0  0  0  0  0999 V2000
    0.0351    4.9468   -1.3863 F   0  0  0  0  0  0  0  0  0  0  0  0
    1.9239    5.1604   -2.4176 F   0  0  0  0  0  0  0  0  0  0  0  0
   -3.2488    0.5742    1.1050 N   0  0  0  0  0  0  0  0  0  0  0  0
   -3.2203    1.8570   -2.6681 N   0  0  0  0  0  0  0  0  0  0  0  0
   -2.6576    0.4708   -1.0375 N   0  0  0  0  0  0  0  0  0  0  0  0
   -1.0665    2.0514   -1.7139 N   0  0  0  0  0  0  0  0  0  0  0  0
   -1.1026    1.2812    0.4744 N   0  0  0  0  0  0  0  0  0  0  0  0
    3.0773    1.6541    0.8418 N   0  0  0  0  0  0  0  0  0  0  0  0
    5.0808    2.7841    0.4280 N   0  0  0  0  0  0  0  0  0  0  0  0
   -2.2832    0.7033    0.1658 C   0  0  0  0  0  0  0  0  0  0  0  0
   -2.2458    1.4101   -1.8416 C   0  0  0  0  0  0  0  0  0  0  0  0
   -0.4577    1.8363   -0.5501 C   0  0  0  0  0  0  0  0  0  0  0  0
    0.9703    2.2250   -0.3406 C   0  0  0  0  0  0  0  0  0  0  0  0
    1.6772    3.2603   -0.9794 C   0  0  0  0  0  0  0  0  0  0  0  0
    1.7444    1.4776    0.5557 C   0  0  0  0  0  0  0  0  0  0  0  0
    3.0557    3.4570   -0.6961 C   0  0  0  0  0  0  0  0  0  0  0  0
    1.0421    4.2239   -1.9490 C   0  0  0  0  0  0  0  0  0  0  0  0
    3.7137    2.6436    0.2110 C   0  0  0  0  0  0  0  0  0  0  0  0
   -4.5394   -0.0882    1.0238 C   0  0  3  0  0  0  0  0  0  0  0  0
   -4.5033   -1.2180    2.0841 C   0  0  0  0  0  0  0  0  0  0  0  0
   -3.2179   -1.3679    2.7090 O   0  0  0  0  0  0  0  0  0  0  0  0
   -2.5481   -0.1178    3.0246 C   0  0  0  0  0  0  0  0  0  0  0  0
   -3.1222    1.2538    2.3708 C   0  0  3  0  0  0  0  0  0  0  0  0
   -4.4705    2.0620    1.9904 C   0  0  0  0  0  0  0  0  0  0  0  0
   -5.4810    1.0179    1.5172 C   0  0  0  0  0  0  0  0  0  0  0  0
   -4.4346    1.1496   -3.0492 C   0  0  3  0  0  0  0  0  0  0  0  0
   -5.6367    2.1352   -2.9771 C   0  0  0  0  0  0  0  0  0  0  0  0
   -5.3303    3.3839   -2.3525 O   0  0  0  0  0  0  0  0  0  0  0  0
   -4.0095    3.8936   -2.6538 C   0  0  0  0  0  0  0  0  0  0  0  0
   -3.0071    2.9701   -3.5561 C   0  0  3  0  0  0  0  0  0  0  0  0
   -4.0974    0.8872   -4.5149 C   0  0  0  0  0  0  0  0  0  0  0  0
   -2.9272    1.8675   -4.7260 C   0  0  0  0  0  0  0  0  0  0  0  0
    5.3615    2.1321    1.1539 H   0  0  0  0  0  0  0  0  0  0  0  0
    5.3568    3.7378    0.6387 H   0  0  0  0  0  0  0  0  0  0  0  0
    1.3078    0.6458    1.1124 H   0  0  0  0  0  0  0  0  0  0  0  0
    3.6195    4.2450   -1.1895 H   0  0  0  0  0  0  0  0  0  0  0  0
    0.6609    3.6994   -2.8276 H   0  0  0  0  0  0  0  0  0  0  0  0
   -4.8398   -0.4524    0.0342 H   0  0  0  0  0  0  0  0  0  0  0  0
   -5.2164   -1.0520    2.8977 H   0  0  0  0  0  0  0  0  0  0  0  0
   -4.7850   -2.1707    1.6233 H   0  0  0  0  0  0  0  0  0  0  0  0
   -2.4515   -0.0461    4.1123 H   0  0  0  0  0  0  0  0  0  0  0  0
   -1.5116   -0.2432    2.6730 H   0  0  0  0  0  0  0  0  0  0  0  0
   -3.6782    1.2254    3.3275 H   0  0  0  0  0  0  0  0  0  0  0  0
   -4.8606    2.7013    2.7923 H   0  0  0  0  0  0  0  0  0  0  0  0
   -4.2669    2.7556    1.1551 H   0  0  0  0  0  0  0  0  0  0  0  0
   -6.1369    1.4024    0.7278 H   0  0  0  0  0  0  0  0  0  0  0  0
   -6.1296    0.7064    2.3441 H   0  0  0  0  0  0  0  0  0  0  0  0
   -4.6599    0.2301   -2.4963 H   0  0  0  0  0  0  0  0  0  0  0  0
   -6.0312    2.3794   -3.9705 H   0  0  0  0  0  0  0  0  0  0  0  0
   -6.4754    1.6749   -2.4401 H   0  0  0  0  0  0  0  0  0  0  0  0
   -4.1328    4.8939   -3.0861 H   0  0  0  0  0  0  0  0  0  0  0  0
   -3.5392    4.0786   -1.6751 H   0  0  0  0  0  0  0  0  0  0  0  0
   -3.6357    3.4405   -4.3399 H   0  0  0  0  0  0  0  0  0  0  0  0
   -3.7840   -0.1508   -4.6692 H   0  0  0  0  0  0  0  0  0  0  0  0
   -4.9243    1.0949   -5.1996 H   0  0  0  0  0  0  0  0  0  0  0  0
   -2.8746    2.2788   -5.7378 H   0  0  0  0  0  0  0  0  0  0  0  0
   -1.9820    1.3068   -4.6065 H   0  0  0  0  0  0  0  0  0  0  0  0
  1 17  1  0  0  0  0
  2 17  1  0  0  0  0
  3 10  1  0  0  0  0
  3 19  1  0  0  0  0
  4 11  1  0  0  0  0
  4 26  1  0  0  0  0
  5 10  2  0  0  0  0
  5 11  1  0  0  0  0
  6 11  2  0  0  0  0
  6 12  1  0  0  0  0
  7 10  1  0  0  0  0
  7 12  2  0  0  0  0
  8 15  2  0  0  0  0
  8 18  1  0  0  0  0
  9 18  1  0  0  0  0
  9 33  1  0  0  0  0
  9 34  1  0  0  0  0
 12 13  1  0  0  0  0
 13 14  2  0  0  0  0
 13 15  1  0  0  0  0
 14 16  1  0  0  0  0
 14 17  1  0  0  0  0
 15 35  1  0  0  0  0
 16 18  2  0  0  0  0
 16 36  1  0  0  0  0
 17 37  1  0  0  0  0
 19 20  1  0  0  0  0
 19 25  1  0  0  0  0
 19 38  1  0  0  0  0
 20 21  1  0  0  0  0
 20 39  1  0  0  0  0
 20 40  1  0  0  0  0
 21 22  1  0  0  0  0
 22 23  1  0  0  0  0
 22 41  1  0  0  0  0
 22 42  1  0  0  0  0
 23  3  1  0  0  0  0
 23 24  1  0  0  0  0
 23 43  1  0  0  0  0
 24 44  1  0  0  0  0
 24 45  1  0  0  0  0
 25 24  1  0  0  0  0
 25 46  1  0  0  0  0
 25 47  1  0  0  0  0
 26 27  1  0  0  0  0
 26 31  1  0  0  0  0
 26 48  1  0  0  0  0
 27 28  1  0  0  0  0
 27 49  1  0  0  0  0
 27 50  1  0  0  0  0
 28 29  1  0  0  0  0
 29 30  1  0  0  0  0
 29 51  1  0  0  0  0
 29 52  1  0  0  0  0
 30  4  1  0  0  0  0
 30 32  1  0  0  0  0
 30 53  1  0  0  0  0
 31 32  1  0  0  0  0
 31 54  1  0  0  0  0
 31 55  1  0  0  0  0
 32 56  1  0  0  0  0
 32 57  1  0  0  0  0
M  END
>  <Mol_ID>
5022

>  <Formula>
C21H25F2N7O2

>  <MolWeight>
445.4657064

>  <Cat>
S8784

>  <Name>
PQR620

>  <Synonyms>
N/A

>  <Target>
mTOR

>  <Form>
Free Base

>  <CAS>
1927857-56-4

>  <URL>
http://www.selleckchem.com/products/pqr620.html

$$$$
