Praeruptorin C
 OpenBabel08302521223D

 59 61  0  0  0  0  0  0  0  0999 V2000
   -0.2669   -0.0784   -0.2746 C   0  0  0  0  0  0  0  0  0  0  0  0
   -0.8507    1.2935   -0.4819 C   0  0  2  0  0  0  0  0  0  0  0  0
    1.1293   -0.3030   -0.1740 C   0  0  0  0  0  0  0  0  0  0  0  0
   -2.3961    1.3636   -0.6436 C   0  0  2  0  0  0  0  0  0  0  0  0
   -1.1133   -1.1584   -0.0465 C   0  0  0  0  0  0  0  0  0  0  0  0
   -3.1533    0.1677   -0.0108 C   0  0  0  0  0  0  0  0  0  0  0  0
   -2.4768   -1.0996   -0.0638 O   0  0  0  0  0  0  0  0  0  0  0  0
   -2.8330    1.6439   -2.0068 O   0  0  0  0  0  0  0  0  0  0  0  0
    2.0064    0.8056   -0.2902 O   0  0  0  0  0  0  0  0  0  0  0  0
   -2.7888    2.9727   -2.2997 C   0  0  0  0  0  0  0  0  0  0  0  0
    3.3860    0.6952   -0.1516 C   0  0  0  0  0  0  0  0  0  0  0  0
   -0.1349    2.1333   -1.4159 O   0  0  0  0  0  0  0  0  0  0  0  0
   -0.1007    1.8014   -2.7301 C   0  0  0  0  0  0  0  0  0  0  0  0
    1.6762   -1.5621    0.0893 C   0  0  0  0  0  0  0  0  0  0  0  0
    3.1256   -1.7274    0.1865 C   0  0  0  0  0  0  0  0  0  0  0  0
   -3.1016    3.3113   -3.7162 C   0  0  0  0  0  0  0  0  0  0  0  0
    3.9225   -0.6609    0.0809 C   0  0  0  0  0  0  0  0  0  0  0  0
   -0.5748   -2.4283    0.2232 C   0  0  0  0  0  0  0  0  0  0  0  0
   -2.4252    3.8148   -1.4861 O   0  0  0  0  0  0  0  0  0  0  0  0
   -0.5049    0.7544   -3.2185 O   0  0  0  0  0  0  0  0  0  0  0  0
    4.1304    1.6685   -0.2095 O   0  0  0  0  0  0  0  0  0  0  0  0
    0.8094   -2.6331    0.2847 C   0  0  0  0  0  0  0  0  0  0  0  0
   -3.1944    4.6186   -4.0551 C   0  0  0  0  0  0  0  0  0  0  0  0
    0.4735    2.9406   -3.5416 C   0  0  0  0  0  0  0  0  0  0  0  0
   -4.5090   -0.0565   -0.7104 C   0  0  0  0  0  0  0  0  0  0  0  0
   -3.4904    0.4902    1.4667 C   0  0  0  0  0  0  0  0  0  0  0  0
   -3.1563    2.2583   -4.7840 C   0  0  0  0  0  0  0  0  0  0  0  0
    1.9948    2.9701   -3.4342 C   0  0  0  0  0  0  0  0  0  0  0  0
   -3.1090    5.7931   -3.1198 C   0  0  0  0  0  0  0  0  0  0  0  0
    2.5943    1.6461   -3.9135 C   0  0  0  0  0  0  0  0  0  0  0  0
    2.5719    4.1326   -4.2406 C   0  0  0  0  0  0  0  0  0  0  0  0
   -0.6598    1.7744    0.4884 H   0  0  0  0  0  0  0  0  0  0  0  0
   -2.7207    2.2266   -0.0478 H   0  0  0  0  0  0  0  0  0  0  0  0
    3.5369   -2.7106    0.3435 H   0  0  0  0  0  0  0  0  0  0  0  0
    5.0052   -0.7324    0.1453 H   0  0  0  0  0  0  0  0  0  0  0  0
   -1.2439   -3.2642    0.4080 H   0  0  0  0  0  0  0  0  0  0  0  0
    1.1910   -3.6267    0.5050 H   0  0  0  0  0  0  0  0  0  0  0  0
   -3.3323    4.8841   -5.0967 H   0  0  0  0  0  0  0  0  0  0  0  0
    0.1449    2.8287   -4.5830 H   0  0  0  0  0  0  0  0  0  0  0  0
    0.0335    3.8830   -3.1873 H   0  0  0  0  0  0  0  0  0  0  0  0
   -4.3727   -0.3812   -1.7474 H   0  0  0  0  0  0  0  0  0  0  0  0
   -5.0792   -0.8525   -0.2160 H   0  0  0  0  0  0  0  0  0  0  0  0
   -5.1204    0.8530   -0.7004 H   0  0  0  0  0  0  0  0  0  0  0  0
   -4.0701   -0.3267    1.9207 H   0  0  0  0  0  0  0  0  0  0  0  0
   -2.5925    0.6176    2.0748 H   0  0  0  0  0  0  0  0  0  0  0  0
   -4.0973    1.3988    1.5422 H   0  0  0  0  0  0  0  0  0  0  0  0
   -2.6519    1.3320   -4.5012 H   0  0  0  0  0  0  0  0  0  0  0  0
   -4.1903    2.0217   -5.0403 H   0  0  0  0  0  0  0  0  0  0  0  0
   -2.6570    2.6141   -5.6987 H   0  0  0  0  0  0  0  0  0  0  0  0
    2.2678    3.1137   -2.3816 H   0  0  0  0  0  0  0  0  0  0  0  0
   -3.7000    5.6370   -2.2116 H   0  0  0  0  0  0  0  0  0  0  0  0
   -2.0670    5.9990   -2.8527 H   0  0  0  0  0  0  0  0  0  0  0  0
   -3.5156    6.6861   -3.6002 H   0  0  0  0  0  0  0  0  0  0  0  0
    2.3652    1.4733   -4.9704 H   0  0  0  0  0  0  0  0  0  0  0  0
    3.6775    1.6434   -3.7830 H   0  0  0  0  0  0  0  0  0  0  0  0
    2.1967    0.7994   -3.3438 H   0  0  0  0  0  0  0  0  0  0  0  0
    2.3613    4.0219   -5.3099 H   0  0  0  0  0  0  0  0  0  0  0  0
    2.1529    5.0886   -3.9102 H   0  0  0  0  0  0  0  0  0  0  0  0
    3.6580    4.1817   -4.1128 H   0  0  0  0  0  0  0  0  0  0  0  0
  2  1  1  0  0  0  0
  2 12  1  0  0  0  0
  2 32  1  1  0  0  0
  3  1  1  0  0  0  0
  4  2  1  0  0  0  0
  4  8  1  0  0  0  0
  4 33  1  1  0  0  0
  5  1  2  0  0  0  0
  6  4  1  0  0  0  0
  6  7  1  0  0  0  0
  7  5  1  0  0  0  0
  9  3  1  0  0  0  0
 10  8  1  0  0  0  0
 11  9  1  0  0  0  0
 13 12  1  0  0  0  0
 14  3  2  0  0  0  0
 14 22  1  0  0  0  0
 15 14  1  0  0  0  0
 15 34  1  0  0  0  0
 16 10  1  0  0  0  0
 17 11  1  0  0  0  0
 17 15  2  0  0  0  0
 17 35  1  0  0  0  0
 18  5  1  0  0  0  0
 18 36  1  0  0  0  0
 19 10  2  0  0  0  0
 20 13  2  0  0  0  0
 21 11  2  0  0  0  0
 22 18  2  0  0  0  0
 22 37  1  0  0  0  0
 23 16  2  0  0  0  0
 23 38  1  0  0  0  0
 24 13  1  0  0  0  0
 24 39  1  0  0  0  0
 24 40  1  0  0  0  0
 25  6  1  0  0  0  0
 25 41  1  0  0  0  0
 25 42  1  0  0  0  0
 25 43  1  0  0  0  0
 26  6  1  0  0  0  0
 26 44  1  0  0  0  0
 26 45  1  0  0  0  0
 26 46  1  0  0  0  0
 27 16  1  0  0  0  0
 27 47  1  0  0  0  0
 27 48  1  0  0  0  0
 27 49  1  0  0  0  0
 28 24  1  0  0  0  0
 28 50  1  0  0  0  0
 29 23  1  0  0  0  0
 29 51  1  0  0  0  0
 29 52  1  0  0  0  0
 29 53  1  0  0  0  0
 30 28  1  0  0  0  0
 30 54  1  0  0  0  0
 30 55  1  0  0  0  0
 30 56  1  0  0  0  0
 31 28  1  0  0  0  0
 31 57  1  0  0  0  0
 31 58  1  0  0  0  0
 31 59  1  0  0  0  0
M  END
>  <Mol_ID>
4639

>  <Formula>
C24H28O7

>  <MolWeight>
428.47492

>  <Cat>
S9487

>  <Name>
Praeruptorin C

>  <Synonyms>
N/A

>  <Target>
Others

>  <Form>
Free Base

>  <CAS>
72463-77-5

>  <URL>
http://www.selleckchem.com/products/praeruptorin-c.html

$$$$
