Pramipexole.cdx
 OpenBabel08302521443D

 31 32  0  0  0  0  0  0  0  0999 V2000
   -1.9956    0.9128    0.3744 C   0  0  1  0  0  0  0  0  0  0  0  0
   -2.1658   -0.4535   -0.3385 C   0  0  0  0  0  0  0  0  0  0  0  0
   -1.0951   -1.4645    0.0995 C   0  0  0  0  0  0  0  0  0  0  0  0
    0.2589   -0.8576    0.0369 C   0  0  0  0  0  0  0  0  0  0  0  0
    0.4683    0.5036    0.0314 C   0  0  0  0  0  0  0  0  0  0  0  0
   -0.6043    1.5458    0.0408 C   0  0  0  0  0  0  0  0  0  0  0  0
   -3.0725    1.8569    0.0172 N   0  0  0  0  0  0  0  0  0  0  0  0
   -4.4350    1.4316    0.3624 C   0  0  0  0  0  0  0  0  0  0  0  0
   -4.7116    1.1575    1.8451 C   0  0  0  0  0  0  0  0  0  0  0  0
   -4.5616    2.3826    2.7347 C   0  0  0  0  0  0  0  0  0  0  0  0
    1.3961   -1.6336   -0.0067 N   0  0  0  0  0  0  0  0  0  0  0  0
    2.4535   -0.8614   -0.0828 C   0  0  0  0  0  0  0  0  0  0  0  0
    2.1347    0.8335   -0.0617 S   0  0  0  0  0  0  0  0  0  0  0  0
    3.7087   -1.3372   -0.1521 N   0  0  0  0  0  0  0  0  0  0  0  0
   -2.0098    0.7462    1.4588 H   0  0  0  0  0  0  0  0  0  0  0  0
   -3.1415   -0.8996   -0.1252 H   0  0  0  0  0  0  0  0  0  0  0  0
   -2.1084   -0.3036   -1.4254 H   0  0  0  0  0  0  0  0  0  0  0  0
   -1.2935   -1.7799    1.1319 H   0  0  0  0  0  0  0  0  0  0  0  0
   -1.1500   -2.3558   -0.5341 H   0  0  0  0  0  0  0  0  0  0  0  0
   -0.6315    2.0275   -0.9454 H   0  0  0  0  0  0  0  0  0  0  0  0
   -0.3697    2.3222    0.7803 H   0  0  0  0  0  0  0  0  0  0  0  0
   -2.8869    2.7718    0.4270 H   0  0  0  0  0  0  0  0  0  0  0  0
   -5.1210    2.2142    0.0176 H   0  0  0  0  0  0  0  0  0  0  0  0
   -4.7087    0.5454   -0.2220 H   0  0  0  0  0  0  0  0  0  0  0  0
   -5.7398    0.7856    1.9445 H   0  0  0  0  0  0  0  0  0  0  0  0
   -4.0665    0.3534    2.2146 H   0  0  0  0  0  0  0  0  0  0  0  0
   -5.3886    3.0809    2.5697 H   0  0  0  0  0  0  0  0  0  0  0  0
   -4.5821    2.0848    3.7884 H   0  0  0  0  0  0  0  0  0  0  0  0
   -3.6222    2.9114    2.5555 H   0  0  0  0  0  0  0  0  0  0  0  0
    4.4628   -0.7285    0.1247 H   0  0  0  0  0  0  0  0  0  0  0  0
    3.8208   -2.3069    0.1197 H   0  0  0  0  0  0  0  0  0  0  0  0
  1  2  1  0  0  0  0
  1  7  1  0  0  0  0
  1 15  1  1  0  0  0
  2  3  1  0  0  0  0
  2 16  1  0  0  0  0
  2 17  1  0  0  0  0
  3  4  1  0  0  0  0
  3 18  1  0  0  0  0
  3 19  1  0  0  0  0
  4  5  2  0  0  0  0
  4 11  1  0  0  0  0
  5  6  1  0  0  0  0
  6  1  1  0  0  0  0
  6 20  1  0  0  0  0
  6 21  1  0  0  0  0
  7  8  1  0  0  0  0
  7 22  1  0  0  0  0
  8  9  1  0  0  0  0
  8 23  1  0  0  0  0
  8 24  1  0  0  0  0
  9 10  1  0  0  0  0
  9 25  1  0  0  0  0
  9 26  1  0  0  0  0
 10 27  1  0  0  0  0
 10 28  1  0  0  0  0
 10 29  1  0  0  0  0
 11 12  2  0  0  0  0
 12 13  1  0  0  0  0
 12 14  1  0  0  0  0
 13  5  1  0  0  0  0
 14 30  1  0  0  0  0
 14 31  1  0  0  0  0
M  END
>  <Mol_ID>
901

>  <Formula>
C10H17N3S

>  <MolWeight>
211.32708

>  <Cat>
S2460

>  <Name>
Pramipexole

>  <Synonyms>
SND 919,Mirapexin,Sifrol,Mirapex

>  <Target>
Dopamine Receptor

>  <Form>
Free Base

>  <CAS>
104632-26-0

>  <URL>
http://selleckchem.com/products/Pramipexole-Mirapex.html

$$$$
