Pramoxine hydrochloride.cdx
 OpenBabel08302522053D

 48 49  0  0  0  0  0  0  0  0999 V2000
    1.4910   -0.1250    0.6321 C   0  0  0  0  0  0  0  0  0  0  0  0
    0.7077   -1.2752    0.6981 C   0  0  0  0  0  0  0  0  0  0  0  0
   -0.6704   -1.1342    0.8989 C   0  0  0  0  0  0  0  0  0  0  0  0
   -1.2678    0.1386    0.9849 C   0  0  0  0  0  0  0  0  0  0  0  0
   -0.4862    1.2810    0.8565 C   0  0  0  0  0  0  0  0  0  0  0  0
    0.8897    1.1411    0.6987 C   0  0  0  0  0  0  0  0  0  0  0  0
    1.1541   -2.5625    0.5301 O   0  0  0  0  0  0  0  0  0  0  0  0
    2.5698   -2.7710    0.5460 C   0  0  0  0  0  0  0  0  0  0  0  0
    2.9255   -4.1824    0.0757 C   0  0  0  0  0  0  0  0  0  0  0  0
    2.8350   -4.4072   -1.4399 C   0  0  0  0  0  0  0  0  0  0  0  0
    1.4226   -4.3825   -1.9999 C   0  0  0  0  0  0  0  0  0  0  0  0
   -0.9184    2.5784    0.8465 O   0  0  0  0  0  0  0  0  0  0  0  0
   -2.2651    2.8509    1.2330 C   0  0  0  0  0  0  0  0  0  0  0  0
   -2.4093    4.3634    1.4421 C   0  0  0  0  0  0  0  0  0  0  0  0
   -2.2687    5.1896    0.1509 C   0  0  0  0  0  0  0  0  0  0  0  0
   -2.5084    6.6341    0.3706 N   0  0  0  0  0  0  0  0  0  0  0  0
   -2.4747    7.4047   -0.8980 C   0  0  0  0  0  0  0  0  0  0  0  0
   -1.0607    7.6596   -1.4582 C   0  0  0  0  0  0  0  0  0  0  0  0
   -0.1967    8.2597   -0.4849 O   0  0  0  0  0  0  0  0  0  0  0  0
   -0.1419    7.4571    0.7023 C   0  0  0  0  0  0  0  0  0  0  0  0
   -1.5442    7.2773    1.2980 C   0  0  0  0  0  0  0  0  0  0  0  0
    2.5646   -0.1574    0.5086 H   0  0  0  0  0  0  0  0  0  0  0  0
   -1.2904   -2.0246    0.9826 H   0  0  0  0  0  0  0  0  0  0  0  0
   -2.3425    0.1917    1.1308 H   0  0  0  0  0  0  0  0  0  0  0  0
    1.5152    2.0294    0.6162 H   0  0  0  0  0  0  0  0  0  0  0  0
    3.1003   -2.0606   -0.0943 H   0  0  0  0  0  0  0  0  0  0  0  0
    2.9139   -2.6540    1.5823 H   0  0  0  0  0  0  0  0  0  0  0  0
    3.9663   -4.3780    0.3646 H   0  0  0  0  0  0  0  0  0  0  0  0
    2.3013   -4.9241    0.5889 H   0  0  0  0  0  0  0  0  0  0  0  0
    3.4526   -3.6740   -1.9717 H   0  0  0  0  0  0  0  0  0  0  0  0
    3.2704   -5.3907   -1.6572 H   0  0  0  0  0  0  0  0  0  0  0  0
    1.1177   -3.3615   -2.2499 H   0  0  0  0  0  0  0  0  0  0  0  0
    1.3750   -4.9739   -2.9212 H   0  0  0  0  0  0  0  0  0  0  0  0
    0.6982   -4.8021   -1.2960 H   0  0  0  0  0  0  0  0  0  0  0  0
   -2.9655    2.4971    0.4685 H   0  0  0  0  0  0  0  0  0  0  0  0
   -2.4838    2.3580    2.1881 H   0  0  0  0  0  0  0  0  0  0  0  0
   -3.3838    4.5687    1.9009 H   0  0  0  0  0  0  0  0  0  0  0  0
   -1.6320    4.6649    2.1526 H   0  0  0  0  0  0  0  0  0  0  0  0
   -1.2916    5.0112   -0.3115 H   0  0  0  0  0  0  0  0  0  0  0  0
   -3.0251    4.8278   -0.5576 H   0  0  0  0  0  0  0  0  0  0  0  0
   -2.9363    8.3801   -0.6940 H   0  0  0  0  0  0  0  0  0  0  0  0
   -3.1026    6.9296   -1.6607 H   0  0  0  0  0  0  0  0  0  0  0  0
   -0.6004    6.7350   -1.8242 H   0  0  0  0  0  0  0  0  0  0  0  0
   -1.1217    8.3534   -2.3028 H   0  0  0  0  0  0  0  0  0  0  0  0
    0.4952    7.9847    1.4240 H   0  0  0  0  0  0  0  0  0  0  0  0
    0.3410    6.5016    0.4749 H   0  0  0  0  0  0  0  0  0  0  0  0
   -1.9481    8.2690    1.5440 H   0  0  0  0  0  0  0  0  0  0  0  0
   -1.4917    6.7465    2.2541 H   0  0  0  0  0  0  0  0  0  0  0  0
  1  2  2  0  0  0  0
  1 22  1  0  0  0  0
  2  3  1  0  0  0  0
  2  7  1  0  0  0  0
  3  4  2  0  0  0  0
  3 23  1  0  0  0  0
  4  5  1  0  0  0  0
  4 24  1  0  0  0  0
  5  6  2  0  0  0  0
  5 12  1  0  0  0  0
  6  1  1  0  0  0  0
  6 25  1  0  0  0  0
  7  8  1  0  0  0  0
  8  9  1  0  0  0  0
  8 26  1  0  0  0  0
  8 27  1  0  0  0  0
  9 10  1  0  0  0  0
  9 28  1  0  0  0  0
  9 29  1  0  0  0  0
 10 11  1  0  0  0  0
 10 30  1  0  0  0  0
 10 31  1  0  0  0  0
 11 32  1  0  0  0  0
 11 33  1  0  0  0  0
 11 34  1  0  0  0  0
 12 13  1  0  0  0  0
 13 14  1  0  0  0  0
 13 35  1  0  0  0  0
 13 36  1  0  0  0  0
 14 15  1  0  0  0  0
 14 37  1  0  0  0  0
 14 38  1  0  0  0  0
 15 16  1  0  0  0  0
 15 39  1  0  0  0  0
 15 40  1  0  0  0  0
 16 17  1  0  0  0  0
 17 18  1  0  0  0  0
 17 41  1  0  0  0  0
 17 42  1  0  0  0  0
 18 19  1  0  0  0  0
 18 43  1  0  0  0  0
 18 44  1  0  0  0  0
 19 20  1  0  0  0  0
 20 21  1  0  0  0  0
 20 45  1  0  0  0  0
 20 46  1  0  0  0  0
 21 16  1  0  0  0  0
 21 47  1  0  0  0  0
 21 48  1  0  0  0  0
M  END
>  <Mol_ID>
1334

>  <Formula>
C17H28ClNO3

>  <MolWeight>
329.86212

>  <Cat>
S4092

>  <Name>
Pramoxine HCl

>  <Synonyms>
Pramocaine hydrochloride

>  <Target>
Others

>  <Form>
Hydrochloride

>  <CAS>
637-58-1

>  <URL>
http://selleckchem.com/products/pramoxine-hcl.html

$$$$
