Pranlukast.cdx
 OpenBabel08302522013D

 59 63  0  0  0  0  0  0  0  0999 V2000
   -0.1111   -0.7773   -2.1213 C   0  0  0  0  0  0  0  0  0  0  0  0
    0.4500   -0.6447   -0.8615 C   0  0  0  0  0  0  0  0  0  0  0  0
    1.7870   -0.9695   -0.6461 C   0  0  0  0  0  0  0  0  0  0  0  0
    2.5813   -1.4715   -1.6778 C   0  0  0  0  0  0  0  0  0  0  0  0
    2.0256   -1.5613   -2.9627 C   0  0  0  0  0  0  0  0  0  0  0  0
    0.6786   -1.2204   -3.1856 C   0  0  0  0  0  0  0  0  0  0  0  0
   -1.5434   -0.4659   -2.2759 C   0  0  0  0  0  0  0  0  0  0  0  0
   -2.2826   -0.1209   -1.0460 C   0  0  0  0  0  0  0  0  0  0  0  0
   -1.6063   -0.0314    0.1074 C   0  0  0  0  0  0  0  0  0  0  0  0
   -0.2468   -0.2186    0.2354 O   0  0  0  0  0  0  0  0  0  0  0  0
   -2.1046   -0.5115   -3.3614 O   0  0  0  0  0  0  0  0  0  0  0  0
   -2.2727    0.2579    1.3258 C   0  0  0  0  0  0  0  0  0  0  0  0
   -3.5388    0.4506    1.6344 N   0  0  0  0  0  0  0  0  0  0  0  0
   -3.5785    0.6675    2.9933 N   0  0  0  0  0  0  0  0  0  0  0  0
   -2.3631    0.6120    3.5189 N   0  0  0  0  0  0  0  0  0  0  0  0
   -1.5519    0.3575    2.4855 N   0  0  0  0  0  0  0  0  0  0  0  0
    3.9137   -1.9094   -1.4640 N   0  0  0  0  0  0  0  0  0  0  0  0
    4.4889   -2.1292   -0.2157 C   0  0  0  0  0  0  0  0  0  0  0  0
    5.9022   -2.5979   -0.1739 C   0  0  0  0  0  0  0  0  0  0  0  0
    3.9310   -1.9757    0.8680 O   0  0  0  0  0  0  0  0  0  0  0  0
    6.6575   -2.2715    0.9644 C   0  0  0  0  0  0  0  0  0  0  0  0
    7.9806   -2.7093    1.1044 C   0  0  0  0  0  0  0  0  0  0  0  0
    8.5653   -3.4838    0.1043 C   0  0  0  0  0  0  0  0  0  0  0  0
    7.8068   -3.8202   -1.0243 C   0  0  0  0  0  0  0  0  0  0  0  0
    6.4779   -3.3931   -1.1649 C   0  0  0  0  0  0  0  0  0  0  0  0
    9.8482   -3.9654    0.1037 O   0  0  0  0  0  0  0  0  0  0  0  0
   10.5568   -3.9249    1.3444 C   0  0  0  0  0  0  0  0  0  0  0  0
   11.7990   -4.8182    1.2651 C   0  0  0  0  0  0  0  0  0  0  0  0
   12.8906   -4.3397    0.2940 C   0  0  0  0  0  0  0  0  0  0  0  0
   14.0730   -5.3254    0.3160 C   0  0  0  0  0  0  0  0  0  0  0  0
   15.2283   -4.9755   -0.5927 C   0  0  0  0  0  0  0  0  0  0  0  0
   16.5083   -4.7515   -0.0621 C   0  0  0  0  0  0  0  0  0  0  0  0
   17.5977   -4.5075   -0.9029 C   0  0  0  0  0  0  0  0  0  0  0  0
   17.4221   -4.4861   -2.2842 C   0  0  0  0  0  0  0  0  0  0  0  0
   16.1569   -4.7067   -2.8244 C   0  0  0  0  0  0  0  0  0  0  0  0
   15.0668   -4.9518   -1.9846 C   0  0  0  0  0  0  0  0  0  0  0  0
    2.1770   -0.8196    0.3541 H   0  0  0  0  0  0  0  0  0  0  0  0
    2.6109   -1.9322   -3.8011 H   0  0  0  0  0  0  0  0  0  0  0  0
    0.2447   -1.3261   -4.1785 H   0  0  0  0  0  0  0  0  0  0  0  0
   -3.3521    0.0330   -1.1346 H   0  0  0  0  0  0  0  0  0  0  0  0
   -0.5534    0.2614    2.6365 H   0  0  0  0  0  0  0  0  0  0  0  0
    4.4581   -2.1188   -2.2902 H   0  0  0  0  0  0  0  0  0  0  0  0
    6.2097   -1.6766    1.7606 H   0  0  0  0  0  0  0  0  0  0  0  0
    8.5173   -2.4286    2.0051 H   0  0  0  0  0  0  0  0  0  0  0  0
    8.2531   -4.4466   -1.7936 H   0  0  0  0  0  0  0  0  0  0  0  0
    5.9115   -3.7283   -2.0274 H   0  0  0  0  0  0  0  0  0  0  0  0
   10.8418   -2.8946    1.5865 H   0  0  0  0  0  0  0  0  0  0  0  0
    9.9220   -4.3247    2.1460 H   0  0  0  0  0  0  0  0  0  0  0  0
   12.2307   -4.8968    2.2702 H   0  0  0  0  0  0  0  0  0  0  0  0
   11.4853   -5.8249    0.9625 H   0  0  0  0  0  0  0  0  0  0  0  0
   12.4810   -4.2576   -0.7191 H   0  0  0  0  0  0  0  0  0  0  0  0
   13.2366   -3.3398    0.5835 H   0  0  0  0  0  0  0  0  0  0  0  0
   14.4401   -5.4116    1.3472 H   0  0  0  0  0  0  0  0  0  0  0  0
   13.7234   -6.3285    0.0387 H   0  0  0  0  0  0  0  0  0  0  0  0
   16.6737   -4.7824    1.0125 H   0  0  0  0  0  0  0  0  0  0  0  0
   18.5860   -4.3457   -0.4797 H   0  0  0  0  0  0  0  0  0  0  0  0
   18.2709   -4.3057   -2.9387 H   0  0  0  0  0  0  0  0  0  0  0  0
   16.0210   -4.7003   -3.9028 H   0  0  0  0  0  0  0  0  0  0  0  0
   14.0928   -5.1454   -2.4274 H   0  0  0  0  0  0  0  0  0  0  0  0
  1  2  1  0  0  0  0
  1  7  1  0  0  0  0
  2  3  2  0  0  0  0
  3  4  1  0  0  0  0
  3 37  1  0  0  0  0
  4  5  2  0  0  0  0
  4 17  1  0  0  0  0
  5  6  1  0  0  0  0
  5 38  1  0  0  0  0
  6  1  2  0  0  0  0
  6 39  1  0  0  0  0
  7  8  1  0  0  0  0
  7 11  2  0  0  0  0
  8  9  2  0  0  0  0
  8 40  1  0  0  0  0
  9 10  1  0  0  0  0
  9 12  1  0  0  0  0
 10  2  1  0  0  0  0
 12 13  2  0  0  0  0
 13 14  1  0  0  0  0
 14 15  2  0  0  0  0
 15 16  1  0  0  0  0
 16 12  1  0  0  0  0
 16 41  1  0  0  0  0
 17 18  1  0  0  0  0
 17 42  1  0  0  0  0
 18 19  1  0  0  0  0
 18 20  2  0  0  0  0
 19 21  2  0  0  0  0
 21 22  1  0  0  0  0
 21 43  1  0  0  0  0
 22 23  2  0  0  0  0
 22 44  1  0  0  0  0
 23 24  1  0  0  0  0
 23 26  1  0  0  0  0
 24 25  2  0  0  0  0
 24 45  1  0  0  0  0
 25 19  1  0  0  0  0
 25 46  1  0  0  0  0
 26 27  1  0  0  0  0
 27 28  1  0  0  0  0
 27 47  1  0  0  0  0
 27 48  1  0  0  0  0
 28 29  1  0  0  0  0
 28 49  1  0  0  0  0
 28 50  1  0  0  0  0
 29 30  1  0  0  0  0
 29 51  1  0  0  0  0
 29 52  1  0  0  0  0
 30 31  1  0  0  0  0
 30 53  1  0  0  0  0
 30 54  1  0  0  0  0
 31 32  2  0  0  0  0
 32 33  1  0  0  0  0
 32 55  1  0  0  0  0
 33 34  2  0  0  0  0
 33 56  1  0  0  0  0
 34 35  1  0  0  0  0
 34 57  1  0  0  0  0
 35 36  2  0  0  0  0
 35 58  1  0  0  0  0
 36 31  1  0  0  0  0
 36 59  1  0  0  0  0
M  END
>  <Mol_ID>
1110

>  <Formula>
C27H23N5O4

>  <MolWeight>
481.50262

>  <Cat>
S1829

>  <Name>
Pranlukast

>  <Synonyms>
ONO-1078,ono-rs-411

>  <Target>
Immunology & Inflammation related

>  <Form>
free base

>  <CAS>
103177-37-3

>  <URL>
http://selleckchem.com/products/pranlukast.html

$$$$
