Pranidipine
 OpenBabel08302521233D

 57 59  0  0  0  0  0  0  0  0999 V2000
   -0.0579   -1.7412    0.5633 C   0  0  3  0  0  0  0  0  0  0  0  0
    0.1448   -2.5936    1.8300 C   0  0  0  0  0  0  0  0  0  0  0  0
   -1.4101   -1.0111    0.4615 C   0  0  0  0  0  0  0  0  0  0  0  0
    1.1661   -0.8297    0.3518 C   0  0  0  0  0  0  0  0  0  0  0  0
    0.5187   -3.9400    1.6556 C   0  0  0  0  0  0  0  0  0  0  0  0
    0.1643   -2.0513    3.1235 C   0  0  0  0  0  0  0  0  0  0  0  0
   -1.4458    0.3372    0.2846 C   0  0  0  0  0  0  0  0  0  0  0  0
   -2.5855   -1.9382    0.4680 C   0  0  0  0  0  0  0  0  0  0  0  0
    1.0095    0.5005    0.1761 C   0  0  0  0  0  0  0  0  0  0  0  0
    2.4736   -1.5381    0.2838 C   0  0  0  0  0  0  0  0  0  0  0  0
    1.0448   -4.6762    2.7221 C   0  0  0  0  0  0  0  0  0  0  0  0
    0.6385   -2.8159    4.1962 C   0  0  0  0  0  0  0  0  0  0  0  0
   -0.2563    1.0500    0.2366 N   0  0  0  0  0  0  0  0  0  0  0  0
   -2.6442    1.2384    0.0589 C   0  0  0  0  0  0  0  0  0  0  0  0
   -3.7192   -1.2595    0.6899 O   0  0  0  0  0  0  0  0  0  0  0  0
   -2.5047   -3.1522    0.3650 O   0  0  0  0  0  0  0  0  0  0  0  0
    2.0965    1.4843   -0.1806 C   0  0  0  0  0  0  0  0  0  0  0  0
    3.4821   -0.7928    0.8073 O   0  0  0  0  0  0  0  0  0  0  0  0
    2.5945   -2.6822   -0.1261 O   0  0  0  0  0  0  0  0  0  0  0  0
    1.1138   -4.1099    4.0007 C   0  0  0  0  0  0  0  0  0  0  0  0
    1.6242   -6.0025    2.4713 N   0  3  0  0  0  0  0  0  0  0  0  0
   -4.8620   -1.9454    1.2187 C   0  0  0  0  0  0  0  0  0  0  0  0
    4.7523   -1.4499    0.8014 C   0  0  0  0  0  0  0  0  0  0  0  0
    1.5221   -6.4746    1.3316 O   0  0  0  0  0  0  0  0  0  0  0  0
    2.1872   -6.5688    3.4193 O   0  5  0  0  0  0  0  0  0  0  0  0
   -5.2749   -1.0397    2.3357 C   0  0  0  0  0  0  0  0  0  0  0  0
   -6.4664   -0.4333    2.4346 C   0  0  0  0  0  0  0  0  0  0  0  0
   -6.5562    0.7778    3.2506 C   0  0  0  0  0  0  0  0  0  0  0  0
   -6.3652    2.0025    2.5946 C   0  0  0  0  0  0  0  0  0  0  0  0
   -6.7460    0.7612    4.6331 C   0  0  0  0  0  0  0  0  0  0  0  0
   -6.3573    3.1989    3.3072 C   0  0  0  0  0  0  0  0  0  0  0  0
   -6.7435    1.9648    5.3467 C   0  0  0  0  0  0  0  0  0  0  0  0
   -6.5461    3.1790    4.6867 C   0  0  0  0  0  0  0  0  0  0  0  0
   -0.0544   -2.4245   -0.2998 H   0  0  0  0  0  0  0  0  0  0  0  0
    0.4840   -4.3815    0.6597 H   0  0  0  0  0  0  0  0  0  0  0  0
   -0.1270   -1.0162    3.2964 H   0  0  0  0  0  0  0  0  0  0  0  0
    0.6926   -2.3692    5.1947 H   0  0  0  0  0  0  0  0  0  0  0  0
   -0.3319    2.0396    0.0084 H   0  0  0  0  0  0  0  0  0  0  0  0
   -2.6804    2.0073    0.8397 H   0  0  0  0  0  0  0  0  0  0  0  0
   -2.5320    1.7502   -0.9056 H   0  0  0  0  0  0  0  0  0  0  0  0
   -3.6222    0.7684    0.0274 H   0  0  0  0  0  0  0  0  0  0  0  0
    1.7212    2.1991   -0.9240 H   0  0  0  0  0  0  0  0  0  0  0  0
    2.4028    2.0504    0.7043 H   0  0  0  0  0  0  0  0  0  0  0  0
    2.9710    1.0197   -0.6383 H   0  0  0  0  0  0  0  0  0  0  0  0
    1.5481   -4.6557    4.8356 H   0  0  0  0  0  0  0  0  0  0  0  0
   -5.6216   -2.0008    0.4296 H   0  0  0  0  0  0  0  0  0  0  0  0
   -4.6256   -2.9492    1.5807 H   0  0  0  0  0  0  0  0  0  0  0  0
    4.7165   -2.3524    1.4190 H   0  0  0  0  0  0  0  0  0  0  0  0
    5.0600   -1.6923   -0.2215 H   0  0  0  0  0  0  0  0  0  0  0  0
    5.4920   -0.7671    1.2292 H   0  0  0  0  0  0  0  0  0  0  0  0
   -4.4666   -0.7349    2.9949 H   0  0  0  0  0  0  0  0  0  0  0  0
   -7.2940   -0.6464    1.7658 H   0  0  0  0  0  0  0  0  0  0  0  0
   -6.1948    2.0238    1.5196 H   0  0  0  0  0  0  0  0  0  0  0  0
   -6.8813   -0.1780    5.1625 H   0  0  0  0  0  0  0  0  0  0  0  0
   -6.1910    4.1387    2.7879 H   0  0  0  0  0  0  0  0  0  0  0  0
   -6.8837    1.9562    6.4242 H   0  0  0  0  0  0  0  0  0  0  0  0
   -6.5320    4.1108    5.2470 H   0  0  0  0  0  0  0  0  0  0  0  0
  1  2  1  0  0  0  0
  1  3  1  0  0  0  0
  1  4  1  0  0  0  0
  1 34  1  0  0  0  0
  2  5  2  0  0  0  0
  2  6  1  0  0  0  0
  3  7  2  0  0  0  0
  3  8  1  0  0  0  0
  4  9  2  0  0  0  0
  4 10  1  0  0  0  0
  5 11  1  0  0  0  0
  5 35  1  0  0  0  0
  6 12  2  0  0  0  0
  6 36  1  0  0  0  0
  7 13  1  0  0  0  0
  7 14  1  0  0  0  0
  8 15  1  0  0  0  0
  8 16  2  0  0  0  0
  9 17  1  0  0  0  0
  9 13  1  0  0  0  0
 10 18  1  0  0  0  0
 10 19  2  0  0  0  0
 11 20  2  0  0  0  0
 11 21  1  0  0  0  0
 12 20  1  0  0  0  0
 12 37  1  0  0  0  0
 13 38  1  0  0  0  0
 14 39  1  0  0  0  0
 14 40  1  0  0  0  0
 14 41  1  0  0  0  0
 15 22  1  0  0  0  0
 17 42  1  0  0  0  0
 17 43  1  0  0  0  0
 17 44  1  0  0  0  0
 18 23  1  0  0  0  0
 20 45  1  0  0  0  0
 21 24  2  0  0  0  0
 21 25  1  0  0  0  0
 22 26  1  0  0  0  0
 22 46  1  0  0  0  0
 22 47  1  0  0  0  0
 23 48  1  0  0  0  0
 23 49  1  0  0  0  0
 23 50  1  0  0  0  0
 26 27  2  0  0  0  0
 26 51  1  0  0  0  0
 27 28  1  0  0  0  0
 27 52  1  0  0  0  0
 28 29  2  0  0  0  0
 28 30  1  0  0  0  0
 29 31  1  0  0  0  0
 29 53  1  0  0  0  0
 30 32  2  0  0  0  0
 30 54  1  0  0  0  0
 31 33  2  0  0  0  0
 31 55  1  0  0  0  0
 32 33  1  0  0  0  0
 32 56  1  0  0  0  0
 33 57  1  0  0  0  0
M  CHG  2  21   1  25  -1
M  END
>  <Mol_ID>
4879

>  <Formula>
C25H24N2O6

>  <MolWeight>
448.46786

>  <Cat>
S2436

>  <Name>
Pranidipine

>  <Synonyms>
Acalas, OPC 13340

>  <Target>
Calcium Channel

>  <Form>
Free Base

>  <CAS>
99522-79-9

>  <URL>
http://www.selleck.cn/products/pranidipine.html

$$$$
