prasugrel.cdx
 OpenBabel08302522033D

 46 49  0  0  0  0  0  0  0  0999 V2000
    0.8863   -0.0790    0.1466 C   0  0  0  0  0  0  0  0  0  0  0  0
    0.1376   -0.2656   -1.2048 C   0  0  3  0  0  0  0  0  0  0  0  0
   -0.6621   -1.5691   -1.1705 C   0  0  0  0  0  0  0  0  0  0  0  0
   -0.0498   -2.7423   -1.6393 C   0  0  0  0  0  0  0  0  0  0  0  0
   -0.6718   -3.9933   -1.5771 C   0  0  0  0  0  0  0  0  0  0  0  0
   -1.9428   -4.1042   -1.0350 C   0  0  0  0  0  0  0  0  0  0  0  0
   -2.5684   -2.9695   -0.5360 C   0  0  0  0  0  0  0  0  0  0  0  0
   -1.9304   -1.7190   -0.5825 C   0  0  0  0  0  0  0  0  0  0  0  0
    1.1909   -2.6852   -2.1517 F   0  0  0  0  0  0  0  0  0  0  0  0
    2.3436   -0.4341    0.1620 C   0  0  0  0  0  0  0  0  0  0  0  0
    2.9612   -0.9444    1.4479 C   0  0  0  0  0  0  0  0  0  0  0  0
    3.3240    0.4188    0.9355 C   0  0  0  0  0  0  0  0  0  0  0  0
   -1.5283    1.5247   -0.7160 C   0  0  0  0  0  0  0  0  0  0  0  0
   -1.8721    2.9582   -0.9243 C   0  0  0  0  0  0  0  0  0  0  0  0
   -1.2564    3.7895   -1.8167 C   0  0  0  0  0  0  0  0  0  0  0  0
   -0.1932    3.3223   -2.7461 C   0  0  0  0  0  0  0  0  0  0  0  0
    0.3829    1.9627   -2.2528 C   0  0  0  0  0  0  0  0  0  0  0  0
   -0.5807    0.9735   -1.6999 N   0  0  0  0  0  0  0  0  0  0  0  0
   -2.8513    3.6496   -0.1575 C   0  0  0  0  0  0  0  0  0  0  0  0
   -2.9879    4.9792   -0.5023 C   0  0  0  0  0  0  0  0  0  0  0  0
   -1.8456    5.3840   -1.7342 S   0  0  0  0  0  0  0  0  0  0  0  0
   -3.7785    5.9269   -0.0022 O   0  0  0  0  0  0  0  0  0  0  0  0
   -4.9295    5.5416    0.6089 C   0  0  0  0  0  0  0  0  0  0  0  0
   -5.4477    4.4312    0.6108 O   0  0  0  0  0  0  0  0  0  0  0  0
   -5.5390    6.7044    1.3332 C   0  0  0  0  0  0  0  0  0  0  0  0
    0.3565    0.2712    1.1979 O   0  0  0  0  0  0  0  0  0  0  0  0
    0.9138   -0.4302   -1.9661 H   0  0  0  0  0  0  0  0  0  0  0  0
   -0.1447   -4.8676   -1.9473 H   0  0  0  0  0  0  0  0  0  0  0  0
   -2.4339   -5.0711   -0.9839 H   0  0  0  0  0  0  0  0  0  0  0  0
   -3.5579   -3.0489   -0.0869 H   0  0  0  0  0  0  0  0  0  0  0  0
   -2.4442   -0.8900   -0.1170 H   0  0  0  0  0  0  0  0  0  0  0  0
    2.7174   -0.8848   -0.7516 H   0  0  0  0  0  0  0  0  0  0  0  0
    2.3435   -0.9948    2.3399 H   0  0  0  0  0  0  0  0  0  0  0  0
    3.7018   -1.7322    1.3832 H   0  0  0  0  0  0  0  0  0  0  0  0
    4.3191    0.5545    0.5294 H   0  0  0  0  0  0  0  0  0  0  0  0
    2.9503    1.2740    1.4891 H   0  0  0  0  0  0  0  0  0  0  0  0
   -2.4689    0.9790   -0.7895 H   0  0  0  0  0  0  0  0  0  0  0  0
   -1.1766    1.4736    0.3105 H   0  0  0  0  0  0  0  0  0  0  0  0
    0.6231    4.0522   -2.8104 H   0  0  0  0  0  0  0  0  0  0  0  0
   -0.6166    3.2079   -3.7511 H   0  0  0  0  0  0  0  0  0  0  0  0
    1.1658    2.1712   -1.5133 H   0  0  0  0  0  0  0  0  0  0  0  0
    0.8820    1.5093   -3.1206 H   0  0  0  0  0  0  0  0  0  0  0  0
   -3.4292    3.1697    0.6231 H   0  0  0  0  0  0  0  0  0  0  0  0
   -4.8764    7.0273    2.1395 H   0  0  0  0  0  0  0  0  0  0  0  0
   -5.7335    7.5188    0.6330 H   0  0  0  0  0  0  0  0  0  0  0  0
   -6.4902    6.3893    1.7721 H   0  0  0  0  0  0  0  0  0  0  0  0
  1  2  1  0  0  0  0
  1 10  1  0  0  0  0
  1 26  2  0  0  0  0
  2  3  1  0  0  0  0
  2 18  1  0  0  0  0
  2 27  1  0  0  0  0
  3  4  2  0  0  0  0
  3  8  1  0  0  0  0
  4  5  1  0  0  0  0
  4  9  1  0  0  0  0
  5  6  2  0  0  0  0
  5 28  1  0  0  0  0
  6  7  1  0  0  0  0
  6 29  1  0  0  0  0
  7  8  2  0  0  0  0
  7 30  1  0  0  0  0
  8 31  1  0  0  0  0
 10 11  1  0  0  0  0
 10 12  1  0  0  0  0
 10 32  1  0  0  0  0
 11 12  1  0  0  0  0
 11 33  1  0  0  0  0
 11 34  1  0  0  0  0
 12 35  1  0  0  0  0
 12 36  1  0  0  0  0
 13 14  1  0  0  0  0
 13 18  1  0  0  0  0
 13 37  1  0  0  0  0
 13 38  1  0  0  0  0
 14 15  2  0  0  0  0
 14 19  1  0  0  0  0
 15 16  1  0  0  0  0
 15 21  1  0  0  0  0
 16 17  1  0  0  0  0
 16 39  1  0  0  0  0
 16 40  1  0  0  0  0
 17 18  1  0  0  0  0
 17 41  1  0  0  0  0
 17 42  1  0  0  0  0
 19 20  2  0  0  0  0
 19 43  1  0  0  0  0
 20 21  1  0  0  0  0
 20 22  1  0  0  0  0
 22 23  1  0  0  0  0
 23 24  2  0  0  0  0
 23 25  1  0  0  0  0
 25 44  1  0  0  0  0
 25 45  1  0  0  0  0
 25 46  1  0  0  0  0
M  END
>  <Mol_ID>
141

>  <Formula>
C20H20FNO3S

>  <MolWeight>
373.4411032

>  <Cat>
S1258

>  <Name>
Prasugrel

>  <Synonyms>
Effient, Efient, Prasita,CS-747, LY640315,PCR 4099

>  <Target>
P2 Receptor

>  <Form>
Free Base

>  <CAS>
150322-43-3

>  <URL>
http://selleckchem.com/products/Prasugrel.html

$$$$
