Pravastatin sodium.cdx
 OpenBabel08302521323D

 65 66  0  0  0  0  0  0  0  0999 V2000
   -0.2715  -10.0491   -1.1958 C   0  0  0  0  0  0  0  0  0  0  0  0
    0.2039  -11.3013   -0.4989 C   0  0  1  0  0  0  0  0  0  0  0  0
    1.6368  -11.5387   -0.8400 C   0  0  0  0  0  0  0  0  0  0  0  0
    2.5390  -10.5452   -0.9848 C   0  0  0  0  0  0  0  0  0  0  0  0
    2.1912   -9.0903   -0.6549 C   0  0  2  0  0  0  0  0  0  0  0  0
    0.6711   -8.8565   -0.9803 C   0  0  1  0  0  0  0  0  0  0  0  0
    3.8627  -10.8635   -1.4493 C   0  0  0  0  0  0  0  0  0  0  0  0
    4.8196   -9.9475   -1.6057 C   0  0  0  0  0  0  0  0  0  0  0  0
    4.6694   -8.4769   -1.3352 C   0  0  1  0  0  0  0  0  0  0  0  0
    3.1783   -7.9815   -1.2107 C   0  0  2  0  0  0  0  0  0  0  0  0
    0.0487  -11.2189    0.9086 O   0  0  0  0  0  0  0  0  0  0  0  0
    5.6164   -8.0876   -0.1960 C   0  0  0  0  0  0  0  0  0  0  0  0
    3.1332   -6.5270   -0.5986 C   0  0  0  0  0  0  0  0  0  0  0  0
    0.4105   -7.8809   -1.9904 O   0  0  0  0  0  0  0  0  0  0  0  0
    0.7318   -8.1749   -3.2781 C   0  0  0  0  0  0  0  0  0  0  0  0
   -0.0824   -7.2582   -4.1611 C   0  0  1  0  0  0  0  0  0  0  0  0
    0.7811   -6.2613   -4.9147 C   0  0  0  0  0  0  0  0  0  0  0  0
   -1.0152   -8.1501   -4.9855 C   0  0  0  0  0  0  0  0  0  0  0  0
   -0.3641   -8.8861   -6.1478 C   0  0  0  0  0  0  0  0  0  0  0  0
    1.4635   -9.0791   -3.6588 O   0  0  0  0  0  0  0  0  0  0  0  0
    1.8111   -5.7597   -0.3507 C   0  0  0  0  0  0  0  0  0  0  0  0
    1.0646   -6.2213    0.9116 C   0  0  2  0  0  0  0  0  0  0  0  0
   -0.4412   -5.8814    0.9665 C   0  0  0  0  0  0  0  0  0  0  0  0
   -0.8031   -4.5073    1.5372 C   0  0  2  0  0  0  0  0  0  0  0  0
   -2.3016   -4.3316    1.7940 C   0  0  0  0  0  0  0  0  0  0  0  0
   -3.1720   -4.3593    0.5424 C   0  0  0  0  0  0  0  0  0  0  0  0
   -4.3521   -4.7681    0.7148 O   0  0  0  0  0  0  0  0  0  0  0  0
   -2.6020   -3.9472   -0.5104 O   0  5  0  0  0  0  0  0  0  0  0  0
    1.7655   -5.8373    2.0911 O   0  0  0  0  0  0  0  0  0  0  0  0
   -0.3001   -3.4797    0.6856 O   0  0  0  0  0  0  0  0  0  0  0  0
   -0.4101  -10.2506   -2.2642 H   0  0  0  0  0  0  0  0  0  0  0  0
   -1.2673   -9.7621   -0.8278 H   0  0  0  0  0  0  0  0  0  0  0  0
   -0.4120  -12.1394   -0.8423 H   0  0  0  0  0  0  0  0  0  0  0  0
    1.8941  -12.5712   -1.0589 H   0  0  0  0  0  0  0  0  0  0  0  0
    2.3073   -9.0483    0.4398 H   0  0  0  0  0  0  0  0  0  0  0  0
    0.2272   -8.4327   -0.0850 H   0  0  0  0  0  0  0  0  0  0  0  0
    4.0805  -11.9009   -1.6964 H   0  0  0  0  0  0  0  0  0  0  0  0
    5.7869  -10.2764   -1.9759 H   0  0  0  0  0  0  0  0  0  0  0  0
    5.0701   -7.9797   -2.2308 H   0  0  0  0  0  0  0  0  0  0  0  0
    2.9069   -7.8243   -2.2571 H   0  0  0  0  0  0  0  0  0  0  0  0
    0.6435  -10.5274    1.2430 H   0  0  0  0  0  0  0  0  0  0  0  0
    5.8077   -7.0089   -0.2012 H   0  0  0  0  0  0  0  0  0  0  0  0
    5.2171   -8.3703    0.7820 H   0  0  0  0  0  0  0  0  0  0  0  0
    6.5962   -8.5679   -0.3121 H   0  0  0  0  0  0  0  0  0  0  0  0
    3.6936   -6.4999    0.3403 H   0  0  0  0  0  0  0  0  0  0  0  0
    3.7057   -5.9012   -1.3025 H   0  0  0  0  0  0  0  0  0  0  0  0
   -0.7267   -6.6650   -3.4959 H   0  0  0  0  0  0  0  0  0  0  0  0
    1.3299   -6.7150   -5.7433 H   0  0  0  0  0  0  0  0  0  0  0  0
    0.1550   -5.4562   -5.3151 H   0  0  0  0  0  0  0  0  0  0  0  0
    1.5208   -5.8018   -4.2475 H   0  0  0  0  0  0  0  0  0  0  0  0
   -1.4578   -8.9023   -4.3163 H   0  0  0  0  0  0  0  0  0  0  0  0
   -1.8448   -7.5462   -5.3649 H   0  0  0  0  0  0  0  0  0  0  0  0
    0.5056   -9.4733   -5.8404 H   0  0  0  0  0  0  0  0  0  0  0  0
   -1.0835   -9.5839   -6.5866 H   0  0  0  0  0  0  0  0  0  0  0  0
   -0.0490   -8.1895   -6.9283 H   0  0  0  0  0  0  0  0  0  0  0  0
    2.0826   -4.7037   -0.2079 H   0  0  0  0  0  0  0  0  0  0  0  0
    1.1876   -5.7796   -1.2484 H   0  0  0  0  0  0  0  0  0  0  0  0
    1.1353   -7.2946    0.9639 H   0  0  0  0  0  0  0  0  0  0  0  0
   -0.8763   -6.0122   -0.0331 H   0  0  0  0  0  0  0  0  0  0  0  0
   -0.9172   -6.6342    1.6092 H   0  0  0  0  0  0  0  0  0  0  0  0
   -0.3052   -4.3836    2.5041 H   0  0  0  0  0  0  0  0  0  0  0  0
   -2.6520   -5.1033    2.4906 H   0  0  0  0  0  0  0  0  0  0  0  0
   -2.4775   -3.3570    2.2669 H   0  0  0  0  0  0  0  0  0  0  0  0
    1.7671   -4.8678    2.1017 H   0  0  0  0  0  0  0  0  0  0  0  0
   -0.9845   -3.4175   -0.0338 H   0  0  0  0  0  0  0  0  0  0  0  0
  1  2  1  0  0  0  0
  1 31  1  0  0  0  0
  1 32  1  0  0  0  0
  2  3  1  0  0  0  0
  2 11  1  0  0  0  0
  2 33  1  6  0  0  0
  3  4  2  0  0  0  0
  3 34  1  0  0  0  0
  4  7  1  0  0  0  0
  5  4  1  0  0  0  0
  5  6  1  0  0  0  0
  5 35  1  1  0  0  0
  6  1  1  0  0  0  0
  6 14  1  0  0  0  0
  6 36  1  1  0  0  0
  7  8  2  0  0  0  0
  7 37  1  0  0  0  0
  8  9  1  0  0  0  0
  8 38  1  0  0  0  0
  9 10  1  0  0  0  0
  9 39  1  6  0  0  0
  9 12  1  0  0  0  0
 10  5  1  0  0  0  0
 10 40  1  6  0  0  0
 10 13  1  0  0  0  0
 11 41  1  0  0  0  0
 12 42  1  0  0  0  0
 12 43  1  0  0  0  0
 12 44  1  0  0  0  0
 13 21  1  0  0  0  0
 13 45  1  0  0  0  0
 13 46  1  0  0  0  0
 14 15  1  0  0  0  0
 15 16  1  0  0  0  0
 15 20  2  0  0  0  0
 16 17  1  0  0  0  0
 16 18  1  0  0  0  0
 16 47  1  1  0  0  0
 17 48  1  0  0  0  0
 17 49  1  0  0  0  0
 17 50  1  0  0  0  0
 18 19  1  0  0  0  0
 18 51  1  0  0  0  0
 18 52  1  0  0  0  0
 19 53  1  0  0  0  0
 19 54  1  0  0  0  0
 19 55  1  0  0  0  0
 21 56  1  0  0  0  0
 21 57  1  0  0  0  0
 22 29  1  0  0  0  0
 22 58  1  6  0  0  0
 22 23  1  0  0  0  0
 22 21  1  0  0  0  0
 23 59  1  0  0  0  0
 23 60  1  0  0  0  0
 24 30  1  0  0  0  0
 24 61  1  1  0  0  0
 24 25  1  0  0  0  0
 24 23  1  0  0  0  0
 25 26  1  0  0  0  0
 25 62  1  0  0  0  0
 25 63  1  0  0  0  0
 26 27  2  0  0  0  0
 26 28  1  0  0  0  0
 29 64  1  0  0  0  0
 30 65  1  0  0  0  0
M  CHG  1  28  -1
M  END
>  <Mol_ID>
589

>  <Formula>
C23H35NaO7

>  <MolWeight>
446.50957

>  <Cat>
S3036

>  <Name>
Pravastatin sodium

>  <Synonyms>
CS-514 Sodium

>  <Target>
HMG-CoA Reductase

>  <Form>
sodium

>  <CAS>
81131-70-6

>  <URL>
http://selleckchem.com/products/pravastatin-pravachol.html

$$$$
