Pravastatin
 OpenBabel08302520343D

 66 67  0  0  0  0  0  0  0  0999 V2000
   -2.1673   -2.6770    2.8313 C   0  0  0  0  0  0  0  0  0  0  0  0
   -0.8589   -2.1094    2.2628 C   0  0  2  0  0  0  0  0  0  0  0  0
   -0.4590   -0.7265    2.9216 C   0  0  1  0  0  0  0  0  0  0  0  0
   -0.7495    1.0492    1.2500 C   0  0  0  0  0  0  0  0  0  0  0  0
   -2.8666   -3.7028    2.0912 C   0  0  0  0  0  0  0  0  0  0  0  0
   -2.6574   -2.2965    4.0251 C   0  0  0  0  0  0  0  0  0  0  0  0
    0.0626    0.3158    2.0571 O   0  0  0  0  0  0  0  0  0  0  0  0
   -0.7382   -2.2561    0.7050 C   0  0  1  0  0  0  0  0  0  0  0  0
   -2.4527   -4.1537    0.9043 C   0  0  0  0  0  0  0  0  0  0  0  0
   -1.4547   -0.1361    3.9349 C   0  0  0  0  0  0  0  0  0  0  0  0
    0.5383   -0.4631   -6.4023 C   0  0  0  0  0  0  0  0  0  0  0  0
    1.6826   -1.0586   -5.6355 C   0  0  0  0  0  0  0  0  0  0  0  0
    0.6931   -1.9458    0.1878 C   0  0  0  0  0  0  0  0  0  0  0  0
   -2.0758   -1.1894    4.8350 C   0  0  2  0  0  0  0  0  0  0  0  0
   -1.2098   -3.6724    0.2144 C   0  0  2  0  0  0  0  0  0  0  0  0
   -1.9544    0.8807    1.1373 O   0  0  0  0  0  0  0  0  0  0  0  0
   -0.5018   -1.3054   -6.5980 O   0  0  0  0  0  0  0  0  0  0  0  0
    0.5174    0.7026   -6.7691 O   0  0  0  0  0  0  0  0  0  0  0  0
    1.4789   -0.8026   -4.1441 C   0  0  1  0  0  0  0  0  0  0  0  0
    2.4309   -1.6722   -3.3209 C   0  0  0  0  0  0  0  0  0  0  0  0
    0.0750    2.0364    0.4195 C   0  0  2  0  0  0  0  0  0  0  0  0
    0.8239   -1.9641   -1.3426 C   0  0  0  0  0  0  0  0  0  0  0  0
   -1.1161   -1.7107    5.7413 O   0  0  0  0  0  0  0  0  0  0  0  0
    2.2367   -1.5717   -1.8024 C   0  0  1  0  0  0  0  0  0  0  0  0
    1.7410    0.5544   -3.8039 O   0  0  0  0  0  0  0  0  0  0  0  0
    3.1942   -2.4388   -1.1842 O   0  0  0  0  0  0  0  0  0  0  0  0
    1.0365    2.9084    1.2483 C   0  0  0  0  0  0  0  0  0  0  0  0
   -0.8291    2.8827   -0.4799 C   0  0  0  0  0  0  0  0  0  0  0  0
    0.3709    3.9139    2.1769 C   0  0  0  0  0  0  0  0  0  0  0  0
   -0.1642   -4.7905    0.3487 C   0  0  0  0  0  0  0  0  0  0  0  0
   -0.1007   -2.8130    2.6474 H   0  0  0  0  0  0  0  0  0  0  0  0
    0.4255   -0.9770    3.5261 H   0  0  0  0  0  0  0  0  0  0  0  0
   -3.7686   -4.1317    2.5245 H   0  0  0  0  0  0  0  0  0  0  0  0
   -3.5497   -2.7620    4.4379 H   0  0  0  0  0  0  0  0  0  0  0  0
   -1.4288   -1.5282    0.2576 H   0  0  0  0  0  0  0  0  0  0  0  0
   -3.0223   -4.9416    0.4156 H   0  0  0  0  0  0  0  0  0  0  0  0
   -2.2617    0.3976    3.4229 H   0  0  0  0  0  0  0  0  0  0  0  0
   -0.9335    0.6191    4.5373 H   0  0  0  0  0  0  0  0  0  0  0  0
    2.6074   -0.5969   -5.9996 H   0  0  0  0  0  0  0  0  0  0  0  0
    1.7427   -2.1295   -5.8654 H   0  0  0  0  0  0  0  0  0  0  0  0
    1.0220   -0.9602    0.5109 H   0  0  0  0  0  0  0  0  0  0  0  0
    1.4050   -2.6439    0.6425 H   0  0  0  0  0  0  0  0  0  0  0  0
   -2.8683   -0.7203    5.4294 H   0  0  0  0  0  0  0  0  0  0  0  0
   -1.4634   -3.5790   -0.8506 H   0  0  0  0  0  0  0  0  0  0  0  0
   -0.3889   -2.2022   -6.2300 H   0  0  0  0  0  0  0  0  0  0  0  0
    0.4360   -1.0212   -3.8831 H   0  0  0  0  0  0  0  0  0  0  0  0
    3.4655   -1.3772   -3.5394 H   0  0  0  0  0  0  0  0  0  0  0  0
    2.3506   -2.7227   -3.6287 H   0  0  0  0  0  0  0  0  0  0  0  0
    0.6949    1.4197   -0.2446 H   0  0  0  0  0  0  0  0  0  0  0  0
    0.5950   -2.9603   -1.7335 H   0  0  0  0  0  0  0  0  0  0  0  0
    0.0848   -1.2723   -1.7601 H   0  0  0  0  0  0  0  0  0  0  0  0
   -0.7087   -2.4944    5.3358 H   0  0  0  0  0  0  0  0  0  0  0  0
    2.4636   -0.5552   -1.4609 H   0  0  0  0  0  0  0  0  0  0  0  0
    1.5770    1.1265   -4.5779 H   0  0  0  0  0  0  0  0  0  0  0  0
    3.0753   -3.3342   -1.5426 H   0  0  0  0  0  0  0  0  0  0  0  0
    1.7060    2.2744    1.8409 H   0  0  0  0  0  0  0  0  0  0  0  0
    1.6829    3.4636    0.5549 H   0  0  0  0  0  0  0  0  0  0  0  0
   -1.7335    3.2164    0.0383 H   0  0  0  0  0  0  0  0  0  0  0  0
   -0.3056    3.7687   -0.8585 H   0  0  0  0  0  0  0  0  0  0  0  0
   -1.1471    2.2954   -1.3484 H   0  0  0  0  0  0  0  0  0  0  0  0
   -0.3109    4.5784    1.6394 H   0  0  0  0  0  0  0  0  0  0  0  0
   -0.1841    3.4104    2.9735 H   0  0  0  0  0  0  0  0  0  0  0  0
    1.1361    4.5429    2.6480 H   0  0  0  0  0  0  0  0  0  0  0  0
    0.7111   -4.6174   -0.2821 H   0  0  0  0  0  0  0  0  0  0  0  0
    0.1811   -4.8969    1.3829 H   0  0  0  0  0  0  0  0  0  0  0  0
   -0.5798   -5.7557    0.0350 H   0  0  0  0  0  0  0  0  0  0  0  0
  2  1  1  0  0  0  0
  2 31  1  1  0  0  0
  3  2  1  0  0  0  0
  3  7  1  0  0  0  0
  3 32  1  1  0  0  0
  4  7  1  0  0  0  0
  5  1  1  0  0  0  0
  5 33  1  0  0  0  0
  6  1  2  0  0  0  0
  6 34  1  0  0  0  0
  8  2  1  0  0  0  0
  8 35  1  6  0  0  0
  8 13  1  0  0  0  0
  9  5  2  0  0  0  0
  9 36  1  0  0  0  0
 10  3  1  0  0  0  0
 10 14  1  0  0  0  0
 10 37  1  0  0  0  0
 10 38  1  0  0  0  0
 11 12  1  0  0  0  0
 12 39  1  0  0  0  0
 12 40  1  0  0  0  0
 13 41  1  0  0  0  0
 13 42  1  0  0  0  0
 14  6  1  0  0  0  0
 14 23  1  0  0  0  0
 14 43  1  1  0  0  0
 15  8  1  0  0  0  0
 15  9  1  0  0  0  0
 15 44  1  6  0  0  0
 15 30  1  0  0  0  0
 16  4  2  0  0  0  0
 17 11  1  0  0  0  0
 17 45  1  0  0  0  0
 18 11  2  0  0  0  0
 19 25  1  0  0  0  0
 19 46  1  1  0  0  0
 19 20  1  0  0  0  0
 19 12  1  0  0  0  0
 20 47  1  0  0  0  0
 20 48  1  0  0  0  0
 21 49  1  6  0  0  0
 21 28  1  0  0  0  0
 21  4  1  0  0  0  0
 22 13  1  0  0  0  0
 22 50  1  0  0  0  0
 22 51  1  0  0  0  0
 23 52  1  0  0  0  0
 24 26  1  0  0  0  0
 24 53  1  1  0  0  0
 24 22  1  0  0  0  0
 24 20  1  0  0  0  0
 25 54  1  0  0  0  0
 26 55  1  0  0  0  0
 27 21  1  0  0  0  0
 27 56  1  0  0  0  0
 27 57  1  0  0  0  0
 28 58  1  0  0  0  0
 28 59  1  0  0  0  0
 28 60  1  0  0  0  0
 29 27  1  0  0  0  0
 29 61  1  0  0  0  0
 29 62  1  0  0  0  0
 29 63  1  0  0  0  0
 30 64  1  0  0  0  0
 30 65  1  0  0  0  0
 30 66  1  0  0  0  0
M  END
>  <Mol_ID>
3372

>  <Formula>
C23H36O7

>  <MolWeight>
424.52774

>  <Cat>
S5713

>  <Name>
Pravastatin

>  <Synonyms>
CS-514

>  <Target>
HMG-CoA Reductase

>  <Form>
Free Base

>  <CAS>
81093-37-0

>  <URL>
http://www.selleckchem.com/products/pravastatin.html

$$$$
