Prazosin hydrochloride.cdx
 OpenBabel08302521393D

 49 52  0  0  0  0  0  0  0  0999 V2000
   -1.0092    1.5023    0.1001 C   0  0  0  0  0  0  0  0  0  0  0  0
   -2.3611    1.1506    0.0345 C   0  0  0  0  0  0  0  0  0  0  0  0
   -2.6879   -0.2108   -0.0241 C   0  0  0  0  0  0  0  0  0  0  0  0
   -1.6544   -1.1668   -0.0477 C   0  0  0  0  0  0  0  0  0  0  0  0
   -0.3065   -0.8245   -0.0084 C   0  0  0  0  0  0  0  0  0  0  0  0
    0.0143    0.5225    0.0794 C   0  0  0  0  0  0  0  0  0  0  0  0
    0.6341   -1.7759   -0.0575 N   0  0  0  0  0  0  0  0  0  0  0  0
    1.9305   -1.4198   -0.0154 C   0  0  0  0  0  0  0  0  0  0  0  0
    2.3233   -0.1490    0.1020 N   0  0  0  0  0  0  0  0  0  0  0  0
    1.3804    0.7947    0.1399 C   0  0  0  0  0  0  0  0  0  0  0  0
   -3.3692    2.0740    0.0241 O   0  0  0  0  0  0  0  0  0  0  0  0
   -3.0269    3.4537    0.0413 C   0  0  0  0  0  0  0  0  0  0  0  0
   -3.9321   -0.7877   -0.0680 O   0  0  0  0  0  0  0  0  0  0  0  0
   -5.0811    0.0461   -0.0126 C   0  0  0  0  0  0  0  0  0  0  0  0
    1.8671    2.1032    0.2636 N   0  0  0  0  0  0  0  0  0  0  0  0
    2.8847   -2.3933   -0.1530 N   0  0  0  0  0  0  0  0  0  0  0  0
    4.3171   -2.1068   -0.0516 C   0  0  0  0  0  0  0  0  0  0  0  0
    5.0833   -2.8183   -1.1897 C   0  0  0  0  0  0  0  0  0  0  0  0
    4.6998   -4.2324   -1.3343 N   0  0  0  0  0  0  0  0  0  0  0  0
    3.2441   -4.4538   -1.4091 C   0  0  0  0  0  0  0  0  0  0  0  0
    2.5145   -3.8002   -0.2245 C   0  0  0  0  0  0  0  0  0  0  0  0
    5.6780   -5.2278   -1.2794 C   0  0  0  0  0  0  0  0  0  0  0  0
    5.2880   -6.6061   -1.5397 C   0  0  0  0  0  0  0  0  0  0  0  0
    6.8426   -4.9484   -0.9880 O   0  0  0  0  0  0  0  0  0  0  0  0
    5.8066   -7.7936   -1.0520 C   0  0  0  0  0  0  0  0  0  0  0  0
    5.0191   -8.8422   -1.5874 C   0  0  0  0  0  0  0  0  0  0  0  0
    4.1006   -8.2437   -2.4145 C   0  0  0  0  0  0  0  0  0  0  0  0
    4.2812   -6.8996   -2.4260 O   0  0  0  0  0  0  0  0  0  0  0  0
   -0.7075    2.5414    0.1749 H   0  0  0  0  0  0  0  0  0  0  0  0
   -1.9181   -2.2222   -0.1014 H   0  0  0  0  0  0  0  0  0  0  0  0
   -2.4997    3.7172    0.9637 H   0  0  0  0  0  0  0  0  0  0  0  0
   -2.4431    3.7270   -0.8441 H   0  0  0  0  0  0  0  0  0  0  0  0
   -3.9576    4.0281    0.0155 H   0  0  0  0  0  0  0  0  0  0  0  0
   -5.1084    0.6341    0.9105 H   0  0  0  0  0  0  0  0  0  0  0  0
   -5.1535    0.6755   -0.9053 H   0  0  0  0  0  0  0  0  0  0  0  0
   -5.9631   -0.6020   -0.0037 H   0  0  0  0  0  0  0  0  0  0  0  0
    1.5376    2.6881   -0.4952 H   0  0  0  0  0  0  0  0  0  0  0  0
    2.8818    2.0313    0.2592 H   0  0  0  0  0  0  0  0  0  0  0  0
    4.5487   -1.0369   -0.1017 H   0  0  0  0  0  0  0  0  0  0  0  0
    4.6808   -2.4716    0.9167 H   0  0  0  0  0  0  0  0  0  0  0  0
    4.8466   -2.3349   -2.1457 H   0  0  0  0  0  0  0  0  0  0  0  0
    6.1613   -2.7097   -1.0311 H   0  0  0  0  0  0  0  0  0  0  0  0
    2.9045   -4.0171   -2.3560 H   0  0  0  0  0  0  0  0  0  0  0  0
    2.9716   -5.5052   -1.3985 H   0  0  0  0  0  0  0  0  0  0  0  0
    2.8149   -4.2953    0.7081 H   0  0  0  0  0  0  0  0  0  0  0  0
    1.4407   -3.9741   -0.3485 H   0  0  0  0  0  0  0  0  0  0  0  0
    6.6359   -7.8741   -0.3630 H   0  0  0  0  0  0  0  0  0  0  0  0
    5.1094   -9.9018   -1.3958 H   0  0  0  0  0  0  0  0  0  0  0  0
    3.2935   -8.6117   -3.0335 H   0  0  0  0  0  0  0  0  0  0  0  0
  1  2  2  0  0  0  0
  1 29  1  0  0  0  0
  2  3  1  0  0  0  0
  2 11  1  0  0  0  0
  3  4  2  0  0  0  0
  3 13  1  0  0  0  0
  4  5  1  0  0  0  0
  4 30  1  0  0  0  0
  5  6  2  0  0  0  0
  5  7  1  0  0  0  0
  6  1  1  0  0  0  0
  7  8  2  0  0  0  0
  8  9  1  0  0  0  0
  8 16  1  0  0  0  0
  9 10  2  0  0  0  0
 10  6  1  0  0  0  0
 10 15  1  0  0  0  0
 11 12  1  0  0  0  0
 12 31  1  0  0  0  0
 12 32  1  0  0  0  0
 12 33  1  0  0  0  0
 13 14  1  0  0  0  0
 14 34  1  0  0  0  0
 14 35  1  0  0  0  0
 14 36  1  0  0  0  0
 15 37  1  0  0  0  0
 15 38  1  0  0  0  0
 16 17  1  0  0  0  0
 17 18  1  0  0  0  0
 17 39  1  0  0  0  0
 17 40  1  0  0  0  0
 18 19  1  0  0  0  0
 18 41  1  0  0  0  0
 18 42  1  0  0  0  0
 19 20  1  0  0  0  0
 19 22  1  0  0  0  0
 20 21  1  0  0  0  0
 20 43  1  0  0  0  0
 20 44  1  0  0  0  0
 21 16  1  0  0  0  0
 21 45  1  0  0  0  0
 21 46  1  0  0  0  0
 22 23  1  0  0  0  0
 22 24  2  0  0  0  0
 23 25  2  0  0  0  0
 25 26  1  0  0  0  0
 25 47  1  0  0  0  0
 26 27  2  0  0  0  0
 26 48  1  0  0  0  0
 27 28  1  0  0  0  0
 27 49  1  0  0  0  0
 28 23  1  0  0  0  0
M  END
>  <Mol_ID>
8201

>  <Formula>
C19H22ClN5O4

>  <MolWeight>
419.86208

>  <Cat>
S1424

>  <Name>
Prazosin HCl

>  <Synonyms>
cp-12299-1

>  <Target>
Adrenergic Receptor

>  <Form>
Hydrochloride

>  <CAS>
19237-84-4

>  <URL>
http://selleckchem.com/products/Prazosin-hydrochloride.html

$$$$
