Prednisolone acetate.cdx
 OpenBabel08302521532D

 59 62  0  0  0  0  0  0  0  0999 V2000
    1.2082    2.1000    0.0000 C   0  0  0  0  0  0  0  0  0  0  0  0
    1.2082    0.7000    0.0000 C   0  0  0  0  0  0  0  0  0  0  0  0
    2.4207    0.0000    0.0000 C   0  0  0  0  0  0  0  0  0  0  0  0
    3.6331    0.7000    0.0000 C   0  0  0  0  0  0  0  0  0  0  0  0
    3.6331    2.1000    0.0000 C   0  0  2  0  0  0  0  0  0  0  0  0
    2.4207    2.8000    0.0000 C   0  0  0  0  0  0  0  0  0  0  0  0
    4.8455    0.0000    0.0000 C   0  0  0  0  0  0  0  0  0  0  0  0
    6.0580    0.7000    0.0000 C   0  0  0  0  0  0  0  0  0  0  0  0
    6.0580    2.1000    0.0000 C   0  0  2  0  0  0  0  0  0  0  0  0
    4.8455    2.8000    0.0000 C   0  0  3  0  0  0  0  0  0  0  0  0
    7.2704    2.8000    0.0000 C   0  0  3  0  0  0  0  0  0  0  0  0
    7.2704    4.2000    0.0000 C   0  0  3  0  0  0  0  0  0  0  0  0
    6.0580    4.9000    0.0000 C   0  0  0  0  0  0  0  0  0  0  0  0
    4.8455    4.2000    0.0000 C   0  0  3  0  0  0  0  0  0  0  0  0
    8.6019    2.3674    0.0000 C   0  0  0  0  0  0  0  0  0  0  0  0
    9.4248    3.5000    0.0000 C   0  0  0  0  0  0  0  0  0  0  0  0
    8.6019    4.6326    0.0000 C   0  0  3  0  0  0  0  0  0  0  0  0
    0.0000    0.0024    0.0000 O   0  0  0  0  0  0  0  0  0  0  0  0
    8.2395    5.9849    0.0000 C   0  0  0  0  0  0  0  0  0  0  0  0
    9.2261    6.9714    0.0000 C   0  0  0  0  0  0  0  0  0  0  0  0
    6.8919    6.3460    0.0000 O   0  0  0  0  0  0  0  0  0  0  0  0
    3.6331    3.4951    0.0000 C   0  0  0  0  0  0  0  0  0  0  0  0
    3.6373    4.8976    0.0000 O   0  0  0  0  0  0  0  0  0  0  0  0
    7.4162    5.5875    0.0000 C   0  0  0  0  0  0  0  0  0  0  0  0
    9.8143    5.3326    0.0000 O   0  0  0  0  0  0  0  0  0  0  0  0
   10.5737    6.6103    0.0000 O   0  0  0  0  0  0  0  0  0  0  0  0
   11.5636    7.6003    0.0000 C   0  0  0  0  0  0  0  0  0  0  0  0
   11.2025    8.9479    0.0000 O   0  0  0  0  0  0  0  0  0  0  0  0
   12.9112    7.2392    0.0000 C   0  0  0  0  0  0  0  0  0  0  0  0
    0.3145    2.6160    0.0000 H   0  0  0  0  0  0  0  0  0  0  0  0
    2.4207   -1.0320    0.0000 H   0  0  0  0  0  0  0  0  0  0  0  0
    2.4207    3.8320    0.0000 H   0  0  0  0  0  0  0  0  0  0  0  0
    4.8455   -1.0700    0.0000 H   0  0  0  0  0  0  0  0  0  0  0  0
    5.7721   -0.5350    0.0000 H   0  0  0  0  0  0  0  0  0  0  0  0
    6.9846    0.1650    0.0000 H   0  0  0  0  0  0  0  0  0  0  0  0
    6.9847    1.2350    0.0000 H   0  0  0  0  0  0  0  0  0  0  0  0
    5.1314    1.5650    0.0000 H   0  0  0  0  0  0  0  0  0  0  0  0
    4.8455    1.7300    0.0000 H   0  0  0  0  0  0  0  0  0  0  0  0
    6.3437    3.3350    0.0000 H   0  0  0  0  0  0  0  0  0  0  0  0
    6.0580    5.9700    0.0000 H   0  0  0  0  0  0  0  0  0  0  0  0
    5.1314    5.4350    0.0000 H   0  0  0  0  0  0  0  0  0  0  0  0
    5.7721    3.6650    0.0000 H   0  0  0  0  0  0  0  0  0  0  0  0
    8.9326    1.3498    0.0000 H   0  0  0  0  0  0  0  0  0  0  0  0
    9.6587    2.2000    0.0000 H   0  0  0  0  0  0  0  0  0  0  0  0
   10.4948    3.5000    0.0000 H   0  0  0  0  0  0  0  0  0  0  0  0
    9.9106    4.4534    0.0000 H   0  0  0  0  0  0  0  0  0  0  0  0
    8.9492    8.0049    0.0000 H   0  0  0  0  0  0  0  0  0  0  0  0
    9.9827    7.7280    0.0000 H   0  0  0  0  0  0  0  0  0  0  0  0
    4.5597    4.0301    0.0000 H   0  0  0  0  0  0  0  0  0  0  0  0
    2.7065    4.0301    0.0000 H   0  0  0  0  0  0  0  0  0  0  0  0
    3.6331    4.5651    0.0000 H   0  0  0  0  0  0  0  0  0  0  0  0
    3.6373    5.8676    0.0000 H   0  0  0  0  0  0  0  0  0  0  0  0
    8.3937    6.0227    0.0000 H   0  0  0  0  0  0  0  0  0  0  0  0
    6.5505    6.2164    0.0000 H   0  0  0  0  0  0  0  0  0  0  0  0
    7.5280    6.6516    0.0000 H   0  0  0  0  0  0  0  0  0  0  0  0
   10.6544    4.8476    0.0000 H   0  0  0  0  0  0  0  0  0  0  0  0
   13.1881    6.2057    0.0000 H   0  0  0  0  0  0  0  0  0  0  0  0
   13.6678    7.9958    0.0000 H   0  0  0  0  0  0  0  0  0  0  0  0
   13.9447    6.9623    0.0000 H   0  0  0  0  0  0  0  0  0  0  0  0
  1  2  1  0  0  0  0
  1 30  1  0  0  0  0
  2  3  1  0  0  0  0
  2 18  2  0  0  0  0
  3  4  2  0  0  0  0
  3 31  1  0  0  0  0
  4  5  1  0  0  0  0
  4  7  1  0  0  0  0
  5  6  1  0  0  0  0
  5 22  1  1  0  0  0
  6  1  2  0  0  0  0
  6 32  1  0  0  0  0
  7  8  1  0  0  0  0
  7 33  1  0  0  0  0
  7 34  1  0  0  0  0
  8 35  1  0  0  0  0
  8 36  1  0  0  0  0
  9  8  1  0  0  0  0
  9 10  1  0  0  0  0
  9 11  1  0  0  0  0
  9 37  1  1  0  0  0
 10  5  1  0  0  0  0
 10 14  1  0  0  0  0
 10 38  1  0  0  0  0
 11 12  1  0  0  0  0
 11 15  1  0  0  0  0
 11 39  1  0  0  0  0
 12 13  1  0  0  0  0
 12 24  1  0  0  0  0
 13 14  1  0  0  0  0
 13 40  1  0  0  0  0
 13 41  1  0  0  0  0
 14 23  1  0  0  0  0
 14 42  1  0  0  0  0
 15 16  1  0  0  0  0
 15 43  1  0  0  0  0
 15 44  1  0  0  0  0
 16 17  1  0  0  0  0
 16 45  1  0  0  0  0
 16 46  1  0  0  0  0
 17 12  1  0  0  0  0
 17 19  1  0  0  0  0
 17 25  1  0  0  0  0
 19 20  1  0  0  0  0
 19 21  2  0  0  0  0
 20 26  1  0  0  0  0
 20 47  1  0  0  0  0
 20 48  1  0  0  0  0
 22 49  1  0  0  0  0
 22 50  1  0  0  0  0
 22 51  1  0  0  0  0
 23 52  1  0  0  0  0
 24 53  1  0  0  0  0
 24 54  1  0  0  0  0
 24 55  1  0  0  0  0
 25 56  1  0  0  0  0
 26 27  1  0  0  0  0
 27 28  2  0  0  0  0
 27 29  1  0  0  0  0
 29 57  1  0  0  0  0
 29 58  1  0  0  0  0
 29 59  1  0  0  0  0
M  END
>  <Mol_ID>
858

>  <Formula>
C23H30O6

>  <MolWeight>
402.4807

>  <Cat>
S2570

>  <Name>
Prednisolone Acetate

>  <Synonyms>
Omnipred,Prednisolone-21-acetate

>  <Target>
Glucocorticoid Receptor

>  <Form>
free base

>  <CAS>
52-21-1

>  <URL>
http://selleckchem.com/products/Prednisolone-acetate-Omnipred.html

$$$$
