Prednisone acetate
 OpenBabel08302521303D

 57 60  0  0  0  0  0  0  0  0999 V2000
    1.6702   -5.4093   -1.2104 O   0  0  0  0  0  0  0  0  0  0  0  0
   -2.2203   -2.5996   -2.6716 O   0  0  0  0  0  0  0  0  0  0  0  0
    2.9684   -3.7013   -2.9575 O   0  0  0  0  0  0  0  0  0  0  0  0
    5.5714   -3.3276   -2.1561 O   0  0  0  0  0  0  0  0  0  0  0  0
   -6.8146   -3.1213    0.1087 O   0  0  0  0  0  0  0  0  0  0  0  0
    5.6033   -5.5589   -1.6425 O   0  0  0  0  0  0  0  0  0  0  0  0
    0.8552   -3.1560   -0.7268 C   0  0  1  0  0  0  0  0  0  0  0  0
    0.0363   -3.8308    0.4179 C   0  0  2  0  0  0  0  0  0  0  0  0
   -1.0174   -2.8583    0.9124 C   0  0  1  0  0  0  0  0  0  0  0  0
   -2.0378   -2.6688   -0.2503 C   0  0  1  0  0  0  0  0  0  0  0  0
    2.0831   -4.1028   -0.7754 C   0  0  1  0  0  0  0  0  0  0  0  0
    1.0609   -4.4211    1.3934 C   0  0  0  0  0  0  0  0  0  0  0  0
   -0.0310   -3.1079   -1.9710 C   0  0  0  0  0  0  0  0  0  0  0  0
    2.4247   -4.2244    0.7161 C   0  0  0  0  0  0  0  0  0  0  0  0
   -3.0067   -1.4871    0.0754 C   0  0  1  0  0  0  0  0  0  0  0  0
   -1.7439   -3.2417    2.2136 C   0  0  0  0  0  0  0  0  0  0  0  0
   -1.4744   -2.7193   -1.6931 C   0  0  0  0  0  0  0  0  0  0  0  0
    1.2951   -1.6900   -0.4332 C   0  0  0  0  0  0  0  0  0  0  0  0
   -2.8021   -2.1831    2.5680 C   0  0  0  0  0  0  0  0  0  0  0  0
   -3.6959   -1.9523    1.3716 C   0  0  0  0  0  0  0  0  0  0  0  0
    3.1904   -3.6644   -1.7396 C   0  0  0  0  0  0  0  0  0  0  0  0
   -2.2882   -0.1317    0.2648 C   0  0  0  0  0  0  0  0  0  0  0  0
   -4.0155   -1.2553   -1.0320 C   0  0  0  0  0  0  0  0  0  0  0  0
   -4.9699   -2.3952    1.3922 C   0  0  0  0  0  0  0  0  0  0  0  0
    4.5256   -3.1851   -1.1879 C   0  0  0  0  0  0  0  0  0  0  0  0
   -5.2697   -1.7354   -1.0226 C   0  0  0  0  0  0  0  0  0  0  0  0
   -5.7771   -2.4657    0.1539 C   0  0  0  0  0  0  0  0  0  0  0  0
    5.9996   -4.6109   -2.3068 C   0  0  0  0  0  0  0  0  0  0  0  0
    7.0035   -4.7252   -3.4126 C   0  0  0  0  0  0  0  0  0  0  0  0
    1.6222   -5.3878   -2.1872 H   0  0  0  0  0  0  0  0  0  0  0  0
   -0.5008   -4.7034    0.0082 H   0  0  0  0  0  0  0  0  0  0  0  0
   -0.5214   -1.9159    1.1508 H   0  0  0  0  0  0  0  0  0  0  0  0
   -2.6454   -3.5930   -0.2432 H   0  0  0  0  0  0  0  0  0  0  0  0
    0.8688   -5.5000    1.4867 H   0  0  0  0  0  0  0  0  0  0  0  0
    1.0283   -4.0033    2.4012 H   0  0  0  0  0  0  0  0  0  0  0  0
    0.3595   -2.3769   -2.6902 H   0  0  0  0  0  0  0  0  0  0  0  0
   -0.0613   -4.0766   -2.4783 H   0  0  0  0  0  0  0  0  0  0  0  0
    2.8886   -3.3131    1.1104 H   0  0  0  0  0  0  0  0  0  0  0  0
    3.0942   -5.0594    0.9402 H   0  0  0  0  0  0  0  0  0  0  0  0
   -2.2200   -4.2244    2.1071 H   0  0  0  0  0  0  0  0  0  0  0  0
   -1.0353   -3.3186    3.0455 H   0  0  0  0  0  0  0  0  0  0  0  0
    0.4592   -0.9873   -0.5280 H   0  0  0  0  0  0  0  0  0  0  0  0
    1.7094   -1.5605    0.5709 H   0  0  0  0  0  0  0  0  0  0  0  0
    2.0425   -1.3477   -1.1556 H   0  0  0  0  0  0  0  0  0  0  0  0
   -3.3732   -2.5232    3.4404 H   0  0  0  0  0  0  0  0  0  0  0  0
   -2.3226   -1.2453    2.8706 H   0  0  0  0  0  0  0  0  0  0  0  0
   -1.5798   -0.1180    1.0973 H   0  0  0  0  0  0  0  0  0  0  0  0
   -1.7227    0.1460   -0.6337 H   0  0  0  0  0  0  0  0  0  0  0  0
   -3.0028    0.6767    0.4630 H   0  0  0  0  0  0  0  0  0  0  0  0
   -3.6705   -0.7627   -1.9412 H   0  0  0  0  0  0  0  0  0  0  0  0
   -5.4196   -2.8486    2.2676 H   0  0  0  0  0  0  0  0  0  0  0  0
    4.4329   -2.1181   -0.9565 H   0  0  0  0  0  0  0  0  0  0  0  0
    4.8009   -3.7103   -0.2685 H   0  0  0  0  0  0  0  0  0  0  0  0
   -5.9300   -1.6573   -1.8840 H   0  0  0  0  0  0  0  0  0  0  0  0
    6.5544   -5.2741   -4.2450 H   0  0  0  0  0  0  0  0  0  0  0  0
    7.3097   -3.7386   -3.7706 H   0  0  0  0  0  0  0  0  0  0  0  0
    7.8828   -5.2496   -3.0431 H   0  0  0  0  0  0  0  0  0  0  0  0
  1 30  1  0  0  0  0
  2 17  2  0  0  0  0
  3 21  2  0  0  0  0
  4 25  1  0  0  0  0
  4 28  1  0  0  0  0
  5 27  2  0  0  0  0
  6 28  2  0  0  0  0
  7  8  1  0  0  0  0
  7 11  1  0  0  0  0
  7 13  1  0  0  0  0
  7 18  1  1  0  0  0
  8  9  1  0  0  0  0
  8 12  1  0  0  0  0
  8 31  1  6  0  0  0
  9 10  1  0  0  0  0
  9 16  1  0  0  0  0
  9 32  1  1  0  0  0
 10 15  1  0  0  0  0
 10 17  1  0  0  0  0
 10 33  1  1  0  0  0
 11  1  1  6  0  0  0
 11 14  1  0  0  0  0
 11 21  1  0  0  0  0
 12 14  1  0  0  0  0
 12 34  1  0  0  0  0
 12 35  1  0  0  0  0
 13 17  1  0  0  0  0
 13 36  1  0  0  0  0
 13 37  1  0  0  0  0
 14 38  1  0  0  0  0
 14 39  1  0  0  0  0
 15 20  1  0  0  0  0
 15 22  1  1  0  0  0
 15 23  1  0  0  0  0
 16 19  1  0  0  0  0
 16 40  1  0  0  0  0
 16 41  1  0  0  0  0
 18 42  1  0  0  0  0
 18 43  1  0  0  0  0
 18 44  1  0  0  0  0
 19 20  1  0  0  0  0
 19 45  1  0  0  0  0
 19 46  1  0  0  0  0
 20 24  2  0  0  0  0
 21 25  1  0  0  0  0
 22 47  1  0  0  0  0
 22 48  1  0  0  0  0
 22 49  1  0  0  0  0
 23 26  2  0  0  0  0
 23 50  1  0  0  0  0
 24 27  1  0  0  0  0
 24 51  1  0  0  0  0
 25 52  1  0  0  0  0
 25 53  1  0  0  0  0
 26 27  1  0  0  0  0
 26 54  1  0  0  0  0
 28 29  1  0  0  0  0
 29 55  1  0  0  0  0
 29 56  1  0  0  0  0
 29 57  1  0  0  0  0
M  END
>  <Mol_ID>
5690

>  <Formula>
C23H28O6

>  <MolWeight>
400.46482

>  <Cat>
S5489

>  <Name>
Prednisone acetate

>  <Synonyms>
Betapar, Cortan, Deltasone, Fernisone, Meticorten, Prednisone 21-acetate

>  <Target>
Glucocorticoid Receptor

>  <Form>
Free Base

>  <CAS>
125-10-0

>  <URL>
http://www.selleckchem.com/products/prednisone-acetate.html

$$$$
