Prednicarbate
 OpenBabel08302521323D

 71 74  0  0  0  0  0  0  0  0999 V2000
    1.5540    1.8389    0.2436 C   0  0  2  0  0  0  0  0  0  0  0  0
    0.8652    3.1245    0.9866 C   0  0  2  0  0  0  0  0  0  0  0  0
    0.9701    0.6136    1.1189 C   0  0  0  0  0  0  0  0  0  0  0  0
    3.0243    1.4329    0.1136 C   0  0  0  0  0  0  0  0  0  0  0  0
    0.9072    1.7162   -1.0766 O   0  0  0  0  0  0  0  0  0  0  0  0
   -0.4862    2.3768    1.1752 C   0  0  1  0  0  0  0  0  0  0  0  0
    0.6430    4.4620    0.1996 C   0  0  0  0  0  0  0  0  0  0  0  0
    1.4896    3.5086    2.3631 C   0  0  0  0  0  0  0  0  0  0  0  0
   -0.1241    1.1802    2.0275 C   0  0  0  0  0  0  0  0  0  0  0  0
    3.3731    0.3545   -0.9750 C   0  0  0  0  0  0  0  0  0  0  0  0
    3.8910    1.8609    0.8780 O   0  0  0  0  0  0  0  0  0  0  0  0
    1.2755    2.3784   -2.1886 C   0  0  0  0  0  0  0  0  0  0  0  0
   -1.8645    2.9916    1.1624 C   0  0  1  0  0  0  0  0  0  0  0  0
   -0.7907    5.0933    0.2272 C   0  0  1  0  0  0  0  0  0  0  0  0
    2.3329   -0.4104   -1.6163 O   0  0  0  0  0  0  0  0  0  0  0  0
    0.2321    2.2708   -3.0375 O   0  0  0  0  0  0  0  0  0  0  0  0
    2.3147    2.9865   -2.3617 O   0  0  0  0  0  0  0  0  0  0  0  0
   -1.8929    4.0412   -0.0250 C   0  0  3  0  0  0  0  0  0  0  0  0
   -2.8316    1.7950    0.8857 C   0  0  0  0  0  0  0  0  0  0  0  0
   -0.9994    5.7938    1.4486 O   0  0  0  0  0  0  0  0  0  0  0  0
    2.0067   -1.6344   -1.0895 C   0  0  0  0  0  0  0  0  0  0  0  0
    0.2822    2.9341   -4.3057 C   0  0  0  0  0  0  0  0  0  0  0  0
   -3.3781    4.4897   -0.3373 C   0  0  3  0  0  0  0  0  0  0  0  0
   -4.2288    2.1961    0.5021 C   0  0  0  0  0  0  0  0  0  0  0  0
    0.9732   -2.3488   -1.9399 C   0  0  0  0  0  0  0  0  0  0  0  0
    2.4797   -2.0871   -0.0660 O   0  0  0  0  0  0  0  0  0  0  0  0
    0.2171    4.4337   -4.2128 C   0  0  0  0  0  0  0  0  0  0  0  0
   -4.0909    3.1476   -0.6390 C   0  0  0  0  0  0  0  0  0  0  0  0
   -3.6455    5.4412   -1.5134 C   0  0  0  0  0  0  0  0  0  0  0  0
   -3.9941    5.2399    0.8595 C   0  0  0  0  0  0  0  0  0  0  0  0
   -0.4540   -2.0187   -1.5330 C   0  0  0  0  0  0  0  0  0  0  0  0
   -4.3472    2.7162   -1.8900 C   0  0  0  0  0  0  0  0  0  0  0  0
   -4.1209    5.0463   -2.7056 C   0  0  0  0  0  0  0  0  0  0  0  0
   -4.1039    3.6127   -3.0287 C   0  0  0  0  0  0  0  0  0  0  0  0
   -3.9010    3.2025   -4.1619 O   0  0  0  0  0  0  0  0  0  0  0  0
    0.4730   -0.0985    0.4491 H   0  0  0  0  0  0  0  0  0  0  0  0
    1.7115    0.0659    1.7065 H   0  0  0  0  0  0  0  0  0  0  0  0
   -0.6417    1.9150    0.1997 H   0  0  0  0  0  0  0  0  0  0  0  0
    1.3440    5.2242    0.5717 H   0  0  0  0  0  0  0  0  0  0  0  0
    0.9224    4.3388   -0.8424 H   0  0  0  0  0  0  0  0  0  0  0  0
    0.7091    3.8462    3.0599 H   0  0  0  0  0  0  0  0  0  0  0  0
    2.0293    2.6879    2.8451 H   0  0  0  0  0  0  0  0  0  0  0  0
    2.2090    4.3327    2.2863 H   0  0  0  0  0  0  0  0  0  0  0  0
   -0.9209    0.4557    2.1971 H   0  0  0  0  0  0  0  0  0  0  0  0
    0.2645    1.4452    3.0171 H   0  0  0  0  0  0  0  0  0  0  0  0
    3.8388    0.9063   -1.7901 H   0  0  0  0  0  0  0  0  0  0  0  0
    4.1234   -0.3271   -0.5763 H   0  0  0  0  0  0  0  0  0  0  0  0
   -2.1114    3.4499    2.1237 H   0  0  0  0  0  0  0  0  0  0  0  0
   -0.8211    5.8525   -0.5630 H   0  0  0  0  0  0  0  0  0  0  0  0
   -1.5554    3.5274   -0.9419 H   0  0  0  0  0  0  0  0  0  0  0  0
   -2.4406    1.1921    0.0460 H   0  0  0  0  0  0  0  0  0  0  0  0
   -2.8690    1.1149    1.7403 H   0  0  0  0  0  0  0  0  0  0  0  0
   -0.8729    5.1875    2.1956 H   0  0  0  0  0  0  0  0  0  0  0  0
    1.1362    2.5769   -4.8856 H   0  0  0  0  0  0  0  0  0  0  0  0
   -0.6222    2.5741   -4.8520 H   0  0  0  0  0  0  0  0  0  0  0  0
   -4.7812    1.2946    0.2081 H   0  0  0  0  0  0  0  0  0  0  0  0
   -4.7633    2.6382    1.3440 H   0  0  0  0  0  0  0  0  0  0  0  0
    1.1406   -2.1151   -2.9967 H   0  0  0  0  0  0  0  0  0  0  0  0
    1.1455   -3.4259   -1.8377 H   0  0  0  0  0  0  0  0  0  0  0  0
    1.2223    4.8502   -4.0995 H   0  0  0  0  0  0  0  0  0  0  0  0
   -0.2156    4.8585   -5.1274 H   0  0  0  0  0  0  0  0  0  0  0  0
   -0.3810    4.7478   -3.3605 H   0  0  0  0  0  0  0  0  0  0  0  0
   -3.6528    6.5075   -1.3091 H   0  0  0  0  0  0  0  0  0  0  0  0
   -3.8901    4.7083    1.8067 H   0  0  0  0  0  0  0  0  0  0  0  0
   -3.5138    6.2188    0.9908 H   0  0  0  0  0  0  0  0  0  0  0  0
   -5.0626    5.4261    0.7009 H   0  0  0  0  0  0  0  0  0  0  0  0
   -0.6717   -0.9571   -1.7029 H   0  0  0  0  0  0  0  0  0  0  0  0
   -1.1664   -2.6048   -2.1161 H   0  0  0  0  0  0  0  0  0  0  0  0
   -0.6217   -2.2284   -0.4744 H   0  0  0  0  0  0  0  0  0  0  0  0
   -4.6610    1.7071   -2.1302 H   0  0  0  0  0  0  0  0  0  0  0  0
   -4.5246    5.7161   -3.4546 H   0  0  0  0  0  0  0  0  0  0  0  0
  1  2  1  0  0  0  0
  1  3  1  0  0  0  0
  1  5  1  6  0  0  0
  1  4  1  0  0  0  0
  2  6  1  0  0  0  0
  2  7  1  0  0  0  0
  2  8  1  1  0  0  0
  3  9  1  0  0  0  0
  3 36  1  0  0  0  0
  3 37  1  0  0  0  0
  4 10  1  0  0  0  0
  4 11  2  0  0  0  0
  5 12  1  0  0  0  0
  6 13  1  0  0  0  0
  6  9  1  0  0  0  0
  6 38  1  6  0  0  0
  7 14  1  0  0  0  0
  7 39  1  0  0  0  0
  7 40  1  0  0  0  0
  8 41  1  0  0  0  0
  8 42  1  0  0  0  0
  8 43  1  0  0  0  0
  9 44  1  0  0  0  0
  9 45  1  0  0  0  0
 10 15  1  0  0  0  0
 10 46  1  0  0  0  0
 10 47  1  0  0  0  0
 12 16  1  0  0  0  0
 12 17  2  0  0  0  0
 13 18  1  0  0  0  0
 13 19  1  0  0  0  0
 13 48  1  1  0  0  0
 14 20  1  0  0  0  0
 14 49  1  6  0  0  0
 15 21  1  0  0  0  0
 16 22  1  0  0  0  0
 18 14  1  0  0  0  0
 18 23  1  0  0  0  0
 18 50  1  0  0  0  0
 19 24  1  0  0  0  0
 19 51  1  0  0  0  0
 19 52  1  0  0  0  0
 20 53  1  0  0  0  0
 21 25  1  0  0  0  0
 21 26  2  0  0  0  0
 22 27  1  0  0  0  0
 22 54  1  0  0  0  0
 22 55  1  0  0  0  0
 23 28  1  0  0  0  0
 23 29  1  0  0  0  0
 23 30  1  0  0  0  0
 24 28  1  0  0  0  0
 24 56  1  0  0  0  0
 24 57  1  0  0  0  0
 25 31  1  0  0  0  0
 25 58  1  0  0  0  0
 25 59  1  0  0  0  0
 27 60  1  0  0  0  0
 27 61  1  0  0  0  0
 27 62  1  0  0  0  0
 28 32  2  0  0  0  0
 29 33  2  0  0  0  0
 29 63  1  0  0  0  0
 30 64  1  0  0  0  0
 30 65  1  0  0  0  0
 30 66  1  0  0  0  0
 31 67  1  0  0  0  0
 31 68  1  0  0  0  0
 31 69  1  0  0  0  0
 32 34  1  0  0  0  0
 32 70  1  0  0  0  0
 33 34  1  0  0  0  0
 33 71  1  0  0  0  0
 34 35  2  0  0  0  0
M  END
>  <Mol_ID>
6302

>  <Formula>
C27H36O8

>  <MolWeight>
488.56994

>  <Cat>
E0530

>  <Name>
Prednicarbate

>  <Synonyms>
Dermatop

>  <Target>
Others

>  <Form>
free base

>  <CAS>
73771-04-7

>  <URL>
http://www.selleckchem.com/products/prednicarbate.html

$$$$
