Prednisolone disodium phosphate
 OpenBabel08302521453D

 57 60  0  0  0  0  0  0  0  0999 V2000
    2.3726   -0.1413   -1.4583 P   0  0  0  0  0  0  0  0  0  0  0  0
   -1.4265   -0.2285    0.5186 O   0  0  0  0  0  0  0  0  0  0  0  0
   -0.0868    0.6248    5.8263 O   0  0  0  0  0  0  0  0  0  0  0  0
   -0.2043    3.2255    0.7552 O   0  0  0  0  0  0  0  0  0  0  0  0
    1.0043    0.2772   -0.6574 O   0  0  0  0  0  0  0  0  0  0  0  0
    3.8776    6.7581    5.4047 O   0  0  0  0  0  0  0  0  0  0  0  0
    1.9597   -1.4111   -2.1754 O   0  5  0  0  0  0  0  0  0  0  0  0
    3.3675   -0.3301   -0.3303 O   0  5  0  0  0  0  0  0  0  0  0  0
    2.6419    1.0548   -2.3628 O   0  0  0  0  0  0  0  0  0  0  0  0
   -1.1317    0.7282    2.8163 C   0  0  1  0  0  0  0  0  0  0  0  0
   -1.6578    2.1139    3.2223 C   0  0  2  0  0  0  0  0  0  0  0  0
   -1.1744    2.9255    4.4222 C   0  0  1  0  0  0  0  0  0  0  0  0
    0.3675    2.6634    4.5108 C   0  0  3  0  0  0  0  0  0  0  0  0
   -1.2367    0.9840    1.2164 C   0  0  3  0  0  0  0  0  0  0  0  0
    0.2605    0.3932    3.3957 C   0  0  0  0  0  0  0  0  0  0  0  0
   -3.0245    2.1917    2.5563 C   0  0  0  0  0  0  0  0  0  0  0  0
    0.6158    1.1436    4.6961 C   0  0  3  0  0  0  0  0  0  0  0  0
    1.1344    3.6272    5.4681 C   0  0  3  0  0  0  0  0  0  0  0  0
   -2.6210    1.8084    1.1179 C   0  0  0  0  0  0  0  0  0  0  0  0
   -1.4279    4.4156    4.0731 C   0  0  0  0  0  0  0  0  0  0  0  0
   -2.0853   -0.4147    3.3071 C   0  0  0  0  0  0  0  0  0  0  0  0
   -0.7165    5.4091    4.9614 C   0  0  0  0  0  0  0  0  0  0  0  0
    0.7359    5.0857    5.1714 C   0  0  0  0  0  0  0  0  0  0  0  0
   -0.1035    1.9878    0.6412 C   0  0  0  0  0  0  0  0  0  0  0  0
    0.8413    3.3455    6.9480 C   0  0  0  0  0  0  0  0  0  0  0  0
    2.6415    3.4411    5.2587 C   0  0  0  0  0  0  0  0  0  0  0  0
    1.6411    6.0817    5.0720 C   0  0  0  0  0  0  0  0  0  0  0  0
    1.1823    1.4443    0.0794 C   0  0  0  0  0  0  0  0  0  0  0  0
    3.5322    4.4380    5.1593 C   0  0  0  0  0  0  0  0  0  0  0  0
    3.0890    5.8378    5.2332 C   0  0  0  0  0  0  0  0  0  0  0  0
   -0.6446   -0.3521   -0.0769 H   0  0  0  0  0  0  0  0  0  0  0  0
   -1.0391    0.6851    5.6573 H   0  0  0  0  0  0  0  0  0  0  0  0
   -1.1143    2.7626    2.5596 H   0  0  0  0  0  0  0  0  0  0  0  0
   -1.7000    2.6623    5.3434 H   0  0  0  0  0  0  0  0  0  0  0  0
    0.7885    2.8957    3.5172 H   0  0  0  0  0  0  0  0  0  0  0  0
    0.3593   -0.6854    3.5835 H   0  0  0  0  0  0  0  0  0  0  0  0
    1.0336    0.6164    2.6629 H   0  0  0  0  0  0  0  0  0  0  0  0
   -3.5009    3.1800    2.6095 H   0  0  0  0  0  0  0  0  0  0  0  0
   -3.7400    1.4797    2.9701 H   0  0  0  0  0  0  0  0  0  0  0  0
    1.6679    0.9290    4.8929 H   0  0  0  0  0  0  0  0  0  0  0  0
   -2.4689    2.7512    0.5759 H   0  0  0  0  0  0  0  0  0  0  0  0
   -3.4109    1.2751    0.5851 H   0  0  0  0  0  0  0  0  0  0  0  0
   -1.0900    4.6266    3.0459 H   0  0  0  0  0  0  0  0  0  0  0  0
   -2.5043    4.6216    4.0696 H   0  0  0  0  0  0  0  0  0  0  0  0
   -2.4316   -0.2250    4.3304 H   0  0  0  0  0  0  0  0  0  0  0  0
   -2.9727   -0.5408    2.6792 H   0  0  0  0  0  0  0  0  0  0  0  0
   -1.5938   -1.3959    3.3162 H   0  0  0  0  0  0  0  0  0  0  0  0
   -0.8197    6.3893    4.4724 H   0  0  0  0  0  0  0  0  0  0  0  0
   -1.2287    5.4770    5.9232 H   0  0  0  0  0  0  0  0  0  0  0  0
   -0.2318    3.3596    7.1622 H   0  0  0  0  0  0  0  0  0  0  0  0
    1.2383    2.3749    7.2635 H   0  0  0  0  0  0  0  0  0  0  0  0
    1.3115    4.1019    7.5898 H   0  0  0  0  0  0  0  0  0  0  0  0
    3.0360    2.4314    5.1842 H   0  0  0  0  0  0  0  0  0  0  0  0
    1.3680    7.1109    4.8831 H   0  0  0  0  0  0  0  0  0  0  0  0
    1.8923    1.2903    0.8968 H   0  0  0  0  0  0  0  0  0  0  0  0
    1.5853    2.2447   -0.5570 H   0  0  0  0  0  0  0  0  0  0  0  0
    4.5915    4.2600    5.0246 H   0  0  0  0  0  0  0  0  0  0  0  0
  1  5  1  0  0  0  0
  1  7  1  0  0  0  0
  1  8  1  0  0  0  0
  1  9  2  0  0  0  0
  2 31  1  0  0  0  0
  3 32  1  0  0  0  0
  4 24  2  0  0  0  0
  5 28  1  0  0  0  0
  6 30  2  0  0  0  0
 10 11  1  0  0  0  0
 10 14  1  0  0  0  0
 10 15  1  0  0  0  0
 10 21  1  1  0  0  0
 11 12  1  0  0  0  0
 11 16  1  0  0  0  0
 11 33  1  6  0  0  0
 12 13  1  0  0  0  0
 12 20  1  0  0  0  0
 12 34  1  1  0  0  0
 13 17  1  0  0  0  0
 13 18  1  0  0  0  0
 13 35  1  0  0  0  0
 14  2  1  0  0  0  0
 14 19  1  0  0  0  0
 14 24  1  0  0  0  0
 15 17  1  0  0  0  0
 15 36  1  0  0  0  0
 15 37  1  0  0  0  0
 16 19  1  0  0  0  0
 16 38  1  0  0  0  0
 16 39  1  0  0  0  0
 17  3  1  0  0  0  0
 17 40  1  0  0  0  0
 18 23  1  0  0  0  0
 18 25  1  0  0  0  0
 18 26  1  0  0  0  0
 19 41  1  0  0  0  0
 19 42  1  0  0  0  0
 20 22  1  0  0  0  0
 20 43  1  0  0  0  0
 20 44  1  0  0  0  0
 21 45  1  0  0  0  0
 21 46  1  0  0  0  0
 21 47  1  0  0  0  0
 22 23  1  0  0  0  0
 22 48  1  0  0  0  0
 22 49  1  0  0  0  0
 23 27  2  0  0  0  0
 24 28  1  0  0  0  0
 25 50  1  0  0  0  0
 25 51  1  0  0  0  0
 25 52  1  0  0  0  0
 26 29  2  0  0  0  0
 26 53  1  0  0  0  0
 27 30  1  0  0  0  0
 27 54  1  0  0  0  0
 28 55  1  0  0  0  0
 28 56  1  0  0  0  0
 29 30  1  0  0  0  0
 29 57  1  0  0  0  0
M  CHG  2   7  -1   8  -1
M  END
>  <Mol_ID>
9443

>  <Formula>
C21H27Na2O8P

>  <MolWeight>
484.387581

>  <Cat>
S5961

>  <Name>
Prednisolone disodium phosphate

>  <Synonyms>
Hydeltrasol, Prednisolone 21-phosphate disodium

>  <Target>
Anti-infection

>  <Form>
Phosphate

>  <CAS>
125-02-0

>  <URL>
http://www.selleckchem.com/products/prednisolone-disodium-phosphate.html

$$$$
