Pregnenolone.cdx
 OpenBabel08302520403D

 55 58  0  0  0  0  0  0  0  0999 V2000
    3.6962   -1.2807   -0.3907 C   0  0  0  0  0  0  0  0  0  0  0  0
    4.1905    0.1626   -0.4524 C   0  0  1  0  0  0  0  0  0  0  0  0
    3.3684    1.0803    0.4540 C   0  0  0  0  0  0  0  0  0  0  0  0
    1.8803    0.9463    0.2064 C   0  0  0  0  0  0  0  0  0  0  0  0
    1.3075   -0.4816    0.2033 C   0  0  2  0  0  0  0  0  0  0  0  0
    2.2033   -1.3718   -0.7068 C   0  0  0  0  0  0  0  0  0  0  0  0
    1.1321    2.0386   -0.0039 C   0  0  0  0  0  0  0  0  0  0  0  0
   -0.3492    2.0240   -0.2178 C   0  0  0  0  0  0  0  0  0  0  0  0
   -0.9954    0.6894    0.1765 C   0  0  2  0  0  0  0  0  0  0  0  0
   -0.1634   -0.5015   -0.3767 C   0  0  2  0  0  0  0  0  0  0  0  0
   -2.4282    0.5947   -0.3529 C   0  0  1  0  0  0  0  0  0  0  0  0
   -3.1396   -0.7147    0.0554 C   0  0  2  0  0  0  0  0  0  0  0  0
   -2.3740   -1.8541   -0.6373 C   0  0  0  0  0  0  0  0  0  0  0  0
   -0.8885   -1.8715   -0.2325 C   0  0  0  0  0  0  0  0  0  0  0  0
   -3.4062    1.6902    0.0433 C   0  0  0  0  0  0  0  0  0  0  0  0
   -4.7827    1.0668   -0.2173 C   0  0  0  0  0  0  0  0  0  0  0  0
   -4.5499   -0.4326   -0.5204 C   0  0  2  0  0  0  0  0  0  0  0  0
    5.5637    0.2049   -0.0684 O   0  0  0  0  0  0  0  0  0  0  0  0
    1.3437   -1.0151    1.6558 C   0  0  0  0  0  0  0  0  0  0  0  0
   -3.1724   -0.9362    1.5906 C   0  0  0  0  0  0  0  0  0  0  0  0
   -5.6955   -1.3142   -0.0301 C   0  0  0  0  0  0  0  0  0  0  0  0
   -6.4233   -0.9996    0.9182 O   0  0  0  0  0  0  0  0  0  0  0  0
   -5.8905   -2.6363   -0.7283 C   0  0  0  0  0  0  0  0  0  0  0  0
    4.2646   -1.8919   -1.1026 H   0  0  0  0  0  0  0  0  0  0  0  0
    3.9085   -1.7140    0.5941 H   0  0  0  0  0  0  0  0  0  0  0  0
    4.1325    0.5230   -1.4862 H   0  0  0  0  0  0  0  0  0  0  0  0
    3.5838    0.8578    1.5067 H   0  0  0  0  0  0  0  0  0  0  0  0
    3.7091    2.1138    0.3113 H   0  0  0  0  0  0  0  0  0  0  0  0
    2.0632   -1.0797   -1.7562 H   0  0  0  0  0  0  0  0  0  0  0  0
    1.8982   -2.4223   -0.6344 H   0  0  0  0  0  0  0  0  0  0  0  0
    1.5960    3.0250   -0.0148 H   0  0  0  0  0  0  0  0  0  0  0  0
   -0.7959    2.8300    0.3789 H   0  0  0  0  0  0  0  0  0  0  0  0
   -0.5482    2.2599   -1.2699 H   0  0  0  0  0  0  0  0  0  0  0  0
   -1.0100    0.6483    1.2713 H   0  0  0  0  0  0  0  0  0  0  0  0
   -0.0841   -0.3308   -1.4626 H   0  0  0  0  0  0  0  0  0  0  0  0
   -2.3648    0.6257   -1.4535 H   0  0  0  0  0  0  0  0  0  0  0  0
   -2.4346   -1.7409   -1.7273 H   0  0  0  0  0  0  0  0  0  0  0  0
   -2.8255   -2.8239   -0.4029 H   0  0  0  0  0  0  0  0  0  0  0  0
   -0.3770   -2.6216   -0.8470 H   0  0  0  0  0  0  0  0  0  0  0  0
   -0.8309   -2.2355    0.7965 H   0  0  0  0  0  0  0  0  0  0  0  0
   -3.2995    1.9652    1.0987 H   0  0  0  0  0  0  0  0  0  0  0  0
   -3.2626    2.5994   -0.5507 H   0  0  0  0  0  0  0  0  0  0  0  0
   -5.4273    1.2302    0.6528 H   0  0  0  0  0  0  0  0  0  0  0  0
   -5.2674    1.5502   -1.0740 H   0  0  0  0  0  0  0  0  0  0  0  0
   -4.5188   -0.5505   -1.6158 H   0  0  0  0  0  0  0  0  0  0  0  0
    5.6271   -0.1213    0.8462 H   0  0  0  0  0  0  0  0  0  0  0  0
    0.6774   -0.4457    2.3123 H   0  0  0  0  0  0  0  0  0  0  0  0
    1.0544   -2.0686    1.7102 H   0  0  0  0  0  0  0  0  0  0  0  0
    2.3440   -0.9587    2.0981 H   0  0  0  0  0  0  0  0  0  0  0  0
   -3.6919   -0.1273    2.1144 H   0  0  0  0  0  0  0  0  0  0  0  0
   -3.6745   -1.8744    1.8478 H   0  0  0  0  0  0  0  0  0  0  0  0
   -2.1721   -0.9993    2.0301 H   0  0  0  0  0  0  0  0  0  0  0  0
   -5.9719   -2.5006   -1.8112 H   0  0  0  0  0  0  0  0  0  0  0  0
   -5.0449   -3.2805   -0.4914 H   0  0  0  0  0  0  0  0  0  0  0  0
   -6.8098   -3.1105   -0.3749 H   0  0  0  0  0  0  0  0  0  0  0  0
  1  2  1  0  0  0  0
  1 24  1  0  0  0  0
  1 25  1  0  0  0  0
  2  3  1  0  0  0  0
  2 18  1  0  0  0  0
  2 26  1  6  0  0  0
  3  4  1  0  0  0  0
  3 27  1  0  0  0  0
  3 28  1  0  0  0  0
  4  5  1  0  0  0  0
  4  7  2  0  0  0  0
  5  6  1  0  0  0  0
  5 19  1  1  0  0  0
  6  1  1  0  0  0  0
  6 29  1  0  0  0  0
  6 30  1  0  0  0  0
  7  8  1  0  0  0  0
  7 31  1  0  0  0  0
  8 32  1  0  0  0  0
  8 33  1  0  0  0  0
  9  8  1  0  0  0  0
  9 10  1  0  0  0  0
  9 11  1  0  0  0  0
  9 34  1  1  0  0  0
 10  5  1  0  0  0  0
 10 14  1  0  0  0  0
 10 35  1  6  0  0  0
 11 12  1  0  0  0  0
 11 15  1  0  0  0  0
 11 36  1  6  0  0  0
 12 13  1  0  0  0  0
 12 20  1  1  0  0  0
 13 14  1  0  0  0  0
 13 37  1  0  0  0  0
 13 38  1  0  0  0  0
 14 39  1  0  0  0  0
 14 40  1  0  0  0  0
 15 16  1  0  0  0  0
 15 41  1  0  0  0  0
 15 42  1  0  0  0  0
 16 17  1  0  0  0  0
 16 43  1  0  0  0  0
 16 44  1  0  0  0  0
 17 12  1  0  0  0  0
 17 45  1  6  0  0  0
 17 21  1  0  0  0  0
 18 46  1  0  0  0  0
 19 47  1  0  0  0  0
 19 48  1  0  0  0  0
 19 49  1  0  0  0  0
 20 50  1  0  0  0  0
 20 51  1  0  0  0  0
 20 52  1  0  0  0  0
 21 22  2  0  0  0  0
 21 23  1  0  0  0  0
 23 53  1  0  0  0  0
 23 54  1  0  0  0  0
 23 55  1  0  0  0  0
M  END
>  <Mol_ID>
384

>  <Formula>
C21H32O2

>  <MolWeight>
316.47758

>  <Cat>
S1914

>  <Name>
Pregnenolone

>  <Synonyms>
3¦Â-Hydroxy-5-pregnen-20-one

>  <Target>
Estrogen/progestogen Receptor

>  <Form>
free base

>  <CAS>
145-13-1

>  <URL>
http://selleckchem.com/products/pregnenolone.html

$$$$
