PRGL493
 OpenBabel08302521353D

 55 60  0  0  0  0  0  0  0  0999 V2000
    1.3593   -0.0839    0.8192 N   0  0  0  0  0  0  0  0  0  0  0  0
    2.7170    0.1126    0.7562 C   0  0  0  0  0  0  0  0  0  0  0  0
    3.6259   -0.3961    1.8348 C   0  0  0  0  0  0  0  0  0  0  0  0
    3.1787    0.7280   -0.2105 O   0  0  0  0  0  0  0  0  0  0  0  0
    0.9468    0.6508    8.2354 C   0  0  0  0  0  0  0  0  0  0  0  0
   -1.5164   -1.7314    3.1265 N   0  0  0  0  0  0  0  0  0  0  0  0
   -0.2031   -1.7102    3.7192 C   0  0  3  0  0  0  0  0  0  0  0  0
   -2.7288   -2.2167    3.5856 C   0  0  0  0  0  0  0  0  0  0  0  0
   -1.7089   -1.0646    1.9406 C   0  0  0  0  0  0  0  0  0  0  0  0
    0.8415   -1.1666    2.8262 N   0  0  0  0  0  0  0  0  0  0  0  0
   -3.7019   -1.8616    2.6178 C   0  0  0  0  0  0  0  0  0  0  0  0
   -3.0949   -2.9277    4.7040 C   0  0  0  0  0  0  0  0  0  0  0  0
   -3.0568   -1.1018    1.6425 N   0  0  0  0  0  0  0  0  0  0  0  0
   -0.7886   -0.5263    1.2319 N   0  0  0  0  0  0  0  0  0  0  0  0
    0.4783   -0.6386    1.7180 C   0  0  0  0  0  0  0  0  0  0  0  0
   -5.0346   -2.1676    2.7516 C   0  0  0  0  0  0  0  0  0  0  0  0
   -4.4475   -3.2731    4.8439 C   0  0  0  0  0  0  0  0  0  0  0  0
   -5.4061   -2.8964    3.8809 C   0  0  0  0  0  0  0  0  0  0  0  0
    0.2991   -3.0479    4.2001 C   0  0  0  0  0  0  0  0  0  0  0  0
    0.7950   -3.4490    5.4688 C   0  0  0  0  0  0  0  0  0  0  0  0
    0.3373   -4.2144    3.4561 C   0  0  0  0  0  0  0  0  0  0  0  0
    1.0403   -4.7683    5.5203 N   0  0  0  0  0  0  0  0  0  0  0  0
    0.7471   -5.2313    4.2803 N   0  0  0  0  0  0  0  0  0  0  0  0
    1.0234   -2.5719    6.6672 C   0  0  0  0  0  0  0  0  0  0  0  0
    0.7900   -1.2233    6.7176 O   0  0  0  0  0  0  0  0  0  0  0  0
    1.5113   -2.9870    7.8924 C   0  0  0  0  0  0  0  0  0  0  0  0
    1.1298   -0.7895    7.9645 C   0  0  0  0  0  0  0  0  0  0  0  0
    1.5855   -1.8434    8.7238 C   0  0  0  0  0  0  0  0  0  0  0  0
    0.8166   -6.6175    3.9539 C   0  0  0  0  0  0  0  0  0  0  0  0
    0.5815   -7.0501    2.6390 C   0  0  0  0  0  0  0  0  0  0  0  0
    1.0821   -7.5689    4.9501 C   0  0  0  0  0  0  0  0  0  0  0  0
    0.5771   -8.4120    2.3317 C   0  0  0  0  0  0  0  0  0  0  0  0
    1.0704   -8.9336    4.6341 C   0  0  0  0  0  0  0  0  0  0  0  0
    0.8097   -9.3533    3.3298 C   0  0  0  0  0  0  0  0  0  0  0  0
    0.8790    0.3056    0.0208 H   0  0  0  0  0  0  0  0  0  0  0  0
    4.3931   -1.0214    1.3682 H   0  0  0  0  0  0  0  0  0  0  0  0
    4.1036    0.4602    2.3189 H   0  0  0  0  0  0  0  0  0  0  0  0
    3.1331   -0.9940    2.5944 H   0  0  0  0  0  0  0  0  0  0  0  0
    1.6071    1.2500    7.6005 H   0  0  0  0  0  0  0  0  0  0  0  0
   -0.0875    0.9495    8.0400 H   0  0  0  0  0  0  0  0  0  0  0  0
    1.1751    0.8863    9.2801 H   0  0  0  0  0  0  0  0  0  0  0  0
   -0.2548   -1.0243    4.5692 H   0  0  0  0  0  0  0  0  0  0  0  0
   -2.3768   -3.2277    5.4582 H   0  0  0  0  0  0  0  0  0  0  0  0
   -3.4347   -0.8675    0.7427 H   0  0  0  0  0  0  0  0  0  0  0  0
   -5.7676   -1.8583    2.0157 H   0  0  0  0  0  0  0  0  0  0  0  0
   -4.7686   -3.8427    5.7146 H   0  0  0  0  0  0  0  0  0  0  0  0
   -6.4489   -3.1718    4.0237 H   0  0  0  0  0  0  0  0  0  0  0  0
    0.0453   -4.3750    2.4319 H   0  0  0  0  0  0  0  0  0  0  0  0
    1.7874   -4.0019    8.1497 H   0  0  0  0  0  0  0  0  0  0  0  0
    1.9274   -1.7922    9.7489 H   0  0  0  0  0  0  0  0  0  0  0  0
    0.4023   -6.3550    1.8254 H   0  0  0  0  0  0  0  0  0  0  0  0
    1.2771   -7.2697    5.9769 H   0  0  0  0  0  0  0  0  0  0  0  0
    0.3858   -8.7343    1.3110 H   0  0  0  0  0  0  0  0  0  0  0  0
    1.2557   -9.6730    5.4099 H   0  0  0  0  0  0  0  0  0  0  0  0
    0.7890  -10.4133    3.0891 H   0  0  0  0  0  0  0  0  0  0  0  0
  1  2  1  0  0  0  0
  1 15  1  0  0  0  0
  1 35  1  0  0  0  0
  2  3  1  0  0  0  0
  2  4  2  0  0  0  0
  3 36  1  0  0  0  0
  3 37  1  0  0  0  0
  3 38  1  0  0  0  0
  5 27  1  0  0  0  0
  5 39  1  0  0  0  0
  5 40  1  0  0  0  0
  5 41  1  0  0  0  0
  6  7  1  0  0  0  0
  6  8  1  0  0  0  0
  6  9  1  0  0  0  0
  7 10  1  0  0  0  0
  7 19  1  0  0  0  0
  7 42  1  0  0  0  0
  8 11  2  0  0  0  0
  8 12  1  0  0  0  0
  9 13  1  0  0  0  0
  9 14  2  0  0  0  0
 10 15  2  0  0  0  0
 11 13  1  0  0  0  0
 11 16  1  0  0  0  0
 12 17  2  0  0  0  0
 12 43  1  0  0  0  0
 13 44  1  0  0  0  0
 14 15  1  0  0  0  0
 16 18  2  0  0  0  0
 16 45  1  0  0  0  0
 17 18  1  0  0  0  0
 17 46  1  0  0  0  0
 18 47  1  0  0  0  0
 19 20  1  0  0  0  0
 19 21  2  0  0  0  0
 20 22  2  0  0  0  0
 20 24  1  0  0  0  0
 21 23  1  0  0  0  0
 21 48  1  0  0  0  0
 22 23  1  0  0  0  0
 23 29  1  0  0  0  0
 24 25  1  0  0  0  0
 24 26  2  0  0  0  0
 25 27  1  0  0  0  0
 26 28  1  0  0  0  0
 26 49  1  0  0  0  0
 27 28  2  0  0  0  0
 28 50  1  0  0  0  0
 29 30  2  0  0  0  0
 29 31  1  0  0  0  0
 30 32  1  0  0  0  0
 30 51  1  0  0  0  0
 31 33  2  0  0  0  0
 31 52  1  0  0  0  0
 32 34  2  0  0  0  0
 32 53  1  0  0  0  0
 33 34  1  0  0  0  0
 33 54  1  0  0  0  0
 34 55  1  0  0  0  0
M  END
>  <Mol_ID>
6948

>  <Formula>
C25H21N7O2

>  <MolWeight>
451.47994

>  <Cat>
E1538

>  <Name>
PRGL493

>  <Target>
Others

>  <Form>
free base

>  <CAS>
2479378-45-3

>  <URL>
https://www.selleckchem.com/products/prgl493.html

$$$$
