Pridopidine
 OpenBabel08302521353D

 42 43  0  0  0  0  0  0  0  0999 V2000
    5.7918    2.7557   -0.9540 S   0  0  0  0  0  0  0  0  0  0  0  0
    4.4468    3.3772   -1.9214 C   0  0  0  0  0  0  0  0  0  0  0  0
    6.1915    3.7964   -0.0215 O   0  0  0  0  0  0  0  0  0  0  0  0
    6.7645    2.1745   -1.8708 O   0  0  0  0  0  0  0  0  0  0  0  0
    1.6879   -4.7536    0.0250 C   0  0  0  0  0  0  0  0  0  0  0  0
    0.9110   -5.4347   -1.1075 C   0  0  0  0  0  0  0  0  0  0  0  0
    1.5423   -6.7363   -1.5770 C   0  0  0  0  0  0  0  0  0  0  0  0
    4.9146   -1.0092    0.3363 C   0  0  0  0  0  0  0  0  0  0  0  0
    5.2078    0.0983   -0.4876 C   0  0  0  0  0  0  0  0  0  0  0  0
    4.4489   -0.7413    1.6345 C   0  0  0  0  0  0  0  0  0  0  0  0
    5.1007    1.4125   -0.0035 C   0  0  0  0  0  0  0  0  0  0  0  0
    4.3092    0.5738    2.1040 C   0  0  0  0  0  0  0  0  0  0  0  0
    4.6539    1.6527    1.2941 C   0  0  0  0  0  0  0  0  0  0  0  0
    5.3095   -2.4100   -0.1478 C   0  0  0  0  0  0  0  0  0  0  0  0
    4.6432   -2.8578   -1.4577 C   0  0  0  0  0  0  0  0  0  0  0  0
    5.1950   -3.5728    0.8503 C   0  0  0  0  0  0  0  0  0  0  0  0
    3.2103   -3.3542   -1.2543 C   0  0  0  0  0  0  0  0  0  0  0  0
    3.7647   -4.0876    1.0103 C   0  0  0  0  0  0  0  0  0  0  0  0
    3.1032   -4.4320   -0.2590 N   0  0  0  0  0  0  0  0  0  0  0  0
    3.7250    3.8686   -1.2667 H   0  0  0  0  0  0  0  0  0  0  0  0
    4.8566    4.1035   -2.6295 H   0  0  0  0  0  0  0  0  0  0  0  0
    3.9818    2.5569   -2.4722 H   0  0  0  0  0  0  0  0  0  0  0  0
    1.6415   -5.4293    0.8896 H   0  0  0  0  0  0  0  0  0  0  0  0
    1.1468   -3.8442    0.3218 H   0  0  0  0  0  0  0  0  0  0  0  0
   -0.0957   -5.6552   -0.7298 H   0  0  0  0  0  0  0  0  0  0  0  0
    0.7763   -4.7583   -1.9587 H   0  0  0  0  0  0  0  0  0  0  0  0
    1.9861   -7.2944   -0.7467 H   0  0  0  0  0  0  0  0  0  0  0  0
    0.7842   -7.3739   -2.0441 H   0  0  0  0  0  0  0  0  0  0  0  0
    2.3208   -6.5437   -2.3212 H   0  0  0  0  0  0  0  0  0  0  0  0
    5.6105   -0.0689   -1.4855 H   0  0  0  0  0  0  0  0  0  0  0  0
    4.2393   -1.5423    2.3382 H   0  0  0  0  0  0  0  0  0  0  0  0
    3.9927    0.7464    3.1307 H   0  0  0  0  0  0  0  0  0  0  0  0
    4.6267    2.6611    1.7028 H   0  0  0  0  0  0  0  0  0  0  0  0
    6.3867   -2.3121   -0.3527 H   0  0  0  0  0  0  0  0  0  0  0  0
    4.6510   -2.0626   -2.2106 H   0  0  0  0  0  0  0  0  0  0  0  0
    5.2390   -3.6792   -1.8818 H   0  0  0  0  0  0  0  0  0  0  0  0
    5.8171   -4.4019    0.4835 H   0  0  0  0  0  0  0  0  0  0  0  0
    5.6107   -3.3032    1.8277 H   0  0  0  0  0  0  0  0  0  0  0  0
    2.5711   -2.5052   -0.9884 H   0  0  0  0  0  0  0  0  0  0  0  0
    2.8635   -3.7336   -2.2238 H   0  0  0  0  0  0  0  0  0  0  0  0
    3.8143   -4.9934    1.6311 H   0  0  0  0  0  0  0  0  0  0  0  0
    3.1678   -3.3588    1.5673 H   0  0  0  0  0  0  0  0  0  0  0  0
  1  2  1  0  0  0  0
  1  3  2  0  0  0  0
  1  4  2  0  0  0  0
  1 11  1  0  0  0  0
  2 20  1  0  0  0  0
  2 21  1  0  0  0  0
  2 22  1  0  0  0  0
  5  6  1  0  0  0  0
  5 19  1  0  0  0  0
  5 23  1  0  0  0  0
  5 24  1  0  0  0  0
  6  7  1  0  0  0  0
  6 25  1  0  0  0  0
  6 26  1  0  0  0  0
  7 27  1  0  0  0  0
  7 28  1  0  0  0  0
  7 29  1  0  0  0  0
  8  9  2  0  0  0  0
  8 10  1  0  0  0  0
  8 14  1  0  0  0  0
  9 11  1  0  0  0  0
  9 30  1  0  0  0  0
 10 12  2  0  0  0  0
 10 31  1  0  0  0  0
 11 13  2  0  0  0  0
 12 13  1  0  0  0  0
 12 32  1  0  0  0  0
 13 33  1  0  0  0  0
 14 15  1  0  0  0  0
 14 16  1  0  0  0  0
 14 34  1  0  0  0  0
 15 17  1  0  0  0  0
 15 35  1  0  0  0  0
 15 36  1  0  0  0  0
 16 18  1  0  0  0  0
 16 37  1  0  0  0  0
 16 38  1  0  0  0  0
 17 19  1  0  0  0  0
 17 39  1  0  0  0  0
 17 40  1  0  0  0  0
 18 19  1  0  0  0  0
 18 41  1  0  0  0  0
 18 42  1  0  0  0  0
M  END
>  <Mol_ID>
6912

>  <Formula>
C15H23NO2S

>  <MolWeight>
281.41362

>  <Cat>
E1258

>  <Name>
Pridopidine

>  <Synonyms>
ACR16, ASP2314, FR310826

>  <Target>
Dopamine Receptor

>  <Form>
Free base

>  <CAS>
346688-38-8

>  <URL>
https://www.selleckchem.com/products/pridopidine.html

$$$$
