Prilocaine.cdx
 OpenBabel08302520383D

 36 36  0  0  0  0  0  0  0  0999 V2000
    0.3414   -1.1736   -0.0501 C   0  0  0  0  0  0  0  0  0  0  0  0
   -1.0440   -1.3134   -0.0709 C   0  0  0  0  0  0  0  0  0  0  0  0
   -1.8371   -0.1796   -0.0729 C   0  0  0  0  0  0  0  0  0  0  0  0
   -1.2457    1.0858   -0.0544 C   0  0  0  0  0  0  0  0  0  0  0  0
    0.1485    1.2580   -0.0296 C   0  0  0  0  0  0  0  0  0  0  0  0
    0.9567    0.0999   -0.0296 C   0  0  0  0  0  0  0  0  0  0  0  0
    2.4637    0.0878   -0.0195 C   0  0  0  0  0  0  0  0  0  0  0  0
    0.7350    2.5545   -0.0115 N   0  0  0  0  0  0  0  0  0  0  0  0
    0.0677    3.7770    0.0012 C   0  0  0  0  0  0  0  0  0  0  0  0
    1.0108    5.0154    0.0034 C   0  0  3  0  0  0  0  0  0  0  0  0
   -1.1540    3.9190    0.0600 O   0  0  0  0  0  0  0  0  0  0  0  0
    1.8596    5.0038   -1.2112 N   0  0  0  0  0  0  0  0  0  0  0  0
    2.7977    6.1268   -1.2712 C   0  0  0  0  0  0  0  0  0  0  0  0
    0.1427    6.2797    0.0901 C   0  0  0  0  0  0  0  0  0  0  0  0
    3.6652    6.0214   -2.5273 C   0  0  0  0  0  0  0  0  0  0  0  0
    4.6236    7.1994   -2.6343 C   0  0  0  0  0  0  0  0  0  0  0  0
    0.9522   -2.0739   -0.0539 H   0  0  0  0  0  0  0  0  0  0  0  0
   -1.5001   -2.2996   -0.0891 H   0  0  0  0  0  0  0  0  0  0  0  0
   -2.9220   -0.2638   -0.0922 H   0  0  0  0  0  0  0  0  0  0  0  0
   -1.9298    1.9264   -0.0627 H   0  0  0  0  0  0  0  0  0  0  0  0
    2.8214   -0.4668    0.8550 H   0  0  0  0  0  0  0  0  0  0  0  0
    2.8326   -0.4094   -0.9233 H   0  0  0  0  0  0  0  0  0  0  0  0
    2.9191    1.0774    0.0171 H   0  0  0  0  0  0  0  0  0  0  0  0
    1.7392    2.6042    0.0076 H   0  0  0  0  0  0  0  0  0  0  0  0
    1.6369    4.9450    0.9017 H   0  0  0  0  0  0  0  0  0  0  0  0
    2.3717    4.1289   -1.2854 H   0  0  0  0  0  0  0  0  0  0  0  0
    2.2585    7.0783   -1.3166 H   0  0  0  0  0  0  0  0  0  0  0  0
    3.4375    6.1367   -0.3809 H   0  0  0  0  0  0  0  0  0  0  0  0
   -0.5237    6.2334    0.9594 H   0  0  0  0  0  0  0  0  0  0  0  0
    0.7367    7.1908    0.1981 H   0  0  0  0  0  0  0  0  0  0  0  0
   -0.4905    6.3842   -0.7997 H   0  0  0  0  0  0  0  0  0  0  0  0
    4.2411    5.0889   -2.5156 H   0  0  0  0  0  0  0  0  0  0  0  0
    3.0280    6.0010   -3.4200 H   0  0  0  0  0  0  0  0  0  0  0  0
    5.3148    7.2206   -1.7857 H   0  0  0  0  0  0  0  0  0  0  0  0
    5.2141    7.1266   -3.5528 H   0  0  0  0  0  0  0  0  0  0  0  0
    4.0791    8.1492   -2.6565 H   0  0  0  0  0  0  0  0  0  0  0  0
  1  2  2  0  0  0  0
  1 17  1  0  0  0  0
  2  3  1  0  0  0  0
  2 18  1  0  0  0  0
  3  4  2  0  0  0  0
  3 19  1  0  0  0  0
  4  5  1  0  0  0  0
  4 20  1  0  0  0  0
  5  6  2  0  0  0  0
  5  8  1  0  0  0  0
  6  1  1  0  0  0  0
  6  7  1  0  0  0  0
  7 21  1  0  0  0  0
  7 22  1  0  0  0  0
  7 23  1  0  0  0  0
  8  9  1  0  0  0  0
  8 24  1  0  0  0  0
  9 10  1  0  0  0  0
  9 11  2  0  0  0  0
 10 12  1  0  0  0  0
 10 14  1  0  0  0  0
 10 25  1  0  0  0  0
 12 13  1  0  0  0  0
 12 26  1  0  0  0  0
 13 15  1  0  0  0  0
 13 27  1  0  0  0  0
 13 28  1  0  0  0  0
 14 29  1  0  0  0  0
 14 30  1  0  0  0  0
 14 31  1  0  0  0  0
 15 16  1  0  0  0  0
 15 32  1  0  0  0  0
 15 33  1  0  0  0  0
 16 34  1  0  0  0  0
 16 35  1  0  0  0  0
 16 36  1  0  0  0  0
M  END
>  <Mol_ID>
353

>  <Formula>
C13H20N2O

>  <MolWeight>
220.3107

>  <Cat>
S1619

>  <Name>
Prilocaine

>  <Synonyms>
NSC 40027

>  <Target>
Sodium Channel

>  <Form>
free base

>  <CAS>
721-50-6

>  <URL>
http://selleckchem.com/products/Prilocaine.html

$$$$
