PRIMA-1.cdx
 OpenBabel08302520003D

 28 29  0  0  0  0  0  0  0  0999 V2000
    0.7824    1.4404   -0.3003 C   0  0  0  0  0  0  0  0  0  0  0  0
   -0.7588    1.4076   -0.3333 C   0  0  0  0  0  0  0  0  0  0  0  0
   -1.2856    0.0384   -0.0555 N   0  0  3  0  0  0  0  0  0  0  0  0
   -0.7863   -0.4475    1.3110 C   0  0  0  0  0  0  0  0  0  0  0  0
    0.7519   -0.3884    1.3021 C   0  0  0  0  0  0  0  0  0  0  0  0
    1.3292    0.0330   -0.0389 C   0  0  3  0  0  0  0  0  0  0  0  0
    0.7823   -0.9358   -1.0875 C   0  0  0  0  0  0  0  0  0  0  0  0
   -0.7481   -0.8026   -1.1609 C   0  0  0  0  0  0  0  0  0  0  0  0
    1.4519   -0.5761    2.2883 O   0  0  0  0  0  0  0  0  0  0  0  0
   -1.2789    0.4952    2.4466 C   0  0  0  0  0  0  0  0  0  0  0  0
   -1.2515   -1.8794    1.7005 C   0  0  0  0  0  0  0  0  0  0  0  0
   -0.8317   -2.9018    0.8014 O   0  0  0  0  0  0  0  0  0  0  0  0
   -2.7072    0.5562    2.4849 O   0  0  0  0  0  0  0  0  0  0  0  0
    1.1645    1.8147   -1.2573 H   0  0  0  0  0  0  0  0  0  0  0  0
    1.1192    2.1288    0.4844 H   0  0  0  0  0  0  0  0  0  0  0  0
   -1.1774    2.1426    0.3624 H   0  0  0  0  0  0  0  0  0  0  0  0
   -1.1135    1.7431   -1.3154 H   0  0  0  0  0  0  0  0  0  0  0  0
    2.4231    0.0139   -0.0005 H   0  0  0  0  0  0  0  0  0  0  0  0
    1.2179   -0.7101   -2.0681 H   0  0  0  0  0  0  0  0  0  0  0  0
    1.0623   -1.9651   -0.8354 H   0  0  0  0  0  0  0  0  0  0  0  0
   -1.2334   -1.7789   -1.2056 H   0  0  0  0  0  0  0  0  0  0  0  0
   -1.0235   -0.3512   -2.1241 H   0  0  0  0  0  0  0  0  0  0  0  0
   -0.9319    0.1519    3.4284 H   0  0  0  0  0  0  0  0  0  0  0  0
   -0.9013    1.5178    2.3442 H   0  0  0  0  0  0  0  0  0  0  0  0
   -0.8482   -2.1516    2.6823 H   0  0  0  0  0  0  0  0  0  0  0  0
   -2.3448   -1.9262    1.7779 H   0  0  0  0  0  0  0  0  0  0  0  0
   -1.6010   -3.1135    0.2450 H   0  0  0  0  0  0  0  0  0  0  0  0
   -2.9993    0.6453    1.5571 H   0  0  0  0  0  0  0  0  0  0  0  0
  1  2  1  0  0  0  0
  1 14  1  0  0  0  0
  1 15  1  0  0  0  0
  2  3  1  0  0  0  0
  2 16  1  0  0  0  0
  2 17  1  0  0  0  0
  3  4  1  0  0  0  0
  4  5  1  0  0  0  0
  4 10  1  0  0  0  0
  4 11  1  0  0  0  0
  5  6  1  0  0  0  0
  5  9  2  0  0  0  0
  6  1  1  0  0  0  0
  6  7  1  0  0  0  0
  6 18  1  0  0  0  0
  7  8  1  0  0  0  0
  7 19  1  0  0  0  0
  7 20  1  0  0  0  0
  8  3  1  0  0  0  0
  8 21  1  0  0  0  0
  8 22  1  0  0  0  0
 10 13  1  0  0  0  0
 10 23  1  0  0  0  0
 10 24  1  0  0  0  0
 11 12  1  0  0  0  0
 11 25  1  0  0  0  0
 11 26  1  0  0  0  0
 12 27  1  0  0  0  0
 13 28  1  0  0  0  0
M  END
>  <Mol_ID>
2694

>  <Formula>
C9H15NO3

>  <MolWeight>
185.2203

>  <Cat>
S7723

>  <Name>
PRIMA-1

>  <Synonyms>
2,2-Bis(hydroxymethyl)-3-quinuclidinone

>  <Target>
p53

>  <Form>
free base

>  <CAS>
5608-24-2

>  <URL>
http://selleckchem.com/products/prima-1.html

$$$$
