Pro-xylane
 OpenBabel08302521533D

 29 29  0  0  1  0  0  0  0  0999 V2000
    3.0942    1.3469    0.6486 C   0  0  0  0  0  0  0  0  0  0  0  0
    2.5919    1.4940    2.0912 C   0  0  3  0  0  0  0  0  0  0  0  0
    3.0498    2.7903    2.7488 C   0  0  0  0  0  0  0  0  0  0  0  0
    1.1647    1.4652    2.0980 O   0  0  0  0  0  0  0  0  0  0  0  0
    2.6098    0.9404   -2.2513 O   0  0  0  0  0  0  0  0  0  0  0  0
    3.2268   -1.7074   -3.3067 O   0  0  0  0  0  0  0  0  0  0  0  0
    2.5731   -3.8982   -1.4682 O   0  0  0  0  0  0  0  0  0  0  0  0
    2.6295    0.0216    0.0143 C   0  0  1  0  0  0  0  0  0  0  0  0
    3.1128   -0.1264   -1.4398 C   0  0  1  0  0  0  0  0  0  0  0  0
    3.1359   -1.0641    0.8024 O   0  0  0  0  0  0  0  0  0  0  0  0
    2.6829   -1.4994   -1.9973 C   0  0  2  0  0  0  0  0  0  0  0  0
    2.6350   -2.3276    0.3713 C   0  0  0  0  0  0  0  0  0  0  0  0
    3.0970   -2.6410   -1.0502 C   0  0  1  0  0  0  0  0  0  0  0  0
    4.1899    1.3952    0.6407 H   0  0  0  0  0  0  0  0  0  0  0  0
    2.7165    2.1826    0.0456 H   0  0  0  0  0  0  0  0  0  0  0  0
    2.9401    0.6535    2.7010 H   0  0  0  0  0  0  0  0  0  0  0  0
    2.7716    3.6625    2.1466 H   0  0  0  0  0  0  0  0  0  0  0  0
    2.5597    2.9140    3.7213 H   0  0  0  0  0  0  0  0  0  0  0  0
    4.1336    2.8036    2.9030 H   0  0  0  0  0  0  0  0  0  0  0  0
    0.8513    2.2609    1.6313 H   0  0  0  0  0  0  0  0  0  0  0  0
    1.6897    0.7362   -2.4931 H   0  0  0  0  0  0  0  0  0  0  0  0
    4.1974   -1.6934   -3.2358 H   0  0  0  0  0  0  0  0  0  0  0  0
    1.6607   -3.7721   -1.7858 H   0  0  0  0  0  0  0  0  0  0  0  0
    1.5310    0.0005    0.0303 H   0  0  0  0  0  0  0  0  0  0  0  0
    4.2074   -0.0601   -1.4790 H   0  0  0  0  0  0  0  0  0  0  0  0
    1.5953   -1.5159   -2.1401 H   0  0  0  0  0  0  0  0  0  0  0  0
    3.0050   -3.0952    1.0596 H   0  0  0  0  0  0  0  0  0  0  0  0
    1.5420   -2.3456    0.4472 H   0  0  0  0  0  0  0  0  0  0  0  0
    4.1907   -2.7338   -1.0682 H   0  0  0  0  0  0  0  0  0  0  0  0
  1  2  1  0  0  0  0
  1 14  1  0  0  0  0
  1 15  1  0  0  0  0
  2  3  1  0  0  0  0
  2  4  1  0  0  0  0
  2 16  1  0  0  0  0
  3 17  1  0  0  0  0
  3 18  1  0  0  0  0
  3 19  1  0  0  0  0
  4 20  1  0  0  0  0
  5 21  1  0  0  0  0
  6 22  1  0  0  0  0
  7 23  1  0  0  0  0
  8  9  1  0  0  0  0
  8 10  1  0  0  0  0
  8 24  1  1  0  0  0
  8  1  1  0  0  0  0
  9  5  1  0  0  0  0
  9 11  1  0  0  0  0
  9 25  1  6  0  0  0
 10 12  1  0  0  0  0
 11  6  1  0  0  0  0
 11 13  1  0  0  0  0
 11 26  1  6  0  0  0
 12 13  1  0  0  0  0
 12 27  1  0  0  0  0
 12 28  1  0  0  0  0
 13  7  1  0  0  0  0
 13 29  1  1  0  0  0
M  END
>  <Mol_ID>
9959

>  <Formula>
C8H16O5

>  <MolWeight>
192.20964

>  <Cat>
E5215

>  <Name>
Pro-xylane

>  <Synonyms>
Hydroxypropyl tetrahydropyrantriol

>  <Target>
Others

>  <Form>
free base

>  <CAS>
439685-79-7

>  <URL>
https://www.selleckchem.com/products/pro-xylane.html

$$$$
