procaine hydrochloride.cdx
 OpenBabel08302522033D

 37 37  0  0  0  0  0  0  0  0999 V2000
   -3.6484    1.2228    1.3426 C   0  0  0  0  0  0  0  0  0  0  0  0
   -3.0764   -0.1419    1.1163 C   0  0  0  0  0  0  0  0  0  0  0  0
   -2.9551    2.1084    2.1744 C   0  0  0  0  0  0  0  0  0  0  0  0
   -4.8595    1.6463    0.7758 C   0  0  0  0  0  0  0  0  0  0  0  0
   -3.9096   -0.8819    0.3502 O   0  0  0  0  0  0  0  0  0  0  0  0
   -2.0020   -0.5109    1.5648 O   0  0  0  0  0  0  0  0  0  0  0  0
   -3.4813    3.3801    2.4545 C   0  0  0  0  0  0  0  0  0  0  0  0
   -5.3752    2.9171    1.0598 C   0  0  0  0  0  0  0  0  0  0  0  0
   -3.5084   -2.2212   -0.0055 C   0  0  0  0  0  0  0  0  0  0  0  0
   -4.6800    3.8061    1.8790 C   0  0  0  0  0  0  0  0  0  0  0  0
   -2.7857   -2.3187   -1.3745 C   0  0  0  0  0  0  0  0  0  0  0  0
   -5.2827    4.9958    2.3030 N   0  0  0  0  0  0  0  0  0  0  0  0
   -3.6069   -1.9073   -2.5403 N   0  0  0  0  0  0  0  0  0  0  0  0
   -3.9539   -0.4745   -2.5424 C   0  0  0  0  0  0  0  0  0  0  0  0
   -3.0340   -2.2912   -3.8417 C   0  0  0  0  0  0  0  0  0  0  0  0
   -2.7927    0.5127   -2.4396 C   0  0  0  0  0  0  0  0  0  0  0  0
   -3.0258   -3.7935   -4.1092 C   0  0  0  0  0  0  0  0  0  0  0  0
   -2.0176    1.8088    2.6381 H   0  0  0  0  0  0  0  0  0  0  0  0
   -5.4324    0.9870    0.1261 H   0  0  0  0  0  0  0  0  0  0  0  0
   -2.9430    4.0248    3.1439 H   0  0  0  0  0  0  0  0  0  0  0  0
   -6.3340    3.1993    0.6426 H   0  0  0  0  0  0  0  0  0  0  0  0
   -2.8762   -2.6545    0.7802 H   0  0  0  0  0  0  0  0  0  0  0  0
   -4.4225   -2.8246   -0.0347 H   0  0  0  0  0  0  0  0  0  0  0  0
   -1.8435   -1.7649   -1.3426 H   0  0  0  0  0  0  0  0  0  0  0  0
   -2.5167   -3.3751   -1.4931 H   0  0  0  0  0  0  0  0  0  0  0  0
   -5.9800    5.3720    1.6683 H   0  0  0  0  0  0  0  0  0  0  0  0
   -4.6378    5.7031    2.6401 H   0  0  0  0  0  0  0  0  0  0  0  0
   -4.5246   -0.2396   -3.4511 H   0  0  0  0  0  0  0  0  0  0  0  0
   -4.6739   -0.2805   -1.7444 H   0  0  0  0  0  0  0  0  0  0  0  0
   -3.6579   -1.8561   -4.6335 H   0  0  0  0  0  0  0  0  0  0  0  0
   -2.0250   -1.8839   -3.9784 H   0  0  0  0  0  0  0  0  0  0  0  0
   -2.1340    0.4485   -3.3113 H   0  0  0  0  0  0  0  0  0  0  0  0
   -3.1830    1.5354   -2.3880 H   0  0  0  0  0  0  0  0  0  0  0  0
   -2.1861    0.3617   -1.5444 H   0  0  0  0  0  0  0  0  0  0  0  0
   -3.8794   -4.2995   -3.6467 H   0  0  0  0  0  0  0  0  0  0  0  0
   -3.0877   -3.9759   -5.1896 H   0  0  0  0  0  0  0  0  0  0  0  0
   -2.1036   -4.2575   -3.7480 H   0  0  0  0  0  0  0  0  0  0  0  0
  1  2  1  0  0  0  0
  1  3  2  0  0  0  0
  1  4  1  0  0  0  0
  2  5  1  0  0  0  0
  2  6  2  0  0  0  0
  3  7  1  0  0  0  0
  3 18  1  0  0  0  0
  4  8  2  0  0  0  0
  4 19  1  0  0  0  0
  5  9  1  0  0  0  0
  7 10  2  0  0  0  0
  7 20  1  0  0  0  0
  8 10  1  0  0  0  0
  8 21  1  0  0  0  0
  9 11  1  0  0  0  0
  9 22  1  0  0  0  0
  9 23  1  0  0  0  0
 10 12  1  0  0  0  0
 11 13  1  0  0  0  0
 11 24  1  0  0  0  0
 11 25  1  0  0  0  0
 12 26  1  0  0  0  0
 12 27  1  0  0  0  0
 13 14  1  0  0  0  0
 13 15  1  0  0  0  0
 14 16  1  0  0  0  0
 14 28  1  0  0  0  0
 14 29  1  0  0  0  0
 15 17  1  0  0  0  0
 15 30  1  0  0  0  0
 15 31  1  0  0  0  0
 16 32  1  0  0  0  0
 16 33  1  0  0  0  0
 16 34  1  0  0  0  0
 17 35  1  0  0  0  0
 17 36  1  0  0  0  0
 17 37  1  0  0  0  0
M  END
>  <Mol_ID>
1201

>  <Formula>
C13H21ClN2O2

>  <MolWeight>
272.77104

>  <Cat>
S4023

>  <Name>
Procaine HCl

>  <Synonyms>
Novocaine HCl

>  <Target>
AChR,NMDAR,Sodium Channel

>  <Form>
HCl

>  <CAS>
51-05-8

>  <URL>
http://selleckchem.com/products/procaine-novocaine-hcl.html

$$$$
