Procainamide hydrochloride.cdx
 OpenBabel08302522063D

 38 38  0  0  0  0  0  0  0  0999 V2000
   -0.0762    0.8489    2.2499 C   0  0  0  0  0  0  0  0  0  0  0  0
    0.7584    0.3097    1.2699 C   0  0  0  0  0  0  0  0  0  0  0  0
    0.1707   -0.3136    0.1653 C   0  0  0  0  0  0  0  0  0  0  0  0
   -1.2183   -0.4739    0.0765 C   0  0  0  0  0  0  0  0  0  0  0  0
   -2.0489    0.0232    1.0862 C   0  0  0  0  0  0  0  0  0  0  0  0
   -1.4650    0.6965    2.1681 C   0  0  0  0  0  0  0  0  0  0  0  0
    2.1256    0.6045    1.2664 N   0  0  0  0  0  0  0  0  0  0  0  0
   -3.5377   -0.0522    1.0064 C   0  0  0  0  0  0  0  0  0  0  0  0
   -4.0793   -1.0368    0.2014 N   0  0  0  0  0  0  0  0  0  0  0  0
   -5.5194   -1.2143    0.0988 C   0  0  0  0  0  0  0  0  0  0  0  0
   -5.9366   -1.9273   -1.2066 C   0  0  0  0  0  0  0  0  0  0  0  0
   -5.3867   -3.2916   -1.3788 N   0  0  0  0  0  0  0  0  0  0  0  0
   -4.2238    0.7366    1.6462 O   0  0  0  0  0  0  0  0  0  0  0  0
   -5.8393   -4.2369   -0.3375 C   0  0  0  0  0  0  0  0  0  0  0  0
   -5.6482   -3.8401   -2.7231 C   0  0  0  0  0  0  0  0  0  0  0  0
   -4.9485   -3.0830   -3.8495 C   0  0  0  0  0  0  0  0  0  0  0  0
   -7.3474   -4.4525   -0.1972 C   0  0  0  0  0  0  0  0  0  0  0  0
    0.3444    1.4095    3.0811 H   0  0  0  0  0  0  0  0  0  0  0  0
    0.7936   -0.6637   -0.6549 H   0  0  0  0  0  0  0  0  0  0  0  0
   -1.6330   -0.9395   -0.8125 H   0  0  0  0  0  0  0  0  0  0  0  0
   -2.0959    1.1281    2.9457 H   0  0  0  0  0  0  0  0  0  0  0  0
    2.6908   -0.0367    0.7179 H   0  0  0  0  0  0  0  0  0  0  0  0
    2.5183    0.7786    2.1848 H   0  0  0  0  0  0  0  0  0  0  0  0
   -3.5108   -1.8201   -0.0939 H   0  0  0  0  0  0  0  0  0  0  0  0
   -5.8507   -1.7623    0.9868 H   0  0  0  0  0  0  0  0  0  0  0  0
   -5.9984   -0.2293    0.1361 H   0  0  0  0  0  0  0  0  0  0  0  0
   -7.0303   -1.9348   -1.2785 H   0  0  0  0  0  0  0  0  0  0  0  0
   -5.5815   -1.2919   -2.0266 H   0  0  0  0  0  0  0  0  0  0  0  0
   -5.3725   -5.2147   -0.5193 H   0  0  0  0  0  0  0  0  0  0  0  0
   -5.4382   -3.9227    0.6314 H   0  0  0  0  0  0  0  0  0  0  0  0
   -5.2667   -4.8683   -2.7608 H   0  0  0  0  0  0  0  0  0  0  0  0
   -6.7222   -3.8907   -2.9376 H   0  0  0  0  0  0  0  0  0  0  0  0
   -3.9313   -2.7896   -3.5683 H   0  0  0  0  0  0  0  0  0  0  0  0
   -4.8758   -3.7202   -4.7378 H   0  0  0  0  0  0  0  0  0  0  0  0
   -5.5064   -2.1852   -4.1345 H   0  0  0  0  0  0  0  0  0  0  0  0
   -7.7735   -4.9298   -1.0848 H   0  0  0  0  0  0  0  0  0  0  0  0
   -7.5466   -5.1099    0.6565 H   0  0  0  0  0  0  0  0  0  0  0  0
   -7.8854   -3.5187   -0.0116 H   0  0  0  0  0  0  0  0  0  0  0  0
  1  2  2  0  0  0  0
  1 18  1  0  0  0  0
  2  3  1  0  0  0  0
  2  7  1  0  0  0  0
  3  4  2  0  0  0  0
  3 19  1  0  0  0  0
  4  5  1  0  0  0  0
  4 20  1  0  0  0  0
  5  6  2  0  0  0  0
  5  8  1  0  0  0  0
  6  1  1  0  0  0  0
  6 21  1  0  0  0  0
  7 22  1  0  0  0  0
  7 23  1  0  0  0  0
  8  9  1  0  0  0  0
  8 13  2  0  0  0  0
  9 10  1  0  0  0  0
  9 24  1  0  0  0  0
 10 11  1  0  0  0  0
 10 25  1  0  0  0  0
 10 26  1  0  0  0  0
 11 12  1  0  0  0  0
 11 27  1  0  0  0  0
 11 28  1  0  0  0  0
 12 14  1  0  0  0  0
 12 15  1  0  0  0  0
 14 17  1  0  0  0  0
 14 29  1  0  0  0  0
 14 30  1  0  0  0  0
 15 16  1  0  0  0  0
 15 31  1  0  0  0  0
 15 32  1  0  0  0  0
 16 33  1  0  0  0  0
 16 34  1  0  0  0  0
 16 35  1  0  0  0  0
 17 36  1  0  0  0  0
 17 37  1  0  0  0  0
 17 38  1  0  0  0  0
M  END
>  <Mol_ID>
1433

>  <Formula>
C13H22ClN3O

>  <MolWeight>
271.78628

>  <Cat>
S4294

>  <Name>
Procainamide HCl

>  <Synonyms>
N/A

>  <Target>
DNA Methyltransferase,Sodium Channel

>  <Form>
Hydrochloride

>  <CAS>
614-39-1

>  <URL>
http://selleckchem.com/products/procainamide-hcl.html

$$$$
