Proflavine
 OpenBabel08302520343D

 27 29  0  0  0  0  0  0  0  0999 V2000
   -3.5952   -0.7315   -0.0053 C   0  0  0  0  0  0  0  0  0  0  0  0
   -3.6238    0.6612    0.0221 C   0  0  0  0  0  0  0  0  0  0  0  0
   -2.4364    1.3896   -0.0167 C   0  0  0  0  0  0  0  0  0  0  0  0
   -1.2014    0.7244   -0.0344 C   0  0  0  0  0  0  0  0  0  0  0  0
   -1.1483   -0.6806   -0.0079 C   0  0  0  0  0  0  0  0  0  0  0  0
   -2.3526   -1.3774    0.0252 C   0  0  0  0  0  0  0  0  0  0  0  0
    0.0063    1.4271   -0.0540 C   0  0  0  0  0  0  0  0  0  0  0  0
    1.2205    0.7351   -0.0365 C   0  0  0  0  0  0  0  0  0  0  0  0
    1.1803   -0.6700   -0.0088 C   0  0  0  0  0  0  0  0  0  0  0  0
    0.0192   -1.3544   -0.0004 N   0  0  0  0  0  0  0  0  0  0  0  0
    2.4487    1.4121   -0.0194 C   0  0  0  0  0  0  0  0  0  0  0  0
    3.6432    0.6954    0.0198 C   0  0  0  0  0  0  0  0  0  0  0  0
    3.6278   -0.6973   -0.0052 C   0  0  0  0  0  0  0  0  0  0  0  0
    2.3914   -1.3551    0.0248 C   0  0  0  0  0  0  0  0  0  0  0  0
    4.8179   -1.4128    0.1771 N   0  0  0  0  0  0  0  0  0  0  0  0
   -4.7789   -1.4582    0.1742 N   0  0  0  0  0  0  0  0  0  0  0  0
   -4.5704    1.1919    0.0777 H   0  0  0  0  0  0  0  0  0  0  0  0
   -2.4811    2.4757   -0.0094 H   0  0  0  0  0  0  0  0  0  0  0  0
   -2.3116   -2.4624    0.0802 H   0  0  0  0  0  0  0  0  0  0  0  0
    0.0011    2.5143   -0.0652 H   0  0  0  0  0  0  0  0  0  0  0  0
    2.4834    2.4990   -0.0153 H   0  0  0  0  0  0  0  0  0  0  0  0
    4.5846    1.2351    0.0738 H   0  0  0  0  0  0  0  0  0  0  0  0
    2.3605   -2.4405    0.0805 H   0  0  0  0  0  0  0  0  0  0  0  0
    4.7754   -2.3745   -0.1469 H   0  0  0  0  0  0  0  0  0  0  0  0
    5.6480   -0.9302   -0.1522 H   0  0  0  0  0  0  0  0  0  0  0  0
   -4.7265   -2.4191   -0.1505 H   0  0  0  0  0  0  0  0  0  0  0  0
   -5.6125   -0.9833   -0.1574 H   0  0  0  0  0  0  0  0  0  0  0  0
  1  2  2  0  0  0  0
  1 16  1  0  0  0  0
  2  3  1  0  0  0  0
  2 17  1  0  0  0  0
  3  4  2  0  0  0  0
  3 18  1  0  0  0  0
  4  5  1  0  0  0  0
  4  7  1  0  0  0  0
  5  6  2  0  0  0  0
  6  1  1  0  0  0  0
  6 19  1  0  0  0  0
  7  8  2  0  0  0  0
  7 20  1  0  0  0  0
  8  9  1  0  0  0  0
  8 11  1  0  0  0  0
  9 10  2  0  0  0  0
 10  5  1  0  0  0  0
 11 12  2  0  0  0  0
 11 21  1  0  0  0  0
 12 13  1  0  0  0  0
 12 22  1  0  0  0  0
 13 14  2  0  0  0  0
 13 15  1  0  0  0  0
 14  9  1  0  0  0  0
 14 23  1  0  0  0  0
 15 24  1  0  0  0  0
 15 25  1  0  0  0  0
 16 26  1  0  0  0  0
 16 27  1  0  0  0  0
M  END
>  <Mol_ID>
3415

>  <Formula>
C13H11N3

>  <MolWeight>
209.24654

>  <Cat>
S5776

>  <Name>
Proflavine

>  <Synonyms>
3,6-Diaminoacridine

>  <Target>
Bacterial

>  <Form>
Free Base

>  <CAS>
92-62-6

>  <URL>
http://www.selleckchem.com/products/proflavine.html

$$$$
