PROFENAL (suprofen).cdx
 OpenBabel08302522013D

 30 31  0  0  0  0  0  0  0  0999 V2000
    1.4317   -0.1825    0.0860 C   0  0  0  0  0  0  0  0  0  0  0  0
    0.5370   -1.2570    0.0128 C   0  0  0  0  0  0  0  0  0  0  0  0
   -0.8391   -1.0267   -0.0891 C   0  0  0  0  0  0  0  0  0  0  0  0
   -1.3486    0.2833   -0.1051 C   0  0  0  0  0  0  0  0  0  0  0  0
   -0.4454    1.3523   -0.0274 C   0  0  0  0  0  0  0  0  0  0  0  0
    0.9307    1.1228    0.0357 C   0  0  0  0  0  0  0  0  0  0  0  0
   -2.8539    0.5128   -0.1909 C   0  0  3  0  0  0  0  0  0  0  0  0
   -3.5239    0.7325    1.1657 C   0  0  0  0  0  0  0  0  0  0  0  0
   -3.2035    1.6716   -1.1371 C   0  0  0  0  0  0  0  0  0  0  0  0
   -3.0080    0.0247    2.1957 O   0  0  0  0  0  0  0  0  0  0  0  0
   -4.5107    1.4385    1.3300 O   0  0  0  0  0  0  0  0  0  0  0  0
    2.8994   -0.4610    0.1553 C   0  0  0  0  0  0  0  0  0  0  0  0
    3.7798    0.5204    0.7767 C   0  0  0  0  0  0  0  0  0  0  0  0
    3.2914   -1.5241   -0.3256 O   0  0  0  0  0  0  0  0  0  0  0  0
    5.3724    0.7119    0.1696 S   0  0  0  0  0  0  0  0  0  0  0  0
    5.7098    1.9830    1.2617 C   0  0  0  0  0  0  0  0  0  0  0  0
    4.6523    2.2337    2.1054 C   0  0  0  0  0  0  0  0  0  0  0  0
    3.5479    1.3721    1.8432 C   0  0  0  0  0  0  0  0  0  0  0  0
    0.9106   -2.2803    0.0225 H   0  0  0  0  0  0  0  0  0  0  0  0
   -1.5069   -1.8849   -0.1619 H   0  0  0  0  0  0  0  0  0  0  0  0
   -0.7913    2.3842   -0.0373 H   0  0  0  0  0  0  0  0  0  0  0  0
    1.5946    1.9842    0.0260 H   0  0  0  0  0  0  0  0  0  0  0  0
   -3.3139   -0.3898   -0.6157 H   0  0  0  0  0  0  0  0  0  0  0  0
   -2.7189    1.5500   -2.1120 H   0  0  0  0  0  0  0  0  0  0  0  0
   -4.2849    1.7261   -1.3040 H   0  0  0  0  0  0  0  0  0  0  0  0
   -2.9020    2.6417   -0.7253 H   0  0  0  0  0  0  0  0  0  0  0  0
   -2.2216   -0.5081    1.9763 H   0  0  0  0  0  0  0  0  0  0  0  0
    6.6712    2.4779    1.2383 H   0  0  0  0  0  0  0  0  0  0  0  0
    4.6714    2.9938    2.8772 H   0  0  0  0  0  0  0  0  0  0  0  0
    2.6221    1.3957    2.4064 H   0  0  0  0  0  0  0  0  0  0  0  0
  1  2  2  0  0  0  0
  1 12  1  0  0  0  0
  2  3  1  0  0  0  0
  2 19  1  0  0  0  0
  3  4  2  0  0  0  0
  3 20  1  0  0  0  0
  4  5  1  0  0  0  0
  4  7  1  0  0  0  0
  5  6  2  0  0  0  0
  5 21  1  0  0  0  0
  6  1  1  0  0  0  0
  6 22  1  0  0  0  0
  7  8  1  0  0  0  0
  7  9  1  0  0  0  0
  7 23  1  0  0  0  0
  8 10  1  0  0  0  0
  8 11  2  0  0  0  0
  9 24  1  0  0  0  0
  9 25  1  0  0  0  0
  9 26  1  0  0  0  0
 10 27  1  0  0  0  0
 12 13  1  0  0  0  0
 12 14  2  0  0  0  0
 13 15  1  0  0  0  0
 15 16  1  0  0  0  0
 16 17  2  0  0  0  0
 16 28  1  0  0  0  0
 17 18  1  0  0  0  0
 17 29  1  0  0  0  0
 18 13  2  0  0  0  0
 18 30  1  0  0  0  0
M  END
>  <Mol_ID>
1109

>  <Formula>
C14H12O3S

>  <MolWeight>
260.30828

>  <Cat>
S1761

>  <Name>
Suprofen

>  <Synonyms>
TN-762

>  <Target>
COX

>  <Form>
free base

>  <CAS>
40828-46-4

>  <URL>
http://selleckchem.com/products/Suprofen(Profenal).html

$$$$
