Proguanil
 OpenBabel08302520143D

 33 33  0  0  0  0  0  0  0  0999 V2000
    1.5875   -0.3883    0.1088 C   0  0  0  0  0  0  0  0  0  0  0  0
    2.8915   -0.1410    0.5996 N   0  0  0  0  0  0  0  0  0  0  0  0
    1.2949   -0.2895   -1.2584 C   0  0  0  0  0  0  0  0  0  0  0  0
    0.5584   -0.7671    0.9810 C   0  0  0  0  0  0  0  0  0  0  0  0
    3.6928    0.8892    0.1558 C   0  0  0  0  0  0  0  0  0  0  0  0
    0.0128   -0.5492   -1.7436 C   0  0  0  0  0  0  0  0  0  0  0  0
   -0.7311   -1.0201    0.4982 C   0  0  0  0  0  0  0  0  0  0  0  0
    4.9776    0.7859    0.6131 N   0  0  0  0  0  0  0  0  0  0  0  0
    3.2866    1.8713   -0.5792 N   0  0  0  0  0  0  0  0  0  0  0  0
   -1.0025   -0.9141   -0.8644 C   0  0  0  0  0  0  0  0  0  0  0  0
    6.0407    1.6356    0.5044 C   0  0  0  0  0  0  0  0  0  0  0  0
    7.1991    1.2504    1.1075 N   0  0  0  0  0  0  0  0  0  0  0  0
    5.9689    2.7510   -0.1405 N   0  0  0  0  0  0  0  0  0  0  0  0
    7.2948    0.4599    2.3285 C   0  0  0  0  0  0  0  0  0  0  0  0
    8.3618   -0.6102    2.1294 C   0  0  0  0  0  0  0  0  0  0  0  0
    7.6350    1.3673    3.5069 C   0  0  0  0  0  0  0  0  0  0  0  0
    2.9619   -0.2961    1.5961 H   0  0  0  0  0  0  0  0  0  0  0  0
    2.0725    0.0045   -1.9601 H   0  0  0  0  0  0  0  0  0  0  0  0
    0.7368   -0.8440    2.0496 H   0  0  0  0  0  0  0  0  0  0  0  0
   -0.1884   -0.4536   -2.8072 H   0  0  0  0  0  0  0  0  0  0  0  0
   -1.5271   -1.2905    1.1870 H   0  0  0  0  0  0  0  0  0  0  0  0
    5.2554   -0.1742    0.7401 H   0  0  0  0  0  0  0  0  0  0  0  0
    4.1153    2.4844   -0.7070 H   0  0  0  0  0  0  0  0  0  0  0  0
   -2.0031   -1.1063   -1.2414 H   0  0  0  0  0  0  0  0  0  0  0  0
    7.9683    1.9035    1.0024 H   0  0  0  0  0  0  0  0  0  0  0  0
    6.8636    3.2402   -0.1084 H   0  0  0  0  0  0  0  0  0  0  0  0
    6.3476   -0.0425    2.5517 H   0  0  0  0  0  0  0  0  0  0  0  0
    9.3529   -0.1664    1.9831 H   0  0  0  0  0  0  0  0  0  0  0  0
    8.4092   -1.2757    2.9968 H   0  0  0  0  0  0  0  0  0  0  0  0
    8.1389   -1.2191    1.2458 H   0  0  0  0  0  0  0  0  0  0  0  0
    6.8957    2.1691    3.6100 H   0  0  0  0  0  0  0  0  0  0  0  0
    7.6477    0.7960    4.4410 H   0  0  0  0  0  0  0  0  0  0  0  0
    8.6174    1.8366    3.3832 H   0  0  0  0  0  0  0  0  0  0  0  0
  1  2  1  0  0  0  0
  1  3  2  0  0  0  0
  1  4  1  0  0  0  0
  2  5  1  0  0  0  0
  2 17  1  0  0  0  0
  3  6  1  0  0  0  0
  3 18  1  0  0  0  0
  4  7  2  0  0  0  0
  4 19  1  0  0  0  0
  5  8  1  0  0  0  0
  5  9  2  0  0  0  0
  6 10  2  0  0  0  0
  6 20  1  0  0  0  0
  7 10  1  0  0  0  0
  7 21  1  0  0  0  0
  8 11  1  0  0  0  0
  8 22  1  0  0  0  0
  9 23  1  0  0  0  0
 10 24  1  0  0  0  0
 11 12  1  0  0  0  0
 11 13  2  0  0  0  0
 12 14  1  0  0  0  0
 12 25  1  0  0  0  0
 13 26  1  0  0  0  0
 14 15  1  0  0  0  0
 14 16  1  0  0  0  0
 14 27  1  0  0  0  0
 15 28  1  0  0  0  0
 15 29  1  0  0  0  0
 15 30  1  0  0  0  0
 16 31  1  0  0  0  0
 16 32  1  0  0  0  0
 16 33  1  0  0  0  0
M  END
>  <Mol_ID>
3188

>  <Formula>
C11H16ClN5

>  <MolWeight>
253.73124

>  <Cat>
S5927

>  <Name>
Proguanil

>  <Synonyms>
chlorguanide, chloroguanide

>  <Target>
Anti-infection,DHFR

>  <Form>
Free Base

>  <CAS>
500-92-5

>  <URL>
http://www.selleckchem.com/products/proguanil.html

$$$$
