Propafenone.cdx
 OpenBabel08302522033D

 52 53  0  0  0  0  0  0  0  0999 V2000
   -3.9597    4.5883   -0.6532 C   0  0  0  0  0  0  0  0  0  0  0  0
   -3.8418    3.3468   -1.2699 C   0  0  0  0  0  0  0  0  0  0  0  0
   -3.0053    2.3788   -0.7202 C   0  0  0  0  0  0  0  0  0  0  0  0
   -2.2879    2.6467    0.4490 C   0  0  0  0  0  0  0  0  0  0  0  0
   -2.3951    3.8907    1.0826 C   0  0  0  0  0  0  0  0  0  0  0  0
   -3.2423    4.8552    0.5170 C   0  0  0  0  0  0  0  0  0  0  0  0
   -1.7240    4.2087    2.4003 C   0  0  0  0  0  0  0  0  0  0  0  0
   -0.5196    3.3676    2.8211 C   0  0  0  0  0  0  0  0  0  0  0  0
    0.7423    3.5126    1.9733 C   0  0  0  0  0  0  0  0  0  0  0  0
    1.5023    4.8088    1.9264 C   0  0  0  0  0  0  0  0  0  0  0  0
    1.2079    2.5046    1.4401 O   0  0  0  0  0  0  0  0  0  0  0  0
    1.2687    5.7255    2.9799 C   0  0  0  0  0  0  0  0  0  0  0  0
    2.0593    6.8623    3.1636 C   0  0  0  0  0  0  0  0  0  0  0  0
    3.1014    7.1165    2.2908 C   0  0  0  0  0  0  0  0  0  0  0  0
    3.3291    6.2457    1.2264 C   0  0  0  0  0  0  0  0  0  0  0  0
    2.5414    5.0938    1.0171 C   0  0  0  0  0  0  0  0  0  0  0  0
    3.0349    4.3628   -0.0308 O   0  0  0  0  0  0  0  0  0  0  0  0
    2.1522    3.6737   -0.9305 C   0  0  0  0  0  0  0  0  0  0  0  0
    2.8124    3.6950   -2.3271 C   0  0  3  0  0  0  0  0  0  0  0  0
    4.1719    3.2226   -2.2312 O   0  0  0  0  0  0  0  0  0  0  0  0
    2.0926    2.7971   -3.3536 C   0  0  0  0  0  0  0  0  0  0  0  0
    0.6992    3.1207   -3.6723 N   0  0  0  0  0  0  0  0  0  0  0  0
    0.4924    4.4487   -4.2494 C   0  0  0  0  0  0  0  0  0  0  0  0
    1.2284    4.7459   -5.5615 C   0  0  0  0  0  0  0  0  0  0  0  0
    0.8383    3.8285   -6.7106 C   0  0  0  0  0  0  0  0  0  0  0  0
   -4.6163    5.3445   -1.0751 H   0  0  0  0  0  0  0  0  0  0  0  0
   -4.4039    3.1298   -2.1736 H   0  0  0  0  0  0  0  0  0  0  0  0
   -2.9141    1.4056   -1.1964 H   0  0  0  0  0  0  0  0  0  0  0  0
   -1.6588    1.8564    0.8503 H   0  0  0  0  0  0  0  0  0  0  0  0
   -3.3690    5.8261    0.9937 H   0  0  0  0  0  0  0  0  0  0  0  0
   -1.4556    5.2702    2.4049 H   0  0  0  0  0  0  0  0  0  0  0  0
   -2.4946    4.0808    3.1726 H   0  0  0  0  0  0  0  0  0  0  0  0
   -0.2597    3.5804    3.8644 H   0  0  0  0  0  0  0  0  0  0  0  0
   -0.7932    2.3051    2.8289 H   0  0  0  0  0  0  0  0  0  0  0  0
    0.5011    5.5557    3.7287 H   0  0  0  0  0  0  0  0  0  0  0  0
    1.8809    7.5203    4.0114 H   0  0  0  0  0  0  0  0  0  0  0  0
    3.7512    7.9739    2.4458 H   0  0  0  0  0  0  0  0  0  0  0  0
    4.1612    6.4517    0.5543 H   0  0  0  0  0  0  0  0  0  0  0  0
    2.0991    2.6305   -0.6139 H   0  0  0  0  0  0  0  0  0  0  0  0
    1.1568    4.1290   -0.9612 H   0  0  0  0  0  0  0  0  0  0  0  0
    2.8855    4.7257   -2.6896 H   0  0  0  0  0  0  0  0  0  0  0  0
    4.5188    3.5897   -1.3959 H   0  0  0  0  0  0  0  0  0  0  0  0
    2.6889    2.7455   -4.2739 H   0  0  0  0  0  0  0  0  0  0  0  0
    2.1112    1.7673   -2.9708 H   0  0  0  0  0  0  0  0  0  0  0  0
    0.3427    2.4133   -4.3142 H   0  0  0  0  0  0  0  0  0  0  0  0
   -0.5846    4.5644   -4.4210 H   0  0  0  0  0  0  0  0  0  0  0  0
    0.7515    5.2141   -3.5100 H   0  0  0  0  0  0  0  0  0  0  0  0
    1.0001    5.7785   -5.8531 H   0  0  0  0  0  0  0  0  0  0  0  0
    2.3131    4.7046   -5.4134 H   0  0  0  0  0  0  0  0  0  0  0  0
   -0.2395    3.8694   -6.8975 H   0  0  0  0  0  0  0  0  0  0  0  0
    1.3502    4.1404   -7.6272 H   0  0  0  0  0  0  0  0  0  0  0  0
    1.1174    2.7897   -6.5114 H   0  0  0  0  0  0  0  0  0  0  0  0
  1  2  2  0  0  0  0
  1 26  1  0  0  0  0
  2  3  1  0  0  0  0
  2 27  1  0  0  0  0
  3  4  2  0  0  0  0
  3 28  1  0  0  0  0
  4  5  1  0  0  0  0
  4 29  1  0  0  0  0
  5  6  2  0  0  0  0
  5  7  1  0  0  0  0
  6  1  1  0  0  0  0
  6 30  1  0  0  0  0
  7  8  1  0  0  0  0
  7 31  1  0  0  0  0
  7 32  1  0  0  0  0
  8  9  1  0  0  0  0
  8 33  1  0  0  0  0
  8 34  1  0  0  0  0
  9 10  1  0  0  0  0
  9 11  2  0  0  0  0
 10 12  2  0  0  0  0
 12 13  1  0  0  0  0
 12 35  1  0  0  0  0
 13 14  2  0  0  0  0
 13 36  1  0  0  0  0
 14 15  1  0  0  0  0
 14 37  1  0  0  0  0
 15 16  2  0  0  0  0
 15 38  1  0  0  0  0
 16 10  1  0  0  0  0
 16 17  1  0  0  0  0
 17 18  1  0  0  0  0
 18 19  1  0  0  0  0
 18 39  1  0  0  0  0
 18 40  1  0  0  0  0
 19 20  1  0  0  0  0
 19 21  1  0  0  0  0
 19 41  1  0  0  0  0
 20 42  1  0  0  0  0
 21 22  1  0  0  0  0
 21 43  1  0  0  0  0
 21 44  1  0  0  0  0
 22 23  1  0  0  0  0
 22 45  1  0  0  0  0
 23 24  1  0  0  0  0
 23 46  1  0  0  0  0
 23 47  1  0  0  0  0
 24 25  1  0  0  0  0
 24 48  1  0  0  0  0
 24 49  1  0  0  0  0
 25 50  1  0  0  0  0
 25 51  1  0  0  0  0
 25 52  1  0  0  0  0
M  END
>  <Mol_ID>
1156

>  <Formula>
C21H27NO3

>  <MolWeight>
341.44398

>  <Cat>
S2500

>  <Name>
Propafenone HCl

>  <Synonyms>
N/A

>  <Target>
Sodium Channel

>  <Form>
Hydrochloride

>  <CAS>
34183-22-7

>  <URL>
http://selleckchem.com/products/Propafenone(Rytmonorm).html

$$$$
