PROPYLTHIOURACIL (propylthiouracil).cdx
 OpenBabel08302521243D

 21 21  0  0  0  0  0  0  0  0999 V2000
   -1.8526    0.9274   -0.0243 C   0  0  0  0  0  0  0  0  0  0  0  0
   -0.8421    1.8062   -0.0575 C   0  0  0  0  0  0  0  0  0  0  0  0
    0.4567    1.3514   -0.0925 N   0  0  0  0  0  0  0  0  0  0  0  0
    0.7936    0.0268   -0.0699 C   0  0  0  0  0  0  0  0  0  0  0  0
   -0.2380   -0.8634   -0.0272 N   0  0  0  0  0  0  0  0  0  0  0  0
   -1.5625   -0.5203   -0.0225 C   0  0  0  0  0  0  0  0  0  0  0  0
   -1.0552    3.2977   -0.0090 C   0  0  0  0  0  0  0  0  0  0  0  0
   -0.5338    4.0683   -1.2263 C   0  0  0  0  0  0  0  0  0  0  0  0
   -1.1825    3.6430   -2.5347 C   0  0  0  0  0  0  0  0  0  0  0  0
   -2.4659   -1.3470   -0.0095 O   0  0  0  0  0  0  0  0  0  0  0  0
    2.3807   -0.4656   -0.0825 S   0  0  0  0  0  0  0  0  0  0  0  0
   -2.8957    1.2139    0.0152 H   0  0  0  0  0  0  0  0  0  0  0  0
    1.2238    2.0151   -0.1253 H   0  0  0  0  0  0  0  0  0  0  0  0
   -0.0258   -1.8502   -0.0070 H   0  0  0  0  0  0  0  0  0  0  0  0
   -2.1238    3.5210    0.1156 H   0  0  0  0  0  0  0  0  0  0  0  0
   -0.5618    3.6880    0.8899 H   0  0  0  0  0  0  0  0  0  0  0  0
   -0.7302    5.1358   -1.0675 H   0  0  0  0  0  0  0  0  0  0  0  0
    0.5542    3.9609   -1.3086 H   0  0  0  0  0  0  0  0  0  0  0  0
   -2.2736    3.6969   -2.4692 H   0  0  0  0  0  0  0  0  0  0  0  0
   -0.8580    4.3029   -3.3457 H   0  0  0  0  0  0  0  0  0  0  0  0
   -0.9011    2.6206   -2.8049 H   0  0  0  0  0  0  0  0  0  0  0  0
  1  2  2  0  0  0  0
  1 12  1  0  0  0  0
  2  3  1  0  0  0  0
  2  7  1  0  0  0  0
  3  4  1  0  0  0  0
  3 13  1  0  0  0  0
  4  5  1  0  0  0  0
  4 11  2  0  0  0  0
  5  6  1  0  0  0  0
  5 14  1  0  0  0  0
  6  1  1  0  0  0  0
  6 10  2  0  0  0  0
  7  8  1  0  0  0  0
  7 15  1  0  0  0  0
  7 16  1  0  0  0  0
  8  9  1  0  0  0  0
  8 17  1  0  0  0  0
  8 18  1  0  0  0  0
  9 19  1  0  0  0  0
  9 20  1  0  0  0  0
  9 21  1  0  0  0  0
M  END
>  <Mol_ID>
473

>  <Formula>
C7H10N2OS

>  <MolWeight>
170.2321

>  <Cat>
S1988

>  <Name>
Propylthiouracil

>  <Synonyms>
NSC 6498, NSC 70461

>  <Target>
Peroxidases

>  <Form>
free base

>  <CAS>
51-52-5

>  <URL>
http://selleckchem.com/products/Propylthiouracil.html

$$$$
