Propranolol HCl.cdx
 OpenBabel08302519553D

 40 41  0  0  0  0  0  0  0  0999 V2000
   -3.3244    1.2680   -1.7208 C   0  0  0  0  0  0  0  0  0  0  0  0
   -4.3849    1.7442   -0.9488 C   0  0  0  0  0  0  0  0  0  0  0  0
   -4.8393    0.9872    0.1274 C   0  0  0  0  0  0  0  0  0  0  0  0
   -4.2526   -0.2539    0.4384 C   0  0  0  0  0  0  0  0  0  0  0  0
   -3.1339   -0.7292   -0.3157 C   0  0  0  0  0  0  0  0  0  0  0  0
   -2.7075    0.0616   -1.3985 C   0  0  0  0  0  0  0  0  0  0  0  0
   -4.7814   -1.0390    1.4733 C   0  0  0  0  0  0  0  0  0  0  0  0
   -4.2101   -2.2720    1.7622 C   0  0  0  0  0  0  0  0  0  0  0  0
   -3.0786   -2.7299    1.0630 C   0  0  0  0  0  0  0  0  0  0  0  0
   -2.5116   -1.9617    0.0348 C   0  0  0  0  0  0  0  0  0  0  0  0
   -1.3960   -2.3492   -0.7236 O   0  0  0  0  0  0  0  0  0  0  0  0
   -0.4739   -3.2844   -0.1320 C   0  0  0  0  0  0  0  0  0  0  0  0
    0.7084   -3.7451   -1.0546 C   0  0  3  0  0  0  0  0  0  0  0  0
    1.6389   -2.6632   -1.6748 C   0  0  0  0  0  0  0  0  0  0  0  0
    1.5391   -4.6269   -0.2682 O   0  0  0  0  0  0  0  0  0  0  0  0
    2.8530   -3.1907   -2.3843 N   0  0  0  0  0  0  0  0  0  0  0  0
    2.6516   -3.9758   -3.6194 C   0  0  0  0  0  0  0  0  0  0  0  0
    1.9013   -3.2573   -4.7483 C   0  0  0  0  0  0  0  0  0  0  0  0
    4.0217   -4.4033   -4.1996 C   0  0  0  0  0  0  0  0  0  0  0  0
   -2.9913    1.8362   -2.5807 H   0  0  0  0  0  0  0  0  0  0  0  0
   -4.8583    2.6928   -1.1898 H   0  0  0  0  0  0  0  0  0  0  0  0
   -5.6713    1.3725    0.7199 H   0  0  0  0  0  0  0  0  0  0  0  0
   -1.8872   -0.2806   -2.0230 H   0  0  0  0  0  0  0  0  0  0  0  0
   -5.6448   -0.6959    2.0399 H   0  0  0  0  0  0  0  0  0  0  0  0
   -4.6669   -2.8888    2.5351 H   0  0  0  0  0  0  0  0  0  0  0  0
   -2.6961   -3.7073    1.3362 H   0  0  0  0  0  0  0  0  0  0  0  0
   -0.0750   -2.8698    0.8049 H   0  0  0  0  0  0  0  0  0  0  0  0
   -1.0138   -4.2038    0.1313 H   0  0  0  0  0  0  0  0  0  0  0  0
    0.2867   -4.3398   -1.8716 H   0  0  0  0  0  0  0  0  0  0  0  0
    1.0847   -1.9686   -2.3086 H   0  0  0  0  0  0  0  0  0  0  0  0
    2.0495   -2.0751   -0.8436 H   0  0  0  0  0  0  0  0  0  0  0  0
    2.4328   -4.5646   -0.6660 H   0  0  0  0  0  0  0  0  0  0  0  0
    3.4688   -2.4031   -2.5976 H   0  0  0  0  0  0  0  0  0  0  0  0
    2.1152   -4.8938   -3.3611 H   0  0  0  0  0  0  0  0  0  0  0  0
    2.5816   -2.7345   -5.4334 H   0  0  0  0  0  0  0  0  0  0  0  0
    1.3541   -3.9969   -5.3464 H   0  0  0  0  0  0  0  0  0  0  0  0
    1.1712   -2.5319   -4.3897 H   0  0  0  0  0  0  0  0  0  0  0  0
    4.6158   -4.9804   -3.4839 H   0  0  0  0  0  0  0  0  0  0  0  0
    3.8838   -5.0306   -5.0906 H   0  0  0  0  0  0  0  0  0  0  0  0
    4.6213   -3.5382   -4.5130 H   0  0  0  0  0  0  0  0  0  0  0  0
  1  2  2  0  0  0  0
  1 20  1  0  0  0  0
  2  3  1  0  0  0  0
  2 21  1  0  0  0  0
  3  4  2  0  0  0  0
  3 22  1  0  0  0  0
  4  5  1  0  0  0  0
  4  7  1  0  0  0  0
  5  6  2  0  0  0  0
  6  1  1  0  0  0  0
  6 23  1  0  0  0  0
  7  8  2  0  0  0  0
  7 24  1  0  0  0  0
  8  9  1  0  0  0  0
  8 25  1  0  0  0  0
  9 10  2  0  0  0  0
  9 26  1  0  0  0  0
 10  5  1  0  0  0  0
 10 11  1  0  0  0  0
 11 12  1  0  0  0  0
 12 13  1  0  0  0  0
 12 27  1  0  0  0  0
 12 28  1  0  0  0  0
 13 14  1  0  0  0  0
 13 15  1  0  0  0  0
 13 29  1  0  0  0  0
 14 16  1  0  0  0  0
 14 30  1  0  0  0  0
 14 31  1  0  0  0  0
 15 32  1  0  0  0  0
 16 17  1  0  0  0  0
 16 33  1  0  0  0  0
 17 18  1  0  0  0  0
 17 19  1  0  0  0  0
 17 34  1  0  0  0  0
 18 35  1  0  0  0  0
 18 36  1  0  0  0  0
 18 37  1  0  0  0  0
 19 38  1  0  0  0  0
 19 39  1  0  0  0  0
 19 40  1  0  0  0  0
M  END
>  <Mol_ID>
2123

>  <Formula>
C16H22ClNO2

>  <MolWeight>
295.80438

>  <Cat>
S4076

>  <Name>
Propranolol HCl

>  <Synonyms>
AY-64043, ICI-45520, NCS-91523

>  <Target>
Adrenergic Receptor

>  <Form>
Hydrochloride

>  <CAS>
318-98-9

>  <URL>
http://selleckchem.com/products/propranolol-hcl.html

$$$$
