Propiolactone
 OpenBabel08302521373D

  9  9  0  0  0  0  0  0  0  0999 V2000
   -1.6755    0.0651   -0.0000 O   0  0  0  0  0  0  0  0  0  0  0  0
   -0.4680    0.1132   -0.0045 C   0  0  0  0  0  0  0  0  0  0  0  0
    0.6222    1.1958   -0.0433 C   0  0  0  0  0  0  0  0  0  0  0  0
    0.4224   -0.9124    0.0254 O   0  0  0  0  0  0  0  0  0  0  0  0
    1.5568   -0.0061    0.0248 C   0  0  0  0  0  0  0  0  0  0  0  0
    0.6301    1.8536    0.8268 H   0  0  0  0  0  0  0  0  0  0  0  0
    0.6485    1.7656   -0.9736 H   0  0  0  0  0  0  0  0  0  0  0  0
    2.1964   -0.1581   -0.8492 H   0  0  0  0  0  0  0  0  0  0  0  0
    2.1424   -0.0958    0.9443 H   0  0  0  0  0  0  0  0  0  0  0  0
  1  2  2  0  0  0  0
  2  3  1  0  0  0  0
  2  4  1  0  0  0  0
  3  5  1  0  0  0  0
  3  6  1  0  0  0  0
  3  7  1  0  0  0  0
  4  5  1  0  0  0  0
  5  8  1  0  0  0  0
  5  9  1  0  0  0  0
M  END
>  <Mol_ID>
7571

>  <Formula>
C3H4O2

>  <MolWeight>
72.06266

>  <Cat>
E2869

>  <Name>
Propiolactone

>  <Target>
Others

>  <Form>
free base

>  <CAS>
57-57-8

>  <URL>
https://www.selleckchem.com/products/propiolactone.html

$$$$
