Protriptyline hydrochloride
 OpenBabel08302521223D

 41 43  0  0  0  0  0  0  0  0999 V2000
   -0.0507    1.0129    1.0475 C   0  0  3  0  0  0  0  0  0  0  0  0
   -1.2887    0.5997    0.2442 C   0  0  0  0  0  0  0  0  0  0  0  0
    1.2436    0.6311    0.3145 C   0  0  0  0  0  0  0  0  0  0  0  0
   -0.0630    2.4740    1.5900 C   0  0  0  0  0  0  0  0  0  0  0  0
   -1.5801   -0.7699    0.0590 C   0  0  0  0  0  0  0  0  0  0  0  0
   -2.1825    1.5438   -0.2959 C   0  0  0  0  0  0  0  0  0  0  0  0
    1.5398   -0.7301    0.0712 C   0  0  0  0  0  0  0  0  0  0  0  0
    2.1861    1.5976   -0.0928 C   0  0  0  0  0  0  0  0  0  0  0  0
   -1.2001    2.8343    2.5663 C   0  0  0  0  0  0  0  0  0  0  0  0
   -0.6828   -1.8540    0.4895 C   0  0  0  0  0  0  0  0  0  0  0  0
   -2.7950   -1.1488   -0.5392 C   0  0  0  0  0  0  0  0  0  0  0  0
   -3.3852    1.1539   -0.8882 C   0  0  0  0  0  0  0  0  0  0  0  0
    0.6598   -1.8380    0.4830 C   0  0  0  0  0  0  0  0  0  0  0  0
    2.7622   -1.0788   -0.5322 C   0  0  0  0  0  0  0  0  0  0  0  0
    3.3952    1.2315   -0.6888 C   0  0  0  0  0  0  0  0  0  0  0  0
   -1.2748    2.0017    3.8486 C   0  0  0  0  0  0  0  0  0  0  0  0
   -3.7012   -0.1929   -0.9934 C   0  0  0  0  0  0  0  0  0  0  0  0
    3.6830   -0.1079   -0.9091 C   0  0  0  0  0  0  0  0  0  0  0  0
   -0.0613    2.1534    4.6491 N   0  0  0  0  0  0  0  0  0  0  0  0
   -0.1542    1.3922    5.8867 C   0  0  0  0  0  0  0  0  0  0  0  0
   -0.0494    0.3993    1.9597 H   0  0  0  0  0  0  0  0  0  0  0  0
    0.8866    2.6734    2.1033 H   0  0  0  0  0  0  0  0  0  0  0  0
   -0.0961    3.1866    0.7557 H   0  0  0  0  0  0  0  0  0  0  0  0
   -1.9765    2.6089   -0.2416 H   0  0  0  0  0  0  0  0  0  0  0  0
    2.0095    2.6586    0.0612 H   0  0  0  0  0  0  0  0  0  0  0  0
   -1.0846    3.8923    2.8377 H   0  0  0  0  0  0  0  0  0  0  0  0
   -2.1711    2.7699    2.0657 H   0  0  0  0  0  0  0  0  0  0  0  0
   -1.1773   -2.7761    0.7892 H   0  0  0  0  0  0  0  0  0  0  0  0
   -3.0439   -2.2007   -0.6640 H   0  0  0  0  0  0  0  0  0  0  0  0
   -4.0773    1.9073   -1.2553 H   0  0  0  0  0  0  0  0  0  0  0  0
    1.1773   -2.7482    0.7818 H   0  0  0  0  0  0  0  0  0  0  0  0
    3.0024   -2.1264   -0.7187 H   0  0  0  0  0  0  0  0  0  0  0  0
    4.1128    1.9970   -0.9739 H   0  0  0  0  0  0  0  0  0  0  0  0
   -2.1387    2.3555    4.4254 H   0  0  0  0  0  0  0  0  0  0  0  0
   -1.4580    0.9488    3.6077 H   0  0  0  0  0  0  0  0  0  0  0  0
   -4.6422   -0.5003   -1.4409 H   0  0  0  0  0  0  0  0  0  0  0  0
    4.6236   -0.3962   -1.3712 H   0  0  0  0  0  0  0  0  0  0  0  0
    0.7456    1.8231    4.1215 H   0  0  0  0  0  0  0  0  0  0  0  0
   -0.2517    0.3200    5.6888 H   0  0  0  0  0  0  0  0  0  0  0  0
    0.7555    1.5462    6.4749 H   0  0  0  0  0  0  0  0  0  0  0  0
   -1.0010    1.7246    6.4957 H   0  0  0  0  0  0  0  0  0  0  0  0
  1  2  1  0  0  0  0
  1  3  1  0  0  0  0
  1  4  1  0  0  0  0
  1 21  1  0  0  0  0
  2  5  2  0  0  0  0
  2  6  1  0  0  0  0
  3  7  2  0  0  0  0
  3  8  1  0  0  0  0
  4  9  1  0  0  0  0
  4 22  1  0  0  0  0
  4 23  1  0  0  0  0
  5 10  1  0  0  0  0
  5 11  1  0  0  0  0
  6 12  2  0  0  0  0
  6 24  1  0  0  0  0
  7 13  1  0  0  0  0
  7 14  1  0  0  0  0
  8 15  2  0  0  0  0
  8 25  1  0  0  0  0
  9 16  1  0  0  0  0
  9 26  1  0  0  0  0
  9 27  1  0  0  0  0
 10 13  2  0  0  0  0
 10 28  1  0  0  0  0
 11 17  2  0  0  0  0
 11 29  1  0  0  0  0
 12 17  1  0  0  0  0
 12 30  1  0  0  0  0
 13 31  1  0  0  0  0
 14 18  2  0  0  0  0
 14 32  1  0  0  0  0
 15 18  1  0  0  0  0
 15 33  1  0  0  0  0
 16 19  1  0  0  0  0
 16 34  1  0  0  0  0
 16 35  1  0  0  0  0
 17 36  1  0  0  0  0
 18 37  1  0  0  0  0
 19 20  1  0  0  0  0
 19 38  1  0  0  0  0
 20 39  1  0  0  0  0
 20 40  1  0  0  0  0
 20 41  1  0  0  0  0
M  END
>  <Mol_ID>
4648

>  <Formula>
C19H22ClN

>  <MolWeight>
299.83768

>  <Cat>
S9510

>  <Name>
Protriptyline hydrochloride

>  <Synonyms>
N/A

>  <Target>
5-HT Receptor

>  <Form>
hydrochloride

>  <CAS>
1225-55-4

>  <URL>
http://www.selleckchem.com/products/protriptyline-hydrochloride.html

$$$$
