PRT-060318 (PRT318).cdx
 OpenBabel08302520003D

 49 51  0  0  0  0  0  0  0  0999 V2000
   -2.6974    5.8630    1.4354 N   0  0  0  0  0  0  0  0  0  0  0  0
   -2.8947    4.5485    1.4578 C   0  0  0  0  0  0  0  0  0  0  0  0
   -3.7214    3.9525    2.3195 N   0  0  0  0  0  0  0  0  0  0  0  0
   -4.4264    4.7580    3.1445 C   0  0  0  0  0  0  0  0  0  0  0  0
   -4.2989    6.1305    3.1847 C   0  0  0  0  0  0  0  0  0  0  0  0
   -3.3616    6.6558    2.3110 C   0  0  0  0  0  0  0  0  0  0  0  0
   -3.0558    8.0387    2.2830 N   0  0  0  0  0  0  0  0  0  0  0  0
   -1.8152    8.5900    1.8696 C   0  0  0  0  0  0  0  0  0  0  0  0
   -5.1196    6.8723    4.1685 C   0  0  0  0  0  0  0  0  0  0  0  0
   -4.9082    8.2113    4.3392 N   0  0  0  0  0  0  0  0  0  0  0  0
   -5.9735    6.2987    4.8376 O   0  0  0  0  0  0  0  0  0  0  0  0
   -2.1289    3.7124    0.6421 N   0  0  0  0  0  0  0  0  0  0  0  0
   -1.5623    4.3416   -0.5692 C   0  0  2  0  0  0  0  0  0  0  0  0
   -2.6613    4.6151   -1.6105 C   0  0  0  0  0  0  0  0  0  0  0  0
   -3.2293    3.3374   -2.2237 C   0  0  0  0  0  0  0  0  0  0  0  0
   -2.1413    2.4913   -2.8699 C   0  0  0  0  0  0  0  0  0  0  0  0
   -0.9928    2.1895   -1.9125 C   0  0  0  0  0  0  0  0  0  0  0  0
   -0.4492    3.4393   -1.1997 C   0  0  2  0  0  0  0  0  0  0  0  0
    0.5757    3.0277   -0.2154 N   0  0  0  0  0  0  0  0  0  0  0  0
   -0.6077    7.8893    2.0323 C   0  0  0  0  0  0  0  0  0  0  0  0
    0.6107    8.4527    1.6566 C   0  0  0  0  0  0  0  0  0  0  0  0
    0.6519    9.7477    1.1559 C   0  0  0  0  0  0  0  0  0  0  0  0
   -0.5253   10.4962    1.0418 C   0  0  0  0  0  0  0  0  0  0  0  0
   -1.7509    9.9137    1.4159 C   0  0  0  0  0  0  0  0  0  0  0  0
   -0.4858   11.9054    0.5330 C   0  0  0  0  0  0  0  0  0  0  0  0
   -5.1088    4.2311    3.8078 H   0  0  0  0  0  0  0  0  0  0  0  0
   -3.8477    8.5399    1.8849 H   0  0  0  0  0  0  0  0  0  0  0  0
   -5.4087    8.6516    5.1016 H   0  0  0  0  0  0  0  0  0  0  0  0
   -4.0556    8.6544    4.0168 H   0  0  0  0  0  0  0  0  0  0  0  0
   -1.3739    3.4506    1.2677 H   0  0  0  0  0  0  0  0  0  0  0  0
   -1.0781    5.2893   -0.2978 H   0  0  0  0  0  0  0  0  0  0  0  0
   -3.4822    5.1952   -1.1742 H   0  0  0  0  0  0  0  0  0  0  0  0
   -2.2394    5.2338   -2.4132 H   0  0  0  0  0  0  0  0  0  0  0  0
   -3.7469    2.7498   -1.4564 H   0  0  0  0  0  0  0  0  0  0  0  0
   -3.9791    3.5992   -2.9795 H   0  0  0  0  0  0  0  0  0  0  0  0
   -2.5741    1.5481   -3.2248 H   0  0  0  0  0  0  0  0  0  0  0  0
   -1.7543    3.0099   -3.7558 H   0  0  0  0  0  0  0  0  0  0  0  0
   -1.3261    1.4470   -1.1766 H   0  0  0  0  0  0  0  0  0  0  0  0
   -0.1843    1.7166   -2.4864 H   0  0  0  0  0  0  0  0  0  0  0  0
    0.0650    4.0468   -1.9572 H   0  0  0  0  0  0  0  0  0  0  0  0
    1.1799    2.3258   -0.6458 H   0  0  0  0  0  0  0  0  0  0  0  0
    0.1231    2.5294    0.5489 H   0  0  0  0  0  0  0  0  0  0  0  0
   -0.6028    6.8818    2.4356 H   0  0  0  0  0  0  0  0  0  0  0  0
    1.5267    7.8744    1.7595 H   0  0  0  0  0  0  0  0  0  0  0  0
    1.6089   10.1732    0.8615 H   0  0  0  0  0  0  0  0  0  0  0  0
   -2.6592   10.5065    1.3350 H   0  0  0  0  0  0  0  0  0  0  0  0
   -1.1227   12.0066   -0.3518 H   0  0  0  0  0  0  0  0  0  0  0  0
   -0.8307   12.5958    1.3093 H   0  0  0  0  0  0  0  0  0  0  0  0
    0.5296   12.2005    0.2481 H   0  0  0  0  0  0  0  0  0  0  0  0
  1  2  2  0  0  0  0
  2  3  1  0  0  0  0
  2 12  1  0  0  0  0
  3  4  2  0  0  0  0
  4  5  1  0  0  0  0
  4 26  1  0  0  0  0
  5  6  2  0  0  0  0
  5  9  1  0  0  0  0
  6  1  1  0  0  0  0
  6  7  1  0  0  0  0
  7  8  1  0  0  0  0
  7 27  1  0  0  0  0
  8 20  2  0  0  0  0
  9 10  1  0  0  0  0
  9 11  2  0  0  0  0
 10 28  1  0  0  0  0
 10 29  1  0  0  0  0
 12 30  1  0  0  0  0
 13 14  1  0  0  0  0
 13 31  1  1  0  0  0
 13 12  1  0  0  0  0
 14 15  1  0  0  0  0
 14 32  1  0  0  0  0
 14 33  1  0  0  0  0
 15 16  1  0  0  0  0
 15 34  1  0  0  0  0
 15 35  1  0  0  0  0
 16 17  1  0  0  0  0
 16 36  1  0  0  0  0
 16 37  1  0  0  0  0
 17 18  1  0  0  0  0
 17 38  1  0  0  0  0
 17 39  1  0  0  0  0
 18 13  1  0  0  0  0
 18 40  1  6  0  0  0
 18 19  1  0  0  0  0
 19 41  1  0  0  0  0
 19 42  1  0  0  0  0
 20 21  1  0  0  0  0
 20 43  1  0  0  0  0
 21 22  2  0  0  0  0
 21 44  1  0  0  0  0
 22 23  1  0  0  0  0
 22 45  1  0  0  0  0
 23 24  2  0  0  0  0
 23 25  1  0  0  0  0
 24  8  1  0  0  0  0
 24 46  1  0  0  0  0
 25 47  1  0  0  0  0
 25 48  1  0  0  0  0
 25 49  1  0  0  0  0
M  END
>  <Mol_ID>
2736

>  <Formula>
C18H26Cl2N6O

>  <MolWeight>
413.34464

>  <Cat>
S7738

>  <Name>
PRT-060318 2HCl

>  <Synonyms>
PRT318

>  <Target>
Syk

>  <Form>
Dihydrochloride

>  <CAS>
1194961-19-7 (free base)

>  <URL>
http://selleckchem.com/products/prt-060318-prt318-3hcl.html

$$$$
