PRT543
 OpenBabel08302521353D

 43 46  0  0  1  0  0  0  0  0999 V2000
   -1.8602    0.9646    0.1054 O   0  0  0  0  0  0  0  0  0  0  0  0
    1.9250   -0.9653   -1.8162 C   0  0  1  0  0  0  0  0  0  0  0  0
    1.5063    0.0703   -2.6878 O   0  0  0  0  0  0  0  0  0  0  0  0
   -0.6833   -1.1956    0.9841 O   0  0  0  0  0  0  0  0  0  0  0  0
    3.2459    6.3115   -1.9052 N   0  0  0  0  0  0  0  0  0  0  0  0
    0.9329    2.7087    0.0275 N   0  0  0  0  0  0  0  0  0  0  0  0
    1.4255    3.2035   -1.1559 C   0  0  0  0  0  0  0  0  0  0  0  0
    0.9767    3.7126    0.9749 C   0  0  0  0  0  0  0  0  0  0  0  0
    1.9313    4.4753   -0.9264 C   0  0  0  0  0  0  0  0  0  0  0  0
    1.4716    2.5507   -2.3264 N   0  0  0  0  0  0  0  0  0  0  0  0
    1.6201    4.7989    0.4208 C   0  0  0  0  0  0  0  0  0  0  0  0
    2.5990    5.0894   -1.9984 C   0  0  0  0  0  0  0  0  0  0  0  0
    2.0749    3.2631   -3.2923 C   0  0  0  0  0  0  0  0  0  0  0  0
    2.6455    4.4702   -3.1897 N   0  0  0  0  0  0  0  0  0  0  0  0
    0.5692    1.3283    0.3268 C   0  0  2  0  0  0  0  0  0  0  0  0
    1.7358    0.4754    0.1587 O   0  0  0  0  0  0  0  0  0  0  0  0
   -0.5755    0.6977   -0.4672 C   0  0  1  0  0  0  0  0  0  0  0  0
    1.3077   -0.8008   -0.4062 C   0  0  1  0  0  0  0  0  0  0  0  0
   -0.2204   -0.7799   -0.3291 C   0  0  1  0  0  0  0  0  0  0  0  0
    1.5923   -2.2672   -2.5101 C   0  0  0  0  0  0  0  0  0  0  0  0
    2.2878   -3.4430   -2.2049 C   0  0  0  0  0  0  0  0  0  0  0  0
    0.6048   -2.3125   -3.5138 C   0  0  0  0  0  0  0  0  0  0  0  0
    1.9925   -4.6302   -2.8808 C   0  0  0  0  0  0  0  0  0  0  0  0
    0.3127   -3.4945   -4.1864 C   0  0  0  0  0  0  0  0  0  0  0  0
    1.0039   -4.6560   -3.8656 C   0  0  0  0  0  0  0  0  0  0  0  0
   -2.0304    0.2271    0.7291 H   0  0  0  0  0  0  0  0  0  0  0  0
    3.0160   -0.8708   -1.7382 H   0  0  0  0  0  0  0  0  0  0  0  0
    1.7776    0.9192   -2.2834 H   0  0  0  0  0  0  0  0  0  0  0  0
    0.0863   -1.3408    1.5653 H   0  0  0  0  0  0  0  0  0  0  0  0
    2.8869    6.9462   -1.2088 H   0  0  0  0  0  0  0  0  0  0  0  0
    3.4427    6.6881   -2.8247 H   0  0  0  0  0  0  0  0  0  0  0  0
    0.5903    3.5564    1.9744 H   0  0  0  0  0  0  0  0  0  0  0  0
    1.8521    5.7234    0.9312 H   0  0  0  0  0  0  0  0  0  0  0  0
    2.1204    2.7871   -4.2709 H   0  0  0  0  0  0  0  0  0  0  0  0
    0.3211    1.3061    1.3970 H   0  0  0  0  0  0  0  0  0  0  0  0
   -0.5904    1.0082   -1.5136 H   0  0  0  0  0  0  0  0  0  0  0  0
    1.7172   -1.5821    0.2455 H   0  0  0  0  0  0  0  0  0  0  0  0
   -0.7319   -1.4229   -1.0479 H   0  0  0  0  0  0  0  0  0  0  0  0
    3.0815   -3.4412   -1.4617 H   0  0  0  0  0  0  0  0  0  0  0  0
    0.0701   -1.4074   -3.8001 H   0  0  0  0  0  0  0  0  0  0  0  0
    2.5451   -5.5375   -2.6519 H   0  0  0  0  0  0  0  0  0  0  0  0
   -0.4423   -3.4967   -4.9684 H   0  0  0  0  0  0  0  0  0  0  0  0
    0.7820   -5.5780   -4.3943 H   0  0  0  0  0  0  0  0  0  0  0  0
  1 26  1  0  0  0  0
  2 27  1  1  0  0  0
  2 20  1  0  0  0  0
  2  3  1  0  0  0  0
  3 28  1  0  0  0  0
  4 29  1  0  0  0  0
  5 12  1  0  0  0  0
  5 30  1  0  0  0  0
  5 31  1  0  0  0  0
  6  7  1  0  0  0  0
  6  8  1  0  0  0  0
  7  9  2  0  0  0  0
  7 10  1  0  0  0  0
  8 11  2  0  0  0  0
  8 32  1  0  0  0  0
  9 11  1  0  0  0  0
  9 12  1  0  0  0  0
 10 13  2  0  0  0  0
 11 33  1  0  0  0  0
 12 14  2  0  0  0  0
 13 14  1  0  0  0  0
 13 34  1  0  0  0  0
 15 16  1  0  0  0  0
 15 17  1  0  0  0  0
 15 35  1  1  0  0  0
 15  6  1  0  0  0  0
 17  1  1  0  0  0  0
 17 19  1  0  0  0  0
 17 36  1  6  0  0  0
 18 16  1  0  0  0  0
 18 19  1  0  0  0  0
 18 37  1  1  0  0  0
 18  2  1  0  0  0  0
 19  4  1  0  0  0  0
 19 38  1  6  0  0  0
 20 21  2  0  0  0  0
 20 22  1  0  0  0  0
 21 23  1  0  0  0  0
 21 39  1  0  0  0  0
 22 24  2  0  0  0  0
 22 40  1  0  0  0  0
 23 25  2  0  0  0  0
 23 41  1  0  0  0  0
 24 25  1  0  0  0  0
 24 42  1  0  0  0  0
 25 43  1  0  0  0  0
M  END
>  <Mol_ID>
6963

>  <Formula>
C17H17ClN4O4

>  <MolWeight>
376.79428

>  <Cat>
E1658

>  <Name>
PRT543

>  <Target>
PRMT

>  <Form>
free base

>  <CAS>
1989620-03-2

>  <URL>
https://www.selleckchem.com/products/prt543.html

$$$$
