Prucalopride.cdx
 OpenBabel08302519513D

 51 53  0  0  0  0  0  0  0  0999 V2000
   -0.3245    2.9213    2.5836 C   0  0  0  0  0  0  0  0  0  0  0  0
   -1.5159    2.6021    3.2097 C   0  0  0  0  0  0  0  0  0  0  0  0
   -0.0486    3.1923    1.1387 C   0  0  0  0  0  0  0  0  0  0  0  0
   -1.5579    2.1858    4.5506 C   0  0  0  0  0  0  0  0  0  0  0  0
    0.8150    2.9357    3.4256 C   0  0  0  0  0  0  0  0  0  0  0  0
   -0.4258    2.1252    5.3506 C   0  0  0  0  0  0  0  0  0  0  0  0
    0.7570    2.5857    4.7867 C   0  0  0  0  0  0  0  0  0  0  0  0
   -0.9004    3.1574    0.0741 N   0  0  0  0  0  0  0  0  0  0  0  0
   -2.8598    1.2353   -2.4608 N   0  0  0  0  0  0  0  0  0  0  0  0
   -2.7632    2.6439    2.6534 O   0  0  0  0  0  0  0  0  0  0  0  0
    1.1258    3.4417    0.8224 O   0  0  0  0  0  0  0  0  0  0  0  0
   -2.3448    3.0787   -0.1691 C   0  0  0  0  0  0  0  0  0  0  0  0
   -0.5009    1.8467    6.7160 N   0  0  0  0  0  0  0  0  0  0  0  0
   -2.9251    1.6727   -0.0285 C   0  0  0  0  0  0  0  0  0  0  0  0
   -2.6618    3.5772   -1.5959 C   0  0  0  0  0  0  0  0  0  0  0  0
   -2.4678    0.7377   -1.1357 C   0  0  0  0  0  0  0  0  0  0  0  0
   -2.2678    2.5659   -2.6881 C   0  0  0  0  0  0  0  0  0  0  0  0
   -2.9288    1.7370    4.8902 C   0  0  0  0  0  0  0  0  0  0  0  0
   -3.6905    2.2576    3.6829 C   0  0  0  0  0  0  0  0  0  0  0  0
   -2.4341    0.2894   -3.5217 C   0  0  0  0  0  0  0  0  0  0  0  0
   -3.1328   -1.0795   -3.4154 C   0  0  0  0  0  0  0  0  0  0  0  0
   -1.3135   -2.2950   -4.4180 O   0  0  0  0  0  0  0  0  0  0  0  0
   -2.7163   -2.0510   -4.5148 C   0  0  0  0  0  0  0  0  0  0  0  0
   -0.8717   -3.2277   -5.3936 C   0  0  0  0  0  0  0  0  0  0  0  0
    1.7872    3.2200    3.0235 H   0  0  0  0  0  0  0  0  0  0  0  0
    1.6651    2.6469    5.3826 H   0  0  0  0  0  0  0  0  0  0  0  0
   -0.3438    3.3316   -0.7578 H   0  0  0  0  0  0  0  0  0  0  0  0
   -2.8172    3.7634    0.5422 H   0  0  0  0  0  0  0  0  0  0  0  0
   -1.2644    1.2326    6.9791 H   0  0  0  0  0  0  0  0  0  0  0  0
    0.3806    1.5582    7.1295 H   0  0  0  0  0  0  0  0  0  0  0  0
   -2.6539    1.1990    0.9159 H   0  0  0  0  0  0  0  0  0  0  0  0
   -4.0213    1.7420   -0.0482 H   0  0  0  0  0  0  0  0  0  0  0  0
   -3.7391    3.7760   -1.6739 H   0  0  0  0  0  0  0  0  0  0  0  0
   -2.1524    4.5301   -1.7864 H   0  0  0  0  0  0  0  0  0  0  0  0
   -1.3838    0.5806   -1.0746 H   0  0  0  0  0  0  0  0  0  0  0  0
   -2.9495   -0.2224   -0.9270 H   0  0  0  0  0  0  0  0  0  0  0  0
   -2.6145    2.9597   -3.6521 H   0  0  0  0  0  0  0  0  0  0  0  0
   -1.1735    2.4986   -2.7477 H   0  0  0  0  0  0  0  0  0  0  0  0
   -2.9659    0.6421    4.9291 H   0  0  0  0  0  0  0  0  0  0  0  0
   -3.3143    2.1494    5.8260 H   0  0  0  0  0  0  0  0  0  0  0  0
   -4.3613    1.4939    3.2788 H   0  0  0  0  0  0  0  0  0  0  0  0
   -4.2968    3.1339    3.9433 H   0  0  0  0  0  0  0  0  0  0  0  0
   -2.6890    0.7180   -4.4987 H   0  0  0  0  0  0  0  0  0  0  0  0
   -1.3446    0.1621   -3.5009 H   0  0  0  0  0  0  0  0  0  0  0  0
   -2.8802   -1.5571   -2.4635 H   0  0  0  0  0  0  0  0  0  0  0  0
   -4.2196   -0.9440   -3.4440 H   0  0  0  0  0  0  0  0  0  0  0  0
   -3.2529   -2.9956   -4.3730 H   0  0  0  0  0  0  0  0  0  0  0  0
   -2.9606   -1.6465   -5.5027 H   0  0  0  0  0  0  0  0  0  0  0  0
   -1.4158   -4.1735   -5.3001 H   0  0  0  0  0  0  0  0  0  0  0  0
   -0.9985   -2.8171   -6.3977 H   0  0  0  0  0  0  0  0  0  0  0  0
    0.1926   -3.4225   -5.2264 H   0  0  0  0  0  0  0  0  0  0  0  0
  2  1  1  0  0  0  0
  3  1  1  0  0  0  0
  4  2  2  0  0  0  0
  5  1  2  0  0  0  0
  5 25  1  0  0  0  0
  6  4  1  0  0  0  0
  6  7  2  0  0  0  0
  7  5  1  0  0  0  0
  7 26  1  0  0  0  0
  8  3  1  0  0  0  0
  8 27  1  0  0  0  0
  9 17  1  0  0  0  0
  9 16  1  0  0  0  0
 10  2  1  0  0  0  0
 11  3  2  0  0  0  0
 12  8  1  0  0  0  0
 12 28  1  0  0  0  0
 13  6  1  0  0  0  0
 13 29  1  0  0  0  0
 13 30  1  0  0  0  0
 14 12  1  0  0  0  0
 14 31  1  0  0  0  0
 14 32  1  0  0  0  0
 15 12  1  0  0  0  0
 15 33  1  0  0  0  0
 15 34  1  0  0  0  0
 16 14  1  0  0  0  0
 16 35  1  0  0  0  0
 16 36  1  0  0  0  0
 17 15  1  0  0  0  0
 17 37  1  0  0  0  0
 17 38  1  0  0  0  0
 18  4  1  0  0  0  0
 18 39  1  0  0  0  0
 18 40  1  0  0  0  0
 19 10  1  0  0  0  0
 19 18  1  0  0  0  0
 19 41  1  0  0  0  0
 19 42  1  0  0  0  0
 20  9  1  0  0  0  0
 20 43  1  0  0  0  0
 20 44  1  0  0  0  0
 21 20  1  0  0  0  0
 21 45  1  0  0  0  0
 21 46  1  0  0  0  0
 22 23  1  0  0  0  0
 23 21  1  0  0  0  0
 23 47  1  0  0  0  0
 23 48  1  0  0  0  0
 24 22  1  0  0  0  0
 24 49  1  0  0  0  0
 24 50  1  0  0  0  0
 24 51  1  0  0  0  0
M  END
>  <Mol_ID>
192

>  <Formula>
C18H26ClN3O3

>  <MolWeight>
367.87034

>  <Cat>
S2875

>  <Name>
Prucalopride

>  <Synonyms>
R-93877

>  <Target>
5-HT Receptor

>  <Form>
Free Base

>  <CAS>
179474-81-8

>  <URL>
http://selleckchem.com/products/prucalopride.html

$$$$
