Prucalopride succinat.cdx
 OpenBabel08302522053D

 65 66  0  0  0  0  0  0  0  0999 V2000
    0.9991    0.3552    1.3203 C   0  0  0  0  0  0  0  0  0  0  0  0
    0.1432    0.4444   -0.6903 C   0  0  0  0  0  0  0  0  0  0  0  0
   -0.0657   -0.6069   -1.9789 C   0  0  0  0  0  0  0  0  0  0  0  0
   -0.9339    0.0184   -3.0613 C   0  0  0  0  0  0  0  0  0  0  0  0
    0.4818    0.0715    2.4298 O   0  0  0  0  0  0  0  0  0  0  0  0
    2.3541    0.5116    1.7164 O   0  0  0  0  0  0  0  0  0  0  0  0
   -1.3421    1.1633   -3.1346 O   0  0  0  0  0  0  0  0  0  0  0  0
   -1.2631   -0.8925   -3.9991 O   0  0  0  0  0  0  0  0  0  0  0  0
   -1.8718   -1.4602    1.0018 O   0  0  0  0  0  0  0  0  0  0  0  0
   -2.8358   -0.4514    1.4851 C   0  0  0  0  0  0  0  0  0  0  0  0
   -2.4703    1.0466    1.2401 C   0  0  0  0  0  0  0  0  0  0  0  0
   -1.0159    0.9527    1.0336 C   0  0  0  0  0  0  0  0  0  0  0  0
   -0.6925   -0.8034    0.7816 C   0  0  0  0  0  0  0  0  0  0  0  0
    0.2182    2.1726    0.5815 C   0  0  0  0  0  0  0  0  0  0  0  0
    1.7727    1.6443   -0.1715 C   0  0  0  0  0  0  0  0  0  0  0  0
    2.0903   -0.1422   -0.4147 C   0  0  0  0  0  0  0  0  0  0  0  0
    0.8926   -1.3872    0.1575 C   0  0  0  0  0  0  0  0  0  0  0  0
    1.3654   -2.8440    0.0819 C   0  0  0  0  0  0  0  0  0  0  0  0
    0.5879   -3.7780    0.0629 O   0  0  0  0  0  0  0  0  0  0  0  0
    2.7536   -2.9613    0.0529 N   0  0  0  0  0  0  0  0  0  0  0  0
    3.2778   -7.0134    0.8146 N   0  0  0  0  0  0  0  0  0  0  0  0
    3.2515   -6.5757   -0.5939 C   0  0  0  0  0  0  0  0  0  0  0  0
    3.8437   -5.1825   -0.9042 C   0  0  0  0  0  0  0  0  0  0  0  0
    3.7100   -4.0992    0.1772 C   0  0  0  0  0  0  0  0  0  0  0  0
    3.7995   -4.7046    1.5674 C   0  0  0  0  0  0  0  0  0  0  0  0
    2.8848   -5.9095    1.7133 C   0  0  0  0  0  0  0  0  0  0  0  0
    2.3453   -8.1520    1.0462 C   0  0  0  0  0  0  0  0  0  0  0  0
    2.7892   -9.5341    0.5279 C   0  0  0  0  0  0  0  0  0  0  0  0
    1.7485  -10.6001    0.9163 C   0  0  0  0  0  0  0  0  0  0  0  0
    2.1397  -11.9370    0.6012 O   0  0  0  0  0  0  0  0  0  0  0  0
    2.1201  -12.2436   -0.7848 C   0  0  0  0  0  0  0  0  0  0  0  0
   -0.1620    3.5220    0.4580 N   0  0  0  0  0  0  0  0  0  0  0  0
   -0.9274    0.7580   -0.7979 H   0  0  0  0  0  0  0  0  0  0  0  0
    0.4164    1.2933   -1.3797 H   0  0  0  0  0  0  0  0  0  0  0  0
    0.8884   -0.8589   -2.4524 H   0  0  0  0  0  0  0  0  0  0  0  0
   -0.6189   -1.5039   -1.6805 H   0  0  0  0  0  0  0  0  0  0  0  0
    3.1029    0.8334    1.1922 H   0  0  0  0  0  0  0  0  0  0  0  0
   -1.9287   -0.4499   -4.5653 H   0  0  0  0  0  0  0  0  0  0  0  0
   -3.7913   -0.6607    0.9880 H   0  0  0  0  0  0  0  0  0  0  0  0
   -2.9952   -0.6224    2.5567 H   0  0  0  0  0  0  0  0  0  0  0  0
   -2.9520    1.4060    0.3232 H   0  0  0  0  0  0  0  0  0  0  0  0
   -2.7610    1.6919    2.0739 H   0  0  0  0  0  0  0  0  0  0  0  0
    2.4581    2.3889   -0.5813 H   0  0  0  0  0  0  0  0  0  0  0  0
    2.9998   -0.4450   -0.9305 H   0  0  0  0  0  0  0  0  0  0  0  0
    3.2080   -2.1133    0.3518 H   0  0  0  0  0  0  0  0  0  0  0  0
    2.2372   -6.6118   -1.0024 H   0  0  0  0  0  0  0  0  0  0  0  0
    3.8443   -7.3064   -1.1652 H   0  0  0  0  0  0  0  0  0  0  0  0
    3.5008   -4.8277   -1.8816 H   0  0  0  0  0  0  0  0  0  0  0  0
    4.9282   -5.3512   -1.0212 H   0  0  0  0  0  0  0  0  0  0  0  0
    4.6468   -3.5297    0.0651 H   0  0  0  0  0  0  0  0  0  0  0  0
    4.8368   -5.0335    1.7347 H   0  0  0  0  0  0  0  0  0  0  0  0
    3.5877   -3.9558    2.3377 H   0  0  0  0  0  0  0  0  0  0  0  0
    2.9696   -6.2502    2.7526 H   0  0  0  0  0  0  0  0  0  0  0  0
    1.8435   -5.6162    1.5448 H   0  0  0  0  0  0  0  0  0  0  0  0
    2.2037   -8.2651    2.1297 H   0  0  0  0  0  0  0  0  0  0  0  0
    1.3558   -7.9115    0.6347 H   0  0  0  0  0  0  0  0  0  0  0  0
    2.9190   -9.5249   -0.5590 H   0  0  0  0  0  0  0  0  0  0  0  0
    3.7588   -9.8123    0.9584 H   0  0  0  0  0  0  0  0  0  0  0  0
    1.6063  -10.5842    2.0033 H   0  0  0  0  0  0  0  0  0  0  0  0
    0.7698  -10.3878    0.4691 H   0  0  0  0  0  0  0  0  0  0  0  0
    1.2777  -11.7716   -1.2994 H   0  0  0  0  0  0  0  0  0  0  0  0
    3.0650  -11.9405   -1.2423 H   0  0  0  0  0  0  0  0  0  0  0  0
    2.0220  -13.3290   -0.8932 H   0  0  0  0  0  0  0  0  0  0  0  0
   -0.8268    3.6544   -0.3031 H   0  0  0  0  0  0  0  0  0  0  0  0
    0.6362    4.1395    0.3335 H   0  0  0  0  0  0  0  0  0  0  0  0
  1  2  1  0  0  0  0
  1  5  2  0  0  0  0
  1  6  1  0  0  0  0
  2  3  1  0  0  0  0
  2 33  1  0  0  0  0
  2 34  1  0  0  0  0
  3  4  1  0  0  0  0
  3 35  1  0  0  0  0
  3 36  1  0  0  0  0
  4  7  2  0  0  0  0
  4  8  1  0  0  0  0
  6 37  1  0  0  0  0
  8 38  1  0  0  0  0
  9 10  1  0  0  0  0
  9 13  1  0  0  0  0
 10 11  1  0  0  0  0
 10 39  1  0  0  0  0
 10 40  1  0  0  0  0
 11 12  1  0  0  0  0
 11 41  1  0  0  0  0
 11 42  1  0  0  0  0
 12 13  2  0  0  0  0
 12 14  1  0  0  0  0
 13 17  1  0  0  0  0
 14 15  2  0  0  0  0
 14 32  1  0  0  0  0
 15 16  1  0  0  0  0
 15 43  1  0  0  0  0
 16 17  2  0  0  0  0
 16 44  1  0  0  0  0
 17 18  1  0  0  0  0
 18 19  2  0  0  0  0
 18 20  1  0  0  0  0
 20 24  1  0  0  0  0
 20 45  1  0  0  0  0
 21 22  1  0  0  0  0
 21 26  1  0  0  0  0
 21 27  1  0  0  0  0
 22 23  1  0  0  0  0
 22 46  1  0  0  0  0
 22 47  1  0  0  0  0
 23 24  1  0  0  0  0
 23 48  1  0  0  0  0
 23 49  1  0  0  0  0
 24 25  1  0  0  0  0
 24 50  1  0  0  0  0
 25 26  1  0  0  0  0
 25 51  1  0  0  0  0
 25 52  1  0  0  0  0
 26 53  1  0  0  0  0
 26 54  1  0  0  0  0
 27 28  1  0  0  0  0
 27 55  1  0  0  0  0
 27 56  1  0  0  0  0
 28 29  1  0  0  0  0
 28 57  1  0  0  0  0
 28 58  1  0  0  0  0
 29 30  1  0  0  0  0
 29 59  1  0  0  0  0
 29 60  1  0  0  0  0
 30 31  1  0  0  0  0
 31 61  1  0  0  0  0
 31 62  1  0  0  0  0
 31 63  1  0  0  0  0
 32 64  1  0  0  0  0
 32 65  1  0  0  0  0
M  END
>  <Mol_ID>
1364

>  <Formula>
C22H32ClN3O7

>  <MolWeight>
485.95838

>  <Cat>
S4247

>  <Name>
Prucalopride Succinate

>  <Synonyms>
R-108512

>  <Target>
5-HT Receptor

>  <Form>
Succinat

>  <CAS>
179474-85-2

>  <URL>
http://selleckchem.com/products/prucalopride-succinat.html

$$$$
