Prudomestin
 OpenBabel08302521493D

 38 40  0  0  0  0  0  0  0  0999 V2000
    1.1286    0.1284   -0.1438 O   0  0  0  0  0  0  0  0  0  0  0  0
    0.3055   -1.0295   -0.1286 C   0  0  0  0  0  0  0  0  0  0  0  0
    6.5393    2.6012    0.0194 O   0  0  0  0  0  0  0  0  0  0  0  0
    6.6667   -0.0695   -0.0688 O   0  0  0  0  0  0  0  0  0  0  0  0
    2.5678   -2.4424   -0.1387 O   0  0  0  0  0  0  0  0  0  0  0  0
    5.1115    4.9556   -0.1238 O   0  0  0  0  0  0  0  0  0  0  0  0
   -0.5575    7.8329   -0.3718 O   0  0  0  0  0  0  0  0  0  0  0  0
   -1.0254    8.3546   -1.6095 C   0  0  0  0  0  0  0  0  0  0  0  0
    3.2200    1.1891   -0.1197 C   0  0  0  0  0  0  0  0  0  0  0  0
    4.6183    1.1962   -0.0882 C   0  0  0  0  0  0  0  0  0  0  0  0
    2.4927   -0.0244   -0.1276 C   0  0  0  0  0  0  0  0  0  0  0  0
    2.4824    2.3533   -0.1501 O   0  0  0  0  0  0  0  0  0  0  0  0
    5.3202    2.5030   -0.0591 C   0  0  0  0  0  0  0  0  0  0  0  0
    5.3024   -0.0261   -0.0814 C   0  0  0  0  0  0  0  0  0  0  0  0
    3.2050   -1.2319   -0.1201 C   0  0  0  0  0  0  0  0  0  0  0  0
    3.1366    3.5683   -0.1733 C   0  0  0  0  0  0  0  0  0  0  0  0
    4.4714    3.7287   -0.1229 C   0  0  0  0  0  0  0  0  0  0  0  0
    4.6015   -1.2326   -0.0983 C   0  0  0  0  0  0  0  0  0  0  0  0
    2.2075    4.7049   -0.2581 C   0  0  0  0  0  0  0  0  0  0  0  0
    1.8615    5.2489   -1.5012 C   0  0  0  0  0  0  0  0  0  0  0  0
    1.6485    5.2476    0.9021 C   0  0  0  0  0  0  0  0  0  0  0  0
    0.9400    6.3010   -1.5868 C   0  0  0  0  0  0  0  0  0  0  0  0
    0.7323    6.2994    0.8124 C   0  0  0  0  0  0  0  0  0  0  0  0
    0.3636    6.8239   -0.4293 C   0  0  0  0  0  0  0  0  0  0  0  0
    0.4436   -1.6253   -1.0365 H   0  0  0  0  0  0  0  0  0  0  0  0
    0.4607   -1.6199    0.7804 H   0  0  0  0  0  0  0  0  0  0  0  0
   -0.7373   -0.6969   -0.1190 H   0  0  0  0  0  0  0  0  0  0  0  0
    6.9923   -0.9813   -0.0292 H   0  0  0  0  0  0  0  0  0  0  0  0
    3.2180   -3.1636   -0.1551 H   0  0  0  0  0  0  0  0  0  0  0  0
    4.4488    5.6660   -0.0917 H   0  0  0  0  0  0  0  0  0  0  0  0
   -0.2055    8.7821   -2.1954 H   0  0  0  0  0  0  0  0  0  0  0  0
   -1.5646    7.5913   -2.1805 H   0  0  0  0  0  0  0  0  0  0  0  0
   -1.7281    9.1637   -1.3867 H   0  0  0  0  0  0  0  0  0  0  0  0
    5.1457   -2.1718   -0.0961 H   0  0  0  0  0  0  0  0  0  0  0  0
    2.2931    4.8471   -2.4161 H   0  0  0  0  0  0  0  0  0  0  0  0
    1.9066    4.8484    1.8804 H   0  0  0  0  0  0  0  0  0  0  0  0
    0.6886    6.6801   -2.5719 H   0  0  0  0  0  0  0  0  0  0  0  0
    0.2888    6.7047    1.7190 H   0  0  0  0  0  0  0  0  0  0  0  0
  1  2  1  0  0  0  0
  1 11  1  0  0  0  0
  2 25  1  0  0  0  0
  2 26  1  0  0  0  0
  2 27  1  0  0  0  0
  3 13  2  0  0  0  0
  4 14  1  0  0  0  0
  4 28  1  0  0  0  0
  5 15  1  0  0  0  0
  5 29  1  0  0  0  0
  6 17  1  0  0  0  0
  6 30  1  0  0  0  0
  7  8  1  0  0  0  0
  7 24  1  0  0  0  0
  8 31  1  0  0  0  0
  8 32  1  0  0  0  0
  8 33  1  0  0  0  0
  9 10  1  0  0  0  0
  9 11  2  0  0  0  0
  9 12  1  0  0  0  0
 10 13  1  0  0  0  0
 10 14  2  0  0  0  0
 11 15  1  0  0  0  0
 12 16  1  0  0  0  0
 13 17  1  0  0  0  0
 14 18  1  0  0  0  0
 15 18  2  0  0  0  0
 16 17  2  0  0  0  0
 16 19  1  0  0  0  0
 18 34  1  0  0  0  0
 19 20  2  0  0  0  0
 19 21  1  0  0  0  0
 20 22  1  0  0  0  0
 20 35  1  0  0  0  0
 21 23  2  0  0  0  0
 21 36  1  0  0  0  0
 22 24  2  0  0  0  0
 22 37  1  0  0  0  0
 23 24  1  0  0  0  0
 23 38  1  0  0  0  0
M  END
>  <Mol_ID>
9855

>  <Formula>
C17H14O7

>  <MolWeight>
330.28886

>  <Cat>
E2557

>  <Name>
Prudomestin

>  <Synonyms>
NA

>  <Target>
xanthine oxidase?(XO)

>  <Form>
Free Base

>  <CAS>
3443-28-5

>  <URL>
https://www.selleckchem.com/products/prudomestin.html

$$$$
