Prulifloxacin (NM441)
 OpenBabel08302520303D

 52 56  0  0  0  0  0  0  0  0999 V2000
   -0.9211    1.2933   -0.6187 C   0  0  0  0  0  0  0  0  0  0  0  0
   -2.0058    0.5723   -0.0726 C   0  0  0  0  0  0  0  0  0  0  0  0
   -1.8231   -0.8229    0.1077 C   0  0  0  0  0  0  0  0  0  0  0  0
   -0.7084   -1.4925   -0.4424 C   0  0  0  0  0  0  0  0  0  0  0  0
    0.2706   -0.7292   -1.1032 C   0  0  0  0  0  0  0  0  0  0  0  0
    0.2229    0.6629   -1.1037 C   0  0  0  0  0  0  0  0  0  0  0  0
   -0.7448   -2.8882   -0.7073 N   0  0  0  0  0  0  0  0  0  0  0  0
   -0.0943   -3.3805   -1.7315 C   0  0  0  0  0  0  0  0  0  0  0  0
    0.8911   -2.8203   -2.4475 C   0  0  0  0  0  0  0  0  0  0  0  0
    1.2537   -1.4371   -1.9757 C   0  0  0  0  0  0  0  0  0  0  0  0
   -0.4328   -4.0754    0.0976 C   0  0  3  0  0  0  0  0  0  0  0  0
   -0.7812   -4.9626   -1.5079 S   0  0  0  0  0  0  0  0  0  0  0  0
    1.0510   -4.3418    0.4669 C   0  0  0  0  0  0  0  0  0  0  0  0
    1.7087   -3.6585   -3.3174 C   0  0  0  0  0  0  0  0  0  0  0  0
    1.7334   -4.8771   -3.3551 O   0  0  0  0  0  0  0  0  0  0  0  0
    2.5331   -2.9595   -4.1119 O   0  0  0  0  0  0  0  0  0  0  0  0
    2.3104   -0.8807   -2.2540 O   0  0  0  0  0  0  0  0  0  0  0  0
   -1.0056    2.6254   -0.7717 F   0  0  0  0  0  0  0  0  0  0  0  0
   -3.2804    1.1240    0.0857 N   0  0  0  0  0  0  0  0  0  0  0  0
   -3.9647    1.1006    1.3843 C   0  0  0  0  0  0  0  0  0  0  0  0
   -5.5028    1.0894    1.1743 C   0  0  0  0  0  0  0  0  0  0  0  0
   -6.0619    2.1496    0.3021 N   0  0  0  0  0  0  0  0  0  0  0  0
   -5.3047    2.1425   -0.9721 C   0  0  0  0  0  0  0  0  0  0  0  0
   -3.7530    2.1480   -0.8678 C   0  0  0  0  0  0  0  0  0  0  0  0
   -6.1034    3.4866    0.9113 C   0  0  0  0  0  0  0  0  0  0  0  0
   -7.0049    3.5627    2.1144 C   0  0  0  0  0  0  0  0  0  0  0  0
   -6.4406    3.2762    3.3487 O   0  0  0  0  0  0  0  0  0  0  0  0
   -7.5278    3.4426    4.1920 C   0  0  0  0  0  0  0  0  0  0  0  0
   -8.6884    3.8372    3.5529 O   0  0  0  0  0  0  0  0  0  0  0  0
   -8.2742    3.9108    2.2371 C   0  0  0  0  0  0  0  0  0  0  0  0
   -7.4517    3.2476    5.4061 O   0  0  0  0  0  0  0  0  0  0  0  0
   -9.2987    4.3023    1.2343 C   0  0  0  0  0  0  0  0  0  0  0  0
   -2.6564   -1.4132    0.4827 H   0  0  0  0  0  0  0  0  0  0  0  0
    0.9943    1.2521   -1.5917 H   0  0  0  0  0  0  0  0  0  0  0  0
   -1.1452   -4.2561    0.9078 H   0  0  0  0  0  0  0  0  0  0  0  0
    1.1332   -4.8348    1.4391 H   0  0  0  0  0  0  0  0  0  0  0  0
    1.5464   -5.0268   -0.2427 H   0  0  0  0  0  0  0  0  0  0  0  0
    1.6562   -3.4293    0.4867 H   0  0  0  0  0  0  0  0  0  0  0  0
    3.0808   -3.6479   -4.5444 H   0  0  0  0  0  0  0  0  0  0  0  0
   -3.6941    0.2084    1.9591 H   0  0  0  0  0  0  0  0  0  0  0  0
   -3.6731    1.9754    1.9786 H   0  0  0  0  0  0  0  0  0  0  0  0
   -5.7648    0.1311    0.7053 H   0  0  0  0  0  0  0  0  0  0  0  0
   -6.0101    1.0681    2.1438 H   0  0  0  0  0  0  0  0  0  0  0  0
   -5.5991    1.2291   -1.5070 H   0  0  0  0  0  0  0  0  0  0  0  0
   -5.6332    2.9673   -1.6184 H   0  0  0  0  0  0  0  0  0  0  0  0
   -3.3992    3.1449   -0.5818 H   0  0  0  0  0  0  0  0  0  0  0  0
   -3.3696    1.9249   -1.8724 H   0  0  0  0  0  0  0  0  0  0  0  0
   -5.1009    3.8408    1.1827 H   0  0  0  0  0  0  0  0  0  0  0  0
   -6.4781    4.2016    0.1670 H   0  0  0  0  0  0  0  0  0  0  0  0
  -10.0830    3.5392    1.1759 H   0  0  0  0  0  0  0  0  0  0  0  0
   -9.7707    5.2437    1.5331 H   0  0  0  0  0  0  0  0  0  0  0  0
   -8.8781    4.4373    0.2340 H   0  0  0  0  0  0  0  0  0  0  0  0
  1  2  2  0  0  0  0
  1 18  1  0  0  0  0
  2  3  1  0  0  0  0
  2 19  1  0  0  0  0
  3  4  2  0  0  0  0
  3 33  1  0  0  0  0
  4  5  1  0  0  0  0
  4  7  1  0  0  0  0
  5  6  2  0  0  0  0
  6  1  1  0  0  0  0
  6 34  1  0  0  0  0
  7  8  1  0  0  0  0
  7 11  1  0  0  0  0
  8  9  2  0  0  0  0
  9 10  1  0  0  0  0
  9 14  1  0  0  0  0
 10  5  1  0  0  0  0
 10 17  2  0  0  0  0
 11 12  1  0  0  0  0
 11 13  1  0  0  0  0
 11 35  1  0  0  0  0
 12  8  1  0  0  0  0
 13 36  1  0  0  0  0
 13 37  1  0  0  0  0
 13 38  1  0  0  0  0
 14 15  2  0  0  0  0
 14 16  1  0  0  0  0
 16 39  1  0  0  0  0
 19 20  1  0  0  0  0
 20 21  1  0  0  0  0
 20 40  1  0  0  0  0
 20 41  1  0  0  0  0
 21 22  1  0  0  0  0
 21 42  1  0  0  0  0
 21 43  1  0  0  0  0
 22 23  1  0  0  0  0
 22 25  1  0  0  0  0
 23 24  1  0  0  0  0
 23 44  1  0  0  0  0
 23 45  1  0  0  0  0
 24 19  1  0  0  0  0
 24 46  1  0  0  0  0
 24 47  1  0  0  0  0
 25 26  1  0  0  0  0
 25 48  1  0  0  0  0
 25 49  1  0  0  0  0
 26 27  1  0  0  0  0
 27 28  1  0  0  0  0
 28 29  1  0  0  0  0
 28 31  2  0  0  0  0
 29 30  1  0  0  0  0
 30 26  2  0  0  0  0
 30 32  1  0  0  0  0
 32 50  1  0  0  0  0
 32 51  1  0  0  0  0
 32 52  1  0  0  0  0
M  END
>  <Mol_ID>
3311

>  <Formula>
C21H20FN3O6S

>  <MolWeight>
461.4634032

>  <Cat>
S2071

>  <Name>
Prulifloxacin (NM441)

>  <Synonyms>
AF 3013

>  <Target>
COVID-19

>  <Form>
Free Base

>  <CAS>
123447-62-1

>  <URL>
http://www.selleckchem.com/products/prulifloxacin-pruvel.html

$$$$
