Prunetin
 OpenBabel08302521463D

 33 35  0  0  0  0  0  0  0  0999 V2000
   -1.1211    2.3320   -0.0545 O   0  0  0  0  0  0  0  0  0  0  0  0
    1.5680    2.1484    0.0045 O   0  0  0  0  0  0  0  0  0  0  0  0
    3.3368   -2.3488   -0.0206 O   0  0  0  0  0  0  0  0  0  0  0  0
    4.6686   -1.8432   -0.0381 C   0  0  0  0  0  0  0  0  0  0  0  0
   -7.3428    3.1508   -0.1626 O   0  0  0  0  0  0  0  0  0  0  0  0
   -0.0821   -1.1247   -0.0072 C   0  0  0  0  0  0  0  0  0  0  0  0
    0.0722    0.2637   -0.0148 C   0  0  0  0  0  0  0  0  0  0  0  0
    1.0373   -1.9640   -0.0071 C   0  0  0  0  0  0  0  0  0  0  0  0
   -1.3065   -1.7474    0.0012 O   0  0  0  0  0  0  0  0  0  0  0  0
   -1.1503    1.1072   -0.0330 C   0  0  0  0  0  0  0  0  0  0  0  0
    1.3664    0.7983   -0.0071 C   0  0  0  0  0  0  0  0  0  0  0  0
    2.3270   -1.4275   -0.0126 C   0  0  0  0  0  0  0  0  0  0  0  0
   -2.4265   -0.9551   -0.0084 C   0  0  0  0  0  0  0  0  0  0  0  0
   -2.4506    0.3838   -0.0276 C   0  0  0  0  0  0  0  0  0  0  0  0
    2.4872   -0.0424   -0.0073 C   0  0  0  0  0  0  0  0  0  0  0  0
   -3.7301    1.1026   -0.0499 C   0  0  0  0  0  0  0  0  0  0  0  0
   -4.3549    1.4764    1.1481 C   0  0  0  0  0  0  0  0  0  0  0  0
   -4.3391    1.4227   -1.2706 C   0  0  0  0  0  0  0  0  0  0  0  0
   -5.5705    2.1662    1.1267 C   0  0  0  0  0  0  0  0  0  0  0  0
   -5.5539    2.1112   -1.2915 C   0  0  0  0  0  0  0  0  0  0  0  0
   -6.1589    2.4777   -0.0951 C   0  0  0  0  0  0  0  0  0  0  0  0
    2.5146    2.3597    0.0307 H   0  0  0  0  0  0  0  0  0  0  0  0
    4.8526   -1.2453   -0.9371 H   0  0  0  0  0  0  0  0  0  0  0  0
    4.8807   -1.2677    0.8690 H   0  0  0  0  0  0  0  0  0  0  0  0
    5.3535   -2.6959   -0.0601 H   0  0  0  0  0  0  0  0  0  0  0  0
   -7.6295    3.3639    0.7404 H   0  0  0  0  0  0  0  0  0  0  0  0
    0.9038   -3.0433   -0.0065 H   0  0  0  0  0  0  0  0  0  0  0  0
   -3.3164   -1.5724   -0.0029 H   0  0  0  0  0  0  0  0  0  0  0  0
    3.4760    0.4029   -0.0058 H   0  0  0  0  0  0  0  0  0  0  0  0
   -3.8909    1.2454    2.1044 H   0  0  0  0  0  0  0  0  0  0  0  0
   -3.8663    1.1527   -2.2119 H   0  0  0  0  0  0  0  0  0  0  0  0
   -6.0334    2.4550    2.0648 H   0  0  0  0  0  0  0  0  0  0  0  0
   -6.0210    2.3684   -2.2378 H   0  0  0  0  0  0  0  0  0  0  0  0
  1 10  2  0  0  0  0
  2 11  1  0  0  0  0
  2 22  1  0  0  0  0
  3  4  1  0  0  0  0
  3 12  1  0  0  0  0
  4 23  1  0  0  0  0
  4 24  1  0  0  0  0
  4 25  1  0  0  0  0
  5 21  1  0  0  0  0
  5 26  1  0  0  0  0
  6  7  1  0  0  0  0
  6  8  2  0  0  0  0
  6  9  1  0  0  0  0
  7 10  1  0  0  0  0
  7 11  2  0  0  0  0
  8 12  1  0  0  0  0
  8 27  1  0  0  0  0
  9 13  1  0  0  0  0
 10 14  1  0  0  0  0
 11 15  1  0  0  0  0
 12 15  2  0  0  0  0
 13 14  2  0  0  0  0
 13 28  1  0  0  0  0
 14 16  1  0  0  0  0
 15 29  1  0  0  0  0
 16 17  2  0  0  0  0
 16 18  1  0  0  0  0
 17 19  1  0  0  0  0
 17 30  1  0  0  0  0
 18 20  2  0  0  0  0
 18 31  1  0  0  0  0
 19 21  2  0  0  0  0
 19 32  1  0  0  0  0
 20 21  1  0  0  0  0
 20 33  1  0  0  0  0
M  END
>  <Mol_ID>
9665

>  <Formula>
C16H12O5

>  <MolWeight>
284.26348

>  <Cat>
E0588

>  <Name>
Prunetin

>  <Synonyms>
5-hydroxy-3-(4-hydroxyphenyl)-7-methoxy-4H-1-benzopyran-4-one

>  <Target>
aldehyde dehydrogenase

>  <Form>
Free Base

>  <CAS>
552-59-0

>  <URL>
https://www.selleckchem.com/products/prunetin.html

$$$$
