PS-1145.cdx
 OpenBabel08302519593D

 34 37  0  0  0  0  0  0  0  0999 V2000
   -3.8684    2.5625   -0.8983 C   0  0  0  0  0  0  0  0  0  0  0  0
   -3.6508    3.4428   -1.8995 N   0  0  0  0  0  0  0  0  0  0  0  0
   -2.3968    3.9390   -2.0141 C   0  0  0  0  0  0  0  0  0  0  0  0
   -1.3506    3.5699   -1.1777 C   0  0  0  0  0  0  0  0  0  0  0  0
   -1.5976    2.6342   -0.1681 C   0  0  0  0  0  0  0  0  0  0  0  0
   -2.8849    2.1241   -0.0237 C   0  0  0  0  0  0  0  0  0  0  0  0
   -0.0526    4.2392   -1.3172 C   0  0  0  0  0  0  0  0  0  0  0  0
    1.0341    3.4443   -1.1185 N   0  0  0  0  0  0  0  0  0  0  0  0
   -0.0146    5.4330   -1.6405 O   0  0  0  0  0  0  0  0  0  0  0  0
    2.3322    3.8833   -0.8091 C   0  0  0  0  0  0  0  0  0  0  0  0
    3.3633    3.0014   -1.0735 C   0  0  0  0  0  0  0  0  0  0  0  0
    4.5415    2.9794   -0.3424 C   0  0  0  0  0  0  0  0  0  0  0  0
    4.8576    4.0902    0.4608 C   0  0  0  0  0  0  0  0  0  0  0  0
    3.8330    5.0206    0.7104 C   0  0  0  0  0  0  0  0  0  0  0  0
    2.5829    4.9209    0.0886 C   0  0  0  0  0  0  0  0  0  0  0  0
    3.4330    1.9398   -1.9427 N   0  0  0  0  0  0  0  0  0  0  0  0
    4.1203    0.9487   -1.2978 C   0  0  0  0  0  0  0  0  0  0  0  0
    4.8842    1.5837   -0.3171 C   0  0  0  0  0  0  0  0  0  0  0  0
    4.0444   -0.4266   -1.4358 C   0  0  0  0  0  0  0  0  0  0  0  0
    4.6472   -1.1964   -0.5065 N   0  0  0  0  0  0  0  0  0  0  0  0
    5.3629   -0.5955    0.4738 C   0  0  0  0  0  0  0  0  0  0  0  0
    5.5705    0.7743    0.5991 C   0  0  0  0  0  0  0  0  0  0  0  0
   -4.8929    2.2114   -0.8100 H   0  0  0  0  0  0  0  0  0  0  0  0
   -2.2486    4.6586   -2.8122 H   0  0  0  0  0  0  0  0  0  0  0  0
   -0.8208    2.3381    0.5303 H   0  0  0  0  0  0  0  0  0  0  0  0
   -3.1199    1.4195    0.7654 H   0  0  0  0  0  0  0  0  0  0  0  0
    0.9103    2.4422   -1.0959 H   0  0  0  0  0  0  0  0  0  0  0  0
    5.8038    4.1576    0.9903 H   0  0  0  0  0  0  0  0  0  0  0  0
    3.9742    5.7539    1.5035 H   0  0  0  0  0  0  0  0  0  0  0  0
    1.7777    5.5825    0.4032 H   0  0  0  0  0  0  0  0  0  0  0  0
    2.7878    1.7940   -2.7079 H   0  0  0  0  0  0  0  0  0  0  0  0
    3.4317   -0.9208   -2.1783 H   0  0  0  0  0  0  0  0  0  0  0  0
    5.7456   -1.2775    1.2278 H   0  0  0  0  0  0  0  0  0  0  0  0
    6.0875    1.1875    1.4560 H   0  0  0  0  0  0  0  0  0  0  0  0
  1  2  2  0  0  0  0
  1 23  1  0  0  0  0
  2  3  1  0  0  0  0
  3  4  2  0  0  0  0
  3 24  1  0  0  0  0
  4  5  1  0  0  0  0
  4  7  1  0  0  0  0
  5  6  2  0  0  0  0
  5 25  1  0  0  0  0
  6  1  1  0  0  0  0
  6 26  1  0  0  0  0
  7  8  1  0  0  0  0
  7  9  2  0  0  0  0
  8 10  1  0  0  0  0
  8 27  1  0  0  0  0
 10 11  2  0  0  0  0
 11 12  1  0  0  0  0
 11 16  1  0  0  0  0
 12 13  2  0  0  0  0
 13 14  1  0  0  0  0
 13 28  1  0  0  0  0
 14 15  2  0  0  0  0
 14 29  1  0  0  0  0
 15 10  1  0  0  0  0
 15 30  1  0  0  0  0
 16 17  1  0  0  0  0
 16 31  1  0  0  0  0
 17 18  2  0  0  0  0
 17 19  1  0  0  0  0
 18 12  1  0  0  0  0
 19 20  2  0  0  0  0
 19 32  1  0  0  0  0
 20 21  1  0  0  0  0
 21 22  2  0  0  0  0
 21 33  1  0  0  0  0
 22 18  1  0  0  0  0
 22 34  1  0  0  0  0
M  END
>  <Mol_ID>
2640

>  <Formula>
C17H11ClN4O

>  <MolWeight>
322.74844

>  <Cat>
S7691

>  <Name>
PS-1145

>  <Synonyms>
N/A

>  <Target>
I¦ÊB/IKK

>  <Form>
free base

>  <CAS>
431898-65-6

>  <URL>
http://selleckchem.com/products/ps-1145.html

$$$$
