PS-48
 OpenBabel08302521303D

 35 36  0  0  0  0  0  0  0  0999 V2000
    1.1909   -0.1695   -0.2213 C   0  0  0  0  0  0  0  0  0  0  0  0
    0.2632    0.8191   -0.8292 C   0  0  0  0  0  0  0  0  0  0  0  0
   -1.0563    0.9641   -0.5737 C   0  0  0  0  0  0  0  0  0  0  0  0
   -1.9730    1.9788   -1.2678 C   0  0  0  0  0  0  0  0  0  0  0  0
   -1.2925    2.8576   -2.3322 C   0  0  0  0  0  0  0  0  0  0  0  0
    0.8878   -1.2508    0.2468 O   0  0  0  0  0  0  0  0  0  0  0  0
    2.4705    0.2593   -0.2899 O   0  0  0  0  0  0  0  0  0  0  0  0
   -1.7358    0.1186    0.4291 C   0  0  0  0  0  0  0  0  0  0  0  0
   -1.8663    0.5458    1.7574 C   0  0  0  0  0  0  0  0  0  0  0  0
   -2.4709   -0.2820    2.7087 C   0  0  0  0  0  0  0  0  0  0  0  0
   -2.9469   -1.5398    2.3409 C   0  0  0  0  0  0  0  0  0  0  0  0
   -2.8158   -1.9745    1.0237 C   0  0  0  0  0  0  0  0  0  0  0  0
   -2.2151   -1.1482    0.0711 C   0  0  0  0  0  0  0  0  0  0  0  0
   -2.1689    3.8541   -3.0550 C   0  0  0  0  0  0  0  0  0  0  0  0
   -2.3594    5.1434   -2.5398 C   0  0  0  0  0  0  0  0  0  0  0  0
   -3.0252    6.1187   -3.2915 C   0  0  0  0  0  0  0  0  0  0  0  0
   -3.5157    5.8107   -4.5575 C   0  0  0  0  0  0  0  0  0  0  0  0
   -3.3723    4.5192   -5.0605 C   0  0  0  0  0  0  0  0  0  0  0  0
   -2.7098    3.5440   -4.3113 C   0  0  0  0  0  0  0  0  0  0  0  0
    0.7357    1.4504   -1.5698 H   0  0  0  0  0  0  0  0  0  0  0  0
   -2.8003    1.4327   -1.7409 H   0  0  0  0  0  0  0  0  0  0  0  0
   -2.4228    2.6296   -0.5060 H   0  0  0  0  0  0  0  0  0  0  0  0
   -0.4695    3.4195   -1.8703 H   0  0  0  0  0  0  0  0  0  0  0  0
   -0.8231    2.2140   -3.0905 H   0  0  0  0  0  0  0  0  0  0  0  0
    2.5977    1.1607   -0.6336 H   0  0  0  0  0  0  0  0  0  0  0  0
   -1.4809    1.5127    2.0675 H   0  0  0  0  0  0  0  0  0  0  0  0
   -2.5557    0.0466    3.7410 H   0  0  0  0  0  0  0  0  0  0  0  0
   -3.4029   -2.1893    3.0841 H   0  0  0  0  0  0  0  0  0  0  0  0
   -3.1598   -2.9653    0.7405 H   0  0  0  0  0  0  0  0  0  0  0  0
   -2.0862   -1.5167   -0.9437 H   0  0  0  0  0  0  0  0  0  0  0  0
   -1.9567    5.4136   -1.5664 H   0  0  0  0  0  0  0  0  0  0  0  0
   -3.1366    7.1255   -2.8975 H   0  0  0  0  0  0  0  0  0  0  0  0
   -4.0028    6.5772   -5.1548 H   0  0  0  0  0  0  0  0  0  0  0  0
   -3.7558    4.2785   -6.0495 H   0  0  0  0  0  0  0  0  0  0  0  0
   -2.5840    2.5503   -4.7360 H   0  0  0  0  0  0  0  0  0  0  0  0
  1  2  1  0  0  0  0
  1  6  2  0  0  0  0
  1  7  1  0  0  0  0
  2  3  2  0  0  0  0
  2 20  1  0  0  0  0
  3  4  1  0  0  0  0
  3  8  1  0  0  0  0
  4  5  1  0  0  0  0
  4 21  1  0  0  0  0
  4 22  1  0  0  0  0
  5 14  1  0  0  0  0
  5 23  1  0  0  0  0
  5 24  1  0  0  0  0
  7 25  1  0  0  0  0
  8  9  2  0  0  0  0
  8 13  1  0  0  0  0
  9 10  1  0  0  0  0
  9 26  1  0  0  0  0
 10 11  2  0  0  0  0
 10 27  1  0  0  0  0
 11 12  1  0  0  0  0
 11 28  1  0  0  0  0
 12 13  2  0  0  0  0
 12 29  1  0  0  0  0
 13 30  1  0  0  0  0
 14 15  2  0  0  0  0
 14 19  1  0  0  0  0
 15 16  1  0  0  0  0
 15 31  1  0  0  0  0
 16 17  2  0  0  0  0
 16 32  1  0  0  0  0
 17 18  1  0  0  0  0
 17 33  1  0  0  0  0
 18 19  2  0  0  0  0
 18 34  1  0  0  0  0
 19 35  1  0  0  0  0
M  END
>  <Mol_ID>
5676

>  <Formula>
C17H15ClO2

>  <MolWeight>
286.7528

>  <Cat>
S7586

>  <Name>
PS-48

>  <Synonyms>
N/A

>  <Target>
PDPK1

>  <Form>
Free Base

>  <CAS>
1180676-32-7

>  <URL>
http://www.selleckchem.com/products/ps48.html

$$$$
