PS210
 OpenBabel08302521313D

 42 43  0  0  0  0  0  0  0  0999 V2000
    0.6673    3.2125   -8.1177 F   0  0  0  0  0  0  0  0  0  0  0  0
   -0.7551    1.6650   -8.6777 F   0  0  0  0  0  0  0  0  0  0  0  0
    1.1105    1.8757   -9.7728 F   0  0  0  0  0  0  0  0  0  0  0  0
    3.7760   -1.3526   -3.9451 O   0  0  0  0  0  0  0  0  0  0  0  0
    1.8019   -3.7872   -2.8845 O   0  0  0  0  0  0  0  0  0  0  0  0
    5.0955   -5.2843   -1.0250 O   0  0  0  0  0  0  0  0  0  0  0  0
    2.6980   -5.5382   -1.8096 O   0  0  0  0  0  0  0  0  0  0  0  0
    6.5454   -4.2941   -2.4108 O   0  0  0  0  0  0  0  0  0  0  0  0
    4.4842   -4.1571   -4.4804 C   0  0  3  0  0  0  0  0  0  0  0  0
    4.2061   -4.0276   -2.9371 C   0  0  0  0  0  0  0  0  0  0  0  0
    3.5490   -3.2724   -5.3830 C   0  0  0  0  0  0  0  0  0  0  0  0
    4.4708   -5.6119   -5.0267 C   0  0  0  0  0  0  0  0  0  0  0  0
    3.3744   -1.8053   -5.0124 C   0  0  0  0  0  0  0  0  0  0  0  0
    4.3923   -6.7492   -4.2028 C   0  0  0  0  0  0  0  0  0  0  0  0
    4.5262   -5.8582   -6.4138 C   0  0  0  0  0  0  0  0  0  0  0  0
    2.8541   -4.5471   -2.5149 C   0  0  0  0  0  0  0  0  0  0  0  0
    5.3820   -4.5553   -2.1265 C   0  0  0  0  0  0  0  0  0  0  0  0
    2.6079   -0.8928   -5.9188 C   0  0  0  0  0  0  0  0  0  0  0  0
    4.2326   -8.0365   -4.7267 C   0  0  0  0  0  0  0  0  0  0  0  0
    4.3625   -7.1455   -6.9418 C   0  0  0  0  0  0  0  0  0  0  0  0
    2.5892    0.4778   -5.6131 C   0  0  0  0  0  0  0  0  0  0  0  0
    1.9019   -1.3490   -7.0363 C   0  0  0  0  0  0  0  0  0  0  0  0
    4.1842   -8.2321   -6.0927 C   0  0  0  0  0  0  0  0  0  0  0  0
    1.2426    0.9389   -7.5812 C   0  0  0  0  0  0  0  0  0  0  0  0
    1.9155    1.3838   -6.4363 C   0  0  0  0  0  0  0  0  0  0  0  0
    1.2236   -0.4380   -7.8585 C   0  0  0  0  0  0  0  0  0  0  0  0
    0.5732    1.9154   -8.5220 C   0  0  0  0  0  0  0  0  0  0  0  0
    2.0399   -2.8980   -3.2140 H   0  0  0  0  0  0  0  0  0  0  0  0
    4.1470   -5.5361   -0.9101 H   0  0  0  0  0  0  0  0  0  0  0  0
    5.5115   -3.7922   -4.6513 H   0  0  0  0  0  0  0  0  0  0  0  0
    4.2076   -2.9843   -2.6154 H   0  0  0  0  0  0  0  0  0  0  0  0
    2.5548   -3.7297   -5.4289 H   0  0  0  0  0  0  0  0  0  0  0  0
    3.9563   -3.2508   -6.3988 H   0  0  0  0  0  0  0  0  0  0  0  0
    4.4538   -6.6991   -3.1228 H   0  0  0  0  0  0  0  0  0  0  0  0
    4.6922   -5.0552   -7.1266 H   0  0  0  0  0  0  0  0  0  0  0  0
    4.1373   -8.8813   -4.0442 H   0  0  0  0  0  0  0  0  0  0  0  0
    4.3679   -7.2981   -8.0178 H   0  0  0  0  0  0  0  0  0  0  0  0
    3.1099    0.8541   -4.7324 H   0  0  0  0  0  0  0  0  0  0  0  0
    1.8605   -2.4032   -7.2956 H   0  0  0  0  0  0  0  0  0  0  0  0
    4.0245   -9.2261   -6.4955 H   0  0  0  0  0  0  0  0  0  0  0  0
    1.9321    2.4438   -6.1819 H   0  0  0  0  0  0  0  0  0  0  0  0
    0.6845   -0.8059   -8.7319 H   0  0  0  0  0  0  0  0  0  0  0  0
  1 27  1  0  0  0  0
  2 27  1  0  0  0  0
  3 27  1  0  0  0  0
  4 13  2  0  0  0  0
  5 16  1  0  0  0  0
  5 28  1  0  0  0  0
  6 17  1  0  0  0  0
  6 29  1  0  0  0  0
  7 16  2  0  0  0  0
  8 17  2  0  0  0  0
  9 10  1  0  0  0  0
  9 11  1  0  0  0  0
  9 12  1  0  0  0  0
  9 30  1  0  0  0  0
 10 16  1  0  0  0  0
 10 17  1  0  0  0  0
 10 31  1  0  0  0  0
 11 13  1  0  0  0  0
 11 32  1  0  0  0  0
 11 33  1  0  0  0  0
 12 14  2  0  0  0  0
 12 15  1  0  0  0  0
 13 18  1  0  0  0  0
 14 19  1  0  0  0  0
 14 34  1  0  0  0  0
 15 20  2  0  0  0  0
 15 35  1  0  0  0  0
 18 21  2  0  0  0  0
 18 22  1  0  0  0  0
 19 23  2  0  0  0  0
 19 36  1  0  0  0  0
 20 23  1  0  0  0  0
 20 37  1  0  0  0  0
 21 25  1  0  0  0  0
 21 38  1  0  0  0  0
 22 26  2  0  0  0  0
 22 39  1  0  0  0  0
 23 40  1  0  0  0  0
 24 25  2  0  0  0  0
 24 26  1  0  0  0  0
 24 27  1  0  0  0  0
 25 41  1  0  0  0  0
 26 42  1  0  0  0  0
M  END
>  <Mol_ID>
6007

>  <Formula>
C19H15F3O5

>  <MolWeight>
380.3146096

>  <Cat>
S3462

>  <Name>
PS210

>  <Synonyms>
N/A

>  <Target>
PDPK1

>  <Form>
Free Base

>  <CAS>
1221962-86-2

>  <URL>
http://www.selleckchem.com/products/ps210.html

$$$$
