PS47
 OpenBabel08302521343D

 35 36  0  0  0  0  0  0  0  0999 V2000
    0.9315    0.0621   -0.3649 C   0  0  0  0  0  0  0  0  0  0  0  0
    0.1785   -1.2359   -0.1007 C   0  0  0  0  0  0  0  0  0  0  0  0
    0.3611    1.1635   -0.9070 C   0  0  0  0  0  0  0  0  0  0  0  0
    0.1161   -1.6758    1.3712 C   0  0  0  0  0  0  0  0  0  0  0  0
   -1.0563    1.3318   -1.3123 C   0  0  0  0  0  0  0  0  0  0  0  0
   -1.4249    2.6301   -1.2768 O   0  0  0  0  0  0  0  0  0  0  0  0
   -1.8131    0.4462   -1.6617 O   0  0  0  0  0  0  0  0  0  0  0  0
    2.4119    0.0728   -0.1192 C   0  0  0  0  0  0  0  0  0  0  0  0
    3.0949    1.2497    0.2445 C   0  0  0  0  0  0  0  0  0  0  0  0
    3.1810   -1.0952   -0.2538 C   0  0  0  0  0  0  0  0  0  0  0  0
    4.4849    1.2680    0.4124 C   0  0  0  0  0  0  0  0  0  0  0  0
    4.5685   -1.0835   -0.0678 C   0  0  0  0  0  0  0  0  0  0  0  0
    5.2221    0.1006    0.2528 C   0  0  0  0  0  0  0  0  0  0  0  0
   -0.6659   -2.9659    1.5269 C   0  0  0  0  0  0  0  0  0  0  0  0
   -0.0545   -4.1200    2.0366 C   0  0  0  0  0  0  0  0  0  0  0  0
   -2.0138   -3.0363    1.1388 C   0  0  0  0  0  0  0  0  0  0  0  0
   -0.7653   -5.3206    2.1190 C   0  0  0  0  0  0  0  0  0  0  0  0
   -2.7189   -4.2396    1.2118 C   0  0  0  0  0  0  0  0  0  0  0  0
   -2.0925   -5.3842    1.6979 C   0  0  0  0  0  0  0  0  0  0  0  0
   -0.8465   -1.1597   -0.4598 H   0  0  0  0  0  0  0  0  0  0  0  0
    0.6016   -2.0413   -0.7123 H   0  0  0  0  0  0  0  0  0  0  0  0
    0.9714    2.0275   -1.1450 H   0  0  0  0  0  0  0  0  0  0  0  0
    1.1285   -1.8141    1.7703 H   0  0  0  0  0  0  0  0  0  0  0  0
   -0.3567   -0.9029    1.9886 H   0  0  0  0  0  0  0  0  0  0  0  0
   -0.7573    3.2485   -0.9309 H   0  0  0  0  0  0  0  0  0  0  0  0
    2.5620    2.1830    0.4062 H   0  0  0  0  0  0  0  0  0  0  0  0
    2.7252   -2.0433   -0.5257 H   0  0  0  0  0  0  0  0  0  0  0  0
    4.9901    2.1965    0.6668 H   0  0  0  0  0  0  0  0  0  0  0  0
    5.1366   -2.0031   -0.1857 H   0  0  0  0  0  0  0  0  0  0  0  0
    6.3014    0.1119    0.3800 H   0  0  0  0  0  0  0  0  0  0  0  0
    0.9815   -4.0976    2.3651 H   0  0  0  0  0  0  0  0  0  0  0  0
   -2.5234   -2.1553    0.7512 H   0  0  0  0  0  0  0  0  0  0  0  0
   -0.2794   -6.2143    2.5061 H   0  0  0  0  0  0  0  0  0  0  0  0
   -3.7515   -4.2813    0.8787 H   0  0  0  0  0  0  0  0  0  0  0  0
   -2.6374   -6.3234    1.7438 H   0  0  0  0  0  0  0  0  0  0  0  0
  1  2  1  0  0  0  0
  1  3  2  0  0  0  0
  1  8  1  0  0  0  0
  2  4  1  0  0  0  0
  2 20  1  0  0  0  0
  2 21  1  0  0  0  0
  3  5  1  0  0  0  0
  3 22  1  0  0  0  0
  4 14  1  0  0  0  0
  4 23  1  0  0  0  0
  4 24  1  0  0  0  0
  5  6  1  0  0  0  0
  5  7  2  0  0  0  0
  6 25  1  0  0  0  0
  8  9  2  0  0  0  0
  8 10  1  0  0  0  0
  9 11  1  0  0  0  0
  9 26  1  0  0  0  0
 10 12  2  0  0  0  0
 10 27  1  0  0  0  0
 11 13  2  0  0  0  0
 11 28  1  0  0  0  0
 12 13  1  0  0  0  0
 12 29  1  0  0  0  0
 13 30  1  0  0  0  0
 14 15  2  0  0  0  0
 14 16  1  0  0  0  0
 15 17  1  0  0  0  0
 15 31  1  0  0  0  0
 16 18  2  0  0  0  0
 16 32  1  0  0  0  0
 17 19  2  0  0  0  0
 17 33  1  0  0  0  0
 18 19  1  0  0  0  0
 18 34  1  0  0  0  0
 19 35  1  0  0  0  0
M  END
>  <Mol_ID>
6506

>  <Formula>
C17H15ClO2

>  <MolWeight>
286.7528

>  <Cat>
E2816

>  <Name>
PS47

>  <Target>
PDPK1

>  <Form>
free base

>  <CAS>
1180676-33-8

>  <URL>
http://www.selleckchem.com/products/ps47.html

$$$$
