Pseudocoptisine?chloride
 OpenBabel08302521453D

 38 43  0  0  0  0  0  0  0  0999 V2000
    0.5049    0.0927   -0.0265 C   0  0  0  0  0  0  0  0  0  0  0  0
   -0.9678    0.1079   -0.0243 C   0  0  0  0  0  0  0  0  0  0  0  0
    1.1343    1.2775    0.2199 N   0  3  0  0  0  0  0  0  0  0  0  0
    1.2683   -1.0528   -0.2779 C   0  0  0  0  0  0  0  0  0  0  0  0
   -1.6628    1.3227   -0.2779 C   0  0  0  0  0  0  0  0  0  0  0  0
   -1.7218   -1.0516    0.2384 C   0  0  0  0  0  0  0  0  0  0  0  0
    2.4870    1.3443    0.2942 C   0  0  0  0  0  0  0  0  0  0  0  0
    0.3445    2.5158    0.4689 C   0  0  0  0  0  0  0  0  0  0  0  0
    2.6571   -1.0110   -0.2131 C   0  0  0  0  0  0  0  0  0  0  0  0
   -3.0651    1.3652   -0.3346 C   0  0  0  0  0  0  0  0  0  0  0  0
   -0.8474    2.5713   -0.4771 C   0  0  0  0  0  0  0  0  0  0  0  0
   -3.0976   -0.9678    0.2199 C   0  0  0  0  0  0  0  0  0  0  0  0
    3.2911    0.2171    0.0927 C   0  0  0  0  0  0  0  0  0  0  0  0
    3.4175   -2.1698   -0.4308 C   0  0  0  0  0  0  0  0  0  0  0  0
   -3.7512    0.2022   -0.0678 C   0  0  0  0  0  0  0  0  0  0  0  0
   -3.9505   -1.9910    0.4846 O   0  0  0  0  0  0  0  0  0  0  0  0
    4.6939    0.2709    0.1950 C   0  0  0  0  0  0  0  0  0  0  0  0
    4.7828   -2.0813   -0.3031 C   0  0  0  0  0  0  0  0  0  0  0  0
   -5.1016    0.0627   -0.0262 O   0  0  0  0  0  0  0  0  0  0  0  0
   -5.2223   -1.3110    0.4055 C   0  0  0  0  0  0  0  0  0  0  0  0
    5.4048   -0.8976    0.0040 C   0  0  0  0  0  0  0  0  0  0  0  0
    5.6581   -3.1101   -0.4405 O   0  0  0  0  0  0  0  0  0  0  0  0
    6.7531   -1.0338    0.0975 O   0  0  0  0  0  0  0  0  0  0  0  0
    6.8990   -2.4601   -0.0937 C   0  0  0  0  0  0  0  0  0  0  0  0
    0.7774   -1.9932   -0.5261 H   0  0  0  0  0  0  0  0  0  0  0  0
   -1.2677   -2.0079    0.4790 H   0  0  0  0  0  0  0  0  0  0  0  0
    2.9202    2.3125    0.5362 H   0  0  0  0  0  0  0  0  0  0  0  0
    0.9903    3.3861    0.3137 H   0  0  0  0  0  0  0  0  0  0  0  0
    0.0423    2.4782    1.5226 H   0  0  0  0  0  0  0  0  0  0  0  0
   -3.6098    2.2793   -0.5530 H   0  0  0  0  0  0  0  0  0  0  0  0
   -0.5157    2.6217   -1.5203 H   0  0  0  0  0  0  0  0  0  0  0  0
   -1.4425    3.4655   -0.2611 H   0  0  0  0  0  0  0  0  0  0  0  0
    2.9610   -3.1256   -0.6732 H   0  0  0  0  0  0  0  0  0  0  0  0
    5.2296    1.1854    0.4331 H   0  0  0  0  0  0  0  0  0  0  0  0
   -5.6861   -1.3254    1.3989 H   0  0  0  0  0  0  0  0  0  0  0  0
   -5.8681   -1.8504   -0.2965 H   0  0  0  0  0  0  0  0  0  0  0  0
    7.2718   -2.9008    0.8389 H   0  0  0  0  0  0  0  0  0  0  0  0
    7.6292   -2.6414   -0.8896 H   0  0  0  0  0  0  0  0  0  0  0  0
  1  2  1  0  0  0  0
  1  3  1  0  0  0  0
  1  4  2  0  0  0  0
  2  5  2  0  0  0  0
  2  6  1  0  0  0  0
  3  7  2  0  0  0  0
  3  8  1  0  0  0  0
  4  9  1  0  0  0  0
  4 25  1  0  0  0  0
  5 10  1  0  0  0  0
  5 11  1  0  0  0  0
  6 12  2  0  0  0  0
  6 26  1  0  0  0  0
  7 13  1  0  0  0  0
  7 27  1  0  0  0  0
  8 11  1  0  0  0  0
  8 28  1  0  0  0  0
  8 29  1  0  0  0  0
  9 13  2  0  0  0  0
  9 14  1  0  0  0  0
 10 15  2  0  0  0  0
 10 30  1  0  0  0  0
 11 31  1  0  0  0  0
 11 32  1  0  0  0  0
 12 15  1  0  0  0  0
 12 16  1  0  0  0  0
 13 17  1  0  0  0  0
 14 18  2  0  0  0  0
 14 33  1  0  0  0  0
 15 19  1  0  0  0  0
 16 20  1  0  0  0  0
 17 21  2  0  0  0  0
 17 34  1  0  0  0  0
 18 21  1  0  0  0  0
 18 22  1  0  0  0  0
 19 20  1  0  0  0  0
 20 35  1  0  0  0  0
 20 36  1  0  0  0  0
 21 23  1  0  0  0  0
 22 24  1  0  0  0  0
 23 24  1  0  0  0  0
 24 37  1  0  0  0  0
 24 38  1  0  0  0  0
M  CHG  1   3   1
M  END
>  <Mol_ID>
9440

>  <Formula>
C19H14ClNO4

>  <MolWeight>
355.77176

>  <Cat>
E0831

>  <Name>
Pseudocoptisine?chloride

>  <Synonyms>
Isocoptisine chloride

>  <Target>
AChR

>  <Form>
Chloride

>  <CAS>
30044-78-1

>  <URL>
http://www.selleckchem.com/products/pseudocoptisine-chloride.html

$$$$
