Pseudotropine
 OpenBabel08302521353D

 25 26  0  0  0  0  0  0  0  0999 V2000
    1.2447    0.3924    0.2966 C   0  0  0  0  0  0  0  0  0  0  0  0
    0.7924   -1.4342   -2.9228 O   0  0  0  0  0  0  0  0  0  0  0  0
    0.8925    1.9742   -1.5799 C   0  0  1  0  0  0  0  0  0  0  0  0
    0.3889    1.3777   -0.3397 N   0  0  0  0  0  0  0  0  0  0  0  0
    1.1921    0.9296   -2.6583 C   0  0  0  0  0  0  0  0  0  0  0  0
   -0.2891    2.8703   -1.9694 C   0  0  0  0  0  0  0  0  0  0  0  0
   -0.9526    0.9174   -0.7046 C   0  0  1  0  0  0  0  0  0  0  0  0
    0.1260   -0.1661   -2.8029 C   0  0  2  0  0  0  0  0  0  0  0  0
   -1.5097    2.1819   -1.3625 C   0  0  0  0  0  0  0  0  0  0  0  0
   -0.9281   -0.2656   -1.6863 C   0  0  0  0  0  0  0  0  0  0  0  0
    1.2525   -0.5835   -0.1936 H   0  0  0  0  0  0  0  0  0  0  0  0
    0.9091    0.2346    1.3276 H   0  0  0  0  0  0  0  0  0  0  0  0
    2.2792    0.7470    0.3485 H   0  0  0  0  0  0  0  0  0  0  0  0
    1.3211   -1.5657   -2.1180 H   0  0  0  0  0  0  0  0  0  0  0  0
    1.7831    2.5898   -1.4056 H   0  0  0  0  0  0  0  0  0  0  0  0
    2.1779    0.4834   -2.4671 H   0  0  0  0  0  0  0  0  0  0  0  0
    1.2924    1.4367   -3.6289 H   0  0  0  0  0  0  0  0  0  0  0  0
   -0.3928    3.0038   -3.0510 H   0  0  0  0  0  0  0  0  0  0  0  0
   -0.1750    3.8659   -1.5217 H   0  0  0  0  0  0  0  0  0  0  0  0
   -1.5529    0.6556    0.1764 H   0  0  0  0  0  0  0  0  0  0  0  0
   -0.3924   -0.0269   -3.7588 H   0  0  0  0  0  0  0  0  0  0  0  0
   -2.2825    1.9805   -2.1123 H   0  0  0  0  0  0  0  0  0  0  0  0
   -1.9493    2.8379   -0.6019 H   0  0  0  0  0  0  0  0  0  0  0  0
   -1.9166   -0.3552   -2.1594 H   0  0  0  0  0  0  0  0  0  0  0  0
   -0.7976   -1.1984   -1.1258 H   0  0  0  0  0  0  0  0  0  0  0  0
  1  4  1  0  0  0  0
  1 11  1  0  0  0  0
  1 12  1  0  0  0  0
  1 13  1  0  0  0  0
  2 14  1  0  0  0  0
  3  4  1  0  0  0  0
  3  5  1  0  0  0  0
  3  6  1  0  0  0  0
  3 15  1  1  0  0  0
  4  7  1  0  0  0  0
  5  8  1  0  0  0  0
  5 16  1  0  0  0  0
  5 17  1  0  0  0  0
  6  9  1  0  0  0  0
  6 18  1  0  0  0  0
  6 19  1  0  0  0  0
  7  9  1  0  0  0  0
  7 10  1  0  0  0  0
  7 20  1  1  0  0  0
  8  2  1  0  0  0  0
  8 10  1  0  0  0  0
  8 21  1  6  0  0  0
  9 22  1  0  0  0  0
  9 23  1  0  0  0  0
 10 24  1  0  0  0  0
 10 25  1  0  0  0  0
M  END
>  <Mol_ID>
7007

>  <Formula>
C8H15NO

>  <MolWeight>
141.2108

>  <Cat>
E4356

>  <Name>
Pseudotropine

>  <Synonyms>
Pseudotropine

>  <Target>
Others

>  <Form>
free base

>  <CAS>
135-97-7

>  <URL>
https://www.selleckchem.com/products/pseudotropine.html

$$$$
