Puromycin aminonucleoside
 OpenBabel08302521303D

 39 41  0  0  0  0  0  0  0  0999 V2000
    0.9449   -2.2324   -0.3992 O   0  0  0  0  0  0  0  0  0  0  0  0
    0.1292   -2.0427   -1.5537 C   0  0  0  0  0  0  0  0  0  0  0  0
   -1.2228   -1.4321   -1.1794 C   0  0  2  0  0  0  0  0  0  0  0  0
   -1.1158   -0.1045   -0.4138 C   0  0  2  0  0  0  0  0  0  0  0  0
   -2.2429   -0.1721    0.6301 C   0  0  1  0  0  0  0  0  0  0  0  0
   -3.1001    0.9741    0.5606 O   0  0  0  0  0  0  0  0  0  0  0  0
   -2.9432   -1.5079    0.3535 C   0  0  1  0  0  0  0  0  0  0  0  0
   -2.0012   -2.3264   -0.3637 O   0  0  0  0  0  0  0  0  0  0  0  0
   -3.3669   -2.1965    1.5543 N   0  0  0  0  0  0  0  0  0  0  0  0
   -2.6352   -3.0908    2.2846 C   0  0  0  0  0  0  0  0  0  0  0  0
   -3.2897   -3.5039    3.3474 N   0  0  0  0  0  0  0  0  0  0  0  0
   -4.5140   -2.8525    3.3021 C   0  0  0  0  0  0  0  0  0  0  0  0
   -5.6456   -2.8730    4.1638 C   0  0  0  0  0  0  0  0  0  0  0  0
   -5.7402   -3.6234    5.3250 N   0  0  0  0  0  0  0  0  0  0  0  0
   -6.6969   -2.0812    3.7893 N   0  0  0  0  0  0  0  0  0  0  0  0
   -6.6153   -1.3436    2.6616 C   0  0  0  0  0  0  0  0  0  0  0  0
   -5.5954   -1.2544    1.7884 N   0  0  0  0  0  0  0  0  0  0  0  0
   -4.5765   -2.0381    2.1781 C   0  0  0  0  0  0  0  0  0  0  0  0
   -6.9098   -3.5513    6.1771 C   0  0  0  0  0  0  0  0  0  0  0  0
   -4.6522   -4.5006    5.7170 C   0  0  0  0  0  0  0  0  0  0  0  0
   -1.1532    1.0779   -1.2933 N   0  0  0  0  0  0  0  0  0  0  0  0
    1.8155   -2.5321   -0.7159 H   0  0  0  0  0  0  0  0  0  0  0  0
    0.6636   -1.3854   -2.2475 H   0  0  0  0  0  0  0  0  0  0  0  0
   -0.0127   -3.0214   -2.0226 H   0  0  0  0  0  0  0  0  0  0  0  0
   -1.7998   -1.2937   -2.1032 H   0  0  0  0  0  0  0  0  0  0  0  0
   -0.1676   -0.0606    0.1348 H   0  0  0  0  0  0  0  0  0  0  0  0
   -1.7963   -0.1582    1.6319 H   0  0  0  0  0  0  0  0  0  0  0  0
   -3.7241    0.8599   -0.1758 H   0  0  0  0  0  0  0  0  0  0  0  0
   -3.8261   -1.3795   -0.2843 H   0  0  0  0  0  0  0  0  0  0  0  0
   -1.6378   -3.4018    1.9979 H   0  0  0  0  0  0  0  0  0  0  0  0
   -7.4928   -0.7452    2.4310 H   0  0  0  0  0  0  0  0  0  0  0  0
   -7.3609   -4.5452    6.2746 H   0  0  0  0  0  0  0  0  0  0  0  0
   -6.6198   -3.2153    7.1792 H   0  0  0  0  0  0  0  0  0  0  0  0
   -7.6904   -2.8725    5.8206 H   0  0  0  0  0  0  0  0  0  0  0  0
   -4.4822   -5.2762    4.9625 H   0  0  0  0  0  0  0  0  0  0  0  0
   -3.7283   -3.9371    5.8855 H   0  0  0  0  0  0  0  0  0  0  0  0
   -4.8826   -5.0164    6.6563 H   0  0  0  0  0  0  0  0  0  0  0  0
   -1.4174    1.8790   -0.7092 H   0  0  0  0  0  0  0  0  0  0  0  0
   -1.8989    0.9978   -1.9813 H   0  0  0  0  0  0  0  0  0  0  0  0
  1  2  1  0  0  0  0
  1 22  1  0  0  0  0
  2 23  1  0  0  0  0
  2 24  1  0  0  0  0
  3  2  1  0  0  0  0
  3  4  1  0  0  0  0
  3  8  1  0  0  0  0
  3 25  1  6  0  0  0
  4  5  1  0  0  0  0
  4 26  1  1  0  0  0
  4 21  1  0  0  0  0
  5  7  1  0  0  0  0
  5 27  1  1  0  0  0
  5  6  1  0  0  0  0
  6 28  1  0  0  0  0
  7  8  1  0  0  0  0
  7  9  1  0  0  0  0
  7 29  1  6  0  0  0
  9 10  1  0  0  0  0
  9 18  1  0  0  0  0
 10 11  2  0  0  0  0
 10 30  1  0  0  0  0
 11 12  1  0  0  0  0
 12 13  2  0  0  0  0
 12 18  1  0  0  0  0
 13 14  1  0  0  0  0
 13 15  1  0  0  0  0
 14 19  1  0  0  0  0
 14 20  1  0  0  0  0
 15 16  2  0  0  0  0
 16 17  1  0  0  0  0
 16 31  1  0  0  0  0
 17 18  2  0  0  0  0
 19 32  1  0  0  0  0
 19 33  1  0  0  0  0
 19 34  1  0  0  0  0
 20 35  1  0  0  0  0
 20 36  1  0  0  0  0
 20 37  1  0  0  0  0
 21 38  1  0  0  0  0
 21 39  1  0  0  0  0
M  END
>  <Mol_ID>
5645

>  <Formula>
C12H18N6O3

>  <MolWeight>
294.30972

>  <Cat>
S9631

>  <Name>
Puromycin aminonucleoside

>  <Synonyms>
NSC 3056, PAN, Stylomycin aminonucleoside, ARDMA, SAN

>  <Target>
Aminopeptidase,Apoptosis related,DPP

>  <Form>
Free Base

>  <CAS>
58-60-6

>  <URL>
http://www.selleckchem.com/products/puromycin-aminonucleoside.html

$$$$
