PX-12.cdx
 OpenBabel08302519593D

 23 23  0  0  0  0  0  0  0  0999 V2000
   -2.9747   -1.8223    1.6121 C   0  0  0  0  0  0  0  0  0  0  0  0
   -2.8772   -1.6051    0.2562 C   0  0  0  0  0  0  0  0  0  0  0  0
   -3.1066   -0.2666    0.1012 N   0  0  0  0  0  0  0  0  0  0  0  0
   -3.3139    0.2669    1.3411 C   0  0  0  0  0  0  0  0  0  0  0  0
   -3.2585   -0.6535    2.2759 N   0  0  0  0  0  0  0  0  0  0  0  0
   -3.6589    1.9465    1.5862 S   0  0  0  0  0  0  0  0  0  0  0  0
   -2.7450    2.8153   -0.0470 S   0  0  0  0  0  0  0  0  0  0  0  0
   -3.2817    4.5700    0.0631 C   0  0  3  0  0  0  0  0  0  0  0  0
   -2.7866    5.3024    1.3242 C   0  0  0  0  0  0  0  0  0  0  0  0
   -2.8433    5.2861   -1.2162 C   0  0  0  0  0  0  0  0  0  0  0  0
   -1.2829    5.2748    1.5753 C   0  0  0  0  0  0  0  0  0  0  0  0
   -2.8556   -2.7569    2.1446 H   0  0  0  0  0  0  0  0  0  0  0  0
   -2.6710   -2.2593   -0.5780 H   0  0  0  0  0  0  0  0  0  0  0  0
   -3.1023    0.2657   -0.7578 H   0  0  0  0  0  0  0  0  0  0  0  0
   -4.3784    4.5735    0.0719 H   0  0  0  0  0  0  0  0  0  0  0  0
   -3.1033    6.3517    1.2618 H   0  0  0  0  0  0  0  0  0  0  0  0
   -3.2927    4.8972    2.2087 H   0  0  0  0  0  0  0  0  0  0  0  0
   -3.2877    4.8206   -2.1039 H   0  0  0  0  0  0  0  0  0  0  0  0
   -3.1783    6.3299   -1.2023 H   0  0  0  0  0  0  0  0  0  0  0  0
   -1.7559    5.2893   -1.3447 H   0  0  0  0  0  0  0  0  0  0  0  0
   -0.7178    5.6326    0.7106 H   0  0  0  0  0  0  0  0  0  0  0  0
   -1.0398    5.9255    2.4221 H   0  0  0  0  0  0  0  0  0  0  0  0
   -0.9342    4.2696    1.8292 H   0  0  0  0  0  0  0  0  0  0  0  0
  1  2  2  0  0  0  0
  1 12  1  0  0  0  0
  2  3  1  0  0  0  0
  2 13  1  0  0  0  0
  3  4  1  0  0  0  0
  3 14  1  0  0  0  0
  4  5  2  0  0  0  0
  4  6  1  0  0  0  0
  5  1  1  0  0  0  0
  6  7  1  0  0  0  0
  7  8  1  0  0  0  0
  8  9  1  0  0  0  0
  8 10  1  0  0  0  0
  8 15  1  0  0  0  0
  9 11  1  0  0  0  0
  9 16  1  0  0  0  0
  9 17  1  0  0  0  0
 10 18  1  0  0  0  0
 10 19  1  0  0  0  0
 10 20  1  0  0  0  0
 11 21  1  0  0  0  0
 11 22  1  0  0  0  0
 11 23  1  0  0  0  0
M  END
>  <Mol_ID>
2645

>  <Formula>
C7H12N2S2

>  <MolWeight>
188.31358

>  <Cat>
S7947

>  <Name>
PX-12

>  <Synonyms>
DB05448, 1-methyl propyl 2-imidazolyl disulfide

>  <Target>
COVID-19,Thioredoxin

>  <Form>
free base

>  <CAS>
141400-58-0

>  <URL>
http://selleckchem.com/products/px-12.html

$$$$
