Pyrazole
 OpenBabel08302521293D

  9  9  0  0  0  0  0  0  0  0999 V2000
   -0.2347   -1.0314    0.0015 N   0  0  0  0  0  0  0  0  0  0  0  0
   -1.1203   -0.0210    0.0034 N   0  0  0  0  0  0  0  0  0  0  0  0
    1.0640   -0.6120   -0.0013 C   0  0  0  0  0  0  0  0  0  0  0  0
    1.0193    0.7614   -0.0011 C   0  0  0  0  0  0  0  0  0  0  0  0
   -0.3528    1.0716    0.0023 C   0  0  0  0  0  0  0  0  0  0  0  0
   -0.5892   -1.9823    0.0024 H   0  0  0  0  0  0  0  0  0  0  0  0
    1.8851   -1.3141   -0.0028 H   0  0  0  0  0  0  0  0  0  0  0  0
    1.8567    1.4441   -0.0027 H   0  0  0  0  0  0  0  0  0  0  0  0
   -0.8242    2.0460    0.0040 H   0  0  0  0  0  0  0  0  0  0  0  0
  1  2  1  0  0  0  0
  1  3  1  0  0  0  0
  1  6  1  0  0  0  0
  2  5  2  0  0  0  0
  3  4  2  0  0  0  0
  3  7  1  0  0  0  0
  4  5  1  0  0  0  0
  4  8  1  0  0  0  0
  5  9  1  0  0  0  0
M  END
>  <Mol_ID>
5447

>  <Formula>
C3H4N2

>  <MolWeight>
68.07726

>  <Cat>
S3093

>  <Name>
Pyrazole

>  <Synonyms>
1H-pyrazole

>  <Target>
Others

>  <Form>
Free Base

>  <CAS>
288-13-1

>  <URL>
https://www.selleckchem.com/products/pyrazole.html

$$$$
