PYRAZINAMIDE (pyrazinamide).cdx
 OpenBabel08302521193D

 14 14  0  0  0  0  0  0  0  0999 V2000
    0.8054    1.0612    0.0009 C   0  0  0  0  0  0  0  0  0  0  0  0
   -0.5788    1.1611   -0.0000 C   0  0  0  0  0  0  0  0  0  0  0  0
   -1.3863    0.0753    0.0015 N   0  0  0  0  0  0  0  0  0  0  0  0
   -0.7467   -1.1229    0.0046 C   0  0  0  0  0  0  0  0  0  0  0  0
    0.6366   -1.2220    0.0063 C   0  0  0  0  0  0  0  0  0  0  0  0
    1.4540   -0.1276    0.0043 N   0  0  0  0  0  0  0  0  0  0  0  0
    1.2811   -2.5635    0.0128 C   0  0  0  0  0  0  0  0  0  0  0  0
    0.6338   -3.6027    0.0151 O   0  0  0  0  0  0  0  0  0  0  0  0
    2.6498   -2.5662    0.0176 N   0  0  0  0  0  0  0  0  0  0  0  0
    1.4318    1.9468   -0.0009 H   0  0  0  0  0  0  0  0  0  0  0  0
   -1.0786    2.1237   -0.0017 H   0  0  0  0  0  0  0  0  0  0  0  0
   -1.3827   -2.0018    0.0062 H   0  0  0  0  0  0  0  0  0  0  0  0
    3.1592   -1.6892    0.0178 H   0  0  0  0  0  0  0  0  0  0  0  0
    3.1453   -3.4456    0.0259 H   0  0  0  0  0  0  0  0  0  0  0  0
  1  2  2  0  0  0  0
  1 10  1  0  0  0  0
  2  3  1  0  0  0  0
  2 11  1  0  0  0  0
  3  4  2  0  0  0  0
  4  5  1  0  0  0  0
  4 12  1  0  0  0  0
  5  6  2  0  0  0  0
  5  7  1  0  0  0  0
  6  1  1  0  0  0  0
  7  8  2  0  0  0  0
  7  9  1  0  0  0  0
  9 13  1  0  0  0  0
  9 14  1  0  0  0  0
M  END
>  <Mol_ID>
428

>  <Formula>
C5H5N3O

>  <MolWeight>
123.1127

>  <Cat>
S1762

>  <Name>
Pyrazinamide

>  <Synonyms>
Pyrazinoic Acid Amide

>  <Target>
Bacterial

>  <Form>
free base

>  <CAS>
98-96-4

>  <URL>
http://selleckchem.com/products/Pyrazinamide(Pyrazinoic-acid-amide).html

$$$$
