Pyridoxal hydrochloride
 OpenBabel08302521293D

 21 21  0  0  0  0  0  0  0  0999 V2000
   -1.9235    1.1135   -0.0543 O   0  0  0  0  0  0  0  0  0  0  0  0
    3.0703    2.6457   -1.0595 O   0  0  0  0  0  0  0  0  0  0  0  0
   -0.8549    3.4378   -0.2070 O   0  0  0  0  0  0  0  0  0  0  0  0
    0.8322   -1.2582    0.0260 N   0  0  0  0  0  0  0  0  0  0  0  0
    1.7751    0.9738    0.0475 C   0  0  0  0  0  0  0  0  0  0  0  0
    0.4756    1.5033    0.0150 C   0  0  0  0  0  0  0  0  0  0  0  0
   -0.6352    0.6458   -0.0174 C   0  0  0  0  0  0  0  0  0  0  0  0
   -0.4165   -0.7280   -0.0014 C   0  0  0  0  0  0  0  0  0  0  0  0
    3.0189    1.8065    0.0817 C   0  0  0  0  0  0  0  0  0  0  0  0
    1.8815   -0.4106    0.0463 C   0  0  0  0  0  0  0  0  0  0  0  0
   -1.5416   -1.7203   -0.0059 C   0  0  0  0  0  0  0  0  0  0  0  0
    0.2583    2.9674    0.0236 C   0  0  0  0  0  0  0  0  0  0  0  0
   -1.8969    2.0916   -0.1545 H   0  0  0  0  0  0  0  0  0  0  0  0
    3.1480    2.0739   -1.8438 H   0  0  0  0  0  0  0  0  0  0  0  0
    3.0334    2.4265    0.9837 H   0  0  0  0  0  0  0  0  0  0  0  0
    3.9259    1.1919    0.0950 H   0  0  0  0  0  0  0  0  0  0  0  0
    2.8505   -0.9071    0.0639 H   0  0  0  0  0  0  0  0  0  0  0  0
   -1.4740   -2.3500   -0.8989 H   0  0  0  0  0  0  0  0  0  0  0  0
   -1.4707   -2.3584    0.8796 H   0  0  0  0  0  0  0  0  0  0  0  0
   -2.5282   -1.2485    0.0009 H   0  0  0  0  0  0  0  0  0  0  0  0
    1.1112    3.6261    0.2565 H   0  0  0  0  0  0  0  0  0  0  0  0
  1  7  1  0  0  0  0
  1 13  1  0  0  0  0
  2  9  1  0  0  0  0
  2 14  1  0  0  0  0
  3 12  2  0  0  0  0
  4  8  2  0  0  0  0
  4 10  1  0  0  0  0
  5  6  1  0  0  0  0
  5  9  1  0  0  0  0
  5 10  2  0  0  0  0
  6  7  2  0  0  0  0
  6 12  1  0  0  0  0
  7  8  1  0  0  0  0
  8 11  1  0  0  0  0
  9 15  1  0  0  0  0
  9 16  1  0  0  0  0
 10 17  1  0  0  0  0
 11 18  1  0  0  0  0
 11 19  1  0  0  0  0
 11 20  1  0  0  0  0
 12 21  1  0  0  0  0
M  END
>  <Mol_ID>
5456

>  <Formula>
C8H10ClNO3

>  <MolWeight>
203.6229

>  <Cat>
S3111

>  <Name>
Pyridoxal hydrochloride

>  <Synonyms>
HQ

>  <Target>
Others

>  <Form>
Free Base

>  <CAS>
65-22-5

>  <URL>
https://www.selleckchem.com/products/pyridoxal-hydrochloride.html

$$$$
