Pyriproxyfen
 OpenBabel08302521303D

 43 45  0  0  0  0  0  0  0  0999 V2000
    1.0287    0.1524   -1.0109 O   0  0  0  0  0  0  0  0  0  0  0  0
   -1.9049    2.2977   -1.5032 O   0  0  0  0  0  0  0  0  0  0  0  0
    6.4966    0.1849   -0.2437 O   0  0  0  0  0  0  0  0  0  0  0  0
   -2.5256    2.0983    0.7669 N   0  0  0  0  0  0  0  0  0  0  0  0
   -1.1960    1.0604   -1.3280 C   0  0  3  0  0  0  0  0  0  0  0  0
    0.2768    1.3687   -1.0384 C   0  0  0  0  0  0  0  0  0  0  0  0
   -1.3352    0.2754   -2.6324 C   0  0  0  0  0  0  0  0  0  0  0  0
    2.3882    0.2716   -0.9231 C   0  0  0  0  0  0  0  0  0  0  0  0
    3.0948    1.4731   -0.8592 C   0  0  0  0  0  0  0  0  0  0  0  0
    3.0898   -0.9384   -0.8964 C   0  0  0  0  0  0  0  0  0  0  0  0
    5.1579    0.2518   -0.5558 C   0  0  0  0  0  0  0  0  0  0  0  0
   -2.7040    2.6665   -0.4421 C   0  0  0  0  0  0  0  0  0  0  0  0
    4.4829    1.4611   -0.7139 C   0  0  0  0  0  0  0  0  0  0  0  0
    4.4739   -0.9510   -0.7117 C   0  0  0  0  0  0  0  0  0  0  0  0
    6.9780    1.0034    0.7610 C   0  0  0  0  0  0  0  0  0  0  0  0
   -3.6644    3.6348   -0.7038 C   0  0  0  0  0  0  0  0  0  0  0  0
    6.1993    1.5529    1.7877 C   0  0  0  0  0  0  0  0  0  0  0  0
    8.3497    1.2609    0.7320 C   0  0  0  0  0  0  0  0  0  0  0  0
   -4.5287    4.0037    0.3233 C   0  0  0  0  0  0  0  0  0  0  0  0
   -3.3831    2.4725    1.7418 C   0  0  0  0  0  0  0  0  0  0  0  0
   -4.3959    3.4037    1.5668 C   0  0  0  0  0  0  0  0  0  0  0  0
    6.7675    2.4329    2.7100 C   0  0  0  0  0  0  0  0  0  0  0  0
    8.9249    2.1153    1.6758 C   0  0  0  0  0  0  0  0  0  0  0  0
    8.1287    2.7179    2.6507 C   0  0  0  0  0  0  0  0  0  0  0  0
   -1.6164    0.4220   -0.5411 H   0  0  0  0  0  0  0  0  0  0  0  0
    0.3636    1.8898   -0.0760 H   0  0  0  0  0  0  0  0  0  0  0  0
    0.6491    2.0352   -1.8264 H   0  0  0  0  0  0  0  0  0  0  0  0
   -0.9273   -0.7340   -2.5331 H   0  0  0  0  0  0  0  0  0  0  0  0
   -2.3866    0.2013   -2.9249 H   0  0  0  0  0  0  0  0  0  0  0  0
   -0.8110    0.7834   -3.4508 H   0  0  0  0  0  0  0  0  0  0  0  0
    2.6001    2.4357   -0.8964 H   0  0  0  0  0  0  0  0  0  0  0  0
    2.5500   -1.8772   -0.9870 H   0  0  0  0  0  0  0  0  0  0  0  0
    5.0170    2.4052   -0.6677 H   0  0  0  0  0  0  0  0  0  0  0  0
    5.0083   -1.8962   -0.6587 H   0  0  0  0  0  0  0  0  0  0  0  0
   -3.7443    4.0763   -1.6919 H   0  0  0  0  0  0  0  0  0  0  0  0
    5.1407    1.3260    1.8767 H   0  0  0  0  0  0  0  0  0  0  0  0
    8.9716    0.8022   -0.0320 H   0  0  0  0  0  0  0  0  0  0  0  0
   -5.3052    4.7452    0.1439 H   0  0  0  0  0  0  0  0  0  0  0  0
   -3.2336    1.9843    2.7002 H   0  0  0  0  0  0  0  0  0  0  0  0
   -5.0673    3.6495    2.3825 H   0  0  0  0  0  0  0  0  0  0  0  0
    6.1432    2.8951    3.4704 H   0  0  0  0  0  0  0  0  0  0  0  0
    9.9915    2.3166    1.6469 H   0  0  0  0  0  0  0  0  0  0  0  0
    8.5709    3.4026    3.3695 H   0  0  0  0  0  0  0  0  0  0  0  0
  1  6  1  0  0  0  0
  1  8  1  0  0  0  0
  2  5  1  0  0  0  0
  2 12  1  0  0  0  0
  3 11  1  0  0  0  0
  3 15  1  0  0  0  0
  4 12  2  0  0  0  0
  4 20  1  0  0  0  0
  5  6  1  0  0  0  0
  5  7  1  0  0  0  0
  5 25  1  0  0  0  0
  6 26  1  0  0  0  0
  6 27  1  0  0  0  0
  7 28  1  0  0  0  0
  7 29  1  0  0  0  0
  7 30  1  0  0  0  0
  8  9  2  0  0  0  0
  8 10  1  0  0  0  0
  9 13  1  0  0  0  0
  9 31  1  0  0  0  0
 10 14  2  0  0  0  0
 10 32  1  0  0  0  0
 11 13  2  0  0  0  0
 11 14  1  0  0  0  0
 12 16  1  0  0  0  0
 13 33  1  0  0  0  0
 14 34  1  0  0  0  0
 15 17  2  0  0  0  0
 16 19  2  0  0  0  0
 16 35  1  0  0  0  0
 17 22  1  0  0  0  0
 17 36  1  0  0  0  0
 18 23  2  0  0  0  0
 18 15  1  0  0  0  0
 18 37  1  0  0  0  0
 19 21  1  0  0  0  0
 19 38  1  0  0  0  0
 20 21  2  0  0  0  0
 20 39  1  0  0  0  0
 21 40  1  0  0  0  0
 22 24  2  0  0  0  0
 22 41  1  0  0  0  0
 23 24  1  0  0  0  0
 23 42  1  0  0  0  0
 24 43  1  0  0  0  0
M  END
>  <Mol_ID>
5520

>  <Formula>
C20H19NO3

>  <MolWeight>
321.36976

>  <Cat>
S5798

>  <Name>
Pyriproxyfen

>  <Synonyms>
S-31183

>  <Target>
Others

>  <Form>
Free Base

>  <CAS>
95737-68-1

>  <URL>
https://www.selleckchem.com/products/pyriproxyfen.html

$$$$
