Pyrithioxin Dihydrochloride
 OpenBabel08302521303D

 44 45  0  0  0  0  0  0  0  0999 V2000
    1.0528    0.3949    0.6410 S   0  0  0  0  0  0  0  0  0  0  0  0
    0.5523    2.1707   -0.2932 S   0  0  0  0  0  0  0  0  0  0  0  0
    5.1594   -2.7230    3.3561 O   0  0  0  0  0  0  0  0  0  0  0  0
    0.7586    5.2808   -5.3184 O   0  0  0  0  0  0  0  0  0  0  0  0
    5.1178    0.0100    3.4158 O   0  0  0  0  0  0  0  0  0  0  0  0
    2.7368    3.3878   -4.6175 O   0  0  0  0  0  0  0  0  0  0  0  0
    4.1171   -3.3771   -0.0642 N   0  0  0  0  0  0  0  0  0  0  0  0
   -2.2083    3.6303   -4.0135 N   0  0  0  0  0  0  0  0  0  0  0  0
    3.3825   -1.1374    0.5469 C   0  0  0  0  0  0  0  0  0  0  0  0
   -0.2594    2.6896   -2.9066 C   0  0  0  0  0  0  0  0  0  0  0  0
    3.9173   -1.3067    1.8387 C   0  0  0  0  0  0  0  0  0  0  0  0
    0.5812    3.5749   -3.6113 C   0  0  0  0  0  0  0  0  0  0  0  0
    2.7486    0.1348    0.0456 C   0  0  0  0  0  0  0  0  0  0  0  0
    0.2245    1.6025   -1.9862 C   0  0  0  0  0  0  0  0  0  0  0  0
    4.5690   -2.5213    2.1355 C   0  0  0  0  0  0  0  0  0  0  0  0
   -0.0084    4.4444   -4.5490 C   0  0  0  0  0  0  0  0  0  0  0  0
    4.6519   -3.5245    1.1712 C   0  0  0  0  0  0  0  0  0  0  0  0
   -1.3933    4.4424   -4.7310 C   0  0  0  0  0  0  0  0  0  0  0  0
    3.8103   -0.2508    2.9065 C   0  0  0  0  0  0  0  0  0  0  0  0
    2.0680    3.6292   -3.3827 C   0  0  0  0  0  0  0  0  0  0  0  0
    3.5026   -2.2082   -0.3408 C   0  0  0  0  0  0  0  0  0  0  0  0
   -1.6346    2.7927   -3.1294 C   0  0  0  0  0  0  0  0  0  0  0  0
    5.3636   -4.8224    1.4205 C   0  0  0  0  0  0  0  0  0  0  0  0
   -2.0742    5.2852   -5.7645 C   0  0  0  0  0  0  0  0  0  0  0  0
    5.2568   -1.8599    3.8078 H   0  0  0  0  0  0  0  0  0  0  0  0
    1.6949    5.0010   -5.2592 H   0  0  0  0  0  0  0  0  0  0  0  0
    5.6966    0.1541    2.6437 H   0  0  0  0  0  0  0  0  0  0  0  0
    2.3439    2.5839   -5.0055 H   0  0  0  0  0  0  0  0  0  0  0  0
    2.7120    0.1032   -1.0490 H   0  0  0  0  0  0  0  0  0  0  0  0
    3.3821    0.9902    0.3075 H   0  0  0  0  0  0  0  0  0  0  0  0
    1.1320    1.1547   -2.4080 H   0  0  0  0  0  0  0  0  0  0  0  0
   -0.5171    0.7969   -1.9476 H   0  0  0  0  0  0  0  0  0  0  0  0
    3.3922    0.6949    2.5590 H   0  0  0  0  0  0  0  0  0  0  0  0
    3.1855   -0.6137    3.7299 H   0  0  0  0  0  0  0  0  0  0  0  0
    2.3553    4.6253   -3.0272 H   0  0  0  0  0  0  0  0  0  0  0  0
    2.4333    2.9092   -2.6504 H   0  0  0  0  0  0  0  0  0  0  0  0
    3.1089   -2.1524   -1.3537 H   0  0  0  0  0  0  0  0  0  0  0  0
   -2.3404    2.1620   -2.5944 H   0  0  0  0  0  0  0  0  0  0  0  0
    4.6637   -5.6536    1.3037 H   0  0  0  0  0  0  0  0  0  0  0  0
    6.1773   -4.9384    0.6998 H   0  0  0  0  0  0  0  0  0  0  0  0
    5.7952   -4.8835    2.4250 H   0  0  0  0  0  0  0  0  0  0  0  0
   -2.5155    4.6372   -6.5301 H   0  0  0  0  0  0  0  0  0  0  0  0
   -2.8746    5.8690   -5.2973 H   0  0  0  0  0  0  0  0  0  0  0  0
   -1.3966    5.9835   -6.2627 H   0  0  0  0  0  0  0  0  0  0  0  0
  1  2  1  0  0  0  0
  1 13  1  0  0  0  0
  2 14  1  0  0  0  0
  3 15  1  0  0  0  0
  3 25  1  0  0  0  0
  4 16  1  0  0  0  0
  4 26  1  0  0  0  0
  5 19  1  0  0  0  0
  5 27  1  0  0  0  0
  6 20  1  0  0  0  0
  6 28  1  0  0  0  0
  7 17  2  0  0  0  0
  7 21  1  0  0  0  0
  8 18  2  0  0  0  0
  8 22  1  0  0  0  0
  9 11  1  0  0  0  0
  9 13  1  0  0  0  0
  9 21  2  0  0  0  0
 10 12  1  0  0  0  0
 10 14  1  0  0  0  0
 10 22  2  0  0  0  0
 11 15  2  0  0  0  0
 11 19  1  0  0  0  0
 12 16  2  0  0  0  0
 12 20  1  0  0  0  0
 13 29  1  0  0  0  0
 13 30  1  0  0  0  0
 14 31  1  0  0  0  0
 14 32  1  0  0  0  0
 15 17  1  0  0  0  0
 16 18  1  0  0  0  0
 17 23  1  0  0  0  0
 18 24  1  0  0  0  0
 19 33  1  0  0  0  0
 19 34  1  0  0  0  0
 20 35  1  0  0  0  0
 20 36  1  0  0  0  0
 21 37  1  0  0  0  0
 22 38  1  0  0  0  0
 23 39  1  0  0  0  0
 23 40  1  0  0  0  0
 23 41  1  0  0  0  0
 24 42  1  0  0  0  0
 24 43  1  0  0  0  0
 24 44  1  0  0  0  0
M  END
>  <Mol_ID>
5662

>  <Formula>
C16H22Cl2N2O4S2

>  <MolWeight>
441.39288

>  <Cat>
S4730

>  <Name>
Pyrithioxin Dihydrochloride

>  <Synonyms>
Bonifen Dihydrochloride, Encefabol Dihydrochloride, Pyritinol Dihydrochloride, Vitamin B6 disulfide Dihydrochloride

>  <Target>
Others

>  <Form>
Dihydrochloride

>  <CAS>
10049-83-9

>  <URL>
http://www.selleckchem.com/products/pyrithioxin-dihydrochloride.html

$$$$
