Pyrilamine Maleate.cdx
 OpenBabel08302519553D

 56 56  0  0  0  0  0  0  0  0999 V2000
    0.9868    2.0379   -0.0054 C   0  0  0  0  0  0  0  0  0  0  0  0
   -0.8187    1.9311   -0.0375 C   0  0  0  0  0  0  0  0  0  0  0  0
   -1.6419    0.3149   -0.0821 C   0  0  0  0  0  0  0  0  0  0  0  0
   -0.6136   -1.2071   -0.1195 C   0  0  0  0  0  0  0  0  0  0  0  0
    1.1519   -1.0582   -0.1700 N   0  0  0  0  0  0  0  0  0  0  0  0
    1.9651    0.5237   -0.1098 C   0  0  0  0  0  0  0  0  0  0  0  0
   -1.1959   -2.4537    0.0124 N   0  0  0  0  0  0  0  0  0  0  0  0
   -2.6434   -2.6345   -0.0068 C   0  0  0  0  0  0  0  0  0  0  0  0
   -3.1951   -2.6508   -1.4196 C   0  0  0  0  0  0  0  0  0  0  0  0
   -2.8240   -3.6667   -2.3099 C   0  0  0  0  0  0  0  0  0  0  0  0
   -3.2775   -3.6749   -3.6296 C   0  0  0  0  0  0  0  0  0  0  0  0
   -4.1222   -2.6681   -4.0880 C   0  0  0  0  0  0  0  0  0  0  0  0
   -4.5364   -1.6746   -3.1997 C   0  0  0  0  0  0  0  0  0  0  0  0
   -4.0851   -1.6670   -1.8741 C   0  0  0  0  0  0  0  0  0  0  0  0
   -4.6026   -2.5576   -5.3640 O   0  0  0  0  0  0  0  0  0  0  0  0
   -4.1270   -3.5205   -6.2995 C   0  0  0  0  0  0  0  0  0  0  0  0
   -0.3162   -3.6315   -0.0776 C   0  0  0  0  0  0  0  0  0  0  0  0
    0.6720   -3.8478    1.1067 C   0  0  0  0  0  0  0  0  0  0  0  0
    0.1031   -3.8100    2.4769 N   0  0  0  0  0  0  0  0  0  0  0  0
   -0.7797   -4.9520    2.7345 C   0  0  0  0  0  0  0  0  0  0  0  0
    1.1918   -3.8171    3.4638 C   0  0  0  0  0  0  0  0  0  0  0  0
    0.1434    0.3328    0.9774 C   0  0  0  0  0  0  0  0  0  0  0  0
   -0.5261    0.0857    2.1892 C   0  0  0  0  0  0  0  0  0  0  0  0
    0.1644    0.4307   -1.1543 C   0  0  0  0  0  0  0  0  0  0  0  0
   -1.9046   -0.2530    2.6599 C   0  0  0  0  0  0  0  0  0  0  0  0
   -1.8744   -1.0436    3.7564 O   0  0  0  0  0  0  0  0  0  0  0  0
   -0.8224   -0.0318   -2.0985 O   0  0  0  0  0  0  0  0  0  0  0  0
    1.0009    0.9390   -1.9548 O   0  0  0  0  0  0  0  0  0  0  0  0
   -2.9539    0.1893    2.2233 O   0  0  0  0  0  0  0  0  0  0  0  0
    1.4753    3.0061   -0.0746 H   0  0  0  0  0  0  0  0  0  0  0  0
   -1.4155    2.8357   -0.0551 H   0  0  0  0  0  0  0  0  0  0  0  0
   -2.7249    0.2792   -0.0879 H   0  0  0  0  0  0  0  0  0  0  0  0
    3.0388    0.4766   -0.2224 H   0  0  0  0  0  0  0  0  0  0  0  0
   -2.9180   -3.5773    0.4829 H   0  0  0  0  0  0  0  0  0  0  0  0
   -3.1444   -1.8632    0.5854 H   0  0  0  0  0  0  0  0  0  0  0  0
   -2.1662   -4.4682   -1.9906 H   0  0  0  0  0  0  0  0  0  0  0  0
   -2.9428   -4.4825   -4.2705 H   0  0  0  0  0  0  0  0  0  0  0  0
   -5.2145   -0.8957   -3.5443 H   0  0  0  0  0  0  0  0  0  0  0  0
   -4.4368   -0.8797   -1.2098 H   0  0  0  0  0  0  0  0  0  0  0  0
   -3.0327   -3.5180   -6.3583 H   0  0  0  0  0  0  0  0  0  0  0  0
   -4.5050   -4.5182   -6.0515 H   0  0  0  0  0  0  0  0  0  0  0  0
   -4.5097   -3.2525   -7.2883 H   0  0  0  0  0  0  0  0  0  0  0  0
   -0.9251   -4.5391   -0.1548 H   0  0  0  0  0  0  0  0  0  0  0  0
    0.2559   -3.5915   -1.0158 H   0  0  0  0  0  0  0  0  0  0  0  0
    1.1876   -4.8057    0.9434 H   0  0  0  0  0  0  0  0  0  0  0  0
    1.4549   -3.0874    1.0386 H   0  0  0  0  0  0  0  0  0  0  0  0
   -0.2250   -5.8799    2.9232 H   0  0  0  0  0  0  0  0  0  0  0  0
   -1.3989   -4.7400    3.6124 H   0  0  0  0  0  0  0  0  0  0  0  0
   -1.4687   -5.1452    1.9078 H   0  0  0  0  0  0  0  0  0  0  0  0
    1.7106   -4.7829    3.5138 H   0  0  0  0  0  0  0  0  0  0  0  0
    1.9395   -3.0477    3.2400 H   0  0  0  0  0  0  0  0  0  0  0  0
    0.7933   -3.5874    4.4575 H   0  0  0  0  0  0  0  0  0  0  0  0
    1.1005    0.5330    1.5115 H   0  0  0  0  0  0  0  0  0  0  0  0
    0.1047    0.1572    3.0804 H   0  0  0  0  0  0  0  0  0  0  0  0
   -1.0219   -1.4959    3.9054 H   0  0  0  0  0  0  0  0  0  0  0  0
   -1.6128   -0.5774   -1.9481 H   0  0  0  0  0  0  0  0  0  0  0  0
  1  2  2  0  0  0  0
  1 30  1  0  0  0  0
  2  3  1  0  0  0  0
  2 31  1  0  0  0  0
  3  4  2  0  0  0  0
  3 32  1  0  0  0  0
  4  5  1  0  0  0  0
  4  7  1  0  0  0  0
  5  6  2  0  0  0  0
  6  1  1  0  0  0  0
  6 33  1  0  0  0  0
  7  8  1  0  0  0  0
  7 17  1  0  0  0  0
  8  9  1  0  0  0  0
  8 34  1  0  0  0  0
  8 35  1  0  0  0  0
  9 10  2  0  0  0  0
 10 11  1  0  0  0  0
 10 36  1  0  0  0  0
 11 12  2  0  0  0  0
 11 37  1  0  0  0  0
 12 13  1  0  0  0  0
 12 15  1  0  0  0  0
 13 14  2  0  0  0  0
 13 38  1  0  0  0  0
 14  9  1  0  0  0  0
 14 39  1  0  0  0  0
 15 16  1  0  0  0  0
 16 40  1  0  0  0  0
 16 41  1  0  0  0  0
 16 42  1  0  0  0  0
 17 18  1  0  0  0  0
 17 43  1  0  0  0  0
 17 44  1  0  0  0  0
 18 19  1  0  0  0  0
 18 45  1  0  0  0  0
 18 46  1  0  0  0  0
 19 20  1  0  0  0  0
 19 21  1  0  0  0  0
 20 47  1  0  0  0  0
 20 48  1  0  0  0  0
 20 49  1  0  0  0  0
 21 50  1  0  0  0  0
 21 51  1  0  0  0  0
 21 52  1  0  0  0  0
 22 23  2  0  0  0  0
 22 24  1  0  0  0  0
 22 53  1  0  0  0  0
 23 25  1  0  0  0  0
 23 54  1  0  0  0  0
 24 27  1  0  0  0  0
 24 28  2  0  0  0  0
 25 26  1  0  0  0  0
 25 29  2  0  0  0  0
 26 55  1  0  0  0  0
 27 56  1  0  0  0  0
M  END
>  <Mol_ID>
2178

>  <Formula>
C21H27N3O5

>  <MolWeight>
401.45618

>  <Cat>
S4382

>  <Name>
Pyrilamine Maleate

>  <Synonyms>
Mepyramine Maleate

>  <Target>
Histamine Receptor

>  <Form>
maleate

>  <CAS>
59-33-6

>  <URL>
https://www.selleckchem.com/products/pyrilamine-maleate.html

$$$$
