Pyridoxine hydrochloride.cdx
 OpenBabel08302521443D

 23 23  0  0  0  0  0  0  0  0999 V2000
    1.8740   -0.4257    0.0164 C   0  0  0  0  0  0  0  0  0  0  0  0
    1.7528    0.9622    0.0124 C   0  0  0  0  0  0  0  0  0  0  0  0
    0.4533    1.5083    0.0020 C   0  0  0  0  0  0  0  0  0  0  0  0
   -0.6389    0.6163    0.0222 C   0  0  0  0  0  0  0  0  0  0  0  0
   -0.4139   -0.7600    0.0152 C   0  0  0  0  0  0  0  0  0  0  0  0
    0.8335   -1.2888    0.0077 N   0  0  0  0  0  0  0  0  0  0  0  0
    3.0094    1.7897    0.0577 C   0  0  0  0  0  0  0  0  0  0  0  0
    3.1254    2.5927   -1.1076 O   0  0  0  0  0  0  0  0  0  0  0  0
    0.2364    3.0039    0.0348 C   0  0  0  0  0  0  0  0  0  0  0  0
   -0.9869    3.3365   -0.6232 O   0  0  0  0  0  0  0  0  0  0  0  0
   -1.5358   -1.7565    0.0194 C   0  0  0  0  0  0  0  0  0  0  0  0
   -1.9331    1.0632    0.0496 O   0  0  0  0  0  0  0  0  0  0  0  0
    2.8465   -0.9117    0.0269 H   0  0  0  0  0  0  0  0  0  0  0  0
    3.0103    2.4344    0.9415 H   0  0  0  0  0  0  0  0  0  0  0  0
    3.9024    1.1602    0.1117 H   0  0  0  0  0  0  0  0  0  0  0  0
    3.0096    2.0104   -1.8761 H   0  0  0  0  0  0  0  0  0  0  0  0
    0.1779    3.3480    1.0726 H   0  0  0  0  0  0  0  0  0  0  0  0
    1.0262    3.5625   -0.4723 H   0  0  0  0  0  0  0  0  0  0  0  0
   -0.8841    3.0238   -1.5437 H   0  0  0  0  0  0  0  0  0  0  0  0
   -1.4687   -2.3837   -0.8755 H   0  0  0  0  0  0  0  0  0  0  0  0
   -1.4599   -2.3968    0.9042 H   0  0  0  0  0  0  0  0  0  0  0  0
   -2.5242   -1.2893    0.0269 H   0  0  0  0  0  0  0  0  0  0  0  0
   -1.9291    2.0431    0.0046 H   0  0  0  0  0  0  0  0  0  0  0  0
  1  2  2  0  0  0  0
  1  6  1  0  0  0  0
  1 13  1  0  0  0  0
  2  3  1  0  0  0  0
  2  7  1  0  0  0  0
  3  4  2  0  0  0  0
  3  9  1  0  0  0  0
  4  5  1  0  0  0  0
  4 12  1  0  0  0  0
  5  6  2  0  0  0  0
  5 11  1  0  0  0  0
  7  8  1  0  0  0  0
  7 14  1  0  0  0  0
  7 15  1  0  0  0  0
  8 16  1  0  0  0  0
  9 10  1  0  0  0  0
  9 17  1  0  0  0  0
  9 18  1  0  0  0  0
 10 19  1  0  0  0  0
 11 20  1  0  0  0  0
 11 21  1  0  0  0  0
 11 22  1  0  0  0  0
 12 23  1  0  0  0  0
M  END
>  <Mol_ID>
916

>  <Formula>
C8H12ClNO3

>  <MolWeight>
205.63878

>  <Cat>
S3113

>  <Name>
Pyridoxine HCl

>  <Synonyms>
Vitamin B6,Pyridoxol hydrochloride

>  <Target>
Vitamin

>  <Form>
Hydrochloride

>  <CAS>
58-56-0

>  <URL>
http://selleckchem.com/products/pyridoxine-hydrochloride.html

$$$$
