pyrimethamine.cdx
 OpenBabel08302521243D

 30 31  0  0  0  0  0  0  0  0999 V2000
    0.0948    0.9789   -0.1057 N   0  0  0  0  0  0  0  0  0  0  0  0
   -1.0774    0.3567   -0.1483 C   0  0  0  0  0  0  0  0  0  0  0  0
   -1.2283   -0.9566   -0.0511 N   0  0  0  0  0  0  0  0  0  0  0  0
   -0.1153   -1.7280    0.0697 C   0  0  0  0  0  0  0  0  0  0  0  0
    1.1840   -1.1978    0.0539 C   0  0  0  0  0  0  0  0  0  0  0  0
    1.1928    0.2066   -0.0269 C   0  0  0  0  0  0  0  0  0  0  0  0
   -2.2137    1.1285   -0.2490 N   0  0  0  0  0  0  0  0  0  0  0  0
   -0.4175   -3.2091    0.1700 C   0  0  0  0  0  0  0  0  0  0  0  0
   -1.7798   -3.5474    0.7719 C   0  0  0  0  0  0  0  0  0  0  0  0
    2.3694    0.9648   -0.0074 N   0  0  0  0  0  0  0  0  0  0  0  0
    2.4408   -2.0126    0.1091 C   0  0  0  0  0  0  0  0  0  0  0  0
    2.5858   -3.2218   -0.5992 C   0  0  0  0  0  0  0  0  0  0  0  0
    3.7608   -3.9836   -0.5445 C   0  0  0  0  0  0  0  0  0  0  0  0
    4.8599   -3.5213    0.1667 C   0  0  0  0  0  0  0  0  0  0  0  0
    4.7690   -2.3167    0.8508 C   0  0  0  0  0  0  0  0  0  0  0  0
    3.5682   -1.5948    0.8469 C   0  0  0  0  0  0  0  0  0  0  0  0
   -2.0340    2.0486    0.1301 H   0  0  0  0  0  0  0  0  0  0  0  0
   -2.9981    0.6174    0.1259 H   0  0  0  0  0  0  0  0  0  0  0  0
   -0.3791   -3.6361   -0.8370 H   0  0  0  0  0  0  0  0  0  0  0  0
    0.3338   -3.7077    0.7916 H   0  0  0  0  0  0  0  0  0  0  0  0
   -2.6016   -3.1638    0.1557 H   0  0  0  0  0  0  0  0  0  0  0  0
   -1.8979   -4.6331    0.8396 H   0  0  0  0  0  0  0  0  0  0  0  0
   -1.8801   -3.1283    1.7773 H   0  0  0  0  0  0  0  0  0  0  0  0
    2.0972    1.9364   -0.1322 H   0  0  0  0  0  0  0  0  0  0  0  0
    3.0214    0.6532   -0.7210 H   0  0  0  0  0  0  0  0  0  0  0  0
    1.7832   -3.6042   -1.2227 H   0  0  0  0  0  0  0  0  0  0  0  0
    3.8157   -4.9328   -1.0720 H   0  0  0  0  0  0  0  0  0  0  0  0
    5.7832   -4.0949    0.1852 H   0  0  0  0  0  0  0  0  0  0  0  0
    5.6296   -1.9318    1.3927 H   0  0  0  0  0  0  0  0  0  0  0  0
    3.5377   -0.6748    1.4295 H   0  0  0  0  0  0  0  0  0  0  0  0
  1  2  2  0  0  0  0
  2  3  1  0  0  0  0
  2  7  1  0  0  0  0
  3  4  2  0  0  0  0
  4  5  1  0  0  0  0
  4  8  1  0  0  0  0
  5  6  2  0  0  0  0
  5 11  1  0  0  0  0
  6  1  1  0  0  0  0
  6 10  1  0  0  0  0
  7 17  1  0  0  0  0
  7 18  1  0  0  0  0
  8  9  1  0  0  0  0
  8 19  1  0  0  0  0
  8 20  1  0  0  0  0
  9 21  1  0  0  0  0
  9 22  1  0  0  0  0
  9 23  1  0  0  0  0
 10 24  1  0  0  0  0
 10 25  1  0  0  0  0
 11 12  2  0  0  0  0
 12 13  1  0  0  0  0
 12 26  1  0  0  0  0
 13 14  2  0  0  0  0
 13 27  1  0  0  0  0
 14 15  1  0  0  0  0
 14 28  1  0  0  0  0
 15 16  2  0  0  0  0
 15 29  1  0  0  0  0
 16 11  1  0  0  0  0
 16 30  1  0  0  0  0
M  END
>  <Mol_ID>
477

>  <Formula>
C12H13ClN4

>  <MolWeight>
248.71142

>  <Cat>
S2006

>  <Name>
Pyrimethamine

>  <Synonyms>
RP 4753

>  <Target>
DHFR

>  <Form>
free base

>  <CAS>
58-14-0

>  <URL>
http://selleckchem.com/products/Pyrimethamine.html

$$$$
