Pyrimidine
 OpenBabel08302521353D

 10 10  0  0  0  0  0  0  0  0999 V2000
   -0.0970   -1.4254    0.0008 C   0  0  0  0  0  0  0  0  0  0  0  0
    1.1132   -0.7707    0.0129 C   0  0  0  0  0  0  0  0  0  0  0  0
   -1.2105   -0.6176   -0.0125 C   0  0  0  0  0  0  0  0  0  0  0  0
    1.2336    0.5700    0.0136 N   0  0  0  0  0  0  0  0  0  0  0  0
   -1.1539    0.7272   -0.0124 N   0  0  0  0  0  0  0  0  0  0  0  0
    0.0799    1.2562    0.0014 C   0  0  0  0  0  0  0  0  0  0  0  0
   -0.1679   -2.5037    0.0017 H   0  0  0  0  0  0  0  0  0  0  0  0
    2.0497   -1.3207    0.0222 H   0  0  0  0  0  0  0  0  0  0  0  0
   -2.2110   -1.0399   -0.0242 H   0  0  0  0  0  0  0  0  0  0  0  0
    0.1511    2.3382    0.0034 H   0  0  0  0  0  0  0  0  0  0  0  0
  1  2  2  0  0  0  0
  1  3  1  0  0  0  0
  1  7  1  0  0  0  0
  2  4  1  0  0  0  0
  2  8  1  0  0  0  0
  3  5  2  0  0  0  0
  3  9  1  0  0  0  0
  4  6  2  0  0  0  0
  5  6  1  0  0  0  0
  6 10  1  0  0  0  0
M  END
>  <Mol_ID>
7003

>  <Formula>
C4H4N2

>  <MolWeight>
80.08796

>  <Cat>
E4265

>  <Name>
Pyrimidine

>  <Synonyms>
Pyrimidine

>  <Target>
Others

>  <Form>
free base

>  <CAS>
289-95-2

>  <URL>
https://www.selleckchem.com/products/pyrimidine.html

$$$$
