Pyridoxylamine (dihydrochloride)
 OpenBabel08302521363D

 24 24  0  0  0  0  0  0  0  0999 V2000
    1.0011    0.0775    0.1405 C   0  0  0  0  0  0  0  0  0  0  0  0
    2.4114   -0.2325    0.3414 N   0  0  0  0  0  0  0  0  0  0  0  0
    0.9393   -2.7482   -0.9322 C   0  0  0  0  0  0  0  0  0  0  0  0
   -0.1437   -3.6713   -0.8431 O   0  0  0  0  0  0  0  0  0  0  0  0
    0.1265    2.1271   -1.8379 O   0  0  0  0  0  0  0  0  0  0  0  0
   -0.7133    1.4887   -4.4622 C   0  0  0  0  0  0  0  0  0  0  0  0
    0.5626   -0.2130   -1.2760 C   0  0  0  0  0  0  0  0  0  0  0  0
    0.5337   -1.5483   -1.7449 C   0  0  0  0  0  0  0  0  0  0  0  0
    0.1520    0.8003   -2.1695 C   0  0  0  0  0  0  0  0  0  0  0  0
    0.1151   -1.7753   -3.0567 C   0  0  0  0  0  0  0  0  0  0  0  0
   -0.2657    0.4599   -3.4649 C   0  0  0  0  0  0  0  0  0  0  0  0
   -0.2835   -0.8165   -3.9123 N   0  0  0  0  0  0  0  0  0  0  0  0
    0.8320    1.1160    0.4297 H   0  0  0  0  0  0  0  0  0  0  0  0
    0.3854   -0.5115    0.8296 H   0  0  0  0  0  0  0  0  0  0  0  0
    2.9881    0.3474   -0.2652 H   0  0  0  0  0  0  0  0  0  0  0  0
    2.6778   -0.0137    1.3004 H   0  0  0  0  0  0  0  0  0  0  0  0
    1.7884   -3.2526   -1.4066 H   0  0  0  0  0  0  0  0  0  0  0  0
    1.2306   -2.5114    0.0911 H   0  0  0  0  0  0  0  0  0  0  0  0
   -0.9556   -3.1515   -0.7131 H   0  0  0  0  0  0  0  0  0  0  0  0
    0.5853    2.2975   -1.0058 H   0  0  0  0  0  0  0  0  0  0  0  0
   -0.0355    1.4856   -5.3215 H   0  0  0  0  0  0  0  0  0  0  0  0
   -1.7219    1.2468   -4.8114 H   0  0  0  0  0  0  0  0  0  0  0  0
   -0.7372    2.5039   -4.0557 H   0  0  0  0  0  0  0  0  0  0  0  0
    0.0828   -2.7847   -3.4636 H   0  0  0  0  0  0  0  0  0  0  0  0
  1  2  1  0  0  0  0
  1  7  1  0  0  0  0
  1 13  1  0  0  0  0
  1 14  1  0  0  0  0
  2 15  1  0  0  0  0
  2 16  1  0  0  0  0
  3  4  1  0  0  0  0
  3  8  1  0  0  0  0
  3 17  1  0  0  0  0
  3 18  1  0  0  0  0
  4 19  1  0  0  0  0
  5  9  1  0  0  0  0
  5 20  1  0  0  0  0
  6 11  1  0  0  0  0
  6 21  1  0  0  0  0
  6 22  1  0  0  0  0
  6 23  1  0  0  0  0
  7  8  2  0  0  0  0
  7  9  1  0  0  0  0
  8 10  1  0  0  0  0
  9 11  2  0  0  0  0
 10 12  2  0  0  0  0
 10 24  1  0  0  0  0
 11 12  1  0  0  0  0
M  END
>  <Mol_ID>
7088

>  <Formula>
C8H13ClN2O2

>  <MolWeight>
204.65402

>  <Cat>
E4103

>  <Name>
Pyridoxylamine (dihydrochloride)

>  <Synonyms>
Pyridoxamine dihydrochloride

>  <Target>
Others

>  <Form>
dihydrochloride salt

>  <CAS>
524-36-7

>  <URL>
https://www.selleckchem.com/products/pyridoxylamine-dihydrochloride.html

$$$$
