Pyrintegrin
 OpenBabel08302521323D

 57 61  0  0  0  0  0  0  0  0999 V2000
    0.4186   -0.3900    8.4027 O   0  0  0  0  0  0  0  0  0  0  0  0
   -6.6577   -2.7266    5.1651 N   0  0  0  0  0  0  0  0  0  0  0  0
  -12.4018   -3.1059    3.5677 S   0  0  0  0  0  0  0  0  0  0  0  0
  -12.5650   -1.8318    2.4733 N   0  0  0  0  0  0  0  0  0  0  0  0
  -12.5564   -4.3557    2.8660 O   0  0  0  0  0  0  0  0  0  0  0  0
  -13.2352   -2.7468    4.6963 O   0  0  0  0  0  0  0  0  0  0  0  0
  -12.4605   -2.1550    1.0517 C   0  0  0  0  0  0  0  0  0  0  0  0
   -1.4490   -2.1106    5.0700 C   0  0  0  0  0  0  0  0  0  0  0  0
   -2.0686   -2.7293    3.9503 N   0  0  0  0  0  0  0  0  0  0  0  0
   -0.0955   -1.6928    5.0010 C   0  0  0  0  0  0  0  0  0  0  0  0
   -2.1019   -1.9610    6.3055 C   0  0  0  0  0  0  0  0  0  0  0  0
   -1.4287   -2.4245    2.6597 C   0  0  0  0  0  0  0  0  0  0  0  0
    0.7130   -1.8449    3.7356 C   0  0  0  0  0  0  0  0  0  0  0  0
    0.5351   -1.1056    6.1143 C   0  0  0  0  0  0  0  0  0  0  0  0
   -1.4720   -1.3767    7.4090 C   0  0  0  0  0  0  0  0  0  0  0  0
    0.0461   -2.7773    2.7401 C   0  0  0  0  0  0  0  0  0  0  0  0
   -0.1605   -0.9510    7.3047 C   0  0  0  0  0  0  0  0  0  0  0  0
   -3.3769   -3.2660    3.8470 C   0  0  0  0  0  0  0  0  0  0  0  0
   -4.3968   -2.7386    4.5581 N   0  0  0  0  0  0  0  0  0  0  0  0
   -3.5814   -4.3714    3.0352 C   0  0  0  0  0  0  0  0  0  0  0  0
   -5.6049   -3.3003    4.4480 C   0  0  0  0  0  0  0  0  0  0  0  0
   -4.8439   -4.8889    2.9844 C   0  0  0  0  0  0  0  0  0  0  0  0
   -5.8574   -4.3741    3.6797 N   0  0  0  0  0  0  0  0  0  0  0  0
   -8.0110   -2.7280    4.7913 C   0  0  0  0  0  0  0  0  0  0  0  0
   -9.0163   -2.6074    5.7590 C   0  0  0  0  0  0  0  0  0  0  0  0
   -8.3901   -2.9309    3.4575 C   0  0  0  0  0  0  0  0  0  0  0  0
  -10.3673   -2.7206    5.4019 C   0  0  0  0  0  0  0  0  0  0  0  0
   -9.7228   -3.0668    3.0960 C   0  0  0  0  0  0  0  0  0  0  0  0
  -10.7105   -2.9501    4.0666 C   0  0  0  0  0  0  0  0  0  0  0  0
  -12.5821   -0.8968    0.2518 C   0  0  0  0  0  0  0  0  0  0  0  0
  -13.8889   -0.1540    0.1382 C   0  0  0  0  0  0  0  0  0  0  0  0
  -13.3583   -0.9223   -1.0401 C   0  0  0  0  0  0  0  0  0  0  0  0
    1.3260   -0.1305    8.1755 H   0  0  0  0  0  0  0  0  0  0  0  0
   -6.3403   -1.9359    5.7067 H   0  0  0  0  0  0  0  0  0  0  0  0
  -13.3331   -1.2204    2.7454 H   0  0  0  0  0  0  0  0  0  0  0  0
  -11.4975   -2.6099    0.8174 H   0  0  0  0  0  0  0  0  0  0  0  0
  -13.2512   -2.8614    0.7768 H   0  0  0  0  0  0  0  0  0  0  0  0
   -3.1249   -2.2927    6.4447 H   0  0  0  0  0  0  0  0  0  0  0  0
   -1.5686   -1.3624    2.4155 H   0  0  0  0  0  0  0  0  0  0  0  0
   -1.8606   -2.9777    1.8176 H   0  0  0  0  0  0  0  0  0  0  0  0
    1.7118   -2.2315    3.9698 H   0  0  0  0  0  0  0  0  0  0  0  0
    0.8338   -0.8527    3.2836 H   0  0  0  0  0  0  0  0  0  0  0  0
    1.5701   -0.7869    6.0356 H   0  0  0  0  0  0  0  0  0  0  0  0
   -2.0118   -1.2631    8.3445 H   0  0  0  0  0  0  0  0  0  0  0  0
    0.1627   -3.8212    3.0606 H   0  0  0  0  0  0  0  0  0  0  0  0
    0.5232   -2.6824    1.7588 H   0  0  0  0  0  0  0  0  0  0  0  0
   -2.7811   -4.8451    2.4822 H   0  0  0  0  0  0  0  0  0  0  0  0
   -5.0865   -5.7519    2.3748 H   0  0  0  0  0  0  0  0  0  0  0  0
   -8.7529   -2.4732    6.8056 H   0  0  0  0  0  0  0  0  0  0  0  0
   -7.6421   -3.0039    2.6729 H   0  0  0  0  0  0  0  0  0  0  0  0
  -11.1349   -2.6554    6.1696 H   0  0  0  0  0  0  0  0  0  0  0  0
   -9.9590   -3.2813    2.0617 H   0  0  0  0  0  0  0  0  0  0  0  0
  -11.6730   -0.3042    0.2888 H   0  0  0  0  0  0  0  0  0  0  0  0
  -14.7571   -0.5475    0.6548 H   0  0  0  0  0  0  0  0  0  0  0  0
  -13.8551    0.9285    0.0880 H   0  0  0  0  0  0  0  0  0  0  0  0
  -12.9606   -0.3673   -1.8816 H   0  0  0  0  0  0  0  0  0  0  0  0
  -13.8793   -1.8321   -1.3200 H   0  0  0  0  0  0  0  0  0  0  0  0
  1 17  1  0  0  0  0
  1 33  1  0  0  0  0
  2 21  1  0  0  0  0
  2 24  1  0  0  0  0
  2 34  1  0  0  0  0
  3  4  1  0  0  0  0
  3  5  2  0  0  0  0
  3  6  2  0  0  0  0
  3 29  1  0  0  0  0
  4  7  1  0  0  0  0
  4 35  1  0  0  0  0
  7 30  1  0  0  0  0
  7 36  1  0  0  0  0
  7 37  1  0  0  0  0
  8  9  1  0  0  0  0
  8 10  1  0  0  0  0
  8 11  2  0  0  0  0
  9 12  1  0  0  0  0
  9 18  1  0  0  0  0
 10 13  1  0  0  0  0
 10 14  2  0  0  0  0
 11 15  1  0  0  0  0
 11 38  1  0  0  0  0
 12 16  1  0  0  0  0
 12 39  1  0  0  0  0
 12 40  1  0  0  0  0
 13 16  1  0  0  0  0
 13 41  1  0  0  0  0
 13 42  1  0  0  0  0
 14 17  1  0  0  0  0
 14 43  1  0  0  0  0
 15 17  2  0  0  0  0
 15 44  1  0  0  0  0
 16 45  1  0  0  0  0
 16 46  1  0  0  0  0
 18 19  2  0  0  0  0
 18 20  1  0  0  0  0
 19 21  1  0  0  0  0
 20 22  2  0  0  0  0
 20 47  1  0  0  0  0
 21 23  2  0  0  0  0
 22 23  1  0  0  0  0
 22 48  1  0  0  0  0
 24 25  2  0  0  0  0
 24 26  1  0  0  0  0
 25 27  1  0  0  0  0
 25 49  1  0  0  0  0
 26 28  2  0  0  0  0
 26 50  1  0  0  0  0
 27 29  2  0  0  0  0
 27 51  1  0  0  0  0
 28 29  1  0  0  0  0
 28 52  1  0  0  0  0
 30 31  1  0  0  0  0
 30 32  1  0  0  0  0
 30 53  1  0  0  0  0
 31 32  1  0  0  0  0
 31 54  1  0  0  0  0
 31 55  1  0  0  0  0
 32 56  1  0  0  0  0
 32 57  1  0  0  0  0
M  END
>  <Mol_ID>
6279

>  <Formula>
C23H25N5O3S

>  <MolWeight>
451.5413

>  <Cat>
E0462

>  <Name>
Pyrintegrin

>  <Synonyms>
N/A

>  <Target>
Integrin

>  <Form>
free base

>  <CAS>
1228445-38-2

>  <URL>
http://www.selleckchem.com/products/pyrintegrin.html

$$$$
