Pyrolin
 OpenBabel08302521363D

 17 17  0  0  0  0  0  0  0  0999 V2000
    1.0096    0.0725    0.0464 C   0  0  0  0  0  0  0  0  0  0  0  0
   -0.7491   -0.4921   -2.3460 O   0  0  0  0  0  0  0  0  0  0  0  0
    1.1841   -4.7937    0.4830 O   0  0  0  0  0  0  0  0  0  0  0  0
    0.5914   -1.2773   -0.4599 C   0  0  0  0  0  0  0  0  0  0  0  0
   -0.2246   -1.4917   -1.5790 C   0  0  0  0  0  0  0  0  0  0  0  0
    1.0554   -2.4041    0.2463 C   0  0  0  0  0  0  0  0  0  0  0  0
   -0.5558   -2.7852   -1.9876 C   0  0  0  0  0  0  0  0  0  0  0  0
    0.7273   -3.6917   -0.1746 C   0  0  0  0  0  0  0  0  0  0  0  0
   -0.0755   -3.8897   -1.2881 C   0  0  0  0  0  0  0  0  0  0  0  0
    0.5984    0.2413    1.0477 H   0  0  0  0  0  0  0  0  0  0  0  0
    0.6864    0.9001   -0.5879 H   0  0  0  0  0  0  0  0  0  0  0  0
    2.1031    0.1229    0.1002 H   0  0  0  0  0  0  0  0  0  0  0  0
   -0.4566    0.3698   -2.0187 H   0  0  0  0  0  0  0  0  0  0  0  0
    1.7752   -4.5061    1.1976 H   0  0  0  0  0  0  0  0  0  0  0  0
    1.6761   -2.2618    1.1266 H   0  0  0  0  0  0  0  0  0  0  0  0
   -1.1873   -2.9311   -2.8599 H   0  0  0  0  0  0  0  0  0  0  0  0
   -0.3254   -4.8955   -1.6124 H   0  0  0  0  0  0  0  0  0  0  0  0
  1  4  1  0  0  0  0
  1 10  1  0  0  0  0
  1 11  1  0  0  0  0
  1 12  1  0  0  0  0
  2  5  1  0  0  0  0
  2 13  1  0  0  0  0
  3  8  1  0  0  0  0
  3 14  1  0  0  0  0
  4  5  2  0  0  0  0
  4  6  1  0  0  0  0
  5  7  1  0  0  0  0
  6  8  2  0  0  0  0
  6 15  1  0  0  0  0
  7  9  2  0  0  0  0
  7 16  1  0  0  0  0
  8  9  1  0  0  0  0
  9 17  1  0  0  0  0
M  END
>  <Mol_ID>
7268

>  <Formula>
C7H8O2

>  <MolWeight>
124.13722

>  <Cat>
E4285

>  <Name>
Pyrolin

>  <Synonyms>
Pyrolin

>  <Target>
Anti-infection

>  <Form>
free base

>  <CAS>
95-71-6

>  <URL>
https://www.selleckchem.com/products/pyrolin.html

$$$$
