Pyronin Y
 OpenBabel08302521383D

 39 41  0  0  0  0  0  0  0  0999 V2000
    1.1603   -0.1352   -0.0108 N   0  0  0  0  0  0  0  0  0  0  0  0
    0.3206   -1.3358    0.0015 C   0  0  0  0  0  0  0  0  0  0  0  0
    0.4016    1.1212    0.0278 C   0  0  0  0  0  0  0  0  0  0  0  0
    8.9095   -5.4044   -0.0442 N   0  0  0  0  0  0  0  0  0  0  0  0
    8.1027   -6.6266   -0.0857 C   0  0  0  0  0  0  0  0  0  0  0  0
   10.3565   -5.6438   -0.1048 C   0  0  0  0  0  0  0  0  0  0  0  0
    4.6951   -1.3244    0.1236 C   0  0  0  0  0  0  0  0  0  0  0  0
    5.4120   -0.1159    0.1248 C   0  0  0  0  0  0  0  0  0  0  0  0
    5.2479   -2.4559    0.1562 O   0  3  0  0  0  0  0  0  0  0  0  0
    3.2967   -1.3172    0.0841 C   0  0  0  0  0  0  0  0  0  0  0  0
    6.7978   -0.1794    0.1679 C   0  0  0  0  0  0  0  0  0  0  0  0
    4.6966    1.0829    0.0632 C   0  0  0  0  0  0  0  0  0  0  0  0
    6.5064   -2.5573    0.1314 C   0  0  0  0  0  0  0  0  0  0  0  0
    2.5442   -0.1376    0.0301 C   0  0  0  0  0  0  0  0  0  0  0  0
    7.3647   -1.4454    0.1505 C   0  0  0  0  0  0  0  0  0  0  0  0
    3.2928    1.0575    0.0081 C   0  0  0  0  0  0  0  0  0  0  0  0
    7.0244   -3.8545    0.0774 C   0  0  0  0  0  0  0  0  0  0  0  0
    8.7443   -1.6711    0.1283 C   0  0  0  0  0  0  0  0  0  0  0  0
    8.3991   -4.1199    0.0308 C   0  0  0  0  0  0  0  0  0  0  0  0
    9.2359   -2.9854    0.0638 C   0  0  0  0  0  0  0  0  0  0  0  0
   -0.3088   -1.3398    0.8984 H   0  0  0  0  0  0  0  0  0  0  0  0
   -0.3353   -1.3334   -0.8766 H   0  0  0  0  0  0  0  0  0  0  0  0
    0.8620   -2.2820   -0.0147 H   0  0  0  0  0  0  0  0  0  0  0  0
    0.6202    1.6820    0.9432 H   0  0  0  0  0  0  0  0  0  0  0  0
    0.6234    1.7392   -0.8484 H   0  0  0  0  0  0  0  0  0  0  0  0
   -0.6791    0.9341    0.0192 H   0  0  0  0  0  0  0  0  0  0  0  0
    8.3135   -7.1777   -1.0093 H   0  0  0  0  0  0  0  0  0  0  0  0
    8.3637   -7.2691    0.7627 H   0  0  0  0  0  0  0  0  0  0  0  0
    7.0238   -6.4734   -0.0472 H   0  0  0  0  0  0  0  0  0  0  0  0
   10.7934   -5.1767   -0.9939 H   0  0  0  0  0  0  0  0  0  0  0  0
   10.8528   -5.2664    0.7954 H   0  0  0  0  0  0  0  0  0  0  0  0
   10.5805   -6.7159   -0.1661 H   0  0  0  0  0  0  0  0  0  0  0  0
    2.8327   -2.2951    0.0958 H   0  0  0  0  0  0  0  0  0  0  0  0
    7.4098    0.7201    0.1835 H   0  0  0  0  0  0  0  0  0  0  0  0
    5.2056    2.0464    0.0413 H   0  0  0  0  0  0  0  0  0  0  0  0
    2.7894    2.0220   -0.0588 H   0  0  0  0  0  0  0  0  0  0  0  0
    6.2850   -4.6451    0.0649 H   0  0  0  0  0  0  0  0  0  0  0  0
    9.4544   -0.8447    0.1444 H   0  0  0  0  0  0  0  0  0  0  0  0
   10.3198   -3.0994    0.0329 H   0  0  0  0  0  0  0  0  0  0  0  0
  1  2  1  0  0  0  0
  1  3  1  0  0  0  0
  1 14  1  0  0  0  0
  2 21  1  0  0  0  0
  2 22  1  0  0  0  0
  2 23  1  0  0  0  0
  3 24  1  0  0  0  0
  3 25  1  0  0  0  0
  3 26  1  0  0  0  0
  4  5  1  0  0  0  0
  4  6  1  0  0  0  0
  4 19  1  0  0  0  0
  5 27  1  0  0  0  0
  5 28  1  0  0  0  0
  5 29  1  0  0  0  0
  6 30  1  0  0  0  0
  6 31  1  0  0  0  0
  6 32  1  0  0  0  0
  7  8  1  0  0  0  0
  7  9  2  0  0  0  0
  7 10  1  0  0  0  0
  8 11  2  0  0  0  0
  8 12  1  0  0  0  0
  9 13  1  0  0  0  0
 10 14  2  0  0  0  0
 10 33  1  0  0  0  0
 11 15  1  0  0  0  0
 11 34  1  0  0  0  0
 12 16  2  0  0  0  0
 12 35  1  0  0  0  0
 13 15  2  0  0  0  0
 13 17  1  0  0  0  0
 14 16  1  0  0  0  0
 15 18  1  0  0  0  0
 16 36  1  0  0  0  0
 17 19  2  0  0  0  0
 17 37  1  0  0  0  0
 18 20  2  0  0  0  0
 18 38  1  0  0  0  0
 19 20  1  0  0  0  0
 20 39  1  0  0  0  0
M  CHG  1   9   1
M  END
>  <Mol_ID>
7665

>  <Formula>
C17H19ClN2O

>  <MolWeight>
302.79856

>  <Cat>
E4451

>  <Name>
Pyronin Y

>  <Synonyms>
Pyronine G; C.I. 45005

>  <Target>
Dyes

>  <Form>
Chloride

>  <CAS>
92-32-0

>  <URL>
https://www.selleckchem.com/products/pyronin-y.html

$$$$
