Pyromeconic acid
 OpenBabel08302521553D

 12 12  0  0  0  0  0  0  0  0999 V2000
    1.7521    1.2378    0.0196 O   0  0  0  0  0  0  0  0  0  0  0  0
    1.6665   -1.5462    0.0089 O   0  0  0  0  0  0  0  0  0  0  0  0
    0.6479    0.7044    0.0155 C   0  0  0  0  0  0  0  0  0  0  0  0
    0.5231   -0.7766    0.0072 C   0  0  0  0  0  0  0  0  0  0  0  0
   -0.6065    1.4794    0.0176 C   0  0  0  0  0  0  0  0  0  0  0  0
   -0.7047   -1.3020   -0.0027 C   0  0  0  0  0  0  0  0  0  0  0  0
   -1.7607    0.8049    0.0047 C   0  0  0  0  0  0  0  0  0  0  0  0
   -1.8691   -0.5679   -0.0073 O   0  0  0  0  0  0  0  0  0  0  0  0
    2.4049   -0.9009    0.0108 H   0  0  0  0  0  0  0  0  0  0  0  0
   -0.5421    2.5581    0.0286 H   0  0  0  0  0  0  0  0  0  0  0  0
   -0.9057   -2.3639   -0.0087 H   0  0  0  0  0  0  0  0  0  0  0  0
   -2.7368    1.2704    0.0031 H   0  0  0  0  0  0  0  0  0  0  0  0
  1  3  2  0  0  0  0
  2  4  1  0  0  0  0
  2  9  1  0  0  0  0
  3  4  1  0  0  0  0
  3  5  1  0  0  0  0
  4  6  2  0  0  0  0
  5  7  2  0  0  0  0
  5 10  1  0  0  0  0
  6  8  1  0  0  0  0
  6 11  1  0  0  0  0
  7  8  1  0  0  0  0
  7 12  1  0  0  0  0
M  END
>  <Mol_ID>
10019

>  <Formula>
C5H4O3

>  <MolWeight>
112.08346

>  <Cat>
E5508

>  <Name>
Pyromeconic acid

>  <Synonyms>
3-Hydroxy-4H-pyran-4-one

>  <Target>
anti-inflammatory

>  <Form>
Free Base

>  <CAS>
496-63-9

>  <URL>
https://www.selleckchem.com/products/pyromeconic-acid.html

$$$$
