Pyrrole-2-carboxylic acid
 OpenBabel08302520383D

 13 13  0  0  0  0  0  0  0  0999 V2000
   -0.2737    1.1943   -0.0201 C   0  0  0  0  0  0  0  0  0  0  0  0
   -0.8116    2.5319   -0.0241 C   0  0  0  0  0  0  0  0  0  0  0  0
    1.0262    0.7114   -0.0313 C   0  0  0  0  0  0  0  0  0  0  0  0
   -1.1005    0.0920    0.0445 N   0  0  0  0  0  0  0  0  0  0  0  0
    0.0547    3.4385   -0.5335 O   0  0  0  0  0  0  0  0  0  0  0  0
   -1.9367    2.8313    0.3423 O   0  0  0  0  0  0  0  0  0  0  0  0
    0.9687   -0.7044   -0.0226 C   0  0  0  0  0  0  0  0  0  0  0  0
   -0.3593   -1.0581    0.0090 C   0  0  0  0  0  0  0  0  0  0  0  0
    1.9340    1.3017   -0.0235 H   0  0  0  0  0  0  0  0  0  0  0  0
   -2.1119    0.1466    0.0911 H   0  0  0  0  0  0  0  0  0  0  0  0
    0.8475    3.0227   -0.9162 H   0  0  0  0  0  0  0  0  0  0  0  0
    1.8059   -1.3910   -0.0273 H   0  0  0  0  0  0  0  0  0  0  0  0
   -0.8405   -2.0273    0.0260 H   0  0  0  0  0  0  0  0  0  0  0  0
  1  2  1  0  0  0  0
  1  3  2  0  0  0  0
  1  4  1  0  0  0  0
  2  5  1  0  0  0  0
  2  6  2  0  0  0  0
  3  7  1  0  0  0  0
  3  9  1  0  0  0  0
  4  8  1  0  0  0  0
  4 10  1  0  0  0  0
  5 11  1  0  0  0  0
  7  8  2  0  0  0  0
  7 12  1  0  0  0  0
  8 13  1  0  0  0  0
M  END
>  <Mol_ID>
3455

>  <Formula>
C5H5NO2

>  <MolWeight>
111.0987

>  <Cat>
S5832

>  <Name>
Pyrrole-2-carboxylic acid

>  <Synonyms>
2-Pyrrolecarboxylic acid

>  <Target>
Others

>  <Form>
Free Base

>  <CAS>
634-97-9

>  <URL>
http://www.selleckchem.com/products/pyrrole-2-carboxylic-acid.html

$$$$
