Quetiapine
 OpenBabel08302520343D

 52 55  0  0  0  0  0  0  0  0999 V2000
   -0.8222    1.1766   -0.7874 C   0  0  0  0  0  0  0  0  0  0  0  0
    0.0163    0.1112   -1.4307 C   0  0  0  0  0  0  0  0  0  0  0  0
   -1.8941    1.6704   -1.5728 N   0  0  0  0  0  0  0  0  0  0  0  0
   -0.5205    1.6866    0.3820 N   0  0  0  0  0  0  0  0  0  0  0  0
    1.2523    0.4973   -1.9714 C   0  0  0  0  0  0  0  0  0  0  0  0
   -0.6352   -1.0568   -1.8323 C   0  0  0  0  0  0  0  0  0  0  0  0
   -2.6163    2.8541   -1.0300 C   0  0  0  0  0  0  0  0  0  0  0  0
   -1.6644    1.6656   -3.0571 C   0  0  0  0  0  0  0  0  0  0  0  0
    0.6957    1.3713    1.0355 C   0  0  0  0  0  0  0  0  0  0  0  0
    2.1623    1.8887   -1.3207 S   0  0  0  0  0  0  0  0  0  0  0  0
    1.7344   -0.2139   -3.0693 C   0  0  0  0  0  0  0  0  0  0  0  0
   -0.1210   -1.7766   -2.9020 C   0  0  0  0  0  0  0  0  0  0  0  0
   -3.4578    3.6412   -2.0570 C   0  0  0  0  0  0  0  0  0  0  0  0
   -2.5716    2.5410   -3.9235 C   0  0  0  0  0  0  0  0  0  0  0  0
    1.9692    1.4995    0.4241 C   0  0  0  0  0  0  0  0  0  0  0  0
    0.6393    1.0102    2.3888 C   0  0  0  0  0  0  0  0  0  0  0  0
    1.0318   -1.3250   -3.5507 C   0  0  0  0  0  0  0  0  0  0  0  0
   -2.6757    3.8453   -3.2836 N   0  0  0  0  0  0  0  0  0  0  0  0
    3.1326    1.2504    1.1677 C   0  0  0  0  0  0  0  0  0  0  0  0
    1.8025    0.7475    3.1146 C   0  0  0  0  0  0  0  0  0  0  0  0
   -3.0991    4.9678   -4.1069 C   0  0  0  0  0  0  0  0  0  0  0  0
    3.0491    0.8706    2.5053 C   0  0  0  0  0  0  0  0  0  0  0  0
   -2.2443    5.1989   -5.3776 C   0  0  0  0  0  0  0  0  0  0  0  0
   -2.5730    4.3801   -6.5028 O   0  0  0  0  0  0  0  0  0  0  0  0
   -3.9134    4.4580   -6.9780 C   0  0  0  0  0  0  0  0  0  0  0  0
   -4.3628    5.8607   -7.3857 C   0  0  0  0  0  0  0  0  0  0  0  0
   -5.7034    5.8460   -7.8615 O   0  0  0  0  0  0  0  0  0  0  0  0
   -1.5940   -1.3202   -1.3896 H   0  0  0  0  0  0  0  0  0  0  0  0
   -3.2746    2.5196   -0.2178 H   0  0  0  0  0  0  0  0  0  0  0  0
   -1.8937    3.5611   -0.6043 H   0  0  0  0  0  0  0  0  0  0  0  0
   -0.6417    2.0143   -3.2468 H   0  0  0  0  0  0  0  0  0  0  0  0
   -1.7554    0.6446   -3.4386 H   0  0  0  0  0  0  0  0  0  0  0  0
    2.6345    0.1150   -3.5812 H   0  0  0  0  0  0  0  0  0  0  0  0
   -0.6614   -2.6396   -3.2796 H   0  0  0  0  0  0  0  0  0  0  0  0
   -4.3937    3.1040   -2.2733 H   0  0  0  0  0  0  0  0  0  0  0  0
   -3.7497    4.5984   -1.6099 H   0  0  0  0  0  0  0  0  0  0  0  0
   -3.5515    2.0658   -4.0652 H   0  0  0  0  0  0  0  0  0  0  0  0
   -2.1054    2.5875   -4.9126 H   0  0  0  0  0  0  0  0  0  0  0  0
   -0.3306    0.9341    2.8738 H   0  0  0  0  0  0  0  0  0  0  0  0
    1.3793   -1.8343   -4.4463 H   0  0  0  0  0  0  0  0  0  0  0  0
    4.1080    1.3378    0.6976 H   0  0  0  0  0  0  0  0  0  0  0  0
    1.7371    0.4577    4.1591 H   0  0  0  0  0  0  0  0  0  0  0  0
   -4.1642    4.9086   -4.3412 H   0  0  0  0  0  0  0  0  0  0  0  0
   -2.9528    5.8646   -3.4911 H   0  0  0  0  0  0  0  0  0  0  0  0
    3.9567    0.6672    3.0681 H   0  0  0  0  0  0  0  0  0  0  0  0
   -2.2999    6.2503   -5.6793 H   0  0  0  0  0  0  0  0  0  0  0  0
   -1.1852    5.0184   -5.1522 H   0  0  0  0  0  0  0  0  0  0  0  0
   -3.9789    3.8015   -7.8537 H   0  0  0  0  0  0  0  0  0  0  0  0
   -4.5990    4.0184   -6.2461 H   0  0  0  0  0  0  0  0  0  0  0  0
   -4.3091    6.5652   -6.5505 H   0  0  0  0  0  0  0  0  0  0  0  0
   -3.7145    6.2494   -8.1772 H   0  0  0  0  0  0  0  0  0  0  0  0
   -6.2887    5.7716   -7.0881 H   0  0  0  0  0  0  0  0  0  0  0  0
  1  2  1  0  0  0  0
  1  3  1  0  0  0  0
  1  4  2  0  0  0  0
  2  5  2  0  0  0  0
  2  6  1  0  0  0  0
  3  7  1  0  0  0  0
  3  8  1  0  0  0  0
  4  9  1  0  0  0  0
  5 10  1  0  0  0  0
  5 11  1  0  0  0  0
  6 12  2  0  0  0  0
  6 28  1  0  0  0  0
  7 13  1  0  0  0  0
  7 29  1  0  0  0  0
  7 30  1  0  0  0  0
  8 14  1  0  0  0  0
  8 31  1  0  0  0  0
  8 32  1  0  0  0  0
  9 15  2  0  0  0  0
  9 16  1  0  0  0  0
 10 15  1  0  0  0  0
 11 17  2  0  0  0  0
 11 33  1  0  0  0  0
 12 17  1  0  0  0  0
 12 34  1  0  0  0  0
 13 18  1  0  0  0  0
 13 35  1  0  0  0  0
 13 36  1  0  0  0  0
 14 18  1  0  0  0  0
 14 37  1  0  0  0  0
 14 38  1  0  0  0  0
 15 19  1  0  0  0  0
 16 20  2  0  0  0  0
 16 39  1  0  0  0  0
 17 40  1  0  0  0  0
 18 21  1  0  0  0  0
 19 22  2  0  0  0  0
 19 41  1  0  0  0  0
 20 22  1  0  0  0  0
 20 42  1  0  0  0  0
 21 23  1  0  0  0  0
 21 43  1  0  0  0  0
 21 44  1  0  0  0  0
 22 45  1  0  0  0  0
 23 24  1  0  0  0  0
 23 46  1  0  0  0  0
 23 47  1  0  0  0  0
 24 25  1  0  0  0  0
 25 26  1  0  0  0  0
 25 48  1  0  0  0  0
 25 49  1  0  0  0  0
 26 27  1  0  0  0  0
 26 50  1  0  0  0  0
 26 51  1  0  0  0  0
 27 52  1  0  0  0  0
M  END
>  <Mol_ID>
3386

>  <Formula>
C21H25N3O2S

>  <MolWeight>
383.5071

>  <Cat>
S5741

>  <Name>
Quetiapine

>  <Synonyms>
ICI204636

>  <Target>
5-HT Receptor,Dopamine Receptor

>  <Form>
Free Base

>  <CAS>
111974-69-7

>  <URL>
http://www.selleckchem.com/products/quetiapine.html

$$$$
