Quinapril hydrochloride.cdx
 OpenBabel08302521453D

 62 64  0  0  0  0  0  0  0  0999 V2000
    4.8997   -3.5272   -3.0673 C   0  0  0  0  0  0  0  0  0  0  0  0
    4.3285   -4.7650   -3.3622 C   0  0  0  0  0  0  0  0  0  0  0  0
    2.9468   -4.8968   -3.2919 C   0  0  0  0  0  0  0  0  0  0  0  0
    2.1427   -3.7940   -2.9375 C   0  0  0  0  0  0  0  0  0  0  0  0
    2.6943   -2.5284   -2.6345 C   0  0  0  0  0  0  0  0  0  0  0  0
    4.0930   -2.4215   -2.7176 C   0  0  0  0  0  0  0  0  0  0  0  0
    1.7835   -1.2945   -2.4544 C   0  0  0  0  0  0  0  0  0  0  0  0
    1.6958   -0.4627   -1.0953 C   0  0  0  0  0  0  0  0  0  0  0  0
    0.6636    0.7832   -1.1692 C   0  0  2  0  0  0  0  0  0  0  0  0
    0.6706    2.0420   -0.2340 N   0  0  0  0  0  0  0  0  0  0  0  0
   -0.1390    2.0626    1.0519 C   0  0  2  0  0  0  0  0  0  0  0  0
   -0.3778    3.5563    1.8864 C   0  0  0  0  0  0  0  0  0  0  0  0
   -0.9349    4.7435    1.3347 N   0  0  0  0  0  0  0  0  0  0  0  0
   -0.2269    3.5660    3.1226 O   0  0  0  0  0  0  0  0  0  0  0  0
   -0.7534    0.2107   -1.3730 C   0  0  0  0  0  0  0  0  0  0  0  0
   -1.2401    0.5847   -2.5928 O   0  0  0  0  0  0  0  0  0  0  0  0
   -2.6092    0.2549   -2.8752 C   0  0  0  0  0  0  0  0  0  0  0  0
   -2.7328   -1.0930   -3.5617 C   0  0  0  0  0  0  0  0  0  0  0  0
   -1.3454   -0.4952   -0.5668 O   0  0  0  0  0  0  0  0  0  0  0  0
   -1.0947    6.1009    2.1627 C   0  0  1  0  0  0  0  0  0  0  0  0
   -0.9119    7.3739    1.2867 C   0  0  0  0  0  0  0  0  0  0  0  0
    0.2081    7.1782    0.3283 C   0  0  0  0  0  0  0  0  0  0  0  0
    0.1894    5.9906   -0.4201 C   0  0  0  0  0  0  0  0  0  0  0  0
   -0.8609    4.9440   -0.1072 C   0  0  0  0  0  0  0  0  0  0  0  0
   -2.3648    6.5067    2.9915 C   0  0  0  0  0  0  0  0  0  0  0  0
   -2.9298    5.5063    3.6858 O   0  0  0  0  0  0  0  0  0  0  0  0
   -2.7755    7.6465    3.1327 O   0  0  0  0  0  0  0  0  0  0  0  0
    1.2376    8.1142    0.1896 C   0  0  0  0  0  0  0  0  0  0  0  0
    2.2690    7.8690   -0.7152 C   0  0  0  0  0  0  0  0  0  0  0  0
    2.2203    6.7232   -1.5044 C   0  0  0  0  0  0  0  0  0  0  0  0
    1.1749    5.8023   -1.3781 C   0  0  0  0  0  0  0  0  0  0  0  0
    0.5860    1.0886    1.9987 C   0  0  0  0  0  0  0  0  0  0  0  0
    5.9790   -3.4185   -3.1598 H   0  0  0  0  0  0  0  0  0  0  0  0
    4.9581   -5.6114   -3.6557 H   0  0  0  0  0  0  0  0  0  0  0  0
    2.4931   -5.8560   -3.5463 H   0  0  0  0  0  0  0  0  0  0  0  0
    1.0672   -3.9432   -2.9462 H   0  0  0  0  0  0  0  0  0  0  0  0
    4.5883   -1.4697   -2.5615 H   0  0  0  0  0  0  0  0  0  0  0  0
    2.0738   -0.6018   -3.2559 H   0  0  0  0  0  0  0  0  0  0  0  0
    0.7690   -1.6235   -2.7139 H   0  0  0  0  0  0  0  0  0  0  0  0
    1.3948   -1.1601   -0.3042 H   0  0  0  0  0  0  0  0  0  0  0  0
    2.6985   -0.0956   -0.8530 H   0  0  0  0  0  0  0  0  0  0  0  0
    0.9394    1.2482   -2.1260 H   0  0  0  0  0  0  0  0  0  0  0  0
    1.6450    2.2464   -0.0096 H   0  0  0  0  0  0  0  0  0  0  0  0
   -1.1553    1.7063    0.8561 H   0  0  0  0  0  0  0  0  0  0  0  0
   -3.2222    0.2960   -1.9683 H   0  0  0  0  0  0  0  0  0  0  0  0
   -2.9802    1.0347   -3.5485 H   0  0  0  0  0  0  0  0  0  0  0  0
   -2.4524   -1.9067   -2.8861 H   0  0  0  0  0  0  0  0  0  0  0  0
   -3.7642   -1.2590   -3.8908 H   0  0  0  0  0  0  0  0  0  0  0  0
   -2.0740   -1.1539   -4.4338 H   0  0  0  0  0  0  0  0  0  0  0  0
   -0.2824    6.0835    2.9017 H   0  0  0  0  0  0  0  0  0  0  0  0
   -0.7308    8.2642    1.9093 H   0  0  0  0  0  0  0  0  0  0  0  0
   -1.8251    7.5943    0.7117 H   0  0  0  0  0  0  0  0  0  0  0  0
   -0.6255    4.0137   -0.6116 H   0  0  0  0  0  0  0  0  0  0  0  0
   -1.8487    5.2648   -0.4558 H   0  0  0  0  0  0  0  0  0  0  0  0
   -2.3789    4.6876    3.6425 H   0  0  0  0  0  0  0  0  0  0  0  0
    1.2452    9.0232    0.8010 H   0  0  0  0  0  0  0  0  0  0  0  0
    3.1045    8.5585   -0.7695 H   0  0  0  0  0  0  0  0  0  0  0  0
    3.0088    6.5459   -2.2195 H   0  0  0  0  0  0  0  0  0  0  0  0
    1.1510    4.9220   -2.0170 H   0  0  0  0  0  0  0  0  0  0  0  0
   -0.0030    0.8788    2.8959 H   0  0  0  0  0  0  0  0  0  0  0  0
    0.7851    0.1233    1.5217 H   0  0  0  0  0  0  0  0  0  0  0  0
    1.5521    1.4980    2.3202 H   0  0  0  0  0  0  0  0  0  0  0  0
  1  2  2  0  0  0  0
  1 33  1  0  0  0  0
  2  3  1  0  0  0  0
  2 34  1  0  0  0  0
  3  4  2  0  0  0  0
  3 35  1  0  0  0  0
  4  5  1  0  0  0  0
  4 36  1  0  0  0  0
  5  6  2  0  0  0  0
  5  7  1  0  0  0  0
  6  1  1  0  0  0  0
  6 37  1  0  0  0  0
  7  8  1  0  0  0  0
  7 38  1  0  0  0  0
  7 39  1  0  0  0  0
  8 40  1  0  0  0  0
  8 41  1  0  0  0  0
  9 15  1  0  0  0  0
  9 42  1  6  0  0  0
  9 10  1  0  0  0  0
  9  8  1  0  0  0  0
 10 43  1  0  0  0  0
 11 32  1  0  0  0  0
 11 44  1  6  0  0  0
 11 12  1  0  0  0  0
 11 10  1  0  0  0  0
 12 13  1  0  0  0  0
 12 14  2  0  0  0  0
 13 20  1  0  0  0  0
 15 16  1  0  0  0  0
 15 19  2  0  0  0  0
 16 17  1  0  0  0  0
 17 18  1  0  0  0  0
 17 45  1  0  0  0  0
 17 46  1  0  0  0  0
 18 47  1  0  0  0  0
 18 48  1  0  0  0  0
 18 49  1  0  0  0  0
 20 21  1  0  0  0  0
 20 25  1  0  0  0  0
 20 50  1  1  0  0  0
 21 22  1  0  0  0  0
 21 51  1  0  0  0  0
 21 52  1  0  0  0  0
 22 23  2  0  0  0  0
 22 28  1  0  0  0  0
 23 24  1  0  0  0  0
 24 13  1  0  0  0  0
 24 53  1  0  0  0  0
 24 54  1  0  0  0  0
 25 26  1  0  0  0  0
 25 27  2  0  0  0  0
 26 55  1  0  0  0  0
 28 29  2  0  0  0  0
 28 56  1  0  0  0  0
 29 30  1  0  0  0  0
 29 57  1  0  0  0  0
 30 31  2  0  0  0  0
 30 58  1  0  0  0  0
 31 23  1  0  0  0  0
 31 59  1  0  0  0  0
 32 60  1  0  0  0  0
 32 61  1  0  0  0  0
 32 62  1  0  0  0  0
M  END
>  <Mol_ID>
953

>  <Formula>
C25H31ClN2O5

>  <MolWeight>
474.97704

>  <Cat>
S2581

>  <Name>
Quinapril HCl

>  <Synonyms>
CI-906, PD-109452-2

>  <Target>
RAAS

>  <Form>
Hydrochloride

>  <CAS>
82586-55-8

>  <URL>
http://selleckchem.com/products/quinapril-hydrochloride-accupril.html

$$$$
