Quinoline-4-carboxylic acid
 OpenBabel08302520393D

 20 21  0  0  0  0  0  0  0  0999 V2000
    0.0379   -0.8080   -0.0180 C   0  0  0  0  0  0  0  0  0  0  0  0
   -0.0260    0.6018   -0.0247 C   0  0  0  0  0  0  0  0  0  0  0  0
   -1.2083   -1.4929   -0.0006 C   0  0  0  0  0  0  0  0  0  0  0  0
    1.3223   -1.4169   -0.0302 C   0  0  0  0  0  0  0  0  0  0  0  0
   -1.1823    1.2832   -0.0256 N   0  0  0  0  0  0  0  0  0  0  0  0
    1.1528    1.3370   -0.0241 C   0  0  0  0  0  0  0  0  0  0  0  0
   -2.4079   -0.7764    0.0376 C   0  0  0  0  0  0  0  0  0  0  0  0
   -1.2790   -2.9799    0.0495 C   0  0  0  0  0  0  0  0  0  0  0  0
    2.4927   -0.6558   -0.0236 C   0  0  0  0  0  0  0  0  0  0  0  0
   -2.3391    0.5983    0.0144 C   0  0  0  0  0  0  0  0  0  0  0  0
    2.4069    0.7267   -0.0168 C   0  0  0  0  0  0  0  0  0  0  0  0
   -2.3050   -3.4995   -0.6620 O   0  0  0  0  0  0  0  0  0  0  0  0
   -0.4987   -3.6793    0.6696 O   0  0  0  0  0  0  0  0  0  0  0  0
    1.4284   -2.5001   -0.0317 H   0  0  0  0  0  0  0  0  0  0  0  0
    1.0913    2.4233   -0.0188 H   0  0  0  0  0  0  0  0  0  0  0  0
   -3.3748   -1.2607    0.1152 H   0  0  0  0  0  0  0  0  0  0  0  0
    3.4631   -1.1472   -0.0145 H   0  0  0  0  0  0  0  0  0  0  0  0
   -3.2361    1.2095    0.0376 H   0  0  0  0  0  0  0  0  0  0  0  0
    3.3082    1.3346   -0.0056 H   0  0  0  0  0  0  0  0  0  0  0  0
   -2.7827   -2.8808   -1.2437 H   0  0  0  0  0  0  0  0  0  0  0  0
  1  2  1  0  0  0  0
  1  3  2  0  0  0  0
  1  4  1  0  0  0  0
  2  5  2  0  0  0  0
  2  6  1  0  0  0  0
  3  7  1  0  0  0  0
  3  8  1  0  0  0  0
  4  9  2  0  0  0  0
  4 14  1  0  0  0  0
  5 10  1  0  0  0  0
  6 11  2  0  0  0  0
  6 15  1  0  0  0  0
  7 10  2  0  0  0  0
  7 16  1  0  0  0  0
  8 12  1  0  0  0  0
  8 13  2  0  0  0  0
  9 11  1  0  0  0  0
  9 17  1  0  0  0  0
 10 18  1  0  0  0  0
 11 19  1  0  0  0  0
 12 20  1  0  0  0  0
M  END
>  <Mol_ID>
3560

>  <Formula>
C10H7NO2

>  <MolWeight>
173.16808

>  <Cat>
S6095

>  <Name>
Quinoline-4-carboxylic acid

>  <Synonyms>
4-Carboxyquinoline

>  <Target>
Others

>  <Form>
free base

>  <CAS>
486-74-8

>  <URL>
http://www.selleck.cn/products/quinoline-4-carboxylic-acid.html

$$$$
