Quinaldic acid
 OpenBabel08302521263D

 20 21  0  0  0  0  0  0  0  0999 V2000
   -0.0506    0.6990   -0.0017 C   0  0  0  0  0  0  0  0  0  0  0  0
    0.0011   -0.7152   -0.0014 C   0  0  0  0  0  0  0  0  0  0  0  0
   -1.2131    1.3793   -0.0012 N   0  0  0  0  0  0  0  0  0  0  0  0
    1.1521    1.3939   -0.0022 C   0  0  0  0  0  0  0  0  0  0  0  0
   -1.2065   -1.4266   -0.0021 C   0  0  0  0  0  0  0  0  0  0  0  0
    1.2386   -1.3809    0.0005 C   0  0  0  0  0  0  0  0  0  0  0  0
   -2.3634    0.6420   -0.0008 C   0  0  0  0  0  0  0  0  0  0  0  0
    2.3851    0.7329   -0.0007 C   0  0  0  0  0  0  0  0  0  0  0  0
   -2.4137   -0.7407   -0.0019 C   0  0  0  0  0  0  0  0  0  0  0  0
    2.4279   -0.6566    0.0011 C   0  0  0  0  0  0  0  0  0  0  0  0
   -3.6286    1.4328    0.0030 C   0  0  0  0  0  0  0  0  0  0  0  0
   -3.3587    2.7609    0.0069 O   0  0  0  0  0  0  0  0  0  0  0  0
   -4.7496    0.9563    0.0032 O   0  0  0  0  0  0  0  0  0  0  0  0
    1.1367    2.4813   -0.0041 H   0  0  0  0  0  0  0  0  0  0  0  0
   -1.2118   -2.5142   -0.0019 H   0  0  0  0  0  0  0  0  0  0  0  0
    1.2825   -2.4682    0.0016 H   0  0  0  0  0  0  0  0  0  0  0  0
    3.3088    1.3064   -0.0010 H   0  0  0  0  0  0  0  0  0  0  0  0
   -3.3624   -1.2677   -0.0019 H   0  0  0  0  0  0  0  0  0  0  0  0
    3.3837   -1.1749    0.0030 H   0  0  0  0  0  0  0  0  0  0  0  0
   -2.3793    2.8820    0.0067 H   0  0  0  0  0  0  0  0  0  0  0  0
  1  2  1  0  0  0  0
  1  3  2  0  0  0  0
  1  4  1  0  0  0  0
  2  5  2  0  0  0  0
  2  6  1  0  0  0  0
  3  7  1  0  0  0  0
  4  8  2  0  0  0  0
  4 14  1  0  0  0  0
  5  9  1  0  0  0  0
  5 15  1  0  0  0  0
  6 10  2  0  0  0  0
  6 16  1  0  0  0  0
  7 11  1  0  0  0  0
  7  9  2  0  0  0  0
  8 10  1  0  0  0  0
  8 17  1  0  0  0  0
  9 18  1  0  0  0  0
 10 19  1  0  0  0  0
 11 12  1  0  0  0  0
 11 13  2  0  0  0  0
 12 20  1  0  0  0  0
M  END
>  <Mol_ID>
5280

>  <Formula>
C10H7NO2

>  <MolWeight>
173.16808

>  <Cat>
S6366

>  <Name>
Quinaldic acid

>  <Synonyms>
N/A

>  <Target>
Others

>  <Form>
Free Base

>  <CAS>
93-10-7

>  <URL>
https://www.selleckchem.com/products/quinaldic-acid.html

$$$$
