QUTENZA (capsaicin).cdx
 OpenBabel08302519553D

 49 49  0  0  0  0  0  0  0  0999 V2000
    0.7656    1.9751   -1.4617 C   0  0  0  0  0  0  0  0  0  0  0  0
    0.6800    0.6457   -1.0432 C   0  0  0  0  0  0  0  0  0  0  0  0
   -0.5637    0.1543   -0.6190 C   0  0  0  0  0  0  0  0  0  0  0  0
   -1.7090    0.9670   -0.6092 C   0  0  0  0  0  0  0  0  0  0  0  0
   -1.6012    2.2863   -1.0644 C   0  0  0  0  0  0  0  0  0  0  0  0
   -0.3667    2.7909   -1.4722 C   0  0  0  0  0  0  0  0  0  0  0  0
    1.9057    2.5515   -1.9424 O   0  0  0  0  0  0  0  0  0  0  0  0
    1.6664   -0.3007   -1.0892 O   0  0  0  0  0  0  0  0  0  0  0  0
    2.9831    0.0861   -0.7174 C   0  0  0  0  0  0  0  0  0  0  0  0
   -3.0406    0.4302   -0.1495 C   0  0  0  0  0  0  0  0  0  0  0  0
   -3.5466    1.2010    0.9675 N   0  0  0  0  0  0  0  0  0  0  0  0
   -4.7650    1.8325    0.9283 C   0  0  0  0  0  0  0  0  0  0  0  0
   -5.1073    2.6171    2.1783 C   0  0  0  0  0  0  0  0  0  0  0  0
   -4.5723    4.0483    2.1497 C   0  0  0  0  0  0  0  0  0  0  0  0
   -5.0868    4.9239    0.9988 C   0  0  0  0  0  0  0  0  0  0  0  0
   -6.6076    5.0997    0.9866 C   0  0  0  0  0  0  0  0  0  0  0  0
   -7.0521    5.9726   -0.1618 C   0  0  0  0  0  0  0  0  0  0  0  0
   -7.7105    7.1345   -0.0006 C   0  0  0  0  0  0  0  0  0  0  0  0
   -8.2102    7.9734   -1.1543 C   0  0  0  0  0  0  0  0  0  0  0  0
   -9.7283    8.1253   -1.0627 C   0  0  0  0  0  0  0  0  0  0  0  0
   -7.5306    9.3413   -1.1535 C   0  0  0  0  0  0  0  0  0  0  0  0
   -5.5176    1.7992   -0.0401 O   0  0  0  0  0  0  0  0  0  0  0  0
   -0.6325   -0.8839   -0.2993 H   0  0  0  0  0  0  0  0  0  0  0  0
   -2.4834    2.9230   -1.1119 H   0  0  0  0  0  0  0  0  0  0  0  0
   -0.2975    3.8119   -1.8381 H   0  0  0  0  0  0  0  0  0  0  0  0
    2.3644    1.8674   -2.4571 H   0  0  0  0  0  0  0  0  0  0  0  0
    3.5002    0.5722   -1.5469 H   0  0  0  0  0  0  0  0  0  0  0  0
    2.9974    0.7077    0.1836 H   0  0  0  0  0  0  0  0  0  0  0  0
    3.5427   -0.8314   -0.5057 H   0  0  0  0  0  0  0  0  0  0  0  0
   -3.7471    0.4254   -0.9865 H   0  0  0  0  0  0  0  0  0  0  0  0
   -2.9407   -0.6021    0.2042 H   0  0  0  0  0  0  0  0  0  0  0  0
   -2.9577    1.2895    1.7835 H   0  0  0  0  0  0  0  0  0  0  0  0
   -6.1945    2.5984    2.3113 H   0  0  0  0  0  0  0  0  0  0  0  0
   -4.6904    2.0945    3.0478 H   0  0  0  0  0  0  0  0  0  0  0  0
   -4.8261    4.5317    3.1014 H   0  0  0  0  0  0  0  0  0  0  0  0
   -3.4767    4.0233    2.0957 H   0  0  0  0  0  0  0  0  0  0  0  0
   -4.6149    5.9113    1.0880 H   0  0  0  0  0  0  0  0  0  0  0  0
   -4.7488    4.5098    0.0412 H   0  0  0  0  0  0  0  0  0  0  0  0
   -7.1043    4.1301    0.8726 H   0  0  0  0  0  0  0  0  0  0  0  0
   -6.9385    5.5183    1.9454 H   0  0  0  0  0  0  0  0  0  0  0  0
   -6.8426    5.5966   -1.1538 H   0  0  0  0  0  0  0  0  0  0  0  0
   -7.9279    7.4987    0.9964 H   0  0  0  0  0  0  0  0  0  0  0  0
   -7.9762    7.4800   -2.1070 H   0  0  0  0  0  0  0  0  0  0  0  0
  -10.0271    8.6334   -0.1386 H   0  0  0  0  0  0  0  0  0  0  0  0
  -10.1123    8.7093   -1.9063 H   0  0  0  0  0  0  0  0  0  0  0  0
  -10.2209    7.1473   -1.0827 H   0  0  0  0  0  0  0  0  0  0  0  0
   -6.4436    9.2391   -1.2483 H   0  0  0  0  0  0  0  0  0  0  0  0
   -7.8814    9.9474   -1.9967 H   0  0  0  0  0  0  0  0  0  0  0  0
   -7.7392    9.8963   -0.2318 H   0  0  0  0  0  0  0  0  0  0  0  0
  1  2  2  0  0  0  0
  1  7  1  0  0  0  0
  2  3  1  0  0  0  0
  2  8  1  0  0  0  0
  3  4  2  0  0  0  0
  3 23  1  0  0  0  0
  4  5  1  0  0  0  0
  4 10  1  0  0  0  0
  5  6  2  0  0  0  0
  5 24  1  0  0  0  0
  6  1  1  0  0  0  0
  6 25  1  0  0  0  0
  7 26  1  0  0  0  0
  8  9  1  0  0  0  0
  9 27  1  0  0  0  0
  9 28  1  0  0  0  0
  9 29  1  0  0  0  0
 10 11  1  0  0  0  0
 10 30  1  0  0  0  0
 10 31  1  0  0  0  0
 11 12  1  0  0  0  0
 11 32  1  0  0  0  0
 12 13  1  0  0  0  0
 12 22  2  0  0  0  0
 13 14  1  0  0  0  0
 13 33  1  0  0  0  0
 13 34  1  0  0  0  0
 14 15  1  0  0  0  0
 14 35  1  0  0  0  0
 14 36  1  0  0  0  0
 15 16  1  0  0  0  0
 15 37  1  0  0  0  0
 15 38  1  0  0  0  0
 16 17  1  0  0  0  0
 16 39  1  0  0  0  0
 16 40  1  0  0  0  0
 17 18  2  0  0  0  0
 17 41  1  0  0  0  0
 18 19  1  0  0  0  0
 18 42  1  0  0  0  0
 19 20  1  0  0  0  0
 19 21  1  0  0  0  0
 19 43  1  0  0  0  0
 20 44  1  0  0  0  0
 20 45  1  0  0  0  0
 20 46  1  0  0  0  0
 21 47  1  0  0  0  0
 21 48  1  0  0  0  0
 21 49  1  0  0  0  0
M  END
>  <Mol_ID>
2098

>  <Formula>
C18H27NO3

>  <MolWeight>
305.41188

>  <Cat>
S1990

>  <Name>
Capsaicin(Vanilloid)

>  <Synonyms>
Qutenza, Vanilloid

>  <Target>
TRP Channel

>  <Form>
free base

>  <CAS>
404-86-4

>  <URL>
http://selleckchem.com/products/capsaicin.html

$$$$
