QX-314 chloride
 OpenBabel08302521313D

 46 46  0  0  0  0  0  0  0  0999 V2000
    1.0505    0.3050    0.1832 O   0  0  0  0  0  0  0  0  0  0  0  0
    2.6871   -1.3081    2.2505 N   0  3  0  0  0  0  0  0  0  0  0  0
    3.1264    1.1460   -0.4458 N   0  0  0  0  0  0  0  0  0  0  0  0
    3.4977   -2.5536    2.6811 C   0  0  0  0  0  0  0  0  0  0  0  0
    3.0640   -0.0557    3.0855 C   0  0  0  0  0  0  0  0  0  0  0  0
    1.1559   -1.5392    2.4657 C   0  0  0  0  0  0  0  0  0  0  0  0
    2.9868   -1.0219    0.7231 C   0  0  0  0  0  0  0  0  0  0  0  0
    3.3037   -2.9371    4.1414 C   0  0  0  0  0  0  0  0  0  0  0  0
    4.5363    0.3224    3.0032 C   0  0  0  0  0  0  0  0  0  0  0  0
    0.5812   -2.6998    1.6667 C   0  0  0  0  0  0  0  0  0  0  0  0
    2.2761    0.2085    0.1264 C   0  0  0  0  0  0  0  0  0  0  0  0
    2.6279    2.3296   -1.0628 C   0  0  0  0  0  0  0  0  0  0  0  0
    1.8149    3.2513   -0.3675 C   0  0  0  0  0  0  0  0  0  0  0  0
    2.9941    2.5911   -2.4017 C   0  0  0  0  0  0  0  0  0  0  0  0
    1.2780    4.3529   -1.0593 C   0  0  0  0  0  0  0  0  0  0  0  0
    2.4519    3.7095   -3.0552 C   0  0  0  0  0  0  0  0  0  0  0  0
    1.5398    3.1719    1.1090 C   0  0  0  0  0  0  0  0  0  0  0  0
    3.8928    1.6794   -3.1925 C   0  0  0  0  0  0  0  0  0  0  0  0
    1.5841    4.5733   -2.3967 C   0  0  0  0  0  0  0  0  0  0  0  0
    3.9634    0.7704   -0.8769 H   0  0  0  0  0  0  0  0  0  0  0  0
    3.2117   -3.3818    2.0265 H   0  0  0  0  0  0  0  0  0  0  0  0
    4.5530   -2.3513    2.4769 H   0  0  0  0  0  0  0  0  0  0  0  0
    2.4425    0.7726    2.7321 H   0  0  0  0  0  0  0  0  0  0  0  0
    2.7785   -0.2570    4.1223 H   0  0  0  0  0  0  0  0  0  0  0  0
    1.0087   -1.7097    3.5363 H   0  0  0  0  0  0  0  0  0  0  0  0
    0.6313   -0.6087    2.2367 H   0  0  0  0  0  0  0  0  0  0  0  0
    2.6858   -1.9117    0.1607 H   0  0  0  0  0  0  0  0  0  0  0  0
    4.0739   -0.9265    0.6308 H   0  0  0  0  0  0  0  0  0  0  0  0
    2.2682   -3.2088    4.3673 H   0  0  0  0  0  0  0  0  0  0  0  0
    3.9155   -3.8137    4.3765 H   0  0  0  0  0  0  0  0  0  0  0  0
    3.6115   -2.1414    4.8254 H   0  0  0  0  0  0  0  0  0  0  0  0
    4.8005    0.7170    2.0180 H   0  0  0  0  0  0  0  0  0  0  0  0
    4.7500    1.1117    3.7314 H   0  0  0  0  0  0  0  0  0  0  0  0
    5.2068   -0.5081    3.2346 H   0  0  0  0  0  0  0  0  0  0  0  0
    1.1760   -3.6126    1.7336 H   0  0  0  0  0  0  0  0  0  0  0  0
   -0.4140   -2.9468    2.0528 H   0  0  0  0  0  0  0  0  0  0  0  0
    0.4609   -2.4424    0.6105 H   0  0  0  0  0  0  0  0  0  0  0  0
    0.6234    5.0605   -0.5526 H   0  0  0  0  0  0  0  0  0  0  0  0
    2.6909    3.9079   -4.0983 H   0  0  0  0  0  0  0  0  0  0  0  0
    0.7662    2.4360    1.3344 H   0  0  0  0  0  0  0  0  0  0  0  0
    2.4581    2.9324    1.6544 H   0  0  0  0  0  0  0  0  0  0  0  0
    1.1957    4.1361    1.5008 H   0  0  0  0  0  0  0  0  0  0  0  0
    4.8652    1.5814   -2.6994 H   0  0  0  0  0  0  0  0  0  0  0  0
    3.4315    0.6920   -3.2976 H   0  0  0  0  0  0  0  0  0  0  0  0
    4.0802    2.0677   -4.1992 H   0  0  0  0  0  0  0  0  0  0  0  0
    1.1609    5.4271   -2.9211 H   0  0  0  0  0  0  0  0  0  0  0  0
  1 11  2  0  0  0  0
  2  4  1  0  0  0  0
  2  5  1  0  0  0  0
  2  6  1  0  0  0  0
  2  7  1  0  0  0  0
  3 11  1  0  0  0  0
  3 12  1  0  0  0  0
  3 20  1  0  0  0  0
  4  8  1  0  0  0  0
  4 21  1  0  0  0  0
  4 22  1  0  0  0  0
  5  9  1  0  0  0  0
  5 23  1  0  0  0  0
  5 24  1  0  0  0  0
  6 10  1  0  0  0  0
  6 25  1  0  0  0  0
  6 26  1  0  0  0  0
  7 11  1  0  0  0  0
  7 27  1  0  0  0  0
  7 28  1  0  0  0  0
  8 29  1  0  0  0  0
  8 30  1  0  0  0  0
  8 31  1  0  0  0  0
  9 32  1  0  0  0  0
  9 33  1  0  0  0  0
  9 34  1  0  0  0  0
 10 35  1  0  0  0  0
 10 36  1  0  0  0  0
 10 37  1  0  0  0  0
 12 13  2  0  0  0  0
 12 14  1  0  0  0  0
 13 15  1  0  0  0  0
 13 17  1  0  0  0  0
 14 16  2  0  0  0  0
 14 18  1  0  0  0  0
 15 19  2  0  0  0  0
 15 38  1  0  0  0  0
 16 19  1  0  0  0  0
 16 39  1  0  0  0  0
 17 40  1  0  0  0  0
 17 41  1  0  0  0  0
 17 42  1  0  0  0  0
 18 43  1  0  0  0  0
 18 44  1  0  0  0  0
 18 45  1  0  0  0  0
 19 46  1  0  0  0  0
M  CHG  1   2   1
M  END
>  <Mol_ID>
5920

>  <Formula>
C16H27ClN2O

>  <MolWeight>
298.85138

>  <Cat>
S7848

>  <Name>
QX-314 chloride

>  <Synonyms>
N/A

>  <Target>
Sodium Channel,TRP Channel

>  <Form>
Chloride

>  <CAS>
5369-03-9

>  <URL>
http://www.selleckchem.com/products/qx-314-chloride.html

$$$$
