QX77
 OpenBabel08302521243D

 34 36  0  0  0  0  0  0  0  0999 V2000
    0.0637   -0.5238   -1.3952 O   0  0  0  0  0  0  0  0  0  0  0  0
    9.7023   -3.3611    0.3450 O   0  0  0  0  0  0  0  0  0  0  0  0
    1.9060    0.0582    0.7976 N   0  0  0  0  0  0  0  0  0  0  0  0
    7.5390   -2.9753   -0.0035 N   0  0  0  0  0  0  0  0  0  0  0  0
    2.2415   -0.8187   -0.1010 C   0  0  0  0  0  0  0  0  0  0  0  0
    3.5820   -1.4771   -0.0251 C   0  0  0  0  0  0  0  0  0  0  0  0
    1.3130   -1.1723   -1.2623 C   0  0  0  0  0  0  0  0  0  0  0  0
    0.6708    0.6943    0.6286 C   0  0  0  0  0  0  0  0  0  0  0  0
   -0.1941    0.4130   -0.4340 C   0  0  0  0  0  0  0  0  0  0  0  0
    4.4305   -1.1533    1.0371 C   0  0  0  0  0  0  0  0  0  0  0  0
    4.0429   -2.3570   -1.0060 C   0  0  0  0  0  0  0  0  0  0  0  0
    6.2260   -2.4827    0.0880 C   0  0  0  0  0  0  0  0  0  0  0  0
    5.7363   -1.6555    1.0947 C   0  0  0  0  0  0  0  0  0  0  0  0
    5.3533   -2.8503   -0.9471 C   0  0  0  0  0  0  0  0  0  0  0  0
    0.3046    1.6746    1.5562 C   0  0  0  0  0  0  0  0  0  0  0  0
   -1.4000    1.1036   -0.5680 C   0  0  0  0  0  0  0  0  0  0  0  0
   -0.9010    2.3670    1.4251 C   0  0  0  0  0  0  0  0  0  0  0  0
   -1.7521    2.0812    0.3604 C   0  0  0  0  0  0  0  0  0  0  0  0
    8.6728   -2.7990    0.7308 C   0  0  0  0  0  0  0  0  0  0  0  0
    8.6951   -1.9526    1.9674 C   0  0  0  0  0  0  0  0  0  0  0  0
    7.7398   -3.5638   -0.8053 H   0  0  0  0  0  0  0  0  0  0  0  0
    1.1085   -2.2480   -1.2045 H   0  0  0  0  0  0  0  0  0  0  0  0
    1.8593   -0.9878   -2.1944 H   0  0  0  0  0  0  0  0  0  0  0  0
    4.0928   -0.4846    1.8279 H   0  0  0  0  0  0  0  0  0  0  0  0
    3.4229   -2.6613   -1.8437 H   0  0  0  0  0  0  0  0  0  0  0  0
    6.3211   -1.3484    1.9486 H   0  0  0  0  0  0  0  0  0  0  0  0
    5.6882   -3.5121   -1.7442 H   0  0  0  0  0  0  0  0  0  0  0  0
    0.9729    1.9030    2.3824 H   0  0  0  0  0  0  0  0  0  0  0  0
   -2.0597    0.8797   -1.4015 H   0  0  0  0  0  0  0  0  0  0  0  0
   -1.1699    3.1299    2.1506 H   0  0  0  0  0  0  0  0  0  0  0  0
   -2.6912    2.6193    0.2522 H   0  0  0  0  0  0  0  0  0  0  0  0
    8.4195   -0.9221    1.7307 H   0  0  0  0  0  0  0  0  0  0  0  0
    8.0441   -2.3853    2.7310 H   0  0  0  0  0  0  0  0  0  0  0  0
    9.7113   -1.9330    2.3730 H   0  0  0  0  0  0  0  0  0  0  0  0
  1  7  1  0  0  0  0
  1  9  1  0  0  0  0
  2 19  2  0  0  0  0
  3  5  2  0  0  0  0
  3  8  1  0  0  0  0
  4 12  1  0  0  0  0
  4 19  1  0  0  0  0
  4 21  1  0  0  0  0
  5  6  1  0  0  0  0
  5  7  1  0  0  0  0
  6 10  2  0  0  0  0
  6 11  1  0  0  0  0
  7 22  1  0  0  0  0
  7 23  1  0  0  0  0
  8  9  2  0  0  0  0
  8 15  1  0  0  0  0
  9 16  1  0  0  0  0
 10 13  1  0  0  0  0
 10 24  1  0  0  0  0
 11 14  2  0  0  0  0
 11 25  1  0  0  0  0
 12 13  2  0  0  0  0
 12 14  1  0  0  0  0
 13 26  1  0  0  0  0
 14 27  1  0  0  0  0
 15 17  2  0  0  0  0
 15 28  1  0  0  0  0
 16 18  2  0  0  0  0
 16 29  1  0  0  0  0
 17 18  1  0  0  0  0
 17 30  1  0  0  0  0
 18 31  1  0  0  0  0
 19 20  1  0  0  0  0
 20 32  1  0  0  0  0
 20 33  1  0  0  0  0
 20 34  1  0  0  0  0
M  END
>  <Mol_ID>
5004

>  <Formula>
C16H13ClN2O2

>  <MolWeight>
300.73962

>  <Cat>
S6797

>  <Name>
QX77

>  <Synonyms>
N/A

>  <Target>
Autophagy

>  <Form>
Free Base

>  <CAS>
1798331-92-6

>  <URL>
http://www.selleckchem.com/products/qx77.html

$$$$
