(R,R)-(+)-Hydrobenzoin
 OpenBabel08302521363D

 30 31  0  0  1  0  0  0  0  0999 V2000
    0.9967   -2.4300    0.9359 C   0  0  2  0  0  0  0  0  0  0  0  0
    0.4383   -1.5329   -0.2261 C   0  0  2  0  0  0  0  0  0  0  0  0
    0.6464   -1.9453    2.2394 O   0  0  0  0  0  0  0  0  0  0  0  0
    0.8717   -0.1708   -0.1366 O   0  0  0  0  0  0  0  0  0  0  0  0
    2.5063   -2.5813    0.9357 C   0  0  0  0  0  0  0  0  0  0  0  0
    3.1066   -3.8301    0.7095 C   0  0  0  0  0  0  0  0  0  0  0  0
    3.3339   -1.4891    1.2422 C   0  0  0  0  0  0  0  0  0  0  0  0
    4.4954   -3.9753    0.7807 C   0  0  0  0  0  0  0  0  0  0  0  0
    4.7202   -1.6332    1.3068 C   0  0  0  0  0  0  0  0  0  0  0  0
    5.3012   -2.8767    1.0755 C   0  0  0  0  0  0  0  0  0  0  0  0
   -1.0828   -1.5277   -0.2271 C   0  0  0  0  0  0  0  0  0  0  0  0
   -1.7925   -2.5224   -0.9120 C   0  0  0  0  0  0  0  0  0  0  0  0
   -1.8065   -0.5684    0.5066 C   0  0  0  0  0  0  0  0  0  0  0  0
   -3.1890   -2.5731   -0.8405 C   0  0  0  0  0  0  0  0  0  0  0  0
   -3.1994   -0.6275    0.5846 C   0  0  0  0  0  0  0  0  0  0  0  0
   -3.8867   -1.6335   -0.0832 C   0  0  0  0  0  0  0  0  0  0  0  0
    0.5436   -3.4255    0.8472 H   0  0  0  0  0  0  0  0  0  0  0  0
    0.7890   -1.9211   -1.1912 H   0  0  0  0  0  0  0  0  0  0  0  0
   -0.2753   -1.6441    2.1954 H   0  0  0  0  0  0  0  0  0  0  0  0
    1.5935   -0.0642   -0.7794 H   0  0  0  0  0  0  0  0  0  0  0  0
    2.4982   -4.7092    0.5107 H   0  0  0  0  0  0  0  0  0  0  0  0
    2.8900   -0.5228    1.4757 H   0  0  0  0  0  0  0  0  0  0  0  0
    4.9495   -4.9508    0.6266 H   0  0  0  0  0  0  0  0  0  0  0  0
    5.3408   -0.7787    1.5633 H   0  0  0  0  0  0  0  0  0  0  0  0
    6.3795   -2.9934    1.1463 H   0  0  0  0  0  0  0  0  0  0  0  0
   -1.2705   -3.2698   -1.5015 H   0  0  0  0  0  0  0  0  0  0  0  0
   -1.2849    0.2255    1.0320 H   0  0  0  0  0  0  0  0  0  0  0  0
   -3.7325   -3.3532   -1.3713 H   0  0  0  0  0  0  0  0  0  0  0  0
   -3.7386    0.1093    1.1718 H   0  0  0  0  0  0  0  0  0  0  0  0
   -4.9727   -1.6856   -0.0222 H   0  0  0  0  0  0  0  0  0  0  0  0
  1  3  1  0  0  0  0
  1  5  1  0  0  0  0
  1 17  1  6  0  0  0
  2 11  1  0  0  0  0
  2 18  1  6  0  0  0
  2  4  1  0  0  0  0
  2  1  1  0  0  0  0
  3 19  1  0  0  0  0
  4 20  1  0  0  0  0
  5  6  2  0  0  0  0
  5  7  1  0  0  0  0
  6  8  1  0  0  0  0
  6 21  1  0  0  0  0
  7  9  2  0  0  0  0
  7 22  1  0  0  0  0
  8 10  2  0  0  0  0
  8 23  1  0  0  0  0
  9 10  1  0  0  0  0
  9 24  1  0  0  0  0
 10 25  1  0  0  0  0
 11 12  2  0  0  0  0
 11 13  1  0  0  0  0
 12 14  1  0  0  0  0
 12 26  1  0  0  0  0
 13 15  2  0  0  0  0
 13 27  1  0  0  0  0
 14 16  2  0  0  0  0
 14 28  1  0  0  0  0
 15 16  1  0  0  0  0
 15 29  1  0  0  0  0
 16 30  1  0  0  0  0
M  END
>  <Mol_ID>
7048

>  <Formula>
C14H14O2

>  <MolWeight>
214.25976

>  <Cat>
E4056

>  <Name>
(R,R)-(+)-Hydrobenzoin

>  <Synonyms>
(R,R)-(+)-Hydrobenzoin

>  <Target>
Others

>  <Form>
Free base

>  <CAS>
52340-78-0

>  <URL>
https://www.selleckchem.com/products/r-r-hydrobenzoin.html

$$$$
