(R,S)-3,5-DHPG Hydrochloride
 OpenBabel08302521353D

 22 22  0  0  0  0  0  0  0  0999 V2000
    1.1674    1.1131    0.0188 C   0  0  0  0  0  0  0  0  0  0  0  0
    1.1922   -0.2799    0.0115 C   0  0  0  0  0  0  0  0  0  0  0  0
    0.0135   -1.0130   -0.0076 C   0  0  0  0  0  0  0  0  0  0  0  0
   -1.2020   -0.3413   -0.0267 C   0  0  0  0  0  0  0  0  0  0  0  0
   -1.2526    1.0520   -0.0290 C   0  0  0  0  0  0  0  0  0  0  0  0
   -0.0618    1.7978   -0.0017 C   0  0  0  0  0  0  0  0  0  0  0  0
   -0.1078    3.3137    0.0119 C   0  0  3  0  0  0  0  0  0  0  0  0
    2.3708   -0.9667    0.0256 O   0  0  0  0  0  0  0  0  0  0  0  0
   -2.3425   -1.0901   -0.0398 O   0  0  0  0  0  0  0  0  0  0  0  0
    0.5446    3.8303    1.2357 N   0  0  0  0  0  0  0  0  0  0  0  0
    0.5108    3.9317   -1.2598 C   0  0  0  0  0  0  0  0  0  0  0  0
    0.5274    3.4523   -2.3823 O   0  0  0  0  0  0  0  0  0  0  0  0
    1.0026    5.1829   -1.0695 O   0  0  0  0  0  0  0  0  0  0  0  0
    2.0942    1.6807    0.0433 H   0  0  0  0  0  0  0  0  0  0  0  0
    0.0424   -2.0979   -0.0082 H   0  0  0  0  0  0  0  0  0  0  0  0
   -2.2109    1.5622   -0.0551 H   0  0  0  0  0  0  0  0  0  0  0  0
   -1.1513    3.6522    0.0290 H   0  0  0  0  0  0  0  0  0  0  0  0
    3.1010   -0.3265    0.0203 H   0  0  0  0  0  0  0  0  0  0  0  0
   -3.1092   -0.4952   -0.0408 H   0  0  0  0  0  0  0  0  0  0  0  0
    0.4498    4.8464    1.2329 H   0  0  0  0  0  0  0  0  0  0  0  0
    0.0390    3.4836    2.0486 H   0  0  0  0  0  0  0  0  0  0  0  0
    1.3697    5.4131   -1.9490 H   0  0  0  0  0  0  0  0  0  0  0  0
  1  2  2  0  0  0  0
  1 14  1  0  0  0  0
  2  3  1  0  0  0  0
  2  8  1  0  0  0  0
  3  4  2  0  0  0  0
  3 15  1  0  0  0  0
  4  5  1  0  0  0  0
  4  9  1  0  0  0  0
  5  6  2  0  0  0  0
  5 16  1  0  0  0  0
  6  1  1  0  0  0  0
  6  7  1  0  0  0  0
  7 10  1  0  0  0  0
  7 11  1  0  0  0  0
  7 17  1  0  0  0  0
  8 18  1  0  0  0  0
  9 19  1  0  0  0  0
 10 20  1  0  0  0  0
 10 21  1  0  0  0  0
 11 12  2  0  0  0  0
 11 13  1  0  0  0  0
 13 22  1  0  0  0  0
M  END
>  <Mol_ID>
6911

>  <Formula>
C8H10ClNO4

>  <MolWeight>
219.6223

>  <Cat>
E1257

>  <Name>
(R,S)-3,5-DHPG Hydrochloride

>  <Synonyms>
DHPG, Dihydroxy phenylglycine

>  <Target>
GluR

>  <Form>
Hydrochloride

>  <CAS>
19641-83-9

>  <URL>
https://www.selleckchem.com/products/-r-s--3-5-dhpg.html

$$$$
