(R)-(-)-1,2-Propanediol
 OpenBabel08302521363D

 13 12  0  0  1  0  0  0  0  0999 V2000
    1.0103    0.0387    0.0539 C   0  0  1  0  0  0  0  0  0  0  0  0
    0.7081   -0.7324   -1.2344 C   0  0  0  0  0  0  0  0  0  0  0  0
    0.4218    1.4446    0.0428 C   0  0  0  0  0  0  0  0  0  0  0  0
    0.4774   -0.6873    1.1666 O   0  0  0  0  0  0  0  0  0  0  0  0
   -0.6945   -0.9629   -1.3629 O   0  0  0  0  0  0  0  0  0  0  0  0
    2.0948    0.1014    0.1918 H   0  0  0  0  0  0  0  0  0  0  0  0
    1.0510   -0.1802   -2.1144 H   0  0  0  0  0  0  0  0  0  0  0  0
    1.2011   -1.7102   -1.2234 H   0  0  0  0  0  0  0  0  0  0  0  0
    0.5821    1.9330    1.0102 H   0  0  0  0  0  0  0  0  0  0  0  0
    0.8811    2.0570   -0.7391 H   0  0  0  0  0  0  0  0  0  0  0  0
   -0.6609    1.4251   -0.1222 H   0  0  0  0  0  0  0  0  0  0  0  0
   -0.4715   -0.4705    1.2197 H   0  0  0  0  0  0  0  0  0  0  0  0
   -0.9136   -1.6399   -0.6977 H   0  0  0  0  0  0  0  0  0  0  0  0
  1  4  1  0  0  0  0
  1  6  1  1  0  0  0
  1  3  1  0  0  0  0
  1  2  1  0  0  0  0
  2  5  1  0  0  0  0
  2  7  1  0  0  0  0
  2  8  1  0  0  0  0
  3  9  1  0  0  0  0
  3 10  1  0  0  0  0
  3 11  1  0  0  0  0
  4 12  1  0  0  0  0
  5 13  1  0  0  0  0
M  END
>  <Mol_ID>
7262

>  <Formula>
C3H8O2

>  <MolWeight>
76.09442

>  <Cat>
E4278

>  <Name>
(R)-(-)-1,2-Propanediol

>  <Target>
Others

>  <Form>
Free base

>  <CAS>
4254-14-2

>  <URL>
https://www.selleckchem.com/products/r-1-2-propanediol.html

$$$$
