(R)-(-)-Ibuprofen
 OpenBabel08302521313D

 33 33  0  0  0  0  0  0  0  0999 V2000
    1.1945   -0.5202    0.8102 O   0  0  0  0  0  0  0  0  0  0  0  0
   -0.0213   -1.3047   -0.8853 O   0  0  0  0  0  0  0  0  0  0  0  0
   -1.7990    5.7998   -0.8015 C   0  0  0  0  0  0  0  0  0  0  0  0
   -2.9222    4.9362   -0.1892 C   0  0  0  0  0  0  0  0  0  0  0  0
   -2.5091    3.5355    0.1959 C   0  0  0  0  0  0  0  0  0  0  0  0
   -1.7054    0.8941    0.8315 C   0  0  0  0  0  0  0  0  0  0  0  0
   -1.1767   -0.4996    1.1290 C   0  0  1  0  0  0  0  0  0  0  0  0
   -1.1905    5.1671   -2.0562 C   0  0  0  0  0  0  0  0  0  0  0  0
   -2.3490    7.1881   -1.1422 C   0  0  0  0  0  0  0  0  0  0  0  0
   -1.5162    3.3062    1.1536 C   0  0  0  0  0  0  0  0  0  0  0  0
   -3.1205    2.4339   -0.4130 C   0  0  0  0  0  0  0  0  0  0  0  0
   -1.1156    2.0017    1.4627 C   0  0  0  0  0  0  0  0  0  0  0  0
   -2.7190    1.1309   -0.1055 C   0  0  0  0  0  0  0  0  0  0  0  0
   -2.2099   -1.6254    1.0153 C   0  0  0  0  0  0  0  0  0  0  0  0
    0.0105   -0.8251    0.2396 C   0  0  0  0  0  0  0  0  0  0  0  0
    1.8496   -0.7464    0.1171 H   0  0  0  0  0  0  0  0  0  0  0  0
   -0.9965    5.9301   -0.0647 H   0  0  0  0  0  0  0  0  0  0  0  0
   -3.7612    4.8884   -0.8962 H   0  0  0  0  0  0  0  0  0  0  0  0
   -3.3179    5.4290    0.7088 H   0  0  0  0  0  0  0  0  0  0  0  0
   -0.8286   -0.5231    2.1710 H   0  0  0  0  0  0  0  0  0  0  0  0
   -1.9621    4.9189   -2.7925 H   0  0  0  0  0  0  0  0  0  0  0  0
   -0.4785    5.8515   -2.5307 H   0  0  0  0  0  0  0  0  0  0  0  0
   -0.6438    4.2506   -1.8121 H   0  0  0  0  0  0  0  0  0  0  0  0
   -2.7496    7.6779   -0.2486 H   0  0  0  0  0  0  0  0  0  0  0  0
   -1.5619    7.8305   -1.5507 H   0  0  0  0  0  0  0  0  0  0  0  0
   -3.1523    7.1253   -1.8844 H   0  0  0  0  0  0  0  0  0  0  0  0
   -1.0325    4.1410    1.6555 H   0  0  0  0  0  0  0  0  0  0  0  0
   -3.9053    2.5796   -1.1517 H   0  0  0  0  0  0  0  0  0  0  0  0
   -0.3203    1.8574    2.1925 H   0  0  0  0  0  0  0  0  0  0  0  0
   -3.2030    0.3115   -0.6310 H   0  0  0  0  0  0  0  0  0  0  0  0
   -1.7584   -2.5878    1.2825 H   0  0  0  0  0  0  0  0  0  0  0  0
   -3.0585   -1.4502    1.6847 H   0  0  0  0  0  0  0  0  0  0  0  0
   -2.5967   -1.7344   -0.0040 H   0  0  0  0  0  0  0  0  0  0  0  0
  1 15  1  0  0  0  0
  1 16  1  0  0  0  0
  2 15  2  0  0  0  0
  3  4  1  0  0  0  0
  3  8  1  0  0  0  0
  3  9  1  0  0  0  0
  3 17  1  0  0  0  0
  4  5  1  0  0  0  0
  4 18  1  0  0  0  0
  4 19  1  0  0  0  0
  5 10  2  0  0  0  0
  5 11  1  0  0  0  0
  6  7  1  0  0  0  0
  6 12  2  0  0  0  0
  6 13  1  0  0  0  0
  7 14  1  0  0  0  0
  7 15  1  0  0  0  0
  7 20  1  1  0  0  0
  8 21  1  0  0  0  0
  8 22  1  0  0  0  0
  8 23  1  0  0  0  0
  9 24  1  0  0  0  0
  9 25  1  0  0  0  0
  9 26  1  0  0  0  0
 10 12  1  0  0  0  0
 10 27  1  0  0  0  0
 11 13  2  0  0  0  0
 11 28  1  0  0  0  0
 12 29  1  0  0  0  0
 13 30  1  0  0  0  0
 14 31  1  0  0  0  0
 14 32  1  0  0  0  0
 14 33  1  0  0  0  0
M  END
>  <Mol_ID>
5880

>  <Formula>
C13H18O2

>  <MolWeight>
206.28082

>  <Cat>
S5899

>  <Name>
(R)-(-)-Ibuprofen

>  <Synonyms>
(R)-Ibuprofen

>  <Target>
NF-¦ÊB

>  <Form>
Free Base

>  <CAS>
51146-57-7

>  <URL>
http://www.selleckchem.com/products/-r-ibuprofen.html

$$$$
