R-10015
 OpenBabel08302521243D

 48 52  0  0  0  0  0  0  0  0999 V2000
   -2.2128   -0.0085   -0.0219 C   0  0  0  0  0  0  0  0  0  0  0  0
   -1.3415   -0.8173    0.5513 N   0  0  0  0  0  0  0  0  0  0  0  0
   -0.1030   -0.3033    0.2668 C   0  0  0  0  0  0  0  0  0  0  0  0
   -0.2170    0.8492   -0.4963 C   0  0  0  0  0  0  0  0  0  0  0  0
   -1.5647    1.0187   -0.6652 N   0  0  0  0  0  0  0  0  0  0  0  0
    1.1735   -0.7629    0.6268 C   0  0  0  0  0  0  0  0  0  0  0  0
    2.2991   -0.0350    0.1994 C   0  0  0  0  0  0  0  0  0  0  0  0
    2.1520    1.1290   -0.5754 C   0  0  0  0  0  0  0  0  0  0  0  0
    0.8772    1.5926   -0.9380 C   0  0  0  0  0  0  0  0  0  0  0  0
    3.3182    1.9265   -1.0501 C   0  0  0  0  0  0  0  0  0  0  0  0
    3.2039    2.9402   -1.7224 O   0  0  0  0  0  0  0  0  0  0  0  0
    4.4889    1.3789   -0.6406 O   0  0  0  0  0  0  0  0  0  0  0  0
   -4.5029   -2.8691    0.0154 N   0  0  0  0  0  0  0  0  0  0  0  0
   -3.9981   -2.2942    1.2528 C   0  0  0  0  0  0  0  0  0  0  0  0
   -4.2308   -0.7860    1.2561 C   0  0  0  0  0  0  0  0  0  0  0  0
   -3.7116   -0.1057   -0.0102 C   0  0  0  0  0  0  0  0  0  0  0  0
   -4.2534   -0.8049   -1.2636 C   0  0  0  0  0  0  0  0  0  0  0  0
   -4.0140   -2.3129   -1.2399 C   0  0  0  0  0  0  0  0  0  0  0  0
   -7.2021   -4.9568   -1.0928 C   0  0  0  0  0  0  0  0  0  0  0  0
   -7.4792   -5.8665   -0.1482 N   0  0  0  0  0  0  0  0  0  0  0  0
   -6.6320   -5.7602    0.8838 C   0  0  0  0  0  0  0  0  0  0  0  0
   -5.5958   -4.8502    1.0323 C   0  0  0  0  0  0  0  0  0  0  0  0
   -5.4211   -3.8980   -0.0011 C   0  0  0  0  0  0  0  0  0  0  0  0
   -6.2482   -4.0079   -1.0786 N   0  0  0  0  0  0  0  0  0  0  0  0
   -6.6707   -6.5597    1.9932 N   0  0  0  0  0  0  0  0  0  0  0  0
   -4.9542   -5.1881    2.2655 C   0  0  0  0  0  0  0  0  0  0  0  0
   -5.6543   -6.2232    2.8462 C   0  0  0  0  0  0  0  0  0  0  0  0
    5.6421    2.1042   -1.0718 C   0  0  0  0  0  0  0  0  0  0  0  0
   -2.0097    1.7696   -1.1714 H   0  0  0  0  0  0  0  0  0  0  0  0
    1.2800   -1.6589    1.2243 H   0  0  0  0  0  0  0  0  0  0  0  0
    3.2851   -0.3955    0.4827 H   0  0  0  0  0  0  0  0  0  0  0  0
    0.7508    2.4897   -1.5357 H   0  0  0  0  0  0  0  0  0  0  0  0
   -2.9416   -2.5502    1.3791 H   0  0  0  0  0  0  0  0  0  0  0  0
   -4.5231   -2.6657    2.1355 H   0  0  0  0  0  0  0  0  0  0  0  0
   -3.7827   -0.3463    2.1553 H   0  0  0  0  0  0  0  0  0  0  0  0
   -5.3128   -0.6068    1.3259 H   0  0  0  0  0  0  0  0  0  0  0  0
   -4.1007    0.9220   -0.0073 H   0  0  0  0  0  0  0  0  0  0  0  0
   -5.3361   -0.6272   -1.3189 H   0  0  0  0  0  0  0  0  0  0  0  0
   -3.8172   -0.3750   -2.1733 H   0  0  0  0  0  0  0  0  0  0  0  0
   -4.4925   -2.7531   -2.1232 H   0  0  0  0  0  0  0  0  0  0  0  0
   -2.9441   -2.5314   -1.3429 H   0  0  0  0  0  0  0  0  0  0  0  0
   -7.8276   -4.9818   -1.9796 H   0  0  0  0  0  0  0  0  0  0  0  0
   -7.3535   -7.2881    2.1327 H   0  0  0  0  0  0  0  0  0  0  0  0
   -4.0768   -4.7217    2.6914 H   0  0  0  0  0  0  0  0  0  0  0  0
   -5.5082   -6.7473    3.7811 H   0  0  0  0  0  0  0  0  0  0  0  0
    5.6965    2.1204   -2.1656 H   0  0  0  0  0  0  0  0  0  0  0  0
    5.6275    3.1226   -0.6705 H   0  0  0  0  0  0  0  0  0  0  0  0
    6.5285    1.5931   -0.6884 H   0  0  0  0  0  0  0  0  0  0  0  0
  1  2  2  0  0  0  0
  1  5  1  0  0  0  0
  1 16  1  0  0  0  0
  2  3  1  0  0  0  0
  3  4  2  0  0  0  0
  3  6  1  0  0  0  0
  4  5  1  0  0  0  0
  4  9  1  0  0  0  0
  5 29  1  0  0  0  0
  6  7  2  0  0  0  0
  6 30  1  0  0  0  0
  7  8  1  0  0  0  0
  7 31  1  0  0  0  0
  8  9  2  0  0  0  0
  8 10  1  0  0  0  0
  9 32  1  0  0  0  0
 10 11  2  0  0  0  0
 10 12  1  0  0  0  0
 12 28  1  0  0  0  0
 13 14  1  0  0  0  0
 13 18  1  0  0  0  0
 13 23  1  0  0  0  0
 14 15  1  0  0  0  0
 14 33  1  0  0  0  0
 14 34  1  0  0  0  0
 15 16  1  0  0  0  0
 15 35  1  0  0  0  0
 15 36  1  0  0  0  0
 16 17  1  0  0  0  0
 16 37  1  0  0  0  0
 17 18  1  0  0  0  0
 17 38  1  0  0  0  0
 17 39  1  0  0  0  0
 18 40  1  0  0  0  0
 18 41  1  0  0  0  0
 19 20  2  0  0  0  0
 19 24  1  0  0  0  0
 19 42  1  0  0  0  0
 20 21  1  0  0  0  0
 21 22  2  0  0  0  0
 21 25  1  0  0  0  0
 22 23  1  0  0  0  0
 22 26  1  0  0  0  0
 23 24  2  0  0  0  0
 25 27  1  0  0  0  0
 25 43  1  0  0  0  0
 26 27  2  0  0  0  0
 26 44  1  0  0  0  0
 27 45  1  0  0  0  0
 28 46  1  0  0  0  0
 28 47  1  0  0  0  0
 28 48  1  0  0  0  0
M  END
>  <Mol_ID>
5011

>  <Formula>
C20H19ClN6O2

>  <MolWeight>
410.85686

>  <Cat>
S6837

>  <Name>
R-10015

>  <Synonyms>
N/A

>  <Target>
LIM kinase

>  <Form>
Free Base

>  <CAS>
2097938-51-5

>  <URL>
http://www.selleckchem.com/products/r-10015.html

$$$$
