(R)-2-Hydroxyglutarate .cdx
 OpenBabel08302521363D

 18 17  0  0  0  0  0  0  0  0999 V2000
   -2.1119   -4.8062    0.1190 O   0  0  0  0  0  0  0  0  0  0  0  0
   -1.8170   -4.6166    1.4246 C   0  0  0  0  0  0  0  0  0  0  0  0
   -1.4523   -3.1832    1.7326 C   0  0  0  0  0  0  0  0  0  0  0  0
   -1.1183   -2.9973    3.2149 C   0  0  0  0  0  0  0  0  0  0  0  0
   -0.7932   -1.5467    3.5629 C   0  0  2  0  0  0  0  0  0  0  0  0
   -0.4125   -1.4170    5.0443 C   0  0  0  0  0  0  0  0  0  0  0  0
   -1.1053   -0.4197    5.6493 O   0  0  0  0  0  0  0  0  0  0  0  0
   -1.8673   -5.5202    2.2431 O   0  0  0  0  0  0  0  0  0  0  0  0
   -1.9218   -0.6985    3.2907 O   0  0  0  0  0  0  0  0  0  0  0  0
    0.4113   -2.1062    5.6238 O   0  0  0  0  0  0  0  0  0  0  0  0
   -2.0405   -4.0017   -0.4303 H   0  0  0  0  0  0  0  0  0  0  0  0
   -0.5866   -2.9049    1.1214 H   0  0  0  0  0  0  0  0  0  0  0  0
   -2.3051   -2.5544    1.4553 H   0  0  0  0  0  0  0  0  0  0  0  0
   -1.9733   -3.3334    3.8170 H   0  0  0  0  0  0  0  0  0  0  0  0
   -0.2760   -3.6464    3.4858 H   0  0  0  0  0  0  0  0  0  0  0  0
    0.0484   -1.1692    2.9720 H   0  0  0  0  0  0  0  0  0  0  0  0
   -1.6600    0.0316    4.9731 H   0  0  0  0  0  0  0  0  0  0  0  0
   -2.7325   -1.2106    3.4897 H   0  0  0  0  0  0  0  0  0  0  0  0
  1  2  1  0  0  0  0
  1 11  1  0  0  0  0
  2  3  1  0  0  0  0
  2  8  2  0  0  0  0
  3  4  1  0  0  0  0
  3 12  1  0  0  0  0
  3 13  1  0  0  0  0
  4 14  1  0  0  0  0
  4 15  1  0  0  0  0
  5  9  1  0  0  0  0
  5 16  1  6  0  0  0
  5  6  1  0  0  0  0
  5  4  1  0  0  0  0
  6  7  1  0  0  0  0
  6 10  2  0  0  0  0
  7 17  1  0  0  0  0
  9 18  1  0  0  0  0
M  END
>  <Mol_ID>
7115

>  <Formula>
C5H6Na2O5

>  <MolWeight>
192.07768

>  <Cat>
S7873

>  <Name>
Disodium (R)-2-Hydroxyglutarate

>  <Synonyms>
D-¦Á-Hydroxyglutaric acid disodium

>  <Target>
ROS

>  <Form>
disodium salt

>  <CAS>
103404-90-6

>  <URL>
http://selleckchem.com/products/disodium-r-2-hydroxyglutarate.html

$$$$
