(R)-3-Hydroxybutanoic acid (sodium)
 OpenBabel08302521363D

 15 14  0  0  0  0  0  0  0  0999 V2000
    0.9834    0.0249   -0.0020 C   0  0  0  0  0  0  0  0  0  0  0  0
    0.4802    1.1015    0.9516 C   0  0  1  0  0  0  0  0  0  0  0  0
    0.5630   -1.3676    0.4120 C   0  0  0  0  0  0  0  0  0  0  0  0
    1.0044    2.4834    0.5849 C   0  0  0  0  0  0  0  0  0  0  0  0
   -0.9571    1.1016    0.9054 O   0  0  0  0  0  0  0  0  0  0  0  0
   -0.6794   -1.4567    0.9327 O   0  0  0  0  0  0  0  0  0  0  0  0
    1.2573   -2.3555    0.2119 O   0  0  0  0  0  0  0  0  0  0  0  0
    2.0793    0.0437   -0.0240 H   0  0  0  0  0  0  0  0  0  0  0  0
    0.6076    0.1904   -1.0181 H   0  0  0  0  0  0  0  0  0  0  0  0
    0.7700    0.8594    1.9800 H   0  0  0  0  0  0  0  0  0  0  0  0
    0.6428    2.7943   -0.4015 H   0  0  0  0  0  0  0  0  0  0  0  0
    0.6403    3.2277    1.3013 H   0  0  0  0  0  0  0  0  0  0  0  0
    2.0982    2.5092    0.5808 H   0  0  0  0  0  0  0  0  0  0  0  0
   -1.2390    1.7434    0.2242 H   0  0  0  0  0  0  0  0  0  0  0  0
   -1.1174   -0.5758    1.0222 H   0  0  0  0  0  0  0  0  0  0  0  0
  1  2  1  0  0  0  0
  1  3  1  0  0  0  0
  1  8  1  0  0  0  0
  1  9  1  0  0  0  0
  2  4  1  0  0  0  0
  2  5  1  0  0  0  0
  2 10  1  1  0  0  0
  3  6  1  0  0  0  0
  3  7  2  0  0  0  0
  4 11  1  0  0  0  0
  4 12  1  0  0  0  0
  4 13  1  0  0  0  0
  5 14  1  0  0  0  0
  6 15  1  0  0  0  0
M  END
>  <Mol_ID>
7202

>  <Formula>
C4H8NaO3

>  <MolWeight>
127.09429

>  <Cat>
E4203

>  <Name>
(R)-3-Hydroxybutanoic acid (sodium)

>  <Synonyms>
(R)-(-)-3-Hydroxybutanoic acid sodium; (R)-3-Hydroxybutyric acid sodium

>  <Target>
Others

>  <Form>
sodium salt

>  <CAS>
13613-65-5

>  <URL>
https://www.selleckchem.com/products/r-3-hydroxybutanoic-acid-sodium.html

$$$$
