(R)-Avanafil
 OpenBabel08302521323D

 60 63  0  0  0  0  0  0  0  0999 V2000
    4.8223   -2.1092   -3.5395 O   0  0  0  0  0  0  0  0  0  0  0  0
    5.9691    2.5855    1.1413 O   0  0  0  0  0  0  0  0  0  0  0  0
    5.4548    6.7028   -7.4039 O   0  0  0  0  0  0  0  0  0  0  0  0
    2.5194   -1.6207   -1.6356 N   0  0  0  0  0  0  0  0  0  0  0  0
    3.6977    0.3137   -2.2720 N   0  0  0  0  0  0  0  0  0  0  0  0
    3.3318   -0.2241   -0.0091 N   0  0  0  0  0  0  0  0  0  0  0  0
    4.9200    2.2564   -2.9307 N   0  0  0  0  0  0  0  0  0  0  0  0
    5.6708    3.9418   -0.6516 N   0  0  0  0  0  0  0  0  0  0  0  0
    5.6677    7.3800   -0.0255 N   0  0  0  0  0  0  0  0  0  0  0  0
    6.5477    6.3943   -2.0165 N   0  0  0  0  0  0  0  0  0  0  0  0
    2.4113   -2.1901   -2.9699 C   0  0  2  0  0  0  0  0  0  0  0  0
    1.2163   -3.1372   -2.7917 C   0  0  0  0  0  0  0  0  0  0  0  0
    1.3800   -3.6737   -1.3712 C   0  0  0  0  0  0  0  0  0  0  0  0
    2.0562   -2.5368   -0.6018 C   0  0  0  0  0  0  0  0  0  0  0  0
    3.6927   -2.9633   -3.3564 C   0  0  0  0  0  0  0  0  0  0  0  0
    3.1879   -0.4830   -1.3071 C   0  0  0  0  0  0  0  0  0  0  0  0
    4.4236    1.4054   -1.9174 C   0  0  0  0  0  0  0  0  0  0  0  0
    4.6728    1.6928   -0.5793 C   0  0  0  0  0  0  0  0  0  0  0  0
    4.0717    0.8435    0.3275 C   0  0  0  0  0  0  0  0  0  0  0  0
    4.3911    2.0470   -4.2763 C   0  0  0  0  0  0  0  0  0  0  0  0
    5.4913    2.7640    0.0197 C   0  0  0  0  0  0  0  0  0  0  0  0
    4.7134    3.2597   -5.1303 C   0  0  0  0  0  0  0  0  0  0  0  0
    5.8060    3.2711   -6.0096 C   0  0  0  0  0  0  0  0  0  0  0  0
    3.9209    4.4137   -5.0430 C   0  0  0  0  0  0  0  0  0  0  0  0
    6.3875    5.0334    0.0011 C   0  0  0  0  0  0  0  0  0  0  0  0
    6.0923    4.4021   -6.7894 C   0  0  0  0  0  0  0  0  0  0  0  0
    4.2070    5.5381   -5.8229 C   0  0  0  0  0  0  0  0  0  0  0  0
    5.2909    5.5415   -6.7033 C   0  0  0  0  0  0  0  0  0  0  0  0
    6.2167    6.3534   -0.7088 C   0  0  0  0  0  0  0  0  0  0  0  0
    6.4998    6.7382   -8.3701 C   0  0  0  0  0  0  0  0  0  0  0  0
    5.4206    8.5007   -0.7266 C   0  0  0  0  0  0  0  0  0  0  0  0
    6.2766    7.5389   -2.6657 C   0  0  0  0  0  0  0  0  0  0  0  0
    5.6988    8.6331   -2.0704 C   0  0  0  0  0  0  0  0  0  0  0  0
    4.5508   -1.2106   -3.2647 H   0  0  0  0  0  0  0  0  0  0  0  0
    5.9388    2.2222   -2.9259 H   0  0  0  0  0  0  0  0  0  0  0  0
    5.3236    4.0745   -1.5982 H   0  0  0  0  0  0  0  0  0  0  0  0
    2.1902   -1.4247   -3.7214 H   0  0  0  0  0  0  0  0  0  0  0  0
    0.2813   -2.5660   -2.8511 H   0  0  0  0  0  0  0  0  0  0  0  0
    1.1744   -3.9350   -3.5388 H   0  0  0  0  0  0  0  0  0  0  0  0
    0.4222   -3.9588   -0.9227 H   0  0  0  0  0  0  0  0  0  0  0  0
    2.0197   -4.5644   -1.3696 H   0  0  0  0  0  0  0  0  0  0  0  0
    1.3444   -2.0544    0.0767 H   0  0  0  0  0  0  0  0  0  0  0  0
    2.8937   -2.9326   -0.0138 H   0  0  0  0  0  0  0  0  0  0  0  0
    3.5362   -3.4846   -4.3059 H   0  0  0  0  0  0  0  0  0  0  0  0
    3.9562   -3.7163   -2.6052 H   0  0  0  0  0  0  0  0  0  0  0  0
    4.1631    1.0034    1.4006 H   0  0  0  0  0  0  0  0  0  0  0  0
    4.8151    1.1425   -4.7311 H   0  0  0  0  0  0  0  0  0  0  0  0
    3.2993    1.9266   -4.2666 H   0  0  0  0  0  0  0  0  0  0  0  0
    6.4456    2.3956   -6.1011 H   0  0  0  0  0  0  0  0  0  0  0  0
    3.0703    4.4420   -4.3651 H   0  0  0  0  0  0  0  0  0  0  0  0
    6.0340    5.1191    1.0357 H   0  0  0  0  0  0  0  0  0  0  0  0
    7.4500    4.7661    0.0357 H   0  0  0  0  0  0  0  0  0  0  0  0
    6.9490    4.3616   -7.4552 H   0  0  0  0  0  0  0  0  0  0  0  0
    3.5754    6.4206   -5.7467 H   0  0  0  0  0  0  0  0  0  0  0  0
    7.4802    6.6762   -7.8868 H   0  0  0  0  0  0  0  0  0  0  0  0
    6.3774    5.9510   -9.1213 H   0  0  0  0  0  0  0  0  0  0  0  0
    6.4445    7.7005   -8.8890 H   0  0  0  0  0  0  0  0  0  0  0  0
    4.9677    9.3108   -0.1630 H   0  0  0  0  0  0  0  0  0  0  0  0
    6.5372    7.5437   -3.7201 H   0  0  0  0  0  0  0  0  0  0  0  0
    5.4674    9.5328   -2.6162 H   0  0  0  0  0  0  0  0  0  0  0  0
  1 15  1  0  0  0  0
  1 34  1  0  0  0  0
  2 21  2  0  0  0  0
  3 28  1  0  0  0  0
  3 30  1  0  0  0  0
  4 11  1  0  0  0  0
  4 14  1  0  0  0  0
  4 16  1  0  0  0  0
  5 16  2  0  0  0  0
  5 17  1  0  0  0  0
  6 16  1  0  0  0  0
  6 19  2  0  0  0  0
  7 17  1  0  0  0  0
  7 20  1  0  0  0  0
  7 35  1  0  0  0  0
  8 21  1  0  0  0  0
  8 25  1  0  0  0  0
  8 36  1  0  0  0  0
  9 29  2  0  0  0  0
  9 31  1  0  0  0  0
 10 29  1  0  0  0  0
 10 32  2  0  0  0  0
 11 12  1  0  0  0  0
 11 37  1  6  0  0  0
 11 15  1  0  0  0  0
 12 13  1  0  0  0  0
 12 38  1  0  0  0  0
 12 39  1  0  0  0  0
 13 14  1  0  0  0  0
 13 40  1  0  0  0  0
 13 41  1  0  0  0  0
 14 42  1  0  0  0  0
 14 43  1  0  0  0  0
 15 44  1  0  0  0  0
 15 45  1  0  0  0  0
 17 18  2  0  0  0  0
 18 19  1  0  0  0  0
 18 21  1  0  0  0  0
 19 46  1  0  0  0  0
 20 22  1  0  0  0  0
 20 47  1  0  0  0  0
 20 48  1  0  0  0  0
 22 23  2  0  0  0  0
 22 24  1  0  0  0  0
 23 26  1  0  0  0  0
 23 49  1  0  0  0  0
 24 27  2  0  0  0  0
 24 50  1  0  0  0  0
 25 29  1  0  0  0  0
 25 51  1  0  0  0  0
 25 52  1  0  0  0  0
 26 28  2  0  0  0  0
 26 53  1  0  0  0  0
 27 28  1  0  0  0  0
 27 54  1  0  0  0  0
 30 55  1  0  0  0  0
 30 56  1  0  0  0  0
 30 57  1  0  0  0  0
 31 33  2  0  0  0  0
 31 58  1  0  0  0  0
 32 33  1  0  0  0  0
 32 59  1  0  0  0  0
 33 60  1  0  0  0  0
M  END
>  <Mol_ID>
6273

>  <Formula>
C23H26ClN7O3

>  <MolWeight>
483.95064

>  <Cat>
E0423

>  <Name>
(R)-Avanafil

>  <Synonyms>
N/A

>  <Target>
PDE

>  <Form>
free base

>  <CAS>
1638497-26-3

>  <URL>
http://www.selleckchem.com/products/r-avanafil.html

$$$$
