(R)-baclofen.cdx
 OpenBabel08302521383D

 26 26  0  0  0  0  0  0  0  0999 V2000
    1.0199   -0.3616   -1.1504 C   0  0  0  0  0  0  0  0  0  0  0  0
    0.6601   -1.3838   -0.2787 C   0  0  0  0  0  0  0  0  0  0  0  0
   -0.2359   -1.1270    0.7534 C   0  0  0  0  0  0  0  0  0  0  0  0
   -0.7566    0.1569    0.9233 C   0  0  0  0  0  0  0  0  0  0  0  0
   -0.3733    1.2147    0.0795 C   0  0  0  0  0  0  0  0  0  0  0  0
    0.5066    0.9264   -0.9755 C   0  0  0  0  0  0  0  0  0  0  0  0
   -0.8876    2.6209    0.3777 C   0  0  1  0  0  0  0  0  0  0  0  0
   -0.4280    3.1045    1.7711 C   0  0  0  0  0  0  0  0  0  0  0  0
    1.0694    3.2349    1.9030 C   0  0  0  0  0  0  0  0  0  0  0  0
    1.5399    4.4162    1.4377 O   0  0  0  0  0  0  0  0  0  0  0  0
    1.7959    2.3871    2.3949 O   0  0  0  0  0  0  0  0  0  0  0  0
   -0.5891    3.6631   -0.7309 C   0  0  0  0  0  0  0  0  0  0  0  0
   -1.0601    5.0106   -0.3889 N   0  0  0  0  0  0  0  0  0  0  0  0
    1.7202   -0.5588   -1.9579 H   0  0  0  0  0  0  0  0  0  0  0  0
    1.0851   -2.3767   -0.3981 H   0  0  0  0  0  0  0  0  0  0  0  0
   -0.5148   -1.9208    1.4414 H   0  0  0  0  0  0  0  0  0  0  0  0
   -1.4454    0.3290    1.7480 H   0  0  0  0  0  0  0  0  0  0  0  0
    0.8387    1.6903   -1.6717 H   0  0  0  0  0  0  0  0  0  0  0  0
   -1.9828    2.5359    0.4216 H   0  0  0  0  0  0  0  0  0  0  0  0
   -0.8875    4.0645    2.0362 H   0  0  0  0  0  0  0  0  0  0  0  0
   -0.7665    2.4197    2.5593 H   0  0  0  0  0  0  0  0  0  0  0  0
    0.8315    4.9883    1.0676 H   0  0  0  0  0  0  0  0  0  0  0  0
    0.4854    3.7354   -0.9286 H   0  0  0  0  0  0  0  0  0  0  0  0
   -1.0675    3.3504   -1.6682 H   0  0  0  0  0  0  0  0  0  0  0  0
   -0.9346    5.6100   -1.2108 H   0  0  0  0  0  0  0  0  0  0  0  0
   -2.0759    4.9777   -0.2609 H   0  0  0  0  0  0  0  0  0  0  0  0
  1  2  2  0  0  0  0
  1 14  1  0  0  0  0
  2  3  1  0  0  0  0
  2 15  1  0  0  0  0
  3  4  2  0  0  0  0
  3 16  1  0  0  0  0
  4  5  1  0  0  0  0
  4 17  1  0  0  0  0
  5  6  2  0  0  0  0
  5  7  1  0  0  0  0
  6  1  1  0  0  0  0
  6 18  1  0  0  0  0
  7  8  1  0  0  0  0
  7 12  1  0  0  0  0
  7 19  1  1  0  0  0
  8  9  1  0  0  0  0
  8 20  1  0  0  0  0
  8 21  1  0  0  0  0
  9 10  1  0  0  0  0
  9 11  2  0  0  0  0
 10 22  1  0  0  0  0
 12 13  1  0  0  0  0
 12 23  1  0  0  0  0
 12 24  1  0  0  0  0
 13 25  1  0  0  0  0
 13 26  1  0  0  0  0
M  END
>  <Mol_ID>
7727

>  <Formula>
C10H12ClNO2

>  <MolWeight>
213.66078

>  <Cat>
S3072

>  <Name>
(R)-baclofen

>  <Synonyms>
STX 209

>  <Target>
GABA Receptor

>  <Form>
free base

>  <CAS>
69308-37-8

>  <URL>
http://selleckchem.com/products/r-baclofen.html

$$$$
