(R)-Leucic acid
 OpenBabel08302521363D

 21 20  0  0  1  0  0  0  0  0999 V2000
    0.9461    0.1340   -0.1965 C   0  0  2  0  0  0  0  0  0  0  0  0
    0.3318    0.2012    1.2051 C   0  0  0  0  0  0  0  0  0  0  0  0
    0.3120   -1.0088   -1.0005 C   0  0  0  0  0  0  0  0  0  0  0  0
    2.3639   -0.0957   -0.1217 O   0  0  0  0  0  0  0  0  0  0  0  0
    0.8796    1.3330    2.0962 C   0  0  0  0  0  0  0  0  0  0  0  0
    1.2604   -1.7979   -1.5687 O   0  0  0  0  0  0  0  0  0  0  0  0
   -0.8846   -1.2037   -1.1290 O   0  0  0  0  0  0  0  0  0  0  0  0
    0.6213    2.7161    1.4968 C   0  0  0  0  0  0  0  0  0  0  0  0
    0.2506    1.2397    3.4882 C   0  0  0  0  0  0  0  0  0  0  0  0
    0.7905    1.0545   -0.7644 H   0  0  0  0  0  0  0  0  0  0  0  0
   -0.7604    0.2987    1.1210 H   0  0  0  0  0  0  0  0  0  0  0  0
    0.5162   -0.7545    1.7133 H   0  0  0  0  0  0  0  0  0  0  0  0
    2.5502   -0.5488    0.7223 H   0  0  0  0  0  0  0  0  0  0  0  0
    1.9638    1.2085    2.2153 H   0  0  0  0  0  0  0  0  0  0  0  0
    2.1412   -1.4100   -1.3559 H   0  0  0  0  0  0  0  0  0  0  0  0
   -0.4110    2.8112    1.1431 H   0  0  0  0  0  0  0  0  0  0  0  0
    0.7998    3.5062    2.2334 H   0  0  0  0  0  0  0  0  0  0  0  0
    1.2899    2.9047    0.6498 H   0  0  0  0  0  0  0  0  0  0  0  0
    0.4723    0.2720    3.9508 H   0  0  0  0  0  0  0  0  0  0  0  0
    0.6449    2.0198    4.1481 H   0  0  0  0  0  0  0  0  0  0  0  0
   -0.8382    1.3532    3.4414 H   0  0  0  0  0  0  0  0  0  0  0  0
  1  2  1  0  0  0  0
  1  3  1  0  0  0  0
  1  4  1  0  0  0  0
  1 10  1  6  0  0  0
  2  5  1  0  0  0  0
  2 11  1  0  0  0  0
  2 12  1  0  0  0  0
  3  6  1  0  0  0  0
  3  7  2  0  0  0  0
  4 13  1  0  0  0  0
  5  8  1  0  0  0  0
  5  9  1  0  0  0  0
  5 14  1  0  0  0  0
  6 15  1  0  0  0  0
  8 16  1  0  0  0  0
  8 17  1  0  0  0  0
  8 18  1  0  0  0  0
  9 19  1  0  0  0  0
  9 20  1  0  0  0  0
  9 21  1  0  0  0  0
M  END
>  <Mol_ID>
7045

>  <Formula>
C6H12O3

>  <MolWeight>
132.15768

>  <Cat>
E4051

>  <Name>
(R)-Leucic acid

>  <Synonyms>
D-¦Á-Hydroxyisocaproic acid

>  <Target>
Others

>  <Form>
Free base

>  <CAS>
20312-37-2

>  <URL>
https://www.selleckchem.com/products/r-leucic-acid.html

$$$$
