(R)-Nepicastat HCL(RS-25560-198).cdx
 OpenBabel08302522063D

 35 37  0  0  0  0  0  0  0  0999 V2000
    2.5266   -0.6848   -0.0025 C   0  0  0  0  0  0  0  0  0  0  0  0
    2.5636    0.6983    0.0714 C   0  0  0  0  0  0  0  0  0  0  0  0
    1.3635    1.3909    0.1336 C   0  0  0  0  0  0  0  0  0  0  0  0
    0.1268    0.7264    0.1122 C   0  0  0  0  0  0  0  0  0  0  0  0
    0.1001   -0.6793    0.0506 C   0  0  0  0  0  0  0  0  0  0  0  0
    1.3170   -1.3757   -0.0152 C   0  0  0  0  0  0  0  0  0  0  0  0
   -1.1370    1.5398    0.2103 C   0  0  0  0  0  0  0  0  0  0  0  0
   -2.3599    0.7761   -0.2836 C   0  0  0  0  0  0  0  0  0  0  0  0
   -2.4332   -0.6124    0.3700 C   0  0  2  0  0  0  0  0  0  0  0  0
   -1.2019   -1.4524   -0.0150 C   0  0  0  0  0  0  0  0  0  0  0  0
    1.3971    2.7300    0.2089 F   0  0  0  0  0  0  0  0  0  0  0  0
    3.6757   -1.3696   -0.0646 F   0  0  0  0  0  0  0  0  0  0  0  0
   -3.7169   -1.2912    0.0995 N   0  0  0  0  0  0  0  0  0  0  0  0
   -4.5691   -1.7949    1.0950 C   0  0  0  0  0  0  0  0  0  0  0  0
   -5.6945   -2.2411    0.5125 C   0  0  0  0  0  0  0  0  0  0  0  0
   -5.5923   -2.0815   -0.8387 N   0  0  0  0  0  0  0  0  0  0  0  0
   -4.3479   -1.5184   -1.1556 C   0  0  0  0  0  0  0  0  0  0  0  0
   -3.8685   -1.2486   -2.7149 S   0  0  0  0  0  0  0  0  0  0  0  0
   -4.2739   -1.8279    2.5609 C   0  0  0  0  0  0  0  0  0  0  0  0
   -3.1336   -2.6852    2.8768 N   0  0  0  0  0  0  0  0  0  0  0  0
    3.5081    1.2278    0.0788 H   0  0  0  0  0  0  0  0  0  0  0  0
    1.3349   -2.4612   -0.0803 H   0  0  0  0  0  0  0  0  0  0  0  0
   -1.0399    2.4563   -0.3848 H   0  0  0  0  0  0  0  0  0  0  0  0
   -1.2819    1.8364    1.2560 H   0  0  0  0  0  0  0  0  0  0  0  0
   -2.2850    0.6918   -1.3720 H   0  0  0  0  0  0  0  0  0  0  0  0
   -3.2673    1.3529   -0.0698 H   0  0  0  0  0  0  0  0  0  0  0  0
   -2.3795   -0.4344    1.4510 H   0  0  0  0  0  0  0  0  0  0  0  0
   -1.1401   -2.3186    0.6558 H   0  0  0  0  0  0  0  0  0  0  0  0
   -1.3045   -1.8457   -1.0323 H   0  0  0  0  0  0  0  0  0  0  0  0
   -6.5701   -2.6791    0.9667 H   0  0  0  0  0  0  0  0  0  0  0  0
   -6.2836   -2.3373   -1.5298 H   0  0  0  0  0  0  0  0  0  0  0  0
   -4.0868   -0.8149    2.9315 H   0  0  0  0  0  0  0  0  0  0  0  0
   -5.1471   -2.2038    3.1084 H   0  0  0  0  0  0  0  0  0  0  0  0
   -3.0348   -2.7467    3.8890 H   0  0  0  0  0  0  0  0  0  0  0  0
   -3.3360   -3.6330    2.5585 H   0  0  0  0  0  0  0  0  0  0  0  0
  1  2  2  0  0  0  0
  1 12  1  0  0  0  0
  2  3  1  0  0  0  0
  2 21  1  0  0  0  0
  3  4  2  0  0  0  0
  3 11  1  0  0  0  0
  4  5  1  0  0  0  0
  4  7  1  0  0  0  0
  5  6  2  0  0  0  0
  6  1  1  0  0  0  0
  6 22  1  0  0  0  0
  7  8  1  0  0  0  0
  7 23  1  0  0  0  0
  7 24  1  0  0  0  0
  8 25  1  0  0  0  0
  8 26  1  0  0  0  0
  9  8  1  0  0  0  0
  9 10  1  0  0  0  0
  9 27  1  1  0  0  0
  9 13  1  0  0  0  0
 10  5  1  0  0  0  0
 10 28  1  0  0  0  0
 10 29  1  0  0  0  0
 13 14  1  0  0  0  0
 14 15  2  0  0  0  0
 14 19  1  0  0  0  0
 15 16  1  0  0  0  0
 15 30  1  0  0  0  0
 16 17  1  0  0  0  0
 16 31  1  0  0  0  0
 17 13  1  0  0  0  0
 17 18  2  0  0  0  0
 19 20  1  0  0  0  0
 19 32  1  0  0  0  0
 19 33  1  0  0  0  0
 20 34  1  0  0  0  0
 20 35  1  0  0  0  0
M  END
>  <Mol_ID>
1452

>  <Formula>
C14H16ClF2N3S

>  <MolWeight>
331.8117464

>  <Cat>
S4926

>  <Name>
(R)-Nepicastat HCl

>  <Synonyms>
RS-25560-198 HCl

>  <Target>
Hydroxylase

>  <Form>
Hydrochloride

>  <CAS>
195881-94-8

>  <URL>
http://selleckchem.com/products/r-nepicastat-hcl.html

$$$$
