(R)-Serine
 OpenBabel08302521383D

 14 13  0  0  0  0  0  0  0  0999 V2000
    1.0128    0.0828    0.1291 C   0  0  1  0  0  0  0  0  0  0  0  0
    0.5798    1.2465    1.0274 C   0  0  0  0  0  0  0  0  0  0  0  0
    0.3935   -1.2339    0.6048 C   0  0  0  0  0  0  0  0  0  0  0  0
    0.6100    0.4089   -1.2774 N   0  0  0  0  0  0  0  0  0  0  0  0
    0.4530    2.3934    0.3141 O   0  0  0  0  0  0  0  0  0  0  0  0
    0.3776    1.1699    2.2302 O   0  0  0  0  0  0  0  0  0  0  0  0
   -1.0173   -1.2386    0.3671 O   0  0  0  0  0  0  0  0  0  0  0  0
    2.1065    0.0310    0.1766 H   0  0  0  0  0  0  0  0  0  0  0  0
    0.8170   -2.0712    0.0396 H   0  0  0  0  0  0  0  0  0  0  0  0
    0.5759   -1.4189    1.6679 H   0  0  0  0  0  0  0  0  0  0  0  0
    0.9672   -0.3395   -1.8797 H   0  0  0  0  0  0  0  0  0  0  0  0
   -0.4089    0.2424   -1.3163 H   0  0  0  0  0  0  0  0  0  0  0  0
    0.6095    2.1438   -0.6328 H   0  0  0  0  0  0  0  0  0  0  0  0
   -1.4315   -0.7890    1.1300 H   0  0  0  0  0  0  0  0  0  0  0  0
  1  4  1  0  0  0  0
  1  8  1  1  0  0  0
  1  3  1  0  0  0  0
  1  2  1  0  0  0  0
  2  5  1  0  0  0  0
  2  6  2  0  0  0  0
  3  7  1  0  0  0  0
  3  9  1  0  0  0  0
  3 10  1  0  0  0  0
  4 11  1  0  0  0  0
  4 12  1  0  0  0  0
  5 13  1  0  0  0  0
  7 14  1  0  0  0  0
M  END
>  <Mol_ID>
7915

>  <Formula>
C3H7NO3

>  <MolWeight>
105.09258

>  <Cat>
S6224

>  <Name>
(R)-Serine

>  <Synonyms>
N/A

>  <Target>
NMDAR

>  <Form>
free base

>  <CAS>
312-84-5

>  <URL>
http://www.selleck.cn/products/r-serine.html

$$$$
