R1530
 OpenBabel08302521353D

 39 42  0  0  0  0  0  0  0  0999 V2000
   -2.7924    1.0719   -0.9186 N   0  0  0  0  0  0  0  0  0  0  0  0
   -2.3610    0.5319    0.1815 C   0  0  0  0  0  0  0  0  0  0  0  0
   -2.8894   -0.7423    0.8018 C   0  0  0  0  0  0  0  0  0  0  0  0
   -2.8533   -1.9404    0.1412 N   0  0  0  0  0  0  0  0  0  0  0  0
   -3.1389   -1.9203   -1.1209 C   0  0  0  0  0  0  0  0  0  0  0  0
   -4.0410   -0.9280   -1.7564 C   0  0  0  0  0  0  0  0  0  0  0  0
   -3.8941    0.4601   -1.5693 C   0  0  0  0  0  0  0  0  0  0  0  0
   -5.1681   -1.4635   -2.3765 C   0  0  0  0  0  0  0  0  0  0  0  0
   -6.1779   -0.6167   -2.7944 C   0  0  0  0  0  0  0  0  0  0  0  0
   -6.0864    0.7647   -2.6190 C   0  0  0  0  0  0  0  0  0  0  0  0
   -4.9309    1.2989   -2.0298 C   0  0  0  0  0  0  0  0  0  0  0  0
   -1.6451    0.4867    2.2871 N   0  0  0  0  0  0  0  0  0  0  0  0
   -1.4245    1.0825    1.0463 N   0  0  0  0  0  0  0  0  0  0  0  0
   -2.5278   -0.5978    2.0929 C   0  0  0  0  0  0  0  0  0  0  0  0
   -2.8315   -1.5651    3.1788 C   0  0  0  0  0  0  0  0  0  0  0  0
   -7.1866    1.4571   -3.0390 O   0  0  0  0  0  0  0  0  0  0  0  0
   -7.2276    2.8546   -2.8048 C   0  0  0  0  0  0  0  0  0  0  0  0
   -7.2777   -1.1619   -3.3331 F   0  0  0  0  0  0  0  0  0  0  0  0
   -2.5494   -3.0001   -1.9558 C   0  0  0  0  0  0  0  0  0  0  0  0
   -2.3392   -4.2606   -1.3859 C   0  0  0  0  0  0  0  0  0  0  0  0
   -1.6538   -5.2364   -2.1057 C   0  0  0  0  0  0  0  0  0  0  0  0
   -1.1724   -4.9523   -3.3856 C   0  0  0  0  0  0  0  0  0  0  0  0
   -1.3779   -3.6934   -3.9518 C   0  0  0  0  0  0  0  0  0  0  0  0
   -2.0610   -2.7105   -3.2364 C   0  0  0  0  0  0  0  0  0  0  0  0
   -5.3059   -2.5353   -2.4769 H   0  0  0  0  0  0  0  0  0  0  0  0
   -4.8240    2.3690   -1.8759 H   0  0  0  0  0  0  0  0  0  0  0  0
   -0.7825    0.1312    2.7196 H   0  0  0  0  0  0  0  0  0  0  0  0
   -1.3231    2.0911    0.9951 H   0  0  0  0  0  0  0  0  0  0  0  0
   -3.6173   -2.2656    2.8717 H   0  0  0  0  0  0  0  0  0  0  0  0
   -1.9497   -2.1339    3.4782 H   0  0  0  0  0  0  0  0  0  0  0  0
   -3.2209   -1.0251    4.0496 H   0  0  0  0  0  0  0  0  0  0  0  0
   -7.1552    3.0856   -1.7375 H   0  0  0  0  0  0  0  0  0  0  0  0
   -6.4514    3.3672   -3.3793 H   0  0  0  0  0  0  0  0  0  0  0  0
   -8.1995    3.2155   -3.1572 H   0  0  0  0  0  0  0  0  0  0  0  0
   -2.6810   -4.4776   -0.3765 H   0  0  0  0  0  0  0  0  0  0  0  0
   -1.4760   -6.2109   -1.6599 H   0  0  0  0  0  0  0  0  0  0  0  0
   -0.6165   -5.7085   -3.9348 H   0  0  0  0  0  0  0  0  0  0  0  0
   -0.9687   -3.4639   -4.9333 H   0  0  0  0  0  0  0  0  0  0  0  0
   -2.1612   -1.7157   -3.6650 H   0  0  0  0  0  0  0  0  0  0  0  0
  1  2  2  0  0  0  0
  1  7  1  0  0  0  0
  2  3  1  0  0  0  0
  3  4  1  0  0  0  0
  4  5  2  0  0  0  0
  5  6  1  0  0  0  0
  5 19  1  0  0  0  0
  6  7  2  0  0  0  0
  8  9  2  0  0  0  0
  8  6  1  0  0  0  0
  8 25  1  0  0  0  0
  9 10  1  0  0  0  0
  9 18  1  0  0  0  0
 10 11  2  0  0  0  0
 10 16  1  0  0  0  0
 11  7  1  0  0  0  0
 11 26  1  0  0  0  0
 12 13  1  0  0  0  0
 12 14  1  0  0  0  0
 12 27  1  0  0  0  0
 13  2  1  0  0  0  0
 13 28  1  0  0  0  0
 14  3  2  0  0  0  0
 14 15  1  0  0  0  0
 15 29  1  0  0  0  0
 15 30  1  0  0  0  0
 15 31  1  0  0  0  0
 16 17  1  0  0  0  0
 17 32  1  0  0  0  0
 17 33  1  0  0  0  0
 17 34  1  0  0  0  0
 19 20  2  0  0  0  0
 19 24  1  0  0  0  0
 20 21  1  0  0  0  0
 20 35  1  0  0  0  0
 21 22  2  0  0  0  0
 21 36  1  0  0  0  0
 22 23  1  0  0  0  0
 22 37  1  0  0  0  0
 23 24  2  0  0  0  0
 23 38  1  0  0  0  0
 24 39  1  0  0  0  0
M  END
>  <Mol_ID>
6861

>  <Formula>
C18H14ClFN4O

>  <MolWeight>
356.7813632

>  <Cat>
E2656

>  <Name>
R1530

>  <Target>
FGFR,VEGFR

>  <Form>
Free base

>  <CAS>
882531-87-5

>  <URL>
http://www.selleckchem.com/products/r1530.html

$$$$
