R406 free base.cdx
 OpenBabel08302520013D

 57 60  0  0  0  0  0  0  0  0999 V2000
    1.1892   -0.8276   -1.1187 C   0  0  0  0  0  0  0  0  0  0  0  0
    0.4933   -1.3115    0.0093 C   0  0  0  0  0  0  0  0  0  0  0  0
   -0.8172   -0.8794    0.2583 C   0  0  0  0  0  0  0  0  0  0  0  0
   -1.4147    0.1254   -0.5097 C   0  0  0  0  0  0  0  0  0  0  0  0
   -0.6803    0.6489   -1.5733 C   0  0  0  0  0  0  0  0  0  0  0  0
    0.6058    0.1904   -1.8873 C   0  0  0  0  0  0  0  0  0  0  0  0
    2.4743   -1.2086   -1.4072 O   0  0  0  0  0  0  0  0  0  0  0  0
    2.6711   -2.6175   -1.5309 C   0  0  0  0  0  0  0  0  0  0  0  0
    1.1523   -2.1816    0.8479 O   0  0  0  0  0  0  0  0  0  0  0  0
    0.6425   -2.2875    2.1747 C   0  0  0  0  0  0  0  0  0  0  0  0
    1.1786    0.9120   -2.9032 O   0  0  0  0  0  0  0  0  0  0  0  0
    2.0271    0.2136   -3.7984 C   0  0  0  0  0  0  0  0  0  0  0  0
   -2.7054    0.5585   -0.1673 N   0  0  0  0  0  0  0  0  0  0  0  0
   -3.3006    1.7997   -0.3592 C   0  0  0  0  0  0  0  0  0  0  0  0
   -2.8746    2.6353   -1.3234 N   0  0  0  0  0  0  0  0  0  0  0  0
   -3.3960    3.8706   -1.3781 C   0  0  0  0  0  0  0  0  0  0  0  0
   -4.3327    4.2947   -0.4557 C   0  0  0  0  0  0  0  0  0  0  0  0
   -4.7454    3.3704    0.4645 C   0  0  0  0  0  0  0  0  0  0  0  0
   -4.2584    2.1145    0.5258 N   0  0  0  0  0  0  0  0  0  0  0  0
   -4.7937    5.5488   -0.3926 F   0  0  0  0  0  0  0  0  0  0  0  0
   -2.8845    4.7124   -2.3782 N   0  0  0  0  0  0  0  0  0  0  0  0
   -3.6445    5.6555   -3.0803 C   0  0  0  0  0  0  0  0  0  0  0  0
   -4.9865    5.5227   -3.1015 N   0  0  0  0  0  0  0  0  0  0  0  0
   -5.7005    6.4797   -3.7073 C   0  0  0  0  0  0  0  0  0  0  0  0
   -5.1375    7.5796   -4.3444 C   0  0  0  0  0  0  0  0  0  0  0  0
   -3.7586    7.7164   -4.3125 C   0  0  0  0  0  0  0  0  0  0  0  0
   -2.9975    6.7299   -3.6861 C   0  0  0  0  0  0  0  0  0  0  0  0
   -7.0776    6.3722   -3.6051 N   0  0  0  0  0  0  0  0  0  0  0  0
   -7.9044    7.2932   -4.1815 C   0  0  0  0  0  0  0  0  0  0  0  0
   -7.2172    8.1543   -5.2686 C   0  0  0  0  0  0  0  0  0  0  0  0
   -5.8702    8.5538   -4.9647 O   0  0  0  0  0  0  0  0  0  0  0  0
   -7.2012    7.3396   -6.5749 C   0  0  0  0  0  0  0  0  0  0  0  0
   -8.0180    9.4385   -5.4905 C   0  0  0  0  0  0  0  0  0  0  0  0
   -9.1033    7.3304   -3.9193 O   0  0  0  0  0  0  0  0  0  0  0  0
   -1.3857   -1.2922    1.0845 H   0  0  0  0  0  0  0  0  0  0  0  0
   -1.0893    1.4366   -2.1963 H   0  0  0  0  0  0  0  0  0  0  0  0
    1.8561   -3.2421   -1.1530 H   0  0  0  0  0  0  0  0  0  0  0  0
    2.8104   -2.8615   -2.5889 H   0  0  0  0  0  0  0  0  0  0  0  0
    3.5913   -2.8779   -0.9986 H   0  0  0  0  0  0  0  0  0  0  0  0
    0.4660   -1.3026    2.6226 H   0  0  0  0  0  0  0  0  0  0  0  0
   -0.2697   -2.8926    2.1864 H   0  0  0  0  0  0  0  0  0  0  0  0
    1.3903   -2.7990    2.7854 H   0  0  0  0  0  0  0  0  0  0  0  0
    3.0436    0.1522   -3.4041 H   0  0  0  0  0  0  0  0  0  0  0  0
    1.6290   -0.7702   -4.0599 H   0  0  0  0  0  0  0  0  0  0  0  0
    2.0749    0.8054   -4.7218 H   0  0  0  0  0  0  0  0  0  0  0  0
   -3.0915    0.1710    0.6856 H   0  0  0  0  0  0  0  0  0  0  0  0
   -5.4903    3.6273    1.2075 H   0  0  0  0  0  0  0  0  0  0  0  0
   -2.2489    4.1936   -2.9719 H   0  0  0  0  0  0  0  0  0  0  0  0
   -3.2793    8.5877   -4.7481 H   0  0  0  0  0  0  0  0  0  0  0  0
   -1.9185    6.8306   -3.6215 H   0  0  0  0  0  0  0  0  0  0  0  0
   -7.4493    5.6799   -2.9720 H   0  0  0  0  0  0  0  0  0  0  0  0
   -8.2135    7.0512   -6.8777 H   0  0  0  0  0  0  0  0  0  0  0  0
   -6.7355    7.9098   -7.3859 H   0  0  0  0  0  0  0  0  0  0  0  0
   -6.6182    6.4172   -6.4708 H   0  0  0  0  0  0  0  0  0  0  0  0
   -8.0264   10.0510   -4.5818 H   0  0  0  0  0  0  0  0  0  0  0  0
   -7.5636   10.0494   -6.2787 H   0  0  0  0  0  0  0  0  0  0  0  0
   -9.0565    9.2304   -5.7697 H   0  0  0  0  0  0  0  0  0  0  0  0
  1  2  2  0  0  0  0
  1  7  1  0  0  0  0
  2  3  1  0  0  0  0
  2  9  1  0  0  0  0
  3  4  2  0  0  0  0
  3 35  1  0  0  0  0
  4  5  1  0  0  0  0
  4 13  1  0  0  0  0
  5  6  2  0  0  0  0
  5 36  1  0  0  0  0
  6  1  1  0  0  0  0
  6 11  1  0  0  0  0
  7  8  1  0  0  0  0
  8 37  1  0  0  0  0
  8 38  1  0  0  0  0
  8 39  1  0  0  0  0
  9 10  1  0  0  0  0
 10 40  1  0  0  0  0
 10 41  1  0  0  0  0
 10 42  1  0  0  0  0
 11 12  1  0  0  0  0
 12 43  1  0  0  0  0
 12 44  1  0  0  0  0
 12 45  1  0  0  0  0
 13 14  1  0  0  0  0
 13 46  1  0  0  0  0
 14 15  2  0  0  0  0
 15 16  1  0  0  0  0
 16 17  2  0  0  0  0
 16 21  1  0  0  0  0
 17 18  1  0  0  0  0
 17 20  1  0  0  0  0
 18 19  2  0  0  0  0
 18 47  1  0  0  0  0
 19 14  1  0  0  0  0
 21 22  1  0  0  0  0
 21 48  1  0  0  0  0
 22 23  2  0  0  0  0
 23 24  1  0  0  0  0
 24 25  2  0  0  0  0
 24 28  1  0  0  0  0
 25 26  1  0  0  0  0
 26 27  2  0  0  0  0
 26 49  1  0  0  0  0
 27 22  1  0  0  0  0
 27 50  1  0  0  0  0
 28 29  1  0  0  0  0
 28 51  1  0  0  0  0
 29 30  1  0  0  0  0
 29 34  2  0  0  0  0
 30 31  1  0  0  0  0
 30 32  1  0  0  0  0
 30 33  1  0  0  0  0
 31 25  1  0  0  0  0
 32 52  1  0  0  0  0
 32 53  1  0  0  0  0
 32 54  1  0  0  0  0
 33 55  1  0  0  0  0
 33 56  1  0  0  0  0
 33 57  1  0  0  0  0
M  END
>  <Mol_ID>
313

>  <Formula>
C22H23FN6O5

>  <MolWeight>
470.4536232

>  <Cat>
S1533

>  <Name>
R406 (free base)

>  <Synonyms>
N/A

>  <Target>
Apoptosis related,FLT3,Syk

>  <Form>
free base

>  <CAS>
841290-80-0

>  <URL>
http://selleckchem.com/products/R406(free-base).html

$$$$
