(Rac)-IBT6A
 OpenBabel08302521353D

 51 55  0  0  0  0  0  0  0  0999 V2000
   -2.1212    0.6581    0.1112 C   0  0  0  0  0  0  0  0  0  0  0  0
   -1.0115    1.4160    0.0933 N   0  0  0  0  0  0  0  0  0  0  0  0
    0.0982    0.6574    0.0531 C   0  0  0  0  0  0  0  0  0  0  0  0
    0.1605   -0.7290    0.0411 C   0  0  0  0  0  0  0  0  0  0  0  0
   -1.0713   -1.4021    0.0907 C   0  0  0  0  0  0  0  0  0  0  0  0
   -2.2080   -0.6799    0.1194 N   0  0  0  0  0  0  0  0  0  0  0  0
    2.2960    0.0977   -0.0333 N   0  0  0  0  0  0  0  0  0  0  0  0
    1.3876    1.0997   -0.0337 N   0  0  0  0  0  0  0  0  0  0  0  0
    1.5620   -1.0303   -0.0433 C   0  0  0  0  0  0  0  0  0  0  0  0
   -1.2459   -2.7788    0.1077 N   0  0  0  0  0  0  0  0  0  0  0  0
    2.1852    4.7608    0.5475 N   0  0  0  0  0  0  0  0  0  0  0  0
    1.5397    3.4643    0.8274 C   0  0  0  0  0  0  0  0  0  0  0  0
    1.8419    2.4562   -0.2932 C   0  0  3  0  0  0  0  0  0  0  0  0
    1.3019    3.0008   -1.6211 C   0  0  0  0  0  0  0  0  0  0  0  0
    1.9403    4.3563   -1.9086 C   0  0  0  0  0  0  0  0  0  0  0  0
    1.7662    5.3275   -0.7379 C   0  0  0  0  0  0  0  0  0  0  0  0
    2.2240   -2.3414   -0.1075 C   0  0  0  0  0  0  0  0  0  0  0  0
    3.4760   -2.5430    0.4945 C   0  0  0  0  0  0  0  0  0  0  0  0
    4.0445   -3.8222    0.5465 C   0  0  0  0  0  0  0  0  0  0  0  0
    3.3355   -4.9237    0.0635 C   0  0  0  0  0  0  0  0  0  0  0  0
    2.1486   -4.7157   -0.6347 C   0  0  0  0  0  0  0  0  0  0  0  0
    1.6199   -3.4275   -0.7500 C   0  0  0  0  0  0  0  0  0  0  0  0
    3.7412   -6.2339    0.1654 O   0  0  0  0  0  0  0  0  0  0  0  0
    4.4862   -6.6441    1.2475 C   0  0  0  0  0  0  0  0  0  0  0  0
    4.3753   -6.1162    2.5373 C   0  0  0  0  0  0  0  0  0  0  0  0
    5.2380   -6.5492    3.5455 C   0  0  0  0  0  0  0  0  0  0  0  0
    6.1643   -7.5578    3.2853 C   0  0  0  0  0  0  0  0  0  0  0  0
    6.2141   -8.1501    2.0240 C   0  0  0  0  0  0  0  0  0  0  0  0
    5.3736   -7.6950    1.0073 C   0  0  0  0  0  0  0  0  0  0  0  0
   -3.0632    1.1984    0.1358 H   0  0  0  0  0  0  0  0  0  0  0  0
   -0.5541   -3.2893    0.6437 H   0  0  0  0  0  0  0  0  0  0  0  0
   -2.2106   -3.0094    0.3150 H   0  0  0  0  0  0  0  0  0  0  0  0
    1.9672    5.4206    1.2947 H   0  0  0  0  0  0  0  0  0  0  0  0
    0.4588    3.6149    0.9498 H   0  0  0  0  0  0  0  0  0  0  0  0
    1.9141    3.0877    1.7864 H   0  0  0  0  0  0  0  0  0  0  0  0
    2.9363    2.3814   -0.3817 H   0  0  0  0  0  0  0  0  0  0  0  0
    1.4992    2.3051   -2.4403 H   0  0  0  0  0  0  0  0  0  0  0  0
    0.2101    3.1290   -1.5698 H   0  0  0  0  0  0  0  0  0  0  0  0
    3.0085    4.2104   -2.1126 H   0  0  0  0  0  0  0  0  0  0  0  0
    1.4979    4.7864   -2.8143 H   0  0  0  0  0  0  0  0  0  0  0  0
    2.3681    6.2220   -0.9359 H   0  0  0  0  0  0  0  0  0  0  0  0
    0.7216    5.6531   -0.6756 H   0  0  0  0  0  0  0  0  0  0  0  0
    4.0133   -1.7072    0.9413 H   0  0  0  0  0  0  0  0  0  0  0  0
    5.0243   -3.9445    1.0007 H   0  0  0  0  0  0  0  0  0  0  0  0
    1.6191   -5.5559   -1.0772 H   0  0  0  0  0  0  0  0  0  0  0  0
    0.7155   -3.2939   -1.3384 H   0  0  0  0  0  0  0  0  0  0  0  0
    3.6410   -5.3501    2.7689 H   0  0  0  0  0  0  0  0  0  0  0  0
    5.1893   -6.0944    4.5315 H   0  0  0  0  0  0  0  0  0  0  0  0
    6.8410   -7.8887    4.0687 H   0  0  0  0  0  0  0  0  0  0  0  0
    6.9143   -8.9578    1.8285 H   0  0  0  0  0  0  0  0  0  0  0  0
    5.4187   -8.1522    0.0222 H   0  0  0  0  0  0  0  0  0  0  0  0
  1  2  2  0  0  0  0
  1  6  1  0  0  0  0
  1 30  1  0  0  0  0
  2  3  1  0  0  0  0
  3  4  2  0  0  0  0
  4  5  1  0  0  0  0
  5  6  2  0  0  0  0
  5 10  1  0  0  0  0
  7  8  1  0  0  0  0
  7  9  2  0  0  0  0
  8  3  1  0  0  0  0
  8 13  1  0  0  0  0
  9  4  1  0  0  0  0
  9 17  1  0  0  0  0
 10 31  1  0  0  0  0
 10 32  1  0  0  0  0
 11 12  1  0  0  0  0
 11 16  1  0  0  0  0
 11 33  1  0  0  0  0
 12 13  1  0  0  0  0
 12 34  1  0  0  0  0
 12 35  1  0  0  0  0
 13 14  1  0  0  0  0
 13 36  1  0  0  0  0
 14 15  1  0  0  0  0
 14 37  1  0  0  0  0
 14 38  1  0  0  0  0
 15 16  1  0  0  0  0
 15 39  1  0  0  0  0
 15 40  1  0  0  0  0
 16 41  1  0  0  0  0
 16 42  1  0  0  0  0
 17 18  2  0  0  0  0
 17 22  1  0  0  0  0
 18 19  1  0  0  0  0
 18 43  1  0  0  0  0
 19 20  2  0  0  0  0
 19 44  1  0  0  0  0
 20 21  1  0  0  0  0
 20 23  1  0  0  0  0
 21 22  2  0  0  0  0
 21 45  1  0  0  0  0
 22 46  1  0  0  0  0
 23 24  1  0  0  0  0
 24 25  2  0  0  0  0
 24 29  1  0  0  0  0
 25 26  1  0  0  0  0
 25 47  1  0  0  0  0
 26 27  2  0  0  0  0
 26 48  1  0  0  0  0
 27 28  1  0  0  0  0
 27 49  1  0  0  0  0
 28 29  2  0  0  0  0
 28 50  1  0  0  0  0
 29 51  1  0  0  0  0
M  END
>  <Mol_ID>
6847

>  <Formula>
C22H22N6O

>  <MolWeight>
386.44968

>  <Cat>
E2382

>  <Name>
(Rac)-IBT6A

>  <Synonyms>
BTK inhibitor 1

>  <Target>
Others

>  <Form>
Free base

>  <CAS>
1412418-47-3

>  <URL>
http://www.selleckchem.com/products/-rac--ibt6a.html

$$$$
