(Rac)-Norcantharidin
 OpenBabel08302521533D

 20 22  0  0  0  0  0  0  0  0999 V2000
    1.2010    0.0376    0.5943 O   0  0  0  0  0  0  0  0  0  0  0  0
    5.5130    1.2481    0.0980 O   0  0  0  0  0  0  0  0  0  0  0  0
    3.0498   -1.2894   -0.1669 C   0  0  3  0  0  0  0  0  0  0  0  0
    4.4661   -0.8489   -0.4606 C   0  0  3  0  0  0  0  0  0  0  0  0
    3.2353   -2.3204    0.9432 C   0  0  3  0  0  0  0  0  0  0  0  0
    2.3896   -0.0530    0.3322 C   0  0  0  0  0  0  0  0  0  0  0  0
    5.2800   -1.7937    0.4068 C   0  0  3  0  0  0  0  0  0  0  0  0
    4.5114    0.5494    0.0595 C   0  0  0  0  0  0  0  0  0  0  0  0
    4.4461   -1.8549    1.5902 O   0  0  0  0  0  0  0  0  0  0  0  0
    3.7545   -3.6324    0.3635 C   0  0  0  0  0  0  0  0  0  0  0  0
    3.2788    0.9599    0.4374 O   0  0  0  0  0  0  0  0  0  0  0  0
    5.1525   -3.2277   -0.1228 C   0  0  0  0  0  0  0  0  0  0  0  0
    2.5227   -1.6687   -1.0472 H   0  0  0  0  0  0  0  0  0  0  0  0
    4.7193   -0.8635   -1.5241 H   0  0  0  0  0  0  0  0  0  0  0  0
    2.4109   -2.4206    1.6531 H   0  0  0  0  0  0  0  0  0  0  0  0
    6.2980   -1.4724    0.6384 H   0  0  0  0  0  0  0  0  0  0  0  0
    3.1204   -4.0430   -0.4264 H   0  0  0  0  0  0  0  0  0  0  0  0
    3.8547   -4.3826    1.1572 H   0  0  0  0  0  0  0  0  0  0  0  0
    5.9062   -3.8853    0.3221 H   0  0  0  0  0  0  0  0  0  0  0  0
    5.2494   -3.2820   -1.2121 H   0  0  0  0  0  0  0  0  0  0  0  0
  1  6  2  0  0  0  0
  2  8  2  0  0  0  0
  3  4  1  0  0  0  0
  3  5  1  0  0  0  0
  3  6  1  0  0  0  0
  3 13  1  0  0  0  0
  4  7  1  0  0  0  0
  4  8  1  0  0  0  0
  4 14  1  0  0  0  0
  5  9  1  0  0  0  0
  5 10  1  0  0  0  0
  5 15  1  0  0  0  0
  6 11  1  0  0  0  0
  7  9  1  0  0  0  0
  7 12  1  0  0  0  0
  7 16  1  0  0  0  0
  8 11  1  0  0  0  0
 10 12  1  0  0  0  0
 10 17  1  0  0  0  0
 10 18  1  0  0  0  0
 12 19  1  0  0  0  0
 12 20  1  0  0  0  0
M  END
>  <Mol_ID>
9969

>  <Formula>
C8H8O4

>  <MolWeight>
168.14672

>  <Cat>
E5265

>  <Name>
(Rac)-Norcantharidin

>  <Synonyms>
NA

>  <Target>
c-Met

>  <Form>
Free Base

>  <CAS>
5442-12-6

>  <URL>
https://www.selleckchem.com/products/rac-norcantharidin.html

$$$$
