Racecadotril.cdx
 OpenBabel08302521383D

 50 51  0  0  0  0  0  0  0  0999 V2000
   -7.7645   -2.7554    9.0073 C   0  0  0  0  0  0  0  0  0  0  0  0
   -7.1075   -1.5316    9.0615 C   0  0  0  0  0  0  0  0  0  0  0  0
   -6.3941   -1.0692    7.9494 C   0  0  0  0  0  0  0  0  0  0  0  0
   -6.3237   -1.8365    6.7734 C   0  0  0  0  0  0  0  0  0  0  0  0
   -7.0089   -3.0564    6.7286 C   0  0  0  0  0  0  0  0  0  0  0  0
   -7.7231   -3.5152    7.8396 C   0  0  0  0  0  0  0  0  0  0  0  0
   -5.5811   -1.3366    5.5550 C   0  0  0  0  0  0  0  0  0  0  0  0
   -4.4340   -2.1436    5.2343 O   0  0  0  0  0  0  0  0  0  0  0  0
   -4.4491   -2.7642    4.0192 C   0  0  0  0  0  0  0  0  0  0  0  0
   -3.0475   -3.1498    3.5465 C   0  0  0  0  0  0  0  0  0  0  0  0
   -5.4596   -2.9938    3.3638 O   0  0  0  0  0  0  0  0  0  0  0  0
   -2.0048   -2.7623    4.4798 N   0  0  0  0  0  0  0  0  0  0  0  0
   -1.3909   -1.5360    4.4073 C   0  0  0  0  0  0  0  0  0  0  0  0
   -0.2787   -1.2801    5.4328 C   0  0  3  0  0  0  0  0  0  0  0  0
   -1.7268   -0.6724    3.5953 O   0  0  0  0  0  0  0  0  0  0  0  0
   -0.8998   -0.6780    6.7059 C   0  0  0  0  0  0  0  0  0  0  0  0
    0.5589   -2.5574    5.6677 C   0  0  0  0  0  0  0  0  0  0  0  0
    0.3167   -0.3179    8.0275 S   0  0  0  0  0  0  0  0  0  0  0  0
   -0.7700    0.3357    9.2595 C   0  0  0  0  0  0  0  0  0  0  0  0
   -1.9741    0.3997    9.0897 O   0  0  0  0  0  0  0  0  0  0  0  0
   -0.0806    0.8448   10.4984 C   0  0  0  0  0  0  0  0  0  0  0  0
    1.1843   -3.0878    4.3937 C   0  0  0  0  0  0  0  0  0  0  0  0
    2.1040   -2.3121    3.6756 C   0  0  0  0  0  0  0  0  0  0  0  0
    2.6306   -2.7754    2.4697 C   0  0  0  0  0  0  0  0  0  0  0  0
    2.2453   -4.0176    1.9700 C   0  0  0  0  0  0  0  0  0  0  0  0
    1.3427   -4.8042    2.6813 C   0  0  0  0  0  0  0  0  0  0  0  0
    0.8193   -4.3450    3.8905 C   0  0  0  0  0  0  0  0  0  0  0  0
   -8.3179   -3.1184    9.8725 H   0  0  0  0  0  0  0  0  0  0  0  0
   -7.1498   -0.9319    9.9697 H   0  0  0  0  0  0  0  0  0  0  0  0
   -5.9006   -0.1010    8.0117 H   0  0  0  0  0  0  0  0  0  0  0  0
   -6.9990   -3.6534    5.8180 H   0  0  0  0  0  0  0  0  0  0  0  0
   -8.2491   -4.4659    7.7909 H   0  0  0  0  0  0  0  0  0  0  0  0
   -6.2736   -1.2345    4.7119 H   0  0  0  0  0  0  0  0  0  0  0  0
   -5.1876   -0.3330    5.7523 H   0  0  0  0  0  0  0  0  0  0  0  0
   -2.9888   -4.2372    3.4387 H   0  0  0  0  0  0  0  0  0  0  0  0
   -2.8488   -2.6814    2.5776 H   0  0  0  0  0  0  0  0  0  0  0  0
   -1.8984   -3.3368    5.3023 H   0  0  0  0  0  0  0  0  0  0  0  0
    0.3721   -0.5157    4.9857 H   0  0  0  0  0  0  0  0  0  0  0  0
   -1.3858    0.2710    6.4478 H   0  0  0  0  0  0  0  0  0  0  0  0
   -1.6710   -1.3439    7.1068 H   0  0  0  0  0  0  0  0  0  0  0  0
    1.3668   -2.3798    6.3836 H   0  0  0  0  0  0  0  0  0  0  0  0
   -0.0612   -3.3384    6.1253 H   0  0  0  0  0  0  0  0  0  0  0  0
    0.7147    0.1677   10.8211 H   0  0  0  0  0  0  0  0  0  0  0  0
    0.3290    1.8410   10.3112 H   0  0  0  0  0  0  0  0  0  0  0  0
   -0.8109    0.9106   11.3109 H   0  0  0  0  0  0  0  0  0  0  0  0
    2.4029   -1.3311    4.0378 H   0  0  0  0  0  0  0  0  0  0  0  0
    3.3332   -2.1602    1.9143 H   0  0  0  0  0  0  0  0  0  0  0  0
    2.6448   -4.3694    1.0226 H   0  0  0  0  0  0  0  0  0  0  0  0
    1.0384   -5.7711    2.2897 H   0  0  0  0  0  0  0  0  0  0  0  0
    0.1047   -4.9689    4.4212 H   0  0  0  0  0  0  0  0  0  0  0  0
  1  2  2  0  0  0  0
  1 28  1  0  0  0  0
  2  3  1  0  0  0  0
  2 29  1  0  0  0  0
  3  4  2  0  0  0  0
  3 30  1  0  0  0  0
  4  5  1  0  0  0  0
  4  7  1  0  0  0  0
  5  6  2  0  0  0  0
  5 31  1  0  0  0  0
  6  1  1  0  0  0  0
  6 32  1  0  0  0  0
  7  8  1  0  0  0  0
  7 33  1  0  0  0  0
  7 34  1  0  0  0  0
  8  9  1  0  0  0  0
  9 10  1  0  0  0  0
  9 11  2  0  0  0  0
 10 12  1  0  0  0  0
 10 35  1  0  0  0  0
 10 36  1  0  0  0  0
 12 13  1  0  0  0  0
 12 37  1  0  0  0  0
 13 14  1  0  0  0  0
 13 15  2  0  0  0  0
 14 16  1  0  0  0  0
 14 17  1  0  0  0  0
 14 38  1  0  0  0  0
 16 18  1  0  0  0  0
 16 39  1  0  0  0  0
 16 40  1  0  0  0  0
 17 22  1  0  0  0  0
 17 41  1  0  0  0  0
 17 42  1  0  0  0  0
 18 19  1  0  0  0  0
 19 20  2  0  0  0  0
 19 21  1  0  0  0  0
 21 43  1  0  0  0  0
 21 44  1  0  0  0  0
 21 45  1  0  0  0  0
 22 23  2  0  0  0  0
 23 24  1  0  0  0  0
 23 46  1  0  0  0  0
 24 25  2  0  0  0  0
 24 47  1  0  0  0  0
 25 26  1  0  0  0  0
 25 48  1  0  0  0  0
 26 27  2  0  0  0  0
 26 49  1  0  0  0  0
 27 22  1  0  0  0  0
 27 50  1  0  0  0  0
M  END
>  <Mol_ID>
771

>  <Formula>
C21H23NO4S

>  <MolWeight>
385.47662

>  <Cat>
S2503

>  <Name>
Racecadotril

>  <Synonyms>
Acetorphan

>  <Target>
Opioid Receptor

>  <Form>
free base

>  <CAS>
81110-73-8

>  <URL>
http://selleckchem.com/products/Racecadotril(Acetorphan).html

$$$$
