Raclopride
 OpenBabel08302521323D

 42 43  0  0  0  0  0  0  0  0999 V2000
    1.5486    0.4534   -0.6808 C   0  0  0  0  0  0  0  0  0  0  0  0
    0.7578   -0.3296   -1.6863 C   0  0  0  0  0  0  0  0  0  0  0  0
    1.2526   -1.6084   -2.0501 C   0  0  0  0  0  0  0  0  0  0  0  0
    0.5491   -2.4683   -2.8881 C   0  0  0  0  0  0  0  0  0  0  0  0
   -0.6487   -2.0503   -3.4428 C   0  0  0  0  0  0  0  0  0  0  0  0
   -1.1076   -0.7618   -3.1791 C   0  0  0  0  0  0  0  0  0  0  0  0
   -0.4219    0.1140   -2.3111 C   0  0  0  0  0  0  0  0  0  0  0  0
    1.7034    1.6627   -0.7607 O   0  0  0  0  0  0  0  0  0  0  0  0
    2.1328   -0.3131    0.3196 N   0  0  0  0  0  0  0  0  0  0  0  0
   -1.0198    1.3422   -2.2958 O   0  0  0  0  0  0  0  0  0  0  0  0
   -1.0822    2.0781   -1.0872 C   0  0  0  0  0  0  0  0  0  0  0  0
    2.4786   -2.0832   -1.6370 O   0  0  0  0  0  0  0  0  0  0  0  0
    3.0474    0.2122    1.3282 C   0  0  0  0  0  0  0  0  0  0  0  0
    3.2805    0.6282    3.8881 N   0  0  0  0  0  0  0  0  0  0  0  0
    2.4114    0.2755    2.7309 C   0  0  1  0  0  0  0  0  0  0  0  0
    1.2541    1.2611    2.8227 C   0  0  0  0  0  0  0  0  0  0  0  0
    1.0406    1.4330    4.3177 C   0  0  0  0  0  0  0  0  0  0  0  0
    2.3189    0.9141    4.9699 C   0  0  0  0  0  0  0  0  0  0  0  0
    4.1972    1.7502    3.6239 C   0  0  0  0  0  0  0  0  0  0  0  0
    5.1086    2.0912    4.8041 C   0  0  0  0  0  0  0  0  0  0  0  0
    0.9512   -3.4501   -3.1244 H   0  0  0  0  0  0  0  0  0  0  0  0
   -1.2076   -2.7082   -4.1026 H   0  0  0  0  0  0  0  0  0  0  0  0
   -2.0260   -0.4234   -3.6588 H   0  0  0  0  0  0  0  0  0  0  0  0
    1.9239   -1.3068    0.3578 H   0  0  0  0  0  0  0  0  0  0  0  0
   -1.0010    1.4519   -0.1936 H   0  0  0  0  0  0  0  0  0  0  0  0
   -0.3319    2.8717   -1.1015 H   0  0  0  0  0  0  0  0  0  0  0  0
   -2.0595    2.5732   -1.0610 H   0  0  0  0  0  0  0  0  0  0  0  0
    3.0562   -1.3164   -1.4528 H   0  0  0  0  0  0  0  0  0  0  0  0
    3.8952   -0.4831    1.3501 H   0  0  0  0  0  0  0  0  0  0  0  0
    3.4190    1.1885    1.0041 H   0  0  0  0  0  0  0  0  0  0  0  0
    2.0142   -0.7288    2.9431 H   0  0  0  0  0  0  0  0  0  0  0  0
    1.5165    2.2275    2.3693 H   0  0  0  0  0  0  0  0  0  0  0  0
    0.3499    0.8957    2.3271 H   0  0  0  0  0  0  0  0  0  0  0  0
    0.8538    2.4827    4.5639 H   0  0  0  0  0  0  0  0  0  0  0  0
    0.1815    0.8421    4.6526 H   0  0  0  0  0  0  0  0  0  0  0  0
    2.6785    1.6011    5.7403 H   0  0  0  0  0  0  0  0  0  0  0  0
    2.1022   -0.0274    5.4886 H   0  0  0  0  0  0  0  0  0  0  0  0
    4.8655    1.4702    2.8013 H   0  0  0  0  0  0  0  0  0  0  0  0
    3.6605    2.6544    3.3149 H   0  0  0  0  0  0  0  0  0  0  0  0
    5.6117    1.1997    5.1926 H   0  0  0  0  0  0  0  0  0  0  0  0
    5.8813    2.7985    4.4842 H   0  0  0  0  0  0  0  0  0  0  0  0
    4.5630    2.5660    5.6251 H   0  0  0  0  0  0  0  0  0  0  0  0
  1  2  1  0  0  0  0
  1  8  2  0  0  0  0
  1  9  1  0  0  0  0
  2  3  2  0  0  0  0
  2  7  1  0  0  0  0
  3  4  1  0  0  0  0
  3 12  1  0  0  0  0
  4  5  2  0  0  0  0
  4 21  1  0  0  0  0
  5  6  1  0  0  0  0
  5 22  1  0  0  0  0
  6  7  2  0  0  0  0
  6 23  1  0  0  0  0
  7 10  1  0  0  0  0
  9 13  1  0  0  0  0
  9 24  1  0  0  0  0
 10 11  1  0  0  0  0
 11 25  1  0  0  0  0
 11 26  1  0  0  0  0
 11 27  1  0  0  0  0
 12 28  1  0  0  0  0
 13 29  1  0  0  0  0
 13 30  1  0  0  0  0
 14 15  1  0  0  0  0
 14 18  1  0  0  0  0
 14 19  1  0  0  0  0
 15 16  1  0  0  0  0
 15 13  1  0  0  0  0
 15 31  1  1  0  0  0
 16 17  1  0  0  0  0
 16 32  1  0  0  0  0
 16 33  1  0  0  0  0
 17 18  1  0  0  0  0
 17 34  1  0  0  0  0
 17 35  1  0  0  0  0
 18 36  1  0  0  0  0
 18 37  1  0  0  0  0
 19 20  1  0  0  0  0
 19 38  1  0  0  0  0
 19 39  1  0  0  0  0
 20 40  1  0  0  0  0
 20 41  1  0  0  0  0
 20 42  1  0  0  0  0
M  END
>  <Mol_ID>
6127

>  <Formula>
C15H20Cl2N2O3

>  <MolWeight>
347.2369

>  <Cat>
E0125

>  <Name>
Raclopride

>  <Target>
Dopamine Receptor

>  <Form>
free base

>  <CAS>
84225-95-6

>  <URL>
http://www.selleckchem.com/products/raclopride.html

$$$$
