ractopamine hydrochloride.cdx
 OpenBabel08302519583D

 45 46  0  0  0  0  0  0  0  0999 V2000
   -6.0384   -2.4082    1.1251 C   0  0  0  0  0  0  0  0  0  0  0  0
   -5.2900   -1.2485    0.9214 C   0  0  0  0  0  0  0  0  0  0  0  0
   -4.1043   -1.2821    0.1784 C   0  0  0  0  0  0  0  0  0  0  0  0
   -3.6957   -2.5026   -0.3841 C   0  0  0  0  0  0  0  0  0  0  0  0
   -4.4333   -3.6700   -0.1697 C   0  0  0  0  0  0  0  0  0  0  0  0
   -5.5979   -3.6132    0.5868 C   0  0  0  0  0  0  0  0  0  0  0  0
   -6.3451   -4.7287    0.8231 O   0  0  0  0  0  0  0  0  0  0  0  0
   -3.2995   -0.0146   -0.0210 C   0  0  3  0  0  0  0  0  0  0  0  0
   -1.8946   -0.2896   -0.1143 O   0  0  0  0  0  0  0  0  0  0  0  0
   -3.7464    0.8412   -1.2307 C   0  0  0  0  0  0  0  0  0  0  0  0
   -3.5432    0.1926   -2.5390 N   0  0  0  0  0  0  0  0  0  0  0  0
   -3.9653    1.0325   -3.6693 C   0  0  3  0  0  0  0  0  0  0  0  0
   -3.0467    2.2621   -3.8585 C   0  0  0  0  0  0  0  0  0  0  0  0
   -3.4634    3.1416   -5.0372 C   0  0  0  0  0  0  0  0  0  0  0  0
   -2.6443    4.4045   -5.1569 C   0  0  0  0  0  0  0  0  0  0  0  0
   -1.4505    4.4064   -5.8928 C   0  0  0  0  0  0  0  0  0  0  0  0
   -0.7637    5.5996   -6.1261 C   0  0  0  0  0  0  0  0  0  0  0  0
   -1.2631    6.7886   -5.6057 C   0  0  0  0  0  0  0  0  0  0  0  0
   -2.3999    6.7940   -4.8075 C   0  0  0  0  0  0  0  0  0  0  0  0
   -3.0902    5.6022   -4.5801 C   0  0  0  0  0  0  0  0  0  0  0  0
   -0.6699    7.9849   -5.8807 O   0  0  0  0  0  0  0  0  0  0  0  0
   -3.9983    0.1425   -4.9172 C   0  0  0  0  0  0  0  0  0  0  0  0
   -6.9567   -2.3792    1.7043 H   0  0  0  0  0  0  0  0  0  0  0  0
   -5.6507   -0.3117    1.3479 H   0  0  0  0  0  0  0  0  0  0  0  0
   -2.7951   -2.5507   -0.9932 H   0  0  0  0  0  0  0  0  0  0  0  0
   -4.0886   -4.6015   -0.6069 H   0  0  0  0  0  0  0  0  0  0  0  0
   -5.9146   -5.4822    0.3888 H   0  0  0  0  0  0  0  0  0  0  0  0
   -3.4115    0.6015    0.8802 H   0  0  0  0  0  0  0  0  0  0  0  0
   -1.7056   -0.9661    0.5576 H   0  0  0  0  0  0  0  0  0  0  0  0
   -4.8018    1.1127   -1.1153 H   0  0  0  0  0  0  0  0  0  0  0  0
   -3.1497    1.7582   -1.1925 H   0  0  0  0  0  0  0  0  0  0  0  0
   -2.5586   -0.0669   -2.6197 H   0  0  0  0  0  0  0  0  0  0  0  0
   -4.9937    1.3722   -3.4902 H   0  0  0  0  0  0  0  0  0  0  0  0
   -3.0688    2.8831   -2.9557 H   0  0  0  0  0  0  0  0  0  0  0  0
   -2.0066    1.9355   -3.9858 H   0  0  0  0  0  0  0  0  0  0  0  0
   -3.3744    2.5892   -5.9799 H   0  0  0  0  0  0  0  0  0  0  0  0
   -4.5232    3.4111   -4.9451 H   0  0  0  0  0  0  0  0  0  0  0  0
   -1.0667    3.4806   -6.3155 H   0  0  0  0  0  0  0  0  0  0  0  0
    0.1429    5.5841   -6.7224 H   0  0  0  0  0  0  0  0  0  0  0  0
   -2.7660    7.7280   -4.3906 H   0  0  0  0  0  0  0  0  0  0  0  0
   -3.9955    5.6220   -3.9781 H   0  0  0  0  0  0  0  0  0  0  0  0
   -0.0668    7.8564   -6.6315 H   0  0  0  0  0  0  0  0  0  0  0  0
   -4.5214   -0.8014   -4.7223 H   0  0  0  0  0  0  0  0  0  0  0  0
   -4.5410    0.6341   -5.7332 H   0  0  0  0  0  0  0  0  0  0  0  0
   -2.9903   -0.0957   -5.2733 H   0  0  0  0  0  0  0  0  0  0  0  0
  1  2  2  0  0  0  0
  1 23  1  0  0  0  0
  2  3  1  0  0  0  0
  2 24  1  0  0  0  0
  3  4  2  0  0  0  0
  3  8  1  0  0  0  0
  4  5  1  0  0  0  0
  4 25  1  0  0  0  0
  5  6  2  0  0  0  0
  5 26  1  0  0  0  0
  6  1  1  0  0  0  0
  6  7  1  0  0  0  0
  7 27  1  0  0  0  0
  8  9  1  0  0  0  0
  8 10  1  0  0  0  0
  8 28  1  0  0  0  0
  9 29  1  0  0  0  0
 10 11  1  0  0  0  0
 10 30  1  0  0  0  0
 10 31  1  0  0  0  0
 11 12  1  0  0  0  0
 11 32  1  0  0  0  0
 12 13  1  0  0  0  0
 12 22  1  0  0  0  0
 12 33  1  0  0  0  0
 13 14  1  0  0  0  0
 13 34  1  0  0  0  0
 13 35  1  0  0  0  0
 14 15  1  0  0  0  0
 14 36  1  0  0  0  0
 14 37  1  0  0  0  0
 15 16  2  0  0  0  0
 16 17  1  0  0  0  0
 16 38  1  0  0  0  0
 17 18  2  0  0  0  0
 17 39  1  0  0  0  0
 18 19  1  0  0  0  0
 18 21  1  0  0  0  0
 19 20  2  0  0  0  0
 19 40  1  0  0  0  0
 20 15  1  0  0  0  0
 20 41  1  0  0  0  0
 21 42  1  0  0  0  0
 22 43  1  0  0  0  0
 22 44  1  0  0  0  0
 22 45  1  0  0  0  0
M  END
>  <Mol_ID>
2311

>  <Formula>
C18H24ClNO3

>  <MolWeight>
337.84106

>  <Cat>
S4351

>  <Name>
Ractopamine HCl

>  <Synonyms>
N/A

>  <Target>
Others

>  <Form>
hydrochloride

>  <CAS>
90274-24-1

>  <URL>
http://www.selleckchem.com/products/ractopamine-hcl.html

$$$$
