RAD51 inhibitor RI-1.cdx
 OpenBabel08302520413D

 33 35  0  0  0  0  0  0  0  0999 V2000
    1.1762   -0.0509    0.6694 C   0  0  0  0  0  0  0  0  0  0  0  0
    0.3175   -1.1536    0.6880 C   0  0  0  0  0  0  0  0  0  0  0  0
   -0.9003   -1.1333   -0.0037 C   0  0  0  0  0  0  0  0  0  0  0  0
   -1.2336    0.0261   -0.7205 C   0  0  0  0  0  0  0  0  0  0  0  0
   -0.3902    1.1387   -0.7169 C   0  0  0  0  0  0  0  0  0  0  0  0
    0.8146    1.0973   -0.0228 C   0  0  0  0  0  0  0  0  0  0  0  0
   -1.7829   -2.2423    0.0428 N   0  0  0  0  0  0  0  0  0  0  0  0
   -2.7708   -2.5030   -0.8670 C   0  0  0  0  0  0  0  0  0  0  0  0
   -3.4750   -3.7487   -0.4137 C   0  0  0  0  0  0  0  0  0  0  0  0
   -2.8578   -4.1438    0.6980 C   0  0  0  0  0  0  0  0  0  0  0  0
   -1.7721   -3.2175    0.9932 C   0  0  0  0  0  0  0  0  0  0  0  0
   -1.0665   -3.3813    1.9763 O   0  0  0  0  0  0  0  0  0  0  0  0
   -3.0294   -1.9268   -1.9137 O   0  0  0  0  0  0  0  0  0  0  0  0
   -4.5352   -4.3395   -1.0772 N   0  0  0  0  0  0  0  0  0  0  0  0
   -4.7975   -5.7907   -1.0496 C   0  0  0  0  0  0  0  0  0  0  0  0
   -4.7711   -6.3583   -2.4796 C   0  0  0  0  0  0  0  0  0  0  0  0
   -5.6895   -5.6665   -3.3405 O   0  0  0  0  0  0  0  0  0  0  0  0
   -5.3592   -4.2672   -3.4014 C   0  0  0  0  0  0  0  0  0  0  0  0
   -5.4242   -3.6229   -2.0125 C   0  0  0  0  0  0  0  0  0  0  0  0
    2.1176   -0.0991    1.2076 H   0  0  0  0  0  0  0  0  0  0  0  0
    0.6441   -2.0312    1.2390 H   0  0  0  0  0  0  0  0  0  0  0  0
   -2.1688    0.1130   -1.2639 H   0  0  0  0  0  0  0  0  0  0  0  0
   -0.6869    2.0403   -1.2454 H   0  0  0  0  0  0  0  0  0  0  0  0
    1.4719    1.9606   -0.0232 H   0  0  0  0  0  0  0  0  0  0  0  0
   -3.0910   -4.9791    1.3320 H   0  0  0  0  0  0  0  0  0  0  0  0
   -5.7848   -5.9533   -0.6030 H   0  0  0  0  0  0  0  0  0  0  0  0
   -4.0622   -6.3287   -0.4412 H   0  0  0  0  0  0  0  0  0  0  0  0
   -3.7649   -6.2973   -2.9123 H   0  0  0  0  0  0  0  0  0  0  0  0
   -5.0627   -7.4133   -2.4635 H   0  0  0  0  0  0  0  0  0  0  0  0
   -6.0836   -3.7858   -4.0650 H   0  0  0  0  0  0  0  0  0  0  0  0
   -4.3640   -4.1539   -3.8472 H   0  0  0  0  0  0  0  0  0  0  0  0
   -6.4443   -3.6972   -1.6178 H   0  0  0  0  0  0  0  0  0  0  0  0
   -5.2065   -2.5556   -2.0820 H   0  0  0  0  0  0  0  0  0  0  0  0
  1  2  2  0  0  0  0
  1 20  1  0  0  0  0
  2  3  1  0  0  0  0
  2 21  1  0  0  0  0
  3  4  2  0  0  0  0
  3  7  1  0  0  0  0
  4  5  1  0  0  0  0
  4 22  1  0  0  0  0
  5  6  2  0  0  0  0
  5 23  1  0  0  0  0
  6  1  1  0  0  0  0
  6 24  1  0  0  0  0
  7  8  1  0  0  0  0
  8  9  1  0  0  0  0
  8 13  2  0  0  0  0
  9 10  2  0  0  0  0
  9 14  1  0  0  0  0
 10 11  1  0  0  0  0
 10 25  1  0  0  0  0
 11  7  1  0  0  0  0
 11 12  2  0  0  0  0
 14 15  1  0  0  0  0
 15 16  1  0  0  0  0
 15 26  1  0  0  0  0
 15 27  1  0  0  0  0
 16 17  1  0  0  0  0
 16 28  1  0  0  0  0
 16 29  1  0  0  0  0
 17 18  1  0  0  0  0
 18 19  1  0  0  0  0
 18 30  1  0  0  0  0
 18 31  1  0  0  0  0
 19 14  1  0  0  0  0
 19 32  1  0  0  0  0
 19 33  1  0  0  0  0
M  END
>  <Mol_ID>
3891

>  <Formula>
C14H11Cl3N2O3

>  <MolWeight>
361.60774

>  <Cat>
S8077

>  <Name>
RI-1

>  <Synonyms>
RAD51 inhibitor 1

>  <Target>
RAD51

>  <Form>
free base

>  <CAS>
415713-60-9

>  <URL>
http://selleckchem.com/products/ri-1.html

$$$$
