Raltegravir.cdx
 OpenBabel08302521243D

 53 55  0  0  0  0  0  0  0  0999 V2000
   -0.6230    1.2916   -0.0582 N   0  0  0  0  0  0  0  0  0  0  0  0
   -1.2959    0.0876    0.0247 C   0  0  0  0  0  0  0  0  0  0  0  0
   -0.6516   -1.0475    0.0237 N   0  0  0  0  0  0  0  0  0  0  0  0
    0.7213   -1.0533   -0.0517 C   0  0  0  0  0  0  0  0  0  0  0  0
    1.4910    0.0456   -0.0842 C   0  0  0  0  0  0  0  0  0  0  0  0
    0.7722    1.3396   -0.0125 C   0  0  0  0  0  0  0  0  0  0  0  0
    1.4076    2.3916    0.0729 O   0  0  0  0  0  0  0  0  0  0  0  0
    2.8734    0.0719   -0.1781 O   0  0  0  0  0  0  0  0  0  0  0  0
   -1.2152    2.6188   -0.1189 C   0  0  0  0  0  0  0  0  0  0  0  0
   -2.8950   -0.0304    0.0351 C   0  0  0  0  0  0  0  0  0  0  0  0
   -3.3673    0.1647   -1.3562 N   0  0  0  0  0  0  0  0  0  0  0  0
   -3.2356   -1.4721    0.5137 C   0  0  0  0  0  0  0  0  0  0  0  0
   -3.6100    0.9024    1.0311 C   0  0  0  0  0  0  0  0  0  0  0  0
   -4.6892    0.0047   -1.7741 C   0  0  0  0  0  0  0  0  0  0  0  0
   -4.9028    0.0950   -3.2104 C   0  0  0  0  0  0  0  0  0  0  0  0
   -5.5994   -0.2040   -0.9743 O   0  0  0  0  0  0  0  0  0  0  0  0
   -3.9801    0.3019   -4.1319 N   0  0  0  0  0  0  0  0  0  0  0  0
   -4.6501    0.3137   -5.3443 N   0  0  0  0  0  0  0  0  0  0  0  0
   -5.9215    0.1187   -5.0748 C   0  0  0  0  0  0  0  0  0  0  0  0
   -6.1680   -0.0312   -3.7384 O   0  0  0  0  0  0  0  0  0  0  0  0
   -7.0735    0.0596   -6.0024 C   0  0  0  0  0  0  0  0  0  0  0  0
    1.4334   -2.3894   -0.1052 C   0  0  0  0  0  0  0  0  0  0  0  0
    0.6542   -3.4621    0.2492 N   0  0  0  0  0  0  0  0  0  0  0  0
    2.6140   -2.4755   -0.4370 O   0  0  0  0  0  0  0  0  0  0  0  0
    1.1349   -4.8255    0.2078 C   0  0  0  0  0  0  0  0  0  0  0  0
    1.0281   -5.5147    1.5479 C   0  0  0  0  0  0  0  0  0  0  0  0
   -0.1064   -6.2719    1.8791 C   0  0  0  0  0  0  0  0  0  0  0  0
   -0.1807   -6.9413    3.1048 C   0  0  0  0  0  0  0  0  0  0  0  0
    0.8731   -6.8469    4.0049 C   0  0  0  0  0  0  0  0  0  0  0  0
    2.0001   -6.0968    3.7049 C   0  0  0  0  0  0  0  0  0  0  0  0
    2.0771   -5.4235    2.4803 C   0  0  0  0  0  0  0  0  0  0  0  0
    0.8042   -7.4947    5.1743 F   0  0  0  0  0  0  0  0  0  0  0  0
    3.1902   -0.8355   -0.3808 H   0  0  0  0  0  0  0  0  0  0  0  0
   -1.0627    3.1179    0.8469 H   0  0  0  0  0  0  0  0  0  0  0  0
   -0.6968    3.2112   -0.8824 H   0  0  0  0  0  0  0  0  0  0  0  0
   -2.2618    2.6166   -0.3925 H   0  0  0  0  0  0  0  0  0  0  0  0
   -2.6754    0.1937   -2.1005 H   0  0  0  0  0  0  0  0  0  0  0  0
   -2.6952   -1.7078    1.4402 H   0  0  0  0  0  0  0  0  0  0  0  0
   -4.3005   -1.6004    0.7329 H   0  0  0  0  0  0  0  0  0  0  0  0
   -2.9665   -2.2237   -0.2367 H   0  0  0  0  0  0  0  0  0  0  0  0
   -3.1559    0.8462    2.0250 H   0  0  0  0  0  0  0  0  0  0  0  0
   -3.6373    1.9481    0.7287 H   0  0  0  0  0  0  0  0  0  0  0  0
   -4.6671    0.6313    1.1419 H   0  0  0  0  0  0  0  0  0  0  0  0
   -7.4720   -0.9561   -6.0476 H   0  0  0  0  0  0  0  0  0  0  0  0
   -7.8699    0.7345   -5.6804 H   0  0  0  0  0  0  0  0  0  0  0  0
   -6.7729    0.3517   -7.0162 H   0  0  0  0  0  0  0  0  0  0  0  0
   -0.3174   -3.2781    0.4731 H   0  0  0  0  0  0  0  0  0  0  0  0
    0.5301   -5.3592   -0.5334 H   0  0  0  0  0  0  0  0  0  0  0  0
    2.1708   -4.8652   -0.1457 H   0  0  0  0  0  0  0  0  0  0  0  0
   -0.9331   -6.3640    1.1783 H   0  0  0  0  0  0  0  0  0  0  0  0
   -1.0480   -7.5417    3.3601 H   0  0  0  0  0  0  0  0  0  0  0  0
    2.8174   -6.0401    4.4185 H   0  0  0  0  0  0  0  0  0  0  0  0
    2.9686   -4.8436    2.2447 H   0  0  0  0  0  0  0  0  0  0  0  0
  1  2  1  0  0  0  0
  1  9  1  0  0  0  0
  2  3  2  0  0  0  0
  2 10  1  0  0  0  0
  3  4  1  0  0  0  0
  4  5  2  0  0  0  0
  4 22  1  0  0  0  0
  5  6  1  0  0  0  0
  5  8  1  0  0  0  0
  6  1  1  0  0  0  0
  6  7  2  0  0  0  0
  8 33  1  0  0  0  0
  9 34  1  0  0  0  0
  9 35  1  0  0  0  0
  9 36  1  0  0  0  0
 10 11  1  0  0  0  0
 10 12  1  0  0  0  0
 10 13  1  0  0  0  0
 11 14  1  0  0  0  0
 11 37  1  0  0  0  0
 12 38  1  0  0  0  0
 12 39  1  0  0  0  0
 12 40  1  0  0  0  0
 13 41  1  0  0  0  0
 13 42  1  0  0  0  0
 13 43  1  0  0  0  0
 14 15  1  0  0  0  0
 14 16  2  0  0  0  0
 15 17  2  0  0  0  0
 17 18  1  0  0  0  0
 18 19  2  0  0  0  0
 19 20  1  0  0  0  0
 19 21  1  0  0  0  0
 20 15  1  0  0  0  0
 21 44  1  0  0  0  0
 21 45  1  0  0  0  0
 21 46  1  0  0  0  0
 22 23  1  0  0  0  0
 22 24  2  0  0  0  0
 23 25  1  0  0  0  0
 23 47  1  0  0  0  0
 25 26  1  0  0  0  0
 25 48  1  0  0  0  0
 25 49  1  0  0  0  0
 26 27  2  0  0  0  0
 27 28  1  0  0  0  0
 27 50  1  0  0  0  0
 28 29  2  0  0  0  0
 28 51  1  0  0  0  0
 29 30  1  0  0  0  0
 29 32  1  0  0  0  0
 30 31  2  0  0  0  0
 30 52  1  0  0  0  0
 31 26  1  0  0  0  0
 31 53  1  0  0  0  0
M  END
>  <Mol_ID>
476

>  <Formula>
C20H21FN6O5

>  <MolWeight>
444.4163432

>  <Cat>
S2005

>  <Name>
Raltegravir (MK-0518)

>  <Synonyms>
MK-0518

>  <Target>
Integrase

>  <Form>
free base

>  <CAS>
518048-05-0

>  <URL>
http://selleckchem.com/products/Raltegravir-(MK-0518).html

$$$$
