Raltitrexed.cdx
 OpenBabel08302521453D

 54 56  0  0  0  0  0  0  0  0999 V2000
   -1.1848   -4.0148   -3.5878 C   0  0  0  0  0  0  0  0  0  0  0  0
   -1.3049   -3.1160   -2.3269 C   0  0  2  0  0  0  0  0  0  0  0  0
   -1.1267   -1.6074   -2.5596 C   0  0  0  0  0  0  0  0  0  0  0  0
    0.2823   -1.1280   -2.9114 C   0  0  0  0  0  0  0  0  0  0  0  0
    0.2992    0.3696   -3.1349 C   0  0  0  0  0  0  0  0  0  0  0  0
   -0.4649   -5.0121   -3.6439 O   0  0  0  0  0  0  0  0  0  0  0  0
   -2.0069   -3.7076   -4.6220 O   0  0  0  0  0  0  0  0  0  0  0  0
   -0.6322    1.0840   -3.4587 O   0  0  0  0  0  0  0  0  0  0  0  0
    1.5514    0.8669   -3.0453 O   0  0  0  0  0  0  0  0  0  0  0  0
   -0.4132   -3.6120   -1.2641 N   0  0  0  0  0  0  0  0  0  0  0  0
   -0.4432   -3.2166    0.0622 C   0  0  0  0  0  0  0  0  0  0  0  0
   -1.2152   -2.3596    0.4484 O   0  0  0  0  0  0  0  0  0  0  0  0
    0.5314   -3.8728    0.9472 C   0  0  0  0  0  0  0  0  0  0  0  0
    0.7499   -3.6262    2.2913 C   0  0  0  0  0  0  0  0  0  0  0  0
    1.8467   -4.3779    2.8132 C   0  0  0  0  0  0  0  0  0  0  0  0
    2.4019   -5.2591    1.9075 C   0  0  0  0  0  0  0  0  0  0  0  0
    1.5770   -5.1079    0.3957 S   0  0  0  0  0  0  0  0  0  0  0  0
    3.4438   -6.1286    2.1180 N   0  0  0  0  0  0  0  0  0  0  0  0
    4.4866   -5.8690    3.1110 C   0  0  0  0  0  0  0  0  0  0  0  0
    3.2404   -7.8091    8.3677 N   0  0  0  0  0  0  0  0  0  0  0  0
    3.0512   -9.0752    8.5393 C   0  0  0  0  0  0  0  0  0  0  0  0
    3.1006   -9.9942    7.5276 N   0  0  0  0  0  0  0  0  0  0  0  0
    3.3756   -9.6609    6.2241 C   0  0  0  0  0  0  0  0  0  0  0  0
    3.5950   -8.2262    5.9738 C   0  0  0  0  0  0  0  0  0  0  0  0
    3.8943   -7.7582    4.6925 C   0  0  0  0  0  0  0  0  0  0  0  0
    4.1280   -6.3940    4.4834 C   0  0  0  0  0  0  0  0  0  0  0  0
    4.0460   -5.5192    5.5797 C   0  0  0  0  0  0  0  0  0  0  0  0
    3.7367   -5.9996    6.8561 C   0  0  0  0  0  0  0  0  0  0  0  0
    3.5156   -7.3602    7.0661 C   0  0  0  0  0  0  0  0  0  0  0  0
    3.4493  -10.5016    5.3390 O   0  0  0  0  0  0  0  0  0  0  0  0
    2.7626   -9.6327    9.9010 C   0  0  0  0  0  0  0  0  0  0  0  0
    3.5494   -7.3617    1.3491 C   0  0  0  0  0  0  0  0  0  0  0  0
   -2.3333   -3.2626   -1.9779 H   0  0  0  0  0  0  0  0  0  0  0  0
   -1.8405   -1.2635   -3.3167 H   0  0  0  0  0  0  0  0  0  0  0  0
   -1.4186   -1.0926   -1.6352 H   0  0  0  0  0  0  0  0  0  0  0  0
    0.9739   -1.3602   -2.0937 H   0  0  0  0  0  0  0  0  0  0  0  0
    0.6489   -1.5964   -3.8294 H   0  0  0  0  0  0  0  0  0  0  0  0
   -2.5659   -2.9121   -4.5407 H   0  0  0  0  0  0  0  0  0  0  0  0
    1.4949    1.7761   -3.4042 H   0  0  0  0  0  0  0  0  0  0  0  0
    0.2385   -4.3684   -1.5048 H   0  0  0  0  0  0  0  0  0  0  0  0
    0.1698   -2.9273    2.8815 H   0  0  0  0  0  0  0  0  0  0  0  0
    2.1806   -4.2934    3.8364 H   0  0  0  0  0  0  0  0  0  0  0  0
    5.4224   -6.3414    2.7839 H   0  0  0  0  0  0  0  0  0  0  0  0
    4.7268   -4.7991    3.1769 H   0  0  0  0  0  0  0  0  0  0  0  0
    2.9556  -10.9763    7.7063 H   0  0  0  0  0  0  0  0  0  0  0  0
    3.9441   -8.4606    3.8654 H   0  0  0  0  0  0  0  0  0  0  0  0
    4.2159   -4.4520    5.4487 H   0  0  0  0  0  0  0  0  0  0  0  0
    3.6732   -5.3114    7.6953 H   0  0  0  0  0  0  0  0  0  0  0  0
    1.8061  -10.1631    9.8862 H   0  0  0  0  0  0  0  0  0  0  0  0
    3.5527  -10.3351   10.1817 H   0  0  0  0  0  0  0  0  0  0  0  0
    2.7173   -8.8295   10.6416 H   0  0  0  0  0  0  0  0  0  0  0  0
    2.6953   -8.0181    1.5545 H   0  0  0  0  0  0  0  0  0  0  0  0
    3.6007   -7.1572    0.2760 H   0  0  0  0  0  0  0  0  0  0  0  0
    4.4552   -7.9245    1.6021 H   0  0  0  0  0  0  0  0  0  0  0  0
  1  6  2  0  0  0  0
  1  7  1  0  0  0  0
  2 10  1  0  0  0  0
  2 33  1  1  0  0  0
  2  3  1  0  0  0  0
  2  1  1  0  0  0  0
  3  4  1  0  0  0  0
  3 34  1  0  0  0  0
  3 35  1  0  0  0  0
  4  5  1  0  0  0  0
  4 36  1  0  0  0  0
  4 37  1  0  0  0  0
  5  8  2  0  0  0  0
  5  9  1  0  0  0  0
  7 38  1  0  0  0  0
  9 39  1  0  0  0  0
 10 11  1  0  0  0  0
 10 40  1  0  0  0  0
 11 12  2  0  0  0  0
 11 13  1  0  0  0  0
 13 14  2  0  0  0  0
 13 17  1  0  0  0  0
 14 15  1  0  0  0  0
 14 41  1  0  0  0  0
 15 16  2  0  0  0  0
 15 42  1  0  0  0  0
 16 17  1  0  0  0  0
 16 18  1  0  0  0  0
 18 19  1  0  0  0  0
 18 32  1  0  0  0  0
 19 26  1  0  0  0  0
 19 43  1  0  0  0  0
 19 44  1  0  0  0  0
 20 21  2  0  0  0  0
 20 29  1  0  0  0  0
 21 22  1  0  0  0  0
 21 31  1  0  0  0  0
 22 23  1  0  0  0  0
 22 45  1  0  0  0  0
 23 24  1  0  0  0  0
 23 30  2  0  0  0  0
 24 25  1  0  0  0  0
 24 29  2  0  0  0  0
 25 26  2  0  0  0  0
 25 46  1  0  0  0  0
 26 27  1  0  0  0  0
 27 28  2  0  0  0  0
 27 47  1  0  0  0  0
 28 29  1  0  0  0  0
 28 48  1  0  0  0  0
 31 49  1  0  0  0  0
 31 50  1  0  0  0  0
 31 51  1  0  0  0  0
 32 52  1  0  0  0  0
 32 53  1  0  0  0  0
 32 54  1  0  0  0  0
M  END
>  <Mol_ID>
112

>  <Formula>
C21H22N4O6S

>  <MolWeight>
458.48758

>  <Cat>
S1192

>  <Name>
Raltitrexed

>  <Synonyms>
ZD-1694, ICI-D1694, D1694

>  <Target>
DNA/RNA Synthesis,Thymidylate Synthase

>  <Form>
free base

>  <CAS>
112887-68-0

>  <URL>
http://selleckchem.com/products/Raltitrexed.html

$$$$
