RANITIDINE (ranitidine).cdx
 OpenBabel08302521223D

 43 43  0  0  0  0  0  0  0  0999 V2000
    1.9416    1.8090    0.0004 N   0  0  0  0  0  0  0  0  0  0  0  0
    1.9489    0.6034    0.8540 C   0  0  0  0  0  0  0  0  0  0  0  0
    1.4820    0.8967    2.2417 C   0  0  0  0  0  0  0  0  0  0  0  0
    2.9349    2.7903    0.4456 C   0  0  0  0  0  0  0  0  0  0  0  0
    2.2034    1.4394   -1.3918 C   0  0  0  0  0  0  0  0  0  0  0  0
    0.3408    1.4851    2.7419 C   0  0  0  0  0  0  0  0  0  0  0  0
    0.5020    1.5451    4.1437 C   0  0  0  0  0  0  0  0  0  0  0  0
    1.7211    0.9597    4.4245 C   0  0  0  0  0  0  0  0  0  0  0  0
    2.3254    0.5662    3.2622 O   0  0  0  0  0  0  0  0  0  0  0  0
    2.4712    0.7197    5.6824 C   0  0  0  0  0  0  0  0  0  0  0  0
    1.4373   -0.1574    6.9025 S   0  0  0  0  0  0  0  0  0  0  0  0
    2.6683   -0.3882    8.2345 C   0  0  0  0  0  0  0  0  0  0  0  0
    3.0555    0.9068    8.9682 C   0  0  0  0  0  0  0  0  0  0  0  0
    1.8774    1.5287    9.5439 N   0  0  0  0  0  0  0  0  0  0  0  0
    1.7428    2.5127   10.5185 C   0  0  0  0  0  0  0  0  0  0  0  0
    0.4931    3.0217   10.6501 C   0  0  0  0  0  0  0  0  0  0  0  0
    0.1223    3.9968   11.6453 N   0  3  0  0  0  0  0  0  0  0  0  0
   -1.0948    4.1139   11.8497 O   0  0  0  0  0  0  0  0  0  0  0  0
    0.9984    4.6570   12.2224 O   0  5  0  0  0  0  0  0  0  0  0  0
    4.1380    2.4824   11.4807 C   0  0  0  0  0  0  0  0  0  0  0  0
    2.7830    2.9294   11.3243 N   0  0  0  0  0  0  0  0  0  0  0  0
    1.2606   -0.1417    0.4362 H   0  0  0  0  0  0  0  0  0  0  0  0
    2.9451    0.1425    0.8739 H   0  0  0  0  0  0  0  0  0  0  0  0
    3.9600    2.4208    0.3336 H   0  0  0  0  0  0  0  0  0  0  0  0
    2.8336    3.7135   -0.1359 H   0  0  0  0  0  0  0  0  0  0  0  0
    2.7863    3.0766    1.4924 H   0  0  0  0  0  0  0  0  0  0  0  0
    1.4211    0.7712   -1.7682 H   0  0  0  0  0  0  0  0  0  0  0  0
    2.1928    2.3269   -2.0347 H   0  0  0  0  0  0  0  0  0  0  0  0
    3.1719    0.9400   -1.5119 H   0  0  0  0  0  0  0  0  0  0  0  0
   -0.4874    1.8561    2.1546 H   0  0  0  0  0  0  0  0  0  0  0  0
   -0.1832    1.9621    4.8690 H   0  0  0  0  0  0  0  0  0  0  0  0
    3.3726    0.1221    5.4832 H   0  0  0  0  0  0  0  0  0  0  0  0
    2.7787    1.6847    6.0972 H   0  0  0  0  0  0  0  0  0  0  0  0
    2.2174   -1.0821    8.9536 H   0  0  0  0  0  0  0  0  0  0  0  0
    3.5563   -0.8801    7.8256 H   0  0  0  0  0  0  0  0  0  0  0  0
    3.7692    0.6158    9.7367 H   0  0  0  0  0  0  0  0  0  0  0  0
    3.5586    1.6063    8.2924 H   0  0  0  0  0  0  0  0  0  0  0  0
    1.0599    1.4100    8.9433 H   0  0  0  0  0  0  0  0  0  0  0  0
   -0.3743    2.7273   10.0813 H   0  0  0  0  0  0  0  0  0  0  0  0
    4.7661    2.8549   10.6669 H   0  0  0  0  0  0  0  0  0  0  0  0
    4.5408    2.8771   12.4200 H   0  0  0  0  0  0  0  0  0  0  0  0
    4.2103    1.3956   11.5539 H   0  0  0  0  0  0  0  0  0  0  0  0
    2.5523    3.7279   11.9256 H   0  0  0  0  0  0  0  0  0  0  0  0
  1  2  1  0  0  0  0
  1  4  1  0  0  0  0
  1  5  1  0  0  0  0
  2  3  1  0  0  0  0
  2 22  1  0  0  0  0
  2 23  1  0  0  0  0
  3  6  2  0  0  0  0
  4 24  1  0  0  0  0
  4 25  1  0  0  0  0
  4 26  1  0  0  0  0
  5 27  1  0  0  0  0
  5 28  1  0  0  0  0
  5 29  1  0  0  0  0
  6  7  1  0  0  0  0
  6 30  1  0  0  0  0
  7  8  2  0  0  0  0
  7 31  1  0  0  0  0
  8  9  1  0  0  0  0
  8 10  1  0  0  0  0
  9  3  1  0  0  0  0
 10 11  1  0  0  0  0
 10 32  1  0  0  0  0
 10 33  1  0  0  0  0
 11 12  1  0  0  0  0
 12 13  1  0  0  0  0
 12 34  1  0  0  0  0
 12 35  1  0  0  0  0
 13 14  1  0  0  0  0
 13 36  1  0  0  0  0
 13 37  1  0  0  0  0
 14 15  1  0  0  0  0
 14 38  1  0  0  0  0
 15 16  2  0  0  0  0
 16 17  1  0  0  0  0
 16 39  1  0  0  0  0
 17 18  2  0  0  0  0
 17 19  1  0  0  0  0
 20 21  1  0  0  0  0
 20 40  1  0  0  0  0
 20 41  1  0  0  0  0
 20 42  1  0  0  0  0
 21 15  1  0  0  0  0
 21 43  1  0  0  0  0
M  CHG  2  17   1  19  -1
M  END
>  <Mol_ID>
446

>  <Formula>
C13H23ClN4O3S

>  <MolWeight>
350.86472

>  <Cat>
S1801

>  <Name>
Ranitidine Hydrochloride

>  <Synonyms>
AH19065

>  <Target>
Histamine Receptor

>  <Form>
Hydrochloride

>  <CAS>
66357-59-3

>  <URL>
http://selleckchem.com/products/Ranitidine-hydrochloride(Zantac).html

$$$$
