RAPAFLO (silodosin).cdx
 OpenBabel08302522063D

 67 69  0  0  0  0  0  0  0  0999 V2000
   -2.8362   -3.2432   -5.8828 C   0  0  0  0  0  0  0  0  0  0  0  0
   -2.2951   -4.3647   -5.2661 C   0  0  0  0  0  0  0  0  0  0  0  0
   -1.5655   -4.2258   -4.0896 C   0  0  0  0  0  0  0  0  0  0  0  0
   -1.3942   -2.9682   -3.5054 C   0  0  0  0  0  0  0  0  0  0  0  0
   -1.8981   -1.8184   -4.1529 C   0  0  0  0  0  0  0  0  0  0  0  0
   -2.6235   -1.9788   -5.3234 C   0  0  0  0  0  0  0  0  0  0  0  0
   -1.8103   -0.5205   -3.7130 O   0  0  0  0  0  0  0  0  0  0  0  0
   -0.7513   -2.8300   -2.3080 O   0  0  0  0  0  0  0  0  0  0  0  0
   -1.0970   -3.7555   -1.2665 C   0  0  0  0  0  0  0  0  0  0  0  0
   -2.5832   -3.9967   -0.9928 C   0  0  0  0  0  0  0  0  0  0  0  0
   -3.4057   -3.1012   -1.5745 F   0  0  0  0  0  0  0  0  0  0  0  0
   -2.9497   -5.2329   -1.4123 F   0  0  0  0  0  0  0  0  0  0  0  0
   -2.8311   -3.9482    0.3406 F   0  0  0  0  0  0  0  0  0  0  0  0
   -0.6671   -0.1459   -2.9364 C   0  0  0  0  0  0  0  0  0  0  0  0
   -0.7381    1.3501   -2.5872 C   0  0  0  0  0  0  0  0  0  0  0  0
   -1.9972    1.7987   -1.9619 N   0  0  0  0  0  0  0  0  0  0  0  0
   -2.4028    1.0984   -0.7202 C   0  0  2  0  0  0  0  0  0  0  0  0
   -3.8243    1.5956   -0.4181 C   0  0  0  0  0  0  0  0  0  0  0  0
   -1.4669    1.3855    0.4772 C   0  0  0  0  0  0  0  0  0  0  0  0
   -1.6159    0.5711    1.7506 C   0  0  0  0  0  0  0  0  0  0  0  0
   -2.4524   -0.5307    1.9213 C   0  0  0  0  0  0  0  0  0  0  0  0
   -2.3872   -1.2006    3.1395 C   0  0  0  0  0  0  0  0  0  0  0  0
   -1.3083   -1.0893    4.0060 C   0  0  0  0  0  0  0  0  0  0  0  0
   -0.7687    0.1973    4.0378 C   0  0  0  0  0  0  0  0  0  0  0  0
   -0.8967    1.0029    2.8851 C   0  0  0  0  0  0  0  0  0  0  0  0
   -0.3790    0.9147    5.2921 C   0  0  0  0  0  0  0  0  0  0  0  0
   -0.0083    0.1541    6.3600 N   0  0  0  0  0  0  0  0  0  0  0  0
   -0.4619    2.1343    5.3911 O   0  0  0  0  0  0  0  0  0  0  0  0
   -3.5469   -1.6515    3.9977 C   0  0  0  0  0  0  0  0  0  0  0  0
   -2.8279   -1.8153    5.3747 C   0  0  0  0  0  0  0  0  0  0  0  0
   -1.3822   -2.0750    5.0623 N   0  0  0  0  0  0  0  0  0  0  0  0
   -1.2848   -3.5357    4.6232 C   0  0  0  0  0  0  0  0  0  0  0  0
   -0.5228   -3.9645    3.3610 C   0  0  0  0  0  0  0  0  0  0  0  0
    0.9855   -3.9558    3.4625 C   0  0  0  0  0  0  0  0  0  0  0  0
    1.5195   -4.5662    2.2813 O   0  0  0  0  0  0  0  0  0  0  0  0
   -3.4251   -3.3463   -6.7903 H   0  0  0  0  0  0  0  0  0  0  0  0
   -2.4535   -5.3520   -5.6991 H   0  0  0  0  0  0  0  0  0  0  0  0
   -1.1517   -5.1192   -3.6308 H   0  0  0  0  0  0  0  0  0  0  0  0
   -3.0429   -1.0943   -5.8155 H   0  0  0  0  0  0  0  0  0  0  0  0
   -0.5691   -4.6998   -1.4340 H   0  0  0  0  0  0  0  0  0  0  0  0
   -0.6571   -3.3309   -0.3593 H   0  0  0  0  0  0  0  0  0  0  0  0
   -0.6259   -0.6814   -1.9828 H   0  0  0  0  0  0  0  0  0  0  0  0
    0.2510   -0.3378   -3.5087 H   0  0  0  0  0  0  0  0  0  0  0  0
    0.1139    1.6331   -1.9652 H   0  0  0  0  0  0  0  0  0  0  0  0
   -0.6373    1.9256   -3.5176 H   0  0  0  0  0  0  0  0  0  0  0  0
   -2.7346    1.6457   -2.6553 H   0  0  0  0  0  0  0  0  0  0  0  0
   -2.4584    0.0203   -0.9073 H   0  0  0  0  0  0  0  0  0  0  0  0
   -4.2070    1.2013    0.5266 H   0  0  0  0  0  0  0  0  0  0  0  0
   -3.8580    2.6898   -0.3555 H   0  0  0  0  0  0  0  0  0  0  0  0
   -4.5172    1.2820   -1.2075 H   0  0  0  0  0  0  0  0  0  0  0  0
   -0.4305    1.2110    0.1615 H   0  0  0  0  0  0  0  0  0  0  0  0
   -1.5432    2.4506    0.7349 H   0  0  0  0  0  0  0  0  0  0  0  0
   -3.1909   -0.8260    1.1854 H   0  0  0  0  0  0  0  0  0  0  0  0
   -0.4878    2.0146    2.8983 H   0  0  0  0  0  0  0  0  0  0  0  0
    0.0327    0.6264    7.2586 H   0  0  0  0  0  0  0  0  0  0  0  0
   -0.1920   -0.8497    6.3302 H   0  0  0  0  0  0  0  0  0  0  0  0
   -4.0142   -2.5685    3.6434 H   0  0  0  0  0  0  0  0  0  0  0  0
   -4.2837   -0.8460    4.0940 H   0  0  0  0  0  0  0  0  0  0  0  0
   -3.2636   -2.6158    5.9834 H   0  0  0  0  0  0  0  0  0  0  0  0
   -2.8914   -0.8996    5.9825 H   0  0  0  0  0  0  0  0  0  0  0  0
   -0.9140   -4.1049    5.4843 H   0  0  0  0  0  0  0  0  0  0  0  0
   -2.3009   -3.9251    4.4601 H   0  0  0  0  0  0  0  0  0  0  0  0
   -0.8192   -5.0061    3.1625 H   0  0  0  0  0  0  0  0  0  0  0  0
   -0.8506   -3.4237    2.4701 H   0  0  0  0  0  0  0  0  0  0  0  0
    1.3764   -2.9367    3.5244 H   0  0  0  0  0  0  0  0  0  0  0  0
    1.3443   -4.5275    4.3252 H   0  0  0  0  0  0  0  0  0  0  0  0
    1.2995   -5.5145    2.3175 H   0  0  0  0  0  0  0  0  0  0  0  0
  1  2  2  0  0  0  0
  1 36  1  0  0  0  0
  2  3  1  0  0  0  0
  2 37  1  0  0  0  0
  3  4  2  0  0  0  0
  3 38  1  0  0  0  0
  4  5  1  0  0  0  0
  4  8  1  0  0  0  0
  5  6  2  0  0  0  0
  5  7  1  0  0  0  0
  6  1  1  0  0  0  0
  6 39  1  0  0  0  0
  7 14  1  0  0  0  0
  8  9  1  0  0  0  0
  9 10  1  0  0  0  0
  9 40  1  0  0  0  0
  9 41  1  0  0  0  0
 10 11  1  0  0  0  0
 10 12  1  0  0  0  0
 10 13  1  0  0  0  0
 14 15  1  0  0  0  0
 14 42  1  0  0  0  0
 14 43  1  0  0  0  0
 15 16  1  0  0  0  0
 15 44  1  0  0  0  0
 15 45  1  0  0  0  0
 16 46  1  0  0  0  0
 17 19  1  0  0  0  0
 17 47  1  6  0  0  0
 17 18  1  0  0  0  0
 17 16  1  0  0  0  0
 18 48  1  0  0  0  0
 18 49  1  0  0  0  0
 18 50  1  0  0  0  0
 19 20  1  0  0  0  0
 19 51  1  0  0  0  0
 19 52  1  0  0  0  0
 20 21  2  0  0  0  0
 21 22  1  0  0  0  0
 21 53  1  0  0  0  0
 22 23  2  0  0  0  0
 22 29  1  0  0  0  0
 23 24  1  0  0  0  0
 24 25  2  0  0  0  0
 24 26  1  0  0  0  0
 25 20  1  0  0  0  0
 25 54  1  0  0  0  0
 26 27  1  0  0  0  0
 26 28  2  0  0  0  0
 27 55  1  0  0  0  0
 27 56  1  0  0  0  0
 29 30  1  0  0  0  0
 29 57  1  0  0  0  0
 29 58  1  0  0  0  0
 30 31  1  0  0  0  0
 30 59  1  0  0  0  0
 30 60  1  0  0  0  0
 31 23  1  0  0  0  0
 31 32  1  0  0  0  0
 32 33  1  0  0  0  0
 32 61  1  0  0  0  0
 32 62  1  0  0  0  0
 33 34  1  0  0  0  0
 33 63  1  0  0  0  0
 33 64  1  0  0  0  0
 34 35  1  0  0  0  0
 34 65  1  0  0  0  0
 34 66  1  0  0  0  0
 35 67  1  0  0  0  0
M  END
>  <Mol_ID>
1399

>  <Formula>
C25H32F3N3O4

>  <MolWeight>
495.5344896

>  <Cat>
S1613

>  <Name>
Silodosin

>  <Synonyms>
KAD 3213, KMD 3213

>  <Target>
Adrenergic Receptor

>  <Form>
free base

>  <CAS>
160970-54-7

>  <URL>
http://selleckchem.com/products/Silodosin(Rapaflo).html

$$$$
