Rapastinel (GLYX-13)
 OpenBabel08302521303D

 60 61  0  0  0  0  0  0  0  0999 V2000
    1.8070    0.0648   -1.2619 C   0  0  0  0  0  0  0  0  0  0  0  0
    2.7481    1.0198    0.7996 N   0  0  0  0  0  0  0  0  0  0  0  0
    1.6296    0.2338    0.2777 C   0  0  1  0  0  0  0  0  0  0  0  0
    0.2461    0.8516    0.6331 C   0  0  1  0  0  0  0  0  0  0  0  0
   -0.0388    2.2927    0.1918 C   0  0  0  0  0  0  0  0  0  0  0  0
   -0.8124    0.0076    0.1387 O   0  0  0  0  0  0  0  0  0  0  0  0
    2.6967    0.5977   -1.9142 O   0  0  0  0  0  0  0  0  0  0  0  0
    0.9079   -0.7718   -1.8717 N   0  0  0  0  0  0  0  0  0  0  0  0
    3.8745    0.6267    1.4622 C   0  0  0  0  0  0  0  0  0  0  0  0
    2.8959   -1.1858    3.1662 N   0  0  0  0  0  0  0  0  0  0  0  0
    4.0067   -0.5873    2.4245 C   0  0  1  0  0  0  0  0  0  0  0  0
    4.6708   -1.7777    1.7156 C   0  0  0  0  0  0  0  0  0  0  0  0
    4.3263   -3.0055    2.5500 C   0  0  0  0  0  0  0  0  0  0  0  0
    3.2314   -2.5623    3.5002 C   0  0  0  0  0  0  0  0  0  0  0  0
    4.8933    1.2817    1.2025 O   0  0  0  0  0  0  0  0  0  0  0  0
    2.2871   -0.4017    4.1567 C   0  0  0  0  0  0  0  0  0  0  0  0
    1.1288   -0.5805    6.4294 N   0  0  0  0  0  0  0  0  0  0  0  0
    1.2812   -1.1368    5.0971 C   0  0  1  0  0  0  0  0  0  0  0  0
   -0.1176   -1.0170    4.4913 C   0  0  0  0  0  0  0  0  0  0  0  0
   -1.0785   -1.0585    5.6736 C   0  0  0  0  0  0  0  0  0  0  0  0
   -0.2227   -0.8322    6.9162 C   0  0  0  0  0  0  0  0  0  0  0  0
    2.4378    0.8190    4.2079 O   0  0  0  0  0  0  0  0  0  0  0  0
    2.2401   -0.4874    7.2664 C   0  0  0  0  0  0  0  0  0  0  0  0
    1.6913   -1.0683    9.6085 N   0  0  0  0  0  0  0  0  0  0  0  0
    2.0113    0.0634    8.6932 C   0  0  1  0  0  0  0  0  0  0  0  0
    3.2476    0.8016    9.2745 C   0  0  1  0  0  0  0  0  0  0  0  0
    3.7408    1.9867    8.4481 C   0  0  0  0  0  0  0  0  0  0  0  0
    2.8962    1.3030   10.5864 O   0  0  0  0  0  0  0  0  0  0  0  0
    3.3510   -0.8419    6.8698 O   0  0  0  0  0  0  0  0  0  0  0  0
    3.0002    1.7962    0.1938 H   0  0  0  0  0  0  0  0  0  0  0  0
    1.6904   -0.7759    0.6915 H   0  0  0  0  0  0  0  0  0  0  0  0
    0.1656    0.8388    1.7244 H   0  0  0  0  0  0  0  0  0  0  0  0
   -0.2850    2.3646   -0.8731 H   0  0  0  0  0  0  0  0  0  0  0  0
   -0.9337    2.6519    0.7221 H   0  0  0  0  0  0  0  0  0  0  0  0
    0.7722    2.9851    0.4302 H   0  0  0  0  0  0  0  0  0  0  0  0
   -1.6277    0.5425    0.1063 H   0  0  0  0  0  0  0  0  0  0  0  0
    0.0269   -0.9741   -1.4084 H   0  0  0  0  0  0  0  0  0  0  0  0
    0.9549   -0.8618   -2.8761 H   0  0  0  0  0  0  0  0  0  0  0  0
    4.7027   -0.2351    3.2010 H   0  0  0  0  0  0  0  0  0  0  0  0
    4.3039   -1.9092    0.6918 H   0  0  0  0  0  0  0  0  0  0  0  0
    5.7583   -1.6481    1.6537 H   0  0  0  0  0  0  0  0  0  0  0  0
    3.9906   -3.8381    1.9226 H   0  0  0  0  0  0  0  0  0  0  0  0
    5.1956   -3.3671    3.1137 H   0  0  0  0  0  0  0  0  0  0  0  0
    2.3424   -3.1957    3.4341 H   0  0  0  0  0  0  0  0  0  0  0  0
    3.6134   -2.5968    4.5295 H   0  0  0  0  0  0  0  0  0  0  0  0
    1.5378   -2.1887    5.2413 H   0  0  0  0  0  0  0  0  0  0  0  0
   -0.2380   -0.0601    3.9687 H   0  0  0  0  0  0  0  0  0  0  0  0
   -0.3185   -1.8074    3.7605 H   0  0  0  0  0  0  0  0  0  0  0  0
   -1.8462   -0.2829    5.5763 H   0  0  0  0  0  0  0  0  0  0  0  0
   -1.5990   -2.0214    5.7256 H   0  0  0  0  0  0  0  0  0  0  0  0
   -0.5895   -0.0147    7.5385 H   0  0  0  0  0  0  0  0  0  0  0  0
   -0.2067   -1.7507    7.5160 H   0  0  0  0  0  0  0  0  0  0  0  0
    1.7680   -0.7143   10.5675 H   0  0  0  0  0  0  0  0  0  0  0  0
    0.7399   -1.3875    9.4741 H   0  0  0  0  0  0  0  0  0  0  0  0
    1.1671    0.7576    8.6993 H   0  0  0  0  0  0  0  0  0  0  0  0
    4.0783    0.1034    9.4163 H   0  0  0  0  0  0  0  0  0  0  0  0
    2.9405    2.7138    8.2736 H   0  0  0  0  0  0  0  0  0  0  0  0
    4.5284    2.5185    8.9949 H   0  0  0  0  0  0  0  0  0  0  0  0
    4.1504    1.6734    7.4844 H   0  0  0  0  0  0  0  0  0  0  0  0
    2.3951    2.1273   10.4648 H   0  0  0  0  0  0  0  0  0  0  0  0
  1  7  2  0  0  0  0
  1  8  1  0  0  0  0
  2  9  1  0  0  0  0
  2 30  1  0  0  0  0
  3  2  1  0  0  0  0
  3  1  1  0  0  0  0
  3  4  1  0  0  0  0
  3 31  1  1  0  0  0
  4  5  1  0  0  0  0
  4  6  1  0  0  0  0
  4 32  1  1  0  0  0
  5 33  1  0  0  0  0
  5 34  1  0  0  0  0
  5 35  1  0  0  0  0
  6 36  1  0  0  0  0
  8 37  1  0  0  0  0
  8 38  1  0  0  0  0
  9 15  2  0  0  0  0
 10 11  1  0  0  0  0
 10 14  1  0  0  0  0
 10 16  1  0  0  0  0
 11  9  1  0  0  0  0
 11 12  1  0  0  0  0
 11 39  1  1  0  0  0
 12 13  1  0  0  0  0
 12 40  1  0  0  0  0
 12 41  1  0  0  0  0
 13 14  1  0  0  0  0
 13 42  1  0  0  0  0
 13 43  1  0  0  0  0
 14 44  1  0  0  0  0
 14 45  1  0  0  0  0
 16 22  2  0  0  0  0
 17 18  1  0  0  0  0
 17 21  1  0  0  0  0
 17 23  1  0  0  0  0
 18 16  1  0  0  0  0
 18 19  1  0  0  0  0
 18 46  1  1  0  0  0
 19 20  1  0  0  0  0
 19 47  1  0  0  0  0
 19 48  1  0  0  0  0
 20 21  1  0  0  0  0
 20 49  1  0  0  0  0
 20 50  1  0  0  0  0
 21 51  1  0  0  0  0
 21 52  1  0  0  0  0
 23 25  1  0  0  0  0
 23 29  2  0  0  0  0
 24 53  1  0  0  0  0
 24 54  1  0  0  0  0
 25 24  1  0  0  0  0
 25 26  1  0  0  0  0
 25 55  1  6  0  0  0
 26 27  1  0  0  0  0
 26 28  1  0  0  0  0
 26 56  1  1  0  0  0
 27 57  1  0  0  0  0
 27 58  1  0  0  0  0
 27 59  1  0  0  0  0
 28 60  1  0  0  0  0
M  END
>  <Mol_ID>
5526

>  <Formula>
C18H31N5O6

>  <MolWeight>
413.46864

>  <Cat>
S6907

>  <Name>
Rapastinel (GLYX-13)

>  <Synonyms>
BV-102, TPPT-amide

>  <Target>
NMDAR

>  <Form>
Free Base

>  <CAS>
117928-94-6

>  <URL>
https://www.selleckchem.com/products/rapastinel.html

$$$$
