Raphin1
 OpenBabel08302521243D

 22 22  0  0  0  0  0  0  0  0999 V2000
    1.0244    0.3264    0.5100 N   0  0  0  0  0  0  0  0  0  0  0  0
    0.3786   -0.7466    1.0457 N   0  0  0  0  0  0  0  0  0  0  0  0
   -1.3262    0.5383    2.0152 N   0  0  0  0  0  0  0  0  0  0  0  0
   -1.2723   -1.7321    2.2980 N   0  0  0  0  0  0  0  0  0  0  0  0
    2.8890    1.1707   -0.7564 C   0  0  0  0  0  0  0  0  0  0  0  0
    2.4708    2.4975   -0.6031 C   0  0  0  0  0  0  0  0  0  0  0  0
    4.0326    0.8744   -1.5016 C   0  0  0  0  0  0  0  0  0  0  0  0
    3.1939    3.5290   -1.1988 C   0  0  0  0  0  0  0  0  0  0  0  0
    4.7527    1.9125   -2.0980 C   0  0  0  0  0  0  0  0  0  0  0  0
    4.3330    3.2360   -1.9471 C   0  0  0  0  0  0  0  0  0  0  0  0
    2.1162    0.0747   -0.1374 C   0  0  0  0  0  0  0  0  0  0  0  0
   -0.7513   -0.5949    1.7923 C   0  0  0  0  0  0  0  0  0  0  0  0
    0.8911   -1.6054    1.2233 H   0  0  0  0  0  0  0  0  0  0  0  0
   -0.7193    1.2102    1.5162 H   0  0  0  0  0  0  0  0  0  0  0  0
   -1.3800   -2.4629    1.6071 H   0  0  0  0  0  0  0  0  0  0  0  0
   -2.1759   -1.5082    2.7085 H   0  0  0  0  0  0  0  0  0  0  0  0
    1.5819    2.7342   -0.0221 H   0  0  0  0  0  0  0  0  0  0  0  0
    4.3694   -0.1503   -1.6300 H   0  0  0  0  0  0  0  0  0  0  0  0
    2.8655    4.5583   -1.0791 H   0  0  0  0  0  0  0  0  0  0  0  0
    5.6419    1.6931   -2.6840 H   0  0  0  0  0  0  0  0  0  0  0  0
    4.8936    4.0423   -2.4140 H   0  0  0  0  0  0  0  0  0  0  0  0
    2.5030   -0.9528   -0.2600 H   0  0  0  0  0  0  0  0  0  0  0  0
  1  2  1  0  0  0  0
  1 11  2  0  0  0  0
  2 13  1  0  0  0  0
  3 12  2  0  0  0  0
  3 14  1  0  0  0  0
  4 12  1  0  0  0  0
  4 15  1  0  0  0  0
  4 16  1  0  0  0  0
  5  6  2  0  0  0  0
  5  7  1  0  0  0  0
  5 11  1  0  0  0  0
  6  8  1  0  0  0  0
  6 17  1  0  0  0  0
  7  9  2  0  0  0  0
  7 18  1  0  0  0  0
  8 10  2  0  0  0  0
  8 19  1  0  0  0  0
  9 10  1  0  0  0  0
  9 20  1  0  0  0  0
 10 21  1  0  0  0  0
 11 22  1  0  0  0  0
 12  2  1  0  0  0  0
M  END
>  <Mol_ID>
4992

>  <Formula>
C8H8Cl2N4

>  <MolWeight>
231.08192

>  <Cat>
S0528

>  <Name>
Raphin1

>  <Synonyms>
N/A

>  <Target>
phosphatase

>  <Form>
Free Base

>  <CAS>
2022961-17-5

>  <URL>
http://www.selleckchem.com/products/raphin1.html

$$$$
