Raspberry ketone glucoside
 OpenBabel08302521243D

 45 46  0  0  0  0  0  0  0  0999 V2000
    0.6780    0.2254    0.7399 O   0  0  0  0  0  0  0  0  0  0  0  0
    2.3056    1.8973    0.4318 O   0  0  0  0  0  0  0  0  0  0  0  0
    0.2572   -0.4889   -3.3004 O   0  0  0  0  0  0  0  0  0  0  0  0
   -1.6685   -1.5544   -1.4170 O   0  0  0  0  0  0  0  0  0  0  0  0
    1.6161    1.9399   -2.4129 O   0  0  0  0  0  0  0  0  0  0  0  0
   -1.1152   -0.6888    2.6859 O   0  0  0  0  0  0  0  0  0  0  0  0
    3.0249    3.8906    8.5763 O   0  0  0  0  0  0  0  0  0  0  0  0
    0.0395    0.1143   -2.0208 C   0  0  1  0  0  0  0  0  0  0  0  0
   -0.4319   -0.9588   -1.0217 C   0  0  1  0  0  0  0  0  0  0  0  0
    1.2985    0.8553   -1.5226 C   0  0  2  0  0  0  0  0  0  0  0  0
   -0.5785   -0.3282    0.3589 C   0  0  1  0  0  0  0  0  0  0  0  0
    1.0803    1.3353   -0.0697 C   0  0  1  0  0  0  0  0  0  0  0  0
   -0.9633   -1.3533    1.4283 C   0  0  0  0  0  0  0  0  0  0  0  0
    2.3317    2.1106    1.7864 C   0  0  0  0  0  0  0  0  0  0  0  0
    3.5920    2.1133    2.3790 C   0  0  0  0  0  0  0  0  0  0  0  0
    1.1985    2.2960    2.5846 C   0  0  0  0  0  0  0  0  0  0  0  0
    2.5805    2.4761    4.5592 C   0  0  0  0  0  0  0  0  0  0  0  0
    2.7101    2.7967    6.0277 C   0  0  0  0  0  0  0  0  0  0  0  0
    3.7158    2.2797    3.7605 C   0  0  0  0  0  0  0  0  0  0  0  0
    1.3191    2.4518    3.9641 C   0  0  0  0  0  0  0  0  0  0  0  0
    3.4044    4.1466    6.2110 C   0  0  0  0  0  0  0  0  0  0  0  0
    3.4871    4.5679    7.6610 C   0  0  0  0  0  0  0  0  0  0  0  0
    4.1433    5.8964    7.9274 C   0  0  0  0  0  0  0  0  0  0  0  0
    1.0881   -1.0138   -3.2568 H   0  0  0  0  0  0  0  0  0  0  0  0
   -2.0842   -0.9966   -2.0948 H   0  0  0  0  0  0  0  0  0  0  0  0
    0.8806    2.5734   -2.4211 H   0  0  0  0  0  0  0  0  0  0  0  0
   -0.2523   -0.2680    2.8687 H   0  0  0  0  0  0  0  0  0  0  0  0
   -0.7669    0.8391   -2.1891 H   0  0  0  0  0  0  0  0  0  0  0  0
    0.3177   -1.7590   -0.9911 H   0  0  0  0  0  0  0  0  0  0  0  0
    2.1586    0.1784   -1.5611 H   0  0  0  0  0  0  0  0  0  0  0  0
   -1.3374    0.4656    0.3590 H   0  0  0  0  0  0  0  0  0  0  0  0
    0.3193    2.1246   -0.0652 H   0  0  0  0  0  0  0  0  0  0  0  0
   -1.9090   -1.8501    1.1936 H   0  0  0  0  0  0  0  0  0  0  0  0
   -0.1813   -2.1117    1.5511 H   0  0  0  0  0  0  0  0  0  0  0  0
    4.4808    1.9749    1.7694 H   0  0  0  0  0  0  0  0  0  0  0  0
    0.1977    2.3114    2.1649 H   0  0  0  0  0  0  0  0  0  0  0  0
    1.7158    2.8256    6.4935 H   0  0  0  0  0  0  0  0  0  0  0  0
    3.2614    1.9949    6.5336 H   0  0  0  0  0  0  0  0  0  0  0  0
    4.7085    2.2685    4.2070 H   0  0  0  0  0  0  0  0  0  0  0  0
    0.4168    2.5652    4.5618 H   0  0  0  0  0  0  0  0  0  0  0  0
    4.4266    4.1030    5.8192 H   0  0  0  0  0  0  0  0  0  0  0  0
    2.8636    4.9264    5.6600 H   0  0  0  0  0  0  0  0  0  0  0  0
    5.0740    5.9716    7.3594 H   0  0  0  0  0  0  0  0  0  0  0  0
    3.4644    6.7028    7.6433 H   0  0  0  0  0  0  0  0  0  0  0  0
    4.3819    5.9771    8.9908 H   0  0  0  0  0  0  0  0  0  0  0  0
  1 11  1  0  0  0  0
  1 12  1  0  0  0  0
  2 14  1  0  0  0  0
  3 24  1  0  0  0  0
  4 25  1  0  0  0  0
  5 26  1  0  0  0  0
  6 13  1  0  0  0  0
  6 27  1  0  0  0  0
  7 22  2  0  0  0  0
  8  3  1  0  0  0  0
  8  9  1  0  0  0  0
  8 10  1  0  0  0  0
  8 28  1  6  0  0  0
  9  4  1  0  0  0  0
  9 11  1  0  0  0  0
  9 29  1  1  0  0  0
 10  5  1  0  0  0  0
 10 12  1  0  0  0  0
 10 30  1  6  0  0  0
 11 13  1  0  0  0  0
 11 31  1  6  0  0  0
 12  2  1  0  0  0  0
 12 32  1  1  0  0  0
 13 33  1  0  0  0  0
 13 34  1  0  0  0  0
 14 15  2  0  0  0  0
 14 16  1  0  0  0  0
 15 19  1  0  0  0  0
 15 35  1  0  0  0  0
 16 20  2  0  0  0  0
 16 36  1  0  0  0  0
 17 18  1  0  0  0  0
 17 19  2  0  0  0  0
 17 20  1  0  0  0  0
 18 21  1  0  0  0  0
 18 37  1  0  0  0  0
 18 38  1  0  0  0  0
 19 39  1  0  0  0  0
 20 40  1  0  0  0  0
 21 22  1  0  0  0  0
 21 41  1  0  0  0  0
 21 42  1  0  0  0  0
 22 23  1  0  0  0  0
 23 43  1  0  0  0  0
 23 44  1  0  0  0  0
 23 45  1  0  0  0  0
M  END
>  <Mol_ID>
5111

>  <Formula>
C16H22O7

>  <MolWeight>
326.34168

>  <Cat>
S3222

>  <Name>
Raspberry ketone glucoside

>  <Synonyms>
RKG

>  <Target>
ROS

>  <Form>
free base

>  <CAS>
38963-94-9

>  <URL>
http://www.selleckchem.com/products/raspberry-ketone-glucoside.html

$$$$
