Raspberry Ketone
 OpenBabel08302521223D

 24 24  0  0  0  0  0  0  0  0999 V2000
   -1.8424    0.0914   -0.0598 C   0  0  0  0  0  0  0  0  0  0  0  0
   -1.1874   -1.1457    0.0388 C   0  0  0  0  0  0  0  0  0  0  0  0
   -1.0593    1.2456   -0.2297 C   0  0  0  0  0  0  0  0  0  0  0  0
   -3.3548    0.2075   -0.0395 C   0  0  0  0  0  0  0  0  0  0  0  0
    0.2087   -1.2265    0.0401 C   0  0  0  0  0  0  0  0  0  0  0  0
    0.3353    1.1668   -0.2300 C   0  0  0  0  0  0  0  0  0  0  0  0
   -4.0458   -0.8307    0.8522 C   0  0  0  0  0  0  0  0  0  0  0  0
    0.9584   -0.0651   -0.0822 C   0  0  0  0  0  0  0  0  0  0  0  0
   -5.5473   -0.6559    0.9272 C   0  0  0  0  0  0  0  0  0  0  0  0
    2.3211   -0.1000   -0.0600 O   0  0  0  0  0  0  0  0  0  0  0  0
   -6.2964   -1.6650    1.7599 C   0  0  0  0  0  0  0  0  0  0  0  0
   -6.1454    0.2214    0.3046 O   0  0  0  0  0  0  0  0  0  0  0  0
   -1.7467   -2.0727    0.1214 H   0  0  0  0  0  0  0  0  0  0  0  0
   -1.5302    2.2186   -0.3523 H   0  0  0  0  0  0  0  0  0  0  0  0
   -3.6291    1.2089    0.3173 H   0  0  0  0  0  0  0  0  0  0  0  0
   -3.7259    0.1271   -1.0690 H   0  0  0  0  0  0  0  0  0  0  0  0
    0.6799   -2.1972    0.1352 H   0  0  0  0  0  0  0  0  0  0  0  0
    0.9354    2.0657   -0.3430 H   0  0  0  0  0  0  0  0  0  0  0  0
   -3.8693   -1.8421    0.4721 H   0  0  0  0  0  0  0  0  0  0  0  0
   -3.6485   -0.7656    1.8722 H   0  0  0  0  0  0  0  0  0  0  0  0
    2.6048   -1.0133    0.1067 H   0  0  0  0  0  0  0  0  0  0  0  0
   -7.1515   -1.1815    2.2395 H   0  0  0  0  0  0  0  0  0  0  0  0
   -6.6387   -2.4831    1.1209 H   0  0  0  0  0  0  0  0  0  0  0  0
   -5.6488   -2.0665    2.5447 H   0  0  0  0  0  0  0  0  0  0  0  0
  1  2  2  0  0  0  0
  1  3  1  0  0  0  0
  1  4  1  0  0  0  0
  2  5  1  0  0  0  0
  2 13  1  0  0  0  0
  3  6  2  0  0  0  0
  3 14  1  0  0  0  0
  4  7  1  0  0  0  0
  4 15  1  0  0  0  0
  4 16  1  0  0  0  0
  5  8  2  0  0  0  0
  5 17  1  0  0  0  0
  6  8  1  0  0  0  0
  6 18  1  0  0  0  0
  7  9  1  0  0  0  0
  7 19  1  0  0  0  0
  7 20  1  0  0  0  0
  8 10  1  0  0  0  0
  9 11  1  0  0  0  0
  9 12  2  0  0  0  0
 10 21  1  0  0  0  0
 11 22  1  0  0  0  0
 11 23  1  0  0  0  0
 11 24  1  0  0  0  0
M  END
>  <Mol_ID>
4634

>  <Formula>
C10H12O2

>  <MolWeight>
164.20108

>  <Cat>
S9480

>  <Name>
Raspberry Ketone

>  <Synonyms>
p-Hydroxybenzyl acetone, Frambinone, Oxyphenylon, Rheosmin, Rasketone

>  <Target>
PPAR

>  <Form>
Free Base

>  <CAS>
5471-51-2

>  <URL>
http://www.selleckchem.com/products/raspberry-ketone.html

$$$$
