Ravoxertinib (GDC-0994)
 OpenBabel08302521353D

 49 52  0  0  0  0  0  0  0  0999 V2000
    0.7973   -0.1317    0.1194 C   0  0  1  0  0  0  0  0  0  0  0  0
    0.8303    1.2028    0.9179 C   0  0  0  0  0  0  0  0  0  0  0  0
   -0.4583    1.7280    1.2408 O   0  0  0  0  0  0  0  0  0  0  0  0
    1.9007   -2.6565   -0.3517 O   0  0  0  0  0  0  0  0  0  0  0  0
   -3.3278    0.3502   -2.5299 F   0  0  0  0  0  0  0  0  0  0  0  0
    0.9894   -6.6247    5.8989 N   0  0  0  0  0  0  0  0  0  0  0  0
    1.7752   -7.3469    8.7361 C   0  0  0  0  0  0  0  0  0  0  0  0
    0.4294   -1.3410    0.8883 N   0  0  0  0  0  0  0  0  0  0  0  0
    1.0714   -2.5357    0.5497 C   0  0  0  0  0  0  0  0  0  0  0  0
   -0.4934   -1.2969    1.9275 C   0  0  0  0  0  0  0  0  0  0  0  0
    0.7278   -3.7291    1.3635 C   0  0  0  0  0  0  0  0  0  0  0  0
   -0.7732   -2.3751    2.6642 C   0  0  0  0  0  0  0  0  0  0  0  0
   -0.1413   -3.6467    2.3860 C   0  0  0  0  0  0  0  0  0  0  0  0
    0.0466   -0.0169   -1.2061 C   0  0  0  0  0  0  0  0  0  0  0  0
   -1.3497    0.1196   -1.2634 C   0  0  0  0  0  0  0  0  0  0  0  0
    0.7599   -0.0483   -2.4191 C   0  0  0  0  0  0  0  0  0  0  0  0
   -1.9927    0.2210   -2.4945 C   0  0  0  0  0  0  0  0  0  0  0  0
    0.1039    0.0569   -3.6512 C   0  0  0  0  0  0  0  0  0  0  0  0
   -1.2821    0.1933   -3.6861 C   0  0  0  0  0  0  0  0  0  0  0  0
   -0.4360   -4.8803    3.1357 C   0  0  0  0  0  0  0  0  0  0  0  0
    0.3480   -5.1462    4.2008 N   0  0  0  0  0  0  0  0  0  0  0  0
   -1.4449   -5.7157    2.7076 C   0  0  0  0  0  0  0  0  0  0  0  0
    0.1893   -6.3418    4.7883 C   0  0  0  0  0  0  0  0  0  0  0  0
   -1.5538   -6.8949    3.3927 C   0  0  0  0  0  0  0  0  0  0  0  0
   -0.7369   -7.2372    4.4010 N   0  0  0  0  0  0  0  0  0  0  0  0
    1.4008   -7.8590    6.2758 C   0  0  0  0  0  0  0  0  0  0  0  0
    1.7932   -8.1769    7.5557 N   0  0  0  0  0  0  0  0  0  0  0  0
    1.5500   -9.0258    5.5555 C   0  0  0  0  0  0  0  0  0  0  0  0
    2.1764   -9.4659    7.6967 N   0  0  0  0  0  0  0  0  0  0  0  0
    2.0243   -9.9761    6.4738 C   0  0  0  0  0  0  0  0  0  0  0  0
    1.8549   -0.2838   -0.1402 H   0  0  0  0  0  0  0  0  0  0  0  0
    1.3714    1.0596    1.8593 H   0  0  0  0  0  0  0  0  0  0  0  0
    1.3677    1.9642    0.3403 H   0  0  0  0  0  0  0  0  0  0  0  0
   -0.5038    2.6289    0.8745 H   0  0  0  0  0  0  0  0  0  0  0  0
    1.3050   -5.7655    6.3279 H   0  0  0  0  0  0  0  0  0  0  0  0
    1.1397   -7.8288    9.4844 H   0  0  0  0  0  0  0  0  0  0  0  0
    2.8000   -7.2607    9.1074 H   0  0  0  0  0  0  0  0  0  0  0  0
    1.3790   -6.3573    8.5026 H   0  0  0  0  0  0  0  0  0  0  0  0
   -0.9788   -0.3515    2.1409 H   0  0  0  0  0  0  0  0  0  0  0  0
    1.2310   -4.6511    1.0822 H   0  0  0  0  0  0  0  0  0  0  0  0
   -1.4782   -2.3147    3.4897 H   0  0  0  0  0  0  0  0  0  0  0  0
   -1.9467    0.1469   -0.3575 H   0  0  0  0  0  0  0  0  0  0  0  0
    1.8426   -0.1729   -2.4170 H   0  0  0  0  0  0  0  0  0  0  0  0
    0.6710    0.0234   -4.5729 H   0  0  0  0  0  0  0  0  0  0  0  0
   -1.8078    0.2698   -4.6321 H   0  0  0  0  0  0  0  0  0  0  0  0
   -2.0943   -5.4767    1.8762 H   0  0  0  0  0  0  0  0  0  0  0  0
   -2.3143   -7.6307    3.1426 H   0  0  0  0  0  0  0  0  0  0  0  0
    1.3587   -9.1651    4.5029 H   0  0  0  0  0  0  0  0  0  0  0  0
    2.2691  -11.0155    6.3027 H   0  0  0  0  0  0  0  0  0  0  0  0
  1 14  1  0  0  0  0
  1 31  1  6  0  0  0
  1  8  1  0  0  0  0
  1  2  1  0  0  0  0
  2  3  1  0  0  0  0
  2 32  1  0  0  0  0
  2 33  1  0  0  0  0
  3 34  1  0  0  0  0
  4  9  2  0  0  0  0
  5 17  1  0  0  0  0
  6 23  1  0  0  0  0
  6 26  1  0  0  0  0
  6 35  1  0  0  0  0
  7 27  1  0  0  0  0
  7 36  1  0  0  0  0
  7 37  1  0  0  0  0
  7 38  1  0  0  0  0
  8  9  1  0  0  0  0
  8 10  1  0  0  0  0
  9 11  1  0  0  0  0
 10 12  2  0  0  0  0
 10 39  1  0  0  0  0
 11 13  2  0  0  0  0
 11 40  1  0  0  0  0
 12 13  1  0  0  0  0
 12 41  1  0  0  0  0
 13 20  1  0  0  0  0
 14 15  2  0  0  0  0
 14 16  1  0  0  0  0
 15 17  1  0  0  0  0
 15 42  1  0  0  0  0
 16 18  2  0  0  0  0
 16 43  1  0  0  0  0
 17 19  2  0  0  0  0
 18 19  1  0  0  0  0
 18 44  1  0  0  0  0
 19 45  1  0  0  0  0
 20 21  2  0  0  0  0
 20 22  1  0  0  0  0
 21 23  1  0  0  0  0
 22 24  2  0  0  0  0
 22 46  1  0  0  0  0
 23 25  2  0  0  0  0
 24 25  1  0  0  0  0
 24 47  1  0  0  0  0
 26 27  1  0  0  0  0
 26 28  2  0  0  0  0
 27 29  1  0  0  0  0
 28 30  1  0  0  0  0
 28 48  1  0  0  0  0
 29 30  2  0  0  0  0
 30 49  1  0  0  0  0
M  END
>  <Mol_ID>
6721

>  <Formula>
C21H18ClFN6O2

>  <MolWeight>
440.8580232

>  <Cat>
S7554

>  <Name>
Ravoxertinib (GDC-0994)

>  <Synonyms>
N/A

>  <Target>
ERK

>  <Form>
Free base

>  <CAS>
1453848-26-4

>  <URL>
http://www.selleckchem.com/products/gdc-0994.html

$$$$
