Rbin-1.cdx
 OpenBabel08302520433D

 30 32  0  0  0  0  0  0  0  0999 V2000
   -2.9370    1.1574    0.0083 C   0  0  0  0  0  0  0  0  0  0  0  0
   -3.3278   -0.1794   -0.0097 C   0  0  0  0  0  0  0  0  0  0  0  0
   -2.3806   -1.2072   -0.0107 C   0  0  0  0  0  0  0  0  0  0  0  0
   -1.0281   -0.8451    0.0108 C   0  0  0  0  0  0  0  0  0  0  0  0
   -0.6033    0.4893    0.0365 C   0  0  0  0  0  0  0  0  0  0  0  0
   -1.5801    1.5068    0.0322 C   0  0  0  0  0  0  0  0  0  0  0  0
    0.1019   -1.6357    0.0086 N   0  0  0  0  0  0  0  0  0  0  0  0
    1.2230   -0.8553    0.0312 C   0  0  0  0  0  0  0  0  0  0  0  0
    0.8194    0.4660    0.0595 C   0  0  0  0  0  0  0  0  0  0  0  0
    2.4896   -1.3005    0.0174 N   0  0  0  0  0  0  0  0  0  0  0  0
    3.3630   -0.2692    0.0346 C   0  0  0  0  0  0  0  0  0  0  0  0
    3.0350    1.0513    0.0756 N   0  0  0  0  0  0  0  0  0  0  0  0
    1.7538    1.4499    0.0932 N   0  0  0  0  0  0  0  0  0  0  0  0
    5.0808   -0.7206   -0.1135 S   0  0  0  0  0  0  0  0  0  0  0  0
    5.8473    0.5629    0.9200 C   0  0  0  0  0  0  0  0  0  0  0  0
    7.3514    0.3720    0.9801 C   0  0  0  0  0  0  0  0  0  0  0  0
    8.2012    1.2695    0.4512 C   0  0  0  0  0  0  0  0  0  0  0  0
    7.8734   -0.8363    1.7122 C   0  0  0  0  0  0  0  0  0  0  0  0
   -3.6929    1.9398    0.0039 H   0  0  0  0  0  0  0  0  0  0  0  0
   -4.3867   -0.4284   -0.0258 H   0  0  0  0  0  0  0  0  0  0  0  0
   -2.6919   -2.2478   -0.0282 H   0  0  0  0  0  0  0  0  0  0  0  0
   -1.2850    2.5529    0.0429 H   0  0  0  0  0  0  0  0  0  0  0  0
    0.1151   -2.6438   -0.0159 H   0  0  0  0  0  0  0  0  0  0  0  0
    5.6102    1.5456    0.4993 H   0  0  0  0  0  0  0  0  0  0  0  0
    5.4346    0.5262    1.9345 H   0  0  0  0  0  0  0  0  0  0  0  0
    9.2779    1.1407    0.5148 H   0  0  0  0  0  0  0  0  0  0  0  0
    7.8483    2.1588   -0.0620 H   0  0  0  0  0  0  0  0  0  0  0  0
    7.5207   -0.8356    2.7483 H   0  0  0  0  0  0  0  0  0  0  0  0
    7.5475   -1.7632    1.2311 H   0  0  0  0  0  0  0  0  0  0  0  0
    8.9691   -0.8563    1.7377 H   0  0  0  0  0  0  0  0  0  0  0  0
  1  2  2  0  0  0  0
  1 19  1  0  0  0  0
  2  3  1  0  0  0  0
  2 20  1  0  0  0  0
  3  4  2  0  0  0  0
  3 21  1  0  0  0  0
  4  5  1  0  0  0  0
  4  7  1  0  0  0  0
  5  6  2  0  0  0  0
  6  1  1  0  0  0  0
  6 22  1  0  0  0  0
  7  8  1  0  0  0  0
  7 23  1  0  0  0  0
  8  9  2  0  0  0  0
  8 10  1  0  0  0  0
  9  5  1  0  0  0  0
 10 11  2  0  0  0  0
 11 12  1  0  0  0  0
 11 14  1  0  0  0  0
 12 13  2  0  0  0  0
 13  9  1  0  0  0  0
 14 15  1  0  0  0  0
 15 16  1  0  0  0  0
 15 24  1  0  0  0  0
 15 25  1  0  0  0  0
 16 17  2  0  0  0  0
 16 18  1  0  0  0  0
 17 26  1  0  0  0  0
 17 27  1  0  0  0  0
 18 28  1  0  0  0  0
 18 29  1  0  0  0  0
 18 30  1  0  0  0  0
M  END
>  <Mol_ID>
4078

>  <Formula>
C13H12N4S

>  <MolWeight>
256.32618

>  <Cat>
S8376

>  <Name>
Rbin-1

>  <Synonyms>
Ribozinoindole-1

>  <Target>
DNA/RNA Synthesis

>  <Form>
free base

>  <CAS>
328023-11-6

>  <URL>
http://selleckchem.com/products/rbin-1.html

$$$$
