RBN012759
 OpenBabel08302521263D

 49 52  0  0  0  0  0  0  0  0999 V2000
    2.2337   -0.8145   -0.0674 C   0  0  0  0  0  0  0  0  0  0  0  0
    2.2819    0.5520    0.2045 C   0  0  0  0  0  0  0  0  0  0  0  0
    1.0814    1.2375    0.4498 C   0  0  0  0  0  0  0  0  0  0  0  0
   -0.1558    0.5711    0.4462 C   0  0  0  0  0  0  0  0  0  0  0  0
   -0.1657   -0.8109    0.2587 C   0  0  0  0  0  0  0  0  0  0  0  0
    1.0184   -1.4930   -0.0153 C   0  0  0  0  0  0  0  0  0  0  0  0
   -1.3486    1.3226    0.5274 N   0  0  0  0  0  0  0  0  0  0  0  0
   -2.4812    0.6943    0.4413 C   0  0  0  0  0  0  0  0  0  0  0  0
   -2.5609   -0.6687    0.3500 N   0  0  0  0  0  0  0  0  0  0  0  0
   -1.4675   -1.5020    0.3200 C   0  0  0  0  0  0  0  0  0  0  0  0
    3.4225    1.3157    0.2048 O   0  0  0  0  0  0  0  0  0  0  0  0
    1.0209   -2.8038   -0.2914 F   0  0  0  0  0  0  0  0  0  0  0  0
    4.6657    0.6022    0.2415 C   0  0  0  0  0  0  0  0  0  0  0  0
    5.8084    1.5745    0.1968 C   0  0  0  0  0  0  0  0  0  0  0  0
   -1.5786   -2.7174    0.3499 O   0  0  0  0  0  0  0  0  0  0  0  0
   -3.7921    1.4603    0.2960 C   0  0  0  0  0  0  0  0  0  0  0  0
   -5.1036    0.7805    1.3602 S   0  0  0  0  0  0  0  0  0  0  0  0
   -6.4821    1.9771    1.0203 C   0  0  2  0  0  0  0  0  0  0  0  0
   -7.6309    1.7296    2.0111 C   0  0  0  0  0  0  0  0  0  0  0  0
   -8.3613    0.4051    1.7617 C   0  0  0  0  0  0  0  0  0  0  0  0
   -8.8700    0.2917    0.3255 C   0  0  2  0  0  0  0  0  0  0  0  0
   -7.7876    0.6020   -0.7124 C   0  0  0  0  0  0  0  0  0  0  0  0
   -7.0314    1.8998   -0.4118 C   0  0  0  0  0  0  0  0  0  0  0  0
   -9.9515    1.2065    0.1593 O   0  0  0  0  0  0  0  0  0  0  0  0
    7.2191    1.0590    0.3642 C   0  0  0  0  0  0  0  0  0  0  0  0
    6.6059    1.9255    1.4280 C   0  0  0  0  0  0  0  0  0  0  0  0
    3.1120   -1.3904   -0.3370 H   0  0  0  0  0  0  0  0  0  0  0  0
    1.1047    2.3119    0.6252 H   0  0  0  0  0  0  0  0  0  0  0  0
   -3.4589   -1.1212    0.4097 H   0  0  0  0  0  0  0  0  0  0  0  0
    4.7125   -0.0059    1.1534 H   0  0  0  0  0  0  0  0  0  0  0  0
    4.7594   -0.0420   -0.6403 H   0  0  0  0  0  0  0  0  0  0  0  0
    5.6560    2.3431   -0.5537 H   0  0  0  0  0  0  0  0  0  0  0  0
   -3.6287    2.5175    0.5171 H   0  0  0  0  0  0  0  0  0  0  0  0
   -4.0986    1.3528   -0.7489 H   0  0  0  0  0  0  0  0  0  0  0  0
   -6.0829    2.9821    1.1998 H   0  0  0  0  0  0  0  0  0  0  0  0
   -8.3569    2.5493    1.9183 H   0  0  0  0  0  0  0  0  0  0  0  0
   -7.2702    1.7680    3.0477 H   0  0  0  0  0  0  0  0  0  0  0  0
   -9.2042    0.3360    2.4592 H   0  0  0  0  0  0  0  0  0  0  0  0
   -7.6958   -0.4369    1.9816 H   0  0  0  0  0  0  0  0  0  0  0  0
   -9.2669   -0.7165    0.1601 H   0  0  0  0  0  0  0  0  0  0  0  0
   -7.0797   -0.2316   -0.7586 H   0  0  0  0  0  0  0  0  0  0  0  0
   -8.2468    0.6939   -1.7036 H   0  0  0  0  0  0  0  0  0  0  0  0
   -7.7229    2.7416   -0.5596 H   0  0  0  0  0  0  0  0  0  0  0  0
   -6.2356    2.0445   -1.1520 H   0  0  0  0  0  0  0  0  0  0  0  0
  -10.3710    1.0091   -0.6961 H   0  0  0  0  0  0  0  0  0  0  0  0
    7.3720    0.0107    0.5948 H   0  0  0  0  0  0  0  0  0  0  0  0
    7.9958    1.4898   -0.2581 H   0  0  0  0  0  0  0  0  0  0  0  0
    6.9748    2.9412    1.5232 H   0  0  0  0  0  0  0  0  0  0  0  0
    6.3489    1.4603    2.3727 H   0  0  0  0  0  0  0  0  0  0  0  0
  1  2  2  0  0  0  0
  1 27  1  0  0  0  0
  2  3  1  0  0  0  0
  2 11  1  0  0  0  0
  3  4  2  0  0  0  0
  3 28  1  0  0  0  0
  4  5  1  0  0  0  0
  4  7  1  0  0  0  0
  5  6  2  0  0  0  0
  6  1  1  0  0  0  0
  6 12  1  0  0  0  0
  7  8  2  0  0  0  0
  8  9  1  0  0  0  0
  8 16  1  0  0  0  0
  9 10  1  0  0  0  0
  9 29  1  0  0  0  0
 10  5  1  0  0  0  0
 10 15  2  0  0  0  0
 11 13  1  0  0  0  0
 13 14  1  0  0  0  0
 13 30  1  0  0  0  0
 13 31  1  0  0  0  0
 14 25  1  0  0  0  0
 14 32  1  0  0  0  0
 16 17  1  0  0  0  0
 16 33  1  0  0  0  0
 16 34  1  0  0  0  0
 18 17  1  0  0  0  0
 18 19  1  0  0  0  0
 18 35  1  1  0  0  0
 19 20  1  0  0  0  0
 19 36  1  0  0  0  0
 19 37  1  0  0  0  0
 20 21  1  0  0  0  0
 20 38  1  0  0  0  0
 20 39  1  0  0  0  0
 21 22  1  0  0  0  0
 21 40  1  6  0  0  0
 21 24  1  0  0  0  0
 22 23  1  0  0  0  0
 22 41  1  0  0  0  0
 22 42  1  0  0  0  0
 23 18  1  0  0  0  0
 23 43  1  0  0  0  0
 23 44  1  0  0  0  0
 24 45  1  0  0  0  0
 25 26  1  0  0  0  0
 25 46  1  0  0  0  0
 25 47  1  0  0  0  0
 26 14  1  0  0  0  0
 26 48  1  0  0  0  0
 26 49  1  0  0  0  0
M  END
>  <Mol_ID>
5236

>  <Formula>
C19H23FN2O3S

>  <MolWeight>
378.4609232

>  <Cat>
S8992

>  <Name>
RBN012759

>  <Synonyms>
N/A

>  <Target>
PARP

>  <Form>
free base

>  <CAS>
2360851-29-0

>  <URL>
http://www.selleckchem.com/products/rbn012759.html

$$$$
