Rebamipide.cdx
 OpenBabel08302522013D

 41 43  0  0  0  0  0  0  0  0999 V2000
    1.5798   -0.6483   -0.2918 C   0  0  0  0  0  0  0  0  0  0  0  0
    2.8991   -0.6898    0.4504 C   0  0  0  0  0  0  0  0  0  0  0  0
    4.0235   -0.5042   -0.3234 N   0  0  0  0  0  0  0  0  0  0  0  0
    5.4031   -0.0684    0.0681 C   0  0  3  0  0  0  0  0  0  0  0  0
    5.6111    1.4568   -0.2052 C   0  0  0  0  0  0  0  0  0  0  0  0
    2.8972   -0.9325    1.6537 O   0  0  0  0  0  0  0  0  0  0  0  0
    6.1893   -0.4846    1.3247 C   0  0  0  0  0  0  0  0  0  0  0  0
    7.3394   -0.0851    1.5878 O   0  0  0  0  0  0  0  0  0  0  0  0
    5.5824   -1.3109    2.1762 O   0  0  0  0  0  0  0  0  0  0  0  0
    4.6415    2.3186    0.5612 C   0  0  0  0  0  0  0  0  0  0  0  0
    4.4338    2.1196    1.8761 C   0  0  0  0  0  0  0  0  0  0  0  0
    3.0863    2.3326    2.4517 C   0  0  0  0  0  0  0  0  0  0  0  0
    2.1160    2.7338    1.5749 N   0  0  0  0  0  0  0  0  0  0  0  0
    2.4228    3.3529    0.3617 C   0  0  0  0  0  0  0  0  0  0  0  0
    3.7128    3.2029   -0.1720 C   0  0  0  0  0  0  0  0  0  0  0  0
    1.4715    4.1515   -0.2666 C   0  0  0  0  0  0  0  0  0  0  0  0
    1.8078    4.8330   -1.4342 C   0  0  0  0  0  0  0  0  0  0  0  0
    3.0836    4.6938   -1.9832 C   0  0  0  0  0  0  0  0  0  0  0  0
    4.0327    3.8772   -1.3601 C   0  0  0  0  0  0  0  0  0  0  0  0
    2.8527    2.0704    3.6270 O   0  0  0  0  0  0  0  0  0  0  0  0
    1.4058    0.2211   -1.3818 C   0  0  0  0  0  0  0  0  0  0  0  0
    0.1990    0.2420   -2.0937 C   0  0  0  0  0  0  0  0  0  0  0  0
   -0.8524   -0.5899   -1.7182 C   0  0  0  0  0  0  0  0  0  0  0  0
   -0.7086   -1.4270   -0.6144 C   0  0  0  0  0  0  0  0  0  0  0  0
    0.4971   -1.4508    0.1056 C   0  0  0  0  0  0  0  0  0  0  0  0
    3.8353   -0.3478   -1.3026 H   0  0  0  0  0  0  0  0  0  0  0  0
    5.9845   -0.5835   -0.7132 H   0  0  0  0  0  0  0  0  0  0  0  0
    6.6413    1.7730   -0.0055 H   0  0  0  0  0  0  0  0  0  0  0  0
    5.4578    1.5905   -1.2831 H   0  0  0  0  0  0  0  0  0  0  0  0
    6.1588   -1.3618    2.9615 H   0  0  0  0  0  0  0  0  0  0  0  0
    5.0784    1.5270    2.5110 H   0  0  0  0  0  0  0  0  0  0  0  0
    1.1657    2.6837    1.9114 H   0  0  0  0  0  0  0  0  0  0  0  0
    0.4911    4.2935    0.1791 H   0  0  0  0  0  0  0  0  0  0  0  0
    1.0819    5.4927   -1.9040 H   0  0  0  0  0  0  0  0  0  0  0  0
    3.3420    5.2326   -2.8907 H   0  0  0  0  0  0  0  0  0  0  0  0
    5.0274    3.8088   -1.7938 H   0  0  0  0  0  0  0  0  0  0  0  0
    2.1820    0.9133   -1.6750 H   0  0  0  0  0  0  0  0  0  0  0  0
    0.0834    0.9192   -2.9384 H   0  0  0  0  0  0  0  0  0  0  0  0
   -1.7825   -0.5753   -2.2848 H   0  0  0  0  0  0  0  0  0  0  0  0
   -1.5401   -2.0604   -0.3125 H   0  0  0  0  0  0  0  0  0  0  0  0
    0.5873   -2.1053    0.9682 H   0  0  0  0  0  0  0  0  0  0  0  0
  1  2  1  0  0  0  0
  1 21  2  0  0  0  0
  2  3  1  0  0  0  0
  2  6  2  0  0  0  0
  3  4  1  0  0  0  0
  3 26  1  0  0  0  0
  4  5  1  0  0  0  0
  4  7  1  0  0  0  0
  4 27  1  0  0  0  0
  5 10  1  0  0  0  0
  5 28  1  0  0  0  0
  5 29  1  0  0  0  0
  7  8  2  0  0  0  0
  7  9  1  0  0  0  0
  9 30  1  0  0  0  0
 10 11  2  0  0  0  0
 11 12  1  0  0  0  0
 11 31  1  0  0  0  0
 12 13  1  0  0  0  0
 12 20  2  0  0  0  0
 13 14  1  0  0  0  0
 13 32  1  0  0  0  0
 14 15  2  0  0  0  0
 14 16  1  0  0  0  0
 15 10  1  0  0  0  0
 16 17  2  0  0  0  0
 16 33  1  0  0  0  0
 17 18  1  0  0  0  0
 17 34  1  0  0  0  0
 18 19  2  0  0  0  0
 18 35  1  0  0  0  0
 19 15  1  0  0  0  0
 19 36  1  0  0  0  0
 21 22  1  0  0  0  0
 21 37  1  0  0  0  0
 22 23  2  0  0  0  0
 22 38  1  0  0  0  0
 23 24  1  0  0  0  0
 23 39  1  0  0  0  0
 24 25  2  0  0  0  0
 24 40  1  0  0  0  0
 25  1  1  0  0  0  0
 25 41  1  0  0  0  0
M  END
>  <Mol_ID>
1126

>  <Formula>
C19H15ClN2O4

>  <MolWeight>
370.7864

>  <Cat>
S2032

>  <Name>
Rebamipide

>  <Synonyms>
OPC-12759,Proamipide

>  <Target>
CCK receptor

>  <Form>
free base

>  <CAS>
90098-04-7

>  <URL>
http://selleckchem.com/products/rebamipide.html

$$$$
