Rebamipide mofetil
 OpenBabel08302521333D

 60 63  0  0  0  0  0  0  0  0999 V2000
    0.5428   -0.1098    0.0745 C   0  0  0  0  0  0  0  0  0  0  0  0
   -0.2661    0.0509   -1.2262 C   0  0  3  0  0  0  0  0  0  0  0  0
    0.2761   -1.3242    0.9465 C   0  0  0  0  0  0  0  0  0  0  0  0
   -0.0998   -1.0317   -2.2300 N   0  0  0  0  0  0  0  0  0  0  0  0
   -1.7514    0.4661   -1.0092 C   0  0  0  0  0  0  0  0  0  0  0  0
    1.3979   -1.8984    1.7434 C   0  0  0  0  0  0  0  0  0  0  0  0
   -0.8966   -1.9896    0.9393 C   0  0  0  0  0  0  0  0  0  0  0  0
    0.7315   -2.1383   -2.1730 C   0  0  0  0  0  0  0  0  0  0  0  0
   -1.9094    1.1806    0.1420 O   0  0  0  0  0  0  0  0  0  0  0  0
   -2.6391    0.2792   -1.8328 O   0  0  0  0  0  0  0  0  0  0  0  0
    1.1604   -3.0460    2.5179 C   0  0  0  0  0  0  0  0  0  0  0  0
    2.7072   -1.3862    1.7215 C   0  0  0  0  0  0  0  0  0  0  0  0
   -1.1224   -3.2291    1.7059 C   0  0  0  0  0  0  0  0  0  0  0  0
    1.4686   -2.4707   -1.2626 O   0  0  0  0  0  0  0  0  0  0  0  0
    0.7264   -2.9805   -3.3857 C   0  0  0  0  0  0  0  0  0  0  0  0
   -3.1003    1.9886    0.3047 C   0  0  0  0  0  0  0  0  0  0  0  0
   -0.0999   -3.6550    2.4859 N   0  0  0  0  0  0  0  0  0  0  0  0
    2.1723   -3.6247    3.2854 C   0  0  0  0  0  0  0  0  0  0  0  0
    3.7290   -1.9804    2.4671 C   0  0  0  0  0  0  0  0  0  0  0  0
   -2.1945   -3.8201    1.6327 O   0  0  0  0  0  0  0  0  0  0  0  0
    1.0412   -2.3996   -4.6163 C   0  0  0  0  0  0  0  0  0  0  0  0
    0.4536   -4.3501   -3.2931 C   0  0  0  0  0  0  0  0  0  0  0  0
   -4.3128    1.2132    0.8605 C   0  0  0  0  0  0  0  0  0  0  0  0
    3.4569   -3.0872    3.2617 C   0  0  0  0  0  0  0  0  0  0  0  0
    1.0143   -3.1767   -5.7716 C   0  0  0  0  0  0  0  0  0  0  0  0
    0.4227   -5.1226   -4.4560 C   0  0  0  0  0  0  0  0  0  0  0  0
   -5.4512    2.0839    1.2466 N   0  0  0  0  0  0  0  0  0  0  0  0
    0.6867   -4.5313   -5.6937 C   0  0  0  0  0  0  0  0  0  0  0  0
   -5.1970    2.9004    2.4583 C   0  0  0  0  0  0  0  0  0  0  0  0
   -6.6777    1.2924    1.5247 C   0  0  0  0  0  0  0  0  0  0  0  0
   -5.1308    2.0794    3.7579 C   0  0  0  0  0  0  0  0  0  0  0  0
   -6.6159    0.4846    2.8344 C   0  0  0  0  0  0  0  0  0  0  0  0
   -6.3328    1.3267    3.9602 O   0  0  0  0  0  0  0  0  0  0  0  0
    0.4347    0.7855    0.7014 H   0  0  0  0  0  0  0  0  0  0  0  0
    1.5841   -0.1000   -0.2622 H   0  0  0  0  0  0  0  0  0  0  0  0
    0.1533    0.9296   -1.7381 H   0  0  0  0  0  0  0  0  0  0  0  0
   -0.6313   -0.9031   -3.0844 H   0  0  0  0  0  0  0  0  0  0  0  0
   -1.7480   -1.7059    0.3392 H   0  0  0  0  0  0  0  0  0  0  0  0
    2.9874   -0.5438    1.0974 H   0  0  0  0  0  0  0  0  0  0  0  0
   -2.8007    2.7673    1.0126 H   0  0  0  0  0  0  0  0  0  0  0  0
   -3.3447    2.4939   -0.6364 H   0  0  0  0  0  0  0  0  0  0  0  0
   -0.2546   -4.5188    2.9910 H   0  0  0  0  0  0  0  0  0  0  0  0
    1.9747   -4.5077    3.8840 H   0  0  0  0  0  0  0  0  0  0  0  0
    4.7412   -1.5836    2.4092 H   0  0  0  0  0  0  0  0  0  0  0  0
    1.3305   -1.3538   -4.6698 H   0  0  0  0  0  0  0  0  0  0  0  0
    0.2605   -4.8113   -2.3268 H   0  0  0  0  0  0  0  0  0  0  0  0
   -4.6456    0.5302    0.0688 H   0  0  0  0  0  0  0  0  0  0  0  0
   -3.9883    0.5693    1.6851 H   0  0  0  0  0  0  0  0  0  0  0  0
    4.2476   -3.5473    3.8467 H   0  0  0  0  0  0  0  0  0  0  0  0
    1.2528   -2.7273   -6.7317 H   0  0  0  0  0  0  0  0  0  0  0  0
    0.1930   -6.1844   -4.4000 H   0  0  0  0  0  0  0  0  0  0  0  0
    0.6484   -5.1304   -6.6005 H   0  0  0  0  0  0  0  0  0  0  0  0
   -6.0297    3.6127    2.5509 H   0  0  0  0  0  0  0  0  0  0  0  0
   -4.3007    3.5163    2.3469 H   0  0  0  0  0  0  0  0  0  0  0  0
   -7.5132    2.0018    1.6048 H   0  0  0  0  0  0  0  0  0  0  0  0
   -6.9195    0.6394    0.6791 H   0  0  0  0  0  0  0  0  0  0  0  0
   -4.2704    1.4018    3.7674 H   0  0  0  0  0  0  0  0  0  0  0  0
   -5.0221    2.7551    4.6125 H   0  0  0  0  0  0  0  0  0  0  0  0
   -7.5867    0.0131    3.0204 H   0  0  0  0  0  0  0  0  0  0  0  0
   -5.8681   -0.3139    2.7820 H   0  0  0  0  0  0  0  0  0  0  0  0
  1  2  1  0  0  0  0
  1  3  1  0  0  0  0
  1 34  1  0  0  0  0
  1 35  1  0  0  0  0
  2  4  1  0  0  0  0
  2  5  1  0  0  0  0
  2 36  1  0  0  0  0
  3  6  1  0  0  0  0
  3  7  2  0  0  0  0
  4  8  1  0  0  0  0
  4 37  1  0  0  0  0
  5  9  1  0  0  0  0
  5 10  2  0  0  0  0
  6 11  2  0  0  0  0
  6 12  1  0  0  0  0
  7 13  1  0  0  0  0
  7 38  1  0  0  0  0
  8 14  2  0  0  0  0
  8 15  1  0  0  0  0
  9 16  1  0  0  0  0
 11 17  1  0  0  0  0
 11 18  1  0  0  0  0
 12 19  2  0  0  0  0
 12 39  1  0  0  0  0
 13 17  1  0  0  0  0
 13 20  2  0  0  0  0
 15 21  2  0  0  0  0
 15 22  1  0  0  0  0
 16 23  1  0  0  0  0
 16 40  1  0  0  0  0
 16 41  1  0  0  0  0
 17 42  1  0  0  0  0
 18 24  2  0  0  0  0
 18 43  1  0  0  0  0
 19 24  1  0  0  0  0
 19 44  1  0  0  0  0
 21 25  1  0  0  0  0
 21 45  1  0  0  0  0
 22 26  2  0  0  0  0
 22 46  1  0  0  0  0
 23 27  1  0  0  0  0
 23 47  1  0  0  0  0
 23 48  1  0  0  0  0
 24 49  1  0  0  0  0
 25 28  2  0  0  0  0
 25 50  1  0  0  0  0
 26 28  1  0  0  0  0
 26 51  1  0  0  0  0
 27 29  1  0  0  0  0
 27 30  1  0  0  0  0
 28 52  1  0  0  0  0
 29 31  1  0  0  0  0
 29 53  1  0  0  0  0
 29 54  1  0  0  0  0
 30 32  1  0  0  0  0
 30 55  1  0  0  0  0
 30 56  1  0  0  0  0
 31 33  1  0  0  0  0
 31 57  1  0  0  0  0
 31 58  1  0  0  0  0
 32 33  1  0  0  0  0
 32 59  1  0  0  0  0
 32 60  1  0  0  0  0
M  END
>  <Mol_ID>
6377

>  <Formula>
C25H26ClN3O5

>  <MolWeight>
483.94404

>  <Cat>
E0948

>  <Name>
Rebamipide mofetil

>  <Target>
Procollagen C Proteinase

>  <Form>
free base

>  <CAS>
1527495-76-6

>  <URL>
http://www.selleckchem.com/products/rebamipide-mofetil.html

$$$$
