Recilisib
 OpenBabel08302521383D

 35 36  0  0  0  0  0  0  0  0999 V2000
    1.0678    0.0380   -0.0598 C   0  0  0  0  0  0  0  0  0  0  0  0
    0.5099   -0.8763    0.7500 C   0  0  0  0  0  0  0  0  0  0  0  0
    1.5152   -2.0250    1.6081 S   0  0  0  0  0  0  0  0  0  0  0  0
    2.4961   -0.9448    2.6454 C   0  0  0  0  0  0  0  0  0  0  0  0
    0.6353   -2.8083    2.4506 O   0  0  0  0  0  0  0  0  0  0  0  0
    2.3808   -2.6679    0.6343 O   0  0  0  0  0  0  0  0  0  0  0  0
   -2.0462    3.9894   -2.8728 C   0  0  0  0  0  0  0  0  0  0  0  0
   -2.9580    3.5289   -3.7533 O   0  0  0  0  0  0  0  0  0  0  0  0
   -1.8962    5.1763   -2.6348 O   0  0  0  0  0  0  0  0  0  0  0  0
    0.2598    1.0235   -0.7802 C   0  0  0  0  0  0  0  0  0  0  0  0
   -0.0374    2.2584   -0.1931 C   0  0  0  0  0  0  0  0  0  0  0  0
   -0.2046    0.7518   -2.0735 C   0  0  0  0  0  0  0  0  0  0  0  0
   -0.7962    3.2067   -0.8879 C   0  0  0  0  0  0  0  0  0  0  0  0
   -0.9588    1.7016   -2.7735 C   0  0  0  0  0  0  0  0  0  0  0  0
   -1.2717    2.9296   -2.1765 C   0  0  0  0  0  0  0  0  0  0  0  0
    3.4250   -1.6783    3.5849 C   0  0  0  0  0  0  0  0  0  0  0  0
    4.4465   -2.5247    3.1276 C   0  0  0  0  0  0  0  0  0  0  0  0
    3.3749   -1.3812    4.9587 C   0  0  0  0  0  0  0  0  0  0  0  0
    5.3930   -3.0478    4.0165 C   0  0  0  0  0  0  0  0  0  0  0  0
    4.3251   -1.8971    5.8428 C   0  0  0  0  0  0  0  0  0  0  0  0
    5.3382   -2.7253    5.3709 C   0  0  0  0  0  0  0  0  0  0  0  0
    2.1413    0.0931   -0.2267 H   0  0  0  0  0  0  0  0  0  0  0  0
   -0.5579   -0.9591    0.9031 H   0  0  0  0  0  0  0  0  0  0  0  0
    3.0896   -0.2879    2.0035 H   0  0  0  0  0  0  0  0  0  0  0  0
    1.7822   -0.3368    3.2118 H   0  0  0  0  0  0  0  0  0  0  0  0
   -3.1130    2.5680   -3.7371 H   0  0  0  0  0  0  0  0  0  0  0  0
    0.3282    2.5035    0.8025 H   0  0  0  0  0  0  0  0  0  0  0  0
    0.0372   -0.1963   -2.5522 H   0  0  0  0  0  0  0  0  0  0  0  0
   -1.0098    4.1690   -0.4245 H   0  0  0  0  0  0  0  0  0  0  0  0
   -1.2592    1.4767   -3.7951 H   0  0  0  0  0  0  0  0  0  0  0  0
    4.5412   -2.7725    2.0716 H   0  0  0  0  0  0  0  0  0  0  0  0
    2.6083   -0.7179    5.3532 H   0  0  0  0  0  0  0  0  0  0  0  0
    6.1864   -3.6926    3.6482 H   0  0  0  0  0  0  0  0  0  0  0  0
    4.2832   -1.6369    6.8976 H   0  0  0  0  0  0  0  0  0  0  0  0
    6.0879   -3.1137    6.0561 H   0  0  0  0  0  0  0  0  0  0  0  0
  1  2  2  0  0  0  0
  1 10  1  0  0  0  0
  1 22  1  0  0  0  0
  2  3  1  0  0  0  0
  2 23  1  0  0  0  0
  3  4  1  0  0  0  0
  3  5  2  0  0  0  0
  3  6  2  0  0  0  0
  4 16  1  0  0  0  0
  4 24  1  0  0  0  0
  4 25  1  0  0  0  0
  7  8  1  0  0  0  0
  7  9  2  0  0  0  0
  7 15  1  0  0  0  0
  8 26  1  0  0  0  0
 10 11  2  0  0  0  0
 10 12  1  0  0  0  0
 11 13  1  0  0  0  0
 11 27  1  0  0  0  0
 12 14  2  0  0  0  0
 12 28  1  0  0  0  0
 13 15  2  0  0  0  0
 13 29  1  0  0  0  0
 14 15  1  0  0  0  0
 14 30  1  0  0  0  0
 16 17  2  0  0  0  0
 16 18  1  0  0  0  0
 17 19  1  0  0  0  0
 17 31  1  0  0  0  0
 18 20  2  0  0  0  0
 18 32  1  0  0  0  0
 19 21  2  0  0  0  0
 19 33  1  0  0  0  0
 20 21  1  0  0  0  0
 20 34  1  0  0  0  0
 21 35  1  0  0  0  0
M  END
>  <Mol_ID>
7617

>  <Formula>
C16H13ClO4S

>  <MolWeight>
336.79002

>  <Cat>
E2947

>  <Name>
Recilisib

>  <Synonyms>
ON 01210, EX-RAD

>  <Target>
AKT

>  <Form>
chloride

>  <CAS>
334969-03-8

>  <URL>
https://www.selleckchem.com/products/recilisib.html

$$$$
