Relebactam
 OpenBabel08302521243D

 43 45  0  0  0  0  0  0  0  0999 V2000
    1.6047   -1.0019    0.1035 C   0  0  2  0  0  0  0  0  0  0  0  0
    0.5423   -1.7005   -0.7793 C   0  0  0  0  0  0  0  0  0  0  0  0
   -0.7811   -0.9077   -0.9038 C   0  0  0  0  0  0  0  0  0  0  0  0
   -1.1504   -0.0422    0.3372 C   0  0  2  0  0  0  0  0  0  0  0  0
    0.0450    0.3148    1.1167 N   0  0  0  0  0  0  0  0  0  0  0  0
    0.9222   -0.7952    1.4388 C   0  0  0  0  0  0  0  0  0  0  0  0
    1.8807    0.3777   -0.3062 N   0  0  0  0  0  0  0  0  0  0  0  0
    0.8775    1.1978    0.3327 C   0  0  0  0  0  0  0  0  0  0  0  0
    3.1175    0.8123    0.3034 O   0  0  0  0  0  0  0  0  0  0  0  0
    4.1743    1.5817   -0.6972 S   0  0  0  0  0  0  0  0  0  0  0  0
    5.2886    2.0468    0.1015 O   0  0  0  0  0  0  0  0  0  0  0  0
    4.4016    0.7544   -1.8597 O   0  0  0  0  0  0  0  0  0  0  0  0
    3.4160    2.9077   -1.1956 O   0  0  0  0  0  0  0  0  0  0  0  0
    0.7348    2.4048    0.2328 O   0  0  0  0  0  0  0  0  0  0  0  0
   -2.3621   -0.6038    1.1210 C   0  0  0  0  0  0  0  0  0  0  0  0
   -2.4141   -0.2639    2.4592 N   0  0  0  0  0  0  0  0  0  0  0  0
   -3.6605   -0.3619    3.2242 C   0  0  0  0  0  0  0  0  0  0  0  0
   -3.6959    0.6246    4.3941 C   0  0  0  0  0  0  0  0  0  0  0  0
   -2.8549    0.1481    5.5737 C   0  0  0  0  0  0  0  0  0  0  0  0
   -3.2465   -1.1847    6.0281 N   0  0  0  0  0  0  0  0  0  0  0  0
   -3.1620   -2.1703    4.9495 C   0  0  0  0  0  0  0  0  0  0  0  0
   -3.9715   -1.7807    3.7157 C   0  0  0  0  0  0  0  0  0  0  0  0
   -3.3055   -1.1503    0.5502 O   0  0  0  0  0  0  0  0  0  0  0  0
    2.5256   -1.5924    0.1472 H   0  0  0  0  0  0  0  0  0  0  0  0
    0.9358   -1.9146   -1.7795 H   0  0  0  0  0  0  0  0  0  0  0  0
    0.3115   -2.6751   -0.3253 H   0  0  0  0  0  0  0  0  0  0  0  0
   -1.5887   -1.5974   -1.1759 H   0  0  0  0  0  0  0  0  0  0  0  0
   -0.6707   -0.2331   -1.7629 H   0  0  0  0  0  0  0  0  0  0  0  0
   -1.5476    0.9083   -0.0526 H   0  0  0  0  0  0  0  0  0  0  0  0
    1.6455   -0.4575    2.1927 H   0  0  0  0  0  0  0  0  0  0  0  0
    0.3790   -1.6599    1.8308 H   0  0  0  0  0  0  0  0  0  0  0  0
    4.0919    3.5903   -1.3803 H   0  0  0  0  0  0  0  0  0  0  0  0
   -1.5950    0.1804    2.8627 H   0  0  0  0  0  0  0  0  0  0  0  0
   -4.4594   -0.0735    2.5283 H   0  0  0  0  0  0  0  0  0  0  0  0
   -3.3586    1.6164    4.0715 H   0  0  0  0  0  0  0  0  0  0  0  0
   -4.7367    0.7379    4.7269 H   0  0  0  0  0  0  0  0  0  0  0  0
   -1.7900    0.1552    5.3141 H   0  0  0  0  0  0  0  0  0  0  0  0
   -2.9759    0.8502    6.4064 H   0  0  0  0  0  0  0  0  0  0  0  0
   -4.2006   -1.1552    6.3894 H   0  0  0  0  0  0  0  0  0  0  0  0
   -2.1129   -2.3349    4.6798 H   0  0  0  0  0  0  0  0  0  0  0  0
   -3.5373   -3.1272    5.3318 H   0  0  0  0  0  0  0  0  0  0  0  0
   -5.0387   -1.8296    3.9741 H   0  0  0  0  0  0  0  0  0  0  0  0
   -3.8098   -2.5183    2.9216 H   0  0  0  0  0  0  0  0  0  0  0  0
  1  2  1  0  0  0  0
  1  7  1  0  0  0  0
  1 24  1  1  0  0  0
  2  3  1  0  0  0  0
  2 25  1  0  0  0  0
  2 26  1  0  0  0  0
  3  4  1  0  0  0  0
  3 27  1  0  0  0  0
  3 28  1  0  0  0  0
  4  5  1  0  0  0  0
  4 29  1  6  0  0  0
  4 15  1  0  0  0  0
  5  6  1  0  0  0  0
  5  8  1  0  0  0  0
  6  1  1  0  0  0  0
  6 30  1  0  0  0  0
  6 31  1  0  0  0  0
  7  9  1  0  0  0  0
  8  7  1  0  0  0  0
  8 14  2  0  0  0  0
  9 10  1  0  0  0  0
 10 11  2  0  0  0  0
 10 12  2  0  0  0  0
 10 13  1  0  0  0  0
 13 32  1  0  0  0  0
 15 16  1  0  0  0  0
 15 23  2  0  0  0  0
 16 17  1  0  0  0  0
 16 33  1  0  0  0  0
 17 18  1  0  0  0  0
 17 34  1  0  0  0  0
 18 19  1  0  0  0  0
 18 35  1  0  0  0  0
 18 36  1  0  0  0  0
 19 20  1  0  0  0  0
 19 37  1  0  0  0  0
 19 38  1  0  0  0  0
 20 21  1  0  0  0  0
 20 39  1  0  0  0  0
 21 22  1  0  0  0  0
 21 40  1  0  0  0  0
 21 41  1  0  0  0  0
 22 17  1  0  0  0  0
 22 42  1  0  0  0  0
 22 43  1  0  0  0  0
M  END
>  <Mol_ID>
5034

>  <Formula>
C12H20N4O6S

>  <MolWeight>
348.3754

>  <Cat>
S0074

>  <Name>
Relebactam

>  <Synonyms>
MK-7655

>  <Target>
¦Â-lactamase

>  <Form>
free base

>  <CAS>
1174018-99-5

>  <URL>
http://www.selleckchem.com/products/relebactam.html

$$$$
