RepSox (E-616452, SJN 2511).cdx
 OpenBabel08302519573D

 35 38  0  0  0  0  0  0  0  0999 V2000
   -2.3949    0.6133   -0.6819 N   0  0  0  0  0  0  0  0  0  0  0  0
   -2.3429   -0.6060   -0.0933 C   0  0  0  0  0  0  0  0  0  0  0  0
   -1.1520   -1.1580    0.3581 C   0  0  0  0  0  0  0  0  0  0  0  0
    0.0173   -0.4086    0.2635 C   0  0  0  0  0  0  0  0  0  0  0  0
    0.0025    0.8492   -0.3050 C   0  0  0  0  0  0  0  0  0  0  0  0
    1.1514    1.5489   -0.3944 N   0  0  0  0  0  0  0  0  0  0  0  0
    1.0905    2.7648   -0.9728 C   0  0  0  0  0  0  0  0  0  0  0  0
   -0.0760    3.3139   -1.4638 C   0  0  0  0  0  0  0  0  0  0  0  0
   -1.2493    2.5717   -1.3548 C   0  0  0  0  0  0  0  0  0  0  0  0
   -1.2457    1.3148   -0.7723 C   0  0  0  0  0  0  0  0  0  0  0  0
   -5.5867   -2.0823   -0.5281 N   0  0  0  0  0  0  0  0  0  0  0  0
   -5.3009   -2.7406    0.6042 N   0  0  0  0  0  0  0  0  0  0  0  0
   -4.1031   -2.2486    0.9866 C   0  0  0  0  0  0  0  0  0  0  0  0
   -3.5997   -1.3302    0.0065 C   0  0  0  0  0  0  0  0  0  0  0  0
   -4.6036   -1.2391   -0.9368 C   0  0  0  0  0  0  0  0  0  0  0  0
   -3.4825   -2.6562    2.2561 C   0  0  0  0  0  0  0  0  0  0  0  0
   -3.7079   -3.9179    2.7914 C   0  0  0  0  0  0  0  0  0  0  0  0
   -3.0844   -4.2538    3.9898 C   0  0  0  0  0  0  0  0  0  0  0  0
   -2.2542   -3.3270    4.6149 C   0  0  0  0  0  0  0  0  0  0  0  0
   -2.0707   -2.0858    4.0191 C   0  0  0  0  0  0  0  0  0  0  0  0
   -2.6747   -1.7449    2.8575 N   0  0  0  0  0  0  0  0  0  0  0  0
   -1.1665   -1.0567    4.6262 C   0  0  0  0  0  0  0  0  0  0  0  0
   -1.1141   -2.1482    0.7974 H   0  0  0  0  0  0  0  0  0  0  0  0
    0.9503   -0.8152    0.6426 H   0  0  0  0  0  0  0  0  0  0  0  0
    2.0347    3.2975   -1.0329 H   0  0  0  0  0  0  0  0  0  0  0  0
   -0.0793    4.2974   -1.9231 H   0  0  0  0  0  0  0  0  0  0  0  0
   -2.1852    2.9766   -1.7302 H   0  0  0  0  0  0  0  0  0  0  0  0
   -6.4762   -2.2682   -0.9792 H   0  0  0  0  0  0  0  0  0  0  0  0
   -4.6901   -0.6572   -1.8430 H   0  0  0  0  0  0  0  0  0  0  0  0
   -4.3525   -4.6282    2.2838 H   0  0  0  0  0  0  0  0  0  0  0  0
   -3.2463   -5.2323    4.4323 H   0  0  0  0  0  0  0  0  0  0  0  0
   -1.7647   -3.5766    5.5499 H   0  0  0  0  0  0  0  0  0  0  0  0
   -0.3325   -0.8496    3.9491 H   0  0  0  0  0  0  0  0  0  0  0  0
   -1.7207   -0.1290    4.7990 H   0  0  0  0  0  0  0  0  0  0  0  0
   -0.7543   -1.3910    5.5834 H   0  0  0  0  0  0  0  0  0  0  0  0
  1  2  2  0  0  0  0
  1 10  1  0  0  0  0
  2  3  1  0  0  0  0
  2 14  1  0  0  0  0
  3  4  2  0  0  0  0
  3 23  1  0  0  0  0
  4  5  1  0  0  0  0
  4 24  1  0  0  0  0
  5  6  1  0  0  0  0
  5 10  2  0  0  0  0
  6  7  2  0  0  0  0
  7  8  1  0  0  0  0
  7 25  1  0  0  0  0
  8  9  2  0  0  0  0
  8 26  1  0  0  0  0
  9 10  1  0  0  0  0
  9 27  1  0  0  0  0
 11 12  1  0  0  0  0
 11 15  1  0  0  0  0
 11 28  1  0  0  0  0
 12 13  2  0  0  0  0
 13 14  1  0  0  0  0
 13 16  1  0  0  0  0
 14 15  2  0  0  0  0
 15 29  1  0  0  0  0
 16 17  2  0  0  0  0
 16 21  1  0  0  0  0
 17 18  1  0  0  0  0
 17 30  1  0  0  0  0
 18 19  2  0  0  0  0
 18 31  1  0  0  0  0
 19 20  1  0  0  0  0
 19 32  1  0  0  0  0
 20 21  2  0  0  0  0
 20 22  1  0  0  0  0
 22 33  1  0  0  0  0
 22 34  1  0  0  0  0
 22 35  1  0  0  0  0
M  END
>  <Mol_ID>
2254

>  <Formula>
C17H13N5

>  <MolWeight>
287.31862

>  <Cat>
S7223

>  <Name>
RepSox (E-616452)

>  <Synonyms>
SJN 2511,ALK5 Inhibitor II

>  <Target>
TGF-beta/Smad

>  <Form>
free base

>  <CAS>
446859-33-2

>  <URL>
http://selleckchem.com/products/repsox.html

$$$$
