Reptoside
 OpenBabel08302521563D

 53 55  0  0  1  0  0  0  0  0999 V2000
    0.8101    0.1074    0.4483 O   0  0  0  0  0  0  0  0  0  0  0  0
    0.1112    0.3210   -0.6882 C   0  0  0  0  0  0  0  0  0  0  0  0
   -1.3661    0.2003   -0.4033 C   0  0  0  0  0  0  0  0  0  0  0  0
    0.5689    0.6117   -1.7766 O   0  0  0  0  0  0  0  0  0  0  0  0
    2.4197    0.4035    2.0926 C   0  0  0  0  0  0  0  0  0  0  0  0
    3.4186   -0.3535   -2.3886 O   0  0  0  0  0  0  0  0  0  0  0  0
    1.6045   -2.6076   -0.9823 O   0  0  0  0  0  0  0  0  0  0  0  0
   -1.0016   -5.2624   -0.6879 O   0  0  0  0  0  0  0  0  0  0  0  0
    2.8854   -4.5830   -3.3679 C   0  0  0  0  0  0  0  0  0  0  0  0
    4.0009   -5.3240   -2.8427 O   0  0  0  0  0  0  0  0  0  0  0  0
   -0.3953   -2.4098   -2.9509 O   0  0  0  0  0  0  0  0  0  0  0  0
    0.4380   -4.1850   -4.7118 O   0  0  0  0  0  0  0  0  0  0  0  0
    3.1239   -0.8312    0.0416 C   0  0  3  0  0  0  0  0  0  0  0  0
    2.2287    0.3044    0.5549 C   0  0  3  0  0  0  0  0  0  0  0  0
    3.9909   -0.2801   -1.0948 C   0  0  3  0  0  0  0  0  0  0  0  0
    2.7181   -2.3035   -0.1240 C   0  0  3  0  0  0  0  0  0  0  0  0
    2.8117    1.6002   -0.0651 C   0  0  0  0  0  0  0  0  0  0  0  0
    4.1489    1.2019   -0.7258 C   0  0  0  0  0  0  0  0  0  0  0  0
    5.1936   -1.1688   -1.1070 C   0  0  0  0  0  0  0  0  0  0  0  0
    3.8869   -3.1076   -0.4400 O   0  0  0  0  0  0  0  0  0  0  0  0
    5.0527   -2.4728   -0.8097 C   0  0  0  0  0  0  0  0  0  0  0  0
    1.0376   -3.9080   -0.6937 C   0  0  3  0  0  0  0  0  0  0  0  0
    1.7286   -4.9953   -1.3097 O   0  0  0  0  0  0  0  0  0  0  0  0
   -0.4603   -3.9839   -1.0684 C   0  0  3  0  0  0  0  0  0  0  0  0
    1.6060   -5.1327   -2.7360 C   0  0  3  0  0  0  0  0  0  0  0  0
   -0.6198   -3.7695   -2.5670 C   0  0  3  0  0  0  0  0  0  0  0  0
    0.2693   -4.7075   -3.3882 C   0  0  3  0  0  0  0  0  0  0  0  0
   -1.8460    1.1668   -0.5560 H   0  0  0  0  0  0  0  0  0  0  0  0
   -1.8000   -0.5569   -1.0617 H   0  0  0  0  0  0  0  0  0  0  0  0
   -1.5363   -0.1073    0.6309 H   0  0  0  0  0  0  0  0  0  0  0  0
    1.8234    1.2232    2.5096 H   0  0  0  0  0  0  0  0  0  0  0  0
    2.0785   -0.5158    2.5822 H   0  0  0  0  0  0  0  0  0  0  0  0
    3.4661    0.5744    2.3699 H   0  0  0  0  0  0  0  0  0  0  0  0
    4.1217   -0.0774   -3.0327 H   0  0  0  0  0  0  0  0  0  0  0  0
   -1.8974   -5.3499   -1.0583 H   0  0  0  0  0  0  0  0  0  0  0  0
    2.9003   -4.7006   -4.4537 H   0  0  0  0  0  0  0  0  0  0  0  0
    3.0429   -3.5334   -3.1117 H   0  0  0  0  0  0  0  0  0  0  0  0
    3.8240   -5.3965   -1.8829 H   0  0  0  0  0  0  0  0  0  0  0  0
    0.5291   -2.1694   -2.7188 H   0  0  0  0  0  0  0  0  0  0  0  0
   -0.0928   -3.3625   -4.7600 H   0  0  0  0  0  0  0  0  0  0  0  0
    3.8576   -0.9192    0.8659 H   0  0  0  0  0  0  0  0  0  0  0  0
    2.4254   -2.6134    0.8874 H   0  0  0  0  0  0  0  0  0  0  0  0
    3.0023    2.3735    0.6926 H   0  0  0  0  0  0  0  0  0  0  0  0
    2.1456    2.0709   -0.7922 H   0  0  0  0  0  0  0  0  0  0  0  0
    4.9777    1.3728   -0.0285 H   0  0  0  0  0  0  0  0  0  0  0  0
    4.3155    1.8388   -1.6057 H   0  0  0  0  0  0  0  0  0  0  0  0
    6.1697   -0.7650   -1.3561 H   0  0  0  0  0  0  0  0  0  0  0  0
    5.8719   -3.1827   -0.8303 H   0  0  0  0  0  0  0  0  0  0  0  0
    1.0913   -4.1007    0.3847 H   0  0  0  0  0  0  0  0  0  0  0  0
   -1.0111   -3.2119   -0.5209 H   0  0  0  0  0  0  0  0  0  0  0  0
    1.6624   -6.2212   -2.8873 H   0  0  0  0  0  0  0  0  0  0  0  0
   -1.6612   -3.9748   -2.8484 H   0  0  0  0  0  0  0  0  0  0  0  0
   -0.3071   -5.6341   -3.5183 H   0  0  0  0  0  0  0  0  0  0  0  0
  1  2  1  0  0  0  0
  2  3  1  0  0  0  0
  2  4  2  0  0  0  0
  3 28  1  0  0  0  0
  3 29  1  0  0  0  0
  3 30  1  0  0  0  0
  5 31  1  0  0  0  0
  5 32  1  0  0  0  0
  5 33  1  0  0  0  0
  6 34  1  0  0  0  0
  8 35  1  0  0  0  0
  9 10  1  0  0  0  0
  9 36  1  0  0  0  0
  9 37  1  0  0  0  0
 10 38  1  0  0  0  0
 11 39  1  0  0  0  0
 12 40  1  0  0  0  0
 13 14  1  0  0  0  0
 13 15  1  0  0  0  0
 13 16  1  0  0  0  0
 13 41  1  0  0  0  0
 14  1  1  0  0  0  0
 14  5  1  0  0  0  0
 14 17  1  0  0  0  0
 15  6  1  0  0  0  0
 15 18  1  0  0  0  0
 15 19  1  0  0  0  0
 16  7  1  0  0  0  0
 16 20  1  0  0  0  0
 16 42  1  0  0  0  0
 17 18  1  0  0  0  0
 17 43  1  0  0  0  0
 17 44  1  0  0  0  0
 18 45  1  0  0  0  0
 18 46  1  0  0  0  0
 19 21  2  0  0  0  0
 19 47  1  0  0  0  0
 20 21  1  0  0  0  0
 21 48  1  0  0  0  0
 22  7  1  0  0  0  0
 22 23  1  0  0  0  0
 22 24  1  0  0  0  0
 22 49  1  0  0  0  0
 23 25  1  0  0  0  0
 24  8  1  0  0  0  0
 24 26  1  0  0  0  0
 24 50  1  0  0  0  0
 25  9  1  0  0  0  0
 25 27  1  0  0  0  0
 25 51  1  0  0  0  0
 26 11  1  0  0  0  0
 26 27  1  0  0  0  0
 26 52  1  0  0  0  0
 27 12  1  0  0  0  0
 27 53  1  0  0  0  0
M  END
>  <Mol_ID>
10061

>  <Formula>
C17H26O10

>  <MolWeight>
390.38234

>  <Cat>
E5633

>  <Name>
Reptoside

>  <Synonyms>
N/A

>  <Target>
PI3K, AKT, p38 MAPK, COX

>  <Form>
free base

>  <CAS>
53839-03-5

>  <URL>
https://www.selleckchem.com/products/reptoside.html

$$$$
