Resatorvid (TAK-242)
 OpenBabel08302521353D

 40 41  0  0  0  0  0  0  0  0999 V2000
   -2.5215    1.4958   -1.5110 C   0  0  0  0  0  0  0  0  0  0  0  0
   -3.2444    1.2743   -0.3346 C   0  0  0  0  0  0  0  0  0  0  0  0
   -2.8547    1.9034    0.8511 C   0  0  0  0  0  0  0  0  0  0  0  0
   -1.7430    2.7488    0.8653 C   0  0  0  0  0  0  0  0  0  0  0  0
   -1.0374    2.9669   -0.3071 C   0  0  0  0  0  0  0  0  0  0  0  0
   -1.4160    2.3510   -1.4956 C   0  0  0  0  0  0  0  0  0  0  0  0
    0.0272    3.7801   -0.2918 F   0  0  0  0  0  0  0  0  0  0  0  0
   -4.3603    0.3763   -0.3337 N   0  0  0  0  0  0  0  0  0  0  0  0
   -4.0450   -1.2657    0.0549 S   0  0  0  0  0  0  0  0  0  0  0  0
   -5.1899   -1.5226    1.4639 C   0  0  3  0  0  0  0  0  0  0  0  0
   -4.5189   -1.9668   -1.1196 O   0  0  0  0  0  0  0  0  0  0  0  0
   -2.6800   -1.4041    0.5085 O   0  0  0  0  0  0  0  0  0  0  0  0
   -4.8534   -0.4884    2.5647 C   0  0  0  0  0  0  0  0  0  0  0  0
   -5.5028   -0.8023    3.9046 C   0  0  0  0  0  0  0  0  0  0  0  0
   -5.0818   -2.1760    4.4073 C   0  0  0  0  0  0  0  0  0  0  0  0
   -5.0662   -3.2078    3.3224 C   0  0  0  0  0  0  0  0  0  0  0  0
   -5.1105   -2.9381    1.9993 C   0  0  0  0  0  0  0  0  0  0  0  0
   -5.1500   -4.1558    1.1433 C   0  0  0  0  0  0  0  0  0  0  0  0
   -5.9055   -3.9680    0.0349 O   0  0  0  0  0  0  0  0  0  0  0  0
   -4.6584   -5.2224    1.4848 O   0  0  0  0  0  0  0  0  0  0  0  0
   -6.1533   -5.1680   -0.7250 C   0  0  0  0  0  0  0  0  0  0  0  0
   -4.9450   -5.6405   -1.5239 C   0  0  0  0  0  0  0  0  0  0  0  0
   -2.8030    1.0094   -2.4408 H   0  0  0  0  0  0  0  0  0  0  0  0
   -3.4090    1.7576    1.7697 H   0  0  0  0  0  0  0  0  0  0  0  0
   -1.4393    3.2443    1.7814 H   0  0  0  0  0  0  0  0  0  0  0  0
   -0.8424    2.5370   -2.3986 H   0  0  0  0  0  0  0  0  0  0  0  0
   -4.8634    0.3684   -1.2264 H   0  0  0  0  0  0  0  0  0  0  0  0
   -6.1999   -1.3389    1.0775 H   0  0  0  0  0  0  0  0  0  0  0  0
   -5.1778    0.5078    2.2488 H   0  0  0  0  0  0  0  0  0  0  0  0
   -3.7667   -0.4390    2.7179 H   0  0  0  0  0  0  0  0  0  0  0  0
   -5.2201   -0.0428    4.6435 H   0  0  0  0  0  0  0  0  0  0  0  0
   -6.5931   -0.7561    3.8013 H   0  0  0  0  0  0  0  0  0  0  0  0
   -4.0779   -2.1255    4.8449 H   0  0  0  0  0  0  0  0  0  0  0  0
   -5.7641   -2.4889    5.2059 H   0  0  0  0  0  0  0  0  0  0  0  0
   -5.0232   -4.2395    3.6743 H   0  0  0  0  0  0  0  0  0  0  0  0
   -6.5051   -5.9586   -0.0508 H   0  0  0  0  0  0  0  0  0  0  0  0
   -6.9803   -4.9558   -1.4112 H   0  0  0  0  0  0  0  0  0  0  0  0
   -3.9926   -5.3561   -1.0686 H   0  0  0  0  0  0  0  0  0  0  0  0
   -4.9699   -6.7305   -1.6356 H   0  0  0  0  0  0  0  0  0  0  0  0
   -4.9642   -5.2148   -2.5325 H   0  0  0  0  0  0  0  0  0  0  0  0
  1  2  2  0  0  0  0
  1 23  1  0  0  0  0
  2  3  1  0  0  0  0
  2  8  1  0  0  0  0
  3  4  2  0  0  0  0
  3 24  1  0  0  0  0
  4  5  1  0  0  0  0
  4 25  1  0  0  0  0
  5  6  2  0  0  0  0
  5  7  1  0  0  0  0
  6  1  1  0  0  0  0
  6 26  1  0  0  0  0
  8  9  1  0  0  0  0
  8 27  1  0  0  0  0
  9 10  1  0  0  0  0
  9 11  2  0  0  0  0
  9 12  2  0  0  0  0
 10 13  1  0  0  0  0
 10 28  1  0  0  0  0
 13 14  1  0  0  0  0
 13 29  1  0  0  0  0
 13 30  1  0  0  0  0
 14 15  1  0  0  0  0
 14 31  1  0  0  0  0
 14 32  1  0  0  0  0
 15 16  1  0  0  0  0
 15 33  1  0  0  0  0
 15 34  1  0  0  0  0
 16 17  2  0  0  0  0
 16 35  1  0  0  0  0
 17 10  1  0  0  0  0
 17 18  1  0  0  0  0
 18 19  1  0  0  0  0
 18 20  2  0  0  0  0
 19 21  1  0  0  0  0
 21 22  1  0  0  0  0
 21 36  1  0  0  0  0
 21 37  1  0  0  0  0
 22 38  1  0  0  0  0
 22 39  1  0  0  0  0
 22 40  1  0  0  0  0
M  END
>  <Mol_ID>
6720

>  <Formula>
C15H17ClFNO4S

>  <MolWeight>
361.8161832

>  <Cat>
S7455

>  <Name>
Resatorvid (TAK-242)

>  <Synonyms>
CLI-095

>  <Target>
Autophagy,Interleukins,MyD88,TLR,TNF-alpha,TRIF

>  <Form>
Free base

>  <CAS>
243984-11-4

>  <URL>
http://www.selleckchem.com/products/resatorvid.html

$$$$
