Resazurin sodium
 OpenBabel08302521313D

 23 25  0  0  0  0  0  0  0  0999 V2000
   -0.0360   -1.4024   -0.0053 O   0  0  0  0  0  0  0  0  0  0  0  0
    0.0469    2.7342   -0.0044 O   0  5  0  0  0  0  0  0  0  0  0  0
   -4.7493   -1.3990    0.0078 O   0  5  0  0  0  0  0  0  0  0  0  0
    4.6690   -1.3436    0.0081 O   0  0  0  0  0  0  0  0  0  0  0  0
    0.0351    1.4525   -0.0030 N   0  3  0  0  0  0  0  0  0  0  0  0
   -1.2081    0.7201   -0.0018 C   0  0  0  0  0  0  0  0  0  0  0  0
    1.1621    0.7680   -0.0027 C   0  0  0  0  0  0  0  0  0  0  0  0
   -1.1908   -0.6663   -0.0028 C   0  0  0  0  0  0  0  0  0  0  0  0
    1.1613   -0.7147   -0.0025 C   0  0  0  0  0  0  0  0  0  0  0  0
   -2.4246    1.3965    0.0024 C   0  0  0  0  0  0  0  0  0  0  0  0
    2.4820    1.4569   -0.0021 C   0  0  0  0  0  0  0  0  0  0  0  0
   -2.3972   -1.3755   -0.0004 C   0  0  0  0  0  0  0  0  0  0  0  0
    2.3140   -1.3917    0.0007 C   0  0  0  0  0  0  0  0  0  0  0  0
   -3.6173    0.6631    0.0058 C   0  0  0  0  0  0  0  0  0  0  0  0
    3.6201    0.7598    0.0016 C   0  0  0  0  0  0  0  0  0  0  0  0
   -3.6568   -0.7448    0.0045 C   0  0  0  0  0  0  0  0  0  0  0  0
    3.6188   -0.7126    0.0039 C   0  0  0  0  0  0  0  0  0  0  0  0
   -2.4685    2.4810    0.0036 H   0  0  0  0  0  0  0  0  0  0  0  0
    2.4911    2.5433   -0.0034 H   0  0  0  0  0  0  0  0  0  0  0  0
   -2.3720   -2.4646   -0.0017 H   0  0  0  0  0  0  0  0  0  0  0  0
    2.3350   -2.4744    0.0014 H   0  0  0  0  0  0  0  0  0  0  0  0
   -4.5637    1.2042    0.0099 H   0  0  0  0  0  0  0  0  0  0  0  0
    4.5890    1.2435    0.0032 H   0  0  0  0  0  0  0  0  0  0  0  0
  1  8  1  0  0  0  0
  1  9  1  0  0  0  0
  2  5  1  0  0  0  0
  3 16  1  0  0  0  0
  4 17  2  0  0  0  0
  5  6  1  0  0  0  0
  5  7  2  0  0  0  0
  6  8  2  0  0  0  0
  6 10  1  0  0  0  0
  7  9  1  0  0  0  0
  7 11  1  0  0  0  0
  8 12  1  0  0  0  0
  9 13  2  0  0  0  0
 10 14  2  0  0  0  0
 10 18  1  0  0  0  0
 11 15  2  0  0  0  0
 11 19  1  0  0  0  0
 12 16  2  0  0  0  0
 12 20  1  0  0  0  0
 13 17  1  0  0  0  0
 13 21  1  0  0  0  0
 14 16  1  0  0  0  0
 14 22  1  0  0  0  0
 15 17  1  0  0  0  0
 15 23  1  0  0  0  0
M  CHG  3   2  -1   3  -1   5   1
M  END
>  <Mol_ID>
5753

>  <Formula>
C12H6NNaO4

>  <MolWeight>
251.17011

>  <Cat>
S3599

>  <Name>
Resazurin sodium

>  <Synonyms>
Resazurin sodium salt, Diazoresorcinol sodium

>  <Target>
Dyes

>  <Form>
Sodium

>  <CAS>
62758-13-8

>  <URL>
http://www.selleckchem.com/products/resazurin-sodium.html

$$$$
