Resibufogenin
 OpenBabel08302521342D

 60 65  0  0  0  0  0  0  0  0999 V2000
    5.2310    0.5708    0.0000 O   0  0  0  0  0  0  0  0  0  0  0  0
    0.0000    6.6069    0.0000 O   0  0  0  0  0  0  0  0  0  0  0  0
   12.1826    0.8063    0.0000 O   0  0  0  0  0  0  0  0  0  0  0  0
   13.9875    2.4257    0.0000 O   0  0  0  0  0  0  0  0  0  0  0  0
    6.2635    1.5049    0.0000 C   0  0  2  0  0  0  0  0  0  0  0  0
    7.4759    2.2049    0.0000 C   0  0  1  0  0  0  0  0  0  0  0  0
    5.0511    2.2049    0.0000 C   0  0  1  0  0  0  0  0  0  0  0  0
    6.5564    0.1442    0.0000 C   0  0  1  0  0  0  0  0  0  0  0  0
    5.0511    3.6048    0.0000 C   0  0  1  0  0  0  0  0  0  0  0  0
    8.5079    1.2709    0.0000 C   0  0  2  0  0  0  0  0  0  0  0  0
    7.9406    0.0000    0.0000 C   0  0  0  0  0  0  0  0  0  0  0  0
    3.7996    4.3533    0.0000 C   0  0  2  0  0  0  0  0  0  0  0  0
    7.4759    3.6048    0.0000 C   0  0  0  0  0  0  0  0  0  0  0  0
    6.2635    4.3048    0.0000 C   0  0  0  0  0  0  0  0  0  0  0  0
    3.7996    1.4563    0.0000 C   0  0  0  0  0  0  0  0  0  0  0  0
    2.5311    3.6340    0.0000 C   0  0  2  0  0  0  0  0  0  0  0  0
    8.6885    2.9047    0.0000 C   0  0  0  0  0  0  0  0  0  0  0  0
    2.5311    2.1756    0.0000 C   0  0  0  0  0  0  0  0  0  0  0  0
    3.8346    5.8719    0.0000 C   0  0  0  0  0  0  0  0  0  0  0  0
    9.8778    1.5596    0.0000 C   0  0  0  0  0  0  0  0  0  0  0  0
    1.2098    4.3833    0.0000 C   0  0  0  0  0  0  0  0  0  0  0  0
    5.0174    5.0440    0.0000 C   0  0  0  0  0  0  0  0  0  0  0  0
    2.5311    6.6516    0.0000 C   0  0  0  0  0  0  0  0  0  0  0  0
    1.2098    5.9023    0.0000 C   0  0  2  0  0  0  0  0  0  0  0  0
   10.3126    2.8903    0.0000 C   0  0  0  0  0  0  0  0  0  0  0  0
   10.8127    0.5176    0.0000 C   0  0  0  0  0  0  0  0  0  0  0  0
   11.6826    3.1790    0.0000 C   0  0  0  0  0  0  0  0  0  0  0  0
   12.6176    2.1370    0.0000 C   0  0  0  0  0  0  0  0  0  0  0  0
    0.0037    7.5769    0.0000 H   0  0  0  0  0  0  0  0  0  0  0  0
    5.0594    1.1349    0.0000 H   0  0  0  0  0  0  0  0  0  0  0  0
    7.2710    0.9406    0.0000 H   0  0  0  0  0  0  0  0  0  0  0  0
    5.9778    3.0698    0.0000 H   0  0  0  0  0  0  0  0  0  0  0  0
    8.7871    2.3038    0.0000 H   0  0  0  0  0  0  0  0  0  0  0  0
    8.4756   -0.9267    0.0000 H   0  0  0  0  0  0  0  0  0  0  0  0
    9.0092    0.0555    0.0000 H   0  0  0  0  0  0  0  0  0  0  0  0
    8.4026    4.1398    0.0000 H   0  0  0  0  0  0  0  0  0  0  0  0
    7.4759    4.6748    0.0000 H   0  0  0  0  0  0  0  0  0  0  0  0
    6.2635    5.3748    0.0000 H   0  0  0  0  0  0  0  0  0  0  0  0
    7.1902    4.8398    0.0000 H   0  0  0  0  0  0  0  0  0  0  0  0
    3.8120    0.3864    0.0000 H   0  0  0  0  0  0  0  0  0  0  0  0
    2.8782    0.9123    0.0000 H   0  0  0  0  0  0  0  0  0  0  0  0
    3.4557    3.0954    0.0000 H   0  0  0  0  0  0  0  0  0  0  0  0
    9.6150    2.3695    0.0000 H   0  0  0  0  0  0  0  0  0  0  0  0
    8.6887    3.9747    0.0000 H   0  0  0  0  0  0  0  0  0  0  0  0
    9.6152    3.4395    0.0000 H   0  0  0  0  0  0  0  0  0  0  0  0
    1.6065    1.6370    0.0000 H   0  0  0  0  0  0  0  0  0  0  0  0
    1.6034    2.7088    0.0000 H   0  0  0  0  0  0  0  0  0  0  0  0
    4.7714    6.3890    0.0000 H   0  0  0  0  0  0  0  0  0  0  0  0
    3.8532    6.9417    0.0000 H   0  0  0  0  0  0  0  0  0  0  0  0
    0.2852    3.8447    0.0000 H   0  0  0  0  0  0  0  0  0  0  0  0
    0.2821    4.9165    0.0000 H   0  0  0  0  0  0  0  0  0  0  0  0
    5.9399    4.5019    0.0000 H   0  0  0  0  0  0  0  0  0  0  0  0
    5.0256    6.1140    0.0000 H   0  0  0  0  0  0  0  0  0  0  0  0
    5.9481    5.5719    0.0000 H   0  0  0  0  0  0  0  0  0  0  0  0
    2.5435    7.7215    0.0000 H   0  0  0  0  0  0  0  0  0  0  0  0
    1.6097    7.1955    0.0000 H   0  0  0  0  0  0  0  0  0  0  0  0
    0.2821    5.3691    0.0000 H   0  0  0  0  0  0  0  0  0  0  0  0
    9.6234    3.6584    0.0000 H   0  0  0  0  0  0  0  0  0  0  0  0
   10.4921   -0.4633    0.0000 H   0  0  0  0  0  0  0  0  0  0  0  0
   12.0032    4.1599    0.0000 H   0  0  0  0  0  0  0  0  0  0  0  0
  2 29  1  0  0  0  0
  3 26  1  0  0  0  0
  3 28  1  0  0  0  0
  4 28  2  0  0  0  0
  5  1  1  1  0  0  0
  5  6  1  0  0  0  0
  5  7  1  0  0  0  0
  5  8  1  0  0  0  0
  6 10  1  0  0  0  0
  6 13  1  0  0  0  0
  6 17  1  1  0  0  0
  7  9  1  0  0  0  0
  7 15  1  0  0  0  0
  7 30  1  1  0  0  0
  8  1  1  0  0  0  0
  8 11  1  0  0  0  0
  8 31  1  6  0  0  0
  9 12  1  0  0  0  0
  9 14  1  0  0  0  0
  9 32  1  6  0  0  0
 10 11  1  0  0  0  0
 10 20  1  0  0  0  0
 10 33  1  6  0  0  0
 11 34  1  0  0  0  0
 11 35  1  0  0  0  0
 12 16  1  0  0  0  0
 12 19  1  0  0  0  0
 12 22  1  1  0  0  0
 13 14  1  0  0  0  0
 13 36  1  0  0  0  0
 13 37  1  0  0  0  0
 14 38  1  0  0  0  0
 14 39  1  0  0  0  0
 15 18  1  0  0  0  0
 15 40  1  0  0  0  0
 15 41  1  0  0  0  0
 16 18  1  0  0  0  0
 16 21  1  0  0  0  0
 16 42  1  1  0  0  0
 17 43  1  0  0  0  0
 17 44  1  0  0  0  0
 17 45  1  0  0  0  0
 18 46  1  0  0  0  0
 18 47  1  0  0  0  0
 19 23  1  0  0  0  0
 19 48  1  0  0  0  0
 19 49  1  0  0  0  0
 20 25  1  0  0  0  0
 20 26  2  0  0  0  0
 21 24  1  0  0  0  0
 21 50  1  0  0  0  0
 21 51  1  0  0  0  0
 22 52  1  0  0  0  0
 22 53  1  0  0  0  0
 22 54  1  0  0  0  0
 23 24  1  0  0  0  0
 23 55  1  0  0  0  0
 23 56  1  0  0  0  0
 24  2  1  0  0  0  0
 24 57  1  6  0  0  0
 25 27  2  0  0  0  0
 25 58  1  0  0  0  0
 26 59  1  0  0  0  0
 27 28  1  0  0  0  0
 27 60  1  0  0  0  0
M  END
>  <Mol_ID>
5120

>  <Formula>
C24H32O4

>  <MolWeight>
384.50848

>  <Cat>
S3238

>  <Name>
Resibufogenin

>  <Synonyms>
Bufogenin, Recibufogenin

>  <Target>
Akt,Apoptosis related,Bcl-2,Caspase,CDK,GSK-3,Mixed Lineage Kinase,PI3K,RIP kinase,ROS,Wnt/beta-catenin

>  <Form>
free base

>  <CAS>
465-39-4

>  <URL>
http://www.selleckchem.com/products/resibufogenin.html

$$$$
