Reversan
 OpenBabel08302521353D

 60 64  0  0  0  0  0  0  0  0999 V2000
    1.0619    0.1983   -0.0085 C   0  0  0  0  0  0  0  0  0  0  0  0
    0.5383    1.4710    0.0289 N   0  0  0  0  0  0  0  0  0  0  0  0
    0.3705   -0.8159   -0.0274 O   0  0  0  0  0  0  0  0  0  0  0  0
   -0.8742    1.7399    0.1328 C   0  0  0  0  0  0  0  0  0  0  0  0
   -1.3595    1.8599    1.5796 C   0  0  0  0  0  0  0  0  0  0  0  0
   -1.1584    0.5613    2.3718 C   0  0  0  0  0  0  0  0  0  0  0  0
    3.4014    1.1912    0.0465 C   0  0  0  0  0  0  0  0  0  0  0  0
    4.6800    0.6252    0.0369 N   0  0  0  0  0  0  0  0  0  0  0  0
    2.5057    0.1398    0.0128 C   0  0  0  0  0  0  0  0  0  0  0  0
    3.2008    2.5472    0.0793 N   0  0  0  0  0  0  0  0  0  0  0  0
    5.8152    1.4475    0.0169 C   0  0  0  0  0  0  0  0  0  0  0  0
    4.6183   -0.7335    0.0351 N   0  0  0  0  0  0  0  0  0  0  0  0
    3.3153   -1.0101    0.0154 C   0  0  0  0  0  0  0  0  0  0  0  0
    4.2635    3.3039    0.0811 C   0  0  0  0  0  0  0  0  0  0  0  0
    5.6698    2.7862    0.0199 C   0  0  0  0  0  0  0  0  0  0  0  0
    7.1642    0.8686   -0.0031 C   0  0  0  0  0  0  0  0  0  0  0  0
    7.8258    0.6096    1.2028 C   0  0  0  0  0  0  0  0  0  0  0  0
    7.7818    0.5398   -1.2158 C   0  0  0  0  0  0  0  0  0  0  0  0
    9.0823    0.0068    1.1982 C   0  0  0  0  0  0  0  0  0  0  0  0
    9.0405   -0.0628   -1.2168 C   0  0  0  0  0  0  0  0  0  0  0  0
    9.6882   -0.3341   -0.0119 C   0  0  0  0  0  0  0  0  0  0  0  0
    4.0879    4.7868    0.1194 C   0  0  0  0  0  0  0  0  0  0  0  0
    5.0434    5.6362    0.6916 C   0  0  0  0  0  0  0  0  0  0  0  0
    2.9186    5.3389   -0.4246 C   0  0  0  0  0  0  0  0  0  0  0  0
    4.8540    7.0197    0.6728 C   0  0  0  0  0  0  0  0  0  0  0  0
    2.7305    6.7222   -0.4366 C   0  0  0  0  0  0  0  0  0  0  0  0
    3.7033    7.5618    0.1022 C   0  0  0  0  0  0  0  0  0  0  0  0
   -1.6762    0.5925    3.7536 N   0  0  0  0  0  0  0  0  0  0  0  0
   -1.3892   -0.7031    4.4255 C   0  0  0  0  0  0  0  0  0  0  0  0
   -3.1372    0.8038    3.8335 C   0  0  0  0  0  0  0  0  0  0  0  0
   -2.2437   -1.8783    3.9074 C   0  0  0  0  0  0  0  0  0  0  0  0
   -3.9506   -0.3693    3.2675 C   0  0  0  0  0  0  0  0  0  0  0  0
   -3.6479   -1.5856    3.9644 O   0  0  0  0  0  0  0  0  0  0  0  0
    1.2008    2.2406    0.1133 H   0  0  0  0  0  0  0  0  0  0  0  0
   -1.0539    2.6854   -0.3900 H   0  0  0  0  0  0  0  0  0  0  0  0
   -1.4322    0.9567   -0.3926 H   0  0  0  0  0  0  0  0  0  0  0  0
   -0.8398    2.6835    2.0832 H   0  0  0  0  0  0  0  0  0  0  0  0
   -2.4216    2.1218    1.5342 H   0  0  0  0  0  0  0  0  0  0  0  0
   -1.5838   -0.2680    1.7975 H   0  0  0  0  0  0  0  0  0  0  0  0
   -0.0800    0.3774    2.4442 H   0  0  0  0  0  0  0  0  0  0  0  0
    2.9982   -2.0458    0.0052 H   0  0  0  0  0  0  0  0  0  0  0  0
    6.5111    3.4621   -0.0348 H   0  0  0  0  0  0  0  0  0  0  0  0
    7.3531    0.8478    2.1530 H   0  0  0  0  0  0  0  0  0  0  0  0
    7.2776    0.7222   -2.1619 H   0  0  0  0  0  0  0  0  0  0  0  0
    9.5817   -0.2140    2.1374 H   0  0  0  0  0  0  0  0  0  0  0  0
    9.5091   -0.3399   -2.1581 H   0  0  0  0  0  0  0  0  0  0  0  0
   10.6567   -0.8251   -0.0130 H   0  0  0  0  0  0  0  0  0  0  0  0
    5.9341    5.2462    1.1751 H   0  0  0  0  0  0  0  0  0  0  0  0
    2.1515    4.6975   -0.8530 H   0  0  0  0  0  0  0  0  0  0  0  0
    5.6035    7.6762    1.1082 H   0  0  0  0  0  0  0  0  0  0  0  0
    1.8263    7.1439   -0.8691 H   0  0  0  0  0  0  0  0  0  0  0  0
    3.5616    8.6396    0.0839 H   0  0  0  0  0  0  0  0  0  0  0  0
   -1.5944   -0.5706    5.4958 H   0  0  0  0  0  0  0  0  0  0  0  0
   -0.3232   -0.9489    4.3504 H   0  0  0  0  0  0  0  0  0  0  0  0
   -3.3924    0.9236    4.8950 H   0  0  0  0  0  0  0  0  0  0  0  0
   -3.4301    1.7449    3.3594 H   0  0  0  0  0  0  0  0  0  0  0  0
   -1.9760   -2.1560    2.8820 H   0  0  0  0  0  0  0  0  0  0  0  0
   -2.0701   -2.7590    4.5344 H   0  0  0  0  0  0  0  0  0  0  0  0
   -5.0206   -0.1719    3.4042 H   0  0  0  0  0  0  0  0  0  0  0  0
   -3.7825   -0.5088    2.1951 H   0  0  0  0  0  0  0  0  0  0  0  0
  1  2  1  0  0  0  0
  1  3  2  0  0  0  0
  1  9  1  0  0  0  0
  2  4  1  0  0  0  0
  2 34  1  0  0  0  0
  4  5  1  0  0  0  0
  4 35  1  0  0  0  0
  4 36  1  0  0  0  0
  5  6  1  0  0  0  0
  5 37  1  0  0  0  0
  5 38  1  0  0  0  0
  6 28  1  0  0  0  0
  6 39  1  0  0  0  0
  6 40  1  0  0  0  0
  7  8  1  0  0  0  0
  7  9  2  0  0  0  0
  7 10  1  0  0  0  0
  8 11  1  0  0  0  0
  8 12  1  0  0  0  0
  9 13  1  0  0  0  0
 10 14  2  0  0  0  0
 11 15  2  0  0  0  0
 11 16  1  0  0  0  0
 12 13  2  0  0  0  0
 13 41  1  0  0  0  0
 14 15  1  0  0  0  0
 14 22  1  0  0  0  0
 15 42  1  0  0  0  0
 16 17  2  0  0  0  0
 16 18  1  0  0  0  0
 17 19  1  0  0  0  0
 17 43  1  0  0  0  0
 18 20  2  0  0  0  0
 18 44  1  0  0  0  0
 19 21  2  0  0  0  0
 19 45  1  0  0  0  0
 20 21  1  0  0  0  0
 20 46  1  0  0  0  0
 21 47  1  0  0  0  0
 22 23  2  0  0  0  0
 22 24  1  0  0  0  0
 23 25  1  0  0  0  0
 23 48  1  0  0  0  0
 24 26  2  0  0  0  0
 24 49  1  0  0  0  0
 25 27  2  0  0  0  0
 25 50  1  0  0  0  0
 26 27  1  0  0  0  0
 26 51  1  0  0  0  0
 27 52  1  0  0  0  0
 28 29  1  0  0  0  0
 28 30  1  0  0  0  0
 29 31  1  0  0  0  0
 29 53  1  0  0  0  0
 29 54  1  0  0  0  0
 30 32  1  0  0  0  0
 30 55  1  0  0  0  0
 30 56  1  0  0  0  0
 31 33  1  0  0  0  0
 31 57  1  0  0  0  0
 31 58  1  0  0  0  0
 32 33  1  0  0  0  0
 32 59  1  0  0  0  0
 32 60  1  0  0  0  0
M  END
>  <Mol_ID>
6980

>  <Formula>
C26H27N5O2

>  <MolWeight>
441.52488

>  <Cat>
E1742

>  <Name>
Reversan

>  <Synonyms>
CBLC4H10

>  <Target>
P-gp

>  <Form>
free base

>  <CAS>
313397-13-6

>  <URL>
https://www.selleckchem.com/products/reversan.html

$$$$
