RG108.cdx
 OpenBabel08302521303D

 39 42  0  0  0  0  0  0  0  0999 V2000
    0.8927    0.0485    0.1049 C   0  0  1  0  0  0  0  0  0  0  0  0
   -0.7906   -4.1678    4.0697 C   0  0  0  0  0  0  0  0  0  0  0  0
   -2.0264   -3.4891    4.0127 C   0  0  0  0  0  0  0  0  0  0  0  0
   -2.2141   -2.4099    3.1422 C   0  0  0  0  0  0  0  0  0  0  0  0
   -1.1368   -2.0349    2.3654 C   0  0  0  0  0  0  0  0  0  0  0  0
    0.0804   -2.6898    2.4311 C   0  0  0  0  0  0  0  0  0  0  0  0
    0.2839   -3.7726    3.2649 C   0  0  0  0  0  0  0  0  0  0  0  0
   -0.9974   -0.9566    1.3837 C   0  0  0  0  0  0  0  0  0  0  0  0
    0.3218   -0.9157    1.0382 N   0  0  0  0  0  0  0  0  0  0  0  0
    0.9932   -2.0082    1.5126 C   0  0  0  0  0  0  0  0  0  0  0  0
    2.0988   -2.4193    1.2142 O   0  0  0  0  0  0  0  0  0  0  0  0
   -1.9061   -0.2744    0.9444 O   0  0  0  0  0  0  0  0  0  0  0  0
    0.4965   -0.1864   -1.3575 C   0  0  0  0  0  0  0  0  0  0  0  0
    0.6478    1.4599    0.6601 C   0  0  0  0  0  0  0  0  0  0  0  0
    1.1460    0.7736   -2.3167 C   0  0  0  0  0  0  0  0  0  0  0  0
    0.5855    1.2944   -3.5314 C   0  0  0  0  0  0  0  0  0  0  0  0
    1.5200    2.1748   -4.0799 C   0  0  0  0  0  0  0  0  0  0  0  0
    2.6042    2.1942   -3.2382 N   0  0  0  0  0  0  0  0  0  0  0  0
    2.4099    1.3241   -2.2013 C   0  0  0  0  0  0  0  0  0  0  0  0
   -0.6296    1.1014   -4.2221 C   0  0  0  0  0  0  0  0  0  0  0  0
   -0.8534    1.7772   -5.4295 C   0  0  0  0  0  0  0  0  0  0  0  0
    0.1031    2.6469   -5.9474 C   0  0  0  0  0  0  0  0  0  0  0  0
    1.3070    2.8684   -5.2767 C   0  0  0  0  0  0  0  0  0  0  0  0
   -0.3841    2.1546    0.1327 O   0  0  0  0  0  0  0  0  0  0  0  0
    1.2798    1.9100    1.6106 O   0  0  0  0  0  0  0  0  0  0  0  0
    1.9834   -0.0784    0.1614 H   0  0  0  0  0  0  0  0  0  0  0  0
   -0.6709   -5.0049    4.7566 H   0  0  0  0  0  0  0  0  0  0  0  0
   -2.8421   -3.8091    4.6598 H   0  0  0  0  0  0  0  0  0  0  0  0
   -3.1581   -1.8768    3.0943 H   0  0  0  0  0  0  0  0  0  0  0  0
    1.2418   -4.2809    3.3054 H   0  0  0  0  0  0  0  0  0  0  0  0
    0.7830   -1.2062   -1.6467 H   0  0  0  0  0  0  0  0  0  0  0  0
   -0.5930   -0.1406   -1.4691 H   0  0  0  0  0  0  0  0  0  0  0  0
    3.4301    2.7601   -3.3783 H   0  0  0  0  0  0  0  0  0  0  0  0
    3.1874    1.1958   -1.4586 H   0  0  0  0  0  0  0  0  0  0  0  0
   -1.3868    0.4243   -3.8385 H   0  0  0  0  0  0  0  0  0  0  0  0
   -1.7827    1.6181   -5.9711 H   0  0  0  0  0  0  0  0  0  0  0  0
   -0.0861    3.1600   -6.8876 H   0  0  0  0  0  0  0  0  0  0  0  0
    2.0516    3.5479   -5.6788 H   0  0  0  0  0  0  0  0  0  0  0  0
   -0.9517    1.6714   -0.4975 H   0  0  0  0  0  0  0  0  0  0  0  0
  1 14  1  0  0  0  0
  1 26  1  1  0  0  0
  1 13  1  0  0  0  0
  1  9  1  0  0  0  0
  2  3  2  0  0  0  0
  2  7  1  0  0  0  0
  2 27  1  0  0  0  0
  3  4  1  0  0  0  0
  3 28  1  0  0  0  0
  4  5  2  0  0  0  0
  4 29  1  0  0  0  0
  5  6  1  0  0  0  0
  5  8  1  0  0  0  0
  6  7  2  0  0  0  0
  6 10  1  0  0  0  0
  7 30  1  0  0  0  0
  8  9  1  0  0  0  0
  8 12  2  0  0  0  0
  9 10  1  0  0  0  0
 10 11  2  0  0  0  0
 13 15  1  0  0  0  0
 13 31  1  0  0  0  0
 13 32  1  0  0  0  0
 14 24  1  0  0  0  0
 14 25  2  0  0  0  0
 15 16  1  0  0  0  0
 16 17  2  0  0  0  0
 16 20  1  0  0  0  0
 17 18  1  0  0  0  0
 18 19  1  0  0  0  0
 18 33  1  0  0  0  0
 19 15  2  0  0  0  0
 19 34  1  0  0  0  0
 20 21  2  0  0  0  0
 20 35  1  0  0  0  0
 21 22  1  0  0  0  0
 21 36  1  0  0  0  0
 22 23  2  0  0  0  0
 22 37  1  0  0  0  0
 23 17  1  0  0  0  0
 23 38  1  0  0  0  0
 24 39  1  0  0  0  0
M  END
>  <Mol_ID>
544

>  <Formula>
C19H14N2O4

>  <MolWeight>
334.32546

>  <Cat>
S2821

>  <Name>
RG108

>  <Synonyms>
N-Phthalyl-L-tryptophan

>  <Target>
DNA Methyltransferase

>  <Form>
free base

>  <CAS>
48208-26-0

>  <URL>
http://selleckchem.com/products/rg108.html

$$$$
