RG2833 (RGFP109).cdx
 OpenBabel08302519583D

 50 51  0  0  0  0  0  0  0  0999 V2000
    2.7940    0.6778    0.5097 C   0  0  0  0  0  0  0  0  0  0  0  0
    2.2620    1.9495    0.2385 C   0  0  0  0  0  0  0  0  0  0  0  0
    0.8920    2.1160    0.0027 C   0  0  0  0  0  0  0  0  0  0  0  0
    0.0291    1.0124    0.0333 C   0  0  0  0  0  0  0  0  0  0  0  0
    0.5626   -0.2570    0.2923 C   0  0  0  0  0  0  0  0  0  0  0  0
    1.9287   -0.4238    0.5333 C   0  0  0  0  0  0  0  0  0  0  0  0
    4.2635    0.4856    0.7569 C   0  0  0  0  0  0  0  0  0  0  0  0
   -1.4405    1.1204   -0.2329 C   0  0  0  0  0  0  0  0  0  0  0  0
   -2.0465    0.1718   -0.7137 O   0  0  0  0  0  0  0  0  0  0  0  0
   -2.0526    2.3061    0.1261 N   0  0  0  0  0  0  0  0  0  0  0  0
   -3.4902    2.5006    0.0236 C   0  0  0  0  0  0  0  0  0  0  0  0
   -3.8853    3.1842   -1.2832 C   0  0  0  0  0  0  0  0  0  0  0  0
   -5.3769    3.5384   -1.3569 C   0  0  0  0  0  0  0  0  0  0  0  0
   -5.8819    4.4929   -0.2676 C   0  0  0  0  0  0  0  0  0  0  0  0
   -5.1705    5.8434   -0.2757 C   0  0  0  0  0  0  0  0  0  0  0  0
   -5.6102    6.7380    0.8684 C   0  0  0  0  0  0  0  0  0  0  0  0
   -6.9397    7.0974    0.8122 N   0  0  0  0  0  0  0  0  0  0  0  0
   -4.7816    7.1184    1.6942 O   0  0  0  0  0  0  0  0  0  0  0  0
   -7.6239    7.9446    1.7152 C   0  0  0  0  0  0  0  0  0  0  0  0
   -7.1107    8.2530    2.9815 C   0  0  0  0  0  0  0  0  0  0  0  0
   -7.8055    9.0957    3.8503 C   0  0  0  0  0  0  0  0  0  0  0  0
   -9.0273    9.6321    3.4662 C   0  0  0  0  0  0  0  0  0  0  0  0
   -9.5631    9.3132    2.2176 C   0  0  0  0  0  0  0  0  0  0  0  0
   -8.8613    8.4993    1.3140 C   0  0  0  0  0  0  0  0  0  0  0  0
   -9.5091    8.1112    0.1198 N   0  0  0  0  0  0  0  0  0  0  0  0
    2.9199    2.8129    0.2019 H   0  0  0  0  0  0  0  0  0  0  0  0
    0.5208    3.1065   -0.2365 H   0  0  0  0  0  0  0  0  0  0  0  0
   -0.0955   -1.1280    0.3089 H   0  0  0  0  0  0  0  0  0  0  0  0
    2.3154   -1.4220    0.7339 H   0  0  0  0  0  0  0  0  0  0  0  0
    4.4324    0.0701    1.7523 H   0  0  0  0  0  0  0  0  0  0  0  0
    4.6909   -0.1831    0.0053 H   0  0  0  0  0  0  0  0  0  0  0  0
    4.8032    1.4405    0.6977 H   0  0  0  0  0  0  0  0  0  0  0  0
   -1.5235    3.0036    0.6294 H   0  0  0  0  0  0  0  0  0  0  0  0
   -4.0028    1.5360    0.1175 H   0  0  0  0  0  0  0  0  0  0  0  0
   -3.7683    3.1122    0.8863 H   0  0  0  0  0  0  0  0  0  0  0  0
   -3.2793    4.0855   -1.4317 H   0  0  0  0  0  0  0  0  0  0  0  0
   -3.6408    2.5242   -2.1263 H   0  0  0  0  0  0  0  0  0  0  0  0
   -5.5826    3.9840   -2.3390 H   0  0  0  0  0  0  0  0  0  0  0  0
   -5.9668    2.6151   -1.3086 H   0  0  0  0  0  0  0  0  0  0  0  0
   -6.9584    4.6415   -0.4155 H   0  0  0  0  0  0  0  0  0  0  0  0
   -5.7838    4.0280    0.7200 H   0  0  0  0  0  0  0  0  0  0  0  0
   -4.0891    5.7048   -0.1646 H   0  0  0  0  0  0  0  0  0  0  0  0
   -5.3333    6.3712   -1.2216 H   0  0  0  0  0  0  0  0  0  0  0  0
   -7.4718    6.8020    0.0087 H   0  0  0  0  0  0  0  0  0  0  0  0
   -6.1782    7.8240    3.3353 H   0  0  0  0  0  0  0  0  0  0  0  0
   -7.3912    9.3173    4.8308 H   0  0  0  0  0  0  0  0  0  0  0  0
   -9.5710   10.2849    4.1435 H   0  0  0  0  0  0  0  0  0  0  0  0
  -10.5329    9.7229    1.9479 H   0  0  0  0  0  0  0  0  0  0  0  0
  -10.2138    8.7848   -0.1710 H   0  0  0  0  0  0  0  0  0  0  0  0
   -8.8873    7.8957   -0.6468 H   0  0  0  0  0  0  0  0  0  0  0  0
  1  2  2  0  0  0  0
  1  7  1  0  0  0  0
  2  3  1  0  0  0  0
  2 26  1  0  0  0  0
  3  4  2  0  0  0  0
  3 27  1  0  0  0  0
  4  5  1  0  0  0  0
  4  8  1  0  0  0  0
  5  6  2  0  0  0  0
  5 28  1  0  0  0  0
  6  1  1  0  0  0  0
  6 29  1  0  0  0  0
  7 30  1  0  0  0  0
  7 31  1  0  0  0  0
  7 32  1  0  0  0  0
  8  9  2  0  0  0  0
  8 10  1  0  0  0  0
 10 11  1  0  0  0  0
 10 33  1  0  0  0  0
 11 12  1  0  0  0  0
 11 34  1  0  0  0  0
 11 35  1  0  0  0  0
 12 13  1  0  0  0  0
 12 36  1  0  0  0  0
 12 37  1  0  0  0  0
 13 14  1  0  0  0  0
 13 38  1  0  0  0  0
 13 39  1  0  0  0  0
 14 15  1  0  0  0  0
 14 40  1  0  0  0  0
 14 41  1  0  0  0  0
 15 16  1  0  0  0  0
 15 42  1  0  0  0  0
 15 43  1  0  0  0  0
 16 17  1  0  0  0  0
 16 18  2  0  0  0  0
 17 19  1  0  0  0  0
 17 44  1  0  0  0  0
 19 20  2  0  0  0  0
 20 21  1  0  0  0  0
 20 45  1  0  0  0  0
 21 22  2  0  0  0  0
 21 46  1  0  0  0  0
 22 23  1  0  0  0  0
 22 47  1  0  0  0  0
 23 24  2  0  0  0  0
 23 48  1  0  0  0  0
 24 19  1  0  0  0  0
 24 25  1  0  0  0  0
 25 49  1  0  0  0  0
 25 50  1  0  0  0  0
M  END
>  <Mol_ID>
2334

>  <Formula>
C20H25N3O2

>  <MolWeight>
339.4314

>  <Cat>
S7292

>  <Name>
RG2833 (RGFP109)

>  <Synonyms>
N/A

>  <Target>
HDAC

>  <Form>
free base

>  <CAS>
1215493-56-3

>  <URL>
http://selleckchem.com/products/rg2833-rgfp109.html

$$$$
