RG3039
 OpenBabel08302521453D

 52 55  0  0  0  0  0  0  0  0999 V2000
    3.1728   -3.3442   -1.3857 N   0  0  0  0  0  0  0  0  0  0  0  0
    3.3084   -2.0531   -1.6618 C   0  0  0  0  0  0  0  0  0  0  0  0
    2.4479   -1.1030   -1.3041 N   0  0  0  0  0  0  0  0  0  0  0  0
    1.3488   -1.4971   -0.6356 C   0  0  0  0  0  0  0  0  0  0  0  0
    1.0883   -2.8331   -0.2773 C   0  0  0  0  0  0  0  0  0  0  0  0
   -0.0248   -3.3580    0.4541 C   0  0  0  0  0  0  0  0  0  0  0  0
    0.0262   -4.6649    0.9458 C   0  0  0  0  0  0  0  0  0  0  0  0
    1.0447   -5.5164    0.5462 C   0  0  0  0  0  0  0  0  0  0  0  0
    2.0350   -5.0466   -0.3088 C   0  0  0  0  0  0  0  0  0  0  0  0
    2.0987   -3.7156   -0.6857 C   0  0  0  0  0  0  0  0  0  0  0  0
    4.5001   -1.6658   -2.2487 N   0  0  0  0  0  0  0  0  0  0  0  0
    0.5620   -0.4431   -0.1694 N   0  0  0  0  0  0  0  0  0  0  0  0
   -1.1217   -2.5635    0.7147 O   0  0  0  0  0  0  0  0  0  0  0  0
   -2.3950   -3.2180    0.5143 C   0  0  0  0  0  0  0  0  0  0  0  0
   -5.8556   -1.9544    0.2291 N   0  0  0  0  0  0  0  0  0  0  0  0
   -5.5139   -3.3787    0.3667 C   0  0  0  0  0  0  0  0  0  0  0  0
   -4.6553   -3.6740    1.5997 C   0  0  0  0  0  0  0  0  0  0  0  0
   -3.3789   -2.8255    1.6348 C   0  0  0  0  0  0  0  0  0  0  0  0
   -3.8019   -1.3544    1.5689 C   0  0  0  0  0  0  0  0  0  0  0  0
   -4.6882   -1.0629    0.3544 C   0  0  0  0  0  0  0  0  0  0  0  0
   -6.5154   -1.6861   -1.0728 C   0  0  0  0  0  0  0  0  0  0  0  0
   -7.7952   -2.4589   -1.3128 C   0  0  0  0  0  0  0  0  0  0  0  0
   -8.9026   -2.2904   -0.4708 C   0  0  0  0  0  0  0  0  0  0  0  0
  -10.0693   -3.0289   -0.6787 C   0  0  0  0  0  0  0  0  0  0  0  0
  -10.1447   -3.9359   -1.7346 C   0  0  0  0  0  0  0  0  0  0  0  0
   -9.0606   -4.0941   -2.5958 C   0  0  0  0  0  0  0  0  0  0  0  0
   -7.8931   -3.3555   -2.3889 C   0  0  0  0  0  0  0  0  0  0  0  0
   -0.7170   -5.0277    1.6476 H   0  0  0  0  0  0  0  0  0  0  0  0
    1.0708   -6.5422    0.9001 H   0  0  0  0  0  0  0  0  0  0  0  0
    2.8153   -5.7272   -0.6435 H   0  0  0  0  0  0  0  0  0  0  0  0
    5.1879   -2.3919   -2.0858 H   0  0  0  0  0  0  0  0  0  0  0  0
    4.7419   -0.7468   -1.9080 H   0  0  0  0  0  0  0  0  0  0  0  0
   -0.4286   -0.6361   -0.2460 H   0  0  0  0  0  0  0  0  0  0  0  0
    0.8684    0.4207   -0.6055 H   0  0  0  0  0  0  0  0  0  0  0  0
   -2.7626   -2.9231   -0.4742 H   0  0  0  0  0  0  0  0  0  0  0  0
   -2.3234   -4.3106    0.4851 H   0  0  0  0  0  0  0  0  0  0  0  0
   -4.9987   -3.7464   -0.5293 H   0  0  0  0  0  0  0  0  0  0  0  0
   -6.4329   -3.9679    0.4708 H   0  0  0  0  0  0  0  0  0  0  0  0
   -4.4028   -4.7406    1.6249 H   0  0  0  0  0  0  0  0  0  0  0  0
   -5.2459   -3.4741    2.5047 H   0  0  0  0  0  0  0  0  0  0  0  0
   -2.8726   -2.9889    2.5951 H   0  0  0  0  0  0  0  0  0  0  0  0
   -4.3561   -1.1029    2.4833 H   0  0  0  0  0  0  0  0  0  0  0  0
   -2.9218   -0.7015    1.5492 H   0  0  0  0  0  0  0  0  0  0  0  0
   -5.0449   -0.0292    0.4438 H   0  0  0  0  0  0  0  0  0  0  0  0
   -4.0713   -1.1048   -0.5515 H   0  0  0  0  0  0  0  0  0  0  0  0
   -6.7672   -0.6195   -1.1443 H   0  0  0  0  0  0  0  0  0  0  0  0
   -5.8115   -1.8894   -1.8918 H   0  0  0  0  0  0  0  0  0  0  0  0
   -8.8495   -1.5900    0.3599 H   0  0  0  0  0  0  0  0  0  0  0  0
  -10.9170   -2.9010   -0.0111 H   0  0  0  0  0  0  0  0  0  0  0  0
  -11.0482   -4.5203   -1.8865 H   0  0  0  0  0  0  0  0  0  0  0  0
   -9.1215   -4.7932   -3.4247 H   0  0  0  0  0  0  0  0  0  0  0  0
   -7.0572   -3.4914   -3.0712 H   0  0  0  0  0  0  0  0  0  0  0  0
  1  2  2  0  0  0  0
  1 10  1  0  0  0  0
  2  3  1  0  0  0  0
  2 11  1  0  0  0  0
  3  4  2  0  0  0  0
  4  5  1  0  0  0  0
  4 12  1  0  0  0  0
  5  6  1  0  0  0  0
  5 10  2  0  0  0  0
  6  7  2  0  0  0  0
  6 13  1  0  0  0  0
  7  8  1  0  0  0  0
  7 28  1  0  0  0  0
  8  9  2  0  0  0  0
  8 29  1  0  0  0  0
  9 10  1  0  0  0  0
  9 30  1  0  0  0  0
 11 31  1  0  0  0  0
 11 32  1  0  0  0  0
 12 33  1  0  0  0  0
 12 34  1  0  0  0  0
 13 14  1  0  0  0  0
 14 18  1  0  0  0  0
 14 35  1  0  0  0  0
 14 36  1  0  0  0  0
 15 16  1  0  0  0  0
 15 20  1  0  0  0  0
 15 21  1  0  0  0  0
 16 17  1  0  0  0  0
 16 37  1  0  0  0  0
 16 38  1  0  0  0  0
 17 18  1  0  0  0  0
 17 39  1  0  0  0  0
 17 40  1  0  0  0  0
 18 19  1  0  0  0  0
 18 41  1  0  0  0  0
 19 20  1  0  0  0  0
 19 42  1  0  0  0  0
 19 43  1  0  0  0  0
 20 44  1  0  0  0  0
 20 45  1  0  0  0  0
 21 22  1  0  0  0  0
 21 46  1  0  0  0  0
 21 47  1  0  0  0  0
 22 23  2  0  0  0  0
 22 27  1  0  0  0  0
 23 24  1  0  0  0  0
 23 48  1  0  0  0  0
 24 25  2  0  0  0  0
 24 49  1  0  0  0  0
 25 26  1  0  0  0  0
 25 50  1  0  0  0  0
 26 27  2  0  0  0  0
 26 51  1  0  0  0  0
 27 52  1  0  0  0  0
M  END
>  <Mol_ID>
9360

>  <Formula>
C21H23Cl2N5O

>  <MolWeight>
432.34622

>  <Cat>
S0063

>  <Name>
RG3039

>  <Synonyms>
PF-06687859, PF 6687859, Quinazoline 495

>  <Target>
DNA/RNA Synthesis

>  <Form>
Free Base

>  <CAS>
1005504-62-0

>  <URL>
https://www.selleckchem.com/products/rg3039.html

$$$$
