RGFP966.cdx
 OpenBabel08302519573D

 46 48  0  0  0  0  0  0  0  0999 V2000
    1.0046   -1.6669    1.2900 C   0  0  0  0  0  0  0  0  0  0  0  0
   -0.0699   -1.9672    0.4379 C   0  0  0  0  0  0  0  0  0  0  0  0
   -1.2499   -1.2253    0.4731 C   0  0  0  0  0  0  0  0  0  0  0  0
   -1.3683   -0.1833    1.3739 C   0  0  0  0  0  0  0  0  0  0  0  0
   -0.3236    0.1378    2.2336 C   0  0  0  0  0  0  0  0  0  0  0  0
    0.8914   -0.5629    2.1719 C   0  0  0  0  0  0  0  0  0  0  0  0
    2.1993   -2.4389    1.3092 N   0  0  0  0  0  0  0  0  0  0  0  0
    2.4861   -3.5144    0.4954 C   0  0  0  0  0  0  0  0  0  0  0  0
    3.8327   -4.1093    0.7321 C   0  0  0  0  0  0  0  0  0  0  0  0
    1.7578   -3.9876   -0.3694 O   0  0  0  0  0  0  0  0  0  0  0  0
    4.1801   -5.1578   -0.0302 C   0  0  0  0  0  0  0  0  0  0  0  0
    5.4076   -5.8743   -0.0055 C   0  0  0  0  0  0  0  0  0  0  0  0
    1.8910   -0.2598    3.1216 N   0  0  0  0  0  0  0  0  0  0  0  0
   -2.5072    0.5197    1.4220 F   0  0  0  0  0  0  0  0  0  0  0  0
    6.5769   -5.7030    0.7599 C   0  0  0  0  0  0  0  0  0  0  0  0
    7.5161   -6.6090    0.4662 N   0  0  0  0  0  0  0  0  0  0  0  0
    6.9434   -7.3559   -0.5031 N   0  0  0  0  0  0  0  0  0  0  0  0
    5.6755   -6.9561   -0.8143 C   0  0  0  0  0  0  0  0  0  0  0  0
    7.6607   -8.4779   -1.0948 C   0  0  0  0  0  0  0  0  0  0  0  0
    8.4872   -8.0549   -2.2747 C   0  0  0  0  0  0  0  0  0  0  0  0
    8.3495   -8.5489   -3.5168 C   0  0  0  0  0  0  0  0  0  0  0  0
    9.2090   -8.1813   -4.6535 C   0  0  0  0  0  0  0  0  0  0  0  0
   10.5565   -7.8330   -4.4843 C   0  0  0  0  0  0  0  0  0  0  0  0
   11.3666   -7.5500   -5.5863 C   0  0  0  0  0  0  0  0  0  0  0  0
   10.8422   -7.6239   -6.8739 C   0  0  0  0  0  0  0  0  0  0  0  0
    9.5081   -7.9796   -7.0593 C   0  0  0  0  0  0  0  0  0  0  0  0
    8.6967   -8.2606   -5.9554 C   0  0  0  0  0  0  0  0  0  0  0  0
   -0.0384   -2.7940   -0.2625 H   0  0  0  0  0  0  0  0  0  0  0  0
   -2.0749   -1.4765   -0.1857 H   0  0  0  0  0  0  0  0  0  0  0  0
   -0.4706    0.9513    2.9362 H   0  0  0  0  0  0  0  0  0  0  0  0
    2.8639   -2.1801    2.0232 H   0  0  0  0  0  0  0  0  0  0  0  0
    4.4834   -3.6810    1.4795 H   0  0  0  0  0  0  0  0  0  0  0  0
    3.4576   -5.5206   -0.7635 H   0  0  0  0  0  0  0  0  0  0  0  0
    1.7607    0.6563    3.5488 H   0  0  0  0  0  0  0  0  0  0  0  0
    2.8351   -0.3453    2.7616 H   0  0  0  0  0  0  0  0  0  0  0  0
    6.7923   -4.9626    1.5181 H   0  0  0  0  0  0  0  0  0  0  0  0
    5.0918   -7.4598   -1.5716 H   0  0  0  0  0  0  0  0  0  0  0  0
    8.3058   -8.9018   -0.3173 H   0  0  0  0  0  0  0  0  0  0  0  0
    6.9171   -9.2372   -1.3626 H   0  0  0  0  0  0  0  0  0  0  0  0
    9.2431   -7.3038   -2.0547 H   0  0  0  0  0  0  0  0  0  0  0  0
    7.5717   -9.2786   -3.7324 H   0  0  0  0  0  0  0  0  0  0  0  0
   11.0002   -7.7924   -3.4929 H   0  0  0  0  0  0  0  0  0  0  0  0
   12.4090   -7.2819   -5.4358 H   0  0  0  0  0  0  0  0  0  0  0  0
   11.4750   -7.4109   -7.7312 H   0  0  0  0  0  0  0  0  0  0  0  0
    9.0991   -8.0438   -8.0643 H   0  0  0  0  0  0  0  0  0  0  0  0
    7.6595   -8.5401   -6.1259 H   0  0  0  0  0  0  0  0  0  0  0  0
  1  2  2  0  0  0  0
  1  7  1  0  0  0  0
  2  3  1  0  0  0  0
  2 28  1  0  0  0  0
  3  4  2  0  0  0  0
  3 29  1  0  0  0  0
  4  5  1  0  0  0  0
  4 14  1  0  0  0  0
  5  6  2  0  0  0  0
  5 30  1  0  0  0  0
  6  1  1  0  0  0  0
  6 13  1  0  0  0  0
  7  8  1  0  0  0  0
  7 31  1  0  0  0  0
  8  9  1  0  0  0  0
  8 10  2  0  0  0  0
  9 11  2  0  0  0  0
  9 32  1  0  0  0  0
 11 12  1  0  0  0  0
 11 33  1  0  0  0  0
 12 15  1  0  0  0  0
 13 34  1  0  0  0  0
 13 35  1  0  0  0  0
 15 16  2  0  0  0  0
 15 36  1  0  0  0  0
 16 17  1  0  0  0  0
 17 18  1  0  0  0  0
 17 19  1  0  0  0  0
 18 12  2  0  0  0  0
 18 37  1  0  0  0  0
 19 20  1  0  0  0  0
 19 38  1  0  0  0  0
 19 39  1  0  0  0  0
 20 21  2  0  0  0  0
 20 40  1  0  0  0  0
 21 22  1  0  0  0  0
 21 41  1  0  0  0  0
 22 23  2  0  0  0  0
 23 24  1  0  0  0  0
 23 42  1  0  0  0  0
 24 25  2  0  0  0  0
 24 43  1  0  0  0  0
 25 26  1  0  0  0  0
 25 44  1  0  0  0  0
 26 27  2  0  0  0  0
 26 45  1  0  0  0  0
 27 22  1  0  0  0  0
 27 46  1  0  0  0  0
M  END
>  <Mol_ID>
2255

>  <Formula>
C21H19FN4O

>  <MolWeight>
362.4001632

>  <Cat>
S7229

>  <Name>
RGFP966

>  <Synonyms>
N/A

>  <Target>
HDAC

>  <Form>
free base

>  <CAS>
1396841-57-8

>  <URL>
http://selleckchem.com/products/rgfp966.html

$$$$
