RGX-202
 OpenBabel08302521453D

 18 17  0  0  0  0  0  0  0  0999 V2000
    0.9473    0.0430   -0.0036 C   0  0  0  0  0  0  0  0  0  0  0  0
    0.4200   -1.2825   -0.5376 C   0  0  0  0  0  0  0  0  0  0  0  0
    0.2608    0.3995    1.2306 N   0  0  0  0  0  0  0  0  0  0  0  0
    1.0722   -1.6151   -1.8524 C   0  0  0  0  0  0  0  0  0  0  0  0
    0.6051    1.4663    1.9839 C   0  0  0  0  0  0  0  0  0  0  0  0
    0.6440   -2.7933   -2.3618 O   0  0  0  0  0  0  0  0  0  0  0  0
    1.9000   -0.9226   -2.4209 O   0  0  0  0  0  0  0  0  0  0  0  0
    1.4209    2.4137    1.7075 N   0  0  0  0  0  0  0  0  0  0  0  0
   -0.0413    1.4719    3.1636 N   0  0  0  0  0  0  0  0  0  0  0  0
    0.7876    0.8369   -0.7438 H   0  0  0  0  0  0  0  0  0  0  0  0
    2.0260   -0.0306    0.1776 H   0  0  0  0  0  0  0  0  0  0  0  0
    0.6403   -2.0853    0.1750 H   0  0  0  0  0  0  0  0  0  0  0  0
   -0.6642   -1.2271   -0.6862 H   0  0  0  0  0  0  0  0  0  0  0  0
    0.0058   -0.3902    1.8141 H   0  0  0  0  0  0  0  0  0  0  0  0
   -0.0199   -3.2543   -1.8136 H   0  0  0  0  0  0  0  0  0  0  0  0
    1.8269    2.2659    0.7832 H   0  0  0  0  0  0  0  0  0  0  0  0
   -1.0384    1.3275    3.0632 H   0  0  0  0  0  0  0  0  0  0  0  0
    0.1360    2.3585    3.6280 H   0  0  0  0  0  0  0  0  0  0  0  0
  1  2  1  0  0  0  0
  1  3  1  0  0  0  0
  1 10  1  0  0  0  0
  1 11  1  0  0  0  0
  2  4  1  0  0  0  0
  2 12  1  0  0  0  0
  2 13  1  0  0  0  0
  3  5  1  0  0  0  0
  3 14  1  0  0  0  0
  4  6  1  0  0  0  0
  4  7  2  0  0  0  0
  5  8  2  0  0  0  0
  5  9  1  0  0  0  0
  6 15  1  0  0  0  0
  8 16  1  0  0  0  0
  9 17  1  0  0  0  0
  9 18  1  0  0  0  0
M  END
>  <Mol_ID>
9474

>  <Formula>
C4H9N3O2

>  <MolWeight>
131.13316

>  <Cat>
E1223

>  <Name>
RGX-202

>  <Target>
Apoptosis related

>  <Form>
Free base

>  <CAS>
353-09-3

>  <URL>
https://www.selleckchem.com/products/rgx-202.html

$$$$
