RH01687
 OpenBabel08302521313D

 31 33  0  0  0  0  0  0  0  0999 V2000
    1.0582   -0.1053   -0.2090 S   0  0  0  0  0  0  0  0  0  0  0  0
   -1.4855    0.3656    1.7566 O   0  5  0  0  0  0  0  0  0  0  0  0
   -0.3509    1.5748    3.2059 O   0  0  0  0  0  0  0  0  0  0  0  0
    0.9432    4.7118   -2.1121 N   0  0  0  0  0  0  0  0  0  0  0  0
   -0.7006    1.2752    2.0557 N   0  3  0  0  0  0  0  0  0  0  0  0
    3.2138    1.0725    1.0485 N   0  0  0  0  0  0  0  0  0  0  0  0
    3.4084   -1.1571    0.5896 N   0  0  0  0  0  0  0  0  0  0  0  0
    4.5025   -0.6793    1.2094 N   0  0  0  0  0  0  0  0  0  0  0  0
    5.3420    1.3735    2.0700 N   0  0  0  0  0  0  0  0  0  0  0  0
    0.5539    3.8397   -1.0611 C   0  0  0  0  0  0  0  0  0  0  0  0
    0.8769    2.4726   -1.1237 C   0  0  0  0  0  0  0  0  0  0  0  0
    0.5213    1.5961   -0.0836 C   0  0  0  0  0  0  0  0  0  0  0  0
   -0.1584    4.3463    0.0338 C   0  0  0  0  0  0  0  0  0  0  0  0
   -0.2227    2.1235    0.9826 C   0  0  0  0  0  0  0  0  0  0  0  0
   -0.5672    3.4825    1.0481 C   0  0  0  0  0  0  0  0  0  0  0  0
    1.2173    6.0597   -1.9931 C   0  0  0  0  0  0  0  0  0  0  0  0
    1.1017    4.3694   -3.4397 C   0  0  0  0  0  0  0  0  0  0  0  0
    1.5294    6.5648   -3.2364 C   0  0  0  0  0  0  0  0  0  0  0  0
    1.4269    5.5007   -4.1567 C   0  0  0  0  0  0  0  0  0  0  0  0
    2.6507   -0.0583    0.5169 C   0  0  0  0  0  0  0  0  0  0  0  0
    4.3808    0.6555    1.4714 C   0  0  0  0  0  0  0  0  0  0  0  0
    5.2796   -1.2973    1.4082 H   0  0  0  0  0  0  0  0  0  0  0  0
    5.0883    2.3092    2.3765 H   0  0  0  0  0  0  0  0  0  0  0  0
    6.0830    0.9529    2.6175 H   0  0  0  0  0  0  0  0  0  0  0  0
    1.4630    2.0872   -1.9575 H   0  0  0  0  0  0  0  0  0  0  0  0
   -0.4542    5.3921    0.0862 H   0  0  0  0  0  0  0  0  0  0  0  0
   -1.1611    3.8674    1.8755 H   0  0  0  0  0  0  0  0  0  0  0  0
    1.2199    6.5473   -1.0277 H   0  0  0  0  0  0  0  0  0  0  0  0
    0.9093    3.3635   -3.7869 H   0  0  0  0  0  0  0  0  0  0  0  0
    1.8024    7.5898   -3.4518 H   0  0  0  0  0  0  0  0  0  0  0  0
    1.5765    5.5478   -5.2278 H   0  0  0  0  0  0  0  0  0  0  0  0
  1 12  1  0  0  0  0
  1 20  1  0  0  0  0
  2  5  1  0  0  0  0
  3  5  2  0  0  0  0
  4 10  1  0  0  0  0
  4 16  1  0  0  0  0
  4 17  1  0  0  0  0
  5 14  1  0  0  0  0
  6 20  1  0  0  0  0
  6 21  2  0  0  0  0
  7  8  1  0  0  0  0
  7 20  2  0  0  0  0
  8 21  1  0  0  0  0
  8 22  1  0  0  0  0
  9 21  1  0  0  0  0
  9 23  1  0  0  0  0
  9 24  1  0  0  0  0
 10 11  2  0  0  0  0
 10 13  1  0  0  0  0
 11 12  1  0  0  0  0
 11 25  1  0  0  0  0
 12 14  2  0  0  0  0
 13 15  2  0  0  0  0
 13 26  1  0  0  0  0
 14 15  1  0  0  0  0
 15 27  1  0  0  0  0
 16 18  2  0  0  0  0
 16 28  1  0  0  0  0
 17 19  2  0  0  0  0
 17 29  1  0  0  0  0
 18 19  1  0  0  0  0
 18 30  1  0  0  0  0
 19 31  1  0  0  0  0
M  CHG  2   2  -1   5   1
M  END
>  <Mol_ID>
6006

>  <Formula>
C12H9ClN6O2S

>  <MolWeight>
336.75686

>  <Cat>
S3461

>  <Name>
RH01687

>  <Synonyms>
N/A

>  <Target>
Others

>  <Form>
Free Base

>  <CAS>
302901-13-9

>  <URL>
http://www.selleckchem.com/products/rh01687.html

$$$$
