Rhamnose
 OpenBabel08302521323D

 23 22  0  0  0  0  0  0  0  0999 V2000
   -2.7171    2.8911    0.3816 C   0  0  1  0  0  0  0  0  0  0  0  0
   -0.5008    0.9578    1.0290 O   0  0  0  0  0  0  0  0  0  0  0  0
   -1.7102    0.5167    0.3880 C   0  0  2  0  0  0  0  0  0  0  0  0
   -2.9831    1.4337    2.2603 O   0  0  0  0  0  0  0  0  0  0  0  0
   -3.1601   -1.4540    0.1691 O   0  0  0  0  0  0  0  0  0  0  0  0
   -2.6921    3.0543   -1.1263 C   0  0  0  0  0  0  0  0  0  0  0  0
   -2.8915    1.4261    0.8202 C   0  0  1  0  0  0  0  0  0  0  0  0
   -1.4948    3.4197    0.9276 O   0  0  0  0  0  0  0  0  0  0  0  0
   -3.1945    2.2629   -1.9172 O   0  0  0  0  0  0  0  0  0  0  0  0
   -0.7934   -1.8521    0.2476 C   0  0  0  0  0  0  0  0  0  0  0  0
   -1.9404   -0.9699    0.7391 C   0  0  1  0  0  0  0  0  0  0  0  0
   -3.5387    3.5016    0.7731 H   0  0  0  0  0  0  0  0  0  0  0  0
   -0.4541    1.9317    0.9203 H   0  0  0  0  0  0  0  0  0  0  0  0
   -1.5652    0.5982   -0.6947 H   0  0  0  0  0  0  0  0  0  0  0  0
   -2.0628    1.5077    2.5823 H   0  0  0  0  0  0  0  0  0  0  0  0
   -3.0090   -1.6258   -0.7762 H   0  0  0  0  0  0  0  0  0  0  0  0
   -2.2317    3.9904   -1.4888 H   0  0  0  0  0  0  0  0  0  0  0  0
   -3.8384    1.0377    0.4297 H   0  0  0  0  0  0  0  0  0  0  0  0
   -1.7282    4.2563    1.3739 H   0  0  0  0  0  0  0  0  0  0  0  0
   -0.7106   -1.8106   -0.8446 H   0  0  0  0  0  0  0  0  0  0  0  0
    0.1662   -1.5484    0.6796 H   0  0  0  0  0  0  0  0  0  0  0  0
   -0.9771   -2.8969    0.5101 H   0  0  0  0  0  0  0  0  0  0  0  0
   -2.0150   -1.0838    1.8268 H   0  0  0  0  0  0  0  0  0  0  0  0
  1 12  1  1  0  0  0
  1  7  1  0  0  0  0
  1  8  1  0  0  0  0
  2 13  1  0  0  0  0
  3  2  1  0  0  0  0
  3 14  1  6  0  0  0
  4 15  1  0  0  0  0
  5 16  1  0  0  0  0
  6  1  1  0  0  0  0
  6 17  1  0  0  0  0
  7 18  1  6  0  0  0
  7  3  1  0  0  0  0
  7  4  1  0  0  0  0
  8 19  1  0  0  0  0
  9  6  2  0  0  0  0
 10 20  1  0  0  0  0
 10 21  1  0  0  0  0
 10 22  1  0  0  0  0
 11  5  1  0  0  0  0
 11 23  1  1  0  0  0
 11 10  1  0  0  0  0
 11  3  1  0  0  0  0
M  END
>  <Mol_ID>
6134

>  <Formula>
C6H12O5

>  <MolWeight>
164.15648

>  <Cat>
E0245

>  <Name>
Rhamnose

>  <Synonyms>
L-Rhamnose

>  <Target>
Others

>  <Form>
free base

>  <CAS>
3615-41-6

>  <URL>
http://www.selleckchem.com/products/rhamnose.html

$$$$
