RHC 80267
 OpenBabel08302521283D

 62 63  0  0  0  0  0  0  0  0999 V2000
   -0.8498   -0.9173    2.4356 O   0  0  0  0  0  0  0  0  0  0  0  0
    0.2822    5.3018    6.8977 O   0  0  0  0  0  0  0  0  0  0  0  0
    1.1537   -1.6289    1.5182 O   0  0  0  0  0  0  0  0  0  0  0  0
   -0.2372    3.8343    5.2042 O   0  0  0  0  0  0  0  0  0  0  0  0
   -1.0525   -2.2200    2.9327 N   0  0  0  0  0  0  0  0  0  0  0  0
   -0.4628    6.3923    6.4171 N   0  0  0  0  0  0  0  0  0  0  0  0
    0.9128    0.4802    2.3947 N   0  0  0  0  0  0  0  0  0  0  0  0
    1.9435    4.4259    5.6452 N   0  0  0  0  0  0  0  0  0  0  0  0
   -5.0434   -3.3183    3.6966 C   0  0  0  0  0  0  0  0  0  0  0  0
   -3.2390    8.0047    9.1303 C   0  0  0  0  0  0  0  0  0  0  0  0
   -4.7276   -2.2623    2.6425 C   0  0  0  0  0  0  0  0  0  0  0  0
   -3.9143   -4.3384    3.7718 C   0  0  0  0  0  0  0  0  0  0  0  0
   -2.1892    7.0195    9.6325 C   0  0  0  0  0  0  0  0  0  0  0  0
   -2.6840    8.8141    7.9649 C   0  0  0  0  0  0  0  0  0  0  0  0
   -3.4483   -1.5004    2.9753 C   0  0  0  0  0  0  0  0  0  0  0  0
   -2.5750   -3.6863    4.0755 C   0  0  0  0  0  0  0  0  0  0  0  0
   -1.7490    6.0504    8.5404 C   0  0  0  0  0  0  0  0  0  0  0  0
   -2.2725    7.9183    6.8074 C   0  0  0  0  0  0  0  0  0  0  0  0
   -2.2944   -2.4513    3.2344 C   0  0  0  0  0  0  0  0  0  0  0  0
   -1.3835    6.7676    7.2495 C   0  0  0  0  0  0  0  0  0  0  0  0
    4.4738    1.1061    3.7049 C   0  0  0  0  0  0  0  0  0  0  0  0
    4.6236    2.6267    3.5326 C   0  0  0  0  0  0  0  0  0  0  0  0
    3.0758    0.4841    3.5878 C   0  0  0  0  0  0  0  0  0  0  0  0
    4.0214    3.5303    4.6200 C   0  0  0  0  0  0  0  0  0  0  0  0
    2.3084    0.8604    2.3173 C   0  0  0  0  0  0  0  0  0  0  0  0
    2.5004    3.5067    4.6874 C   0  0  0  0  0  0  0  0  0  0  0  0
    0.4631   -0.7703    2.0529 C   0  0  0  0  0  0  0  0  0  0  0  0
    0.5846    4.4776    5.8424 C   0  0  0  0  0  0  0  0  0  0  0  0
    0.2758    1.0378    2.9497 H   0  0  0  0  0  0  0  0  0  0  0  0
    2.5209    5.0105    6.2301 H   0  0  0  0  0  0  0  0  0  0  0  0
   -5.1876   -2.8415    4.6731 H   0  0  0  0  0  0  0  0  0  0  0  0
   -5.9809   -3.8264    3.4443 H   0  0  0  0  0  0  0  0  0  0  0  0
   -4.1417    7.4655    8.8175 H   0  0  0  0  0  0  0  0  0  0  0  0
   -3.5309    8.6798    9.9423 H   0  0  0  0  0  0  0  0  0  0  0  0
   -5.5651   -1.5602    2.5626 H   0  0  0  0  0  0  0  0  0  0  0  0
   -4.6239   -2.7504    1.6648 H   0  0  0  0  0  0  0  0  0  0  0  0
   -4.1416   -5.0800    4.5490 H   0  0  0  0  0  0  0  0  0  0  0  0
   -3.8518   -4.8819    2.8225 H   0  0  0  0  0  0  0  0  0  0  0  0
   -2.5907    6.4571   10.4830 H   0  0  0  0  0  0  0  0  0  0  0  0
   -1.3186    7.5770   10.0000 H   0  0  0  0  0  0  0  0  0  0  0  0
   -3.4359    9.5330    7.6216 H   0  0  0  0  0  0  0  0  0  0  0  0
   -1.8184    9.3951    8.3077 H   0  0  0  0  0  0  0  0  0  0  0  0
   -3.5909   -0.8941    3.8764 H   0  0  0  0  0  0  0  0  0  0  0  0
   -3.2180   -0.8263    2.1449 H   0  0  0  0  0  0  0  0  0  0  0  0
   -1.7672   -4.4144    3.9420 H   0  0  0  0  0  0  0  0  0  0  0  0
   -2.5530   -3.3623    5.1232 H   0  0  0  0  0  0  0  0  0  0  0  0
   -2.5655    5.3567    8.3075 H   0  0  0  0  0  0  0  0  0  0  0  0
   -0.9094    5.4588    8.9160 H   0  0  0  0  0  0  0  0  0  0  0  0
   -1.7432    8.5128    6.0552 H   0  0  0  0  0  0  0  0  0  0  0  0
   -3.1586    7.4854    6.3269 H   0  0  0  0  0  0  0  0  0  0  0  0
    4.9035    0.8181    4.6734 H   0  0  0  0  0  0  0  0  0  0  0  0
    5.1080    0.6291    2.9449 H   0  0  0  0  0  0  0  0  0  0  0  0
    5.7034    2.8335    3.5186 H   0  0  0  0  0  0  0  0  0  0  0  0
    4.2608    2.9353    2.5461 H   0  0  0  0  0  0  0  0  0  0  0  0
    2.4874    0.7115    4.4785 H   0  0  0  0  0  0  0  0  0  0  0  0
    3.1839   -0.6095    3.6229 H   0  0  0  0  0  0  0  0  0  0  0  0
    4.4465    3.2702    5.5967 H   0  0  0  0  0  0  0  0  0  0  0  0
    4.3442    4.5600    4.4149 H   0  0  0  0  0  0  0  0  0  0  0  0
    2.7715    0.3801    1.4486 H   0  0  0  0  0  0  0  0  0  0  0  0
    2.3115    1.9397    2.1505 H   0  0  0  0  0  0  0  0  0  0  0  0
    2.0590    3.7255    3.7079 H   0  0  0  0  0  0  0  0  0  0  0  0
    2.1469    2.5327    5.0131 H   0  0  0  0  0  0  0  0  0  0  0  0
  1  5  1  0  0  0  0
  1 27  1  0  0  0  0
  2  6  1  0  0  0  0
  2 28  1  0  0  0  0
  3 27  2  0  0  0  0
  4 28  2  0  0  0  0
  5 19  2  0  0  0  0
  6 20  2  0  0  0  0
  7 25  1  0  0  0  0
  7 27  1  0  0  0  0
  7 29  1  0  0  0  0
  8 26  1  0  0  0  0
  8 28  1  0  0  0  0
  8 30  1  0  0  0  0
  9 11  1  0  0  0  0
  9 12  1  0  0  0  0
  9 31  1  0  0  0  0
  9 32  1  0  0  0  0
 10 13  1  0  0  0  0
 10 14  1  0  0  0  0
 10 33  1  0  0  0  0
 10 34  1  0  0  0  0
 11 15  1  0  0  0  0
 11 35  1  0  0  0  0
 11 36  1  0  0  0  0
 12 16  1  0  0  0  0
 12 37  1  0  0  0  0
 12 38  1  0  0  0  0
 13 17  1  0  0  0  0
 13 39  1  0  0  0  0
 13 40  1  0  0  0  0
 14 18  1  0  0  0  0
 14 41  1  0  0  0  0
 14 42  1  0  0  0  0
 15 19  1  0  0  0  0
 15 43  1  0  0  0  0
 15 44  1  0  0  0  0
 16 19  1  0  0  0  0
 16 45  1  0  0  0  0
 16 46  1  0  0  0  0
 17 20  1  0  0  0  0
 17 47  1  0  0  0  0
 17 48  1  0  0  0  0
 18 20  1  0  0  0  0
 18 49  1  0  0  0  0
 18 50  1  0  0  0  0
 21 22  1  0  0  0  0
 21 23  1  0  0  0  0
 21 51  1  0  0  0  0
 21 52  1  0  0  0  0
 22 24  1  0  0  0  0
 22 53  1  0  0  0  0
 22 54  1  0  0  0  0
 23 25  1  0  0  0  0
 23 55  1  0  0  0  0
 23 56  1  0  0  0  0
 24 26  1  0  0  0  0
 24 57  1  0  0  0  0
 24 58  1  0  0  0  0
 25 59  1  0  0  0  0
 25 60  1  0  0  0  0
 26 61  1  0  0  0  0
 26 62  1  0  0  0  0
M  END
>  <Mol_ID>
5390

>  <Formula>
C20H34N4O4

>  <MolWeight>
394.50836

>  <Cat>
S0766

>  <Name>
RHC 80267

>  <Synonyms>
U-57908

>  <Target>
AChR,COX,Phospholipase (e.g. PLA)

>  <Form>
Free Base

>  <CAS>
83654-05-1

>  <URL>
https://www.selleckchem.com/products/rhc-80267.html

$$$$
