Rhodojaponin II
 OpenBabel08302521463D

 63 67  0  0  0  0  0  0  0  0999 V2000
    0.5436    0.4458   -3.0176 O   0  0  0  0  0  0  0  0  0  0  0  0
   -0.0759   -4.4380   -4.8211 C   0  0  0  0  0  0  0  0  0  0  0  0
    1.3805   -5.6583   -3.4029 O   0  0  0  0  0  0  0  0  0  0  0  0
    4.6004   -1.7575   -5.5786 O   0  0  0  0  0  0  0  0  0  0  0  0
    5.1277   -1.0068   -6.5303 C   0  0  0  0  0  0  0  0  0  0  0  0
    6.4982   -0.5643   -6.0699 C   0  0  0  0  0  0  0  0  0  0  0  0
    4.5934   -0.7532   -7.5968 O   0  0  0  0  0  0  0  0  0  0  0  0
    3.6949    0.1561   -0.9008 C   0  0  0  0  0  0  0  0  0  0  0  0
    3.7698   -2.1331   -1.4986 O   0  0  0  0  0  0  0  0  0  0  0  0
    1.9897   -3.4371   -7.2543 O   0  0  0  0  0  0  0  0  0  0  0  0
    4.5608   -4.1499   -8.3760 C   0  0  0  0  0  0  0  0  0  0  0  0
    5.4649   -4.6175   -6.1009 C   0  0  0  0  0  0  0  0  0  0  0  0
    1.7679   -1.6541   -3.6496 C   0  0  3  0  0  0  0  0  0  0  0  0
    1.6782   -3.2560   -3.1867 C   0  0  3  0  0  0  0  0  0  0  0  0
    2.0161   -1.5226   -5.1736 C   0  0  0  0  0  0  0  0  0  0  0  0
    0.7270   -0.9383   -2.7368 C   0  0  3  0  0  0  0  0  0  0  0  0
    2.9650   -0.7449   -3.1251 C   0  0  0  0  0  0  0  0  0  0  0  0
    1.3303   -4.4386   -4.2211 C   0  0  3  0  0  0  0  0  0  0  0  0
    0.8233   -3.4736   -1.8905 C   0  0  0  0  0  0  0  0  0  0  0  0
    3.3077   -2.3980   -5.4995 C   0  0  3  0  0  0  0  0  0  0  0  0
    1.4610   -1.1236   -1.3284 C   0  0  3  0  0  0  0  0  0  0  0  0
    2.9810   -0.9564   -1.6432 C   0  0  3  0  0  0  0  0  0  0  0  0
    2.4859   -4.7181   -5.2059 C   0  0  3  0  0  0  0  0  0  0  0  0
    1.1874   -2.5170   -0.7716 C   0  0  0  0  0  0  0  0  0  0  0  0
    3.0126   -3.6899   -6.2773 C   0  0  3  0  0  0  0  0  0  0  0  0
    2.4388   -6.0107   -5.9713 C   0  0  3  0  0  0  0  0  0  0  0  0
    4.1703   -4.5508   -6.9462 C   0  0  0  0  0  0  0  0  0  0  0  0
    3.4989   -5.9383   -7.0230 C   0  0  3  0  0  0  0  0  0  0  0  0
    3.6237   -6.8084   -5.8971 O   0  0  0  0  0  0  0  0  0  0  0  0
    0.3759    0.9059   -2.1748 H   0  0  0  0  0  0  0  0  0  0  0  0
   -0.3400   -5.4462   -5.1717 H   0  0  0  0  0  0  0  0  0  0  0  0
   -0.8320   -4.2156   -4.0599 H   0  0  0  0  0  0  0  0  0  0  0  0
   -0.2051   -3.7431   -5.6492 H   0  0  0  0  0  0  0  0  0  0  0  0
    0.4981   -5.8568   -3.0515 H   0  0  0  0  0  0  0  0  0  0  0  0
    7.2696   -0.9134   -6.7688 H   0  0  0  0  0  0  0  0  0  0  0  0
    6.5264    0.5186   -5.9733 H   0  0  0  0  0  0  0  0  0  0  0  0
    6.7365   -0.9961   -5.0925 H   0  0  0  0  0  0  0  0  0  0  0  0
    3.9308   -0.1655    0.1167 H   0  0  0  0  0  0  0  0  0  0  0  0
    4.6574    0.3770   -1.3790 H   0  0  0  0  0  0  0  0  0  0  0  0
    3.1142    1.0815   -0.8596 H   0  0  0  0  0  0  0  0  0  0  0  0
    4.0301   -2.2277   -0.5840 H   0  0  0  0  0  0  0  0  0  0  0  0
    2.3348   -2.7513   -7.8595 H   0  0  0  0  0  0  0  0  0  0  0  0
    5.0770   -3.1889   -8.4090 H   0  0  0  0  0  0  0  0  0  0  0  0
    5.2415   -4.9014   -8.7984 H   0  0  0  0  0  0  0  0  0  0  0  0
    3.6970   -4.1058   -9.0461 H   0  0  0  0  0  0  0  0  0  0  0  0
    5.2822   -4.5542   -5.0242 H   0  0  0  0  0  0  0  0  0  0  0  0
    6.0032   -5.5555   -6.2750 H   0  0  0  0  0  0  0  0  0  0  0  0
    6.1482   -3.7986   -6.3475 H   0  0  0  0  0  0  0  0  0  0  0  0
    2.6881   -3.5184   -2.8599 H   0  0  0  0  0  0  0  0  0  0  0  0
    1.1256   -1.8555   -5.7136 H   0  0  0  0  0  0  0  0  0  0  0  0
    2.1860   -0.4807   -5.4777 H   0  0  0  0  0  0  0  0  0  0  0  0
   -0.2730   -1.3815   -2.7656 H   0  0  0  0  0  0  0  0  0  0  0  0
    3.9407   -0.9393   -3.5599 H   0  0  0  0  0  0  0  0  0  0  0  0
    2.7713    0.3166   -3.3718 H   0  0  0  0  0  0  0  0  0  0  0  0
   -0.2458   -3.3776   -2.1153 H   0  0  0  0  0  0  0  0  0  0  0  0
    0.9462   -4.4842   -1.4902 H   0  0  0  0  0  0  0  0  0  0  0  0
    3.5632   -2.8249   -4.5343 H   0  0  0  0  0  0  0  0  0  0  0  0
    1.1351   -0.3614   -0.6119 H   0  0  0  0  0  0  0  0  0  0  0  0
    3.3226   -4.8789   -4.5078 H   0  0  0  0  0  0  0  0  0  0  0  0
    0.3730   -2.4890   -0.0410 H   0  0  0  0  0  0  0  0  0  0  0  0
    2.0443   -2.9148   -0.2193 H   0  0  0  0  0  0  0  0  0  0  0  0
    1.4812   -6.4463   -6.1956 H   0  0  0  0  0  0  0  0  0  0  0  0
    3.2692   -6.3329   -8.0007 H   0  0  0  0  0  0  0  0  0  0  0  0
  1 16  1  0  0  0  0
  1 30  1  0  0  0  0
  2 18  1  0  0  0  0
  2 31  1  0  0  0  0
  2 32  1  0  0  0  0
  2 33  1  0  0  0  0
  3 18  1  0  0  0  0
  3 34  1  0  0  0  0
  4  5  1  0  0  0  0
  4 20  1  0  0  0  0
  5  6  1  0  0  0  0
  5  7  2  0  0  0  0
  6 35  1  0  0  0  0
  6 36  1  0  0  0  0
  6 37  1  0  0  0  0
  8 22  1  0  0  0  0
  8 38  1  0  0  0  0
  8 39  1  0  0  0  0
  8 40  1  0  0  0  0
  9 22  1  0  0  0  0
  9 41  1  0  0  0  0
 10 25  1  0  0  0  0
 10 42  1  0  0  0  0
 11 27  1  0  0  0  0
 11 43  1  0  0  0  0
 11 44  1  0  0  0  0
 11 45  1  0  0  0  0
 12 27  1  0  0  0  0
 12 46  1  0  0  0  0
 12 47  1  0  0  0  0
 12 48  1  0  0  0  0
 13 14  1  0  0  0  0
 13 15  1  0  0  0  0
 13 16  1  0  0  0  0
 13 17  1  0  0  0  0
 14 18  1  0  0  0  0
 14 19  1  0  0  0  0
 14 49  1  0  0  0  0
 15 20  1  0  0  0  0
 15 50  1  0  0  0  0
 15 51  1  0  0  0  0
 16 21  1  0  0  0  0
 16 52  1  0  0  0  0
 17 22  1  0  0  0  0
 17 53  1  0  0  0  0
 17 54  1  0  0  0  0
 18 23  1  0  0  0  0
 19 24  1  0  0  0  0
 19 55  1  0  0  0  0
 19 56  1  0  0  0  0
 20 25  1  0  0  0  0
 20 57  1  0  0  0  0
 21 22  1  0  0  0  0
 21 24  1  0  0  0  0
 21 58  1  0  0  0  0
 23 25  1  0  0  0  0
 23 26  1  0  0  0  0
 23 59  1  0  0  0  0
 24 60  1  0  0  0  0
 24 61  1  0  0  0  0
 25 27  1  0  0  0  0
 26 28  1  0  0  0  0
 26 29  1  0  0  0  0
 26 62  1  0  0  0  0
 27 28  1  0  0  0  0
 28 29  1  0  0  0  0
 28 63  1  0  0  0  0
M  END
>  <Mol_ID>
9707

>  <Formula>
C22H34O7

>  <MolWeight>
410.50116

>  <Cat>
E0774

>  <Name>
Rhodojaponin II

>  <Synonyms>
NA

>  <Target>
Akt, NF-¦ÊB, TLR4/MyD88

>  <Form>
free base

>  <CAS>
26116-89-2

>  <URL>
https://www.selleckchem.com/products/rhodojaponin-2.html

$$$$
