Rhodojaponin III
 OpenBabel08302521463D

 58 62  0  0  1  0  0  0  0  0999 V2000
    1.2153   -0.1687   -2.1211 O   0  0  0  0  0  0  0  0  0  0  0  0
    0.1092   -3.7791    2.5648 C   0  0  0  0  0  0  0  0  0  0  0  0
    0.7268   -1.4896    2.2548 O   0  0  0  0  0  0  0  0  0  0  0  0
   -0.9864   -4.7074   -0.2493 O   0  0  0  0  0  0  0  0  0  0  0  0
    3.6297   -4.1030   -1.6246 C   0  0  0  0  0  0  0  0  0  0  0  0
    3.8677   -2.3882   -3.2444 O   0  0  0  0  0  0  0  0  0  0  0  0
   -2.8034   -1.5145   -0.5636 O   0  0  0  0  0  0  0  0  0  0  0  0
   -4.8255   -3.0742    0.1592 C   0  0  0  0  0  0  0  0  0  0  0  0
   -3.4360   -4.7643    1.3009 C   0  0  0  0  0  0  0  0  0  0  0  0
    0.8726   -2.4316   -1.1055 C   0  0  2  0  0  0  0  0  0  0  0  0
    1.1588   -3.0051    0.3683 C   0  0  2  0  0  0  0  0  0  0  0  0
    1.5365   -1.0362   -1.0402 C   0  0  1  0  0  0  0  0  0  0  0  0
   -0.5607   -2.7055   -1.6435 C   0  0  0  0  0  0  0  0  0  0  0  0
    1.6761   -2.8949   -2.3811 C   0  0  0  0  0  0  0  0  0  0  0  0
    0.1242   -2.6166    1.5503 C   0  0  1  0  0  0  0  0  0  0  0  0
    2.6320   -2.7922    0.9484 C   0  0  0  0  0  0  0  0  0  0  0  0
    3.0618   -1.4502   -1.1250 C   0  0  2  0  0  0  0  0  0  0  0  0
   -1.5537   -3.5473   -0.8312 C   0  0  2  0  0  0  0  0  0  0  0  0
    3.1319   -2.7051   -2.0624 C   0  0  1  0  0  0  0  0  0  0  0  0
   -1.2940   -2.0274    1.2074 C   0  0  3  0  0  0  0  0  0  0  0  0
    3.5245   -1.7676    0.2681 C   0  0  0  0  0  0  0  0  0  0  0  0
   -2.2659   -2.6598    0.1765 C   0  0  3  0  0  0  0  0  0  0  0  0
   -2.1893   -1.7491    2.4039 C   0  0  3  0  0  0  0  0  0  0  0  0
   -3.5065   -3.2697    0.9481 C   0  0  0  0  0  0  0  0  0  0  0  0
   -3.5152   -2.4325    2.2154 C   0  0  3  0  0  0  0  0  0  0  0  0
   -2.5975   -2.8446    3.2257 O   0  0  0  0  0  0  0  0  0  0  0  0
    1.5930    0.6992   -1.8917 H   0  0  0  0  0  0  0  0  0  0  0  0
   -0.4563   -4.6357    2.2006 H   0  0  0  0  0  0  0  0  0  0  0  0
    1.1269   -4.1352    2.7699 H   0  0  0  0  0  0  0  0  0  0  0  0
   -0.2768   -3.4853    3.5458 H   0  0  0  0  0  0  0  0  0  0  0  0
    0.6914   -1.6455    3.2262 H   0  0  0  0  0  0  0  0  0  0  0  0
   -0.4631   -5.1779   -0.9184 H   0  0  0  0  0  0  0  0  0  0  0  0
    2.7996   -4.8180   -1.5034 H   0  0  0  0  0  0  0  0  0  0  0  0
    4.2814   -4.5501   -2.3877 H   0  0  0  0  0  0  0  0  0  0  0  0
    4.1927   -4.1248   -0.6959 H   0  0  0  0  0  0  0  0  0  0  0  0
    3.4881   -1.5837   -3.6366 H   0  0  0  0  0  0  0  0  0  0  0  0
   -3.2116   -1.8460   -1.3832 H   0  0  0  0  0  0  0  0  0  0  0  0
   -5.6516   -3.6308    0.6127 H   0  0  0  0  0  0  0  0  0  0  0  0
   -5.1381   -2.0237    0.1291 H   0  0  0  0  0  0  0  0  0  0  0  0
   -4.7229   -3.4318   -0.8722 H   0  0  0  0  0  0  0  0  0  0  0  0
   -3.4919   -5.3920    0.4048 H   0  0  0  0  0  0  0  0  0  0  0  0
   -4.2807   -5.0453    1.9439 H   0  0  0  0  0  0  0  0  0  0  0  0
   -2.5336   -5.0314    1.8517 H   0  0  0  0  0  0  0  0  0  0  0  0
    1.1075   -4.0997    0.2499 H   0  0  0  0  0  0  0  0  0  0  0  0
    1.3126   -0.4902   -0.1208 H   0  0  0  0  0  0  0  0  0  0  0  0
   -1.0034   -1.7797   -2.0210 H   0  0  0  0  0  0  0  0  0  0  0  0
   -0.4898   -3.3272   -2.5492 H   0  0  0  0  0  0  0  0  0  0  0  0
    1.4366   -3.9015   -2.7426 H   0  0  0  0  0  0  0  0  0  0  0  0
    1.4147   -2.2493   -3.2422 H   0  0  0  0  0  0  0  0  0  0  0  0
    3.1290   -3.7680    0.9787 H   0  0  0  0  0  0  0  0  0  0  0  0
    2.6404   -2.5325    2.0161 H   0  0  0  0  0  0  0  0  0  0  0  0
    3.6543   -0.6326   -1.5496 H   0  0  0  0  0  0  0  0  0  0  0  0
   -2.3131   -3.9250   -1.5314 H   0  0  0  0  0  0  0  0  0  0  0  0
   -1.0682   -1.0187    0.8191 H   0  0  0  0  0  0  0  0  0  0  0  0
    4.5689   -2.1173    0.2538 H   0  0  0  0  0  0  0  0  0  0  0  0
    3.5461   -0.8414    0.8472 H   0  0  0  0  0  0  0  0  0  0  0  0
   -2.1314   -0.7585    2.8252 H   0  0  0  0  0  0  0  0  0  0  0  0
   -4.4236   -1.9120    2.4726 H   0  0  0  0  0  0  0  0  0  0  0  0
  1 27  1  0  0  0  0
  2 28  1  0  0  0  0
  2 29  1  0  0  0  0
  2 30  1  0  0  0  0
  3 31  1  0  0  0  0
  4 32  1  0  0  0  0
  5 33  1  0  0  0  0
  5 34  1  0  0  0  0
  5 35  1  0  0  0  0
  6 36  1  0  0  0  0
  7 37  1  0  0  0  0
  8 24  1  0  0  0  0
  8 38  1  0  0  0  0
  8 39  1  0  0  0  0
  8 40  1  0  0  0  0
  9 24  1  0  0  0  0
  9 41  1  0  0  0  0
  9 42  1  0  0  0  0
  9 43  1  0  0  0  0
 10 11  1  0  0  0  0
 10 12  1  0  0  0  0
 10 13  1  6  0  0  0
 10 14  1  0  0  0  0
 11 15  1  0  0  0  0
 11 16  1  0  0  0  0
 11 44  1  6  0  0  0
 12  1  1  0  0  0  0
 12 17  1  0  0  0  0
 12 45  1  1  0  0  0
 13 18  1  0  0  0  0
 13 46  1  0  0  0  0
 13 47  1  0  0  0  0
 14 19  1  0  0  0  0
 14 48  1  0  0  0  0
 14 49  1  0  0  0  0
 15  3  1  1  0  0  0
 15  2  1  0  0  0  0
 16 21  1  0  0  0  0
 16 50  1  0  0  0  0
 16 51  1  0  0  0  0
 17 19  1  0  0  0  0
 17 21  1  0  0  0  0
 17 52  1  6  0  0  0
 18 22  1  0  0  0  0
 18 53  1  6  0  0  0
 18  4  1  0  0  0  0
 19  6  1  6  0  0  0
 19  5  1  0  0  0  0
 20 15  1  0  0  0  0
 20 22  1  0  0  0  0
 20 23  1  0  0  0  0
 20 54  1  0  0  0  0
 21 55  1  0  0  0  0
 21 56  1  0  0  0  0
 22  7  1  0  0  0  0
 22 24  1  0  0  0  0
 23 25  1  0  0  0  0
 23 26  1  0  0  0  0
 23 57  1  0  0  0  0
 24 25  1  0  0  0  0
 25 26  1  0  0  0  0
 25 58  1  0  0  0  0
M  END
>  <Mol_ID>
9706

>  <Formula>
C20H32O6

>  <MolWeight>
368.46448

>  <Cat>
E0773

>  <Name>
Rhodojaponin III

>  <Synonyms>
NA

>  <Target>
VGSCs

>  <Form>
free base

>  <CAS>
26342-66-5

>  <URL>
https://www.selleckchem.com/products/rhodojaponin-3.html

$$$$
