Rhodamine 123
 OpenBabel08302521303D

 42 45  0  0  0  0  0  0  0  0999 V2000
   -0.0456   -1.4188    0.1136 O   0  0  0  0  0  0  0  0  0  0  0  0
    0.0597    1.8395   -2.5781 O   0  0  0  0  0  0  0  0  0  0  0  0
    0.3311    3.9058   -3.5084 O   0  0  0  0  0  0  0  0  0  0  0  0
   -4.8347   -1.5486    0.1488 N   0  0  0  0  0  0  0  0  0  0  0  0
    4.6999   -1.4665   -0.0257 N   0  0  0  0  0  0  0  0  0  0  0  0
    0.0148    1.4410    0.0640 C   0  0  0  0  0  0  0  0  0  0  0  0
   -1.2533    0.6730    0.0162 C   0  0  0  0  0  0  0  0  0  0  0  0
    1.1796    0.7421    0.1163 C   0  0  0  0  0  0  0  0  0  0  0  0
    0.0075    2.9264    0.0399 C   0  0  0  0  0  0  0  0  0  0  0  0
   -1.2212   -0.7159    0.0610 C   0  0  0  0  0  0  0  0  0  0  0  0
    1.1609   -0.7291    0.1000 C   0  0  0  0  0  0  0  0  0  0  0  0
   -2.5029    1.3088   -0.0470 C   0  0  0  0  0  0  0  0  0  0  0  0
    2.4865    1.4077    0.1813 C   0  0  0  0  0  0  0  0  0  0  0  0
    0.0760    3.7116   -1.1329 C   0  0  0  0  0  0  0  0  0  0  0  0
   -2.4067   -1.4601    0.0655 C   0  0  0  0  0  0  0  0  0  0  0  0
    2.3020   -1.4333    0.0614 C   0  0  0  0  0  0  0  0  0  0  0  0
   -0.1745    3.5524    1.2903 C   0  0  0  0  0  0  0  0  0  0  0  0
   -3.6492   -0.8262   -0.0215 C   0  0  0  0  0  0  0  0  0  0  0  0
   -3.6853    0.5663   -0.0397 C   0  0  0  0  0  0  0  0  0  0  0  0
    3.6347    0.7173    0.1466 C   0  0  0  0  0  0  0  0  0  0  0  0
    3.6207   -0.7623    0.0530 C   0  0  0  0  0  0  0  0  0  0  0  0
   -0.0078    5.1116   -1.0048 C   0  0  0  0  0  0  0  0  0  0  0  0
   -0.2891    4.9356    1.3889 C   0  0  0  0  0  0  0  0  0  0  0  0
   -0.1968    5.7160    0.2424 C   0  0  0  0  0  0  0  0  0  0  0  0
    0.1847    3.1826   -2.5340 C   0  0  0  0  0  0  0  0  0  0  0  0
    0.0599    1.2248   -3.8676 C   0  0  0  0  0  0  0  0  0  0  0  0
   -4.7725   -2.5175   -0.1555 H   0  0  0  0  0  0  0  0  0  0  0  0
   -5.6613   -1.0833   -0.2105 H   0  0  0  0  0  0  0  0  0  0  0  0
    5.5330   -0.8702   -0.0250 H   0  0  0  0  0  0  0  0  0  0  0  0
   -2.5852    2.3921   -0.0825 H   0  0  0  0  0  0  0  0  0  0  0  0
    2.5409    2.4887    0.2629 H   0  0  0  0  0  0  0  0  0  0  0  0
   -2.3494   -2.5418    0.1449 H   0  0  0  0  0  0  0  0  0  0  0  0
    2.3061   -2.5154    0.0332 H   0  0  0  0  0  0  0  0  0  0  0  0
   -0.2617    2.9489    2.1939 H   0  0  0  0  0  0  0  0  0  0  0  0
   -4.6361    1.0928   -0.0417 H   0  0  0  0  0  0  0  0  0  0  0  0
    4.5943    1.2159    0.1904 H   0  0  0  0  0  0  0  0  0  0  0  0
    0.0495    5.7465   -1.8884 H   0  0  0  0  0  0  0  0  0  0  0  0
   -0.4626    5.3981    2.3577 H   0  0  0  0  0  0  0  0  0  0  0  0
   -0.2874    6.7974    0.3151 H   0  0  0  0  0  0  0  0  0  0  0  0
   -0.5238    1.7984   -4.5932 H   0  0  0  0  0  0  0  0  0  0  0  0
    1.0884    1.0890   -4.2127 H   0  0  0  0  0  0  0  0  0  0  0  0
   -0.4023    0.2382   -3.7618 H   0  0  0  0  0  0  0  0  0  0  0  0
  1 10  1  0  0  0  0
  1 11  1  0  0  0  0
  2 25  1  0  0  0  0
  2 26  1  0  0  0  0
  3 25  2  0  0  0  0
  4 18  1  0  0  0  0
  4 27  1  0  0  0  0
  4 28  1  0  0  0  0
  5 21  2  0  0  0  0
  5 29  1  0  0  0  0
  6  7  1  0  0  0  0
  6  8  2  0  0  0  0
  6  9  1  0  0  0  0
  7 10  2  0  0  0  0
  7 12  1  0  0  0  0
  8 11  1  0  0  0  0
  8 13  1  0  0  0  0
  9 14  2  0  0  0  0
  9 17  1  0  0  0  0
 10 15  1  0  0  0  0
 11 16  2  0  0  0  0
 12 19  2  0  0  0  0
 12 30  1  0  0  0  0
 13 20  2  0  0  0  0
 13 31  1  0  0  0  0
 14 22  1  0  0  0  0
 14 25  1  0  0  0  0
 15 18  2  0  0  0  0
 15 32  1  0  0  0  0
 16 21  1  0  0  0  0
 16 33  1  0  0  0  0
 17 23  2  0  0  0  0
 17 34  1  0  0  0  0
 18 19  1  0  0  0  0
 19 35  1  0  0  0  0
 20 21  1  0  0  0  0
 20 36  1  0  0  0  0
 22 24  2  0  0  0  0
 22 37  1  0  0  0  0
 23 24  1  0  0  0  0
 23 38  1  0  0  0  0
 24 39  1  0  0  0  0
 26 40  1  0  0  0  0
 26 41  1  0  0  0  0
 26 42  1  0  0  0  0
M  END
>  <Mol_ID>
5658

>  <Formula>
C21H17ClN2O3

>  <MolWeight>
380.82428

>  <Cat>
S3577

>  <Name>
Rhodamine 123

>  <Synonyms>
RH-123, R-22420

>  <Target>
ATPase,Dyes

>  <Form>
Free Base

>  <CAS>
62669-70-9

>  <URL>
http://www.selleckchem.com/products/rhodamine-123.html

$$$$
