Rhodamine 6G
 OpenBabel08302521313D

 64 67  0  0  0  0  0  0  0  0999 V2000
    0.1375    1.4101    0.1354 O   0  0  0  0  0  0  0  0  0  0  0  0
    0.8720   -3.6625    3.5746 O   0  0  0  0  0  0  0  0  0  0  0  0
   -0.6486   -2.0509    2.9693 O   0  0  0  0  0  0  0  0  0  0  0  0
   -4.6461    1.5829    0.0636 N   0  3  0  0  0  0  0  0  0  0  0  0
    4.9730    1.3056   -0.0235 N   0  0  0  0  0  0  0  0  0  0  0  0
   -0.0334   -1.4433    0.1572 C   0  0  0  0  0  0  0  0  0  0  0  0
   -1.1669   -0.6973    0.1719 C   0  0  0  0  0  0  0  0  0  0  0  0
    1.2573   -0.7288    0.0759 C   0  0  0  0  0  0  0  0  0  0  0  0
   -1.0956    0.7604    0.1358 C   0  0  0  0  0  0  0  0  0  0  0  0
    1.2887    0.6612    0.0836 C   0  0  0  0  0  0  0  0  0  0  0  0
   -0.1025   -2.9283    0.1912 C   0  0  0  0  0  0  0  0  0  0  0  0
   -2.4878   -1.3207    0.2140 C   0  0  0  0  0  0  0  0  0  0  0  0
    2.4703   -1.4181   -0.0131 C   0  0  0  0  0  0  0  0  0  0  0  0
   -3.6423   -0.6363    0.1448 C   0  0  0  0  0  0  0  0  0  0  0  0
    3.7006   -0.7432   -0.0578 C   0  0  0  0  0  0  0  0  0  0  0  0
   -3.5733    0.8641    0.0976 C   0  0  0  0  0  0  0  0  0  0  0  0
    3.7316    0.6646   -0.0279 C   0  0  0  0  0  0  0  0  0  0  0  0
   -2.2159    1.4960    0.0975 C   0  0  0  0  0  0  0  0  0  0  0  0
    2.5084    1.3513    0.0343 C   0  0  0  0  0  0  0  0  0  0  0  0
    0.0403   -3.6839    1.3734 C   0  0  0  0  0  0  0  0  0  0  0  0
   -0.2721   -3.5858   -1.0438 C   0  0  0  0  0  0  0  0  0  0  0  0
   -4.9219   -1.4273    0.1106 C   0  0  0  0  0  0  0  0  0  0  0  0
    4.9392   -1.5994   -0.1262 C   0  0  0  0  0  0  0  0  0  0  0  0
    0.0519   -5.0846    1.2900 C   0  0  0  0  0  0  0  0  0  0  0  0
   -4.8327    3.0491    0.0290 C   0  0  0  0  0  0  0  0  0  0  0  0
    5.1016    2.7191   -0.3458 C   0  0  0  0  0  0  0  0  0  0  0  0
   -0.3045   -4.9721   -1.1051 C   0  0  0  0  0  0  0  0  0  0  0  0
   -0.1256   -5.7210    0.0549 C   0  0  0  0  0  0  0  0  0  0  0  0
    0.0461   -3.0191    2.7060 C   0  0  0  0  0  0  0  0  0  0  0  0
   -4.8959    3.5034   -1.4141 C   0  0  0  0  0  0  0  0  0  0  0  0
    6.5723    3.0400   -0.5746 C   0  0  0  0  0  0  0  0  0  0  0  0
    0.8363   -3.1631    4.9253 C   0  0  0  0  0  0  0  0  0  0  0  0
    1.8270   -2.0287    5.1197 C   0  0  0  0  0  0  0  0  0  0  0  0
   -5.5465    1.0951    0.0477 H   0  0  0  0  0  0  0  0  0  0  0  0
    5.4841    1.0576    0.8244 H   0  0  0  0  0  0  0  0  0  0  0  0
   -2.5434   -2.4061    0.2909 H   0  0  0  0  0  0  0  0  0  0  0  0
    2.4868   -2.5053   -0.0539 H   0  0  0  0  0  0  0  0  0  0  0  0
   -2.1180    2.5758    0.0595 H   0  0  0  0  0  0  0  0  0  0  0  0
    2.4875    2.4366    0.0692 H   0  0  0  0  0  0  0  0  0  0  0  0
   -0.3873   -3.0064   -1.9593 H   0  0  0  0  0  0  0  0  0  0  0  0
   -4.9608   -2.0242   -0.8070 H   0  0  0  0  0  0  0  0  0  0  0  0
   -4.9755   -2.1108    0.9652 H   0  0  0  0  0  0  0  0  0  0  0  0
   -5.8275   -0.8208    0.1329 H   0  0  0  0  0  0  0  0  0  0  0  0
    5.0775   -2.1181    0.8283 H   0  0  0  0  0  0  0  0  0  0  0  0
    4.8327   -2.3475   -0.9200 H   0  0  0  0  0  0  0  0  0  0  0  0
    5.8466   -1.0302   -0.3438 H   0  0  0  0  0  0  0  0  0  0  0  0
    0.1721   -5.6930    2.1845 H   0  0  0  0  0  0  0  0  0  0  0  0
   -5.7692    3.2652    0.5525 H   0  0  0  0  0  0  0  0  0  0  0  0
   -4.0171    3.5293    0.5750 H   0  0  0  0  0  0  0  0  0  0  0  0
    4.5465    2.9589   -1.2601 H   0  0  0  0  0  0  0  0  0  0  0  0
    4.7154    3.3346    0.4734 H   0  0  0  0  0  0  0  0  0  0  0  0
   -0.4602   -5.4688   -2.0605 H   0  0  0  0  0  0  0  0  0  0  0  0
   -0.1362   -6.8082    0.0003 H   0  0  0  0  0  0  0  0  0  0  0  0
   -5.7483    3.0534   -1.9364 H   0  0  0  0  0  0  0  0  0  0  0  0
   -5.0068    4.5911   -1.4631 H   0  0  0  0  0  0  0  0  0  0  0  0
   -3.9882    3.2310   -1.9645 H   0  0  0  0  0  0  0  0  0  0  0  0
    6.9493    2.5212   -1.4632 H   0  0  0  0  0  0  0  0  0  0  0  0
    6.7122    4.1148   -0.7238 H   0  0  0  0  0  0  0  0  0  0  0  0
    7.1867    2.7275    0.2767 H   0  0  0  0  0  0  0  0  0  0  0  0
   -0.1777   -2.8455    5.1976 H   0  0  0  0  0  0  0  0  0  0  0  0
    1.0923   -3.9942    5.5912 H   0  0  0  0  0  0  0  0  0  0  0  0
    1.7478   -1.2813    4.3255 H   0  0  0  0  0  0  0  0  0  0  0  0
    1.6647   -1.5372    6.0848 H   0  0  0  0  0  0  0  0  0  0  0  0
    2.8532   -2.4114    5.1020 H   0  0  0  0  0  0  0  0  0  0  0  0
  1  9  1  0  0  0  0
  1 10  1  0  0  0  0
  2 29  1  0  0  0  0
  2 32  1  0  0  0  0
  3 29  2  0  0  0  0
  4 16  2  0  0  0  0
  4 25  1  0  0  0  0
  4 34  1  0  0  0  0
  5 17  1  0  0  0  0
  5 26  1  0  0  0  0
  5 35  1  0  0  0  0
  6  7  2  0  0  0  0
  6  8  1  0  0  0  0
  6 11  1  0  0  0  0
  7  9  1  0  0  0  0
  7 12  1  0  0  0  0
  8 10  2  0  0  0  0
  8 13  1  0  0  0  0
  9 18  2  0  0  0  0
 10 19  1  0  0  0  0
 11 20  2  0  0  0  0
 11 21  1  0  0  0  0
 12 14  2  0  0  0  0
 12 36  1  0  0  0  0
 13 15  2  0  0  0  0
 13 37  1  0  0  0  0
 14 16  1  0  0  0  0
 14 22  1  0  0  0  0
 15 17  1  0  0  0  0
 15 23  1  0  0  0  0
 16 18  1  0  0  0  0
 17 19  2  0  0  0  0
 18 38  1  0  0  0  0
 19 39  1  0  0  0  0
 20 24  1  0  0  0  0
 20 29  1  0  0  0  0
 21 27  2  0  0  0  0
 21 40  1  0  0  0  0
 22 41  1  0  0  0  0
 22 42  1  0  0  0  0
 22 43  1  0  0  0  0
 23 44  1  0  0  0  0
 23 45  1  0  0  0  0
 23 46  1  0  0  0  0
 24 28  2  0  0  0  0
 24 47  1  0  0  0  0
 25 30  1  0  0  0  0
 25 48  1  0  0  0  0
 25 49  1  0  0  0  0
 26 31  1  0  0  0  0
 26 50  1  0  0  0  0
 26 51  1  0  0  0  0
 27 28  1  0  0  0  0
 27 52  1  0  0  0  0
 28 53  1  0  0  0  0
 30 54  1  0  0  0  0
 30 55  1  0  0  0  0
 30 56  1  0  0  0  0
 31 57  1  0  0  0  0
 31 58  1  0  0  0  0
 31 59  1  0  0  0  0
 32 33  1  0  0  0  0
 32 60  1  0  0  0  0
 32 61  1  0  0  0  0
 33 62  1  0  0  0  0
 33 63  1  0  0  0  0
 33 64  1  0  0  0  0
M  CHG  1   4   1
M  END
>  <Mol_ID>
5791

>  <Formula>
C28H31ClN2O3

>  <MolWeight>
479.01034

>  <Cat>
S3593

>  <Name>
Rhodamine 6G

>  <Synonyms>
R6G, Basic Red 1, Rhodamine 590

>  <Target>
Dyes,Mitochondrial Metabolism

>  <Form>
Free Base

>  <CAS>
989-38-8

>  <URL>
http://www.selleckchem.com/products/rhodamine-6g.html

$$$$
