Riamilovir
 OpenBabel08302521323D

 19 20  0  0  0  0  0  0  0  0999 V2000
    1.9989   -0.5948   -0.0958 N   0  0  0  0  0  0  0  0  0  0  0  0
    0.7516   -1.3026   -0.1121 N   0  0  0  0  0  0  0  0  0  0  0  0
   -0.3338   -0.6100   -0.0416 C   0  0  0  0  0  0  0  0  0  0  0  0
   -0.3541    0.7501    0.0322 N   0  0  0  0  0  0  0  0  0  0  0  0
    0.7537    1.5355    0.1006 C   0  0  0  0  0  0  0  0  0  0  0  0
    1.9969    0.7086    0.0099 C   0  0  0  0  0  0  0  0  0  0  0  0
   -1.6549    1.1674    0.2371 N   0  0  0  0  0  0  0  0  0  0  0  0
   -2.3456   -0.0165    0.0767 C   0  0  0  0  0  0  0  0  0  0  0  0
   -1.6175   -1.0957   -0.0455 N   0  0  0  0  0  0  0  0  0  0  0  0
    0.7764    2.7481    0.2288 O   0  0  0  0  0  0  0  0  0  0  0  0
    3.3573    1.2245   -0.0148 N   0  3  0  0  0  0  0  0  0  0  0  0
    3.5294    2.2709   -0.6540 O   0  0  0  0  0  0  0  0  0  0  0  0
    4.2297    0.6133    0.6207 O   0  5  0  0  0  0  0  0  0  0  0  0
   -4.0691    0.0560    0.0053 S   0  0  0  0  0  0  0  0  0  0  0  0
   -4.4989   -1.6872   -0.1454 C   0  0  0  0  0  0  0  0  0  0  0  0
   -1.9884    1.9480   -0.3265 H   0  0  0  0  0  0  0  0  0  0  0  0
   -4.1004   -2.1074   -1.0725 H   0  0  0  0  0  0  0  0  0  0  0  0
   -4.1263   -2.2568    0.7096 H   0  0  0  0  0  0  0  0  0  0  0  0
   -5.5891   -1.7784   -0.1691 H   0  0  0  0  0  0  0  0  0  0  0  0
  1  2  1  0  0  0  0
  1  6  2  0  0  0  0
  2  3  2  0  0  0  0
  3  4  1  0  0  0  0
  4  5  1  0  0  0  0
  5  6  1  0  0  0  0
  5 10  2  0  0  0  0
  6 11  1  0  0  0  0
  7  8  1  0  0  0  0
  7  4  1  0  0  0  0
  7 16  1  0  0  0  0
  8  9  2  0  0  0  0
  8 14  1  0  0  0  0
  9  3  1  0  0  0  0
 11 12  2  0  0  0  0
 11 13  1  0  0  0  0
 14 15  1  0  0  0  0
 15 17  1  0  0  0  0
 15 18  1  0  0  0  0
 15 19  1  0  0  0  0
M  CHG  2  11   1  13  -1
M  END
>  <Mol_ID>
6225

>  <Formula>
C5H4N6O3S

>  <MolWeight>
228.18866

>  <Cat>
S3553

>  <Name>
Riamilovir

>  <Synonyms>
Triazavirin

>  <Target>
Antiviral,COVID-19,SARS-CoV

>  <Form>
free base

>  <CAS>
123606-06-4

>  <URL>
http://www.selleckchem.com/products/riamilovir.html

$$$$
