Ribavirin.cdx
 OpenBabel08302521383D

 29 30  0  0  0  0  0  0  0  0999 V2000
    1.6170    0.4755    0.3228 O   0  0  0  0  0  0  0  0  0  0  0  0
    1.3023   -0.7624   -0.3628 C   0  0  1  0  0  0  0  0  0  0  0  0
   -0.2202   -0.8397   -0.4137 C   0  0  2  0  0  0  0  0  0  0  0  0
   -0.6365    0.6164   -0.5111 C   0  0  2  0  0  0  0  0  0  0  0  0
    0.4308    1.3056    0.3329 C   0  0  2  0  0  0  0  0  0  0  0  0
    1.9561   -0.7564   -1.7475 C   0  0  0  0  0  0  0  0  0  0  0  0
    0.7255    2.6356   -0.1778 N   0  0  0  0  0  0  0  0  0  0  0  0
   -1.9515    0.8266    0.0075 O   0  0  0  0  0  0  0  0  0  0  0  0
   -0.7762   -1.3609    0.8075 O   0  0  0  0  0  0  0  0  0  0  0  0
    0.1444    3.7953    0.2356 C   0  0  0  0  0  0  0  0  0  0  0  0
    0.4906    4.7712   -0.5663 N   0  0  0  0  0  0  0  0  0  0  0  0
    1.3047    4.1474   -1.5068 C   0  0  0  0  0  0  0  0  0  0  0  0
    1.4657    2.8277   -1.2881 N   0  0  0  0  0  0  0  0  0  0  0  0
    1.8755    4.8802   -2.6539 C   0  0  0  0  0  0  0  0  0  0  0  0
    1.4834    6.1946   -2.7215 N   0  0  0  0  0  0  0  0  0  0  0  0
    2.6145    4.4009   -3.5075 O   0  0  0  0  0  0  0  0  0  0  0  0
    3.3737   -0.7308   -1.6013 O   0  0  0  0  0  0  0  0  0  0  0  0
    1.7315   -1.5706    0.2402 H   0  0  0  0  0  0  0  0  0  0  0  0
   -0.6104   -1.4515   -1.2324 H   0  0  0  0  0  0  0  0  0  0  0  0
   -0.6162    0.9551   -1.5531 H   0  0  0  0  0  0  0  0  0  0  0  0
    0.1215    1.4220    1.3787 H   0  0  0  0  0  0  0  0  0  0  0  0
    1.6952   -1.6642   -2.3005 H   0  0  0  0  0  0  0  0  0  0  0  0
    1.6661    0.1135   -2.3432 H   0  0  0  0  0  0  0  0  0  0  0  0
   -2.1697    0.0205    0.5236 H   0  0  0  0  0  0  0  0  0  0  0  0
   -0.0912   -1.3370    1.5039 H   0  0  0  0  0  0  0  0  0  0  0  0
   -0.5276    3.8597    1.0799 H   0  0  0  0  0  0  0  0  0  0  0  0
    1.7860    6.7559   -3.5020 H   0  0  0  0  0  0  0  0  0  0  0  0
    0.8335    6.5594   -2.0357 H   0  0  0  0  0  0  0  0  0  0  0  0
    3.5844    0.1208   -1.1704 H   0  0  0  0  0  0  0  0  0  0  0  0
  1  2  1  0  0  0  0
  2  3  1  0  0  0  0
  2 18  1  1  0  0  0
  2  6  1  0  0  0  0
  3  4  1  0  0  0  0
  3  9  1  0  0  0  0
  3 19  1  6  0  0  0
  4  5  1  0  0  0  0
  4  8  1  0  0  0  0
  4 20  1  6  0  0  0
  5  1  1  0  0  0  0
  5 21  1  1  0  0  0
  5  7  1  0  0  0  0
  6 17  1  0  0  0  0
  6 22  1  0  0  0  0
  6 23  1  0  0  0  0
  7 10  1  0  0  0  0
  8 24  1  0  0  0  0
  9 25  1  0  0  0  0
 10 11  2  0  0  0  0
 10 26  1  0  0  0  0
 11 12  1  0  0  0  0
 12 13  2  0  0  0  0
 12 14  1  0  0  0  0
 13  7  1  0  0  0  0
 14 15  1  0  0  0  0
 14 16  2  0  0  0  0
 15 27  1  0  0  0  0
 15 28  1  0  0  0  0
 17 29  1  0  0  0  0
M  END
>  <Mol_ID>
772

>  <Formula>
C8H12N4O5

>  <MolWeight>
244.20468

>  <Cat>
S2504

>  <Name>
Ribavirin (ICN-1229)

>  <Synonyms>
NSC-163039, RTCA, Tribavirin

>  <Target>
Antiviral

>  <Form>
free base

>  <CAS>
36791-04-5

>  <URL>
http://selleckchem.com/products/Ribavirin(Copegus).html

$$$$
