Ribociclib hydrochloride
 OpenBabel08302521303D

 62 66  0  0  0  0  0  0  0  0999 V2000
    1.1996    0.0034    0.1984 O   0  0  0  0  0  0  0  0  0  0  0  0
    2.9019    2.2558    1.1325 N   0  0  0  0  0  0  0  0  0  0  0  0
    3.8924    4.3624    1.8053 N   0  0  0  0  0  0  0  0  0  0  0  0
    3.0701   -1.0530   -0.5547 N   0  0  0  0  0  0  0  0  0  0  0  0
    1.9492    8.0053    6.6156 N   0  0  0  0  0  0  0  0  0  0  0  0
    5.7224    5.0796    0.4671 N   0  0  0  0  0  0  0  0  0  0  0  0
   -0.4611    9.1672    7.7971 N   0  0  0  0  0  0  0  0  0  0  0  0
    4.9539    6.4353    2.2005 N   0  0  0  0  0  0  0  0  0  0  0  0
    4.7247    7.7077    4.1529 N   0  0  0  0  0  0  0  0  0  0  0  0
    1.8831    2.1727    2.1719 C   0  0  0  0  0  0  0  0  0  0  0  0
    0.8282    3.2835    2.1218 C   0  0  0  0  0  0  0  0  0  0  0  0
    2.3845    2.2147    3.6191 C   0  0  0  0  0  0  0  0  0  0  0  0
    0.2190    3.3339    3.5223 C   0  0  0  0  0  0  0  0  0  0  0  0
    1.1238    2.5016    4.4283 C   0  0  0  0  0  0  0  0  0  0  0  0
    3.1299    1.3302    0.1084 C   0  0  0  0  0  0  0  0  0  0  0  0
    3.8023    3.2947    1.0054 C   0  0  0  0  0  0  0  0  0  0  0  0
    4.5933    3.0688   -0.0982 C   0  0  0  0  0  0  0  0  0  0  0  0
    4.1061    1.8948   -0.7092 C   0  0  0  0  0  0  0  0  0  0  0  0
    2.3981    0.0806   -0.0767 C   0  0  0  0  0  0  0  0  0  0  0  0
    5.5953    4.0011   -0.3420 C   0  0  0  0  0  0  0  0  0  0  0  0
    4.8437    5.2482    1.4758 C   0  0  0  0  0  0  0  0  0  0  0  0
    0.8937    7.1371    7.1621 C   0  0  0  0  0  0  0  0  0  0  0  0
    1.9830    9.3777    7.1388 C   0  0  0  0  0  0  0  0  0  0  0  0
   -0.4800    7.8399    7.1466 C   0  0  0  0  0  0  0  0  0  0  0  0
    0.5645    9.9998    7.1309 C   0  0  0  0  0  0  0  0  0  0  0  0
    2.6362    7.6838    5.4637 C   0  0  0  0  0  0  0  0  0  0  0  0
    4.4841   -1.1820   -0.8743 C   0  0  0  0  0  0  0  0  0  0  0  0
    2.2912   -2.2760   -0.6517 C   0  0  0  0  0  0  0  0  0  0  0  0
    4.1570    6.8989    3.2408 C   0  0  0  0  0  0  0  0  0  0  0  0
    2.0688    6.9237    4.4506 C   0  0  0  0  0  0  0  0  0  0  0  0
    3.9606    8.0701    5.2241 C   0  0  0  0  0  0  0  0  0  0  0  0
    2.8171    6.5544    3.3413 C   0  0  0  0  0  0  0  0  0  0  0  0
   -0.1747    9.0357    8.7677 H   0  0  0  0  0  0  0  0  0  0  0  0
    5.8834    6.8141    2.1778 H   0  0  0  0  0  0  0  0  0  0  0  0
    1.3589    1.2211    2.0654 H   0  0  0  0  0  0  0  0  0  0  0  0
    1.2635    4.2555    1.8802 H   0  0  0  0  0  0  0  0  0  0  0  0
    0.0686    3.0908    1.3572 H   0  0  0  0  0  0  0  0  0  0  0  0
    2.8458    1.2671    3.9180 H   0  0  0  0  0  0  0  0  0  0  0  0
    3.1185    3.0062    3.7935 H   0  0  0  0  0  0  0  0  0  0  0  0
    0.1475    4.3672    3.8779 H   0  0  0  0  0  0  0  0  0  0  0  0
   -0.7977    2.9257    3.5214 H   0  0  0  0  0  0  0  0  0  0  0  0
    1.3503    3.0184    5.3666 H   0  0  0  0  0  0  0  0  0  0  0  0
    0.6189    1.5630    4.6860 H   0  0  0  0  0  0  0  0  0  0  0  0
    4.4598    1.4780   -1.6403 H   0  0  0  0  0  0  0  0  0  0  0  0
    6.2980    3.9243   -1.1623 H   0  0  0  0  0  0  0  0  0  0  0  0
    0.8223    6.1718    6.6478 H   0  0  0  0  0  0  0  0  0  0  0  0
    1.1606    6.8996    8.1995 H   0  0  0  0  0  0  0  0  0  0  0  0
    2.3651    9.3474    8.1658 H   0  0  0  0  0  0  0  0  0  0  0  0
    2.6484   10.0305    6.5625 H   0  0  0  0  0  0  0  0  0  0  0  0
   -0.8356    7.9496    6.1148 H   0  0  0  0  0  0  0  0  0  0  0  0
   -1.2109    7.2092    7.6655 H   0  0  0  0  0  0  0  0  0  0  0  0
    0.2490   10.1869    6.0967 H   0  0  0  0  0  0  0  0  0  0  0  0
    0.5987   10.9738    7.6307 H   0  0  0  0  0  0  0  0  0  0  0  0
    4.8810   -2.0807   -0.3934 H   0  0  0  0  0  0  0  0  0  0  0  0
    4.5738   -1.2876   -1.9609 H   0  0  0  0  0  0  0  0  0  0  0  0
    5.0897   -0.3448   -0.5372 H   0  0  0  0  0  0  0  0  0  0  0  0
    2.0310   -2.6033    0.3604 H   0  0  0  0  0  0  0  0  0  0  0  0
    1.3729   -2.0909   -1.2159 H   0  0  0  0  0  0  0  0  0  0  0  0
    2.8650   -3.0636   -1.1489 H   0  0  0  0  0  0  0  0  0  0  0  0
    1.0295    6.6153    4.4904 H   0  0  0  0  0  0  0  0  0  0  0  0
    4.4934    8.6779    5.9498 H   0  0  0  0  0  0  0  0  0  0  0  0
    2.3327    5.9878    2.5572 H   0  0  0  0  0  0  0  0  0  0  0  0
  1 19  2  0  0  0  0
  2 10  1  0  0  0  0
  2 15  1  0  0  0  0
  2 16  1  0  0  0  0
  3 16  2  0  0  0  0
  3 21  1  0  0  0  0
  4 19  1  0  0  0  0
  4 27  1  0  0  0  0
  4 28  1  0  0  0  0
  5 22  1  0  0  0  0
  5 23  1  0  0  0  0
  5 26  1  0  0  0  0
  6 20  1  0  0  0  0
  6 21  2  0  0  0  0
  7 24  1  0  0  0  0
  7 25  1  0  0  0  0
  7 33  1  0  0  0  0
  8 21  1  0  0  0  0
  8 29  1  0  0  0  0
  8 34  1  0  0  0  0
  9 29  2  0  0  0  0
  9 31  1  0  0  0  0
 10 11  1  0  0  0  0
 10 12  1  0  0  0  0
 10 35  1  0  0  0  0
 11 13  1  0  0  0  0
 11 36  1  0  0  0  0
 11 37  1  0  0  0  0
 12 14  1  0  0  0  0
 12 38  1  0  0  0  0
 12 39  1  0  0  0  0
 13 14  1  0  0  0  0
 13 40  1  0  0  0  0
 13 41  1  0  0  0  0
 14 42  1  0  0  0  0
 14 43  1  0  0  0  0
 15 18  2  0  0  0  0
 15 19  1  0  0  0  0
 16 17  1  0  0  0  0
 17 18  1  0  0  0  0
 17 20  2  0  0  0  0
 18 44  1  0  0  0  0
 20 45  1  0  0  0  0
 22 24  1  0  0  0  0
 22 46  1  0  0  0  0
 22 47  1  0  0  0  0
 23 25  1  0  0  0  0
 23 48  1  0  0  0  0
 23 49  1  0  0  0  0
 24 50  1  0  0  0  0
 24 51  1  0  0  0  0
 25 52  1  0  0  0  0
 25 53  1  0  0  0  0
 26 30  1  0  0  0  0
 26 31  2  0  0  0  0
 27 54  1  0  0  0  0
 27 55  1  0  0  0  0
 27 56  1  0  0  0  0
 28 57  1  0  0  0  0
 28 58  1  0  0  0  0
 28 59  1  0  0  0  0
 29 32  1  0  0  0  0
 30 32  2  0  0  0  0
 30 60  1  0  0  0  0
 31 61  1  0  0  0  0
 32 62  1  0  0  0  0
M  END
>  <Mol_ID>
5684

>  <Formula>
C23H31ClN8O

>  <MolWeight>
470.99824

>  <Cat>
S5187

>  <Name>
Ribociclib hydrochloride

>  <Synonyms>
LEE011 hydrochloride

>  <Target>
CDK

>  <Form>
Hydrochloride

>  <CAS>
1211443-80-9

>  <URL>
http://www.selleckchem.com/products/ribociclib-hydrochloride.html

$$$$
