Rilmenidine phosphate.cdx
 OpenBabel08302521363D

 37 38  0  0  0  0  0  0  0  0999 V2000
   -0.7231    0.0837   -2.9699 C   0  0  0  0  0  0  0  0  0  0  0  0
   -2.1157   -0.4928   -2.9316 C   0  0  0  0  0  0  0  0  0  0  0  0
   -1.9914   -1.6609   -2.1305 O   0  0  0  0  0  0  0  0  0  0  0  0
   -0.6548   -1.8799   -2.0246 C   0  0  0  0  0  0  0  0  0  0  0  0
    0.1615   -1.0251   -2.5511 N   0  0  0  0  0  0  0  0  0  0  0  0
   -0.3773   -2.9846   -1.2875 N   0  0  0  0  0  0  0  0  0  0  0  0
    0.9418   -3.4243   -0.8956 C   0  0  0  0  0  0  0  0  0  0  0  0
    0.9884   -4.1101    0.4587 C   0  0  0  0  0  0  0  0  0  0  0  0
    1.4514   -4.3452   -1.9682 C   0  0  0  0  0  0  0  0  0  0  0  0
    0.0392   -5.2198    0.8513 C   0  0  0  0  0  0  0  0  0  0  0  0
    0.0040   -3.9119    1.5924 C   0  0  0  0  0  0  0  0  0  0  0  0
    2.8462   -4.9338   -1.9138 C   0  0  0  0  0  0  0  0  0  0  0  0
    2.5221   -3.8645   -2.9193 C   0  0  0  0  0  0  0  0  0  0  0  0
    1.0626   -0.0744   -0.0235 P   0  0  0  0  0  0  0  0  0  0  0  0
    1.0706   -0.9677    1.2150 O   0  0  0  0  0  0  0  0  0  0  0  0
    1.0645    1.4098    0.6425 O   0  0  0  0  0  0  0  0  0  0  0  0
   -0.6674   -0.0744   -0.0235 O   0  0  0  0  0  0  0  0  0  0  0  0
    2.7926   -0.0744   -0.0235 O   0  0  0  0  0  0  0  0  0  0  0  0
   -0.4582    0.4833   -3.9503 H   0  0  0  0  0  0  0  0  0  0  0  0
   -0.6296    0.9173   -2.2583 H   0  0  0  0  0  0  0  0  0  0  0  0
   -2.8394    0.1967   -2.4844 H   0  0  0  0  0  0  0  0  0  0  0  0
   -2.4621   -0.7780   -3.9280 H   0  0  0  0  0  0  0  0  0  0  0  0
   -1.1627   -3.3735   -0.7895 H   0  0  0  0  0  0  0  0  0  0  0  0
    1.6139   -2.5662   -0.8266 H   0  0  0  0  0  0  0  0  0  0  0  0
    2.0235   -4.2179    0.7741 H   0  0  0  0  0  0  0  0  0  0  0  0
    0.6730   -4.9899   -2.3549 H   0  0  0  0  0  0  0  0  0  0  0  0
   -0.7923   -5.4615    0.1904 H   0  0  0  0  0  0  0  0  0  0  0  0
    0.4597   -6.0812    1.3554 H   0  0  0  0  0  0  0  0  0  0  0  0
    0.4043   -3.8842    2.6023 H   0  0  0  0  0  0  0  0  0  0  0  0
   -0.8519   -3.2552    1.4572 H   0  0  0  0  0  0  0  0  0  0  0  0
    3.4993   -4.6696   -1.0920 H   0  0  0  0  0  0  0  0  0  0  0  0
    2.9609   -5.9513   -2.2640 H   0  0  0  0  0  0  0  0  0  0  0  0
    2.4172   -4.1445   -3.9638 H   0  0  0  0  0  0  0  0  0  0  0  0
    2.9467   -2.8783   -2.7691 H   0  0  0  0  0  0  0  0  0  0  0  0
    1.1071    1.3309    1.6109 H   0  0  0  0  0  0  0  0  0  0  0  0
   -0.9117   -0.3850    0.8678 H   0  0  0  0  0  0  0  0  0  0  0  0
    3.0330   -0.5117    0.8153 H   0  0  0  0  0  0  0  0  0  0  0  0
  1  2  1  0  0  0  0
  1 19  1  0  0  0  0
  1 20  1  0  0  0  0
  2  3  1  0  0  0  0
  2 21  1  0  0  0  0
  2 22  1  0  0  0  0
  3  4  1  0  0  0  0
  4  5  2  0  0  0  0
  4  6  1  0  0  0  0
  5  1  1  0  0  0  0
  6  7  1  0  0  0  0
  6 23  1  0  0  0  0
  7  8  1  0  0  0  0
  7  9  1  0  0  0  0
  7 24  1  0  0  0  0
  8 10  1  0  0  0  0
  8 25  1  0  0  0  0
  9 12  1  0  0  0  0
  9 26  1  0  0  0  0
 10 11  1  0  0  0  0
 10 27  1  0  0  0  0
 10 28  1  0  0  0  0
 11  8  1  0  0  0  0
 11 29  1  0  0  0  0
 11 30  1  0  0  0  0
 12 13  1  0  0  0  0
 12 31  1  0  0  0  0
 12 32  1  0  0  0  0
 13  9  1  0  0  0  0
 13 33  1  0  0  0  0
 13 34  1  0  0  0  0
 14 15  2  0  0  0  0
 14 16  1  0  0  0  0
 14 17  1  0  0  0  0
 14 18  1  0  0  0  0
 16 35  1  0  0  0  0
 17 36  1  0  0  0  0
 18 37  1  0  0  0  0
M  END
>  <Mol_ID>
7131

>  <Formula>
C10H19N2O5P

>  <MolWeight>
278.242021

>  <Cat>
S7548

>  <Name>
Rilmenidine Phosphate

>  <Synonyms>
N/A

>  <Target>
Imidazoline Receptor

>  <Form>
Phosphate

>  <CAS>
85409-38-7

>  <URL>
http://selleckchem.com/products/rilmenidine-phosphate.html

$$$$
