RILUZOLE (riluzole).cdx
 OpenBabel08302520383D

 20 21  0  0  0  0  0  0  0  0999 V2000
    0.3540   -0.6467    0.0683 C   0  0  0  0  0  0  0  0  0  0  0  0
    0.3529    0.7478    0.0423 C   0  0  0  0  0  0  0  0  0  0  0  0
    1.5871    1.4213    0.0004 C   0  0  0  0  0  0  0  0  0  0  0  0
    2.7736    0.6820   -0.0411 C   0  0  0  0  0  0  0  0  0  0  0  0
    2.7596   -0.7132   -0.0517 C   0  0  0  0  0  0  0  0  0  0  0  0
    1.5457   -1.3997    0.0451 C   0  0  0  0  0  0  0  0  0  0  0  0
   -1.2788   -1.1943    0.1236 S   0  0  0  0  0  0  0  0  0  0  0  0
   -1.8274    0.4302    0.1176 C   0  0  0  0  0  0  0  0  0  0  0  0
   -0.8940    1.3436    0.0640 N   0  0  0  0  0  0  0  0  0  0  0  0
   -3.1379    0.7242    0.1562 N   0  0  0  0  0  0  0  0  0  0  0  0
    3.9983   -1.2784   -0.1220 O   0  0  0  0  0  0  0  0  0  0  0  0
    4.1496   -2.5796   -0.6701 C   0  0  0  0  0  0  0  0  0  0  0  0
    3.0974   -2.9845   -1.4107 F   0  0  0  0  0  0  0  0  0  0  0  0
    5.2389   -2.5786   -1.4718 F   0  0  0  0  0  0  0  0  0  0  0  0
    4.3586   -3.4680    0.3243 F   0  0  0  0  0  0  0  0  0  0  0  0
    1.6103    2.5063   -0.0050 H   0  0  0  0  0  0  0  0  0  0  0  0
    3.7240    1.2135   -0.0757 H   0  0  0  0  0  0  0  0  0  0  0  0
    1.4903   -2.4817    0.0948 H   0  0  0  0  0  0  0  0  0  0  0  0
   -3.8003    0.0164   -0.1329 H   0  0  0  0  0  0  0  0  0  0  0  0
   -3.3871    1.6707   -0.1093 H   0  0  0  0  0  0  0  0  0  0  0  0
  1  2  1  0  0  0  0
  1  7  1  0  0  0  0
  2  3  2  0  0  0  0
  3  4  1  0  0  0  0
  3 16  1  0  0  0  0
  4  5  2  0  0  0  0
  4 17  1  0  0  0  0
  5  6  1  0  0  0  0
  5 11  1  0  0  0  0
  6  1  2  0  0  0  0
  6 18  1  0  0  0  0
  7  8  1  0  0  0  0
  8  9  2  0  0  0  0
  8 10  1  0  0  0  0
  9  2  1  0  0  0  0
 10 19  1  0  0  0  0
 10 20  1  0  0  0  0
 11 12  1  0  0  0  0
 12 13  1  0  0  0  0
 12 14  1  0  0  0  0
 12 15  1  0  0  0  0
M  END
>  <Mol_ID>
350

>  <Formula>
C8H5F3N2OS

>  <MolWeight>
234.1983096

>  <Cat>
S1614

>  <Name>
Riluzole (PK 26124)

>  <Synonyms>
RP-54274, PK 26124

>  <Target>
GluR,Sodium Channel

>  <Form>
free base

>  <CAS>
1744-22-5

>  <URL>
http://selleckchem.com/products/Riluzole(Rilutek).html

$$$$
