RIMADYL (carprofen).cdx
 OpenBabel08302522043D

 31 33  0  0  0  0  0  0  0  0999 V2000
    3.3400   -2.1658    1.2482 O   0  0  0  0  0  0  0  0  0  0  0  0
    2.5233   -1.9871    0.1874 C   0  0  0  0  0  0  0  0  0  0  0  0
    1.0531   -2.3874    0.3891 C   0  0  3  0  0  0  0  0  0  0  0  0
    0.7627   -2.9606    1.7821 C   0  0  0  0  0  0  0  0  0  0  0  0
    0.1908   -1.1748    0.0330 C   0  0  0  0  0  0  0  0  0  0  0  0
    2.9472   -1.4972   -0.8602 O   0  0  0  0  0  0  0  0  0  0  0  0
    0.3788   -2.1189    2.8379 C   0  0  0  0  0  0  0  0  0  0  0  0
    0.1518   -2.6154    4.1226 C   0  0  0  0  0  0  0  0  0  0  0  0
    0.3232   -3.9866    4.3763 C   0  0  0  0  0  0  0  0  0  0  0  0
    0.7401   -4.8098    3.3319 C   0  0  0  0  0  0  0  0  0  0  0  0
    0.9780   -4.3317    2.0371 C   0  0  0  0  0  0  0  0  0  0  0  0
    0.1542   -4.8020    5.5342 C   0  0  0  0  0  0  0  0  0  0  0  0
    0.4877   -6.1075    5.1780 C   0  0  0  0  0  0  0  0  0  0  0  0
    0.8364   -6.0843    3.8477 N   0  0  0  0  0  0  0  0  0  0  0  0
   -0.2558   -4.5417    6.8563 C   0  0  0  0  0  0  0  0  0  0  0  0
   -0.3107   -5.5956    7.7762 C   0  0  0  0  0  0  0  0  0  0  0  0
    0.0351   -6.8877    7.3933 C   0  0  0  0  0  0  0  0  0  0  0  0
    0.4405   -7.1724    6.0848 C   0  0  0  0  0  0  0  0  0  0  0  0
    2.9003   -2.5325    2.0409 H   0  0  0  0  0  0  0  0  0  0  0  0
    0.8357   -3.1836   -0.3335 H   0  0  0  0  0  0  0  0  0  0  0  0
    0.4359   -0.7960   -0.9659 H   0  0  0  0  0  0  0  0  0  0  0  0
   -0.8754   -1.4225    0.0456 H   0  0  0  0  0  0  0  0  0  0  0  0
    0.3578   -0.3414    0.7235 H   0  0  0  0  0  0  0  0  0  0  0  0
    0.2508   -1.0500    2.6911 H   0  0  0  0  0  0  0  0  0  0  0  0
   -0.1673   -1.9421    4.9135 H   0  0  0  0  0  0  0  0  0  0  0  0
    1.3189   -5.0123    1.2611 H   0  0  0  0  0  0  0  0  0  0  0  0
    1.1102   -6.8982    3.3162 H   0  0  0  0  0  0  0  0  0  0  0  0
   -0.5278   -3.5353    7.1590 H   0  0  0  0  0  0  0  0  0  0  0  0
   -0.6279   -5.3954    8.7962 H   0  0  0  0  0  0  0  0  0  0  0  0
   -0.0120   -7.6914    8.1240 H   0  0  0  0  0  0  0  0  0  0  0  0
    0.7060   -8.1830    5.7926 H   0  0  0  0  0  0  0  0  0  0  0  0
  1  2  1  0  0  0  0
  1 19  1  0  0  0  0
  2  3  1  0  0  0  0
  2  6  2  0  0  0  0
  3  4  1  0  0  0  0
  3  5  1  0  0  0  0
  3 20  1  0  0  0  0
  4  7  2  0  0  0  0
  5 21  1  0  0  0  0
  5 22  1  0  0  0  0
  5 23  1  0  0  0  0
  7  8  1  0  0  0  0
  7 24  1  0  0  0  0
  8  9  2  0  0  0  0
  8 25  1  0  0  0  0
  9 10  1  0  0  0  0
  9 12  1  0  0  0  0
 10 11  2  0  0  0  0
 11  4  1  0  0  0  0
 11 26  1  0  0  0  0
 12 13  2  0  0  0  0
 12 15  1  0  0  0  0
 13 14  1  0  0  0  0
 14 10  1  0  0  0  0
 14 27  1  0  0  0  0
 15 16  2  0  0  0  0
 15 28  1  0  0  0  0
 16 17  1  0  0  0  0
 16 29  1  0  0  0  0
 17 18  2  0  0  0  0
 17 30  1  0  0  0  0
 18 13  1  0  0  0  0
 18 31  1  0  0  0  0
M  END
>  <Mol_ID>
1269

>  <Formula>
C15H12ClNO2

>  <MolWeight>
273.71428

>  <Cat>
S4136

>  <Name>
Carprofen

>  <Synonyms>
N/A

>  <Target>
COX

>  <Form>
free base

>  <CAS>
53716-49-7

>  <URL>
http://selleckchem.com/products/carprofen.html

$$$$
