Rimantadine.cdx
 OpenBabel08302522013D

 34 36  0  0  0  0  0  0  0  0999 V2000
   -0.8084    1.0029    1.1912 C   0  0  0  0  0  0  0  0  0  0  0  0
   -1.5428    0.2639    0.0596 C   0  0  3  0  0  0  0  0  0  0  0  0
   -1.0084    0.7476   -1.2965 C   0  0  0  0  0  0  0  0  0  0  0  0
    0.4968    0.4572   -1.4014 C   0  0  3  0  0  0  0  0  0  0  0  0
    1.2324    1.1955   -0.2697 C   0  0  0  0  0  0  0  0  0  0  0  0
    0.7216    0.7385    1.1316 C   0  0  3  0  0  0  0  0  0  0  0  0
   -1.2937   -1.2456    0.1967 C   0  0  0  0  0  0  0  0  0  0  0  0
    0.2116   -1.5409    0.0935 C   0  0  3  0  0  0  0  0  0  0  0  0
    0.7370   -1.0520   -1.2633 C   0  0  0  0  0  0  0  0  0  0  0  0
    0.9488   -0.7999    1.2230 C   0  0  0  0  0  0  0  0  0  0  0  0
    1.4949    1.4863    2.2712 C   0  0  3  0  0  0  0  0  0  0  0  0
    1.3026    2.9410    2.2058 N   0  0  0  0  0  0  0  0  0  0  0  0
    1.1167    1.0458    3.6901 C   0  0  0  0  0  0  0  0  0  0  0  0
   -1.0157    2.0773    1.1105 H   0  0  0  0  0  0  0  0  0  0  0  0
   -1.2197    0.6725    2.1519 H   0  0  0  0  0  0  0  0  0  0  0  0
   -2.6175    0.4683    0.1270 H   0  0  0  0  0  0  0  0  0  0  0  0
   -1.5449    0.2450   -2.1109 H   0  0  0  0  0  0  0  0  0  0  0  0
   -1.1923    1.8230   -1.4105 H   0  0  0  0  0  0  0  0  0  0  0  0
    0.8718    0.8031   -2.3713 H   0  0  0  0  0  0  0  0  0  0  0  0
    2.3118    1.0145   -0.3532 H   0  0  0  0  0  0  0  0  0  0  0  0
    1.0813    2.2722   -0.4095 H   0  0  0  0  0  0  0  0  0  0  0  0
   -1.6803   -1.6033    1.1590 H   0  0  0  0  0  0  0  0  0  0  0  0
   -1.8378   -1.7877   -0.5860 H   0  0  0  0  0  0  0  0  0  0  0  0
    0.3816   -2.6195    0.1867 H   0  0  0  0  0  0  0  0  0  0  0  0
    0.2334   -1.5882   -2.0769 H   0  0  0  0  0  0  0  0  0  0  0  0
    1.8081   -1.2714   -1.3523 H   0  0  0  0  0  0  0  0  0  0  0  0
    2.0219   -1.0253    1.1723 H   0  0  0  0  0  0  0  0  0  0  0  0
    0.5877   -1.1913    2.1807 H   0  0  0  0  0  0  0  0  0  0  0  0
    2.5676    1.2913    2.1430 H   0  0  0  0  0  0  0  0  0  0  0  0
    1.8393    3.3914    2.9473 H   0  0  0  0  0  0  0  0  0  0  0  0
    1.6729    3.3054    1.3306 H   0  0  0  0  0  0  0  0  0  0  0  0
    1.3365   -0.0125    3.8561 H   0  0  0  0  0  0  0  0  0  0  0  0
    1.6929    1.6032    4.4380 H   0  0  0  0  0  0  0  0  0  0  0  0
    0.0565    1.2146    3.9067 H   0  0  0  0  0  0  0  0  0  0  0  0
  1  2  1  0  0  0  0
  1 14  1  0  0  0  0
  1 15  1  0  0  0  0
  2  3  1  0  0  0  0
  2  7  1  0  0  0  0
  2 16  1  0  0  0  0
  3  4  1  0  0  0  0
  3 17  1  0  0  0  0
  3 18  1  0  0  0  0
  4  5  1  0  0  0  0
  4  9  1  0  0  0  0
  4 19  1  0  0  0  0
  5  6  1  0  0  0  0
  5 20  1  0  0  0  0
  5 21  1  0  0  0  0
  6  1  1  0  0  0  0
  6 11  1  0  0  0  0
  7  8  1  0  0  0  0
  7 22  1  0  0  0  0
  7 23  1  0  0  0  0
  8  9  1  0  0  0  0
  8 10  1  0  0  0  0
  8 24  1  0  0  0  0
  9 25  1  0  0  0  0
  9 26  1  0  0  0  0
 10  6  1  0  0  0  0
 10 27  1  0  0  0  0
 10 28  1  0  0  0  0
 11 12  1  0  0  0  0
 11 13  1  0  0  0  0
 11 29  1  0  0  0  0
 12 30  1  0  0  0  0
 12 31  1  0  0  0  0
 13 32  1  0  0  0  0
 13 33  1  0  0  0  0
 13 34  1  0  0  0  0
M  END
>  <Mol_ID>
1122

>  <Formula>
C12H21N

>  <MolWeight>
179.30184

>  <Cat>
S1964

>  <Name>
Rimantadine

>  <Synonyms>
N/A

>  <Target>
Influenza Virus

>  <Form>
free base

>  <CAS>
13392-28-4

>  <URL>
http://selleckchem.com/products/rimantadine-flumadine.html

$$$$
