Rimeporide
 OpenBabel08302521323D

 36 36  0  0  0  0  0  0  0  0999 V2000
    2.4203    0.0336   -0.0174 C   0  0  0  0  0  0  0  0  0  0  0  0
    0.9241    0.0868   -0.1864 C   0  0  0  0  0  0  0  0  0  0  0  0
    0.2297    1.2314   -0.6085 C   0  0  0  0  0  0  0  0  0  0  0  0
   -1.1831    1.2204   -0.5645 C   0  0  0  0  0  0  0  0  0  0  0  0
   -1.9150    0.0621   -0.2542 C   0  0  0  0  0  0  0  0  0  0  0  0
   -1.2227   -1.1262   -0.0002 C   0  0  0  0  0  0  0  0  0  0  0  0
    0.1886   -1.0897    0.0545 C   0  0  0  0  0  0  0  0  0  0  0  0
    3.1686    0.6496   -0.7654 O   0  0  0  0  0  0  0  0  0  0  0  0
    2.8645   -0.7766    1.0323 N   0  0  0  0  0  0  0  0  0  0  0  0
   -1.9497   -2.7667   -0.0451 S   0  0  0  0  0  0  0  0  0  0  0  0
   -2.6334   -2.8793   -1.3144 O   0  0  0  0  0  0  0  0  0  0  0  0
   -0.8529   -3.6797    0.2445 O   0  0  0  0  0  0  0  0  0  0  0  0
   -3.0907   -3.0007    1.2757 C   0  0  0  0  0  0  0  0  0  0  0  0
   -3.6777    0.1821   -0.0838 S   0  0  0  0  0  0  0  0  0  0  0  0
   -4.2765   -0.6080   -1.1337 O   0  0  0  0  0  0  0  0  0  0  0  0
   -3.9311   -0.0970    1.3167 O   0  0  0  0  0  0  0  0  0  0  0  0
   -4.1664    1.8622   -0.3611 C   0  0  0  0  0  0  0  0  0  0  0  0
    0.8643    2.4971   -1.1230 C   0  0  0  0  0  0  0  0  0  0  0  0
    4.1581   -0.9947    1.4230 C   0  0  0  0  0  0  0  0  0  0  0  0
    4.3884   -1.8751    2.3325 N   0  0  0  0  0  0  0  0  0  0  0  0
    5.1765   -0.3235    0.8606 N   0  0  0  0  0  0  0  0  0  0  0  0
   -1.6873    2.1526   -0.8091 H   0  0  0  0  0  0  0  0  0  0  0  0
    0.7357   -2.0200    0.2097 H   0  0  0  0  0  0  0  0  0  0  0  0
    2.1719   -1.2457    1.5933 H   0  0  0  0  0  0  0  0  0  0  0  0
   -2.6028   -2.7691    2.2237 H   0  0  0  0  0  0  0  0  0  0  0  0
   -3.9979   -2.4268    1.1257 H   0  0  0  0  0  0  0  0  0  0  0  0
   -3.3688   -4.0598    1.2693 H   0  0  0  0  0  0  0  0  0  0  0  0
   -3.7196    2.5035    0.4013 H   0  0  0  0  0  0  0  0  0  0  0  0
   -3.8739    2.1710   -1.3662 H   0  0  0  0  0  0  0  0  0  0  0  0
   -5.2552    1.9124   -0.2786 H   0  0  0  0  0  0  0  0  0  0  0  0
    0.3457    2.8031   -2.0418 H   0  0  0  0  0  0  0  0  0  0  0  0
    0.7736    3.3023   -0.3892 H   0  0  0  0  0  0  0  0  0  0  0  0
    1.9098    2.3930   -1.4069 H   0  0  0  0  0  0  0  0  0  0  0  0
    3.5327   -2.3176    2.6608 H   0  0  0  0  0  0  0  0  0  0  0  0
    4.9916    0.1041   -0.0447 H   0  0  0  0  0  0  0  0  0  0  0  0
    6.0778   -0.7724    0.9647 H   0  0  0  0  0  0  0  0  0  0  0  0
  1  2  1  0  0  0  0
  1  8  2  0  0  0  0
  1  9  1  0  0  0  0
  2  3  2  0  0  0  0
  2  7  1  0  0  0  0
  3  4  1  0  0  0  0
  3 18  1  0  0  0  0
  4  5  2  0  0  0  0
  4 22  1  0  0  0  0
  5  6  1  0  0  0  0
  5 14  1  0  0  0  0
  6  7  2  0  0  0  0
  6 10  1  0  0  0  0
  7 23  1  0  0  0  0
  9 19  1  0  0  0  0
  9 24  1  0  0  0  0
 10 11  2  0  0  0  0
 10 12  2  0  0  0  0
 10 13  1  0  0  0  0
 13 25  1  0  0  0  0
 13 26  1  0  0  0  0
 13 27  1  0  0  0  0
 14 15  2  0  0  0  0
 14 16  2  0  0  0  0
 14 17  1  0  0  0  0
 17 28  1  0  0  0  0
 17 29  1  0  0  0  0
 17 30  1  0  0  0  0
 18 31  1  0  0  0  0
 18 32  1  0  0  0  0
 18 33  1  0  0  0  0
 19 20  2  0  0  0  0
 19 21  1  0  0  0  0
 20 34  1  0  0  0  0
 21 35  1  0  0  0  0
 21 36  1  0  0  0  0
M  END
>  <Mol_ID>
6156

>  <Formula>
C11H15N3O5S2

>  <MolWeight>
333.3839

>  <Cat>
S0312

>  <Name>
Rimeporide

>  <Synonyms>
EMD-87580

>  <Target>
Sodium Channel

>  <Form>
free base

>  <CAS>
187870-78-6

>  <URL>
http://www.selleckchem.com/products/rimeporide.html

$$$$
