Riociguat(BAY 63-2521).cdx
 OpenBabel08302520413D

 50 53  0  0  0  0  0  0  0  0999 V2000
   -2.0276   -0.6644   -0.1532 C   0  0  0  0  0  0  0  0  0  0  0  0
   -2.1431    0.7169   -0.1009 C   0  0  0  0  0  0  0  0  0  0  0  0
   -0.9828    1.4881   -0.0553 C   0  0  0  0  0  0  0  0  0  0  0  0
    0.2557    0.8190   -0.0689 C   0  0  0  0  0  0  0  0  0  0  0  0
    0.2241   -0.5666   -0.1003 C   0  0  0  0  0  0  0  0  0  0  0  0
   -0.8676   -1.3584   -0.1458 N   0  0  0  0  0  0  0  0  0  0  0  0
    1.6468    1.1703   -0.0807 C   0  0  0  0  0  0  0  0  0  0  0  0
    2.4183    0.0569   -0.0736 N   0  0  0  0  0  0  0  0  0  0  0  0
    1.5297   -0.9691   -0.0648 N   0  0  0  0  0  0  0  0  0  0  0  0
    1.9946   -2.3504   -0.0123 C   0  0  0  0  0  0  0  0  0  0  0  0
    2.0563   -2.8535    1.4065 C   0  0  0  0  0  0  0  0  0  0  0  0
    2.9293   -2.7017    3.6715 C   0  0  0  0  0  0  0  0  0  0  0  0
    2.0585   -3.7096    4.0842 C   0  0  0  0  0  0  0  0  0  0  0  0
    1.2110   -4.3144    3.1581 C   0  0  0  0  0  0  0  0  0  0  0  0
    1.2195   -3.8881    1.8319 C   0  0  0  0  0  0  0  0  0  0  0  0
    2.9335   -2.2795    2.3401 C   0  0  0  0  0  0  0  0  0  0  0  0
    2.1990    2.5424   -0.1230 C   0  0  0  0  0  0  0  0  0  0  0  0
    1.3212    3.5512   -0.1176 N   0  0  0  0  0  0  0  0  0  0  0  0
    1.8030    4.8032   -0.2094 C   0  0  0  0  0  0  0  0  0  0  0  0
    3.1714    5.1260   -0.2529 C   0  0  0  0  0  0  0  0  0  0  0  0
    3.9821    3.9738   -0.2707 C   0  0  0  0  0  0  0  0  0  0  0  0
    3.5225    2.7094   -0.2110 N   0  0  0  0  0  0  0  0  0  0  0  0
    0.7702    5.7177   -0.4163 N   0  0  0  0  0  0  0  0  0  0  0  0
    5.3781    3.9874   -0.3244 N   0  0  0  0  0  0  0  0  0  0  0  0
    3.6802    6.4981   -0.3227 N   0  0  0  0  0  0  0  0  0  0  0  0
    5.0211    6.7713   -0.8270 C   0  0  0  0  0  0  0  0  0  0  0  0
    2.9686    7.6022    0.1838 C   0  0  0  0  0  0  0  0  0  0  0  0
    1.9322    7.5608    0.8379 O   0  0  0  0  0  0  0  0  0  0  0  0
    3.6062    8.7870   -0.0809 O   0  0  0  0  0  0  0  0  0  0  0  0
    0.4066   -4.4976    0.9575 F   0  0  0  0  0  0  0  0  0  0  0  0
    2.9364    9.9705    0.3604 C   0  0  0  0  0  0  0  0  0  0  0  0
   -2.9214   -1.2824   -0.2044 H   0  0  0  0  0  0  0  0  0  0  0  0
   -3.1192    1.1898   -0.1035 H   0  0  0  0  0  0  0  0  0  0  0  0
   -1.0408    2.5708   -0.0186 H   0  0  0  0  0  0  0  0  0  0  0  0
    1.3166   -2.9466   -0.6327 H   0  0  0  0  0  0  0  0  0  0  0  0
    2.9852   -2.3931   -0.4794 H   0  0  0  0  0  0  0  0  0  0  0  0
    3.5985   -2.2326    4.3887 H   0  0  0  0  0  0  0  0  0  0  0  0
    2.0414   -4.0219    5.1252 H   0  0  0  0  0  0  0  0  0  0  0  0
    0.5365   -5.1091    3.4611 H   0  0  0  0  0  0  0  0  0  0  0  0
    3.6101   -1.4813    2.0370 H   0  0  0  0  0  0  0  0  0  0  0  0
    0.8650    6.5219    0.2082 H   0  0  0  0  0  0  0  0  0  0  0  0
   -0.1080    5.2344   -0.2560 H   0  0  0  0  0  0  0  0  0  0  0  0
    5.6619    3.0071   -0.3466 H   0  0  0  0  0  0  0  0  0  0  0  0
    5.7697    4.4596    0.4812 H   0  0  0  0  0  0  0  0  0  0  0  0
    4.9912    7.6272   -1.5108 H   0  0  0  0  0  0  0  0  0  0  0  0
    5.6614    7.0402    0.0219 H   0  0  0  0  0  0  0  0  0  0  0  0
    5.4618    5.9663   -1.4091 H   0  0  0  0  0  0  0  0  0  0  0  0
    2.0998   10.1911   -0.3089 H   0  0  0  0  0  0  0  0  0  0  0  0
    2.5964    9.8799    1.3961 H   0  0  0  0  0  0  0  0  0  0  0  0
    3.6490   10.7992    0.3072 H   0  0  0  0  0  0  0  0  0  0  0  0
  1  2  2  0  0  0  0
  1 32  1  0  0  0  0
  2  3  1  0  0  0  0
  2 33  1  0  0  0  0
  3  4  2  0  0  0  0
  3 34  1  0  0  0  0
  4  5  1  0  0  0  0
  4  7  1  0  0  0  0
  5  6  2  0  0  0  0
  6  1  1  0  0  0  0
  7  8  2  0  0  0  0
  7 17  1  0  0  0  0
  8  9  1  0  0  0  0
  9  5  1  0  0  0  0
  9 10  1  0  0  0  0
 10 11  1  0  0  0  0
 10 35  1  0  0  0  0
 10 36  1  0  0  0  0
 11 16  2  0  0  0  0
 12 13  2  0  0  0  0
 12 37  1  0  0  0  0
 13 14  1  0  0  0  0
 13 38  1  0  0  0  0
 14 15  2  0  0  0  0
 14 39  1  0  0  0  0
 15 11  1  0  0  0  0
 15 30  1  0  0  0  0
 16 12  1  0  0  0  0
 16 40  1  0  0  0  0
 17 18  2  0  0  0  0
 18 19  1  0  0  0  0
 19 20  2  0  0  0  0
 19 23  1  0  0  0  0
 20 21  1  0  0  0  0
 20 25  1  0  0  0  0
 21 22  2  0  0  0  0
 21 24  1  0  0  0  0
 22 17  1  0  0  0  0
 23 41  1  0  0  0  0
 23 42  1  0  0  0  0
 24 43  1  0  0  0  0
 24 44  1  0  0  0  0
 25 26  1  0  0  0  0
 25 27  1  0  0  0  0
 26 45  1  0  0  0  0
 26 46  1  0  0  0  0
 26 47  1  0  0  0  0
 27 28  2  0  0  0  0
 27 29  1  0  0  0  0
 29 31  1  0  0  0  0
 31 48  1  0  0  0  0
 31 49  1  0  0  0  0
 31 50  1  0  0  0  0
M  END
>  <Mol_ID>
3905

>  <Formula>
C20H19FN8O2

>  <MolWeight>
422.4156632

>  <Cat>
S8135

>  <Name>
Riociguat (BAY 63-2521)

>  <Synonyms>
N/A

>  <Target>
Guanylate Cyclase

>  <Form>
free base

>  <CAS>
625115-55-1

>  <URL>
http://selleckchem.com/products/riociguat-bay-63-2521.html

$$$$
