RIPA-56
 OpenBabel08302520403D

 35 35  0  0  0  0  0  0  0  0999 V2000
    1.1555   -0.2465   -0.2072 O   0  0  0  0  0  0  0  0  0  0  0  0
    2.3555   -2.0164    1.2263 O   0  0  0  0  0  0  0  0  0  0  0  0
    3.1391   -1.0329    0.5540 N   0  0  0  0  0  0  0  0  0  0  0  0
    3.0802    0.9843   -1.0411 C   0  0  0  0  0  0  0  0  0  0  0  0
    1.9524    1.7252   -1.8356 C   0  0  0  0  0  0  0  0  0  0  0  0
    3.7236    1.9337   -0.0184 C   0  0  0  0  0  0  0  0  0  0  0  0
    4.1428    0.5392   -2.0499 C   0  0  0  0  0  0  0  0  0  0  0  0
    2.3896   -0.1792   -0.2408 C   0  0  0  0  0  0  0  0  0  0  0  0
    2.3720    2.9194   -2.6881 C   0  0  0  0  0  0  0  0  0  0  0  0
    4.4981   -1.5346    0.3697 C   0  0  0  0  0  0  0  0  0  0  0  0
    4.7184   -2.3185   -0.9082 C   0  0  0  0  0  0  0  0  0  0  0  0
    5.9669   -2.2302   -1.5476 C   0  0  0  0  0  0  0  0  0  0  0  0
    3.7128   -3.0843   -1.5078 C   0  0  0  0  0  0  0  0  0  0  0  0
    6.1709   -2.8183   -2.7948 C   0  0  0  0  0  0  0  0  0  0  0  0
    3.9228   -3.6878   -2.7480 C   0  0  0  0  0  0  0  0  0  0  0  0
    5.1465   -3.5426   -3.3959 C   0  0  0  0  0  0  0  0  0  0  0  0
    2.0174   -1.5061    1.9854 H   0  0  0  0  0  0  0  0  0  0  0  0
    1.4557    1.0024   -2.4975 H   0  0  0  0  0  0  0  0  0  0  0  0
    1.1827    2.0768   -1.1362 H   0  0  0  0  0  0  0  0  0  0  0  0
    4.5228    1.4418    0.5465 H   0  0  0  0  0  0  0  0  0  0  0  0
    4.1714    2.8074   -0.5003 H   0  0  0  0  0  0  0  0  0  0  0  0
    2.9873    2.2845    0.7125 H   0  0  0  0  0  0  0  0  0  0  0  0
    5.0530    0.2043   -1.5578 H   0  0  0  0  0  0  0  0  0  0  0  0
    3.7650   -0.2466   -2.7101 H   0  0  0  0  0  0  0  0  0  0  0  0
    4.4929    1.3604   -2.6799 H   0  0  0  0  0  0  0  0  0  0  0  0
    3.1006    2.6513   -3.4582 H   0  0  0  0  0  0  0  0  0  0  0  0
    1.4992    3.3190   -3.2149 H   0  0  0  0  0  0  0  0  0  0  0  0
    2.7881    3.7244   -2.0764 H   0  0  0  0  0  0  0  0  0  0  0  0
    5.1654   -0.6681    0.4008 H   0  0  0  0  0  0  0  0  0  0  0  0
    4.7560   -2.1668    1.2271 H   0  0  0  0  0  0  0  0  0  0  0  0
    6.7685   -1.6390   -1.1082 H   0  0  0  0  0  0  0  0  0  0  0  0
    2.7321   -3.1887   -1.0363 H   0  0  0  0  0  0  0  0  0  0  0  0
    7.1214   -2.6903   -3.3053 H   0  0  0  0  0  0  0  0  0  0  0  0
    3.1203   -4.2519   -3.2178 H   0  0  0  0  0  0  0  0  0  0  0  0
    5.2999   -3.9919   -4.3754 H   0  0  0  0  0  0  0  0  0  0  0  0
  1  8  2  0  0  0  0
  2  3  1  0  0  0  0
  2 17  1  0  0  0  0
  3  8  1  0  0  0  0
  3 10  1  0  0  0  0
  4  5  1  0  0  0  0
  4  6  1  0  0  0  0
  4  7  1  0  0  0  0
  4  8  1  0  0  0  0
  5  9  1  0  0  0  0
  5 18  1  0  0  0  0
  5 19  1  0  0  0  0
  6 20  1  0  0  0  0
  6 21  1  0  0  0  0
  6 22  1  0  0  0  0
  7 23  1  0  0  0  0
  7 24  1  0  0  0  0
  7 25  1  0  0  0  0
  9 26  1  0  0  0  0
  9 27  1  0  0  0  0
  9 28  1  0  0  0  0
 10 11  1  0  0  0  0
 10 29  1  0  0  0  0
 10 30  1  0  0  0  0
 11 12  2  0  0  0  0
 11 13  1  0  0  0  0
 12 14  1  0  0  0  0
 12 31  1  0  0  0  0
 13 15  2  0  0  0  0
 13 32  1  0  0  0  0
 14 16  2  0  0  0  0
 14 33  1  0  0  0  0
 15 16  1  0  0  0  0
 15 34  1  0  0  0  0
 16 35  1  0  0  0  0
M  END
>  <Mol_ID>
3811

>  <Formula>
C13H19NO2

>  <MolWeight>
221.29546

>  <Cat>
S6511

>  <Name>
RIPA-56

>  <Synonyms>
N/A

>  <Target>
RIP kinase

>  <Form>
free base

>  <CAS>
1956370-21-0

>  <URL>
http://www.selleck.cn/products/ripa-56.html

$$$$
