RIPK1-IN-7
 OpenBabel08302521343D

 57 61  0  0  0  0  0  0  0  0999 V2000
    0.7123   -0.7022   -0.0409 C   0  0  0  0  0  0  0  0  0  0  0  0
    0.8482   -1.6823   -1.1965 C   0  0  0  0  0  0  0  0  0  0  0  0
    0.1511   -3.0078   -0.9616 C   0  0  0  0  0  0  0  0  0  0  0  0
   -1.2456   -3.0672   -0.9823 C   0  0  0  0  0  0  0  0  0  0  0  0
   -1.9089   -4.2896   -0.9205 C   0  0  0  0  0  0  0  0  0  0  0  0
   -1.1982   -5.4571   -0.6623 C   0  0  0  0  0  0  0  0  0  0  0  0
    0.1934   -5.4172   -0.5974 C   0  0  0  0  0  0  0  0  0  0  0  0
    0.8709   -4.2054   -0.7810 C   0  0  0  0  0  0  0  0  0  0  0  0
   -3.2556   -4.4204   -1.0805 O   0  0  0  0  0  0  0  0  0  0  0  0
   -3.8475   -3.6213   -2.1014 C   0  0  0  0  0  0  0  0  0  0  0  0
   -2.9662   -2.9682   -2.8935 F   0  0  0  0  0  0  0  0  0  0  0  0
   -4.5885   -4.4200   -2.9034 F   0  0  0  0  0  0  0  0  0  0  0  0
   -4.6700   -2.7162   -1.5360 F   0  0  0  0  0  0  0  0  0  0  0  0
    0.1894    0.5889   -0.3177 N   0  0  0  0  0  0  0  0  0  0  0  0
    0.2485    1.5135    0.8422 C   0  0  0  0  0  0  0  0  0  0  0  0
   -1.1645    1.5927    1.4265 C   0  0  0  0  0  0  0  0  0  0  0  0
   -1.9729    1.0600    0.2935 C   0  0  0  0  0  0  0  0  0  0  0  0
   -3.3504    0.9700    0.2095 C   0  0  0  0  0  0  0  0  0  0  0  0
   -3.9512    0.7810   -1.0368 C   0  0  0  0  0  0  0  0  0  0  0  0
   -3.1036    0.6178   -2.1591 C   0  0  0  0  0  0  0  0  0  0  0  0
   -1.7026    0.5123   -2.0212 C   0  0  0  0  0  0  0  0  0  0  0  0
   -1.1580    0.6813   -0.7634 C   0  0  0  0  0  0  0  0  0  0  0  0
   -8.8190    2.0137    0.7379 C   0  0  0  0  0  0  0  0  0  0  0  0
   -8.8859    1.2117   -0.3310 N   0  0  0  0  0  0  0  0  0  0  0  0
   -7.6666    0.9233   -0.8186 C   0  0  0  0  0  0  0  0  0  0  0  0
   -6.4419    1.3719   -0.3284 C   0  0  0  0  0  0  0  0  0  0  0  0
   -6.5190    2.2453    0.7767 C   0  0  0  0  0  0  0  0  0  0  0  0
   -7.7230    2.5445    1.3025 N   0  0  0  0  0  0  0  0  0  0  0  0
   -7.4297    0.1246   -1.9060 N   0  0  0  0  0  0  0  0  0  0  0  0
   -5.4149    0.7631   -1.1473 C   0  0  0  0  0  0  0  0  0  0  0  0
   -6.0763    0.0147   -2.1114 C   0  0  0  0  0  0  0  0  0  0  0  0
   -8.4544   -0.4843   -2.7330 C   0  0  0  0  0  0  0  0  0  0  0  0
   -8.8666   -1.8650   -2.2480 C   0  0  0  0  0  0  0  0  0  0  0  0
   -5.4379    2.8799    1.3769 N   0  0  0  0  0  0  0  0  0  0  0  0
    1.1314   -1.0114    1.0777 O   0  0  0  0  0  0  0  0  0  0  0  0
    0.5189   -1.2499   -2.1425 H   0  0  0  0  0  0  0  0  0  0  0  0
    1.9305   -1.8545   -1.3153 H   0  0  0  0  0  0  0  0  0  0  0  0
   -1.8049   -2.1473   -1.0933 H   0  0  0  0  0  0  0  0  0  0  0  0
   -1.7230   -6.4010   -0.5319 H   0  0  0  0  0  0  0  0  0  0  0  0
    0.7525   -6.3345   -0.4263 H   0  0  0  0  0  0  0  0  0  0  0  0
    1.9561   -4.2075   -0.7706 H   0  0  0  0  0  0  0  0  0  0  0  0
    0.5537    2.4892    0.4406 H   0  0  0  0  0  0  0  0  0  0  0  0
    0.9854    1.2292    1.5962 H   0  0  0  0  0  0  0  0  0  0  0  0
   -1.4287    2.6341    1.6257 H   0  0  0  0  0  0  0  0  0  0  0  0
   -1.2821    0.9927    2.3368 H   0  0  0  0  0  0  0  0  0  0  0  0
   -3.9335    1.0528    1.1209 H   0  0  0  0  0  0  0  0  0  0  0  0
   -3.5320    0.5678   -3.1589 H   0  0  0  0  0  0  0  0  0  0  0  0
   -1.0770    0.3739   -2.8958 H   0  0  0  0  0  0  0  0  0  0  0  0
   -9.7645    2.2768    1.2012 H   0  0  0  0  0  0  0  0  0  0  0  0
   -5.7001   -0.6175   -2.9049 H   0  0  0  0  0  0  0  0  0  0  0  0
   -9.3196    0.1886   -2.7548 H   0  0  0  0  0  0  0  0  0  0  0  0
   -8.0632   -0.5416   -3.7547 H   0  0  0  0  0  0  0  0  0  0  0  0
   -9.2676   -1.8256   -1.2304 H   0  0  0  0  0  0  0  0  0  0  0  0
   -9.6415   -2.2782   -2.9033 H   0  0  0  0  0  0  0  0  0  0  0  0
   -8.0165   -2.5540   -2.2505 H   0  0  0  0  0  0  0  0  0  0  0  0
   -4.7096    3.1366    0.7228 H   0  0  0  0  0  0  0  0  0  0  0  0
   -5.7666    3.6224    1.9829 H   0  0  0  0  0  0  0  0  0  0  0  0
  1  2  1  0  0  0  0
  1 14  1  0  0  0  0
  1 35  2  0  0  0  0
  2  3  1  0  0  0  0
  2 36  1  0  0  0  0
  2 37  1  0  0  0  0
  3  4  2  0  0  0  0
  3  8  1  0  0  0  0
  4  5  1  0  0  0  0
  4 38  1  0  0  0  0
  5  6  2  0  0  0  0
  5  9  1  0  0  0  0
  6  7  1  0  0  0  0
  6 39  1  0  0  0  0
  7  8  2  0  0  0  0
  7 40  1  0  0  0  0
  8 41  1  0  0  0  0
  9 10  1  0  0  0  0
 10 11  1  0  0  0  0
 10 12  1  0  0  0  0
 10 13  1  0  0  0  0
 14 15  1  0  0  0  0
 14 22  1  0  0  0  0
 15 16  1  0  0  0  0
 15 42  1  0  0  0  0
 15 43  1  0  0  0  0
 16 17  1  0  0  0  0
 16 44  1  0  0  0  0
 16 45  1  0  0  0  0
 17 18  1  0  0  0  0
 17 22  2  0  0  0  0
 18 19  2  0  0  0  0
 18 46  1  0  0  0  0
 19 20  1  0  0  0  0
 19 30  1  0  0  0  0
 20 21  2  0  0  0  0
 20 47  1  0  0  0  0
 21 22  1  0  0  0  0
 21 48  1  0  0  0  0
 23 24  2  0  0  0  0
 23 28  1  0  0  0  0
 23 49  1  0  0  0  0
 24 25  1  0  0  0  0
 25 26  2  0  0  0  0
 26 27  1  0  0  0  0
 27 28  2  0  0  0  0
 27 34  1  0  0  0  0
 29 31  1  0  0  0  0
 29 25  1  0  0  0  0
 29 32  1  0  0  0  0
 30 31  2  0  0  0  0
 30 26  1  0  0  0  0
 31 50  1  0  0  0  0
 32 33  1  0  0  0  0
 32 51  1  0  0  0  0
 32 52  1  0  0  0  0
 33 53  1  0  0  0  0
 33 54  1  0  0  0  0
 33 55  1  0  0  0  0
 34 56  1  0  0  0  0
 34 57  1  0  0  0  0
M  END
>  <Mol_ID>
6484

>  <Formula>
C25H22F3N5O2

>  <MolWeight>
481.4696896

>  <Cat>
E2648

>  <Name>
RIPK1-IN-7

>  <Target>
RIP kinase

>  <Form>
free base

>  <CAS>
2300982-44-7

>  <URL>
http://www.selleckchem.com/products/ripk1-in-7.html

$$$$
