Risedronate sodium.cdx
 OpenBabel08302521393D

 27 27  0  0  0  0  0  0  0  0999 V2000
   -0.0560   -4.2204   -3.1537 C   0  0  0  0  0  0  0  0  0  0  0  0
    1.1137   -4.7679   -3.6518 C   0  0  0  0  0  0  0  0  0  0  0  0
    2.3316   -4.5808   -3.0967 N   0  0  0  0  0  0  0  0  0  0  0  0
    2.3612   -3.8472   -1.9567 C   0  0  0  0  0  0  0  0  0  0  0  0
    1.2487   -3.2471   -1.3703 C   0  0  0  0  0  0  0  0  0  0  0  0
    0.0200   -3.4395   -2.0052 C   0  0  0  0  0  0  0  0  0  0  0  0
    1.3611   -2.4673   -0.0792 C   0  0  0  0  0  0  0  0  0  0  0  0
    1.1849   -3.2857    1.2164 C   0  0  3  0  0  0  0  0  0  0  0  0
   -0.5839   -4.0241    1.2953 P   0  0  3  0  0  0  0  0  0  0  0  0
    2.0757   -4.4628    1.1654 O   0  0  0  0  0  0  0  0  0  0  0  0
    1.6356   -2.3340    2.7131 P   0  0  0  0  0  0  0  0  0  0  0  0
   -0.4273   -5.4022    0.6999 O   0  0  0  0  0  0  0  0  0  0  0  0
   -0.8248   -4.2230    2.8795 O   0  0  0  0  0  0  0  0  0  0  0  0
   -1.5339   -2.9626    0.8070 O   0  5  0  0  0  0  0  0  0  0  0  0
    1.4671   -3.5482    3.6478 O   0  0  0  0  0  0  0  0  0  0  0  0
    3.2366   -2.3898    2.3199 O   0  0  0  0  0  0  0  0  0  0  0  0
    2.0616   -1.4343    4.1280 O   0  0  0  0  0  0  0  0  0  0  0  0
   -1.0126   -4.4188   -3.6223 H   0  0  0  0  0  0  0  0  0  0  0  0
    1.0980   -5.3988   -4.5348 H   0  0  0  0  0  0  0  0  0  0  0  0
    3.3436   -3.7604   -1.5024 H   0  0  0  0  0  0  0  0  0  0  0  0
   -0.8952   -3.0282   -1.5819 H   0  0  0  0  0  0  0  0  0  0  0  0
    2.3479   -1.9874   -0.0736 H   0  0  0  0  0  0  0  0  0  0  0  0
    0.6408   -1.6403   -0.0913 H   0  0  0  0  0  0  0  0  0  0  0  0
    1.4386   -5.1871    0.9153 H   0  0  0  0  0  0  0  0  0  0  0  0
    0.0109   -4.3403    3.3848 H   0  0  0  0  0  0  0  0  0  0  0  0
    3.4845   -3.3436    2.2936 H   0  0  0  0  0  0  0  0  0  0  0  0
    2.3707   -2.1229    4.7492 H   0  0  0  0  0  0  0  0  0  0  0  0
  1  2  2  0  0  0  0
  1 18  1  0  0  0  0
  2  3  1  0  0  0  0
  2 19  1  0  0  0  0
  3  4  2  0  0  0  0
  4  5  1  0  0  0  0
  4 20  1  0  0  0  0
  5  6  2  0  0  0  0
  5  7  1  0  0  0  0
  6  1  1  0  0  0  0
  6 21  1  0  0  0  0
  7  8  1  0  0  0  0
  7 22  1  0  0  0  0
  7 23  1  0  0  0  0
  8  9  1  0  0  0  0
  8 10  1  0  0  0  0
  8 11  1  0  0  0  0
  9 12  2  0  0  0  0
  9 13  1  0  0  0  0
  9 14  1  0  0  0  0
 10 24  1  0  0  0  0
 11 15  2  0  0  0  0
 11 16  1  0  0  0  0
 11 17  1  0  0  0  0
 13 25  1  0  0  0  0
 16 26  1  0  0  0  0
 17 27  1  0  0  0  0
M  CHG  1  14  -1
M  END
>  <Mol_ID>
8221

>  <Formula>
C7H10NNaO7P2

>  <MolWeight>
305.094092

>  <Cat>
S1428

>  <Name>
Risedronate Sodium

>  <Synonyms>
NE 58095 Sodium

>  <Target>
Others

>  <Form>
Sodium salt

>  <CAS>
115436-72-1

>  <URL>
http://selleckchem.com/products/Risedronate-sodium.html

$$$$
