RITA (NSC 652287).cdx
 OpenBabel08302521313D

 31 33  0  0  0  0  0  0  0  0999 V2000
   -1.0595    0.0529   -0.0177 O   0  0  0  0  0  0  0  0  0  0  0  0
   -0.1962    1.1222   -0.0724 C   0  0  0  0  0  0  0  0  0  0  0  0
    1.0972    0.6333   -0.0293 C   0  0  0  0  0  0  0  0  0  0  0  0
    1.0147   -0.7726    0.0446 C   0  0  0  0  0  0  0  0  0  0  0  0
   -0.3273   -1.1092    0.0562 C   0  0  0  0  0  0  0  0  0  0  0  0
   -0.7858    4.9545   -0.4179 C   0  0  0  0  0  0  0  0  0  0  0  0
   -2.0298    4.3614   -0.3388 C   0  0  0  0  0  0  0  0  0  0  0  0
   -1.9469    2.9430   -0.1973 C   0  0  0  0  0  0  0  0  0  0  0  0
   -0.6430    2.4889   -0.1703 C   0  0  0  0  0  0  0  0  0  0  0  0
    0.4622    3.7963   -0.2864 S   0  0  0  0  0  0  0  0  0  0  0  0
   -0.4515    6.3971   -0.6012 C   0  0  0  0  0  0  0  0  0  0  0  0
   -1.0058    6.8054   -1.8459 O   0  0  0  0  0  0  0  0  0  0  0  0
   -1.3633   -4.8483    0.3777 C   0  0  0  0  0  0  0  0  0  0  0  0
   -2.5276   -4.1160    0.2642 C   0  0  0  0  0  0  0  0  0  0  0  0
   -2.2779   -2.7162    0.1264 C   0  0  0  0  0  0  0  0  0  0  0  0
   -0.9301   -2.4154    0.1389 C   0  0  0  0  0  0  0  0  0  0  0  0
    0.0130   -3.8414    0.2840 S   0  0  0  0  0  0  0  0  0  0  0  0
   -1.2028   -6.3193    0.5695 C   0  0  0  0  0  0  0  0  0  0  0  0
   -1.8348   -6.6578    1.7981 O   0  0  0  0  0  0  0  0  0  0  0  0
    2.0025    1.2237   -0.0541 H   0  0  0  0  0  0  0  0  0  0  0  0
    1.8456   -1.4622    0.0878 H   0  0  0  0  0  0  0  0  0  0  0  0
   -2.9568    4.9202   -0.4001 H   0  0  0  0  0  0  0  0  0  0  0  0
   -2.8067    2.2865   -0.1326 H   0  0  0  0  0  0  0  0  0  0  0  0
   -0.8939    7.0044    0.1939 H   0  0  0  0  0  0  0  0  0  0  0  0
    0.6262    6.5892   -0.6225 H   0  0  0  0  0  0  0  0  0  0  0  0
   -0.6802    6.1781   -2.5147 H   0  0  0  0  0  0  0  0  0  0  0  0
   -3.5149   -4.5635    0.2967 H   0  0  0  0  0  0  0  0  0  0  0  0
   -3.0541   -1.9656    0.0374 H   0  0  0  0  0  0  0  0  0  0  0  0
   -1.6892   -6.8741   -0.2382 H   0  0  0  0  0  0  0  0  0  0  0  0
   -0.1552   -6.6333    0.6215 H   0  0  0  0  0  0  0  0  0  0  0  0
   -1.4563   -6.0721    2.4767 H   0  0  0  0  0  0  0  0  0  0  0  0
  1  2  1  0  0  0  0
  1  5  1  0  0  0  0
  2  3  2  0  0  0  0
  2  9  1  0  0  0  0
  3  4  1  0  0  0  0
  3 20  1  0  0  0  0
  4  5  2  0  0  0  0
  4 21  1  0  0  0  0
  5 16  1  0  0  0  0
  6  7  2  0  0  0  0
  6 10  1  0  0  0  0
  6 11  1  0  0  0  0
  7  8  1  0  0  0  0
  7 22  1  0  0  0  0
  8  9  2  0  0  0  0
  8 23  1  0  0  0  0
  9 10  1  0  0  0  0
 11 12  1  0  0  0  0
 11 24  1  0  0  0  0
 11 25  1  0  0  0  0
 12 26  1  0  0  0  0
 13 14  2  0  0  0  0
 13 17  1  0  0  0  0
 13 18  1  0  0  0  0
 14 15  1  0  0  0  0
 14 27  1  0  0  0  0
 15 16  2  0  0  0  0
 15 28  1  0  0  0  0
 16 17  1  0  0  0  0
 18 19  1  0  0  0  0
 18 29  1  0  0  0  0
 18 30  1  0  0  0  0
 19 31  1  0  0  0  0
M  END
>  <Mol_ID>
558

>  <Formula>
C14H12O3S2

>  <MolWeight>
292.37328

>  <Cat>
S2781

>  <Name>
RITA (NSC 652287)

>  <Synonyms>
N/A

>  <Target>
E3 Ligase ,p53

>  <Form>
free base

>  <CAS>
213261-59-7

>  <URL>
http://selleckchem.com/products/rita-nsc-652287.html

$$$$
