Ritodrine hydrochloride.cdx
 OpenBabel08302521393D

 42 43  0  0  0  0  0  0  0  0999 V2000
   -4.2426    5.0908    3.8989 C   0  0  0  0  0  0  0  0  0  0  0  0
   -4.5693    4.3503    5.0292 C   0  0  0  0  0  0  0  0  0  0  0  0
   -4.4602    2.9654    5.0116 C   0  0  0  0  0  0  0  0  0  0  0  0
   -4.0547    2.3056    3.8457 C   0  0  0  0  0  0  0  0  0  0  0  0
   -3.7782    3.0223    2.6690 C   0  0  0  0  0  0  0  0  0  0  0  0
   -3.8347    4.4299    2.7368 C   0  0  0  0  0  0  0  0  0  0  0  0
   -4.9962    4.9458    6.1741 O   0  0  0  0  0  0  0  0  0  0  0  0
   -3.3655    2.3444    1.3621 C   0  0  1  0  0  0  0  0  0  0  0  0
   -3.8305    0.8574    1.1391 C   0  0  2  0  0  0  0  0  0  0  0  0
   -3.3874    0.2423   -0.1418 N   0  0  0  0  0  0  0  0  0  0  0  0
   -1.9291    0.2050   -0.3201 C   0  0  0  0  0  0  0  0  0  0  0  0
   -1.5675   -0.5866   -1.5897 C   0  0  0  0  0  0  0  0  0  0  0  0
   -0.0783   -0.6466   -1.8508 C   0  0  0  0  0  0  0  0  0  0  0  0
    0.7022   -1.6763   -1.3043 C   0  0  0  0  0  0  0  0  0  0  0  0
    2.0718   -1.7564   -1.5776 C   0  0  0  0  0  0  0  0  0  0  0  0
    2.6653   -0.7989   -2.3925 C   0  0  0  0  0  0  0  0  0  0  0  0
    1.9138    0.2405   -2.9265 C   0  0  0  0  0  0  0  0  0  0  0  0
    0.5458    0.3196   -2.6535 C   0  0  0  0  0  0  0  0  0  0  0  0
    3.9929   -0.8508   -2.7005 O   0  0  0  0  0  0  0  0  0  0  0  0
   -3.8273    3.1200    0.2394 O   0  0  0  0  0  0  0  0  0  0  0  0
   -5.3677    0.7540    1.1199 C   0  0  0  0  0  0  0  0  0  0  0  0
   -4.2967    6.1755    3.9036 H   0  0  0  0  0  0  0  0  0  0  0  0
   -4.6952    2.3969    5.9081 H   0  0  0  0  0  0  0  0  0  0  0  0
   -3.9737    1.2232    3.8823 H   0  0  0  0  0  0  0  0  0  0  0  0
   -3.5615    5.0307    1.8698 H   0  0  0  0  0  0  0  0  0  0  0  0
   -5.0606    5.9030    6.0207 H   0  0  0  0  0  0  0  0  0  0  0  0
   -2.2705    2.3784    1.3403 H   0  0  0  0  0  0  0  0  0  0  0  0
   -3.4576    0.2303    1.9566 H   0  0  0  0  0  0  0  0  0  0  0  0
   -3.7891    0.7902   -0.9066 H   0  0  0  0  0  0  0  0  0  0  0  0
   -1.5336    1.2221   -0.4147 H   0  0  0  0  0  0  0  0  0  0  0  0
   -1.4543   -0.2639    0.5496 H   0  0  0  0  0  0  0  0  0  0  0  0
   -1.9560   -1.6113   -1.5193 H   0  0  0  0  0  0  0  0  0  0  0  0
   -2.0616   -0.1422   -2.4644 H   0  0  0  0  0  0  0  0  0  0  0  0
    0.2409   -2.4358   -0.6758 H   0  0  0  0  0  0  0  0  0  0  0  0
    2.6500   -2.5702   -1.1520 H   0  0  0  0  0  0  0  0  0  0  0  0
    2.3893    0.9833   -3.5611 H   0  0  0  0  0  0  0  0  0  0  0  0
   -0.0327    1.1312   -3.0883 H   0  0  0  0  0  0  0  0  0  0  0  0
    4.3707   -1.6524   -2.3025 H   0  0  0  0  0  0  0  0  0  0  0  0
   -4.6870    3.4992    0.4936 H   0  0  0  0  0  0  0  0  0  0  0  0
   -5.6877   -0.2925    1.0604 H   0  0  0  0  0  0  0  0  0  0  0  0
   -5.8189    1.1739    2.0237 H   0  0  0  0  0  0  0  0  0  0  0  0
   -5.8007    1.2834    0.2631 H   0  0  0  0  0  0  0  0  0  0  0  0
  1  2  2  0  0  0  0
  1 22  1  0  0  0  0
  2  3  1  0  0  0  0
  2  7  1  0  0  0  0
  3  4  2  0  0  0  0
  3 23  1  0  0  0  0
  4  5  1  0  0  0  0
  4 24  1  0  0  0  0
  5  6  2  0  0  0  0
  5  8  1  0  0  0  0
  6  1  1  0  0  0  0
  6 25  1  0  0  0  0
  7 26  1  0  0  0  0
  8 20  1  0  0  0  0
  8 27  1  6  0  0  0
  9 21  1  0  0  0  0
  9 28  1  1  0  0  0
  9 10  1  0  0  0  0
  9  8  1  0  0  0  0
 10 11  1  0  0  0  0
 10 29  1  0  0  0  0
 11 12  1  0  0  0  0
 11 30  1  0  0  0  0
 11 31  1  0  0  0  0
 12 13  1  0  0  0  0
 12 32  1  0  0  0  0
 12 33  1  0  0  0  0
 13 14  2  0  0  0  0
 14 15  1  0  0  0  0
 14 34  1  0  0  0  0
 15 16  2  0  0  0  0
 15 35  1  0  0  0  0
 16 17  1  0  0  0  0
 16 19  1  0  0  0  0
 17 18  2  0  0  0  0
 17 36  1  0  0  0  0
 18 13  1  0  0  0  0
 18 37  1  0  0  0  0
 19 38  1  0  0  0  0
 20 39  1  0  0  0  0
 21 40  1  0  0  0  0
 21 41  1  0  0  0  0
 21 42  1  0  0  0  0
M  END
>  <Mol_ID>
789

>  <Formula>
C17H22ClNO3

>  <MolWeight>
323.81448

>  <Cat>
S2533

>  <Name>
Ritodrine HCl

>  <Synonyms>
NSC 291565,DU 21220, Ritodrine

>  <Target>
Adrenergic Receptor

>  <Form>
Hydrochloride

>  <CAS>
23239-51-2

>  <URL>
http://selleckchem.com/products/Ritodrine-hydrochloride-Yutopar.html

$$$$
