Rivastigmine.cdx
 OpenBabel08302520003D

 40 40  0  0  0  0  0  0  0  0999 V2000
    1.3512   -0.2565   -0.3600 C   0  0  0  0  0  0  0  0  0  0  0  0
    0.4467   -1.1374   -0.9474 C   0  0  0  0  0  0  0  0  0  0  0  0
   -0.9040   -0.7904   -1.0186 C   0  0  0  0  0  0  0  0  0  0  0  0
   -1.3427    0.4463   -0.5307 C   0  0  0  0  0  0  0  0  0  0  0  0
   -0.4292    1.3796   -0.0133 C   0  0  0  0  0  0  0  0  0  0  0  0
    0.9273    1.0085    0.0606 C   0  0  0  0  0  0  0  0  0  0  0  0
    2.6915   -0.7023   -0.2489 O   0  0  0  0  0  0  0  0  0  0  0  0
    3.4070   -0.4347    0.9239 C   0  0  0  0  0  0  0  0  0  0  0  0
    4.6554   -1.0458    0.9780 N   0  0  0  0  0  0  0  0  0  0  0  0
    5.5138   -0.7632    2.1177 C   0  0  0  0  0  0  0  0  0  0  0  0
    5.1946   -1.9208   -0.0588 C   0  0  0  0  0  0  0  0  0  0  0  0
    6.1381   -1.2030   -1.0089 C   0  0  0  0  0  0  0  0  0  0  0  0
    2.9846    0.2680    1.8429 O   0  0  0  0  0  0  0  0  0  0  0  0
   -0.9211    2.7676    0.4160 C   0  0  1  0  0  0  0  0  0  0  0  0
   -1.3155    2.8433    1.8447 N   0  0  0  0  0  0  0  0  0  0  0  0
   -0.2319    2.5584    2.7856 C   0  0  0  0  0  0  0  0  0  0  0  0
   -1.9354    4.1278    2.1811 C   0  0  0  0  0  0  0  0  0  0  0  0
    0.0376    3.8729   -0.0678 C   0  0  0  0  0  0  0  0  0  0  0  0
    0.7812   -2.0962   -1.3309 H   0  0  0  0  0  0  0  0  0  0  0  0
   -1.6219   -1.4849   -1.4493 H   0  0  0  0  0  0  0  0  0  0  0  0
   -2.4048    0.6847   -0.5707 H   0  0  0  0  0  0  0  0  0  0  0  0
    1.6497    1.7053    0.4743 H   0  0  0  0  0  0  0  0  0  0  0  0
    5.9088   -1.7033    2.5132 H   0  0  0  0  0  0  0  0  0  0  0  0
    6.3404   -0.1266    1.7902 H   0  0  0  0  0  0  0  0  0  0  0  0
    4.9789   -0.2501    2.9214 H   0  0  0  0  0  0  0  0  0  0  0  0
    5.7276   -2.7366    0.4415 H   0  0  0  0  0  0  0  0  0  0  0  0
    4.3800   -2.3773   -0.6293 H   0  0  0  0  0  0  0  0  0  0  0  0
    6.8340   -0.5422   -0.4813 H   0  0  0  0  0  0  0  0  0  0  0  0
    6.7316   -1.9304   -1.5740 H   0  0  0  0  0  0  0  0  0  0  0  0
    5.5799   -0.5937   -1.7267 H   0  0  0  0  0  0  0  0  0  0  0  0
   -1.8462    2.9320   -0.1576 H   0  0  0  0  0  0  0  0  0  0  0  0
    0.6161    3.2415    2.6742 H   0  0  0  0  0  0  0  0  0  0  0  0
   -0.5910    2.6421    3.8189 H   0  0  0  0  0  0  0  0  0  0  0  0
    0.1233    1.5289    2.6861 H   0  0  0  0  0  0  0  0  0  0  0  0
   -1.2391    4.9690    2.0986 H   0  0  0  0  0  0  0  0  0  0  0  0
   -2.8004    4.3251    1.5380 H   0  0  0  0  0  0  0  0  0  0  0  0
   -2.3134    4.1174    3.2108 H   0  0  0  0  0  0  0  0  0  0  0  0
    0.2878    3.7279   -1.1250 H   0  0  0  0  0  0  0  0  0  0  0  0
   -0.4178    4.8636    0.0169 H   0  0  0  0  0  0  0  0  0  0  0  0
    0.9762    3.8877    0.4945 H   0  0  0  0  0  0  0  0  0  0  0  0
  1  2  2  0  0  0  0
  1  7  1  0  0  0  0
  2  3  1  0  0  0  0
  2 19  1  0  0  0  0
  3  4  2  0  0  0  0
  3 20  1  0  0  0  0
  4  5  1  0  0  0  0
  4 21  1  0  0  0  0
  5  6  2  0  0  0  0
  5 14  1  0  0  0  0
  6  1  1  0  0  0  0
  6 22  1  0  0  0  0
  7  8  1  0  0  0  0
  8  9  1  0  0  0  0
  8 13  2  0  0  0  0
  9 10  1  0  0  0  0
  9 11  1  0  0  0  0
 10 23  1  0  0  0  0
 10 24  1  0  0  0  0
 10 25  1  0  0  0  0
 11 12  1  0  0  0  0
 11 26  1  0  0  0  0
 11 27  1  0  0  0  0
 12 28  1  0  0  0  0
 12 29  1  0  0  0  0
 12 30  1  0  0  0  0
 14 15  1  0  0  0  0
 14 18  1  0  0  0  0
 14 31  1  6  0  0  0
 15 16  1  0  0  0  0
 15 17  1  0  0  0  0
 16 32  1  0  0  0  0
 16 33  1  0  0  0  0
 16 34  1  0  0  0  0
 17 35  1  0  0  0  0
 17 36  1  0  0  0  0
 17 37  1  0  0  0  0
 18 38  1  0  0  0  0
 18 39  1  0  0  0  0
 18 40  1  0  0  0  0
M  END
>  <Mol_ID>
2692

>  <Formula>
C14H22N2O2

>  <MolWeight>
250.33668

>  <Cat>
S4687

>  <Name>
Rivastigmine

>  <Synonyms>
SDZ-ENA 713, Exelon

>  <Target>
AChR

>  <Form>
free base

>  <CAS>
123441-03-2

>  <URL>
http://selleckchem.com/products/rivastigmine.html

$$$$
