Rivastigmine tartrate.cdx
 OpenBabel08302522023D

 56 55  0  0  0  0  0  0  0  0999 V2000
    2.8129    0.5829    0.1163 C   0  0  0  0  0  0  0  0  0  0  0  0
    4.1268    0.9313    0.4202 C   0  0  0  0  0  0  0  0  0  0  0  0
    4.4841    2.2774    0.5080 C   0  0  0  0  0  0  0  0  0  0  0  0
    3.5197    3.2802    0.3463 C   0  0  0  0  0  0  0  0  0  0  0  0
    2.1675    2.9673    0.1139 C   0  0  0  0  0  0  0  0  0  0  0  0
    1.8342    1.5854    0.0013 C   0  0  0  0  0  0  0  0  0  0  0  0
    2.6189   -0.8215   -0.1198 O   0  0  0  0  0  0  0  0  0  0  0  0
    1.4810   -1.4796   -0.6240 C   0  0  0  0  0  0  0  0  0  0  0  0
    1.6822   -2.8135   -0.9821 N   0  0  0  0  0  0  0  0  0  0  0  0
    0.5551   -3.5939   -1.4775 C   0  0  0  0  0  0  0  0  0  0  0  0
    2.9678   -3.5275   -0.9329 C   0  0  0  0  0  0  0  0  0  0  0  0
    3.1602   -4.3189    0.3513 C   0  0  0  0  0  0  0  0  0  0  0  0
    0.3923   -0.9112   -0.7556 O   0  0  0  0  0  0  0  0  0  0  0  0
    1.1011    4.0975    0.1269 C   0  0  1  0  0  0  0  0  0  0  0  0
    1.5771    5.4546   -0.2895 N   0  0  0  0  0  0  0  0  0  0  0  0
    2.0058    5.5362   -1.6881 C   0  0  0  0  0  0  0  0  0  0  0  0
    0.5800    6.5081   -0.0364 C   0  0  0  0  0  0  0  0  0  0  0  0
   -0.2235    3.7168   -0.5583 C   0  0  0  0  0  0  0  0  0  0  0  0
   -1.9655    0.2002    6.3125 O   0  0  0  0  0  0  0  0  0  0  0  0
   -1.7546   -0.2370    5.0491 C   0  0  0  0  0  0  0  0  0  0  0  0
   -0.9836    0.7795    4.2248 C   0  0  1  0  0  0  0  0  0  0  0  0
   -1.2156    0.6219    2.7157 C   0  0  2  0  0  0  0  0  0  0  0  0
   -2.6683    0.8545    2.3172 C   0  0  0  0  0  0  0  0  0  0  0  0
   -2.9580    0.3039    1.1266 O   0  0  0  0  0  0  0  0  0  0  0  0
   -3.4564    1.5078    2.9917 O   0  0  0  0  0  0  0  0  0  0  0  0
   -2.0942   -1.3235    4.6347 O   0  0  0  0  0  0  0  0  0  0  0  0
   -1.3123    2.0894    4.7168 O   0  0  0  0  0  0  0  0  0  0  0  0
   -0.7835   -0.6371    2.1991 O   0  0  0  0  0  0  0  0  0  0  0  0
    4.8791    0.1618    0.5697 H   0  0  0  0  0  0  0  0  0  0  0  0
    5.5190    2.5522    0.6965 H   0  0  0  0  0  0  0  0  0  0  0  0
    3.8375    4.3204    0.4159 H   0  0  0  0  0  0  0  0  0  0  0  0
    0.8044    1.2905   -0.1634 H   0  0  0  0  0  0  0  0  0  0  0  0
    0.8042   -3.9938   -2.4643 H   0  0  0  0  0  0  0  0  0  0  0  0
    0.3644   -4.4224   -0.7918 H   0  0  0  0  0  0  0  0  0  0  0  0
   -0.3560   -2.9941   -1.5688 H   0  0  0  0  0  0  0  0  0  0  0  0
    2.9898   -4.2219   -1.7794 H   0  0  0  0  0  0  0  0  0  0  0  0
    3.7895   -2.8240   -1.0728 H   0  0  0  0  0  0  0  0  0  0  0  0
    2.2600   -4.8713    0.6355 H   0  0  0  0  0  0  0  0  0  0  0  0
    3.9750   -5.0457    0.2270 H   0  0  0  0  0  0  0  0  0  0  0  0
    3.4243   -3.6537    1.1808 H   0  0  0  0  0  0  0  0  0  0  0  0
    0.8739    4.1953    1.2010 H   0  0  0  0  0  0  0  0  0  0  0  0
    1.2650    5.1315   -2.3839 H   0  0  0  0  0  0  0  0  0  0  0  0
    2.1833    6.5804   -1.9808 H   0  0  0  0  0  0  0  0  0  0  0  0
    2.9549    5.0160   -1.8443 H   0  0  0  0  0  0  0  0  0  0  0  0
   -0.1006    6.6528   -0.8862 H   0  0  0  0  0  0  0  0  0  0  0  0
   -0.0326    6.3036    0.8493 H   0  0  0  0  0  0  0  0  0  0  0  0
    1.0835    7.4643    0.1485 H   0  0  0  0  0  0  0  0  0  0  0  0
   -0.6577    2.8151   -0.1190 H   0  0  0  0  0  0  0  0  0  0  0  0
   -0.9839    4.4944   -0.4332 H   0  0  0  0  0  0  0  0  0  0  0  0
   -0.0868    3.5424   -1.6292 H   0  0  0  0  0  0  0  0  0  0  0  0
   -1.6115    1.1145    6.4090 H   0  0  0  0  0  0  0  0  0  0  0  0
    0.0778    0.6053    4.4444 H   0  0  0  0  0  0  0  0  0  0  0  0
   -0.6415    1.4020    2.1959 H   0  0  0  0  0  0  0  0  0  0  0  0
   -2.1731   -0.1716    0.7587 H   0  0  0  0  0  0  0  0  0  0  0  0
   -2.2375    2.2757    4.4339 H   0  0  0  0  0  0  0  0  0  0  0  0
   -1.2873   -1.3382    2.6656 H   0  0  0  0  0  0  0  0  0  0  0  0
  1  2  2  0  0  0  0
  1  7  1  0  0  0  0
  2  3  1  0  0  0  0
  2 29  1  0  0  0  0
  3  4  2  0  0  0  0
  3 30  1  0  0  0  0
  4  5  1  0  0  0  0
  4 31  1  0  0  0  0
  5  6  2  0  0  0  0
  5 14  1  0  0  0  0
  6  1  1  0  0  0  0
  6 32  1  0  0  0  0
  7  8  1  0  0  0  0
  8  9  1  0  0  0  0
  8 13  2  0  0  0  0
  9 10  1  0  0  0  0
  9 11  1  0  0  0  0
 10 33  1  0  0  0  0
 10 34  1  0  0  0  0
 10 35  1  0  0  0  0
 11 12  1  0  0  0  0
 11 36  1  0  0  0  0
 11 37  1  0  0  0  0
 12 38  1  0  0  0  0
 12 39  1  0  0  0  0
 12 40  1  0  0  0  0
 14 15  1  0  0  0  0
 14 18  1  0  0  0  0
 14 41  1  1  0  0  0
 15 16  1  0  0  0  0
 15 17  1  0  0  0  0
 16 42  1  0  0  0  0
 16 43  1  0  0  0  0
 16 44  1  0  0  0  0
 17 45  1  0  0  0  0
 17 46  1  0  0  0  0
 17 47  1  0  0  0  0
 18 48  1  0  0  0  0
 18 49  1  0  0  0  0
 18 50  1  0  0  0  0
 19 20  1  0  0  0  0
 19 51  1  0  0  0  0
 20 21  1  0  0  0  0
 20 26  2  0  0  0  0
 21 27  1  0  0  0  0
 21 52  1  1  0  0  0
 22 28  1  0  0  0  0
 22 53  1  6  0  0  0
 22 23  1  0  0  0  0
 22 21  1  0  0  0  0
 23 24  1  0  0  0  0
 23 25  2  0  0  0  0
 24 54  1  0  0  0  0
 27 55  1  0  0  0  0
 28 56  1  0  0  0  0
M  END
>  <Mol_ID>
1141

>  <Formula>
C18H28N2O8

>  <MolWeight>
400.42352

>  <Cat>
S2087

>  <Name>
Rivastigmine Tartrate

>  <Synonyms>
ENA 713

>  <Target>
AChR

>  <Form>
Tartrate

>  <CAS>
129101-54-8

>  <URL>
http://selleckchem.com/products/rivastigmine-tartrate-exelon.html

$$$$
