RK-287107
 OpenBabel08302521243D

 56 60  0  0  0  0  0  0  0  0999 V2000
    0.7392   -0.1510   -0.0877 F   0  0  0  0  0  0  0  0  0  0  0  0
    4.7252    2.3318    0.2994 F   0  0  0  0  0  0  0  0  0  0  0  0
    6.1797   -3.9213    2.3504 O   0  0  0  0  0  0  0  0  0  0  0  0
   -4.0863   -4.5776    2.1077 O   0  0  0  0  0  0  0  0  0  0  0  0
    4.7465   -2.5063    0.3231 N   0  0  0  0  0  0  0  0  0  0  0  0
    0.0363   -4.5269    0.0365 N   0  0  0  0  0  0  0  0  0  0  0  0
   -2.0725   -4.6683    1.0691 N   0  0  0  0  0  0  0  0  0  0  0  0
   -1.7735   -5.6206   -1.0254 N   0  0  0  0  0  0  0  0  0  0  0  0
    2.3172   -2.7231    0.0609 C   0  0  0  0  0  0  0  0  0  0  0  0
    1.4663   -3.0166    1.3169 C   0  0  0  0  0  0  0  0  0  0  0  0
    1.5201   -3.0556   -1.2216 C   0  0  0  0  0  0  0  0  0  0  0  0
    3.6859   -3.4953    0.1001 C   0  0  0  0  0  0  0  0  0  0  0  0
    2.8096   -1.2867    0.0802 C   0  0  0  0  0  0  0  0  0  0  0  0
    0.8152   -4.3988    1.2692 C   0  0  0  0  0  0  0  0  0  0  0  0
    0.8588   -4.4410   -1.1707 C   0  0  0  0  0  0  0  0  0  0  0  0
    4.1987   -1.2440    0.2186 C   0  0  0  0  0  0  0  0  0  0  0  0
    6.1631   -2.8204    0.1772 C   0  0  0  0  0  0  0  0  0  0  0  0
    2.0721   -0.1134    0.0172 C   0  0  0  0  0  0  0  0  0  0  0  0
    4.8527   -0.0238    0.2844 C   0  0  0  0  0  0  0  0  0  0  0  0
   -1.2741   -4.9711   -0.0115 C   0  0  0  0  0  0  0  0  0  0  0  0
    2.7156    1.1170    0.0861 C   0  0  0  0  0  0  0  0  0  0  0  0
    4.1012    1.1485    0.2187 C   0  0  0  0  0  0  0  0  0  0  0  0
    6.8188   -2.9192    1.5598 C   0  0  0  0  0  0  0  0  0  0  0  0
   -3.0879   -6.0364   -0.9466 C   0  0  0  0  0  0  0  0  0  0  0  0
   -3.9334   -5.7271    0.0423 C   0  0  0  0  0  0  0  0  0  0  0  0
   -3.6073   -6.9823   -2.0066 C   0  0  0  0  0  0  0  0  0  0  0  0
   -5.3148   -6.3048    0.0928 C   0  0  0  0  0  0  0  0  0  0  0  0
   -3.4046   -4.9410    1.1561 C   0  0  0  0  0  0  0  0  0  0  0  0
   -4.3530   -8.1706   -1.3734 C   0  0  0  0  0  0  0  0  0  0  0  0
   -5.2046   -7.8113   -0.1388 C   0  0  0  0  0  0  0  0  0  0  0  0
    5.2638   -3.6020    2.4506 H   0  0  0  0  0  0  0  0  0  0  0  0
   -1.7106   -4.0972    1.8130 H   0  0  0  0  0  0  0  0  0  0  0  0
    0.6698   -2.2663    1.4095 H   0  0  0  0  0  0  0  0  0  0  0  0
    2.0752   -2.9313    2.2259 H   0  0  0  0  0  0  0  0  0  0  0  0
    0.7273   -2.3095   -1.3660 H   0  0  0  0  0  0  0  0  0  0  0  0
    2.1655   -2.9883   -2.1064 H   0  0  0  0  0  0  0  0  0  0  0  0
    3.7103   -4.2272    0.9148 H   0  0  0  0  0  0  0  0  0  0  0  0
    3.8707   -4.0407   -0.8331 H   0  0  0  0  0  0  0  0  0  0  0  0
    0.2105   -4.5386    2.1705 H   0  0  0  0  0  0  0  0  0  0  0  0
    1.5761   -5.1879    1.2999 H   0  0  0  0  0  0  0  0  0  0  0  0
    1.6184   -5.2321   -1.1587 H   0  0  0  0  0  0  0  0  0  0  0  0
    0.2668   -4.5795   -2.0825 H   0  0  0  0  0  0  0  0  0  0  0  0
    6.2736   -3.7771   -0.3468 H   0  0  0  0  0  0  0  0  0  0  0  0
    6.6847   -2.0675   -0.4258 H   0  0  0  0  0  0  0  0  0  0  0  0
    5.9277    0.0488    0.4044 H   0  0  0  0  0  0  0  0  0  0  0  0
    2.1494    2.0398    0.0474 H   0  0  0  0  0  0  0  0  0  0  0  0
    7.8756   -3.1831    1.4643 H   0  0  0  0  0  0  0  0  0  0  0  0
    6.7474   -1.9702    2.1013 H   0  0  0  0  0  0  0  0  0  0  0  0
   -4.2941   -6.4333   -2.6674 H   0  0  0  0  0  0  0  0  0  0  0  0
   -2.7973   -7.3585   -2.6441 H   0  0  0  0  0  0  0  0  0  0  0  0
   -5.8136   -6.1135    1.0482 H   0  0  0  0  0  0  0  0  0  0  0  0
   -5.9364   -5.8463   -0.6865 H   0  0  0  0  0  0  0  0  0  0  0  0
   -4.9897   -8.6467   -2.1287 H   0  0  0  0  0  0  0  0  0  0  0  0
   -3.6216   -8.9327   -1.0719 H   0  0  0  0  0  0  0  0  0  0  0  0
   -6.2012   -8.2600   -0.2181 H   0  0  0  0  0  0  0  0  0  0  0  0
   -4.7397   -8.2654    0.7476 H   0  0  0  0  0  0  0  0  0  0  0  0
  1 18  1  0  0  0  0
  2 22  1  0  0  0  0
  3 23  1  0  0  0  0
  3 31  1  0  0  0  0
  4 28  2  0  0  0  0
  5 12  1  0  0  0  0
  5 16  1  0  0  0  0
  5 17  1  0  0  0  0
  6 14  1  0  0  0  0
  6 15  1  0  0  0  0
  6 20  1  0  0  0  0
  7 20  1  0  0  0  0
  7 28  1  0  0  0  0
  7 32  1  0  0  0  0
  8 20  2  0  0  0  0
  8 24  1  0  0  0  0
  9 10  1  0  0  0  0
  9 11  1  0  0  0  0
  9 12  1  0  0  0  0
  9 13  1  0  0  0  0
 10 14  1  0  0  0  0
 10 33  1  0  0  0  0
 10 34  1  0  0  0  0
 11 15  1  0  0  0  0
 11 35  1  0  0  0  0
 11 36  1  0  0  0  0
 12 37  1  0  0  0  0
 12 38  1  0  0  0  0
 13 16  2  0  0  0  0
 13 18  1  0  0  0  0
 14 39  1  0  0  0  0
 14 40  1  0  0  0  0
 15 41  1  0  0  0  0
 15 42  1  0  0  0  0
 16 19  1  0  0  0  0
 17 23  1  0  0  0  0
 17 43  1  0  0  0  0
 17 44  1  0  0  0  0
 18 21  2  0  0  0  0
 19 22  2  0  0  0  0
 19 45  1  0  0  0  0
 21 22  1  0  0  0  0
 21 46  1  0  0  0  0
 23 47  1  0  0  0  0
 23 48  1  0  0  0  0
 24 25  2  0  0  0  0
 24 26  1  0  0  0  0
 25 27  1  0  0  0  0
 25 28  1  0  0  0  0
 26 29  1  0  0  0  0
 26 49  1  0  0  0  0
 26 50  1  0  0  0  0
 27 30  1  0  0  0  0
 27 51  1  0  0  0  0
 27 52  1  0  0  0  0
 29 30  1  0  0  0  0
 29 53  1  0  0  0  0
 29 54  1  0  0  0  0
 30 55  1  0  0  0  0
 30 56  1  0  0  0  0
M  END
>  <Mol_ID>
4955

>  <Formula>
C22H26F2N4O2

>  <MolWeight>
416.4642464

>  <Cat>
S8876

>  <Name>
RK-287107

>  <Synonyms>
N/A

>  <Target>
PARP

>  <Form>
Free Base

>  <CAS>
2171386-10-8

>  <URL>
http://www.selleckchem.com/products/pk-287107.html

$$$$
