RK-33.cdx
 OpenBabel08302520413D

 52 56  0  0  0  0  0  0  0  0999 V2000
   -4.1186    1.7417   -4.1089 C   0  0  0  0  0  0  0  0  0  0  0  0
   -2.7788    1.6047   -3.7526 C   0  0  0  0  0  0  0  0  0  0  0  0
   -2.4306    1.3462   -2.4171 C   0  0  0  0  0  0  0  0  0  0  0  0
   -3.4182    1.2259   -1.4213 C   0  0  0  0  0  0  0  0  0  0  0  0
   -4.7577    1.3230   -1.8013 C   0  0  0  0  0  0  0  0  0  0  0  0
   -5.1002    1.5843   -3.1289 C   0  0  0  0  0  0  0  0  0  0  0  0
   -4.6086    2.0218   -5.3530 O   0  0  0  0  0  0  0  0  0  0  0  0
   -3.0603    0.8853   -0.0011 C   0  0  0  0  0  0  0  0  0  0  0  0
   -3.2961    1.9461    0.9967 N   0  0  0  0  0  0  0  0  0  0  0  0
   -4.4281    2.0650    1.8038 C   0  0  0  0  0  0  0  0  0  0  0  0
   -3.9449    1.6938    3.0402 C   0  0  0  0  0  0  0  0  0  0  0  0
   -2.5779    1.8412    3.0804 N   0  0  0  0  0  0  0  0  0  0  0  0
   -2.2551    2.2253    1.8671 C   0  0  0  0  0  0  0  0  0  0  0  0
   -5.5640    2.6549    1.3833 N   0  0  0  0  0  0  0  0  0  0  0  0
   -6.5035    3.0536    2.1921 C   0  0  0  0  0  0  0  0  0  0  0  0
   -6.8099    2.8048    3.5088 N   0  0  0  0  0  0  0  0  0  0  0  0
   -6.1157    2.0914    4.3301 C   0  0  0  0  0  0  0  0  0  0  0  0
   -4.7761    1.4922    4.1756 C   0  0  0  0  0  0  0  0  0  0  0  0
   -6.4730    1.7600    5.5895 N   0  0  0  0  0  0  0  0  0  0  0  0
   -5.4953    0.9604    6.1100 C   0  0  0  0  0  0  0  0  0  0  0  0
   -4.4473    0.8178    5.2267 N   0  0  0  0  0  0  0  0  0  0  0  0
   -5.5287    0.4605    7.2287 O   0  0  0  0  0  0  0  0  0  0  0  0
   -7.5794    2.2691    6.3756 C   0  0  0  0  0  0  0  0  0  0  0  0
   -8.8899    1.5410    6.1863 C   0  0  0  0  0  0  0  0  0  0  0  0
   -9.2068    0.4043    6.9461 C   0  0  0  0  0  0  0  0  0  0  0  0
  -10.4589   -0.2232    6.8166 C   0  0  0  0  0  0  0  0  0  0  0  0
  -11.3998    0.2718    5.9167 C   0  0  0  0  0  0  0  0  0  0  0  0
  -11.0870    1.4037    5.1612 C   0  0  0  0  0  0  0  0  0  0  0  0
   -9.8451    2.0337    5.2904 C   0  0  0  0  0  0  0  0  0  0  0  0
  -12.6432   -0.2400    5.6863 O   0  0  0  0  0  0  0  0  0  0  0  0
  -12.9960   -1.4361    6.3766 C   0  0  0  0  0  0  0  0  0  0  0  0
   -3.6714    2.2312   -6.3997 C   0  0  0  0  0  0  0  0  0  0  0  0
   -1.9828    1.6884   -4.4865 H   0  0  0  0  0  0  0  0  0  0  0  0
   -1.3766    1.2239   -2.1713 H   0  0  0  0  0  0  0  0  0  0  0  0
   -5.5492    1.1860   -1.0678 H   0  0  0  0  0  0  0  0  0  0  0  0
   -6.1488    1.6656   -3.4030 H   0  0  0  0  0  0  0  0  0  0  0  0
   -3.5976   -0.0132    0.3284 H   0  0  0  0  0  0  0  0  0  0  0  0
   -1.9906    0.6354    0.0506 H   0  0  0  0  0  0  0  0  0  0  0  0
   -1.2910    2.5666    1.5157 H   0  0  0  0  0  0  0  0  0  0  0  0
   -7.2460    3.7234    1.7204 H   0  0  0  0  0  0  0  0  0  0  0  0
   -7.3101    2.2433    7.4378 H   0  0  0  0  0  0  0  0  0  0  0  0
   -7.7136    3.3265    6.1205 H   0  0  0  0  0  0  0  0  0  0  0  0
   -8.4911    0.0066    7.6652 H   0  0  0  0  0  0  0  0  0  0  0  0
  -10.6641   -1.0842    7.4436 H   0  0  0  0  0  0  0  0  0  0  0  0
  -11.8267    1.8071    4.4736 H   0  0  0  0  0  0  0  0  0  0  0  0
   -9.6441    2.9244    4.6989 H   0  0  0  0  0  0  0  0  0  0  0  0
  -12.2672   -2.2330    6.1975 H   0  0  0  0  0  0  0  0  0  0  0  0
  -13.1210   -1.2457    7.4473 H   0  0  0  0  0  0  0  0  0  0  0  0
  -13.9591   -1.7796    5.9832 H   0  0  0  0  0  0  0  0  0  0  0  0
   -2.9482    3.0143   -6.1497 H   0  0  0  0  0  0  0  0  0  0  0  0
   -3.1686    1.2948   -6.6607 H   0  0  0  0  0  0  0  0  0  0  0  0
   -4.2294    2.5691   -7.2788 H   0  0  0  0  0  0  0  0  0  0  0  0
  1  2  2  0  0  0  0
  1  7  1  0  0  0  0
  2  3  1  0  0  0  0
  2 33  1  0  0  0  0
  3  4  2  0  0  0  0
  3 34  1  0  0  0  0
  4  5  1  0  0  0  0
  4  8  1  0  0  0  0
  5  6  2  0  0  0  0
  5 35  1  0  0  0  0
  6  1  1  0  0  0  0
  6 36  1  0  0  0  0
  7 32  1  0  0  0  0
  8  9  1  0  0  0  0
  8 37  1  0  0  0  0
  8 38  1  0  0  0  0
  9 10  1  0  0  0  0
 10 11  2  0  0  0  0
 10 14  1  0  0  0  0
 11 12  1  0  0  0  0
 12 13  2  0  0  0  0
 13  9  1  0  0  0  0
 13 39  1  0  0  0  0
 14 15  2  0  0  0  0
 15 16  1  0  0  0  0
 15 40  1  0  0  0  0
 16 17  2  0  0  0  0
 17 18  1  0  0  0  0
 17 19  1  0  0  0  0
 18 11  1  0  0  0  0
 19 20  1  0  0  0  0
 19 23  1  0  0  0  0
 20 21  1  0  0  0  0
 20 22  2  0  0  0  0
 21 18  2  0  0  0  0
 23 24  1  0  0  0  0
 23 41  1  0  0  0  0
 23 42  1  0  0  0  0
 24 25  2  0  0  0  0
 25 26  1  0  0  0  0
 25 43  1  0  0  0  0
 26 27  2  0  0  0  0
 26 44  1  0  0  0  0
 27 28  1  0  0  0  0
 27 30  1  0  0  0  0
 28 29  2  0  0  0  0
 28 45  1  0  0  0  0
 29 24  1  0  0  0  0
 29 46  1  0  0  0  0
 30 31  1  0  0  0  0
 31 47  1  0  0  0  0
 31 48  1  0  0  0  0
 31 49  1  0  0  0  0
 32 50  1  0  0  0  0
 32 51  1  0  0  0  0
 32 52  1  0  0  0  0
M  END
>  <Mol_ID>
3959

>  <Formula>
C23H20N6O3

>  <MolWeight>
428.4433

>  <Cat>
S8246

>  <Name>
RK-33

>  <Synonyms>
N/A

>  <Target>
Apoptosis related,DNA/RNA Synthesis

>  <Form>
free base

>  <CAS>
1070773-09-9

>  <URL>
http://selleckchem.com/products/rk-33.html

$$$$
