RKI-1447.cdx
 OpenBabel08302519513D

 37 39  0  0  0  0  0  0  0  0999 V2000
   -0.6135   -0.2290   -0.8295 C   0  0  0  0  0  0  0  0  0  0  0  0
   -1.1597    0.9831   -0.6143 N   0  0  0  0  0  0  0  0  0  0  0  0
   -0.3289    1.9582   -0.1873 C   0  0  0  0  0  0  0  0  0  0  0  0
    1.0321    1.7774    0.0265 C   0  0  0  0  0  0  0  0  0  0  0  0
    1.5824    0.5222   -0.2235 C   0  0  0  0  0  0  0  0  0  0  0  0
    0.7318   -0.5063   -0.6487 C   0  0  0  0  0  0  0  0  0  0  0  0
    3.0187    0.3000   -0.0827 C   0  0  0  0  0  0  0  0  0  0  0  0
    3.8137    1.0085    0.8186 N   0  0  0  0  0  0  0  0  0  0  0  0
    5.0730    0.6449    0.6832 C   0  0  0  0  0  0  0  0  0  0  0  0
    5.3654   -0.5878   -0.4623 S   0  0  0  0  0  0  0  0  0  0  0  0
    3.7116   -0.5964   -0.8740 C   0  0  0  0  0  0  0  0  0  0  0  0
    6.0944    1.1796    1.4416 N   0  0  0  0  0  0  0  0  0  0  0  0
    7.4359    1.0704    1.1569 C   0  0  0  0  0  0  0  0  0  0  0  0
    8.2292    1.6802    2.1024 N   0  0  0  0  0  0  0  0  0  0  0  0
    7.9311    0.5179    0.1843 O   0  0  0  0  0  0  0  0  0  0  0  0
    9.6762    1.6144    2.0178 C   0  0  0  0  0  0  0  0  0  0  0  0
   10.2952    2.9833    1.9335 C   0  0  0  0  0  0  0  0  0  0  0  0
   10.4440    3.6191    0.6911 C   0  0  0  0  0  0  0  0  0  0  0  0
   11.0481    4.8760    0.6021 C   0  0  0  0  0  0  0  0  0  0  0  0
   11.5002    5.5176    1.7544 C   0  0  0  0  0  0  0  0  0  0  0  0
   11.3382    4.8952    2.9882 C   0  0  0  0  0  0  0  0  0  0  0  0
   10.7423    3.6408    3.0865 C   0  0  0  0  0  0  0  0  0  0  0  0
   11.7610    5.4868    4.1424 O   0  0  0  0  0  0  0  0  0  0  0  0
   -1.3017   -0.9981   -1.1689 H   0  0  0  0  0  0  0  0  0  0  0  0
   -0.7976    2.9228   -0.0242 H   0  0  0  0  0  0  0  0  0  0  0  0
    1.6453    2.6101    0.3571 H   0  0  0  0  0  0  0  0  0  0  0  0
    1.0927   -1.5108   -0.8391 H   0  0  0  0  0  0  0  0  0  0  0  0
    3.3477   -1.2374   -1.6622 H   0  0  0  0  0  0  0  0  0  0  0  0
    5.7888    1.8510    2.1274 H   0  0  0  0  0  0  0  0  0  0  0  0
    7.8243    2.0593    2.9445 H   0  0  0  0  0  0  0  0  0  0  0  0
   10.0313    1.0901    2.9119 H   0  0  0  0  0  0  0  0  0  0  0  0
   10.0011    1.0135    1.1606 H   0  0  0  0  0  0  0  0  0  0  0  0
   10.0983    3.1269   -0.2179 H   0  0  0  0  0  0  0  0  0  0  0  0
   11.1698    5.3507   -0.3687 H   0  0  0  0  0  0  0  0  0  0  0  0
   11.9720    6.4914    1.6709 H   0  0  0  0  0  0  0  0  0  0  0  0
   10.6435    3.1765    4.0640 H   0  0  0  0  0  0  0  0  0  0  0  0
   12.1476    6.3503    3.9217 H   0  0  0  0  0  0  0  0  0  0  0  0
  1  2  2  0  0  0  0
  1 24  1  0  0  0  0
  2  3  1  0  0  0  0
  3  4  2  0  0  0  0
  3 25  1  0  0  0  0
  4  5  1  0  0  0  0
  4 26  1  0  0  0  0
  5  6  2  0  0  0  0
  5  7  1  0  0  0  0
  6  1  1  0  0  0  0
  6 27  1  0  0  0  0
  7  8  1  0  0  0  0
  8  9  2  0  0  0  0
  9 10  1  0  0  0  0
  9 12  1  0  0  0  0
 10 11  1  0  0  0  0
 11  7  2  0  0  0  0
 11 28  1  0  0  0  0
 12 13  1  0  0  0  0
 12 29  1  0  0  0  0
 13 14  1  0  0  0  0
 13 15  2  0  0  0  0
 14 16  1  0  0  0  0
 14 30  1  0  0  0  0
 16 17  1  0  0  0  0
 16 31  1  0  0  0  0
 16 32  1  0  0  0  0
 17 18  2  0  0  0  0
 18 19  1  0  0  0  0
 18 33  1  0  0  0  0
 19 20  2  0  0  0  0
 19 34  1  0  0  0  0
 20 21  1  0  0  0  0
 20 35  1  0  0  0  0
 21 22  2  0  0  0  0
 21 23  1  0  0  0  0
 22 17  1  0  0  0  0
 22 36  1  0  0  0  0
 23 37  1  0  0  0  0
M  END
>  <Mol_ID>
1895

>  <Formula>
C16H14N4O2S

>  <MolWeight>
326.37296

>  <Cat>
S7195

>  <Name>
RKI-1447

>  <Synonyms>
N/A

>  <Target>
ROCK

>  <Form>
free base

>  <CAS>
1342278-01-6

>  <URL>
http://selleckchem.com/products/rki-1447.html

$$$$
