RMC-4550
 OpenBabel08302521353D

 55 58  0  0  0  0  0  0  0  0999 V2000
    1.4020   -0.2611    0.4467 C   0  0  0  0  0  0  0  0  0  0  0  0
    0.5526   -1.3499    0.6165 C   0  0  0  0  0  0  0  0  0  0  0  0
   -0.8318   -1.1976    0.4669 C   0  0  0  0  0  0  0  0  0  0  0  0
   -1.4024    0.0337    0.1035 C   0  0  0  0  0  0  0  0  0  0  0  0
   -0.5129    1.1208   -0.0464 C   0  0  0  0  0  0  0  0  0  0  0  0
    0.8673    0.9808    0.1290 C   0  0  0  0  0  0  0  0  0  0  0  0
   -2.8596    0.2443   -0.0795 C   0  0  0  0  0  0  0  0  0  0  0  0
   -3.2803    1.4640    0.3444 N   0  0  0  0  0  0  0  0  0  0  0  0
   -4.5958    1.7931    0.1613 C   0  0  0  0  0  0  0  0  0  0  0  0
   -5.5283    0.9074   -0.4166 C   0  0  0  0  0  0  0  0  0  0  0  0
   -5.0975   -0.3011   -0.8419 N   0  0  0  0  0  0  0  0  0  0  0  0
   -3.7773   -0.6313   -0.6750 C   0  0  0  0  0  0  0  0  0  0  0  0
   -4.9493    3.1986    0.5764 C   0  0  0  0  0  0  0  0  0  0  0  0
   -3.7917    4.0333    0.6951 O   0  0  0  0  0  0  0  0  0  0  0  0
   -3.4106   -1.9835   -1.2056 C   0  0  0  0  0  0  0  0  0  0  0  0
   -6.8473    1.2471   -0.6466 N   0  0  0  0  0  0  0  0  0  0  0  0
   -7.5866    0.6487   -1.7495 C   0  0  0  0  0  0  0  0  0  0  0  0
   -8.4289    1.7697   -2.3845 C   0  0  0  0  0  0  0  0  0  0  0  0
   -9.2923    2.5859   -1.3744 C   0  0  0  0  0  0  0  0  0  0  0  0
   -8.4600    2.9197   -0.1037 C   0  0  0  0  0  0  0  0  0  0  0  0
   -7.6970    1.7128    0.4373 C   0  0  0  0  0  0  0  0  0  0  0  0
  -10.5481    1.8001   -0.9544 C   0  0  0  0  0  0  0  0  0  0  0  0
  -11.6339    2.7350   -0.9534 O   0  0  0  0  0  0  0  0  0  0  0  0
  -11.3979    3.6086   -2.0625 C   0  0  2  0  0  0  0  0  0  0  0  0
   -9.8767    3.8575   -2.0703 C   0  0  1  0  0  0  0  0  0  0  0  0
   -9.4588    5.1178   -1.4375 N   0  0  0  0  0  0  0  0  0  0  0  0
  -12.2892    4.8345   -1.9496 C   0  0  0  0  0  0  0  0  0  0  0  0
    2.4739   -0.3780    0.5773 H   0  0  0  0  0  0  0  0  0  0  0  0
    0.9637   -2.3210    0.8805 H   0  0  0  0  0  0  0  0  0  0  0  0
   -1.4513   -2.0640    0.6715 H   0  0  0  0  0  0  0  0  0  0  0  0
   -0.9009    2.1076   -0.2973 H   0  0  0  0  0  0  0  0  0  0  0  0
    1.5181    1.8443    0.0190 H   0  0  0  0  0  0  0  0  0  0  0  0
   -5.6041    3.6766   -0.1553 H   0  0  0  0  0  0  0  0  0  0  0  0
   -5.4237    3.1848    1.5596 H   0  0  0  0  0  0  0  0  0  0  0  0
   -3.0435    3.4079    0.6718 H   0  0  0  0  0  0  0  0  0  0  0  0
   -2.5687   -1.9194   -1.9035 H   0  0  0  0  0  0  0  0  0  0  0  0
   -3.1698   -2.6678   -0.3876 H   0  0  0  0  0  0  0  0  0  0  0  0
   -4.2514   -2.4304   -1.7459 H   0  0  0  0  0  0  0  0  0  0  0  0
   -6.9314    0.2295   -2.5228 H   0  0  0  0  0  0  0  0  0  0  0  0
   -8.2321   -0.1631   -1.3901 H   0  0  0  0  0  0  0  0  0  0  0  0
   -7.7350    2.4587   -2.8857 H   0  0  0  0  0  0  0  0  0  0  0  0
   -9.0628    1.3454   -3.1744 H   0  0  0  0  0  0  0  0  0  0  0  0
   -7.7273    3.6945   -0.3547 H   0  0  0  0  0  0  0  0  0  0  0  0
   -9.0993    3.3281    0.6890 H   0  0  0  0  0  0  0  0  0  0  0  0
   -8.3818    0.9160    0.7491 H   0  0  0  0  0  0  0  0  0  0  0  0
   -7.1457    1.9887    1.3387 H   0  0  0  0  0  0  0  0  0  0  0  0
  -10.7967    0.9993   -1.6593 H   0  0  0  0  0  0  0  0  0  0  0  0
  -10.4844    1.3568    0.0432 H   0  0  0  0  0  0  0  0  0  0  0  0
  -11.6726    3.0653   -2.9765 H   0  0  0  0  0  0  0  0  0  0  0  0
   -9.5453    3.9233   -3.1136 H   0  0  0  0  0  0  0  0  0  0  0  0
   -9.8266    5.9121   -1.9594 H   0  0  0  0  0  0  0  0  0  0  0  0
   -9.8769    5.1824   -0.5079 H   0  0  0  0  0  0  0  0  0  0  0  0
  -12.0616    5.5700   -2.7270 H   0  0  0  0  0  0  0  0  0  0  0  0
  -13.3402    4.5441   -2.0469 H   0  0  0  0  0  0  0  0  0  0  0  0
  -12.1954    5.3083   -0.9660 H   0  0  0  0  0  0  0  0  0  0  0  0
  1  2  2  0  0  0  0
  1 28  1  0  0  0  0
  2  3  1  0  0  0  0
  2 29  1  0  0  0  0
  3  4  2  0  0  0  0
  3 30  1  0  0  0  0
  4  5  1  0  0  0  0
  4  7  1  0  0  0  0
  5  6  2  0  0  0  0
  5 31  1  0  0  0  0
  6  1  1  0  0  0  0
  6 32  1  0  0  0  0
  7  8  2  0  0  0  0
  8  9  1  0  0  0  0
  9 10  2  0  0  0  0
  9 13  1  0  0  0  0
 10 11  1  0  0  0  0
 10 16  1  0  0  0  0
 11 12  2  0  0  0  0
 12  7  1  0  0  0  0
 12 15  1  0  0  0  0
 13 14  1  0  0  0  0
 13 33  1  0  0  0  0
 13 34  1  0  0  0  0
 14 35  1  0  0  0  0
 15 36  1  0  0  0  0
 15 37  1  0  0  0  0
 15 38  1  0  0  0  0
 16 17  1  0  0  0  0
 17 18  1  0  0  0  0
 17 39  1  0  0  0  0
 17 40  1  0  0  0  0
 18 19  1  0  0  0  0
 18 41  1  0  0  0  0
 18 42  1  0  0  0  0
 19 20  1  0  0  0  0
 19 22  1  0  0  0  0
 20 21  1  0  0  0  0
 20 43  1  0  0  0  0
 20 44  1  0  0  0  0
 21 16  1  0  0  0  0
 21 45  1  0  0  0  0
 21 46  1  0  0  0  0
 22 23  1  0  0  0  0
 22 47  1  0  0  0  0
 22 48  1  0  0  0  0
 23 24  1  0  0  0  0
 24 25  1  0  0  0  0
 24 49  1  6  0  0  0
 24 27  1  0  0  0  0
 25 19  1  0  0  0  0
 25 26  1  0  0  0  0
 25 50  1  6  0  0  0
 26 51  1  0  0  0  0
 26 52  1  0  0  0  0
 27 53  1  0  0  0  0
 27 54  1  0  0  0  0
 27 55  1  0  0  0  0
M  END
>  <Mol_ID>
6729

>  <Formula>
C21H26Cl2N4O2

>  <MolWeight>
437.36274

>  <Cat>
S8718

>  <Name>
RMC-4550

>  <Synonyms>
N/A

>  <Target>
phosphatase

>  <Form>
Free base

>  <CAS>
2172651-73-7

>  <URL>
http://www.selleckchem.com/products/rmc-4550.html

$$$$
