RMC-4630
 OpenBabel08302521383D

 57 60  0  0  1  0  0  0  0  0999 V2000
    3.0770   -0.4761   -1.5191 N   0  0  0  0  0  0  0  0  0  0  0  0
    3.1733    2.3923   -1.2245 C   0  0  0  0  0  0  0  0  0  0  0  0
    0.8217   -3.0879    4.7724 C   0  0  0  0  0  0  0  0  0  0  0  0
    2.2040   -2.7464    4.8475 O   0  0  0  0  0  0  0  0  0  0  0  0
   -0.2388   -7.3242    1.1055 C   0  0  0  0  0  0  0  0  0  0  0  0
   -1.0767   -7.7208    4.1602 S   0  0  0  0  0  0  0  0  0  0  0  0
   -5.2315   -4.5451    4.5245 N   0  0  0  0  0  0  0  0  0  0  0  0
    3.0440   -0.6702    1.0139 C   0  0  0  0  0  0  0  0  0  0  0  0
    3.4696   -2.1537    0.8282 C   0  0  0  0  0  0  0  0  0  0  0  0
    1.9538   -0.5940    2.1298 C   0  0  0  0  0  0  0  0  0  0  0  0
    2.5421    0.0560   -0.2612 C   0  0  1  0  0  0  0  0  0  0  0  0
    4.2667    0.1691    1.4421 C   0  0  0  0  0  0  0  0  0  0  0  0
    2.2824   -3.1085    0.6635 C   0  0  0  0  0  0  0  0  0  0  0  0
    0.8266   -1.6083    1.9066 C   0  0  0  0  0  0  0  0  0  0  0  0
    3.0496    1.4917   -0.0064 C   0  0  1  0  0  0  0  0  0  0  0  0
    4.3383    1.3262    0.6007 O   0  0  0  0  0  0  0  0  0  0  0  0
    1.4551   -2.9240    1.8515 N   0  0  0  0  0  0  0  0  0  0  0  0
    0.7908   -4.0189    2.3729 C   0  0  0  0  0  0  0  0  0  0  0  0
    0.4735   -4.1379    3.7383 C   0  0  0  0  0  0  0  0  0  0  0  0
    0.5460   -5.0649    1.5411 N   0  0  0  0  0  0  0  0  0  0  0  0
   -0.1077   -5.2577    4.2572 N   0  0  0  0  0  0  0  0  0  0  0  0
   -0.0284   -6.1877    2.0610 C   0  0  0  0  0  0  0  0  0  0  0  0
   -0.3623   -6.2787    3.4103 C   0  0  0  0  0  0  0  0  0  0  0  0
   -2.8085   -7.3149    4.3358 C   0  0  0  0  0  0  0  0  0  0  0  0
   -3.3229   -6.0159    4.3615 C   0  0  0  0  0  0  0  0  0  0  0  0
   -3.6980   -8.3768    4.4885 C   0  0  0  0  0  0  0  0  0  0  0  0
   -4.6874   -5.8277    4.5278 C   0  0  0  0  0  0  0  0  0  0  0  0
   -5.0436   -8.0934    4.6399 C   0  0  0  0  0  0  0  0  0  0  0  0
   -5.5524   -6.8442    4.6530 N   0  0  0  0  0  0  0  0  0  0  0  0
    2.8666   -1.4634   -1.6290 H   0  0  0  0  0  0  0  0  0  0  0  0
    4.0925   -0.3729   -1.5274 H   0  0  0  0  0  0  0  0  0  0  0  0
    2.2138    2.4983   -1.7378 H   0  0  0  0  0  0  0  0  0  0  0  0
    3.5207    3.3861   -0.9224 H   0  0  0  0  0  0  0  0  0  0  0  0
    3.9204    2.0179   -1.9319 H   0  0  0  0  0  0  0  0  0  0  0  0
    0.2351   -2.1781    4.6252 H   0  0  0  0  0  0  0  0  0  0  0  0
    0.5452   -3.4602    5.7650 H   0  0  0  0  0  0  0  0  0  0  0  0
    2.6953   -3.4180    4.3437 H   0  0  0  0  0  0  0  0  0  0  0  0
    0.4219   -8.1604    1.3571 H   0  0  0  0  0  0  0  0  0  0  0  0
   -1.2791   -7.6631    1.1238 H   0  0  0  0  0  0  0  0  0  0  0  0
   -0.0121   -7.0153    0.0799 H   0  0  0  0  0  0  0  0  0  0  0  0
   -6.2278   -4.6519    4.7017 H   0  0  0  0  0  0  0  0  0  0  0  0
   -4.7862   -3.9618    5.2233 H   0  0  0  0  0  0  0  0  0  0  0  0
    4.0274   -2.4690    1.7225 H   0  0  0  0  0  0  0  0  0  0  0  0
    4.1685   -2.2723   -0.0073 H   0  0  0  0  0  0  0  0  0  0  0  0
    2.4229   -0.8084    3.0989 H   0  0  0  0  0  0  0  0  0  0  0  0
    1.5307    0.4133    2.2093 H   0  0  0  0  0  0  0  0  0  0  0  0
    1.4509    0.0615   -0.3459 H   0  0  0  0  0  0  0  0  0  0  0  0
    4.1879    0.5208    2.4771 H   0  0  0  0  0  0  0  0  0  0  0  0
    5.2139   -0.3716    1.3513 H   0  0  0  0  0  0  0  0  0  0  0  0
    2.6752   -4.1285    0.5768 H   0  0  0  0  0  0  0  0  0  0  0  0
    1.7155   -2.8921   -0.2509 H   0  0  0  0  0  0  0  0  0  0  0  0
    0.2925   -1.4019    0.9708 H   0  0  0  0  0  0  0  0  0  0  0  0
    0.0784   -1.5138    2.6957 H   0  0  0  0  0  0  0  0  0  0  0  0
    2.4054    1.9925    0.7274 H   0  0  0  0  0  0  0  0  0  0  0  0
   -2.6843   -5.1481    4.2556 H   0  0  0  0  0  0  0  0  0  0  0  0
   -3.3600   -9.4070    4.4937 H   0  0  0  0  0  0  0  0  0  0  0  0
   -5.7708   -8.8917    4.7609 H   0  0  0  0  0  0  0  0  0  0  0  0
  1 30  1  0  0  0  0
  1 31  1  0  0  0  0
  2 32  1  0  0  0  0
  2 33  1  0  0  0  0
  2 34  1  0  0  0  0
  3  4  1  0  0  0  0
  3 19  1  0  0  0  0
  3 35  1  0  0  0  0
  3 36  1  0  0  0  0
  4 37  1  0  0  0  0
  5 22  1  0  0  0  0
  5 38  1  0  0  0  0
  5 39  1  0  0  0  0
  5 40  1  0  0  0  0
  6 23  1  0  0  0  0
  6 24  1  0  0  0  0
  7 27  1  0  0  0  0
  7 41  1  0  0  0  0
  7 42  1  0  0  0  0
  8  9  1  0  0  0  0
  8 10  1  0  0  0  0
  8 11  1  0  0  0  0
  8 12  1  0  0  0  0
  9 13  1  0  0  0  0
  9 43  1  0  0  0  0
  9 44  1  0  0  0  0
 10 14  1  0  0  0  0
 10 45  1  0  0  0  0
 10 46  1  0  0  0  0
 11 15  1  0  0  0  0
 11 47  1  6  0  0  0
 11  1  1  0  0  0  0
 12 16  1  0  0  0  0
 12 48  1  0  0  0  0
 12 49  1  0  0  0  0
 13 17  1  0  0  0  0
 13 50  1  0  0  0  0
 13 51  1  0  0  0  0
 14 17  1  0  0  0  0
 14 52  1  0  0  0  0
 14 53  1  0  0  0  0
 15  2  1  0  0  0  0
 15 16  1  0  0  0  0
 15 54  1  1  0  0  0
 17 18  1  0  0  0  0
 18 19  2  0  0  0  0
 18 20  1  0  0  0  0
 19 21  1  0  0  0  0
 20 22  2  0  0  0  0
 21 23  2  0  0  0  0
 22 23  1  0  0  0  0
 24 25  2  0  0  0  0
 24 26  1  0  0  0  0
 25 27  1  0  0  0  0
 25 55  1  0  0  0  0
 26 28  2  0  0  0  0
 26 56  1  0  0  0  0
 27 29  2  0  0  0  0
 28 29  1  0  0  0  0
 28 57  1  0  0  0  0
M  END
>  <Mol_ID>
7690

>  <Formula>
C20H27ClN6O2S

>  <MolWeight>
450.98538

>  <Cat>
S9969

>  <Name>
RMC-4630

>  <Synonyms>
SSE15206

>  <Target>
Microtubule Associated

>  <Form>
Chloride

>  <CAS>
2172652-48-9

>  <URL>
https://www.selleckchem.com/products/rmc-4630.html

$$$$
