RO1138452
 OpenBabel08302521243D

 46 48  0  0  0  0  0  0  0  0999 V2000
    1.3337    0.0002   -0.7410 C   0  0  0  0  0  0  0  0  0  0  0  0
    0.7332   -1.1572   -0.2462 C   0  0  0  0  0  0  0  0  0  0  0  0
   -0.5240   -1.0615    0.3567 C   0  0  0  0  0  0  0  0  0  0  0  0
   -1.1465    0.1809    0.5147 C   0  0  0  0  0  0  0  0  0  0  0  0
   -0.5186    1.3477    0.0567 C   0  0  0  0  0  0  0  0  0  0  0  0
    0.7149    1.2384   -0.5925 C   0  0  0  0  0  0  0  0  0  0  0  0
    1.2731   -2.4152   -0.2913 O   0  0  0  0  0  0  0  0  0  0  0  0
    2.6246   -2.5440   -0.7534 C   0  0  0  0  0  0  0  0  0  0  0  0
    3.2279   -3.7897   -0.1104 C   0  0  0  0  0  0  0  0  0  0  0  0
    2.6363   -2.6775   -2.2738 C   0  0  0  0  0  0  0  0  0  0  0  0
   -1.0926    2.7149    0.3339 C   0  0  0  0  0  0  0  0  0  0  0  0
   -0.5280    3.3219    1.5981 C   0  0  0  0  0  0  0  0  0  0  0  0
    0.6832    4.0267    1.5916 C   0  0  0  0  0  0  0  0  0  0  0  0
    1.2120    4.5488    2.7790 C   0  0  0  0  0  0  0  0  0  0  0  0
    0.5355    4.3980    3.9966 C   0  0  0  0  0  0  0  0  0  0  0  0
   -0.6491    3.6525    3.9957 C   0  0  0  0  0  0  0  0  0  0  0  0
   -1.1797    3.1260    2.8168 C   0  0  0  0  0  0  0  0  0  0  0  0
    1.0811    4.9503    5.1725 N   0  0  0  0  0  0  0  0  0  0  0  0
    0.3703    5.3194    6.2744 C   0  0  0  0  0  0  0  0  0  0  0  0
   -0.9170    5.2975    6.4735 N   0  0  0  0  0  0  0  0  0  0  0  0
   -1.0986    5.8292    7.8427 C   0  0  0  0  0  0  0  0  0  0  0  0
    0.2837    5.7738    8.4891 C   0  0  0  0  0  0  0  0  0  0  0  0
    1.1441    5.7443    7.3207 N   0  0  0  0  0  0  0  0  0  0  0  0
    2.2954   -0.0129   -1.2391 H   0  0  0  0  0  0  0  0  0  0  0  0
   -1.0138   -1.9586    0.7287 H   0  0  0  0  0  0  0  0  0  0  0  0
   -2.1079    0.2344    1.0199 H   0  0  0  0  0  0  0  0  0  0  0  0
    1.2206    2.1265   -0.9623 H   0  0  0  0  0  0  0  0  0  0  0  0
    3.2443   -1.7019   -0.4239 H   0  0  0  0  0  0  0  0  0  0  0  0
    2.6491   -4.6863   -0.3539 H   0  0  0  0  0  0  0  0  0  0  0  0
    4.2619   -3.9360   -0.4402 H   0  0  0  0  0  0  0  0  0  0  0  0
    3.2258   -3.6937    0.9809 H   0  0  0  0  0  0  0  0  0  0  0  0
    2.2278   -1.7842   -2.7564 H   0  0  0  0  0  0  0  0  0  0  0  0
    3.6521   -2.8303   -2.6493 H   0  0  0  0  0  0  0  0  0  0  0  0
    2.0074   -3.5143   -2.5962 H   0  0  0  0  0  0  0  0  0  0  0  0
   -0.8924    3.3820   -0.5156 H   0  0  0  0  0  0  0  0  0  0  0  0
   -2.1874    2.6608    0.3979 H   0  0  0  0  0  0  0  0  0  0  0  0
    1.2309    4.1693    0.6633 H   0  0  0  0  0  0  0  0  0  0  0  0
    2.1552    5.0867    2.7360 H   0  0  0  0  0  0  0  0  0  0  0  0
   -1.1835    3.4628    4.9227 H   0  0  0  0  0  0  0  0  0  0  0  0
   -2.1036    2.5560    2.8674 H   0  0  0  0  0  0  0  0  0  0  0  0
    1.9215    5.4890    5.0260 H   0  0  0  0  0  0  0  0  0  0  0  0
   -1.8282    5.2313    8.3968 H   0  0  0  0  0  0  0  0  0  0  0  0
   -1.4677    6.8588    7.7761 H   0  0  0  0  0  0  0  0  0  0  0  0
    0.4800    6.6317    9.1369 H   0  0  0  0  0  0  0  0  0  0  0  0
    0.4020    4.8479    9.0632 H   0  0  0  0  0  0  0  0  0  0  0  0
    1.9993    5.2161    7.4420 H   0  0  0  0  0  0  0  0  0  0  0  0
  1  2  2  0  0  0  0
  1 24  1  0  0  0  0
  2  3  1  0  0  0  0
  2  7  1  0  0  0  0
  3  4  2  0  0  0  0
  3 25  1  0  0  0  0
  4  5  1  0  0  0  0
  4 26  1  0  0  0  0
  5  6  2  0  0  0  0
  5 11  1  0  0  0  0
  6  1  1  0  0  0  0
  6 27  1  0  0  0  0
  7  8  1  0  0  0  0
  8  9  1  0  0  0  0
  8 10  1  0  0  0  0
  8 28  1  0  0  0  0
  9 29  1  0  0  0  0
  9 30  1  0  0  0  0
  9 31  1  0  0  0  0
 10 32  1  0  0  0  0
 10 33  1  0  0  0  0
 10 34  1  0  0  0  0
 11 12  1  0  0  0  0
 11 35  1  0  0  0  0
 11 36  1  0  0  0  0
 12 13  2  0  0  0  0
 13 14  1  0  0  0  0
 13 37  1  0  0  0  0
 14 15  2  0  0  0  0
 14 38  1  0  0  0  0
 15 16  1  0  0  0  0
 15 18  1  0  0  0  0
 16 17  2  0  0  0  0
 16 39  1  0  0  0  0
 17 12  1  0  0  0  0
 17 40  1  0  0  0  0
 18 19  1  0  0  0  0
 18 41  1  0  0  0  0
 19 20  2  0  0  0  0
 20 21  1  0  0  0  0
 21 22  1  0  0  0  0
 21 42  1  0  0  0  0
 21 43  1  0  0  0  0
 22 23  1  0  0  0  0
 22 44  1  0  0  0  0
 22 45  1  0  0  0  0
 23 19  1  0  0  0  0
 23 46  1  0  0  0  0
M  END
>  <Mol_ID>
5062

>  <Formula>
C19H23N3O

>  <MolWeight>
309.40542

>  <Cat>
S0305

>  <Name>
RO1138452

>  <Synonyms>
CAY10441

>  <Target>
Prostaglandin Receptor

>  <Form>
free base

>  <CAS>
221529-58-4

>  <URL>
https://www.selleckchem.com/products/ro1138452-cay10441.html

$$$$
