RO495
 OpenBabel08302521273D

 40 42  0  0  0  0  0  0  0  0999 V2000
    2.4683   -1.4969   -0.5004 O   0  0  0  0  0  0  0  0  0  0  0  0
    2.9794    0.7392   -0.9639 N   0  0  0  0  0  0  0  0  0  0  0  0
    7.2438   -1.5684   -0.5379 N   0  0  0  0  0  0  0  0  0  0  0  0
    7.1956    0.7551   -0.9719 N   0  0  0  0  0  0  0  0  0  0  0  0
    5.8119   -2.3781    1.1842 N   0  0  0  0  0  0  0  0  0  0  0  0
    5.7002   -4.6721    1.7062 N   0  0  0  0  0  0  0  0  0  0  0  0
    4.2434   -3.1507    2.6999 N   0  0  0  0  0  0  0  0  0  0  0  0
    4.3897    0.7104   -1.0453 C   0  0  0  0  0  0  0  0  0  0  0  0
    6.5161   -0.3969   -0.8065 C   0  0  0  0  0  0  0  0  0  0  0  0
    5.1278   -0.4527   -0.9138 C   0  0  0  0  0  0  0  0  0  0  0  0
    0.7139    0.0268   -0.4284 C   0  0  0  0  0  0  0  0  0  0  0  0
    6.7854   -2.6159    0.2877 C   0  0  0  0  0  0  0  0  0  0  0  0
    2.1420   -0.3273   -0.6575 C   0  0  0  0  0  0  0  0  0  0  0  0
    5.0778    1.9083   -1.2042 C   0  0  0  0  0  0  0  0  0  0  0  0
    7.2880   -3.8851    0.0970 C   0  0  0  0  0  0  0  0  0  0  0  0
    6.6981   -4.8976    0.8281 C   0  0  0  0  0  0  0  0  0  0  0  0
    6.4632    1.8748   -1.1766 C   0  0  0  0  0  0  0  0  0  0  0  0
   -0.0358   -0.7721    0.4476 C   0  0  0  0  0  0  0  0  0  0  0  0
    0.1123    1.1378   -1.0348 C   0  0  0  0  0  0  0  0  0  0  0  0
   -1.3524   -0.4314    0.7583 C   0  0  0  0  0  0  0  0  0  0  0  0
   -1.2011    1.4805   -0.7126 C   0  0  0  0  0  0  0  0  0  0  0  0
    5.3078   -3.4086    1.8557 C   0  0  0  0  0  0  0  0  0  0  0  0
   -1.9273    0.7042    0.1904 C   0  0  0  0  0  0  0  0  0  0  0  0
    7.1131   -6.3249    0.6501 C   0  0  0  0  0  0  0  0  0  0  0  0
    2.5710    1.6619   -0.9733 H   0  0  0  0  0  0  0  0  0  0  0  0
    8.2215   -1.3447   -0.4079 H   0  0  0  0  0  0  0  0  0  0  0  0
    3.6765   -3.9846    2.7589 H   0  0  0  0  0  0  0  0  0  0  0  0
    3.7775   -2.3219    2.3485 H   0  0  0  0  0  0  0  0  0  0  0  0
    4.6454   -1.4179   -0.8397 H   0  0  0  0  0  0  0  0  0  0  0  0
    4.5656    2.8532   -1.3353 H   0  0  0  0  0  0  0  0  0  0  0  0
    8.0537   -4.0819   -0.6410 H   0  0  0  0  0  0  0  0  0  0  0  0
    7.0438    2.7856   -1.3010 H   0  0  0  0  0  0  0  0  0  0  0  0
    0.4097   -1.6571    0.9006 H   0  0  0  0  0  0  0  0  0  0  0  0
    0.6403    1.7362   -1.7702 H   0  0  0  0  0  0  0  0  0  0  0  0
   -1.9240   -1.0467    1.4483 H   0  0  0  0  0  0  0  0  0  0  0  0
   -1.6597    2.3536   -1.1680 H   0  0  0  0  0  0  0  0  0  0  0  0
   -2.9460    0.9832    0.4488 H   0  0  0  0  0  0  0  0  0  0  0  0
    7.4384   -6.7352    1.6108 H   0  0  0  0  0  0  0  0  0  0  0  0
    6.2683   -6.9150    0.2802 H   0  0  0  0  0  0  0  0  0  0  0  0
    7.9377   -6.4232   -0.0623 H   0  0  0  0  0  0  0  0  0  0  0  0
  1 13  2  0  0  0  0
  2  8  1  0  0  0  0
  2 13  1  0  0  0  0
  2 25  1  0  0  0  0
  3  9  1  0  0  0  0
  3 12  1  0  0  0  0
  3 26  1  0  0  0  0
  4  9  2  0  0  0  0
  4 17  1  0  0  0  0
  5 12  2  0  0  0  0
  5 22  1  0  0  0  0
  6 16  1  0  0  0  0
  6 22  2  0  0  0  0
  7 22  1  0  0  0  0
  7 27  1  0  0  0  0
  7 28  1  0  0  0  0
  8 10  2  0  0  0  0
  8 14  1  0  0  0  0
  9 10  1  0  0  0  0
 10 29  1  0  0  0  0
 11 13  1  0  0  0  0
 11 18  2  0  0  0  0
 11 19  1  0  0  0  0
 12 15  1  0  0  0  0
 14 17  2  0  0  0  0
 14 30  1  0  0  0  0
 15 16  2  0  0  0  0
 15 31  1  0  0  0  0
 16 24  1  0  0  0  0
 17 32  1  0  0  0  0
 18 20  1  0  0  0  0
 18 33  1  0  0  0  0
 19 21  2  0  0  0  0
 19 34  1  0  0  0  0
 20 23  2  0  0  0  0
 20 35  1  0  0  0  0
 21 23  1  0  0  0  0
 21 36  1  0  0  0  0
 23 37  1  0  0  0  0
 24 38  1  0  0  0  0
 24 39  1  0  0  0  0
 24 40  1  0  0  0  0
M  END
>  <Mol_ID>
5375

>  <Formula>
C17H14Cl2N6O

>  <MolWeight>
389.23866

>  <Cat>
S0384

>  <Name>
RO495

>  <Synonyms>
CS-2667

>  <Target>
JAK

>  <Form>
Free Base

>  <CAS>
1258296-60-4

>  <URL>
https://www.selleckchem.com/products/ro495.html

$$$$
