RO4929097
 OpenBabel08302521353D

 53 55  0  0  0  0  0  0  0  0999 V2000
    3.3149    1.1720    0.0687 C   0  0  0  0  0  0  0  0  0  0  0  0
    2.4791    2.0797    0.7057 C   0  0  0  0  0  0  0  0  0  0  0  0
    1.0954    1.8902    0.6805 C   0  0  0  0  0  0  0  0  0  0  0  0
    0.5146    0.7668    0.0569 C   0  0  0  0  0  0  0  0  0  0  0  0
    1.3878   -0.1759   -0.5317 C   0  0  0  0  0  0  0  0  0  0  0  0
    2.7703    0.0613   -0.5690 C   0  0  0  0  0  0  0  0  0  0  0  0
   -0.9622    0.6392    0.0309 C   0  0  0  0  0  0  0  0  0  0  0  0
   -1.6021   -0.5806    0.3385 C   0  0  0  0  0  0  0  0  0  0  0  0
   -0.7948   -1.8096    0.6908 C   0  0  1  0  0  0  0  0  0  0  0  0
    0.0260   -2.2608   -0.5353 C   0  0  0  0  0  0  0  0  0  0  0  0
    0.9877   -1.4239   -1.0457 N   0  0  0  0  0  0  0  0  0  0  0  0
   -1.7788    1.7343   -0.3287 C   0  0  0  0  0  0  0  0  0  0  0  0
   -3.1714    1.6214   -0.3962 C   0  0  0  0  0  0  0  0  0  0  0  0
   -3.7820    0.4104   -0.1205 C   0  0  0  0  0  0  0  0  0  0  0  0
   -3.0027   -0.6858    0.2473 C   0  0  0  0  0  0  0  0  0  0  0  0
   -1.4428   -2.2721    3.4004 O   0  0  0  0  0  0  0  0  0  0  0  0
   -0.2753   -2.0030    3.1175 C   0  0  0  0  0  0  0  0  0  0  0  0
    0.0852   -1.6241    1.8496 N   0  0  0  0  0  0  0  0  0  0  0  0
    2.4403   -2.6326    2.4780 O   0  0  0  0  0  0  0  0  0  0  0  0
    2.2254   -2.3998    3.6654 C   0  0  0  0  0  0  0  0  0  0  0  0
    0.8387   -1.9646    4.1947 C   0  0  0  0  0  0  0  0  0  0  0  0
    4.6355   -2.8479    4.3063 C   0  0  0  0  0  0  0  0  0  0  0  0
    3.2457   -2.4706    4.5827 N   0  0  0  0  0  0  0  0  0  0  0  0
    5.1433   -2.3420    1.8058 C   0  0  0  0  0  0  0  0  0  0  0  0
    5.1201   -3.3733    2.9403 C   0  0  0  0  0  0  0  0  0  0  0  0
    4.6889   -1.1216    2.1841 F   0  0  0  0  0  0  0  0  0  0  0  0
    6.4188   -2.1331    1.3689 F   0  0  0  0  0  0  0  0  0  0  0  0
    4.4474   -2.7285    0.7101 F   0  0  0  0  0  0  0  0  0  0  0  0
   -0.1007   -3.3859   -1.0250 O   0  0  0  0  0  0  0  0  0  0  0  0
    0.9208   -0.5282    4.7389 C   0  0  0  0  0  0  0  0  0  0  0  0
    0.4160   -2.9074    5.3387 C   0  0  0  0  0  0  0  0  0  0  0  0
    6.4195   -3.7945    3.1635 F   0  0  0  0  0  0  0  0  0  0  0  0
    4.4595   -4.5143    2.6097 F   0  0  0  0  0  0  0  0  0  0  0  0
    4.3931    1.3067    0.0939 H   0  0  0  0  0  0  0  0  0  0  0  0
    2.9007    2.9366    1.2244 H   0  0  0  0  0  0  0  0  0  0  0  0
    0.4645    2.6241    1.1793 H   0  0  0  0  0  0  0  0  0  0  0  0
    3.4435   -0.6617   -1.0232 H   0  0  0  0  0  0  0  0  0  0  0  0
   -1.4726   -2.6382    0.9255 H   0  0  0  0  0  0  0  0  0  0  0  0
    1.6143   -1.9103   -1.6757 H   0  0  0  0  0  0  0  0  0  0  0  0
   -1.3277    2.6900   -0.5825 H   0  0  0  0  0  0  0  0  0  0  0  0
   -3.7709    2.4840   -0.6840 H   0  0  0  0  0  0  0  0  0  0  0  0
   -4.8611    0.3083   -0.1942 H   0  0  0  0  0  0  0  0  0  0  0  0
   -3.4943   -1.6357    0.4479 H   0  0  0  0  0  0  0  0  0  0  0  0
    1.0819   -1.6417    1.6424 H   0  0  0  0  0  0  0  0  0  0  0  0
    5.2562   -2.0032    4.6134 H   0  0  0  0  0  0  0  0  0  0  0  0
    4.8423   -3.6396    5.0379 H   0  0  0  0  0  0  0  0  0  0  0  0
    3.0424   -2.2265    5.5451 H   0  0  0  0  0  0  0  0  0  0  0  0
   -0.0357   -0.2192    5.1795 H   0  0  0  0  0  0  0  0  0  0  0  0
    1.6831   -0.4272    5.5206 H   0  0  0  0  0  0  0  0  0  0  0  0
    1.1643    0.1912    3.9490 H   0  0  0  0  0  0  0  0  0  0  0  0
   -0.5651   -2.6349    5.7445 H   0  0  0  0  0  0  0  0  0  0  0  0
    0.3498   -3.9413    4.9810 H   0  0  0  0  0  0  0  0  0  0  0  0
    1.1208   -2.8924    6.1764 H   0  0  0  0  0  0  0  0  0  0  0  0
  1  2  2  0  0  0  0
  1 34  1  0  0  0  0
  2  3  1  0  0  0  0
  2 35  1  0  0  0  0
  3  4  2  0  0  0  0
  3 36  1  0  0  0  0
  4  5  1  0  0  0  0
  4  7  1  0  0  0  0
  5  6  2  0  0  0  0
  6  1  1  0  0  0  0
  6 37  1  0  0  0  0
  7  8  2  0  0  0  0
  7 12  1  0  0  0  0
  8  9  1  0  0  0  0
  9 10  1  0  0  0  0
  9 38  1  1  0  0  0
  9 18  1  0  0  0  0
 10 11  1  0  0  0  0
 10 29  2  0  0  0  0
 11  5  1  0  0  0  0
 11 39  1  0  0  0  0
 12 13  2  0  0  0  0
 12 40  1  0  0  0  0
 13 14  1  0  0  0  0
 13 41  1  0  0  0  0
 14 15  2  0  0  0  0
 14 42  1  0  0  0  0
 15  8  1  0  0  0  0
 15 43  1  0  0  0  0
 16 17  2  0  0  0  0
 17 18  1  0  0  0  0
 18 44  1  0  0  0  0
 19 20  2  0  0  0  0
 20 21  1  0  0  0  0
 21 17  1  0  0  0  0
 21 30  1  0  0  0  0
 21 31  1  0  0  0  0
 22 23  1  0  0  0  0
 22 45  1  0  0  0  0
 22 46  1  0  0  0  0
 23 20  1  0  0  0  0
 23 47  1  0  0  0  0
 24 25  1  0  0  0  0
 24 26  1  0  0  0  0
 24 27  1  0  0  0  0
 24 28  1  0  0  0  0
 25 22  1  0  0  0  0
 25 32  1  0  0  0  0
 25 33  1  0  0  0  0
 30 48  1  0  0  0  0
 30 49  1  0  0  0  0
 30 50  1  0  0  0  0
 31 51  1  0  0  0  0
 31 52  1  0  0  0  0
 31 53  1  0  0  0  0
M  END
>  <Mol_ID>
6653

>  <Formula>
C22H20F5N3O3

>  <MolWeight>
469.404516

>  <Cat>
S1575

>  <Name>
RO4929097

>  <Synonyms>
RG-4733

>  <Target>
Beta Amyloid,Notch,Secretase

>  <Form>
Free base

>  <CAS>
847925-91-1

>  <URL>
http://www.selleckchem.com/products/RO4929097.html

$$$$
