Ro5-3335
 OpenBabel08302521353D

 28 30  0  0  0  0  0  0  0  0999 V2000
    1.0840   -0.0339   -0.0012 O   0  0  0  0  0  0  0  0  0  0  0  0
    4.8781   -1.2696    0.9343 C   0  0  0  0  0  0  0  0  0  0  0  0
    5.3052    0.1385    0.6884 C   0  0  0  0  0  0  0  0  0  0  0  0
    3.9137   -1.8847    0.3367 N   0  0  0  0  0  0  0  0  0  0  0  0
    4.3885    1.1930    0.5716 C   0  0  0  0  0  0  0  0  0  0  0  0
    6.6849    0.4157    0.6702 C   0  0  0  0  0  0  0  0  0  0  0  0
    3.1237   -1.1578   -0.6512 C   0  0  0  0  0  0  0  0  0  0  0  0
    2.9974    1.0320    0.4968 N   0  0  0  0  0  0  0  0  0  0  0  0
    4.8657    2.5114    0.5353 C   0  0  0  0  0  0  0  0  0  0  0  0
    7.1479    1.7280    0.5934 C   0  0  0  0  0  0  0  0  0  0  0  0
    2.3156   -0.0489    0.0042 C   0  0  0  0  0  0  0  0  0  0  0  0
    6.2370    2.7765    0.5386 C   0  0  0  0  0  0  0  0  0  0  0  0
    5.5925   -2.0514    1.9328 C   0  0  0  0  0  0  0  0  0  0  0  0
    6.2410   -1.6575    3.0936 C   0  0  0  0  0  0  0  0  0  0  0  0
    5.6953   -3.4251    1.8762 N   0  0  0  0  0  0  0  0  0  0  0  0
    6.7785   -2.8110    3.7123 C   0  0  0  0  0  0  0  0  0  0  0  0
    6.4402   -3.8883    2.9276 C   0  0  0  0  0  0  0  0  0  0  0  0
    7.4125   -0.3916    0.7370 H   0  0  0  0  0  0  0  0  0  0  0  0
    3.7386   -0.7548   -1.4642 H   0  0  0  0  0  0  0  0  0  0  0  0
    2.4174   -1.8578   -1.1111 H   0  0  0  0  0  0  0  0  0  0  0  0
    2.3967    1.8236    0.6928 H   0  0  0  0  0  0  0  0  0  0  0  0
    4.1753    3.3491    0.4643 H   0  0  0  0  0  0  0  0  0  0  0  0
    8.2167    1.9286    0.5938 H   0  0  0  0  0  0  0  0  0  0  0  0
    6.5931    3.8028    0.4864 H   0  0  0  0  0  0  0  0  0  0  0  0
    6.3113   -0.6430    3.4658 H   0  0  0  0  0  0  0  0  0  0  0  0
    5.2786   -3.9859    1.1433 H   0  0  0  0  0  0  0  0  0  0  0  0
    7.3423   -2.8501    4.6354 H   0  0  0  0  0  0  0  0  0  0  0  0
    6.6462   -4.9444    3.0376 H   0  0  0  0  0  0  0  0  0  0  0  0
  1 11  2  0  0  0  0
  2  3  1  0  0  0  0
  2  4  2  0  0  0  0
  2 13  1  0  0  0  0
  3  5  2  0  0  0  0
  3  6  1  0  0  0  0
  4  7  1  0  0  0  0
  5  8  1  0  0  0  0
  5  9  1  0  0  0  0
  6 10  2  0  0  0  0
  6 18  1  0  0  0  0
  7 11  1  0  0  0  0
  7 19  1  0  0  0  0
  7 20  1  0  0  0  0
  8 11  1  0  0  0  0
  8 21  1  0  0  0  0
  9 12  2  0  0  0  0
  9 22  1  0  0  0  0
 10 12  1  0  0  0  0
 10 23  1  0  0  0  0
 12 24  1  0  0  0  0
 13 14  2  0  0  0  0
 13 15  1  0  0  0  0
 14 16  1  0  0  0  0
 14 25  1  0  0  0  0
 15 17  1  0  0  0  0
 15 26  1  0  0  0  0
 16 17  2  0  0  0  0
 16 27  1  0  0  0  0
 17 28  1  0  0  0  0
M  END
>  <Mol_ID>
6839

>  <Formula>
C13H10ClN3O

>  <MolWeight>
259.691

>  <Cat>
E1245

>  <Name>
Ro5-3335

>  <Target>
Others

>  <Form>
Free base

>  <CAS>
30195-30-3

>  <URL>
http://www.selleckchem.com/products/ro5-3335.html

$$$$
