RO9021.cdx
 OpenBabel08302520003D

 51 53  0  0  0  0  0  0  0  0999 V2000
   -0.1329   -1.2740   -0.1265 C   0  0  0  0  0  0  0  0  0  0  0  0
    1.1895   -0.8311   -0.1567 C   0  0  0  0  0  0  0  0  0  0  0  0
    1.3617    0.5578   -0.0900 C   0  0  0  0  0  0  0  0  0  0  0  0
    0.2758    1.4150    0.0610 C   0  0  0  0  0  0  0  0  0  0  0  0
   -0.9772    0.9227    0.0333 N   0  0  0  0  0  0  0  0  0  0  0  0
   -1.1905   -0.4219   -0.0548 N   0  0  0  0  0  0  0  0  0  0  0  0
   -0.5375   -2.7170   -0.1036 C   0  0  0  0  0  0  0  0  0  0  0  0
    0.2588   -3.6467   -0.1628 O   0  0  0  0  0  0  0  0  0  0  0  0
   -1.8872   -2.9464   -0.0086 N   0  0  0  0  0  0  0  0  0  0  0  0
    2.3138   -1.6795   -0.1573 N   0  0  0  0  0  0  0  0  0  0  0  0
    3.5629   -1.5702    0.4692 C   0  0  0  0  0  0  0  0  0  0  0  0
    3.7362   -0.7964    1.6122 C   0  0  0  0  0  0  0  0  0  0  0  0
    4.9492   -0.8351    2.2925 C   0  0  0  0  0  0  0  0  0  0  0  0
    5.9967   -1.6165    1.8076 C   0  0  0  0  0  0  0  0  0  0  0  0
    5.7848   -2.2949    0.6039 C   0  0  0  0  0  0  0  0  0  0  0  0
    4.5812   -2.2949   -0.0395 N   0  0  0  0  0  0  0  0  0  0  0  0
    0.5371    2.7924    0.2349 N   0  0  0  0  0  0  0  0  0  0  0  0
   -0.5811    3.5389    0.8476 C   0  0  1  0  0  0  0  0  0  0  0  0
   -0.7547    3.1196    2.3473 C   0  0  2  0  0  0  0  0  0  0  0  0
   -1.8063    4.0055    3.0256 C   0  0  0  0  0  0  0  0  0  0  0  0
   -1.4832    5.4924    2.9148 C   0  0  0  0  0  0  0  0  0  0  0  0
   -1.2701    5.9154    1.4646 C   0  0  0  0  0  0  0  0  0  0  0  0
   -0.2517    5.0408    0.7365 C   0  0  0  0  0  0  0  0  0  0  0  0
    0.5351    3.1500    3.0793 N   0  0  0  0  0  0  0  0  0  0  0  0
    6.8844   -3.0764   -0.0536 C   0  0  0  0  0  0  0  0  0  0  0  0
    7.2319   -1.7607    2.6467 C   0  0  0  0  0  0  0  0  0  0  0  0
    2.3601    0.9829   -0.1323 H   0  0  0  0  0  0  0  0  0  0  0  0
   -2.5418   -2.1727    0.0496 H   0  0  0  0  0  0  0  0  0  0  0  0
   -2.2310   -3.8988    0.0426 H   0  0  0  0  0  0  0  0  0  0  0  0
    2.2720   -2.4934   -0.7663 H   0  0  0  0  0  0  0  0  0  0  0  0
    2.9158   -0.2287    2.0354 H   0  0  0  0  0  0  0  0  0  0  0  0
    5.0535   -0.2835    3.2234 H   0  0  0  0  0  0  0  0  0  0  0  0
    1.3349    2.8663    0.8704 H   0  0  0  0  0  0  0  0  0  0  0  0
   -1.5168    3.3627    0.2998 H   0  0  0  0  0  0  0  0  0  0  0  0
   -1.1117    2.0853    2.3979 H   0  0  0  0  0  0  0  0  0  0  0  0
   -2.7809    3.8175    2.5558 H   0  0  0  0  0  0  0  0  0  0  0  0
   -1.9161    3.7278    4.0811 H   0  0  0  0  0  0  0  0  0  0  0  0
   -2.3030    6.0759    3.3492 H   0  0  0  0  0  0  0  0  0  0  0  0
   -0.5887    5.7251    3.5042 H   0  0  0  0  0  0  0  0  0  0  0  0
   -2.2277    5.8712    0.9314 H   0  0  0  0  0  0  0  0  0  0  0  0
   -0.9391    6.9600    1.4365 H   0  0  0  0  0  0  0  0  0  0  0  0
    0.7496    5.2433    1.1384 H   0  0  0  0  0  0  0  0  0  0  0  0
   -0.2133    5.3311   -0.3206 H   0  0  0  0  0  0  0  0  0  0  0  0
    0.3514    2.9644    4.0663 H   0  0  0  0  0  0  0  0  0  0  0  0
    0.9284    4.0900    3.0498 H   0  0  0  0  0  0  0  0  0  0  0  0
    7.7646   -2.4414   -0.2117 H   0  0  0  0  0  0  0  0  0  0  0  0
    7.1646   -3.9364    0.5620 H   0  0  0  0  0  0  0  0  0  0  0  0
    6.5722   -3.4466   -1.0376 H   0  0  0  0  0  0  0  0  0  0  0  0
    7.5818   -0.7823    2.9918 H   0  0  0  0  0  0  0  0  0  0  0  0
    6.9988   -2.3782    3.5224 H   0  0  0  0  0  0  0  0  0  0  0  0
    8.0597   -2.2357    2.1163 H   0  0  0  0  0  0  0  0  0  0  0  0
  1  2  2  0  0  0  0
  1  7  1  0  0  0  0
  2  3  1  0  0  0  0
  2 10  1  0  0  0  0
  3  4  2  0  0  0  0
  3 27  1  0  0  0  0
  4  5  1  0  0  0  0
  4 17  1  0  0  0  0
  5  6  2  0  0  0  0
  6  1  1  0  0  0  0
  7  8  2  0  0  0  0
  7  9  1  0  0  0  0
  9 28  1  0  0  0  0
  9 29  1  0  0  0  0
 10 11  1  0  0  0  0
 10 30  1  0  0  0  0
 11 12  2  0  0  0  0
 12 13  1  0  0  0  0
 12 31  1  0  0  0  0
 13 14  2  0  0  0  0
 13 32  1  0  0  0  0
 14 15  1  0  0  0  0
 14 26  1  0  0  0  0
 15 16  2  0  0  0  0
 15 25  1  0  0  0  0
 16 11  1  0  0  0  0
 17 33  1  0  0  0  0
 18 17  1  0  0  0  0
 18 19  1  0  0  0  0
 18 34  1  6  0  0  0
 19 20  1  0  0  0  0
 19 35  1  1  0  0  0
 19 24  1  0  0  0  0
 20 21  1  0  0  0  0
 20 36  1  0  0  0  0
 20 37  1  0  0  0  0
 21 22  1  0  0  0  0
 21 38  1  0  0  0  0
 21 39  1  0  0  0  0
 22 23  1  0  0  0  0
 22 40  1  0  0  0  0
 22 41  1  0  0  0  0
 23 18  1  0  0  0  0
 23 42  1  0  0  0  0
 23 43  1  0  0  0  0
 24 44  1  0  0  0  0
 24 45  1  0  0  0  0
 25 46  1  0  0  0  0
 25 47  1  0  0  0  0
 25 48  1  0  0  0  0
 26 49  1  0  0  0  0
 26 50  1  0  0  0  0
 26 51  1  0  0  0  0
M  END
>  <Mol_ID>
2711

>  <Formula>
C18H25N7O

>  <MolWeight>
355.4374

>  <Cat>
S7286

>  <Name>
RO9021

>  <Synonyms>
N/A

>  <Target>
Syk

>  <Form>
free base

>  <CAS>
1446790-62-0

>  <URL>
http://selleckchem.com/products/ro9021.html

$$$$
