Ro 20-1724
 OpenBabel08302521313D

 42 43  0  0  0  0  0  0  0  0999 V2000
    1.0226    0.2072   -0.1232 O   0  0  0  0  0  0  0  0  0  0  0  0
   -3.0270    4.7299    5.4981 O   0  0  0  0  0  0  0  0  0  0  0  0
   -1.2378   -1.6249    0.3337 O   0  0  0  0  0  0  0  0  0  0  0  0
   -1.6086    3.0124    4.8572 N   0  0  0  0  0  0  0  0  0  0  0  0
   -1.1809    4.1073    6.7538 N   0  0  0  0  0  0  0  0  0  0  0  0
   -0.5492    2.2615    5.4928 C   0  0  3  0  0  0  0  0  0  0  0  0
    0.5393    1.8177    4.5173 C   0  0  0  0  0  0  0  0  0  0  0  0
   -0.0509    3.2372    6.5634 C   0  0  0  0  0  0  0  0  0  0  0  0
    0.0758    0.8931    3.4107 C   0  0  0  0  0  0  0  0  0  0  0  0
   -2.0474    4.0278    5.6807 C   0  0  0  0  0  0  0  0  0  0  0  0
    0.7392    0.9497    2.1766 C   0  0  0  0  0  0  0  0  0  0  0  0
   -0.9533   -0.0340    3.5621 C   0  0  0  0  0  0  0  0  0  0  0  0
    0.3730    0.1409    1.0844 C   0  0  0  0  0  0  0  0  0  0  0  0
   -0.6901   -0.7605    1.2440 C   0  0  0  0  0  0  0  0  0  0  0  0
   -1.3352   -0.8381    2.4865 C   0  0  0  0  0  0  0  0  0  0  0  0
    2.6067    1.1603   -1.6643 C   0  0  0  0  0  0  0  0  0  0  0  0
    2.0466    1.1932   -0.2501 C   0  0  0  0  0  0  0  0  0  0  0  0
    3.7125    2.2015   -1.8250 C   0  0  0  0  0  0  0  0  0  0  0  0
    4.2984    2.1791   -3.2249 C   0  0  0  0  0  0  0  0  0  0  0  0
   -0.6919   -1.6861   -0.9735 C   0  0  0  0  0  0  0  0  0  0  0  0
   -2.1941    2.6864    4.0988 H   0  0  0  0  0  0  0  0  0  0  0  0
   -1.2475    4.8817    7.4007 H   0  0  0  0  0  0  0  0  0  0  0  0
   -1.0170    1.4025    5.9893 H   0  0  0  0  0  0  0  0  0  0  0  0
    1.3502    1.3190    5.0626 H   0  0  0  0  0  0  0  0  0  0  0  0
    0.9716    2.7177    4.0563 H   0  0  0  0  0  0  0  0  0  0  0  0
    0.2139    2.7457    7.5026 H   0  0  0  0  0  0  0  0  0  0  0  0
    0.7864    3.8534    6.2199 H   0  0  0  0  0  0  0  0  0  0  0  0
    1.5547    1.6619    2.0938 H   0  0  0  0  0  0  0  0  0  0  0  0
   -1.4882   -0.1483    4.5001 H   0  0  0  0  0  0  0  0  0  0  0  0
   -2.1569   -1.5405    2.6169 H   0  0  0  0  0  0  0  0  0  0  0  0
    2.9883    0.1558   -1.8845 H   0  0  0  0  0  0  0  0  0  0  0  0
    1.7984    1.3444   -2.3824 H   0  0  0  0  0  0  0  0  0  0  0  0
    1.6320    2.1914   -0.0605 H   0  0  0  0  0  0  0  0  0  0  0  0
    2.8584    0.9775    0.4557 H   0  0  0  0  0  0  0  0  0  0  0  0
    3.3144    3.2018   -1.6160 H   0  0  0  0  0  0  0  0  0  0  0  0
    4.5110    2.0149   -1.0968 H   0  0  0  0  0  0  0  0  0  0  0  0
    3.5248    2.3691   -3.9748 H   0  0  0  0  0  0  0  0  0  0  0  0
    5.0682    2.9501   -3.3249 H   0  0  0  0  0  0  0  0  0  0  0  0
    4.7570    1.2091   -3.4388 H   0  0  0  0  0  0  0  0  0  0  0  0
   -0.7484   -0.7193   -1.4816 H   0  0  0  0  0  0  0  0  0  0  0  0
    0.3264   -2.0858   -0.9538 H   0  0  0  0  0  0  0  0  0  0  0  0
   -1.3060   -2.3849   -1.5513 H   0  0  0  0  0  0  0  0  0  0  0  0
  1 13  1  0  0  0  0
  1 17  1  0  0  0  0
  2 10  2  0  0  0  0
  3 14  1  0  0  0  0
  3 20  1  0  0  0  0
  4  6  1  0  0  0  0
  4 10  1  0  0  0  0
  4 21  1  0  0  0  0
  5  8  1  0  0  0  0
  5 10  1  0  0  0  0
  5 22  1  0  0  0  0
  6  7  1  0  0  0  0
  6  8  1  0  0  0  0
  6 23  1  0  0  0  0
  7  9  1  0  0  0  0
  7 24  1  0  0  0  0
  7 25  1  0  0  0  0
  8 26  1  0  0  0  0
  8 27  1  0  0  0  0
  9 11  2  0  0  0  0
  9 12  1  0  0  0  0
 11 13  1  0  0  0  0
 11 28  1  0  0  0  0
 12 15  2  0  0  0  0
 12 29  1  0  0  0  0
 13 14  2  0  0  0  0
 14 15  1  0  0  0  0
 15 30  1  0  0  0  0
 16 17  1  0  0  0  0
 16 18  1  0  0  0  0
 16 31  1  0  0  0  0
 16 32  1  0  0  0  0
 17 33  1  0  0  0  0
 17 34  1  0  0  0  0
 18 19  1  0  0  0  0
 18 35  1  0  0  0  0
 18 36  1  0  0  0  0
 19 37  1  0  0  0  0
 19 38  1  0  0  0  0
 19 39  1  0  0  0  0
 20 40  1  0  0  0  0
 20 41  1  0  0  0  0
 20 42  1  0  0  0  0
M  END
>  <Mol_ID>
5966

>  <Formula>
C15H22N2O3

>  <MolWeight>
278.34678

>  <Cat>
E0346

>  <Name>
Ro 20-1724

>  <Synonyms>
N/A

>  <Target>
PDE

>  <Form>
Free Base

>  <CAS>
29925-17-5

>  <URL>
http://www.selleckchem.com/products/ro-20-1724.html

$$$$
