ronidazole.cdx
 OpenBabel08302522033D

 22 22  0  0  0  0  0  0  0  0999 V2000
   -0.0064   -1.1826    0.0563 C   0  0  0  0  0  0  0  0  0  0  0  0
    0.7930   -0.0631    0.0443 N   0  0  0  0  0  0  0  0  0  0  0  0
   -0.0610    1.0305   -0.0036 C   0  0  0  0  0  0  0  0  0  0  0  0
   -1.3245    0.6338    0.0270 N   0  0  0  0  0  0  0  0  0  0  0  0
   -1.3004   -0.7333    0.0510 C   0  0  0  0  0  0  0  0  0  0  0  0
    0.4412   -2.5343    0.0724 N   0  3  0  0  0  0  0  0  0  0  0  0
    1.6584   -2.7442    0.0945 O   0  0  0  0  0  0  0  0  0  0  0  0
   -0.4375   -3.4044    0.0692 O   0  5  0  0  0  0  0  0  0  0  0  0
    2.2378   -0.0320    0.0880 C   0  0  0  0  0  0  0  0  0  0  0  0
    0.3674    2.4654   -0.0702 C   0  0  0  0  0  0  0  0  0  0  0  0
   -0.2045    3.0667   -1.2413 O   0  0  0  0  0  0  0  0  0  0  0  0
    0.4797    2.8433   -2.3814 C   0  0  0  0  0  0  0  0  0  0  0  0
   -0.1016    3.5042   -3.4049 N   0  0  0  0  0  0  0  0  0  0  0  0
    1.4918    2.1692   -2.4934 O   0  0  0  0  0  0  0  0  0  0  0  0
   -2.2140   -1.3151    0.0624 H   0  0  0  0  0  0  0  0  0  0  0  0
    2.5692   -0.5626    0.9851 H   0  0  0  0  0  0  0  0  0  0  0  0
    2.6257   -0.5020   -0.8187 H   0  0  0  0  0  0  0  0  0  0  0  0
    2.6108    0.9888    0.1475 H   0  0  0  0  0  0  0  0  0  0  0  0
   -0.0471    2.9949    0.7944 H   0  0  0  0  0  0  0  0  0  0  0  0
    1.4463    2.6322   -0.0476 H   0  0  0  0  0  0  0  0  0  0  0  0
    0.2837    3.4240   -4.3333 H   0  0  0  0  0  0  0  0  0  0  0  0
   -0.9441    4.0357   -3.2432 H   0  0  0  0  0  0  0  0  0  0  0  0
  1  2  1  0  0  0  0
  1  6  1  0  0  0  0
  2  3  1  0  0  0  0
  2  9  1  0  0  0  0
  3  4  2  0  0  0  0
  3 10  1  0  0  0  0
  4  5  1  0  0  0  0
  5  1  2  0  0  0  0
  5 15  1  0  0  0  0
  6  7  2  0  0  0  0
  6  8  1  0  0  0  0
  9 16  1  0  0  0  0
  9 17  1  0  0  0  0
  9 18  1  0  0  0  0
 10 11  1  0  0  0  0
 10 19  1  0  0  0  0
 10 20  1  0  0  0  0
 11 12  1  0  0  0  0
 12 13  1  0  0  0  0
 12 14  2  0  0  0  0
 13 21  1  0  0  0  0
 13 22  1  0  0  0  0
M  CHG  2   6   1   8  -1
M  END
>  <Mol_ID>
1215

>  <Formula>
C6H8N4O4

>  <MolWeight>
200.15212

>  <Cat>
S4062

>  <Name>
Ronidazole

>  <Synonyms>
N/A

>  <Target>
Anti-infection

>  <Form>
free base

>  <CAS>
7681-76-7

>  <URL>
http://selleckchem.com/products/ronidazole.html

$$$$
