ropivacaine hydrochloride.cdx
 OpenBabel08302522033D

 46 47  0  0  0  0  0  0  0  0999 V2000
   -0.9380    1.3665    0.4242 C   0  0  0  0  0  0  0  0  0  0  0  0
   -1.6980    0.1006    0.0608 C   0  0  0  0  0  0  0  0  0  0  0  0
   -0.8259   -1.1409    0.2287 C   0  0  0  0  0  0  0  0  0  0  0  0
    0.5915   -1.0139   -0.3558 C   0  0  2  0  0  0  0  0  0  0  0  0
    1.2293    0.2830   -0.0007 N   0  0  0  0  0  0  0  0  0  0  0  0
    0.4185    1.4601   -0.2807 C   0  0  0  0  0  0  0  0  0  0  0  0
    2.6435    0.3518   -0.3923 C   0  0  0  0  0  0  0  0  0  0  0  0
    3.4122    1.6436   -0.0505 C   0  0  0  0  0  0  0  0  0  0  0  0
    3.4390    2.0124    1.4272 C   0  0  0  0  0  0  0  0  0  0  0  0
    0.6520   -1.4280   -1.8608 C   0  0  0  0  0  0  0  0  0  0  0  0
    1.2562   -2.4521   -2.1850 O   0  0  0  0  0  0  0  0  0  0  0  0
   -0.0816   -0.6534   -2.7450 N   0  0  0  0  0  0  0  0  0  0  0  0
   -0.3273   -1.0023   -4.0998 C   0  0  0  0  0  0  0  0  0  0  0  0
   -1.6741   -1.1481   -4.5229 C   0  0  0  0  0  0  0  0  0  0  0  0
   -1.9624   -1.2953   -5.8908 C   0  0  0  0  0  0  0  0  0  0  0  0
   -0.9393   -1.3151   -6.8288 C   0  0  0  0  0  0  0  0  0  0  0  0
    0.3814   -1.2019   -6.4102 C   0  0  0  0  0  0  0  0  0  0  0  0
    0.7115   -1.0616   -5.0470 C   0  0  0  0  0  0  0  0  0  0  0  0
    2.1625   -0.8337   -4.7206 C   0  0  0  0  0  0  0  0  0  0  0  0
   -2.8316   -1.1945   -3.5610 C   0  0  0  0  0  0  0  0  0  0  0  0
   -1.5462    2.2474    0.1787 H   0  0  0  0  0  0  0  0  0  0  0  0
   -0.7813    1.3830    1.5111 H   0  0  0  0  0  0  0  0  0  0  0  0
   -2.5892    0.0074    0.6920 H   0  0  0  0  0  0  0  0  0  0  0  0
   -2.0761    0.1800   -0.9603 H   0  0  0  0  0  0  0  0  0  0  0  0
   -0.7323   -1.3369    1.3058 H   0  0  0  0  0  0  0  0  0  0  0  0
   -1.3420   -2.0084   -0.2003 H   0  0  0  0  0  0  0  0  0  0  0  0
    1.1813   -1.7916    0.1532 H   0  0  0  0  0  0  0  0  0  0  0  0
    0.2931    1.6179   -1.3559 H   0  0  0  0  0  0  0  0  0  0  0  0
    0.8954    2.3633    0.1115 H   0  0  0  0  0  0  0  0  0  0  0  0
    3.1737   -0.4750    0.1002 H   0  0  0  0  0  0  0  0  0  0  0  0
    2.7465    0.1928   -1.4718 H   0  0  0  0  0  0  0  0  0  0  0  0
    4.4504    1.5167   -0.3835 H   0  0  0  0  0  0  0  0  0  0  0  0
    3.0135    2.4841   -0.6299 H   0  0  0  0  0  0  0  0  0  0  0  0
    3.8793    1.2121    2.0292 H   0  0  0  0  0  0  0  0  0  0  0  0
    4.0474    2.9130    1.5717 H   0  0  0  0  0  0  0  0  0  0  0  0
    2.4403    2.2282    1.8165 H   0  0  0  0  0  0  0  0  0  0  0  0
   -0.8062   -0.0986   -2.3237 H   0  0  0  0  0  0  0  0  0  0  0  0
   -2.9932   -1.4064   -6.2331 H   0  0  0  0  0  0  0  0  0  0  0  0
   -1.1713   -1.4124   -7.8883 H   0  0  0  0  0  0  0  0  0  0  0  0
    1.1671   -1.1988   -7.1647 H   0  0  0  0  0  0  0  0  0  0  0  0
    2.3663    0.2388   -4.6567 H   0  0  0  0  0  0  0  0  0  0  0  0
    2.4724   -1.3092   -3.7927 H   0  0  0  0  0  0  0  0  0  0  0  0
    2.8040   -1.2640   -5.4985 H   0  0  0  0  0  0  0  0  0  0  0  0
   -2.6039   -1.8541   -2.7174 H   0  0  0  0  0  0  0  0  0  0  0  0
   -3.0717   -0.1921   -3.1979 H   0  0  0  0  0  0  0  0  0  0  0  0
   -3.7286   -1.6050   -4.0410 H   0  0  0  0  0  0  0  0  0  0  0  0
  1  2  1  0  0  0  0
  1 21  1  0  0  0  0
  1 22  1  0  0  0  0
  2  3  1  0  0  0  0
  2 23  1  0  0  0  0
  2 24  1  0  0  0  0
  3  4  1  0  0  0  0
  3 25  1  0  0  0  0
  3 26  1  0  0  0  0
  4  5  1  0  0  0  0
  4 27  1  1  0  0  0
  4 10  1  0  0  0  0
  5  6  1  0  0  0  0
  5  7  1  0  0  0  0
  6  1  1  0  0  0  0
  6 28  1  0  0  0  0
  6 29  1  0  0  0  0
  7  8  1  0  0  0  0
  7 30  1  0  0  0  0
  7 31  1  0  0  0  0
  8  9  1  0  0  0  0
  8 32  1  0  0  0  0
  8 33  1  0  0  0  0
  9 34  1  0  0  0  0
  9 35  1  0  0  0  0
  9 36  1  0  0  0  0
 10 11  2  0  0  0  0
 10 12  1  0  0  0  0
 12 13  1  0  0  0  0
 12 37  1  0  0  0  0
 13 14  2  0  0  0  0
 14 15  1  0  0  0  0
 14 20  1  0  0  0  0
 15 16  2  0  0  0  0
 15 38  1  0  0  0  0
 16 17  1  0  0  0  0
 16 39  1  0  0  0  0
 17 18  2  0  0  0  0
 17 40  1  0  0  0  0
 18 13  1  0  0  0  0
 18 19  1  0  0  0  0
 19 41  1  0  0  0  0
 19 42  1  0  0  0  0
 19 43  1  0  0  0  0
 20 44  1  0  0  0  0
 20 45  1  0  0  0  0
 20 46  1  0  0  0  0
M  END
>  <Mol_ID>
1216

>  <Formula>
C17H27ClN2O

>  <MolWeight>
310.86208

>  <Cat>
S4058

>  <Name>
Ropivacaine HCl

>  <Synonyms>
LEA-103 HCl

>  <Target>
Sodium Channel

>  <Form>
HCl

>  <CAS>
98717-15-8

>  <URL>
http://selleckchem.com/products/ropivacaine-hcl.html

$$$$
