Ropivacaine Mesilate
 OpenBabel08302520323D

 55 55  0  0  0  0  0  0  0  0999 V2000
    1.7517   -0.1670    0.8709 N   0  0  0  0  0  0  0  0  0  0  0  0
    0.9275    1.0735    0.7070 C   0  0  1  0  0  0  0  0  0  0  0  0
   -0.4607    0.9745    1.3682 C   0  0  0  0  0  0  0  0  0  0  0  0
   -1.2595   -0.2315    0.8840 C   0  0  0  0  0  0  0  0  0  0  0  0
   -0.4308   -1.5101    0.9452 C   0  0  0  0  0  0  0  0  0  0  0  0
    0.9787   -1.3433    0.3864 C   0  0  0  0  0  0  0  0  0  0  0  0
    1.6693    2.4205    1.0521 C   0  0  0  0  0  0  0  0  0  0  0  0
    1.9890    3.1720    0.1237 O   0  0  0  0  0  0  0  0  0  0  0  0
    1.8222    2.7124    2.3971 N   0  0  0  0  0  0  0  0  0  0  0  0
    3.0091   -0.0467    0.0734 C   0  0  0  0  0  0  0  0  0  0  0  0
    3.8437   -1.3201   -0.1683 C   0  0  0  0  0  0  0  0  0  0  0  0
    4.4498   -1.9304    1.0849 C   0  0  0  0  0  0  0  0  0  0  0  0
    2.4264    3.8533    3.0135 C   0  0  0  0  0  0  0  0  0  0  0  0
    1.7924    4.3592    4.1845 C   0  0  0  0  0  0  0  0  0  0  0  0
    2.4239    5.3298    4.9928 C   0  0  0  0  0  0  0  0  0  0  0  0
    3.6614    5.8394    4.6487 C   0  0  0  0  0  0  0  0  0  0  0  0
    4.2544    5.4191    3.4661 C   0  0  0  0  0  0  0  0  0  0  0  0
    3.6542    4.4457    2.6278 C   0  0  0  0  0  0  0  0  0  0  0  0
    4.4027    4.1441    1.3599 C   0  0  0  0  0  0  0  0  0  0  0  0
    0.3888    3.9608    4.5607 C   0  0  0  0  0  0  0  0  0  0  0  0
   -0.1520    0.4255   -2.7796 C   0  0  0  0  0  0  0  0  0  0  0  0
   -0.7548    2.0796   -3.0476 S   0  0  0  0  0  0  0  0  0  0  0  0
    0.1877    2.7901   -3.8812 O   0  0  0  0  0  0  0  0  0  0  0  0
   -2.1674    2.0170   -3.3367 O   0  0  0  0  0  0  0  0  0  0  0  0
   -0.5693    2.6570   -1.5529 O   0  0  0  0  0  0  0  0  0  0  0  0
    0.7413    1.1558   -0.3636 H   0  0  0  0  0  0  0  0  0  0  0  0
   -1.0365    1.8833    1.1481 H   0  0  0  0  0  0  0  0  0  0  0  0
   -0.3683    0.9195    2.4574 H   0  0  0  0  0  0  0  0  0  0  0  0
   -2.1651   -0.3513    1.4928 H   0  0  0  0  0  0  0  0  0  0  0  0
   -1.6135   -0.0596   -0.1368 H   0  0  0  0  0  0  0  0  0  0  0  0
   -0.3772   -1.8488    1.9827 H   0  0  0  0  0  0  0  0  0  0  0  0
   -0.9532   -2.2950    0.3835 H   0  0  0  0  0  0  0  0  0  0  0  0
    1.5157   -2.2594    0.6532 H   0  0  0  0  0  0  0  0  0  0  0  0
    0.9153   -1.3233   -0.7074 H   0  0  0  0  0  0  0  0  0  0  0  0
    1.2555    2.1529    3.0171 H   0  0  0  0  0  0  0  0  0  0  0  0
    2.7726    0.3580   -0.9180 H   0  0  0  0  0  0  0  0  0  0  0  0
    3.6594    0.6846    0.5667 H   0  0  0  0  0  0  0  0  0  0  0  0
    3.2484   -2.0752   -0.6938 H   0  0  0  0  0  0  0  0  0  0  0  0
    4.6593   -1.0729   -0.8603 H   0  0  0  0  0  0  0  0  0  0  0  0
    3.8194   -1.7935    1.9667 H   0  0  0  0  0  0  0  0  0  0  0  0
    4.6035   -3.0058    0.9397 H   0  0  0  0  0  0  0  0  0  0  0  0
    5.4304   -1.4867    1.2871 H   0  0  0  0  0  0  0  0  0  0  0  0
    1.9306    5.7076    5.8869 H   0  0  0  0  0  0  0  0  0  0  0  0
    4.1486    6.5800    5.2775 H   0  0  0  0  0  0  0  0  0  0  0  0
    5.2170    5.8534    3.1964 H   0  0  0  0  0  0  0  0  0  0  0  0
    4.3295    3.0946    1.0843 H   0  0  0  0  0  0  0  0  0  0  0  0
    4.0382    4.7893    0.5543 H   0  0  0  0  0  0  0  0  0  0  0  0
    5.4747    4.3474    1.4843 H   0  0  0  0  0  0  0  0  0  0  0  0
   -0.2703    4.0344    3.6895 H   0  0  0  0  0  0  0  0  0  0  0  0
    0.3670    2.9485    4.9665 H   0  0  0  0  0  0  0  0  0  0  0  0
   -0.0289    4.6425    5.3171 H   0  0  0  0  0  0  0  0  0  0  0  0
   -0.2501   -0.1361   -3.7078 H   0  0  0  0  0  0  0  0  0  0  0  0
   -0.7594   -0.0519   -2.0152 H   0  0  0  0  0  0  0  0  0  0  0  0
    0.8960    0.4686   -2.4835 H   0  0  0  0  0  0  0  0  0  0  0  0
    0.2186    3.2535   -1.5235 H   0  0  0  0  0  0  0  0  0  0  0  0
  1  2  1  0  0  0  0
  1  6  1  0  0  0  0
  1 10  1  0  0  0  0
  2  3  1  0  0  0  0
  2 26  1  6  0  0  0
  2  7  1  0  0  0  0
  3  4  1  0  0  0  0
  3 27  1  0  0  0  0
  3 28  1  0  0  0  0
  4  5  1  0  0  0  0
  4 29  1  0  0  0  0
  4 30  1  0  0  0  0
  5  6  1  0  0  0  0
  5 31  1  0  0  0  0
  5 32  1  0  0  0  0
  6 33  1  0  0  0  0
  6 34  1  0  0  0  0
  7  8  2  0  0  0  0
  7  9  1  0  0  0  0
  9 13  1  0  0  0  0
  9 35  1  0  0  0  0
 10 11  1  0  0  0  0
 10 36  1  0  0  0  0
 10 37  1  0  0  0  0
 11 12  1  0  0  0  0
 11 38  1  0  0  0  0
 11 39  1  0  0  0  0
 12 40  1  0  0  0  0
 12 41  1  0  0  0  0
 12 42  1  0  0  0  0
 13 14  2  0  0  0  0
 13 18  1  0  0  0  0
 14 15  1  0  0  0  0
 14 20  1  0  0  0  0
 15 16  2  0  0  0  0
 15 43  1  0  0  0  0
 16 17  1  0  0  0  0
 16 44  1  0  0  0  0
 17 18  2  0  0  0  0
 17 45  1  0  0  0  0
 18 19  1  0  0  0  0
 19 46  1  0  0  0  0
 19 47  1  0  0  0  0
 19 48  1  0  0  0  0
 20 49  1  0  0  0  0
 20 50  1  0  0  0  0
 20 51  1  0  0  0  0
 21 22  1  0  0  0  0
 21 52  1  0  0  0  0
 21 53  1  0  0  0  0
 21 54  1  0  0  0  0
 22 23  2  0  0  0  0
 22 24  2  0  0  0  0
 22 25  1  0  0  0  0
 25 55  1  0  0  0  0
M  END
>  <Mol_ID>
3343

>  <Formula>
C18H30N2O4S

>  <MolWeight>
370.5068

>  <Cat>
S5179

>  <Name>
Ropivacaine Mesilate

>  <Synonyms>
Ropivacaine Mesylate

>  <Target>
Others

>  <Form>
Mesilate

>  <CAS>
854056-07-8

>  <URL>
http://www.selleckchem.com/products/ropivacaine-mesilate.html

$$$$
