Roquinimex
 OpenBabel08302521233D

 39 41  0  0  0  0  0  0  0  0999 V2000
    0.7788   -0.5265    0.0715 C   0  0  0  0  0  0  0  0  0  0  0  0
    0.4003    0.8208    0.0916 C   0  0  0  0  0  0  0  0  0  0  0  0
   -0.2624   -1.5705    0.0930 C   0  0  0  0  0  0  0  0  0  0  0  0
    2.1471   -0.8511    0.0389 C   0  0  0  0  0  0  0  0  0  0  0  0
   -0.9829    1.1378    0.0343 N   0  0  0  0  0  0  0  0  0  0  0  0
    1.3964    1.8167    0.1028 C   0  0  0  0  0  0  0  0  0  0  0  0
   -1.5842   -1.2760    0.0082 C   0  0  0  0  0  0  0  0  0  0  0  0
    0.2469   -2.8581    0.2018 O   0  0  0  0  0  0  0  0  0  0  0  0
    3.1270    0.1445    0.0303 C   0  0  0  0  0  0  0  0  0  0  0  0
   -1.9373    0.1585   -0.2312 C   0  0  0  0  0  0  0  0  0  0  0  0
   -1.3951    2.5356    0.0157 C   0  0  0  0  0  0  0  0  0  0  0  0
    2.7508    1.4794    0.0698 C   0  0  0  0  0  0  0  0  0  0  0  0
   -2.5657   -2.4400    0.0257 C   0  0  0  0  0  0  0  0  0  0  0  0
   -3.0482    0.4613   -0.6712 O   0  0  0  0  0  0  0  0  0  0  0  0
   -3.9157   -2.3063    0.3533 N   0  0  0  0  0  0  0  0  0  0  0  0
   -2.0954   -3.5539   -0.2651 O   0  0  0  0  0  0  0  0  0  0  0  0
   -4.7849   -3.4482    0.3236 C   0  0  0  0  0  0  0  0  0  0  0  0
   -4.5735   -1.1072    0.8789 C   0  0  0  0  0  0  0  0  0  0  0  0
   -4.4993   -4.5935    1.0754 C   0  0  0  0  0  0  0  0  0  0  0  0
   -6.0146   -3.3639   -0.3467 C   0  0  0  0  0  0  0  0  0  0  0  0
   -5.4516   -5.6137    1.1916 C   0  0  0  0  0  0  0  0  0  0  0  0
   -6.9490   -4.3966   -0.2541 C   0  0  0  0  0  0  0  0  0  0  0  0
   -6.6755   -5.5134    0.5308 C   0  0  0  0  0  0  0  0  0  0  0  0
    2.4659   -1.8913    0.0101 H   0  0  0  0  0  0  0  0  0  0  0  0
    1.1483    2.8733    0.1077 H   0  0  0  0  0  0  0  0  0  0  0  0
   -0.4806   -3.4949    0.0140 H   0  0  0  0  0  0  0  0  0  0  0  0
    4.1792   -0.1271   -0.0070 H   0  0  0  0  0  0  0  0  0  0  0  0
   -0.9764    3.0549    0.8842 H   0  0  0  0  0  0  0  0  0  0  0  0
   -1.0543    3.0056   -0.9121 H   0  0  0  0  0  0  0  0  0  0  0  0
   -2.4832    2.6348    0.0745 H   0  0  0  0  0  0  0  0  0  0  0  0
    3.5073    2.2608    0.0599 H   0  0  0  0  0  0  0  0  0  0  0  0
   -3.8826   -0.5370    1.5041 H   0  0  0  0  0  0  0  0  0  0  0  0
   -4.9620   -0.5137    0.0488 H   0  0  0  0  0  0  0  0  0  0  0  0
   -5.4254   -1.3827    1.5133 H   0  0  0  0  0  0  0  0  0  0  0  0
   -3.5679   -4.6763    1.6266 H   0  0  0  0  0  0  0  0  0  0  0  0
   -6.2437   -2.4964   -0.9609 H   0  0  0  0  0  0  0  0  0  0  0  0
   -5.2445   -6.4784    1.8175 H   0  0  0  0  0  0  0  0  0  0  0  0
   -7.8951   -4.3222   -0.7855 H   0  0  0  0  0  0  0  0  0  0  0  0
   -7.4156   -6.3024    0.6311 H   0  0  0  0  0  0  0  0  0  0  0  0
  1  2  2  0  0  0  0
  1  3  1  0  0  0  0
  1  4  1  0  0  0  0
  2  5  1  0  0  0  0
  2  6  1  0  0  0  0
  3  7  2  0  0  0  0
  3  8  1  0  0  0  0
  4  9  2  0  0  0  0
  4 24  1  0  0  0  0
  5 10  1  0  0  0  0
  5 11  1  0  0  0  0
  6 12  2  0  0  0  0
  6 25  1  0  0  0  0
  7 13  1  0  0  0  0
  7 10  1  0  0  0  0
  8 26  1  0  0  0  0
  9 12  1  0  0  0  0
  9 27  1  0  0  0  0
 10 14  2  0  0  0  0
 11 28  1  0  0  0  0
 11 29  1  0  0  0  0
 11 30  1  0  0  0  0
 12 31  1  0  0  0  0
 13 15  1  0  0  0  0
 13 16  2  0  0  0  0
 15 17  1  0  0  0  0
 15 18  1  0  0  0  0
 17 19  2  0  0  0  0
 17 20  1  0  0  0  0
 18 32  1  0  0  0  0
 18 33  1  0  0  0  0
 18 34  1  0  0  0  0
 19 21  1  0  0  0  0
 19 35  1  0  0  0  0
 20 22  2  0  0  0  0
 20 36  1  0  0  0  0
 21 23  2  0  0  0  0
 21 37  1  0  0  0  0
 22 23  1  0  0  0  0
 22 38  1  0  0  0  0
 23 39  1  0  0  0  0
M  END
>  <Mol_ID>
4872

>  <Formula>
C18H16N2O3

>  <MolWeight>
308.33124

>  <Cat>
S2307

>  <Name>
Roquinimex

>  <Synonyms>
FCF 89, Linomide, LS 2616

>  <Target>
Immunology & Inflammation related

>  <Form>
Free Base

>  <CAS>
84088-42-6

>  <URL>
http://www.selleck.cn/products/roquinimex.html

$$$$
