Rosiglitazone maleate.cdx
 OpenBabel08302521383D

 56 57  0  0  0  0  0  0  0  0999 V2000
    1.6367   -3.0165    4.0592 C   0  0  0  0  0  0  0  0  0  0  0  0
    0.9027   -2.3764    5.0387 C   0  0  0  0  0  0  0  0  0  0  0  0
   -0.4417   -2.1777    4.7893 C   0  0  0  0  0  0  0  0  0  0  0  0
   -0.9904   -2.6261    3.5799 C   0  0  0  0  0  0  0  0  0  0  0  0
   -0.2010   -3.2727    2.6212 C   0  0  0  0  0  0  0  0  0  0  0  0
    1.1196   -3.4462    2.8794 N   0  0  0  0  0  0  0  0  0  0  0  0
   -0.6967   -3.7180    1.3831 N   0  0  0  0  0  0  0  0  0  0  0  0
   -2.1414   -3.7842    1.1108 C   0  0  0  0  0  0  0  0  0  0  0  0
   -2.5483   -3.4959   -0.3524 C   0  0  0  0  0  0  0  0  0  0  0  0
   -2.4563   -4.5698   -1.3126 O   0  0  0  0  0  0  0  0  0  0  0  0
   -3.2410   -4.3563   -2.4382 C   0  0  0  0  0  0  0  0  0  0  0  0
    0.1252   -4.7799    0.7998 C   0  0  0  0  0  0  0  0  0  0  0  0
   -3.8025   -3.1192   -2.7691 C   0  0  0  0  0  0  0  0  0  0  0  0
   -4.7618   -3.0052   -3.7748 C   0  0  0  0  0  0  0  0  0  0  0  0
   -5.1473   -4.1162   -4.5269 C   0  0  0  0  0  0  0  0  0  0  0  0
   -4.4799   -5.3300   -4.3013 C   0  0  0  0  0  0  0  0  0  0  0  0
   -3.5333   -5.4488   -3.2611 C   0  0  0  0  0  0  0  0  0  0  0  0
   -6.2992   -3.9768   -5.5033 C   0  0  0  0  0  0  0  0  0  0  0  0
   -5.9891   -3.4191   -6.8952 C   0  0  3  0  0  0  0  0  0  0  0  0
   -5.2654   -2.0910   -6.8317 C   0  0  0  0  0  0  0  0  0  0  0  0
   -4.0024   -2.1816   -7.3325 N   0  0  0  0  0  0  0  0  0  0  0  0
   -3.5723   -3.3688   -7.8063 C   0  0  0  0  0  0  0  0  0  0  0  0
   -4.8963   -4.5101   -7.8604 S   0  0  0  0  0  0  0  0  0  0  0  0
   -2.4401   -3.6325   -8.1573 O   0  0  0  0  0  0  0  0  0  0  0  0
   -5.7332   -1.0613   -6.3629 O   0  0  0  0  0  0  0  0  0  0  0  0
    3.6379   -0.1589   -1.9175 C   0  0  0  0  0  0  0  0  0  0  0  0
    4.7746    0.2450   -2.0773 O   0  0  0  0  0  0  0  0  0  0  0  0
    5.9374   -0.0793    0.1152 O   0  0  0  0  0  0  0  0  0  0  0  0
    5.0154   -0.5676    0.9549 C   0  0  0  0  0  0  0  0  0  0  0  0
    3.7775   -1.1290    0.3804 C   0  0  0  0  0  0  0  0  0  0  0  0
    3.1640   -0.9750   -0.8015 C   0  0  0  0  0  0  0  0  0  0  0  0
    2.6424    0.1056   -2.7708 O   0  0  0  0  0  0  0  0  0  0  0  0
    5.1961   -0.6017    2.1647 O   0  0  0  0  0  0  0  0  0  0  0  0
    2.6968   -3.2079    4.2005 H   0  0  0  0  0  0  0  0  0  0  0  0
    1.3657   -2.0442    5.9615 H   0  0  0  0  0  0  0  0  0  0  0  0
   -1.0734   -1.6808    5.5211 H   0  0  0  0  0  0  0  0  0  0  0  0
   -2.0482   -2.4517    3.4398 H   0  0  0  0  0  0  0  0  0  0  0  0
   -2.5593   -4.7288    1.4717 H   0  0  0  0  0  0  0  0  0  0  0  0
   -2.6392   -2.9717    1.6474 H   0  0  0  0  0  0  0  0  0  0  0  0
   -3.6100   -3.2255   -0.2676 H   0  0  0  0  0  0  0  0  0  0  0  0
   -1.9752   -2.6393   -0.7255 H   0  0  0  0  0  0  0  0  0  0  0  0
    1.0178   -4.3544    0.3283 H   0  0  0  0  0  0  0  0  0  0  0  0
    0.4319   -5.5221    1.5483 H   0  0  0  0  0  0  0  0  0  0  0  0
   -0.4183   -5.3329    0.0290 H   0  0  0  0  0  0  0  0  0  0  0  0
   -3.5547   -2.2127   -2.2286 H   0  0  0  0  0  0  0  0  0  0  0  0
   -5.2354   -2.0367   -3.9265 H   0  0  0  0  0  0  0  0  0  0  0  0
   -4.7165   -6.2067   -4.9035 H   0  0  0  0  0  0  0  0  0  0  0  0
   -3.0597   -6.4121   -3.0823 H   0  0  0  0  0  0  0  0  0  0  0  0
   -6.8188   -4.9393   -5.5946 H   0  0  0  0  0  0  0  0  0  0  0  0
   -7.0368   -3.3105   -5.0309 H   0  0  0  0  0  0  0  0  0  0  0  0
   -6.9157   -3.2718   -7.4622 H   0  0  0  0  0  0  0  0  0  0  0  0
   -3.3690   -1.3966   -7.2736 H   0  0  0  0  0  0  0  0  0  0  0  0
    5.6929   -0.0315   -0.8360 H   0  0  0  0  0  0  0  0  0  0  0  0
    3.2612   -1.7459    1.1179 H   0  0  0  0  0  0  0  0  0  0  0  0
    2.2091   -1.4687   -0.9609 H   0  0  0  0  0  0  0  0  0  0  0  0
    3.0413    0.6700   -3.4663 H   0  0  0  0  0  0  0  0  0  0  0  0
  1  2  2  0  0  0  0
  1 34  1  0  0  0  0
  2  3  1  0  0  0  0
  2 35  1  0  0  0  0
  3  4  2  0  0  0  0
  3 36  1  0  0  0  0
  4  5  1  0  0  0  0
  4 37  1  0  0  0  0
  5  6  2  0  0  0  0
  5  7  1  0  0  0  0
  6  1  1  0  0  0  0
  7  8  1  0  0  0  0
  7 12  1  0  0  0  0
  8  9  1  0  0  0  0
  8 38  1  0  0  0  0
  8 39  1  0  0  0  0
  9 10  1  0  0  0  0
  9 40  1  0  0  0  0
  9 41  1  0  0  0  0
 10 11  1  0  0  0  0
 11 13  2  0  0  0  0
 12 42  1  0  0  0  0
 12 43  1  0  0  0  0
 12 44  1  0  0  0  0
 13 14  1  0  0  0  0
 13 45  1  0  0  0  0
 14 15  2  0  0  0  0
 14 46  1  0  0  0  0
 15 16  1  0  0  0  0
 15 18  1  0  0  0  0
 16 17  2  0  0  0  0
 16 47  1  0  0  0  0
 17 11  1  0  0  0  0
 17 48  1  0  0  0  0
 18 19  1  0  0  0  0
 18 49  1  0  0  0  0
 18 50  1  0  0  0  0
 19 20  1  0  0  0  0
 19 51  1  0  0  0  0
 20 21  1  0  0  0  0
 20 25  2  0  0  0  0
 21 22  1  0  0  0  0
 21 52  1  0  0  0  0
 22 23  1  0  0  0  0
 22 24  2  0  0  0  0
 23 19  1  0  0  0  0
 26 27  2  0  0  0  0
 26 32  1  0  0  0  0
 28 29  1  0  0  0  0
 28 53  1  0  0  0  0
 29 30  1  0  0  0  0
 29 33  2  0  0  0  0
 30 31  2  0  0  0  0
 30 54  1  0  0  0  0
 31 26  1  0  0  0  0
 31 55  1  0  0  0  0
 32 56  1  0  0  0  0
M  END
>  <Mol_ID>
773

>  <Formula>
C22H23N3O7S

>  <MolWeight>
473.49892

>  <Cat>
S2505

>  <Name>
Rosiglitazone (BRL-49653) maleate

>  <Synonyms>
BRL-49653C

>  <Target>
Autophagy,Ferroptosis,PPAR,TRP Channel

>  <Form>
Maleate

>  <CAS>
155141-29-0

>  <URL>
http://selleckchem.com/products/Rosiglitazone-maleate.html

$$$$
