Rosiglitazone.cdx
 OpenBabel08302521413D

 44 46  0  0  0  0  0  0  0  0999 V2000
   -2.5320    1.0769    2.0160 C   0  0  0  0  0  0  0  0  0  0  0  0
   -1.5655    1.4406    1.0946 C   0  0  0  0  0  0  0  0  0  0  0  0
   -1.5242    0.7443   -0.1014 C   0  0  0  0  0  0  0  0  0  0  0  0
   -2.3848   -0.2490   -0.4407 N   0  0  0  0  0  0  0  0  0  0  0  0
   -3.3548   -0.5735    0.4392 C   0  0  0  0  0  0  0  0  0  0  0  0
   -3.4237    0.0578    1.6885 C   0  0  0  0  0  0  0  0  0  0  0  0
   -4.3554   -1.5129    0.1004 N   0  0  0  0  0  0  0  0  0  0  0  0
   -4.0624   -2.4342   -1.0256 C   0  0  0  0  0  0  0  0  0  0  0  0
   -2.9556   -3.4209   -0.6284 C   0  0  0  0  0  0  0  0  0  0  0  0
   -2.7403   -4.5074   -1.5553 O   0  0  0  0  0  0  0  0  0  0  0  0
   -1.4990   -5.0932   -1.3845 C   0  0  0  0  0  0  0  0  0  0  0  0
   -5.6602   -0.8512    0.0604 C   0  0  0  0  0  0  0  0  0  0  0  0
   -0.7625   -4.9847   -0.1992 C   0  0  0  0  0  0  0  0  0  0  0  0
    0.5842   -5.3241   -0.1687 C   0  0  0  0  0  0  0  0  0  0  0  0
    1.2080   -5.8476   -1.2990 C   0  0  0  0  0  0  0  0  0  0  0  0
    0.4235   -6.1375   -2.4292 C   0  0  0  0  0  0  0  0  0  0  0  0
   -0.9266   -5.7549   -2.4742 C   0  0  0  0  0  0  0  0  0  0  0  0
    2.7140   -6.0162   -1.2944 C   0  0  0  0  0  0  0  0  0  0  0  0
    3.2771   -7.2921   -0.6696 C   0  0  3  0  0  0  0  0  0  0  0  0
    2.8008   -8.7829   -1.5992 S   0  0  0  0  0  0  0  0  0  0  0  0
    1.7719   -9.3506   -0.3093 C   0  0  0  0  0  0  0  0  0  0  0  0
    1.9448   -8.6067    0.8024 N   0  0  0  0  0  0  0  0  0  0  0  0
    2.7588   -7.5160    0.7368 C   0  0  0  0  0  0  0  0  0  0  0  0
    3.0039   -6.7957    1.6945 O   0  0  0  0  0  0  0  0  0  0  0  0
    1.0262  -10.3028   -0.4134 O   0  0  0  0  0  0  0  0  0  0  0  0
   -2.6056    1.5818    2.9746 H   0  0  0  0  0  0  0  0  0  0  0  0
   -0.8646    2.2413    1.3028 H   0  0  0  0  0  0  0  0  0  0  0  0
   -0.7768    0.9842   -0.8527 H   0  0  0  0  0  0  0  0  0  0  0  0
   -4.1811   -0.2401    2.4059 H   0  0  0  0  0  0  0  0  0  0  0  0
   -4.9615   -3.0231   -1.2506 H   0  0  0  0  0  0  0  0  0  0  0  0
   -3.8160   -1.8984   -1.9502 H   0  0  0  0  0  0  0  0  0  0  0  0
   -2.0319   -2.8408   -0.5244 H   0  0  0  0  0  0  0  0  0  0  0  0
   -3.2281   -3.8606    0.3396 H   0  0  0  0  0  0  0  0  0  0  0  0
   -6.0866   -0.8115    1.0693 H   0  0  0  0  0  0  0  0  0  0  0  0
   -5.5968    0.1722   -0.3322 H   0  0  0  0  0  0  0  0  0  0  0  0
   -6.3713   -1.3984   -0.5653 H   0  0  0  0  0  0  0  0  0  0  0  0
   -1.1921   -4.5632    0.7031 H   0  0  0  0  0  0  0  0  0  0  0  0
    1.1469   -5.1049    0.7366 H   0  0  0  0  0  0  0  0  0  0  0  0
    0.8669   -6.6054   -3.3059 H   0  0  0  0  0  0  0  0  0  0  0  0
   -1.5109   -5.9309   -3.3731 H   0  0  0  0  0  0  0  0  0  0  0  0
    3.0946   -5.8966   -2.3180 H   0  0  0  0  0  0  0  0  0  0  0  0
    3.1269   -5.1569   -0.7464 H   0  0  0  0  0  0  0  0  0  0  0  0
    4.3713   -7.2483   -0.6293 H   0  0  0  0  0  0  0  0  0  0  0  0
    1.4521   -8.8377    1.6509 H   0  0  0  0  0  0  0  0  0  0  0  0
  1  2  2  0  0  0  0
  1 26  1  0  0  0  0
  2  3  1  0  0  0  0
  2 27  1  0  0  0  0
  3  4  2  0  0  0  0
  3 28  1  0  0  0  0
  4  5  1  0  0  0  0
  5  6  2  0  0  0  0
  5  7  1  0  0  0  0
  6  1  1  0  0  0  0
  6 29  1  0  0  0  0
  7  8  1  0  0  0  0
  7 12  1  0  0  0  0
  8  9  1  0  0  0  0
  8 30  1  0  0  0  0
  8 31  1  0  0  0  0
  9 10  1  0  0  0  0
  9 32  1  0  0  0  0
  9 33  1  0  0  0  0
 10 11  1  0  0  0  0
 11 13  2  0  0  0  0
 12 34  1  0  0  0  0
 12 35  1  0  0  0  0
 12 36  1  0  0  0  0
 13 14  1  0  0  0  0
 13 37  1  0  0  0  0
 14 15  2  0  0  0  0
 14 38  1  0  0  0  0
 15 16  1  0  0  0  0
 15 18  1  0  0  0  0
 16 17  2  0  0  0  0
 16 39  1  0  0  0  0
 17 11  1  0  0  0  0
 17 40  1  0  0  0  0
 18 19  1  0  0  0  0
 18 41  1  0  0  0  0
 18 42  1  0  0  0  0
 19 20  1  0  0  0  0
 19 43  1  0  0  0  0
 20 21  1  0  0  0  0
 21 22  1  0  0  0  0
 21 25  2  0  0  0  0
 22 23  1  0  0  0  0
 22 44  1  0  0  0  0
 23 19  1  0  0  0  0
 23 24  2  0  0  0  0
M  END
>  <Mol_ID>
819

>  <Formula>
C18H19N3O3S

>  <MolWeight>
357.42676

>  <Cat>
S2556

>  <Name>
Rosiglitazone (BRL 49653)

>  <Synonyms>
BRL 49653

>  <Target>
Autophagy,Ferroptosis,PPAR,TRP Channel

>  <Form>
Free Base

>  <CAS>
122320-73-4

>  <URL>
http://selleckchem.com/products/Rosiglitazone-Avandia.html

$$$$
