Rosin
 OpenBabel08302521493D

 41 42  0  0  1  0  0  0  0  0999 V2000
    3.0915    1.1901    0.2787 O   0  0  0  0  0  0  0  0  0  0  0  0
    2.9649    1.6712    1.6126 C   0  0  0  0  0  0  0  0  0  0  0  0
    3.6496    3.0012    1.6097 C   0  0  0  0  0  0  0  0  0  0  0  0
    3.0617    4.1606    1.9442 C   0  0  0  0  0  0  0  0  0  0  0  0
    1.7942    0.5081   -2.3008 O   0  0  0  0  0  0  0  0  0  0  0  0
    2.9156   -3.3194    1.6758 C   0  0  0  0  0  0  0  0  0  0  0  0
    2.4610   -2.8710    2.9556 O   0  0  0  0  0  0  0  0  0  0  0  0
    2.8227   -2.1733   -3.1246 O   0  0  0  0  0  0  0  0  0  0  0  0
    2.2687   -4.0994   -1.0825 O   0  0  0  0  0  0  0  0  0  0  0  0
    2.4137   -0.0456    0.0309 C   0  0  2  0  0  0  0  0  0  0  0  0
    2.9725   -1.0597    0.8623 O   0  0  0  0  0  0  0  0  0  0  0  0
    2.6071   -0.3528   -1.4746 C   0  0  1  0  0  0  0  0  0  0  0  0
    2.4168   -2.3553    0.5952 C   0  0  1  0  0  0  0  0  0  0  0  0
    2.2920   -1.8093   -1.8359 C   0  0  2  0  0  0  0  0  0  0  0  0
    2.8242   -2.8101   -0.8059 C   0  0  2  0  0  0  0  0  0  0  0  0
    3.6317    5.4888    1.6626 C   0  0  0  0  0  0  0  0  0  0  0  0
    4.4039    5.7180    0.5140 C   0  0  0  0  0  0  0  0  0  0  0  0
    3.2624    6.5866    2.4493 C   0  0  0  0  0  0  0  0  0  0  0  0
    4.7829    7.0124    0.1523 C   0  0  0  0  0  0  0  0  0  0  0  0
    3.6419    7.8829    2.0873 C   0  0  0  0  0  0  0  0  0  0  0  0
    4.3930    8.0966    0.9318 C   0  0  0  0  0  0  0  0  0  0  0  0
    1.9062    1.7614    1.8791 H   0  0  0  0  0  0  0  0  0  0  0  0
    3.4637    0.9931    2.3119 H   0  0  0  0  0  0  0  0  0  0  0  0
    4.6639    2.9901    1.2165 H   0  0  0  0  0  0  0  0  0  0  0  0
    2.0521    4.1647    2.3481 H   0  0  0  0  0  0  0  0  0  0  0  0
    0.8538    0.3607   -2.0813 H   0  0  0  0  0  0  0  0  0  0  0  0
    2.5336   -4.3323    1.5209 H   0  0  0  0  0  0  0  0  0  0  0  0
    4.0097   -3.3520    1.7120 H   0  0  0  0  0  0  0  0  0  0  0  0
    2.7908   -1.9512    3.0415 H   0  0  0  0  0  0  0  0  0  0  0  0
    3.5512   -1.5631   -3.3450 H   0  0  0  0  0  0  0  0  0  0  0  0
    2.1585   -4.1538   -2.0524 H   0  0  0  0  0  0  0  0  0  0  0  0
    1.3500    0.0902    0.2636 H   0  0  0  0  0  0  0  0  0  0  0  0
    3.6382   -0.1204   -1.7560 H   0  0  0  0  0  0  0  0  0  0  0  0
    1.3243   -2.2920    0.6818 H   0  0  0  0  0  0  0  0  0  0  0  0
    1.2106   -1.9390   -1.9388 H   0  0  0  0  0  0  0  0  0  0  0  0
    3.9113   -2.8933   -0.8924 H   0  0  0  0  0  0  0  0  0  0  0  0
    4.6812    4.8956   -0.1410 H   0  0  0  0  0  0  0  0  0  0  0  0
    2.6571    6.4474    3.3419 H   0  0  0  0  0  0  0  0  0  0  0  0
    5.3549    7.1712   -0.7597 H   0  0  0  0  0  0  0  0  0  0  0  0
    3.3329    8.7292    2.6952 H   0  0  0  0  0  0  0  0  0  0  0  0
    4.6618    9.1056    0.6320 H   0  0  0  0  0  0  0  0  0  0  0  0
  1  2  1  0  0  0  0
  2  3  1  0  0  0  0
  2 22  1  0  0  0  0
  2 23  1  0  0  0  0
  3  4  2  0  0  0  0
  3 24  1  0  0  0  0
  4 16  1  0  0  0  0
  4 25  1  0  0  0  0
  5 26  1  0  0  0  0
  6  7  1  0  0  0  0
  6 27  1  0  0  0  0
  6 28  1  0  0  0  0
  7 29  1  0  0  0  0
  8 30  1  0  0  0  0
  9 31  1  0  0  0  0
 10 11  1  0  0  0  0
 10 12  1  0  0  0  0
 10 32  1  1  0  0  0
 10  1  1  0  0  0  0
 11 13  1  0  0  0  0
 12  5  1  0  0  0  0
 12 14  1  0  0  0  0
 12 33  1  6  0  0  0
 13  6  1  0  0  0  0
 13 15  1  0  0  0  0
 13 34  1  1  0  0  0
 14  8  1  0  0  0  0
 14 15  1  0  0  0  0
 14 35  1  6  0  0  0
 15  9  1  0  0  0  0
 15 36  1  6  0  0  0
 16 17  2  0  0  0  0
 16 18  1  0  0  0  0
 17 19  1  0  0  0  0
 17 37  1  0  0  0  0
 18 20  2  0  0  0  0
 18 38  1  0  0  0  0
 19 21  2  0  0  0  0
 19 39  1  0  0  0  0
 20 21  1  0  0  0  0
 20 40  1  0  0  0  0
 21 41  1  0  0  0  0
M  END
>  <Mol_ID>
9815

>  <Formula>
C15H20O6

>  <MolWeight>
296.3157

>  <Cat>
E2409

>  <Name>
Rosin

>  <Synonyms>
N/A

>  <Target>
Immunology & Inflammation related

>  <Form>
free base

>  <CAS>
85026-55-7

>  <URL>
https://www.selleckchem.com/products/rosin.html

$$$$
