Rotigotine.cdx
 OpenBabel08302522063D

 47 49  0  0  0  0  0  0  0  0999 V2000
   -1.5621   -3.0162   -1.1313 C   0  0  0  0  0  0  0  0  0  0  0  0
   -1.1270   -1.5784   -0.8455 C   0  0  0  0  0  0  0  0  0  0  0  0
   -2.1557   -0.6926   -0.1345 C   0  0  1  0  0  0  0  0  0  0  0  0
   -3.5246   -0.8392   -0.8346 C   0  0  0  0  0  0  0  0  0  0  0  0
   -3.9781   -2.2685   -0.9043 C   0  0  0  0  0  0  0  0  0  0  0  0
   -3.0292   -3.3060   -0.9483 C   0  0  0  0  0  0  0  0  0  0  0  0
   -5.3468   -2.5609   -0.9032 C   0  0  0  0  0  0  0  0  0  0  0  0
   -5.7771   -3.8797   -0.8029 C   0  0  0  0  0  0  0  0  0  0  0  0
   -4.8441   -4.9116   -0.7261 C   0  0  0  0  0  0  0  0  0  0  0  0
   -3.4835   -4.6226   -0.8312 C   0  0  0  0  0  0  0  0  0  0  0  0
   -2.5627   -5.6295   -0.7902 O   0  0  0  0  0  0  0  0  0  0  0  0
   -2.1905   -0.6900    1.3386 N   0  0  0  0  0  0  0  0  0  0  0  0
   -2.4779   -1.8584    2.1894 C   0  0  0  0  0  0  0  0  0  0  0  0
   -1.4654    0.4112    1.9772 C   0  0  0  0  0  0  0  0  0  0  0  0
   -2.1423    1.7810    1.7397 C   0  0  0  0  0  0  0  0  0  0  0  0
   -3.5631    1.8757    2.2887 C   0  0  0  0  0  0  0  0  0  0  0  0
   -1.4147   -2.9667    2.3145 C   0  0  0  0  0  0  0  0  0  0  0  0
   -1.7180   -4.1219    3.2592 C   0  0  0  0  0  0  0  0  0  0  0  0
   -3.1716   -5.0300    3.1293 S   0  0  0  0  0  0  0  0  0  0  0  0
   -2.6153   -6.2280    4.2175 C   0  0  0  0  0  0  0  0  0  0  0  0
   -1.3688   -5.9239    4.7204 C   0  0  0  0  0  0  0  0  0  0  0  0
   -0.8649   -4.6956    4.1885 C   0  0  0  0  0  0  0  0  0  0  0  0
   -1.2947   -3.2598   -2.1681 H   0  0  0  0  0  0  0  0  0  0  0  0
   -0.9517   -3.6930   -0.5277 H   0  0  0  0  0  0  0  0  0  0  0  0
   -0.9253   -1.1123   -1.8225 H   0  0  0  0  0  0  0  0  0  0  0  0
   -0.1613   -1.5560   -0.3269 H   0  0  0  0  0  0  0  0  0  0  0  0
   -1.8482    0.3217   -0.4276 H   0  0  0  0  0  0  0  0  0  0  0  0
   -4.2709   -0.2158   -0.3254 H   0  0  0  0  0  0  0  0  0  0  0  0
   -3.4534   -0.4590   -1.8636 H   0  0  0  0  0  0  0  0  0  0  0  0
   -6.0798   -1.7572   -0.9515 H   0  0  0  0  0  0  0  0  0  0  0  0
   -6.8412   -4.0996   -0.7630 H   0  0  0  0  0  0  0  0  0  0  0  0
   -5.1925   -5.9294   -0.5976 H   0  0  0  0  0  0  0  0  0  0  0  0
   -3.0069   -6.4342   -0.4772 H   0  0  0  0  0  0  0  0  0  0  0  0
   -2.6813   -1.4962    3.2094 H   0  0  0  0  0  0  0  0  0  0  0  0
   -3.4346   -2.2884    1.8799 H   0  0  0  0  0  0  0  0  0  0  0  0
   -1.3890    0.2639    3.0567 H   0  0  0  0  0  0  0  0  0  0  0  0
   -0.4351    0.4450    1.6019 H   0  0  0  0  0  0  0  0  0  0  0  0
   -1.5315    2.5633    2.2077 H   0  0  0  0  0  0  0  0  0  0  0  0
   -2.1639    2.0276    0.6724 H   0  0  0  0  0  0  0  0  0  0  0  0
   -3.5460    2.0872    3.3620 H   0  0  0  0  0  0  0  0  0  0  0  0
   -4.0975    2.6973    1.7976 H   0  0  0  0  0  0  0  0  0  0  0  0
   -4.1391    0.9635    2.1252 H   0  0  0  0  0  0  0  0  0  0  0  0
   -1.2660   -3.4455    1.3530 H   0  0  0  0  0  0  0  0  0  0  0  0
   -0.4500   -2.5289    2.5931 H   0  0  0  0  0  0  0  0  0  0  0  0
   -3.2144   -7.1037    4.4246 H   0  0  0  0  0  0  0  0  0  0  0  0
   -0.8310   -6.5692    5.4039 H   0  0  0  0  0  0  0  0  0  0  0  0
    0.1144   -4.3041    4.4156 H   0  0  0  0  0  0  0  0  0  0  0  0
  1  2  1  0  0  0  0
  1 23  1  0  0  0  0
  1 24  1  0  0  0  0
  2  3  1  0  0  0  0
  2 25  1  0  0  0  0
  2 26  1  0  0  0  0
  3  4  1  0  0  0  0
  3 12  1  0  0  0  0
  3 27  1  6  0  0  0
  4  5  1  0  0  0  0
  4 28  1  0  0  0  0
  4 29  1  0  0  0  0
  5  6  2  0  0  0  0
  5  7  1  0  0  0  0
  6  1  1  0  0  0  0
  7  8  2  0  0  0  0
  7 30  1  0  0  0  0
  8  9  1  0  0  0  0
  8 31  1  0  0  0  0
  9 10  2  0  0  0  0
  9 32  1  0  0  0  0
 10  6  1  0  0  0  0
 10 11  1  0  0  0  0
 11 33  1  0  0  0  0
 12 13  1  0  0  0  0
 12 14  1  0  0  0  0
 13 17  1  0  0  0  0
 13 34  1  0  0  0  0
 13 35  1  0  0  0  0
 14 15  1  0  0  0  0
 14 36  1  0  0  0  0
 14 37  1  0  0  0  0
 15 16  1  0  0  0  0
 15 38  1  0  0  0  0
 15 39  1  0  0  0  0
 16 40  1  0  0  0  0
 16 41  1  0  0  0  0
 16 42  1  0  0  0  0
 17 18  1  0  0  0  0
 17 43  1  0  0  0  0
 17 44  1  0  0  0  0
 18 19  1  0  0  0  0
 19 20  1  0  0  0  0
 20 21  2  0  0  0  0
 20 45  1  0  0  0  0
 21 22  1  0  0  0  0
 21 46  1  0  0  0  0
 22 18  2  0  0  0  0
 22 47  1  0  0  0  0
M  END
>  <Mol_ID>
1430

>  <Formula>
C19H25NOS

>  <MolWeight>
315.4729

>  <Cat>
S4274

>  <Name>
Rotigotine

>  <Synonyms>
N-0923

>  <Target>
Dopamine Receptor

>  <Form>
free base

>  <CAS>
99755-59-6

>  <URL>
http://selleckchem.com/products/rotigotine.html

$$$$
