Rotundine.cdx
 OpenBabel08302521363D

 51 54  0  0  0  0  0  0  0  0999 V2000
   -4.3475   -1.4815   -0.1744 C   0  0  0  0  0  0  0  0  0  0  0  0
   -4.7993   -0.1701    0.0330 C   0  0  0  0  0  0  0  0  0  0  0  0
   -3.8535    0.8729    0.1218 C   0  0  0  0  0  0  0  0  0  0  0  0
   -2.4702    0.5801    0.0021 C   0  0  0  0  0  0  0  0  0  0  0  0
   -2.0437   -0.7458   -0.1827 C   0  0  0  0  0  0  0  0  0  0  0  0
   -2.9870   -1.7665   -0.2861 C   0  0  0  0  0  0  0  0  0  0  0  0
   -1.4460    1.6928    0.1384 C   0  0  0  0  0  0  0  0  0  0  0  0
   -0.0705    1.3175   -0.2337 N   0  0  3  0  0  0  0  0  0  0  0  0
    0.3188    0.0128    0.3516 C   0  0  1  0  0  0  0  0  0  0  0  0
   -0.5733   -1.0605   -0.3130 C   0  0  0  0  0  0  0  0  0  0  0  0
    0.8719    2.3670    0.1563 C   0  0  0  0  0  0  0  0  0  0  0  0
    2.2217    2.0953   -0.5061 C   0  0  0  0  0  0  0  0  0  0  0  0
    2.7076    0.6937   -0.2351 C   0  0  0  0  0  0  0  0  0  0  0  0
    1.8073   -0.3037    0.1657 C   0  0  0  0  0  0  0  0  0  0  0  0
    4.0632    0.3861   -0.4349 C   0  0  0  0  0  0  0  0  0  0  0  0
    4.5679   -0.9006   -0.1970 C   0  0  0  0  0  0  0  0  0  0  0  0
    3.6874   -1.8894    0.2699 C   0  0  0  0  0  0  0  0  0  0  0  0
    2.3288   -1.5748    0.4553 C   0  0  0  0  0  0  0  0  0  0  0  0
   -6.1288    0.1377    0.1586 O   0  0  0  0  0  0  0  0  0  0  0  0
   -4.1027    2.2092    0.3308 O   0  0  0  0  0  0  0  0  0  0  0  0
   -7.0817   -0.9130    0.0665 C   0  0  0  0  0  0  0  0  0  0  0  0
   -5.4394    2.6715    0.4349 C   0  0  0  0  0  0  0  0  0  0  0  0
    3.9581   -3.1961    0.5921 O   0  0  0  0  0  0  0  0  0  0  0  0
    5.8829   -1.2285   -0.3915 O   0  0  0  0  0  0  0  0  0  0  0  0
    6.7530   -0.2384   -0.9241 C   0  0  0  0  0  0  0  0  0  0  0  0
    5.2730   -3.6942    0.3982 C   0  0  0  0  0  0  0  0  0  0  0  0
   -5.0331   -2.3186   -0.2521 H   0  0  0  0  0  0  0  0  0  0  0  0
   -2.6688   -2.7941   -0.4474 H   0  0  0  0  0  0  0  0  0  0  0  0
   -1.7439    2.5134   -0.5269 H   0  0  0  0  0  0  0  0  0  0  0  0
   -1.4795    2.0563    1.1739 H   0  0  0  0  0  0  0  0  0  0  0  0
    0.1331    0.0300    1.4367 H   0  0  0  0  0  0  0  0  0  0  0  0
   -0.3323   -1.1482   -1.3816 H   0  0  0  0  0  0  0  0  0  0  0  0
   -0.3904   -2.0395    0.1442 H   0  0  0  0  0  0  0  0  0  0  0  0
    0.5207    3.3513   -0.1754 H   0  0  0  0  0  0  0  0  0  0  0  0
    0.9804    2.4141    1.2502 H   0  0  0  0  0  0  0  0  0  0  0  0
    2.1366    2.2273   -1.5921 H   0  0  0  0  0  0  0  0  0  0  0  0
    2.9520    2.8232   -0.1335 H   0  0  0  0  0  0  0  0  0  0  0  0
    4.7096    1.1860   -0.7815 H   0  0  0  0  0  0  0  0  0  0  0  0
    1.6755   -2.3603    0.8322 H   0  0  0  0  0  0  0  0  0  0  0  0
   -7.0466   -1.3946   -0.9159 H   0  0  0  0  0  0  0  0  0  0  0  0
   -6.9461   -1.6406    0.8736 H   0  0  0  0  0  0  0  0  0  0  0  0
   -8.0762   -0.4715    0.1830 H   0  0  0  0  0  0  0  0  0  0  0  0
   -6.0054    2.4757   -0.4811 H   0  0  0  0  0  0  0  0  0  0  0  0
   -5.9305    2.2641    1.3239 H   0  0  0  0  0  0  0  0  0  0  0  0
   -5.4017    3.7584    0.5603 H   0  0  0  0  0  0  0  0  0  0  0  0
    6.4198    0.0944   -1.9127 H   0  0  0  0  0  0  0  0  0  0  0  0
    6.8573    0.6046   -0.2334 H   0  0  0  0  0  0  0  0  0  0  0  0
    7.7417   -0.6917   -1.0440 H   0  0  0  0  0  0  0  0  0  0  0  0
    5.5687   -3.6437   -0.6546 H   0  0  0  0  0  0  0  0  0  0  0  0
    5.9895   -3.1903    1.0545 H   0  0  0  0  0  0  0  0  0  0  0  0
    5.2704   -4.7523    0.6793 H   0  0  0  0  0  0  0  0  0  0  0  0
  1  2  2  0  0  0  0
  1 27  1  0  0  0  0
  2  3  1  0  0  0  0
  2 19  1  0  0  0  0
  3  4  2  0  0  0  0
  3 20  1  0  0  0  0
  4  5  1  0  0  0  0
  4  7  1  0  0  0  0
  5  6  2  0  0  0  0
  6  1  1  0  0  0  0
  6 28  1  0  0  0  0
  7  8  1  0  0  0  0
  7 29  1  0  0  0  0
  7 30  1  0  0  0  0
  8  9  1  0  0  0  0
  8 11  1  0  0  0  0
  9 10  1  0  0  0  0
  9 31  1  1  0  0  0
 10  5  1  0  0  0  0
 10 32  1  0  0  0  0
 10 33  1  0  0  0  0
 11 12  1  0  0  0  0
 11 34  1  0  0  0  0
 11 35  1  0  0  0  0
 12 13  1  0  0  0  0
 12 36  1  0  0  0  0
 12 37  1  0  0  0  0
 13 14  2  0  0  0  0
 13 15  1  0  0  0  0
 14  9  1  0  0  0  0
 15 16  2  0  0  0  0
 15 38  1  0  0  0  0
 16 17  1  0  0  0  0
 16 24  1  0  0  0  0
 17 18  2  0  0  0  0
 17 23  1  0  0  0  0
 18 14  1  0  0  0  0
 18 39  1  0  0  0  0
 19 21  1  0  0  0  0
 20 22  1  0  0  0  0
 21 40  1  0  0  0  0
 21 41  1  0  0  0  0
 21 42  1  0  0  0  0
 22 43  1  0  0  0  0
 22 44  1  0  0  0  0
 22 45  1  0  0  0  0
 23 26  1  0  0  0  0
 24 25  1  0  0  0  0
 25 46  1  0  0  0  0
 25 47  1  0  0  0  0
 25 48  1  0  0  0  0
 26 49  1  0  0  0  0
 26 50  1  0  0  0  0
 26 51  1  0  0  0  0
M  END
>  <Mol_ID>
689

>  <Formula>
C21H25NO4

>  <MolWeight>
355.4275

>  <Cat>
S2437

>  <Name>
Rotundine

>  <Synonyms>
L-tetrahydropalmatine, L-THP

>  <Target>
Dopamine Receptor

>  <Form>
free base

>  <CAS>
483-14-7

>  <URL>
http://selleckchem.com/products/rotundine.html

$$$$
