Roxatidine acetate hydrochloride.cdx
 OpenBabel08302522013D

 53 54  0  0  0  0  0  0  0  0999 V2000
    0.9896    0.1903    0.2726 C   0  0  0  0  0  0  0  0  0  0  0  0
    0.5946   -0.1052    1.6988 C   0  0  0  0  0  0  0  0  0  0  0  0
    0.4031   -0.7290   -0.7232 N   0  0  0  0  0  0  0  0  0  0  0  0
    0.9178   -1.3622    2.2585 C   0  0  0  0  0  0  0  0  0  0  0  0
    0.3391   -1.7978    3.4546 C   0  0  0  0  0  0  0  0  0  0  0  0
   -0.2664   -0.8407    4.2751 C   0  0  0  0  0  0  0  0  0  0  0  0
   -0.4658    0.4665    3.8148 C   0  0  0  0  0  0  0  0  0  0  0  0
   -0.1314    0.8052    2.5030 C   0  0  0  0  0  0  0  0  0  0  0  0
   -1.0667   -0.7208   -0.7373 C   0  0  0  0  0  0  0  0  0  0  0  0
   -1.5242   -1.9111   -1.5782 C   0  0  0  0  0  0  0  0  0  0  0  0
   -1.0828   -1.7214   -3.0251 C   0  0  0  0  0  0  0  0  0  0  0  0
    0.4226   -1.4734   -3.1015 C   0  0  0  0  0  0  0  0  0  0  0  0
    0.8982   -0.4291   -2.0818 C   0  0  0  0  0  0  0  0  0  0  0  0
    0.2349   -3.1157    3.8598 O   0  0  0  0  0  0  0  0  0  0  0  0
    0.7455   -4.0921    2.9357 C   0  0  0  0  0  0  0  0  0  0  0  0
    0.5342   -5.5569    3.3658 C   0  0  0  0  0  0  0  0  0  0  0  0
   -0.8900   -6.0744    3.5798 C   0  0  0  0  0  0  0  0  0  0  0  0
   -0.8407   -7.4749    4.0117 N   0  0  0  0  0  0  0  0  0  0  0  0
   -0.8623   -8.5728    3.1497 C   0  0  0  0  0  0  0  0  0  0  0  0
   -0.8251   -9.9095    3.9130 C   0  0  0  0  0  0  0  0  0  0  0  0
   -0.1490   -9.8811    5.1940 O   0  0  0  0  0  0  0  0  0  0  0  0
    1.2024   -9.9393    5.1582 C   0  0  0  0  0  0  0  0  0  0  0  0
    1.8529   -9.8938    6.5162 C   0  0  0  0  0  0  0  0  0  0  0  0
    1.8428  -10.0148    4.1228 O   0  0  0  0  0  0  0  0  0  0  0  0
   -0.9880   -8.4791    1.9554 O   0  0  0  0  0  0  0  0  0  0  0  0
    2.0774    0.0648    0.2255 H   0  0  0  0  0  0  0  0  0  0  0  0
    0.7682    1.2332    0.0123 H   0  0  0  0  0  0  0  0  0  0  0  0
    1.5766   -2.0043    1.6825 H   0  0  0  0  0  0  0  0  0  0  0  0
   -0.6161   -1.1227    5.2654 H   0  0  0  0  0  0  0  0  0  0  0  0
   -0.9451    1.2009    4.4633 H   0  0  0  0  0  0  0  0  0  0  0  0
   -0.4439    1.7692    2.1052 H   0  0  0  0  0  0  0  0  0  0  0  0
   -1.4557    0.2179   -1.1486 H   0  0  0  0  0  0  0  0  0  0  0  0
   -1.4931   -0.8352    0.2675 H   0  0  0  0  0  0  0  0  0  0  0  0
   -2.6123   -2.0211   -1.5232 H   0  0  0  0  0  0  0  0  0  0  0  0
   -1.0892   -2.8370   -1.1778 H   0  0  0  0  0  0  0  0  0  0  0  0
   -1.3532   -2.5994   -3.6225 H   0  0  0  0  0  0  0  0  0  0  0  0
   -1.6163   -0.8634   -3.4518 H   0  0  0  0  0  0  0  0  0  0  0  0
    0.9528   -2.4175   -2.9254 H   0  0  0  0  0  0  0  0  0  0  0  0
    0.6860   -1.1488   -4.1166 H   0  0  0  0  0  0  0  0  0  0  0  0
    1.9948   -0.4201   -2.0947 H   0  0  0  0  0  0  0  0  0  0  0  0
    0.5667    0.5680   -2.4005 H   0  0  0  0  0  0  0  0  0  0  0  0
    0.3454   -3.9465    1.9244 H   0  0  0  0  0  0  0  0  0  0  0  0
    1.8319   -3.9441    2.9081 H   0  0  0  0  0  0  0  0  0  0  0  0
    0.9993   -6.1891    2.5969 H   0  0  0  0  0  0  0  0  0  0  0  0
    1.0997   -5.7339    4.2877 H   0  0  0  0  0  0  0  0  0  0  0  0
   -1.4006   -5.5188    4.3728 H   0  0  0  0  0  0  0  0  0  0  0  0
   -1.4833   -6.0058    2.6611 H   0  0  0  0  0  0  0  0  0  0  0  0
   -0.5734   -7.6699    4.9636 H   0  0  0  0  0  0  0  0  0  0  0  0
   -1.8724  -10.1799    4.1186 H   0  0  0  0  0  0  0  0  0  0  0  0
   -0.4255  -10.7098    3.2698 H   0  0  0  0  0  0  0  0  0  0  0  0
    2.1358  -10.9010    6.8282 H   0  0  0  0  0  0  0  0  0  0  0  0
    2.7577   -9.2772    6.4522 H   0  0  0  0  0  0  0  0  0  0  0  0
    1.2070   -9.4397    7.2760 H   0  0  0  0  0  0  0  0  0  0  0  0
  1  2  1  0  0  0  0
  1  3  1  0  0  0  0
  1 26  1  0  0  0  0
  1 27  1  0  0  0  0
  2  4  2  0  0  0  0
  3  9  1  0  0  0  0
  4  5  1  0  0  0  0
  4 28  1  0  0  0  0
  5  6  2  0  0  0  0
  5 14  1  0  0  0  0
  6  7  1  0  0  0  0
  6 29  1  0  0  0  0
  7  8  2  0  0  0  0
  7 30  1  0  0  0  0
  8  2  1  0  0  0  0
  8 31  1  0  0  0  0
  9 10  1  0  0  0  0
  9 32  1  0  0  0  0
  9 33  1  0  0  0  0
 10 11  1  0  0  0  0
 10 34  1  0  0  0  0
 10 35  1  0  0  0  0
 11 12  1  0  0  0  0
 11 36  1  0  0  0  0
 11 37  1  0  0  0  0
 12 13  1  0  0  0  0
 12 38  1  0  0  0  0
 12 39  1  0  0  0  0
 13  3  1  0  0  0  0
 13 40  1  0  0  0  0
 13 41  1  0  0  0  0
 14 15  1  0  0  0  0
 15 16  1  0  0  0  0
 15 42  1  0  0  0  0
 15 43  1  0  0  0  0
 16 17  1  0  0  0  0
 16 44  1  0  0  0  0
 16 45  1  0  0  0  0
 17 18  1  0  0  0  0
 17 46  1  0  0  0  0
 17 47  1  0  0  0  0
 18 19  1  0  0  0  0
 18 48  1  0  0  0  0
 19 20  1  0  0  0  0
 19 25  2  0  0  0  0
 20 21  1  0  0  0  0
 20 49  1  0  0  0  0
 20 50  1  0  0  0  0
 21 22  1  0  0  0  0
 22 23  1  0  0  0  0
 22 24  2  0  0  0  0
 23 51  1  0  0  0  0
 23 52  1  0  0  0  0
 23 53  1  0  0  0  0
M  END
>  <Mol_ID>
1116

>  <Formula>
C19H29ClN2O4

>  <MolWeight>
384.89756

>  <Cat>
S1880

>  <Name>
Roxatidine Acetate HCl

>  <Synonyms>
HOE 760

>  <Target>
Histamine Receptor

>  <Form>
Hydrochloride

>  <CAS>
93793-83-0

>  <URL>
http://selleckchem.com/products/roxatidine-acetate-hcl.html

$$$$
