RRx-001.cdx
 OpenBabel08302520433D

 20 20  0  0  0  0  0  0  0  0999 V2000
    0.3616    1.0257   -0.0739 C   0  0  0  0  0  0  0  0  0  0  0  0
   -0.9181    0.3406    0.0110 N   0  0  0  0  0  0  0  0  0  0  0  0
   -0.3256   -0.9894   -0.1028 C   0  0  0  0  0  0  0  0  0  0  0  0
    1.0139   -0.3316    0.2666 C   0  0  0  0  0  0  0  0  0  0  0  0
    2.1132   -0.7403   -0.6363 N   0  3  0  0  0  0  0  0  0  0  0  0
    2.3394   -1.9524   -0.7439 O   0  0  0  0  0  0  0  0  0  0  0  0
    2.7297    0.1467   -1.2423 O   0  5  0  0  0  0  0  0  0  0  0  0
    1.4002   -0.4295    1.6989 N   0  3  0  0  0  0  0  0  0  0  0  0
    1.0180   -1.4124    2.3456 O   0  0  0  0  0  0  0  0  0  0  0  0
    2.0945    0.4878    2.1595 O   0  5  0  0  0  0  0  0  0  0  0  0
   -2.1405    0.6602    0.5444 C   0  0  0  0  0  0  0  0  0  0  0  0
   -3.0167   -0.1929    0.6763 O   0  0  0  0  0  0  0  0  0  0  0  0
   -2.3423    2.0882    0.9881 C   0  0  0  0  0  0  0  0  0  0  0  0
   -1.8152    2.1733    2.8559 Br  0  0  0  0  0  0  0  0  0  0  0  0
    0.5247    1.4213   -1.0831 H   0  0  0  0  0  0  0  0  0  0  0  0
    0.4966    1.8388    0.6431 H   0  0  0  0  0  0  0  0  0  0  0  0
   -0.7405   -1.7250    0.5916 H   0  0  0  0  0  0  0  0  0  0  0  0
   -0.4177   -1.3772   -1.1243 H   0  0  0  0  0  0  0  0  0  0  0  0
   -1.7307    2.7955    0.4261 H   0  0  0  0  0  0  0  0  0  0  0  0
   -3.3957    2.3665    0.9186 H   0  0  0  0  0  0  0  0  0  0  0  0
  1  2  1  0  0  0  0
  1 15  1  0  0  0  0
  1 16  1  0  0  0  0
  2  3  1  0  0  0  0
  2 11  1  0  0  0  0
  3  4  1  0  0  0  0
  3 17  1  0  0  0  0
  3 18  1  0  0  0  0
  4  1  1  0  0  0  0
  4  5  1  0  0  0  0
  4  8  1  0  0  0  0
  5  6  2  0  0  0  0
  5  7  1  0  0  0  0
  8  9  2  0  0  0  0
  8 10  1  0  0  0  0
 11 12  2  0  0  0  0
 11 13  1  0  0  0  0
 13 14  1  0  0  0  0
 13 19  1  0  0  0  0
 13 20  1  0  0  0  0
M  CHG  4   5   1   7  -1   8   1  10  -1
M  END
>  <Mol_ID>
4103

>  <Formula>
C5H6BrN3O5

>  <MolWeight>
268.02224

>  <Cat>
S8405

>  <Name>
RRx-001

>  <Synonyms>
N/A

>  <Target>
Apoptosis related,Dehydrogenase

>  <Form>
free base

>  <CAS>
925206-65-1

>  <URL>
http://selleckchem.com/products/rrx-001.html

$$$$
