RS-127445.cdx
 OpenBabel08302521443D

 37 39  0  0  0  0  0  0  0  0999 V2000
   -0.4414    1.3043    1.1433 C   0  0  0  0  0  0  0  0  0  0  0  0
   -0.8057   -0.0384    1.1495 C   0  0  0  0  0  0  0  0  0  0  0  0
   -1.0461   -0.6815   -0.0511 C   0  0  0  0  0  0  0  0  0  0  0  0
   -0.9480   -0.0134   -1.2784 C   0  0  0  0  0  0  0  0  0  0  0  0
   -0.5958    1.3660   -1.3036 C   0  0  0  0  0  0  0  0  0  0  0  0
   -0.3242    2.0413   -0.0602 C   0  0  0  0  0  0  0  0  0  0  0  0
   -1.1969   -0.7086   -2.4764 C   0  0  0  0  0  0  0  0  0  0  0  0
   -1.1138   -0.0756   -3.7124 C   0  0  0  0  0  0  0  0  0  0  0  0
   -0.7948    1.2687   -3.7675 C   0  0  0  0  0  0  0  0  0  0  0  0
   -0.5556    1.9751   -2.5853 C   0  0  0  0  0  0  0  0  0  0  0  0
    0.0898    3.4695    0.0210 C   0  0  0  0  0  0  0  0  0  0  0  0
   -1.3816   -1.9787   -0.0178 F   0  0  0  0  0  0  0  0  0  0  0  0
   -0.2847    4.2922    1.0667 C   0  0  0  0  0  0  0  0  0  0  0  0
    0.1861    5.5899    1.0467 C   0  0  0  0  0  0  0  0  0  0  0  0
    0.9371    6.0630    0.0321 N   0  0  0  0  0  0  0  0  0  0  0  0
    1.2222    5.2150   -0.9535 C   0  0  0  0  0  0  0  0  0  0  0  0
    0.8778    3.9292   -0.9713 N   0  0  0  0  0  0  0  0  0  0  0  0
    1.9290    5.6927   -2.0361 N   0  0  0  0  0  0  0  0  0  0  0  0
   -0.1453    6.5326    2.1835 C   0  0  0  0  0  0  0  0  0  0  0  0
    1.1312    7.0271    2.8644 C   0  0  0  0  0  0  0  0  0  0  0  0
   -0.9969    7.6973    1.6825 C   0  0  0  0  0  0  0  0  0  0  0  0
   -0.2302    1.7692    2.1049 H   0  0  0  0  0  0  0  0  0  0  0  0
   -0.8928   -0.5870    2.0816 H   0  0  0  0  0  0  0  0  0  0  0  0
   -1.4587   -1.7657   -2.4479 H   0  0  0  0  0  0  0  0  0  0  0  0
   -1.3030   -0.6317   -4.6262 H   0  0  0  0  0  0  0  0  0  0  0  0
   -0.7262    1.7822   -4.7231 H   0  0  0  0  0  0  0  0  0  0  0  0
   -0.3294    3.0320   -2.6961 H   0  0  0  0  0  0  0  0  0  0  0  0
   -0.9192    3.9457    1.8717 H   0  0  0  0  0  0  0  0  0  0  0  0
    2.3928    4.9292   -2.5073 H   0  0  0  0  0  0  0  0  0  0  0  0
    2.4872    6.4876   -1.7624 H   0  0  0  0  0  0  0  0  0  0  0  0
   -0.7314    5.9927    2.9388 H   0  0  0  0  0  0  0  0  0  0  0  0
    1.7674    7.5942    2.1760 H   0  0  0  0  0  0  0  0  0  0  0  0
    0.8902    7.6757    3.7129 H   0  0  0  0  0  0  0  0  0  0  0  0
    1.7212    6.1844    3.2435 H   0  0  0  0  0  0  0  0  0  0  0  0
   -1.9226    7.3316    1.2236 H   0  0  0  0  0  0  0  0  0  0  0  0
   -1.2711    8.3595    2.5101 H   0  0  0  0  0  0  0  0  0  0  0  0
   -0.4676    8.2946    0.9320 H   0  0  0  0  0  0  0  0  0  0  0  0
  1  2  2  0  0  0  0
  1 22  1  0  0  0  0
  2  3  1  0  0  0  0
  2 23  1  0  0  0  0
  3  4  2  0  0  0  0
  3 12  1  0  0  0  0
  4  5  1  0  0  0  0
  4  7  1  0  0  0  0
  5  6  2  0  0  0  0
  6  1  1  0  0  0  0
  6 11  1  0  0  0  0
  7  8  2  0  0  0  0
  7 24  1  0  0  0  0
  8  9  1  0  0  0  0
  8 25  1  0  0  0  0
  9 10  2  0  0  0  0
  9 26  1  0  0  0  0
 10  5  1  0  0  0  0
 10 27  1  0  0  0  0
 11 13  2  0  0  0  0
 13 14  1  0  0  0  0
 13 28  1  0  0  0  0
 14 15  2  0  0  0  0
 14 19  1  0  0  0  0
 15 16  1  0  0  0  0
 16 17  2  0  0  0  0
 16 18  1  0  0  0  0
 17 11  1  0  0  0  0
 18 29  1  0  0  0  0
 18 30  1  0  0  0  0
 19 20  1  0  0  0  0
 19 21  1  0  0  0  0
 19 31  1  0  0  0  0
 20 32  1  0  0  0  0
 20 33  1  0  0  0  0
 20 34  1  0  0  0  0
 21 35  1  0  0  0  0
 21 36  1  0  0  0  0
 21 37  1  0  0  0  0
M  END
>  <Mol_ID>
908

>  <Formula>
C17H16FN3

>  <MolWeight>
281.3274432

>  <Cat>
S2698

>  <Name>
RS-127445

>  <Synonyms>
MT500

>  <Target>
5-HT Receptor

>  <Form>
free base

>  <CAS>
199864-87-4

>  <URL>
http://selleckchem.com/products/rs-127445.html

$$$$
