RS102895
 OpenBabel08302521313D

 49 52  0  0  0  0  0  0  0  0999 V2000
   13.1545   -8.4294    2.3558 F   0  0  0  0  0  0  0  0  0  0  0  0
   11.8485   -9.0625    3.9683 F   0  0  0  0  0  0  0  0  0  0  0  0
   13.1352   -7.3322    4.2375 F   0  0  0  0  0  0  0  0  0  0  0  0
    3.0342   -3.2364   -1.3271 O   0  0  0  0  0  0  0  0  0  0  0  0
    2.1638   -1.4688   -0.1556 O   0  0  0  0  0  0  0  0  0  0  0  0
    7.1468   -4.5298   -1.2612 N   0  0  0  0  0  0  0  0  0  0  0  0
    2.7723   -3.3384    1.0079 N   0  0  0  0  0  0  0  0  0  0  0  0
    4.2632   -4.0096   -1.1620 C   0  0  0  0  0  0  0  0  0  0  0  0
    4.7910   -4.6343   -2.4786 C   0  0  0  0  0  0  0  0  0  0  0  0
    5.3116   -2.8695   -0.8814 C   0  0  0  0  0  0  0  0  0  0  0  0
    6.3595   -4.7197   -2.5197 C   0  0  0  0  0  0  0  0  0  0  0  0
    6.7661   -3.2522   -0.6723 C   0  0  0  0  0  0  0  0  0  0  0  0
    3.8257   -5.0967   -0.1663 C   0  0  0  0  0  0  0  0  0  0  0  0
    7.0546   -5.6396   -0.2946 C   0  0  0  0  0  0  0  0  0  0  0  0
    3.1928   -4.6613    0.9914 C   0  0  0  0  0  0  0  0  0  0  0  0
    7.5400   -5.5439    1.1800 C   0  0  0  0  0  0  0  0  0  0  0  0
    3.9458   -6.4999   -0.3290 C   0  0  0  0  0  0  0  0  0  0  0  0
    2.6315   -2.6231   -0.1602 C   0  0  0  0  0  0  0  0  0  0  0  0
    2.8927   -5.5358    2.0472 C   0  0  0  0  0  0  0  0  0  0  0  0
    3.6465   -7.3886    0.7097 C   0  0  0  0  0  0  0  0  0  0  0  0
    8.8914   -5.9665    1.6834 C   0  0  0  0  0  0  0  0  0  0  0  0
    3.1526   -6.9020    1.9132 C   0  0  0  0  0  0  0  0  0  0  0  0
   10.0620   -6.0182    0.9320 C   0  0  0  0  0  0  0  0  0  0  0  0
    8.9511   -6.3166    3.0484 C   0  0  0  0  0  0  0  0  0  0  0  0
   11.2243   -6.5693    1.4974 C   0  0  0  0  0  0  0  0  0  0  0  0
   10.0976   -6.8647    3.6089 C   0  0  0  0  0  0  0  0  0  0  0  0
   11.2190   -7.0827    2.8075 C   0  0  0  0  0  0  0  0  0  0  0  0
   12.3332   -7.9539    3.3327 C   0  0  0  0  0  0  0  0  0  0  0  0
    2.3749   -2.9320    1.8429 H   0  0  0  0  0  0  0  0  0  0  0  0
    4.3724   -5.6223   -2.6883 H   0  0  0  0  0  0  0  0  0  0  0  0
    4.4390   -4.0383   -3.3324 H   0  0  0  0  0  0  0  0  0  0  0  0
    5.0209   -2.1705   -0.0919 H   0  0  0  0  0  0  0  0  0  0  0  0
    5.2956   -2.2335   -1.7880 H   0  0  0  0  0  0  0  0  0  0  0  0
    6.6693   -5.6358   -3.0328 H   0  0  0  0  0  0  0  0  0  0  0  0
    6.6782   -3.9138   -3.1988 H   0  0  0  0  0  0  0  0  0  0  0  0
    7.0032   -3.1612    0.3866 H   0  0  0  0  0  0  0  0  0  0  0  0
    7.3973   -2.4808   -1.1348 H   0  0  0  0  0  0  0  0  0  0  0  0
    7.3225   -6.5986   -0.7505 H   0  0  0  0  0  0  0  0  0  0  0  0
    6.0092   -5.7111   -0.1059 H   0  0  0  0  0  0  0  0  0  0  0  0
    6.8459   -6.2254    1.7028 H   0  0  0  0  0  0  0  0  0  0  0  0
    7.3226   -4.5710    1.6243 H   0  0  0  0  0  0  0  0  0  0  0  0
    4.3559   -6.9431   -1.2306 H   0  0  0  0  0  0  0  0  0  0  0  0
    2.4143   -5.1766    2.9521 H   0  0  0  0  0  0  0  0  0  0  0  0
    3.8273   -8.4548    0.5737 H   0  0  0  0  0  0  0  0  0  0  0  0
    2.9244   -7.5909    2.7261 H   0  0  0  0  0  0  0  0  0  0  0  0
   10.0786   -5.6719   -0.0990 H   0  0  0  0  0  0  0  0  0  0  0  0
    8.0661   -6.2114    3.6755 H   0  0  0  0  0  0  0  0  0  0  0  0
   12.1256   -6.6484    0.8903 H   0  0  0  0  0  0  0  0  0  0  0  0
   10.0836   -7.1839    4.6497 H   0  0  0  0  0  0  0  0  0  0  0  0
  1 28  1  0  0  0  0
  2 28  1  0  0  0  0
  3 28  1  0  0  0  0
  4  8  1  0  0  0  0
  4 18  1  0  0  0  0
  5 18  2  0  0  0  0
  6 11  1  0  0  0  0
  6 12  1  0  0  0  0
  6 14  1  0  0  0  0
  7 15  1  0  0  0  0
  7 18  1  0  0  0  0
  7 29  1  0  0  0  0
  8  9  1  0  0  0  0
  8 10  1  0  0  0  0
  8 13  1  0  0  0  0
  9 11  1  0  0  0  0
  9 30  1  0  0  0  0
  9 31  1  0  0  0  0
 10 12  1  0  0  0  0
 10 32  1  0  0  0  0
 10 33  1  0  0  0  0
 11 34  1  0  0  0  0
 11 35  1  0  0  0  0
 12 36  1  0  0  0  0
 12 37  1  0  0  0  0
 13 15  2  0  0  0  0
 13 17  1  0  0  0  0
 14 16  1  0  0  0  0
 14 38  1  0  0  0  0
 14 39  1  0  0  0  0
 15 19  1  0  0  0  0
 16 21  1  0  0  0  0
 16 40  1  0  0  0  0
 16 41  1  0  0  0  0
 17 20  2  0  0  0  0
 17 42  1  0  0  0  0
 19 22  2  0  0  0  0
 19 43  1  0  0  0  0
 20 22  1  0  0  0  0
 20 44  1  0  0  0  0
 21 23  2  0  0  0  0
 21 24  1  0  0  0  0
 22 45  1  0  0  0  0
 23 25  1  0  0  0  0
 23 46  1  0  0  0  0
 24 26  2  0  0  0  0
 24 47  1  0  0  0  0
 25 27  2  0  0  0  0
 25 48  1  0  0  0  0
 26 27  1  0  0  0  0
 26 49  1  0  0  0  0
 27 28  1  0  0  0  0
M  END
>  <Mol_ID>
6004

>  <Formula>
C21H21F3N2O2

>  <MolWeight>
390.3988496

>  <Cat>
S3383

>  <Name>
RS102895

>  <Synonyms>
N/A

>  <Target>
CCR

>  <Form>
Free Base

>  <CAS>
300815-41-2

>  <URL>
http://www.selleckchem.com/products/rs102895.html

$$$$
