RTICBM-189
 OpenBabel08302521323D

 34 35  0  0  0  0  0  0  0  0999 V2000
    0.9890   -0.2437   -0.0517 C   0  0  0  0  0  0  0  0  0  0  0  0
    0.4606   -0.7815   -1.3810 C   0  0  0  0  0  0  0  0  0  0  0  0
    0.7672   -2.1788   -1.6326 N   0  0  0  0  0  0  0  0  0  0  0  0
    0.3643   -2.7393   -2.8262 C   0  0  0  0  0  0  0  0  0  0  0  0
    0.6785   -4.0780   -2.9103 N   0  0  0  0  0  0  0  0  0  0  0  0
   -0.2390   -2.0783   -3.6607 O   0  0  0  0  0  0  0  0  0  0  0  0
    0.5208   -0.9422    1.2052 C   0  0  0  0  0  0  0  0  0  0  0  0
    1.3711   -0.9779    2.3199 C   0  0  0  0  0  0  0  0  0  0  0  0
   -0.7644   -1.4894    1.3264 C   0  0  0  0  0  0  0  0  0  0  0  0
    0.9613   -1.5753    3.5130 C   0  0  0  0  0  0  0  0  0  0  0  0
   -1.1740   -2.0868    2.5208 C   0  0  0  0  0  0  0  0  0  0  0  0
   -0.3101   -2.1326    3.6123 C   0  0  0  0  0  0  0  0  0  0  0  0
    0.3645   -4.9274   -3.9969 C   0  0  0  0  0  0  0  0  0  0  0  0
   -0.0149   -4.4499   -5.2564 C   0  0  0  0  0  0  0  0  0  0  0  0
    0.4221   -6.3116   -3.7958 C   0  0  0  0  0  0  0  0  0  0  0  0
   -0.3787   -5.3303   -6.2779 C   0  0  0  0  0  0  0  0  0  0  0  0
    0.0542   -7.1951   -4.8176 C   0  0  0  0  0  0  0  0  0  0  0  0
   -0.3555   -6.7034   -6.0554 C   0  0  0  0  0  0  0  0  0  0  0  0
    0.7047    0.8134    0.0323 H   0  0  0  0  0  0  0  0  0  0  0  0
    2.0859   -0.2754   -0.0876 H   0  0  0  0  0  0  0  0  0  0  0  0
   -0.6271   -0.6620   -1.4511 H   0  0  0  0  0  0  0  0  0  0  0  0
    0.8922   -0.1940   -2.2007 H   0  0  0  0  0  0  0  0  0  0  0  0
    1.4555   -2.6487   -1.0615 H   0  0  0  0  0  0  0  0  0  0  0  0
    0.9601   -4.5228   -2.0528 H   0  0  0  0  0  0  0  0  0  0  0  0
    2.3614   -0.5307    2.2698 H   0  0  0  0  0  0  0  0  0  0  0  0
   -1.4710   -1.4546    0.4995 H   0  0  0  0  0  0  0  0  0  0  0  0
    1.6326   -1.5965    4.3682 H   0  0  0  0  0  0  0  0  0  0  0  0
   -2.1732   -2.5065    2.5997 H   0  0  0  0  0  0  0  0  0  0  0  0
   -0.6334   -2.5921    4.5424 H   0  0  0  0  0  0  0  0  0  0  0  0
   -0.0365   -3.3871   -5.4775 H   0  0  0  0  0  0  0  0  0  0  0  0
    0.7239   -6.7240   -2.8370 H   0  0  0  0  0  0  0  0  0  0  0  0
   -0.6872   -4.9343   -7.2402 H   0  0  0  0  0  0  0  0  0  0  0  0
    0.0747   -8.2676   -4.6447 H   0  0  0  0  0  0  0  0  0  0  0  0
   -0.6549   -7.3850   -6.8464 H   0  0  0  0  0  0  0  0  0  0  0  0
  1  2  1  0  0  0  0
  1  7  1  0  0  0  0
  1 19  1  0  0  0  0
  1 20  1  0  0  0  0
  2  3  1  0  0  0  0
  2 21  1  0  0  0  0
  2 22  1  0  0  0  0
  3  4  1  0  0  0  0
  3 23  1  0  0  0  0
  4  5  1  0  0  0  0
  4  6  2  0  0  0  0
  5 13  1  0  0  0  0
  5 24  1  0  0  0  0
  7  8  2  0  0  0  0
  7  9  1  0  0  0  0
  8 10  1  0  0  0  0
  8 25  1  0  0  0  0
  9 11  2  0  0  0  0
  9 26  1  0  0  0  0
 10 12  2  0  0  0  0
 10 27  1  0  0  0  0
 11 12  1  0  0  0  0
 11 28  1  0  0  0  0
 12 29  1  0  0  0  0
 13 14  2  0  0  0  0
 13 15  1  0  0  0  0
 14 16  1  0  0  0  0
 14 30  1  0  0  0  0
 15 17  2  0  0  0  0
 15 31  1  0  0  0  0
 16 18  2  0  0  0  0
 16 32  1  0  0  0  0
 17 18  1  0  0  0  0
 17 33  1  0  0  0  0
 18 34  1  0  0  0  0
M  END
>  <Mol_ID>
6277

>  <Formula>
C15H14Cl2N2O

>  <MolWeight>
309.19046

>  <Cat>
E0458

>  <Name>
RTICBM-189

>  <Synonyms>
N/A

>  <Target>
Cannabinoid Receptor

>  <Form>
free base

>  <CAS>
551909-15-0

>  <URL>
http://www.selleckchem.com/products/rticbm-189.html

$$$$
