RU.521
 OpenBabel08302521243D

 40 44  0  0  0  0  0  0  0  0999 V2000
    1.8562   -1.1434   -0.6749 O   0  0  0  0  0  0  0  0  0  0  0  0
    2.4986    1.0591   -0.4749 O   0  0  0  0  0  0  0  0  0  0  0  0
    0.2119   -4.2034   -3.5656 N   0  0  0  0  0  0  0  0  0  0  0  0
    1.3699   -4.6444   -3.0248 N   0  0  0  0  0  0  0  0  0  0  0  0
   -1.2686   -4.8473   -5.4343 N   0  0  0  0  0  0  0  0  0  0  0  0
    0.5781   -6.0153   -5.0283 N   0  0  0  0  0  0  0  0  0  0  0  0
    0.6181   -1.8932   -0.6916 C   0  0  3  0  0  0  0  0  0  0  0  0
    0.5738   -2.8459   -1.8423 C   0  0  0  0  0  0  0  0  0  0  0  0
   -0.4191   -0.8409   -0.6745 C   0  0  0  0  0  0  0  0  0  0  0  0
    1.5981   -3.8292   -2.0011 C   0  0  0  0  0  0  0  0  0  0  0  0
   -0.2977   -3.0931   -2.9059 C   0  0  0  0  0  0  0  0  0  0  0  0
    0.2061    0.3886   -0.5512 C   0  0  0  0  0  0  0  0  0  0  0  0
   -0.2127   -4.9647   -4.6596 C   0  0  0  0  0  0  0  0  0  0  0  0
    1.6466    0.1995   -0.5719 C   0  0  0  0  0  0  0  0  0  0  0  0
   -1.7967   -0.9231   -0.5530 C   0  0  0  0  0  0  0  0  0  0  0  0
    2.8156   -4.0509   -1.1734 C   0  0  0  0  0  0  0  0  0  0  0  0
   -1.0816   -5.8397   -6.4094 C   0  0  0  0  0  0  0  0  0  0  0  0
   -0.4821    1.5723   -0.3356 C   0  0  0  0  0  0  0  0  0  0  0  0
    0.0950   -6.5420   -6.1834 C   0  0  0  0  0  0  0  0  0  0  0  0
   -2.5196    0.2576   -0.3395 C   0  0  0  0  0  0  0  0  0  0  0  0
   -1.8683    1.4984   -0.2330 C   0  0  0  0  0  0  0  0  0  0  0  0
   -1.8433   -6.2031   -7.5320 C   0  0  0  0  0  0  0  0  0  0  0  0
    0.6177   -7.5325   -7.0123 C   0  0  0  0  0  0  0  0  0  0  0  0
   -1.3217   -7.1660   -8.4202 C   0  0  0  0  0  0  0  0  0  0  0  0
   -0.0894   -7.7835   -8.1855 C   0  0  0  0  0  0  0  0  0  0  0  0
   -1.4164   -2.4764   -3.2832 O   0  0  0  0  0  0  0  0  0  0  0  0
    1.4271   -6.2681   -4.5445 H   0  0  0  0  0  0  0  0  0  0  0  0
    0.5781   -2.4566    0.2493 H   0  0  0  0  0  0  0  0  0  0  0  0
   -2.3073   -1.8803   -0.5949 H   0  0  0  0  0  0  0  0  0  0  0  0
    3.4347   -3.1515   -1.1455 H   0  0  0  0  0  0  0  0  0  0  0  0
    2.5317   -4.3227   -0.1532 H   0  0  0  0  0  0  0  0  0  0  0  0
    3.4307   -4.8605   -1.5810 H   0  0  0  0  0  0  0  0  0  0  0  0
    0.0492    2.5124   -0.2177 H   0  0  0  0  0  0  0  0  0  0  0  0
   -3.6027    0.2124   -0.2339 H   0  0  0  0  0  0  0  0  0  0  0  0
   -2.4458    2.3999   -0.0459 H   0  0  0  0  0  0  0  0  0  0  0  0
   -2.7970   -5.7284   -7.7361 H   0  0  0  0  0  0  0  0  0  0  0  0
    1.5440   -8.0457   -6.7824 H   0  0  0  0  0  0  0  0  0  0  0  0
   -1.8763   -7.4292   -9.3189 H   0  0  0  0  0  0  0  0  0  0  0  0
    0.3305   -8.4681   -8.9194 H   0  0  0  0  0  0  0  0  0  0  0  0
   -1.7468   -2.8952   -4.1085 H   0  0  0  0  0  0  0  0  0  0  0  0
  1  7  1  0  0  0  0
  1 14  1  0  0  0  0
  2 14  2  0  0  0  0
  3  4  1  0  0  0  0
  3 11  1  0  0  0  0
  3 13  1  0  0  0  0
  4 10  2  0  0  0  0
  5 13  2  0  0  0  0
  5 17  1  0  0  0  0
  6 13  1  0  0  0  0
  6 19  1  0  0  0  0
  6 27  1  0  0  0  0
  7  8  1  0  0  0  0
  7  9  1  0  0  0  0
  7 28  1  0  0  0  0
  8 10  1  0  0  0  0
  8 11  2  0  0  0  0
  9 12  2  0  0  0  0
  9 15  1  0  0  0  0
 10 16  1  0  0  0  0
 11 26  1  0  0  0  0
 12 14  1  0  0  0  0
 12 18  1  0  0  0  0
 15 20  2  0  0  0  0
 15 29  1  0  0  0  0
 16 30  1  0  0  0  0
 16 31  1  0  0  0  0
 16 32  1  0  0  0  0
 17 19  2  0  0  0  0
 17 22  1  0  0  0  0
 18 21  2  0  0  0  0
 18 33  1  0  0  0  0
 19 23  1  0  0  0  0
 20 21  1  0  0  0  0
 20 34  1  0  0  0  0
 21 35  1  0  0  0  0
 22 24  2  0  0  0  0
 22 36  1  0  0  0  0
 23 25  2  0  0  0  0
 23 37  1  0  0  0  0
 24 25  1  0  0  0  0
 24 38  1  0  0  0  0
 25 39  1  0  0  0  0
 26 40  1  0  0  0  0
M  END
>  <Mol_ID>
5013

>  <Formula>
C19H12Cl2N4O3

>  <MolWeight>
415.22958

>  <Cat>
S6841

>  <Name>
RU.521

>  <Synonyms>
RU320521

>  <Target>
cGAS

>  <Form>
Free Base

>  <CAS>
2262452-06-0

>  <URL>
http://www.selleckchem.com/products/ru-521.html

$$$$
