Rubitecan
 OpenBabel08302521233D

 44 48  0  0  0  0  0  0  0  0999 V2000
    0.6924   -1.1848   -0.8037 N   0  0  0  0  0  0  0  0  0  0  0  0
   -0.3726   -0.3682   -0.7768 C   0  0  0  0  0  0  0  0  0  0  0  0
   -0.2659    0.9089   -0.2187 C   0  0  0  0  0  0  0  0  0  0  0  0
    0.9686    1.5179   -0.0711 C   0  0  0  0  0  0  0  0  0  0  0  0
    2.1302    0.7205   -0.2253 C   0  0  0  0  0  0  0  0  0  0  0  0
    3.4775    1.1669   -0.0614 C   0  0  0  0  0  0  0  0  0  0  0  0
    4.5660    0.2982    0.0124 C   0  0  0  0  0  0  0  0  0  0  0  0
    4.3176   -1.0599   -0.0565 C   0  0  0  0  0  0  0  0  0  0  0  0
    3.0107   -1.5142   -0.3169 C   0  0  0  0  0  0  0  0  0  0  0  0
    1.9105   -0.6623   -0.4758 C   0  0  0  0  0  0  0  0  0  0  0  0
   -1.5783    1.2878    0.4057 C   0  0  0  0  0  0  0  0  0  0  0  0
   -2.2223   -0.0322    0.4436 N   0  0  0  0  0  0  0  0  0  0  0  0
   -3.0654   -0.6037    1.3689 C   0  0  0  0  0  0  0  0  0  0  0  0
   -3.5639   -1.9540    0.9478 C   0  0  0  0  0  0  0  0  0  0  0  0
   -4.0573   -1.7222   -0.2820 C   0  0  0  0  0  0  0  0  0  0  0  0
   -2.7755   -1.5716   -1.1645 C   0  0  0  0  0  0  0  0  0  0  0  0
   -1.8031   -0.7774   -0.6348 C   0  0  0  0  0  0  0  0  0  0  0  0
   -3.0063   -3.3937    0.9563 C   0  0  0  0  0  0  0  0  0  0  0  0
   -5.2516   -2.6671   -0.4391 C   0  0  1  0  0  0  0  0  0  0  0  0
   -4.5919   -3.8695   -1.0416 C   0  0  0  0  0  0  0  0  0  0  0  0
   -3.4523   -4.2316   -0.2824 O   0  0  0  0  0  0  0  0  0  0  0  0
   -4.9012   -4.4216   -2.1124 O   0  0  0  0  0  0  0  0  0  0  0  0
   -3.5576   -0.0255    2.3295 O   0  0  0  0  0  0  0  0  0  0  0  0
    3.7995    2.5969   -0.0444 N   0  3  0  0  0  0  0  0  0  0  0  0
    3.3512    3.2530    0.8866 O   0  0  0  0  0  0  0  0  0  0  0  0
    4.5206    3.0001   -0.9655 O   0  5  0  0  0  0  0  0  0  0  0  0
   -5.6109   -3.3959    0.8473 O   0  0  0  0  0  0  0  0  0  0  0  0
   -6.6204   -1.9896   -0.5947 C   0  0  0  0  0  0  0  0  0  0  0  0
   -6.8773   -1.0117   -1.7115 C   0  0  0  0  0  0  0  0  0  0  0  0
    1.0226    2.5396    0.2988 H   0  0  0  0  0  0  0  0  0  0  0  0
    5.5815    0.6651    0.1452 H   0  0  0  0  0  0  0  0  0  0  0  0
    5.1314   -1.7738    0.0567 H   0  0  0  0  0  0  0  0  0  0  0  0
    2.8432   -2.5868   -0.3746 H   0  0  0  0  0  0  0  0  0  0  0  0
   -2.1465    1.9246   -0.2831 H   0  0  0  0  0  0  0  0  0  0  0  0
   -1.5230    1.7335    1.4004 H   0  0  0  0  0  0  0  0  0  0  0  0
   -2.5870   -2.2355   -2.0054 H   0  0  0  0  0  0  0  0  0  0  0  0
   -3.3417   -3.9764    1.8138 H   0  0  0  0  0  0  0  0  0  0  0  0
   -1.9104   -3.4138    0.9045 H   0  0  0  0  0  0  0  0  0  0  0  0
   -5.7083   -2.7375    1.5554 H   0  0  0  0  0  0  0  0  0  0  0  0
   -7.4266   -2.7331   -0.5685 H   0  0  0  0  0  0  0  0  0  0  0  0
   -6.7803   -1.4030    0.3287 H   0  0  0  0  0  0  0  0  0  0  0  0
   -6.9738   -1.5289   -2.6662 H   0  0  0  0  0  0  0  0  0  0  0  0
   -7.8284   -0.4998   -1.5084 H   0  0  0  0  0  0  0  0  0  0  0  0
   -6.1061   -0.2410   -1.7693 H   0  0  0  0  0  0  0  0  0  0  0  0
  1  2  2  0  0  0  0
  1 10  1  0  0  0  0
  2  3  1  0  0  0  0
  2 17  1  0  0  0  0
  3  4  2  0  0  0  0
  3 11  1  0  0  0  0
  4  5  1  0  0  0  0
  4 30  1  0  0  0  0
  5  6  1  0  0  0  0
  5 10  2  0  0  0  0
  6  7  2  0  0  0  0
  6 24  1  0  0  0  0
  7  8  1  0  0  0  0
  7 31  1  0  0  0  0
  8  9  2  0  0  0  0
  8 32  1  0  0  0  0
  9 10  1  0  0  0  0
  9 33  1  0  0  0  0
 11 12  1  0  0  0  0
 11 34  1  0  0  0  0
 11 35  1  0  0  0  0
 12 13  1  0  0  0  0
 12 17  1  0  0  0  0
 13 14  1  0  0  0  0
 13 23  2  0  0  0  0
 14 15  2  0  0  0  0
 14 18  1  0  0  0  0
 15 16  1  0  0  0  0
 15 19  1  0  0  0  0
 16 17  2  0  0  0  0
 16 36  1  0  0  0  0
 18 21  1  0  0  0  0
 18 37  1  0  0  0  0
 18 38  1  0  0  0  0
 19 20  1  0  0  0  0
 19 27  1  1  0  0  0
 19 28  1  0  0  0  0
 20 21  1  0  0  0  0
 20 22  2  0  0  0  0
 24 25  2  0  0  0  0
 24 26  1  0  0  0  0
 27 39  1  0  0  0  0
 28 29  1  0  0  0  0
 28 40  1  0  0  0  0
 28 41  1  0  0  0  0
 29 42  1  0  0  0  0
 29 43  1  0  0  0  0
 29 44  1  0  0  0  0
M  CHG  2  24   1  26  -1
M  END
>  <Mol_ID>
4891

>  <Formula>
C20H15N3O6

>  <MolWeight>
393.3496

>  <Cat>
S2288

>  <Name>
Rubitecan

>  <Synonyms>
9-NC, 9-Nitro-camptothecin, Partaject Orathecin, Partaject rubitecan, RFS 2000

>  <Target>
Topoisomerase

>  <Form>
Free Base

>  <CAS>
91421-42-0

>  <URL>
http://www.selleckchem.com/products/rubitecan.html

$$$$
