Rufinamide.cdx
 OpenBabel08302521463D

 25 26  0  0  0  0  0  0  0  0999 V2000
   -1.0171   -1.2053    0.6848 C   0  0  0  0  0  0  0  0  0  0  0  0
    0.0596   -1.8912    0.1247 C   0  0  0  0  0  0  0  0  0  0  0  0
    1.0701   -1.1771   -0.5175 C   0  0  0  0  0  0  0  0  0  0  0  0
    1.0033    0.2143   -0.5812 C   0  0  0  0  0  0  0  0  0  0  0  0
   -0.0529    0.9209   -0.0064 C   0  0  0  0  0  0  0  0  0  0  0  0
   -1.0653    0.1864    0.6111 C   0  0  0  0  0  0  0  0  0  0  0  0
   -2.1038    0.8268    1.1659 F   0  0  0  0  0  0  0  0  0  0  0  0
    1.9957    0.8778   -1.1892 F   0  0  0  0  0  0  0  0  0  0  0  0
   -0.0960    2.4188   -0.0439 C   0  0  0  0  0  0  0  0  0  0  0  0
   -0.8302    2.9146   -1.1927 N   0  0  0  0  0  0  0  0  0  0  0  0
   -0.1994    3.1758   -2.3534 N   0  0  0  0  0  0  0  0  0  0  0  0
   -1.1049    3.6438   -3.2036 N   0  0  0  0  0  0  0  0  0  0  0  0
   -2.3185    3.6954   -2.5554 C   0  0  0  0  0  0  0  0  0  0  0  0
   -2.1484    3.2536   -1.2601 C   0  0  0  0  0  0  0  0  0  0  0  0
   -3.5509    4.1476   -3.1793 C   0  0  0  0  0  0  0  0  0  0  0  0
   -4.6342    4.1794   -2.6076 O   0  0  0  0  0  0  0  0  0  0  0  0
   -3.4224    4.5460   -4.4790 N   0  0  0  0  0  0  0  0  0  0  0  0
   -1.8168   -1.7450    1.1840 H   0  0  0  0  0  0  0  0  0  0  0  0
    0.1114   -2.9756    0.1878 H   0  0  0  0  0  0  0  0  0  0  0  0
    1.9152   -1.6932   -0.9644 H   0  0  0  0  0  0  0  0  0  0  0  0
   -0.5792    2.8155    0.8572 H   0  0  0  0  0  0  0  0  0  0  0  0
    0.9122    2.8483   -0.0730 H   0  0  0  0  0  0  0  0  0  0  0  0
   -2.8335    3.1505   -0.4310 H   0  0  0  0  0  0  0  0  0  0  0  0
   -2.5249    4.5212   -4.9454 H   0  0  0  0  0  0  0  0  0  0  0  0
   -4.2447    4.8592   -4.9749 H   0  0  0  0  0  0  0  0  0  0  0  0
  1  2  2  0  0  0  0
  1 18  1  0  0  0  0
  2  3  1  0  0  0  0
  2 19  1  0  0  0  0
  3  4  2  0  0  0  0
  3 20  1  0  0  0  0
  4  5  1  0  0  0  0
  4  8  1  0  0  0  0
  5  6  2  0  0  0  0
  5  9  1  0  0  0  0
  6  1  1  0  0  0  0
  6  7  1  0  0  0  0
  9 10  1  0  0  0  0
  9 21  1  0  0  0  0
  9 22  1  0  0  0  0
 10 11  1  0  0  0  0
 11 12  2  0  0  0  0
 12 13  1  0  0  0  0
 13 14  2  0  0  0  0
 13 15  1  0  0  0  0
 14 10  1  0  0  0  0
 14 23  1  0  0  0  0
 15 16  2  0  0  0  0
 15 17  1  0  0  0  0
 17 24  1  0  0  0  0
 17 25  1  0  0  0  0
M  END
>  <Mol_ID>
972

>  <Formula>
C10H8F2N4O

>  <MolWeight>
238.1935264

>  <Cat>
S1256

>  <Name>
Rufinamide

>  <Synonyms>
CGP 33101,E 2080,RUF 331,Banzel

>  <Target>
Sodium Channel

>  <Form>
free base

>  <CAS>
106308-44-5

>  <URL>
http://selleckchem.com/products/Rufinamide.html

$$$$
