Rupestonic acid
 OpenBabel08302521563D

 38 39  0  0  1  0  0  0  0  0999 V2000
    0.6840   -0.1250   -0.2139 C   0  0  0  0  0  0  0  0  0  0  0  0
   -0.2061   -3.1605    5.2489 C   0  0  0  0  0  0  0  0  0  0  0  0
    2.6934    0.7291    2.6935 C   0  0  0  0  0  0  0  0  0  0  0  0
    3.2827    1.9227    2.0181 C   0  0  0  0  0  0  0  0  0  0  0  0
    3.2534   -0.4782    2.4869 C   0  0  0  0  0  0  0  0  0  0  0  0
    4.6001    1.8336    1.7384 O   0  0  0  0  0  0  0  0  0  0  0  0
    2.6294    2.9216    1.7548 O   0  0  0  0  0  0  0  0  0  0  0  0
    0.5865   -3.0862   -0.0955 O   0  0  0  0  0  0  0  0  0  0  0  0
    0.0170   -0.6501    2.2202 C   0  0  0  0  0  0  0  0  0  0  0  0
   -0.3597   -1.8293    3.0799 C   0  0  1  0  0  0  0  0  0  0  0  0
    0.0826    0.7309    2.7858 C   0  0  0  0  0  0  0  0  0  0  0  0
    0.3145   -0.9674    0.9490 C   0  0  0  0  0  0  0  0  0  0  0  0
    0.2089   -3.0182    2.2945 C   0  0  0  0  0  0  0  0  0  0  0  0
   -0.0653   -1.7709    4.6045 C   0  0  2  0  0  0  0  0  0  0  0  0
    1.4183    0.9953    3.5212 C   0  0  1  0  0  0  0  0  0  0  0  0
    0.3595   -2.4438    0.9098 C   0  0  0  0  0  0  0  0  0  0  0  0
    1.2665   -1.1593    5.0739 C   0  0  0  0  0  0  0  0  0  0  0  0
    1.4181    0.3583    4.9249 C   0  0  0  0  0  0  0  0  0  0  0  0
    0.4486    0.9316   -0.0486 H   0  0  0  0  0  0  0  0  0  0  0  0
    0.1388   -0.4363   -1.1093 H   0  0  0  0  0  0  0  0  0  0  0  0
    1.7565   -0.1980   -0.4157 H   0  0  0  0  0  0  0  0  0  0  0  0
    0.6479   -3.8028    5.0065 H   0  0  0  0  0  0  0  0  0  0  0  0
   -0.2468   -3.0704    6.3405 H   0  0  0  0  0  0  0  0  0  0  0  0
   -1.1224   -3.6623    4.9252 H   0  0  0  0  0  0  0  0  0  0  0  0
    2.8286   -1.3852    2.8874 H   0  0  0  0  0  0  0  0  0  0  0  0
    4.1027   -0.6569    1.8386 H   0  0  0  0  0  0  0  0  0  0  0  0
    5.0519    1.0576    2.1148 H   0  0  0  0  0  0  0  0  0  0  0  0
   -1.4566   -1.9118    3.0078 H   0  0  0  0  0  0  0  0  0  0  0  0
   -0.7672    0.8840    3.4643 H   0  0  0  0  0  0  0  0  0  0  0  0
   -0.0530    1.4798    1.9981 H   0  0  0  0  0  0  0  0  0  0  0  0
   -0.4801   -3.8659    2.2810 H   0  0  0  0  0  0  0  0  0  0  0  0
    1.1968   -3.3294    2.6520 H   0  0  0  0  0  0  0  0  0  0  0  0
   -0.8598   -1.1498    5.0438 H   0  0  0  0  0  0  0  0  0  0  0  0
    1.4084    2.0758    3.7331 H   0  0  0  0  0  0  0  0  0  0  0  0
    2.1127   -1.7061    4.6596 H   0  0  0  0  0  0  0  0  0  0  0  0
    1.3478   -1.3424    6.1556 H   0  0  0  0  0  0  0  0  0  0  0  0
    2.3433    0.6587    5.4348 H   0  0  0  0  0  0  0  0  0  0  0  0
    0.6079    0.8268    5.5028 H   0  0  0  0  0  0  0  0  0  0  0  0
  1 12  1  0  0  0  0
  1 19  1  0  0  0  0
  1 20  1  0  0  0  0
  1 21  1  0  0  0  0
  2 22  1  0  0  0  0
  2 23  1  0  0  0  0
  2 24  1  0  0  0  0
  3  4  1  0  0  0  0
  3  5  2  0  0  0  0
  4  6  1  0  0  0  0
  4  7  2  0  0  0  0
  5 25  1  0  0  0  0
  5 26  1  0  0  0  0
  6 27  1  0  0  0  0
  8 16  2  0  0  0  0
  9 10  1  0  0  0  0
  9 11  1  0  0  0  0
  9 12  2  0  0  0  0
 10 13  1  0  0  0  0
 10 14  1  0  0  0  0
 10 28  1  6  0  0  0
 11 15  1  0  0  0  0
 11 29  1  0  0  0  0
 11 30  1  0  0  0  0
 12 16  1  0  0  0  0
 13 16  1  0  0  0  0
 13 31  1  0  0  0  0
 13 32  1  0  0  0  0
 14 17  1  0  0  0  0
 14 33  1  1  0  0  0
 14  2  1  0  0  0  0
 15 18  1  0  0  0  0
 15 34  1  1  0  0  0
 15  3  1  0  0  0  0
 17 18  1  0  0  0  0
 17 35  1  0  0  0  0
 17 36  1  0  0  0  0
 18 37  1  0  0  0  0
 18 38  1  0  0  0  0
M  END
>  <Mol_ID>
10058

>  <Formula>
C15H20O3

>  <MolWeight>
248.3175

>  <Cat>
E5630

>  <Name>
Rupestonic acid

>  <Synonyms>
N/A

>  <Target>
Influenza Virus

>  <Form>
free base

>  <CAS>
115473-63-7

>  <URL>
https://www.selleckchem.com/products/rupestonic-acid.html

$$$$
