(S,R,S)-AHPC (MDK7526)
 OpenBabel08302521243D

 60 62  0  0  0  0  0  0  0  0999 V2000
   -1.7076  -18.2541    6.3375 N   0  0  0  0  0  0  0  0  0  0  0  0
   -1.1115  -17.8360    7.4278 C   0  0  0  0  0  0  0  0  0  0  0  0
   -0.9871  -16.1419    7.6090 S   0  0  0  0  0  0  0  0  0  0  0  0
   -1.7962  -15.9176    6.0987 C   0  0  0  0  0  0  0  0  0  0  0  0
   -2.0955  -17.1640    5.5581 C   0  0  0  0  0  0  0  0  0  0  0  0
   -2.7717  -17.4760    4.2765 C   0  0  0  0  0  0  0  0  0  0  0  0
   -2.0774  -14.5566    5.6129 C   0  0  0  0  0  0  0  0  0  0  0  0
   -1.0798  -13.5730    5.5818 C   0  0  0  0  0  0  0  0  0  0  0  0
   -1.3662  -12.2653    5.1609 C   0  0  0  0  0  0  0  0  0  0  0  0
   -2.6553  -11.8938    4.7453 C   0  0  0  0  0  0  0  0  0  0  0  0
   -3.6533  -12.8704    4.7778 C   0  0  0  0  0  0  0  0  0  0  0  0
   -3.3649  -14.1906    5.1972 C   0  0  0  0  0  0  0  0  0  0  0  0
   -2.9358  -10.4358    4.4487 C   0  0  0  0  0  0  0  0  0  0  0  0
   -3.8529  -10.1696    3.3554 N   0  0  0  0  0  0  0  0  0  0  0  0
   -4.2400   -8.8564    3.1295 C   0  0  0  0  0  0  0  0  0  0  0  0
   -6.5726   -8.6695    2.1529 C   0  0  0  0  0  0  0  0  0  0  0  0
   -7.1508   -9.5839    1.0758 C   0  0  2  0  0  0  0  0  0  0  0  0
   -5.9717  -10.4719    0.6986 C   0  0  0  0  0  0  0  0  0  0  0  0
   -4.8176   -9.5769    0.7853 N   0  0  0  0  0  0  0  0  0  0  0  0
   -5.0607   -8.5885    1.8482 C   0  0  2  0  0  0  0  0  0  0  0  0
   -4.0529   -7.9643    3.9560 O   0  0  0  0  0  0  0  0  0  0  0  0
   -4.0245   -9.3202   -0.3353 C   0  0  0  0  0  0  0  0  0  0  0  0
   -2.6552   -8.5695   -0.1277 C   0  0  2  0  0  0  0  0  0  0  0  0
   -4.2981   -9.8297   -1.4265 O   0  0  0  0  0  0  0  0  0  0  0  0
   -2.4006   -7.2488   -0.9401 C   0  0  0  0  0  0  0  0  0  0  0  0
   -2.3626   -7.4225   -2.4734 C   0  0  0  0  0  0  0  0  0  0  0  0
   -3.4853   -6.2101   -0.6055 C   0  0  0  0  0  0  0  0  0  0  0  0
   -1.0252   -6.6485   -0.5251 C   0  0  0  0  0  0  0  0  0  0  0  0
   -1.5872   -9.5585   -0.4257 N   0  0  0  0  0  0  0  0  0  0  0  0
   -7.5931   -8.7954   -0.0287 O   0  0  0  0  0  0  0  0  0  0  0  0
   -0.7286  -18.5238    8.1725 H   0  0  0  0  0  0  0  0  0  0  0  0
   -2.3432  -18.3828    3.8375 H   0  0  0  0  0  0  0  0  0  0  0  0
   -3.8385  -17.6481    4.4492 H   0  0  0  0  0  0  0  0  0  0  0  0
   -2.6627  -16.6650    3.5514 H   0  0  0  0  0  0  0  0  0  0  0  0
   -0.0676  -13.8050    5.9059 H   0  0  0  0  0  0  0  0  0  0  0  0
   -0.5663  -11.5273    5.1916 H   0  0  0  0  0  0  0  0  0  0  0  0
   -4.6809  -12.6239    4.5161 H   0  0  0  0  0  0  0  0  0  0  0  0
   -4.1745  -14.9170    5.2332 H   0  0  0  0  0  0  0  0  0  0  0  0
   -3.3139   -9.9551    5.3585 H   0  0  0  0  0  0  0  0  0  0  0  0
   -2.0001   -9.9343    4.1770 H   0  0  0  0  0  0  0  0  0  0  0  0
   -3.8188  -10.7766    2.5452 H   0  0  0  0  0  0  0  0  0  0  0  0
   -7.0297   -7.6730    2.1214 H   0  0  0  0  0  0  0  0  0  0  0  0
   -6.7583   -9.0887    3.1488 H   0  0  0  0  0  0  0  0  0  0  0  0
   -8.0085  -10.1590    1.4365 H   0  0  0  0  0  0  0  0  0  0  0  0
   -5.8321  -11.2485    1.4599 H   0  0  0  0  0  0  0  0  0  0  0  0
   -6.0730  -10.9431   -0.2817 H   0  0  0  0  0  0  0  0  0  0  0  0
   -4.8017   -7.5923    1.4797 H   0  0  0  0  0  0  0  0  0  0  0  0
   -2.5604   -8.3284    0.9363 H   0  0  0  0  0  0  0  0  0  0  0  0
   -3.2845   -7.8582   -2.8675 H   0  0  0  0  0  0  0  0  0  0  0  0
   -2.2289   -6.4491   -2.9650 H   0  0  0  0  0  0  0  0  0  0  0  0
   -1.5227   -8.0478   -2.7964 H   0  0  0  0  0  0  0  0  0  0  0  0
   -3.4573   -5.9423    0.4558 H   0  0  0  0  0  0  0  0  0  0  0  0
   -3.3386   -5.2840   -1.1758 H   0  0  0  0  0  0  0  0  0  0  0  0
   -4.4854   -6.5843   -0.8449 H   0  0  0  0  0  0  0  0  0  0  0  0
   -0.7772   -6.8807    0.5162 H   0  0  0  0  0  0  0  0  0  0  0  0
   -0.2080   -7.0352   -1.1468 H   0  0  0  0  0  0  0  0  0  0  0  0
   -1.0118   -5.5566   -0.6261 H   0  0  0  0  0  0  0  0  0  0  0  0
   -1.5446  -10.2507    0.3187 H   0  0  0  0  0  0  0  0  0  0  0  0
   -1.8795  -10.0770   -1.2615 H   0  0  0  0  0  0  0  0  0  0  0  0
   -6.9822   -8.9343   -0.7765 H   0  0  0  0  0  0  0  0  0  0  0  0
  1  2  2  0  0  0  0
  2  3  1  0  0  0  0
  2 31  1  0  0  0  0
  3  4  1  0  0  0  0
  4  5  2  0  0  0  0
  4  7  1  0  0  0  0
  5  1  1  0  0  0  0
  5  6  1  0  0  0  0
  6 32  1  0  0  0  0
  6 33  1  0  0  0  0
  6 34  1  0  0  0  0
  7  8  2  0  0  0  0
  8  9  1  0  0  0  0
  8 35  1  0  0  0  0
  9 10  2  0  0  0  0
  9 36  1  0  0  0  0
 10 11  1  0  0  0  0
 10 13  1  0  0  0  0
 11 12  2  0  0  0  0
 11 37  1  0  0  0  0
 12  7  1  0  0  0  0
 12 38  1  0  0  0  0
 13 14  1  0  0  0  0
 13 39  1  0  0  0  0
 13 40  1  0  0  0  0
 14 15  1  0  0  0  0
 14 41  1  0  0  0  0
 15 21  2  0  0  0  0
 16 17  1  0  0  0  0
 16 42  1  0  0  0  0
 16 43  1  0  0  0  0
 17 18  1  0  0  0  0
 17 30  1  0  0  0  0
 17 44  1  1  0  0  0
 18 19  1  0  0  0  0
 18 45  1  0  0  0  0
 18 46  1  0  0  0  0
 19 20  1  0  0  0  0
 19 22  1  0  0  0  0
 20 16  1  0  0  0  0
 20 47  1  6  0  0  0
 20 15  1  0  0  0  0
 22 24  2  0  0  0  0
 23 29  1  0  0  0  0
 23 48  1  1  0  0  0
 23 25  1  0  0  0  0
 23 22  1  0  0  0  0
 25 26  1  0  0  0  0
 25 27  1  0  0  0  0
 25 28  1  0  0  0  0
 26 49  1  0  0  0  0
 26 50  1  0  0  0  0
 26 51  1  0  0  0  0
 27 52  1  0  0  0  0
 27 53  1  0  0  0  0
 27 54  1  0  0  0  0
 28 55  1  0  0  0  0
 28 56  1  0  0  0  0
 28 57  1  0  0  0  0
 29 58  1  0  0  0  0
 29 59  1  0  0  0  0
 30 60  1  0  0  0  0
M  END
>  <Mol_ID>
5040

>  <Formula>
C22H30N4O3S

>  <MolWeight>
430.5636

>  <Cat>
S0097

>  <Name>
(S,R,S)-AHPC (MDK7526)

>  <Synonyms>
VH032-NH2, VHL ligand 1

>  <Target>
Androgen Receptor,E3 Ligase ,E3 ligase Ligand,PROTAC

>  <Form>
free base

>  <CAS>
1448297-52-6

>  <URL>
http://www.selleckchem.com/products/s-r-s-ahpc-mdk7526.html

$$$$
