S-(+)-Rolipram.cdx
 OpenBabel08302521323D

 41 43  0  0  0  0  0  0  0  0999 V2000
    1.3269    0.0153   -0.1945 C   0  0  0  0  0  0  0  0  0  0  0  0
    0.5434   -1.1425   -0.0489 C   0  0  0  0  0  0  0  0  0  0  0  0
   -0.8502   -1.0030   -0.0525 C   0  0  0  0  0  0  0  0  0  0  0  0
   -1.4679    0.2659   -0.1347 C   0  0  0  0  0  0  0  0  0  0  0  0
   -0.6581    1.4059   -0.1903 C   0  0  0  0  0  0  0  0  0  0  0  0
    0.7266    1.2787   -0.2196 C   0  0  0  0  0  0  0  0  0  0  0  0
    2.6965    0.0523   -0.2215 O   0  0  0  0  0  0  0  0  0  0  0  0
    3.3242   -0.8779   -1.0985 C   0  0  0  0  0  0  0  0  0  0  0  0
    1.2088   -2.3305    0.0646 O   0  0  0  0  0  0  0  0  0  0  0  0
    0.6669   -3.4989    0.6746 C   0  0  0  0  0  0  0  0  0  0  0  0
   -0.2708   -4.3177   -0.2050 C   0  0  0  0  0  0  0  0  0  0  0  0
   -1.3051   -4.9365    0.7261 C   0  0  0  0  0  0  0  0  0  0  0  0
   -1.0654   -4.3915    2.1290 C   0  0  0  0  0  0  0  0  0  0  0  0
    0.0129   -3.3231    2.0387 C   0  0  0  0  0  0  0  0  0  0  0  0
   -2.9784    0.4448   -0.1975 C   0  0  1  0  0  0  0  0  0  0  0  0
   -3.5843   -0.1922   -1.4497 C   0  0  0  0  0  0  0  0  0  0  0  0
   -4.0534   -1.4720   -1.0060 N   0  0  0  0  0  0  0  0  0  0  0  0
   -4.1943   -1.5370    0.3643 C   0  0  0  0  0  0  0  0  0  0  0  0
   -3.7317   -0.2289    0.9588 C   0  0  0  0  0  0  0  0  0  0  0  0
   -4.6503   -2.4868    0.9747 O   0  0  0  0  0  0  0  0  0  0  0  0
   -1.4766   -1.8851    0.0054 H   0  0  0  0  0  0  0  0  0  0  0  0
   -1.0949    2.4021   -0.2229 H   0  0  0  0  0  0  0  0  0  0  0  0
    1.3476    2.1696   -0.2743 H   0  0  0  0  0  0  0  0  0  0  0  0
    2.6474   -1.5523   -1.6311 H   0  0  0  0  0  0  0  0  0  0  0  0
    3.8764   -0.3132   -1.8563 H   0  0  0  0  0  0  0  0  0  0  0  0
    4.0435   -1.4616   -0.5171 H   0  0  0  0  0  0  0  0  0  0  0  0
    1.5477   -4.1347    0.8409 H   0  0  0  0  0  0  0  0  0  0  0  0
   -0.7426   -3.7368   -1.0023 H   0  0  0  0  0  0  0  0  0  0  0  0
    0.2922   -5.1114   -0.7136 H   0  0  0  0  0  0  0  0  0  0  0  0
   -2.3176   -4.6944    0.3846 H   0  0  0  0  0  0  0  0  0  0  0  0
   -1.2270   -6.0302    0.7266 H   0  0  0  0  0  0  0  0  0  0  0  0
   -1.9883   -3.9727    2.5458 H   0  0  0  0  0  0  0  0  0  0  0  0
   -0.7518   -5.1987    2.8006 H   0  0  0  0  0  0  0  0  0  0  0  0
    0.7572   -3.4672    2.8317 H   0  0  0  0  0  0  0  0  0  0  0  0
   -0.4057   -2.3288    2.2067 H   0  0  0  0  0  0  0  0  0  0  0  0
   -3.1980    1.5212   -0.1932 H   0  0  0  0  0  0  0  0  0  0  0  0
   -4.4576    0.3683   -1.7983 H   0  0  0  0  0  0  0  0  0  0  0  0
   -2.8824   -0.3179   -2.2794 H   0  0  0  0  0  0  0  0  0  0  0  0
   -4.3808   -2.2212   -1.5988 H   0  0  0  0  0  0  0  0  0  0  0  0
   -4.6232    0.3483    1.2302 H   0  0  0  0  0  0  0  0  0  0  0  0
   -3.1127   -0.3939    1.8440 H   0  0  0  0  0  0  0  0  0  0  0  0
  1  2  2  0  0  0  0
  1  7  1  0  0  0  0
  2  3  1  0  0  0  0
  2  9  1  0  0  0  0
  3  4  2  0  0  0  0
  3 21  1  0  0  0  0
  4  5  1  0  0  0  0
  5  6  2  0  0  0  0
  5 22  1  0  0  0  0
  6  1  1  0  0  0  0
  6 23  1  0  0  0  0
  7  8  1  0  0  0  0
  8 24  1  0  0  0  0
  8 25  1  0  0  0  0
  8 26  1  0  0  0  0
  9 10  1  0  0  0  0
 10 11  1  0  0  0  0
 10 27  1  0  0  0  0
 11 12  1  0  0  0  0
 11 28  1  0  0  0  0
 11 29  1  0  0  0  0
 12 13  1  0  0  0  0
 12 30  1  0  0  0  0
 12 31  1  0  0  0  0
 13 14  1  0  0  0  0
 13 32  1  0  0  0  0
 13 33  1  0  0  0  0
 14 10  1  0  0  0  0
 14 34  1  0  0  0  0
 14 35  1  0  0  0  0
 15  4  1  0  0  0  0
 15 16  1  0  0  0  0
 15 36  1  1  0  0  0
 16 17  1  0  0  0  0
 16 37  1  0  0  0  0
 16 38  1  0  0  0  0
 17 18  1  0  0  0  0
 17 39  1  0  0  0  0
 18 19  1  0  0  0  0
 18 20  2  0  0  0  0
 19 15  1  0  0  0  0
 19 40  1  0  0  0  0
 19 41  1  0  0  0  0
M  END
>  <Mol_ID>
605

>  <Formula>
C16H21NO3

>  <MolWeight>
275.34284

>  <Cat>
S2127

>  <Name>
S-(+)-Rolipram

>  <Synonyms>
N/A

>  <Target>
PDE

>  <Form>
free base

>  <CAS>
85416-73-5

>  <URL>
http://selleckchem.com/products/sRolipram.html

$$$$
