(S)-(+)-1,2-Propanediol
 OpenBabel08302521363D

 13 12  0  0  1  0  0  0  0  0999 V2000
    0.9432   -0.1151    0.0933 C   0  0  2  0  0  0  0  0  0  0  0  0
    0.4437   -1.1312    1.1246 C   0  0  0  0  0  0  0  0  0  0  0  0
    0.4881    1.2982    0.4183 C   0  0  0  0  0  0  0  0  0  0  0  0
    0.4551   -0.4985   -1.1977 O   0  0  0  0  0  0  0  0  0  0  0  0
    0.8757   -2.4396    0.7564 O   0  0  0  0  0  0  0  0  0  0  0  0
    2.0369   -0.1564    0.0363 H   0  0  0  0  0  0  0  0  0  0  0  0
    0.8265   -0.9076    2.1244 H   0  0  0  0  0  0  0  0  0  0  0  0
   -0.6505   -1.1490    1.1584 H   0  0  0  0  0  0  0  0  0  0  0  0
    0.8349    1.9968   -0.3505 H   0  0  0  0  0  0  0  0  0  0  0  0
   -0.6048    1.3653    0.4340 H   0  0  0  0  0  0  0  0  0  0  0  0
    0.8722    1.6255    1.3888 H   0  0  0  0  0  0  0  0  0  0  0  0
   -0.4983   -0.3010   -1.2289 H   0  0  0  0  0  0  0  0  0  0  0  0
    0.8105   -2.4764   -0.2187 H   0  0  0  0  0  0  0  0  0  0  0  0
  1  2  1  0  0  0  0
  1  3  1  0  0  0  0
  1  4  1  0  0  0  0
  1  6  1  6  0  0  0
  2  5  1  0  0  0  0
  2  7  1  0  0  0  0
  2  8  1  0  0  0  0
  3  9  1  0  0  0  0
  3 10  1  0  0  0  0
  3 11  1  0  0  0  0
  4 12  1  0  0  0  0
  5 13  1  0  0  0  0
M  END
>  <Mol_ID>
7063

>  <Formula>
C3H8O2

>  <MolWeight>
76.09442

>  <Cat>
E4076

>  <Name>
(S)-(+)-1,2-Propanediol

>  <Synonyms>
(S)-Propane-1,2-diol

>  <Target>
Others

>  <Form>
Free base

>  <CAS>
4254-15-3

>  <URL>
https://www.selleckchem.com/products/s-1-2-propanediol.html

$$$$
