(S)-(+)-FLURBIPROFEN.cdx
 OpenBabel08302522053D

 31 32  0  0  0  0  0  0  0  0999 V2000
    0.8660    0.0117    0.0346 C   0  0  0  0  0  0  0  0  0  0  0  0
    0.1895    1.2411    0.0021 C   0  0  0  0  0  0  0  0  0  0  0  0
   -1.2173    1.1820    0.0046 C   0  0  0  0  0  0  0  0  0  0  0  0
   -1.9041   -0.0393    0.0317 C   0  0  0  0  0  0  0  0  0  0  0  0
   -1.2059   -1.2535    0.0404 C   0  0  0  0  0  0  0  0  0  0  0  0
    0.1919   -1.2100    0.0353 C   0  0  0  0  0  0  0  0  0  0  0  0
    2.2068   -0.0370    0.0581 F   0  0  0  0  0  0  0  0  0  0  0  0
    0.9063    2.5375   -0.0577 C   0  0  0  0  0  0  0  0  0  0  0  0
    2.1250    2.6708   -0.7499 C   0  0  0  0  0  0  0  0  0  0  0  0
    2.8031    3.8915   -0.8154 C   0  0  0  0  0  0  0  0  0  0  0  0
    2.2658    5.0181   -0.2047 C   0  0  0  0  0  0  0  0  0  0  0  0
    1.0591    4.9210    0.4806 C   0  0  0  0  0  0  0  0  0  0  0  0
    0.3937    3.6931    0.5597 C   0  0  0  0  0  0  0  0  0  0  0  0
   -1.9713   -2.5672   -0.0261 C   0  0  1  0  0  0  0  0  0  0  0  0
   -2.1860   -3.1114   -1.4384 C   0  0  0  0  0  0  0  0  0  0  0  0
   -1.7861   -2.3299   -2.4655 O   0  0  0  0  0  0  0  0  0  0  0  0
   -2.7184   -4.1935   -1.6523 O   0  0  0  0  0  0  0  0  0  0  0  0
   -1.3401   -3.6547    0.8487 C   0  0  0  0  0  0  0  0  0  0  0  0
   -1.8077    2.0962   -0.0341 H   0  0  0  0  0  0  0  0  0  0  0  0
   -2.9943   -0.0253    0.0297 H   0  0  0  0  0  0  0  0  0  0  0  0
    0.7947   -2.1143    0.0224 H   0  0  0  0  0  0  0  0  0  0  0  0
    2.5718    1.8175   -1.2571 H   0  0  0  0  0  0  0  0  0  0  0  0
    3.7495    3.9549   -1.3463 H   0  0  0  0  0  0  0  0  0  0  0  0
    2.7883    5.9693   -0.2606 H   0  0  0  0  0  0  0  0  0  0  0  0
    0.6346    5.7992    0.9591 H   0  0  0  0  0  0  0  0  0  0  0  0
   -0.5360    3.6550    1.1250 H   0  0  0  0  0  0  0  0  0  0  0  0
   -2.9789   -2.3766    0.3728 H   0  0  0  0  0  0  0  0  0  0  0  0
   -1.3742   -1.4795   -2.2215 H   0  0  0  0  0  0  0  0  0  0  0  0
   -1.1998   -3.3029    1.8768 H   0  0  0  0  0  0  0  0  0  0  0  0
   -1.9742   -4.5476    0.8838 H   0  0  0  0  0  0  0  0  0  0  0  0
   -0.3667   -3.9770    0.4621 H   0  0  0  0  0  0  0  0  0  0  0  0
  1  2  2  0  0  0  0
  1  7  1  0  0  0  0
  2  3  1  0  0  0  0
  2  8  1  0  0  0  0
  3  4  2  0  0  0  0
  3 19  1  0  0  0  0
  4  5  1  0  0  0  0
  4 20  1  0  0  0  0
  5  6  2  0  0  0  0
  5 14  1  0  0  0  0
  6  1  1  0  0  0  0
  6 21  1  0  0  0  0
  8  9  2  0  0  0  0
  9 10  1  0  0  0  0
  9 22  1  0  0  0  0
 10 11  2  0  0  0  0
 10 23  1  0  0  0  0
 11 12  1  0  0  0  0
 11 24  1  0  0  0  0
 12 13  2  0  0  0  0
 12 25  1  0  0  0  0
 13  8  1  0  0  0  0
 13 26  1  0  0  0  0
 14 15  1  0  0  0  0
 14 18  1  0  0  0  0
 14 27  1  1  0  0  0
 15 16  1  0  0  0  0
 15 17  2  0  0  0  0
 16 28  1  0  0  0  0
 18 29  1  0  0  0  0
 18 30  1  0  0  0  0
 18 31  1  0  0  0  0
M  END
>  <Mol_ID>
1381

>  <Formula>
C15H13FO2

>  <MolWeight>
244.2609232

>  <Cat>
S1679

>  <Name>
Flurbiprofen

>  <Synonyms>
N/A

>  <Target>
Immunology & Inflammation related

>  <Form>
free base

>  <CAS>
5104-49-4

>  <URL>
http://selleckchem.com/products/Flurbiprofen(Ansaid).html

$$$$
