S-(+)-Ketoprofen
 OpenBabel08302521303D

 33 34  0  0  0  0  0  0  0  0999 V2000
    0.6269   -1.6555    2.1856 O   0  0  0  0  0  0  0  0  0  0  0  0
   -5.5470   -1.5703   -3.3349 O   0  0  0  0  0  0  0  0  0  0  0  0
    0.9123   -2.2012    0.0500 O   0  0  0  0  0  0  0  0  0  0  0  0
   -1.0848   -0.9030    0.7033 C   0  0  2  0  0  0  0  0  0  0  0  0
   -1.6484   -0.9853   -0.7098 C   0  0  0  0  0  0  0  0  0  0  0  0
   -2.9322   -1.5197   -0.9186 C   0  0  0  0  0  0  0  0  0  0  0  0
   -3.4950   -1.5495   -2.2017 C   0  0  0  0  0  0  0  0  0  0  0  0
   -0.9444   -0.4773   -1.8135 C   0  0  0  0  0  0  0  0  0  0  0  0
   -0.9586    0.5584    1.1387 C   0  0  0  0  0  0  0  0  0  0  0  0
   -2.7897   -1.0083   -3.2811 C   0  0  0  0  0  0  0  0  0  0  0  0
   -1.5137   -0.4824   -3.0880 C   0  0  0  0  0  0  0  0  0  0  0  0
   -4.8639   -2.0788   -2.4491 C   0  0  0  0  0  0  0  0  0  0  0  0
    0.2352   -1.6360    0.8917 C   0  0  0  0  0  0  0  0  0  0  0  0
   -5.4347   -3.1918   -1.6490 C   0  0  0  0  0  0  0  0  0  0  0  0
   -4.6427   -4.2373   -1.1577 C   0  0  0  0  0  0  0  0  0  0  0  0
   -6.8172   -3.2073   -1.4251 C   0  0  0  0  0  0  0  0  0  0  0  0
   -5.2263   -5.2643   -0.4121 C   0  0  0  0  0  0  0  0  0  0  0  0
   -7.3981   -4.2385   -0.6848 C   0  0  0  0  0  0  0  0  0  0  0  0
   -6.6010   -5.2621   -0.1732 C   0  0  0  0  0  0  0  0  0  0  0  0
    1.4635   -2.1672    2.1743 H   0  0  0  0  0  0  0  0  0  0  0  0
   -1.7927   -1.4034    1.3782 H   0  0  0  0  0  0  0  0  0  0  0  0
   -3.5018   -1.8851   -0.0668 H   0  0  0  0  0  0  0  0  0  0  0  0
    0.0537   -0.0602   -1.6894 H   0  0  0  0  0  0  0  0  0  0  0  0
   -0.6157    0.6370    2.1759 H   0  0  0  0  0  0  0  0  0  0  0  0
   -0.2400    1.1061    0.5185 H   0  0  0  0  0  0  0  0  0  0  0  0
   -1.9241    1.0716    1.0669 H   0  0  0  0  0  0  0  0  0  0  0  0
   -3.2357   -0.9912   -4.2736 H   0  0  0  0  0  0  0  0  0  0  0  0
   -0.9662   -0.0660   -3.9302 H   0  0  0  0  0  0  0  0  0  0  0  0
   -3.5751   -4.2763   -1.3593 H   0  0  0  0  0  0  0  0  0  0  0  0
   -7.4451   -2.4155   -1.8303 H   0  0  0  0  0  0  0  0  0  0  0  0
   -4.6107   -6.0727   -0.0257 H   0  0  0  0  0  0  0  0  0  0  0  0
   -8.4712   -4.2452   -0.5145 H   0  0  0  0  0  0  0  0  0  0  0  0
   -7.0542   -6.0665    0.4011 H   0  0  0  0  0  0  0  0  0  0  0  0
  1 13  1  0  0  0  0
  1 20  1  0  0  0  0
  2 12  2  0  0  0  0
  3 13  2  0  0  0  0
  4 13  1  0  0  0  0
  4 21  1  1  0  0  0
  4  9  1  0  0  0  0
  4  5  1  0  0  0  0
  5  6  2  0  0  0  0
  5  8  1  0  0  0  0
  6  7  1  0  0  0  0
  6 22  1  0  0  0  0
  7 10  2  0  0  0  0
  7 12  1  0  0  0  0
  8 11  2  0  0  0  0
  8 23  1  0  0  0  0
  9 24  1  0  0  0  0
  9 25  1  0  0  0  0
  9 26  1  0  0  0  0
 10 11  1  0  0  0  0
 10 27  1  0  0  0  0
 11 28  1  0  0  0  0
 12 14  1  0  0  0  0
 14 15  2  0  0  0  0
 14 16  1  0  0  0  0
 15 17  1  0  0  0  0
 15 29  1  0  0  0  0
 16 18  2  0  0  0  0
 16 30  1  0  0  0  0
 17 19  2  0  0  0  0
 17 31  1  0  0  0  0
 18 19  1  0  0  0  0
 18 32  1  0  0  0  0
 19 33  1  0  0  0  0
M  END
>  <Mol_ID>
5583

>  <Formula>
C16H14O3

>  <MolWeight>
254.28056

>  <Cat>
S5192

>  <Name>
S-(+)-Ketoprofen

>  <Synonyms>
Actron, (S)-Ketoprofen, Dexketoprofen

>  <Target>
COX

>  <Form>
Free Base

>  <CAS>
22161-81-5

>  <URL>
http://www.selleckchem.com/products/s-ketoprofen.html

$$$$
