S(-)-Propranolol hydrochloride
 OpenBabel08302521303D

 40 41  0  0  0  0  0  0  0  0999 V2000
    1.1270    0.0085   -0.2282 O   0  0  0  0  0  0  0  0  0  0  0  0
    1.9741   -2.2481   -1.7351 O   0  0  0  0  0  0  0  0  0  0  0  0
   -1.6198   -3.1967   -1.1775 N   0  0  0  0  0  0  0  0  0  0  0  0
    0.5914   -1.9728   -1.4656 C   0  0  1  0  0  0  0  0  0  0  0  0
   -0.1856   -3.3003   -1.4740 C   0  0  0  0  0  0  0  0  0  0  0  0
   -2.3792   -2.3373   -2.0954 C   0  0  0  0  0  0  0  0  0  0  0  0
    0.4460   -1.2467   -0.1211 C   0  0  0  0  0  0  0  0  0  0  0  0
   -2.3783   -2.8638   -3.5304 C   0  0  0  0  0  0  0  0  0  0  0  0
   -3.8108   -2.2345   -1.5655 C   0  0  0  0  0  0  0  0  0  0  0  0
    0.7758    0.9748    0.6875 C   0  0  0  0  0  0  0  0  0  0  0  0
    1.0365    2.3132    0.3088 C   0  0  0  0  0  0  0  0  0  0  0  0
    0.7324    3.3578    1.2152 C   0  0  0  0  0  0  0  0  0  0  0  0
    0.2223    0.6901    1.9411 C   0  0  0  0  0  0  0  0  0  0  0  0
    1.5763    2.6590   -0.9489 C   0  0  0  0  0  0  0  0  0  0  0  0
    0.1788    3.0479    2.4670 C   0  0  0  0  0  0  0  0  0  0  0  0
   -0.0797    1.7262    2.8250 C   0  0  0  0  0  0  0  0  0  0  0  0
    0.9837    4.6901    0.8492 C   0  0  0  0  0  0  0  0  0  0  0  0
    1.8086    3.9866   -1.3033 C   0  0  0  0  0  0  0  0  0  0  0  0
    1.5141    5.0029   -0.4024 C   0  0  0  0  0  0  0  0  0  0  0  0
    2.4212   -1.3808   -1.7353 H   0  0  0  0  0  0  0  0  0  0  0  0
   -2.0229   -4.1346   -1.1765 H   0  0  0  0  0  0  0  0  0  0  0  0
    0.2547   -1.3230   -2.2811 H   0  0  0  0  0  0  0  0  0  0  0  0
   -0.0222   -3.8175   -2.4272 H   0  0  0  0  0  0  0  0  0  0  0  0
    0.2626   -3.9644   -0.7232 H   0  0  0  0  0  0  0  0  0  0  0  0
   -1.9700   -1.3209   -2.0887 H   0  0  0  0  0  0  0  0  0  0  0  0
    0.9134   -1.8341    0.6774 H   0  0  0  0  0  0  0  0  0  0  0  0
   -0.6154   -1.0816    0.0958 H   0  0  0  0  0  0  0  0  0  0  0  0
   -2.7284   -3.9006   -3.5768 H   0  0  0  0  0  0  0  0  0  0  0  0
   -3.0330   -2.2576   -4.1654 H   0  0  0  0  0  0  0  0  0  0  0  0
   -1.3764   -2.8227   -3.9704 H   0  0  0  0  0  0  0  0  0  0  0  0
   -3.8226   -1.8206   -0.5504 H   0  0  0  0  0  0  0  0  0  0  0  0
   -4.4094   -1.5694   -2.1974 H   0  0  0  0  0  0  0  0  0  0  0  0
   -4.3051   -3.2117   -1.5400 H   0  0  0  0  0  0  0  0  0  0  0  0
    0.0236   -0.3278    2.2612 H   0  0  0  0  0  0  0  0  0  0  0  0
    1.8141    1.8788   -1.6713 H   0  0  0  0  0  0  0  0  0  0  0  0
   -0.0582    3.8396    3.1754 H   0  0  0  0  0  0  0  0  0  0  0  0
   -0.5139    1.5028    3.7967 H   0  0  0  0  0  0  0  0  0  0  0  0
    0.7557    5.5016    1.5372 H   0  0  0  0  0  0  0  0  0  0  0  0
    2.2182    4.2217   -2.2817 H   0  0  0  0  0  0  0  0  0  0  0  0
    1.6955    6.0397   -0.6743 H   0  0  0  0  0  0  0  0  0  0  0  0
  1  7  1  0  0  0  0
  1 10  1  0  0  0  0
  2 20  1  0  0  0  0
  3  5  1  0  0  0  0
  3  6  1  0  0  0  0
  3 21  1  0  0  0  0
  4  2  1  0  0  0  0
  4  5  1  0  0  0  0
  4  7  1  0  0  0  0
  4 22  1  6  0  0  0
  5 23  1  0  0  0  0
  5 24  1  0  0  0  0
  6  8  1  0  0  0  0
  6  9  1  0  0  0  0
  6 25  1  0  0  0  0
  7 26  1  0  0  0  0
  7 27  1  0  0  0  0
  8 28  1  0  0  0  0
  8 29  1  0  0  0  0
  8 30  1  0  0  0  0
  9 31  1  0  0  0  0
  9 32  1  0  0  0  0
  9 33  1  0  0  0  0
 10 11  2  0  0  0  0
 10 13  1  0  0  0  0
 11 12  1  0  0  0  0
 11 14  1  0  0  0  0
 12 15  2  0  0  0  0
 12 17  1  0  0  0  0
 13 16  2  0  0  0  0
 13 34  1  0  0  0  0
 14 18  2  0  0  0  0
 14 35  1  0  0  0  0
 15 16  1  0  0  0  0
 15 36  1  0  0  0  0
 16 37  1  0  0  0  0
 17 19  2  0  0  0  0
 17 38  1  0  0  0  0
 18 19  1  0  0  0  0
 18 39  1  0  0  0  0
 19 40  1  0  0  0  0
M  END
>  <Mol_ID>
5575

>  <Formula>
C16H22ClNO2

>  <MolWeight>
295.80438

>  <Cat>
S5981

>  <Name>
S(-)-Propranolol hydrochloride

>  <Synonyms>
Hemangeol, Inderal

>  <Target>
Adrenergic Receptor

>  <Form>
Hydrochloride

>  <CAS>
4199-10-4

>  <URL>
http://www.selleckchem.com/products/s-propranolol-hydrochloride.html

$$$$
