(S)-2-(Methylamino)-3-phenylpropanoic acid
 OpenBabel08302521453D

 26 26  0  0  1  0  0  0  0  0999 V2000
    1.0602   -0.1573   -0.1870 C   0  0  0  0  0  0  0  0  0  0  0  0
    2.6019   -0.1073   -0.0995 C   0  0  1  0  0  0  0  0  0  0  0  0
    3.1575    0.7511   -1.2531 C   0  0  0  0  0  0  0  0  0  0  0  0
    3.0784    0.5191    1.1839 N   0  0  0  0  0  0  0  0  0  0  0  0
    3.2793    2.0556   -0.8937 O   0  0  0  0  0  0  0  0  0  0  0  0
    3.4881    0.3323   -2.3525 O   0  0  0  0  0  0  0  0  0  0  0  0
    2.7945   -0.3497    2.3304 C   0  0  0  0  0  0  0  0  0  0  0  0
    0.4695   -0.7681   -1.4373 C   0  0  0  0  0  0  0  0  0  0  0  0
    1.1070   -1.7980   -2.1405 C   0  0  0  0  0  0  0  0  0  0  0  0
   -0.7760   -0.3136   -1.8993 C   0  0  0  0  0  0  0  0  0  0  0  0
    0.5581   -2.3024   -3.3193 C   0  0  0  0  0  0  0  0  0  0  0  0
   -1.3319   -0.8295   -3.0714 C   0  0  0  0  0  0  0  0  0  0  0  0
   -0.6569   -1.8124   -3.7895 C   0  0  0  0  0  0  0  0  0  0  0  0
    0.6468   -0.7271    0.6554 H   0  0  0  0  0  0  0  0  0  0  0  0
    0.6757    0.8687   -0.0870 H   0  0  0  0  0  0  0  0  0  0  0  0
    3.0570   -1.0988   -0.1807 H   0  0  0  0  0  0  0  0  0  0  0  0
    4.1021    0.5779    1.1214 H   0  0  0  0  0  0  0  0  0  0  0  0
    3.0154    2.1250    0.0533 H   0  0  0  0  0  0  0  0  0  0  0  0
    3.2281   -1.3464    2.1923 H   0  0  0  0  0  0  0  0  0  0  0  0
    3.2402    0.0858    3.2302 H   0  0  0  0  0  0  0  0  0  0  0  0
    1.7222   -0.4451    2.5194 H   0  0  0  0  0  0  0  0  0  0  0  0
    2.0576   -2.2070   -1.8099 H   0  0  0  0  0  0  0  0  0  0  0  0
   -1.3177    0.4595   -1.3579 H   0  0  0  0  0  0  0  0  0  0  0  0
    1.0908   -3.0682   -3.8762 H   0  0  0  0  0  0  0  0  0  0  0  0
   -2.2864   -0.4543   -3.4311 H   0  0  0  0  0  0  0  0  0  0  0  0
   -1.0728   -2.1954   -4.7167 H   0  0  0  0  0  0  0  0  0  0  0  0
  1  8  1  0  0  0  0
  1 14  1  0  0  0  0
  1 15  1  0  0  0  0
  2  1  1  0  0  0  0
  2  3  1  0  0  0  0
  2  4  1  0  0  0  0
  2 16  1  6  0  0  0
  3  5  1  0  0  0  0
  3  6  2  0  0  0  0
  4  7  1  0  0  0  0
  4 17  1  0  0  0  0
  5 18  1  0  0  0  0
  7 19  1  0  0  0  0
  7 20  1  0  0  0  0
  7 21  1  0  0  0  0
  8  9  2  0  0  0  0
  8 10  1  0  0  0  0
  9 11  1  0  0  0  0
  9 22  1  0  0  0  0
 10 12  2  0  0  0  0
 10 23  1  0  0  0  0
 11 13  2  0  0  0  0
 11 24  1  0  0  0  0
 12 13  1  0  0  0  0
 12 25  1  0  0  0  0
 13 26  1  0  0  0  0
M  END
>  <Mol_ID>
9526

>  <Formula>
C10H13NO2

>  <MolWeight>
179.21572

>  <Cat>
E4428

>  <Name>
(S)-2-(Methylamino)-3-phenylpropanoic acid

>  <Target>
Others

>  <Form>
Free base

>  <CAS>
2566-30-5

>  <URL>
https://www.selleckchem.com/products/s-2-methylamino-3-phenylpropanoic-acid.html

$$$$
