(S)-2-Hydroxysuccinic acid
 OpenBabel08302520393D

 15 14  0  0  0  0  0  0  0  0999 V2000
    0.9208    0.2566   -0.0848 C   0  0  1  0  0  0  0  0  0  0  0  0
    0.5142   -0.7943   -1.1014 C   0  0  0  0  0  0  0  0  0  0  0  0
    0.1590    1.5699   -0.2583 C   0  0  0  0  0  0  0  0  0  0  0  0
    0.6668   -0.2471    1.2453 O   0  0  0  0  0  0  0  0  0  0  0  0
    1.3987   -2.0143   -1.0409 C   0  0  0  0  0  0  0  0  0  0  0  0
    0.0441    2.2285    0.9243 O   0  0  0  0  0  0  0  0  0  0  0  0
   -0.3082    1.9873   -1.3019 O   0  0  0  0  0  0  0  0  0  0  0  0
    1.7853   -2.3854    0.1990 O   0  0  0  0  0  0  0  0  0  0  0  0
    1.6840   -2.6768   -2.0283 O   0  0  0  0  0  0  0  0  0  0  0  0
    1.9905    0.4814   -0.1537 H   0  0  0  0  0  0  0  0  0  0  0  0
   -0.5197   -1.1215   -0.9499 H   0  0  0  0  0  0  0  0  0  0  0  0
    0.5999   -0.3809   -2.1135 H   0  0  0  0  0  0  0  0  0  0  0  0
   -0.3046   -0.3733    1.3233 H   0  0  0  0  0  0  0  0  0  0  0  0
    0.4997    1.7388    1.6448 H   0  0  0  0  0  0  0  0  0  0  0  0
    1.4864   -1.7882    0.9214 H   0  0  0  0  0  0  0  0  0  0  0  0
  1  4  1  0  0  0  0
  1 10  1  6  0  0  0
  1  3  1  0  0  0  0
  1  2  1  0  0  0  0
  2  5  1  0  0  0  0
  2 11  1  0  0  0  0
  2 12  1  0  0  0  0
  3  6  1  0  0  0  0
  3  7  2  0  0  0  0
  4 13  1  0  0  0  0
  5  8  1  0  0  0  0
  5  9  2  0  0  0  0
  6 14  1  0  0  0  0
  8 15  1  0  0  0  0
M  END
>  <Mol_ID>
3640

>  <Formula>
C4H6O5

>  <MolWeight>
134.08744

>  <Cat>
S6292

>  <Name>
(S)-2-Hydroxysuccinic acid

>  <Synonyms>
L-Malic acid

>  <Target>
Others

>  <Form>
free base

>  <CAS>
97-67-6

>  <URL>
http://www.selleck.cn/products/s-2-hydroxysuccinic-acid.html

$$$$
