(S)-2-Hydroxybutanoic acid
 OpenBabel08302521363D

 15 14  0  0  1  0  0  0  0  0999 V2000
    0.9686   -0.0829    0.0575 C   0  0  2  0  0  0  0  0  0  0  0  0
    0.4930   -0.7538    1.3485 C   0  0  0  0  0  0  0  0  0  0  0  0
    0.4103    1.3295   -0.1069 C   0  0  0  0  0  0  0  0  0  0  0  0
    0.6061   -0.9248   -1.0409 O   0  0  0  0  0  0  0  0  0  0  0  0
    0.7327   -2.0925    1.3198 O   0  0  0  0  0  0  0  0  0  0  0  0
   -0.0327   -0.1942    2.2963 O   0  0  0  0  0  0  0  0  0  0  0  0
    0.9299    2.0120   -1.3657 C   0  0  0  0  0  0  0  0  0  0  0  0
    2.0632   -0.0485    0.0988 H   0  0  0  0  0  0  0  0  0  0  0  0
   -0.6825    1.3047   -0.1463 H   0  0  0  0  0  0  0  0  0  0  0  0
    0.6884    1.9368    0.7646 H   0  0  0  0  0  0  0  0  0  0  0  0
   -0.3563   -0.8254   -1.1731 H   0  0  0  0  0  0  0  0  0  0  0  0
    1.1068   -2.3380    0.4437 H   0  0  0  0  0  0  0  0  0  0  0  0
    0.5658    1.5071   -2.2674 H   0  0  0  0  0  0  0  0  0  0  0  0
    0.5874    3.0508   -1.3998 H   0  0  0  0  0  0  0  0  0  0  0  0
    2.0211    2.0149   -1.3885 H   0  0  0  0  0  0  0  0  0  0  0  0
  1  2  1  0  0  0  0
  1  3  1  0  0  0  0
  1  4  1  0  0  0  0
  1  8  1  1  0  0  0
  2  5  1  0  0  0  0
  2  6  2  0  0  0  0
  3  7  1  0  0  0  0
  3  9  1  0  0  0  0
  3 10  1  0  0  0  0
  4 11  1  0  0  0  0
  5 12  1  0  0  0  0
  7 13  1  0  0  0  0
  7 14  1  0  0  0  0
  7 15  1  0  0  0  0
M  END
>  <Mol_ID>
7219

>  <Formula>
C4H8O3

>  <MolWeight>
104.10452

>  <Cat>
E4225

>  <Name>
(S)-2-Hydroxybutanoic acid

>  <Target>
Others

>  <Form>
Free base

>  <CAS>
3347-90-8

>  <URL>
https://www.selleckchem.com/products/s-2-hydroxybutanoic-acid.html

$$$$
