(S)-2-Hydroxy-3-phenylpropanoic acid
 OpenBabel08302520393D

 22 22  0  0  0  0  0  0  0  0999 V2000
    1.3322   -0.1976    0.1221 C   0  0  0  0  0  0  0  0  0  0  0  0
    2.8367   -0.3114    0.1440 C   0  0  0  0  0  0  0  0  0  0  0  0
    0.4893   -1.3109    0.0174 C   0  0  0  0  0  0  0  0  0  0  0  0
    0.7478    1.0745    0.2451 C   0  0  0  0  0  0  0  0  0  0  0  0
    3.4986   -1.4715   -0.6111 C   0  0  1  0  0  0  0  0  0  0  0  0
   -0.8975   -1.1514   -0.0225 C   0  0  0  0  0  0  0  0  0  0  0  0
   -0.6391    1.2312    0.2132 C   0  0  0  0  0  0  0  0  0  0  0  0
    3.2343   -1.4469   -2.1269 C   0  0  0  0  0  0  0  0  0  0  0  0
    4.9376   -1.4058   -0.4251 O   0  0  0  0  0  0  0  0  0  0  0  0
   -1.4613    0.1178    0.0698 C   0  0  0  0  0  0  0  0  0  0  0  0
    4.3964   -1.4894   -2.8300 O   0  0  0  0  0  0  0  0  0  0  0  0
    2.1429   -1.4357   -2.6692 O   0  0  0  0  0  0  0  0  0  0  0  0
    3.2637    0.6259   -0.2393 H   0  0  0  0  0  0  0  0  0  0  0  0
    3.1481   -0.3636    1.1966 H   0  0  0  0  0  0  0  0  0  0  0  0
    0.8893   -2.3176   -0.0672 H   0  0  0  0  0  0  0  0  0  0  0  0
    1.3701    1.9603    0.3513 H   0  0  0  0  0  0  0  0  0  0  0  0
    3.1871   -2.4488   -0.2300 H   0  0  0  0  0  0  0  0  0  0  0  0
   -1.5374   -2.0227   -0.1412 H   0  0  0  0  0  0  0  0  0  0  0  0
   -1.0763    2.2233    0.2884 H   0  0  0  0  0  0  0  0  0  0  0  0
    5.1739   -0.4808   -0.2233 H   0  0  0  0  0  0  0  0  0  0  0  0
   -2.5402    0.2383    0.0245 H   0  0  0  0  0  0  0  0  0  0  0  0
    5.1366   -1.5927   -2.1843 H   0  0  0  0  0  0  0  0  0  0  0  0
  1  2  1  0  0  0  0
  1  3  2  0  0  0  0
  1  4  1  0  0  0  0
  2  5  1  0  0  0  0
  2 13  1  0  0  0  0
  2 14  1  0  0  0  0
  3  6  1  0  0  0  0
  3 15  1  0  0  0  0
  4  7  2  0  0  0  0
  4 16  1  0  0  0  0
  5  8  1  0  0  0  0
  5  9  1  0  0  0  0
  5 17  1  1  0  0  0
  6 10  2  0  0  0  0
  6 18  1  0  0  0  0
  7 10  1  0  0  0  0
  7 19  1  0  0  0  0
  8 11  1  0  0  0  0
  8 12  2  0  0  0  0
  9 20  1  0  0  0  0
 10 21  1  0  0  0  0
 11 22  1  0  0  0  0
M  END
>  <Mol_ID>
3626

>  <Formula>
C9H10O3

>  <MolWeight>
166.1739

>  <Cat>
S6271

>  <Name>
(S)-2-Hydroxy-3-phenylpropanoic acid

>  <Synonyms>
L-(-)-3-Phenyllactic acid, (2S)-2-Hydroxy-3-phenylpropanoic acid

>  <Target>
Others

>  <Form>
free base

>  <CAS>
20312-36-1

>  <URL>
http://www.selleck.cn/products/s-2-hydroxy-3-phenylpropanoic-acid.html

$$$$
