(S)-3-Hydroxybutanoic acid
 OpenBabel08302521373D

 15 14  0  0  1  0  0  0  0  0999 V2000
    0.9429    1.6992   -1.9304 C   0  0  0  0  0  0  0  0  0  0  0  0
    0.5731    1.3241   -0.4970 C   0  0  2  0  0  0  0  0  0  0  0  0
    0.5601    3.1173   -2.2786 C   0  0  0  0  0  0  0  0  0  0  0  0
    1.1004   -0.0477   -0.1051 C   0  0  0  0  0  0  0  0  0  0  0  0
   -0.8587    1.3393   -0.3963 O   0  0  0  0  0  0  0  0  0  0  0  0
   -0.5762    3.5660   -1.7039 O   0  0  0  0  0  0  0  0  0  0  0  0
    1.1854    3.7891   -3.0874 O   0  0  0  0  0  0  0  0  0  0  0  0
    0.4338    1.0414   -2.6463 H   0  0  0  0  0  0  0  0  0  0  0  0
    2.0258    1.6009   -2.0635 H   0  0  0  0  0  0  0  0  0  0  0  0
    0.9496    2.0765    0.2023 H   0  0  0  0  0  0  0  0  0  0  0  0
    2.1926   -0.0485   -0.0439 H   0  0  0  0  0  0  0  0  0  0  0  0
    0.6932   -0.3528    0.8644 H   0  0  0  0  0  0  0  0  0  0  0  0
    0.7946   -0.8106   -0.8307 H   0  0  0  0  0  0  0  0  0  0  0  0
   -1.1940    0.5047   -0.7800 H   0  0  0  0  0  0  0  0  0  0  0  0
   -0.9877    2.9066   -1.0926 H   0  0  0  0  0  0  0  0  0  0  0  0
  1  3  1  0  0  0  0
  1  8  1  0  0  0  0
  1  9  1  0  0  0  0
  2  5  1  0  0  0  0
  2 10  1  1  0  0  0
  2  4  1  0  0  0  0
  2  1  1  0  0  0  0
  3  6  1  0  0  0  0
  3  7  2  0  0  0  0
  4 11  1  0  0  0  0
  4 12  1  0  0  0  0
  4 13  1  0  0  0  0
  5 14  1  0  0  0  0
  6 15  1  0  0  0  0
M  END
>  <Mol_ID>
7421

>  <Formula>
C4H8O3

>  <MolWeight>
104.10452

>  <Cat>
E4521

>  <Name>
(S)-3-Hydroxybutanoic acid

>  <Synonyms>
(S)-3-Hydroxybutanoic acid

>  <Target>
Endogenous Metabolite

>  <Form>
Free base

>  <CAS>
6168-83-8

>  <URL>
https://www.selleckchem.com/products/s-3-hydroxybutanoic-acid.html

$$$$
