(S)-(?)-¦Á-Methylbenzylamine
 OpenBabel08302520393D

 20 20  0  0  0  0  0  0  0  0999 V2000
    3.5642    0.0962   -0.9824 C   0  0  0  0  0  0  0  0  0  0  0  0
    3.4292    1.4591   -1.2991 C   0  0  0  0  0  0  0  0  0  0  0  0
    4.4202   -0.6896   -1.7675 C   0  0  0  0  0  0  0  0  0  0  0  0
    2.7930   -0.4782    0.1893 C   0  0  2  0  0  0  0  0  0  0  0  0
    4.1343    2.0160   -2.3682 C   0  0  0  0  0  0  0  0  0  0  0  0
    5.1225   -0.1325   -2.8391 C   0  0  0  0  0  0  0  0  0  0  0  0
    3.7184   -1.0323    1.2739 C   0  0  0  0  0  0  0  0  0  0  0  0
    1.8516   -1.5131   -0.2450 N   0  0  0  0  0  0  0  0  0  0  0  0
    4.9803    1.2221   -3.1364 C   0  0  0  0  0  0  0  0  0  0  0  0
    2.7781    2.0987   -0.7083 H   0  0  0  0  0  0  0  0  0  0  0  0
    4.5532   -1.7473   -1.5490 H   0  0  0  0  0  0  0  0  0  0  0  0
    2.1995    0.3237    0.6456 H   0  0  0  0  0  0  0  0  0  0  0  0
    4.0259    3.0760   -2.5939 H   0  0  0  0  0  0  0  0  0  0  0  0
    5.7838   -0.7506   -3.4385 H   0  0  0  0  0  0  0  0  0  0  0  0
    3.1757   -1.1392    2.2196 H   0  0  0  0  0  0  0  0  0  0  0  0
    4.1184   -2.0183    1.0096 H   0  0  0  0  0  0  0  0  0  0  0  0
    4.5708   -0.3670    1.4496 H   0  0  0  0  0  0  0  0  0  0  0  0
    1.2920   -1.1373   -1.0101 H   0  0  0  0  0  0  0  0  0  0  0  0
    2.3694   -2.2944   -0.6418 H   0  0  0  0  0  0  0  0  0  0  0  0
    5.5271    1.6583   -3.9688 H   0  0  0  0  0  0  0  0  0  0  0  0
  1  2  2  0  0  0  0
  1  3  1  0  0  0  0
  2  5  1  0  0  0  0
  2 10  1  0  0  0  0
  3  6  2  0  0  0  0
  3 11  1  0  0  0  0
  4  8  1  0  0  0  0
  4 12  1  1  0  0  0
  4  7  1  0  0  0  0
  4  1  1  0  0  0  0
  5  9  2  0  0  0  0
  5 13  1  0  0  0  0
  6  9  1  0  0  0  0
  6 14  1  0  0  0  0
  7 15  1  0  0  0  0
  7 16  1  0  0  0  0
  7 17  1  0  0  0  0
  8 18  1  0  0  0  0
  8 19  1  0  0  0  0
  9 20  1  0  0  0  0
M  END
>  <Mol_ID>
3617

>  <Formula>
C8H11N

>  <MolWeight>
121.17964

>  <Cat>
S6260

>  <Name>
(S)-(?)-¦Á-Methylbenzylamine

>  <Synonyms>
N/A

>  <Target>
Others

>  <Form>
free base

>  <CAS>
2627-86-3

>  <URL>
http://www.selleck.cn/products/methylbenzylamine.html

$$$$
