(S)-Glutamic acid
 OpenBabel08302521383D

 19 18  0  0  0  0  0  0  0  0999 V2000
    1.1213   -0.1380    0.1729 C   0  0  1  0  0  0  0  0  0  0  0  0
    0.3363    1.1014   -0.2836 C   0  0  0  0  0  0  0  0  0  0  0  0
    0.4888   -0.7294    1.4438 C   0  0  0  0  0  0  0  0  0  0  0  0
    1.2630   -1.1204   -0.9120 N   0  0  0  0  0  0  0  0  0  0  0  0
   -1.1036    0.8208   -0.7177 C   0  0  0  0  0  0  0  0  0  0  0  0
    0.2631   -2.0611    1.3777 O   0  0  0  0  0  0  0  0  0  0  0  0
    0.1873   -0.0647    2.4247 O   0  0  0  0  0  0  0  0  0  0  0  0
   -1.8069    2.0809   -1.1512 C   0  0  0  0  0  0  0  0  0  0  0  0
   -2.0137    2.9638   -0.1483 O   0  0  0  0  0  0  0  0  0  0  0  0
   -2.1843    2.2874   -2.2926 O   0  0  0  0  0  0  0  0  0  0  0  0
    2.1335    0.1761    0.4546 H   0  0  0  0  0  0  0  0  0  0  0  0
    0.3290    1.8315    0.5365 H   0  0  0  0  0  0  0  0  0  0  0  0
    0.8719    1.5902   -1.1072 H   0  0  0  0  0  0  0  0  0  0  0  0
    1.9674   -1.8333   -0.7410 H   0  0  0  0  0  0  0  0  0  0  0  0
    0.3923   -1.4827   -1.2893 H   0  0  0  0  0  0  0  0  0  0  0  0
   -1.1193    0.1339   -1.5718 H   0  0  0  0  0  0  0  0  0  0  0  0
   -1.6933    0.3516    0.0767 H   0  0  0  0  0  0  0  0  0  0  0  0
    0.5499   -2.4143    0.5150 H   0  0  0  0  0  0  0  0  0  0  0  0
   -1.6976    2.6650    0.7270 H   0  0  0  0  0  0  0  0  0  0  0  0
  1  4  1  0  0  0  0
  1 11  1  1  0  0  0
  1  3  1  0  0  0  0
  1  2  1  0  0  0  0
  2  5  1  0  0  0  0
  2 12  1  0  0  0  0
  2 13  1  0  0  0  0
  3  6  1  0  0  0  0
  3  7  2  0  0  0  0
  4 14  1  0  0  0  0
  4 15  1  0  0  0  0
  5  8  1  0  0  0  0
  5 16  1  0  0  0  0
  5 17  1  0  0  0  0
  6 18  1  0  0  0  0
  8  9  1  0  0  0  0
  8 10  2  0  0  0  0
  9 19  1  0  0  0  0
M  END
>  <Mol_ID>
7917

>  <Formula>
C5H9NO4

>  <MolWeight>
147.12926

>  <Cat>
S6266

>  <Name>
(S)-Glutamic acid

>  <Synonyms>
L-Glutamic acid

>  <Target>
GluR

>  <Form>
free base

>  <CAS>
56-86-0

>  <URL>
http://www.selleck.cn/products/s-glutamic-acid.html

$$$$
