(S)-Leucic acid
 OpenBabel08302520383D

 21 20  0  0  0  0  0  0  0  0999 V2000
    0.8963   -0.0257   -0.1584 C   0  0  1  0  0  0  0  0  0  0  0  0
    0.3684   -0.8236    1.0377 C   0  0  0  0  0  0  0  0  0  0  0  0
   -0.1029    0.2066   -1.3019 C   0  0  0  0  0  0  0  0  0  0  0  0
    1.3070    1.2871    0.2940 O   0  0  0  0  0  0  0  0  0  0  0  0
   -0.0787   -2.2692    0.7508 C   0  0  0  0  0  0  0  0  0  0  0  0
    0.1373    1.3958   -1.9192 O   0  0  0  0  0  0  0  0  0  0  0  0
   -0.9891   -0.5543   -1.6632 O   0  0  0  0  0  0  0  0  0  0  0  0
    1.0261   -3.1357    0.1443 C   0  0  0  0  0  0  0  0  0  0  0  0
   -0.5941   -2.9267    2.0353 C   0  0  0  0  0  0  0  0  0  0  0  0
    1.7871   -0.4912   -0.5885 H   0  0  0  0  0  0  0  0  0  0  0  0
    1.1462   -0.8323    1.8092 H   0  0  0  0  0  0  0  0  0  0  0  0
   -0.4702   -0.2756    1.4857 H   0  0  0  0  0  0  0  0  0  0  0  0
    0.5907    1.6258    0.8687 H   0  0  0  0  0  0  0  0  0  0  0  0
   -0.9174   -2.2482    0.0487 H   0  0  0  0  0  0  0  0  0  0  0  0
    0.8888    1.8360   -1.4581 H   0  0  0  0  0  0  0  0  0  0  0  0
    1.8183   -3.3390    0.8721 H   0  0  0  0  0  0  0  0  0  0  0  0
    0.6151   -4.0973   -0.1804 H   0  0  0  0  0  0  0  0  0  0  0  0
    1.4798   -2.6701   -0.7336 H   0  0  0  0  0  0  0  0  0  0  0  0
   -1.3739   -2.3169    2.5026 H   0  0  0  0  0  0  0  0  0  0  0  0
   -1.0261   -3.9104    1.8186 H   0  0  0  0  0  0  0  0  0  0  0  0
    0.2117   -3.0640    2.7650 H   0  0  0  0  0  0  0  0  0  0  0  0
  1  4  1  0  0  0  0
  1 10  1  6  0  0  0
  1  3  1  0  0  0  0
  1  2  1  0  0  0  0
  2  5  1  0  0  0  0
  2 11  1  0  0  0  0
  2 12  1  0  0  0  0
  3  6  1  0  0  0  0
  3  7  2  0  0  0  0
  4 13  1  0  0  0  0
  5  8  1  0  0  0  0
  5  9  1  0  0  0  0
  5 14  1  0  0  0  0
  6 15  1  0  0  0  0
  8 16  1  0  0  0  0
  8 17  1  0  0  0  0
  8 18  1  0  0  0  0
  9 19  1  0  0  0  0
  9 20  1  0  0  0  0
  9 21  1  0  0  0  0
M  END
>  <Mol_ID>
3529

>  <Formula>
C6H12O3

>  <MolWeight>
132.15768

>  <Cat>
S6046

>  <Name>
(S)-Leucic acid

>  <Synonyms>
(S)-¦Á-hydroxyisocaproic acid

>  <Target>
Others

>  <Form>
free base

>  <CAS>
13748-90-8

>  <URL>
http://www.selleck.cn/products/s-leucic-acid.html

$$$$
