S-Nitrosoglutathione
 OpenBabel08302521383D

 38 37  0  0  1  0  0  0  0  0999 V2000
    1.0162   -0.0794   -0.0693 C   0  0  1  0  0  0  0  0  0  0  0  0
    0.3377    1.3006   -0.0258 C   0  0  0  0  0  0  0  0  0  0  0  0
    0.5832   -0.8734    1.0848 N   0  0  0  0  0  0  0  0  0  0  0  0
    0.6372   -0.8301   -1.3556 C   0  0  0  0  0  0  0  0  0  0  0  0
    1.1115    2.3339   -0.5321 N   0  0  0  0  0  0  0  0  0  0  0  0
   -0.8213    1.4461    0.3512 O   0  0  0  0  0  0  0  0  0  0  0  0
    1.4814   -1.5798    1.8465 C   0  0  0  0  0  0  0  0  0  0  0  0
    1.2088   -0.0103   -2.8779 S   0  0  0  0  0  0  0  0  0  0  0  0
    0.6221    3.7166   -0.5854 C   0  0  0  0  0  0  0  0  0  0  0  0
    0.8664   -2.5617    2.8192 C   0  0  0  0  0  0  0  0  0  0  0  0
    2.6950   -1.4618    1.7033 O   0  0  0  0  0  0  0  0  0  0  0  0
    0.4731   -1.1730   -3.8391 N   0  0  0  0  0  0  0  0  0  0  0  0
    0.5474    4.2514   -2.0136 C   0  0  0  0  0  0  0  0  0  0  0  0
    0.3517   -3.8454    2.1538 C   0  0  0  0  0  0  0  0  0  0  0  0
    0.6306   -0.9144   -5.0354 O   0  0  0  0  0  0  0  0  0  0  0  0
    0.8467    3.3296   -2.9576 O   0  0  0  0  0  0  0  0  0  0  0  0
    0.2532    5.4027   -2.2979 O   0  0  0  0  0  0  0  0  0  0  0  0
    1.4290   -4.7552    1.5266 C   0  0  1  0  0  0  0  0  0  0  0  0
    0.7841   -6.0667    1.0592 C   0  0  0  0  0  0  0  0  0  0  0  0
    2.0974   -4.1418    0.3879 N   0  0  0  0  0  0  0  0  0  0  0  0
    1.0352   -6.3337   -0.2552 O   0  0  0  0  0  0  0  0  0  0  0  0
    0.1037   -6.8015    1.7634 O   0  0  0  0  0  0  0  0  0  0  0  0
    2.1024    0.0572   -0.0213 H   0  0  0  0  0  0  0  0  0  0  0  0
   -0.3860   -0.7954    1.3815 H   0  0  0  0  0  0  0  0  0  0  0  0
    1.0947   -1.8241   -1.3286 H   0  0  0  0  0  0  0  0  0  0  0  0
   -0.4512   -0.9705   -1.3916 H   0  0  0  0  0  0  0  0  0  0  0  0
    2.1211    2.2137   -0.5332 H   0  0  0  0  0  0  0  0  0  0  0  0
   -0.3715    3.7903   -0.1375 H   0  0  0  0  0  0  0  0  0  0  0  0
    1.3382    4.3277   -0.0294 H   0  0  0  0  0  0  0  0  0  0  0  0
    1.6031   -2.7948    3.5958 H   0  0  0  0  0  0  0  0  0  0  0  0
    0.0304   -2.0608    3.3246 H   0  0  0  0  0  0  0  0  0  0  0  0
   -0.1723   -4.4212    2.9301 H   0  0  0  0  0  0  0  0  0  0  0  0
   -0.4093   -3.6013    1.4019 H   0  0  0  0  0  0  0  0  0  0  0  0
    0.9873    2.4556   -2.5451 H   0  0  0  0  0  0  0  0  0  0  0  0
    2.1821   -5.0157    2.2821 H   0  0  0  0  0  0  0  0  0  0  0  0
    3.0852   -4.3175    0.2431 H   0  0  0  0  0  0  0  0  0  0  0  0
    1.5734   -3.5810   -0.2659 H   0  0  0  0  0  0  0  0  0  0  0  0
    1.6114   -5.6041   -0.5768 H   0  0  0  0  0  0  0  0  0  0  0  0
  1  4  1  0  0  0  0
  1 23  1  1  0  0  0
  1  3  1  0  0  0  0
  1  2  1  0  0  0  0
  2  5  1  0  0  0  0
  2  6  2  0  0  0  0
  3  7  1  0  0  0  0
  3 24  1  0  0  0  0
  4  8  1  0  0  0  0
  4 25  1  0  0  0  0
  4 26  1  0  0  0  0
  5  9  1  0  0  0  0
  5 27  1  0  0  0  0
  7 10  1  0  0  0  0
  7 11  2  0  0  0  0
  8 12  1  0  0  0  0
  9 13  1  0  0  0  0
  9 28  1  0  0  0  0
  9 29  1  0  0  0  0
 10 14  1  0  0  0  0
 10 30  1  0  0  0  0
 10 31  1  0  0  0  0
 12 15  2  0  0  0  0
 13 16  1  0  0  0  0
 13 17  2  0  0  0  0
 14 18  1  0  0  0  0
 14 32  1  0  0  0  0
 14 33  1  0  0  0  0
 16 34  1  0  0  0  0
 18 19  1  0  0  0  0
 18 20  1  0  0  0  0
 18 35  1  1  0  0  0
 19 21  1  0  0  0  0
 19 22  2  0  0  0  0
 20 36  1  0  0  0  0
 20 37  1  0  0  0  0
 21 38  1  0  0  0  0
M  END
>  <Mol_ID>
7661

>  <Formula>
C10H16N4O7S

>  <MolWeight>
336.32164

>  <Cat>
E4443

>  <Name>
S-Nitrosoglutathione

>  <Synonyms>
GSNO , RVC-588 , S-Nitroso-L-glutathione , Nitrosoglutathione

>  <Target>
Others

>  <Form>
free base

>  <CAS>
57564-91-7

>  <URL>
https://www.selleckchem.com/products/s-nitrosoglutathione.html

$$$$
