(S)-Spinacine
 OpenBabel08302521453D

 21 22  0  0  1  0  0  0  0  0999 V2000
    3.0671    0.1615    1.5601 C   0  0  0  0  0  0  0  0  0  0  0  0
    2.6725    1.3328    2.1274 O   0  0  0  0  0  0  0  0  0  0  0  0
    3.6269   -0.6950    2.2162 O   0  0  0  0  0  0  0  0  0  0  0  0
    4.6102   -1.2030   -0.8553 C   0  0  0  0  0  0  0  0  0  0  0  0
    5.2823   -0.0121   -0.9950 C   0  0  0  0  0  0  0  0  0  0  0  0
    3.1732   -1.3199   -0.5191 C   0  0  0  0  0  0  0  0  0  0  0  0
    5.5404   -2.1834   -1.0172 N   0  0  0  0  0  0  0  0  0  0  0  0
    4.6611    1.3281   -0.7979 C   0  0  0  0  0  0  0  0  0  0  0  0
    6.6121   -0.2393   -1.2268 N   0  0  0  0  0  0  0  0  0  0  0  0
    2.6924    0.0456    0.0599 C   0  0  2  0  0  0  0  0  0  0  0  0
    6.7408   -1.5510   -1.2178 C   0  0  0  0  0  0  0  0  0  0  0  0
    3.1779    1.2224   -0.7260 N   0  0  0  0  0  0  0  0  0  0  0  0
    2.2393    1.9551    1.5191 H   0  0  0  0  0  0  0  0  0  0  0  0
    2.9950   -2.1364    0.1889 H   0  0  0  0  0  0  0  0  0  0  0  0
    2.6147   -1.5397   -1.4375 H   0  0  0  0  0  0  0  0  0  0  0  0
    5.3975   -3.1829   -0.9621 H   0  0  0  0  0  0  0  0  0  0  0  0
    4.9232    1.9883   -1.6308 H   0  0  0  0  0  0  0  0  0  0  0  0
    5.0384    1.7840    0.1223 H   0  0  0  0  0  0  0  0  0  0  0  0
    1.5963    0.0536    0.0027 H   0  0  0  0  0  0  0  0  0  0  0  0
    7.6663   -2.0969   -1.3383 H   0  0  0  0  0  0  0  0  0  0  0  0
    2.8214    2.0925   -0.3494 H   0  0  0  0  0  0  0  0  0  0  0  0
  1  2  1  0  0  0  0
  1  3  2  0  0  0  0
  2 13  1  0  0  0  0
  4  5  2  0  0  0  0
  4  6  1  0  0  0  0
  4  7  1  0  0  0  0
  5  8  1  0  0  0  0
  5  9  1  0  0  0  0
  6 10  1  0  0  0  0
  6 14  1  0  0  0  0
  6 15  1  0  0  0  0
  7 11  1  0  0  0  0
  7 16  1  0  0  0  0
  8 12  1  0  0  0  0
  8 17  1  0  0  0  0
  8 18  1  0  0  0  0
  9 11  2  0  0  0  0
 10 12  1  0  0  0  0
 10 19  1  6  0  0  0
 10  1  1  0  0  0  0
 11 20  1  0  0  0  0
 12 21  1  0  0  0  0
M  END
>  <Mol_ID>
9529

>  <Formula>
C7H9N3O2

>  <MolWeight>
167.16526

>  <Cat>
E4481

>  <Name>
(S)-Spinacine

>  <Synonyms>
L-4,5,6,7-Tetrahydro-1H-imidazo[4,5-c]pyridine-6-carboxylic acid

>  <Target>
Endogenous Metabolite

>  <Form>
free base

>  <CAS>
59981-63-4

>  <URL>
https://www.selleckchem.com/products/s-spinacine.html

$$$$
