S107 hydrochloride
 OpenBabel08302521303D

 29 30  0  0  0  0  0  0  0  0999 V2000
    0.7722    1.7604    1.0791 S   0  0  0  0  0  0  0  0  0  0  0  0
   -3.5893   -1.7721   -0.8846 O   0  0  0  0  0  0  0  0  0  0  0  0
    2.1872   -0.8143   -0.7251 N   0  0  0  0  0  0  0  0  0  0  0  0
    1.2456   -1.2926    0.3069 C   0  0  0  0  0  0  0  0  0  0  0  0
    2.7946    0.4899   -0.3760 C   0  0  0  0  0  0  0  0  0  0  0  0
   -0.1540   -0.7220    0.1618 C   0  0  0  0  0  0  0  0  0  0  0  0
    1.8558    1.7014   -0.3772 C   0  0  0  0  0  0  0  0  0  0  0  0
   -0.4565    0.6064    0.5024 C   0  0  0  0  0  0  0  0  0  0  0  0
    3.2686   -1.7914   -0.9021 C   0  0  0  0  0  0  0  0  0  0  0  0
   -1.1959   -1.5548   -0.3125 C   0  0  0  0  0  0  0  0  0  0  0  0
   -1.7632    1.0852    0.3621 C   0  0  0  0  0  0  0  0  0  0  0  0
   -2.5011   -1.0709   -0.4477 C   0  0  0  0  0  0  0  0  0  0  0  0
   -2.7733    0.2544   -0.1148 C   0  0  0  0  0  0  0  0  0  0  0  0
   -3.3958   -3.1412   -1.2115 C   0  0  0  0  0  0  0  0  0  0  0  0
    1.1515   -2.3847    0.2266 H   0  0  0  0  0  0  0  0  0  0  0  0
    1.6272   -1.1272    1.3234 H   0  0  0  0  0  0  0  0  0  0  0  0
    3.3342    0.4284    0.5799 H   0  0  0  0  0  0  0  0  0  0  0  0
    3.5550    0.7133   -1.1363 H   0  0  0  0  0  0  0  0  0  0  0  0
    2.4628    2.6127   -0.3514 H   0  0  0  0  0  0  0  0  0  0  0  0
    1.2654    1.7440   -1.2998 H   0  0  0  0  0  0  0  0  0  0  0  0
    3.8568   -1.9278    0.0123 H   0  0  0  0  0  0  0  0  0  0  0  0
    2.8683   -2.7656   -1.2059 H   0  0  0  0  0  0  0  0  0  0  0  0
    3.9459   -1.4766   -1.7051 H   0  0  0  0  0  0  0  0  0  0  0  0
   -0.9605   -2.5821   -0.5708 H   0  0  0  0  0  0  0  0  0  0  0  0
   -2.0014    2.1179    0.6075 H   0  0  0  0  0  0  0  0  0  0  0  0
   -3.7812    0.6458   -0.2326 H   0  0  0  0  0  0  0  0  0  0  0  0
   -2.7236   -3.2474   -2.0685 H   0  0  0  0  0  0  0  0  0  0  0  0
   -3.0333   -3.7095   -0.3492 H   0  0  0  0  0  0  0  0  0  0  0  0
   -4.3676   -3.5540   -1.4958 H   0  0  0  0  0  0  0  0  0  0  0  0
  1  7  1  0  0  0  0
  1  8  1  0  0  0  0
  2 12  1  0  0  0  0
  2 14  1  0  0  0  0
  3  4  1  0  0  0  0
  3  5  1  0  0  0  0
  3  9  1  0  0  0  0
  4  6  1  0  0  0  0
  4 15  1  0  0  0  0
  4 16  1  0  0  0  0
  5  7  1  0  0  0  0
  5 17  1  0  0  0  0
  5 18  1  0  0  0  0
  6  8  2  0  0  0  0
  6 10  1  0  0  0  0
  7 19  1  0  0  0  0
  7 20  1  0  0  0  0
  8 11  1  0  0  0  0
  9 21  1  0  0  0  0
  9 22  1  0  0  0  0
  9 23  1  0  0  0  0
 10 12  2  0  0  0  0
 10 24  1  0  0  0  0
 11 13  2  0  0  0  0
 11 25  1  0  0  0  0
 12 13  1  0  0  0  0
 13 26  1  0  0  0  0
 14 27  1  0  0  0  0
 14 28  1  0  0  0  0
 14 29  1  0  0  0  0
M  END
>  <Mol_ID>
5708

>  <Formula>
C11H16ClNOS

>  <MolWeight>
245.76884

>  <Cat>
S0713

>  <Name>
S107 hydrochloride

>  <Synonyms>
N/A

>  <Target>
Calcium Channel,FKBP

>  <Form>
Hydrochloride

>  <CAS>
1357476-46-0

>  <URL>
http://www.selleckchem.com/products/s107-hydrochloride.html

$$$$
