S1096-JNJ26481585.cdx
 OpenBabel08302522063D

 55 58  0  0  0  0  0  0  0  0999 V2000
   -4.9813   -2.7248    4.6339 C   0  0  0  0  0  0  0  0  0  0  0  0
   -5.4975   -3.4486    5.7031 C   0  0  0  0  0  0  0  0  0  0  0  0
   -5.0419   -4.7401    5.9817 C   0  0  0  0  0  0  0  0  0  0  0  0
   -4.0374   -5.2799    5.1579 C   0  0  0  0  0  0  0  0  0  0  0  0
   -3.4960   -4.5756    4.0797 C   0  0  0  0  0  0  0  0  0  0  0  0
   -3.9855   -3.2757    3.8144 C   0  0  0  0  0  0  0  0  0  0  0  0
   -3.3979   -6.5016    5.1929 N   0  0  0  0  0  0  0  0  0  0  0  0
   -2.5044   -6.6028    4.1617 C   0  0  0  0  0  0  0  0  0  0  0  0
   -2.5071   -5.4133    3.4543 C   0  0  0  0  0  0  0  0  0  0  0  0
   -3.6271   -7.5236    6.1892 C   0  0  0  0  0  0  0  0  0  0  0  0
   -1.7064   -5.0613    2.2384 C   0  0  0  0  0  0  0  0  0  0  0  0
   -0.3775   -5.6955    2.2690 N   0  0  0  0  0  0  0  0  0  0  0  0
    0.3578   -5.3256    1.0560 C   0  0  0  0  0  0  0  0  0  0  0  0
    1.8226   -5.8192    1.0189 C   0  0  0  0  0  0  0  0  0  0  0  0
    2.5443   -5.2397   -0.2152 C   0  0  0  0  0  0  0  0  0  0  0  0
    1.9997   -5.8516   -1.5024 C   0  0  0  0  0  0  0  0  0  0  0  0
    2.1938   -7.2891   -1.4584 N   0  0  0  0  0  0  0  0  0  0  0  0
    1.6186   -8.0197   -0.3324 C   0  0  0  0  0  0  0  0  0  0  0  0
    1.9818   -7.3533    1.0064 C   0  0  0  0  0  0  0  0  0  0  0  0
    3.1783   -7.8465   -2.2417 C   0  0  0  0  0  0  0  0  0  0  0  0
    3.9942   -7.0251   -2.9306 N   0  0  0  0  0  0  0  0  0  0  0  0
    4.8952   -7.5722   -3.7740 C   0  0  0  0  0  0  0  0  0  0  0  0
    4.9991   -8.9203   -3.9987 C   0  0  0  0  0  0  0  0  0  0  0  0
    4.1649   -9.6904   -3.2281 C   0  0  0  0  0  0  0  0  0  0  0  0
    3.2620   -9.1831   -2.3523 N   0  0  0  0  0  0  0  0  0  0  0  0
    5.9862   -9.4279   -4.9626 C   0  0  0  0  0  0  0  0  0  0  0  0
    7.0582   -8.8397   -5.0868 O   0  0  0  0  0  0  0  0  0  0  0  0
    5.6879  -10.5015   -5.7558 N   0  0  0  0  0  0  0  0  0  0  0  0
    4.5091  -11.2418   -5.6018 O   0  0  0  0  0  0  0  0  0  0  0  0
   -5.3499   -1.7231    4.4296 H   0  0  0  0  0  0  0  0  0  0  0  0
   -6.2706   -3.0078    6.3283 H   0  0  0  0  0  0  0  0  0  0  0  0
   -5.4542   -5.3002    6.8129 H   0  0  0  0  0  0  0  0  0  0  0  0
   -3.5979   -2.6997    2.9820 H   0  0  0  0  0  0  0  0  0  0  0  0
   -1.9270   -7.5035    4.0045 H   0  0  0  0  0  0  0  0  0  0  0  0
   -3.4142   -7.0968    7.1730 H   0  0  0  0  0  0  0  0  0  0  0  0
   -4.6687   -7.8481    6.1260 H   0  0  0  0  0  0  0  0  0  0  0  0
   -2.9614   -8.3707    6.0049 H   0  0  0  0  0  0  0  0  0  0  0  0
   -2.2633   -5.3843    1.3511 H   0  0  0  0  0  0  0  0  0  0  0  0
   -1.5903   -3.9713    2.1895 H   0  0  0  0  0  0  0  0  0  0  0  0
    0.1144   -5.3534    3.0951 H   0  0  0  0  0  0  0  0  0  0  0  0
   -0.1944   -5.7173    0.1957 H   0  0  0  0  0  0  0  0  0  0  0  0
    0.3721   -4.2315    0.9650 H   0  0  0  0  0  0  0  0  0  0  0  0
    2.3294   -5.4316    1.9130 H   0  0  0  0  0  0  0  0  0  0  0  0
    2.4437   -4.1497   -0.2475 H   0  0  0  0  0  0  0  0  0  0  0  0
    3.6184   -5.4577   -0.1381 H   0  0  0  0  0  0  0  0  0  0  0  0
    0.9292   -5.6459   -1.6121 H   0  0  0  0  0  0  0  0  0  0  0  0
    2.4586   -5.3670   -2.3714 H   0  0  0  0  0  0  0  0  0  0  0  0
    1.9437   -9.0664   -0.2935 H   0  0  0  0  0  0  0  0  0  0  0  0
    0.5284   -8.0415   -0.4445 H   0  0  0  0  0  0  0  0  0  0  0  0
    3.0349   -7.5812    1.2228 H   0  0  0  0  0  0  0  0  0  0  0  0
    1.4004   -7.8093    1.8159 H   0  0  0  0  0  0  0  0  0  0  0  0
    5.5318   -6.8571   -4.2884 H   0  0  0  0  0  0  0  0  0  0  0  0
    4.1852  -10.7761   -3.2651 H   0  0  0  0  0  0  0  0  0  0  0  0
    6.4570  -10.9486   -6.2490 H   0  0  0  0  0  0  0  0  0  0  0  0
    3.9083  -10.8151   -6.2435 H   0  0  0  0  0  0  0  0  0  0  0  0
  1  2  2  0  0  0  0
  1 30  1  0  0  0  0
  2  3  1  0  0  0  0
  2 31  1  0  0  0  0
  3  4  2  0  0  0  0
  3 32  1  0  0  0  0
  4  5  1  0  0  0  0
  4  7  1  0  0  0  0
  5  6  2  0  0  0  0
  6  1  1  0  0  0  0
  6 33  1  0  0  0  0
  7  8  1  0  0  0  0
  7 10  1  0  0  0  0
  8  9  2  0  0  0  0
  8 34  1  0  0  0  0
  9  5  1  0  0  0  0
  9 11  1  0  0  0  0
 10 35  1  0  0  0  0
 10 36  1  0  0  0  0
 10 37  1  0  0  0  0
 11 12  1  0  0  0  0
 11 38  1  0  0  0  0
 11 39  1  0  0  0  0
 12 13  1  0  0  0  0
 12 40  1  0  0  0  0
 13 14  1  0  0  0  0
 13 41  1  0  0  0  0
 13 42  1  0  0  0  0
 14 15  1  0  0  0  0
 14 43  1  0  0  0  0
 15 16  1  0  0  0  0
 15 44  1  0  0  0  0
 15 45  1  0  0  0  0
 16 17  1  0  0  0  0
 16 46  1  0  0  0  0
 16 47  1  0  0  0  0
 17 18  1  0  0  0  0
 17 20  1  0  0  0  0
 18 19  1  0  0  0  0
 18 48  1  0  0  0  0
 18 49  1  0  0  0  0
 19 14  1  0  0  0  0
 19 50  1  0  0  0  0
 19 51  1  0  0  0  0
 20 21  2  0  0  0  0
 21 22  1  0  0  0  0
 22 23  2  0  0  0  0
 22 52  1  0  0  0  0
 23 24  1  0  0  0  0
 23 26  1  0  0  0  0
 24 25  2  0  0  0  0
 24 53  1  0  0  0  0
 25 20  1  0  0  0  0
 26 27  2  0  0  0  0
 26 28  1  0  0  0  0
 28 29  1  0  0  0  0
 28 54  1  0  0  0  0
 29 55  1  0  0  0  0
M  END
>  <Mol_ID>
1466

>  <Formula>
C21H28Cl2N6O2

>  <MolWeight>
467.39202

>  <Cat>
S1096

>  <Name>
Quisinostat (JNJ-26481585) 2HCl

>  <Synonyms>
N/A

>  <Target>
HDAC

>  <Form>
Dihydrochloride

>  <CAS>
875320-31-3

>  <URL>
http://selleckchem.com/products/JNJ-26481585.html

$$$$
