S1RA
 OpenBabel08302521233D

 48 51  0  0  0  0  0  0  0  0999 V2000
    0.3840   -0.6496   -7.2267 C   0  0  0  0  0  0  0  0  0  0  0  0
   -0.6480   -0.6770   -6.0766 C   0  0  0  0  0  0  0  0  0  0  0  0
   -0.0798   -0.8218   -4.7051 N   0  0  0  0  0  0  0  0  0  0  0  0
    1.0234    0.1511   -4.5822 C   0  0  0  0  0  0  0  0  0  0  0  0
    2.0421    0.0949   -5.7329 C   0  0  0  0  0  0  0  0  0  0  0  0
    1.4082    0.3246   -6.9965 O   0  0  0  0  0  0  0  0  0  0  0  0
    0.2989   -2.2208   -4.3814 C   0  0  0  0  0  0  0  0  0  0  0  0
    0.9298   -2.5505   -2.9752 C   0  0  0  0  0  0  0  0  0  0  0  0
   -0.0117   -2.3735   -1.9175 O   0  0  0  0  0  0  0  0  0  0  0  0
    1.6526   -2.8700    1.0942 N   0  0  0  0  0  0  0  0  0  0  0  0
    1.6988   -2.7235   -0.2861 N   0  0  0  0  0  0  0  0  0  0  0  0
    0.4135   -2.6387   -0.6506 C   0  0  0  0  0  0  0  0  0  0  0  0
   -0.4601   -2.7032    0.4424 C   0  0  0  0  0  0  0  0  0  0  0  0
    0.3527   -2.6429    1.5554 C   0  0  0  0  0  0  0  0  0  0  0  0
    4.1017   -3.0574    1.2973 C   0  0  0  0  0  0  0  0  0  0  0  0
    2.8283   -3.1853    1.8668 C   0  0  0  0  0  0  0  0  0  0  0  0
    2.7440   -3.6416    3.1958 C   0  0  0  0  0  0  0  0  0  0  0  0
    3.8944   -3.9297    3.9430 C   0  0  0  0  0  0  0  0  0  0  0  0
    5.1652   -3.7889    3.3815 C   0  0  0  0  0  0  0  0  0  0  0  0
    6.3300   -4.0797    4.1169 C   0  0  0  0  0  0  0  0  0  0  0  0
    7.5903   -3.9442    3.5447 C   0  0  0  0  0  0  0  0  0  0  0  0
    7.7006   -3.5077    2.2218 C   0  0  0  0  0  0  0  0  0  0  0  0
    6.5517   -3.2112    1.4821 C   0  0  0  0  0  0  0  0  0  0  0  0
    5.2698   -3.3481    2.0424 C   0  0  0  0  0  0  0  0  0  0  0  0
   -0.0328   -2.2744    2.9439 C   0  0  0  0  0  0  0  0  0  0  0  0
    0.8498   -1.6288   -7.3800 H   0  0  0  0  0  0  0  0  0  0  0  0
   -0.1129   -0.3750   -8.1652 H   0  0  0  0  0  0  0  0  0  0  0  0
   -1.1785    0.2858   -6.1011 H   0  0  0  0  0  0  0  0  0  0  0  0
   -1.4082   -1.4406   -6.2773 H   0  0  0  0  0  0  0  0  0  0  0  0
    0.5683    1.1509   -4.5847 H   0  0  0  0  0  0  0  0  0  0  0  0
    1.5281    0.0582   -3.6176 H   0  0  0  0  0  0  0  0  0  0  0  0
    2.7914    0.8810   -5.5984 H   0  0  0  0  0  0  0  0  0  0  0  0
    2.5695   -0.8651   -5.7652 H   0  0  0  0  0  0  0  0  0  0  0  0
   -0.6190   -2.8191   -4.4632 H   0  0  0  0  0  0  0  0  0  0  0  0
    0.9922   -2.5944   -5.1438 H   0  0  0  0  0  0  0  0  0  0  0  0
    1.2127   -3.6108   -2.9992 H   0  0  0  0  0  0  0  0  0  0  0  0
    1.8317   -1.9533   -2.8137 H   0  0  0  0  0  0  0  0  0  0  0  0
   -1.5371   -2.6231    0.4215 H   0  0  0  0  0  0  0  0  0  0  0  0
    4.1968   -2.7139    0.2670 H   0  0  0  0  0  0  0  0  0  0  0  0
    1.7974   -3.8305    3.6869 H   0  0  0  0  0  0  0  0  0  0  0  0
    3.7865   -4.2823    4.9673 H   0  0  0  0  0  0  0  0  0  0  0  0
    6.2657   -4.4248    5.1510 H   0  0  0  0  0  0  0  0  0  0  0  0
    8.4873   -4.1752    4.1153 H   0  0  0  0  0  0  0  0  0  0  0  0
    8.6819   -3.3982    1.7642 H   0  0  0  0  0  0  0  0  0  0  0  0
    6.6639   -2.8703    0.4544 H   0  0  0  0  0  0  0  0  0  0  0  0
   -0.2268   -3.1539    3.5632 H   0  0  0  0  0  0  0  0  0  0  0  0
    0.7325   -1.6501    3.4180 H   0  0  0  0  0  0  0  0  0  0  0  0
   -0.9518   -1.6776    2.9331 H   0  0  0  0  0  0  0  0  0  0  0  0
  1  2  1  0  0  0  0
  1  6  1  0  0  0  0
  1 26  1  0  0  0  0
  1 27  1  0  0  0  0
  2  3  1  0  0  0  0
  2 28  1  0  0  0  0
  2 29  1  0  0  0  0
  3  4  1  0  0  0  0
  3  7  1  0  0  0  0
  4  5  1  0  0  0  0
  4 30  1  0  0  0  0
  4 31  1  0  0  0  0
  5  6  1  0  0  0  0
  5 32  1  0  0  0  0
  5 33  1  0  0  0  0
  7  8  1  0  0  0  0
  7 34  1  0  0  0  0
  7 35  1  0  0  0  0
  8  9  1  0  0  0  0
  8 36  1  0  0  0  0
  8 37  1  0  0  0  0
  9 12  1  0  0  0  0
 10 11  1  0  0  0  0
 10 14  1  0  0  0  0
 10 16  1  0  0  0  0
 11 12  2  0  0  0  0
 12 13  1  0  0  0  0
 13 14  2  0  0  0  0
 13 38  1  0  0  0  0
 14 25  1  0  0  0  0
 15 16  2  0  0  0  0
 15 24  1  0  0  0  0
 15 39  1  0  0  0  0
 16 17  1  0  0  0  0
 17 18  2  0  0  0  0
 17 40  1  0  0  0  0
 18 19  1  0  0  0  0
 18 41  1  0  0  0  0
 19 20  1  0  0  0  0
 19 24  2  0  0  0  0
 20 21  2  0  0  0  0
 20 42  1  0  0  0  0
 21 22  1  0  0  0  0
 21 43  1  0  0  0  0
 22 23  2  0  0  0  0
 22 44  1  0  0  0  0
 23 24  1  0  0  0  0
 23 45  1  0  0  0  0
 25 46  1  0  0  0  0
 25 47  1  0  0  0  0
 25 48  1  0  0  0  0
M  END
>  <Mol_ID>
4797

>  <Formula>
C20H23N3O2

>  <MolWeight>
337.41552

>  <Cat>
S6754

>  <Name>
S1RA

>  <Synonyms>
E-52862

>  <Target>
Sigma Receptor

>  <Form>
Free Base

>  <CAS>
878141-96-9

>  <URL>
http://www.selleck.cn/products/s1ra.html

$$$$
