S3074 Chlortalidone.cdx
 OpenBabel08302519533D

 33 35  0  0  0  0  0  0  0  0999 V2000
   -1.9364    0.9364   -0.0256 C   0  0  3  0  0  0  0  0  0  0  0  0
   -0.4507    0.6984   -0.0180 C   0  0  0  0  0  0  0  0  0  0  0  0
   -2.4483    1.7160   -1.2341 C   0  0  0  0  0  0  0  0  0  0  0  0
   -2.4649   -0.3953    0.0326 N   0  0  0  0  0  0  0  0  0  0  0  0
   -2.3183    1.5537    1.1868 O   0  0  0  0  0  0  0  0  0  0  0  0
   -0.2004   -0.6739   -0.0314 C   0  0  0  0  0  0  0  0  0  0  0  0
    0.6111    1.5885    0.0359 C   0  0  0  0  0  0  0  0  0  0  0  0
   -2.8345    1.0672   -2.4233 C   0  0  0  0  0  0  0  0  0  0  0  0
   -2.5012    3.1255   -1.2075 C   0  0  0  0  0  0  0  0  0  0  0  0
   -1.4914   -1.3647   -0.0119 C   0  0  0  0  0  0  0  0  0  0  0  0
    1.0748   -1.2101   -0.0258 C   0  0  0  0  0  0  0  0  0  0  0  0
    1.9137    1.0721    0.0479 C   0  0  0  0  0  0  0  0  0  0  0  0
   -3.2460    1.8133   -3.5366 C   0  0  0  0  0  0  0  0  0  0  0  0
   -2.9329    3.8605   -2.3165 C   0  0  0  0  0  0  0  0  0  0  0  0
   -1.6601   -2.5672   -0.0418 O   0  0  0  0  0  0  0  0  0  0  0  0
    2.1444   -0.3158    0.0101 C   0  0  0  0  0  0  0  0  0  0  0  0
   -3.3044    3.2049   -3.4852 C   0  0  0  0  0  0  0  0  0  0  0  0
   -3.6282    0.9790   -5.0492 S   0  0  0  0  0  0  0  0  0  0  0  0
   -2.1837    0.1955   -5.3852 N   0  0  0  0  0  0  0  0  0  0  0  0
   -4.6076   -0.0390   -4.7776 O   0  0  0  0  0  0  0  0  0  0  0  0
   -3.7833    1.9569   -6.1033 O   0  0  0  0  0  0  0  0  0  0  0  0
   -3.4441   -0.6325    0.0492 H   0  0  0  0  0  0  0  0  0  0  0  0
   -3.2508    1.7969    1.0793 H   0  0  0  0  0  0  0  0  0  0  0  0
    0.4442    2.6595    0.0871 H   0  0  0  0  0  0  0  0  0  0  0  0
   -2.7999   -0.0187   -2.5014 H   0  0  0  0  0  0  0  0  0  0  0  0
   -2.1928    3.6683   -0.3143 H   0  0  0  0  0  0  0  0  0  0  0  0
    1.2292   -2.2839   -0.0323 H   0  0  0  0  0  0  0  0  0  0  0  0
    2.7619    1.7523    0.0983 H   0  0  0  0  0  0  0  0  0  0  0  0
   -2.9632    4.9471   -2.2734 H   0  0  0  0  0  0  0  0  0  0  0  0
    3.1644   -0.6930    0.0250 H   0  0  0  0  0  0  0  0  0  0  0  0
   -3.6202    3.7826   -4.3530 H   0  0  0  0  0  0  0  0  0  0  0  0
   -2.3717   -0.7815   -5.6213 H   0  0  0  0  0  0  0  0  0  0  0  0
   -1.6604    0.6967   -6.1029 H   0  0  0  0  0  0  0  0  0  0  0  0
  1  2  1  0  0  0  0
  1  3  1  0  0  0  0
  1  4  1  0  0  0  0
  1  5  1  0  0  0  0
  2  6  2  0  0  0  0
  2  7  1  0  0  0  0
  3  8  2  0  0  0  0
  3  9  1  0  0  0  0
  4 10  1  0  0  0  0
  4 22  1  0  0  0  0
  5 23  1  0  0  0  0
  6 11  1  0  0  0  0
  6 10  1  0  0  0  0
  7 12  2  0  0  0  0
  7 24  1  0  0  0  0
  8 13  1  0  0  0  0
  8 25  1  0  0  0  0
  9 14  2  0  0  0  0
  9 26  1  0  0  0  0
 10 15  2  0  0  0  0
 11 16  2  0  0  0  0
 11 27  1  0  0  0  0
 12 16  1  0  0  0  0
 12 28  1  0  0  0  0
 13 17  2  0  0  0  0
 13 18  1  0  0  0  0
 14 17  1  0  0  0  0
 14 29  1  0  0  0  0
 16 30  1  0  0  0  0
 17 31  1  0  0  0  0
 18 19  1  0  0  0  0
 18 20  2  0  0  0  0
 18 21  2  0  0  0  0
 19 32  1  0  0  0  0
 19 33  1  0  0  0  0
M  END
>  <Mol_ID>
2014

>  <Formula>
C14H11ClN2O4S

>  <MolWeight>
338.76614

>  <Cat>
S3074

>  <Name>
Chlorthalidone

>  <Synonyms>
Chlortalidone

>  <Target>
Sodium Channel

>  <Form>
free base

>  <CAS>
77-36-1

>  <URL>
http://selleckchem.com/products/chlorthalidone-chlortalidone.html

$$$$
