S3613 Scoparone.cdx
 OpenBabel08302519503D

 25 26  0  0  0  0  0  0  0  0999 V2000
    0.6167   -0.7867   -0.0055 C   0  0  0  0  0  0  0  0  0  0  0  0
    0.3079    0.5655   -0.0410 C   0  0  0  0  0  0  0  0  0  0  0  0
    1.9583   -1.1589    0.0526 C   0  0  0  0  0  0  0  0  0  0  0  0
   -0.4650   -1.7576   -0.0331 C   0  0  0  0  0  0  0  0  0  0  0  0
    1.2989    1.5458   -0.0428 C   0  0  0  0  0  0  0  0  0  0  0  0
   -1.0288    1.0056   -0.0670 O   0  0  0  0  0  0  0  0  0  0  0  0
    2.9817   -0.1901    0.0658 C   0  0  0  0  0  0  0  0  0  0  0  0
   -1.7316   -1.3293   -0.0468 C   0  0  0  0  0  0  0  0  0  0  0  0
    2.6505    1.1801    0.0079 C   0  0  0  0  0  0  0  0  0  0  0  0
   -2.0827    0.1021   -0.0328 C   0  0  0  0  0  0  0  0  0  0  0  0
    4.2268   -0.7639    0.1394 O   0  0  0  0  0  0  0  0  0  0  0  0
    3.6669    2.0961    0.0013 O   0  0  0  0  0  0  0  0  0  0  0  0
   -3.2533    0.4603   -0.0012 O   0  0  0  0  0  0  0  0  0  0  0  0
    5.3707    0.0758    0.1739 C   0  0  0  0  0  0  0  0  0  0  0  0
    3.3365    3.4769   -0.0566 C   0  0  0  0  0  0  0  0  0  0  0  0
    2.2347   -2.2102    0.0919 H   0  0  0  0  0  0  0  0  0  0  0  0
   -0.2287   -2.8160   -0.0467 H   0  0  0  0  0  0  0  0  0  0  0  0
    0.9816    2.5826   -0.0807 H   0  0  0  0  0  0  0  0  0  0  0  0
   -2.5681   -2.0174   -0.0665 H   0  0  0  0  0  0  0  0  0  0  0  0
    5.4772    0.6353   -0.7610 H   0  0  0  0  0  0  0  0  0  0  0  0
    5.3614    0.7314    1.0505 H   0  0  0  0  0  0  0  0  0  0  0  0
    6.2521   -0.5669    0.2666 H   0  0  0  0  0  0  0  0  0  0  0  0
    2.8023    3.7173   -0.9811 H   0  0  0  0  0  0  0  0  0  0  0  0
    2.7665    3.7831    0.8262 H   0  0  0  0  0  0  0  0  0  0  0  0
    4.2741    4.0420   -0.0589 H   0  0  0  0  0  0  0  0  0  0  0  0
  1  2  1  0  0  0  0
  1  3  2  0  0  0  0
  1  4  1  0  0  0  0
  2  5  2  0  0  0  0
  2  6  1  0  0  0  0
  3  7  1  0  0  0  0
  3 16  1  0  0  0  0
  4  8  2  0  0  0  0
  4 17  1  0  0  0  0
  5  9  1  0  0  0  0
  5 18  1  0  0  0  0
  6 10  1  0  0  0  0
  7 11  1  0  0  0  0
  7  9  2  0  0  0  0
  8 10  1  0  0  0  0
  8 19  1  0  0  0  0
  9 12  1  0  0  0  0
 10 13  2  0  0  0  0
 11 14  1  0  0  0  0
 12 15  1  0  0  0  0
 14 20  1  0  0  0  0
 14 21  1  0  0  0  0
 14 22  1  0  0  0  0
 15 23  1  0  0  0  0
 15 24  1  0  0  0  0
 15 25  1  0  0  0  0
M  END
>  <Mol_ID>
1659

>  <Formula>
C11H10O4

>  <MolWeight>
206.1947

>  <Cat>
S3613

>  <Name>
Scoparone

>  <Synonyms>
6,7-dimethoxycoumarin, Aesculetin dimethyl ether, 6,7-Dimethylesculetin, Escoparone

>  <Target>
Others

>  <Form>
free base

>  <CAS>
120-08-1

>  <URL>
http://selleckchem.com/products/scoparone.html

$$$$
