S3610 Cordycepin.cdx
 OpenBabel08302519503D

 31 33  0  0  0  0  0  0  0  0999 V2000
    3.5767    2.5360   -0.0399 N   0  0  0  0  0  0  0  0  0  0  0  0
    4.3315    1.7165    0.7576 C   0  0  0  0  0  0  0  0  0  0  0  0
    2.1263    2.5911   -0.0595 C   0  0  2  0  0  0  0  0  0  0  0  0
    4.4474    3.2622   -0.8098 C   0  0  0  0  0  0  0  0  0  0  0  0
    5.6457    2.0713    0.4929 C   0  0  0  0  0  0  0  0  0  0  0  0
    3.9019    0.7899    1.6297 N   0  0  0  0  0  0  0  0  0  0  0  0
    1.7088    3.5354   -1.0806 O   0  0  0  0  0  0  0  0  0  0  0  0
    1.4923    3.0852    1.2481 C   0  0  1  0  0  0  0  0  0  0  0  0
    5.7036    3.0323   -0.4923 N   0  0  0  0  0  0  0  0  0  0  0  0
    6.6395    1.4187    1.2377 C   0  0  0  0  0  0  0  0  0  0  0  0
    4.9440    0.2038    2.2561 C   0  0  0  0  0  0  0  0  0  0  0  0
    1.1491    4.7059   -0.4397 C   0  0  1  0  0  0  0  0  0  0  0  0
    1.4242    4.5826    1.0495 C   0  0  0  0  0  0  0  0  0  0  0  0
    0.1619    2.5785    1.4202 O   0  0  0  0  0  0  0  0  0  0  0  0
    6.2641    0.4599    2.1145 N   0  0  0  0  0  0  0  0  0  0  0  0
    7.9909    1.7112    1.1120 N   0  0  0  0  0  0  0  0  0  0  0  0
    1.7534    5.9664   -1.0577 C   0  0  0  0  0  0  0  0  0  0  0  0
    1.4746    6.0000   -2.4546 O   0  0  0  0  0  0  0  0  0  0  0  0
    1.7659    1.5997   -0.3541 H   0  0  0  0  0  0  0  0  0  0  0  0
    4.1204    3.9470   -1.5814 H   0  0  0  0  0  0  0  0  0  0  0  0
    2.0526    2.8158    2.1468 H   0  0  0  0  0  0  0  0  0  0  0  0
    4.6925   -0.5762    2.9701 H   0  0  0  0  0  0  0  0  0  0  0  0
    0.0729    4.6765   -0.6445 H   0  0  0  0  0  0  0  0  0  0  0  0
    0.6435    5.0718    1.6406 H   0  0  0  0  0  0  0  0  0  0  0  0
    2.3892    5.0352    1.3049 H   0  0  0  0  0  0  0  0  0  0  0  0
   -0.3427    2.7107    0.5978 H   0  0  0  0  0  0  0  0  0  0  0  0
    8.2294    2.1679    0.2396 H   0  0  0  0  0  0  0  0  0  0  0  0
    8.5855    0.9595    1.4342 H   0  0  0  0  0  0  0  0  0  0  0  0
    1.3363    6.8687   -0.6010 H   0  0  0  0  0  0  0  0  0  0  0  0
    2.8416    5.9865   -0.9411 H   0  0  0  0  0  0  0  0  0  0  0  0
    1.7333    5.1281   -2.8087 H   0  0  0  0  0  0  0  0  0  0  0  0
  1  2  1  0  0  0  0
  1  4  1  0  0  0  0
  2  5  2  0  0  0  0
  2  6  1  0  0  0  0
  3  7  1  0  0  0  0
  3  8  1  0  0  0  0
  3  1  1  0  0  0  0
  3 19  1  6  0  0  0
  4  9  2  0  0  0  0
  4 20  1  0  0  0  0
  5 10  1  0  0  0  0
  5  9  1  0  0  0  0
  6 11  2  0  0  0  0
  7 12  1  0  0  0  0
  8 13  1  0  0  0  0
  8 14  1  0  0  0  0
  8 21  1  1  0  0  0
 10 15  2  0  0  0  0
 10 16  1  0  0  0  0
 11 15  1  0  0  0  0
 11 22  1  0  0  0  0
 12 17  1  0  0  0  0
 12 13  1  0  0  0  0
 12 23  1  6  0  0  0
 13 24  1  0  0  0  0
 13 25  1  0  0  0  0
 14 26  1  0  0  0  0
 16 27  1  0  0  0  0
 16 28  1  0  0  0  0
 17 18  1  0  0  0  0
 17 29  1  0  0  0  0
 17 30  1  0  0  0  0
 18 31  1  0  0  0  0
M  END
>  <Mol_ID>
1663

>  <Formula>
C10H13N5O3

>  <MolWeight>
251.24192

>  <Cat>
S3610

>  <Name>
Cordycepin

>  <Synonyms>
3'-Deoxyadenosine

>  <Target>
MMP

>  <Form>
free base

>  <CAS>
73-03-0

>  <URL>
http://selleckchem.com/products/cordycepin.html

$$$$
