S3615 Dehydrocostus Lactone.cdx
 OpenBabel08302519503D

 35 37  0  0  0  0  0  0  0  0999 V2000
    1.4805   -1.7361    0.1128 O   0  0  0  0  0  0  0  0  0  0  0  0
    0.6636   -0.5537    0.2224 C   0  0  1  0  0  0  0  0  0  0  0  0
    1.5264    0.5941   -0.3006 C   0  0  2  0  0  0  0  0  0  0  0  0
    2.8974    0.0230   -0.2621 C   0  0  0  0  0  0  0  0  0  0  0  0
    2.7955   -1.4233   -0.0063 C   0  0  0  0  0  0  0  0  0  0  0  0
   -2.6297    0.2509    0.4349 C   0  0  0  0  0  0  0  0  0  0  0  0
   -2.8312   -1.2560    0.4599 C   0  0  0  0  0  0  0  0  0  0  0  0
   -1.5456   -1.8167   -0.0754 C   0  0  0  0  0  0  0  0  0  0  0  0
   -0.6320   -0.7234   -0.6063 C   0  0  1  0  0  0  0  0  0  0  0  0
    1.3180    1.8839    0.4977 C   0  0  0  0  0  0  0  0  0  0  0  0
   -0.1587    2.2599    0.6444 C   0  0  0  0  0  0  0  0  0  0  0  0
   -0.9603    1.8929   -0.5857 C   0  0  0  0  0  0  0  0  0  0  0  0
   -1.5841    0.5063   -0.6604 C   0  0  2  0  0  0  0  0  0  0  0  0
    3.7213   -2.2146    0.0428 O   0  0  0  0  0  0  0  0  0  0  0  0
   -1.2909   -3.1323   -0.1345 C   0  0  0  0  0  0  0  0  0  0  0  0
   -1.0518    2.7637   -1.6041 C   0  0  0  0  0  0  0  0  0  0  0  0
    4.0558    0.6399   -0.5204 C   0  0  0  0  0  0  0  0  0  0  0  0
    0.4218   -0.4402    1.2883 H   0  0  0  0  0  0  0  0  0  0  0  0
    1.3066    0.7803   -1.3609 H   0  0  0  0  0  0  0  0  0  0  0  0
   -3.5705    0.7695    0.2160 H   0  0  0  0  0  0  0  0  0  0  0  0
   -2.3007    0.5889    1.4220 H   0  0  0  0  0  0  0  0  0  0  0  0
   -3.6674   -1.5420   -0.1865 H   0  0  0  0  0  0  0  0  0  0  0  0
   -3.0348   -1.6006    1.4793 H   0  0  0  0  0  0  0  0  0  0  0  0
   -0.3486   -0.9894   -1.6349 H   0  0  0  0  0  0  0  0  0  0  0  0
    1.8496    2.7061    0.0017 H   0  0  0  0  0  0  0  0  0  0  0  0
    1.7601    1.7982    1.4999 H   0  0  0  0  0  0  0  0  0  0  0  0
   -0.5704    1.7722    1.5337 H   0  0  0  0  0  0  0  0  0  0  0  0
   -0.2394    3.3340    0.8538 H   0  0  0  0  0  0  0  0  0  0  0  0
   -2.1216    0.4308   -1.6199 H   0  0  0  0  0  0  0  0  0  0  0  0
   -2.0020   -3.8636    0.2390 H   0  0  0  0  0  0  0  0  0  0  0  0
   -0.3667   -3.5132   -0.5567 H   0  0  0  0  0  0  0  0  0  0  0  0
   -1.5790    2.5229   -2.5230 H   0  0  0  0  0  0  0  0  0  0  0  0
   -0.5699    3.7373   -1.5609 H   0  0  0  0  0  0  0  0  0  0  0  0
    4.9943    0.0913   -0.5206 H   0  0  0  0  0  0  0  0  0  0  0  0
    4.0920    1.6925   -0.7808 H   0  0  0  0  0  0  0  0  0  0  0  0
  1  5  1  0  0  0  0
  2  1  1  0  0  0  0
  2  3  1  0  0  0  0
  2  9  1  0  0  0  0
  2 18  1  1  0  0  0
  3  4  1  0  0  0  0
  3 10  1  0  0  0  0
  3 19  1  6  0  0  0
  4  5  1  0  0  0  0
  4 17  2  0  0  0  0
  5 14  2  0  0  0  0
  6  7  1  0  0  0  0
  6 20  1  0  0  0  0
  6 21  1  0  0  0  0
  7  8  1  0  0  0  0
  7 22  1  0  0  0  0
  7 23  1  0  0  0  0
  8 15  2  0  0  0  0
  9  8  1  0  0  0  0
  9 13  1  0  0  0  0
  9 24  1  6  0  0  0
 10 11  1  0  0  0  0
 10 25  1  0  0  0  0
 10 26  1  0  0  0  0
 11 12  1  0  0  0  0
 11 27  1  0  0  0  0
 11 28  1  0  0  0  0
 12 13  1  0  0  0  0
 12 16  2  0  0  0  0
 13  6  1  0  0  0  0
 13 29  1  6  0  0  0
 15 30  1  0  0  0  0
 15 31  1  0  0  0  0
 16 32  1  0  0  0  0
 16 33  1  0  0  0  0
 17 34  1  0  0  0  0
 17 35  1  0  0  0  0
M  END
>  <Mol_ID>
1660

>  <Formula>
C15H18O2

>  <MolWeight>
230.30222

>  <Cat>
S3615

>  <Name>
Dehydrocostus Lactone

>  <Synonyms>
N/A

>  <Target>
I¦ÊB/IKK

>  <Form>
free base

>  <CAS>
477-43-0

>  <URL>
http://selleckchem.com/products/dehydrocostus-lactone.html

$$$$
