S3624 Quinolinic acid.cdx
 OpenBabel08302519503D

 17 17  0  0  0  0  0  0  0  0999 V2000
    0.5988    1.1214   -0.0074 C   0  0  0  0  0  0  0  0  0  0  0  0
   -0.7750    1.0290    0.0107 C   0  0  0  0  0  0  0  0  0  0  0  0
   -1.4313   -0.1485    0.0332 N   0  0  0  0  0  0  0  0  0  0  0  0
   -0.6741   -1.3068    0.0323 C   0  0  0  0  0  0  0  0  0  0  0  0
    0.7175   -1.3294    0.0015 C   0  0  0  0  0  0  0  0  0  0  0  0
    1.3385   -0.0612   -0.0131 C   0  0  0  0  0  0  0  0  0  0  0  0
    1.6616   -2.4874   -0.0275 C   0  0  0  0  0  0  0  0  0  0  0  0
    1.2178   -3.7502   -0.0518 O   0  0  0  0  0  0  0  0  0  0  0  0
    2.8696   -2.2746   -0.0469 O   0  0  0  0  0  0  0  0  0  0  0  0
   -1.5571   -2.5115    0.0844 C   0  0  0  0  0  0  0  0  0  0  0  0
   -2.8643   -2.1562    0.1113 O   0  0  0  0  0  0  0  0  0  0  0  0
   -1.1795   -3.6684    0.1070 O   0  0  0  0  0  0  0  0  0  0  0  0
    1.0947    2.0872   -0.0192 H   0  0  0  0  0  0  0  0  0  0  0  0
   -1.3977    1.9203    0.0093 H   0  0  0  0  0  0  0  0  0  0  0  0
    2.4270    0.0179   -0.0309 H   0  0  0  0  0  0  0  0  0  0  0  0
    0.2542   -3.9451    0.0121 H   0  0  0  0  0  0  0  0  0  0  0  0
   -2.9276   -1.1700    0.0938 H   0  0  0  0  0  0  0  0  0  0  0  0
  1  2  2  0  0  0  0
  1 13  1  0  0  0  0
  2  3  1  0  0  0  0
  2 14  1  0  0  0  0
  3  4  2  0  0  0  0
  4  5  1  0  0  0  0
  4 10  1  0  0  0  0
  5  6  2  0  0  0  0
  5  7  1  0  0  0  0
  6  1  1  0  0  0  0
  6 15  1  0  0  0  0
  7  8  1  0  0  0  0
  7  9  2  0  0  0  0
  8 16  1  0  0  0  0
 10 11  1  0  0  0  0
 10 12  2  0  0  0  0
 11 17  1  0  0  0  0
M  END
>  <Mol_ID>
1665

>  <Formula>
C7H5NO4

>  <MolWeight>
167.1189

>  <Cat>
S3624

>  <Name>
Quinolinic acid

>  <Synonyms>
pyridine-2,3-dicarboxylic acid, QUIN

>  <Target>
NMDAR

>  <Form>
free base

>  <CAS>
89-00-9

>  <URL>
http://selleckchem.com/products/quinolinic-acid.html

$$$$
