S3628 BHQ.cdx
 OpenBabel08302519503D

 38 38  0  0  0  0  0  0  0  0999 V2000
    1.0149   -0.1748    0.0911 C   0  0  0  0  0  0  0  0  0  0  0  0
    0.5379    1.1769   -0.4850 C   0  0  0  0  0  0  0  0  0  0  0  0
   -0.4880    1.3968   -1.4150 C   0  0  0  0  0  0  0  0  0  0  0  0
    1.1087    2.3534    0.0390 C   0  0  0  0  0  0  0  0  0  0  0  0
   -0.8298    2.6912   -1.8594 C   0  0  0  0  0  0  0  0  0  0  0  0
   -1.2864    0.4234   -1.9388 O   0  0  0  0  0  0  0  0  0  0  0  0
    0.7708    3.6432   -0.4002 C   0  0  0  0  0  0  0  0  0  0  0  0
   -0.1778    3.8522   -1.4044 C   0  0  0  0  0  0  0  0  0  0  0  0
    1.3824    4.6934    0.2167 O   0  0  0  0  0  0  0  0  0  0  0  0
   -0.5712    5.2419   -1.9431 C   0  0  0  0  0  0  0  0  0  0  0  0
    0.8974   -1.3931   -0.8513 C   0  0  0  0  0  0  0  0  0  0  0  0
    0.2074   -0.4780    1.3669 C   0  0  0  0  0  0  0  0  0  0  0  0
    2.5261   -0.1226    0.4672 C   0  0  0  0  0  0  0  0  0  0  0  0
   -1.7141    5.8016   -1.0746 C   0  0  0  0  0  0  0  0  0  0  0  0
    0.6032    6.2518   -1.9448 C   0  0  0  0  0  0  0  0  0  0  0  0
   -1.0749    5.2004   -3.4094 C   0  0  0  0  0  0  0  0  0  0  0  0
    1.8321    2.2872    0.8455 H   0  0  0  0  0  0  0  0  0  0  0  0
   -1.6438    2.7602   -2.5793 H   0  0  0  0  0  0  0  0  0  0  0  0
   -0.7611   -0.3660   -2.1073 H   0  0  0  0  0  0  0  0  0  0  0  0
    2.0788    4.3647    0.8065 H   0  0  0  0  0  0  0  0  0  0  0  0
    1.4209   -2.2651   -0.4368 H   0  0  0  0  0  0  0  0  0  0  0  0
   -0.1371   -1.7254   -0.9771 H   0  0  0  0  0  0  0  0  0  0  0  0
    1.3365   -1.1863   -1.8351 H   0  0  0  0  0  0  0  0  0  0  0  0
    0.5272   -1.4234    1.8202 H   0  0  0  0  0  0  0  0  0  0  0  0
    0.3329    0.3075    2.1196 H   0  0  0  0  0  0  0  0  0  0  0  0
   -0.8623   -0.5577    1.1477 H   0  0  0  0  0  0  0  0  0  0  0  0
    3.1321    0.2169   -0.3889 H   0  0  0  0  0  0  0  0  0  0  0  0
    2.7344    0.5399    1.3103 H   0  0  0  0  0  0  0  0  0  0  0  0
    2.9049   -1.1059    0.7676 H   0  0  0  0  0  0  0  0  0  0  0  0
   -1.3974    5.9382   -0.0359 H   0  0  0  0  0  0  0  0  0  0  0  0
   -2.0568    6.7743   -1.4499 H   0  0  0  0  0  0  0  0  0  0  0  0
   -2.5780    5.1273   -1.0679 H   0  0  0  0  0  0  0  0  0  0  0  0
    1.4742    5.8386   -2.4671 H   0  0  0  0  0  0  0  0  0  0  0  0
    0.3227    7.1840   -2.4585 H   0  0  0  0  0  0  0  0  0  0  0  0
    0.9056    6.5585   -0.9479 H   0  0  0  0  0  0  0  0  0  0  0  0
   -0.3096    4.7910   -4.0805 H   0  0  0  0  0  0  0  0  0  0  0  0
   -1.9855    4.6046   -3.5297 H   0  0  0  0  0  0  0  0  0  0  0  0
   -1.3237    6.2058   -3.7674 H   0  0  0  0  0  0  0  0  0  0  0  0
  1  2  1  0  0  0  0
  1 11  1  0  0  0  0
  1 12  1  0  0  0  0
  1 13  1  0  0  0  0
  2  3  2  0  0  0  0
  2  4  1  0  0  0  0
  3  5  1  0  0  0  0
  3  6  1  0  0  0  0
  4  7  2  0  0  0  0
  4 17  1  0  0  0  0
  5  8  2  0  0  0  0
  5 18  1  0  0  0  0
  6 19  1  0  0  0  0
  7  9  1  0  0  0  0
  7  8  1  0  0  0  0
  8 10  1  0  0  0  0
  9 20  1  0  0  0  0
 10 14  1  0  0  0  0
 10 15  1  0  0  0  0
 10 16  1  0  0  0  0
 11 21  1  0  0  0  0
 11 22  1  0  0  0  0
 11 23  1  0  0  0  0
 12 24  1  0  0  0  0
 12 25  1  0  0  0  0
 12 26  1  0  0  0  0
 13 27  1  0  0  0  0
 13 28  1  0  0  0  0
 13 29  1  0  0  0  0
 14 30  1  0  0  0  0
 14 31  1  0  0  0  0
 14 32  1  0  0  0  0
 15 33  1  0  0  0  0
 15 34  1  0  0  0  0
 15 35  1  0  0  0  0
 16 36  1  0  0  0  0
 16 37  1  0  0  0  0
 16 38  1  0  0  0  0
M  END
>  <Mol_ID>
1738

>  <Formula>
C14H22O2

>  <MolWeight>
222.32328

>  <Cat>
S3628

>  <Name>
BHQ

>  <Synonyms>
2,5-di-t-butyl-1,4-benzohydroquinone

>  <Target>
ADC Cytotoxin,ATPase

>  <Form>
free base

>  <CAS>
88-58-4

>  <URL>
http://selleckchem.com/products/bhq.html

$$$$
