S3629 Syringic acid.cdx
 OpenBabel08302519503D

 24 24  0  0  0  0  0  0  0  0999 V2000
    0.9523   -0.0957    0.0133 C   0  0  0  0  0  0  0  0  0  0  0  0
    0.2100   -1.2896   -0.0451 C   0  0  0  0  0  0  0  0  0  0  0  0
    0.2946    1.1400    0.0183 C   0  0  0  0  0  0  0  0  0  0  0  0
    2.3100   -0.0172    0.1931 O   0  0  0  0  0  0  0  0  0  0  0  0
   -1.1910   -1.2446   -0.1052 C   0  0  0  0  0  0  0  0  0  0  0  0
    0.8560   -2.4902    0.0175 O   0  0  0  0  0  0  0  0  0  0  0  0
   -1.1032    1.1917   -0.0271 C   0  0  0  0  0  0  0  0  0  0  0  0
    3.1157   -0.8154   -0.6715 C   0  0  0  0  0  0  0  0  0  0  0  0
   -1.8326    0.0020   -0.0929 C   0  0  0  0  0  0  0  0  0  0  0  0
   -2.0796   -2.2849   -0.1303 O   0  0  0  0  0  0  0  0  0  0  0  0
   -1.8636    2.4699   -0.0423 C   0  0  0  0  0  0  0  0  0  0  0  0
   -1.5841   -3.6143   -0.1013 C   0  0  0  0  0  0  0  0  0  0  0  0
   -1.2525    3.4866    0.6032 O   0  0  0  0  0  0  0  0  0  0  0  0
   -2.9589    2.5812   -0.5625 O   0  0  0  0  0  0  0  0  0  0  0  0
    0.8933    2.0455    0.0326 H   0  0  0  0  0  0  0  0  0  0  0  0
    1.5675   -2.3816    0.6703 H   0  0  0  0  0  0  0  0  0  0  0  0
    3.2979   -1.7970   -0.2264 H   0  0  0  0  0  0  0  0  0  0  0  0
    2.6935   -0.9106   -1.6769 H   0  0  0  0  0  0  0  0  0  0  0  0
    4.0913   -0.3256   -0.7555 H   0  0  0  0  0  0  0  0  0  0  0  0
   -2.9214    0.0369   -0.1225 H   0  0  0  0  0  0  0  0  0  0  0  0
   -1.0127   -3.8424   -1.0066 H   0  0  0  0  0  0  0  0  0  0  0  0
   -1.0103   -3.8092    0.8097 H   0  0  0  0  0  0  0  0  0  0  0  0
   -2.4481   -4.2862   -0.0814 H   0  0  0  0  0  0  0  0  0  0  0  0
   -0.4728    3.2459    1.1322 H   0  0  0  0  0  0  0  0  0  0  0  0
  1  2  2  0  0  0  0
  1  3  1  0  0  0  0
  1  4  1  0  0  0  0
  2  5  1  0  0  0  0
  2  6  1  0  0  0  0
  3  7  2  0  0  0  0
  3 15  1  0  0  0  0
  4  8  1  0  0  0  0
  5  9  2  0  0  0  0
  5 10  1  0  0  0  0
  6 16  1  0  0  0  0
  7 11  1  0  0  0  0
  7  9  1  0  0  0  0
  8 17  1  0  0  0  0
  8 18  1  0  0  0  0
  8 19  1  0  0  0  0
  9 20  1  0  0  0  0
 10 12  1  0  0  0  0
 11 13  1  0  0  0  0
 11 14  2  0  0  0  0
 12 21  1  0  0  0  0
 12 22  1  0  0  0  0
 12 23  1  0  0  0  0
 13 24  1  0  0  0  0
M  END
>  <Mol_ID>
1661

>  <Formula>
C9H10O5

>  <MolWeight>
198.1727

>  <Cat>
S3629

>  <Name>
Syringic acid

>  <Synonyms>
3,5-dimethyl ether Gallic Acid, 3,5-dimethoxy-4-hydroxy Benzoic Acid, NSC 2129, SYRA

>  <Target>
Antioxidant

>  <Form>
free base

>  <CAS>
530-57-4

>  <URL>
http://selleckchem.com/products/syringic-acid.html

$$$$
