S3626 Sesamol.cdx
 OpenBabel08302519503D

 16 17  0  0  0  0  0  0  0  0999 V2000
   -0.7396   -0.7162    0.0018 C   0  0  0  0  0  0  0  0  0  0  0  0
   -0.4596    0.6313   -0.0006 C   0  0  0  0  0  0  0  0  0  0  0  0
   -2.0754   -0.9688    0.0128 O   0  0  0  0  0  0  0  0  0  0  0  0
    0.2597   -1.6675   -0.0023 C   0  0  0  0  0  0  0  0  0  0  0  0
    0.8345    1.1032   -0.0078 C   0  0  0  0  0  0  0  0  0  0  0  0
   -1.5875    1.3935    0.0082 O   0  0  0  0  0  0  0  0  0  0  0  0
   -2.6034    0.3721    0.0798 C   0  0  0  0  0  0  0  0  0  0  0  0
    1.5840   -1.2190   -0.0021 C   0  0  0  0  0  0  0  0  0  0  0  0
    1.8579    0.1573   -0.0051 C   0  0  0  0  0  0  0  0  0  0  0  0
    3.1423    0.6176   -0.0024 O   0  0  0  0  0  0  0  0  0  0  0  0
    0.0215   -2.7246    0.0009 H   0  0  0  0  0  0  0  0  0  0  0  0
    1.0484    2.1643   -0.0095 H   0  0  0  0  0  0  0  0  0  0  0  0
   -3.1455    0.4855    1.0259 H   0  0  0  0  0  0  0  0  0  0  0  0
   -3.3078    0.5161   -0.7478 H   0  0  0  0  0  0  0  0  0  0  0  0
    2.3881   -1.9493    0.0010 H   0  0  0  0  0  0  0  0  0  0  0  0
    3.7473   -0.1421    0.0025 H   0  0  0  0  0  0  0  0  0  0  0  0
  1  2  2  0  0  0  0
  1  3  1  0  0  0  0
  1  4  1  0  0  0  0
  2  5  1  0  0  0  0
  2  6  1  0  0  0  0
  3  7  1  0  0  0  0
  4  8  2  0  0  0  0
  4 11  1  0  0  0  0
  5  9  2  0  0  0  0
  5 12  1  0  0  0  0
  6  7  1  0  0  0  0
  7 13  1  0  0  0  0
  7 14  1  0  0  0  0
  8  9  1  0  0  0  0
  8 15  1  0  0  0  0
  9 10  1  0  0  0  0
 10 16  1  0  0  0  0
M  END
>  <Mol_ID>
1667

>  <Formula>
C7H6O3

>  <MolWeight>
138.12074

>  <Cat>
S3626

>  <Name>
Sesamol

>  <Synonyms>
1,3-Benzodioxol-5-ol, 3,4-Methylenedioxyphenol

>  <Target>
Antioxidant

>  <Form>
free base

>  <CAS>
533-31-3

>  <URL>
http://selleckchem.com/products/sesamol.html

$$$$
