S3621 Pazufloxacin (mesylate).cdx
 OpenBabel08302519503D

 47 49  0  0  0  0  0  0  0  0999 V2000
    1.3817    2.4015    0.6264 O   0  0  0  0  0  0  0  0  0  0  0  0
    2.5091    1.7239    1.2115 C   0  0  0  0  0  0  0  0  0  0  0  0
    2.9955    0.4530    0.4794 C   0  0  1  0  0  0  0  0  0  0  0  0
    1.9346   -0.5869    0.4402 N   0  0  0  0  0  0  0  0  0  0  0  0
    0.2133    0.3054    0.4782 C   0  0  0  0  0  0  0  0  0  0  0  0
    0.2612    1.6657    0.4870 C   0  0  0  0  0  0  0  0  0  0  0  0
   -1.2370   -0.8019    0.0447 C   0  0  0  0  0  0  0  0  0  0  0  0
   -2.3855   -0.1114   -0.1801 C   0  0  0  0  0  0  0  0  0  0  0  0
   -2.2268    1.3217   -0.1569 C   0  0  0  0  0  0  0  0  0  0  0  0
   -0.9972    2.1888    0.0919 C   0  0  0  0  0  0  0  0  0  0  0  0
   -1.1481   -2.8269    0.2360 C   0  0  0  0  0  0  0  0  0  0  0  0
    0.7796   -3.5436    0.2118 C   0  0  0  0  0  0  0  0  0  0  0  0
    2.0819   -2.4241    0.0540 C   0  0  0  0  0  0  0  0  0  0  0  0
    1.0137   -4.9870    0.1596 C   0  0  0  0  0  0  0  0  0  0  0  0
    2.0463   -5.5056   -0.2253 O   0  0  0  0  0  0  0  0  0  0  0  0
   -0.0421   -5.6891    0.5763 O   0  0  0  0  0  0  0  0  0  0  0  0
   -2.1050   -3.5865    0.1429 O   0  0  0  0  0  0  0  0  0  0  0  0
    3.5334    0.7631   -0.9223 C   0  0  0  0  0  0  0  0  0  0  0  0
   -3.3563    2.0075   -0.4262 F   0  0  0  0  0  0  0  0  0  0  0  0
   -1.0915    3.6897   -0.2209 C   0  0  0  0  0  0  0  0  0  0  0  0
   -1.5421    4.1777   -1.5840 C   0  0  0  0  0  0  0  0  0  0  0  0
   -0.0902    4.2053   -1.2443 C   0  0  0  0  0  0  0  0  0  0  0  0
   -1.4555    4.5586    0.9049 N   0  0  0  0  0  0  0  0  0  0  0  0
    0.7925   -0.7653   -1.1094 C   0  0  0  0  0  0  0  0  0  0  0  0
    0.3944   -1.6479    1.1552 S   0  0  0  0  0  0  0  0  0  0  0  0
    1.3907   -2.2976    2.0320 O   0  0  0  0  0  0  0  0  0  0  0  0
   -0.7917   -1.4003    1.9909 O   0  0  0  0  0  0  0  0  0  0  0  0
    0.0598   -2.2099   -0.8824 O   0  0  0  0  0  0  0  0  0  0  0  0
    3.3272    2.4559    1.2029 H   0  0  0  0  0  0  0  0  0  0  0  0
    2.2944    1.5124    2.2663 H   0  0  0  0  0  0  0  0  0  0  0  0
    3.8267    0.0325    1.0558 H   0  0  0  0  0  0  0  0  0  0  0  0
   -3.3389   -0.5823   -0.3695 H   0  0  0  0  0  0  0  0  0  0  0  0
    3.1463   -2.6461    0.0767 H   0  0  0  0  0  0  0  0  0  0  0  0
    0.2042   -6.6332    0.5095 H   0  0  0  0  0  0  0  0  0  0  0  0
    4.4505    1.3566   -0.8654 H   0  0  0  0  0  0  0  0  0  0  0  0
    3.7654   -0.1595   -1.4660 H   0  0  0  0  0  0  0  0  0  0  0  0
    2.8288    1.3409   -1.5302 H   0  0  0  0  0  0  0  0  0  0  0  0
   -1.8909    3.4537   -2.3094 H   0  0  0  0  0  0  0  0  0  0  0  0
   -2.0339    5.1418   -1.6607 H   0  0  0  0  0  0  0  0  0  0  0  0
    0.3982    5.1478   -1.0335 H   0  0  0  0  0  0  0  0  0  0  0  0
    0.5426    3.4992   -1.7732 H   0  0  0  0  0  0  0  0  0  0  0  0
   -1.0791    4.1997    1.7803 H   0  0  0  0  0  0  0  0  0  0  0  0
   -2.4694    4.5698    1.0150 H   0  0  0  0  0  0  0  0  0  0  0  0
    1.1400    0.2859   -1.2574 H   0  0  0  0  0  0  0  0  0  0  0  0
   -0.0963   -0.6330   -1.8006 H   0  0  0  0  0  0  0  0  0  0  0  0
    1.6356   -1.2393   -1.6820 H   0  0  0  0  0  0  0  0  0  0  0  0
    0.7193   -2.7075   -1.4592 H   0  0  0  0  0  0  0  0  0  0  0  0
  1  2  1  0  0  0  0
  1  6  1  0  0  0  0
  2  3  1  0  0  0  0
  2 29  1  0  0  0  0
  2 30  1  0  0  0  0
  3  4  1  0  0  0  0
  3 18  1  0  0  0  0
  3 31  1  1  0  0  0
  4  5  1  0  0  0  0
  4 13  1  0  0  0  0
  5  6  2  0  0  0  0
  5  7  1  0  0  0  0
  6 10  1  0  0  0  0
  7  8  2  0  0  0  0
  7 11  1  0  0  0  0
  8  9  1  0  0  0  0
  8 32  1  0  0  0  0
  9 10  2  0  0  0  0
  9 19  1  0  0  0  0
 10 20  1  0  0  0  0
 11 12  1  0  0  0  0
 11 17  2  0  0  0  0
 12 13  2  0  0  0  0
 12 14  1  0  0  0  0
 13 33  1  0  0  0  0
 14 15  2  0  0  0  0
 14 16  1  0  0  0  0
 16 34  1  0  0  0  0
 18 35  1  0  0  0  0
 18 36  1  0  0  0  0
 18 37  1  0  0  0  0
 20 21  1  0  0  0  0
 20 22  1  0  0  0  0
 20 23  1  0  0  0  0
 21 22  1  0  0  0  0
 21 38  1  0  0  0  0
 21 39  1  0  0  0  0
 22 40  1  0  0  0  0
 22 41  1  0  0  0  0
 23 42  1  0  0  0  0
 23 43  1  0  0  0  0
 24 25  1  0  0  0  0
 24 44  1  0  0  0  0
 24 45  1  0  0  0  0
 24 46  1  0  0  0  0
 25 26  2  0  0  0  0
 25 27  2  0  0  0  0
 25 28  1  0  0  0  0
 28 47  1  0  0  0  0
M  END
>  <Mol_ID>
1664

>  <Formula>
C17H19FN2O7S

>  <MolWeight>
414.4053632

>  <Cat>
S3621

>  <Name>
Pazufloxacin mesylate

>  <Synonyms>
T-3762, Pazucross

>  <Target>
Bacterial

>  <Form>
methanesulfonate

>  <CAS>
163680-77-1

>  <URL>
http://selleckchem.com/products/pazufloxacin-mesylate.html

$$$$
