S3634 6-Hydroxyflavone.cdx
 OpenBabel08302519503D

 28 30  0  0  0  0  0  0  0  0999 V2000
   -0.2627   -1.0149    0.0231 C   0  0  0  0  0  0  0  0  0  0  0  0
   -0.1532    0.3736    0.0136 C   0  0  0  0  0  0  0  0  0  0  0  0
   -1.4695   -1.6680    0.0357 O   0  0  0  0  0  0  0  0  0  0  0  0
    0.8900   -1.8016    0.0190 C   0  0  0  0  0  0  0  0  0  0  0  0
   -1.3827    1.1748    0.0056 C   0  0  0  0  0  0  0  0  0  0  0  0
    1.1001    0.9890    0.0036 C   0  0  0  0  0  0  0  0  0  0  0  0
   -2.6348   -0.9113    0.0083 C   0  0  0  0  0  0  0  0  0  0  0  0
    2.1491   -1.1945    0.0041 C   0  0  0  0  0  0  0  0  0  0  0  0
   -2.6509    0.4303   -0.0184 C   0  0  0  0  0  0  0  0  0  0  0  0
   -1.3729    2.3984    0.0138 O   0  0  0  0  0  0  0  0  0  0  0  0
    2.2413    0.1961   -0.0018 C   0  0  0  0  0  0  0  0  0  0  0  0
   -3.8830   -1.7100   -0.0165 C   0  0  0  0  0  0  0  0  0  0  0  0
    3.4492    0.8272   -0.0146 O   0  0  0  0  0  0  0  0  0  0  0  0
   -3.8966   -2.9826   -0.6106 C   0  0  0  0  0  0  0  0  0  0  0  0
   -5.0750   -1.2411    0.5615 C   0  0  0  0  0  0  0  0  0  0  0  0
   -5.0647   -3.7508   -0.6430 C   0  0  0  0  0  0  0  0  0  0  0  0
   -6.2445   -2.0062    0.5244 C   0  0  0  0  0  0  0  0  0  0  0  0
   -6.2390   -3.2601   -0.0790 C   0  0  0  0  0  0  0  0  0  0  0  0
    0.8097   -2.8861    0.0249 H   0  0  0  0  0  0  0  0  0  0  0  0
    1.1856    2.0726   -0.0028 H   0  0  0  0  0  0  0  0  0  0  0  0
    3.0393   -1.8165   -0.0034 H   0  0  0  0  0  0  0  0  0  0  0  0
   -3.5496    1.0304   -0.0657 H   0  0  0  0  0  0  0  0  0  0  0  0
    4.1566    0.1614   -0.0108 H   0  0  0  0  0  0  0  0  0  0  0  0
   -2.9956   -3.3898   -1.0648 H   0  0  0  0  0  0  0  0  0  0  0  0
   -5.1135   -0.2752    1.0599 H   0  0  0  0  0  0  0  0  0  0  0  0
   -5.0556   -4.7321   -1.1106 H   0  0  0  0  0  0  0  0  0  0  0  0
   -7.1578   -1.6212    0.9713 H   0  0  0  0  0  0  0  0  0  0  0  0
   -7.1480   -3.8554   -0.1061 H   0  0  0  0  0  0  0  0  0  0  0  0
  1  2  2  0  0  0  0
  1  3  1  0  0  0  0
  1  4  1  0  0  0  0
  2  5  1  0  0  0  0
  2  6  1  0  0  0  0
  3  7  1  0  0  0  0
  4  8  2  0  0  0  0
  4 19  1  0  0  0  0
  5  9  1  0  0  0  0
  5 10  2  0  0  0  0
  6 11  2  0  0  0  0
  6 20  1  0  0  0  0
  7 12  1  0  0  0  0
  7  9  2  0  0  0  0
  8 11  1  0  0  0  0
  8 21  1  0  0  0  0
  9 22  1  0  0  0  0
 11 13  1  0  0  0  0
 12 14  2  0  0  0  0
 12 15  1  0  0  0  0
 13 23  1  0  0  0  0
 14 16  1  0  0  0  0
 14 24  1  0  0  0  0
 15 17  2  0  0  0  0
 15 25  1  0  0  0  0
 16 18  2  0  0  0  0
 16 26  1  0  0  0  0
 17 18  1  0  0  0  0
 17 27  1  0  0  0  0
 18 28  1  0  0  0  0
M  END
>  <Mol_ID>
1653

>  <Formula>
C15H10O3

>  <MolWeight>
238.2381

>  <Cat>
S3634

>  <Name>
6-Hydroxyflavone (6-HF)

>  <Synonyms>
N/A

>  <Target>
GABA Receptor

>  <Form>
free base

>  <CAS>
6665-83-4

>  <URL>
http://selleckchem.com/products/6-hydroxyflavone-6-hf.html

$$$$
