S3633 Pyrrolidinedithiocarbamate (ammonium).cdx
 OpenBabel08302519503D

 21 20  0  0  0  0  0  0  0  0999 V2000
   -0.9932    0.5447   -0.1687 N   0  0  0  0  0  0  0  0  0  0  0  0
   -2.1970    1.0812    0.2813 C   0  0  0  0  0  0  0  0  0  0  0  0
   -0.8349   -0.8550   -0.5565 C   0  0  0  0  0  0  0  0  0  0  0  0
    0.1824    1.3084   -0.5901 C   0  0  0  0  0  0  0  0  0  0  0  0
   -2.2031    2.8095    0.6209 S   0  0  0  0  0  0  0  0  0  0  0  0
   -3.6081    0.2039    0.5269 S   0  0  0  0  0  0  0  0  0  0  0  0
    0.6659   -1.0595   -0.6450 C   0  0  0  0  0  0  0  0  0  0  0  0
    1.1818    0.2878   -1.1278 C   0  0  0  0  0  0  0  0  0  0  0  0
    1.3452    0.3776    2.6506 N   0  0  0  0  0  0  0  0  0  0  0  0
   -1.3114   -0.9900   -1.5345 H   0  0  0  0  0  0  0  0  0  0  0  0
   -1.2959   -1.5339    0.1670 H   0  0  0  0  0  0  0  0  0  0  0  0
    0.5930    1.8574    0.2605 H   0  0  0  0  0  0  0  0  0  0  0  0
   -0.1039    2.0229   -1.3688 H   0  0  0  0  0  0  0  0  0  0  0  0
   -1.0055    2.8725    1.2124 H   0  0  0  0  0  0  0  0  0  0  0  0
    1.0714   -1.2876    0.3453 H   0  0  0  0  0  0  0  0  0  0  0  0
    0.9379   -1.8807   -1.3135 H   0  0  0  0  0  0  0  0  0  0  0  0
    2.1983    0.4880   -0.7686 H   0  0  0  0  0  0  0  0  0  0  0  0
    1.2012    0.3180   -2.2189 H   0  0  0  0  0  0  0  0  0  0  0  0
    1.2007   -0.4199    3.2677 H   0  0  0  0  0  0  0  0  0  0  0  0
    0.5022    0.4265    2.0777 H   0  0  0  0  0  0  0  0  0  0  0  0
    2.1022    0.1067    2.0240 H   0  0  0  0  0  0  0  0  0  0  0  0
  1  2  1  0  0  0  0
  1  3  1  0  0  0  0
  1  4  1  0  0  0  0
  2  5  1  0  0  0  0
  2  6  2  0  0  0  0
  3  7  1  0  0  0  0
  3 10  1  0  0  0  0
  3 11  1  0  0  0  0
  4  8  1  0  0  0  0
  4 12  1  0  0  0  0
  4 13  1  0  0  0  0
  5 14  1  0  0  0  0
  7  8  1  0  0  0  0
  7 15  1  0  0  0  0
  7 16  1  0  0  0  0
  8 17  1  0  0  0  0
  8 18  1  0  0  0  0
  9 19  1  0  0  0  0
  9 20  1  0  0  0  0
  9 21  1  0  0  0  0
M  END
>  <Mol_ID>
1656

>  <Formula>
C5H12N2S2

>  <MolWeight>
164.29218

>  <Cat>
S3633

>  <Name>
Pyrrolidinedithiocarbamate ammonium

>  <Synonyms>
APDC, PDTC, Pyrrolidine dithiocarbamic acid ammonium salt

>  <Target>
NF-¦ÊB

>  <Form>
ammonium salt

>  <CAS>
5108-96-3

>  <URL>
http://selleckchem.com/products/pyrrolidinedithiocarbamate-ammoniumammonium.html

$$$$
