S3647 Mafenide (Acetate).cdx
 OpenBabel08302519503D

 30 29  0  0  0  0  0  0  0  0999 V2000
    1.9663   -0.1150    0.4387 C   0  0  0  0  0  0  0  0  0  0  0  0
    0.8252   -1.4957    0.5686 C   0  0  0  0  0  0  0  0  0  0  0  0
    1.3591    1.5369   -0.0330 C   0  0  0  0  0  0  0  0  0  0  0  0
    3.6983   -0.3932    0.5154 S   0  0  0  0  0  0  0  0  0  0  0  0
   -0.9445   -1.2406    0.3113 C   0  0  0  0  0  0  0  0  0  0  0  0
   -0.3919    1.7737   -0.3901 C   0  0  0  0  0  0  0  0  0  0  0  0
    4.2322    0.2086   -0.9629 N   0  0  0  0  0  0  0  0  0  0  0  0
    4.2393    0.4174    1.5766 O   0  0  0  0  0  0  0  0  0  0  0  0
    3.9073   -1.8239    0.4487 O   0  0  0  0  0  0  0  0  0  0  0  0
   -1.5603    0.4052   -0.1629 C   0  0  0  0  0  0  0  0  0  0  0  0
   -3.0396    0.6451   -0.2740 C   0  0  0  0  0  0  0  0  0  0  0  0
   -3.5684    1.0878    1.0001 N   0  0  0  0  0  0  0  0  0  0  0  0
    0.3666   -0.1066   -0.9570 C   0  0  0  0  0  0  0  0  0  0  0  0
    0.0505    0.3826    1.1311 C   0  0  0  0  0  0  0  0  0  0  0  0
   -0.5226   -0.7021   -1.8811 O   0  0  0  0  0  0  0  0  0  0  0  0
    1.3998    0.0280   -1.6846 O   0  0  0  0  0  0  0  0  0  0  0  0
    1.2086   -2.4852    0.8162 H   0  0  0  0  0  0  0  0  0  0  0  0
    2.0688    2.3504   -0.1677 H   0  0  0  0  0  0  0  0  0  0  0  0
   -1.6384   -2.0655    0.4681 H   0  0  0  0  0  0  0  0  0  0  0  0
   -0.7611    2.7607   -0.6614 H   0  0  0  0  0  0  0  0  0  0  0  0
    5.0312   -0.3386   -1.2831 H   0  0  0  0  0  0  0  0  0  0  0  0
    3.4645    0.1370   -1.6500 H   0  0  0  0  0  0  0  0  0  0  0  0
   -3.2317    1.3921   -1.0497 H   0  0  0  0  0  0  0  0  0  0  0  0
   -3.5279   -0.2847   -0.5832 H   0  0  0  0  0  0  0  0  0  0  0  0
   -4.5825    1.1680    0.9434 H   0  0  0  0  0  0  0  0  0  0  0  0
   -3.3762    0.3931    1.7202 H   0  0  0  0  0  0  0  0  0  0  0  0
   -0.6591    1.1957    1.4809 H   0  0  0  0  0  0  0  0  0  0  0  0
   -0.2658   -0.3653    1.9152 H   0  0  0  0  0  0  0  0  0  0  0  0
    0.8741    0.7775    1.7960 H   0  0  0  0  0  0  0  0  0  0  0  0
   -1.4172   -1.0272   -1.7067 H   0  0  0  0  0  0  0  0  0  0  0  0
  1  4  1  0  0  0  0
  1  2  2  0  0  0  0
  1  3  1  0  0  0  0
  2  5  1  0  0  0  0
  2 17  1  0  0  0  0
  3  6  2  0  0  0  0
  3 18  1  0  0  0  0
  4  7  1  0  0  0  0
  4  8  2  0  0  0  0
  4  9  2  0  0  0  0
  5 10  2  0  0  0  0
  5 19  1  0  0  0  0
  6 10  1  0  0  0  0
  6 20  1  0  0  0  0
  7 21  1  0  0  0  0
  7 22  1  0  0  0  0
 10 11  1  0  0  0  0
 11 12  1  0  0  0  0
 11 23  1  0  0  0  0
 11 24  1  0  0  0  0
 12 25  1  0  0  0  0
 12 26  1  0  0  0  0
 13 14  1  0  0  0  0
 13 15  1  0  0  0  0
 13 16  2  0  0  0  0
 14 27  1  0  0  0  0
 14 28  1  0  0  0  0
 14 29  1  0  0  0  0
 15 30  1  0  0  0  0
M  END
>  <Mol_ID>
1700

>  <Formula>
C9H14N2O4S

>  <MolWeight>
246.28346

>  <Cat>
S3647

>  <Name>
Mafenide Acetate

>  <Synonyms>
N/A

>  <Target>
Carbonic Anhydrase

>  <Form>
acetate

>  <CAS>
13009-99-9

>  <URL>
http://selleckchem.com/products/mafenide-acetate.html

$$$$
