S3644 Sulfamonomethoxine.cdx
 OpenBabel08302519503D

 31 32  0  0  0  0  0  0  0  0999 V2000
   -1.8344   -0.0416   -0.0209 C   0  0  0  0  0  0  0  0  0  0  0  0
   -3.6087   -0.0694    0.0104 S   0  0  0  0  0  0  0  0  0  0  0  0
   -1.1659    0.9531   -0.7356 C   0  0  0  0  0  0  0  0  0  0  0  0
   -1.1223   -1.0029    0.6977 C   0  0  0  0  0  0  0  0  0  0  0  0
   -3.9678   -1.0260   -1.3346 N   0  0  0  0  0  0  0  0  0  0  0  0
   -4.0210   -0.7200    1.2349 O   0  0  0  0  0  0  0  0  0  0  0  0
   -4.0622    1.2659   -0.3177 O   0  0  0  0  0  0  0  0  0  0  0  0
    0.2309    0.9624   -0.7506 C   0  0  0  0  0  0  0  0  0  0  0  0
    0.2729   -0.9864    0.6673 C   0  0  0  0  0  0  0  0  0  0  0  0
   -4.1392   -2.4036   -1.0894 C   0  0  0  0  0  0  0  0  0  0  0  0
    0.9611    0.0200   -0.0184 C   0  0  0  0  0  0  0  0  0  0  0  0
   -3.1070   -3.2983   -1.2087 C   0  0  0  0  0  0  0  0  0  0  0  0
   -5.3931   -2.7203   -0.7482 N   0  0  0  0  0  0  0  0  0  0  0  0
    2.3513   -0.0545   -0.1581 N   0  0  0  0  0  0  0  0  0  0  0  0
   -3.4548   -4.6027   -0.9596 C   0  0  0  0  0  0  0  0  0  0  0  0
   -5.5955   -4.0135   -0.4787 C   0  0  0  0  0  0  0  0  0  0  0  0
   -4.6856   -4.9892   -0.5810 N   0  0  0  0  0  0  0  0  0  0  0  0
   -2.4641   -5.5519   -1.1215 O   0  0  0  0  0  0  0  0  0  0  0  0
   -2.9394   -6.8872   -0.9520 C   0  0  0  0  0  0  0  0  0  0  0  0
   -1.7158    1.7102   -1.2900 H   0  0  0  0  0  0  0  0  0  0  0  0
   -1.6399   -1.7723    1.2667 H   0  0  0  0  0  0  0  0  0  0  0  0
   -4.7788   -0.6182   -1.7997 H   0  0  0  0  0  0  0  0  0  0  0  0
    0.7474    1.7160   -1.3402 H   0  0  0  0  0  0  0  0  0  0  0  0
    0.8209   -1.7661    1.1899 H   0  0  0  0  0  0  0  0  0  0  0  0
   -2.1113   -3.0161   -1.5144 H   0  0  0  0  0  0  0  0  0  0  0  0
    2.8161   -0.5322    0.6080 H   0  0  0  0  0  0  0  0  0  0  0  0
    2.7907    0.8344   -0.3770 H   0  0  0  0  0  0  0  0  0  0  0  0
   -6.5889   -4.2987   -0.1504 H   0  0  0  0  0  0  0  0  0  0  0  0
   -3.3220   -7.0472    0.0620 H   0  0  0  0  0  0  0  0  0  0  0  0
   -3.7001   -7.1343   -1.7017 H   0  0  0  0  0  0  0  0  0  0  0  0
   -2.0952   -7.5673   -1.0990 H   0  0  0  0  0  0  0  0  0  0  0  0
  1  2  1  0  0  0  0
  1  3  2  0  0  0  0
  1  4  1  0  0  0  0
  2  5  1  0  0  0  0
  2  6  2  0  0  0  0
  2  7  2  0  0  0  0
  3  8  1  0  0  0  0
  3 20  1  0  0  0  0
  4  9  2  0  0  0  0
  4 21  1  0  0  0  0
  5 10  1  0  0  0  0
  5 22  1  0  0  0  0
  8 11  2  0  0  0  0
  8 23  1  0  0  0  0
  9 11  1  0  0  0  0
  9 24  1  0  0  0  0
 10 12  2  0  0  0  0
 10 13  1  0  0  0  0
 11 14  1  0  0  0  0
 12 15  1  0  0  0  0
 12 25  1  0  0  0  0
 13 16  2  0  0  0  0
 14 26  1  0  0  0  0
 14 27  1  0  0  0  0
 15 17  2  0  0  0  0
 15 18  1  0  0  0  0
 16 17  1  0  0  0  0
 16 28  1  0  0  0  0
 18 19  1  0  0  0  0
 19 29  1  0  0  0  0
 19 30  1  0  0  0  0
 19 31  1  0  0  0  0
M  END
>  <Mol_ID>
1699

>  <Formula>
C11H12N4O3S

>  <MolWeight>
280.30298

>  <Cat>
S3644

>  <Name>
Sulfamonomethoxine

>  <Synonyms>
N/A

>  <Target>
Bacterial

>  <Form>
free base

>  <CAS>
1220-83-3

>  <URL>
http://selleckchem.com/products/sulfamonomethoxine.html

$$$$
