S3648 Amlexanox.cdx
 OpenBabel08302519503D

 36 38  0  0  0  0  0  0  0  0999 V2000
   -1.2737   -0.7933    0.0182 C   0  0  0  0  0  0  0  0  0  0  0  0
   -1.2643    0.5898    0.0077 C   0  0  0  0  0  0  0  0  0  0  0  0
   -0.0124   -1.5243    0.0214 C   0  0  0  0  0  0  0  0  0  0  0  0
   -2.4846   -1.4796    0.0106 C   0  0  0  0  0  0  0  0  0  0  0  0
   -0.0962    1.3293    0.0204 O   0  0  0  0  0  0  0  0  0  0  0  0
   -2.4070    1.3152   -0.0170 N   0  0  0  0  0  0  0  0  0  0  0  0
    1.2139   -0.7293    0.0182 C   0  0  0  0  0  0  0  0  0  0  0  0
   -0.0022   -2.7470    0.0091 O   0  0  0  0  0  0  0  0  0  0  0  0
   -3.6687   -0.7481   -0.0470 C   0  0  0  0  0  0  0  0  0  0  0  0
    1.1046    0.6563    0.0181 C   0  0  0  0  0  0  0  0  0  0  0  0
   -3.5906    0.6517   -0.0446 C   0  0  0  0  0  0  0  0  0  0  0  0
    2.4566   -1.3673    0.0109 C   0  0  0  0  0  0  0  0  0  0  0  0
   -4.9834   -1.4276   -0.0078 C   0  0  0  0  0  0  0  0  0  0  0  0
    2.2744    1.4191    0.0100 C   0  0  0  0  0  0  0  0  0  0  0  0
   -4.7175    1.4524   -0.2081 N   0  0  0  0  0  0  0  0  0  0  0  0
    3.6347   -0.6128    0.0019 C   0  0  0  0  0  0  0  0  0  0  0  0
   -5.0102   -2.6460   -0.5892 O   0  0  0  0  0  0  0  0  0  0  0  0
   -5.9627   -0.9324    0.5323 O   0  0  0  0  0  0  0  0  0  0  0  0
    3.5286    0.7881    0.0043 C   0  0  0  0  0  0  0  0  0  0  0  0
    4.9703   -1.3356   -0.0008 C   0  0  0  0  0  0  0  0  0  0  0  0
    5.7945   -1.0026   -1.2453 C   0  0  0  0  0  0  0  0  0  0  0  0
    5.7605   -1.0591    1.2791 C   0  0  0  0  0  0  0  0  0  0  0  0
   -2.4815   -2.5634    0.0716 H   0  0  0  0  0  0  0  0  0  0  0  0
    2.4984   -2.4551    0.0072 H   0  0  0  0  0  0  0  0  0  0  0  0
    2.2197    2.5056    0.0096 H   0  0  0  0  0  0  0  0  0  0  0  0
   -4.4925    2.4256   -0.0307 H   0  0  0  0  0  0  0  0  0  0  0  0
   -5.5289    1.1096    0.3103 H   0  0  0  0  0  0  0  0  0  0  0  0
   -4.2257   -2.9043   -1.1078 H   0  0  0  0  0  0  0  0  0  0  0  0
    4.4263    1.4050    0.0012 H   0  0  0  0  0  0  0  0  0  0  0  0
    4.7804   -2.4173   -0.0288 H   0  0  0  0  0  0  0  0  0  0  0  0
    6.0755    0.0546   -1.2802 H   0  0  0  0  0  0  0  0  0  0  0  0
    6.7159   -1.5950   -1.2654 H   0  0  0  0  0  0  0  0  0  0  0  0
    5.2315   -1.2308   -2.1575 H   0  0  0  0  0  0  0  0  0  0  0  0
    5.1752   -1.3308    2.1650 H   0  0  0  0  0  0  0  0  0  0  0  0
    6.6835   -1.6487    1.2961 H   0  0  0  0  0  0  0  0  0  0  0  0
    6.0352   -0.0032    1.3702 H   0  0  0  0  0  0  0  0  0  0  0  0
  1  2  2  0  0  0  0
  1  3  1  0  0  0  0
  1  4  1  0  0  0  0
  2  5  1  0  0  0  0
  2  6  1  0  0  0  0
  3  7  1  0  0  0  0
  3  8  2  0  0  0  0
  4  9  2  0  0  0  0
  4 23  1  0  0  0  0
  5 10  1  0  0  0  0
  6 11  2  0  0  0  0
  7 12  2  0  0  0  0
  7 10  1  0  0  0  0
  9 13  1  0  0  0  0
  9 11  1  0  0  0  0
 10 14  2  0  0  0  0
 11 15  1  0  0  0  0
 12 16  1  0  0  0  0
 12 24  1  0  0  0  0
 13 17  1  0  0  0  0
 13 18  2  0  0  0  0
 14 19  1  0  0  0  0
 14 25  1  0  0  0  0
 15 26  1  0  0  0  0
 15 27  1  0  0  0  0
 16 20  1  0  0  0  0
 16 19  2  0  0  0  0
 17 28  1  0  0  0  0
 19 29  1  0  0  0  0
 20 21  1  0  0  0  0
 20 22  1  0  0  0  0
 20 30  1  0  0  0  0
 21 31  1  0  0  0  0
 21 32  1  0  0  0  0
 21 33  1  0  0  0  0
 22 34  1  0  0  0  0
 22 35  1  0  0  0  0
 22 36  1  0  0  0  0
M  END
>  <Mol_ID>
1701

>  <Formula>
C16H14N2O4

>  <MolWeight>
298.29336

>  <Cat>
S3648

>  <Name>
Amlexanox (AA-673)

>  <Synonyms>
CHX-3673, Amoxanox

>  <Target>
Immunology & Inflammation related,I¦ÊB/IKK,TBK1

>  <Form>
free base

>  <CAS>
68302-57-8

>  <URL>
http://selleckchem.com/products/amlexanox.html

$$$$
