S3640 Methoxyphenamine (Hydrochloride).cdx
 OpenBabel08302519503D

 30 30  0  0  0  0  0  0  0  0999 V2000
    1.3546   -0.1406    0.2013 C   0  0  0  0  0  0  0  0  0  0  0  0
    0.5485   -1.2836    0.0241 C   0  0  0  0  0  0  0  0  0  0  0  0
    0.6998    1.1178    0.1954 C   0  0  0  0  0  0  0  0  0  0  0  0
    2.8700   -0.1448    0.3426 C   0  0  0  0  0  0  0  0  0  0  0  0
   -0.8496   -1.1310   -0.0757 C   0  0  0  0  0  0  0  0  0  0  0  0
    0.8660   -2.6074   -0.0789 O   0  0  0  0  0  0  0  0  0  0  0  0
   -0.6867    1.2453    0.1022 C   0  0  0  0  0  0  0  0  0  0  0  0
    3.5279    0.9783    1.2048 C   0  0  3  0  0  0  0  0  0  0  0  0
   -1.4690    0.1139   -0.0258 C   0  0  0  0  0  0  0  0  0  0  0  0
    3.0485    0.8674    2.5948 N   0  0  0  0  0  0  0  0  0  0  0  0
    5.0544    0.8490    1.1257 C   0  0  0  0  0  0  0  0  0  0  0  0
    3.4617    1.9724    3.4463 C   0  0  0  0  0  0  0  0  0  0  0  0
    2.1934   -3.0840   -0.0552 C   0  0  0  0  0  0  0  0  0  0  0  0
    1.2644    2.0429    0.2714 H   0  0  0  0  0  0  0  0  0  0  0  0
    3.1973   -1.0741    0.8063 H   0  0  0  0  0  0  0  0  0  0  0  0
    3.2902   -0.1152   -0.6713 H   0  0  0  0  0  0  0  0  0  0  0  0
   -1.4718   -2.0171   -0.1950 H   0  0  0  0  0  0  0  0  0  0  0  0
   -1.1455    2.2303    0.1282 H   0  0  0  0  0  0  0  0  0  0  0  0
    3.2647    1.9591    0.7942 H   0  0  0  0  0  0  0  0  0  0  0  0
   -2.5484    0.1924   -0.0979 H   0  0  0  0  0  0  0  0  0  0  0  0
    2.0272    0.8229    2.5885 H   0  0  0  0  0  0  0  0  0  0  0  0
    5.3888    0.8840    0.0829 H   0  0  0  0  0  0  0  0  0  0  0  0
    5.5554    1.6706    1.6475 H   0  0  0  0  0  0  0  0  0  0  0  0
    5.4009   -0.0945    1.5605 H   0  0  0  0  0  0  0  0  0  0  0  0
    3.2096    2.9434    3.0089 H   0  0  0  0  0  0  0  0  0  0  0  0
    2.9439    1.8953    4.4079 H   0  0  0  0  0  0  0  0  0  0  0  0
    4.5334    1.9342    3.6599 H   0  0  0  0  0  0  0  0  0  0  0  0
    2.8201   -2.5916   -0.8029 H   0  0  0  0  0  0  0  0  0  0  0  0
    2.6070   -3.0208    0.9548 H   0  0  0  0  0  0  0  0  0  0  0  0
    2.1650   -4.1482   -0.3127 H   0  0  0  0  0  0  0  0  0  0  0  0
  1  2  2  0  0  0  0
  1  3  1  0  0  0  0
  1  4  1  0  0  0  0
  2  5  1  0  0  0  0
  2  6  1  0  0  0  0
  3  7  2  0  0  0  0
  3 14  1  0  0  0  0
  4  8  1  0  0  0  0
  4 15  1  0  0  0  0
  4 16  1  0  0  0  0
  5  9  2  0  0  0  0
  5 17  1  0  0  0  0
  6 13  1  0  0  0  0
  7  9  1  0  0  0  0
  7 18  1  0  0  0  0
  8 10  1  0  0  0  0
  8 11  1  0  0  0  0
  8 19  1  0  0  0  0
  9 20  1  0  0  0  0
 10 12  1  0  0  0  0
 10 21  1  0  0  0  0
 11 22  1  0  0  0  0
 11 23  1  0  0  0  0
 11 24  1  0  0  0  0
 12 25  1  0  0  0  0
 12 26  1  0  0  0  0
 12 27  1  0  0  0  0
 13 28  1  0  0  0  0
 13 29  1  0  0  0  0
 13 30  1  0  0  0  0
M  END
>  <Mol_ID>
1697

>  <Formula>
C11H18ClNO

>  <MolWeight>
215.71972

>  <Cat>
S3640

>  <Name>
Methoxyphenamine Hydrochloride

>  <Synonyms>
2-methoxy-N-methylamphetamine Hydrochloride, OMMA Hydrochloride

>  <Target>
Adrenergic Receptor

>  <Form>
hydrochloride

>  <CAS>
5588-10-3

>  <URL>
http://selleckchem.com/products/methoxyphenamine-hydrochloride.html

$$$$
