S3641 Osalmid.cdx
 OpenBabel08302519503D

 28 29  0  0  0  0  0  0  0  0999 V2000
    0.1726   -1.2785    0.0801 C   0  0  0  0  0  0  0  0  0  0  0  0
    0.9619   -2.5496    0.1638 C   0  0  0  0  0  0  0  0  0  0  0  0
    0.8476   -0.0483    0.2249 C   0  0  0  0  0  0  0  0  0  0  0  0
   -1.2173   -1.2496   -0.1130 C   0  0  0  0  0  0  0  0  0  0  0  0
    0.3220   -3.7513   -0.0968 N   0  0  0  0  0  0  0  0  0  0  0  0
    2.1595   -2.4371    0.4311 O   0  0  0  0  0  0  0  0  0  0  0  0
    0.1617    1.1645    0.1785 C   0  0  0  0  0  0  0  0  0  0  0  0
    2.2015    0.0581    0.4206 O   0  0  0  0  0  0  0  0  0  0  0  0
   -1.9025   -0.0278   -0.1645 C   0  0  0  0  0  0  0  0  0  0  0  0
    0.9238   -5.0328   -0.0466 C   0  0  0  0  0  0  0  0  0  0  0  0
   -1.2140    1.1764   -0.0172 C   0  0  0  0  0  0  0  0  0  0  0  0
    2.1755   -5.2761    0.5296 C   0  0  0  0  0  0  0  0  0  0  0  0
    0.2256   -6.1067   -0.6134 C   0  0  0  0  0  0  0  0  0  0  0  0
    2.7489   -6.5503    0.4932 C   0  0  0  0  0  0  0  0  0  0  0  0
    0.7987   -7.3824   -0.6548 C   0  0  0  0  0  0  0  0  0  0  0  0
    2.0602   -7.5908   -0.1127 C   0  0  0  0  0  0  0  0  0  0  0  0
    2.5973   -8.8401   -0.1961 O   0  0  0  0  0  0  0  0  0  0  0  0
   -1.8079   -2.1516   -0.2149 H   0  0  0  0  0  0  0  0  0  0  0  0
   -0.6167   -3.7316   -0.4658 H   0  0  0  0  0  0  0  0  0  0  0  0
    0.7085    2.0969    0.3000 H   0  0  0  0  0  0  0  0  0  0  0  0
    2.5696   -0.8540    0.4650 H   0  0  0  0  0  0  0  0  0  0  0  0
   -2.9795   -0.0154   -0.3150 H   0  0  0  0  0  0  0  0  0  0  0  0
   -1.7474    2.1220   -0.0494 H   0  0  0  0  0  0  0  0  0  0  0  0
    2.7371   -4.4925    1.0276 H   0  0  0  0  0  0  0  0  0  0  0  0
   -0.7559   -5.9665   -1.0572 H   0  0  0  0  0  0  0  0  0  0  0  0
    3.7278   -6.6981    0.9379 H   0  0  0  0  0  0  0  0  0  0  0  0
    0.2684   -8.2079   -1.1213 H   0  0  0  0  0  0  0  0  0  0  0  0
    3.4947   -8.8132    0.1760 H   0  0  0  0  0  0  0  0  0  0  0  0
  1  2  1  0  0  0  0
  1  3  2  0  0  0  0
  1  4  1  0  0  0  0
  2  5  1  0  0  0  0
  2  6  2  0  0  0  0
  3  7  1  0  0  0  0
  3  8  1  0  0  0  0
  4  9  2  0  0  0  0
  4 18  1  0  0  0  0
  5 10  1  0  0  0  0
  5 19  1  0  0  0  0
  7 11  2  0  0  0  0
  7 20  1  0  0  0  0
  8 21  1  0  0  0  0
  9 11  1  0  0  0  0
  9 22  1  0  0  0  0
 10 12  2  0  0  0  0
 10 13  1  0  0  0  0
 11 23  1  0  0  0  0
 12 14  1  0  0  0  0
 12 24  1  0  0  0  0
 13 15  2  0  0  0  0
 13 25  1  0  0  0  0
 14 16  2  0  0  0  0
 14 26  1  0  0  0  0
 15 16  1  0  0  0  0
 15 27  1  0  0  0  0
 16 17  1  0  0  0  0
 17 28  1  0  0  0  0
M  END
>  <Mol_ID>
1698

>  <Formula>
C13H11NO3

>  <MolWeight>
229.23134

>  <Cat>
S3641

>  <Name>
Osalmid

>  <Synonyms>
N/A

>  <Target>
DNA/RNA Synthesis,RNR

>  <Form>
free base

>  <CAS>
526-18-1

>  <URL>
http://selleckchem.com/products/osalmid.html

$$$$
