S3654 Tauroursodeoxycholic Acid.cdx
 OpenBabel08302519503D

 79 82  0  0  0  0  0  0  0  0999 V2000
    0.1186    1.9768    0.6740 C   0  0  1  0  0  0  0  0  0  0  0  0
   -0.2317    0.7450   -0.2367 C   0  0  3  0  0  0  0  0  0  0  0  0
    1.6071    2.4892    0.4641 C   0  0  3  0  0  0  0  0  0  0  0  0
   -0.7848    3.1824    0.2872 C   0  0  0  0  0  0  0  0  0  0  0  0
    0.8887   -0.3487   -0.2484 C   0  0  3  0  0  0  0  0  0  0  0  0
   -1.6828    0.2522   -0.1085 C   0  0  3  0  0  0  0  0  0  0  0  0
    1.3303    3.4715   -0.7223 C   0  0  3  0  0  0  0  0  0  0  0  0
    2.6008    1.3438    0.2156 C   0  0  0  0  0  0  0  0  0  0  0  0
    2.1334    3.1801    1.7530 C   0  0  0  0  0  0  0  0  0  0  0  0
    0.1678    4.2928   -0.1279 C   0  0  0  0  0  0  0  0  0  0  0  0
    0.5335   -1.8797   -0.3008 C   0  0  3  0  0  0  0  0  0  0  0  0
    2.0431    0.0084    0.6865 C   0  0  0  0  0  0  0  0  0  0  0  0
   -1.8678   -1.0498   -0.9030 C   0  0  0  0  0  0  0  0  0  0  0  0
   -2.0816    0.0818    1.2535 O   0  0  0  0  0  0  0  0  0  0  0  0
    2.3766    4.2672   -1.5425 C   0  0  3  0  0  0  0  0  0  0  0  0
   -0.9983   -2.1031   -0.2385 C   0  0  3  0  0  0  0  0  0  0  0  0
    1.0858   -2.7100    0.9054 C   0  0  0  0  0  0  0  0  0  0  0  0
    1.2653   -2.4348   -1.5679 C   0  0  0  0  0  0  0  0  0  0  0  0
    3.2660    3.3056   -2.3820 C   0  0  0  0  0  0  0  0  0  0  0  0
    1.5855    5.1990   -2.4951 C   0  0  0  0  0  0  0  0  0  0  0  0
   -1.4317   -3.5563   -0.4353 C   0  0  0  0  0  0  0  0  0  0  0  0
    0.6576   -4.1905    0.8643 C   0  0  0  0  0  0  0  0  0  0  0  0
    4.2147    3.9698   -3.3775 C   0  0  0  0  0  0  0  0  0  0  0  0
   -0.8518   -4.3966    0.7141 C   0  0  3  0  0  0  0  0  0  0  0  0
    4.9969    2.9677   -4.2140 C   0  0  0  0  0  0  0  0  0  0  0  0
   -1.5048   -4.0836    1.9493 O   0  0  0  0  0  0  0  0  0  0  0  0
    5.8359    3.6063   -5.1056 N   0  0  0  0  0  0  0  0  0  0  0  0
    4.8646    1.7532   -4.1473 O   0  0  0  0  0  0  0  0  0  0  0  0
    6.7036    2.8914   -6.0254 C   0  0  0  0  0  0  0  0  0  0  0  0
    6.9419    3.7126   -7.2759 C   0  0  0  0  0  0  0  0  0  0  0  0
    8.0666    2.8643   -8.3641 S   0  0  0  0  0  0  0  0  0  0  0  0
    8.0685    3.9455   -9.5536 O   0  0  0  0  0  0  0  0  0  0  0  0
    9.3824    2.8325   -7.7784 O   0  0  0  0  0  0  0  0  0  0  0  0
    7.4208    1.6788   -8.9092 O   0  0  0  0  0  0  0  0  0  0  0  0
   -0.0427    1.7307    1.7296 H   0  0  0  0  0  0  0  0  0  0  0  0
   -0.2226    1.1178   -1.2732 H   0  0  0  0  0  0  0  0  0  0  0  0
   -1.3963    2.9530   -0.5957 H   0  0  0  0  0  0  0  0  0  0  0  0
   -1.4737    3.4792    1.0812 H   0  0  0  0  0  0  0  0  0  0  0  0
    1.3228   -0.1586   -1.2432 H   0  0  0  0  0  0  0  0  0  0  0  0
   -2.3760    0.9950   -0.5154 H   0  0  0  0  0  0  0  0  0  0  0  0
    0.8811    2.8503   -1.5109 H   0  0  0  0  0  0  0  0  0  0  0  0
    3.5588    1.5180    0.7227 H   0  0  0  0  0  0  0  0  0  0  0  0
    2.8456    1.2430   -0.8416 H   0  0  0  0  0  0  0  0  0  0  0  0
    3.0603    3.7273    1.5459 H   0  0  0  0  0  0  0  0  0  0  0  0
    1.4251    3.8646    2.2232 H   0  0  0  0  0  0  0  0  0  0  0  0
    2.3665    2.4306    2.5230 H   0  0  0  0  0  0  0  0  0  0  0  0
    0.4773    4.8969    0.7313 H   0  0  0  0  0  0  0  0  0  0  0  0
   -0.3308    4.9716   -0.8206 H   0  0  0  0  0  0  0  0  0  0  0  0
    1.7104    0.0442    1.7308 H   0  0  0  0  0  0  0  0  0  0  0  0
    2.8512   -0.7250    0.6203 H   0  0  0  0  0  0  0  0  0  0  0  0
   -2.9211   -1.3503   -0.8356 H   0  0  0  0  0  0  0  0  0  0  0  0
   -1.6258   -0.9130   -1.9626 H   0  0  0  0  0  0  0  0  0  0  0  0
   -1.2951    0.0977    1.8229 H   0  0  0  0  0  0  0  0  0  0  0  0
    3.0103    4.8747   -0.8884 H   0  0  0  0  0  0  0  0  0  0  0  0
   -1.2345   -1.9315    0.8112 H   0  0  0  0  0  0  0  0  0  0  0  0
    0.7394   -2.2594    1.8444 H   0  0  0  0  0  0  0  0  0  0  0  0
    2.1802   -2.6903    0.9397 H   0  0  0  0  0  0  0  0  0  0  0  0
    1.1521   -1.7905   -2.4475 H   0  0  0  0  0  0  0  0  0  0  0  0
    2.3475   -2.4921   -1.3694 H   0  0  0  0  0  0  0  0  0  0  0  0
    0.9506   -3.4355   -1.8654 H   0  0  0  0  0  0  0  0  0  0  0  0
    3.8893    2.7136   -1.7073 H   0  0  0  0  0  0  0  0  0  0  0  0
    2.6234    2.6004   -2.9286 H   0  0  0  0  0  0  0  0  0  0  0  0
    1.1451    6.0352   -1.9439 H   0  0  0  0  0  0  0  0  0  0  0  0
    2.1863    5.6494   -3.2836 H   0  0  0  0  0  0  0  0  0  0  0  0
    0.7689    4.6489   -2.9840 H   0  0  0  0  0  0  0  0  0  0  0  0
   -2.5257   -3.6229   -0.4126 H   0  0  0  0  0  0  0  0  0  0  0  0
   -1.1045   -3.9472   -1.4044 H   0  0  0  0  0  0  0  0  0  0  0  0
    1.0087   -4.6729    1.7829 H   0  0  0  0  0  0  0  0  0  0  0  0
    1.1630   -4.6866    0.0279 H   0  0  0  0  0  0  0  0  0  0  0  0
    3.6635    4.5772   -4.1009 H   0  0  0  0  0  0  0  0  0  0  0  0
    4.9190    4.6157   -2.8427 H   0  0  0  0  0  0  0  0  0  0  0  0
   -1.0640   -5.4539    0.5336 H   0  0  0  0  0  0  0  0  0  0  0  0
   -1.3012   -3.1689    2.2071 H   0  0  0  0  0  0  0  0  0  0  0  0
    6.0498    4.5768   -4.9140 H   0  0  0  0  0  0  0  0  0  0  0  0
    7.6419    2.6936   -5.4936 H   0  0  0  0  0  0  0  0  0  0  0  0
    6.2548    1.9240   -6.2723 H   0  0  0  0  0  0  0  0  0  0  0  0
    6.0061    3.8835   -7.8197 H   0  0  0  0  0  0  0  0  0  0  0  0
    7.3790    4.6918   -7.0401 H   0  0  0  0  0  0  0  0  0  0  0  0
    7.8423    3.4863  -10.3904 H   0  0  0  0  0  0  0  0  0  0  0  0
  1  2  1  0  0  0  0
  1  3  1  0  0  0  0
  1  4  1  0  0  0  0
  1 35  1  1  0  0  0
  2  5  1  0  0  0  0
  2  6  1  0  0  0  0
  2 36  1  0  0  0  0
  3  7  1  0  0  0  0
  3  8  1  0  0  0  0
  3  9  1  0  0  0  0
  4 10  1  0  0  0  0
  4 37  1  0  0  0  0
  4 38  1  0  0  0  0
  5 11  1  0  0  0  0
  5 12  1  0  0  0  0
  5 39  1  0  0  0  0
  6 13  1  0  0  0  0
  6 14  1  0  0  0  0
  6 40  1  0  0  0  0
  7 15  1  0  0  0  0
  7 10  1  0  0  0  0
  7 41  1  0  0  0  0
  8 12  1  0  0  0  0
  8 42  1  0  0  0  0
  8 43  1  0  0  0  0
  9 44  1  0  0  0  0
  9 45  1  0  0  0  0
  9 46  1  0  0  0  0
 10 47  1  0  0  0  0
 10 48  1  0  0  0  0
 11 16  1  0  0  0  0
 11 17  1  0  0  0  0
 11 18  1  0  0  0  0
 12 49  1  0  0  0  0
 12 50  1  0  0  0  0
 13 51  1  0  0  0  0
 13 52  1  0  0  0  0
 14 53  1  0  0  0  0
 15 19  1  0  0  0  0
 15 20  1  0  0  0  0
 15 54  1  0  0  0  0
 16 13  1  0  0  0  0
 16 21  1  0  0  0  0
 16 55  1  0  0  0  0
 17 22  1  0  0  0  0
 17 56  1  0  0  0  0
 17 57  1  0  0  0  0
 18 58  1  0  0  0  0
 18 59  1  0  0  0  0
 18 60  1  0  0  0  0
 19 23  1  0  0  0  0
 19 61  1  0  0  0  0
 19 62  1  0  0  0  0
 20 63  1  0  0  0  0
 20 64  1  0  0  0  0
 20 65  1  0  0  0  0
 21 24  1  0  0  0  0
 21 66  1  0  0  0  0
 21 67  1  0  0  0  0
 22 24  1  0  0  0  0
 22 68  1  0  0  0  0
 22 69  1  0  0  0  0
 23 25  1  0  0  0  0
 23 70  1  0  0  0  0
 23 71  1  0  0  0  0
 24 26  1  0  0  0  0
 24 72  1  0  0  0  0
 25 27  1  0  0  0  0
 25 28  2  0  0  0  0
 26 73  1  0  0  0  0
 27 29  1  0  0  0  0
 27 74  1  0  0  0  0
 29 30  1  0  0  0  0
 29 75  1  0  0  0  0
 29 76  1  0  0  0  0
 30 31  1  0  0  0  0
 30 77  1  0  0  0  0
 30 78  1  0  0  0  0
 31 32  1  0  0  0  0
 31 33  2  0  0  0  0
 31 34  2  0  0  0  0
 32 79  1  0  0  0  0
M  END
>  <Mol_ID>
1754

>  <Formula>
C26H45NO6S

>  <MolWeight>
499.7036

>  <Cat>
S3654

>  <Name>
Tauroursodeoxycholic Acid (TUDCA)

>  <Synonyms>
N/A

>  <Target>
Mitochondrial Metabolism

>  <Form>
free base

>  <CAS>
14605-22-2

>  <URL>
http://selleckchem.com/products/tauroursodeoxycholic-acid.html

$$$$
