S3651 4-Amino-5-imidazolecarboxamide.cdx
 OpenBabel08302519503D

 15 15  0  0  0  0  0  0  0  0999 V2000
   -0.1094   -1.1896    0.0163 C   0  0  0  0  0  0  0  0  0  0  0  0
    0.7676   -0.1183    0.0263 C   0  0  0  0  0  0  0  0  0  0  0  0
    0.2329   -2.6092    0.0247 C   0  0  0  0  0  0  0  0  0  0  0  0
   -1.4239   -0.7261   -0.0089 N   0  0  0  0  0  0  0  0  0  0  0  0
   -0.0244    0.9955    0.0060 N   0  0  0  0  0  0  0  0  0  0  0  0
    2.1081   -0.0229    0.0570 N   0  0  0  0  0  0  0  0  0  0  0  0
   -0.8555   -3.4350    0.0212 N   0  0  0  0  0  0  0  0  0  0  0  0
    1.3772   -3.0550    0.0297 O   0  0  0  0  0  0  0  0  0  0  0  0
   -1.3274    0.5842   -0.0115 C   0  0  0  0  0  0  0  0  0  0  0  0
    0.2976    1.9507    0.0145 H   0  0  0  0  0  0  0  0  0  0  0  0
    2.6371    0.8322   -0.0761 H   0  0  0  0  0  0  0  0  0  0  0  0
    2.6694   -0.8768    0.0007 H   0  0  0  0  0  0  0  0  0  0  0  0
   -0.7221   -4.4332    0.0226 H   0  0  0  0  0  0  0  0  0  0  0  0
   -1.7821   -3.0252    0.0098 H   0  0  0  0  0  0  0  0  0  0  0  0
   -2.1540    1.2824   -0.0243 H   0  0  0  0  0  0  0  0  0  0  0  0
  1  2  2  0  0  0  0
  1  3  1  0  0  0  0
  1  4  1  0  0  0  0
  2  5  1  0  0  0  0
  2  6  1  0  0  0  0
  3  7  1  0  0  0  0
  3  8  2  0  0  0  0
  4  9  2  0  0  0  0
  5  9  1  0  0  0  0
  5 10  1  0  0  0  0
  6 11  1  0  0  0  0
  6 12  1  0  0  0  0
  7 13  1  0  0  0  0
  7 14  1  0  0  0  0
  9 15  1  0  0  0  0
M  END
>  <Mol_ID>
1702

>  <Formula>
C4H6N4O

>  <MolWeight>
126.11664

>  <Cat>
S3651

>  <Name>
4-Amino-5-imidazolecarboxamide

>  <Synonyms>
N/A

>  <Target>
Others

>  <Form>
free base

>  <CAS>
360-97-4

>  <URL>
http://selleckchem.com/products/4-amino-5-imidazolecarboxamide.html

$$$$
