S3650 Penicillin V potassium salt.cdx
 OpenBabel08302521383D

 41 43  0  0  0  0  0  0  0  0999 V2000
   -0.8652    0.4405    0.6799 N   0  0  0  0  0  0  0  0  0  0  0  0
   -0.5179   -0.9858    0.6011 C   0  0  1  0  0  0  0  0  0  0  0  0
    0.1703    1.4249    0.2807 C   0  0  2  0  0  0  0  0  0  0  0  0
   -2.0167    0.2901   -0.0400 C   0  0  0  0  0  0  0  0  0  0  0  0
   -1.9449   -1.2528    0.0662 C   0  0  1  0  0  0  0  0  0  0  0  0
    0.8812   -1.0160   -0.5969 S   0  0  0  0  0  0  0  0  0  0  0  0
    1.4815    0.6378    0.0347 C   0  0  0  0  0  0  0  0  0  0  0  0
    0.3140    2.6634    1.2078 C   0  0  0  0  0  0  0  0  0  0  0  0
   -2.6991    1.0630   -0.6899 O   0  0  0  0  0  0  0  0  0  0  0  0
   -2.0581   -2.0063   -1.2272 N   0  0  0  0  0  0  0  0  0  0  0  0
    2.3700    1.2479   -1.0523 C   0  0  0  0  0  0  0  0  0  0  0  0
    2.3296    0.3326    1.2790 C   0  0  0  0  0  0  0  0  0  0  0  0
    1.1943    3.4994    0.8458 O   0  0  0  0  0  0  0  0  0  0  0  0
   -0.4521    2.7110    2.2122 O   0  5  0  0  0  0  0  0  0  0  0  0
   -1.5451   -3.2776   -1.3550 C   0  0  0  0  0  0  0  0  0  0  0  0
   -1.3157   -3.7440   -2.8155 C   0  0  0  0  0  0  0  0  0  0  0  0
   -1.2386   -3.9633   -0.3801 O   0  0  0  0  0  0  0  0  0  0  0  0
   -2.3764   -4.4080   -3.4972 O   0  0  0  0  0  0  0  0  0  0  0  0
   -2.4197   -5.7732   -3.3896 C   0  0  0  0  0  0  0  0  0  0  0  0
   -1.9474   -6.4921   -2.2937 C   0  0  0  0  0  0  0  0  0  0  0  0
   -3.0423   -6.4725   -4.4304 C   0  0  0  0  0  0  0  0  0  0  0  0
   -2.0471   -7.8837   -2.2514 C   0  0  0  0  0  0  0  0  0  0  0  0
   -3.1519   -7.8688   -4.3873 C   0  0  0  0  0  0  0  0  0  0  0  0
   -2.6384   -8.5763   -3.3018 C   0  0  0  0  0  0  0  0  0  0  0  0
   -0.2931   -1.4232    1.5777 H   0  0  0  0  0  0  0  0  0  0  0  0
   -0.1654    1.8373   -0.6803 H   0  0  0  0  0  0  0  0  0  0  0  0
   -2.6427   -1.6472    0.8147 H   0  0  0  0  0  0  0  0  0  0  0  0
   -2.2697   -1.4739   -2.0623 H   0  0  0  0  0  0  0  0  0  0  0  0
    2.7416    2.2340   -0.7568 H   0  0  0  0  0  0  0  0  0  0  0  0
    3.2518    0.6226   -1.2402 H   0  0  0  0  0  0  0  0  0  0  0  0
    1.8358    1.3667   -2.0011 H   0  0  0  0  0  0  0  0  0  0  0  0
    3.0882   -0.4358    1.0619 H   0  0  0  0  0  0  0  0  0  0  0  0
    2.8785    1.2171    1.6175 H   0  0  0  0  0  0  0  0  0  0  0  0
    1.7315   -0.0295    2.1226 H   0  0  0  0  0  0  0  0  0  0  0  0
   -1.1108   -2.8331   -3.3942 H   0  0  0  0  0  0  0  0  0  0  0  0
   -0.3767   -4.3115   -2.8700 H   0  0  0  0  0  0  0  0  0  0  0  0
   -1.5176   -5.9995   -1.4320 H   0  0  0  0  0  0  0  0  0  0  0  0
   -3.4498   -5.9328   -5.2828 H   0  0  0  0  0  0  0  0  0  0  0  0
   -1.6721   -8.4177   -1.3824 H   0  0  0  0  0  0  0  0  0  0  0  0
   -3.6459   -8.4055   -5.1942 H   0  0  0  0  0  0  0  0  0  0  0  0
   -2.7105   -9.6590   -3.2619 H   0  0  0  0  0  0  0  0  0  0  0  0
  1  2  1  0  0  0  0
  1  3  1  0  0  0  0
  1  4  1  0  0  0  0
  2  5  1  0  0  0  0
  2  6  1  0  0  0  0
  2 25  1  1  0  0  0
  3  7  1  0  0  0  0
  3 26  1  6  0  0  0
  3  8  1  0  0  0  0
  4  9  2  0  0  0  0
  4  5  1  0  0  0  0
  5 27  1  1  0  0  0
  5 10  1  0  0  0  0
  6  7  1  0  0  0  0
  7 11  1  0  0  0  0
  7 12  1  0  0  0  0
  8 13  2  0  0  0  0
  8 14  1  0  0  0  0
 10 15  1  0  0  0  0
 10 28  1  0  0  0  0
 11 29  1  0  0  0  0
 11 30  1  0  0  0  0
 11 31  1  0  0  0  0
 12 32  1  0  0  0  0
 12 33  1  0  0  0  0
 12 34  1  0  0  0  0
 15 16  1  0  0  0  0
 15 17  2  0  0  0  0
 16 18  1  0  0  0  0
 16 35  1  0  0  0  0
 16 36  1  0  0  0  0
 18 19  1  0  0  0  0
 19 20  2  0  0  0  0
 19 21  1  0  0  0  0
 20 22  1  0  0  0  0
 20 37  1  0  0  0  0
 21 23  2  0  0  0  0
 21 38  1  0  0  0  0
 22 24  2  0  0  0  0
 22 39  1  0  0  0  0
 23 24  1  0  0  0  0
 23 40  1  0  0  0  0
 24 41  1  0  0  0  0
M  CHG  1  14  -1
M  END
>  <Mol_ID>
7788

>  <Formula>
C16H17KN2O5S

>  <MolWeight>
388.47988

>  <Cat>
S3650

>  <Name>
Penicillin V potassium salt

>  <Synonyms>
Phenoxymethylpenicillin potassium salt

>  <Target>
Antibiotics,Bacterial

>  <Form>
potassium salt

>  <CAS>
132-98-9

>  <URL>
http://selleckchem.com/products/penicillin-v-potassium-salt.html

$$$$
