S3656 Piribedil.cdx
 OpenBabel08302519503D

 40 43  0  0  0  0  0  0  0  0999 V2000
    3.0200   -2.4449   -3.7727 C   0  0  0  0  0  0  0  0  0  0  0  0
    4.2682   -2.9652   -4.0270 C   0  0  0  0  0  0  0  0  0  0  0  0
    2.6494   -2.0180   -2.5139 C   0  0  0  0  0  0  0  0  0  0  0  0
    2.2544   -2.3607   -4.8949 O   0  0  0  0  0  0  0  0  0  0  0  0
    5.2075   -3.1120   -3.0314 C   0  0  0  0  0  0  0  0  0  0  0  0
    4.4411   -3.2598   -5.3463 O   0  0  0  0  0  0  0  0  0  0  0  0
    3.5992   -2.0824   -1.4836 C   0  0  0  0  0  0  0  0  0  0  0  0
    3.2251   -2.7153   -5.9003 C   0  0  0  0  0  0  0  0  0  0  0  0
    4.8705   -2.6531   -1.7498 C   0  0  0  0  0  0  0  0  0  0  0  0
    3.3083   -1.4087   -0.1539 C   0  0  0  0  0  0  0  0  0  0  0  0
    3.5645   -2.2425    1.0235 N   0  0  0  0  0  0  0  0  0  0  0  0
    2.5679   -3.3260    1.1956 C   0  0  0  0  0  0  0  0  0  0  0  0
    3.6165   -1.4256    2.2623 C   0  0  0  0  0  0  0  0  0  0  0  0
    1.1942   -2.9300    1.7962 C   0  0  0  0  0  0  0  0  0  0  0  0
    2.2570   -0.9753    2.8523 C   0  0  0  0  0  0  0  0  0  0  0  0
    1.3779   -2.1316    3.0122 N   0  0  0  0  0  0  0  0  0  0  0  0
    0.2407   -1.9522    3.7916 C   0  0  0  0  0  0  0  0  0  0  0  0
   -0.6984   -2.9151    3.7906 N   0  0  0  0  0  0  0  0  0  0  0  0
    0.1394   -0.8582    4.5722 N   0  0  0  0  0  0  0  0  0  0  0  0
   -1.7541   -2.7721    4.6153 C   0  0  0  0  0  0  0  0  0  0  0  0
   -0.9383   -0.7501    5.3706 C   0  0  0  0  0  0  0  0  0  0  0  0
   -1.9294   -1.6919    5.4385 C   0  0  0  0  0  0  0  0  0  0  0  0
    1.6630   -1.5962   -2.3537 H   0  0  0  0  0  0  0  0  0  0  0  0
    6.1851   -3.5232   -3.2430 H   0  0  0  0  0  0  0  0  0  0  0  0
    2.7833   -3.4487   -6.5819 H   0  0  0  0  0  0  0  0  0  0  0  0
    3.4753   -1.8120   -6.4707 H   0  0  0  0  0  0  0  0  0  0  0  0
    5.6117   -2.7122   -0.9553 H   0  0  0  0  0  0  0  0  0  0  0  0
    3.9823   -0.5393   -0.1328 H   0  0  0  0  0  0  0  0  0  0  0  0
    2.2909   -1.0017   -0.1430 H   0  0  0  0  0  0  0  0  0  0  0  0
    2.4029   -3.8570    0.2504 H   0  0  0  0  0  0  0  0  0  0  0  0
    3.0207   -4.0670    1.8670 H   0  0  0  0  0  0  0  0  0  0  0  0
    4.1314   -2.0261    3.0226 H   0  0  0  0  0  0  0  0  0  0  0  0
    4.2514   -0.5442    2.1087 H   0  0  0  0  0  0  0  0  0  0  0  0
    0.6143   -2.3573    1.0608 H   0  0  0  0  0  0  0  0  0  0  0  0
    0.6517   -3.8609    2.0002 H   0  0  0  0  0  0  0  0  0  0  0  0
    1.7866   -0.2292    2.1969 H   0  0  0  0  0  0  0  0  0  0  0  0
    2.4651   -0.4917    3.8155 H   0  0  0  0  0  0  0  0  0  0  0  0
   -2.4712   -3.5861    4.5925 H   0  0  0  0  0  0  0  0  0  0  0  0
   -0.9721    0.1476    5.9802 H   0  0  0  0  0  0  0  0  0  0  0  0
   -2.7817   -1.5934    6.0944 H   0  0  0  0  0  0  0  0  0  0  0  0
  1  2  1  0  0  0  0
  1  3  2  0  0  0  0
  1  4  1  0  0  0  0
  2  5  2  0  0  0  0
  2  6  1  0  0  0  0
  3  7  1  0  0  0  0
  3 23  1  0  0  0  0
  4  8  1  0  0  0  0
  5  9  1  0  0  0  0
  5 24  1  0  0  0  0
  6  8  1  0  0  0  0
  7 10  1  0  0  0  0
  7  9  2  0  0  0  0
  8 25  1  0  0  0  0
  8 26  1  0  0  0  0
  9 27  1  0  0  0  0
 10 11  1  0  0  0  0
 10 28  1  0  0  0  0
 10 29  1  0  0  0  0
 11 12  1  0  0  0  0
 11 13  1  0  0  0  0
 12 14  1  0  0  0  0
 12 30  1  0  0  0  0
 12 31  1  0  0  0  0
 13 15  1  0  0  0  0
 13 32  1  0  0  0  0
 13 33  1  0  0  0  0
 14 16  1  0  0  0  0
 14 34  1  0  0  0  0
 14 35  1  0  0  0  0
 15 16  1  0  0  0  0
 15 36  1  0  0  0  0
 15 37  1  0  0  0  0
 16 17  1  0  0  0  0
 17 18  2  0  0  0  0
 17 19  1  0  0  0  0
 18 20  1  0  0  0  0
 19 21  2  0  0  0  0
 20 22  2  0  0  0  0
 20 38  1  0  0  0  0
 21 22  1  0  0  0  0
 21 39  1  0  0  0  0
 22 40  1  0  0  0  0
M  END
>  <Mol_ID>
1705

>  <Formula>
C16H18N4O2

>  <MolWeight>
298.33972

>  <Cat>
S3656

>  <Name>
Piribedil

>  <Synonyms>
Trivastal, Trivastan

>  <Target>
Adrenergic Receptor,Dopamine Receptor

>  <Form>
free base

>  <CAS>
3605-01-4

>  <URL>
http://selleckchem.com/products/piribedil.html

$$$$
