S3658 O6-Benzylguanine.cdx
 OpenBabel08302519503D

 29 31  0  0  0  0  0  0  0  0999 V2000
    0.7185    0.5614   -0.1137 C   0  0  0  0  0  0  0  0  0  0  0  0
   -0.2477    1.5644   -0.2767 C   0  0  0  0  0  0  0  0  0  0  0  0
    0.2329   -0.7321   -0.0641 C   0  0  0  0  0  0  0  0  0  0  0  0
    2.0933    0.5564    0.0311 N   0  0  0  0  0  0  0  0  0  0  0  0
   -1.5529    1.2004   -0.3978 N   0  0  0  0  0  0  0  0  0  0  0  0
   -0.0263    2.9306   -0.3187 O   0  0  0  0  0  0  0  0  0  0  0  0
   -1.0405   -1.1343   -0.1691 N   0  0  0  0  0  0  0  0  0  0  0  0
    1.3247   -1.5250    0.1383 N   0  0  0  0  0  0  0  0  0  0  0  0
    2.4209   -0.7082    0.1889 C   0  0  0  0  0  0  0  0  0  0  0  0
   -1.8808   -0.1003   -0.3223 C   0  0  0  0  0  0  0  0  0  0  0  0
    1.3006    3.3149    0.0441 C   0  0  0  0  0  0  0  0  0  0  0  0
   -3.2210   -0.4093   -0.4434 N   0  0  0  0  0  0  0  0  0  0  0  0
    1.4475    4.8138    0.2127 C   0  0  0  0  0  0  0  0  0  0  0  0
    0.3615    5.6969    0.1659 C   0  0  0  0  0  0  0  0  0  0  0  0
    2.7310    5.3356    0.4507 C   0  0  0  0  0  0  0  0  0  0  0  0
    0.5590    7.0709    0.3281 C   0  0  0  0  0  0  0  0  0  0  0  0
    2.9266    6.7074    0.6128 C   0  0  0  0  0  0  0  0  0  0  0  0
    1.8398    7.5754    0.5464 C   0  0  0  0  0  0  0  0  0  0  0  0
    1.3048   -2.5263    0.2507 H   0  0  0  0  0  0  0  0  0  0  0  0
    3.4208   -1.0888    0.3485 H   0  0  0  0  0  0  0  0  0  0  0  0
    1.5776    2.8623    1.0041 H   0  0  0  0  0  0  0  0  0  0  0  0
    1.9872    3.0061   -0.7538 H   0  0  0  0  0  0  0  0  0  0  0  0
   -3.7010    0.3337   -0.9325 H   0  0  0  0  0  0  0  0  0  0  0  0
   -3.3362   -1.3499   -0.7916 H   0  0  0  0  0  0  0  0  0  0  0  0
   -0.6473    5.3238    0.0016 H   0  0  0  0  0  0  0  0  0  0  0  0
    3.5884    4.6678    0.5098 H   0  0  0  0  0  0  0  0  0  0  0  0
   -0.2903    7.7471    0.2833 H   0  0  0  0  0  0  0  0  0  0  0  0
    3.9253    7.0965    0.7913 H   0  0  0  0  0  0  0  0  0  0  0  0
    1.9904    8.6448    0.6662 H   0  0  0  0  0  0  0  0  0  0  0  0
  1  2  2  0  0  0  0
  1  3  1  0  0  0  0
  1  4  1  0  0  0  0
  2  5  1  0  0  0  0
  2  6  1  0  0  0  0
  3  7  2  0  0  0  0
  3  8  1  0  0  0  0
  4  9  2  0  0  0  0
  5 10  2  0  0  0  0
  6 11  1  0  0  0  0
  7 10  1  0  0  0  0
  8  9  1  0  0  0  0
  8 19  1  0  0  0  0
  9 20  1  0  0  0  0
 10 12  1  0  0  0  0
 11 13  1  0  0  0  0
 11 21  1  0  0  0  0
 11 22  1  0  0  0  0
 12 23  1  0  0  0  0
 12 24  1  0  0  0  0
 13 14  2  0  0  0  0
 13 15  1  0  0  0  0
 14 16  1  0  0  0  0
 14 25  1  0  0  0  0
 15 17  2  0  0  0  0
 15 26  1  0  0  0  0
 16 18  2  0  0  0  0
 16 27  1  0  0  0  0
 17 18  1  0  0  0  0
 17 28  1  0  0  0  0
 18 29  1  0  0  0  0
M  END
>  <Mol_ID>
1707

>  <Formula>
C12H11N5O

>  <MolWeight>
241.24864

>  <Cat>
S3658

>  <Name>
O6-Benzylguanine

>  <Synonyms>
O6-BG

>  <Target>
DNA alkylator

>  <Form>
free base

>  <CAS>
19916-73-5

>  <URL>
http://selleckchem.com/products/o6-benzylguanine.html

$$$$
