S3653 Spermidine trihydrochloride.cdx
 OpenBabel08302519503D

 29 28  0  0  0  0  0  0  0  0999 V2000
    0.9936    0.0860    0.0044 C   0  0  0  0  0  0  0  0  0  0  0  0
    0.4321    1.2295    0.7343 N   0  0  0  0  0  0  0  0  0  0  0  0
    0.5948    0.0186   -1.4752 C   0  0  0  0  0  0  0  0  0  0  0  0
   -1.0324    1.2048    0.7773 C   0  0  0  0  0  0  0  0  0  0  0  0
    0.9788    1.2641   -2.2870 C   0  0  0  0  0  0  0  0  0  0  0  0
   -1.6263    2.3665    1.5836 C   0  0  0  0  0  0  0  0  0  0  0  0
    2.4787    1.5585   -2.3461 C   0  0  0  0  0  0  0  0  0  0  0  0
   -1.2852    3.7376    1.0007 C   0  0  0  0  0  0  0  0  0  0  0  0
    3.2286    0.4756   -2.9751 N   0  0  0  0  0  0  0  0  0  0  0  0
   -1.9423    4.7935    1.7718 N   0  0  0  0  0  0  0  0  0  0  0  0
    0.7099   -0.8503    0.5030 H   0  0  0  0  0  0  0  0  0  0  0  0
    2.0825    0.1419    0.0807 H   0  0  0  0  0  0  0  0  0  0  0  0
    0.7910    1.2206    1.6890 H   0  0  0  0  0  0  0  0  0  0  0  0
    1.0461   -0.8726   -1.9239 H   0  0  0  0  0  0  0  0  0  0  0  0
   -0.4858   -0.1385   -1.5663 H   0  0  0  0  0  0  0  0  0  0  0  0
   -1.4493    1.2614   -0.2326 H   0  0  0  0  0  0  0  0  0  0  0  0
   -1.3735    0.2627    1.2268 H   0  0  0  0  0  0  0  0  0  0  0  0
    0.5933    1.1461   -3.3073 H   0  0  0  0  0  0  0  0  0  0  0  0
    0.4685    2.1426   -1.8725 H   0  0  0  0  0  0  0  0  0  0  0  0
   -2.7168    2.2404    1.5925 H   0  0  0  0  0  0  0  0  0  0  0  0
   -1.2926    2.3043    2.6267 H   0  0  0  0  0  0  0  0  0  0  0  0
    2.6357    2.4721   -2.9307 H   0  0  0  0  0  0  0  0  0  0  0  0
    2.8785    1.7511   -1.3454 H   0  0  0  0  0  0  0  0  0  0  0  0
   -0.2042    3.9097    1.0256 H   0  0  0  0  0  0  0  0  0  0  0  0
   -1.6110    3.8015   -0.0431 H   0  0  0  0  0  0  0  0  0  0  0  0
    4.2225    0.6983   -2.9471 H   0  0  0  0  0  0  0  0  0  0  0  0
    3.1198   -0.3821   -2.4377 H   0  0  0  0  0  0  0  0  0  0  0  0
   -1.7302    5.6957    1.3489 H   0  0  0  0  0  0  0  0  0  0  0  0
   -2.9542    4.6824    1.7132 H   0  0  0  0  0  0  0  0  0  0  0  0
  1  2  1  0  0  0  0
  1  3  1  0  0  0  0
  1 11  1  0  0  0  0
  1 12  1  0  0  0  0
  2  4  1  0  0  0  0
  2 13  1  0  0  0  0
  3  5  1  0  0  0  0
  3 14  1  0  0  0  0
  3 15  1  0  0  0  0
  4  6  1  0  0  0  0
  4 16  1  0  0  0  0
  4 17  1  0  0  0  0
  5  7  1  0  0  0  0
  5 18  1  0  0  0  0
  5 19  1  0  0  0  0
  6  8  1  0  0  0  0
  6 20  1  0  0  0  0
  6 21  1  0  0  0  0
  7  9  1  0  0  0  0
  7 22  1  0  0  0  0
  7 23  1  0  0  0  0
  8 10  1  0  0  0  0
  8 24  1  0  0  0  0
  8 25  1  0  0  0  0
  9 26  1  0  0  0  0
  9 27  1  0  0  0  0
 10 28  1  0  0  0  0
 10 29  1  0  0  0  0
M  END
>  <Mol_ID>
1715

>  <Formula>
C7H22Cl3N3

>  <MolWeight>
254.62868

>  <Cat>
S3653

>  <Name>
Spermidine trihydrochloride

>  <Synonyms>
4-Azaoctamethylenediamine trihydrochloride

>  <Target>
Autophagy,NMDAR

>  <Form>
trihydrochloride

>  <CAS>
334-50-9

>  <URL>
http://selleckchem.com/products/spermidine-trihydrochloride.html

$$$$
