S3652 3-Nitropropionic acid.cdx
 OpenBabel08302519503D

 13 12  0  0  0  0  0  0  0  0999 V2000
    1.1089    0.0628    0.0966 C   0  0  0  0  0  0  0  0  0  0  0  0
    0.1919    1.2254   -0.1433 C   0  0  0  0  0  0  0  0  0  0  0  0
    1.6994    0.0992    1.3106 O   0  0  0  0  0  0  0  0  0  0  0  0
    1.3202   -0.8286   -0.7091 O   0  0  0  0  0  0  0  0  0  0  0  0
   -0.5250    1.0481   -1.4704 C   0  0  0  0  0  0  0  0  0  0  0  0
   -1.4589    2.2013   -1.6321 N   0  3  0  0  0  0  0  0  0  0  0  0
   -1.0167    3.2080   -2.1983 O   0  0  0  0  0  0  0  0  0  0  0  0
   -2.5891    2.0809   -1.1441 O   0  5  0  0  0  0  0  0  0  0  0  0
   -0.5310    1.2763    0.6800 H   0  0  0  0  0  0  0  0  0  0  0  0
    0.7894    2.1447   -0.1468 H   0  0  0  0  0  0  0  0  0  0  0  0
    1.4507    0.8609    1.8698 H   0  0  0  0  0  0  0  0  0  0  0  0
    0.1611    1.0574   -2.3240 H   0  0  0  0  0  0  0  0  0  0  0  0
   -1.1252    0.1330   -1.5086 H   0  0  0  0  0  0  0  0  0  0  0  0
  1  2  1  0  0  0  0
  1  3  1  0  0  0  0
  1  4  2  0  0  0  0
  2  5  1  0  0  0  0
  2  9  1  0  0  0  0
  2 10  1  0  0  0  0
  3 11  1  0  0  0  0
  5  6  1  0  0  0  0
  5 12  1  0  0  0  0
  5 13  1  0  0  0  0
  6  7  2  0  0  0  0
  6  8  1  0  0  0  0
M  CHG  2   6   1   8  -1
M  END
>  <Mol_ID>
1678

>  <Formula>
C3H5NO4

>  <MolWeight>
119.0761

>  <Cat>
S3652

>  <Name>
3-Nitropropionic acid

>  <Synonyms>
¦Â-Nitropropionic Acid, 3-NP

>  <Target>
Dehydrogenase

>  <Form>
free base

>  <CAS>
504-88-1

>  <URL>
http://selleckchem.com/products/3-nitropropionic-acid.html

$$$$
