S3660 Uniconazole.cdx
 OpenBabel08302519503D

 38 39  0  0  0  0  0  0  0  0999 V2000
    0.7921    0.0187    0.0192 C   0  0  0  0  0  0  0  0  0  0  0  0
    2.2141   -0.0680    0.0629 N   0  0  0  0  0  0  0  0  0  0  0  0
    4.3632    0.3995   -0.3705 N   0  0  0  0  0  0  0  0  0  0  0  0
    2.9553   -0.8209    0.9294 N   0  0  0  0  0  0  0  0  0  0  0  0
    0.1953    1.0131   -0.6923 C   0  0  0  0  0  0  0  0  0  0  0  0
    0.0627   -1.1508    0.7130 C   0  0  3  0  0  0  0  0  0  0  0  0
    3.1258    0.5970   -0.7557 C   0  0  0  0  0  0  0  0  0  0  0  0
    4.2066   -0.4479    0.6732 C   0  0  0  0  0  0  0  0  0  0  0  0
   -0.4002   -1.0946    2.2195 C   0  0  0  0  0  0  0  0  0  0  0  0
   -1.2308    1.3492   -0.7665 C   0  0  0  0  0  0  0  0  0  0  0  0
   -1.0475   -1.5226   -0.1205 O   0  0  0  0  0  0  0  0  0  0  0  0
   -3.9358    2.0424   -0.7933 C   0  0  0  0  0  0  0  0  0  0  0  0
   -1.7340    2.2731    0.1514 C   0  0  0  0  0  0  0  0  0  0  0  0
   -2.0728    0.8309   -1.7559 C   0  0  0  0  0  0  0  0  0  0  0  0
   -3.4257    1.1773   -1.7625 C   0  0  0  0  0  0  0  0  0  0  0  0
   -3.0882    2.5990    0.1580 C   0  0  0  0  0  0  0  0  0  0  0  0
   -1.4004    0.0304    2.5195 C   0  0  0  0  0  0  0  0  0  0  0  0
   -1.1133   -2.4257    2.5758 C   0  0  0  0  0  0  0  0  0  0  0  0
    0.7882   -0.9390    3.1831 C   0  0  0  0  0  0  0  0  0  0  0  0
    0.7841    1.7642   -1.2144 H   0  0  0  0  0  0  0  0  0  0  0  0
    0.7337   -2.0180    0.6322 H   0  0  0  0  0  0  0  0  0  0  0  0
    2.8246    1.1810   -1.6126 H   0  0  0  0  0  0  0  0  0  0  0  0
    5.0352   -0.8161    1.2649 H   0  0  0  0  0  0  0  0  0  0  0  0
   -1.1818   -2.4785   -0.0167 H   0  0  0  0  0  0  0  0  0  0  0  0
   -4.9959    2.2849   -0.7846 H   0  0  0  0  0  0  0  0  0  0  0  0
   -1.0784    2.7137    0.9008 H   0  0  0  0  0  0  0  0  0  0  0  0
   -1.6899    0.1449   -2.5046 H   0  0  0  0  0  0  0  0  0  0  0  0
   -4.0876    0.7555   -2.5156 H   0  0  0  0  0  0  0  0  0  0  0  0
   -3.4775    3.2784    0.9140 H   0  0  0  0  0  0  0  0  0  0  0  0
   -2.2284    0.0344    1.8058 H   0  0  0  0  0  0  0  0  0  0  0  0
   -1.8456   -0.0946    3.5156 H   0  0  0  0  0  0  0  0  0  0  0  0
   -0.9111    1.0080    2.5206 H   0  0  0  0  0  0  0  0  0  0  0  0
   -0.4656   -3.2863    2.3749 H   0  0  0  0  0  0  0  0  0  0  0  0
   -1.3893   -2.4603    3.6363 H   0  0  0  0  0  0  0  0  0  0  0  0
   -2.0384   -2.5558    2.0032 H   0  0  0  0  0  0  0  0  0  0  0  0
    1.4756   -1.7878    3.1033 H   0  0  0  0  0  0  0  0  0  0  0  0
    1.3447   -0.0160    2.9956 H   0  0  0  0  0  0  0  0  0  0  0  0
    0.4469   -0.9003    4.2255 H   0  0  0  0  0  0  0  0  0  0  0  0
  2  1  1  0  0  0  0
  3  7  2  0  0  0  0
  3  8  1  0  0  0  0
  4  2  1  0  0  0  0
  5  1  2  0  0  0  0
  5 20  1  0  0  0  0
  6  1  1  0  0  0  0
  6 21  1  0  0  0  0
  7  2  1  0  0  0  0
  7 22  1  0  0  0  0
  8  4  2  0  0  0  0
  8 23  1  0  0  0  0
  9  6  1  0  0  0  0
  9 17  1  0  0  0  0
  9 18  1  0  0  0  0
  9 19  1  0  0  0  0
 10  5  1  0  0  0  0
 11  6  1  0  0  0  0
 11 24  1  0  0  0  0
 12 15  2  0  0  0  0
 12 16  1  0  0  0  0
 12 25  1  0  0  0  0
 13 10  1  0  0  0  0
 13 26  1  0  0  0  0
 14 10  2  0  0  0  0
 14 27  1  0  0  0  0
 15 14  1  0  0  0  0
 15 28  1  0  0  0  0
 16 13  2  0  0  0  0
 16 29  1  0  0  0  0
 17 30  1  0  0  0  0
 17 31  1  0  0  0  0
 17 32  1  0  0  0  0
 18 33  1  0  0  0  0
 18 34  1  0  0  0  0
 18 35  1  0  0  0  0
 19 36  1  0  0  0  0
 19 37  1  0  0  0  0
 19 38  1  0  0  0  0
M  END
>  <Mol_ID>
1684

>  <Formula>
C15H18ClN3O

>  <MolWeight>
291.77592

>  <Cat>
S3660

>  <Name>
Uniconazole (S 3307D)

>  <Synonyms>
XE 1019D

>  <Target>
P450 (e.g. CYP17)

>  <Form>
free base

>  <CAS>
83657-22-1

>  <URL>
http://selleckchem.com/products/uniconazole.html

$$$$
