S3669 Carmustine.cdx
 OpenBabel08302520003D

 21 20  0  0  0  0  0  0  0  0999 V2000
    0.8462   -0.0263   -0.1028 N   0  0  0  0  0  0  0  0  0  0  0  0
    0.2589   -1.2891   -0.2048 C   0  0  0  0  0  0  0  0  0  0  0  0
    2.3025    0.1012   -0.1378 C   0  0  0  0  0  0  0  0  0  0  0  0
    0.0453    1.1014    0.1449 N   0  0  0  0  0  0  0  0  0  0  0  0
   -1.1208   -1.3161   -0.2059 N   0  0  0  0  0  0  0  0  0  0  0  0
    0.9192   -2.3264   -0.2974 O   0  0  0  0  0  0  0  0  0  0  0  0
    2.9294    0.0327    1.2470 C   0  0  0  0  0  0  0  0  0  0  0  0
    0.6745    2.1558    0.2791 O   0  0  0  0  0  0  0  0  0  0  0  0
   -1.8861   -2.5428   -0.2886 C   0  0  0  0  0  0  0  0  0  0  0  0
   -2.1196   -3.1558    1.0799 C   0  0  0  0  0  0  0  0  0  0  0  0
    2.7166   -0.7070   -0.7532 H   0  0  0  0  0  0  0  0  0  0  0  0
    2.5792    1.0361   -0.6389 H   0  0  0  0  0  0  0  0  0  0  0  0
   -1.6306   -0.4447   -0.2050 H   0  0  0  0  0  0  0  0  0  0  0  0
    2.7885   -0.9577    1.6923 H   0  0  0  0  0  0  0  0  0  0  0  0
    4.0051    0.2276    1.1849 H   0  0  0  0  0  0  0  0  0  0  0  0
    2.4889    0.7702    1.9253 H   0  0  0  0  0  0  0  0  0  0  0  0
   -2.8453   -2.2928   -0.7528 H   0  0  0  0  0  0  0  0  0  0  0  0
   -1.3662   -3.2544   -0.9386 H   0  0  0  0  0  0  0  0  0  0  0  0
   -2.6584   -2.4612    1.7331 H   0  0  0  0  0  0  0  0  0  0  0  0
   -2.7133   -4.0707    0.9907 H   0  0  0  0  0  0  0  0  0  0  0  0
   -1.1728   -3.4074    1.5696 H   0  0  0  0  0  0  0  0  0  0  0  0
  1  2  1  0  0  0  0
  1  3  1  0  0  0  0
  1  4  1  0  0  0  0
  2  5  1  0  0  0  0
  2  6  2  0  0  0  0
  3  7  1  0  0  0  0
  3 11  1  0  0  0  0
  3 12  1  0  0  0  0
  4  8  2  0  0  0  0
  5  9  1  0  0  0  0
  5 13  1  0  0  0  0
  7 14  1  0  0  0  0
  7 15  1  0  0  0  0
  7 16  1  0  0  0  0
  9 10  1  0  0  0  0
  9 17  1  0  0  0  0
  9 18  1  0  0  0  0
 10 19  1  0  0  0  0
 10 20  1  0  0  0  0
 10 21  1  0  0  0  0
M  END
>  <Mol_ID>
2742

>  <Formula>
C5H9Cl2N3O2

>  <MolWeight>
214.04986

>  <Cat>
S3669

>  <Name>
Carmustine

>  <Synonyms>
bis-chloroethylnitrosourea, BCNU, BiCNU

>  <Target>
DNA/RNA Synthesis

>  <Form>
free base

>  <CAS>
154-93-8

>  <URL>
http://selleckchem.com/products/carmustine.html

$$$$
