S3663 Afloqualone.cdx
 OpenBabel08302519503D

 35 37  0  0  0  0  0  0  0  0999 V2000
    2.4089   -0.6403    0.0324 N   0  0  0  0  0  0  0  0  0  0  0  0
    3.6507   -1.3176   -0.0929 C   0  0  0  0  0  0  0  0  0  0  0  0
    2.3247    0.7445   -0.0041 C   0  0  0  0  0  0  0  0  0  0  0  0
    1.2697   -1.4393    0.1556 C   0  0  0  0  0  0  0  0  0  0  0  0
    4.4294   -1.6492    1.0314 C   0  0  0  0  0  0  0  0  0  0  0  0
    4.0517   -1.7200   -1.3759 C   0  0  0  0  0  0  0  0  0  0  0  0
    1.1997    1.3892    0.0571 N   0  0  0  0  0  0  0  0  0  0  0  0
    3.5938    1.5704   -0.1576 C   0  0  0  0  0  0  0  0  0  0  0  0
   -0.0189   -0.7307    0.1393 C   0  0  0  0  0  0  0  0  0  0  0  0
    1.2696   -2.6632    0.2768 O   0  0  0  0  0  0  0  0  0  0  0  0
    5.6175   -2.3717    0.8334 C   0  0  0  0  0  0  0  0  0  0  0  0
    4.0586   -1.2678    2.4365 C   0  0  0  0  0  0  0  0  0  0  0  0
    5.2264   -2.4486   -1.5491 C   0  0  0  0  0  0  0  0  0  0  0  0
    0.0070    0.6599    0.0940 C   0  0  0  0  0  0  0  0  0  0  0  0
    3.8772    1.7941   -1.4742 F   0  0  0  0  0  0  0  0  0  0  0  0
   -1.2310   -1.4340    0.1082 C   0  0  0  0  0  0  0  0  0  0  0  0
    6.0088   -2.7740   -0.4451 C   0  0  0  0  0  0  0  0  0  0  0  0
   -1.2038    1.3462    0.0129 C   0  0  0  0  0  0  0  0  0  0  0  0
   -2.4437   -0.7460    0.0561 C   0  0  0  0  0  0  0  0  0  0  0  0
   -2.4162    0.6479   -0.0345 C   0  0  0  0  0  0  0  0  0  0  0  0
   -3.6380   -1.4396   -0.1563 N   0  0  0  0  0  0  0  0  0  0  0  0
    3.4389   -1.4839   -2.2427 H   0  0  0  0  0  0  0  0  0  0  0  0
    3.4483    2.5451    0.3192 H   0  0  0  0  0  0  0  0  0  0  0  0
    4.4665    1.1023    0.2987 H   0  0  0  0  0  0  0  0  0  0  0  0
    6.2389   -2.6445    1.6846 H   0  0  0  0  0  0  0  0  0  0  0  0
    4.0870   -2.1500    3.0849 H   0  0  0  0  0  0  0  0  0  0  0  0
    4.7664   -0.5236    2.8168 H   0  0  0  0  0  0  0  0  0  0  0  0
    3.0533   -0.8447    2.5114 H   0  0  0  0  0  0  0  0  0  0  0  0
    5.5221   -2.7750   -2.5423 H   0  0  0  0  0  0  0  0  0  0  0  0
   -1.2183   -2.5215    0.0988 H   0  0  0  0  0  0  0  0  0  0  0  0
    6.9190   -3.3545   -0.5766 H   0  0  0  0  0  0  0  0  0  0  0  0
   -1.2024    2.4313   -0.0560 H   0  0  0  0  0  0  0  0  0  0  0  0
   -3.3397    1.2073   -0.1579 H   0  0  0  0  0  0  0  0  0  0  0  0
   -3.6425   -2.3883    0.2069 H   0  0  0  0  0  0  0  0  0  0  0  0
   -4.4752   -0.9244    0.0959 H   0  0  0  0  0  0  0  0  0  0  0  0
  1  2  1  0  0  0  0
  1  3  1  0  0  0  0
  1  4  1  0  0  0  0
  2  5  2  0  0  0  0
  2  6  1  0  0  0  0
  3  7  2  0  0  0  0
  3  8  1  0  0  0  0
  4  9  1  0  0  0  0
  4 10  2  0  0  0  0
  5 11  1  0  0  0  0
  5 12  1  0  0  0  0
  6 13  2  0  0  0  0
  6 22  1  0  0  0  0
  7 14  1  0  0  0  0
  8 15  1  0  0  0  0
  8 23  1  0  0  0  0
  8 24  1  0  0  0  0
  9 16  1  0  0  0  0
  9 14  2  0  0  0  0
 11 17  2  0  0  0  0
 11 25  1  0  0  0  0
 12 26  1  0  0  0  0
 12 27  1  0  0  0  0
 12 28  1  0  0  0  0
 13 17  1  0  0  0  0
 13 29  1  0  0  0  0
 14 18  1  0  0  0  0
 16 19  2  0  0  0  0
 16 30  1  0  0  0  0
 17 31  1  0  0  0  0
 18 20  2  0  0  0  0
 18 32  1  0  0  0  0
 19 21  1  0  0  0  0
 19 20  1  0  0  0  0
 20 33  1  0  0  0  0
 21 34  1  0  0  0  0
 21 35  1  0  0  0  0
M  END
>  <Mol_ID>
1709

>  <Formula>
C16H14FN3O

>  <MolWeight>
283.3002632

>  <Cat>
S3663

>  <Name>
Afloqualone

>  <Synonyms>
HQ-495

>  <Target>
GABA Receptor

>  <Form>
free base

>  <CAS>
56287-74-2

>  <URL>
http://selleckchem.com/products/afloqualone.html

$$$$
