S3677 Cinnamic acid.cdx
 OpenBabel08302519503D

 19 19  0  0  0  0  0  0  0  0999 V2000
    1.4125   -0.1531    0.0454 C   0  0  0  0  0  0  0  0  0  0  0  0
    2.8642   -0.3781    0.1620 C   0  0  0  0  0  0  0  0  0  0  0  0
    0.5568   -1.2639    0.0311 C   0  0  0  0  0  0  0  0  0  0  0  0
    0.8416    1.1275    0.0244 C   0  0  0  0  0  0  0  0  0  0  0  0
    3.8107    0.4268   -0.3451 C   0  0  0  0  0  0  0  0  0  0  0  0
   -0.8319   -1.1000   -0.0109 C   0  0  0  0  0  0  0  0  0  0  0  0
   -0.5479    1.2908   -0.0110 C   0  0  0  0  0  0  0  0  0  0  0  0
    5.2388    0.0960   -0.1380 C   0  0  0  0  0  0  0  0  0  0  0  0
   -1.3841    0.1775   -0.0258 C   0  0  0  0  0  0  0  0  0  0  0  0
    6.0526    1.0079   -0.7069 O   0  0  0  0  0  0  0  0  0  0  0  0
    5.6462   -0.8745    0.4751 O   0  0  0  0  0  0  0  0  0  0  0  0
    3.1559   -1.2780    0.7046 H   0  0  0  0  0  0  0  0  0  0  0  0
    0.9625   -2.2735    0.0500 H   0  0  0  0  0  0  0  0  0  0  0  0
    1.4615    2.0187    0.0548 H   0  0  0  0  0  0  0  0  0  0  0  0
    3.5629    1.3143   -0.9082 H   0  0  0  0  0  0  0  0  0  0  0  0
   -1.4807   -1.9724   -0.0253 H   0  0  0  0  0  0  0  0  0  0  0  0
   -0.9771    2.2897   -0.0169 H   0  0  0  0  0  0  0  0  0  0  0  0
   -2.4638    0.3054   -0.0447 H   0  0  0  0  0  0  0  0  0  0  0  0
    5.6095    1.7356   -1.1774 H   0  0  0  0  0  0  0  0  0  0  0  0
  1  2  1  0  0  0  0
  1  3  2  0  0  0  0
  1  4  1  0  0  0  0
  2  5  2  0  0  0  0
  2 12  1  0  0  0  0
  3  6  1  0  0  0  0
  3 13  1  0  0  0  0
  4  7  2  0  0  0  0
  4 14  1  0  0  0  0
  5  8  1  0  0  0  0
  5 15  1  0  0  0  0
  6  9  2  0  0  0  0
  6 16  1  0  0  0  0
  7  9  1  0  0  0  0
  7 17  1  0  0  0  0
  8 10  1  0  0  0  0
  8 11  2  0  0  0  0
  9 18  1  0  0  0  0
 10 19  1  0  0  0  0
M  END
>  <Mol_ID>
1676

>  <Formula>
C9H8O2

>  <MolWeight>
148.15862

>  <Cat>
S3677

>  <Name>
Cinnamic acid

>  <Synonyms>
trans-Cinnamic acid, Phenylacrylic acid, Cinnamylic acid, 3-Phenylacrylic acid|(E)-Cinnamic acid, Benzenepropenoic acid, Isocinnamic acid

>  <Target>
Others

>  <Form>
free base

>  <CAS>
140-10-3

>  <URL>
http://selleckchem.com/products/cinnamic-acid.html

$$$$
