S3673 Sulfaphenazole.cdx
 OpenBabel08302519503D

 36 38  0  0  0  0  0  0  0  0999 V2000
    0.9739   -0.6274   -0.0166 N   0  0  0  0  0  0  0  0  0  0  0  0
   -0.3206   -1.1647    0.0625 C   0  0  0  0  0  0  0  0  0  0  0  0
    2.2636   -1.2433   -0.0682 C   0  0  0  0  0  0  0  0  0  0  0  0
    0.9075    0.7423   -0.0351 N   0  0  0  0  0  0  0  0  0  0  0  0
   -0.8260   -2.5097    0.1499 N   0  0  0  0  0  0  0  0  0  0  0  0
   -1.1936   -0.0997    0.0399 C   0  0  0  0  0  0  0  0  0  0  0  0
    2.4491   -2.6228   -0.1886 C   0  0  0  0  0  0  0  0  0  0  0  0
    3.4063   -0.4178    0.0098 C   0  0  0  0  0  0  0  0  0  0  0  0
   -0.3875    1.0373   -0.0032 C   0  0  0  0  0  0  0  0  0  0  0  0
   -0.9306   -3.1168    1.7481 S   0  0  0  0  0  0  0  0  0  0  0  0
    3.7422   -3.1638   -0.1978 C   0  0  0  0  0  0  0  0  0  0  0  0
    4.6923   -0.9621    0.0076 C   0  0  0  0  0  0  0  0  0  0  0  0
   -2.6176   -2.8043    2.2288 C   0  0  0  0  0  0  0  0  0  0  0  0
   -0.7621   -4.5473    1.6083 O   0  0  0  0  0  0  0  0  0  0  0  0
   -0.0657   -2.3523    2.6188 O   0  0  0  0  0  0  0  0  0  0  0  0
    4.8594   -2.3381   -0.0884 C   0  0  0  0  0  0  0  0  0  0  0  0
   -3.5356   -3.8516    2.3402 C   0  0  0  0  0  0  0  0  0  0  0  0
   -2.9627   -1.5284    2.6831 C   0  0  0  0  0  0  0  0  0  0  0  0
   -4.7958   -3.6107    2.9069 C   0  0  0  0  0  0  0  0  0  0  0  0
   -4.2283   -1.2970    3.2302 C   0  0  0  0  0  0  0  0  0  0  0  0
   -5.1665   -2.3281    3.3260 C   0  0  0  0  0  0  0  0  0  0  0  0
   -6.3359   -2.1356    4.0693 N   0  0  0  0  0  0  0  0  0  0  0  0
   -0.3353   -3.2285   -0.3818 H   0  0  0  0  0  0  0  0  0  0  0  0
   -2.2733   -0.1444    0.0633 H   0  0  0  0  0  0  0  0  0  0  0  0
    1.6320   -3.3205   -0.2851 H   0  0  0  0  0  0  0  0  0  0  0  0
    3.3135    0.6641    0.0941 H   0  0  0  0  0  0  0  0  0  0  0  0
   -0.6874    2.0776   -0.0120 H   0  0  0  0  0  0  0  0  0  0  0  0
    3.8776   -4.2393   -0.2845 H   0  0  0  0  0  0  0  0  0  0  0  0
    5.5590   -0.3104    0.0907 H   0  0  0  0  0  0  0  0  0  0  0  0
    5.8579   -2.7681   -0.0761 H   0  0  0  0  0  0  0  0  0  0  0  0
   -3.2698   -4.8654    2.0488 H   0  0  0  0  0  0  0  0  0  0  0  0
   -2.2365   -0.7194    2.6681 H   0  0  0  0  0  0  0  0  0  0  0  0
   -5.4787   -4.4459    3.0491 H   0  0  0  0  0  0  0  0  0  0  0  0
   -4.4609   -0.3090    3.6198 H   0  0  0  0  0  0  0  0  0  0  0  0
   -6.6657   -1.1764    4.1029 H   0  0  0  0  0  0  0  0  0  0  0  0
   -7.0789   -2.7998    3.8791 H   0  0  0  0  0  0  0  0  0  0  0  0
  1  2  1  0  0  0  0
  1  3  1  0  0  0  0
  1  4  1  0  0  0  0
  2  5  1  0  0  0  0
  2  6  2  0  0  0  0
  3  7  2  0  0  0  0
  3  8  1  0  0  0  0
  4  9  2  0  0  0  0
  5 10  1  0  0  0  0
  5 23  1  0  0  0  0
  6  9  1  0  0  0  0
  6 24  1  0  0  0  0
  7 11  1  0  0  0  0
  7 25  1  0  0  0  0
  8 12  2  0  0  0  0
  8 26  1  0  0  0  0
  9 27  1  0  0  0  0
 10 13  1  0  0  0  0
 10 14  2  0  0  0  0
 10 15  2  0  0  0  0
 11 16  2  0  0  0  0
 11 28  1  0  0  0  0
 12 16  1  0  0  0  0
 12 29  1  0  0  0  0
 13 17  2  0  0  0  0
 13 18  1  0  0  0  0
 16 30  1  0  0  0  0
 17 19  1  0  0  0  0
 17 31  1  0  0  0  0
 18 20  2  0  0  0  0
 18 32  1  0  0  0  0
 19 21  2  0  0  0  0
 19 33  1  0  0  0  0
 20 21  1  0  0  0  0
 20 34  1  0  0  0  0
 21 22  1  0  0  0  0
 22 35  1  0  0  0  0
 22 36  1  0  0  0  0
M  END
>  <Mol_ID>
1710

>  <Formula>
C15H14N4O2S

>  <MolWeight>
314.36226

>  <Cat>
S3673

>  <Name>
Sulfaphenazole

>  <Synonyms>
Depocid, Depotsulfonamide, Plisulfan, Raziosulfa

>  <Target>
P450 (e.g. CYP17)

>  <Form>
free base

>  <CAS>
526-08-9

>  <URL>
http://selleckchem.com/products/sulfaphenazole.html

$$$$
