S3674 Levamlodipine.cdx
 OpenBabel08302519503D

 53 54  0  0  0  0  0  0  0  0999 V2000
   -1.9032   -0.1297   -0.2362 C   0  0  0  0  0  0  0  0  0  0  0  0
    0.2126    1.3425   -0.1290 C   0  0  0  0  0  0  0  0  0  0  0  0
   -1.3303    1.2909   -0.0544 C   0  0  1  0  0  0  0  0  0  0  0  0
    0.9336    0.1912   -0.0943 C   0  0  0  0  0  0  0  0  0  0  0  0
   -1.0876   -1.2082   -0.1371 C   0  0  0  0  0  0  0  0  0  0  0  0
    0.2722   -1.0232    0.0319 N   0  0  0  0  0  0  0  0  0  0  0  0
   -3.3305   -0.3292   -0.6045 C   0  0  0  0  0  0  0  0  0  0  0  0
    0.9047    2.6614   -0.2036 C   0  0  0  0  0  0  0  0  0  0  0  0
   -2.0070    2.3277   -0.9546 C   0  0  0  0  0  0  0  0  0  0  0  0
   -1.8640    2.3108   -2.3479 C   0  0  0  0  0  0  0  0  0  0  0  0
    2.0159    2.8307   -0.6842 O   0  0  0  0  0  0  0  0  0  0  0  0
   -3.7192   -1.2133   -1.3558 O   0  0  0  0  0  0  0  0  0  0  0  0
    2.4555    0.0689   -0.1613 C   0  0  0  0  0  0  0  0  0  0  0  0
   -4.1329    0.6011   -0.0304 O   0  0  0  0  0  0  0  0  0  0  0  0
    0.1631    3.6506    0.3580 O   0  0  0  0  0  0  0  0  0  0  0  0
   -1.5095   -2.6590   -0.1795 C   0  0  0  0  0  0  0  0  0  0  0  0
    6.0692   -2.9268   -1.3694 N   0  0  0  0  0  0  0  0  0  0  0  0
   -2.8163    3.3199   -0.3634 C   0  0  0  0  0  0  0  0  0  0  0  0
    2.8115   -1.2394   -0.6683 O   0  0  0  0  0  0  0  0  0  0  0  0
   -2.5183    3.2644   -3.1317 C   0  0  0  0  0  0  0  0  0  0  0  0
    4.6199   -2.7236   -1.3488 C   0  0  0  0  0  0  0  0  0  0  0  0
    0.7654    4.9517    0.2667 C   0  0  0  0  0  0  0  0  0  0  0  0
    4.2374   -1.3998   -0.6751 C   0  0  0  0  0  0  0  0  0  0  0  0
   -5.4828    0.6015   -0.5143 C   0  0  0  0  0  0  0  0  0  0  0  0
   -3.4702    4.2691   -1.1464 C   0  0  0  0  0  0  0  0  0  0  0  0
   -0.2301    6.0049    0.7174 C   0  0  0  0  0  0  0  0  0  0  0  0
   -3.3192    4.2390   -2.5287 C   0  0  0  0  0  0  0  0  0  0  0  0
   -1.5706    1.5588    0.9877 H   0  0  0  0  0  0  0  0  0  0  0  0
    0.8791   -1.8328   -0.1299 H   0  0  0  0  0  0  0  0  0  0  0  0
   -1.2519    1.5552   -2.8345 H   0  0  0  0  0  0  0  0  0  0  0  0
    2.9076    0.7988   -0.8314 H   0  0  0  0  0  0  0  0  0  0  0  0
    2.8636    0.1721    0.8505 H   0  0  0  0  0  0  0  0  0  0  0  0
   -1.1685   -3.1261   -1.1088 H   0  0  0  0  0  0  0  0  0  0  0  0
   -1.0515   -3.1987    0.6587 H   0  0  0  0  0  0  0  0  0  0  0  0
   -2.5846   -2.8183   -0.0790 H   0  0  0  0  0  0  0  0  0  0  0  0
    6.2733   -3.8623   -1.7214 H   0  0  0  0  0  0  0  0  0  0  0  0
    6.4941   -2.2812   -2.0353 H   0  0  0  0  0  0  0  0  0  0  0  0
   -2.9472    3.3525    0.7132 H   0  0  0  0  0  0  0  0  0  0  0  0
   -2.4071    3.2475   -4.2086 H   0  0  0  0  0  0  0  0  0  0  0  0
    4.1451   -3.5546   -0.8157 H   0  0  0  0  0  0  0  0  0  0  0  0
    4.2300   -2.7510   -2.3729 H   0  0  0  0  0  0  0  0  0  0  0  0
    1.6432    4.9743    0.9215 H   0  0  0  0  0  0  0  0  0  0  0  0
    1.0737    5.1654   -0.7643 H   0  0  0  0  0  0  0  0  0  0  0  0
    4.6995   -0.5655   -1.2167 H   0  0  0  0  0  0  0  0  0  0  0  0
    4.5963   -1.3930    0.3606 H   0  0  0  0  0  0  0  0  0  0  0  0
   -5.5770    0.2051   -1.5317 H   0  0  0  0  0  0  0  0  0  0  0  0
   -6.1070    0.0233    0.1714 H   0  0  0  0  0  0  0  0  0  0  0  0
   -5.8416    1.6347   -0.5331 H   0  0  0  0  0  0  0  0  0  0  0  0
   -4.0949    5.0232   -0.6783 H   0  0  0  0  0  0  0  0  0  0  0  0
   -0.9506    6.2162   -0.0801 H   0  0  0  0  0  0  0  0  0  0  0  0
   -0.7993    5.6720    1.5902 H   0  0  0  0  0  0  0  0  0  0  0  0
    0.2839    6.9408    0.9588 H   0  0  0  0  0  0  0  0  0  0  0  0
   -3.8251    4.9734   -3.1461 H   0  0  0  0  0  0  0  0  0  0  0  0
  2  3  1  0  0  0  0
  3  1  1  0  0  0  0
  3 28  1  1  0  0  0
  3  9  1  0  0  0  0
  4  2  2  0  0  0  0
  4  6  1  0  0  0  0
  5  1  2  0  0  0  0
  6  5  1  0  0  0  0
  6 29  1  0  0  0  0
  7  1  1  0  0  0  0
  8  2  1  0  0  0  0
 10  9  2  0  0  0  0
 10 30  1  0  0  0  0
 11  8  2  0  0  0  0
 12  7  2  0  0  0  0
 13  4  1  0  0  0  0
 13 31  1  0  0  0  0
 13 32  1  0  0  0  0
 14  7  1  0  0  0  0
 15  8  1  0  0  0  0
 16  5  1  0  0  0  0
 16 33  1  0  0  0  0
 16 34  1  0  0  0  0
 16 35  1  0  0  0  0
 17 21  1  0  0  0  0
 17 36  1  0  0  0  0
 17 37  1  0  0  0  0
 18  9  1  0  0  0  0
 18 38  1  0  0  0  0
 19 13  1  0  0  0  0
 20 10  1  0  0  0  0
 20 39  1  0  0  0  0
 21 23  1  0  0  0  0
 21 40  1  0  0  0  0
 21 41  1  0  0  0  0
 22 15  1  0  0  0  0
 22 42  1  0  0  0  0
 22 43  1  0  0  0  0
 23 19  1  0  0  0  0
 23 44  1  0  0  0  0
 23 45  1  0  0  0  0
 24 14  1  0  0  0  0
 24 46  1  0  0  0  0
 24 47  1  0  0  0  0
 24 48  1  0  0  0  0
 25 18  2  0  0  0  0
 25 49  1  0  0  0  0
 26 22  1  0  0  0  0
 26 50  1  0  0  0  0
 26 51  1  0  0  0  0
 26 52  1  0  0  0  0
 27 20  2  0  0  0  0
 27 25  1  0  0  0  0
 27 53  1  0  0  0  0
M  END
>  <Mol_ID>
1681

>  <Formula>
C20H25ClN2O5

>  <MolWeight>
408.8759

>  <Cat>
S3674

>  <Name>
Levamlodipine

>  <Synonyms>
S-amlodipine

>  <Target>
Calcium Channel

>  <Form>
free base

>  <CAS>
103129-82-4

>  <URL>
http://selleckchem.com/products/levamlodipine.html

$$$$
