S3678 PTP Inhibitor II.cdx
 OpenBabel08302519503D

 21 21  0  0  0  0  0  0  0  0999 V2000
    1.3928   -0.2163    0.0696 C   0  0  0  0  0  0  0  0  0  0  0  0
    0.5283   -1.3180    0.0759 C   0  0  0  0  0  0  0  0  0  0  0  0
    0.8573    1.0727    0.0042 C   0  0  0  0  0  0  0  0  0  0  0  0
    2.8608   -0.4748    0.1486 C   0  0  0  0  0  0  0  0  0  0  0  0
   -0.8580   -1.1381    0.0026 C   0  0  0  0  0  0  0  0  0  0  0  0
   -0.5298    1.2465   -0.0577 C   0  0  0  0  0  0  0  0  0  0  0  0
    3.8186    0.5268   -0.4396 C   0  0  0  0  0  0  0  0  0  0  0  0
    3.2553   -1.5262    0.6524 O   0  0  0  0  0  0  0  0  0  0  0  0
   -1.3926    0.1472   -0.0647 C   0  0  0  0  0  0  0  0  0  0  0  0
    4.3930    1.7255    0.9686 Br  0  0  0  0  0  0  0  0  0  0  0  0
   -2.7209    0.4642   -0.1369 O   0  0  0  0  0  0  0  0  0  0  0  0
   -3.6414   -0.6205   -0.1482 C   0  0  0  0  0  0  0  0  0  0  0  0
    0.9303   -2.3291    0.1330 H   0  0  0  0  0  0  0  0  0  0  0  0
    1.4836    1.9586    0.0236 H   0  0  0  0  0  0  0  0  0  0  0  0
   -1.4870   -2.0230    0.0041 H   0  0  0  0  0  0  0  0  0  0  0  0
   -0.9447    2.2522   -0.0938 H   0  0  0  0  0  0  0  0  0  0  0  0
    4.7046    0.0096   -0.8179 H   0  0  0  0  0  0  0  0  0  0  0  0
    3.3768    1.1058   -1.2527 H   0  0  0  0  0  0  0  0  0  0  0  0
   -3.4736   -1.2738   -1.0105 H   0  0  0  0  0  0  0  0  0  0  0  0
   -3.5967   -1.1836    0.7897 H   0  0  0  0  0  0  0  0  0  0  0  0
   -4.6490   -0.2029   -0.2399 H   0  0  0  0  0  0  0  0  0  0  0  0
  1  2  2  0  0  0  0
  1  3  1  0  0  0  0
  1  4  1  0  0  0  0
  2  5  1  0  0  0  0
  2 13  1  0  0  0  0
  3  6  2  0  0  0  0
  3 14  1  0  0  0  0
  4  7  1  0  0  0  0
  4  8  2  0  0  0  0
  5  9  2  0  0  0  0
  5 15  1  0  0  0  0
  6  9  1  0  0  0  0
  6 16  1  0  0  0  0
  7 10  1  0  0  0  0
  7 17  1  0  0  0  0
  7 18  1  0  0  0  0
  9 11  1  0  0  0  0
 11 12  1  0  0  0  0
 12 19  1  0  0  0  0
 12 20  1  0  0  0  0
 12 21  1  0  0  0  0
M  END
>  <Mol_ID>
1749

>  <Formula>
C9H9BrO2

>  <MolWeight>
229.07056

>  <Cat>
S3678

>  <Name>
PTP Inhibitor II

>  <Synonyms>
NSC 129010, 4-(Bromoacetyl)anisole

>  <Target>
phosphatase

>  <Form>
free base

>  <CAS>
2632-13-5

>  <URL>
http://selleckchem.com/products/ptp-inhibitor-2.html

$$$$
