S3679 Flavanone.cdx
 OpenBabel08302519503D

 29 31  0  0  0  0  0  0  0  0999 V2000
    0.0696   -0.5169    0.0011 C   0  0  0  0  0  0  0  0  0  0  0  0
    0.4545    0.8213   -0.0119 C   0  0  0  0  0  0  0  0  0  0  0  0
   -1.3645   -0.8429   -0.0977 C   0  0  0  0  0  0  0  0  0  0  0  0
    1.0320   -1.5304    0.0453 C   0  0  0  0  0  0  0  0  0  0  0  0
   -0.4171    1.8679   -0.0827 O   0  0  0  0  0  0  0  0  0  0  0  0
    1.8093    1.1516    0.0007 C   0  0  0  0  0  0  0  0  0  0  0  0
   -2.2823    0.2998   -0.4219 C   0  0  0  0  0  0  0  0  0  0  0  0
   -1.7584   -1.9997    0.0054 O   0  0  0  0  0  0  0  0  0  0  0  0
    2.3871   -1.1956    0.0625 C   0  0  0  0  0  0  0  0  0  0  0  0
   -1.7751    1.5575    0.2721 C   0  0  3  0  0  0  0  0  0  0  0  0
    2.7751    0.1446    0.0393 C   0  0  0  0  0  0  0  0  0  0  0  0
   -2.6398    2.7498   -0.1076 C   0  0  0  0  0  0  0  0  0  0  0  0
   -2.3065    3.5723   -1.1980 C   0  0  0  0  0  0  0  0  0  0  0  0
   -3.8135    3.0331    0.6088 C   0  0  0  0  0  0  0  0  0  0  0  0
   -3.1075    4.6598   -1.5477 C   0  0  0  0  0  0  0  0  0  0  0  0
   -4.6175    4.1194    0.2528 C   0  0  0  0  0  0  0  0  0  0  0  0
   -4.2623    4.9337   -0.8215 C   0  0  0  0  0  0  0  0  0  0  0  0
    0.7313   -2.5758    0.0430 H   0  0  0  0  0  0  0  0  0  0  0  0
    2.1134    2.1954   -0.0209 H   0  0  0  0  0  0  0  0  0  0  0  0
   -2.3041    0.4103   -1.5126 H   0  0  0  0  0  0  0  0  0  0  0  0
   -3.2923    0.0512   -0.0754 H   0  0  0  0  0  0  0  0  0  0  0  0
    3.1407   -1.9794    0.0818 H   0  0  0  0  0  0  0  0  0  0  0  0
   -1.8026    1.4370    1.3652 H   0  0  0  0  0  0  0  0  0  0  0  0
    3.8304    0.4067    0.0451 H   0  0  0  0  0  0  0  0  0  0  0  0
   -1.4090    3.3757   -1.7826 H   0  0  0  0  0  0  0  0  0  0  0  0
   -4.1118    2.4108    1.4495 H   0  0  0  0  0  0  0  0  0  0  0  0
   -2.8259    5.2923   -2.3858 H   0  0  0  0  0  0  0  0  0  0  0  0
   -5.5233    4.3326    0.8149 H   0  0  0  0  0  0  0  0  0  0  0  0
   -4.8856    5.7815   -1.0933 H   0  0  0  0  0  0  0  0  0  0  0  0
  1  2  2  0  0  0  0
  1  3  1  0  0  0  0
  1  4  1  0  0  0  0
  2  5  1  0  0  0  0
  2  6  1  0  0  0  0
  3  7  1  0  0  0  0
  3  8  2  0  0  0  0
  4  9  2  0  0  0  0
  4 18  1  0  0  0  0
  5 10  1  0  0  0  0
  6 11  2  0  0  0  0
  6 19  1  0  0  0  0
  7 10  1  0  0  0  0
  7 20  1  0  0  0  0
  7 21  1  0  0  0  0
  9 11  1  0  0  0  0
  9 22  1  0  0  0  0
 10 12  1  0  0  0  0
 10 23  1  0  0  0  0
 11 24  1  0  0  0  0
 12 13  2  0  0  0  0
 12 14  1  0  0  0  0
 13 15  1  0  0  0  0
 13 25  1  0  0  0  0
 14 16  2  0  0  0  0
 14 26  1  0  0  0  0
 15 17  2  0  0  0  0
 15 27  1  0  0  0  0
 16 17  1  0  0  0  0
 16 28  1  0  0  0  0
 17 29  1  0  0  0  0
M  END
>  <Mol_ID>
1735

>  <Formula>
C15H12O2

>  <MolWeight>
224.25458

>  <Cat>
S3679

>  <Name>
Flavanone

>  <Synonyms>
2,3-Dihydroflavone, 4-Flavanone, 2-Phenyl-4-chromanone, 2-Phenylchroman-4-one

>  <Target>
Antioxidant

>  <Form>
free base

>  <CAS>
487-26-3

>  <URL>
http://selleckchem.com/products/flavanone.html

$$$$
