S3675 Umbelliferone.cdx
 OpenBabel08302519503D

 18 19  0  0  0  0  0  0  0  0999 V2000
   -0.0337   -1.0400   -0.0030 C   0  0  0  0  0  0  0  0  0  0  0  0
   -0.0301    0.3545   -0.0038 C   0  0  0  0  0  0  0  0  0  0  0  0
   -1.2582   -1.7132   -0.0040 C   0  0  0  0  0  0  0  0  0  0  0  0
    1.2369   -1.7464   -0.0000 C   0  0  0  0  0  0  0  0  0  0  0  0
   -1.2128    1.0884   -0.0040 C   0  0  0  0  0  0  0  0  0  0  0  0
    1.1792    1.0770   -0.0046 O   0  0  0  0  0  0  0  0  0  0  0  0
   -2.4565   -0.9894   -0.0043 C   0  0  0  0  0  0  0  0  0  0  0  0
    2.3767   -1.0485   -0.0006 C   0  0  0  0  0  0  0  0  0  0  0  0
   -2.4214    0.4044   -0.0036 C   0  0  0  0  0  0  0  0  0  0  0  0
    2.4042    0.4252   -0.0048 C   0  0  0  0  0  0  0  0  0  0  0  0
   -3.5674    1.1428   -0.0023 O   0  0  0  0  0  0  0  0  0  0  0  0
    3.4707    1.0290   -0.0077 O   0  0  0  0  0  0  0  0  0  0  0  0
   -1.2944   -2.7999   -0.0045 H   0  0  0  0  0  0  0  0  0  0  0  0
    1.2422   -2.8306    0.0035 H   0  0  0  0  0  0  0  0  0  0  0  0
   -1.1925    2.1732   -0.0043 H   0  0  0  0  0  0  0  0  0  0  0  0
   -3.4002   -1.5266   -0.0050 H   0  0  0  0  0  0  0  0  0  0  0  0
    3.3445   -1.5350    0.0021 H   0  0  0  0  0  0  0  0  0  0  0  0
   -4.3309    0.5424    0.0046 H   0  0  0  0  0  0  0  0  0  0  0  0
  1  2  1  0  0  0  0
  1  3  2  0  0  0  0
  1  4  1  0  0  0  0
  2  5  2  0  0  0  0
  2  6  1  0  0  0  0
  3  7  1  0  0  0  0
  3 13  1  0  0  0  0
  4  8  2  0  0  0  0
  4 14  1  0  0  0  0
  5  9  1  0  0  0  0
  5 15  1  0  0  0  0
  6 10  1  0  0  0  0
  7  9  2  0  0  0  0
  7 16  1  0  0  0  0
  8 10  1  0  0  0  0
  8 17  1  0  0  0  0
  9 11  1  0  0  0  0
 10 12  2  0  0  0  0
 11 18  1  0  0  0  0
M  END
>  <Mol_ID>
1674

>  <Formula>
C9H6O3

>  <MolWeight>
162.14214

>  <Cat>
S3675

>  <Name>
Umbelliferone

>  <Synonyms>
7-hydroxycoumarin, hydrangine, skimmetine, beta-umbelliferone

>  <Target>
Immunology & Inflammation related

>  <Form>
free base

>  <CAS>
93-35-6

>  <URL>
http://selleckchem.com/products/umbelliferone.html

$$$$
