S3680 NLRP3 Inflammasome Inhibitor I.cdx
 OpenBabel08302519503D

 41 42  0  0  0  0  0  0  0  0999 V2000
    1.5601   -0.4037    0.2413 C   0  0  0  0  0  0  0  0  0  0  0  0
    0.6746   -1.4723    0.4847 C   0  0  0  0  0  0  0  0  0  0  0  0
    3.0514   -0.4990    0.1284 C   0  0  0  0  0  0  0  0  0  0  0  0
    1.0176    0.8752   -0.0305 C   0  0  0  0  0  0  0  0  0  0  0  0
   -0.7137   -1.2185    0.4523 C   0  0  0  0  0  0  0  0  0  0  0  0
    0.8737   -2.7911    0.7720 O   0  0  0  0  0  0  0  0  0  0  0  0
    3.7931    0.5448    0.6653 N   0  0  0  0  0  0  0  0  0  0  0  0
    3.5889   -1.4294   -0.4591 O   0  0  0  0  0  0  0  0  0  0  0  0
   -0.3682    1.1003   -0.0448 C   0  0  0  0  0  0  0  0  0  0  0  0
   -1.2343    0.0473    0.1897 C   0  0  0  0  0  0  0  0  0  0  0  0
    5.2533    0.5553    0.6157 C   0  0  0  0  0  0  0  0  0  0  0  0
    5.8048    1.0829   -0.7142 C   0  0  0  0  0  0  0  0  0  0  0  0
    7.3145    1.0094   -0.8110 C   0  0  0  0  0  0  0  0  0  0  0  0
    7.9212   -0.1444   -1.3261 C   0  0  0  0  0  0  0  0  0  0  0  0
    8.1292    2.0818   -0.4110 C   0  0  0  0  0  0  0  0  0  0  0  0
    9.3058   -0.2163   -1.4807 C   0  0  0  0  0  0  0  0  0  0  0  0
    9.5208    2.0172   -0.5618 C   0  0  0  0  0  0  0  0  0  0  0  0
   10.0994    0.8746   -1.1186 C   0  0  0  0  0  0  0  0  0  0  0  0
   11.8519    0.7684   -1.3411 S   0  0  0  0  0  0  0  0  0  0  0  0
   12.0420    1.3549   -2.9049 N   0  0  0  0  0  0  0  0  0  0  0  0
   12.5043    1.7228   -0.4750 O   0  0  0  0  0  0  0  0  0  0  0  0
   12.2439   -0.6203   -1.3942 O   0  0  0  0  0  0  0  0  0  0  0  0
    2.1589   -3.3338    0.9899 C   0  0  0  0  0  0  0  0  0  0  0  0
    1.6609    1.7142   -0.2713 H   0  0  0  0  0  0  0  0  0  0  0  0
   -1.4083   -2.0405    0.6279 H   0  0  0  0  0  0  0  0  0  0  0  0
    3.3266    1.3073    1.1380 H   0  0  0  0  0  0  0  0  0  0  0  0
   -0.7594    2.0881   -0.2700 H   0  0  0  0  0  0  0  0  0  0  0  0
   -2.3108    0.1974    0.1576 H   0  0  0  0  0  0  0  0  0  0  0  0
    5.5980    1.1840    1.4441 H   0  0  0  0  0  0  0  0  0  0  0  0
    5.6116   -0.4635    0.8009 H   0  0  0  0  0  0  0  0  0  0  0  0
    5.3724    0.5204   -1.5518 H   0  0  0  0  0  0  0  0  0  0  0  0
    5.4827    2.1207   -0.8694 H   0  0  0  0  0  0  0  0  0  0  0  0
    7.3084   -0.9976   -1.6272 H   0  0  0  0  0  0  0  0  0  0  0  0
    7.6859    2.9844    0.0058 H   0  0  0  0  0  0  0  0  0  0  0  0
    9.7547   -1.1183   -1.8920 H   0  0  0  0  0  0  0  0  0  0  0  0
   10.1395    2.8593   -0.2569 H   0  0  0  0  0  0  0  0  0  0  0  0
   12.7546    2.0864   -2.9092 H   0  0  0  0  0  0  0  0  0  0  0  0
   12.2386    0.5880   -3.5479 H   0  0  0  0  0  0  0  0  0  0  0  0
    2.6905   -3.4589    0.0459 H   0  0  0  0  0  0  0  0  0  0  0  0
    2.7243   -2.7676    1.7341 H   0  0  0  0  0  0  0  0  0  0  0  0
    2.0153   -4.3446    1.3890 H   0  0  0  0  0  0  0  0  0  0  0  0
  1  2  2  0  0  0  0
  1  3  1  0  0  0  0
  1  4  1  0  0  0  0
  2  5  1  0  0  0  0
  2  6  1  0  0  0  0
  3  7  1  0  0  0  0
  3  8  2  0  0  0  0
  4  9  2  0  0  0  0
  4 24  1  0  0  0  0
  5 10  2  0  0  0  0
  5 25  1  0  0  0  0
  6 23  1  0  0  0  0
  7 11  1  0  0  0  0
  7 26  1  0  0  0  0
  9 10  1  0  0  0  0
  9 27  1  0  0  0  0
 10 28  1  0  0  0  0
 11 12  1  0  0  0  0
 11 29  1  0  0  0  0
 11 30  1  0  0  0  0
 12 13  1  0  0  0  0
 12 31  1  0  0  0  0
 12 32  1  0  0  0  0
 13 14  2  0  0  0  0
 13 15  1  0  0  0  0
 14 16  1  0  0  0  0
 14 33  1  0  0  0  0
 15 17  2  0  0  0  0
 15 34  1  0  0  0  0
 16 18  2  0  0  0  0
 16 35  1  0  0  0  0
 17 18  1  0  0  0  0
 17 36  1  0  0  0  0
 18 19  1  0  0  0  0
 19 20  1  0  0  0  0
 19 21  2  0  0  0  0
 19 22  2  0  0  0  0
 20 37  1  0  0  0  0
 20 38  1  0  0  0  0
 23 39  1  0  0  0  0
 23 40  1  0  0  0  0
 23 41  1  0  0  0  0
M  END
>  <Mol_ID>
1736

>  <Formula>
C16H17ClN2O4S

>  <MolWeight>
368.83518

>  <Cat>
S3680

>  <Name>
NLRP3 Inflammasome Inhibitor I

>  <Synonyms>
N/A

>  <Target>
NLRP3

>  <Form>
free base

>  <CAS>
16673-34-0

>  <URL>
http://selleckchem.com/products/nlrp3-Inflammasome-inhibitor-i.html

$$$$
