S3686 Thioisonicotinamide.cdx
 OpenBabel08302519503D

 15 15  0  0  0  0  0  0  0  0999 V2000
    1.4662    0.0360    0.0003 C   0  0  0  0  0  0  0  0  0  0  0  0
    0.7175    1.2172   -0.0006 C   0  0  0  0  0  0  0  0  0  0  0  0
    0.7915   -1.1868    0.0071 C   0  0  0  0  0  0  0  0  0  0  0  0
    2.9562    0.0910   -0.0264 C   0  0  0  0  0  0  0  0  0  0  0  0
   -0.6644    1.1190    0.0112 C   0  0  0  0  0  0  0  0  0  0  0  0
   -0.5925   -1.1783    0.0165 C   0  0  0  0  0  0  0  0  0  0  0  0
    3.5531    1.1783    0.5593 N   0  0  0  0  0  0  0  0  0  0  0  0
    3.9585   -1.0635   -0.7075 S   0  0  0  0  0  0  0  0  0  0  0  0
   -1.3333   -0.0509    0.0230 N   0  0  0  0  0  0  0  0  0  0  0  0
    1.1806    2.1953   -0.0392 H   0  0  0  0  0  0  0  0  0  0  0  0
    1.3156   -2.1370    0.0096 H   0  0  0  0  0  0  0  0  0  0  0  0
   -1.2889    2.0082    0.0033 H   0  0  0  0  0  0  0  0  0  0  0  0
   -1.1576   -2.1048    0.0177 H   0  0  0  0  0  0  0  0  0  0  0  0
    4.5662    1.2110    0.5856 H   0  0  0  0  0  0  0  0  0  0  0  0
    3.0590    1.8810    1.0924 H   0  0  0  0  0  0  0  0  0  0  0  0
  1  2  2  0  0  0  0
  1  3  1  0  0  0  0
  1  4  1  0  0  0  0
  2  5  1  0  0  0  0
  2 10  1  0  0  0  0
  3  6  2  0  0  0  0
  3 11  1  0  0  0  0
  4  7  1  0  0  0  0
  4  8  2  0  0  0  0
  5  9  2  0  0  0  0
  5 12  1  0  0  0  0
  6  9  1  0  0  0  0
  6 13  1  0  0  0  0
  7 14  1  0  0  0  0
  7 15  1  0  0  0  0
M  END
>  <Mol_ID>
1752

>  <Formula>
C6H6N2S

>  <MolWeight>
138.19024

>  <Cat>
S3686

>  <Name>
Thioisonicotinamide

>  <Synonyms>
Pyridine-4-carbothioamide, Isothionicotinamide, 4-Pyridylthiocarboxamide

>  <Target>
Others

>  <Form>
free base

>  <CAS>
2196-13-6

>  <URL>
http://selleckchem.com/products/thioisonicotinamide.html

$$$$
