S3684 Methacholine chloride.cdx
 OpenBabel08302519503D

 29 28  0  0  0  0  0  0  0  0999 V2000
    0.7300   -0.1401    0.0726 C   0  0  0  0  0  0  0  0  0  0  0  0
    0.3853    1.1159    0.9103 N   0  3  0  0  0  0  0  0  0  0  0  0
    0.4576   -0.1166   -1.4540 C   0  0  3  0  0  0  0  0  0  0  0  0
    1.1392    2.3407    0.4064 C   0  0  0  0  0  0  0  0  0  0  0  0
   -1.1068    1.4090    0.9689 C   0  0  0  0  0  0  0  0  0  0  0  0
    0.8492    0.8355    2.3508 C   0  0  0  0  0  0  0  0  0  0  0  0
    0.8454   -1.3999   -2.0198 O   0  0  0  0  0  0  0  0  0  0  0  0
   -1.0047    0.0297   -1.8530 C   0  0  0  0  0  0  0  0  0  0  0  0
    2.1743   -1.5892   -2.2435 C   0  0  0  0  0  0  0  0  0  0  0  0
    2.4114   -2.8759   -2.9768 C   0  0  0  0  0  0  0  0  0  0  0  0
    3.0376   -0.7925   -1.9118 O   0  0  0  0  0  0  0  0  0  0  0  0
    0.1978   -0.9826    0.5321 H   0  0  0  0  0  0  0  0  0  0  0  0
    1.7975   -0.3241    0.2451 H   0  0  0  0  0  0  0  0  0  0  0  0
    1.0347    0.6747   -1.9467 H   0  0  0  0  0  0  0  0  0  0  0  0
    0.8031    2.5683   -0.6080 H   0  0  0  0  0  0  0  0  0  0  0  0
    0.9115    3.1800    1.0716 H   0  0  0  0  0  0  0  0  0  0  0  0
    2.2106    2.1217    0.4217 H   0  0  0  0  0  0  0  0  0  0  0  0
   -1.6451    0.4658    1.0910 H   0  0  0  0  0  0  0  0  0  0  0  0
   -1.3018    2.0685    1.8208 H   0  0  0  0  0  0  0  0  0  0  0  0
   -1.4060    1.9313    0.0605 H   0  0  0  0  0  0  0  0  0  0  0  0
    0.3117   -0.0445    2.7169 H   0  0  0  0  0  0  0  0  0  0  0  0
    1.9281    0.6558    2.3420 H   0  0  0  0  0  0  0  0  0  0  0  0
    0.6163    1.7086    2.9685 H   0  0  0  0  0  0  0  0  0  0  0  0
   -1.3503    1.0610   -1.7780 H   0  0  0  0  0  0  0  0  0  0  0  0
   -1.1523   -0.2809   -2.8940 H   0  0  0  0  0  0  0  0  0  0  0  0
   -1.6454   -0.6158   -1.2425 H   0  0  0  0  0  0  0  0  0  0  0  0
    2.4668   -2.6832   -4.0507 H   0  0  0  0  0  0  0  0  0  0  0  0
    3.3429   -3.3250   -2.6242 H   0  0  0  0  0  0  0  0  0  0  0  0
    1.6034   -3.5850   -2.7739 H   0  0  0  0  0  0  0  0  0  0  0  0
  1  2  1  0  0  0  0
  1  3  1  0  0  0  0
  1 12  1  0  0  0  0
  1 13  1  0  0  0  0
  2  4  1  0  0  0  0
  2  5  1  0  0  0  0
  2  6  1  0  0  0  0
  3  7  1  0  0  0  0
  3  8  1  0  0  0  0
  3 14  1  0  0  0  0
  4 15  1  0  0  0  0
  4 16  1  0  0  0  0
  4 17  1  0  0  0  0
  5 18  1  0  0  0  0
  5 19  1  0  0  0  0
  5 20  1  0  0  0  0
  6 21  1  0  0  0  0
  6 22  1  0  0  0  0
  6 23  1  0  0  0  0
  7  9  1  0  0  0  0
  8 24  1  0  0  0  0
  8 25  1  0  0  0  0
  8 26  1  0  0  0  0
  9 10  1  0  0  0  0
  9 11  2  0  0  0  0
 10 27  1  0  0  0  0
 10 28  1  0  0  0  0
 10 29  1  0  0  0  0
M  CHG  1   2   1
M  END
>  <Mol_ID>
1669

>  <Formula>
C8H18ClNO2

>  <MolWeight>
195.68702

>  <Cat>
S3684

>  <Name>
Methacholine chloride

>  <Synonyms>
Mecholyl chloride, Acetyl-¦Â-methylcholine chloride

>  <Target>
AChR

>  <Form>
chloride

>  <CAS>
62-51-1

>  <URL>
http://selleckchem.com/products/methacholine-chloride.html

$$$$
