S3688 2,4-Diamino-6-hydroxypyrimidine.cdx
 OpenBabel08302519503D

 15 15  0  0  0  0  0  0  0  0999 V2000
   -0.6939    1.1637   -0.0695 C   0  0  0  0  0  0  0  0  0  0  0  0
   -1.4078   -0.0088   -0.0889 C   0  0  0  0  0  0  0  0  0  0  0  0
    0.6390    1.2008    0.0342 N   0  0  0  0  0  0  0  0  0  0  0  0
   -1.3463    2.3896   -0.2134 N   0  0  0  0  0  0  0  0  0  0  0  0
   -0.6568   -1.1498    0.0221 C   0  0  0  0  0  0  0  0  0  0  0  0
    1.2676    0.0273    0.1544 C   0  0  0  0  0  0  0  0  0  0  0  0
    0.6733   -1.1634    0.1418 N   0  0  0  0  0  0  0  0  0  0  0  0
   -1.2408   -2.3838    0.0098 O   0  0  0  0  0  0  0  0  0  0  0  0
    2.6457    0.0479    0.2490 N   0  0  0  0  0  0  0  0  0  0  0  0
   -2.4809   -0.0176   -0.2008 H   0  0  0  0  0  0  0  0  0  0  0  0
   -0.6405    3.1183   -0.1269 H   0  0  0  0  0  0  0  0  0  0  0  0
   -2.0881    2.5095    0.4659 H   0  0  0  0  0  0  0  0  0  0  0  0
   -2.1986   -2.2706   -0.0698 H   0  0  0  0  0  0  0  0  0  0  0  0
    3.0022    0.8847   -0.1893 H   0  0  0  0  0  0  0  0  0  0  0  0
    3.0101   -0.8374   -0.0781 H   0  0  0  0  0  0  0  0  0  0  0  0
  1  2  2  0  0  0  0
  1  3  1  0  0  0  0
  1  4  1  0  0  0  0
  2  5  1  0  0  0  0
  2 10  1  0  0  0  0
  3  6  2  0  0  0  0
  4 11  1  0  0  0  0
  4 12  1  0  0  0  0
  5  7  2  0  0  0  0
  5  8  1  0  0  0  0
  6  9  1  0  0  0  0
  6  7  1  0  0  0  0
  8 13  1  0  0  0  0
  9 14  1  0  0  0  0
  9 15  1  0  0  0  0
M  END
>  <Mol_ID>
1687

>  <Formula>
C4H6N4O

>  <MolWeight>
126.11664

>  <Cat>
S3688

>  <Name>
2,4-Diamino-6-hydroxypyrimidine

>  <Synonyms>
DAHP

>  <Target>
GTPCH

>  <Form>
free base

>  <CAS>
56-06-4

>  <URL>
http://selleckchem.com/products/2-4-diamino-6-hydroxypyrimidine.html

$$$$
