S3687 Urea.cdx
 OpenBabel08302519503D

  8  7  0  0  0  0  0  0  0  0999 V2000
    0.9327   -0.0414    0.0480 C   0  0  0  0  0  0  0  0  0  0  0  0
    0.2024   -0.5024   -0.9840 N   0  0  0  0  0  0  0  0  0  0  0  0
    0.2024    0.4196    1.0800 N   0  0  0  0  0  0  0  0  0  0  0  0
    2.1534   -0.0414    0.0480 O   0  0  0  0  0  0  0  0  0  0  0  0
   -0.8032   -0.5063   -0.9926 H   0  0  0  0  0  0  0  0  0  0  0  0
    0.7063   -0.8597   -1.7838 H   0  0  0  0  0  0  0  0  0  0  0  0
    0.7063    0.7769    1.8799 H   0  0  0  0  0  0  0  0  0  0  0  0
   -0.8032    0.4235    1.0887 H   0  0  0  0  0  0  0  0  0  0  0  0
  1  2  1  0  0  0  0
  1  3  1  0  0  0  0
  1  4  2  0  0  0  0
  2  5  1  0  0  0  0
  2  6  1  0  0  0  0
  3  7  1  0  0  0  0
  3  8  1  0  0  0  0
M  END
>  <Mol_ID>
1651

>  <Formula>
CH4N2O

>  <MolWeight>
60.05526

>  <Cat>
S3687

>  <Name>
Urea

>  <Synonyms>
Carbonyldiamide, Ureophil

>  <Target>
Others

>  <Form>
free base

>  <CAS>
57-13-6

>  <URL>
http://selleckchem.com/products/urea.html

$$$$
