S3696 PTP Inhibitor I.cdx
 OpenBabel08302519503D

 18 18  0  0  0  0  0  0  0  0999 V2000
   -1.8868    0.0821   -0.0095 C   0  0  0  0  0  0  0  0  0  0  0  0
   -1.2291   -1.1578   -0.0362 C   0  0  0  0  0  0  0  0  0  0  0  0
   -1.1326    1.2602    0.0286 C   0  0  0  0  0  0  0  0  0  0  0  0
   -3.3791    0.0834   -0.0364 C   0  0  0  0  0  0  0  0  0  0  0  0
    0.1659   -1.2205   -0.0125 C   0  0  0  0  0  0  0  0  0  0  0  0
    0.2631    1.1953    0.0416 C   0  0  0  0  0  0  0  0  0  0  0  0
   -4.1278    1.2343    0.5796 C   0  0  0  0  0  0  0  0  0  0  0  0
   -3.9673   -0.8848   -0.5204 O   0  0  0  0  0  0  0  0  0  0  0  0
    0.9000   -0.0407    0.0243 C   0  0  0  0  0  0  0  0  0  0  0  0
   -4.5295    2.5194   -0.8118 Br  0  0  0  0  0  0  0  0  0  0  0  0
    2.2625   -0.0517    0.0401 O   0  0  0  0  0  0  0  0  0  0  0  0
   -1.8046   -2.0812   -0.0728 H   0  0  0  0  0  0  0  0  0  0  0  0
   -1.5982    2.2421    0.0233 H   0  0  0  0  0  0  0  0  0  0  0  0
    0.6539   -2.1903   -0.0272 H   0  0  0  0  0  0  0  0  0  0  0  0
    0.8545    2.1075    0.0552 H   0  0  0  0  0  0  0  0  0  0  0  0
   -5.0785    0.8786    0.9875 H   0  0  0  0  0  0  0  0  0  0  0  0
   -3.5659    1.7242    1.3772 H   0  0  0  0  0  0  0  0  0  0  0  0
    2.5692   -0.9725   -0.0054 H   0  0  0  0  0  0  0  0  0  0  0  0
  1  2  2  0  0  0  0
  1  3  1  0  0  0  0
  1  4  1  0  0  0  0
  2  5  1  0  0  0  0
  2 12  1  0  0  0  0
  3  6  2  0  0  0  0
  3 13  1  0  0  0  0
  4  7  1  0  0  0  0
  4  8  2  0  0  0  0
  5  9  2  0  0  0  0
  5 14  1  0  0  0  0
  6  9  1  0  0  0  0
  6 15  1  0  0  0  0
  7 10  1  0  0  0  0
  7 16  1  0  0  0  0
  7 17  1  0  0  0  0
  9 11  1  0  0  0  0
 11 18  1  0  0  0  0
M  END
>  <Mol_ID>
1646

>  <Formula>
C8H7BrO2

>  <MolWeight>
215.04398

>  <Cat>
S3696

>  <Name>
PTP Inhibitor I

>  <Synonyms>
¦Á-Bromo-4-hydroxyacetophenone, 2-Bromo-4'-hydroxyacetophenone, 4-Hydroxyphenacyl bromide, SHP-1 Inhibitor II

>  <Target>
phosphatase

>  <Form>
free base

>  <CAS>
2491-38-5

>  <URL>
http://selleckchem.com/products/ptp-inhibitor-i.html

$$$$
