S3693 2,6-Dihydroxypurine.cdx
 OpenBabel08302519503D

 15 16  0  0  0  0  0  0  0  0999 V2000
   -0.5751    0.9029   -0.0115 C   0  0  0  0  0  0  0  0  0  0  0  0
   -0.7985   -0.4406    0.0045 C   0  0  0  0  0  0  0  0  0  0  0  0
    0.6921    1.3977   -0.0262 N   0  0  0  0  0  0  0  0  0  0  0  0
   -1.7244    1.6176   -0.0035 N   0  0  0  0  0  0  0  0  0  0  0  0
    0.2497   -1.3982    0.0045 C   0  0  0  0  0  0  0  0  0  0  0  0
   -2.1543   -0.5749    0.0247 N   0  0  0  0  0  0  0  0  0  0  0  0
    1.7693    0.5468   -0.0182 C   0  0  0  0  0  0  0  0  0  0  0  0
   -2.6715    0.6982    0.0212 C   0  0  0  0  0  0  0  0  0  0  0  0
    1.4989   -0.8089   -0.0090 N   0  0  0  0  0  0  0  0  0  0  0  0
    0.0833   -2.6114    0.0180 O   0  0  0  0  0  0  0  0  0  0  0  0
    2.9256    0.9613   -0.0171 O   0  0  0  0  0  0  0  0  0  0  0  0
    0.8314    2.3973   -0.0320 H   0  0  0  0  0  0  0  0  0  0  0  0
   -2.6742   -1.4432    0.0449 H   0  0  0  0  0  0  0  0  0  0  0  0
   -3.7374    0.8873    0.0392 H   0  0  0  0  0  0  0  0  0  0  0  0
    2.2962   -1.4254   -0.0031 H   0  0  0  0  0  0  0  0  0  0  0  0
  1  2  2  0  0  0  0
  1  3  1  0  0  0  0
  1  4  1  0  0  0  0
  2  5  1  0  0  0  0
  2  6  1  0  0  0  0
  3  7  1  0  0  0  0
  3 12  1  0  0  0  0
  4  8  2  0  0  0  0
  5  9  1  0  0  0  0
  5 10  2  0  0  0  0
  6  8  1  0  0  0  0
  6 13  1  0  0  0  0
  7 11  2  0  0  0  0
  7  9  1  0  0  0  0
  8 14  1  0  0  0  0
  9 15  1  0  0  0  0
M  END
>  <Mol_ID>
1686

>  <Formula>
C5H4N4O2

>  <MolWeight>
152.11086

>  <Cat>
S3693

>  <Name>
2,6-Dihydroxypurine

>  <Synonyms>
Xanthine, Isoxanthine

>  <Target>
Others

>  <Form>
free base

>  <CAS>
69-89-6

>  <URL>
http://selleckchem.com/products/2-6-dihydroxypurine.html

$$$$
