S3690 Pargyline (hydrochloride).cdx
 OpenBabel08302519503D

 25 25  0  0  0  0  0  0  0  0999 V2000
    1.3358   -0.2493    0.1214 C   0  0  0  0  0  0  0  0  0  0  0  0
    2.8309   -0.4650    0.2037 C   0  0  0  0  0  0  0  0  0  0  0  0
    0.5955   -0.7876   -0.9405 C   0  0  0  0  0  0  0  0  0  0  0  0
    0.6782    0.5189    1.0940 C   0  0  0  0  0  0  0  0  0  0  0  0
    3.5582    0.0526   -0.9649 N   0  0  0  0  0  0  0  0  0  0  0  0
   -0.7776   -0.5701   -1.0227 C   0  0  0  0  0  0  0  0  0  0  0  0
   -0.6978    0.7231    1.0182 C   0  0  0  0  0  0  0  0  0  0  0  0
    3.3488    1.5040   -1.0885 C   0  0  0  0  0  0  0  0  0  0  0  0
    4.9813   -0.2841   -0.8411 C   0  0  0  0  0  0  0  0  0  0  0  0
   -1.4289    0.1744   -0.0369 C   0  0  0  0  0  0  0  0  0  0  0  0
    4.1065    2.0414   -2.2916 C   0  0  0  0  0  0  0  0  0  0  0  0
    4.7564    2.5024   -3.3237 C   0  0  0  0  0  0  0  0  0  0  0  0
    3.2256   -0.0169    1.1258 H   0  0  0  0  0  0  0  0  0  0  0  0
    2.9933   -1.5509    0.2905 H   0  0  0  0  0  0  0  0  0  0  0  0
    1.0989   -1.3544   -1.7199 H   0  0  0  0  0  0  0  0  0  0  0  0
    1.2355    0.9704    1.9124 H   0  0  0  0  0  0  0  0  0  0  0  0
   -1.3443   -0.9805   -1.8557 H   0  0  0  0  0  0  0  0  0  0  0  0
   -1.2039    1.3096    1.7788 H   0  0  0  0  0  0  0  0  0  0  0  0
    2.2942    1.7506   -1.2517 H   0  0  0  0  0  0  0  0  0  0  0  0
    3.6894    2.0367   -0.1917 H   0  0  0  0  0  0  0  0  0  0  0  0
    5.4376    0.1639    0.0475 H   0  0  0  0  0  0  0  0  0  0  0  0
    5.1111   -1.3723   -0.7877 H   0  0  0  0  0  0  0  0  0  0  0  0
    5.5599    0.0328   -1.7207 H   0  0  0  0  0  0  0  0  0  0  0  0
   -2.4989    0.3368   -0.0983 H   0  0  0  0  0  0  0  0  0  0  0  0
    5.2847    2.8744   -4.1706 H   0  0  0  0  0  0  0  0  0  0  0  0
  1  2  1  0  0  0  0
  1  3  2  0  0  0  0
  1  4  1  0  0  0  0
  2  5  1  0  0  0  0
  2 13  1  0  0  0  0
  2 14  1  0  0  0  0
  3  6  1  0  0  0  0
  3 15  1  0  0  0  0
  4  7  2  0  0  0  0
  4 16  1  0  0  0  0
  5  8  1  0  0  0  0
  5  9  1  0  0  0  0
  6 10  2  0  0  0  0
  6 17  1  0  0  0  0
  7 10  1  0  0  0  0
  7 18  1  0  0  0  0
  8 11  1  0  0  0  0
  8 19  1  0  0  0  0
  8 20  1  0  0  0  0
  9 21  1  0  0  0  0
  9 22  1  0  0  0  0
  9 23  1  0  0  0  0
 10 24  1  0  0  0  0
 11 12  3  0  0  0  0
 12 25  1  0  0  0  0
M  END
>  <Mol_ID>
1685

>  <Formula>
C11H14ClN

>  <MolWeight>
195.68856

>  <Cat>
S3690

>  <Name>
Pargyline hydrochloride

>  <Synonyms>
Pargylamine hydrochloride

>  <Target>
MAO

>  <Form>
hydrochloride

>  <CAS>
306-07-0

>  <URL>
http://selleckchem.com/products/pargyline-hydrochloride.html

$$$$
