S3695 Cystamine dihydrochloride.cdx
 OpenBabel08302519503D

 20 19  0  0  0  0  0  0  0  0999 V2000
    0.9516   -0.2133    0.1790 S   0  0  0  0  0  0  0  0  0  0  0  0
    0.5095    1.3148    1.4833 S   0  0  0  0  0  0  0  0  0  0  0  0
    2.7625   -0.0442   -0.0060 C   0  0  0  0  0  0  0  0  0  0  0  0
    0.7846    2.8344    0.4930 C   0  0  0  0  0  0  0  0  0  0  0  0
    3.3378   -1.1094   -0.9475 C   0  0  0  0  0  0  0  0  0  0  0  0
    0.0296    2.9097   -0.8391 C   0  0  0  0  0  0  0  0  0  0  0  0
    2.7718   -1.0514   -2.2973 N   0  0  0  0  0  0  0  0  0  0  0  0
   -1.4234    2.9041   -0.6748 N   0  0  0  0  0  0  0  0  0  0  0  0
    2.9852    0.9493   -0.4090 H   0  0  0  0  0  0  0  0  0  0  0  0
    3.2346   -0.1357    0.9773 H   0  0  0  0  0  0  0  0  0  0  0  0
    0.5012    3.6829    1.1258 H   0  0  0  0  0  0  0  0  0  0  0  0
    1.8610    2.9285    0.3139 H   0  0  0  0  0  0  0  0  0  0  0  0
    4.4202   -0.9585   -1.0253 H   0  0  0  0  0  0  0  0  0  0  0  0
    3.1805   -2.1093   -0.5277 H   0  0  0  0  0  0  0  0  0  0  0  0
    0.3123    3.8406   -1.3432 H   0  0  0  0  0  0  0  0  0  0  0  0
    0.3280    2.0952   -1.5069 H   0  0  0  0  0  0  0  0  0  0  0  0
    3.1132   -1.8441   -2.8401 H   0  0  0  0  0  0  0  0  0  0  0  0
    1.7590   -1.1733   -2.2300 H   0  0  0  0  0  0  0  0  0  0  0  0
   -1.8644    2.8187   -1.5889 H   0  0  0  0  0  0  0  0  0  0  0  0
   -1.6899    2.0669   -0.1519 H   0  0  0  0  0  0  0  0  0  0  0  0
  1  2  1  0  0  0  0
  1  3  1  0  0  0  0
  2  4  1  0  0  0  0
  3  5  1  0  0  0  0
  3  9  1  0  0  0  0
  3 10  1  0  0  0  0
  4  6  1  0  0  0  0
  4 11  1  0  0  0  0
  4 12  1  0  0  0  0
  5  7  1  0  0  0  0
  5 13  1  0  0  0  0
  5 14  1  0  0  0  0
  6  8  1  0  0  0  0
  6 15  1  0  0  0  0
  6 16  1  0  0  0  0
  7 17  1  0  0  0  0
  7 18  1  0  0  0  0
  8 19  1  0  0  0  0
  8 20  1  0  0  0  0
M  END
>  <Mol_ID>
1711

>  <Formula>
C4H14Cl2N2S2

>  <MolWeight>
225.20336

>  <Cat>
S3695

>  <Name>
Cystamine dihydrochloride

>  <Synonyms>
Decarboxycystine dihydrochloride, 2-Aminoethyl disulfide dihydrochloride, 2,2'-Dithiobisethanamine dihydrochloride

>  <Target>
Anti-infection

>  <Form>
dihydrochloride

>  <CAS>
56-17-7

>  <URL>
http://selleckchem.com/products/cystamine-dihydrochloride.html

$$$$
