S3692 N-Ethylmaleimide.cdx
 OpenBabel08302519503D

 16 16  0  0  0  0  0  0  0  0999 V2000
    0.0076    0.8795    0.0107 N   0  0  0  0  0  0  0  0  0  0  0  0
   -1.1141    0.1180    0.0230 C   0  0  0  0  0  0  0  0  0  0  0  0
    1.1110    0.0933   -0.0543 C   0  0  0  0  0  0  0  0  0  0  0  0
    0.0214    2.3278   -0.0165 C   0  0  0  0  0  0  0  0  0  0  0  0
   -0.6834   -1.2840    0.0127 C   0  0  0  0  0  0  0  0  0  0  0  0
   -2.2795    0.4679    0.0322 O   0  0  0  0  0  0  0  0  0  0  0  0
    0.6487   -1.2992   -0.0320 C   0  0  0  0  0  0  0  0  0  0  0  0
    2.2819    0.4163   -0.1291 O   0  0  0  0  0  0  0  0  0  0  0  0
    0.0371    2.8671   -1.4379 C   0  0  0  0  0  0  0  0  0  0  0  0
   -0.8682    2.6980    0.5047 H   0  0  0  0  0  0  0  0  0  0  0  0
    0.9098    2.6797    0.5185 H   0  0  0  0  0  0  0  0  0  0  0  0
   -1.3668   -2.1149    0.0341 H   0  0  0  0  0  0  0  0  0  0  0  0
    1.3122   -2.1455   -0.0554 H   0  0  0  0  0  0  0  0  0  0  0  0
   -0.8683    2.5736   -1.9792 H   0  0  0  0  0  0  0  0  0  0  0  0
    0.0904    3.9602   -1.4284 H   0  0  0  0  0  0  0  0  0  0  0  0
    0.8985    2.4867   -1.9965 H   0  0  0  0  0  0  0  0  0  0  0  0
  1  2  1  0  0  0  0
  1  3  1  0  0  0  0
  1  4  1  0  0  0  0
  2  5  1  0  0  0  0
  2  6  2  0  0  0  0
  3  7  1  0  0  0  0
  3  8  2  0  0  0  0
  4  9  1  0  0  0  0
  4 10  1  0  0  0  0
  4 11  1  0  0  0  0
  5  7  2  0  0  0  0
  5 12  1  0  0  0  0
  7 13  1  0  0  0  0
  9 14  1  0  0  0  0
  9 15  1  0  0  0  0
  9 16  1  0  0  0  0
M  END
>  <Mol_ID>
1645

>  <Formula>
C6H7NO2

>  <MolWeight>
125.12528

>  <Cat>
S3692

>  <Name>
N-Ethylmaleimide (NEM)

>  <Synonyms>
N/A

>  <Target>
Cysteine Protease,DUB

>  <Form>
free base

>  <CAS>
128-53-0

>  <URL>
http://selleckchem.com/products/n-ethylmaleimide-nem.html

$$$$
