S3697 Mafenide hydrochloride.cdx
 OpenBabel08302519503D

 22 22  0  0  0  0  0  0  0  0999 V2000
    1.4001   -0.2453    0.0927 C   0  0  0  0  0  0  0  0  0  0  0  0
    0.5042   -1.3184    0.0396 C   0  0  0  0  0  0  0  0  0  0  0  0
    0.9344    1.0698    0.0721 C   0  0  0  0  0  0  0  0  0  0  0  0
    3.1259   -0.5819    0.2577 S   0  0  0  0  0  0  0  0  0  0  0  0
   -0.8659   -1.0753   -0.0518 C   0  0  0  0  0  0  0  0  0  0  0  0
   -0.4399    1.3069   -0.0218 C   0  0  0  0  0  0  0  0  0  0  0  0
    3.6180   -0.6716   -1.3452 N   0  0  0  0  0  0  0  0  0  0  0  0
    3.7896    0.5656    0.8261 O   0  0  0  0  0  0  0  0  0  0  0  0
    3.3035   -1.9161    0.7926 O   0  0  0  0  0  0  0  0  0  0  0  0
   -1.3535    0.2397   -0.0828 C   0  0  0  0  0  0  0  0  0  0  0  0
   -2.8352    0.5016   -0.1904 C   0  0  0  0  0  0  0  0  0  0  0  0
   -3.3352    1.2472    0.9579 N   0  0  0  0  0  0  0  0  0  0  0  0
    0.8653   -2.3446    0.0742 H   0  0  0  0  0  0  0  0  0  0  0  0
    1.6254    1.9071    0.1322 H   0  0  0  0  0  0  0  0  0  0  0  0
   -1.5513   -1.9193   -0.0947 H   0  0  0  0  0  0  0  0  0  0  0  0
   -0.8081    2.3319   -0.0336 H   0  0  0  0  0  0  0  0  0  0  0  0
    4.5007   -0.1681   -1.4505 H   0  0  0  0  0  0  0  0  0  0  0  0
    3.6645   -1.6424   -1.6511 H   0  0  0  0  0  0  0  0  0  0  0  0
   -3.0332    1.0606   -1.1116 H   0  0  0  0  0  0  0  0  0  0  0  0
   -3.3854   -0.4436   -0.2658 H   0  0  0  0  0  0  0  0  0  0  0  0
   -4.3464    1.3367    0.8828 H   0  0  0  0  0  0  0  0  0  0  0  0
   -3.1566    0.7079    1.8041 H   0  0  0  0  0  0  0  0  0  0  0  0
  1  2  2  0  0  0  0
  1  3  1  0  0  0  0
  1  4  1  0  0  0  0
  2  5  1  0  0  0  0
  2 13  1  0  0  0  0
  3  6  2  0  0  0  0
  3 14  1  0  0  0  0
  4  7  1  0  0  0  0
  4  8  2  0  0  0  0
  4  9  2  0  0  0  0
  5 10  2  0  0  0  0
  5 15  1  0  0  0  0
  6 10  1  0  0  0  0
  6 16  1  0  0  0  0
  7 17  1  0  0  0  0
  7 18  1  0  0  0  0
 10 11  1  0  0  0  0
 11 12  1  0  0  0  0
 11 19  1  0  0  0  0
 11 20  1  0  0  0  0
 12 21  1  0  0  0  0
 12 22  1  0  0  0  0
M  END
>  <Mol_ID>
1647

>  <Formula>
C7H11ClN2O2S

>  <MolWeight>
222.69244

>  <Cat>
S3697

>  <Name>
Mafenide hydrochloride

>  <Synonyms>
4-Aminomethylbenzenesulfonamide hydrochloride

>  <Target>
Carbonic Anhydrase

>  <Form>
hydrochloride

>  <CAS>
138-37-4

>  <URL>
http://selleckchem.com/products/mafenide-hydrochloride.html

$$$$
