S3706 Sarpogrelate hydrochloride.cdx
 OpenBabel08302519503D

 62 63  0  0  0  0  0  0  0  0999 V2000
    1.6083   -0.2211   -0.7014 C   0  0  0  0  0  0  0  0  0  0  0  0
    0.5398   -1.1683   -0.6157 C   0  0  0  0  0  0  0  0  0  0  0  0
    2.8321   -0.7131   -1.0973 O   0  0  0  0  0  0  0  0  0  0  0  0
    1.3407    1.1240   -0.3952 C   0  0  0  0  0  0  0  0  0  0  0  0
    0.8275   -2.6618   -0.7680 C   0  0  0  0  0  0  0  0  0  0  0  0
   -0.7497   -0.7159   -0.2902 C   0  0  0  0  0  0  0  0  0  0  0  0
    3.9864    0.1367   -1.0700 C   0  0  0  0  0  0  0  0  0  0  0  0
    0.0561    1.5381   -0.0269 C   0  0  0  0  0  0  0  0  0  0  0  0
   -0.3040   -3.7239   -0.6177 C   0  0  0  0  0  0  0  0  0  0  0  0
   -0.9886    0.6257    0.0112 C   0  0  0  0  0  0  0  0  0  0  0  0
    5.0592   -0.2689   -2.1104 C   0  0  3  0  0  0  0  0  0  0  0  0
   -1.2499   -4.0312   -1.7665 C   0  0  0  0  0  0  0  0  0  0  0  0
    5.9175   -1.4081   -1.7288 O   0  0  0  0  0  0  0  0  0  0  0  0
    4.5360   -0.3731   -3.5669 C   0  0  0  0  0  0  0  0  0  0  0  0
   -1.1913   -3.3609   -2.9910 C   0  0  0  0  0  0  0  0  0  0  0  0
   -2.2184   -5.0447   -1.6165 C   0  0  0  0  0  0  0  0  0  0  0  0
    5.5639   -2.7248   -1.6978 C   0  0  0  0  0  0  0  0  0  0  0  0
    3.9497    0.8661   -4.1470 N   0  0  0  0  0  0  0  0  0  0  0  0
   -2.0803   -3.6677   -4.0315 C   0  0  0  0  0  0  0  0  0  0  0  0
   -3.1215   -5.3434   -2.6427 C   0  0  0  0  0  0  0  0  0  0  0  0
    6.8054   -3.6001   -1.6127 C   0  0  0  0  0  0  0  0  0  0  0  0
    4.4443   -3.1938   -1.8432 O   0  0  0  0  0  0  0  0  0  0  0  0
    4.9384    1.9167   -4.4190 C   0  0  0  0  0  0  0  0  0  0  0  0
    3.2546    0.5390   -5.3980 C   0  0  0  0  0  0  0  0  0  0  0  0
   -3.0576   -4.6462   -3.8459 C   0  0  0  0  0  0  0  0  0  0  0  0
   -2.0821   -3.0698   -5.2645 O   0  0  0  0  0  0  0  0  0  0  0  0
    6.7963   -4.7741   -0.6285 C   0  0  0  0  0  0  0  0  0  0  0  0
   -0.9836   -2.2039   -5.5269 C   0  0  0  0  0  0  0  0  0  0  0  0
    6.0748   -6.0873   -0.8406 C   0  0  0  0  0  0  0  0  0  0  0  0
    4.8615   -6.0469   -1.4427 O   0  0  0  0  0  0  0  0  0  0  0  0
    6.5279   -7.1437   -0.4062 O   0  0  0  0  0  0  0  0  0  0  0  0
    2.1027    1.8932   -0.4253 H   0  0  0  0  0  0  0  0  0  0  0  0
    1.3714   -2.8313   -1.7033 H   0  0  0  0  0  0  0  0  0  0  0  0
    1.5267   -2.8806    0.0525 H   0  0  0  0  0  0  0  0  0  0  0  0
   -1.5945   -1.3991   -0.2461 H   0  0  0  0  0  0  0  0  0  0  0  0
    3.7341    1.1778   -1.2934 H   0  0  0  0  0  0  0  0  0  0  0  0
    4.4190    0.0948   -0.0625 H   0  0  0  0  0  0  0  0  0  0  0  0
   -0.1295    2.5802    0.2261 H   0  0  0  0  0  0  0  0  0  0  0  0
    0.2063   -4.6738   -0.4033 H   0  0  0  0  0  0  0  0  0  0  0  0
   -0.9103   -3.4959    0.2683 H   0  0  0  0  0  0  0  0  0  0  0  0
   -1.9896    0.9512    0.2897 H   0  0  0  0  0  0  0  0  0  0  0  0
    5.7892    0.5526   -2.0958 H   0  0  0  0  0  0  0  0  0  0  0  0
    5.3536   -0.7237   -4.2100 H   0  0  0  0  0  0  0  0  0  0  0  0
    3.7792   -1.1662   -3.5869 H   0  0  0  0  0  0  0  0  0  0  0  0
   -0.4403   -2.5934   -3.1231 H   0  0  0  0  0  0  0  0  0  0  0  0
   -2.2759   -5.6194   -0.6939 H   0  0  0  0  0  0  0  0  0  0  0  0
   -3.8710   -6.1214   -2.5069 H   0  0  0  0  0  0  0  0  0  0  0  0
    7.0735   -3.9209   -2.6251 H   0  0  0  0  0  0  0  0  0  0  0  0
    7.6176   -2.9474   -1.2674 H   0  0  0  0  0  0  0  0  0  0  0  0
    5.7009    1.6030   -5.1446 H   0  0  0  0  0  0  0  0  0  0  0  0
    4.4400    2.8067   -4.8255 H   0  0  0  0  0  0  0  0  0  0  0  0
    5.4350    2.2481   -3.5072 H   0  0  0  0  0  0  0  0  0  0  0  0
    3.9162    0.0417   -6.1152 H   0  0  0  0  0  0  0  0  0  0  0  0
    2.3991   -0.1149   -5.1948 H   0  0  0  0  0  0  0  0  0  0  0  0
    2.8551    1.4418   -5.8789 H   0  0  0  0  0  0  0  0  0  0  0  0
   -3.7600   -4.8715   -4.6452 H   0  0  0  0  0  0  0  0  0  0  0  0
    7.8468   -5.0952   -0.6140 H   0  0  0  0  0  0  0  0  0  0  0  0
    6.5530   -4.4247    0.3775 H   0  0  0  0  0  0  0  0  0  0  0  0
   -1.0165   -1.3241   -4.8754 H   0  0  0  0  0  0  0  0  0  0  0  0
   -0.0306   -2.7358   -5.4258 H   0  0  0  0  0  0  0  0  0  0  0  0
   -1.0628   -1.8566   -6.5603 H   0  0  0  0  0  0  0  0  0  0  0  0
    4.5119   -5.1559   -1.6515 H   0  0  0  0  0  0  0  0  0  0  0  0
  1  2  2  0  0  0  0
  1  3  1  0  0  0  0
  1  4  1  0  0  0  0
  2  5  1  0  0  0  0
  2  6  1  0  0  0  0
  3  7  1  0  0  0  0
  4  8  2  0  0  0  0
  4 32  1  0  0  0  0
  5  9  1  0  0  0  0
  5 33  1  0  0  0  0
  5 34  1  0  0  0  0
  6 10  2  0  0  0  0
  6 35  1  0  0  0  0
  7 11  1  0  0  0  0
  7 36  1  0  0  0  0
  7 37  1  0  0  0  0
  8 10  1  0  0  0  0
  8 38  1  0  0  0  0
  9 12  1  0  0  0  0
  9 39  1  0  0  0  0
  9 40  1  0  0  0  0
 10 41  1  0  0  0  0
 11 13  1  0  0  0  0
 11 14  1  0  0  0  0
 11 42  1  0  0  0  0
 12 15  2  0  0  0  0
 12 16  1  0  0  0  0
 13 17  1  0  0  0  0
 14 18  1  0  0  0  0
 14 43  1  0  0  0  0
 14 44  1  0  0  0  0
 15 19  1  0  0  0  0
 15 45  1  0  0  0  0
 16 20  2  0  0  0  0
 16 46  1  0  0  0  0
 17 21  1  0  0  0  0
 17 22  2  0  0  0  0
 18 23  1  0  0  0  0
 18 24  1  0  0  0  0
 19 25  2  0  0  0  0
 19 26  1  0  0  0  0
 20 25  1  0  0  0  0
 20 47  1  0  0  0  0
 21 27  1  0  0  0  0
 21 48  1  0  0  0  0
 21 49  1  0  0  0  0
 23 50  1  0  0  0  0
 23 51  1  0  0  0  0
 23 52  1  0  0  0  0
 24 53  1  0  0  0  0
 24 54  1  0  0  0  0
 24 55  1  0  0  0  0
 25 56  1  0  0  0  0
 26 28  1  0  0  0  0
 27 29  1  0  0  0  0
 27 57  1  0  0  0  0
 27 58  1  0  0  0  0
 28 59  1  0  0  0  0
 28 60  1  0  0  0  0
 28 61  1  0  0  0  0
 29 30  1  0  0  0  0
 29 31  2  0  0  0  0
 30 62  1  0  0  0  0
M  END
>  <Mol_ID>
1726

>  <Formula>
C24H32ClNO6

>  <MolWeight>
465.96698

>  <Cat>
S3706

>  <Name>
Sarpogrelate hydrochloride

>  <Synonyms>
MCI-9042

>  <Target>
5-HT Receptor

>  <Form>
hydrochloride

>  <CAS>
135159-51-2

>  <URL>
http://selleckchem.com/products/sarpogrelate-hydrochloride.html

$$$$
