S3702 Dihydrothymine.cdx
 OpenBabel08302519503D

 17 17  0  0  0  0  0  0  0  0999 V2000
    0.6880    1.2374   -0.1286 C   0  0  0  0  0  0  0  0  0  0  0  0
    1.4635   -0.0043    0.2683 C   0  0  3  0  0  0  0  0  0  0  0  0
   -0.6745    1.1463   -0.0081 N   0  0  0  0  0  0  0  0  0  0  0  0
    1.2194    2.2873   -0.4773 O   0  0  0  0  0  0  0  0  0  0  0  0
    0.6932   -1.2231   -0.2077 C   0  0  0  0  0  0  0  0  0  0  0  0
    2.8768    0.0104   -0.3023 C   0  0  0  0  0  0  0  0  0  0  0  0
   -1.3994   -0.0003    0.1194 C   0  0  0  0  0  0  0  0  0  0  0  0
   -0.6879   -1.1571    0.1999 N   0  0  0  0  0  0  0  0  0  0  0  0
   -2.6242   -0.0032    0.1349 O   0  0  0  0  0  0  0  0  0  0  0  0
    1.5216   -0.0035    1.3648 H   0  0  0  0  0  0  0  0  0  0  0  0
   -1.2046    1.9845   -0.1896 H   0  0  0  0  0  0  0  0  0  0  0  0
    0.7038   -1.3002   -1.3008 H   0  0  0  0  0  0  0  0  0  0  0  0
    1.1178   -2.1438    0.2061 H   0  0  0  0  0  0  0  0  0  0  0  0
    3.4361    0.8825    0.0527 H   0  0  0  0  0  0  0  0  0  0  0  0
    3.4277   -0.8879   -0.0061 H   0  0  0  0  0  0  0  0  0  0  0  0
    2.8603    0.0552   -1.3976 H   0  0  0  0  0  0  0  0  0  0  0  0
   -1.2618   -1.9927    0.1629 H   0  0  0  0  0  0  0  0  0  0  0  0
  1  2  1  0  0  0  0
  1  3  1  0  0  0  0
  1  4  2  0  0  0  0
  2  5  1  0  0  0  0
  2  6  1  0  0  0  0
  2 10  1  0  0  0  0
  3  7  1  0  0  0  0
  3 11  1  0  0  0  0
  5  8  1  0  0  0  0
  5 12  1  0  0  0  0
  5 13  1  0  0  0  0
  6 14  1  0  0  0  0
  6 15  1  0  0  0  0
  6 16  1  0  0  0  0
  7  9  2  0  0  0  0
  7  8  1  0  0  0  0
  8 17  1  0  0  0  0
M  END
>  <Mol_ID>
1670

>  <Formula>
C5H8N2O2

>  <MolWeight>
128.12922

>  <Cat>
S3702

>  <Name>
Dihydrothymine

>  <Synonyms>
N/A

>  <Target>
Nucleoside Analog/Antimetabolite

>  <Form>
free base

>  <CAS>
696-04-8

>  <URL>
http://selleckchem.com/products/dihydrothymine.html

$$$$
