S3701 Benactyzine hydrochloride.cdx
 OpenBabel08302519503D

 49 50  0  0  0  0  0  0  0  0999 V2000
    0.6510   -0.0815    0.5203 C   0  0  0  0  0  0  0  0  0  0  0  0
    0.3285   -0.9115    1.7796 C   0  0  0  0  0  0  0  0  0  0  0  0
    0.0125    1.3276    0.5112 C   0  0  0  0  0  0  0  0  0  0  0  0
    0.2412   -0.9049   -0.7576 C   0  0  0  0  0  0  0  0  0  0  0  0
   -0.9852   -1.4893   -0.5816 O   0  0  0  0  0  0  0  0  0  0  0  0
    0.8718   -0.9181   -1.8080 O   0  0  0  0  0  0  0  0  0  0  0  0
   -1.6437   -2.1000   -1.7103 C   0  0  0  0  0  0  0  0  0  0  0  0
   -2.8490   -1.2125   -2.0770 C   0  0  0  0  0  0  0  0  0  0  0  0
   -3.7359   -1.7064   -3.1555 N   0  0  0  0  0  0  0  0  0  0  0  0
   -4.4354   -2.9288   -2.7020 C   0  0  0  0  0  0  0  0  0  0  0  0
   -4.6893   -0.6521   -3.5638 C   0  0  0  0  0  0  0  0  0  0  0  0
   -5.4321   -3.5182   -3.6977 C   0  0  0  0  0  0  0  0  0  0  0  0
   -4.0462    0.5026   -4.3310 C   0  0  0  0  0  0  0  0  0  0  0  0
   -0.9048   -0.7839    2.4494 C   0  0  0  0  0  0  0  0  0  0  0  0
   -1.2275   -1.6053    3.5306 C   0  0  0  0  0  0  0  0  0  0  0  0
   -0.3332   -2.5819    3.9561 C   0  0  0  0  0  0  0  0  0  0  0  0
    0.8880   -2.7344    3.3021 C   0  0  0  0  0  0  0  0  0  0  0  0
    1.2163   -1.9085    2.2244 C   0  0  0  0  0  0  0  0  0  0  0  0
    0.2781    2.2341    1.5565 C   0  0  0  0  0  0  0  0  0  0  0  0
   -0.3581    3.4780    1.6107 C   0  0  0  0  0  0  0  0  0  0  0  0
   -1.2632    3.8466    0.6188 C   0  0  0  0  0  0  0  0  0  0  0  0
   -1.5059    2.9887   -0.4460 C   0  0  0  0  0  0  0  0  0  0  0  0
   -0.8605    1.7528   -0.5074 C   0  0  0  0  0  0  0  0  0  0  0  0
    2.0721    0.1490    0.4967 O   0  0  0  0  0  0  0  0  0  0  0  0
   -0.9719   -2.2361   -2.5638 H   0  0  0  0  0  0  0  0  0  0  0  0
   -1.9647   -3.0877   -1.3684 H   0  0  0  0  0  0  0  0  0  0  0  0
   -3.4311   -1.0093   -1.1663 H   0  0  0  0  0  0  0  0  0  0  0  0
   -2.4279   -0.2469   -2.3674 H   0  0  0  0  0  0  0  0  0  0  0  0
   -3.6901   -3.7117   -2.5234 H   0  0  0  0  0  0  0  0  0  0  0  0
   -4.9537   -2.7502   -1.7513 H   0  0  0  0  0  0  0  0  0  0  0  0
   -5.4290   -1.0632   -4.2569 H   0  0  0  0  0  0  0  0  0  0  0  0
   -5.2426   -0.2649   -2.6993 H   0  0  0  0  0  0  0  0  0  0  0  0
   -4.9959   -3.6013   -4.6980 H   0  0  0  0  0  0  0  0  0  0  0  0
   -5.7304   -4.5210   -3.3749 H   0  0  0  0  0  0  0  0  0  0  0  0
   -6.3462   -2.9191   -3.7581 H   0  0  0  0  0  0  0  0  0  0  0  0
   -3.4664    0.1345   -5.1840 H   0  0  0  0  0  0  0  0  0  0  0  0
   -4.8295    1.1606   -4.7245 H   0  0  0  0  0  0  0  0  0  0  0  0
   -3.3953    1.1163   -3.7029 H   0  0  0  0  0  0  0  0  0  0  0  0
   -1.6401   -0.0504    2.1249 H   0  0  0  0  0  0  0  0  0  0  0  0
   -2.1844   -1.4874    4.0330 H   0  0  0  0  0  0  0  0  0  0  0  0
   -0.5874   -3.2272    4.7912 H   0  0  0  0  0  0  0  0  0  0  0  0
    1.5840   -3.5035    3.6258 H   0  0  0  0  0  0  0  0  0  0  0  0
    2.1710   -2.0558    1.7194 H   0  0  0  0  0  0  0  0  0  0  0  0
    0.9740    1.9613    2.3496 H   0  0  0  0  0  0  0  0  0  0  0  0
   -0.1552    4.1562    2.4359 H   0  0  0  0  0  0  0  0  0  0  0  0
   -1.7732    4.8045    0.6706 H   0  0  0  0  0  0  0  0  0  0  0  0
   -2.2002    3.2752   -1.2329 H   0  0  0  0  0  0  0  0  0  0  0  0
   -1.0662    1.1348   -1.3743 H   0  0  0  0  0  0  0  0  0  0  0  0
    2.2441    0.6814   -0.3006 H   0  0  0  0  0  0  0  0  0  0  0  0
  1  2  1  0  0  0  0
  1  3  1  0  0  0  0
  1  4  1  0  0  0  0
  1 24  1  0  0  0  0
  2 14  2  0  0  0  0
  3 19  2  0  0  0  0
  4  5  1  0  0  0  0
  4  6  2  0  0  0  0
  5  7  1  0  0  0  0
  7  8  1  0  0  0  0
  7 25  1  0  0  0  0
  7 26  1  0  0  0  0
  8  9  1  0  0  0  0
  8 27  1  0  0  0  0
  8 28  1  0  0  0  0
  9 10  1  0  0  0  0
  9 11  1  0  0  0  0
 10 12  1  0  0  0  0
 10 29  1  0  0  0  0
 10 30  1  0  0  0  0
 11 13  1  0  0  0  0
 11 31  1  0  0  0  0
 11 32  1  0  0  0  0
 12 33  1  0  0  0  0
 12 34  1  0  0  0  0
 12 35  1  0  0  0  0
 13 36  1  0  0  0  0
 13 37  1  0  0  0  0
 13 38  1  0  0  0  0
 14 15  1  0  0  0  0
 14 39  1  0  0  0  0
 15 16  2  0  0  0  0
 15 40  1  0  0  0  0
 16 17  1  0  0  0  0
 16 41  1  0  0  0  0
 17 18  2  0  0  0  0
 17 42  1  0  0  0  0
 18  2  1  0  0  0  0
 18 43  1  0  0  0  0
 19 20  1  0  0  0  0
 19 44  1  0  0  0  0
 20 21  2  0  0  0  0
 20 45  1  0  0  0  0
 21 22  1  0  0  0  0
 21 46  1  0  0  0  0
 22 23  2  0  0  0  0
 22 47  1  0  0  0  0
 23  3  1  0  0  0  0
 23 48  1  0  0  0  0
 24 49  1  0  0  0  0
M  END
>  <Mol_ID>
1650

>  <Formula>
C20H26ClNO3

>  <MolWeight>
363.87834

>  <Cat>
S3701

>  <Name>
Benactyzine hydrochloride

>  <Synonyms>
N/A

>  <Target>
AChR

>  <Form>
hydrochloride

>  <CAS>
57-37-4

>  <URL>
http://selleckchem.com/products/benactyzine-hydrochloride.html

$$$$
