S3708 Sulfachloropyridazine.cdx
 OpenBabel08302519503D

 27 28  0  0  0  0  0  0  0  0999 V2000
   -1.8926   -0.0434   -0.0295 C   0  0  0  0  0  0  0  0  0  0  0  0
   -3.6633   -0.0521    0.0236 S   0  0  0  0  0  0  0  0  0  0  0  0
   -1.2255    0.9658   -0.7272 C   0  0  0  0  0  0  0  0  0  0  0  0
   -1.1731   -1.0173    0.6640 C   0  0  0  0  0  0  0  0  0  0  0  0
   -4.0945   -0.9358   -1.3317 N   0  0  0  0  0  0  0  0  0  0  0  0
   -4.0995   -0.7471    1.2172 O   0  0  0  0  0  0  0  0  0  0  0  0
   -4.1136    1.3012   -0.2387 O   0  0  0  0  0  0  0  0  0  0  0  0
    0.1719    0.9815   -0.7464 C   0  0  0  0  0  0  0  0  0  0  0  0
    0.2237   -0.9910    0.6338 C   0  0  0  0  0  0  0  0  0  0  0  0
   -4.1543   -2.3332   -1.1765 C   0  0  0  0  0  0  0  0  0  0  0  0
    0.9084    0.0314   -0.0315 C   0  0  0  0  0  0  0  0  0  0  0  0
   -5.3277   -2.9673   -0.8116 C   0  0  0  0  0  0  0  0  0  0  0  0
   -3.0008   -2.9993   -1.3651 N   0  0  0  0  0  0  0  0  0  0  0  0
    2.2993   -0.0301   -0.1722 N   0  0  0  0  0  0  0  0  0  0  0  0
   -5.3067   -4.3500   -0.6720 C   0  0  0  0  0  0  0  0  0  0  0  0
   -2.9813   -4.3599   -1.2363 N   0  0  0  0  0  0  0  0  0  0  0  0
   -4.1143   -5.0100   -0.9005 C   0  0  0  0  0  0  0  0  0  0  0  0
   -1.7779    1.7302   -1.2683 H   0  0  0  0  0  0  0  0  0  0  0  0
   -1.6852   -1.8114    1.2023 H   0  0  0  0  0  0  0  0  0  0  0  0
   -4.8248   -0.4834   -1.8709 H   0  0  0  0  0  0  0  0  0  0  0  0
    0.6837    1.7448   -1.3270 H   0  0  0  0  0  0  0  0  0  0  0  0
    0.7748   -1.7826    1.1350 H   0  0  0  0  0  0  0  0  0  0  0  0
   -6.2360   -2.4078   -0.6221 H   0  0  0  0  0  0  0  0  0  0  0  0
    2.7682   -0.5250    0.5797 H   0  0  0  0  0  0  0  0  0  0  0  0
    2.7349    0.8625   -0.3801 H   0  0  0  0  0  0  0  0  0  0  0  0
   -6.1977   -4.8983   -0.3866 H   0  0  0  0  0  0  0  0  0  0  0  0
   -4.0279   -6.0877   -0.8176 H   0  0  0  0  0  0  0  0  0  0  0  0
  1  2  1  0  0  0  0
  1  3  2  0  0  0  0
  1  4  1  0  0  0  0
  2  5  1  0  0  0  0
  2  6  2  0  0  0  0
  2  7  2  0  0  0  0
  3  8  1  0  0  0  0
  3 18  1  0  0  0  0
  4  9  2  0  0  0  0
  4 19  1  0  0  0  0
  5 10  1  0  0  0  0
  5 20  1  0  0  0  0
  8 11  2  0  0  0  0
  8 21  1  0  0  0  0
  9 11  1  0  0  0  0
  9 22  1  0  0  0  0
 10 12  2  0  0  0  0
 10 13  1  0  0  0  0
 11 14  1  0  0  0  0
 12 15  1  0  0  0  0
 12 23  1  0  0  0  0
 13 16  2  0  0  0  0
 14 24  1  0  0  0  0
 14 25  1  0  0  0  0
 15 17  2  0  0  0  0
 15 26  1  0  0  0  0
 16 17  1  0  0  0  0
 17 27  1  0  0  0  0
M  END
>  <Mol_ID>
1728

>  <Formula>
C10H9ClN4O2S

>  <MolWeight>
284.72206

>  <Cat>
S3708

>  <Name>
Sulfachloropyridazine

>  <Synonyms>
N/A

>  <Target>
Antibiotics,Bacterial

>  <Form>
free base

>  <CAS>
80-32-0

>  <URL>
http://selleckchem.com/products/sulfachloropyridazine.html

$$$$
