S3704 4-Methylbenzylidene camphor.cdx
 OpenBabel08302519503D

 41 43  0  0  0  0  0  0  0  0999 V2000
    0.1208   -1.1736    0.5069 C   0  0  3  0  0  0  0  0  0  0  0  0
    0.0206    0.0315    1.4817 C   0  0  0  0  0  0  0  0  0  0  0  0
   -1.1434   -0.9293   -0.2955 C   0  0  0  0  0  0  0  0  0  0  0  0
    1.2892   -0.7869   -0.4438 C   0  0  0  0  0  0  0  0  0  0  0  0
   -0.0614    1.0682    0.3189 C   0  0  3  0  0  0  0  0  0  0  0  0
    1.2425    0.1741    2.4091 C   0  0  0  0  0  0  0  0  0  0  0  0
   -1.2259    0.0360    2.3973 C   0  0  0  0  0  0  0  0  0  0  0  0
   -1.2422    0.5596   -0.5180 C   0  0  0  0  0  0  0  0  0  0  0  0
   -1.9573   -1.7811   -0.6108 O   0  0  0  0  0  0  0  0  0  0  0  0
    1.2016    0.7555   -0.5115 C   0  0  0  0  0  0  0  0  0  0  0  0
   -2.1099    1.3004   -1.2226 C   0  0  0  0  0  0  0  0  0  0  0  0
   -3.2449    0.8761   -2.0632 C   0  0  0  0  0  0  0  0  0  0  0  0
   -4.3123    1.7678   -2.2424 C   0  0  0  0  0  0  0  0  0  0  0  0
   -3.2791   -0.3291   -2.7709 C   0  0  0  0  0  0  0  0  0  0  0  0
   -5.3815    1.4558   -3.0923 C   0  0  0  0  0  0  0  0  0  0  0  0
   -4.3636   -0.6625   -3.5888 C   0  0  0  0  0  0  0  0  0  0  0  0
   -5.4132    0.2381   -3.7759 C   0  0  0  0  0  0  0  0  0  0  0  0
   -6.5508   -0.1144   -4.6859 C   0  0  0  0  0  0  0  0  0  0  0  0
    0.2218   -2.5691    1.0732 C   0  0  0  0  0  0  0  0  0  0  0  0
    1.1695   -1.2245   -1.4422 H   0  0  0  0  0  0  0  0  0  0  0  0
    2.2626   -1.1010   -0.0530 H   0  0  0  0  0  0  0  0  0  0  0  0
   -0.1451    2.1109    0.6332 H   0  0  0  0  0  0  0  0  0  0  0  0
    1.1979    1.1158    2.9661 H   0  0  0  0  0  0  0  0  0  0  0  0
    1.2610   -0.6429    3.1406 H   0  0  0  0  0  0  0  0  0  0  0  0
    2.2038    0.1491    1.8919 H   0  0  0  0  0  0  0  0  0  0  0  0
   -2.1782    0.0289    1.8575 H   0  0  0  0  0  0  0  0  0  0  0  0
   -1.2260   -0.8371    3.0584 H   0  0  0  0  0  0  0  0  0  0  0  0
   -1.2339    0.9335    3.0261 H   0  0  0  0  0  0  0  0  0  0  0  0
    1.1335    1.1130   -1.5455 H   0  0  0  0  0  0  0  0  0  0  0  0
    2.0932    1.2138   -0.0681 H   0  0  0  0  0  0  0  0  0  0  0  0
   -1.9714    2.3807   -1.1945 H   0  0  0  0  0  0  0  0  0  0  0  0
   -4.3248    2.7244   -1.7255 H   0  0  0  0  0  0  0  0  0  0  0  0
   -2.4641   -1.0420   -2.7101 H   0  0  0  0  0  0  0  0  0  0  0  0
   -6.1858    2.1763   -3.2183 H   0  0  0  0  0  0  0  0  0  0  0  0
   -4.3692   -1.6303   -4.0863 H   0  0  0  0  0  0  0  0  0  0  0  0
   -6.1681   -0.4702   -5.6495 H   0  0  0  0  0  0  0  0  0  0  0  0
   -7.1691   -0.8956   -4.2353 H   0  0  0  0  0  0  0  0  0  0  0  0
   -7.1834    0.7555   -4.8868 H   0  0  0  0  0  0  0  0  0  0  0  0
    1.1244   -2.6947    1.6796 H   0  0  0  0  0  0  0  0  0  0  0  0
   -0.6460   -2.8127    1.6968 H   0  0  0  0  0  0  0  0  0  0  0  0
    0.2550   -3.3101    0.2675 H   0  0  0  0  0  0  0  0  0  0  0  0
  1  3  1  0  0  0  0
  1  4  1  0  0  0  0
  1 19  1  0  0  0  0
  2  5  1  0  0  0  0
  2  6  1  0  0  0  0
  2  7  1  0  0  0  0
  2  1  1  0  0  0  0
  3  8  1  0  0  0  0
  3  9  2  0  0  0  0
  4 10  1  0  0  0  0
  4 20  1  0  0  0  0
  4 21  1  0  0  0  0
  5  8  1  0  0  0  0
  5 10  1  0  0  0  0
  5 22  1  0  0  0  0
  6 23  1  0  0  0  0
  6 24  1  0  0  0  0
  6 25  1  0  0  0  0
  7 26  1  0  0  0  0
  7 27  1  0  0  0  0
  7 28  1  0  0  0  0
  8 11  2  0  0  0  0
 10 29  1  0  0  0  0
 10 30  1  0  0  0  0
 11 12  1  0  0  0  0
 11 31  1  0  0  0  0
 12 13  2  0  0  0  0
 12 14  1  0  0  0  0
 13 15  1  0  0  0  0
 13 32  1  0  0  0  0
 14 16  2  0  0  0  0
 14 33  1  0  0  0  0
 15 17  2  0  0  0  0
 15 34  1  0  0  0  0
 16 17  1  0  0  0  0
 16 35  1  0  0  0  0
 17 18  1  0  0  0  0
 18 36  1  0  0  0  0
 18 37  1  0  0  0  0
 18 38  1  0  0  0  0
 19 39  1  0  0  0  0
 19 40  1  0  0  0  0
 19 41  1  0  0  0  0
M  END
>  <Mol_ID>
1671

>  <Formula>
C18H22O

>  <MolWeight>
254.36668

>  <Cat>
S3704

>  <Name>
4-Methylbenzylidene camphor

>  <Synonyms>
Enzacamene, 4-MBC

>  <Target>
Others

>  <Form>
free base

>  <CAS>
36861-47-9

>  <URL>
http://selleckchem.com/products/4-methylbenzylidene-camphor.html

$$$$
