S3707 Ethopabate.cdx
 OpenBabel08302519503D

 32 32  0  0  0  0  0  0  0  0999 V2000
    1.3614   -0.0837    0.2744 C   0  0  0  0  0  0  0  0  0  0  0  0
    0.5334   -1.1838    0.0170 C   0  0  0  0  0  0  0  0  0  0  0  0
    0.7901    1.2055    0.2894 C   0  0  0  0  0  0  0  0  0  0  0  0
    2.8242   -0.1496    0.5617 C   0  0  0  0  0  0  0  0  0  0  0  0
   -0.8559   -0.9763   -0.0528 C   0  0  0  0  0  0  0  0  0  0  0  0
    1.0825   -2.4274   -0.2069 O   0  0  0  0  0  0  0  0  0  0  0  0
   -0.5883    1.3953    0.1101 C   0  0  0  0  0  0  0  0  0  0  0  0
    3.1921   -1.3480    1.0693 O   0  0  0  0  0  0  0  0  0  0  0  0
    3.5524    0.8300    0.4557 O   0  0  0  0  0  0  0  0  0  0  0  0
   -1.4291    0.2932   -0.0345 C   0  0  0  0  0  0  0  0  0  0  0  0
    0.2150   -3.3656   -0.8660 C   0  0  0  0  0  0  0  0  0  0  0  0
    4.5420   -1.4351    1.5375 C   0  0  0  0  0  0  0  0  0  0  0  0
   -2.8220    0.5077   -0.1666 N   0  0  0  0  0  0  0  0  0  0  0  0
    1.0093   -4.5253   -1.4281 C   0  0  0  0  0  0  0  0  0  0  0  0
   -3.7946   -0.4614   -0.3350 C   0  0  0  0  0  0  0  0  0  0  0  0
   -5.1947    0.1006   -0.4155 C   0  0  0  0  0  0  0  0  0  0  0  0
   -3.6329   -1.6772   -0.4123 O   0  0  0  0  0  0  0  0  0  0  0  0
    1.4235    2.0790    0.4409 H   0  0  0  0  0  0  0  0  0  0  0  0
   -1.5048   -1.8356   -0.1393 H   0  0  0  0  0  0  0  0  0  0  0  0
   -0.9790    2.4078    0.1082 H   0  0  0  0  0  0  0  0  0  0  0  0
   -0.5107   -3.7562   -0.1426 H   0  0  0  0  0  0  0  0  0  0  0  0
   -0.3096   -2.8920   -1.7070 H   0  0  0  0  0  0  0  0  0  0  0  0
    5.1808   -1.8304    0.7423 H   0  0  0  0  0  0  0  0  0  0  0  0
    4.9337   -0.4761    1.8927 H   0  0  0  0  0  0  0  0  0  0  0  0
    4.5609   -2.1335    2.3798 H   0  0  0  0  0  0  0  0  0  0  0  0
   -3.1228    1.4740   -0.1433 H   0  0  0  0  0  0  0  0  0  0  0  0
    1.6432   -4.9800   -0.6618 H   0  0  0  0  0  0  0  0  0  0  0  0
    0.3305   -5.2849   -1.8274 H   0  0  0  0  0  0  0  0  0  0  0  0
    1.6587   -4.1841   -2.2402 H   0  0  0  0  0  0  0  0  0  0  0  0
   -5.6649   -0.2583   -1.3359 H   0  0  0  0  0  0  0  0  0  0  0  0
   -5.7645   -0.2513    0.4496 H   0  0  0  0  0  0  0  0  0  0  0  0
   -5.2020    1.1918   -0.4238 H   0  0  0  0  0  0  0  0  0  0  0  0
  1  2  2  0  0  0  0
  1  3  1  0  0  0  0
  1  4  1  0  0  0  0
  2  5  1  0  0  0  0
  2  6  1  0  0  0  0
  3  7  2  0  0  0  0
  3 18  1  0  0  0  0
  4  8  1  0  0  0  0
  4  9  2  0  0  0  0
  5 10  2  0  0  0  0
  5 19  1  0  0  0  0
  6 11  1  0  0  0  0
  7 10  1  0  0  0  0
  7 20  1  0  0  0  0
  8 12  1  0  0  0  0
 10 13  1  0  0  0  0
 11 14  1  0  0  0  0
 11 21  1  0  0  0  0
 11 22  1  0  0  0  0
 12 23  1  0  0  0  0
 12 24  1  0  0  0  0
 12 25  1  0  0  0  0
 13 15  1  0  0  0  0
 13 26  1  0  0  0  0
 14 27  1  0  0  0  0
 14 28  1  0  0  0  0
 14 29  1  0  0  0  0
 15 16  1  0  0  0  0
 15 17  2  0  0  0  0
 16 30  1  0  0  0  0
 16 31  1  0  0  0  0
 16 32  1  0  0  0  0
M  END
>  <Mol_ID>
1727

>  <Formula>
C12H15NO4

>  <MolWeight>
237.2518

>  <Cat>
S3707

>  <Name>
Ethopabate

>  <Synonyms>
Ethyl pabate

>  <Target>
Parasite

>  <Form>
free base

>  <CAS>
59-06-3

>  <URL>
http://selleckchem.com/products/ethopabate.html

$$$$
