S3705 Chlorobutanol.cdx
 OpenBabel08302519503D

 15 14  0  0  0  0  0  0  0  0999 V2000
    1.0712   -0.0328   -0.0074 C   0  0  0  0  0  0  0  0  0  0  0  0
    0.5890    1.2847    0.5975 C   0  0  0  0  0  0  0  0  0  0  0  0
    0.5891   -0.1779   -1.4499 C   0  0  0  0  0  0  0  0  0  0  0  0
    0.5967   -1.2138    0.8364 C   0  0  0  0  0  0  0  0  0  0  0  0
    2.4992   -0.0414   -0.0013 O   0  0  0  0  0  0  0  0  0  0  0  0
    0.9623    2.1396    0.0224 H   0  0  0  0  0  0  0  0  0  0  0  0
   -0.5042    1.3374    0.6259 H   0  0  0  0  0  0  0  0  0  0  0  0
    0.9698    1.4079    1.6178 H   0  0  0  0  0  0  0  0  0  0  0  0
    0.9699   -1.1032   -1.8972 H   0  0  0  0  0  0  0  0  0  0  0  0
   -0.5042   -0.1877   -1.5089 H   0  0  0  0  0  0  0  0  0  0  0  0
    0.9623    0.6433   -2.0722 H   0  0  0  0  0  0  0  0  0  0  0  0
    0.9767   -2.1596    0.4336 H   0  0  0  0  0  0  0  0  0  0  0  0
    0.9767   -1.1394    1.8617 H   0  0  0  0  0  0  0  0  0  0  0  0
   -0.4962   -1.2675    0.8747 H   0  0  0  0  0  0  0  0  0  0  0  0
    2.8062    0.7091   -0.5374 H   0  0  0  0  0  0  0  0  0  0  0  0
  1  2  1  0  0  0  0
  1  3  1  0  0  0  0
  1  4  1  0  0  0  0
  1  5  1  0  0  0  0
  2  6  1  0  0  0  0
  2  7  1  0  0  0  0
  2  8  1  0  0  0  0
  3  9  1  0  0  0  0
  3 10  1  0  0  0  0
  3 11  1  0  0  0  0
  4 12  1  0  0  0  0
  4 13  1  0  0  0  0
  4 14  1  0  0  0  0
  5 15  1  0  0  0  0
M  END
>  <Mol_ID>
1716

>  <Formula>
C4H7Cl3O

>  <MolWeight>
177.45678

>  <Cat>
S3705

>  <Name>
Chlorobutanol

>  <Synonyms>
Chlorbutol, Chloreton, Chloretone, Chlortran

>  <Target>
Fungal

>  <Form>
free base

>  <CAS>
57-15-8

>  <URL>
http://selleckchem.com/products/chlorobutanol.html

$$$$
