S3711 Carbasalate Calcium.cdx
 OpenBabel08302519503D

 50 49  0  0  0  0  0  0  0  0999 V2000
    0.0563    3.6731   -2.4353 C   0  0  0  0  0  0  0  0  0  0  0  0
    0.7822    2.4872   -2.5957 C   0  0  0  0  0  0  0  0  0  0  0  0
    0.4035    4.9115   -1.6888 C   0  0  0  0  0  0  0  0  0  0  0  0
   -1.2053    3.7611   -3.0770 C   0  0  0  0  0  0  0  0  0  0  0  0
    0.3208    1.5048   -3.4935 C   0  0  0  0  0  0  0  0  0  0  0  0
    1.8439    1.9680   -1.7759 O   0  0  0  0  0  0  0  0  0  0  0  0
    1.6596    5.3587   -1.8375 O   0  0  0  0  0  0  0  0  0  0  0  0
   -0.4545    5.6078   -1.1678 O   0  0  0  0  0  0  0  0  0  0  0  0
   -1.6914    2.7509   -3.9086 C   0  0  0  0  0  0  0  0  0  0  0  0
   -0.9020    1.6401   -4.1545 C   0  0  0  0  0  0  0  0  0  0  0  0
    3.0299    2.5184   -1.3016 C   0  0  0  0  0  0  0  0  0  0  0  0
    3.8553    1.5144   -0.5492 C   0  0  0  0  0  0  0  0  0  0  0  0
    3.3723    3.6739   -1.5102 O   0  0  0  0  0  0  0  0  0  0  0  0
    1.6103    0.3295    1.4472 O   0  0  0  0  0  0  0  0  0  0  0  0
    1.7429   -0.1250    2.7049 C   0  0  0  0  0  0  0  0  0  0  0  0
    2.2195    0.8454    3.7355 C   0  0  0  0  0  0  0  0  0  0  0  0
    1.6228   -1.3186    2.9445 O   0  0  0  0  0  0  0  0  0  0  0  0
    2.3873    2.2304    3.5782 C   0  0  0  0  0  0  0  0  0  0  0  0
    2.6457    0.2687    4.9452 C   0  0  0  0  0  0  0  0  0  0  0  0
    3.1373    2.9694    4.5038 C   0  0  0  0  0  0  0  0  0  0  0  0
    1.8664    2.9712    2.5130 O   0  0  0  0  0  0  0  0  0  0  0  0
    3.3069    1.0249    5.9150 C   0  0  0  0  0  0  0  0  0  0  0  0
    3.5980    2.3627    5.6706 C   0  0  0  0  0  0  0  0  0  0  0  0
    0.4841    2.9655    2.4986 C   0  0  0  0  0  0  0  0  0  0  0  0
   -0.1969    3.7012    3.6110 C   0  0  0  0  0  0  0  0  0  0  0  0
   -0.1024    2.3206    1.6334 O   0  0  0  0  0  0  0  0  0  0  0  0
   -0.1114   -1.1911   -1.6040 C   0  0  0  0  0  0  0  0  0  0  0  0
   -0.2062   -0.6019   -0.4020 N   0  0  0  0  0  0  0  0  0  0  0  0
   -1.2277   -1.0636   -2.3470 N   0  0  0  0  0  0  0  0  0  0  0  0
    0.8905   -1.7613   -2.0096 O   0  0  0  0  0  0  0  0  0  0  0  0
   -1.8331    4.6411   -2.9255 H   0  0  0  0  0  0  0  0  0  0  0  0
    0.8973    0.5908   -3.6336 H   0  0  0  0  0  0  0  0  0  0  0  0
    2.3500    4.6882   -2.0415 H   0  0  0  0  0  0  0  0  0  0  0  0
   -2.6734    2.8461   -4.3674 H   0  0  0  0  0  0  0  0  0  0  0  0
   -1.2574    0.8565   -4.8197 H   0  0  0  0  0  0  0  0  0  0  0  0
    4.7856    1.3457   -1.0959 H   0  0  0  0  0  0  0  0  0  0  0  0
    4.0729    1.8946    0.4525 H   0  0  0  0  0  0  0  0  0  0  0  0
    3.3341    0.5598   -0.4562 H   0  0  0  0  0  0  0  0  0  0  0  0
    1.1326    1.1832    1.3563 H   0  0  0  0  0  0  0  0  0  0  0  0
    2.4902   -0.7942    5.1299 H   0  0  0  0  0  0  0  0  0  0  0  0
    3.3634    4.0176    4.3197 H   0  0  0  0  0  0  0  0  0  0  0  0
    3.6271    0.5531    6.8416 H   0  0  0  0  0  0  0  0  0  0  0  0
    4.1759    2.9334    6.3943 H   0  0  0  0  0  0  0  0  0  0  0  0
    0.3997    4.5539    3.9401 H   0  0  0  0  0  0  0  0  0  0  0  0
   -1.1491    4.0896    3.2337 H   0  0  0  0  0  0  0  0  0  0  0  0
   -0.3931    3.0246    4.4468 H   0  0  0  0  0  0  0  0  0  0  0  0
   -1.1113   -0.4532    0.0164 H   0  0  0  0  0  0  0  0  0  0  0  0
    0.5678   -0.7578    0.2391 H   0  0  0  0  0  0  0  0  0  0  0  0
   -1.0716   -1.3160   -3.3141 H   0  0  0  0  0  0  0  0  0  0  0  0
   -1.7328   -0.1985   -2.2165 H   0  0  0  0  0  0  0  0  0  0  0  0
  1  4  2  0  0  0  0
  1  2  1  0  0  0  0
  1  3  1  0  0  0  0
  2  5  2  0  0  0  0
  2  6  1  0  0  0  0
  3  7  1  0  0  0  0
  3  8  2  0  0  0  0
  4  9  1  0  0  0  0
  4 31  1  0  0  0  0
  5 10  1  0  0  0  0
  5 32  1  0  0  0  0
  6 11  1  0  0  0  0
  7 33  1  0  0  0  0
  9 10  2  0  0  0  0
  9 34  1  0  0  0  0
 10 35  1  0  0  0  0
 11 12  1  0  0  0  0
 11 13  2  0  0  0  0
 12 36  1  0  0  0  0
 12 37  1  0  0  0  0
 12 38  1  0  0  0  0
 14 15  1  0  0  0  0
 14 39  1  0  0  0  0
 15 16  1  0  0  0  0
 15 17  2  0  0  0  0
 16 18  2  0  0  0  0
 16 19  1  0  0  0  0
 18 20  1  0  0  0  0
 18 21  1  0  0  0  0
 19 22  2  0  0  0  0
 19 40  1  0  0  0  0
 20 23  2  0  0  0  0
 20 41  1  0  0  0  0
 21 24  1  0  0  0  0
 22 23  1  0  0  0  0
 22 42  1  0  0  0  0
 23 43  1  0  0  0  0
 24 25  1  0  0  0  0
 24 26  2  0  0  0  0
 25 44  1  0  0  0  0
 25 45  1  0  0  0  0
 25 46  1  0  0  0  0
 27 28  1  0  0  0  0
 27 29  1  0  0  0  0
 27 30  2  0  0  0  0
 28 47  1  0  0  0  0
 28 48  1  0  0  0  0
 29 49  1  0  0  0  0
 29 50  1  0  0  0  0
M  END
>  <Mol_ID>
1714

>  <Formula>
C19H18CaN2O9

>  <MolWeight>
458.43222

>  <Cat>
S3711

>  <Name>
Carbasalate Calcium

>  <Synonyms>
Iromin, Alcacyl, Omegin, Rheomin, Solupsan

>  <Target>
Anti-infection

>  <Form>
calcium salt

>  <CAS>
5749-67-7

>  <URL>
http://selleckchem.com/products/carbasalate-calcium.html

$$$$
