S3716 Flibanserin.cdx
 OpenBabel08302519503D

 49 52  0  0  0  0  0  0  0  0999 V2000
   -0.3621   -4.1835   -0.1641 C   0  0  0  0  0  0  0  0  0  0  0  0
   -1.0073   -3.9568    1.0604 N   0  0  0  0  0  0  0  0  0  0  0  0
    1.0081   -4.2693    0.0957 C   0  0  0  0  0  0  0  0  0  0  0  0
   -0.8549   -4.2998   -1.4442 C   0  0  0  0  0  0  0  0  0  0  0  0
   -0.0323   -3.8413    2.0704 C   0  0  0  0  0  0  0  0  0  0  0  0
   -2.4282   -3.8261    1.2806 C   0  0  0  0  0  0  0  0  0  0  0  0
    1.2094   -4.0686    1.4583 N   0  0  0  0  0  0  0  0  0  0  0  0
    1.9426   -4.4947   -0.8873 C   0  0  0  0  0  0  0  0  0  0  0  0
    0.0804   -4.5006   -2.4704 C   0  0  0  0  0  0  0  0  0  0  0  0
   -0.2107   -3.5901    3.2520 O   0  0  0  0  0  0  0  0  0  0  0  0
   -2.9092   -2.3633    1.2021 C   0  0  0  0  0  0  0  0  0  0  0  0
    1.4600   -4.6044   -2.1947 C   0  0  0  0  0  0  0  0  0  0  0  0
   -4.3601   -2.1882    1.4391 N   0  0  0  0  0  0  0  0  0  0  0  0
   -4.7796   -0.7860    1.1690 C   0  0  0  0  0  0  0  0  0  0  0  0
   -4.7622   -2.5083    2.8344 C   0  0  0  0  0  0  0  0  0  0  0  0
   -4.2956    0.2659    2.1979 C   0  0  0  0  0  0  0  0  0  0  0  0
   -4.2551   -1.5252    3.9210 C   0  0  0  0  0  0  0  0  0  0  0  0
   -4.6293   -0.1459    3.5687 N   0  0  0  0  0  0  0  0  0  0  0  0
   -5.3698    0.6281    4.4393 C   0  0  0  0  0  0  0  0  0  0  0  0
   -6.3950    1.4773    3.9977 C   0  0  0  0  0  0  0  0  0  0  0  0
   -5.1353    0.5879    5.8228 C   0  0  0  0  0  0  0  0  0  0  0  0
   -7.1717    2.2430    4.8905 C   0  0  0  0  0  0  0  0  0  0  0  0
   -5.8874    1.3438    6.7269 C   0  0  0  0  0  0  0  0  0  0  0  0
   -6.9061    2.1665    6.2628 C   0  0  0  0  0  0  0  0  0  0  0  0
   -8.2884    3.1246    4.3923 C   0  0  0  0  0  0  0  0  0  0  0  0
   -8.4298    3.1211    3.0368 F   0  0  0  0  0  0  0  0  0  0  0  0
   -9.5016    2.7619    4.8936 F   0  0  0  0  0  0  0  0  0  0  0  0
   -8.1170    4.4305    4.7433 F   0  0  0  0  0  0  0  0  0  0  0  0
   -1.9104   -4.2217   -1.6641 H   0  0  0  0  0  0  0  0  0  0  0  0
   -2.9689   -4.4594    0.5683 H   0  0  0  0  0  0  0  0  0  0  0  0
   -2.6211   -4.2251    2.2813 H   0  0  0  0  0  0  0  0  0  0  0  0
    2.0882   -4.0417    1.9476 H   0  0  0  0  0  0  0  0  0  0  0  0
    2.9985   -4.5716   -0.6706 H   0  0  0  0  0  0  0  0  0  0  0  0
   -0.2623   -4.5741   -3.5013 H   0  0  0  0  0  0  0  0  0  0  0  0
   -2.3101   -1.7465    1.8817 H   0  0  0  0  0  0  0  0  0  0  0  0
   -2.6827   -2.0066    0.1887 H   0  0  0  0  0  0  0  0  0  0  0  0
    2.1594   -4.7634   -3.0144 H   0  0  0  0  0  0  0  0  0  0  0  0
   -4.4633   -0.4895    0.1617 H   0  0  0  0  0  0  0  0  0  0  0  0
   -5.8777   -0.7667    1.1493 H   0  0  0  0  0  0  0  0  0  0  0  0
   -5.8600   -2.5083    2.8635 H   0  0  0  0  0  0  0  0  0  0  0  0
   -4.4763   -3.5299    3.0990 H   0  0  0  0  0  0  0  0  0  0  0  0
   -3.2065    0.3744    2.1270 H   0  0  0  0  0  0  0  0  0  0  0  0
   -4.7067    1.2468    1.9364 H   0  0  0  0  0  0  0  0  0  0  0  0
   -3.1662   -1.5911    4.0230 H   0  0  0  0  0  0  0  0  0  0  0  0
   -4.6891   -1.8426    4.8761 H   0  0  0  0  0  0  0  0  0  0  0  0
   -6.6361    1.5217    2.9377 H   0  0  0  0  0  0  0  0  0  0  0  0
   -4.3276   -0.0241    6.2187 H   0  0  0  0  0  0  0  0  0  0  0  0
   -5.6705    1.2873    7.7905 H   0  0  0  0  0  0  0  0  0  0  0  0
   -7.4941    2.7476    6.9706 H   0  0  0  0  0  0  0  0  0  0  0  0
  1  2  1  0  0  0  0
  1  3  1  0  0  0  0
  1  4  2  0  0  0  0
  2  5  1  0  0  0  0
  2  6  1  0  0  0  0
  3  7  1  0  0  0  0
  3  8  2  0  0  0  0
  4  9  1  0  0  0  0
  4 29  1  0  0  0  0
  5 10  2  0  0  0  0
  5  7  1  0  0  0  0
  6 11  1  0  0  0  0
  6 30  1  0  0  0  0
  6 31  1  0  0  0  0
  7 32  1  0  0  0  0
  8 12  1  0  0  0  0
  8 33  1  0  0  0  0
  9 12  2  0  0  0  0
  9 34  1  0  0  0  0
 11 13  1  0  0  0  0
 11 35  1  0  0  0  0
 11 36  1  0  0  0  0
 12 37  1  0  0  0  0
 13 14  1  0  0  0  0
 13 15  1  0  0  0  0
 14 16  1  0  0  0  0
 14 38  1  0  0  0  0
 14 39  1  0  0  0  0
 15 17  1  0  0  0  0
 15 40  1  0  0  0  0
 15 41  1  0  0  0  0
 16 18  1  0  0  0  0
 16 42  1  0  0  0  0
 16 43  1  0  0  0  0
 17 18  1  0  0  0  0
 17 44  1  0  0  0  0
 17 45  1  0  0  0  0
 18 19  1  0  0  0  0
 19 20  2  0  0  0  0
 19 21  1  0  0  0  0
 20 22  1  0  0  0  0
 20 46  1  0  0  0  0
 21 23  2  0  0  0  0
 21 47  1  0  0  0  0
 22 24  2  0  0  0  0
 22 25  1  0  0  0  0
 23 24  1  0  0  0  0
 23 48  1  0  0  0  0
 24 49  1  0  0  0  0
 25 26  1  0  0  0  0
 25 27  1  0  0  0  0
 25 28  1  0  0  0  0
M  END
>  <Mol_ID>
1730

>  <Formula>
C20H21F3N4O

>  <MolWeight>
390.4021496

>  <Cat>
S3716

>  <Name>
Flibanserin

>  <Synonyms>
BIMT-17, BIMT-17-BS

>  <Target>
5-HT Receptor

>  <Form>
free base

>  <CAS>
167933-07-5

>  <URL>
http://selleckchem.com/products/flibanserin.html

$$$$
