S3726 Selexipag.cdx
 OpenBabel08302519503D

 67 69  0  0  0  0  0  0  0  0999 V2000
    2.2200   -3.7186   -2.2304 C   0  0  0  0  0  0  0  0  0  0  0  0
    3.1752   -2.9793   -1.2872 C   0  0  0  0  0  0  0  0  0  0  0  0
    1.7999   -3.1707   -3.2387 O   0  0  0  0  0  0  0  0  0  0  0  0
    1.8160   -5.0397   -1.9687 N   0  0  0  0  0  0  0  0  0  0  0  0
    2.3169   -6.1260   -0.8229 S   0  0  0  0  0  0  0  0  0  0  0  0
    2.2559   -7.4070   -1.4810 O   0  0  0  0  0  0  0  0  0  0  0  0
    3.5403   -5.6579   -0.2203 O   0  0  0  0  0  0  0  0  0  0  0  0
    0.9898   -6.0671    0.3689 C   0  0  0  0  0  0  0  0  0  0  0  0
    2.7301   -2.7790    0.0426 O   0  0  0  0  0  0  0  0  0  0  0  0
    1.6426   -1.8682    0.1502 C   0  0  0  0  0  0  0  0  0  0  0  0
    1.4320   -1.5457    1.6248 C   0  0  0  0  0  0  0  0  0  0  0  0
    2.6413   -0.8894    2.3023 C   0  0  0  0  0  0  0  0  0  0  0  0
    2.9187    0.5406    1.8257 C   0  0  0  0  0  0  0  0  0  0  0  0
    3.9044    1.2084    2.6873 N   0  0  0  0  0  0  0  0  0  0  0  0
    6.1162    2.2721    2.1737 C   0  0  0  0  0  0  0  0  0  0  0  0
    5.3353    0.9726    2.3811 C   0  0  0  0  0  0  0  0  0  0  0  0
    6.0092    0.0317    3.3833 C   0  0  0  0  0  0  0  0  0  0  0  0
    3.5339    1.7535    3.9132 C   0  0  0  0  0  0  0  0  0  0  0  0
    2.2274    1.7258    4.4093 C   0  0  0  0  0  0  0  0  0  0  0  0
    4.4789    2.3295    4.6870 N   0  0  0  0  0  0  0  0  0  0  0  0
    1.8302    2.2276    5.6068 N   0  0  0  0  0  0  0  0  0  0  0  0
    2.8026    2.7887    6.3690 C   0  0  0  0  0  0  0  0  0  0  0  0
    4.1424    2.8131    5.9198 C   0  0  0  0  0  0  0  0  0  0  0  0
    5.2992    3.3250    6.6995 C   0  0  0  0  0  0  0  0  0  0  0  0
    6.2487    4.1794    6.1118 C   0  0  0  0  0  0  0  0  0  0  0  0
    7.2139    4.8340    6.8867 C   0  0  0  0  0  0  0  0  0  0  0  0
    7.2381    4.6587    8.2678 C   0  0  0  0  0  0  0  0  0  0  0  0
    6.3676    3.7523    8.8595 C   0  0  0  0  0  0  0  0  0  0  0  0
    5.4537    3.0483    8.0715 C   0  0  0  0  0  0  0  0  0  0  0  0
    2.3406    3.2464    7.7007 C   0  0  0  0  0  0  0  0  0  0  0  0
    1.4841    2.4334    8.4651 C   0  0  0  0  0  0  0  0  0  0  0  0
    1.2755    2.6831    9.8244 C   0  0  0  0  0  0  0  0  0  0  0  0
    1.9242    3.7487   10.4411 C   0  0  0  0  0  0  0  0  0  0  0  0
    2.6858    4.6280    9.6794 C   0  0  0  0  0  0  0  0  0  0  0  0
    2.8366    4.4130    8.3074 C   0  0  0  0  0  0  0  0  0  0  0  0
    4.1246   -3.5205   -1.2628 H   0  0  0  0  0  0  0  0  0  0  0  0
    3.4082   -2.0054   -1.7389 H   0  0  0  0  0  0  0  0  0  0  0  0
    1.3175   -5.4766   -2.7469 H   0  0  0  0  0  0  0  0  0  0  0  0
    0.8672   -5.0510    0.7377 H   0  0  0  0  0  0  0  0  0  0  0  0
    0.0751   -6.4247   -0.1100 H   0  0  0  0  0  0  0  0  0  0  0  0
    1.2543   -6.7372    1.1872 H   0  0  0  0  0  0  0  0  0  0  0  0
    1.8320   -0.9536   -0.4260 H   0  0  0  0  0  0  0  0  0  0  0  0
    0.7405   -2.3487   -0.2485 H   0  0  0  0  0  0  0  0  0  0  0  0
    0.5442   -0.9151    1.7467 H   0  0  0  0  0  0  0  0  0  0  0  0
    1.2366   -2.4869    2.1548 H   0  0  0  0  0  0  0  0  0  0  0  0
    2.4542   -0.8939    3.3823 H   0  0  0  0  0  0  0  0  0  0  0  0
    3.5365   -1.5041    2.1543 H   0  0  0  0  0  0  0  0  0  0  0  0
    3.2887    0.5209    0.7926 H   0  0  0  0  0  0  0  0  0  0  0  0
    1.9935    1.1287    1.7735 H   0  0  0  0  0  0  0  0  0  0  0  0
    6.2382    2.8515    3.0907 H   0  0  0  0  0  0  0  0  0  0  0  0
    7.1237    2.0534    1.8024 H   0  0  0  0  0  0  0  0  0  0  0  0
    5.6190    2.9119    1.4368 H   0  0  0  0  0  0  0  0  0  0  0  0
    5.3891    0.4560    1.4131 H   0  0  0  0  0  0  0  0  0  0  0  0
    5.5201   -0.9477    3.3819 H   0  0  0  0  0  0  0  0  0  0  0  0
    7.0612   -0.1215    3.1203 H   0  0  0  0  0  0  0  0  0  0  0  0
    5.9848    0.4039    4.4104 H   0  0  0  0  0  0  0  0  0  0  0  0
    1.4188    1.2531    3.8659 H   0  0  0  0  0  0  0  0  0  0  0  0
    6.2182    4.3690    5.0401 H   0  0  0  0  0  0  0  0  0  0  0  0
    7.9257    5.5055    6.4138 H   0  0  0  0  0  0  0  0  0  0  0  0
    7.9367    5.2213    8.8810 H   0  0  0  0  0  0  0  0  0  0  0  0
    6.3688    3.6103    9.9371 H   0  0  0  0  0  0  0  0  0  0  0  0
    4.7888    2.3430    8.5677 H   0  0  0  0  0  0  0  0  0  0  0  0
    1.0185    1.5593    8.0121 H   0  0  0  0  0  0  0  0  0  0  0  0
    0.6442    2.0173   10.4052 H   0  0  0  0  0  0  0  0  0  0  0  0
    1.8372    3.8933   11.5142 H   0  0  0  0  0  0  0  0  0  0  0  0
    3.2091    5.4545   10.1533 H   0  0  0  0  0  0  0  0  0  0  0  0
    3.4547    5.1091    7.7421 H   0  0  0  0  0  0  0  0  0  0  0  0
  1  2  1  0  0  0  0
  1  3  2  0  0  0  0
  1  4  1  0  0  0  0
  2  9  1  0  0  0  0
  2 36  1  0  0  0  0
  2 37  1  0  0  0  0
  4  5  1  0  0  0  0
  4 38  1  0  0  0  0
  5  6  2  0  0  0  0
  5  7  2  0  0  0  0
  5  8  1  0  0  0  0
  8 39  1  0  0  0  0
  8 40  1  0  0  0  0
  8 41  1  0  0  0  0
  9 10  1  0  0  0  0
 10 11  1  0  0  0  0
 10 42  1  0  0  0  0
 10 43  1  0  0  0  0
 11 12  1  0  0  0  0
 11 44  1  0  0  0  0
 11 45  1  0  0  0  0
 12 13  1  0  0  0  0
 12 46  1  0  0  0  0
 12 47  1  0  0  0  0
 13 14  1  0  0  0  0
 13 48  1  0  0  0  0
 13 49  1  0  0  0  0
 14 16  1  0  0  0  0
 14 18  1  0  0  0  0
 15 16  1  0  0  0  0
 15 50  1  0  0  0  0
 15 51  1  0  0  0  0
 15 52  1  0  0  0  0
 16 17  1  0  0  0  0
 16 53  1  0  0  0  0
 17 54  1  0  0  0  0
 17 55  1  0  0  0  0
 17 56  1  0  0  0  0
 18 19  2  0  0  0  0
 18 20  1  0  0  0  0
 19 21  1  0  0  0  0
 19 57  1  0  0  0  0
 20 23  2  0  0  0  0
 21 22  2  0  0  0  0
 22 23  1  0  0  0  0
 22 30  1  0  0  0  0
 23 24  1  0  0  0  0
 24 25  2  0  0  0  0
 24 29  1  0  0  0  0
 25 26  1  0  0  0  0
 25 58  1  0  0  0  0
 26 27  2  0  0  0  0
 26 59  1  0  0  0  0
 27 28  1  0  0  0  0
 27 60  1  0  0  0  0
 28 29  2  0  0  0  0
 28 61  1  0  0  0  0
 29 62  1  0  0  0  0
 30 31  2  0  0  0  0
 30 35  1  0  0  0  0
 31 32  1  0  0  0  0
 31 63  1  0  0  0  0
 32 33  2  0  0  0  0
 32 64  1  0  0  0  0
 33 34  1  0  0  0  0
 33 65  1  0  0  0  0
 34 35  2  0  0  0  0
 34 66  1  0  0  0  0
 35 67  1  0  0  0  0
M  END
>  <Mol_ID>
1691

>  <Formula>
C26H32N4O4S

>  <MolWeight>
496.62168

>  <Cat>
S3726

>  <Name>
Selexipag

>  <Synonyms>
NS-304, ACT-293987

>  <Target>
Prostaglandin Receptor

>  <Form>
free base

>  <CAS>
475086-01-2

>  <URL>
http://selleckchem.com/products/selexipag.html

$$$$
