S3721 Bilastine.cdx
 OpenBabel08302521403D

 71 74  0  0  0  0  0  0  0  0999 V2000
    2.2391    0.0122    0.1046 C   0  0  0  0  0  0  0  0  0  0  0  0
    1.4319    1.0555    0.1327 N   0  0  0  0  0  0  0  0  0  0  0  0
    1.5044   -1.1628    0.0593 N   0  0  0  0  0  0  0  0  0  0  0  0
    0.1638   -0.8180    0.0740 C   0  0  0  0  0  0  0  0  0  0  0  0
    0.1642    0.5713    0.0869 C   0  0  0  0  0  0  0  0  0  0  0  0
    3.9147   11.0024    0.8120 C   0  0  0  0  0  0  0  0  0  0  0  0
    4.5200    3.0138    0.0781 N   0  0  0  0  0  0  0  0  0  0  0  0
    3.7435    0.1455    0.1005 C   0  0  0  0  0  0  0  0  0  0  0  0
    4.1657    9.4949    0.9775 C   0  0  0  0  0  0  0  0  0  0  0  0
    4.2438    0.8887    1.3441 C   0  0  0  0  0  0  0  0  0  0  0  0
    4.2218    0.8748   -1.1615 C   0  0  0  0  0  0  0  0  0  0  0  0
    5.3403    8.9186    0.4549 C   0  0  0  0  0  0  0  0  0  0  0  0
    3.2529    8.6463    1.6212 C   0  0  0  0  0  0  0  0  0  0  0  0
    3.9411    2.3815   -1.1236 C   0  0  0  0  0  0  0  0  0  0  0  0
    3.9717    2.3923    1.2961 C   0  0  0  0  0  0  0  0  0  0  0  0
    2.0132   -2.5235    0.0938 C   0  0  0  0  0  0  0  0  0  0  0  0
    4.2407    4.4679    0.0494 C   0  0  0  0  0  0  0  0  0  0  0  0
    4.6420    6.7108    1.1530 C   0  0  0  0  0  0  0  0  0  0  0  0
    3.4856    7.2717    1.7030 C   0  0  0  0  0  0  0  0  0  0  0  0
    5.5740    7.5451    0.5355 C   0  0  0  0  0  0  0  0  0  0  0  0
    4.8729    5.2254    1.2302 C   0  0  0  0  0  0  0  0  0  0  0  0
   -1.0329   -1.5470    0.0660 C   0  0  0  0  0  0  0  0  0  0  0  0
   -1.0411    1.2846    0.0694 C   0  0  0  0  0  0  0  0  0  0  0  0
    2.2389   -2.9166   -2.3036 O   0  0  0  0  0  0  0  0  0  0  0  0
    1.6337   -3.3972   -1.1031 C   0  0  0  0  0  0  0  0  0  0  0  0
    1.8423   -3.7024   -3.4299 C   0  0  0  0  0  0  0  0  0  0  0  0
   -2.2340   -0.8209    0.0259 C   0  0  0  0  0  0  0  0  0  0  0  0
   -2.2401    0.5729    0.0243 C   0  0  0  0  0  0  0  0  0  0  0  0
    2.4514   -3.1067   -4.6826 C   0  0  0  0  0  0  0  0  0  0  0  0
    5.0119   11.8135    1.5144 C   0  0  0  0  0  0  0  0  0  0  0  0
    3.9167   11.3365   -0.6977 C   0  0  0  0  0  0  0  0  0  0  0  0
    2.5613   11.4908    1.3731 C   0  0  0  0  0  0  0  0  0  0  0  0
    5.7863   12.5987    0.9879 O   0  0  0  0  0  0  0  0  0  0  0  0
    5.0806   11.5992    2.8438 O   0  0  0  0  0  0  0  0  0  0  0  0
    4.2103   -0.8425    0.1075 H   0  0  0  0  0  0  0  0  0  0  0  0
    3.8031    0.4687    2.2566 H   0  0  0  0  0  0  0  0  0  0  0  0
    5.3299    0.7429    1.4281 H   0  0  0  0  0  0  0  0  0  0  0  0
    5.3054    0.7272   -1.2634 H   0  0  0  0  0  0  0  0  0  0  0  0
    3.7605    0.4355   -2.0546 H   0  0  0  0  0  0  0  0  0  0  0  0
    6.0942    9.5384   -0.0290 H   0  0  0  0  0  0  0  0  0  0  0  0
    2.3390    9.0251    2.0702 H   0  0  0  0  0  0  0  0  0  0  0  0
    4.3901    2.8242   -2.0215 H   0  0  0  0  0  0  0  0  0  0  0  0
    2.8640    2.5755   -1.1944 H   0  0  0  0  0  0  0  0  0  0  0  0
    2.9020    2.6056    1.4039 H   0  0  0  0  0  0  0  0  0  0  0  0
    4.4619    2.8099    2.1816 H   0  0  0  0  0  0  0  0  0  0  0  0
    3.1003   -2.4946    0.1775 H   0  0  0  0  0  0  0  0  0  0  0  0
    1.6286   -2.9710    1.0176 H   0  0  0  0  0  0  0  0  0  0  0  0
    4.6502    4.8843   -0.8817 H   0  0  0  0  0  0  0  0  0  0  0  0
    3.1578    4.6544    0.0224 H   0  0  0  0  0  0  0  0  0  0  0  0
    2.7528    6.6394    2.2007 H   0  0  0  0  0  0  0  0  0  0  0  0
    6.4842    7.1317    0.1051 H   0  0  0  0  0  0  0  0  0  0  0  0
    4.4565    4.8843    2.1847 H   0  0  0  0  0  0  0  0  0  0  0  0
    5.9498    5.0205    1.2753 H   0  0  0  0  0  0  0  0  0  0  0  0
   -1.0530   -2.6298    0.0711 H   0  0  0  0  0  0  0  0  0  0  0  0
   -1.0250    2.3692    0.0796 H   0  0  0  0  0  0  0  0  0  0  0  0
    1.9987   -4.4149   -0.9181 H   0  0  0  0  0  0  0  0  0  0  0  0
    0.5500   -3.4505   -1.2364 H   0  0  0  0  0  0  0  0  0  0  0  0
    2.1925   -4.7323   -3.2979 H   0  0  0  0  0  0  0  0  0  0  0  0
    0.7497   -3.7062   -3.5184 H   0  0  0  0  0  0  0  0  0  0  0  0
   -3.1788   -1.3569   -0.0094 H   0  0  0  0  0  0  0  0  0  0  0  0
   -3.1817    1.1145   -0.0113 H   0  0  0  0  0  0  0  0  0  0  0  0
    3.5424   -3.0761   -4.6044 H   0  0  0  0  0  0  0  0  0  0  0  0
    2.1759   -3.6922   -5.5648 H   0  0  0  0  0  0  0  0  0  0  0  0
    2.1097   -2.0764   -4.8232 H   0  0  0  0  0  0  0  0  0  0  0  0
    3.1728   10.7361   -1.2356 H   0  0  0  0  0  0  0  0  0  0  0  0
    3.6863   12.3955   -0.8712 H   0  0  0  0  0  0  0  0  0  0  0  0
    4.8906   11.1481   -1.1643 H   0  0  0  0  0  0  0  0  0  0  0  0
    1.7191   10.9881    0.8832 H   0  0  0  0  0  0  0  0  0  0  0  0
    2.4766   11.3165    2.4520 H   0  0  0  0  0  0  0  0  0  0  0  0
    2.4365   12.5690    1.2176 H   0  0  0  0  0  0  0  0  0  0  0  0
    5.8411   12.1416    3.1336 H   0  0  0  0  0  0  0  0  0  0  0  0
  2  1  2  0  0  0  0
  3  1  1  0  0  0  0
  4  3  1  0  0  0  0
  5  2  1  0  0  0  0
  5  4  2  0  0  0  0
  6  9  1  0  0  0  0
  6 30  1  0  0  0  0
  6 31  1  0  0  0  0
  6 32  1  0  0  0  0
  7 14  1  0  0  0  0
  7 15  1  0  0  0  0
  8  1  1  0  0  0  0
  8 35  1  0  0  0  0
  9 13  2  0  0  0  0
  9 12  1  0  0  0  0
 10  8  1  0  0  0  0
 10 36  1  0  0  0  0
 10 37  1  0  0  0  0
 11  8  1  0  0  0  0
 11 38  1  0  0  0  0
 11 39  1  0  0  0  0
 12 20  2  0  0  0  0
 12 40  1  0  0  0  0
 13 19  1  0  0  0  0
 13 41  1  0  0  0  0
 14 11  1  0  0  0  0
 14 42  1  0  0  0  0
 14 43  1  0  0  0  0
 15 10  1  0  0  0  0
 15 44  1  0  0  0  0
 15 45  1  0  0  0  0
 16  3  1  0  0  0  0
 16 46  1  0  0  0  0
 16 47  1  0  0  0  0
 17  7  1  0  0  0  0
 17 48  1  0  0  0  0
 17 49  1  0  0  0  0
 18 21  1  0  0  0  0
 19 18  2  0  0  0  0
 19 50  1  0  0  0  0
 20 18  1  0  0  0  0
 20 51  1  0  0  0  0
 21 17  1  0  0  0  0
 21 52  1  0  0  0  0
 21 53  1  0  0  0  0
 22  4  1  0  0  0  0
 22 54  1  0  0  0  0
 23  5  1  0  0  0  0
 23 55  1  0  0  0  0
 24 25  1  0  0  0  0
 25 16  1  0  0  0  0
 25 56  1  0  0  0  0
 25 57  1  0  0  0  0
 26 24  1  0  0  0  0
 26 29  1  0  0  0  0
 26 58  1  0  0  0  0
 26 59  1  0  0  0  0
 27 22  2  0  0  0  0
 27 28  1  0  0  0  0
 27 60  1  0  0  0  0
 28 23  2  0  0  0  0
 28 61  1  0  0  0  0
 29 62  1  0  0  0  0
 29 63  1  0  0  0  0
 29 64  1  0  0  0  0
 30 33  2  0  0  0  0
 30 34  1  0  0  0  0
 31 65  1  0  0  0  0
 31 66  1  0  0  0  0
 31 67  1  0  0  0  0
 32 68  1  0  0  0  0
 32 69  1  0  0  0  0
 32 70  1  0  0  0  0
 34 71  1  0  0  0  0
M  END
>  <Mol_ID>
8247

>  <Formula>
C28H37N3O3

>  <MolWeight>
463.61168

>  <Cat>
S3721

>  <Name>
Bilastine

>  <Synonyms>
N/A

>  <Target>
Histamine Receptor

>  <Form>
free base

>  <CAS>
202189-78-4

>  <URL>
http://selleckchem.com/products/bilastine.html

$$$$
