S3723 Ramosetron  Hydrochloride.cdx
 OpenBabel08302519503D

 38 41  0  0  0  0  0  0  0  0999 V2000
   -0.1605   -0.9156    0.5292 C   0  0  0  0  0  0  0  0  0  0  0  0
    0.8700   -1.7608   -0.0067 C   0  0  0  0  0  0  0  0  0  0  0  0
    0.2292    0.4127    0.3251 C   0  0  0  0  0  0  0  0  0  0  0  0
   -1.3831   -1.1644    1.1869 C   0  0  0  0  0  0  0  0  0  0  0  0
    0.8850   -3.2300   -0.0179 C   0  0  0  0  0  0  0  0  0  0  0  0
    1.8406   -0.9205   -0.5230 C   0  0  0  0  0  0  0  0  0  0  0  0
    1.4379    0.3762   -0.3321 N   0  0  0  0  0  0  0  0  0  0  0  0
   -0.5586    1.4952    0.7502 C   0  0  0  0  0  0  0  0  0  0  0  0
   -2.1746   -0.0932    1.6165 C   0  0  0  0  0  0  0  0  0  0  0  0
    2.2302   -3.9585   -0.0677 C   0  0  1  0  0  0  0  0  0  0  0  0
   -0.1713   -3.8644    0.0219 O   0  0  0  0  0  0  0  0  0  0  0  0
    2.1727    1.5425   -0.7735 C   0  0  0  0  0  0  0  0  0  0  0  0
   -1.7648    1.2182    1.3998 C   0  0  0  0  0  0  0  0  0  0  0  0
    3.0367   -3.6780    1.2299 C   0  0  0  0  0  0  0  0  0  0  0  0
    2.0353   -5.4872   -0.3053 C   0  0  0  0  0  0  0  0  0  0  0  0
    4.1600   -4.6413    1.3324 C   0  0  0  0  0  0  0  0  0  0  0  0
    3.3779   -6.2325   -0.4569 C   0  0  0  0  0  0  0  0  0  0  0  0
    4.3211   -5.7922    0.5980 C   0  0  0  0  0  0  0  0  0  0  0  0
    5.2272   -4.6024    2.1826 N   0  0  0  0  0  0  0  0  0  0  0  0
    5.4637   -6.4472    0.9567 N   0  0  0  0  0  0  0  0  0  0  0  0
    5.9853   -5.7128    1.9168 C   0  0  0  0  0  0  0  0  0  0  0  0
   -1.7159   -2.1858    1.3595 H   0  0  0  0  0  0  0  0  0  0  0  0
    2.7703   -1.1377   -1.0324 H   0  0  0  0  0  0  0  0  0  0  0  0
   -0.2508    2.5222    0.5831 H   0  0  0  0  0  0  0  0  0  0  0  0
   -3.1171   -0.2917    2.1204 H   0  0  0  0  0  0  0  0  0  0  0  0
    2.7869   -3.5743   -0.9338 H   0  0  0  0  0  0  0  0  0  0  0  0
    1.5505    2.0922   -1.4857 H   0  0  0  0  0  0  0  0  0  0  0  0
    2.4011    2.1600    0.0983 H   0  0  0  0  0  0  0  0  0  0  0  0
    3.1002    1.2294   -1.2590 H   0  0  0  0  0  0  0  0  0  0  0  0
   -2.3932    2.0392    1.7384 H   0  0  0  0  0  0  0  0  0  0  0  0
    3.4269   -2.6542    1.2190 H   0  0  0  0  0  0  0  0  0  0  0  0
    2.3937   -3.7699    2.1141 H   0  0  0  0  0  0  0  0  0  0  0  0
    1.4782   -5.9195    0.5381 H   0  0  0  0  0  0  0  0  0  0  0  0
    1.4262   -5.6600   -1.2008 H   0  0  0  0  0  0  0  0  0  0  0  0
    3.2159   -7.3143   -0.4038 H   0  0  0  0  0  0  0  0  0  0  0  0
    3.8103   -6.0077   -1.4387 H   0  0  0  0  0  0  0  0  0  0  0  0
    5.4287   -3.9005    2.8815 H   0  0  0  0  0  0  0  0  0  0  0  0
    6.8994   -5.9317    2.4530 H   0  0  0  0  0  0  0  0  0  0  0  0
  1  2  1  0  0  0  0
  1  3  1  0  0  0  0
  1  4  2  0  0  0  0
  2  5  1  0  0  0  0
  2  6  2  0  0  0  0
  3  7  1  0  0  0  0
  3  8  2  0  0  0  0
  4  9  1  0  0  0  0
  4 22  1  0  0  0  0
  5 11  2  0  0  0  0
  6  7  1  0  0  0  0
  6 23  1  0  0  0  0
  7 12  1  0  0  0  0
  8 13  1  0  0  0  0
  8 24  1  0  0  0  0
  9 13  2  0  0  0  0
  9 25  1  0  0  0  0
 10  5  1  0  0  0  0
 10 14  1  0  0  0  0
 10 15  1  0  0  0  0
 10 26  1  6  0  0  0
 12 27  1  0  0  0  0
 12 28  1  0  0  0  0
 12 29  1  0  0  0  0
 13 30  1  0  0  0  0
 14 16  1  0  0  0  0
 14 31  1  0  0  0  0
 14 32  1  0  0  0  0
 15 17  1  0  0  0  0
 15 33  1  0  0  0  0
 15 34  1  0  0  0  0
 16 18  2  0  0  0  0
 16 19  1  0  0  0  0
 17 18  1  0  0  0  0
 17 35  1  0  0  0  0
 17 36  1  0  0  0  0
 18 20  1  0  0  0  0
 19 37  1  0  0  0  0
 20 21  2  0  0  0  0
 21 19  1  0  0  0  0
 21 38  1  0  0  0  0
M  END
>  <Mol_ID>
1719

>  <Formula>
C17H18ClN3O

>  <MolWeight>
315.79732

>  <Cat>
S3723

>  <Name>
Ramosetron Hydrochloride

>  <Synonyms>
YM-060

>  <Target>
5-HT Receptor

>  <Form>
hydrochloride

>  <CAS>
132907-72-3

>  <URL>
http://selleckchem.com/products/ramosetron-hydrochloride.html

$$$$
