S3731 Tipiracil hydrochloride.cdx
 OpenBabel08302519503D

 27 28  0  0  0  0  0  0  0  0999 V2000
   -1.0698    0.2881   -0.6250 C   0  0  0  0  0  0  0  0  0  0  0  0
    0.0540    0.9350   -0.1931 N   0  0  0  0  0  0  0  0  0  0  0  0
    1.1372    0.3304    0.3768 C   0  0  0  0  0  0  0  0  0  0  0  0
    1.1075   -1.1423    0.4225 C   0  0  0  0  0  0  0  0  0  0  0  0
    0.0174   -1.7893   -0.0116 C   0  0  0  0  0  0  0  0  0  0  0  0
   -1.0464   -1.0733   -0.5116 N   0  0  0  0  0  0  0  0  0  0  0  0
   -2.0309    0.8986   -1.0810 O   0  0  0  0  0  0  0  0  0  0  0  0
    2.0893    0.9501    0.8325 O   0  0  0  0  0  0  0  0  0  0  0  0
   -0.1069   -3.2950    0.0185 C   0  0  0  0  0  0  0  0  0  0  0  0
   -0.8018   -3.6816    1.2202 N   0  0  0  0  0  0  0  0  0  0  0  0
   -2.1536   -3.7653    1.3693 C   0  0  0  0  0  0  0  0  0  0  0  0
   -2.4856   -4.1934    2.7800 C   0  0  0  0  0  0  0  0  0  0  0  0
   -1.1675   -3.8901    3.4991 C   0  0  0  0  0  0  0  0  0  0  0  0
   -0.0883   -4.0455    2.4253 C   0  0  0  0  0  0  0  0  0  0  0  0
   -3.0411   -3.5400    0.4650 N   0  0  0  0  0  0  0  0  0  0  0  0
    0.0469    1.9409   -0.2327 H   0  0  0  0  0  0  0  0  0  0  0  0
    1.9692   -1.6392    0.8471 H   0  0  0  0  0  0  0  0  0  0  0  0
   -1.8979   -1.5722   -0.7720 H   0  0  0  0  0  0  0  0  0  0  0  0
   -0.6351   -3.6515   -0.8749 H   0  0  0  0  0  0  0  0  0  0  0  0
    0.8841   -3.7625   -0.0128 H   0  0  0  0  0  0  0  0  0  0  0  0
   -3.3256   -3.6288    3.1913 H   0  0  0  0  0  0  0  0  0  0  0  0
   -2.7109   -5.2639    2.7865 H   0  0  0  0  0  0  0  0  0  0  0  0
   -1.1792   -2.8523    3.8555 H   0  0  0  0  0  0  0  0  0  0  0  0
   -0.9952   -4.5379    4.3633 H   0  0  0  0  0  0  0  0  0  0  0  0
    0.7706   -3.3977    2.6258 H   0  0  0  0  0  0  0  0  0  0  0  0
    0.2523   -5.0843    2.3594 H   0  0  0  0  0  0  0  0  0  0  0  0
   -3.9785   -3.6989    0.8527 H   0  0  0  0  0  0  0  0  0  0  0  0
  1  2  1  0  0  0  0
  1  6  1  0  0  0  0
  1  7  2  0  0  0  0
  2  3  1  0  0  0  0
  2 16  1  0  0  0  0
  3  4  1  0  0  0  0
  3  8  2  0  0  0  0
  4  5  2  0  0  0  0
  4 17  1  0  0  0  0
  5  6  1  0  0  0  0
  5  9  1  0  0  0  0
  6 18  1  0  0  0  0
  9 10  1  0  0  0  0
  9 19  1  0  0  0  0
  9 20  1  0  0  0  0
 10 11  1  0  0  0  0
 10 14  1  0  0  0  0
 11 12  1  0  0  0  0
 11 15  2  0  0  0  0
 12 13  1  0  0  0  0
 12 21  1  0  0  0  0
 12 22  1  0  0  0  0
 13 14  1  0  0  0  0
 13 23  1  0  0  0  0
 13 24  1  0  0  0  0
 14 25  1  0  0  0  0
 14 26  1  0  0  0  0
 15 27  1  0  0  0  0
M  END
>  <Mol_ID>
1693

>  <Formula>
C9H12Cl2N4O2

>  <MolWeight>
279.12318

>  <Cat>
S3731

>  <Name>
Tipiracil hydrochloride

>  <Synonyms>
MA-1 hydrochloride

>  <Target>
Phosphorylase,Thymidylate Synthase

>  <Form>
hydrochloride

>  <CAS>
183204-72-0

>  <URL>
http://selleckchem.com/products/tipiracil-hydrochloride.html

$$$$
