S3730 Metaxalone.cdx
 OpenBabel08302519503D

 31 32  0  0  0  0  0  0  0  0999 V2000
    0.0350   -1.7331    0.2968 C   0  0  0  0  0  0  0  0  0  0  0  0
    1.1936   -0.9662    0.4511 C   0  0  0  0  0  0  0  0  0  0  0  0
   -0.0002   -3.1086    0.2676 O   0  0  0  0  0  0  0  0  0  0  0  0
   -1.1908   -1.0806    0.1239 C   0  0  0  0  0  0  0  0  0  0  0  0
    1.1576    0.4274    0.3307 C   0  0  0  0  0  0  0  0  0  0  0  0
    1.2774   -3.7534    0.3116 C   0  0  0  0  0  0  0  0  0  0  0  0
   -1.2582    0.3220    0.0779 C   0  0  0  0  0  0  0  0  0  0  0  0
   -0.0742    1.0660    0.1623 C   0  0  0  0  0  0  0  0  0  0  0  0
    2.4307    1.2201    0.3470 C   0  0  0  0  0  0  0  0  0  0  0  0
    1.1943   -5.2214   -0.1109 C   0  0  3  0  0  0  0  0  0  0  0  0
   -2.5653    1.0401   -0.0893 C   0  0  0  0  0  0  0  0  0  0  0  0
    2.5186   -5.7926   -0.0322 O   0  0  0  0  0  0  0  0  0  0  0  0
    0.3764   -6.0933    0.8148 C   0  0  0  0  0  0  0  0  0  0  0  0
    2.6041   -6.5014    1.1372 C   0  0  0  0  0  0  0  0  0  0  0  0
    1.3675   -6.5791    1.7139 N   0  0  0  0  0  0  0  0  0  0  0  0
    3.6211   -7.0045    1.5740 O   0  0  0  0  0  0  0  0  0  0  0  0
    2.1565   -1.4287    0.6399 H   0  0  0  0  0  0  0  0  0  0  0  0
   -2.0974   -1.6714    0.0159 H   0  0  0  0  0  0  0  0  0  0  0  0
    1.9789   -3.2792   -0.3865 H   0  0  0  0  0  0  0  0  0  0  0  0
    1.6908   -3.6702    1.3249 H   0  0  0  0  0  0  0  0  0  0  0  0
   -0.1114    2.1514    0.0851 H   0  0  0  0  0  0  0  0  0  0  0  0
    2.4935    1.8388   -0.5542 H   0  0  0  0  0  0  0  0  0  0  0  0
    2.4792    1.8576    1.2337 H   0  0  0  0  0  0  0  0  0  0  0  0
    3.3078    0.5628    0.3478 H   0  0  0  0  0  0  0  0  0  0  0  0
    0.8227   -5.2951   -1.1386 H   0  0  0  0  0  0  0  0  0  0  0  0
   -2.7120    1.7491    0.7330 H   0  0  0  0  0  0  0  0  0  0  0  0
   -2.5761    1.5881   -1.0370 H   0  0  0  0  0  0  0  0  0  0  0  0
   -3.4122    0.3468   -0.0862 H   0  0  0  0  0  0  0  0  0  0  0  0
   -0.0278   -6.9592    0.2786 H   0  0  0  0  0  0  0  0  0  0  0  0
   -0.4304   -5.5844    1.3466 H   0  0  0  0  0  0  0  0  0  0  0  0
    1.2180   -7.2408    2.4662 H   0  0  0  0  0  0  0  0  0  0  0  0
  1  2  2  0  0  0  0
  1  3  1  0  0  0  0
  1  4  1  0  0  0  0
  2  5  1  0  0  0  0
  2 17  1  0  0  0  0
  3  6  1  0  0  0  0
  4  7  2  0  0  0  0
  4 18  1  0  0  0  0
  5  8  2  0  0  0  0
  5  9  1  0  0  0  0
  6 10  1  0  0  0  0
  6 19  1  0  0  0  0
  6 20  1  0  0  0  0
  7 11  1  0  0  0  0
  7  8  1  0  0  0  0
  8 21  1  0  0  0  0
  9 22  1  0  0  0  0
  9 23  1  0  0  0  0
  9 24  1  0  0  0  0
 10 12  1  0  0  0  0
 10 13  1  0  0  0  0
 10 25  1  0  0  0  0
 11 26  1  0  0  0  0
 11 27  1  0  0  0  0
 11 28  1  0  0  0  0
 12 14  1  0  0  0  0
 13 15  1  0  0  0  0
 13 29  1  0  0  0  0
 13 30  1  0  0  0  0
 14 16  2  0  0  0  0
 14 15  1  0  0  0  0
 15 31  1  0  0  0  0
M  END
>  <Mol_ID>
1739

>  <Formula>
C12H15NO3

>  <MolWeight>
221.2524

>  <Cat>
S3730

>  <Name>
Metaxalone

>  <Synonyms>
Skelaxin, Methaxalonum, Zorane

>  <Target>
Others

>  <Form>
free base

>  <CAS>
1665-48-1

>  <URL>
http://selleckchem.com/products/metaxalone.html

$$$$
