S3754 4-Hydroxybenzoic acid.cdx
 OpenBabel08302519513D

 16 16  0  0  0  0  0  0  0  0999 V2000
   -1.9113    0.0858   -0.0322 C   0  0  0  0  0  0  0  0  0  0  0  0
   -3.3979    0.0532   -0.0127 C   0  0  0  0  0  0  0  0  0  0  0  0
   -1.2407   -1.1482   -0.0156 C   0  0  0  0  0  0  0  0  0  0  0  0
   -1.1683    1.2734   -0.0157 C   0  0  0  0  0  0  0  0  0  0  0  0
   -4.0013    1.1039   -0.6033 O   0  0  0  0  0  0  0  0  0  0  0  0
   -4.0229   -0.8809    0.4667 O   0  0  0  0  0  0  0  0  0  0  0  0
    0.1561   -1.2008   -0.0044 C   0  0  0  0  0  0  0  0  0  0  0  0
    0.2311    1.2178   -0.0040 C   0  0  0  0  0  0  0  0  0  0  0  0
    0.8793   -0.0139   -0.0017 C   0  0  0  0  0  0  0  0  0  0  0  0
    2.2415   -0.0135    0.0094 O   0  0  0  0  0  0  0  0  0  0  0  0
   -1.8106   -2.0767   -0.0056 H   0  0  0  0  0  0  0  0  0  0  0  0
   -1.6450    2.2477    0.0218 H   0  0  0  0  0  0  0  0  0  0  0  0
   -3.4149    1.7306   -1.0621 H   0  0  0  0  0  0  0  0  0  0  0  0
    0.6497   -2.1660    0.0108 H   0  0  0  0  0  0  0  0  0  0  0  0
    0.8191    2.1327    0.0178 H   0  0  0  0  0  0  0  0  0  0  0  0
    2.5576   -0.9335   -0.0020 H   0  0  0  0  0  0  0  0  0  0  0  0
  1  2  1  0  0  0  0
  1  3  2  0  0  0  0
  1  4  1  0  0  0  0
  2  5  1  0  0  0  0
  2  6  2  0  0  0  0
  3  7  1  0  0  0  0
  3 11  1  0  0  0  0
  4  8  2  0  0  0  0
  4 12  1  0  0  0  0
  5 13  1  0  0  0  0
  7  9  2  0  0  0  0
  7 14  1  0  0  0  0
  8  9  1  0  0  0  0
  8 15  1  0  0  0  0
  9 10  1  0  0  0  0
 10 16  1  0  0  0  0
M  END
>  <Mol_ID>
1816

>  <Formula>
C7H6O3

>  <MolWeight>
138.12074

>  <Cat>
S3754

>  <Name>
4-Hydroxybenzoic acid

>  <Synonyms>
p-hydroxybenzoic acid, PHBA, para-Hydroxybenzoic acid, 4-hydroxybenzoate

>  <Target>
Others

>  <Form>
free base

>  <CAS>
99-96-7

>  <URL>
http://selleckchem.com/products/4-hydroxybenzoic-acid.html

$$$$
