S3758 Sinomenine hydrochloride.cdx
 OpenBabel08302519513D

 47 50  0  0  0  0  0  0  0  0999 V2000
    3.1948   -2.9930    0.0665 C   0  0  0  0  0  0  0  0  0  0  0  0
    1.8300   -2.9341    0.3887 C   0  0  0  0  0  0  0  0  0  0  0  0
    1.0028   -1.9428   -0.1467 C   0  0  0  0  0  0  0  0  0  0  0  0
    1.4992   -1.2541   -1.2824 C   0  0  0  0  0  0  0  0  0  0  0  0
    2.8429   -1.3907   -1.6751 C   0  0  0  0  0  0  0  0  0  0  0  0
    3.7055   -2.2109   -0.9598 C   0  0  0  0  0  0  0  0  0  0  0  0
   -0.2095   -1.3095    0.5976 C   0  0  1  0  0  0  0  0  0  0  0  0
   -1.2593   -0.8377   -0.4351 C   0  0  1  0  0  0  0  0  0  0  0  0
   -0.6283    0.1719   -1.4088 C   0  0  3  0  0  0  0  0  0  0  0  0
    0.5857   -0.4153   -2.1445 C   0  0  0  0  0  0  0  0  0  0  0  0
   -0.9554   -2.1486    1.6829 C   0  0  0  0  0  0  0  0  0  0  0  0
   -2.3489   -2.6175    1.3121 C   0  0  0  0  0  0  0  0  0  0  0  0
   -2.6574   -2.8288   -0.1466 C   0  0  0  0  0  0  0  0  0  0  0  0
   -2.0272   -2.0059   -0.9998 C   0  0  0  0  0  0  0  0  0  0  0  0
   -3.1914   -2.8048    2.1874 O   0  0  0  0  0  0  0  0  0  0  0  0
    3.9824   -3.8345    0.8157 O   0  0  0  0  0  0  0  0  0  0  0  0
    1.3134   -3.9253    1.1729 O   0  0  0  0  0  0  0  0  0  0  0  0
   -3.5817   -3.7471   -0.6048 O   0  0  0  0  0  0  0  0  0  0  0  0
    0.4103   -0.0192    1.2837 C   0  0  0  0  0  0  0  0  0  0  0  0
   -0.1858    1.4135   -0.7004 N   0  0  0  0  0  0  0  0  0  0  0  0
   -1.0073    2.5499   -1.1163 C   0  0  0  0  0  0  0  0  0  0  0  0
   -4.7429   -3.8640    0.2179 C   0  0  0  0  0  0  0  0  0  0  0  0
    5.1844   -3.1928    1.2593 C   0  0  0  0  0  0  0  0  0  0  0  0
   -0.1710    1.2974    0.7594 C   0  0  0  0  0  0  0  0  0  0  0  0
    3.2321   -0.8155   -2.5117 H   0  0  0  0  0  0  0  0  0  0  0  0
    4.7536   -2.2567   -1.2349 H   0  0  0  0  0  0  0  0  0  0  0  0
   -2.0468   -0.2704    0.0869 H   0  0  0  0  0  0  0  0  0  0  0  0
   -1.3685    0.4244   -2.1807 H   0  0  0  0  0  0  0  0  0  0  0  0
    1.1511    0.3893   -2.6282 H   0  0  0  0  0  0  0  0  0  0  0  0
    0.2297   -1.0683   -2.9529 H   0  0  0  0  0  0  0  0  0  0  0  0
   -1.1019   -1.5335    2.5808 H   0  0  0  0  0  0  0  0  0  0  0  0
   -0.4213   -3.0275    2.0323 H   0  0  0  0  0  0  0  0  0  0  0  0
   -2.2001   -2.0880   -2.0678 H   0  0  0  0  0  0  0  0  0  0  0  0
    1.8733   -4.7064    0.9967 H   0  0  0  0  0  0  0  0  0  0  0  0
    1.5007    0.0152    1.1690 H   0  0  0  0  0  0  0  0  0  0  0  0
    0.2599   -0.0406    2.3687 H   0  0  0  0  0  0  0  0  0  0  0  0
   -0.9033    2.7246   -2.1947 H   0  0  0  0  0  0  0  0  0  0  0  0
   -2.0646    2.4178   -0.8794 H   0  0  0  0  0  0  0  0  0  0  0  0
   -0.6547    3.4695   -0.6274 H   0  0  0  0  0  0  0  0  0  0  0  0
   -5.5102   -4.3898   -0.3587 H   0  0  0  0  0  0  0  0  0  0  0  0
   -5.1497   -2.8824    0.4900 H   0  0  0  0  0  0  0  0  0  0  0  0
   -4.5343   -4.4659    1.1077 H   0  0  0  0  0  0  0  0  0  0  0  0
    5.4609   -3.6119    2.2319 H   0  0  0  0  0  0  0  0  0  0  0  0
    5.0714   -2.1086    1.3934 H   0  0  0  0  0  0  0  0  0  0  0  0
    5.9935   -3.4014    0.5522 H   0  0  0  0  0  0  0  0  0  0  0  0
   -1.1808    1.4225    1.1727 H   0  0  0  0  0  0  0  0  0  0  0  0
    0.4289    2.1195    1.1641 H   0  0  0  0  0  0  0  0  0  0  0  0
  1  2  2  0  0  0  0
  1 16  1  0  0  0  0
  2  3  1  0  0  0  0
  2 17  1  0  0  0  0
  3  4  2  0  0  0  0
  4  5  1  0  0  0  0
  5  6  2  0  0  0  0
  5 25  1  0  0  0  0
  6  1  1  0  0  0  0
  6 26  1  0  0  0  0
  7  3  1  6  0  0  0
  7  8  1  0  0  0  0
  7 11  1  0  0  0  0
  7 19  1  0  0  0  0
  8  9  1  0  0  0  0
  8 14  1  0  0  0  0
  8 27  1  1  0  0  0
  9 10  1  0  0  0  0
  9 28  1  0  0  0  0
 10  4  1  0  0  0  0
 10 29  1  0  0  0  0
 10 30  1  0  0  0  0
 11 12  1  0  0  0  0
 11 31  1  0  0  0  0
 11 32  1  0  0  0  0
 12 13  1  0  0  0  0
 12 15  2  0  0  0  0
 13 14  2  0  0  0  0
 13 18  1  0  0  0  0
 14 33  1  0  0  0  0
 16 23  1  0  0  0  0
 17 34  1  0  0  0  0
 18 22  1  0  0  0  0
 19 35  1  0  0  0  0
 19 36  1  0  0  0  0
 20  9  1  0  0  0  0
 20 21  1  0  0  0  0
 20 24  1  0  0  0  0
 21 37  1  0  0  0  0
 21 38  1  0  0  0  0
 21 39  1  0  0  0  0
 22 40  1  0  0  0  0
 22 41  1  0  0  0  0
 22 42  1  0  0  0  0
 23 43  1  0  0  0  0
 23 44  1  0  0  0  0
 23 45  1  0  0  0  0
 24 19  1  0  0  0  0
 24 46  1  0  0  0  0
 24 47  1  0  0  0  0
M  END
>  <Mol_ID>
1800

>  <Formula>
C19H24ClNO4

>  <MolWeight>
365.85116

>  <Cat>
S3758

>  <Name>
Sinomenine hydrochloride

>  <Synonyms>
Cucoline hydrochloride, Kukoline hydrochloride, Sabianine A hydrochloride

>  <Target>
Autophagy,Immunology & Inflammation related

>  <Form>
hydrochloride

>  <CAS>
6080-33-7

>  <URL>
http://selleckchem.com/products/sinomenine-hydrochloride.html

$$$$
