S3757 2'-Deoxyinosine.cdx
 OpenBabel08302519513D

 30 32  0  0  0  0  0  0  0  0999 V2000
    1.5860   -1.0442    0.0188 N   0  0  0  0  0  0  0  0  0  0  0  0
    0.7426   -0.4282   -0.8663 C   0  0  0  0  0  0  0  0  0  0  0  0
    2.0515   -2.4152   -0.0600 C   0  0  2  0  0  0  0  0  0  0  0  0
    1.8876   -0.1224    0.9903 C   0  0  0  0  0  0  0  0  0  0  0  0
    0.6161    0.8614   -0.3964 C   0  0  0  0  0  0  0  0  0  0  0  0
    0.1750   -0.9857   -1.9667 N   0  0  0  0  0  0  0  0  0  0  0  0
    2.8800   -2.7154    1.0862 O   0  0  0  0  0  0  0  0  0  0  0  0
    2.8885   -2.7153   -1.2936 C   0  0  0  0  0  0  0  0  0  0  0  0
    1.3305    1.0488    0.7570 N   0  0  0  0  0  0  0  0  0  0  0  0
   -0.2137    1.7834   -1.1464 C   0  0  0  0  0  0  0  0  0  0  0  0
   -0.5723   -0.1365   -2.6169 C   0  0  0  0  0  0  0  0  0  0  0  0
    4.0246   -3.4906    0.6567 C   0  0  1  0  0  0  0  0  0  0  0  0
    3.7971   -3.8230   -0.8164 C   0  0  1  0  0  0  0  0  0  0  0  0
   -0.7813    1.1837   -2.2624 N   0  0  0  0  0  0  0  0  0  0  0  0
   -0.4199    2.9580   -0.8736 O   0  0  0  0  0  0  0  0  0  0  0  0
    5.2997   -2.6662    0.8710 C   0  0  0  0  0  0  0  0  0  0  0  0
    3.1301   -5.0759   -0.9748 O   0  0  0  0  0  0  0  0  0  0  0  0
    5.4863   -2.3638    2.2512 O   0  0  0  0  0  0  0  0  0  0  0  0
    1.1690   -3.0633   -0.0019 H   0  0  0  0  0  0  0  0  0  0  0  0
    2.5136   -0.3553    1.8413 H   0  0  0  0  0  0  0  0  0  0  0  0
    3.4838   -1.8400   -1.5802 H   0  0  0  0  0  0  0  0  0  0  0  0
    2.2640   -3.0014   -2.1458 H   0  0  0  0  0  0  0  0  0  0  0  0
   -1.1077   -0.4347   -3.5312 H   0  0  0  0  0  0  0  0  0  0  0  0
    4.0520   -4.3876    1.2852 H   0  0  0  0  0  0  0  0  0  0  0  0
    4.7239   -3.8817   -1.3941 H   0  0  0  0  0  0  0  0  0  0  0  0
   -1.3716    1.7825   -2.8196 H   0  0  0  0  0  0  0  0  0  0  0  0
    6.1759   -3.2317    0.5390 H   0  0  0  0  0  0  0  0  0  0  0  0
    5.2678   -1.7170    0.3274 H   0  0  0  0  0  0  0  0  0  0  0  0
    2.4313   -5.1620   -0.3021 H   0  0  0  0  0  0  0  0  0  0  0  0
    4.7762   -1.7467    2.5050 H   0  0  0  0  0  0  0  0  0  0  0  0
  1  2  1  0  0  0  0
  1  4  1  0  0  0  0
  2  5  2  0  0  0  0
  2  6  1  0  0  0  0
  3  1  1  0  0  0  0
  3  7  1  0  0  0  0
  3  8  1  0  0  0  0
  3 19  1  1  0  0  0
  4  9  2  0  0  0  0
  4 20  1  0  0  0  0
  5 10  1  0  0  0  0
  5  9  1  0  0  0  0
  6 11  2  0  0  0  0
  7 12  1  0  0  0  0
  8 13  1  0  0  0  0
  8 21  1  0  0  0  0
  8 22  1  0  0  0  0
 10 14  1  0  0  0  0
 10 15  2  0  0  0  0
 11 14  1  0  0  0  0
 11 23  1  0  0  0  0
 12 13  1  0  0  0  0
 12 24  1  1  0  0  0
 12 16  1  0  0  0  0
 13 17  1  0  0  0  0
 13 25  1  6  0  0  0
 14 26  1  0  0  0  0
 16 18  1  0  0  0  0
 16 27  1  0  0  0  0
 16 28  1  0  0  0  0
 17 29  1  0  0  0  0
 18 30  1  0  0  0  0
M  END
>  <Mol_ID>
1817

>  <Formula>
C10H12N4O4

>  <MolWeight>
252.22668

>  <Cat>
S3757

>  <Name>
2'-Deoxyinosine

>  <Synonyms>
Guanine deoxyriboside, Deoxyinosine

>  <Target>
Others

>  <Form>
free base

>  <CAS>
890-38-0

>  <URL>
http://selleckchem.com/products/2-deoxyinosine.html

$$$$
