S3753 L-Leucine.cdx
 OpenBabel08302521363D

 22 21  0  0  0  0  0  0  0  0999 V2000
    0.8370   -0.1495   -0.0650 C   0  0  1  0  0  0  0  0  0  0  0  0
    0.3566    1.0016    0.8353 C   0  0  0  0  0  0  0  0  0  0  0  0
    0.0129   -1.4432    0.0960 C   0  0  0  0  0  0  0  0  0  0  0  0
    0.7638    0.2965   -1.4768 N   0  0  0  0  0  0  0  0  0  0  0  0
    0.4234    0.7468    2.3577 C   0  0  0  0  0  0  0  0  0  0  0  0
    0.5400   -2.4708   -0.6215 O   0  0  0  0  0  0  0  0  0  0  0  0
   -1.0180   -1.5641    0.7374 O   0  0  0  0  0  0  0  0  0  0  0  0
    1.8329    0.4270    2.8530 C   0  0  0  0  0  0  0  0  0  0  0  0
   -0.1192    1.9710    3.1045 C   0  0  0  0  0  0  0  0  0  0  0  0
    1.8813   -0.3844    0.1698 H   0  0  0  0  0  0  0  0  0  0  0  0
    0.9537    1.8968    0.6087 H   0  0  0  0  0  0  0  0  0  0  0  0
   -0.6819    1.2515    0.5766 H   0  0  0  0  0  0  0  0  0  0  0  0
    0.9397   -0.4665   -2.1258 H   0  0  0  0  0  0  0  0  0  0  0  0
   -0.1971    0.5927   -1.6718 H   0  0  0  0  0  0  0  0  0  0  0  0
   -0.2235   -0.1004    2.6098 H   0  0  0  0  0  0  0  0  0  0  0  0
    1.3740   -2.2312   -1.0676 H   0  0  0  0  0  0  0  0  0  0  0  0
    2.5245    1.2512    2.6485 H   0  0  0  0  0  0  0  0  0  0  0  0
    1.8275    0.2536    3.9353 H   0  0  0  0  0  0  0  0  0  0  0  0
    2.2294   -0.4791    2.3858 H   0  0  0  0  0  0  0  0  0  0  0  0
   -1.1345    2.2110    2.7733 H   0  0  0  0  0  0  0  0  0  0  0  0
   -0.1564    1.7823    4.1826 H   0  0  0  0  0  0  0  0  0  0  0  0
    0.5102    2.8509    2.9353 H   0  0  0  0  0  0  0  0  0  0  0  0
  1  4  1  0  0  0  0
  1 10  1  1  0  0  0
  1  3  1  0  0  0  0
  1  2  1  0  0  0  0
  2  5  1  0  0  0  0
  2 11  1  0  0  0  0
  2 12  1  0  0  0  0
  3  6  1  0  0  0  0
  3  7  2  0  0  0  0
  4 13  1  0  0  0  0
  4 14  1  0  0  0  0
  5  8  1  0  0  0  0
  5  9  1  0  0  0  0
  5 15  1  0  0  0  0
  6 16  1  0  0  0  0
  8 17  1  0  0  0  0
  8 18  1  0  0  0  0
  8 19  1  0  0  0  0
  9 20  1  0  0  0  0
  9 21  1  0  0  0  0
  9 22  1  0  0  0  0
M  END
>  <Mol_ID>
7118

>  <Formula>
C6H13NO2

>  <MolWeight>
131.17292

>  <Cat>
S3753

>  <Name>
L-Leucine

>  <Synonyms>
(S)-Leucine, Leu

>  <Target>
mTOR

>  <Form>
free base

>  <CAS>
61-90-5

>  <URL>
http://selleckchem.com/products/l-leucine.html

$$$$
