S3752 isoleucine.cdx
 OpenBabel08302521363D

 22 21  0  0  0  0  0  0  0  0999 V2000
    0.8688    0.0062    0.1533 C   0  0  1  0  0  0  0  0  0  0  0  0
    0.4469    0.6250   -1.2082 C   0  0  2  0  0  0  0  0  0  0  0  0
    2.1780    0.5747    0.7660 C   0  0  0  0  0  0  0  0  0  0  0  0
   -0.2599    0.1152    1.1084 N   0  0  0  0  0  0  0  0  0  0  0  0
    1.4938    0.4880   -2.3349 C   0  0  0  0  0  0  0  0  0  0  0  0
    0.0194    2.0980   -1.1172 C   0  0  0  0  0  0  0  0  0  0  0  0
    2.2265    0.4453    2.1187 O   0  0  0  0  0  0  0  0  0  0  0  0
    3.1181    1.0356    0.1488 O   0  0  0  0  0  0  0  0  0  0  0  0
    1.8864   -0.9440   -2.6577 C   0  0  0  0  0  0  0  0  0  0  0  0
    1.0464   -1.0656    0.0070 H   0  0  0  0  0  0  0  0  0  0  0  0
   -0.4420    0.0685   -1.5416 H   0  0  0  0  0  0  0  0  0  0  0  0
   -0.2723   -0.5919    1.8335 H   0  0  0  0  0  0  0  0  0  0  0  0
   -0.3438    1.0568    1.4877 H   0  0  0  0  0  0  0  0  0  0  0  0
    1.0881    0.9370   -3.2506 H   0  0  0  0  0  0  0  0  0  0  0  0
    2.3939    1.0636   -2.1019 H   0  0  0  0  0  0  0  0  0  0  0  0
   -0.3294    2.4508   -2.0954 H   0  0  0  0  0  0  0  0  0  0  0  0
   -0.8115    2.2419   -0.4199 H   0  0  0  0  0  0  0  0  0  0  0  0
    0.8491    2.7400   -0.8065 H   0  0  0  0  0  0  0  0  0  0  0  0
    1.4149    0.0345    2.4611 H   0  0  0  0  0  0  0  0  0  0  0  0
    1.0097   -1.5434   -2.9214 H   0  0  0  0  0  0  0  0  0  0  0  0
    2.5736   -0.9559   -3.5105 H   0  0  0  0  0  0  0  0  0  0  0  0
    2.3979   -1.4216   -1.8173 H   0  0  0  0  0  0  0  0  0  0  0  0
  1  4  1  0  0  0  0
  1 10  1  6  0  0  0
  1  3  1  0  0  0  0
  1  2  1  0  0  0  0
  2 11  1  6  0  0  0
  2  6  1  0  0  0  0
  2  5  1  0  0  0  0
  3  7  1  0  0  0  0
  3  8  2  0  0  0  0
  4 12  1  0  0  0  0
  4 13  1  0  0  0  0
  5  9  1  0  0  0  0
  5 14  1  0  0  0  0
  5 15  1  0  0  0  0
  6 16  1  0  0  0  0
  6 17  1  0  0  0  0
  6 18  1  0  0  0  0
  7 19  1  0  0  0  0
  9 20  1  0  0  0  0
  9 21  1  0  0  0  0
  9 22  1  0  0  0  0
M  END
>  <Mol_ID>
7117

>  <Formula>
C6H13NO2

>  <MolWeight>
131.17292

>  <Cat>
S3752

>  <Name>
isoleucine

>  <Synonyms>
Ile

>  <Target>
Others

>  <Form>
free base

>  <CAS>
73-32-5

>  <URL>
http://selleckchem.com/products/isoleucine.html

$$$$
