S3764 Isoferulic Acid.cdx
 OpenBabel08302519513D

 24 24  0  0  0  0  0  0  0  0999 V2000
   -1.2970   -1.1662    0.0151 C   0  0  0  0  0  0  0  0  0  0  0  0
    0.1017   -1.2582    0.0055 C   0  0  0  0  0  0  0  0  0  0  0  0
   -2.0980   -2.4016   -0.0066 C   0  0  0  0  0  0  0  0  0  0  0  0
   -1.8799    0.1036   -0.0048 C   0  0  0  0  0  0  0  0  0  0  0  0
    0.9012   -0.1037    0.0096 C   0  0  0  0  0  0  0  0  0  0  0  0
   -3.3199   -2.5202    0.5378 C   0  0  0  0  0  0  0  0  0  0  0  0
   -1.0814    1.2513    0.0037 C   0  0  0  0  0  0  0  0  0  0  0  0
    0.3147    1.1654    0.0157 C   0  0  0  0  0  0  0  0  0  0  0  0
    2.2604   -0.2577    0.0060 O   0  0  0  0  0  0  0  0  0  0  0  0
   -4.0308   -3.8127    0.4690 C   0  0  0  0  0  0  0  0  0  0  0  0
    0.9226    2.3906    0.0267 O   0  0  0  0  0  0  0  0  0  0  0  0
   -5.2416   -3.7557    1.0595 O   0  0  0  0  0  0  0  0  0  0  0  0
   -3.5899   -4.8202   -0.0553 O   0  0  0  0  0  0  0  0  0  0  0  0
    2.3416    2.4379    0.0425 C   0  0  0  0  0  0  0  0  0  0  0  0
    0.5697   -2.2396    0.0032 H   0  0  0  0  0  0  0  0  0  0  0  0
   -1.6333   -3.2631   -0.4873 H   0  0  0  0  0  0  0  0  0  0  0  0
   -2.9585    0.2295   -0.0395 H   0  0  0  0  0  0  0  0  0  0  0  0
   -3.8011   -1.6942    1.0427 H   0  0  0  0  0  0  0  0  0  0  0  0
   -1.5551    2.2308   -0.0055 H   0  0  0  0  0  0  0  0  0  0  0  0
    2.4780   -1.2038   -0.0209 H   0  0  0  0  0  0  0  0  0  0  0  0
   -5.4848   -2.8967    1.4473 H   0  0  0  0  0  0  0  0  0  0  0  0
    2.7467    1.9686    0.9445 H   0  0  0  0  0  0  0  0  0  0  0  0
    2.7625    2.0080   -0.8718 H   0  0  0  0  0  0  0  0  0  0  0  0
    2.6365    3.4918    0.0690 H   0  0  0  0  0  0  0  0  0  0  0  0
  1  2  2  0  0  0  0
  1  3  1  0  0  0  0
  1  4  1  0  0  0  0
  2  5  1  0  0  0  0
  2 15  1  0  0  0  0
  3  6  2  0  0  0  0
  3 16  1  0  0  0  0
  4  7  2  0  0  0  0
  4 17  1  0  0  0  0
  5  8  2  0  0  0  0
  5  9  1  0  0  0  0
  6 10  1  0  0  0  0
  6 18  1  0  0  0  0
  7  8  1  0  0  0  0
  7 19  1  0  0  0  0
  8 11  1  0  0  0  0
  9 20  1  0  0  0  0
 10 12  1  0  0  0  0
 10 13  2  0  0  0  0
 11 14  1  0  0  0  0
 12 21  1  0  0  0  0
 14 22  1  0  0  0  0
 14 23  1  0  0  0  0
 14 24  1  0  0  0  0
M  END
>  <Mol_ID>
1801

>  <Formula>
C10H10O4

>  <MolWeight>
194.184

>  <Cat>
S3764

>  <Name>
Isoferulic Acid

>  <Synonyms>
Hesperetic acid, Hesperetate, Isoferulate

>  <Target>
Adrenergic Receptor

>  <Form>
free base

>  <CAS>
537-73-5

>  <URL>
http://selleckchem.com/products/isoferulic-acid.html

$$$$
