S3769 Palmatine.cdx
 OpenBabel08302519513D

 48 51  0  0  0  0  0  0  0  0999 V2000
    0.3740   -0.1118   -0.0412 C   0  0  0  0  0  0  0  0  0  0  0  0
    1.8140   -0.4255   -0.0243 C   0  0  0  0  0  0  0  0  0  0  0  0
    0.0488    1.2011   -0.2055 N   0  3  0  0  0  0  0  0  0  0  0  0
   -0.6601   -1.0374    0.1109 C   0  0  0  0  0  0  0  0  0  0  0  0
    2.7509    0.5688    0.2441 C   0  0  0  0  0  0  0  0  0  0  0  0
    2.3232   -1.7075   -0.2695 C   0  0  0  0  0  0  0  0  0  0  0  0
   -1.2420    1.5954   -0.2565 C   0  0  0  0  0  0  0  0  0  0  0  0
    1.0922    2.2395   -0.4025 C   0  0  0  0  0  0  0  0  0  0  0  0
   -1.9945   -0.6321    0.1041 C   0  0  0  0  0  0  0  0  0  0  0  0
    4.1111    0.2615    0.2892 C   0  0  0  0  0  0  0  0  0  0  0  0
    2.2782    1.9707    0.5017 C   0  0  0  0  0  0  0  0  0  0  0  0
    3.7065   -2.0455   -0.2451 C   0  0  0  0  0  0  0  0  0  0  0  0
   -2.3247    0.7345   -0.0644 C   0  0  0  0  0  0  0  0  0  0  0  0
   -3.0125   -1.5778    0.2320 C   0  0  0  0  0  0  0  0  0  0  0  0
    4.6240   -1.0352    0.0431 C   0  0  0  0  0  0  0  0  0  0  0  0
    3.7774   -3.3672   -0.5415 O   0  0  0  0  0  0  0  0  0  0  0  0
   -3.6964    1.1377   -0.0867 C   0  0  0  0  0  0  0  0  0  0  0  0
   -4.3454   -1.1824    0.2145 C   0  0  0  0  0  0  0  0  0  0  0  0
    5.9697   -0.9443    0.1619 O   0  0  0  0  0  0  0  0  0  0  0  0
   -4.7040    0.1625    0.0629 C   0  0  0  0  0  0  0  0  0  0  0  0
   -4.0855    2.4015   -0.4600 O   0  0  0  0  0  0  0  0  0  0  0  0
    6.8920   -1.9842   -0.0297 C   0  0  0  0  0  0  0  0  0  0  0  0
   -6.0634    0.3144    0.0545 O   0  0  0  0  0  0  0  0  0  0  0  0
   -3.6025    3.5361    0.2548 C   0  0  0  0  0  0  0  0  0  0  0  0
    4.9356   -4.1594   -0.5764 C   0  0  0  0  0  0  0  0  0  0  0  0
   -6.6308    1.6121   -0.0002 C   0  0  0  0  0  0  0  0  0  0  0  0
   -0.4270   -2.0985    0.2419 H   0  0  0  0  0  0  0  0  0  0  0  0
    1.6359   -2.5220   -0.5095 H   0  0  0  0  0  0  0  0  0  0  0  0
   -1.3761    2.6425   -0.4703 H   0  0  0  0  0  0  0  0  0  0  0  0
    0.6671    3.2211   -0.1653 H   0  0  0  0  0  0  0  0  0  0  0  0
    1.3524    2.2096   -1.4677 H   0  0  0  0  0  0  0  0  0  0  0  0
    4.8251    1.0587    0.5165 H   0  0  0  0  0  0  0  0  0  0  0  0
    1.9960    2.0649    1.5569 H   0  0  0  0  0  0  0  0  0  0  0  0
    3.0665    2.7020    0.2919 H   0  0  0  0  0  0  0  0  0  0  0  0
   -2.7915   -2.6401    0.3221 H   0  0  0  0  0  0  0  0  0  0  0  0
   -5.1262   -1.9373    0.2982 H   0  0  0  0  0  0  0  0  0  0  0  0
    6.7691   -2.7617    0.7227 H   0  0  0  0  0  0  0  0  0  0  0  0
    6.8745   -2.3445   -1.0581 H   0  0  0  0  0  0  0  0  0  0  0  0
    7.8925   -1.5671    0.1302 H   0  0  0  0  0  0  0  0  0  0  0  0
   -3.2732    3.3089    1.2731 H   0  0  0  0  0  0  0  0  0  0  0  0
   -2.7992    4.0079   -0.3192 H   0  0  0  0  0  0  0  0  0  0  0  0
   -4.4021    4.2819    0.2986 H   0  0  0  0  0  0  0  0  0  0  0  0
    5.5919   -3.8593   -1.3922 H   0  0  0  0  0  0  0  0  0  0  0  0
    5.4190   -4.2032    0.3991 H   0  0  0  0  0  0  0  0  0  0  0  0
    4.6201   -5.1830   -0.8045 H   0  0  0  0  0  0  0  0  0  0  0  0
   -6.2947    2.2316    0.8366 H   0  0  0  0  0  0  0  0  0  0  0  0
   -6.4356    2.0827   -0.9677 H   0  0  0  0  0  0  0  0  0  0  0  0
   -7.7161    1.5012    0.0908 H   0  0  0  0  0  0  0  0  0  0  0  0
  1  2  1  0  0  0  0
  1  3  1  0  0  0  0
  1  4  2  0  0  0  0
  2  5  2  0  0  0  0
  2  6  1  0  0  0  0
  3  7  2  0  0  0  0
  3  8  1  0  0  0  0
  4  9  1  0  0  0  0
  4 27  1  0  0  0  0
  5 10  1  0  0  0  0
  5 11  1  0  0  0  0
  6 12  2  0  0  0  0
  6 28  1  0  0  0  0
  7 13  1  0  0  0  0
  7 29  1  0  0  0  0
  8 11  1  0  0  0  0
  8 30  1  0  0  0  0
  8 31  1  0  0  0  0
  9 14  2  0  0  0  0
  9 13  1  0  0  0  0
 10 15  2  0  0  0  0
 10 32  1  0  0  0  0
 11 33  1  0  0  0  0
 11 34  1  0  0  0  0
 12 16  1  0  0  0  0
 12 15  1  0  0  0  0
 13 17  2  0  0  0  0
 14 18  1  0  0  0  0
 14 35  1  0  0  0  0
 15 19  1  0  0  0  0
 16 25  1  0  0  0  0
 17 20  1  0  0  0  0
 17 21  1  0  0  0  0
 18 20  2  0  0  0  0
 18 36  1  0  0  0  0
 19 22  1  0  0  0  0
 20 23  1  0  0  0  0
 21 24  1  0  0  0  0
 22 37  1  0  0  0  0
 22 38  1  0  0  0  0
 22 39  1  0  0  0  0
 23 26  1  0  0  0  0
 24 40  1  0  0  0  0
 24 41  1  0  0  0  0
 24 42  1  0  0  0  0
 25 43  1  0  0  0  0
 25 44  1  0  0  0  0
 25 45  1  0  0  0  0
 26 46  1  0  0  0  0
 26 47  1  0  0  0  0
 26 48  1  0  0  0  0
M  CHG  1   3   1
M  END
>  <Mol_ID>
1792

>  <Formula>
C21H22NO4+

>  <MolWeight>
352.40368

>  <Cat>
S3769

>  <Name>
Palmatine

>  <Synonyms>
Berbericinine, Burasaine

>  <Target>
AChR

>  <Form>
free base

>  <CAS>
3486-67-7

>  <URL>
http://selleckchem.com/products/palmatine.html

$$$$
