S3763 Cinnamaldehyde.cdx
 OpenBabel08302519563D

 18 18  0  0  0  0  0  0  0  0999 V2000
    0.8812   -0.0090   -0.0753 C   0  0  0  0  0  0  0  0  0  0  0  0
    0.2056   -0.4184    1.1712 C   0  0  0  0  0  0  0  0  0  0  0  0
   -1.1202   -0.6140    1.1845 C   0  0  0  0  0  0  0  0  0  0  0  0
   -1.8865   -0.9931    2.3828 C   0  0  0  0  0  0  0  0  0  0  0  0
   -1.5066   -0.6015    3.6742 C   0  0  0  0  0  0  0  0  0  0  0  0
   -2.2907   -0.9363    4.7812 C   0  0  0  0  0  0  0  0  0  0  0  0
   -3.4695   -1.6577    4.6101 C   0  0  0  0  0  0  0  0  0  0  0  0
   -3.8651   -2.0446    3.3321 C   0  0  0  0  0  0  0  0  0  0  0  0
   -3.0803   -1.7106    2.2246 C   0  0  0  0  0  0  0  0  0  0  0  0
    2.0888    0.1893   -0.1083 O   0  0  0  0  0  0  0  0  0  0  0  0
    0.2409    0.1151   -0.9643 H   0  0  0  0  0  0  0  0  0  0  0  0
    0.8467   -0.5389    2.0357 H   0  0  0  0  0  0  0  0  0  0  0  0
   -1.7060   -0.4979    0.2751 H   0  0  0  0  0  0  0  0  0  0  0  0
   -0.6047   -0.0169    3.8393 H   0  0  0  0  0  0  0  0  0  0  0  0
   -1.9833   -0.6251    5.7765 H   0  0  0  0  0  0  0  0  0  0  0  0
   -4.0817   -1.9123    5.4714 H   0  0  0  0  0  0  0  0  0  0  0  0
   -4.7879   -2.6031    3.1957 H   0  0  0  0  0  0  0  0  0  0  0  0
   -3.4132   -2.0218    1.2368 H   0  0  0  0  0  0  0  0  0  0  0  0
  1  2  1  0  0  0  0
  1 10  2  0  0  0  0
  1 11  1  0  0  0  0
  2  3  2  0  0  0  0
  2 12  1  0  0  0  0
  3  4  1  0  0  0  0
  3 13  1  0  0  0  0
  4  5  2  0  0  0  0
  4  9  1  0  0  0  0
  5  6  1  0  0  0  0
  5 14  1  0  0  0  0
  6  7  2  0  0  0  0
  6 15  1  0  0  0  0
  7  8  1  0  0  0  0
  7 16  1  0  0  0  0
  8  9  2  0  0  0  0
  8 17  1  0  0  0  0
  9 18  1  0  0  0  0
M  END
>  <Mol_ID>
2226

>  <Formula>
C9H8O

>  <MolWeight>
132.15922

>  <Cat>
S3763

>  <Name>
Cinnamaldehyde

>  <Synonyms>
N/A

>  <Target>
TRP Channel

>  <Form>
free base

>  <CAS>
14371-10-9

>  <URL>
http://selleckchem.com/products/cinnamaldehyde.html

$$$$
