S3779 cis-Anethol.cdx
 OpenBabel08302519563D

 23 23  0  0  0  0  0  0  0  0999 V2000
    1.3895   -0.1728    0.0457 C   0  0  0  0  0  0  0  0  0  0  0  0
    0.5295   -1.2793    0.0261 C   0  0  0  0  0  0  0  0  0  0  0  0
    0.8215    1.1058    0.0188 C   0  0  0  0  0  0  0  0  0  0  0  0
    2.8394   -0.4026    0.1734 C   0  0  0  0  0  0  0  0  0  0  0  0
   -0.8614   -1.1164   -0.0337 C   0  0  0  0  0  0  0  0  0  0  0  0
   -0.5671    1.2676   -0.0398 C   0  0  0  0  0  0  0  0  0  0  0  0
    3.8001    0.3954   -0.3216 C   0  0  0  0  0  0  0  0  0  0  0  0
   -1.4173    0.1608   -0.0670 C   0  0  0  0  0  0  0  0  0  0  0  0
    5.2638    0.1328   -0.1514 C   0  0  0  0  0  0  0  0  0  0  0  0
   -2.7502    0.4612   -0.1249 O   0  0  0  0  0  0  0  0  0  0  0  0
   -3.6561   -0.6345   -0.1512 C   0  0  0  0  0  0  0  0  0  0  0  0
    0.9353   -2.2884    0.0519 H   0  0  0  0  0  0  0  0  0  0  0  0
    1.4466    1.9938    0.0591 H   0  0  0  0  0  0  0  0  0  0  0  0
    3.1204   -1.3037    0.7134 H   0  0  0  0  0  0  0  0  0  0  0  0
   -1.4776   -2.0095   -0.0523 H   0  0  0  0  0  0  0  0  0  0  0  0
   -0.9913    2.2698   -0.0544 H   0  0  0  0  0  0  0  0  0  0  0  0
    3.5451    1.2882   -0.8852 H   0  0  0  0  0  0  0  0  0  0  0  0
    5.7402    0.0147   -1.1313 H   0  0  0  0  0  0  0  0  0  0  0  0
    5.7345    0.9776    0.3583 H   0  0  0  0  0  0  0  0  0  0  0  0
    5.4610   -0.7710    0.4333 H   0  0  0  0  0  0  0  0  0  0  0  0
   -3.4608   -1.2946   -1.0029 H   0  0  0  0  0  0  0  0  0  0  0  0
   -3.6270   -1.1875    0.7934 H   0  0  0  0  0  0  0  0  0  0  0  0
   -4.6657   -0.2307   -0.2731 H   0  0  0  0  0  0  0  0  0  0  0  0
  1  2  2  0  0  0  0
  1  3  1  0  0  0  0
  1  4  1  0  0  0  0
  2  5  1  0  0  0  0
  2 12  1  0  0  0  0
  3  6  2  0  0  0  0
  3 13  1  0  0  0  0
  4  7  2  0  0  0  0
  4 14  1  0  0  0  0
  5  8  2  0  0  0  0
  5 15  1  0  0  0  0
  6  8  1  0  0  0  0
  6 16  1  0  0  0  0
  7  9  1  0  0  0  0
  7 17  1  0  0  0  0
  8 10  1  0  0  0  0
  9 18  1  0  0  0  0
  9 19  1  0  0  0  0
  9 20  1  0  0  0  0
 10 11  1  0  0  0  0
 11 21  1  0  0  0  0
 11 22  1  0  0  0  0
 11 23  1  0  0  0  0
M  END
>  <Mol_ID>
2230

>  <Formula>
C10H12O

>  <MolWeight>
148.20168

>  <Cat>
S3779

>  <Name>
cis-Anethole

>  <Synonyms>
(Z)-Anethole, Cis-p-Propenylanisole, Cis-p-Anethole

>  <Target>
Others

>  <Form>
free base

>  <CAS>
104-46-1

>  <URL>
http://selleckchem.com/products/cis-anethole.html

$$$$
