S3773 Tyrosol.cdx
 OpenBabel08302519513D

 20 20  0  0  0  0  0  0  0  0999 V2000
   -1.8455    0.0817   -0.0500 C   0  0  0  0  0  0  0  0  0  0  0  0
   -1.1931   -1.1548    0.0511 C   0  0  0  0  0  0  0  0  0  0  0  0
   -1.0773    1.2525   -0.1391 C   0  0  0  0  0  0  0  0  0  0  0  0
   -3.3557    0.1672   -0.0508 C   0  0  0  0  0  0  0  0  0  0  0  0
    0.2047   -1.2173    0.0618 C   0  0  0  0  0  0  0  0  0  0  0  0
    0.3146    1.1912   -0.1249 C   0  0  0  0  0  0  0  0  0  0  0  0
   -3.9526    0.2660    1.3531 C   0  0  0  0  0  0  0  0  0  0  0  0
    0.9459   -0.0418   -0.0264 C   0  0  0  0  0  0  0  0  0  0  0  0
   -3.5342    1.4493    2.0261 O   0  0  0  0  0  0  0  0  0  0  0  0
    2.3105   -0.0574   -0.0143 O   0  0  0  0  0  0  0  0  0  0  0  0
   -1.7643   -2.0767    0.1176 H   0  0  0  0  0  0  0  0  0  0  0  0
   -1.5649    2.2231   -0.2195 H   0  0  0  0  0  0  0  0  0  0  0  0
   -3.6591    1.0358   -0.6468 H   0  0  0  0  0  0  0  0  0  0  0  0
   -3.7645   -0.7162   -0.5585 H   0  0  0  0  0  0  0  0  0  0  0  0
    0.6921   -2.1841    0.1358 H   0  0  0  0  0  0  0  0  0  0  0  0
    0.9043    2.1007   -0.1943 H   0  0  0  0  0  0  0  0  0  0  0  0
   -5.0439    0.3075    1.2778 H   0  0  0  0  0  0  0  0  0  0  0  0
   -3.6903   -0.5983    1.9718 H   0  0  0  0  0  0  0  0  0  0  0  0
   -2.5957    1.3243    2.2561 H   0  0  0  0  0  0  0  0  0  0  0  0
    2.6091   -0.9779    0.0507 H   0  0  0  0  0  0  0  0  0  0  0  0
  1  2  2  0  0  0  0
  1  3  1  0  0  0  0
  1  4  1  0  0  0  0
  2  5  1  0  0  0  0
  2 11  1  0  0  0  0
  3  6  2  0  0  0  0
  3 12  1  0  0  0  0
  4  7  1  0  0  0  0
  4 13  1  0  0  0  0
  4 14  1  0  0  0  0
  5  8  2  0  0  0  0
  5 15  1  0  0  0  0
  6  8  1  0  0  0  0
  6 16  1  0  0  0  0
  7  9  1  0  0  0  0
  7 17  1  0  0  0  0
  7 18  1  0  0  0  0
  8 10  1  0  0  0  0
  9 19  1  0  0  0  0
 10 20  1  0  0  0  0
M  END
>  <Mol_ID>
1794

>  <Formula>
C8H10O2

>  <MolWeight>
138.1638

>  <Cat>
S3773

>  <Name>
Tyrosol

>  <Synonyms>
4-Hydroxyphenylethanol, 4-Hydroxyphenethyl alcohol, 2-(4-Hydroxyphenyl)ethanol

>  <Target>
NF-¦ÊB

>  <Form>
free base

>  <CAS>
501-94-0

>  <URL>
http://selleckchem.com/products/tyrosol.html

$$$$
