S3777 Gentiopicroside.cdx
 OpenBabel08302519513D

 45 47  0  0  0  0  0  0  0  0999 V2000
   -4.4508   -0.4759    6.8967 C   0  0  0  0  0  0  0  0  0  0  0  0
   -3.7575   -1.5316    6.0525 C   0  0  2  0  0  0  0  0  0  0  0  0
   -5.6015    0.1421    6.2929 C   0  0  0  0  0  0  0  0  0  0  0  0
   -4.0828   -0.0901    8.1238 C   0  0  0  0  0  0  0  0  0  0  0  0
   -3.8203   -1.1633    4.5346 C   0  0  2  0  0  0  0  0  0  0  0  0
   -4.4085   -2.8865    6.3046 C   0  0  0  0  0  0  0  0  0  0  0  0
   -5.8835   -0.0521    4.9960 C   0  0  0  0  0  0  0  0  0  0  0  0
   -6.5550    0.9301    7.1111 C   0  0  0  0  0  0  0  0  0  0  0  0
   -4.8523    0.9334    8.8919 C   0  0  0  0  0  0  0  0  0  0  0  0
   -2.8253   -0.1749    4.2293 O   0  0  0  0  0  0  0  0  0  0  0  0
   -5.1354   -0.7704    4.0968 O   0  0  0  0  0  0  0  0  0  0  0  0
   -3.7898   -3.9631    6.8050 C   0  0  0  0  0  0  0  0  0  0  0  0
   -6.1736    1.1981    8.3827 O   0  0  0  0  0  0  0  0  0  0  0  0
   -7.6416    1.3002    6.6811 O   0  0  0  0  0  0  0  0  0  0  0  0
   -2.7688    0.1606    2.8313 C   0  0  2  0  0  0  0  0  0  0  0  0
   -2.5196   -1.0152    2.0477 O   0  0  0  0  0  0  0  0  0  0  0  0
   -1.6428    1.2193    2.6639 C   0  0  1  0  0  0  0  0  0  0  0  0
   -2.3415   -0.7120    0.6518 C   0  0  1  0  0  0  0  0  0  0  0  0
   -1.1499    1.3685    1.2174 C   0  0  2  0  0  0  0  0  0  0  0  0
   -2.0999    2.5122    3.1082 O   0  0  0  0  0  0  0  0  0  0  0  0
   -1.0102    0.0231    0.4995 C   0  0  2  0  0  0  0  0  0  0  0  0
   -2.3830   -2.0095   -0.1595 C   0  0  0  0  0  0  0  0  0  0  0  0
    0.0932    2.0917    1.2113 O   0  0  0  0  0  0  0  0  0  0  0  0
   -0.6453    0.1972   -0.8681 O   0  0  0  0  0  0  0  0  0  0  0  0
   -3.6597   -2.6319   -0.0026 O   0  0  0  0  0  0  0  0  0  0  0  0
   -2.6998   -1.5818    6.3481 H   0  0  0  0  0  0  0  0  0  0  0  0
   -3.2118   -0.5230    8.6079 H   0  0  0  0  0  0  0  0  0  0  0  0
   -3.5620   -2.0684    3.9711 H   0  0  0  0  0  0  0  0  0  0  0  0
   -5.4645   -2.9717    6.0463 H   0  0  0  0  0  0  0  0  0  0  0  0
   -6.7755    0.3313    4.5119 H   0  0  0  0  0  0  0  0  0  0  0  0
   -4.3080    1.8825    8.9229 H   0  0  0  0  0  0  0  0  0  0  0  0
   -4.9806    0.5905    9.9242 H   0  0  0  0  0  0  0  0  0  0  0  0
   -4.3360   -4.8925    6.9474 H   0  0  0  0  0  0  0  0  0  0  0  0
   -2.7408   -3.9525    7.0833 H   0  0  0  0  0  0  0  0  0  0  0  0
   -3.7308    0.5990    2.5382 H   0  0  0  0  0  0  0  0  0  0  0  0
   -0.7978    0.9628    3.3143 H   0  0  0  0  0  0  0  0  0  0  0  0
   -3.1809   -0.0877    0.3150 H   0  0  0  0  0  0  0  0  0  0  0  0
   -1.8420    2.0100    0.6579 H   0  0  0  0  0  0  0  0  0  0  0  0
   -1.4361    3.1610    2.8034 H   0  0  0  0  0  0  0  0  0  0  0  0
   -0.2036   -0.5548    0.9678 H   0  0  0  0  0  0  0  0  0  0  0  0
   -2.2430   -1.8140   -1.2274 H   0  0  0  0  0  0  0  0  0  0  0  0
   -1.6230   -2.7209    0.1756 H   0  0  0  0  0  0  0  0  0  0  0  0
    0.8148    1.4645    1.4020 H   0  0  0  0  0  0  0  0  0  0  0  0
   -0.9421    1.0738   -1.1728 H   0  0  0  0  0  0  0  0  0  0  0  0
   -3.7890   -2.7468    0.9567 H   0  0  0  0  0  0  0  0  0  0  0  0
  1  2  1  0  0  0  0
  1  3  1  0  0  0  0
  1  4  2  0  0  0  0
  2  5  1  0  0  0  0
  2  6  1  0  0  0  0
  2 26  1  1  0  0  0
  3  7  2  0  0  0  0
  3  8  1  0  0  0  0
  4  9  1  0  0  0  0
  4 27  1  0  0  0  0
  5 11  1  0  0  0  0
  5 28  1  6  0  0  0
  5 10  1  0  0  0  0
  6 12  2  0  0  0  0
  6 29  1  0  0  0  0
  7 11  1  0  0  0  0
  7 30  1  0  0  0  0
  8 13  1  0  0  0  0
  8 14  2  0  0  0  0
  9 13  1  0  0  0  0
  9 31  1  0  0  0  0
  9 32  1  0  0  0  0
 12 33  1  0  0  0  0
 12 34  1  0  0  0  0
 15 16  1  0  0  0  0
 15 17  1  0  0  0  0
 15 10  1  0  0  0  0
 15 35  1  6  0  0  0
 16 18  1  0  0  0  0
 17 19  1  0  0  0  0
 17 20  1  0  0  0  0
 17 36  1  1  0  0  0
 18 21  1  0  0  0  0
 18 22  1  0  0  0  0
 18 37  1  6  0  0  0
 19 23  1  0  0  0  0
 19 21  1  0  0  0  0
 19 38  1  6  0  0  0
 20 39  1  0  0  0  0
 21 24  1  0  0  0  0
 21 40  1  1  0  0  0
 22 25  1  0  0  0  0
 22 41  1  0  0  0  0
 22 42  1  0  0  0  0
 23 43  1  0  0  0  0
 24 44  1  0  0  0  0
 25 45  1  0  0  0  0
M  END
>  <Mol_ID>
1802

>  <Formula>
C16H20O9

>  <MolWeight>
356.3246

>  <Cat>
S3777

>  <Name>
Gentiopicroside

>  <Synonyms>
Gentiopicrin

>  <Target>
P450 (e.g. CYP17)

>  <Form>
free base

>  <CAS>
20831-76-9

>  <URL>
http://selleckchem.com/products/gentiopicroside.html

$$$$
