S3771 Stachydrine.cdx
 OpenBabel08302519513D

 23 23  0  0  0  0  0  0  0  0999 V2000
    1.0680   -0.1252   -0.0372 C   0  0  0  0  0  0  0  0  0  0  0  0
    3.3206   -1.3163   -0.8822 N   0  3  0  0  0  0  0  0  0  0  0  0
    2.6216   -0.0507   -0.1928 C   0  0  1  0  0  0  0  0  0  0  0  0
    3.1511    1.0939   -1.0416 C   0  0  0  0  0  0  0  0  0  0  0  0
    4.5909    0.7158   -1.3284 C   0  0  0  0  0  0  0  0  0  0  0  0
    4.6538   -0.8044   -1.3788 C   0  0  0  0  0  0  0  0  0  0  0  0
    0.6960   -0.7331    1.0050 O   0  0  0  0  0  0  0  0  0  0  0  0
    0.4093    0.2823   -1.0317 O   0  5  0  0  0  0  0  0  0  0  0  0
    3.4344   -2.4249    0.1389 C   0  0  0  0  0  0  0  0  0  0  0  0
    2.4378   -1.7949   -2.0346 C   0  0  0  0  0  0  0  0  0  0  0  0
    3.0712    0.0156    0.8064 H   0  0  0  0  0  0  0  0  0  0  0  0
    2.5943    1.2069   -1.9778 H   0  0  0  0  0  0  0  0  0  0  0  0
    3.0861    2.0499   -0.5113 H   0  0  0  0  0  0  0  0  0  0  0  0
    4.9431    1.1630   -2.2638 H   0  0  0  0  0  0  0  0  0  0  0  0
    5.2455    1.0855   -0.5305 H   0  0  0  0  0  0  0  0  0  0  0  0
    4.8278   -1.1837   -2.3910 H   0  0  0  0  0  0  0  0  0  0  0  0
    5.4442   -1.1813   -0.7201 H   0  0  0  0  0  0  0  0  0  0  0  0
    2.4346   -2.7121    0.4743 H   0  0  0  0  0  0  0  0  0  0  0  0
    3.9301   -3.2748   -0.3406 H   0  0  0  0  0  0  0  0  0  0  0  0
    4.0353   -2.0689    0.9807 H   0  0  0  0  0  0  0  0  0  0  0  0
    2.2735   -0.9691   -2.7304 H   0  0  0  0  0  0  0  0  0  0  0  0
    2.9677   -2.6070   -2.5424 H   0  0  0  0  0  0  0  0  0  0  0  0
    1.4931   -2.1752   -1.6338 H   0  0  0  0  0  0  0  0  0  0  0  0
  1  7  2  0  0  0  0
  1  8  1  0  0  0  0
  2  3  1  0  0  0  0
  2  6  1  0  0  0  0
  2  9  1  0  0  0  0
  2 10  1  0  0  0  0
  3  1  1  0  0  0  0
  3  4  1  0  0  0  0
  3 11  1  1  0  0  0
  4  5  1  0  0  0  0
  4 12  1  0  0  0  0
  4 13  1  0  0  0  0
  5  6  1  0  0  0  0
  5 14  1  0  0  0  0
  5 15  1  0  0  0  0
  6 16  1  0  0  0  0
  6 17  1  0  0  0  0
  9 18  1  0  0  0  0
  9 19  1  0  0  0  0
  9 20  1  0  0  0  0
 10 21  1  0  0  0  0
 10 22  1  0  0  0  0
 10 23  1  0  0  0  0
M  CHG  2   2   1   8  -1
M  END
>  <Mol_ID>
1793

>  <Formula>
C7H13NO2

>  <MolWeight>
143.18362

>  <Cat>
S3771

>  <Name>
Stachydrine

>  <Synonyms>
Proline betaine, L-stachydrine, Methyl hygrate betaine

>  <Target>
NF-¦ÊB

>  <Form>
inner salt

>  <CAS>
471-87-4

>  <URL>
http://selleckchem.com/products/stachydrine.html

$$$$
