S3786 Glabridin.cdx
 OpenBabel08302519513D

 44 47  0  0  0  0  0  0  0  0999 V2000
   -0.6970    0.4040   -0.1982 C   0  0  0  0  0  0  0  0  0  0  0  0
    0.7034    0.2975   -0.1896 C   0  0  0  0  0  0  0  0  0  0  0  0
   -1.4729   -0.7569   -0.0870 C   0  0  0  0  0  0  0  0  0  0  0  0
   -1.3834    1.6913   -0.2919 C   0  0  0  0  0  0  0  0  0  0  0  0
    1.3145   -0.9560   -0.0492 C   0  0  0  0  0  0  0  0  0  0  0  0
    1.4228    1.4497   -0.3667 O   0  0  0  0  0  0  0  0  0  0  0  0
   -0.8726   -2.0100   -0.0009 C   0  0  0  0  0  0  0  0  0  0  0  0
   -2.8440   -0.7350   -0.0723 O   0  0  0  0  0  0  0  0  0  0  0  0
   -2.6809    1.7278    0.0272 C   0  0  0  0  0  0  0  0  0  0  0  0
    2.8029   -1.1075    0.0434 C   0  0  0  0  0  0  0  0  0  0  0  0
    0.5154   -2.1064    0.0372 C   0  0  0  0  0  0  0  0  0  0  0  0
    2.7389    1.4389    0.1786 C   0  0  0  0  0  0  0  0  0  0  0  0
   -3.4404    0.4830    0.4293 C   0  0  0  0  0  0  0  0  0  0  0  0
    3.5507    0.2033   -0.2168 C   0  0  1  0  0  0  0  0  0  0  0  0
    4.9276    0.2313    0.4251 C   0  0  0  0  0  0  0  0  0  0  0  0
    5.1646    0.1101    1.8058 C   0  0  0  0  0  0  0  0  0  0  0  0
    6.0393    0.4339   -0.4168 C   0  0  0  0  0  0  0  0  0  0  0  0
    6.4556    0.1735    2.3250 C   0  0  0  0  0  0  0  0  0  0  0  0
    4.1866   -0.0679    2.7471 O   0  0  0  0  0  0  0  0  0  0  0  0
    7.3309    0.5144    0.1046 C   0  0  0  0  0  0  0  0  0  0  0  0
    7.5313    0.3783    1.4700 C   0  0  0  0  0  0  0  0  0  0  0  0
    8.8075    0.4531    1.9411 O   0  0  0  0  0  0  0  0  0  0  0  0
   -4.8534    0.5394   -0.1618 C   0  0  0  0  0  0  0  0  0  0  0  0
   -3.5300    0.3699    1.9579 C   0  0  0  0  0  0  0  0  0  0  0  0
   -0.8263    2.5822   -0.5605 H   0  0  0  0  0  0  0  0  0  0  0  0
   -1.4872   -2.9030    0.0617 H   0  0  0  0  0  0  0  0  0  0  0  0
   -3.2069    2.6782    0.0267 H   0  0  0  0  0  0  0  0  0  0  0  0
    3.1444   -1.8615   -0.6772 H   0  0  0  0  0  0  0  0  0  0  0  0
    3.0261   -1.5257    1.0306 H   0  0  0  0  0  0  0  0  0  0  0  0
    0.9745   -3.0888    0.1352 H   0  0  0  0  0  0  0  0  0  0  0  0
    2.6662    1.5875    1.2613 H   0  0  0  0  0  0  0  0  0  0  0  0
    3.2426    2.3329   -0.2124 H   0  0  0  0  0  0  0  0  0  0  0  0
    3.6626    0.2571   -1.3106 H   0  0  0  0  0  0  0  0  0  0  0  0
    5.9093    0.5393   -1.4925 H   0  0  0  0  0  0  0  0  0  0  0  0
    6.6011    0.0728    3.3958 H   0  0  0  0  0  0  0  0  0  0  0  0
    3.3079   -0.0863    2.3528 H   0  0  0  0  0  0  0  0  0  0  0  0
    8.1792    0.6845   -0.5537 H   0  0  0  0  0  0  0  0  0  0  0  0
    8.7912    0.2753    2.8976 H   0  0  0  0  0  0  0  0  0  0  0  0
   -5.4172   -0.3672    0.0862 H   0  0  0  0  0  0  0  0  0  0  0  0
   -5.4150    1.4044    0.2105 H   0  0  0  0  0  0  0  0  0  0  0  0
   -4.8209    0.5959   -1.2559 H   0  0  0  0  0  0  0  0  0  0  0  0
   -2.5349    0.2859    2.4108 H   0  0  0  0  0  0  0  0  0  0  0  0
   -4.0338    1.2344    2.4035 H   0  0  0  0  0  0  0  0  0  0  0  0
   -4.0726   -0.5378    2.2468 H   0  0  0  0  0  0  0  0  0  0  0  0
  1  2  1  0  0  0  0
  1  3  2  0  0  0  0
  1  4  1  0  0  0  0
  2  5  2  0  0  0  0
  2  6  1  0  0  0  0
  3  7  1  0  0  0  0
  3  8  1  0  0  0  0
  4  9  2  0  0  0  0
  4 25  1  0  0  0  0
  5 10  1  0  0  0  0
  5 11  1  0  0  0  0
  6 12  1  0  0  0  0
  7 11  2  0  0  0  0
  7 26  1  0  0  0  0
  8 13  1  0  0  0  0
  9 13  1  0  0  0  0
  9 27  1  0  0  0  0
 10 14  1  0  0  0  0
 10 28  1  0  0  0  0
 10 29  1  0  0  0  0
 11 30  1  0  0  0  0
 12 14  1  0  0  0  0
 12 31  1  0  0  0  0
 12 32  1  0  0  0  0
 13 23  1  0  0  0  0
 13 24  1  0  0  0  0
 14 33  1  6  0  0  0
 14 15  1  0  0  0  0
 15 16  2  0  0  0  0
 15 17  1  0  0  0  0
 16 18  1  0  0  0  0
 16 19  1  0  0  0  0
 17 20  2  0  0  0  0
 17 34  1  0  0  0  0
 18 21  2  0  0  0  0
 18 35  1  0  0  0  0
 19 36  1  0  0  0  0
 20 21  1  0  0  0  0
 20 37  1  0  0  0  0
 21 22  1  0  0  0  0
 22 38  1  0  0  0  0
 23 39  1  0  0  0  0
 23 40  1  0  0  0  0
 23 41  1  0  0  0  0
 24 42  1  0  0  0  0
 24 43  1  0  0  0  0
 24 44  1  0  0  0  0
M  END
>  <Mol_ID>
1806

>  <Formula>
C20H20O4

>  <MolWeight>
324.3704

>  <Cat>
S3786

>  <Name>
Glabridin

>  <Synonyms>
Q-100692, KB-289522, LS-176045

>  <Target>
GABA Receptor,PPAR

>  <Form>
free base

>  <CAS>
59870-68-7

>  <URL>
http://selleckchem.com/products/glabridin.html

$$$$
