S3789 Tiglic acid.cdx
 OpenBabel08302519513D

 15 14  0  0  0  0  0  0  0  0999 V2000
    1.0442   -0.1195   -0.1106 C   0  0  0  0  0  0  0  0  0  0  0  0
    0.3120   -1.0161    0.8307 C   0  0  0  0  0  0  0  0  0  0  0  0
   -1.1881   -0.9098    0.7720 C   0  0  0  0  0  0  0  0  0  0  0  0
    0.9521   -1.9105    1.6150 C   0  0  0  0  0  0  0  0  0  0  0  0
    0.2990   -2.8751    2.5590 C   0  0  0  0  0  0  0  0  0  0  0  0
    0.5415    0.3312   -1.1287 O   0  0  0  0  0  0  0  0  0  0  0  0
    2.2972    0.1973    0.2721 O   0  0  0  0  0  0  0  0  0  0  0  0
   -1.6226   -1.8542    0.4246 H   0  0  0  0  0  0  0  0  0  0  0  0
   -1.5963   -0.6729    1.7594 H   0  0  0  0  0  0  0  0  0  0  0  0
   -1.5314   -0.1267    0.0901 H   0  0  0  0  0  0  0  0  0  0  0  0
    2.0335   -2.0178    1.5716 H   0  0  0  0  0  0  0  0  0  0  0  0
    0.5922   -3.8972    2.3004 H   0  0  0  0  0  0  0  0  0  0  0  0
    0.6290   -2.6723    3.5820 H   0  0  0  0  0  0  0  0  0  0  0  0
   -0.7931   -2.8275    2.5414 H   0  0  0  0  0  0  0  0  0  0  0  0
    2.5248   -0.0828    1.1751 H   0  0  0  0  0  0  0  0  0  0  0  0
  1  2  1  0  0  0  0
  1  6  2  0  0  0  0
  1  7  1  0  0  0  0
  2  3  1  0  0  0  0
  2  4  2  0  0  0  0
  3  8  1  0  0  0  0
  3  9  1  0  0  0  0
  3 10  1  0  0  0  0
  4  5  1  0  0  0  0
  4 11  1  0  0  0  0
  5 12  1  0  0  0  0
  5 13  1  0  0  0  0
  5 14  1  0  0  0  0
  7 15  1  0  0  0  0
M  END
>  <Mol_ID>
1856

>  <Formula>
C5H8O2

>  <MolWeight>
100.11582

>  <Cat>
S3789

>  <Name>
Tiglic acid

>  <Synonyms>
Cevadic acid, Sabadillic acid, Tiglinic acid

>  <Target>
Others

>  <Form>
free base

>  <CAS>
80-59-1

>  <URL>
http://selleckchem.com/products/tiglic-acid.html

$$$$
