S3798 L-Citrulline.cdx
 OpenBabel08302521383D

 25 24  0  0  0  0  0  0  0  0999 V2000
    0.9557    0.0783   -0.0670 C   0  0  0  0  0  0  0  0  0  0  0  0
    0.4441   -1.3675   -0.0686 C   0  0  0  0  0  0  0  0  0  0  0  0
    0.4297    0.9027   -1.2522 C   0  0  1  0  0  0  0  0  0  0  0  0
    0.9466   -2.1503    1.1430 C   0  0  0  0  0  0  0  0  0  0  0  0
    0.9641    2.3450   -1.1559 C   0  0  0  0  0  0  0  0  0  0  0  0
    0.7890    0.2637   -2.5326 N   0  0  0  0  0  0  0  0  0  0  0  0
    0.5373   -3.5396    1.0837 N   0  0  0  0  0  0  0  0  0  0  0  0
    1.7095    2.7234   -2.2226 O   0  0  0  0  0  0  0  0  0  0  0  0
    0.7595    3.0959   -0.2126 O   0  0  0  0  0  0  0  0  0  0  0  0
   -0.6445   -3.9623    1.6141 C   0  0  0  0  0  0  0  0  0  0  0  0
   -0.8583   -5.2844    1.3949 N   0  0  0  0  0  0  0  0  0  0  0  0
   -1.4441   -3.2739    2.2281 O   0  0  0  0  0  0  0  0  0  0  0  0
    2.0541    0.0817   -0.0673 H   0  0  0  0  0  0  0  0  0  0  0  0
    0.6515    0.5632    0.8707 H   0  0  0  0  0  0  0  0  0  0  0  0
   -0.6526   -1.3732   -0.0869 H   0  0  0  0  0  0  0  0  0  0  0  0
    0.7772   -1.8808   -0.9789 H   0  0  0  0  0  0  0  0  0  0  0  0
   -0.6631    0.9652   -1.2110 H   0  0  0  0  0  0  0  0  0  0  0  0
    2.0411   -2.1472    1.1717 H   0  0  0  0  0  0  0  0  0  0  0  0
    0.5767   -1.7010    2.0711 H   0  0  0  0  0  0  0  0  0  0  0  0
    0.3560    0.6925   -3.3457 H   0  0  0  0  0  0  0  0  0  0  0  0
    1.7726    0.0348   -2.6344 H   0  0  0  0  0  0  0  0  0  0  0  0
    0.9035   -4.1056    0.3322 H   0  0  0  0  0  0  0  0  0  0  0  0
    1.7622    1.9915   -2.8637 H   0  0  0  0  0  0  0  0  0  0  0  0
   -1.6648   -5.6391    1.8950 H   0  0  0  0  0  0  0  0  0  0  0  0
   -0.0474   -5.8843    1.4308 H   0  0  0  0  0  0  0  0  0  0  0  0
  1  2  1  0  0  0  0
  1  3  1  0  0  0  0
  1 13  1  0  0  0  0
  1 14  1  0  0  0  0
  2  4  1  0  0  0  0
  2 15  1  0  0  0  0
  2 16  1  0  0  0  0
  3  5  1  0  0  0  0
  3  6  1  0  0  0  0
  3 17  1  1  0  0  0
  4  7  1  0  0  0  0
  4 18  1  0  0  0  0
  4 19  1  0  0  0  0
  5  8  1  0  0  0  0
  5  9  2  0  0  0  0
  6 20  1  0  0  0  0
  6 21  1  0  0  0  0
  7 10  1  0  0  0  0
  7 22  1  0  0  0  0
  8 23  1  0  0  0  0
 10 11  1  0  0  0  0
 10 12  2  0  0  0  0
 11 24  1  0  0  0  0
 11 25  1  0  0  0  0
M  END
>  <Mol_ID>
7797

>  <Formula>
C6H13N3O3

>  <MolWeight>
175.18572

>  <Cat>
S3798

>  <Name>
L-Citrulline

>  <Synonyms>
N/A

>  <Target>
Others

>  <Form>
free base

>  <CAS>
372-75-8

>  <URL>
http://selleckchem.com/products/l-citrulline.html

$$$$
