S3797 Helicide.cdx
 OpenBabel08302519513D

 36 37  0  0  0  0  0  0  0  0999 V2000
   -1.3703   -1.0524   -0.4929 C   0  0  2  0  0  0  0  0  0  0  0  0
   -1.7432   -1.3686   -1.8336 O   0  0  0  0  0  0  0  0  0  0  0  0
   -1.8483    0.2353   -0.0872 O   0  0  0  0  0  0  0  0  0  0  0  0
    0.1433   -1.2254   -0.2222 C   0  0  1  0  0  0  0  0  0  0  0  0
   -3.0689   -1.6900   -2.0385 C   0  0  0  0  0  0  0  0  0  0  0  0
   -1.1341    1.3844   -0.5963 C   0  0  1  0  0  0  0  0  0  0  0  0
    0.9488   -0.0280   -0.7328 C   0  0  1  0  0  0  0  0  0  0  0  0
    0.4018   -1.3293    1.2037 O   0  0  0  0  0  0  0  0  0  0  0  0
   -3.5174   -1.5790   -3.3609 C   0  0  0  0  0  0  0  0  0  0  0  0
   -3.9669   -2.1265   -1.0598 C   0  0  0  0  0  0  0  0  0  0  0  0
    0.3548    1.2986   -0.2325 C   0  0  2  0  0  0  0  0  0  0  0  0
   -1.3237    1.6430   -2.1017 C   0  0  0  0  0  0  0  0  0  0  0  0
    2.3059   -0.1394   -0.2888 O   0  0  0  0  0  0  0  0  0  0  0  0
   -4.8449   -1.8816   -3.6921 C   0  0  0  0  0  0  0  0  0  0  0  0
   -5.2925   -2.4429   -1.3850 C   0  0  0  0  0  0  0  0  0  0  0  0
    0.5029    1.4209    1.1911 O   0  0  0  0  0  0  0  0  0  0  0  0
   -2.6821    1.9249   -2.4179 O   0  0  0  0  0  0  0  0  0  0  0  0
   -5.7257   -2.3194   -2.6995 C   0  0  0  0  0  0  0  0  0  0  0  0
   -7.1317   -2.6675   -3.0186 C   0  0  0  0  0  0  0  0  0  0  0  0
   -7.5675   -2.5851   -4.1576 O   0  0  0  0  0  0  0  0  0  0  0  0
   -1.8268   -1.7740    0.1888 H   0  0  0  0  0  0  0  0  0  0  0  0
    0.5165   -2.1484   -0.6793 H   0  0  0  0  0  0  0  0  0  0  0  0
   -1.5773    2.2291   -0.0559 H   0  0  0  0  0  0  0  0  0  0  0  0
    0.9682   -0.0384   -1.8274 H   0  0  0  0  0  0  0  0  0  0  0  0
   -0.4137   -1.5893    1.6662 H   0  0  0  0  0  0  0  0  0  0  0  0
   -2.8399   -1.2419   -4.1403 H   0  0  0  0  0  0  0  0  0  0  0  0
   -3.6925   -2.2487   -0.0173 H   0  0  0  0  0  0  0  0  0  0  0  0
    0.9162    2.1384   -0.6570 H   0  0  0  0  0  0  0  0  0  0  0  0
   -0.7396    2.5216   -2.3966 H   0  0  0  0  0  0  0  0  0  0  0  0
   -0.9972    0.8098   -2.7280 H   0  0  0  0  0  0  0  0  0  0  0  0
    2.2456   -0.1670    0.6880 H   0  0  0  0  0  0  0  0  0  0  0  0
   -5.1836   -1.7805   -4.7207 H   0  0  0  0  0  0  0  0  0  0  0  0
   -5.9596   -2.7868   -0.6014 H   0  0  0  0  0  0  0  0  0  0  0  0
   -0.0831    0.7637    1.6064 H   0  0  0  0  0  0  0  0  0  0  0  0
   -3.1484    1.0729   -2.4732 H   0  0  0  0  0  0  0  0  0  0  0  0
   -7.7527   -3.0090   -2.1812 H   0  0  0  0  0  0  0  0  0  0  0  0
  1  3  1  0  0  0  0
  1  4  1  0  0  0  0
  1 21  1  1  0  0  0
  1  2  1  0  0  0  0
  2  5  1  0  0  0  0
  3  6  1  0  0  0  0
  4  7  1  0  0  0  0
  4  8  1  0  0  0  0
  4 22  1  6  0  0  0
  5  9  2  0  0  0  0
  5 10  1  0  0  0  0
  6 11  1  0  0  0  0
  6 23  1  1  0  0  0
  6 12  1  0  0  0  0
  7 13  1  0  0  0  0
  7 11  1  0  0  0  0
  7 24  1  6  0  0  0
  8 25  1  0  0  0  0
  9 14  1  0  0  0  0
  9 26  1  0  0  0  0
 10 15  2  0  0  0  0
 10 27  1  0  0  0  0
 11 16  1  0  0  0  0
 11 28  1  6  0  0  0
 12 17  1  0  0  0  0
 12 29  1  0  0  0  0
 12 30  1  0  0  0  0
 13 31  1  0  0  0  0
 14 18  2  0  0  0  0
 14 32  1  0  0  0  0
 15 18  1  0  0  0  0
 15 33  1  0  0  0  0
 16 34  1  0  0  0  0
 17 35  1  0  0  0  0
 18 19  1  0  0  0  0
 19 20  2  0  0  0  0
 19 36  1  0  0  0  0
M  END
>  <Mol_ID>
1862

>  <Formula>
C13H16O7

>  <MolWeight>
284.26194

>  <Cat>
S3797

>  <Name>
Helicide

>  <Synonyms>
4-formylphenyl-O-¦Â-d-allopyranoside

>  <Target>
Others

>  <Form>
free base

>  <CAS>
80154-34-3

>  <URL>
http://selleckchem.com/products/helicide.html

$$$$
