S3795 Phloretic acid.cdx
 OpenBabel08302519513D

 22 22  0  0  0  0  0  0  0  0999 V2000
   -1.8428    0.1012   -0.0533 C   0  0  0  0  0  0  0  0  0  0  0  0
   -1.1978   -1.1418    0.0379 C   0  0  0  0  0  0  0  0  0  0  0  0
   -1.0565    1.2527   -0.2173 C   0  0  0  0  0  0  0  0  0  0  0  0
   -3.3474    0.2298   -0.0051 C   0  0  0  0  0  0  0  0  0  0  0  0
    0.1967   -1.2271    0.0350 C   0  0  0  0  0  0  0  0  0  0  0  0
    0.3377    1.1679   -0.2184 C   0  0  0  0  0  0  0  0  0  0  0  0
   -4.0818   -0.7980    0.8586 C   0  0  0  0  0  0  0  0  0  0  0  0
    0.9527   -0.0686   -0.0795 C   0  0  0  0  0  0  0  0  0  0  0  0
   -3.6381   -0.8185    2.3040 C   0  0  0  0  0  0  0  0  0  0  0  0
    2.3147   -0.1072   -0.0579 O   0  0  0  0  0  0  0  0  0  0  0  0
   -3.8930    0.3237    2.9735 O   0  0  0  0  0  0  0  0  0  0  0  0
   -3.1474   -1.8004    2.8452 O   0  0  0  0  0  0  0  0  0  0  0  0
   -1.7620   -2.0653    0.1323 H   0  0  0  0  0  0  0  0  0  0  0  0
   -1.5191    2.2307   -0.3311 H   0  0  0  0  0  0  0  0  0  0  0  0
   -3.6052    1.2342    0.3540 H   0  0  0  0  0  0  0  0  0  0  0  0
   -3.7253    0.1602   -1.0328 H   0  0  0  0  0  0  0  0  0  0  0  0
    0.6639   -2.2019    0.1348 H   0  0  0  0  0  0  0  0  0  0  0  0
    0.9425    2.0653   -0.3150 H   0  0  0  0  0  0  0  0  0  0  0  0
   -5.1618   -0.6110    0.8388 H   0  0  0  0  0  0  0  0  0  0  0  0
   -3.9456   -1.8066    0.4508 H   0  0  0  0  0  0  0  0  0  0  0  0
    2.5912   -1.0243    0.1041 H   0  0  0  0  0  0  0  0  0  0  0  0
   -4.3178    1.0212    2.4410 H   0  0  0  0  0  0  0  0  0  0  0  0
  1  2  2  0  0  0  0
  1  3  1  0  0  0  0
  1  4  1  0  0  0  0
  2  5  1  0  0  0  0
  2 13  1  0  0  0  0
  3  6  2  0  0  0  0
  3 14  1  0  0  0  0
  4  7  1  0  0  0  0
  4 15  1  0  0  0  0
  4 16  1  0  0  0  0
  5  8  2  0  0  0  0
  5 17  1  0  0  0  0
  6  8  1  0  0  0  0
  6 18  1  0  0  0  0
  7  9  1  0  0  0  0
  7 19  1  0  0  0  0
  7 20  1  0  0  0  0
  8 10  1  0  0  0  0
  9 11  1  0  0  0  0
  9 12  2  0  0  0  0
 10 21  1  0  0  0  0
 11 22  1  0  0  0  0
M  END
>  <Mol_ID>
1860

>  <Formula>
C9H10O3

>  <MolWeight>
166.1739

>  <Cat>
S3795

>  <Name>
Phloretic acid

>  <Synonyms>
Desaminotyrosine, Hydro-p-coumaric acid, Phloretate, 3-(4-Hydroxyphenyl)propanoic acid

>  <Target>
Others

>  <Form>
free base

>  <CAS>
501-97-3

>  <URL>
http://selleckchem.com/products/phloretic-acid.html

$$$$
