S3799 Gentisic acid.cdx
 OpenBabel08302519513D

 17 17  0  0  0  0  0  0  0  0999 V2000
   -0.6553   -1.2855    0.0083 C   0  0  0  0  0  0  0  0  0  0  0  0
   -1.3713   -0.0715    0.0050 C   0  0  0  0  0  0  0  0  0  0  0  0
    0.7486   -1.2353    0.0053 C   0  0  0  0  0  0  0  0  0  0  0  0
   -1.4256   -2.5633    0.0153 C   0  0  0  0  0  0  0  0  0  0  0  0
   -0.7082    1.1557    0.0072 C   0  0  0  0  0  0  0  0  0  0  0  0
   -2.7406    0.0048   -0.0026 O   0  0  0  0  0  0  0  0  0  0  0  0
    1.3974    0.0006    0.0044 C   0  0  0  0  0  0  0  0  0  0  0  0
   -0.7302   -3.7158    0.0228 O   0  0  0  0  0  0  0  0  0  0  0  0
   -2.6499   -2.5572    0.0149 O   0  0  0  0  0  0  0  0  0  0  0  0
    0.6825    1.1913    0.0081 C   0  0  0  0  0  0  0  0  0  0  0  0
    2.7587    0.0883   -0.0005 O   0  0  0  0  0  0  0  0  0  0  0  0
    1.3586   -2.1275    0.0037 H   0  0  0  0  0  0  0  0  0  0  0  0
   -1.2783    2.0814    0.0075 H   0  0  0  0  0  0  0  0  0  0  0  0
   -3.1106   -0.9070   -0.0071 H   0  0  0  0  0  0  0  0  0  0  0  0
    0.2375   -3.6786    0.0291 H   0  0  0  0  0  0  0  0  0  0  0  0
    1.2051    2.1441    0.0098 H   0  0  0  0  0  0  0  0  0  0  0  0
    3.1507   -0.7994   -0.0189 H   0  0  0  0  0  0  0  0  0  0  0  0
  1  2  2  0  0  0  0
  1  3  1  0  0  0  0
  1  4  1  0  0  0  0
  2  5  1  0  0  0  0
  2  6  1  0  0  0  0
  3  7  2  0  0  0  0
  3 12  1  0  0  0  0
  4  8  1  0  0  0  0
  4  9  2  0  0  0  0
  5 10  2  0  0  0  0
  5 13  1  0  0  0  0
  6 14  1  0  0  0  0
  7 11  1  0  0  0  0
  7 10  1  0  0  0  0
  8 15  1  0  0  0  0
 10 16  1  0  0  0  0
 11 17  1  0  0  0  0
M  END
>  <Mol_ID>
1863

>  <Formula>
C7H6O4

>  <MolWeight>
154.12014

>  <Cat>
S3799

>  <Name>
Gentisic acid

>  <Synonyms>
DHB, 2,5-dihydroxybenzoic acid, 5-Hydroxysalicylic acid, Gentianic acid, Carboxyhydroquinone, Hydroquinonecarboxylic acid

>  <Target>
Immunology & Inflammation related

>  <Form>
free base

>  <CAS>
490-79-9

>  <URL>
http://selleckchem.com/products/gentisic-acid.html

$$$$
