S3801 Sodium Houttuyfonate.cdx
 OpenBabel08302521393D

 47 46  0  0  0  0  0  0  0  0999 V2000
   -1.8556   -1.9382    0.1419 O   0  0  0  0  0  0  0  0  0  0  0  0
   -0.4464   -1.8009    0.3366 C   0  0  0  0  0  0  0  0  0  0  0  0
   -2.4403   -1.1751   -0.8090 C   0  0  0  0  0  0  0  0  0  0  0  0
    0.2841   -2.8774   -0.4568 C   0  0  0  0  0  0  0  0  0  0  0  0
   -3.9193   -1.3262   -0.8866 C   0  0  0  0  0  0  0  0  0  0  0  0
   -1.8010   -0.5310   -1.6430 O   0  0  0  0  0  0  0  0  0  0  0  0
    1.7835   -2.9247   -0.1568 C   0  0  0  0  0  0  0  0  0  0  0  0
   -4.6927   -1.3872    0.6887 S   0  0  0  0  0  0  0  0  0  0  0  0
    2.1432   -3.2779    1.2920 C   0  0  0  0  0  0  0  0  0  0  0  0
   -4.1803   -0.2089    1.3854 O   0  0  0  0  0  0  0  0  0  0  0  0
   -6.1132   -1.3108    0.3452 O   0  0  0  0  0  0  0  0  0  0  0  0
   -4.2974   -2.6750    1.2571 O   0  5  0  0  0  0  0  0  0  0  0  0
    1.5705   -4.6072    1.7975 C   0  0  0  0  0  0  0  0  0  0  0  0
    2.0965   -5.8002    1.0014 C   0  0  0  0  0  0  0  0  0  0  0  0
    1.5039   -7.1213    1.4852 C   0  0  0  0  0  0  0  0  0  0  0  0
    2.0662   -8.2817    0.6639 C   0  0  0  0  0  0  0  0  0  0  0  0
    1.4798   -9.6188    1.1078 C   0  0  0  0  0  0  0  0  0  0  0  0
    2.0627  -10.7694    0.2878 C   0  0  0  0  0  0  0  0  0  0  0  0
    1.4932  -12.1125    0.7388 C   0  0  0  0  0  0  0  0  0  0  0  0
    2.0689  -13.2590   -0.0757 C   0  0  0  0  0  0  0  0  0  0  0  0
   -0.0924   -0.7978    0.0710 H   0  0  0  0  0  0  0  0  0  0  0  0
   -0.2798   -1.9253    1.4102 H   0  0  0  0  0  0  0  0  0  0  0  0
   -0.1816   -3.8546   -0.2779 H   0  0  0  0  0  0  0  0  0  0  0  0
    0.1387   -2.6901   -1.5287 H   0  0  0  0  0  0  0  0  0  0  0  0
   -4.3226   -0.4423   -1.3932 H   0  0  0  0  0  0  0  0  0  0  0  0
   -4.1802   -2.2217   -1.4531 H   0  0  0  0  0  0  0  0  0  0  0  0
    2.2532   -3.6442   -0.8380 H   0  0  0  0  0  0  0  0  0  0  0  0
    2.2269   -1.9522   -0.4003 H   0  0  0  0  0  0  0  0  0  0  0  0
    3.2355   -3.3050    1.3801 H   0  0  0  0  0  0  0  0  0  0  0  0
    1.8098   -2.4753    1.9597 H   0  0  0  0  0  0  0  0  0  0  0  0
    1.8485   -4.7273    2.8521 H   0  0  0  0  0  0  0  0  0  0  0  0
    0.4751   -4.5861    1.7715 H   0  0  0  0  0  0  0  0  0  0  0  0
    1.8552   -5.6826   -0.0603 H   0  0  0  0  0  0  0  0  0  0  0  0
    3.1898   -5.8345    1.0832 H   0  0  0  0  0  0  0  0  0  0  0  0
    1.7334   -7.2689    2.5470 H   0  0  0  0  0  0  0  0  0  0  0  0
    0.4118   -7.0937    1.3873 H   0  0  0  0  0  0  0  0  0  0  0  0
    1.8466   -8.1202   -0.3989 H   0  0  0  0  0  0  0  0  0  0  0  0
    3.1582   -8.3060    0.7659 H   0  0  0  0  0  0  0  0  0  0  0  0
    1.6917   -9.7783    2.1718 H   0  0  0  0  0  0  0  0  0  0  0  0
    0.3894   -9.5989    0.9926 H   0  0  0  0  0  0  0  0  0  0  0  0
    1.8418  -10.6130   -0.7753 H   0  0  0  0  0  0  0  0  0  0  0  0
    3.1548  -10.7791    0.3918 H   0  0  0  0  0  0  0  0  0  0  0  0
    1.7191  -12.2741    1.7992 H   0  0  0  0  0  0  0  0  0  0  0  0
    0.4020  -12.1082    0.6356 H   0  0  0  0  0  0  0  0  0  0  0  0
    3.1588  -13.2985    0.0185 H   0  0  0  0  0  0  0  0  0  0  0  0
    1.6621  -14.2130    0.2732 H   0  0  0  0  0  0  0  0  0  0  0  0
    1.8193  -13.1497   -1.1360 H   0  0  0  0  0  0  0  0  0  0  0  0
  1  2  1  0  0  0  0
  1  3  1  0  0  0  0
  2  4  1  0  0  0  0
  2 21  1  0  0  0  0
  2 22  1  0  0  0  0
  3  5  1  0  0  0  0
  3  6  2  0  0  0  0
  4  7  1  0  0  0  0
  4 23  1  0  0  0  0
  4 24  1  0  0  0  0
  5  8  1  0  0  0  0
  5 25  1  0  0  0  0
  5 26  1  0  0  0  0
  7  9  1  0  0  0  0
  7 27  1  0  0  0  0
  7 28  1  0  0  0  0
  8 10  2  0  0  0  0
  8 11  2  0  0  0  0
  8 12  1  0  0  0  0
  9 13  1  0  0  0  0
  9 29  1  0  0  0  0
  9 30  1  0  0  0  0
 13 14  1  0  0  0  0
 13 31  1  0  0  0  0
 13 32  1  0  0  0  0
 14 15  1  0  0  0  0
 14 33  1  0  0  0  0
 14 34  1  0  0  0  0
 15 16  1  0  0  0  0
 15 35  1  0  0  0  0
 15 36  1  0  0  0  0
 16 17  1  0  0  0  0
 16 37  1  0  0  0  0
 16 38  1  0  0  0  0
 17 18  1  0  0  0  0
 17 39  1  0  0  0  0
 17 40  1  0  0  0  0
 18 19  1  0  0  0  0
 18 41  1  0  0  0  0
 18 42  1  0  0  0  0
 19 20  1  0  0  0  0
 19 43  1  0  0  0  0
 19 44  1  0  0  0  0
 20 45  1  0  0  0  0
 20 46  1  0  0  0  0
 20 47  1  0  0  0  0
M  CHG  1  12  -1
M  END
>  <Mol_ID>
8150

>  <Formula>
C14H27NaO5S

>  <MolWeight>
330.41595

>  <Cat>
S3801

>  <Name>
Sodium Houttuyfonate

>  <Synonyms>
N/A

>  <Target>
Anti-infection

>  <Form>
sodium salt

>  <CAS>
1847-58-1

>  <URL>
http://selleckchem.com/products/sodium-houttuyfonate.html

$$$$
