S3809 Imperatorin.cdx
 OpenBabel08302519513D

 34 36  0  0  0  0  0  0  0  0999 V2000
    0.4829   -1.0422    0.0579 C   0  0  0  0  0  0  0  0  0  0  0  0
   -0.5334   -0.0751   -0.0099 C   0  0  0  0  0  0  0  0  0  0  0  0
    1.7849   -0.5228    0.0261 C   0  0  0  0  0  0  0  0  0  0  0  0
    0.3542   -2.3728    0.2919 O   0  0  0  0  0  0  0  0  0  0  0  0
   -0.2626    1.3019   -0.0848 C   0  0  0  0  0  0  0  0  0  0  0  0
   -1.8849   -0.4955    0.0474 O   0  0  0  0  0  0  0  0  0  0  0  0
    2.1033    0.8279   -0.0586 C   0  0  0  0  0  0  0  0  0  0  0  0
    2.9340   -1.2615    0.0804 O   0  0  0  0  0  0  0  0  0  0  0  0
   -0.6903   -3.1090   -0.3377 C   0  0  0  0  0  0  0  0  0  0  0  0
    1.0609    1.7658   -0.1115 C   0  0  0  0  0  0  0  0  0  0  0  0
   -1.3656    2.2533   -0.0896 C   0  0  0  0  0  0  0  0  0  0  0  0
   -2.9553    0.3851    0.0080 C   0  0  0  0  0  0  0  0  0  0  0  0
    3.5222    0.9008   -0.0513 C   0  0  0  0  0  0  0  0  0  0  0  0
    3.9764   -0.3941    0.0302 C   0  0  0  0  0  0  0  0  0  0  0  0
   -0.4344   -4.5379    0.0613 C   0  0  0  0  0  0  0  0  0  0  0  0
   -2.6261    1.8172   -0.0441 C   0  0  0  0  0  0  0  0  0  0  0  0
   -4.1204    0.0067    0.0253 O   0  0  0  0  0  0  0  0  0  0  0  0
   -1.2377   -5.3377    0.7914 C   0  0  0  0  0  0  0  0  0  0  0  0
   -0.7631   -6.6864    1.2600 C   0  0  0  0  0  0  0  0  0  0  0  0
   -2.6138   -4.9349    1.2410 C   0  0  0  0  0  0  0  0  0  0  0  0
   -1.6721   -2.7860    0.0096 H   0  0  0  0  0  0  0  0  0  0  0  0
   -0.6320   -3.0101   -1.4276 H   0  0  0  0  0  0  0  0  0  0  0  0
    1.2855    2.8291   -0.1524 H   0  0  0  0  0  0  0  0  0  0  0  0
   -1.1465    3.3164   -0.1189 H   0  0  0  0  0  0  0  0  0  0  0  0
    4.1372    1.7886   -0.0930 H   0  0  0  0  0  0  0  0  0  0  0  0
    4.9577   -0.8442    0.0640 H   0  0  0  0  0  0  0  0  0  0  0  0
    0.5534   -4.9024   -0.2181 H   0  0  0  0  0  0  0  0  0  0  0  0
   -3.4683    2.4980   -0.0414 H   0  0  0  0  0  0  0  0  0  0  0  0
   -0.4951   -6.6322    2.3213 H   0  0  0  0  0  0  0  0  0  0  0  0
   -1.5454   -7.4421    1.1400 H   0  0  0  0  0  0  0  0  0  0  0  0
    0.1169   -7.0312    0.7073 H   0  0  0  0  0  0  0  0  0  0  0  0
   -2.5902   -3.9913    1.7947 H   0  0  0  0  0  0  0  0  0  0  0  0
   -3.2786   -4.8312    0.3768 H   0  0  0  0  0  0  0  0  0  0  0  0
   -3.0535   -5.6880    1.9034 H   0  0  0  0  0  0  0  0  0  0  0  0
  1  2  2  0  0  0  0
  1  3  1  0  0  0  0
  1  4  1  0  0  0  0
  2  5  1  0  0  0  0
  2  6  1  0  0  0  0
  3  7  2  0  0  0  0
  3  8  1  0  0  0  0
  4  9  1  0  0  0  0
  5 10  2  0  0  0  0
  5 11  1  0  0  0  0
  6 12  1  0  0  0  0
  7 13  1  0  0  0  0
  7 10  1  0  0  0  0
  8 14  1  0  0  0  0
  9 15  1  0  0  0  0
  9 21  1  0  0  0  0
  9 22  1  0  0  0  0
 10 23  1  0  0  0  0
 11 16  2  0  0  0  0
 11 24  1  0  0  0  0
 12 17  2  0  0  0  0
 12 16  1  0  0  0  0
 13 14  2  0  0  0  0
 13 25  1  0  0  0  0
 14 26  1  0  0  0  0
 15 18  2  0  0  0  0
 15 27  1  0  0  0  0
 16 28  1  0  0  0  0
 18 19  1  0  0  0  0
 18 20  1  0  0  0  0
 19 29  1  0  0  0  0
 19 30  1  0  0  0  0
 19 31  1  0  0  0  0
 20 32  1  0  0  0  0
 20 33  1  0  0  0  0
 20 34  1  0  0  0  0
M  END
>  <Mol_ID>
1848

>  <Formula>
C16H14O4

>  <MolWeight>
270.27996

>  <Cat>
S3809

>  <Name>
Imperatorin

>  <Synonyms>
Ammidin, Marmelosin, Pentosalen, 8-Isoamylenoxypsoralen, 8-Isopentenyloxypsoralene

>  <Target>
Calcium Channel

>  <Form>
free base

>  <CAS>
482-44-0

>  <URL>
http://selleckchem.com/products/imperatorin.html

$$$$
