S3800 Lycorine hydrochloride.cdx
 OpenBabel08302519513D

 38 42  0  0  0  0  0  0  0  0999 V2000
    0.3532    9.5671    0.8243 C   0  0  2  0  0  0  0  0  0  0  0  0
   -0.1050    9.9021   -0.6004 C   0  0  2  0  0  0  0  0  0  0  0  0
    0.6331    8.0574    0.6947 C   0  0  0  0  0  0  0  0  0  0  0  0
   -0.7018   10.1282    1.8092 C   0  0  1  0  0  0  0  0  0  0  0  0
    1.0885    9.9536   -1.4386 N   0  0  3  0  0  0  0  0  0  0  0  0
   -0.7521   11.1886   -0.8861 C   0  0  0  0  0  0  0  0  0  0  0  0
    1.1261    7.6173   -0.5951 C   0  0  0  0  0  0  0  0  0  0  0  0
    0.2275    7.1147    1.6420 C   0  0  0  0  0  0  0  0  0  0  0  0
   -0.9876   11.6545    1.5346 C   0  0  2  0  0  0  0  0  0  0  0  0
   -1.9507    9.4315    1.7265 O   0  0  0  0  0  0  0  0  0  0  0  0
    1.6550    8.6290   -1.6241 C   0  0  0  0  0  0  0  0  0  0  0  0
    0.7790   10.7894   -2.6031 C   0  0  0  0  0  0  0  0  0  0  0  0
   -0.6493   11.3276   -2.3753 C   0  0  0  0  0  0  0  0  0  0  0  0
   -1.1608   12.0166    0.0725 C   0  0  0  0  0  0  0  0  0  0  0  0
    1.0009    6.2767   -0.9745 C   0  0  0  0  0  0  0  0  0  0  0  0
    0.1208    5.8034    1.2175 C   0  0  0  0  0  0  0  0  0  0  0  0
    0.0524   12.5093    2.0093 O   0  0  0  0  0  0  0  0  0  0  0  0
    0.4542    5.4093   -0.0599 C   0  0  0  0  0  0  0  0  0  0  0  0
   -0.3945    4.7762    1.9490 O   0  0  0  0  0  0  0  0  0  0  0  0
    0.1512    4.1066   -0.3036 O   0  0  0  0  0  0  0  0  0  0  0  0
   -0.3364    3.6987    0.9890 C   0  0  0  0  0  0  0  0  0  0  0  0
    1.3120   10.0553    1.0553 H   0  0  0  0  0  0  0  0  0  0  0  0
   -0.8270    9.1494   -0.9650 H   0  0  0  0  0  0  0  0  0  0  0  0
   -0.3293   10.0201    2.8358 H   0  0  0  0  0  0  0  0  0  0  0  0
   -0.0857    7.3854    2.6429 H   0  0  0  0  0  0  0  0  0  0  0  0
   -1.9038   11.9362    2.0624 H   0  0  0  0  0  0  0  0  0  0  0  0
   -1.8277    8.5378    2.0853 H   0  0  0  0  0  0  0  0  0  0  0  0
    1.4623    8.2545   -2.6335 H   0  0  0  0  0  0  0  0  0  0  0  0
    2.7430    8.6927   -1.4902 H   0  0  0  0  0  0  0  0  0  0  0  0
    1.4774   11.6369   -2.6086 H   0  0  0  0  0  0  0  0  0  0  0  0
    0.8720   10.2735   -3.5632 H   0  0  0  0  0  0  0  0  0  0  0  0
   -1.3741   10.6535   -2.8532 H   0  0  0  0  0  0  0  0  0  0  0  0
   -0.7983   12.3398   -2.7527 H   0  0  0  0  0  0  0  0  0  0  0  0
   -1.5870   12.9866   -0.1608 H   0  0  0  0  0  0  0  0  0  0  0  0
    1.2487    5.9416   -1.9754 H   0  0  0  0  0  0  0  0  0  0  0  0
    0.7754   11.9687    2.3604 H   0  0  0  0  0  0  0  0  0  0  0  0
   -1.3408    3.2731    0.8743 H   0  0  0  0  0  0  0  0  0  0  0  0
    0.3339    2.9220    1.3713 H   0  0  0  0  0  0  0  0  0  0  0  0
  1  2  1  0  0  0  0
  1  3  1  0  0  0  0
  1  4  1  0  0  0  0
  1 22  1  1  0  0  0
  2  5  1  0  0  0  0
  2  6  1  0  0  0  0
  2 23  1  6  0  0  0
  3  7  2  0  0  0  0
  3  8  1  0  0  0  0
  4  9  1  0  0  0  0
  4 10  1  0  0  0  0
  4 24  1  1  0  0  0
  5 11  1  0  0  0  0
  5 12  1  0  0  0  0
  6 13  1  0  0  0  0
  6 14  2  0  0  0  0
  7 15  1  0  0  0  0
  7 11  1  0  0  0  0
  8 16  2  0  0  0  0
  8 25  1  0  0  0  0
  9 17  1  0  0  0  0
  9 14  1  0  0  0  0
  9 26  1  1  0  0  0
 10 27  1  0  0  0  0
 11 28  1  0  0  0  0
 11 29  1  0  0  0  0
 12 13  1  0  0  0  0
 12 30  1  0  0  0  0
 12 31  1  0  0  0  0
 13 32  1  0  0  0  0
 13 33  1  0  0  0  0
 14 34  1  0  0  0  0
 15 18  2  0  0  0  0
 15 35  1  0  0  0  0
 16 19  1  0  0  0  0
 16 18  1  0  0  0  0
 17 36  1  0  0  0  0
 18 20  1  0  0  0  0
 19 21  1  0  0  0  0
 20 21  1  0  0  0  0
 21 37  1  0  0  0  0
 21 38  1  0  0  0  0
M  END
>  <Mol_ID>
1842

>  <Formula>
C16H18ClNO4

>  <MolWeight>
323.77142

>  <Cat>
S3800

>  <Name>
Lycorine hydrochloride

>  <Synonyms>
Galanthidine hydrochloride, Amarylline hydrochloride, Narcissine hydrochloride, Licorine hydrochloride

>  <Target>
ADC Cytotoxin,HCV Protease

>  <Form>
hydrochloride

>  <CAS>
2188-68-3

>  <URL>
http://selleckchem.com/products/lycorine-hydrochloride.html

$$$$
