S3803 Angelic acid.cdx
 OpenBabel08302519513D

 15 14  0  0  0  0  0  0  0  0999 V2000
    0.7892   -0.0340   -0.1200 C   0  0  0  0  0  0  0  0  0  0  0  0
    0.2157    0.5987   -1.3443 C   0  0  0  0  0  0  0  0  0  0  0  0
    0.1315   -0.5088    0.9588 C   0  0  0  0  0  0  0  0  0  0  0  0
    2.2991   -0.0628   -0.0983 C   0  0  0  0  0  0  0  0  0  0  0  0
   -0.9783    0.1058   -1.7219 O   0  0  0  0  0  0  0  0  0  0  0  0
    0.8080    1.4431   -2.0012 O   0  0  0  0  0  0  0  0  0  0  0  0
   -1.3241   -0.5401    1.3071 C   0  0  0  0  0  0  0  0  0  0  0  0
    0.7474   -0.9090    1.7639 H   0  0  0  0  0  0  0  0  0  0  0  0
    2.7481    0.2554   -1.0441 H   0  0  0  0  0  0  0  0  0  0  0  0
    2.6784    0.5997    0.6882 H   0  0  0  0  0  0  0  0  0  0  0  0
    2.6592   -1.0798    0.0973 H   0  0  0  0  0  0  0  0  0  0  0  0
   -1.2523   -0.6756   -1.2130 H   0  0  0  0  0  0  0  0  0  0  0  0
   -1.6391   -1.5789    1.4500 H   0  0  0  0  0  0  0  0  0  0  0  0
   -1.4785   -0.0123    2.2536 H   0  0  0  0  0  0  0  0  0  0  0  0
   -1.9798   -0.0772    0.5688 H   0  0  0  0  0  0  0  0  0  0  0  0
  1  2  1  0  0  0  0
  1  3  2  0  0  0  0
  1  4  1  0  0  0  0
  2  5  1  0  0  0  0
  2  6  2  0  0  0  0
  3  7  1  0  0  0  0
  3  8  1  0  0  0  0
  4  9  1  0  0  0  0
  4 10  1  0  0  0  0
  4 11  1  0  0  0  0
  5 12  1  0  0  0  0
  7 13  1  0  0  0  0
  7 14  1  0  0  0  0
  7 15  1  0  0  0  0
M  END
>  <Mol_ID>
1844

>  <Formula>
C5H8O2

>  <MolWeight>
100.11582

>  <Cat>
S3803

>  <Name>
Angelic acid

>  <Synonyms>
(Z)-2-Methylbut-2-enoic acid

>  <Target>
Others

>  <Form>
free base

>  <CAS>
565-63-9

>  <URL>
http://selleckchem.com/products/angelic-acid.html

$$$$
