S3806 Angelic anhydride.cdx
 OpenBabel08302520003D

 27 26  0  0  0  0  0  0  0  0999 V2000
    1.0042   -0.4291   -0.7124 C   0  0  0  0  0  0  0  0  0  0  0  0
    2.4343   -0.8062   -0.9792 C   0  0  0  0  0  0  0  0  0  0  0  0
    0.1458   -1.1936   -1.4211 O   0  0  0  0  0  0  0  0  0  0  0  0
    0.6904    0.4625    0.0640 O   0  0  0  0  0  0  0  0  0  0  0  0
    2.8828   -1.8588   -1.6974 C   0  0  0  0  0  0  0  0  0  0  0  0
    3.4586    0.1488   -0.4164 C   0  0  0  0  0  0  0  0  0  0  0  0
   -1.1115   -0.7232   -1.4452 C   0  0  0  0  0  0  0  0  0  0  0  0
    2.1385   -2.9469   -2.4010 C   0  0  0  0  0  0  0  0  0  0  0  0
   -2.0332   -1.2709   -0.3952 C   0  0  0  0  0  0  0  0  0  0  0  0
   -1.5205   -0.0144   -2.3648 O   0  0  0  0  0  0  0  0  0  0  0  0
   -1.7405   -2.0940    0.6329 C   0  0  0  0  0  0  0  0  0  0  0  0
   -3.4692   -0.8214   -0.5475 C   0  0  0  0  0  0  0  0  0  0  0  0
   -0.4822   -2.7951    1.0194 C   0  0  0  0  0  0  0  0  0  0  0  0
    3.9645   -1.9572   -1.8058 H   0  0  0  0  0  0  0  0  0  0  0  0
    3.0235    1.0853   -0.0561 H   0  0  0  0  0  0  0  0  0  0  0  0
    3.9987   -0.3155    0.4155 H   0  0  0  0  0  0  0  0  0  0  0  0
    4.1865    0.4226   -1.1897 H   0  0  0  0  0  0  0  0  0  0  0  0
    1.2003   -3.2221   -1.9184 H   0  0  0  0  0  0  0  0  0  0  0  0
    2.7527   -3.8540   -2.4164 H   0  0  0  0  0  0  0  0  0  0  0  0
    1.9477   -2.6560   -3.4382 H   0  0  0  0  0  0  0  0  0  0  0  0
   -2.5603   -2.3363    1.3144 H   0  0  0  0  0  0  0  0  0  0  0  0
   -3.5623    0.1534   -1.0347 H   0  0  0  0  0  0  0  0  0  0  0  0
   -4.0186   -1.5577   -1.1441 H   0  0  0  0  0  0  0  0  0  0  0  0
   -3.9683   -0.7326    0.4238 H   0  0  0  0  0  0  0  0  0  0  0  0
   -0.0261   -2.3106    1.8877 H   0  0  0  0  0  0  0  0  0  0  0  0
   -0.7256   -3.8270    1.2972 H   0  0  0  0  0  0  0  0  0  0  0  0
    0.2521   -2.8663    0.2201 H   0  0  0  0  0  0  0  0  0  0  0  0
  1  2  1  0  0  0  0
  1  3  1  0  0  0  0
  1  4  2  0  0  0  0
  2  5  2  0  0  0  0
  2  6  1  0  0  0  0
  3  7  1  0  0  0  0
  5  8  1  0  0  0  0
  5 14  1  0  0  0  0
  6 15  1  0  0  0  0
  6 16  1  0  0  0  0
  6 17  1  0  0  0  0
  7  9  1  0  0  0  0
  7 10  2  0  0  0  0
  8 18  1  0  0  0  0
  8 19  1  0  0  0  0
  8 20  1  0  0  0  0
  9 11  2  0  0  0  0
  9 12  1  0  0  0  0
 11 13  1  0  0  0  0
 11 21  1  0  0  0  0
 12 22  1  0  0  0  0
 12 23  1  0  0  0  0
 12 24  1  0  0  0  0
 13 25  1  0  0  0  0
 13 26  1  0  0  0  0
 13 27  1  0  0  0  0
M  END
>  <Mol_ID>
2748

>  <Formula>
C10H14O3

>  <MolWeight>
182.21636

>  <Cat>
S3806

>  <Name>
Angelic anhydride

>  <Synonyms>
2-Methylisocrotonic Anhydride, (Z)-2-Methylbut-2-enoic anhydride

>  <Target>
Others

>  <Form>
free base

>  <CAS>
94487-74-8

>  <URL>
http://selleckchem.com/products/angelic-anhydride.html

$$$$
