S3819 Decursinol angelate.cdx
 OpenBabel08302519503D

 44 46  0  0  0  0  0  0  0  0999 V2000
   -2.3427   -1.4744    0.4376 O   0  0  0  0  0  0  0  0  0  0  0  0
   -1.2299   -0.7079    0.2023 C   0  0  0  0  0  0  0  0  0  0  0  0
   -6.0521    0.6532   -0.8522 C   0  0  0  0  0  0  0  0  0  0  0  0
    1.1622   -0.6849    0.0194 C   0  0  0  0  0  0  0  0  0  0  0  0
   -3.5310   -0.7388    0.8307 C   0  0  0  0  0  0  0  0  0  0  0  0
    2.3617   -1.4259   -0.0299 O   0  0  0  0  0  0  0  0  0  0  0  0
   -1.2577    0.6922    0.0778 C   0  0  0  0  0  0  0  0  0  0  0  0
   -3.7366    0.4148   -0.1917 C   0  0  1  0  0  0  0  0  0  0  0  0
   -0.0241   -1.4034    0.1145 C   0  0  0  0  0  0  0  0  0  0  0  0
   -5.0098    1.0955   -0.0876 O   0  0  0  0  0  0  0  0  0  0  0  0
    1.1778    0.7087    0.0053 C   0  0  0  0  0  0  0  0  0  0  0  0
    3.5941   -0.7985   -0.0429 C   0  0  0  0  0  0  0  0  0  0  0  0
    2.4635    1.3904   -0.0075 C   0  0  0  0  0  0  0  0  0  0  0  0
   -2.5852    1.4201    0.0410 C   0  0  0  0  0  0  0  0  0  0  0  0
   -7.2646    1.5303   -0.7562 C   0  0  0  0  0  0  0  0  0  0  0  0
   -0.0418    1.3976    0.0178 C   0  0  0  0  0  0  0  0  0  0  0  0
    3.5933    0.6737   -0.0240 C   0  0  0  0  0  0  0  0  0  0  0  0
   -6.0302   -0.3505   -1.5492 O   0  0  0  0  0  0  0  0  0  0  0  0
    4.6528   -1.4182   -0.0605 O   0  0  0  0  0  0  0  0  0  0  0  0
   -7.3304    2.6900   -0.0541 C   0  0  0  0  0  0  0  0  0  0  0  0
   -3.3754   -0.2858    2.3018 C   0  0  0  0  0  0  0  0  0  0  0  0
   -4.6912   -1.7433    0.8383 C   0  0  0  0  0  0  0  0  0  0  0  0
   -8.4898    1.0983   -1.5433 C   0  0  0  0  0  0  0  0  0  0  0  0
   -6.2365    3.3489    0.7089 C   0  0  0  0  0  0  0  0  0  0  0  0
   -3.6188    0.0311   -1.2151 H   0  0  0  0  0  0  0  0  0  0  0  0
   -0.0107   -2.4870    0.1482 H   0  0  0  0  0  0  0  0  0  0  0  0
    2.4895    2.4743    0.0238 H   0  0  0  0  0  0  0  0  0  0  0  0
   -2.5823    2.1801   -0.7486 H   0  0  0  0  0  0  0  0  0  0  0  0
   -2.7291    1.9679    0.9823 H   0  0  0  0  0  0  0  0  0  0  0  0
   -0.0499    2.4858   -0.0110 H   0  0  0  0  0  0  0  0  0  0  0  0
    4.5685    1.1451   -0.0219 H   0  0  0  0  0  0  0  0  0  0  0  0
   -8.2695    3.2379   -0.0521 H   0  0  0  0  0  0  0  0  0  0  0  0
   -4.2286    0.3175    2.6269 H   0  0  0  0  0  0  0  0  0  0  0  0
   -3.2940   -1.1580    2.9641 H   0  0  0  0  0  0  0  0  0  0  0  0
   -2.4596    0.2830    2.4888 H   0  0  0  0  0  0  0  0  0  0  0  0
   -4.8148   -2.2324   -0.1347 H   0  0  0  0  0  0  0  0  0  0  0  0
   -4.4964   -2.5500    1.5560 H   0  0  0  0  0  0  0  0  0  0  0  0
   -5.6325   -1.2685    1.1307 H   0  0  0  0  0  0  0  0  0  0  0  0
   -8.2628    1.0212   -2.6046 H   0  0  0  0  0  0  0  0  0  0  0  0
   -8.8721    0.1338   -1.1837 H   0  0  0  0  0  0  0  0  0  0  0  0
   -9.3050    1.8169   -1.4435 H   0  0  0  0  0  0  0  0  0  0  0  0
   -5.8952    2.7204    1.5383 H   0  0  0  0  0  0  0  0  0  0  0  0
   -5.4020    3.5919    0.0453 H   0  0  0  0  0  0  0  0  0  0  0  0
   -6.5981    4.2861    1.1357 H   0  0  0  0  0  0  0  0  0  0  0  0
  2  1  1  0  0  0  0
  3 10  1  0  0  0  0
  4  9  2  0  0  0  0
  5  1  1  0  0  0  0
  6  4  1  0  0  0  0
  7  2  2  0  0  0  0
  7 14  1  0  0  0  0
  8  5  1  0  0  0  0
  8 25  1  6  0  0  0
  8 10  1  0  0  0  0
  9  2  1  0  0  0  0
  9 26  1  0  0  0  0
 11  4  1  0  0  0  0
 12  6  1  0  0  0  0
 13 11  1  0  0  0  0
 13 27  1  0  0  0  0
 14  8  1  0  0  0  0
 14 28  1  0  0  0  0
 14 29  1  0  0  0  0
 15  3  1  0  0  0  0
 16  7  1  0  0  0  0
 16 11  2  0  0  0  0
 16 30  1  0  0  0  0
 17 13  2  0  0  0  0
 17 12  1  0  0  0  0
 17 31  1  0  0  0  0
 18  3  2  0  0  0  0
 19 12  2  0  0  0  0
 20 15  2  0  0  0  0
 20 32  1  0  0  0  0
 21  5  1  0  0  0  0
 21 33  1  0  0  0  0
 21 34  1  0  0  0  0
 21 35  1  0  0  0  0
 22  5  1  0  0  0  0
 22 36  1  0  0  0  0
 22 37  1  0  0  0  0
 22 38  1  0  0  0  0
 23 15  1  0  0  0  0
 23 39  1  0  0  0  0
 23 40  1  0  0  0  0
 23 41  1  0  0  0  0
 24 20  1  0  0  0  0
 24 42  1  0  0  0  0
 24 43  1  0  0  0  0
 24 44  1  0  0  0  0
M  END
>  <Mol_ID>
1770

>  <Formula>
C19H20O5

>  <MolWeight>
328.3591

>  <Cat>
S3819

>  <Name>
Decursinol angelate

>  <Synonyms>
N/A

>  <Target>
PKC

>  <Form>
free base

>  <CAS>
130848-06-5

>  <URL>
http://selleckchem.com/products/decursinol-angelate.html

$$$$
