S3817 Harmine hydrochloride.cdx
 OpenBabel08302519503D

 28 30  0  0  0  0  0  0  0  0999 V2000
   -0.7124    0.4834    0.0004 C   0  0  0  0  0  0  0  0  0  0  0  0
    0.7185    0.4820    0.0017 C   0  0  0  0  0  0  0  0  0  0  0  0
   -1.1314   -0.8456   -0.0020 C   0  0  0  0  0  0  0  0  0  0  0  0
   -1.6894    1.4877   -0.0005 C   0  0  0  0  0  0  0  0  0  0  0  0
    1.1340   -0.8470    0.0015 C   0  0  0  0  0  0  0  0  0  0  0  0
    1.7025    1.4902    0.0022 C   0  0  0  0  0  0  0  0  0  0  0  0
    0.0015   -1.6238   -0.0000 N   0  0  0  0  0  0  0  0  0  0  0  0
   -2.4787   -1.2165   -0.0039 C   0  0  0  0  0  0  0  0  0  0  0  0
   -3.0086    1.0672   -0.0027 C   0  0  0  0  0  0  0  0  0  0  0  0
    2.4823   -1.2288    0.0018 C   0  0  0  0  0  0  0  0  0  0  0  0
    3.0551    1.1253    0.0026 C   0  0  0  0  0  0  0  0  0  0  0  0
   -3.4088   -0.2244   -0.0045 N   0  0  0  0  0  0  0  0  0  0  0  0
   -2.9511   -2.6355   -0.0075 C   0  0  0  0  0  0  0  0  0  0  0  0
    3.4453   -0.2152    0.0024 C   0  0  0  0  0  0  0  0  0  0  0  0
    4.8018   -0.4142    0.0022 O   0  0  0  0  0  0  0  0  0  0  0  0
    5.2463   -1.7657    0.0001 C   0  0  0  0  0  0  0  0  0  0  0  0
   -1.4324    2.5401    0.0008 H   0  0  0  0  0  0  0  0  0  0  0  0
    1.4206    2.5388    0.0019 H   0  0  0  0  0  0  0  0  0  0  0  0
    0.0019   -2.6330   -0.0006 H   0  0  0  0  0  0  0  0  0  0  0  0
   -3.8172    1.7936   -0.0036 H   0  0  0  0  0  0  0  0  0  0  0  0
    2.7427   -2.2797    0.0014 H   0  0  0  0  0  0  0  0  0  0  0  0
    3.8146    1.9040    0.0022 H   0  0  0  0  0  0  0  0  0  0  0  0
   -2.5805   -3.1501   -0.8997 H   0  0  0  0  0  0  0  0  0  0  0  0
   -2.5775   -3.1562    0.8799 H   0  0  0  0  0  0  0  0  0  0  0  0
   -4.0433   -2.6889   -0.0059 H   0  0  0  0  0  0  0  0  0  0  0  0
    4.9157   -2.2912    0.9031 H   0  0  0  0  0  0  0  0  0  0  0  0
    4.9166   -2.2882   -0.9042 H   0  0  0  0  0  0  0  0  0  0  0  0
    6.3415   -1.7591    0.0010 H   0  0  0  0  0  0  0  0  0  0  0  0
  1  2  1  0  0  0  0
  1  3  1  0  0  0  0
  1  4  2  0  0  0  0
  2  5  2  0  0  0  0
  2  6  1  0  0  0  0
  3  7  1  0  0  0  0
  3  8  2  0  0  0  0
  4  9  1  0  0  0  0
  4 17  1  0  0  0  0
  5 10  1  0  0  0  0
  5  7  1  0  0  0  0
  6 11  2  0  0  0  0
  6 18  1  0  0  0  0
  7 19  1  0  0  0  0
  8 12  1  0  0  0  0
  8 13  1  0  0  0  0
  9 12  2  0  0  0  0
  9 20  1  0  0  0  0
 10 14  2  0  0  0  0
 10 21  1  0  0  0  0
 11 14  1  0  0  0  0
 11 22  1  0  0  0  0
 13 23  1  0  0  0  0
 13 24  1  0  0  0  0
 13 25  1  0  0  0  0
 14 15  1  0  0  0  0
 15 16  1  0  0  0  0
 16 26  1  0  0  0  0
 16 27  1  0  0  0  0
 16 28  1  0  0  0  0
M  END
>  <Mol_ID>
1769

>  <Formula>
C13H13ClN2O

>  <MolWeight>
248.70812

>  <Cat>
S3817

>  <Name>
Harmine hydrochloride

>  <Synonyms>
Telepathine hydrochloride

>  <Target>
5-HT Receptor,ADC Cytotoxin,DYRK,MAO

>  <Form>
hydrochloride

>  <CAS>
343-27-1

>  <URL>
http://selleckchem.com/products/harmine-hydrochloride.html

$$$$
