S3828 Orcinol glucoside.cdx
 OpenBabel08302519513D

 38 39  0  0  0  0  0  0  0  0999 V2000
    1.1494    1.3709   -0.1948 C   0  0  3  0  0  0  0  0  0  0  0  0
    1.1758   -0.0927    0.3212 C   0  0  1  0  0  0  0  0  0  0  0  0
   -0.0836   -0.8186   -0.1768 C   0  0  2  0  0  0  0  0  0  0  0  0
   -1.3554   -0.0730    0.2455 C   0  0  1  0  0  0  0  0  0  0  0  0
   -1.2578    1.3891   -0.2083 C   0  0  2  0  0  0  0  0  0  0  0  0
   -0.0570    2.0032    0.2806 O   0  0  0  0  0  0  0  0  0  0  0  0
    2.3407   -0.8257   -0.0754 O   0  0  0  0  0  0  0  0  0  0  0  0
   -0.1136   -2.1756    0.2833 O   0  0  0  0  0  0  0  0  0  0  0  0
   -2.5287   -0.6779   -0.3021 O   0  0  0  0  0  0  0  0  0  0  0  0
   -2.4461    2.1998    0.3203 C   0  0  0  0  0  0  0  0  0  0  0  0
   -2.3317    3.5546   -0.1164 O   0  0  0  0  0  0  0  0  0  0  0  0
    2.2421    2.1311    0.3307 O   0  0  0  0  0  0  0  0  0  0  0  0
    3.4512    2.1197   -0.3075 C   0  0  0  0  0  0  0  0  0  0  0  0
    3.7797    1.4110   -1.4605 C   0  0  0  0  0  0  0  0  0  0  0  0
    5.0907    1.4346   -1.9367 C   0  0  0  0  0  0  0  0  0  0  0  0
    6.0727    2.1982   -1.3210 C   0  0  0  0  0  0  0  0  0  0  0  0
    5.7436    2.9610   -0.1940 C   0  0  0  0  0  0  0  0  0  0  0  0
    4.4353    2.9041    0.3092 C   0  0  0  0  0  0  0  0  0  0  0  0
    6.7644    3.8354    0.4709 C   0  0  0  0  0  0  0  0  0  0  0  0
    5.3758    0.6581   -3.0255 O   0  0  0  0  0  0  0  0  0  0  0  0
    1.1372    1.4235   -1.2898 H   0  0  0  0  0  0  0  0  0  0  0  0
    1.1885   -0.0879    1.4180 H   0  0  0  0  0  0  0  0  0  0  0  0
   -0.0533   -0.8995   -1.2696 H   0  0  0  0  0  0  0  0  0  0  0  0
   -1.4505   -0.1280    1.3372 H   0  0  0  0  0  0  0  0  0  0  0  0
   -1.2598    1.4587   -1.3043 H   0  0  0  0  0  0  0  0  0  0  0  0
    2.1271   -1.3858   -0.8421 H   0  0  0  0  0  0  0  0  0  0  0  0
    0.1263   -2.1875    1.2263 H   0  0  0  0  0  0  0  0  0  0  0  0
   -2.2821   -1.1998   -1.0863 H   0  0  0  0  0  0  0  0  0  0  0  0
   -3.3993    1.8054   -0.0436 H   0  0  0  0  0  0  0  0  0  0  0  0
   -2.4621    2.2093    1.4154 H   0  0  0  0  0  0  0  0  0  0  0  0
   -1.4375    3.8419    0.1557 H   0  0  0  0  0  0  0  0  0  0  0  0
    3.0648    0.8023   -1.9947 H   0  0  0  0  0  0  0  0  0  0  0  0
    7.0850    2.2180   -1.7104 H   0  0  0  0  0  0  0  0  0  0  0  0
    4.1727    3.4741    1.1977 H   0  0  0  0  0  0  0  0  0  0  0  0
    6.4779    4.8874    0.3693 H   0  0  0  0  0  0  0  0  0  0  0  0
    6.8488    3.5847    1.5324 H   0  0  0  0  0  0  0  0  0  0  0  0
    7.7552    3.7104    0.0195 H   0  0  0  0  0  0  0  0  0  0  0  0
    6.3427    0.5954   -3.1046 H   0  0  0  0  0  0  0  0  0  0  0  0
  1  2  1  0  0  0  0
  1  6  1  0  0  0  0
  1 12  1  0  0  0  0
  1 21  1  0  0  0  0
  2  3  1  0  0  0  0
  2  7  1  0  0  0  0
  2 22  1  1  0  0  0
  3  4  1  0  0  0  0
  3  8  1  0  0  0  0
  3 23  1  6  0  0  0
  4  5  1  0  0  0  0
  4  9  1  0  0  0  0
  4 24  1  1  0  0  0
  5  6  1  0  0  0  0
  5 10  1  0  0  0  0
  5 25  1  6  0  0  0
  7 26  1  0  0  0  0
  8 27  1  0  0  0  0
  9 28  1  0  0  0  0
 10 11  1  0  0  0  0
 10 29  1  0  0  0  0
 10 30  1  0  0  0  0
 11 31  1  0  0  0  0
 12 13  1  0  0  0  0
 13 14  2  0  0  0  0
 13 18  1  0  0  0  0
 14 15  1  0  0  0  0
 14 32  1  0  0  0  0
 15 16  2  0  0  0  0
 15 20  1  0  0  0  0
 16 17  1  0  0  0  0
 16 33  1  0  0  0  0
 17 18  2  0  0  0  0
 17 19  1  0  0  0  0
 18 34  1  0  0  0  0
 19 35  1  0  0  0  0
 19 36  1  0  0  0  0
 19 37  1  0  0  0  0
 20 38  1  0  0  0  0
M  END
>  <Mol_ID>
1778

>  <Formula>
C13H18O7

>  <MolWeight>
286.27782

>  <Cat>
S3828

>  <Name>
Orcinol glucoside

>  <Synonyms>
Sakakin

>  <Target>
Others

>  <Form>
free base

>  <CAS>
21082-33-7

>  <URL>
http://selleckchem.com/products/orcinol-glucoside.html

$$$$
