S3829 Isoalantolactone.cdx
 OpenBabel08302519513D

 37 39  0  0  0  0  0  0  0  0999 V2000
    2.0802   -0.4572   -0.6473 C   0  0  0  0  0  0  0  0  0  0  0  0
    1.2228    0.7380   -0.7401 C   0  0  0  0  0  0  0  0  0  0  0  0
    0.3025    0.7107    0.4146 C   0  0  2  0  0  0  0  0  0  0  0  0
    1.5857   -1.2456    0.3559 O   0  0  0  0  0  0  0  0  0  0  0  0
    0.3349   -0.7242    0.8602 C   0  0  2  0  0  0  0  0  0  0  0  0
   -2.4316   -0.5972    0.3225 C   0  0  1  0  0  0  0  0  0  0  0  0
   -1.9475    0.1575   -0.8431 C   0  0  1  0  0  0  0  0  0  0  0  0
   -1.0922    1.1275    0.0437 C   0  0  0  0  0  0  0  0  0  0  0  0
   -0.8581   -1.5273    0.3094 C   0  0  0  0  0  0  0  0  0  0  0  0
   -2.2539   -1.2871   -1.6807 C   0  0  0  0  0  0  0  0  0  0  0  0
    3.0661   -0.6817   -1.3235 O   0  0  0  0  0  0  0  0  0  0  0  0
    1.2542    1.6408   -1.7294 C   0  0  0  0  0  0  0  0  0  0  0  0
   -2.2123   -1.3107   -3.0221 C   0  0  0  0  0  0  0  0  0  0  0  0
   -2.9126   -1.3130    1.5154 C   0  0  0  0  0  0  0  0  0  0  0  0
   -4.0431   -0.2442   -0.2107 C   0  0  0  0  0  0  0  0  0  0  0  0
   -3.0130   -2.6259   -0.8694 C   0  0  0  0  0  0  0  0  0  0  0  0
   -3.2419   -2.6620    0.7857 C   0  0  0  0  0  0  0  0  0  0  0  0
    0.7130    1.3442    1.2148 H   0  0  0  0  0  0  0  0  0  0  0  0
    0.3530   -0.8137    1.9525 H   0  0  0  0  0  0  0  0  0  0  0  0
   -2.5363    0.8635   -1.4355 H   0  0  0  0  0  0  0  0  0  0  0  0
   -1.0993    2.1285   -0.3969 H   0  0  0  0  0  0  0  0  0  0  0  0
   -1.6156    1.3160    1.0039 H   0  0  0  0  0  0  0  0  0  0  0  0
   -0.5020   -1.8667   -0.6787 H   0  0  0  0  0  0  0  0  0  0  0  0
   -0.8849   -2.4736    0.8617 H   0  0  0  0  0  0  0  0  0  0  0  0
    0.5781    2.4920   -1.7406 H   0  0  0  0  0  0  0  0  0  0  0  0
    1.9447    1.5553   -2.5596 H   0  0  0  0  0  0  0  0  0  0  0  0
   -2.6596   -2.1308   -3.5774 H   0  0  0  0  0  0  0  0  0  0  0  0
   -1.8011   -0.4807   -3.5834 H   0  0  0  0  0  0  0  0  0  0  0  0
   -2.1600   -1.4186    2.3042 H   0  0  0  0  0  0  0  0  0  0  0  0
   -3.7673   -0.8799    2.0318 H   0  0  0  0  0  0  0  0  0  0  0  0
   -4.8396   -0.4651    0.5032 H   0  0  0  0  0  0  0  0  0  0  0  0
   -4.3868   -0.6794   -1.1607 H   0  0  0  0  0  0  0  0  0  0  0  0
   -4.1418    0.8455   -0.3540 H   0  0  0  0  0  0  0  0  0  0  0  0
   -2.4680   -3.5406   -1.1369 H   0  0  0  0  0  0  0  0  0  0  0  0
   -4.0190   -2.7365   -1.3029 H   0  0  0  0  0  0  0  0  0  0  0  0
   -2.6109   -3.4542    1.2123 H   0  0  0  0  0  0  0  0  0  0  0  0
   -4.2666   -2.9702    1.0247 H   0  0  0  0  0  0  0  0  0  0  0  0
  2  1  1  0  0  0  0
  3  2  1  0  0  0  0
  3  8  1  0  0  0  0
  3 18  1  1  0  0  0
  4  1  1  0  0  0  0
  5  3  1  0  0  0  0
  5  4  1  0  0  0  0
  5  9  1  0  0  0  0
  5 19  1  1  0  0  0
  6  9  1  0  0  0  0
  6 15  1  6  0  0  0
  6  7  1  0  0  0  0
  7  8  1  0  0  0  0
  7 20  1  6  0  0  0
  8 21  1  0  0  0  0
  8 22  1  0  0  0  0
  9 23  1  0  0  0  0
  9 24  1  0  0  0  0
 10  7  1  0  0  0  0
 11  1  2  0  0  0  0
 12  2  2  0  0  0  0
 12 25  1  0  0  0  0
 12 26  1  0  0  0  0
 13 10  2  0  0  0  0
 13 27  1  0  0  0  0
 13 28  1  0  0  0  0
 14  6  1  0  0  0  0
 14 29  1  0  0  0  0
 14 30  1  0  0  0  0
 15 31  1  0  0  0  0
 15 32  1  0  0  0  0
 15 33  1  0  0  0  0
 16 10  1  0  0  0  0
 16 34  1  0  0  0  0
 16 35  1  0  0  0  0
 17 14  1  0  0  0  0
 17 16  1  0  0  0  0
 17 36  1  0  0  0  0
 17 37  1  0  0  0  0
M  END
>  <Mol_ID>
1779

>  <Formula>
C15H20O2

>  <MolWeight>
232.3181

>  <Cat>
S3829

>  <Name>
Isoalantolactone

>  <Synonyms>
N/A

>  <Target>
Apoptosis related,Fungal

>  <Form>
Sesquiterpene lactone

>  <CAS>
470-17-7

>  <URL>
http://selleckchem.com/products/isoalantolactone.html

$$$$
