S3827 Royal jelly acid.cdx
 OpenBabel08302519513D

 31 30  0  0  0  0  0  0  0  0999 V2000
    1.0084    0.1782   -0.0385 C   0  0  0  0  0  0  0  0  0  0  0  0
    0.5024   -1.2692   -0.0457 C   0  0  0  0  0  0  0  0  0  0  0  0
    0.4548    0.9369   -1.2499 C   0  0  0  0  0  0  0  0  0  0  0  0
    1.0294   -2.1333    1.1030 C   0  0  0  0  0  0  0  0  0  0  0  0
    0.9001    2.3706   -1.3063 C   0  0  0  0  0  0  0  0  0  0  0  0
    0.6725   -1.6695    2.5171 C   0  0  0  0  0  0  0  0  0  0  0  0
    1.5991    2.8925   -2.3261 C   0  0  0  0  0  0  0  0  0  0  0  0
   -0.8306   -1.6105    2.7887 C   0  0  0  0  0  0  0  0  0  0  0  0
    1.9193    4.3372   -2.3516 C   0  0  0  0  0  0  0  0  0  0  0  0
   -1.1181   -1.2239    4.2352 C   0  0  0  0  0  0  0  0  0  0  0  0
    2.6399    4.6755   -3.4394 O   0  0  0  0  0  0  0  0  0  0  0  0
    1.5689    5.1409   -1.5049 O   0  0  0  0  0  0  0  0  0  0  0  0
   -2.5219   -1.1756    4.4517 O   0  0  0  0  0  0  0  0  0  0  0  0
    2.1048    0.1859   -0.0610 H   0  0  0  0  0  0  0  0  0  0  0  0
    0.6980    0.6840    0.8829 H   0  0  0  0  0  0  0  0  0  0  0  0
   -0.5940   -1.2786   -0.0455 H   0  0  0  0  0  0  0  0  0  0  0  0
    0.8100   -1.7427   -0.9872 H   0  0  0  0  0  0  0  0  0  0  0  0
    0.7408    0.4124   -2.1705 H   0  0  0  0  0  0  0  0  0  0  0  0
   -0.6419    0.9277   -1.2126 H   0  0  0  0  0  0  0  0  0  0  0  0
    0.6514   -3.1547    0.9629 H   0  0  0  0  0  0  0  0  0  0  0  0
    2.1223   -2.1989    1.0246 H   0  0  0  0  0  0  0  0  0  0  0  0
    0.5791    3.0143   -0.4869 H   0  0  0  0  0  0  0  0  0  0  0  0
    1.1313   -2.3712    3.2264 H   0  0  0  0  0  0  0  0  0  0  0  0
    1.1256   -0.6925    2.7164 H   0  0  0  0  0  0  0  0  0  0  0  0
    1.9145    2.2753   -3.1559 H   0  0  0  0  0  0  0  0  0  0  0  0
   -1.3167   -0.8871    2.1238 H   0  0  0  0  0  0  0  0  0  0  0  0
   -1.2948   -2.5803    2.5732 H   0  0  0  0  0  0  0  0  0  0  0  0
   -0.6966   -1.9604    4.9265 H   0  0  0  0  0  0  0  0  0  0  0  0
   -0.6950   -0.2441    4.4785 H   0  0  0  0  0  0  0  0  0  0  0  0
    2.8615    3.9431   -4.0419 H   0  0  0  0  0  0  0  0  0  0  0  0
   -2.8795   -0.4637    3.8942 H   0  0  0  0  0  0  0  0  0  0  0  0
  1  2  1  0  0  0  0
  1  3  1  0  0  0  0
  1 14  1  0  0  0  0
  1 15  1  0  0  0  0
  2  4  1  0  0  0  0
  2 16  1  0  0  0  0
  2 17  1  0  0  0  0
  3  5  1  0  0  0  0
  3 18  1  0  0  0  0
  3 19  1  0  0  0  0
  4  6  1  0  0  0  0
  4 20  1  0  0  0  0
  4 21  1  0  0  0  0
  5  7  2  0  0  0  0
  5 22  1  0  0  0  0
  6  8  1  0  0  0  0
  6 23  1  0  0  0  0
  6 24  1  0  0  0  0
  7  9  1  0  0  0  0
  7 25  1  0  0  0  0
  8 10  1  0  0  0  0
  8 26  1  0  0  0  0
  8 27  1  0  0  0  0
  9 11  1  0  0  0  0
  9 12  2  0  0  0  0
 10 13  1  0  0  0  0
 10 28  1  0  0  0  0
 10 29  1  0  0  0  0
 11 30  1  0  0  0  0
 13 31  1  0  0  0  0
M  END
>  <Mol_ID>
1777

>  <Formula>
C10H18O3

>  <MolWeight>
186.24812

>  <Cat>
S3827

>  <Name>
Royal jelly acid

>  <Synonyms>
10-Hydroxy-trans-2-decenoic acid, 10H2DA

>  <Target>
IFN

>  <Form>
free base

>  <CAS>
14113-05-4

>  <URL>
http://selleckchem.com/products/royal-jelly-acid.html

$$$$
