S3823 Schizandrol A.cdx
 OpenBabel08302519513D

 63 65  0  0  0  0  0  0  0  0999 V2000
    0.6771   -0.7457   -0.0864 C   0  0  0  0  0  0  0  0  0  0  0  0
   -0.7903   -0.6876    0.0826 C   0  0  0  0  0  0  0  0  0  0  0  0
    1.4603    0.2444    0.5514 C   0  0  0  0  0  0  0  0  0  0  0  0
    1.3360   -1.7771   -0.8191 C   0  0  0  0  0  0  0  0  0  0  0  0
   -1.5117    0.3186   -0.6027 C   0  0  0  0  0  0  0  0  0  0  0  0
   -1.5117   -1.6030    0.8929 C   0  0  0  0  0  0  0  0  0  0  0  0
    2.8559    0.1340    0.5326 C   0  0  0  0  0  0  0  0  0  0  0  0
    0.8665    1.4562    1.2469 C   0  0  0  0  0  0  0  0  0  0  0  0
    2.7577   -1.8309   -0.8754 C   0  0  0  0  0  0  0  0  0  0  0  0
    0.6596   -2.8377   -1.3778 O   0  0  0  0  0  0  0  0  0  0  0  0
   -2.9150    0.3474   -0.5374 C   0  0  0  0  0  0  0  0  0  0  0  0
   -0.8232    1.4345   -1.3724 C   0  0  0  0  0  0  0  0  0  0  0  0
   -2.9329   -1.5852    0.9101 C   0  0  0  0  0  0  0  0  0  0  0  0
   -0.9335   -2.6226    1.6236 O   0  0  0  0  0  0  0  0  0  0  0  0
    3.5120   -0.8671   -0.1836 C   0  0  0  0  0  0  0  0  0  0  0  0
    0.6903    2.7167    0.3500 C   0  0  1  0  0  0  0  0  0  0  0  0
    3.4713   -2.7190   -1.6406 O   0  0  0  0  0  0  0  0  0  0  0  0
   -0.4427   -2.5601   -2.2297 C   0  0  0  0  0  0  0  0  0  0  0  0
   -3.6363   -0.5957    0.1926 C   0  0  0  0  0  0  0  0  0  0  0  0
   -0.6243    2.6960   -0.4998 C   0  0  1  0  0  0  0  0  0  0  0  0
   -3.5227   -2.5388    1.7149 O   0  0  0  0  0  0  0  0  0  0  0  0
    0.2507   -2.3143    2.3535 C   0  0  0  0  0  0  0  0  0  0  0  0
    4.8706   -0.7254   -0.0798 O   0  0  0  0  0  0  0  0  0  0  0  0
    0.5659    3.8164    1.2824 O   0  0  0  0  0  0  0  0  0  0  0  0
    1.9490    3.0067   -0.4897 C   0  0  0  0  0  0  0  0  0  0  0  0
    2.9834   -4.0435   -1.7926 C   0  0  0  0  0  0  0  0  0  0  0  0
   -5.0045   -0.5741    0.2830 O   0  0  0  0  0  0  0  0  0  0  0  0
   -0.7636    3.9399   -1.3967 C   0  0  0  0  0  0  0  0  0  0  0  0
   -4.7656   -3.0746    1.2765 C   0  0  0  0  0  0  0  0  0  0  0  0
    5.7251   -1.6126   -0.7784 C   0  0  0  0  0  0  0  0  0  0  0  0
   -5.7138    0.4185   -0.4495 C   0  0  0  0  0  0  0  0  0  0  0  0
    3.4600    0.8658    1.0667 H   0  0  0  0  0  0  0  0  0  0  0  0
    1.5189    1.7125    2.0957 H   0  0  0  0  0  0  0  0  0  0  0  0
   -0.0806    1.2105    1.7451 H   0  0  0  0  0  0  0  0  0  0  0  0
   -3.4251    1.1436   -1.0723 H   0  0  0  0  0  0  0  0  0  0  0  0
   -1.4642    1.6695   -2.2342 H   0  0  0  0  0  0  0  0  0  0  0  0
    0.1144    1.1021   -1.8280 H   0  0  0  0  0  0  0  0  0  0  0  0
   -1.3789   -2.5656   -1.6710 H   0  0  0  0  0  0  0  0  0  0  0  0
   -0.3179   -1.6339   -2.8028 H   0  0  0  0  0  0  0  0  0  0  0  0
   -0.5185   -3.3882   -2.9427 H   0  0  0  0  0  0  0  0  0  0  0  0
   -1.4602    2.7707    0.2120 H   0  0  0  0  0  0  0  0  0  0  0  0
    1.1350   -2.5565    1.7605 H   0  0  0  0  0  0  0  0  0  0  0  0
    0.2773   -1.2794    2.7099 H   0  0  0  0  0  0  0  0  0  0  0  0
    0.2932   -2.9646    3.2323 H   0  0  0  0  0  0  0  0  0  0  0  0
    0.7394    4.6469    0.8088 H   0  0  0  0  0  0  0  0  0  0  0  0
    1.9061    3.9928   -0.9593 H   0  0  0  0  0  0  0  0  0  0  0  0
    2.8393    3.0331    0.1511 H   0  0  0  0  0  0  0  0  0  0  0  0
    2.1053    2.2625   -1.2778 H   0  0  0  0  0  0  0  0  0  0  0  0
    2.5804   -4.4476   -0.8591 H   0  0  0  0  0  0  0  0  0  0  0  0
    2.2611   -4.0960   -2.6122 H   0  0  0  0  0  0  0  0  0  0  0  0
    3.8329   -4.6703   -2.0834 H   0  0  0  0  0  0  0  0  0  0  0  0
   -0.0175    3.9445   -2.1980 H   0  0  0  0  0  0  0  0  0  0  0  0
   -1.7518    3.9611   -1.8696 H   0  0  0  0  0  0  0  0  0  0  0  0
   -0.6638    4.8656   -0.8228 H   0  0  0  0  0  0  0  0  0  0  0  0
   -5.5967   -2.4340    1.5856 H   0  0  0  0  0  0  0  0  0  0  0  0
   -4.7814   -3.2616    0.1970 H   0  0  0  0  0  0  0  0  0  0  0  0
   -4.9116   -4.0362    1.7796 H   0  0  0  0  0  0  0  0  0  0  0  0
    5.6221   -2.6367   -0.4074 H   0  0  0  0  0  0  0  0  0  0  0  0
    5.5726   -1.5421   -1.8592 H   0  0  0  0  0  0  0  0  0  0  0  0
    6.7546   -1.2974   -0.5796 H   0  0  0  0  0  0  0  0  0  0  0  0
   -5.4538    1.4245   -0.1037 H   0  0  0  0  0  0  0  0  0  0  0  0
   -5.5451    0.3126   -1.5269 H   0  0  0  0  0  0  0  0  0  0  0  0
   -6.7827    0.2729   -0.2666 H   0  0  0  0  0  0  0  0  0  0  0  0
  1  2  1  0  0  0  0
  1  3  1  0  0  0  0
  1  4  2  0  0  0  0
  2  5  2  0  0  0  0
  2  6  1  0  0  0  0
  3  7  2  0  0  0  0
  3  8  1  0  0  0  0
  4  9  1  0  0  0  0
  4 10  1  0  0  0  0
  5 11  1  0  0  0  0
  5 12  1  0  0  0  0
  6 13  2  0  0  0  0
  6 14  1  0  0  0  0
  7 15  1  0  0  0  0
  7 32  1  0  0  0  0
  8 16  1  0  0  0  0
  8 33  1  0  0  0  0
  8 34  1  0  0  0  0
  9 17  1  0  0  0  0
  9 15  2  0  0  0  0
 10 18  1  0  0  0  0
 11 19  2  0  0  0  0
 11 35  1  0  0  0  0
 12 20  1  0  0  0  0
 12 36  1  0  0  0  0
 12 37  1  0  0  0  0
 13 21  1  0  0  0  0
 13 19  1  0  0  0  0
 14 22  1  0  0  0  0
 15 23  1  0  0  0  0
 16 20  1  0  0  0  0
 16 25  1  0  0  0  0
 16 24  1  1  0  0  0
 17 26  1  0  0  0  0
 18 38  1  0  0  0  0
 18 39  1  0  0  0  0
 18 40  1  0  0  0  0
 19 27  1  0  0  0  0
 20 41  1  1  0  0  0
 20 28  1  0  0  0  0
 21 29  1  0  0  0  0
 22 42  1  0  0  0  0
 22 43  1  0  0  0  0
 22 44  1  0  0  0  0
 23 30  1  0  0  0  0
 24 45  1  0  0  0  0
 25 46  1  0  0  0  0
 25 47  1  0  0  0  0
 25 48  1  0  0  0  0
 26 49  1  0  0  0  0
 26 50  1  0  0  0  0
 26 51  1  0  0  0  0
 27 31  1  0  0  0  0
 28 52  1  0  0  0  0
 28 53  1  0  0  0  0
 28 54  1  0  0  0  0
 29 55  1  0  0  0  0
 29 56  1  0  0  0  0
 29 57  1  0  0  0  0
 30 58  1  0  0  0  0
 30 59  1  0  0  0  0
 30 60  1  0  0  0  0
 31 61  1  0  0  0  0
 31 62  1  0  0  0  0
 31 63  1  0  0  0  0
M  END
>  <Mol_ID>
1773

>  <Formula>
C24H32O7

>  <MolWeight>
432.50668

>  <Cat>
S3823

>  <Name>
Schizandrol A

>  <Synonyms>
N/A

>  <Target>
Others

>  <Form>
free base

>  <CAS>
7432-28-2

>  <URL>
http://selleckchem.com/products/schizandrol-a.html

$$$$
