S3820 Dehydroevodiamine hydrochloride.cdx
 OpenBabel08302519513D

 38 42  0  0  0  0  0  0  0  0999 V2000
    2.2020   -0.5948   -0.0997 C   0  0  0  0  0  0  0  0  0  0  0  0
    2.1474    0.7965   -0.0603 C   0  0  0  0  0  0  0  0  0  0  0  0
    0.9145    1.4360   -0.0948 C   0  0  0  0  0  0  0  0  0  0  0  0
   -0.2607    0.6742   -0.1351 C   0  0  0  0  0  0  0  0  0  0  0  0
   -0.2363   -0.7351   -0.1029 C   0  0  0  0  0  0  0  0  0  0  0  0
    1.0230   -1.3528   -0.1237 C   0  0  0  0  0  0  0  0  0  0  0  0
   -1.5678    1.3703   -0.2307 C   0  0  0  0  0  0  0  0  0  0  0  0
   -2.6937    0.5979    0.0041 N   0  0  0  0  0  0  0  0  0  0  0  0
   -2.5759   -0.7258    0.4380 C   0  0  0  0  0  0  0  0  0  0  0  0
   -1.4479   -1.4428    0.0392 N   0  0  0  0  0  0  0  0  0  0  0  0
   -4.0195    1.2116   -0.0082 C   0  0  0  0  0  0  0  0  0  0  0  0
   -4.6079    1.1510    1.3967 C   0  0  0  0  0  0  0  0  0  0  0  0
   -4.5583   -0.2733    1.8319 C   0  0  0  0  0  0  0  0  0  0  0  0
   -3.5259   -1.1632    1.3069 C   0  0  0  0  0  0  0  0  0  0  0  0
   -5.3098   -0.9156    2.7168 C   0  0  0  0  0  0  0  0  0  0  0  0
   -4.6376   -2.2240    2.7681 C   0  0  0  0  0  0  0  0  0  0  0  0
   -3.6295   -2.3786    1.9605 N   0  0  0  0  0  0  0  0  0  0  0  0
   -6.4317   -0.5895    3.5287 C   0  0  0  0  0  0  0  0  0  0  0  0
   -6.8864   -1.5212    4.3784 C   0  0  0  0  0  0  0  0  0  0  0  0
   -6.2400   -2.8212    4.4985 C   0  0  0  0  0  0  0  0  0  0  0  0
   -5.1776   -3.1841    3.7553 C   0  0  0  0  0  0  0  0  0  0  0  0
   -1.4735   -2.8724   -0.2549 C   0  0  0  0  0  0  0  0  0  0  0  0
   -1.6064    2.5773   -0.4604 O   0  0  0  0  0  0  0  0  0  0  0  0
    3.1661   -1.0970   -0.0870 H   0  0  0  0  0  0  0  0  0  0  0  0
    3.0613    1.3820   -0.0073 H   0  0  0  0  0  0  0  0  0  0  0  0
    0.8605    2.5219   -0.0747 H   0  0  0  0  0  0  0  0  0  0  0  0
    1.1165   -2.4347   -0.1130 H   0  0  0  0  0  0  0  0  0  0  0  0
   -3.9824    2.2460   -0.3642 H   0  0  0  0  0  0  0  0  0  0  0  0
   -4.6486    0.6501   -0.7118 H   0  0  0  0  0  0  0  0  0  0  0  0
   -5.6242    1.5527    1.4161 H   0  0  0  0  0  0  0  0  0  0  0  0
   -3.9861    1.7568    2.0712 H   0  0  0  0  0  0  0  0  0  0  0  0
   -6.8984    0.3868    3.4483 H   0  0  0  0  0  0  0  0  0  0  0  0
   -7.7522   -1.3244    5.0084 H   0  0  0  0  0  0  0  0  0  0  0  0
   -6.6474   -3.5044    5.2384 H   0  0  0  0  0  0  0  0  0  0  0  0
   -4.6821   -4.1398    3.8577 H   0  0  0  0  0  0  0  0  0  0  0  0
   -1.0191   -3.0684   -1.2348 H   0  0  0  0  0  0  0  0  0  0  0  0
   -0.9409   -3.4493    0.5070 H   0  0  0  0  0  0  0  0  0  0  0  0
   -2.4967   -3.2586   -0.3241 H   0  0  0  0  0  0  0  0  0  0  0  0
  1  2  2  0  0  0  0
  1 24  1  0  0  0  0
  2  3  1  0  0  0  0
  2 25  1  0  0  0  0
  3  4  2  0  0  0  0
  3 26  1  0  0  0  0
  4  5  1  0  0  0  0
  4  7  1  0  0  0  0
  5  6  2  0  0  0  0
  6  1  1  0  0  0  0
  6 27  1  0  0  0  0
  7  8  1  0  0  0  0
  7 23  2  0  0  0  0
  8  9  1  0  0  0  0
  8 11  1  0  0  0  0
  9 10  1  0  0  0  0
 10  5  1  0  0  0  0
 10 22  1  0  0  0  0
 11 12  1  0  0  0  0
 11 28  1  0  0  0  0
 11 29  1  0  0  0  0
 12 13  1  0  0  0  0
 12 30  1  0  0  0  0
 12 31  1  0  0  0  0
 13 14  1  0  0  0  0
 13 15  2  0  0  0  0
 14  9  2  0  0  0  0
 15 18  1  0  0  0  0
 16 17  2  0  0  0  0
 16 15  1  0  0  0  0
 17 14  1  0  0  0  0
 18 19  2  0  0  0  0
 18 32  1  0  0  0  0
 19 20  1  0  0  0  0
 19 33  1  0  0  0  0
 20 21  2  0  0  0  0
 20 34  1  0  0  0  0
 21 16  1  0  0  0  0
 21 35  1  0  0  0  0
 22 36  1  0  0  0  0
 22 37  1  0  0  0  0
 22 38  1  0  0  0  0
M  END
>  <Mol_ID>
1771

>  <Formula>
C19H16ClN3O

>  <MolWeight>
337.80284

>  <Cat>
S3820

>  <Name>
Dehydroevodiamine hydrochloride

>  <Synonyms>
N/A

>  <Target>
AChR

>  <Form>
hydrochloride

>  <CAS>
111664-82-5

>  <URL>
http://selleckchem.com/products/dehydroevodiamine-hydrochloride.html

$$$$
