S3825 Glycitin.cdx
 OpenBabel08302519513D

 54 57  0  0  0  0  0  0  0  0999 V2000
    9.8831    2.0778   -0.9181 C   0  0  0  0  0  0  0  0  0  0  0  0
    8.6900    2.4728   -1.5114 C   0  0  0  0  0  0  0  0  0  0  0  0
   11.0885    2.8995   -1.1334 C   0  0  0  0  0  0  0  0  0  0  0  0
    9.9323    0.9240   -0.1302 C   0  0  0  0  0  0  0  0  0  0  0  0
    7.5405    1.7153   -1.3323 C   0  0  0  0  0  0  0  0  0  0  0  0
    8.5618    3.6207   -2.2497 O   0  0  0  0  0  0  0  0  0  0  0  0
   10.9048    4.1219   -1.9606 C   0  0  0  0  0  0  0  0  0  0  0  0
   12.1643    2.5823   -0.6408 O   0  0  0  0  0  0  0  0  0  0  0  0
    8.7658    0.1847    0.1029 C   0  0  0  0  0  0  0  0  0  0  0  0
    7.5489    0.6067   -0.4739 C   0  0  0  0  0  0  0  0  0  0  0  0
    9.6833    4.3867   -2.4351 C   0  0  0  0  0  0  0  0  0  0  0  0
   12.0324    4.9820   -2.3263 C   0  0  0  0  0  0  0  0  0  0  0  0
    8.7148   -0.9429    0.8881 O   0  0  0  0  0  0  0  0  0  0  0  0
    6.3985   -0.0821   -0.1464 O   0  0  0  0  0  0  0  0  0  0  0  0
   12.3848    6.0868   -1.5402 C   0  0  0  0  0  0  0  0  0  0  0  0
   12.7571    4.7016   -3.4881 C   0  0  0  0  0  0  0  0  0  0  0  0
    9.9302   -1.3529    1.5132 C   0  0  0  0  0  0  0  0  0  0  0  0
    5.1580    0.6425   -0.2535 C   0  0  2  0  0  0  0  0  0  0  0  0
   13.4530    6.9062   -1.9215 C   0  0  0  0  0  0  0  0  0  0  0  0
   13.8271    5.5147   -3.8605 C   0  0  0  0  0  0  0  0  0  0  0  0
    5.2702    1.9816    0.2466 O   0  0  0  0  0  0  0  0  0  0  0  0
    4.0735   -0.1255    0.5421 C   0  0  1  0  0  0  0  0  0  0  0  0
   14.1710    6.6069   -3.0745 C   0  0  0  0  0  0  0  0  0  0  0  0
    4.0692    2.7294    0.0395 C   0  0  1  0  0  0  0  0  0  0  0  0
    2.7654    0.6859    0.6278 C   0  0  2  0  0  0  0  0  0  0  0  0
    3.7629   -1.3908   -0.0700 O   0  0  0  0  0  0  0  0  0  0  0  0
   15.2204    7.3716   -3.4780 O   0  0  0  0  0  0  0  0  0  0  0  0
    2.9900    2.1706    0.9597 C   0  0  2  0  0  0  0  0  0  0  0  0
    4.3601    4.2078    0.3233 C   0  0  0  0  0  0  0  0  0  0  0  0
    1.8514    0.1360    1.5907 O   0  0  0  0  0  0  0  0  0  0  0  0
    1.7903    2.9283    0.8119 O   0  0  0  0  0  0  0  0  0  0  0  0
    5.3491    4.6839   -0.5952 O   0  0  0  0  0  0  0  0  0  0  0  0
   10.8872    0.6446    0.3068 H   0  0  0  0  0  0  0  0  0  0  0  0
    6.6384    2.0401   -1.8377 H   0  0  0  0  0  0  0  0  0  0  0  0
    9.4425    5.2499   -3.0416 H   0  0  0  0  0  0  0  0  0  0  0  0
   11.8359    6.3118   -0.6286 H   0  0  0  0  0  0  0  0  0  0  0  0
   12.5032    3.8439   -4.1116 H   0  0  0  0  0  0  0  0  0  0  0  0
   10.7043   -1.5811    0.7728 H   0  0  0  0  0  0  0  0  0  0  0  0
   10.2765   -0.5974    2.2265 H   0  0  0  0  0  0  0  0  0  0  0  0
    9.7309   -2.2719    2.0729 H   0  0  0  0  0  0  0  0  0  0  0  0
    4.8837    0.6497   -1.3178 H   0  0  0  0  0  0  0  0  0  0  0  0
   13.7198    7.7517   -1.2958 H   0  0  0  0  0  0  0  0  0  0  0  0
   14.3883    5.2788   -4.7628 H   0  0  0  0  0  0  0  0  0  0  0  0
    4.4450   -0.3506    1.5513 H   0  0  0  0  0  0  0  0  0  0  0  0
    3.7696    2.6481   -1.0146 H   0  0  0  0  0  0  0  0  0  0  0  0
    2.2392    0.6093   -0.3319 H   0  0  0  0  0  0  0  0  0  0  0  0
    4.5166   -1.6615   -0.6252 H   0  0  0  0  0  0  0  0  0  0  0  0
   15.3811    8.0550   -2.8085 H   0  0  0  0  0  0  0  0  0  0  0  0
    3.3055    2.2541    2.0095 H   0  0  0  0  0  0  0  0  0  0  0  0
    3.4657    4.8226    0.1942 H   0  0  0  0  0  0  0  0  0  0  0  0
    4.7525    4.3524    1.3329 H   0  0  0  0  0  0  0  0  0  0  0  0
    2.3435   -0.0702    2.4006 H   0  0  0  0  0  0  0  0  0  0  0  0
    1.0848    2.3286    0.5034 H   0  0  0  0  0  0  0  0  0  0  0  0
    6.1464    4.1497   -0.4286 H   0  0  0  0  0  0  0  0  0  0  0  0
  1  2  2  0  0  0  0
  1  3  1  0  0  0  0
  1  4  1  0  0  0  0
  2  5  1  0  0  0  0
  2  6  1  0  0  0  0
  3  7  1  0  0  0  0
  3  8  2  0  0  0  0
  4  9  2  0  0  0  0
  4 33  1  0  0  0  0
  5 10  2  0  0  0  0
  5 34  1  0  0  0  0
  6 11  1  0  0  0  0
  7 12  1  0  0  0  0
  7 11  2  0  0  0  0
  9 13  1  0  0  0  0
  9 10  1  0  0  0  0
 10 14  1  0  0  0  0
 11 35  1  0  0  0  0
 12 15  2  0  0  0  0
 12 16  1  0  0  0  0
 13 17  1  0  0  0  0
 15 19  1  0  0  0  0
 15 36  1  0  0  0  0
 16 20  2  0  0  0  0
 16 37  1  0  0  0  0
 17 38  1  0  0  0  0
 17 39  1  0  0  0  0
 17 40  1  0  0  0  0
 18 21  1  0  0  0  0
 18 22  1  0  0  0  0
 18 14  1  0  0  0  0
 18 41  1  6  0  0  0
 19 23  2  0  0  0  0
 19 42  1  0  0  0  0
 20 23  1  0  0  0  0
 20 43  1  0  0  0  0
 21 24  1  0  0  0  0
 22 25  1  0  0  0  0
 22 26  1  0  0  0  0
 22 44  1  1  0  0  0
 23 27  1  0  0  0  0
 24 28  1  0  0  0  0
 24 29  1  0  0  0  0
 24 45  1  6  0  0  0
 25 30  1  0  0  0  0
 25 28  1  0  0  0  0
 25 46  1  6  0  0  0
 26 47  1  0  0  0  0
 27 48  1  0  0  0  0
 28 31  1  0  0  0  0
 28 49  1  1  0  0  0
 29 32  1  0  0  0  0
 29 50  1  0  0  0  0
 29 51  1  0  0  0  0
 30 52  1  0  0  0  0
 31 53  1  0  0  0  0
 32 54  1  0  0  0  0
M  END
>  <Mol_ID>
1775

>  <Formula>
C22H22O10

>  <MolWeight>
446.40408

>  <Cat>
S3825

>  <Name>
Glycitin

>  <Synonyms>
Glycitein-7-¦Â-O-glucoside

>  <Target>
Others

>  <Form>
free base

>  <CAS>
40246-10-4

>  <URL>
http://selleckchem.com/products/glycitin.html

$$$$
