S3835 Loganin.cdx
 OpenBabel08302519513D

 53 55  0  0  0  0  0  0  0  0999 V2000
   -0.5168   -0.8931    0.9678 C   0  0  3  0  0  0  0  0  0  0  0  0
   -0.5628    0.5965    0.5771 C   0  0  3  0  0  0  0  0  0  0  0  0
    0.7744   -1.5553    0.4184 C   0  0  3  0  0  0  0  0  0  0  0  0
   -1.8880   -1.4585    0.5560 C   0  0  3  0  0  0  0  0  0  0  0  0
    0.6613    1.2428    1.1667 C   0  0  0  0  0  0  0  0  0  0  0  0
   -1.9817    0.9845    0.9895 C   0  0  0  0  0  0  0  0  0  0  0  0
    0.6532   -1.8776   -0.9720 O   0  0  0  0  0  0  0  0  0  0  0  0
    1.9477   -0.7872    0.7459 O   0  0  0  0  0  0  0  0  0  0  0  0
   -2.8300   -0.2232    0.5452 C   0  0  3  0  0  0  0  0  0  0  0  0
    1.7946    0.5046    1.1783 C   0  0  0  0  0  0  0  0  0  0  0  0
    0.6989    2.6533    1.6516 C   0  0  0  0  0  0  0  0  0  0  0  0
    1.8529   -2.2843   -1.6534 C   0  0  3  0  0  0  0  0  0  0  0  0
   -3.9870   -0.3680    1.3456 O   0  0  0  0  0  0  0  0  0  0  0  0
    1.9124    2.9165    2.2264 O   0  0  0  0  0  0  0  0  0  0  0  0
   -0.2197    3.4502    1.5374 O   0  0  0  0  0  0  0  0  0  0  0  0
    1.5653   -2.5316   -3.0455 O   0  0  0  0  0  0  0  0  0  0  0  0
    2.6215   -3.5167   -1.1185 C   0  0  3  0  0  0  0  0  0  0  0  0
    2.2308    4.2788    2.5679 C   0  0  0  0  0  0  0  0  0  0  0  0
    0.7973   -3.7088   -3.3546 C   0  0  3  0  0  0  0  0  0  0  0  0
    1.7067   -4.7349   -1.1188 C   0  0  3  0  0  0  0  0  0  0  0  0
    3.7674   -3.7735   -1.9575 O   0  0  0  0  0  0  0  0  0  0  0  0
    1.0221   -4.9620   -2.4732 C   0  0  3  0  0  0  0  0  0  0  0  0
   -0.6535   -3.2712   -3.5874 C   0  0  0  0  0  0  0  0  0  0  0  0
    0.7346   -4.6679   -0.0710 O   0  0  0  0  0  0  0  0  0  0  0  0
   -0.1904   -5.7149   -2.2732 O   0  0  0  0  0  0  0  0  0  0  0  0
   -0.6899   -2.3953   -4.7262 O   0  0  0  0  0  0  0  0  0  0  0  0
   -2.3507   -2.5892    1.4740 C   0  0  0  0  0  0  0  0  0  0  0  0
   -0.4508   -0.9403    2.0667 H   0  0  0  0  0  0  0  0  0  0  0  0
   -0.4970    0.7062   -0.5151 H   0  0  0  0  0  0  0  0  0  0  0  0
    0.8822   -2.4989    0.9664 H   0  0  0  0  0  0  0  0  0  0  0  0
   -1.8420   -1.8504   -0.4668 H   0  0  0  0  0  0  0  0  0  0  0  0
   -2.0844    1.1723    2.0646 H   0  0  0  0  0  0  0  0  0  0  0  0
   -2.3251    1.8885    0.4714 H   0  0  0  0  0  0  0  0  0  0  0  0
   -3.1757   -0.0650   -0.4821 H   0  0  0  0  0  0  0  0  0  0  0  0
    2.7516    0.8682    1.5375 H   0  0  0  0  0  0  0  0  0  0  0  0
    2.5360   -1.4292   -1.6711 H   0  0  0  0  0  0  0  0  0  0  0  0
   -3.7354   -0.3548    2.2830 H   0  0  0  0  0  0  0  0  0  0  0  0
    2.9911   -3.3216   -0.1070 H   0  0  0  0  0  0  0  0  0  0  0  0
    2.4472    4.8321    1.6547 H   0  0  0  0  0  0  0  0  0  0  0  0
    1.4303    4.7443    3.1435 H   0  0  0  0  0  0  0  0  0  0  0  0
    3.1364    4.2491    3.1838 H   0  0  0  0  0  0  0  0  0  0  0  0
    1.1650   -3.9979   -4.3513 H   0  0  0  0  0  0  0  0  0  0  0  0
    2.3024   -5.6291   -0.8948 H   0  0  0  0  0  0  0  0  0  0  0  0
    4.1334   -4.6506   -1.7501 H   0  0  0  0  0  0  0  0  0  0  0  0
    1.6899   -5.6194   -3.0487 H   0  0  0  0  0  0  0  0  0  0  0  0
   -1.3212   -4.1083   -3.8041 H   0  0  0  0  0  0  0  0  0  0  0  0
   -1.0462   -2.7029   -2.7421 H   0  0  0  0  0  0  0  0  0  0  0  0
   -0.0428   -4.2020   -0.4347 H   0  0  0  0  0  0  0  0  0  0  0  0
   -0.0283   -6.3341   -1.5386 H   0  0  0  0  0  0  0  0  0  0  0  0
    0.0969   -1.8214   -4.6443 H   0  0  0  0  0  0  0  0  0  0  0  0
   -3.3538   -2.9336    1.1994 H   0  0  0  0  0  0  0  0  0  0  0  0
   -1.6745   -3.4471    1.4081 H   0  0  0  0  0  0  0  0  0  0  0  0
   -2.3820   -2.2691    2.5213 H   0  0  0  0  0  0  0  0  0  0  0  0
  1  2  1  0  0  0  0
  1  3  1  0  0  0  0
  1  4  1  0  0  0  0
  1 28  1  0  0  0  0
  2  5  1  0  0  0  0
  2  6  1  0  0  0  0
  2 29  1  0  0  0  0
  3  7  1  0  0  0  0
  3  8  1  0  0  0  0
  3 30  1  0  0  0  0
  4  9  1  0  0  0  0
  4 27  1  0  0  0  0
  4 31  1  0  0  0  0
  5 10  2  0  0  0  0
  5 11  1  0  0  0  0
  6  9  1  0  0  0  0
  6 32  1  0  0  0  0
  6 33  1  0  0  0  0
  8 10  1  0  0  0  0
  9 13  1  0  0  0  0
  9 34  1  0  0  0  0
 10 35  1  0  0  0  0
 11 14  1  0  0  0  0
 11 15  2  0  0  0  0
 12  7  1  0  0  0  0
 12 16  1  0  0  0  0
 12 17  1  0  0  0  0
 12 36  1  0  0  0  0
 13 37  1  0  0  0  0
 14 18  1  0  0  0  0
 16 19  1  0  0  0  0
 17 20  1  0  0  0  0
 17 21  1  0  0  0  0
 17 38  1  0  0  0  0
 18 39  1  0  0  0  0
 18 40  1  0  0  0  0
 18 41  1  0  0  0  0
 19 22  1  0  0  0  0
 19 23  1  0  0  0  0
 19 42  1  0  0  0  0
 20 24  1  0  0  0  0
 20 22  1  0  0  0  0
 20 43  1  0  0  0  0
 21 44  1  0  0  0  0
 22 25  1  0  0  0  0
 22 45  1  0  0  0  0
 23 26  1  0  0  0  0
 23 46  1  0  0  0  0
 23 47  1  0  0  0  0
 24 48  1  0  0  0  0
 25 49  1  0  0  0  0
 26 50  1  0  0  0  0
 27 51  1  0  0  0  0
 27 52  1  0  0  0  0
 27 53  1  0  0  0  0
M  END
>  <Mol_ID>
1782

>  <Formula>
C17H26O10

>  <MolWeight>
390.38234

>  <Cat>
S3835

>  <Name>
Loganin

>  <Synonyms>
Loganoside

>  <Target>
AChR,BACE,BChE

>  <Form>
free base

>  <CAS>
18524-94-2

>  <URL>
http://selleckchem.com/products/loganin.html

$$$$
