S3849 D-Galactose.cdx
 OpenBabel08302519513D

 24 24  0  0  0  0  0  0  0  0999 V2000
    0.7040    1.2117   -0.3446 C   0  0  2  0  0  0  0  0  0  0  0  0
    1.4451   -0.0353    0.1737 C   0  0  1  0  0  0  0  0  0  0  0  0
   -0.6991    1.2074   -0.0463 O   0  0  0  0  0  0  0  0  0  0  0  0
    0.9607    1.5914   -1.8147 C   0  0  0  0  0  0  0  0  0  0  0  0
    0.7107   -1.3473   -0.1285 C   0  0  1  0  0  0  0  0  0  0  0  0
    2.7833   -0.0917   -0.3334 O   0  0  0  0  0  0  0  0  0  0  0  0
   -1.4195   -0.0027   -0.2566 C   0  0  3  0  0  0  0  0  0  0  0  0
    0.4961    0.6077   -2.7347 O   0  0  0  0  0  0  0  0  0  0  0  0
   -0.7460   -1.2572    0.3320 C   0  0  2  0  0  0  0  0  0  0  0  0
    0.8604   -1.6567   -1.5249 O   0  0  0  0  0  0  0  0  0  0  0  0
   -1.7251   -0.2114   -1.6256 O   0  0  0  0  0  0  0  0  0  0  0  0
   -0.7948   -1.2314    1.7641 O   0  0  0  0  0  0  0  0  0  0  0  0
    1.1086    2.0603    0.2233 H   0  0  0  0  0  0  0  0  0  0  0  0
    1.5224    0.0583    1.2642 H   0  0  0  0  0  0  0  0  0  0  0  0
    0.4175    2.5132   -2.0493 H   0  0  0  0  0  0  0  0  0  0  0  0
    2.0242    1.7709   -2.0064 H   0  0  0  0  0  0  0  0  0  0  0  0
    1.2191   -2.1576    0.4076 H   0  0  0  0  0  0  0  0  0  0  0  0
    2.7814   -0.7513   -1.0547 H   0  0  0  0  0  0  0  0  0  0  0  0
   -2.3794    0.1380    0.2523 H   0  0  0  0  0  0  0  0  0  0  0  0
    1.0767   -0.1750   -2.6277 H   0  0  0  0  0  0  0  0  0  0  0  0
   -1.2984   -2.1436   -0.0049 H   0  0  0  0  0  0  0  0  0  0  0  0
   -0.0302   -1.8553   -1.8859 H   0  0  0  0  0  0  0  0  0  0  0  0
   -1.0955    0.3399   -2.1341 H   0  0  0  0  0  0  0  0  0  0  0  0
   -0.5578   -2.1170    2.0893 H   0  0  0  0  0  0  0  0  0  0  0  0
  1  2  1  0  0  0  0
  1  3  1  0  0  0  0
  1 13  1  1  0  0  0
  1  4  1  0  0  0  0
  2  5  1  0  0  0  0
  2  6  1  0  0  0  0
  2 14  1  1  0  0  0
  3  7  1  0  0  0  0
  4  8  1  0  0  0  0
  4 15  1  0  0  0  0
  4 16  1  0  0  0  0
  5  9  1  0  0  0  0
  5 10  1  0  0  0  0
  5 17  1  1  0  0  0
  6 18  1  0  0  0  0
  7 11  1  0  0  0  0
  7  9  1  0  0  0  0
  7 19  1  0  0  0  0
  8 20  1  0  0  0  0
  9 21  1  6  0  0  0
  9 12  1  0  0  0  0
 10 22  1  0  0  0  0
 11 23  1  0  0  0  0
 12 24  1  0  0  0  0
M  END
>  <Mol_ID>
1919

>  <Formula>
C6H12O6

>  <MolWeight>
180.15588

>  <Cat>
S3849

>  <Name>
D-Galactose

>  <Synonyms>
D-Galactopyranose, D-(+)-Galactose

>  <Target>
Others

>  <Form>
free base

>  <CAS>
59-23-4

>  <URL>
http://selleckchem.com/products/d-galactose.html

$$$$
