S3846 Eupatilin.cdx
 OpenBabel08302519513D

 41 43  0  0  0  0  0  0  0  0999 V2000
    2.0022    0.9918   -0.0165 C   0  0  0  0  0  0  0  0  0  0  0  0
    2.3760   -0.3527    0.0400 C   0  0  0  0  0  0  0  0  0  0  0  0
    1.3979   -1.3546    0.0461 C   0  0  0  0  0  0  0  0  0  0  0  0
    0.6197    1.2951   -0.0533 C   0  0  0  0  0  0  0  0  0  0  0  0
   -0.3596    0.2973   -0.0518 C   0  0  0  0  0  0  0  0  0  0  0  0
    0.0410   -1.0321   -0.0062 C   0  0  0  0  0  0  0  0  0  0  0  0
   -0.8325   -2.0904   -0.0083 O   0  0  0  0  0  0  0  0  0  0  0  0
   -2.1910   -1.8290   -0.0780 C   0  0  0  0  0  0  0  0  0  0  0  0
   -2.7043   -0.5931   -0.1386 C   0  0  0  0  0  0  0  0  0  0  0  0
   -1.8116    0.5786   -0.0970 C   0  0  0  0  0  0  0  0  0  0  0  0
   -3.0444   -3.0389   -0.0722 C   0  0  0  0  0  0  0  0  0  0  0  0
   -4.2957   -3.0448    0.5500 C   0  0  0  0  0  0  0  0  0  0  0  0
   -5.0650   -4.2075    0.5795 C   0  0  0  0  0  0  0  0  0  0  0  0
   -2.5870   -4.2369   -0.6537 C   0  0  0  0  0  0  0  0  0  0  0  0
   -3.3466   -5.4214   -0.6179 C   0  0  0  0  0  0  0  0  0  0  0  0
   -4.6063   -5.3999    0.0059 C   0  0  0  0  0  0  0  0  0  0  0  0
   -5.5120   -6.4167    0.1565 O   0  0  0  0  0  0  0  0  0  0  0  0
   -5.1912   -7.7075   -0.3356 C   0  0  0  0  0  0  0  0  0  0  0  0
   -1.6345   -6.6382   -1.7818 C   0  0  0  0  0  0  0  0  0  0  0  0
   -2.9096   -6.6027   -1.1556 O   0  0  0  0  0  0  0  0  0  0  0  0
   -2.3088    1.6965   -0.0909 O   0  0  0  0  0  0  0  0  0  0  0  0
    3.6465   -0.8460    0.1058 O   0  0  0  0  0  0  0  0  0  0  0  0
    2.7668    2.1272   -0.0279 O   0  0  0  0  0  0  0  0  0  0  0  0
    4.1787    2.0721    0.0076 C   0  0  0  0  0  0  0  0  0  0  0  0
    0.2607    2.6213   -0.0893 O   0  0  0  0  0  0  0  0  0  0  0  0
    1.7002   -2.3993    0.0883 H   0  0  0  0  0  0  0  0  0  0  0  0
   -3.7627   -0.3758   -0.2086 H   0  0  0  0  0  0  0  0  0  0  0  0
   -4.6898   -2.1564    1.0378 H   0  0  0  0  0  0  0  0  0  0  0  0
   -6.0371   -4.1902    1.0686 H   0  0  0  0  0  0  0  0  0  0  0  0
   -1.6165   -4.2221   -1.1404 H   0  0  0  0  0  0  0  0  0  0  0  0
   -5.0468   -7.6979   -1.4202 H   0  0  0  0  0  0  0  0  0  0  0  0
   -4.3315   -8.1303    0.1938 H   0  0  0  0  0  0  0  0  0  0  0  0
   -6.0480   -8.3579   -0.1337 H   0  0  0  0  0  0  0  0  0  0  0  0
   -1.6201   -6.0062   -2.6755 H   0  0  0  0  0  0  0  0  0  0  0  0
   -0.8376   -6.3620   -1.0837 H   0  0  0  0  0  0  0  0  0  0  0  0
   -1.4495   -7.6689   -2.0999 H   0  0  0  0  0  0  0  0  0  0  0  0
    4.2818   -0.2077   -0.2371 H   0  0  0  0  0  0  0  0  0  0  0  0
    4.5366    1.5763    0.9144 H   0  0  0  0  0  0  0  0  0  0  0  0
    4.5733    1.6109   -0.9025 H   0  0  0  0  0  0  0  0  0  0  0  0
    4.5491    3.1019    0.0250 H   0  0  0  0  0  0  0  0  0  0  0  0
    1.0899    3.1337   -0.0483 H   0  0  0  0  0  0  0  0  0  0  0  0
  1  2  2  0  0  0  0
  1  4  1  0  0  0  0
  1 23  1  0  0  0  0
  2  3  1  0  0  0  0
  2 22  1  0  0  0  0
  3  6  2  0  0  0  0
  3 26  1  0  0  0  0
  4 25  1  0  0  0  0
  5  4  2  0  0  0  0
  5 10  1  0  0  0  0
  5  6  1  0  0  0  0
  6  7  1  0  0  0  0
  7  8  1  0  0  0  0
  8 11  1  0  0  0  0
  8  9  2  0  0  0  0
  9 10  1  0  0  0  0
  9 27  1  0  0  0  0
 10 21  2  0  0  0  0
 11 14  1  0  0  0  0
 11 12  2  0  0  0  0
 12 13  1  0  0  0  0
 12 28  1  0  0  0  0
 13 16  2  0  0  0  0
 13 29  1  0  0  0  0
 14 30  1  0  0  0  0
 15 14  2  0  0  0  0
 15 16  1  0  0  0  0
 15 20  1  0  0  0  0
 16 17  1  0  0  0  0
 17 18  1  0  0  0  0
 18 31  1  0  0  0  0
 18 32  1  0  0  0  0
 18 33  1  0  0  0  0
 19 20  1  0  0  0  0
 19 34  1  0  0  0  0
 19 35  1  0  0  0  0
 19 36  1  0  0  0  0
 22 37  1  0  0  0  0
 23 24  1  0  0  0  0
 24 38  1  0  0  0  0
 24 39  1  0  0  0  0
 24 40  1  0  0  0  0
 25 41  1  0  0  0  0
M  END
>  <Mol_ID>
1820

>  <Formula>
C18H16O7

>  <MolWeight>
344.31544

>  <Cat>
S3846

>  <Name>
Eupatilin

>  <Synonyms>
NSC 122413

>  <Target>
PPAR

>  <Form>
free base

>  <CAS>
22368-21-4

>  <URL>
http://selleckchem.com/products/eupatilin.html

$$$$
