S3841 Eleutheroside B.cdx
 OpenBabel08302519513D

 50 51  0  0  0  0  0  0  0  0999 V2000
    5.4585   -1.3628    1.2392 C   0  0  0  0  0  0  0  0  0  0  0  0
    6.3320   -2.1299    0.4433 C   0  0  0  0  0  0  0  0  0  0  0  0
    5.9057   -0.9443    2.5153 C   0  0  0  0  0  0  0  0  0  0  0  0
    4.3103   -0.8679    0.6673 O   0  0  0  0  0  0  0  0  0  0  0  0
    7.6288   -2.4136    0.9045 C   0  0  0  0  0  0  0  0  0  0  0  0
    6.1543   -2.6653   -0.8036 O   0  0  0  0  0  0  0  0  0  0  0  0
    7.1976   -1.2866    2.9652 C   0  0  0  0  0  0  0  0  0  0  0  0
    5.0597   -0.1640    3.2646 O   0  0  0  0  0  0  0  0  0  0  0  0
    3.0566   -1.0128    1.3695 C   0  0  2  0  0  0  0  0  0  0  0  0
    8.0928   -1.9620    2.1371 C   0  0  0  0  0  0  0  0  0  0  0  0
    4.9134   -2.5404   -1.4660 C   0  0  0  0  0  0  0  0  0  0  0  0
    5.6427    0.6104    4.3069 C   0  0  0  0  0  0  0  0  0  0  0  0
    2.7419   -2.3999    1.4527 O   0  0  0  0  0  0  0  0  0  0  0  0
    2.0061   -0.2205    0.5376 C   0  0  1  0  0  0  0  0  0  0  0  0
    9.5064   -2.1988    2.4745 C   0  0  0  0  0  0  0  0  0  0  0  0
    1.4166   -2.7220    1.8842 C   0  0  1  0  0  0  0  0  0  0  0  0
    0.5596   -0.5921    0.9037 C   0  0  2  0  0  0  0  0  0  0  0  0
    2.2094    1.1981    0.7001 O   0  0  0  0  0  0  0  0  0  0  0  0
   10.2836   -1.3348    3.1397 C   0  0  0  0  0  0  0  0  0  0  0  0
    0.3686   -2.1088    0.9581 C   0  0  2  0  0  0  0  0  0  0  0  0
    1.3475   -4.2511    1.8339 C   0  0  0  0  0  0  0  0  0  0  0  0
   -0.3546   -0.0034   -0.0368 O   0  0  0  0  0  0  0  0  0  0  0  0
   11.7571   -1.5186    3.3269 C   0  0  0  0  0  0  0  0  0  0  0  0
   -0.9557   -2.4418    1.3786 O   0  0  0  0  0  0  0  0  0  0  0  0
    2.2720   -4.7905    2.7796 O   0  0  0  0  0  0  0  0  0  0  0  0
   12.4181   -0.3849    2.7861 O   0  0  0  0  0  0  0  0  0  0  0  0
    8.2979   -2.9668    0.2457 H   0  0  0  0  0  0  0  0  0  0  0  0
    7.5357   -0.9962    3.9544 H   0  0  0  0  0  0  0  0  0  0  0  0
    3.0866   -0.5716    2.3684 H   0  0  0  0  0  0  0  0  0  0  0  0
    4.0824   -2.9059   -0.8590 H   0  0  0  0  0  0  0  0  0  0  0  0
    4.7622   -1.5136   -1.8074 H   0  0  0  0  0  0  0  0  0  0  0  0
    4.9643   -3.1777   -2.3563 H   0  0  0  0  0  0  0  0  0  0  0  0
    5.8255   -0.0124    5.1888 H   0  0  0  0  0  0  0  0  0  0  0  0
    6.5602    1.1121    3.9806 H   0  0  0  0  0  0  0  0  0  0  0  0
    4.9257    1.3877    4.5854 H   0  0  0  0  0  0  0  0  0  0  0  0
    2.1639   -0.4212   -0.5294 H   0  0  0  0  0  0  0  0  0  0  0  0
    9.9488   -3.0946    2.0398 H   0  0  0  0  0  0  0  0  0  0  0  0
    1.2765   -2.3887    2.9221 H   0  0  0  0  0  0  0  0  0  0  0  0
    0.2864   -0.1461    1.8678 H   0  0  0  0  0  0  0  0  0  0  0  0
    1.4736    1.5677    1.2197 H   0  0  0  0  0  0  0  0  0  0  0  0
    9.8777   -0.4100    3.5402 H   0  0  0  0  0  0  0  0  0  0  0  0
    0.4817   -2.5141   -0.0543 H   0  0  0  0  0  0  0  0  0  0  0  0
    0.3511   -4.6374    2.0621 H   0  0  0  0  0  0  0  0  0  0  0  0
    1.6505   -4.6109    0.8436 H   0  0  0  0  0  0  0  0  0  0  0  0
   -0.4152   -0.5848   -0.8179 H   0  0  0  0  0  0  0  0  0  0  0  0
   12.0058   -1.5908    4.3875 H   0  0  0  0  0  0  0  0  0  0  0  0
   12.1342   -2.4110    2.8197 H   0  0  0  0  0  0  0  0  0  0  0  0
   -1.1983   -1.8973    2.1492 H   0  0  0  0  0  0  0  0  0  0  0  0
    3.1187   -4.3330    2.6069 H   0  0  0  0  0  0  0  0  0  0  0  0
   12.1179   -0.2956    1.8651 H   0  0  0  0  0  0  0  0  0  0  0  0
  1  2  2  0  0  0  0
  1  3  1  0  0  0  0
  1  4  1  0  0  0  0
  2  5  1  0  0  0  0
  2  6  1  0  0  0  0
  3  7  2  0  0  0  0
  3  8  1  0  0  0  0
  5 10  2  0  0  0  0
  5 27  1  0  0  0  0
  6 11  1  0  0  0  0
  7 10  1  0  0  0  0
  7 28  1  0  0  0  0
  8 12  1  0  0  0  0
  9 13  1  0  0  0  0
  9 14  1  0  0  0  0
  9  4  1  0  0  0  0
  9 29  1  1  0  0  0
 10 15  1  0  0  0  0
 11 30  1  0  0  0  0
 11 31  1  0  0  0  0
 11 32  1  0  0  0  0
 12 33  1  0  0  0  0
 12 34  1  0  0  0  0
 12 35  1  0  0  0  0
 13 16  1  0  0  0  0
 14 17  1  0  0  0  0
 14 18  1  0  0  0  0
 14 36  1  6  0  0  0
 15 19  2  0  0  0  0
 15 37  1  0  0  0  0
 16 20  1  0  0  0  0
 16 21  1  0  0  0  0
 16 38  1  1  0  0  0
 17 22  1  0  0  0  0
 17 20  1  0  0  0  0
 17 39  1  1  0  0  0
 18 40  1  0  0  0  0
 19 23  1  0  0  0  0
 19 41  1  0  0  0  0
 20 24  1  0  0  0  0
 20 42  1  6  0  0  0
 21 25  1  0  0  0  0
 21 43  1  0  0  0  0
 21 44  1  0  0  0  0
 22 45  1  0  0  0  0
 23 26  1  0  0  0  0
 23 46  1  0  0  0  0
 23 47  1  0  0  0  0
 24 48  1  0  0  0  0
 25 49  1  0  0  0  0
 26 50  1  0  0  0  0
M  END
>  <Mol_ID>
1786

>  <Formula>
C17H24O9

>  <MolWeight>
372.36706

>  <Cat>
S3841

>  <Name>
Eleutheroside B

>  <Synonyms>
syringin, Syringoside, Lilacin

>  <Target>
Immunology & Inflammation related

>  <Form>
free base

>  <CAS>
118-34-3

>  <URL>
http://selleckchem.com/products/eleutheroside-b.html

$$$$
