S3856 Allantoin.cdx
 OpenBabel08302519513D

 17 17  0  0  0  0  0  0  0  0999 V2000
   -0.6742   -1.4525    0.0010 C   0  0  3  0  0  0  0  0  0  0  0  0
    0.7338   -1.2320   -0.0991 N   0  0  0  0  0  0  0  0  0  0  0  0
   -1.1749    0.0090   -0.0885 C   0  0  0  0  0  0  0  0  0  0  0  0
   -1.1274   -2.3023   -1.0543 N   0  0  0  0  0  0  0  0  0  0  0  0
    1.0555    0.1000   -0.0188 C   0  0  0  0  0  0  0  0  0  0  0  0
   -0.0858    0.8256   -0.0110 N   0  0  0  0  0  0  0  0  0  0  0  0
   -2.3248    0.3962   -0.2271 O   0  0  0  0  0  0  0  0  0  0  0  0
   -2.2326   -3.0694   -0.8627 C   0  0  0  0  0  0  0  0  0  0  0  0
    2.1889    0.5422    0.0225 O   0  0  0  0  0  0  0  0  0  0  0  0
   -2.6175   -3.7391   -1.9708 N   0  0  0  0  0  0  0  0  0  0  0  0
   -2.8107   -3.2067    0.2072 O   0  0  0  0  0  0  0  0  0  0  0  0
   -0.9005   -1.8553    0.9929 H   0  0  0  0  0  0  0  0  0  0  0  0
    1.4350   -1.9511    0.0033 H   0  0  0  0  0  0  0  0  0  0  0  0
   -0.9550   -1.9900   -1.9965 H   0  0  0  0  0  0  0  0  0  0  0  0
   -0.1160    1.8300   -0.0308 H   0  0  0  0  0  0  0  0  0  0  0  0
   -3.3843   -4.3907   -1.8712 H   0  0  0  0  0  0  0  0  0  0  0  0
   -2.0943   -3.7338   -2.8304 H   0  0  0  0  0  0  0  0  0  0  0  0
  1  2  1  0  0  0  0
  1  3  1  0  0  0  0
  1  4  1  0  0  0  0
  1 12  1  0  0  0  0
  2  5  1  0  0  0  0
  2 13  1  0  0  0  0
  3  6  1  0  0  0  0
  3  7  2  0  0  0  0
  4  8  1  0  0  0  0
  4 14  1  0  0  0  0
  5  9  2  0  0  0  0
  5  6  1  0  0  0  0
  6 15  1  0  0  0  0
  8 10  1  0  0  0  0
  8 11  2  0  0  0  0
 10 16  1  0  0  0  0
 10 17  1  0  0  0  0
M  END
>  <Mol_ID>
1924

>  <Formula>
C4H6N4O3

>  <MolWeight>
158.11544

>  <Cat>
S3856

>  <Name>
Allantoin

>  <Synonyms>
Glyoxyldiureide, 5-Ureidohydantoin

>  <Target>
Others

>  <Form>
free base

>  <CAS>
97-59-6

>  <URL>
http://selleckchem.com/products/allantoin.html

$$$$
