S3855 Ethyl ferulate.cdx
 OpenBabel08302519513D

 30 30  0  0  0  0  0  0  0  0999 V2000
   -1.2716   -1.1518   -0.0558 C   0  0  0  0  0  0  0  0  0  0  0  0
    0.1358   -1.2149   -0.0324 C   0  0  0  0  0  0  0  0  0  0  0  0
   -1.8948    0.1051   -0.0324 C   0  0  0  0  0  0  0  0  0  0  0  0
   -2.0436   -2.4078   -0.0129 C   0  0  0  0  0  0  0  0  0  0  0  0
    0.9028   -0.0457   -0.0092 C   0  0  0  0  0  0  0  0  0  0  0  0
   -1.1355    1.2766   -0.0087 C   0  0  0  0  0  0  0  0  0  0  0  0
   -3.2546   -2.5871   -0.5674 C   0  0  0  0  0  0  0  0  0  0  0  0
    0.2487    1.1902    0.0011 C   0  0  0  0  0  0  0  0  0  0  0  0
    2.2724    0.0305    0.0115 O   0  0  0  0  0  0  0  0  0  0  0  0
   -4.0429   -3.8418   -0.4823 C   0  0  0  0  0  0  0  0  0  0  0  0
    0.9698    2.3526    0.0315 O   0  0  0  0  0  0  0  0  0  0  0  0
    2.9831   -1.2019    0.0088 C   0  0  0  0  0  0  0  0  0  0  0  0
   -3.4191   -4.7665    0.2890 O   0  0  0  0  0  0  0  0  0  0  0  0
   -5.1171   -3.9776   -1.0437 O   0  0  0  0  0  0  0  0  0  0  0  0
   -4.0591   -6.0459    0.4087 C   0  0  0  0  0  0  0  0  0  0  0  0
   -5.0941   -6.0392    1.5185 C   0  0  0  0  0  0  0  0  0  0  0  0
    0.6126   -2.1899   -0.0338 H   0  0  0  0  0  0  0  0  0  0  0  0
   -2.9780    0.1933   -0.0123 H   0  0  0  0  0  0  0  0  0  0  0  0
   -1.5629   -3.2251    0.5211 H   0  0  0  0  0  0  0  0  0  0  0  0
   -1.6195    2.2483    0.0131 H   0  0  0  0  0  0  0  0  0  0  0  0
   -3.7484   -1.8044   -1.1354 H   0  0  0  0  0  0  0  0  0  0  0  0
    1.9050    2.0700    0.0400 H   0  0  0  0  0  0  0  0  0  0  0  0
    2.7694   -1.7803    0.9135 H   0  0  0  0  0  0  0  0  0  0  0  0
    2.7660   -1.7814   -0.8944 H   0  0  0  0  0  0  0  0  0  0  0  0
    4.0526   -0.9703    0.0057 H   0  0  0  0  0  0  0  0  0  0  0  0
   -4.4940   -6.3631   -0.5459 H   0  0  0  0  0  0  0  0  0  0  0  0
   -3.2720   -6.7657    0.6585 H   0  0  0  0  0  0  0  0  0  0  0  0
   -5.9084   -5.3423    1.2974 H   0  0  0  0  0  0  0  0  0  0  0  0
   -5.5198   -7.0384    1.6540 H   0  0  0  0  0  0  0  0  0  0  0  0
   -4.6449   -5.7193    2.4643 H   0  0  0  0  0  0  0  0  0  0  0  0
  1  2  2  0  0  0  0
  1  3  1  0  0  0  0
  1  4  1  0  0  0  0
  2  5  1  0  0  0  0
  2 17  1  0  0  0  0
  3  6  2  0  0  0  0
  3 18  1  0  0  0  0
  4  7  2  0  0  0  0
  4 19  1  0  0  0  0
  5  8  2  0  0  0  0
  5  9  1  0  0  0  0
  6  8  1  0  0  0  0
  6 20  1  0  0  0  0
  7 10  1  0  0  0  0
  7 21  1  0  0  0  0
  8 11  1  0  0  0  0
  9 12  1  0  0  0  0
 10 13  1  0  0  0  0
 10 14  2  0  0  0  0
 11 22  1  0  0  0  0
 12 23  1  0  0  0  0
 12 24  1  0  0  0  0
 12 25  1  0  0  0  0
 13 15  1  0  0  0  0
 15 16  1  0  0  0  0
 15 26  1  0  0  0  0
 15 27  1  0  0  0  0
 16 28  1  0  0  0  0
 16 29  1  0  0  0  0
 16 30  1  0  0  0  0
M  END
>  <Mol_ID>
1923

>  <Formula>
C12H14O4

>  <MolWeight>
222.23716

>  <Cat>
S3855

>  <Name>
Ethyl ferulate

>  <Synonyms>
Ferulic acid ethyl ester, Ethyl 4'-hydroxy-3'-methoxycinnamate, Ethyl 3-(4-hydroxy-3-methoxyphenyl)acrylate

>  <Target>
Others

>  <Form>
free base

>  <CAS>
4046-02-0

>  <URL>
http://selleckchem.com/products/ethyl-ferulate.html

$$$$
