S3852 L-Theanine.cdx
 OpenBabel08302521383D

 26 25  0  0  0  0  0  0  0  0999 V2000
    0.9893   -0.1780   -0.0184 C   0  0  0  0  0  0  0  0  0  0  0  0
    0.3526    1.0668    0.6141 C   0  0  0  0  0  0  0  0  0  0  0  0
    0.7014   -0.2666   -1.5074 C   0  0  0  0  0  0  0  0  0  0  0  0
    0.6211    1.1772    2.1194 C   0  0  1  0  0  0  0  0  0  0  0  0
    0.7484   -1.5473   -2.0052 N   0  0  0  0  0  0  0  0  0  0  0  0
    0.4613    0.7205   -2.1950 O   0  0  0  0  0  0  0  0  0  0  0  0
    0.0264    2.4846    2.6789 C   0  0  0  0  0  0  0  0  0  0  0  0
    0.1033   -0.0044    2.8397 N   0  0  0  0  0  0  0  0  0  0  0  0
    0.4514   -1.8477   -3.3927 C   0  0  0  0  0  0  0  0  0  0  0  0
   -1.2115    2.3379    3.2125 O   0  0  0  0  0  0  0  0  0  0  0  0
    0.5934    3.5661    2.6491 O   0  0  0  0  0  0  0  0  0  0  0  0
    1.7093   -1.9449   -4.2355 C   0  0  0  0  0  0  0  0  0  0  0  0
    0.6058   -1.0846    0.4626 H   0  0  0  0  0  0  0  0  0  0  0  0
    2.0778   -0.1564    0.1136 H   0  0  0  0  0  0  0  0  0  0  0  0
    0.7294    1.9683    0.1130 H   0  0  0  0  0  0  0  0  0  0  0  0
   -0.7298    1.0565    0.4261 H   0  0  0  0  0  0  0  0  0  0  0  0
    1.7004    1.2237    2.3055 H   0  0  0  0  0  0  0  0  0  0  0  0
    1.0493   -2.3040   -1.4045 H   0  0  0  0  0  0  0  0  0  0  0  0
    0.1484    0.1269    3.8500 H   0  0  0  0  0  0  0  0  0  0  0  0
   -0.8165   -0.3069    2.5368 H   0  0  0  0  0  0  0  0  0  0  0  0
   -0.0848   -2.8019   -3.4099 H   0  0  0  0  0  0  0  0  0  0  0  0
   -0.2131   -1.0792   -3.8014 H   0  0  0  0  0  0  0  0  0  0  0  0
   -1.5144    1.4149    3.1500 H   0  0  0  0  0  0  0  0  0  0  0  0
    2.3483   -2.7640   -3.8891 H   0  0  0  0  0  0  0  0  0  0  0  0
    1.4514   -2.1352   -5.2827 H   0  0  0  0  0  0  0  0  0  0  0  0
    2.2923   -1.0202   -4.1871 H   0  0  0  0  0  0  0  0  0  0  0  0
  1  2  1  0  0  0  0
  1  3  1  0  0  0  0
  1 13  1  0  0  0  0
  1 14  1  0  0  0  0
  2  4  1  0  0  0  0
  2 15  1  0  0  0  0
  2 16  1  0  0  0  0
  3  5  1  0  0  0  0
  3  6  2  0  0  0  0
  4  7  1  0  0  0  0
  4  8  1  0  0  0  0
  4 17  1  1  0  0  0
  5  9  1  0  0  0  0
  5 18  1  0  0  0  0
  7 10  1  0  0  0  0
  7 11  2  0  0  0  0
  8 19  1  0  0  0  0
  8 20  1  0  0  0  0
  9 12  1  0  0  0  0
  9 21  1  0  0  0  0
  9 22  1  0  0  0  0
 10 23  1  0  0  0  0
 12 24  1  0  0  0  0
 12 25  1  0  0  0  0
 12 26  1  0  0  0  0
M  END
>  <Mol_ID>
7801

>  <Formula>
C7H14N2O3

>  <MolWeight>
174.19766

>  <Cat>
S3852

>  <Name>
L-Theanine

>  <Synonyms>
N/A

>  <Target>
Others

>  <Form>
free base

>  <CAS>
3081-61-6

>  <URL>
http://selleckchem.com/products/l-theanine.html

$$$$
