S3857 4-Hydroxybenzyl alcohol.cdx
 OpenBabel08302519513D

 17 17  0  0  0  0  0  0  0  0999 V2000
   -1.8947    0.0347    0.0093 C   0  0  0  0  0  0  0  0  0  0  0  0
   -1.2046   -1.1878    0.0120 C   0  0  0  0  0  0  0  0  0  0  0  0
   -1.1576    1.2280    0.0189 C   0  0  0  0  0  0  0  0  0  0  0  0
   -3.3985    0.0774   -0.0340 C   0  0  0  0  0  0  0  0  0  0  0  0
    0.1941   -1.2176    0.0166 C   0  0  0  0  0  0  0  0  0  0  0  0
    0.2391    1.1996    0.0229 C   0  0  0  0  0  0  0  0  0  0  0  0
   -3.9153    0.7325    1.1161 O   0  0  0  0  0  0  0  0  0  0  0  0
    0.9023   -0.0225    0.0203 C   0  0  0  0  0  0  0  0  0  0  0  0
    2.2652    0.0058    0.0145 O   0  0  0  0  0  0  0  0  0  0  0  0
   -1.7528   -2.1268   -0.0018 H   0  0  0  0  0  0  0  0  0  0  0  0
   -1.6726    2.1870    0.0191 H   0  0  0  0  0  0  0  0  0  0  0  0
   -3.7354    0.6136   -0.9279 H   0  0  0  0  0  0  0  0  0  0  0  0
   -3.8277   -0.9290   -0.0664 H   0  0  0  0  0  0  0  0  0  0  0  0
    0.7072   -2.1750    0.0182 H   0  0  0  0  0  0  0  0  0  0  0  0
    0.8040    2.1257    0.0258 H   0  0  0  0  0  0  0  0  0  0  0  0
   -3.4898    0.3205    1.8871 H   0  0  0  0  0  0  0  0  0  0  0  0
    2.5936   -0.9072   -0.0174 H   0  0  0  0  0  0  0  0  0  0  0  0
  1  2  2  0  0  0  0
  1  3  1  0  0  0  0
  1  4  1  0  0  0  0
  2  5  1  0  0  0  0
  2 10  1  0  0  0  0
  3  6  2  0  0  0  0
  3 11  1  0  0  0  0
  4  7  1  0  0  0  0
  4 12  1  0  0  0  0
  4 13  1  0  0  0  0
  5  8  2  0  0  0  0
  5 14  1  0  0  0  0
  6  8  1  0  0  0  0
  6 15  1  0  0  0  0
  7 16  1  0  0  0  0
  8  9  1  0  0  0  0
  9 17  1  0  0  0  0
M  END
>  <Mol_ID>
1925

>  <Formula>
C7H8O2

>  <MolWeight>
124.13722

>  <Cat>
S3857

>  <Name>
4-Hydroxybenzyl alcohol

>  <Synonyms>
P-Methylolphenol, 4-Methylolphenol

>  <Target>
Apoptosis related

>  <Form>
free base

>  <CAS>
623-05-2

>  <URL>
http://selleckchem.com/products/4-hydroxybenzyl-alcohol.html

$$$$
