S3862 Gallic acid trimethyl ether.cdx
 OpenBabel08302519513D

 27 27  0  0  0  0  0  0  0  0999 V2000
    1.3710   -0.3560   -0.1248 C   0  0  0  0  0  0  0  0  0  0  0  0
    0.4109   -1.3866    0.0137 C   0  0  0  0  0  0  0  0  0  0  0  0
    0.9387    0.9835   -0.1770 C   0  0  0  0  0  0  0  0  0  0  0  0
    2.7167   -0.6179   -0.0755 O   0  0  0  0  0  0  0  0  0  0  0  0
   -0.9536   -1.0793   -0.0366 C   0  0  0  0  0  0  0  0  0  0  0  0
    0.8709   -2.6660    0.2211 O   0  0  0  0  0  0  0  0  0  0  0  0
   -0.4370    1.2703   -0.1527 C   0  0  0  0  0  0  0  0  0  0  0  0
    1.6814    2.1327   -0.2513 O   0  0  0  0  0  0  0  0  0  0  0  0
    3.1930   -1.5959   -1.0015 C   0  0  0  0  0  0  0  0  0  0  0  0
   -1.3823    0.2449   -0.1110 C   0  0  0  0  0  0  0  0  0  0  0  0
   -0.0647   -3.6029    0.7503 C   0  0  0  0  0  0  0  0  0  0  0  0
    3.0973    2.0592   -0.2083 C   0  0  0  0  0  0  0  0  0  0  0  0
   -2.8425    0.4994   -0.0573 C   0  0  0  0  0  0  0  0  0  0  0  0
   -3.2379    1.6106   -0.7098 O   0  0  0  0  0  0  0  0  0  0  0  0
   -3.6279   -0.2558    0.4954 O   0  0  0  0  0  0  0  0  0  0  0  0
   -1.7103   -1.8578    0.0104 H   0  0  0  0  0  0  0  0  0  0  0  0
   -0.7426    2.3138   -0.1273 H   0  0  0  0  0  0  0  0  0  0  0  0
    2.4181   -2.1590   -1.5301 H   0  0  0  0  0  0  0  0  0  0  0  0
    3.8055   -1.0903   -1.7550 H   0  0  0  0  0  0  0  0  0  0  0  0
    3.8366   -2.2947   -0.4576 H   0  0  0  0  0  0  0  0  0  0  0  0
   -0.6155   -3.1907    1.6035 H   0  0  0  0  0  0  0  0  0  0  0  0
   -0.7502   -3.9428   -0.0332 H   0  0  0  0  0  0  0  0  0  0  0  0
    0.4929   -4.4723    1.1092 H   0  0  0  0  0  0  0  0  0  0  0  0
    3.4468    1.6736    0.7541 H   0  0  0  0  0  0  0  0  0  0  0  0
    3.4952    1.4905   -1.0530 H   0  0  0  0  0  0  0  0  0  0  0  0
    3.4780    3.0817   -0.3071 H   0  0  0  0  0  0  0  0  0  0  0  0
   -2.5524    2.0565   -1.2408 H   0  0  0  0  0  0  0  0  0  0  0  0
  1  2  2  0  0  0  0
  1  3  1  0  0  0  0
  1  4  1  0  0  0  0
  2  5  1  0  0  0  0
  2  6  1  0  0  0  0
  3  7  2  0  0  0  0
  3  8  1  0  0  0  0
  4  9  1  0  0  0  0
  5 10  2  0  0  0  0
  5 16  1  0  0  0  0
  6 11  1  0  0  0  0
  7 10  1  0  0  0  0
  7 17  1  0  0  0  0
  8 12  1  0  0  0  0
  9 18  1  0  0  0  0
  9 19  1  0  0  0  0
  9 20  1  0  0  0  0
 10 13  1  0  0  0  0
 11 21  1  0  0  0  0
 11 22  1  0  0  0  0
 11 23  1  0  0  0  0
 12 24  1  0  0  0  0
 12 25  1  0  0  0  0
 12 26  1  0  0  0  0
 13 14  1  0  0  0  0
 13 15  2  0  0  0  0
 14 27  1  0  0  0  0
M  END
>  <Mol_ID>
1911

>  <Formula>
C10H12O5

>  <MolWeight>
212.19928

>  <Cat>
S3862

>  <Name>
Gallic acid trimethyl ether

>  <Synonyms>
Eudesmic acid, Tri-O-methylgallic acid, Benzoic acid, 3,4,5-Trimethoxybenzoic acid

>  <Target>
Others

>  <Form>
free base

>  <CAS>
118-41-2

>  <URL>
http://selleckchem.com/products/gallic-acid-trimethyl-ether.html

$$$$
