S3865 Taurochenodeoxycholic acid.cdx
 OpenBabel08302519513D

 79 82  0  0  0  0  0  0  0  0999 V2000
    0.1254    1.9846    0.6739 C   0  0  1  0  0  0  0  0  0  0  0  0
   -0.2289    0.7573   -0.2407 C   0  0  3  0  0  0  0  0  0  0  0  0
    1.6130    2.4976    0.4692 C   0  0  3  0  0  0  0  0  0  0  0  0
   -0.7719    3.1786    0.2901 C   0  0  0  0  0  0  0  0  0  0  0  0
    0.8922   -0.3360   -0.2605 C   0  0  3  0  0  0  0  0  0  0  0  0
   -1.6812    0.2672   -0.1128 C   0  0  3  0  0  0  0  0  0  0  0  0
    1.3340    3.4790   -0.7242 C   0  0  3  0  0  0  0  0  0  0  0  0
    2.6067    1.3497    0.2133 C   0  0  0  0  0  0  0  0  0  0  0  0
    2.1416    3.1837    1.7528 C   0  0  0  0  0  0  0  0  0  0  0  0
    0.1756    4.3001   -0.1234 C   0  0  0  0  0  0  0  0  0  0  0  0
    0.5377   -1.8662   -0.3161 C   0  0  3  0  0  0  0  0  0  0  0  0
    2.0465    0.0146    0.6770 C   0  0  0  0  0  0  0  0  0  0  0  0
   -1.8685   -1.0304   -0.9142 C   0  0  0  0  0  0  0  0  0  0  0  0
    2.3805    4.2671   -1.5524 C   0  0  3  0  0  0  0  0  0  0  0  0
   -0.9951   -2.0843   -0.2556 C   0  0  3  0  0  0  0  0  0  0  0  0
    1.0867   -2.6951    0.8941 C   0  0  0  0  0  0  0  0  0  0  0  0
    1.2768   -2.4229   -1.5780 C   0  0  0  0  0  0  0  0  0  0  0  0
    3.2789    3.3063   -2.3855 C   0  0  0  0  0  0  0  0  0  0  0  0
    1.5818    5.1828   -2.5144 C   0  0  0  0  0  0  0  0  0  0  0  0
   -1.4382   -3.5356   -0.4321 C   0  0  0  0  0  0  0  0  0  0  0  0
    0.6465   -4.1715    0.8638 C   0  0  0  0  0  0  0  0  0  0  0  0
    4.2271    3.9720   -3.3842 C   0  0  0  0  0  0  0  0  0  0  0  0
   -0.8619   -4.3608    0.7326 C   0  0  3  0  0  0  0  0  0  0  0  0
    5.0259    2.9764   -4.2133 C   0  0  0  0  0  0  0  0  0  0  0  0
   -1.4937   -4.0075    1.9789 O   0  0  0  0  0  0  0  0  0  0  0  0
    5.8836    3.6134   -5.0915 N   0  0  0  0  0  0  0  0  0  0  0  0
    4.8889    1.7602   -4.1578 O   0  0  0  0  0  0  0  0  0  0  0  0
    6.7485    2.8913   -6.0136 C   0  0  0  0  0  0  0  0  0  0  0  0
    6.9817    3.7136   -7.2571 C   0  0  0  0  0  0  0  0  0  0  0  0
    8.0801    2.8677   -8.3820 S   0  0  0  0  0  0  0  0  0  0  0  0
    8.0851    3.9852   -9.5496 O   0  0  0  0  0  0  0  0  0  0  0  0
    9.4060    2.8158   -7.8095 O   0  0  0  0  0  0  0  0  0  0  0  0
    7.4211    1.7176   -8.9444 O   0  0  0  0  0  0  0  0  0  0  0  0
   -2.0791    0.0903    1.2489 O   0  0  0  0  0  0  0  0  0  0  0  0
   -0.0365    1.7353    1.7291 H   0  0  0  0  0  0  0  0  0  0  0  0
   -0.2223    1.1337   -1.2758 H   0  0  0  0  0  0  0  0  0  0  0  0
   -1.3921    2.9650   -0.5913 H   0  0  0  0  0  0  0  0  0  0  0  0
   -1.4652    3.4887    1.0864 H   0  0  0  0  0  0  0  0  0  0  0  0
    1.3246   -0.1414   -1.2553 H   0  0  0  0  0  0  0  0  0  0  0  0
   -2.3742    1.0129   -0.5144 H   0  0  0  0  0  0  0  0  0  0  0  0
    0.8848    2.8547   -1.5107 H   0  0  0  0  0  0  0  0  0  0  0  0
    3.5638    1.5207    0.7230 H   0  0  0  0  0  0  0  0  0  0  0  0
    2.8539    1.2520   -0.8439 H   0  0  0  0  0  0  0  0  0  0  0  0
    3.0682    3.7311    1.5454 H   0  0  0  0  0  0  0  0  0  0  0  0
    1.4337    3.8671    2.2255 H   0  0  0  0  0  0  0  0  0  0  0  0
    2.3754    2.4327    2.5210 H   0  0  0  0  0  0  0  0  0  0  0  0
    0.4892    4.9042    0.7364 H   0  0  0  0  0  0  0  0  0  0  0  0
   -0.3251    4.9845   -0.8197 H   0  0  0  0  0  0  0  0  0  0  0  0
    1.7127    0.0464    1.7211 H   0  0  0  0  0  0  0  0  0  0  0  0
    2.8534   -0.7198    0.6084 H   0  0  0  0  0  0  0  0  0  0  0  0
   -2.9212   -1.3320   -0.8429 H   0  0  0  0  0  0  0  0  0  0  0  0
   -1.6320   -0.8878   -1.9742 H   0  0  0  0  0  0  0  0  0  0  0  0
    3.0087    4.8859   -0.9032 H   0  0  0  0  0  0  0  0  0  0  0  0
   -1.2238   -1.9049    0.7924 H   0  0  0  0  0  0  0  0  0  0  0  0
    0.7471   -2.2358    1.8315 H   0  0  0  0  0  0  0  0  0  0  0  0
    2.1812   -2.6853    0.9249 H   0  0  0  0  0  0  0  0  0  0  0  0
    1.1788   -1.7755   -2.4572 H   0  0  0  0  0  0  0  0  0  0  0  0
    2.3571   -2.4879   -1.3702 H   0  0  0  0  0  0  0  0  0  0  0  0
    0.9573   -3.4206   -1.8803 H   0  0  0  0  0  0  0  0  0  0  0  0
    3.9034    2.7208   -1.7064 H   0  0  0  0  0  0  0  0  0  0  0  0
    2.6405    2.5945   -2.9297 H   0  0  0  0  0  0  0  0  0  0  0  0
    1.1311    6.0195   -1.9725 H   0  0  0  0  0  0  0  0  0  0  0  0
    2.1800    5.6320   -3.3052 H   0  0  0  0  0  0  0  0  0  0  0  0
    0.7720    4.6197   -3.0004 H   0  0  0  0  0  0  0  0  0  0  0  0
   -2.5328   -3.5959   -0.4143 H   0  0  0  0  0  0  0  0  0  0  0  0
   -1.1077   -3.9441   -1.3933 H   0  0  0  0  0  0  0  0  0  0  0  0
    1.0016   -4.6536    1.7807 H   0  0  0  0  0  0  0  0  0  0  0  0
    1.1343   -4.6760    0.0236 H   0  0  0  0  0  0  0  0  0  0  0  0
    3.6723    4.5720   -4.1109 H   0  0  0  0  0  0  0  0  0  0  0  0
    4.9227    4.6263   -2.8469 H   0  0  0  0  0  0  0  0  0  0  0  0
   -1.0942   -5.4146    0.5743 H   0  0  0  0  0  0  0  0  0  0  0  0
   -1.2905   -3.0724    2.2140 H   0  0  0  0  0  0  0  0  0  0  0  0
    6.0973    4.5852   -4.8990 H   0  0  0  0  0  0  0  0  0  0  0  0
    7.6910    2.6938   -5.4862 H   0  0  0  0  0  0  0  0  0  0  0  0
    6.3008    1.9205   -6.2576 H   0  0  0  0  0  0  0  0  0  0  0  0
    6.0438    3.8956   -7.7953 H   0  0  0  0  0  0  0  0  0  0  0  0
    7.4408    4.6745   -7.0173 H   0  0  0  0  0  0  0  0  0  0  0  0
    7.7726    3.5566  -10.3796 H   0  0  0  0  0  0  0  0  0  0  0  0
   -1.2925    0.1078    1.8184 H   0  0  0  0  0  0  0  0  0  0  0  0
  1  2  1  0  0  0  0
  1  3  1  0  0  0  0
  1  4  1  0  0  0  0
  1 35  1  1  0  0  0
  2  5  1  0  0  0  0
  2  6  1  0  0  0  0
  2 36  1  0  0  0  0
  3  7  1  0  0  0  0
  3  8  1  0  0  0  0
  3  9  1  0  0  0  0
  4 10  1  0  0  0  0
  4 37  1  0  0  0  0
  4 38  1  0  0  0  0
  5 11  1  0  0  0  0
  5 12  1  0  0  0  0
  5 39  1  0  0  0  0
  6 13  1  0  0  0  0
  6 34  1  0  0  0  0
  6 40  1  0  0  0  0
  7 14  1  0  0  0  0
  7 10  1  0  0  0  0
  7 41  1  0  0  0  0
  8 12  1  0  0  0  0
  8 42  1  0  0  0  0
  8 43  1  0  0  0  0
  9 44  1  0  0  0  0
  9 45  1  0  0  0  0
  9 46  1  0  0  0  0
 10 47  1  0  0  0  0
 10 48  1  0  0  0  0
 11 15  1  0  0  0  0
 11 16  1  0  0  0  0
 11 17  1  0  0  0  0
 12 49  1  0  0  0  0
 12 50  1  0  0  0  0
 13 51  1  0  0  0  0
 13 52  1  0  0  0  0
 14 18  1  0  0  0  0
 14 19  1  0  0  0  0
 14 53  1  0  0  0  0
 15 13  1  0  0  0  0
 15 20  1  0  0  0  0
 15 54  1  0  0  0  0
 16 21  1  0  0  0  0
 16 55  1  0  0  0  0
 16 56  1  0  0  0  0
 17 57  1  0  0  0  0
 17 58  1  0  0  0  0
 17 59  1  0  0  0  0
 18 22  1  0  0  0  0
 18 60  1  0  0  0  0
 18 61  1  0  0  0  0
 19 62  1  0  0  0  0
 19 63  1  0  0  0  0
 19 64  1  0  0  0  0
 20 23  1  0  0  0  0
 20 65  1  0  0  0  0
 20 66  1  0  0  0  0
 21 23  1  0  0  0  0
 21 67  1  0  0  0  0
 21 68  1  0  0  0  0
 22 24  1  0  0  0  0
 22 69  1  0  0  0  0
 22 70  1  0  0  0  0
 23 25  1  0  0  0  0
 23 71  1  0  0  0  0
 24 26  1  0  0  0  0
 24 27  2  0  0  0  0
 25 72  1  0  0  0  0
 26 28  1  0  0  0  0
 26 73  1  0  0  0  0
 28 29  1  0  0  0  0
 28 74  1  0  0  0  0
 28 75  1  0  0  0  0
 29 30  1  0  0  0  0
 29 76  1  0  0  0  0
 29 77  1  0  0  0  0
 30 31  1  0  0  0  0
 30 32  2  0  0  0  0
 30 33  2  0  0  0  0
 31 78  1  0  0  0  0
 34 79  1  0  0  0  0
M  END
>  <Mol_ID>
1914

>  <Formula>
C26H45NO6S

>  <MolWeight>
499.7036

>  <Cat>
S3865

>  <Name>
Taurochenodeoxycholic acid

>  <Synonyms>
Taurochenodeoxycholate, TCDCA, 12-Deoxycholyltaurine, Chenodeoxycholyltaurine, Chenyltaurine

>  <Target>
Caspase,TNF-alpha

>  <Form>
free base

>  <CAS>
516-35-8

>  <URL>
http://selleckchem.com/products/taurochenodeoxycholic-acid.html

$$$$
