S3866 Galanthamine.cdx
 OpenBabel08302519513D

 42 45  0  0  0  0  0  0  0  0999 V2000
    1.4617    0.8736    0.3973 C   0  0  1  0  0  0  0  0  0  0  0  0
    0.3681   -0.1546    0.6252 C   0  0  0  0  0  0  0  0  0  0  0  0
    0.7859    1.9054    1.3754 C   0  0  1  0  0  0  0  0  0  0  0  0
   -0.8490    0.4951    0.9132 C   0  0  0  0  0  0  0  0  0  0  0  0
    0.3462   -1.4761    0.1962 C   0  0  0  0  0  0  0  0  0  0  0  0
   -0.6522    1.7992    1.2941 O   0  0  0  0  0  0  0  0  0  0  0  0
    1.2496    1.5958    2.9163 C   0  0  0  0  0  0  0  0  0  0  0  0
    3.2794    0.5337    1.9865 C   0  0  0  0  0  0  0  0  0  0  0  0
   -2.0908   -0.1086    0.7210 C   0  0  0  0  0  0  0  0  0  0  0  0
   -0.8990   -2.0933   -0.0199 C   0  0  0  0  0  0  0  0  0  0  0  0
    1.6221   -2.2116    0.0148 C   0  0  0  0  0  0  0  0  0  0  0  0
    2.7854    1.3714    3.1244 C   0  0  2  0  0  0  0  0  0  0  0  0
    2.4637   -1.8432   -1.1255 N   0  0  0  0  0  0  0  0  0  0  0  0
   -2.0973   -1.4137    0.2216 C   0  0  0  0  0  0  0  0  0  0  0  0
   -3.3437    0.4139    0.8773 O   0  0  0  0  0  0  0  0  0  0  0  0
    3.7272   -2.5911   -0.9228 C   0  0  0  0  0  0  0  0  0  0  0  0
   -3.4670    1.6309    1.5945 C   0  0  0  0  0  0  0  0  0  0  0  0
    3.1016    0.6666    4.3135 O   0  0  0  0  0  0  0  0  0  0  0  0
    2.7583   -0.4153   -1.3948 C   0  0  0  0  0  0  0  0  0  0  0  0
    2.9068    1.0657    0.8237 C   0  0  0  0  0  0  0  0  0  0  0  0
    1.6961    0.7567   -1.1196 C   0  0  0  0  0  0  0  0  0  0  0  0
    1.0465    2.9444    1.1398 H   0  0  0  0  0  0  0  0  0  0  0  0
    0.7255    0.6991    3.2810 H   0  0  0  0  0  0  0  0  0  0  0  0
    0.9029    2.3979    3.5787 H   0  0  0  0  0  0  0  0  0  0  0  0
    3.0673   -0.5278    2.1383 H   0  0  0  0  0  0  0  0  0  0  0  0
   -0.9445   -3.1106   -0.4043 H   0  0  0  0  0  0  0  0  0  0  0  0
    1.3743   -3.2774   -0.0889 H   0  0  0  0  0  0  0  0  0  0  0  0
    2.1572   -2.1454    0.9701 H   0  0  0  0  0  0  0  0  0  0  0  0
    3.3163    2.3312    3.1607 H   0  0  0  0  0  0  0  0  0  0  0  0
   -3.0472   -1.9043    0.0107 H   0  0  0  0  0  0  0  0  0  0  0  0
    4.1477   -2.4138    0.0795 H   0  0  0  0  0  0  0  0  0  0  0  0
    3.5477   -3.6696   -1.0124 H   0  0  0  0  0  0  0  0  0  0  0  0
    4.4968   -2.3252   -1.6522 H   0  0  0  0  0  0  0  0  0  0  0  0
   -3.0455    1.5412    2.5999 H   0  0  0  0  0  0  0  0  0  0  0  0
   -3.0308    2.4666    1.0416 H   0  0  0  0  0  0  0  0  0  0  0  0
   -4.5379    1.8397    1.7029 H   0  0  0  0  0  0  0  0  0  0  0  0
    4.0196    0.3473    4.2265 H   0  0  0  0  0  0  0  0  0  0  0  0
    3.6976   -0.1659   -0.8802 H   0  0  0  0  0  0  0  0  0  0  0  0
    3.0376   -0.3439   -2.4521 H   0  0  0  0  0  0  0  0  0  0  0  0
    3.1836    2.1245    0.6678 H   0  0  0  0  0  0  0  0  0  0  0  0
    2.1246    1.6891   -1.5182 H   0  0  0  0  0  0  0  0  0  0  0  0
    0.7940    0.5692   -1.7134 H   0  0  0  0  0  0  0  0  0  0  0  0
  1  2  1  1  0  0  0
  1  3  1  0  0  0  0
  1 20  1  0  0  0  0
  1 21  1  0  0  0  0
  2  5  2  0  0  0  0
  2  4  1  0  0  0  0
  3  6  1  0  0  0  0
  3  7  1  0  0  0  0
  3 22  1  6  0  0  0
  4  9  2  0  0  0  0
  4  6  1  0  0  0  0
  5 10  1  0  0  0  0
  5 11  1  0  0  0  0
  7 12  1  0  0  0  0
  7 23  1  0  0  0  0
  7 24  1  0  0  0  0
  8 12  1  0  0  0  0
  8 25  1  0  0  0  0
  9 14  1  0  0  0  0
  9 15  1  0  0  0  0
 10 14  2  0  0  0  0
 10 26  1  0  0  0  0
 11 13  1  0  0  0  0
 11 27  1  0  0  0  0
 11 28  1  0  0  0  0
 12 18  1  0  0  0  0
 12 29  1  6  0  0  0
 13 16  1  0  0  0  0
 13 19  1  0  0  0  0
 14 30  1  0  0  0  0
 15 17  1  0  0  0  0
 16 31  1  0  0  0  0
 16 32  1  0  0  0  0
 16 33  1  0  0  0  0
 17 34  1  0  0  0  0
 17 35  1  0  0  0  0
 17 36  1  0  0  0  0
 18 37  1  0  0  0  0
 19 21  1  0  0  0  0
 19 38  1  0  0  0  0
 19 39  1  0  0  0  0
 20  8  2  3  0  0  0
 20 40  1  0  0  0  0
 21 41  1  0  0  0  0
 21 42  1  0  0  0  0
M  END
>  <Mol_ID>
1915

>  <Formula>
C17H21NO3

>  <MolWeight>
287.35354

>  <Cat>
S3866

>  <Name>
Galanthamine

>  <Synonyms>
Galantamine, Nivalin, Razadyne, Razadyne ER, Reminyl, Lycoremine

>  <Target>
AChR

>  <Form>
free base

>  <CAS>
357-70-0

>  <URL>
http://selleckchem.com/products/galanthamine.html

$$$$
