S3860 Allicin.cdx
 OpenBabel08302519563D

 19 18  0  0  0  0  0  0  0  0999 V2000
    0.9517    0.0480    0.0959 S   0  0  3  0  0  0  0  0  0  0  0  0
    0.1780   -0.1395   -1.7777 S   0  0  0  0  0  0  0  0  0  0  0  0
    0.3942   -1.4978    0.8900 C   0  0  0  0  0  0  0  0  0  0  0  0
    2.4115   -0.1005   -0.2318 O   0  0  0  0  0  0  0  0  0  0  0  0
   -1.6054   -0.1680   -1.4598 C   0  0  0  0  0  0  0  0  0  0  0  0
    0.8588   -1.6051    2.3127 C   0  0  0  0  0  0  0  0  0  0  0  0
   -2.3618   -0.3122   -2.7445 C   0  0  0  0  0  0  0  0  0  0  0  0
    0.0356   -1.7086    3.3650 C   0  0  0  0  0  0  0  0  0  0  0  0
   -3.1708   -1.3396   -3.0344 C   0  0  0  0  0  0  0  0  0  0  0  0
   -0.6963   -1.5131    0.8629 H   0  0  0  0  0  0  0  0  0  0  0  0
    0.7731   -2.3431    0.3076 H   0  0  0  0  0  0  0  0  0  0  0  0
   -1.8501   -0.9995   -0.7965 H   0  0  0  0  0  0  0  0  0  0  0  0
   -1.9030    0.7611   -0.9635 H   0  0  0  0  0  0  0  0  0  0  0  0
    1.9342   -1.6413    2.4740 H   0  0  0  0  0  0  0  0  0  0  0  0
   -2.2575    0.4947   -3.4710 H   0  0  0  0  0  0  0  0  0  0  0  0
    0.4306   -1.8182    4.3691 H   0  0  0  0  0  0  0  0  0  0  0  0
   -1.0464   -1.6974    3.2563 H   0  0  0  0  0  0  0  0  0  0  0  0
   -3.7057   -1.3761   -3.9783 H   0  0  0  0  0  0  0  0  0  0  0  0
   -3.3193   -2.1688   -2.3475 H   0  0  0  0  0  0  0  0  0  0  0  0
  1  2  1  0  0  0  0
  1  3  1  0  0  0  0
  1  4  2  0  0  0  0
  2  5  1  0  0  0  0
  3  6  1  0  0  0  0
  3 10  1  0  0  0  0
  3 11  1  0  0  0  0
  5  7  1  0  0  0  0
  5 12  1  0  0  0  0
  5 13  1  0  0  0  0
  6  8  2  0  0  0  0
  6 14  1  0  0  0  0
  7  9  2  0  0  0  0
  7 15  1  0  0  0  0
  8 16  1  0  0  0  0
  8 17  1  0  0  0  0
  9 18  1  0  0  0  0
  9 19  1  0  0  0  0
M  END
>  <Mol_ID>
2232

>  <Formula>
C6H10OS2

>  <MolWeight>
162.273

>  <Cat>
S3860

>  <Name>
Allicin

>  <Synonyms>
diallyl thiosulfinate

>  <Target>
Fungal

>  <Form>
free base

>  <CAS>
539-86-6

>  <URL>
http://selleckchem.com/products/allicin.html

$$$$
