S3878 Bavachinin.cdx
 OpenBabel08302519513D

 47 49  0  0  0  0  0  0  0  0999 V2000
    0.3069    0.8482   -0.1862 C   0  0  0  0  0  0  0  0  0  0  0  0
    0.0106   -0.4978   -0.2790 C   0  0  0  0  0  0  0  0  0  0  0  0
   -0.6329    1.8416   -0.1136 O   0  0  0  0  0  0  0  0  0  0  0  0
    1.6351    1.2462   -0.0979 C   0  0  0  0  0  0  0  0  0  0  0  0
    1.0431   -1.4403   -0.2830 C   0  0  0  0  0  0  0  0  0  0  0  0
   -1.4022   -0.9057   -0.3553 C   0  0  0  0  0  0  0  0  0  0  0  0
   -1.9018    1.4081    0.4150 C   0  0  1  0  0  0  0  0  0  0  0  0
    2.6916    0.3157   -0.0353 C   0  0  0  0  0  0  0  0  0  0  0  0
    2.4039   -1.0595   -0.1366 C   0  0  0  0  0  0  0  0  0  0  0  0
   -2.4171    0.2037   -0.3759 C   0  0  0  0  0  0  0  0  0  0  0  0
   -1.7144   -2.0868   -0.4667 O   0  0  0  0  0  0  0  0  0  0  0  0
   -1.9091    1.2631    1.9402 C   0  0  0  0  0  0  0  0  0  0  0  0
    3.8611    0.9891    0.1492 O   0  0  0  0  0  0  0  0  0  0  0  0
    3.3824   -2.2167   -0.0761 C   0  0  0  0  0  0  0  0  0  0  0  0
   -0.7907    1.5800    2.7328 C   0  0  0  0  0  0  0  0  0  0  0  0
   -3.0818    0.8528    2.6025 C   0  0  0  0  0  0  0  0  0  0  0  0
    5.0887    0.3395    0.3869 C   0  0  0  0  0  0  0  0  0  0  0  0
    4.0044   -2.6037   -1.3878 C   0  0  0  0  0  0  0  0  0  0  0  0
   -0.8157    1.4354    4.1233 C   0  0  0  0  0  0  0  0  0  0  0  0
   -3.1119    0.7185    3.9924 C   0  0  0  0  0  0  0  0  0  0  0  0
    3.9616   -3.8159   -1.9956 C   0  0  0  0  0  0  0  0  0  0  0  0
   -1.9788    1.0017    4.7404 C   0  0  0  0  0  0  0  0  0  0  0  0
    4.8080   -4.1005   -3.2040 C   0  0  0  0  0  0  0  0  0  0  0  0
    3.1298   -4.9696   -1.5108 C   0  0  0  0  0  0  0  0  0  0  0  0
   -2.0509    0.8456    6.0925 O   0  0  0  0  0  0  0  0  0  0  0  0
    1.8576    2.3092   -0.0121 H   0  0  0  0  0  0  0  0  0  0  0  0
    0.7828   -2.4954   -0.3695 H   0  0  0  0  0  0  0  0  0  0  0  0
   -2.5854    2.2427    0.2087 H   0  0  0  0  0  0  0  0  0  0  0  0
   -2.5636    0.4773   -1.4283 H   0  0  0  0  0  0  0  0  0  0  0  0
   -3.3661   -0.1723    0.0164 H   0  0  0  0  0  0  0  0  0  0  0  0
    4.1761   -2.0114    0.6441 H   0  0  0  0  0  0  0  0  0  0  0  0
    2.8713   -3.0797    0.3737 H   0  0  0  0  0  0  0  0  0  0  0  0
    0.1267    1.9511    2.2846 H   0  0  0  0  0  0  0  0  0  0  0  0
   -3.9910    0.6388    2.0448 H   0  0  0  0  0  0  0  0  0  0  0  0
    5.0507   -0.2972    1.2720 H   0  0  0  0  0  0  0  0  0  0  0  0
    5.4235   -0.1910   -0.5053 H   0  0  0  0  0  0  0  0  0  0  0  0
    5.8318    1.1165    0.5963 H   0  0  0  0  0  0  0  0  0  0  0  0
    4.6299   -1.8387   -1.8391 H   0  0  0  0  0  0  0  0  0  0  0  0
    0.0737    1.6733    4.6960 H   0  0  0  0  0  0  0  0  0  0  0  0
   -4.0229    0.3945    4.4841 H   0  0  0  0  0  0  0  0  0  0  0  0
    5.5875   -4.8205   -2.9418 H   0  0  0  0  0  0  0  0  0  0  0  0
    4.2035   -4.5185   -4.0152 H   0  0  0  0  0  0  0  0  0  0  0  0
    5.3023   -3.2013   -3.5890 H   0  0  0  0  0  0  0  0  0  0  0  0
    3.4671   -5.3200   -0.5338 H   0  0  0  0  0  0  0  0  0  0  0  0
    2.0714   -4.6980   -1.4603 H   0  0  0  0  0  0  0  0  0  0  0  0
    3.2012   -5.8200   -2.2019 H   0  0  0  0  0  0  0  0  0  0  0  0
   -1.1823    1.0527    6.4739 H   0  0  0  0  0  0  0  0  0  0  0  0
  1  2  2  0  0  0  0
  1  3  1  0  0  0  0
  1  4  1  0  0  0  0
  2  5  1  0  0  0  0
  2  6  1  0  0  0  0
  3  7  1  0  0  0  0
  4  8  2  0  0  0  0
  4 26  1  0  0  0  0
  5  9  2  0  0  0  0
  5 27  1  0  0  0  0
  6 10  1  0  0  0  0
  6 11  2  0  0  0  0
  7 10  1  0  0  0  0
  7 28  1  6  0  0  0
  7 12  1  0  0  0  0
  8 13  1  0  0  0  0
  8  9  1  0  0  0  0
  9 14  1  0  0  0  0
 10 29  1  0  0  0  0
 10 30  1  0  0  0  0
 12 15  2  0  0  0  0
 12 16  1  0  0  0  0
 13 17  1  0  0  0  0
 14 18  1  0  0  0  0
 14 31  1  0  0  0  0
 14 32  1  0  0  0  0
 15 19  1  0  0  0  0
 15 33  1  0  0  0  0
 16 20  2  0  0  0  0
 16 34  1  0  0  0  0
 17 35  1  0  0  0  0
 17 36  1  0  0  0  0
 17 37  1  0  0  0  0
 18 21  2  0  0  0  0
 18 38  1  0  0  0  0
 19 22  2  0  0  0  0
 19 39  1  0  0  0  0
 20 22  1  0  0  0  0
 20 40  1  0  0  0  0
 21 23  1  0  0  0  0
 21 24  1  0  0  0  0
 22 25  1  0  0  0  0
 23 41  1  0  0  0  0
 23 42  1  0  0  0  0
 23 43  1  0  0  0  0
 24 44  1  0  0  0  0
 24 45  1  0  0  0  0
 24 46  1  0  0  0  0
 25 47  1  0  0  0  0
M  END
>  <Mol_ID>
1838

>  <Formula>
C21H22O4

>  <MolWeight>
338.39698

>  <Cat>
S3878

>  <Name>
Bavachinin

>  <Synonyms>
7-O-Methylbavachin

>  <Target>
PPAR

>  <Form>
free base

>  <CAS>
19879-30-2

>  <URL>
http://selleckchem.com/products/bavachinin.html

$$$$
