S3872 Guaiacol.cdx
 OpenBabel08302519513D

 17 17  0  0  0  0  0  0  0  0999 V2000
    0.9154   -0.1491    0.0217 C   0  0  0  0  0  0  0  0  0  0  0  0
    0.1243   -1.2993   -0.0108 C   0  0  0  0  0  0  0  0  0  0  0  0
    0.2637    1.0981    0.0276 C   0  0  0  0  0  0  0  0  0  0  0  0
    2.2729    0.0062    0.0303 O   0  0  0  0  0  0  0  0  0  0  0  0
   -1.2734   -1.1953   -0.0242 C   0  0  0  0  0  0  0  0  0  0  0  0
    0.5632   -2.5924   -0.0402 O   0  0  0  0  0  0  0  0  0  0  0  0
   -1.1280    1.2015    0.0121 C   0  0  0  0  0  0  0  0  0  0  0  0
    3.1428   -1.1060    0.0159 C   0  0  0  0  0  0  0  0  0  0  0  0
   -1.9008    0.0487   -0.0098 C   0  0  0  0  0  0  0  0  0  0  0  0
    0.8581    2.0097    0.0411 H   0  0  0  0  0  0  0  0  0  0  0  0
   -1.8778   -2.0992   -0.0431 H   0  0  0  0  0  0  0  0  0  0  0  0
    1.4821   -2.6392    0.2384 H   0  0  0  0  0  0  0  0  0  0  0  0
   -1.6015    2.1793    0.0176 H   0  0  0  0  0  0  0  0  0  0  0  0
    3.0689   -1.6680    0.9515 H   0  0  0  0  0  0  0  0  0  0  0  0
    2.9731   -1.7371   -0.8616 H   0  0  0  0  0  0  0  0  0  0  0  0
    4.1675   -0.7273   -0.0512 H   0  0  0  0  0  0  0  0  0  0  0  0
   -2.9849    0.1127   -0.0189 H   0  0  0  0  0  0  0  0  0  0  0  0
  1  2  2  0  0  0  0
  1  3  1  0  0  0  0
  1  4  1  0  0  0  0
  2  5  1  0  0  0  0
  2  6  1  0  0  0  0
  3  7  2  0  0  0  0
  3 10  1  0  0  0  0
  4  8  1  0  0  0  0
  5  9  2  0  0  0  0
  5 11  1  0  0  0  0
  6 12  1  0  0  0  0
  7  9  1  0  0  0  0
  7 13  1  0  0  0  0
  8 14  1  0  0  0  0
  8 15  1  0  0  0  0
  8 16  1  0  0  0  0
  9 17  1  0  0  0  0
M  END
>  <Mol_ID>
1901

>  <Formula>
C7H8O2

>  <MolWeight>
124.13722

>  <Cat>
S3872

>  <Name>
Guaiacol

>  <Synonyms>
o-methoxyphenol, 2-hydroxyanisole, O-methylcatechol

>  <Target>
COX,NF-¦ÊB

>  <Form>
free base

>  <CAS>
90-05-1

>  <URL>
http://selleckchem.com/products/guaiacol.html

$$$$
