S3870 D-Pinitol.cdx
 OpenBabel08302519513D

 27 27  0  0  0  0  0  0  0  0999 V2000
    0.7687    1.1845   -0.1682 C   0  0  1  0  0  0  0  0  0  0  0  0
    1.4768   -0.1146    0.2619 C   0  0  1  0  0  0  0  0  0  0  0  0
   -0.7383    1.1784    0.1550 C   0  0  2  0  0  0  0  0  0  0  0  0
    1.4071    2.3850    0.3171 O   0  0  0  0  0  0  0  0  0  0  0  0
    0.7428   -1.3695   -0.2380 C   0  0  2  0  0  0  0  0  0  0  0  0
    2.8330   -0.1744   -0.2318 O   0  0  0  0  0  0  0  0  0  0  0  0
   -1.4208   -0.0845   -0.3892 C   0  0  2  0  0  0  0  0  0  0  0  0
   -1.3499    2.3237   -0.4661 O   0  0  0  0  0  0  0  0  0  0  0  0
    1.5190    2.5186    1.7279 C   0  0  0  0  0  0  0  0  0  0  0  0
   -0.7417   -1.3480    0.1424 C   0  0  2  0  0  0  0  0  0  0  0  0
    1.3559   -2.5242    0.3659 O   0  0  0  0  0  0  0  0  0  0  0  0
   -1.3570   -0.0637   -1.8214 O   0  0  0  0  0  0  0  0  0  0  0  0
   -0.8571   -1.4011    1.5710 O   0  0  0  0  0  0  0  0  0  0  0  0
    0.8754    1.2781   -1.2577 H   0  0  0  0  0  0  0  0  0  0  0  0
    1.5691   -0.1683    1.3513 H   0  0  0  0  0  0  0  0  0  0  0  0
   -0.9179    1.2623    1.2314 H   0  0  0  0  0  0  0  0  0  0  0  0
    0.8658   -1.4767   -1.3225 H   0  0  0  0  0  0  0  0  0  0  0  0
    2.8966    0.4182   -1.0033 H   0  0  0  0  0  0  0  0  0  0  0  0
   -2.4800   -0.0716   -0.1104 H   0  0  0  0  0  0  0  0  0  0  0  0
   -0.7856    3.0874   -0.2315 H   0  0  0  0  0  0  0  0  0  0  0  0
    0.5397    2.5226    2.2106 H   0  0  0  0  0  0  0  0  0  0  0  0
    2.1547    1.7391    2.1543 H   0  0  0  0  0  0  0  0  0  0  0  0
    1.9937    3.4818    1.9361 H   0  0  0  0  0  0  0  0  0  0  0  0
   -1.2311   -2.2437   -0.2567 H   0  0  0  0  0  0  0  0  0  0  0  0
    2.3177   -2.4007    0.2287 H   0  0  0  0  0  0  0  0  0  0  0  0
   -1.6805    0.8283   -2.0718 H   0  0  0  0  0  0  0  0  0  0  0  0
   -0.3115   -2.1729    1.8335 H   0  0  0  0  0  0  0  0  0  0  0  0
  1  2  1  0  0  0  0
  1  3  1  0  0  0  0
  1  4  1  0  0  0  0
  1 14  1  6  0  0  0
  2  5  1  0  0  0  0
  2  6  1  0  0  0  0
  2 15  1  1  0  0  0
  3  7  1  0  0  0  0
  3 16  1  1  0  0  0
  3  8  1  0  0  0  0
  4  9  1  0  0  0  0
  5 10  1  0  0  0  0
  5 17  1  6  0  0  0
  5 11  1  0  0  0  0
  6 18  1  0  0  0  0
  7 12  1  0  0  0  0
  7 10  1  0  0  0  0
  7 19  1  1  0  0  0
  8 20  1  0  0  0  0
  9 21  1  0  0  0  0
  9 22  1  0  0  0  0
  9 23  1  0  0  0  0
 10 24  1  6  0  0  0
 10 13  1  0  0  0  0
 11 25  1  0  0  0  0
 12 26  1  0  0  0  0
 13 27  1  0  0  0  0
M  END
>  <Mol_ID>
1918

>  <Formula>
C7H14O6

>  <MolWeight>
194.18246

>  <Cat>
S3870

>  <Name>
D-Pinitol

>  <Synonyms>
Methylinositol, Pinitol, 3-O-Methyl-D-chiro-inositol, D-(+)-Pinitol, Inzitol

>  <Target>
Influenza Virus

>  <Form>
free base

>  <CAS>
10284-63-6

>  <URL>
http://selleckchem.com/products/d-pinitol.html

$$$$
