S3874 Curcumenol.cdx
 OpenBabel08302519513D

 39 41  0  0  0  0  0  0  0  0999 V2000
    0.7449   -0.7584    0.5253 C   0  0  2  0  0  0  0  0  0  0  0  0
    0.3961   -0.4804   -0.9776 C   0  0  2  0  0  0  0  0  0  0  0  0
   -0.3928   -0.9878    1.3865 O   0  0  0  0  0  0  0  0  0  0  0  0
    1.2062    0.5798    1.0941 C   0  0  0  0  0  0  0  0  0  0  0  0
    1.6222   -2.0327    0.5266 C   0  0  2  0  0  0  0  0  0  0  0  0
   -1.1046   -0.6180   -1.1699 C   0  0  0  0  0  0  0  0  0  0  0  0
    1.5777   -1.1022   -1.7145 C   0  0  0  0  0  0  0  0  0  0  0  0
   -1.1895    0.1779    1.1793 C   0  0  1  0  0  0  0  0  0  0  0  0
   -0.1524    1.3124    1.2132 C   0  0  0  0  0  0  0  0  0  0  0  0
    1.9202   -2.3548   -0.9501 C   0  0  0  0  0  0  0  0  0  0  0  0
    0.9256   -3.2735    1.1134 C   0  0  0  0  0  0  0  0  0  0  0  0
   -1.8556   -0.1527   -0.1350 C   0  0  0  0  0  0  0  0  0  0  0  0
   -1.7036   -1.0574   -2.4610 C   0  0  0  0  0  0  0  0  0  0  0  0
   -2.1049    0.2685    2.2314 O   0  0  0  0  0  0  0  0  0  0  0  0
   -0.3928    2.5435    0.7115 C   0  0  0  0  0  0  0  0  0  0  0  0
   -1.1683    3.5206    1.5654 C   0  0  0  0  0  0  0  0  0  0  0  0
   -0.4444    2.8838   -0.7625 C   0  0  0  0  0  0  0  0  0  0  0  0
    0.5588    0.5716   -1.2415 H   0  0  0  0  0  0  0  0  0  0  0  0
    1.6222    0.4596    2.1019 H   0  0  0  0  0  0  0  0  0  0  0  0
    1.9362    1.1038    0.4711 H   0  0  0  0  0  0  0  0  0  0  0  0
    2.5530   -1.8473    1.0754 H   0  0  0  0  0  0  0  0  0  0  0  0
    1.4222   -1.2613   -2.7829 H   0  0  0  0  0  0  0  0  0  0  0  0
    2.4423   -0.4212   -1.6206 H   0  0  0  0  0  0  0  0  0  0  0  0
    2.9671   -2.6494   -1.0864 H   0  0  0  0  0  0  0  0  0  0  0  0
    1.2992   -3.1742   -1.3313 H   0  0  0  0  0  0  0  0  0  0  0  0
    0.6472   -3.1310    2.1614 H   0  0  0  0  0  0  0  0  0  0  0  0
    0.0106   -3.5118    0.5520 H   0  0  0  0  0  0  0  0  0  0  0  0
    1.5789   -4.1504    1.0529 H   0  0  0  0  0  0  0  0  0  0  0  0
   -2.9371   -0.1487   -0.1734 H   0  0  0  0  0  0  0  0  0  0  0  0
   -0.9933   -0.9840   -3.2886 H   0  0  0  0  0  0  0  0  0  0  0  0
   -2.0428   -2.0953   -2.3807 H   0  0  0  0  0  0  0  0  0  0  0  0
   -2.5689   -0.4351   -2.7160 H   0  0  0  0  0  0  0  0  0  0  0  0
   -1.6892   -0.3052    2.8980 H   0  0  0  0  0  0  0  0  0  0  0  0
   -0.9391    3.3856    2.6246 H   0  0  0  0  0  0  0  0  0  0  0  0
   -0.8612    4.5540    1.3137 H   0  0  0  0  0  0  0  0  0  0  0  0
   -2.2431    3.4317    1.4000 H   0  0  0  0  0  0  0  0  0  0  0  0
   -0.9264    3.8531   -0.9365 H   0  0  0  0  0  0  0  0  0  0  0  0
   -1.0477    2.1683   -1.3249 H   0  0  0  0  0  0  0  0  0  0  0  0
    0.5553    2.9304   -1.1998 H   0  0  0  0  0  0  0  0  0  0  0  0
  1  2  1  0  0  0  0
  1  3  1  1  0  0  0
  1  4  1  0  0  0  0
  1  5  1  0  0  0  0
  2  6  1  0  0  0  0
  2  7  1  0  0  0  0
  2 18  1  6  0  0  0
  4  9  1  0  0  0  0
  4 19  1  0  0  0  0
  4 20  1  0  0  0  0
  5 10  1  0  0  0  0
  5 11  1  0  0  0  0
  5 21  1  1  0  0  0
  6 12  2  0  0  0  0
  6 13  1  0  0  0  0
  7 10  1  0  0  0  0
  7 22  1  0  0  0  0
  7 23  1  0  0  0  0
  8  3  1  0  0  0  0
  8  9  1  0  0  0  0
  8 12  1  0  0  0  0
  8 14  1  1  0  0  0
  9 15  2  0  0  0  0
 10 24  1  0  0  0  0
 10 25  1  0  0  0  0
 11 26  1  0  0  0  0
 11 27  1  0  0  0  0
 11 28  1  0  0  0  0
 12 29  1  0  0  0  0
 13 30  1  0  0  0  0
 13 31  1  0  0  0  0
 13 32  1  0  0  0  0
 14 33  1  0  0  0  0
 15 16  1  0  0  0  0
 15 17  1  0  0  0  0
 16 34  1  0  0  0  0
 16 35  1  0  0  0  0
 16 36  1  0  0  0  0
 17 37  1  0  0  0  0
 17 38  1  0  0  0  0
 17 39  1  0  0  0  0
M  END
>  <Mol_ID>
1835

>  <Formula>
C15H22O2

>  <MolWeight>
234.33398

>  <Cat>
S3874

>  <Name>
Curcumenol

>  <Synonyms>
N/A

>  <Target>
NF-¦ÊB,P450 (e.g. CYP17)

>  <Form>
free base

>  <CAS>
19431-84-6

>  <URL>
http://selleckchem.com/products/curcumenol.html

$$$$
