S3879 kaempferide.cdx
 OpenBabel08302519523D

 34 36  0  0  0  0  0  0  0  0999 V2000
   -0.3090    1.0017   -0.0139 C   0  0  0  0  0  0  0  0  0  0  0  0
    0.0645   -0.3437   -0.0072 C   0  0  0  0  0  0  0  0  0  0  0  0
    0.5910    2.0339   -0.0274 O   0  0  0  0  0  0  0  0  0  0  0  0
   -1.6590    1.3661   -0.0123 C   0  0  0  0  0  0  0  0  0  0  0  0
    1.5140   -0.6612    0.0110 C   0  0  0  0  0  0  0  0  0  0  0  0
   -0.9394   -1.3258   -0.0143 C   0  0  0  0  0  0  0  0  0  0  0  0
    1.9397    1.7387   -0.0611 C   0  0  0  0  0  0  0  0  0  0  0  0
   -2.6369    0.3795   -0.0168 C   0  0  0  0  0  0  0  0  0  0  0  0
    2.4570    0.4973   -0.0364 C   0  0  0  0  0  0  0  0  0  0  0  0
    1.9413   -1.8087    0.0690 O   0  0  0  0  0  0  0  0  0  0  0  0
   -2.2918   -0.9669   -0.0193 C   0  0  0  0  0  0  0  0  0  0  0  0
   -0.6186   -2.6535   -0.0245 O   0  0  0  0  0  0  0  0  0  0  0  0
    2.7720    2.9483   -0.1309 C   0  0  0  0  0  0  0  0  0  0  0  0
   -3.9397    0.7803   -0.0223 O   0  0  0  0  0  0  0  0  0  0  0  0
    3.8147    0.2178   -0.0497 O   0  0  0  0  0  0  0  0  0  0  0  0
    3.1694    3.4647   -1.3701 C   0  0  0  0  0  0  0  0  0  0  0  0
    3.1499    3.6135    1.0384 C   0  0  0  0  0  0  0  0  0  0  0  0
    3.9044    4.6549   -1.4420 C   0  0  0  0  0  0  0  0  0  0  0  0
    3.8845    4.8000    0.9620 C   0  0  0  0  0  0  0  0  0  0  0  0
    4.2552    5.3340   -0.2752 C   0  0  0  0  0  0  0  0  0  0  0  0
    4.9486    6.5102   -0.2043 O   0  0  0  0  0  0  0  0  0  0  0  0
    5.3054    7.1270   -1.4352 C   0  0  0  0  0  0  0  0  0  0  0  0
   -1.9447    2.4136   -0.0108 H   0  0  0  0  0  0  0  0  0  0  0  0
   -3.0624   -1.7302   -0.0266 H   0  0  0  0  0  0  0  0  0  0  0  0
   -1.4142   -3.2065   -0.0088 H   0  0  0  0  0  0  0  0  0  0  0  0
   -4.5184   -0.0007   -0.0424 H   0  0  0  0  0  0  0  0  0  0  0  0
    4.3148    1.0482   -0.0035 H   0  0  0  0  0  0  0  0  0  0  0  0
    2.8940    2.9558   -2.2921 H   0  0  0  0  0  0  0  0  0  0  0  0
    2.8620    3.2277    2.0140 H   0  0  0  0  0  0  0  0  0  0  0  0
    4.1755    5.0284   -2.4242 H   0  0  0  0  0  0  0  0  0  0  0  0
    4.1575    5.3233    1.8757 H   0  0  0  0  0  0  0  0  0  0  0  0
    5.9347    6.4685   -2.0425 H   0  0  0  0  0  0  0  0  0  0  0  0
    4.4152    7.4449   -1.9883 H   0  0  0  0  0  0  0  0  0  0  0  0
    5.8925    8.0211   -1.2031 H   0  0  0  0  0  0  0  0  0  0  0  0
  1  2  2  0  0  0  0
  1  3  1  0  0  0  0
  1  4  1  0  0  0  0
  2  5  1  0  0  0  0
  2  6  1  0  0  0  0
  3  7  1  0  0  0  0
  4  8  2  0  0  0  0
  4 23  1  0  0  0  0
  5  9  1  0  0  0  0
  5 10  2  0  0  0  0
  6 11  2  0  0  0  0
  6 12  1  0  0  0  0
  7 13  1  0  0  0  0
  7  9  2  0  0  0  0
  8 14  1  0  0  0  0
  8 11  1  0  0  0  0
  9 15  1  0  0  0  0
 11 24  1  0  0  0  0
 12 25  1  0  0  0  0
 13 16  2  0  0  0  0
 13 17  1  0  0  0  0
 14 26  1  0  0  0  0
 15 27  1  0  0  0  0
 16 18  1  0  0  0  0
 16 28  1  0  0  0  0
 17 19  2  0  0  0  0
 17 29  1  0  0  0  0
 18 20  2  0  0  0  0
 18 30  1  0  0  0  0
 19 20  1  0  0  0  0
 19 31  1  0  0  0  0
 20 21  1  0  0  0  0
 21 22  1  0  0  0  0
 22 32  1  0  0  0  0
 22 33  1  0  0  0  0
 22 34  1  0  0  0  0
M  END
>  <Mol_ID>
2010

>  <Formula>
C16H12O6

>  <MolWeight>
300.26288

>  <Cat>
S3879

>  <Name>
Kaempferide

>  <Synonyms>
4'-Methylkaempferol, 4'-O-Methylkaempferol, Kaempferol 4'-methyl ether

>  <Target>
EGFR

>  <Form>
free base

>  <CAS>
491-54-3

>  <URL>
http://selleckchem.com/products/kaempferide.html

$$$$
