S3873 Methyl 4-hydroxycinnamate.cdx
 OpenBabel08302519513D

 23 23  0  0  0  0  0  0  0  0999 V2000
   -1.9036    0.1165    0.0088 C   0  0  0  0  0  0  0  0  0  0  0  0
   -1.2544   -1.1274   -0.0036 C   0  0  0  0  0  0  0  0  0  0  0  0
   -1.1224    1.2806    0.0084 C   0  0  0  0  0  0  0  0  0  0  0  0
   -3.3740    0.1428   -0.0468 C   0  0  0  0  0  0  0  0  0  0  0  0
    0.1417   -1.2111    0.0061 C   0  0  0  0  0  0  0  0  0  0  0  0
    0.2738    1.1990    0.0189 C   0  0  0  0  0  0  0  0  0  0  0  0
   -4.1486    1.1016    0.4859 C   0  0  0  0  0  0  0  0  0  0  0  0
    0.8943   -0.0434    0.0181 C   0  0  0  0  0  0  0  0  0  0  0  0
   -5.6276    1.0989    0.4258 C   0  0  0  0  0  0  0  0  0  0  0  0
    2.2567   -0.0746    0.0220 O   0  0  0  0  0  0  0  0  0  0  0  0
   -6.1017    0.0096   -0.2257 O   0  0  0  0  0  0  0  0  0  0  0  0
   -6.3010    1.9912    0.9197 O   0  0  0  0  0  0  0  0  0  0  0  0
   -7.5258   -0.0528   -0.3139 C   0  0  0  0  0  0  0  0  0  0  0  0
   -1.8328   -2.0492   -0.0166 H   0  0  0  0  0  0  0  0  0  0  0  0
   -1.5822    2.2649   -0.0147 H   0  0  0  0  0  0  0  0  0  0  0  0
   -3.8279   -0.7073   -0.5527 H   0  0  0  0  0  0  0  0  0  0  0  0
    0.6151   -2.1878    0.0015 H   0  0  0  0  0  0  0  0  0  0  0  0
    0.8741    2.1046    0.0190 H   0  0  0  0  0  0  0  0  0  0  0  0
   -3.7360    1.9518    1.0168 H   0  0  0  0  0  0  0  0  0  0  0  0
    2.5474   -1.0012    0.0065 H   0  0  0  0  0  0  0  0  0  0  0  0
   -7.9715   -0.1030    0.6844 H   0  0  0  0  0  0  0  0  0  0  0  0
   -7.9153    0.8042   -0.8721 H   0  0  0  0  0  0  0  0  0  0  0  0
   -7.7889   -0.9660   -0.8555 H   0  0  0  0  0  0  0  0  0  0  0  0
  1  2  2  0  0  0  0
  1  3  1  0  0  0  0
  1  4  1  0  0  0  0
  2  5  1  0  0  0  0
  2 14  1  0  0  0  0
  3  6  2  0  0  0  0
  3 15  1  0  0  0  0
  4  7  2  0  0  0  0
  4 16  1  0  0  0  0
  5  8  2  0  0  0  0
  5 17  1  0  0  0  0
  6  8  1  0  0  0  0
  6 18  1  0  0  0  0
  7  9  1  0  0  0  0
  7 19  1  0  0  0  0
  8 10  1  0  0  0  0
  9 11  1  0  0  0  0
  9 12  2  0  0  0  0
 10 20  1  0  0  0  0
 11 13  1  0  0  0  0
 13 21  1  0  0  0  0
 13 22  1  0  0  0  0
 13 23  1  0  0  0  0
M  END
>  <Mol_ID>
1834

>  <Formula>
C10H10O3

>  <MolWeight>
178.1846

>  <Cat>
S3873

>  <Name>
Methyl 4-hydroxycinnamate

>  <Synonyms>
OMpCA

>  <Target>
Others

>  <Form>
free base

>  <CAS>
19367-38-5

>  <URL>
http://selleckchem.com/products/methyl-4-hydroxycinnamate.html

$$$$
