S3877 Lysionotin.cdx
 OpenBabel08302519513D

 41 43  0  0  0  0  0  0  0  0999 V2000
   -0.3425    0.2766   -0.0385 C   0  0  0  0  0  0  0  0  0  0  0  0
    0.1067   -1.0429    0.0157 C   0  0  0  0  0  0  0  0  0  0  0  0
   -0.7641   -2.1161    0.0035 O   0  0  0  0  0  0  0  0  0  0  0  0
   -2.1155   -1.8749   -0.0698 C   0  0  0  0  0  0  0  0  0  0  0  0
   -2.6748   -0.6621   -0.1110 C   0  0  0  0  0  0  0  0  0  0  0  0
   -1.8057    0.5253   -0.0856 C   0  0  0  0  0  0  0  0  0  0  0  0
    1.9856    1.0454    0.0088 C   0  0  0  0  0  0  0  0  0  0  0  0
    2.4239   -0.2861    0.0888 C   0  0  0  0  0  0  0  0  0  0  0  0
    1.4875   -1.3412    0.0868 C   0  0  0  0  0  0  0  0  0  0  0  0
    0.5993    1.3047   -0.0470 C   0  0  0  0  0  0  0  0  0  0  0  0
   -2.3243    1.6319   -0.1038 O   0  0  0  0  0  0  0  0  0  0  0  0
    0.2046    2.6186   -0.1095 O   0  0  0  0  0  0  0  0  0  0  0  0
    3.7553   -0.5775    0.1897 O   0  0  0  0  0  0  0  0  0  0  0  0
   -2.9455   -3.0829   -0.0947 C   0  0  0  0  0  0  0  0  0  0  0  0
   -3.3412   -3.6487   -1.3124 C   0  0  0  0  0  0  0  0  0  0  0  0
   -4.1242   -4.8102   -1.3375 C   0  0  0  0  0  0  0  0  0  0  0  0
   -4.5224   -5.4132   -0.1438 C   0  0  0  0  0  0  0  0  0  0  0  0
   -4.1376   -4.8401    1.0712 C   0  0  0  0  0  0  0  0  0  0  0  0
   -3.3537   -3.6831    1.0995 C   0  0  0  0  0  0  0  0  0  0  0  0
    1.7479   -2.6889    0.1291 O   0  0  0  0  0  0  0  0  0  0  0  0
    3.0846   -3.1591    0.1521 C   0  0  0  0  0  0  0  0  0  0  0  0
    2.7178    2.2061   -0.0202 O   0  0  0  0  0  0  0  0  0  0  0  0
    4.1311    2.1985    0.0693 C   0  0  0  0  0  0  0  0  0  0  0  0
   -5.2797   -6.5457   -0.0263 O   0  0  0  0  0  0  0  0  0  0  0  0
   -5.6477   -7.2038   -1.2320 C   0  0  0  0  0  0  0  0  0  0  0  0
   -3.7424   -0.4925   -0.1580 H   0  0  0  0  0  0  0  0  0  0  0  0
    1.0176    3.1559   -0.0554 H   0  0  0  0  0  0  0  0  0  0  0  0
    4.1965   -0.1739   -0.5750 H   0  0  0  0  0  0  0  0  0  0  0  0
   -3.0370   -3.1936   -2.2526 H   0  0  0  0  0  0  0  0  0  0  0  0
   -4.4018   -5.2167   -2.3038 H   0  0  0  0  0  0  0  0  0  0  0  0
   -4.4469   -5.3027    2.0054 H   0  0  0  0  0  0  0  0  0  0  0  0
   -3.0618   -3.2607    2.0581 H   0  0  0  0  0  0  0  0  0  0  0  0
    3.6327   -2.8499   -0.7434 H   0  0  0  0  0  0  0  0  0  0  0  0
    3.5938   -2.8624    1.0734 H   0  0  0  0  0  0  0  0  0  0  0  0
    3.0481   -4.2538    0.1418 H   0  0  0  0  0  0  0  0  0  0  0  0
    4.4809    1.7038    0.9784 H   0  0  0  0  0  0  0  0  0  0  0  0
    4.5756    1.7709   -0.8341 H   0  0  0  0  0  0  0  0  0  0  0  0
    4.4606    3.2423    0.1143 H   0  0  0  0  0  0  0  0  0  0  0  0
   -6.2623   -6.5564   -1.8658 H   0  0  0  0  0  0  0  0  0  0  0  0
   -4.7642   -7.5624   -1.7706 H   0  0  0  0  0  0  0  0  0  0  0  0
   -6.2525   -8.0761   -0.9653 H   0  0  0  0  0  0  0  0  0  0  0  0
  1  2  2  0  0  0  0
  1  6  1  0  0  0  0
  1 10  1  0  0  0  0
  2  3  1  0  0  0  0
  3  4  1  0  0  0  0
  4 14  1  0  0  0  0
  4  5  2  0  0  0  0
  5  6  1  0  0  0  0
  5 26  1  0  0  0  0
  6 11  2  0  0  0  0
  7  8  1  0  0  0  0
  7 22  1  0  0  0  0
  8  9  2  0  0  0  0
  8 13  1  0  0  0  0
  9  2  1  0  0  0  0
  9 20  1  0  0  0  0
 10  7  2  0  0  0  0
 10 12  1  0  0  0  0
 12 27  1  0  0  0  0
 13 28  1  0  0  0  0
 14 15  2  0  0  0  0
 15 16  1  0  0  0  0
 15 29  1  0  0  0  0
 16 17  2  0  0  0  0
 16 30  1  0  0  0  0
 17 18  1  0  0  0  0
 17 24  1  0  0  0  0
 18 19  2  0  0  0  0
 18 31  1  0  0  0  0
 19 14  1  0  0  0  0
 19 32  1  0  0  0  0
 20 21  1  0  0  0  0
 21 33  1  0  0  0  0
 21 34  1  0  0  0  0
 21 35  1  0  0  0  0
 22 23  1  0  0  0  0
 23 36  1  0  0  0  0
 23 37  1  0  0  0  0
 23 38  1  0  0  0  0
 24 25  1  0  0  0  0
 25 39  1  0  0  0  0
 25 40  1  0  0  0  0
 25 41  1  0  0  0  0
M  END
>  <Mol_ID>
1837

>  <Formula>
C18H16O7

>  <MolWeight>
344.31544

>  <Cat>
S3877

>  <Name>
Lysionotin

>  <Synonyms>
N/A

>  <Target>
Immunology & Inflammation related

>  <Form>
free base

>  <CAS>
152743-19-6

>  <URL>
http://selleckchem.com/products/lysionotin.html

$$$$
