S3888 3,4`,5-Trimethoxy-trans-stilbene.cdx
 OpenBabel08302519513D

 38 39  0  0  0  0  0  0  0  0999 V2000
    1.3632   -0.1677    0.0688 C   0  0  0  0  0  0  0  0  0  0  0  0
    0.6134   -1.1104   -0.6490 C   0  0  0  0  0  0  0  0  0  0  0  0
    0.7048    0.8900    0.7001 C   0  0  0  0  0  0  0  0  0  0  0  0
    2.8097   -0.3918    0.1964 C   0  0  0  0  0  0  0  0  0  0  0  0
   -0.7744   -0.9939   -0.7399 C   0  0  0  0  0  0  0  0  0  0  0  0
   -0.6868    1.0089    0.6274 C   0  0  0  0  0  0  0  0  0  0  0  0
    3.7387    0.5717    0.2742 C   0  0  0  0  0  0  0  0  0  0  0  0
   -1.4161    0.0730   -0.1051 C   0  0  0  0  0  0  0  0  0  0  0  0
   -1.6093   -1.8565   -1.3961 O   0  0  0  0  0  0  0  0  0  0  0  0
   -1.2080    2.0604    1.3308 O   0  0  0  0  0  0  0  0  0  0  0  0
    5.1823    0.2930    0.3596 C   0  0  0  0  0  0  0  0  0  0  0  0
   -1.0045   -2.9726   -2.0405 C   0  0  0  0  0  0  0  0  0  0  0  0
   -2.6245    2.1828    1.3455 C   0  0  0  0  0  0  0  0  0  0  0  0
    5.7529   -0.8412   -0.2311 C   0  0  0  0  0  0  0  0  0  0  0  0
    6.0268    1.2121    0.9880 C   0  0  0  0  0  0  0  0  0  0  0  0
    7.1305   -1.0682   -0.1766 C   0  0  0  0  0  0  0  0  0  0  0  0
    7.4072    0.9876    1.0390 C   0  0  0  0  0  0  0  0  0  0  0  0
    7.9649   -0.1538    0.4595 C   0  0  0  0  0  0  0  0  0  0  0  0
    9.3229   -0.2623    0.5778 O   0  0  0  0  0  0  0  0  0  0  0  0
    9.9203   -1.4091   -0.0185 C   0  0  0  0  0  0  0  0  0  0  0  0
    1.1346   -1.9324   -1.1289 H   0  0  0  0  0  0  0  0  0  0  0  0
    1.2593    1.6196    1.2828 H   0  0  0  0  0  0  0  0  0  0  0  0
    3.0989   -1.4408    0.2182 H   0  0  0  0  0  0  0  0  0  0  0  0
    3.4609    1.6227    0.2636 H   0  0  0  0  0  0  0  0  0  0  0  0
   -2.4961    0.1348   -0.1929 H   0  0  0  0  0  0  0  0  0  0  0  0
   -0.3608   -2.6441   -2.8631 H   0  0  0  0  0  0  0  0  0  0  0  0
   -0.4503   -3.5925   -1.3274 H   0  0  0  0  0  0  0  0  0  0  0  0
   -1.8026   -3.5884   -2.4625 H   0  0  0  0  0  0  0  0  0  0  0  0
   -2.9858    2.5244    0.3704 H   0  0  0  0  0  0  0  0  0  0  0  0
   -3.1151    1.2507    1.6454 H   0  0  0  0  0  0  0  0  0  0  0  0
   -2.8872    2.9396    2.0898 H   0  0  0  0  0  0  0  0  0  0  0  0
    5.1366   -1.5679   -0.7574 H   0  0  0  0  0  0  0  0  0  0  0  0
    5.6234    2.1099    1.4515 H   0  0  0  0  0  0  0  0  0  0  0  0
    7.5125   -1.9663   -0.6489 H   0  0  0  0  0  0  0  0  0  0  0  0
    8.0528    1.7109    1.5325 H   0  0  0  0  0  0  0  0  0  0  0  0
    9.5162   -2.3342    0.4039 H   0  0  0  0  0  0  0  0  0  0  0  0
    9.8049   -1.3883   -1.1051 H   0  0  0  0  0  0  0  0  0  0  0  0
   10.9885   -1.3850    0.2051 H   0  0  0  0  0  0  0  0  0  0  0  0
  1  2  2  0  0  0  0
  1  3  1  0  0  0  0
  1  4  1  0  0  0  0
  2  5  1  0  0  0  0
  2 21  1  0  0  0  0
  3  6  2  0  0  0  0
  3 22  1  0  0  0  0
  4  7  2  0  0  0  0
  4 23  1  0  0  0  0
  5  8  2  0  0  0  0
  5  9  1  0  0  0  0
  6 10  1  0  0  0  0
  6  8  1  0  0  0  0
  7 11  1  0  0  0  0
  7 24  1  0  0  0  0
  8 25  1  0  0  0  0
  9 12  1  0  0  0  0
 10 13  1  0  0  0  0
 11 14  2  0  0  0  0
 11 15  1  0  0  0  0
 12 26  1  0  0  0  0
 12 27  1  0  0  0  0
 12 28  1  0  0  0  0
 13 29  1  0  0  0  0
 13 30  1  0  0  0  0
 13 31  1  0  0  0  0
 14 16  1  0  0  0  0
 14 32  1  0  0  0  0
 15 17  2  0  0  0  0
 15 33  1  0  0  0  0
 16 18  2  0  0  0  0
 16 34  1  0  0  0  0
 17 18  1  0  0  0  0
 17 35  1  0  0  0  0
 18 19  1  0  0  0  0
 19 20  1  0  0  0  0
 20 36  1  0  0  0  0
 20 37  1  0  0  0  0
 20 38  1  0  0  0  0
M  END
>  <Mol_ID>
1831

>  <Formula>
C17H18O3

>  <MolWeight>
270.32302

>  <Cat>
S3888

>  <Name>
3,4',5-Trimethoxy-trans-stilbene

>  <Synonyms>
MR-3

>  <Target>
p38 MAPK

>  <Form>
free base

>  <CAS>
22255-22-7

>  <URL>
http://selleckchem.com/products/3-4-5-trimethoxy-trans-stilbene.html

$$$$
