S3889 Arteether.cdx
 OpenBabel08302519513D

 50 53  0  0  0  0  0  0  0  0999 V2000
    0.1363   -0.1532    0.5937 C   0  0  2  0  0  0  0  0  0  0  0  0
   -0.3303    0.4617   -0.7630 C   0  0  2  0  0  0  0  0  0  0  0  0
    1.5397    0.3639    1.0060 C   0  0  2  0  0  0  0  0  0  0  0  0
    0.0281   -1.7113    0.6324 C   0  0  2  0  0  0  0  0  0  0  0  0
   -0.7267    0.2658    1.6925 O   0  0  0  0  0  0  0  0  0  0  0  0
   -0.2649    1.8818   -0.7910 O   0  0  0  0  0  0  0  0  0  0  0  0
   -1.6879    0.1146   -1.0715 O   0  0  0  0  0  0  0  0  0  0  0  0
    1.6658    1.8951    0.7327 C   0  0  2  0  0  0  0  0  0  0  0  0
    2.7344   -0.4707    0.5195 C   0  0  0  0  0  0  0  0  0  0  0  0
    1.1947   -2.3851   -0.1301 C   0  0  1  0  0  0  0  0  0  0  0  0
   -1.3484   -2.2517    0.1766 C   0  0  0  0  0  0  0  0  0  0  0  0
   -1.9253    0.8963    1.1555 O   0  0  0  0  0  0  0  0  0  0  0  0
    1.0290    2.4078   -0.5783 C   0  0  1  0  0  0  0  0  0  0  0  0
   -2.4662    0.0545    0.1298 C   0  0  2  0  0  0  0  0  0  0  0  0
    3.0857    2.4462    0.9086 C   0  0  0  0  0  0  0  0  0  0  0  0
    2.5131   -1.9807    0.5336 C   0  0  0  0  0  0  0  0  0  0  0  0
    1.0935   -3.9150   -0.1656 C   0  0  0  0  0  0  0  0  0  0  0  0
   -2.5637   -1.4109    0.5920 C   0  0  0  0  0  0  0  0  0  0  0  0
    1.8581    2.2567   -1.7357 O   0  0  0  0  0  0  0  0  0  0  0  0
   -3.8512    0.6196   -0.1682 C   0  0  0  0  0  0  0  0  0  0  0  0
    1.4660    3.1949   -2.7571 C   0  0  0  0  0  0  0  0  0  0  0  0
    2.4503    3.2085   -3.9167 C   0  0  0  0  0  0  0  0  0  0  0  0
    0.2821    0.0760   -1.5913 H   0  0  0  0  0  0  0  0  0  0  0  0
    1.5866    0.2745    2.1047 H   0  0  0  0  0  0  0  0  0  0  0  0
    0.1108   -2.0084    1.6877 H   0  0  0  0  0  0  0  0  0  0  0  0
    1.0584    2.3553    1.5287 H   0  0  0  0  0  0  0  0  0  0  0  0
    3.5844   -0.2740    1.1898 H   0  0  0  0  0  0  0  0  0  0  0  0
    3.0469   -0.1608   -0.4807 H   0  0  0  0  0  0  0  0  0  0  0  0
    1.2049   -2.0361   -1.1696 H   0  0  0  0  0  0  0  0  0  0  0  0
   -1.3577   -2.3621   -0.9158 H   0  0  0  0  0  0  0  0  0  0  0  0
   -1.4898   -3.2630    0.5788 H   0  0  0  0  0  0  0  0  0  0  0  0
    0.8837    3.4875   -0.4198 H   0  0  0  0  0  0  0  0  0  0  0  0
    3.0717    3.5414    0.8519 H   0  0  0  0  0  0  0  0  0  0  0  0
    3.4978    2.1660    1.8806 H   0  0  0  0  0  0  0  0  0  0  0  0
    3.7637    2.0893    0.1258 H   0  0  0  0  0  0  0  0  0  0  0  0
    2.5327   -2.3500    1.5680 H   0  0  0  0  0  0  0  0  0  0  0  0
    3.3570   -2.4638    0.0231 H   0  0  0  0  0  0  0  0  0  0  0  0
    0.2188   -4.2462   -0.7342 H   0  0  0  0  0  0  0  0  0  0  0  0
    1.9714   -4.3522   -0.6565 H   0  0  0  0  0  0  0  0  0  0  0  0
    1.0263   -4.3367    0.8427 H   0  0  0  0  0  0  0  0  0  0  0  0
   -3.4388   -1.8875    0.1334 H   0  0  0  0  0  0  0  0  0  0  0  0
   -2.7078   -1.4653    1.6778 H   0  0  0  0  0  0  0  0  0  0  0  0
   -3.7754    1.6661   -0.4876 H   0  0  0  0  0  0  0  0  0  0  0  0
   -4.3503    0.0707   -0.9729 H   0  0  0  0  0  0  0  0  0  0  0  0
   -4.4829    0.6040    0.7275 H   0  0  0  0  0  0  0  0  0  0  0  0
    0.4644    2.9443   -3.1237 H   0  0  0  0  0  0  0  0  0  0  0  0
    1.4350    4.2042   -2.3303 H   0  0  0  0  0  0  0  0  0  0  0  0
    3.3928    2.7120   -3.6739 H   0  0  0  0  0  0  0  0  0  0  0  0
    2.0139    2.7172   -4.7938 H   0  0  0  0  0  0  0  0  0  0  0  0
    2.6629    4.2414   -4.2227 H   0  0  0  0  0  0  0  0  0  0  0  0
  1  2  1  0  0  0  0
  1  3  1  0  0  0  0
  1  4  1  0  0  0  0
  1  5  1  1  0  0  0
  2  6  1  0  0  0  0
  2  7  1  0  0  0  0
  2 23  1  6  0  0  0
  3  8  1  0  0  0  0
  3  9  1  0  0  0  0
  3 24  1  1  0  0  0
  4 10  1  0  0  0  0
  4 11  1  0  0  0  0
  4 25  1  1  0  0  0
  5 12  1  0  0  0  0
  6 13  1  0  0  0  0
  7 14  1  0  0  0  0
  8 15  1  0  0  0  0
  8 13  1  0  0  0  0
  8 26  1  1  0  0  0
  9 16  1  0  0  0  0
  9 27  1  0  0  0  0
  9 28  1  0  0  0  0
 10 17  1  0  0  0  0
 10 16  1  0  0  0  0
 10 29  1  6  0  0  0
 11 18  1  0  0  0  0
 11 30  1  0  0  0  0
 11 31  1  0  0  0  0
 12 14  1  0  0  0  0
 13 19  1  0  0  0  0
 13 32  1  1  0  0  0
 14 20  1  6  0  0  0
 14 18  1  0  0  0  0
 15 33  1  0  0  0  0
 15 34  1  0  0  0  0
 15 35  1  0  0  0  0
 16 36  1  0  0  0  0
 16 37  1  0  0  0  0
 17 38  1  0  0  0  0
 17 39  1  0  0  0  0
 17 40  1  0  0  0  0
 18 41  1  0  0  0  0
 18 42  1  0  0  0  0
 19 21  1  0  0  0  0
 20 43  1  0  0  0  0
 20 44  1  0  0  0  0
 20 45  1  0  0  0  0
 21 22  1  0  0  0  0
 21 46  1  0  0  0  0
 21 47  1  0  0  0  0
 22 48  1  0  0  0  0
 22 49  1  0  0  0  0
 22 50  1  0  0  0  0
M  END
>  <Mol_ID>
1832

>  <Formula>
C17H28O5

>  <MolWeight>
312.40122

>  <Cat>
S3889

>  <Name>
Arteether

>  <Synonyms>
N/A

>  <Target>
Parasite

>  <Form>
free base

>  <CAS>
75887-54-6

>  <URL>
http://selleckchem.com/products/arteether.html

$$$$
