S3881 Scopoletin.cdx
 OpenBabel08302519513D

 22 23  0  0  0  0  0  0  0  0999 V2000
   -0.0593   -0.9964   -0.0039 C   0  0  0  0  0  0  0  0  0  0  0  0
   -0.0030    0.3901    0.0097 C   0  0  0  0  0  0  0  0  0  0  0  0
   -1.3131   -1.6124   -0.0105 C   0  0  0  0  0  0  0  0  0  0  0  0
    1.1819   -1.7522   -0.0067 C   0  0  0  0  0  0  0  0  0  0  0  0
   -1.1617    1.1568    0.0226 C   0  0  0  0  0  0  0  0  0  0  0  0
    1.2299    1.0686    0.0126 O   0  0  0  0  0  0  0  0  0  0  0  0
   -2.5077   -0.8632   -0.0022 C   0  0  0  0  0  0  0  0  0  0  0  0
    2.3482   -1.0993   -0.0021 C   0  0  0  0  0  0  0  0  0  0  0  0
   -2.4150    0.5342    0.0172 C   0  0  0  0  0  0  0  0  0  0  0  0
    2.4295    0.3739    0.0040 C   0  0  0  0  0  0  0  0  0  0  0  0
   -3.5975   -1.6862   -0.0063 O   0  0  0  0  0  0  0  0  0  0  0  0
   -3.4468    1.4253    0.0422 O   0  0  0  0  0  0  0  0  0  0  0  0
    3.5182    0.9377    0.0030 O   0  0  0  0  0  0  0  0  0  0  0  0
   -4.9152   -1.1772    0.0104 C   0  0  0  0  0  0  0  0  0  0  0  0
   -1.3794   -2.7000   -0.0192 H   0  0  0  0  0  0  0  0  0  0  0  0
    1.1436   -2.8363   -0.0093 H   0  0  0  0  0  0  0  0  0  0  0  0
   -1.0928    2.2421    0.0344 H   0  0  0  0  0  0  0  0  0  0  0  0
    3.2966   -1.6224   -0.0032 H   0  0  0  0  0  0  0  0  0  0  0  0
   -4.2857    0.9921   -0.1399 H   0  0  0  0  0  0  0  0  0  0  0  0
   -5.0994   -0.5767    0.9062 H   0  0  0  0  0  0  0  0  0  0  0  0
   -5.1324   -0.6270   -0.9102 H   0  0  0  0  0  0  0  0  0  0  0  0
   -5.6018   -2.0290    0.0429 H   0  0  0  0  0  0  0  0  0  0  0  0
  1  2  1  0  0  0  0
  1  3  2  0  0  0  0
  1  4  1  0  0  0  0
  2  5  2  0  0  0  0
  2  6  1  0  0  0  0
  3  7  1  0  0  0  0
  3 15  1  0  0  0  0
  4  8  2  0  0  0  0
  4 16  1  0  0  0  0
  5  9  1  0  0  0  0
  5 17  1  0  0  0  0
  6 10  1  0  0  0  0
  7 11  1  0  0  0  0
  7  9  2  0  0  0  0
  8 10  1  0  0  0  0
  8 18  1  0  0  0  0
  9 12  1  0  0  0  0
 10 13  2  0  0  0  0
 11 14  1  0  0  0  0
 12 19  1  0  0  0  0
 14 20  1  0  0  0  0
 14 21  1  0  0  0  0
 14 22  1  0  0  0  0
M  END
>  <Mol_ID>
1839

>  <Formula>
C10H8O4

>  <MolWeight>
192.16812

>  <Cat>
S3881

>  <Name>
Scopoletin

>  <Synonyms>
Esculetin 6-methyl ether, Gelseminic acid, 6-Methylesculetin, Chrysatropic acid

>  <Target>
Immunology & Inflammation related

>  <Form>
free base

>  <CAS>
92-61-5

>  <URL>
http://selleckchem.com/products/scopoletin.html

$$$$
