S3897 (-)-Arctigenin.cdx
 OpenBabel08302519513D

 51 53  0  0  0  0  0  0  0  0999 V2000
    0.1988    1.2540   -0.1435 C   0  0  1  0  0  0  0  0  0  0  0  0
    1.6122    0.7250    0.1450 C   0  0  1  0  0  0  0  0  0  0  0  0
    0.1111    1.9051   -1.5293 C   0  0  0  0  0  0  0  0  0  0  0  0
   -0.6177   -0.0147   -0.0629 C   0  0  0  0  0  0  0  0  0  0  0  0
    1.9062    0.7754    1.6569 C   0  0  0  0  0  0  0  0  0  0  0  0
    1.5379   -0.6965   -0.3831 C   0  0  0  0  0  0  0  0  0  0  0  0
   -1.2444    2.4816   -1.8647 C   0  0  0  0  0  0  0  0  0  0  0  0
    0.1836   -1.1083   -0.2052 O   0  0  0  0  0  0  0  0  0  0  0  0
   -1.8262   -0.0852    0.0967 O   0  0  0  0  0  0  0  0  0  0  0  0
    3.2744    0.2822    2.0715 C   0  0  0  0  0  0  0  0  0  0  0  0
   -2.1973    1.6842   -2.5261 C   0  0  0  0  0  0  0  0  0  0  0  0
   -1.5679    3.8048   -1.5325 C   0  0  0  0  0  0  0  0  0  0  0  0
    3.3850   -0.7611    3.0071 C   0  0  0  0  0  0  0  0  0  0  0  0
    4.4408    0.8901    1.6078 C   0  0  0  0  0  0  0  0  0  0  0  0
   -3.4489    2.2003   -2.8619 C   0  0  0  0  0  0  0  0  0  0  0  0
   -2.8166    4.3297   -1.8708 C   0  0  0  0  0  0  0  0  0  0  0  0
    4.6293   -1.1790    3.5127 C   0  0  0  0  0  0  0  0  0  0  0  0
    5.6837    0.4716    2.0882 C   0  0  0  0  0  0  0  0  0  0  0  0
   -3.7381    3.5275   -2.5321 C   0  0  0  0  0  0  0  0  0  0  0  0
   -4.4534    1.5250   -3.5076 O   0  0  0  0  0  0  0  0  0  0  0  0
    5.7940   -0.5469    3.0479 C   0  0  0  0  0  0  0  0  0  0  0  0
    4.7535   -2.1672    4.4520 O   0  0  0  0  0  0  0  0  0  0  0  0
   -4.9514    4.0686   -2.8619 O   0  0  0  0  0  0  0  0  0  0  0  0
   -4.1960    0.1598   -3.8202 C   0  0  0  0  0  0  0  0  0  0  0  0
    7.0979   -0.7742    3.4078 O   0  0  0  0  0  0  0  0  0  0  0  0
    3.5749   -2.7890    4.9458 C   0  0  0  0  0  0  0  0  0  0  0  0
    7.3755   -1.7206    4.4289 C   0  0  0  0  0  0  0  0  0  0  0  0
   -0.1326    1.9473    0.6380 H   0  0  0  0  0  0  0  0  0  0  0  0
    2.3836    1.2931   -0.3876 H   0  0  0  0  0  0  0  0  0  0  0  0
    0.8499    2.7155   -1.5909 H   0  0  0  0  0  0  0  0  0  0  0  0
    0.3928    1.1925   -2.3142 H   0  0  0  0  0  0  0  0  0  0  0  0
    1.8214    1.8142    2.0054 H   0  0  0  0  0  0  0  0  0  0  0  0
    1.1331    0.2175    2.2029 H   0  0  0  0  0  0  0  0  0  0  0  0
    1.7687   -0.7456   -1.4531 H   0  0  0  0  0  0  0  0  0  0  0  0
    2.1946   -1.3980    0.1378 H   0  0  0  0  0  0  0  0  0  0  0  0
   -1.9393    0.6563   -2.7580 H   0  0  0  0  0  0  0  0  0  0  0  0
   -0.8522    4.4406   -1.0179 H   0  0  0  0  0  0  0  0  0  0  0  0
    2.4665   -1.2294    3.3477 H   0  0  0  0  0  0  0  0  0  0  0  0
    4.4032    1.7079    0.8931 H   0  0  0  0  0  0  0  0  0  0  0  0
   -3.0713    5.3562   -1.6244 H   0  0  0  0  0  0  0  0  0  0  0  0
    6.5865    0.9614    1.7283 H   0  0  0  0  0  0  0  0  0  0  0  0
   -5.4336    3.3422   -3.3035 H   0  0  0  0  0  0  0  0  0  0  0  0
   -3.3547    0.0681   -4.5156 H   0  0  0  0  0  0  0  0  0  0  0  0
   -4.0266   -0.4303   -2.9132 H   0  0  0  0  0  0  0  0  0  0  0  0
   -5.0826   -0.2427   -4.3191 H   0  0  0  0  0  0  0  0  0  0  0  0
    2.8822   -2.0589    5.3770 H   0  0  0  0  0  0  0  0  0  0  0  0
    3.0931   -3.3810    4.1609 H   0  0  0  0  0  0  0  0  0  0  0  0
    3.8695   -3.4717    5.7485 H   0  0  0  0  0  0  0  0  0  0  0  0
    6.9022   -1.4420    5.3759 H   0  0  0  0  0  0  0  0  0  0  0  0
    7.1043   -2.7326    4.1127 H   0  0  0  0  0  0  0  0  0  0  0  0
    8.4571   -1.7166    4.5988 H   0  0  0  0  0  0  0  0  0  0  0  0
  1  2  1  0  0  0  0
  1  3  1  0  0  0  0
  1  4  1  0  0  0  0
  1 28  1  1  0  0  0
  2  6  1  0  0  0  0
  2 29  1  6  0  0  0
  2  5  1  0  0  0  0
  3  7  1  0  0  0  0
  3 30  1  0  0  0  0
  3 31  1  0  0  0  0
  4  8  1  0  0  0  0
  4  9  2  0  0  0  0
  5 10  1  0  0  0  0
  5 32  1  0  0  0  0
  5 33  1  0  0  0  0
  6  8  1  0  0  0  0
  6 34  1  0  0  0  0
  6 35  1  0  0  0  0
  7 11  2  0  0  0  0
  7 12  1  0  0  0  0
 10 13  2  0  0  0  0
 10 14  1  0  0  0  0
 11 15  1  0  0  0  0
 11 36  1  0  0  0  0
 12 16  2  0  0  0  0
 12 37  1  0  0  0  0
 13 17  1  0  0  0  0
 13 38  1  0  0  0  0
 14 18  2  0  0  0  0
 14 39  1  0  0  0  0
 15 19  2  0  0  0  0
 15 20  1  0  0  0  0
 16 19  1  0  0  0  0
 16 40  1  0  0  0  0
 17 21  2  0  0  0  0
 17 22  1  0  0  0  0
 18 21  1  0  0  0  0
 18 41  1  0  0  0  0
 19 23  1  0  0  0  0
 20 24  1  0  0  0  0
 21 25  1  0  0  0  0
 22 26  1  0  0  0  0
 23 42  1  0  0  0  0
 24 43  1  0  0  0  0
 24 44  1  0  0  0  0
 24 45  1  0  0  0  0
 25 27  1  0  0  0  0
 26 46  1  0  0  0  0
 26 47  1  0  0  0  0
 26 48  1  0  0  0  0
 27 49  1  0  0  0  0
 27 50  1  0  0  0  0
 27 51  1  0  0  0  0
M  END
>  <Mol_ID>
1931

>  <Formula>
C21H24O6

>  <MolWeight>
372.41166

>  <Cat>
S3897

>  <Name>
(-)-Arctigenin

>  <Synonyms>
N/A

>  <Target>
Influenza Virus

>  <Form>
free base

>  <CAS>
7770-78-7

>  <URL>
http://selleckchem.com/products/neg-rotation-arctigenin.html

$$$$
