S3891 Vincamine.cdx
 OpenBabel08302521492D

 52 56  0  0  0  0  0  0  0  0999 V2000
    5.0498    4.0822    0.0000 C   0  0  0  0  0  0  0  0  0  0  0  0
    4.1657    3.0634    0.0000 N   0  0  0  0  0  0  0  0  0  0  0  0
    6.4215    3.8093    0.0000 C   0  0  2  0  0  0  0  0  0  0  0  0
    4.6096    5.4028    0.0000 C   0  0  0  0  0  0  0  0  0  0  0  0
    4.5768    1.7320    0.0000 C   0  0  2  0  0  0  0  0  0  0  0  0
    2.7213    3.7256    0.0000 C   0  0  0  0  0  0  0  0  0  0  0  0
    6.8690    2.5287    0.0000 C   0  0  2  0  0  0  0  0  0  0  0  0
    7.3382    4.8681    0.0000 N   0  0  3  0  0  0  0  0  0  0  0  0
    3.0197    5.2901    0.0000 C   0  0  0  0  0  0  0  0  0  0  0  0
    5.5119    6.4544    0.0000 C   0  0  0  0  0  0  0  0  0  0  0  0
    5.9521    1.4700    0.0000 C   0  0  0  0  0  0  0  0  0  0  0  0
    3.2270    1.5171    0.0000 C   0  0  0  0  0  0  0  0  0  0  0  0
    4.5660    0.3348    0.0000 O   0  0  0  0  0  0  0  0  0  0  0  0
    1.2115    3.2308    0.0000 C   0  0  0  0  0  0  0  0  0  0  0  0
    8.2370    2.2485    0.0000 C   0  0  0  0  0  0  0  0  0  0  0  0
    7.3201    1.1971    0.0000 C   0  0  0  0  0  0  0  0  0  0  0  0
    6.8799    6.1924    0.0000 C   0  0  0  0  0  0  0  0  0  0  0  0
    8.7062    4.6060    0.0000 C   0  0  0  0  0  0  0  0  0  0  0  0
    1.8301    6.3416    0.0000 C   0  0  0  0  0  0  0  0  0  0  0  0
    2.7286    0.2148    0.0000 O   0  0  0  0  0  0  0  0  0  0  0  0
    2.3539    2.6124    0.0000 O   0  0  0  0  0  0  0  0  0  0  0  0
    0.0000    4.2604    0.0000 C   0  0  0  0  0  0  0  0  0  0  0  0
    9.1683    3.2746    0.0000 C   0  0  0  0  0  0  0  0  0  0  0  0
    8.6991    0.9351    0.0000 C   0  0  0  0  0  0  0  0  0  0  0  0
    0.3128    5.8359    0.0000 C   0  0  0  0  0  0  0  0  0  0  0  0
    1.3534    0.0000    0.0000 C   0  0  0  0  0  0  0  0  0  0  0  0
    6.0744    4.8214    0.0000 H   0  0  0  0  0  0  0  0  0  0  0  0
    5.1589    7.4645    0.0000 H   0  0  0  0  0  0  0  0  0  0  0  0
    6.2109    7.2645    0.0000 H   0  0  0  0  0  0  0  0  0  0  0  0
    6.3033    0.4593    0.0000 H   0  0  0  0  0  0  0  0  0  0  0  0
    7.0029    1.2683    0.0000 H   0  0  0  0  0  0  0  0  0  0  0  0
    3.7222   -0.1437    0.0000 H   0  0  0  0  0  0  0  0  0  0  0  0
    1.0127    2.2181    0.0000 H   0  0  0  0  0  0  0  0  0  0  0  0
    8.5694    1.2314    0.0000 H   0  0  0  0  0  0  0  0  0  0  0  0
    9.2834    2.0249    0.0000 H   0  0  0  0  0  0  0  0  0  0  0  0
    6.6178    0.3898    0.0000 H   0  0  0  0  0  0  0  0  0  0  0  0
    7.6704    0.1861    0.0000 H   0  0  0  0  0  0  0  0  0  0  0  0
    7.5801    7.0015    0.0000 H   0  0  0  0  0  0  0  0  0  0  0  0
    6.5291    7.2032    0.0000 H   0  0  0  0  0  0  0  0  0  0  0  0
    9.4061    5.4153    0.0000 H   0  0  0  0  0  0  0  0  0  0  0  0
    9.7571    4.4045    0.0000 H   0  0  0  0  0  0  0  0  0  0  0  0
    2.0362    7.3528    0.0000 H   0  0  0  0  0  0  0  0  0  0  0  0
   -0.9746    3.9209    0.0000 H   0  0  0  0  0  0  0  0  0  0  0  0
   10.2167    3.0605    0.0000 H   0  0  0  0  0  0  0  0  0  0  0  0
    9.8731    4.0797    0.0000 H   0  0  0  0  0  0  0  0  0  0  0  0
    9.0517   -0.0751    0.0000 H   0  0  0  0  0  0  0  0  0  0  0  0
    9.3977    1.7456    0.0000 H   0  0  0  0  0  0  0  0  0  0  0  0
    9.7503    0.7354    0.0000 H   0  0  0  0  0  0  0  0  0  0  0  0
   -0.4613    6.5184    0.0000 H   0  0  0  0  0  0  0  0  0  0  0  0
    0.6818    0.8330    0.0000 H   0  0  0  0  0  0  0  0  0  0  0  0
    0.9678   -0.9981    0.0000 H   0  0  0  0  0  0  0  0  0  0  0  0
    0.2962   -0.1651    0.0000 H   0  0  0  0  0  0  0  0  0  0  0  0
  1  2  1  0  0  0  0
  1  4  2  0  0  0  0
  2  5  1  0  0  0  0
  2  6  1  0  0  0  0
  3  1  1  0  0  0  0
  3  7  1  0  0  0  0
  3  8  1  0  0  0  0
  3 27  1  6  0  0  0
  4  9  1  0  0  0  0
  4 10  1  0  0  0  0
  5 11  1  0  0  0  0
  5 12  1  6  0  0  0
  5 13  1  0  0  0  0
  6 14  1  0  0  0  0
  6  9  2  0  0  0  0
  7 15  1  0  0  0  0
  7 16  1  6  0  0  0
  7 11  1  0  0  0  0
  8 17  1  0  0  0  0
  8 18  1  0  0  0  0
  9 19  1  0  0  0  0
 10 17  1  0  0  0  0
 10 28  1  0  0  0  0
 10 29  1  0  0  0  0
 11 30  1  0  0  0  0
 11 31  1  0  0  0  0
 12 20  1  0  0  0  0
 12 21  2  0  0  0  0
 13 32  1  0  0  0  0
 14 22  2  0  0  0  0
 14 33  1  0  0  0  0
 15 23  1  0  0  0  0
 15 34  1  0  0  0  0
 15 35  1  0  0  0  0
 16 24  1  0  0  0  0
 16 36  1  0  0  0  0
 16 37  1  0  0  0  0
 17 38  1  0  0  0  0
 17 39  1  0  0  0  0
 18 23  1  0  0  0  0
 18 40  1  0  0  0  0
 18 41  1  0  0  0  0
 19 25  2  0  0  0  0
 19 42  1  0  0  0  0
 20 26  1  0  0  0  0
 22 25  1  0  0  0  0
 22 43  1  0  0  0  0
 23 44  1  0  0  0  0
 23 45  1  0  0  0  0
 24 46  1  0  0  0  0
 24 47  1  0  0  0  0
 24 48  1  0  0  0  0
 25 49  1  0  0  0  0
 26 50  1  0  0  0  0
 26 51  1  0  0  0  0
 26 52  1  0  0  0  0
M  END
>  <Mol_ID>
8149

>  <Formula>
C21H26N2O3

>  <MolWeight>
354.44274

>  <Cat>
S3891

>  <Name>
Vincamine

>  <Synonyms>
Angiopac, Devincan, Equipur, Minorin, Novicet, Oxybral, Perval, Sostenil, Tripervan

>  <Target>
Others

>  <Form>
free base

>  <CAS>
1617-90-9

>  <URL>
http://selleckchem.com/products/vincamine.html

$$$$
