S3895 Sophoridine.cdx
 OpenBabel08302519513D

 42 45  0  0  0  0  0  0  0  0999 V2000
    0.2899    0.8693    0.1723 C   0  0  3  0  0  0  0  0  0  0  0  0
    0.4256    1.7059    1.5020 C   0  0  3  0  0  0  0  0  0  0  0  0
    0.0207    1.7719   -1.0542 C   0  0  3  0  0  0  0  0  0  0  0  0
   -0.6598   -0.2405    0.2998 N   0  0  3  0  0  0  0  0  0  0  0  0
   -0.2602    3.1146    1.5630 C   0  0  3  0  0  0  0  0  0  0  0  0
   -0.0556    0.9431    2.7620 C   0  0  0  0  0  0  0  0  0  0  0  0
   -0.9542    2.9028   -0.7594 C   0  0  0  0  0  0  0  0  0  0  0  0
   -0.4842    1.0781   -2.3264 C   0  0  0  0  0  0  0  0  0  0  0  0
   -0.2778   -1.1741    1.3831 C   0  0  0  0  0  0  0  0  0  0  0  0
   -0.7934   -1.0646   -0.9152 C   0  0  0  0  0  0  0  0  0  0  0  0
   -0.4490    3.7653    0.2825 N   0  0  0  0  0  0  0  0  0  0  0  0
    0.4843    4.0305    2.5538 C   0  0  0  0  0  0  0  0  0  0  0  0
    0.0991   -0.5565    2.7199 C   0  0  0  0  0  0  0  0  0  0  0  0
   -0.6469   -0.4193   -2.2832 C   0  0  0  0  0  0  0  0  0  0  0  0
   -0.8810    5.0991    0.2355 C   0  0  0  0  0  0  0  0  0  0  0  0
   -0.2411    5.3617    2.6658 C   0  0  0  0  0  0  0  0  0  0  0  0
   -0.3258    6.0158    1.3029 C   0  0  0  0  0  0  0  0  0  0  0  0
   -1.5647    5.5608   -0.6792 O   0  0  0  0  0  0  0  0  0  0  0  0
    1.2800    0.4139   -0.0048 H   0  0  0  0  0  0  0  0  0  0  0  0
    1.5084    1.8651    1.6189 H   0  0  0  0  0  0  0  0  0  0  0  0
    0.9837    2.2408   -1.3075 H   0  0  0  0  0  0  0  0  0  0  0  0
   -1.2832    2.9896    1.9458 H   0  0  0  0  0  0  0  0  0  0  0  0
    0.4654    1.3229    3.6501 H   0  0  0  0  0  0  0  0  0  0  0  0
   -1.1212    1.1454    2.9326 H   0  0  0  0  0  0  0  0  0  0  0  0
   -1.9385    2.5271   -0.4495 H   0  0  0  0  0  0  0  0  0  0  0  0
   -1.1040    3.4923   -1.6706 H   0  0  0  0  0  0  0  0  0  0  0  0
   -1.4518    1.4987   -2.6342 H   0  0  0  0  0  0  0  0  0  0  0  0
    0.1865    1.3357   -3.1575 H   0  0  0  0  0  0  0  0  0  0  0  0
   -1.1081   -1.8730    1.5466 H   0  0  0  0  0  0  0  0  0  0  0  0
    0.5808   -1.7924    1.0800 H   0  0  0  0  0  0  0  0  0  0  0  0
   -1.7740   -1.5550   -0.8671 H   0  0  0  0  0  0  0  0  0  0  0  0
   -0.0634   -1.8876   -0.9112 H   0  0  0  0  0  0  0  0  0  0  0  0
    0.5450    3.5761    3.5472 H   0  0  0  0  0  0  0  0  0  0  0  0
    1.5127    4.2023    2.2096 H   0  0  0  0  0  0  0  0  0  0  0  0
    1.1300   -0.8274    2.9758 H   0  0  0  0  0  0  0  0  0  0  0  0
   -0.5333   -0.9930    3.5049 H   0  0  0  0  0  0  0  0  0  0  0  0
    0.2070   -0.8760   -2.8010 H   0  0  0  0  0  0  0  0  0  0  0  0
   -1.5235   -0.6869   -2.8898 H   0  0  0  0  0  0  0  0  0  0  0  0
   -1.2495    5.2013    3.0660 H   0  0  0  0  0  0  0  0  0  0  0  0
    0.2847    6.0215    3.3642 H   0  0  0  0  0  0  0  0  0  0  0  0
   -0.9686    6.9007    1.3681 H   0  0  0  0  0  0  0  0  0  0  0  0
    0.6653    6.3469    0.9713 H   0  0  0  0  0  0  0  0  0  0  0  0
  1  2  1  0  0  0  0
  1  3  1  0  0  0  0
  1  4  1  0  0  0  0
  1 19  1  0  0  0  0
  2  5  1  0  0  0  0
  2  6  1  0  0  0  0
  2 20  1  0  0  0  0
  3  7  1  0  0  0  0
  3  8  1  0  0  0  0
  3 21  1  0  0  0  0
  4  9  1  0  0  0  0
  4 10  1  0  0  0  0
  5 11  1  0  0  0  0
  5 12  1  0  0  0  0
  5 22  1  0  0  0  0
  6 13  1  0  0  0  0
  6 23  1  0  0  0  0
  6 24  1  0  0  0  0
  7 11  1  0  0  0  0
  7 25  1  0  0  0  0
  7 26  1  0  0  0  0
  8 14  1  0  0  0  0
  8 27  1  0  0  0  0
  8 28  1  0  0  0  0
  9 13  1  0  0  0  0
  9 29  1  0  0  0  0
  9 30  1  0  0  0  0
 10 14  1  0  0  0  0
 10 31  1  0  0  0  0
 10 32  1  0  0  0  0
 11 15  1  0  0  0  0
 12 16  1  0  0  0  0
 12 33  1  0  0  0  0
 12 34  1  0  0  0  0
 13 35  1  0  0  0  0
 13 36  1  0  0  0  0
 14 37  1  0  0  0  0
 14 38  1  0  0  0  0
 15 17  1  0  0  0  0
 15 18  2  0  0  0  0
 16 17  1  0  0  0  0
 16 39  1  0  0  0  0
 16 40  1  0  0  0  0
 17 41  1  0  0  0  0
 17 42  1  0  0  0  0
M  END
>  <Mol_ID>
1929

>  <Formula>
C15H24N2O

>  <MolWeight>
248.36386

>  <Cat>
S3895

>  <Name>
Sophoridine

>  <Synonyms>
5-Epidihydrosophocarpine, Dihydro-5-episophocarpine

>  <Target>
Apoptosis related

>  <Form>
free base

>  <CAS>
6882-68-4

>  <URL>
http://selleckchem.com/products/sophoridine.html

$$$$
