S3893 Bornyl acetate.cdx
 OpenBabel08302519563D

 34 35  0  0  0  0  0  0  0  0999 V2000
    0.1218   -0.9103    0.0181 C   0  0  2  0  0  0  0  0  0  0  0  0
   -0.8515   -0.9677    1.2460 C   0  0  1  0  0  0  0  0  0  0  0  0
    0.6256    0.5676    0.0250 C   0  0  0  0  0  0  0  0  0  0  0  0
   -0.7436   -0.9560   -1.2704 C   0  0  0  0  0  0  0  0  0  0  0  0
    1.1928   -1.9851    0.0512 C   0  0  0  0  0  0  0  0  0  0  0  0
   -1.4781    0.4435    1.2372 C   0  0  0  0  0  0  0  0  0  0  0  0
   -1.9018   -1.9318    1.0439 O   0  0  0  0  0  0  0  0  0  0  0  0
   -0.8288    1.1017   -0.0015 C   0  0  2  0  0  0  0  0  0  0  0  0
    1.4648    0.9954   -1.1992 C   0  0  0  0  0  0  0  0  0  0  0  0
    1.4397    0.9898    1.2632 C   0  0  0  0  0  0  0  0  0  0  0  0
   -1.4474    0.4129   -1.2430 C   0  0  0  0  0  0  0  0  0  0  0  0
   -2.0283   -2.9510    1.9291 C   0  0  0  0  0  0  0  0  0  0  0  0
   -3.1945   -3.8202    1.5546 C   0  0  0  0  0  0  0  0  0  0  0  0
   -1.2980   -3.1611    2.8885 O   0  0  0  0  0  0  0  0  0  0  0  0
   -0.3146   -1.1379    2.1856 H   0  0  0  0  0  0  0  0  0  0  0  0
   -0.1296   -1.0609   -2.1716 H   0  0  0  0  0  0  0  0  0  0  0  0
   -1.4594   -1.7835   -1.2906 H   0  0  0  0  0  0  0  0  0  0  0  0
    0.7480   -2.9851    0.0461 H   0  0  0  0  0  0  0  0  0  0  0  0
    1.8575   -1.9113   -0.8158 H   0  0  0  0  0  0  0  0  0  0  0  0
    1.8121   -1.9008    0.9506 H   0  0  0  0  0  0  0  0  0  0  0  0
   -1.2066    0.9900    2.1471 H   0  0  0  0  0  0  0  0  0  0  0  0
   -2.5716    0.4288    1.1788 H   0  0  0  0  0  0  0  0  0  0  0  0
   -0.9339    2.1892   -0.0138 H   0  0  0  0  0  0  0  0  0  0  0  0
    2.4326    0.4819   -1.2043 H   0  0  0  0  0  0  0  0  0  0  0  0
    0.9968    0.7979   -2.1658 H   0  0  0  0  0  0  0  0  0  0  0  0
    1.6607    2.0738   -1.1689 H   0  0  0  0  0  0  0  0  0  0  0  0
    0.9685    0.7555    2.2194 H   0  0  0  0  0  0  0  0  0  0  0  0
    2.4203    0.5001    1.2659 H   0  0  0  0  0  0  0  0  0  0  0  0
    1.6140    2.0727    1.2519 H   0  0  0  0  0  0  0  0  0  0  0  0
   -2.5341    0.3056   -1.1592 H   0  0  0  0  0  0  0  0  0  0  0  0
   -1.2421    0.9744   -2.1600 H   0  0  0  0  0  0  0  0  0  0  0  0
   -2.8312   -4.7589    1.1277 H   0  0  0  0  0  0  0  0  0  0  0  0
   -3.8011   -4.0142    2.4433 H   0  0  0  0  0  0  0  0  0  0  0  0
   -3.8338   -3.3209    0.8193 H   0  0  0  0  0  0  0  0  0  0  0  0
  1  2  1  0  0  0  0
  1  3  1  0  0  0  0
  1  4  1  0  0  0  0
  1  5  1  1  0  0  0
  2  6  1  0  0  0  0
  2 15  1  1  0  0  0
  2  7  1  0  0  0  0
  3  8  1  0  0  0  0
  3  9  1  0  0  0  0
  3 10  1  0  0  0  0
  4 11  1  0  0  0  0
  4 16  1  0  0  0  0
  4 17  1  0  0  0  0
  5 18  1  0  0  0  0
  5 19  1  0  0  0  0
  5 20  1  0  0  0  0
  6 21  1  0  0  0  0
  6 22  1  0  0  0  0
  7 12  1  0  0  0  0
  8  6  1  0  0  0  0
  8 11  1  0  0  0  0
  8 23  1  6  0  0  0
  9 24  1  0  0  0  0
  9 25  1  0  0  0  0
  9 26  1  0  0  0  0
 10 27  1  0  0  0  0
 10 28  1  0  0  0  0
 10 29  1  0  0  0  0
 11 30  1  0  0  0  0
 11 31  1  0  0  0  0
 12 13  1  0  0  0  0
 12 14  2  0  0  0  0
 13 32  1  0  0  0  0
 13 33  1  0  0  0  0
 13 34  1  0  0  0  0
M  END
>  <Mol_ID>
2236

>  <Formula>
C12H20O2

>  <MolWeight>
196.286

>  <Cat>
S3893

>  <Name>
Bornyl acetate

>  <Synonyms>
Isobornyl acetate, Bornyl acetic ether, 2-Camphanol acetate

>  <Target>
Immunology & Inflammation related

>  <Form>
free base

>  <CAS>
76-49-3

>  <URL>
http://selleckchem.com/products/bornyl-acetate.html

$$$$
