S3896 DACH-BOC.cdx
 OpenBabel08302519513D

 37 37  0  0  0  0  0  0  0  0999 V2000
    0.1501   -0.3186    1.9466 C   0  0  0  0  0  0  0  0  0  0  0  0
    0.2393    0.6900    1.0371 N   0  0  0  0  0  0  0  0  0  0  0  0
    0.6725    2.0339    1.4103 C   0  0  1  0  0  0  0  0  0  0  0  0
   -0.7073   -1.2741    1.5075 O   0  0  0  0  0  0  0  0  0  0  0  0
    0.7140   -0.3110    3.0348 O   0  0  0  0  0  0  0  0  0  0  0  0
   -1.0644   -2.3805    2.3825 C   0  0  0  0  0  0  0  0  0  0  0  0
    0.7467    2.9732    0.1713 C   0  0  2  0  0  0  0  0  0  0  0  0
    1.7185    2.4903   -0.8213 N   0  0  0  0  0  0  0  0  0  0  0  0
   -0.2971    2.6143    2.4616 C   0  0  0  0  0  0  0  0  0  0  0  0
    1.0729    4.4182    0.5771 C   0  0  0  0  0  0  0  0  0  0  0  0
    0.0219    4.0562    2.8312 C   0  0  0  0  0  0  0  0  0  0  0  0
    0.0709    4.9472    1.5993 C   0  0  0  0  0  0  0  0  0  0  0  0
   -1.5843   -1.9263    3.7588 C   0  0  0  0  0  0  0  0  0  0  0  0
   -2.2191   -3.1135    1.6789 C   0  0  0  0  0  0  0  0  0  0  0  0
    0.1231   -3.3368    2.5125 C   0  0  0  0  0  0  0  0  0  0  0  0
   -0.0861    0.5121    0.0987 H   0  0  0  0  0  0  0  0  0  0  0  0
    1.6694    1.9422    1.8643 H   0  0  0  0  0  0  0  0  0  0  0  0
   -0.2326    2.9708   -0.3248 H   0  0  0  0  0  0  0  0  0  0  0  0
    1.8881    3.2154   -1.5179 H   0  0  0  0  0  0  0  0  0  0  0  0
    2.6176    2.3250   -0.3667 H   0  0  0  0  0  0  0  0  0  0  0  0
   -1.3246    2.5548    2.0800 H   0  0  0  0  0  0  0  0  0  0  0  0
   -0.2764    2.0108    3.3763 H   0  0  0  0  0  0  0  0  0  0  0  0
    2.0847    4.4748    0.9989 H   0  0  0  0  0  0  0  0  0  0  0  0
    1.0572    5.0723   -0.3038 H   0  0  0  0  0  0  0  0  0  0  0  0
    0.9840    4.0959    3.3555 H   0  0  0  0  0  0  0  0  0  0  0  0
   -0.7384    4.4283    3.5273 H   0  0  0  0  0  0  0  0  0  0  0  0
    0.3410    5.9672    1.8935 H   0  0  0  0  0  0  0  0  0  0  0  0
   -0.9263    4.9991    1.1442 H   0  0  0  0  0  0  0  0  0  0  0  0
   -2.3985   -1.2016    3.6491 H   0  0  0  0  0  0  0  0  0  0  0  0
   -1.9536   -2.7774    4.3417 H   0  0  0  0  0  0  0  0  0  0  0  0
   -0.8135   -1.4444    4.3641 H   0  0  0  0  0  0  0  0  0  0  0  0
   -1.9417   -3.4064    0.6615 H   0  0  0  0  0  0  0  0  0  0  0  0
   -2.5201   -4.0126    2.2302 H   0  0  0  0  0  0  0  0  0  0  0  0
   -3.0968   -2.4624    1.5887 H   0  0  0  0  0  0  0  0  0  0  0  0
    0.4693   -3.6551    1.5232 H   0  0  0  0  0  0  0  0  0  0  0  0
    0.9758   -2.8567    3.0022 H   0  0  0  0  0  0  0  0  0  0  0  0
   -0.1409   -4.2278    3.0919 H   0  0  0  0  0  0  0  0  0  0  0  0
  2  1  1  0  0  0  0
  2 16  1  0  0  0  0
  3  2  1  0  0  0  0
  3 17  1  1  0  0  0
  4  1  1  0  0  0  0
  5  1  2  0  0  0  0
  6  4  1  0  0  0  0
  6 13  1  0  0  0  0
  6 14  1  0  0  0  0
  6 15  1  0  0  0  0
  7  3  1  0  0  0  0
  7  8  1  0  0  0  0
  7 18  1  6  0  0  0
  8 19  1  0  0  0  0
  8 20  1  0  0  0  0
  9  3  1  0  0  0  0
  9 21  1  0  0  0  0
  9 22  1  0  0  0  0
 10  7  1  0  0  0  0
 10 23  1  0  0  0  0
 10 24  1  0  0  0  0
 11  9  1  0  0  0  0
 11 25  1  0  0  0  0
 11 26  1  0  0  0  0
 12 10  1  0  0  0  0
 12 11  1  0  0  0  0
 12 27  1  0  0  0  0
 12 28  1  0  0  0  0
 13 29  1  0  0  0  0
 13 30  1  0  0  0  0
 13 31  1  0  0  0  0
 14 32  1  0  0  0  0
 14 33  1  0  0  0  0
 14 34  1  0  0  0  0
 15 35  1  0  0  0  0
 15 36  1  0  0  0  0
 15 37  1  0  0  0  0
M  END
>  <Mol_ID>
1930

>  <Formula>
C11H22N2O2

>  <MolWeight>
214.30458

>  <Cat>
S3896

>  <Name>
(1R,2R)-trans-N-Boc-1,2-cyclohexanediamine

>  <Synonyms>
N/A

>  <Target>
Others

>  <Form>
free base

>  <CAS>
146504-07-6

>  <URL>
http://selleckchem.com/products/1r-2r-trans-n-boc-1-2-cyclohexanediamine.html

$$$$
