S3894 Cycloastragenol.cdx
 OpenBabel08302519513D

 85 90  0  0  0  0  0  0  0  0999 V2000
    4.6452    2.9296   -0.3423 C   0  0  0  0  0  0  0  0  0  0  0  0
    5.4599    1.8041   -1.0135 C   0  0  1  0  0  0  0  0  0  0  0  0
    5.4236    0.4137   -0.2675 C   0  0  0  0  0  0  0  0  0  0  0  0
    4.1340    0.2929    0.5840 C   0  0  1  0  0  0  0  0  0  0  0  0
    2.9943    1.0509   -0.0596 C   0  0  2  0  0  0  0  0  0  0  0  0
    3.2211    2.5458    0.0871 C   0  0  0  0  0  0  0  0  0  0  0  0
    3.8055   -1.0833    1.1988 C   0  0  2  0  0  0  0  0  0  0  0  0
    2.7348   -1.9148    0.5037 C   0  0  0  0  0  0  0  0  0  0  0  0
    1.4815   -1.1652    0.0224 C   0  0  2  0  0  0  0  0  0  0  0  0
    1.6314    0.3605   -0.0506 C   0  0  1  0  0  0  0  0  0  0  0  0
    0.1473   -1.5802    0.6708 C   0  0  1  0  0  0  0  0  0  0  0  0
   -1.0381   -0.7158    0.0682 C   0  0  2  0  0  0  0  0  0  0  0  0
   -0.8743    0.7646    0.4389 C   0  0  0  0  0  0  0  0  0  0  0  0
    0.5712    1.1998    0.6341 C   0  0  0  0  0  0  0  0  0  0  0  0
   -0.3321   -3.0063    0.3005 C   0  0  0  0  0  0  0  0  0  0  0  0
   -1.8743   -2.9597    0.5001 C   0  0  1  0  0  0  0  0  0  0  0  0
   -2.2145   -1.4634    0.7513 C   0  0  2  0  0  0  0  0  0  0  0  0
   -1.1429   -0.7636   -1.4884 C   0  0  0  0  0  0  0  0  0  0  0  0
    5.0028    1.6687   -2.3664 O   0  0  0  0  0  0  0  0  0  0  0  0
    3.4434   -0.8954    2.5733 O   0  0  0  0  0  0  0  0  0  0  0  0
    0.2359   -1.5029    2.2342 C   0  0  0  0  0  0  0  0  0  0  0  0
   -2.5666   -3.4805   -0.6239 O   0  0  0  0  0  0  0  0  0  0  0  0
    5.5799   -0.7575   -1.2574 C   0  0  0  0  0  0  0  0  0  0  0  0
    6.6160    0.3662    0.7234 C   0  0  0  0  0  0  0  0  0  0  0  0
    2.2831    0.7403   -1.3558 C   0  0  0  0  0  0  0  0  0  0  0  0
   -3.6741   -0.9998    0.6732 C   0  0  1  0  0  0  0  0  0  0  0  0
   -3.7285    0.4419    0.8096 O   0  0  0  0  0  0  0  0  0  0  0  0
   -5.0742    0.8220    0.4743 C   0  0  2  0  0  0  0  0  0  0  0  0
   -5.5150   -0.1542   -0.6118 C   0  0  0  0  0  0  0  0  0  0  0  0
   -4.4529   -1.2484   -0.6069 C   0  0  0  0  0  0  0  0  0  0  0  0
   -5.1833    2.3310    0.1946 C   0  0  0  0  0  0  0  0  0  0  0  0
   -4.7654    3.0190    1.3885 O   0  0  0  0  0  0  0  0  0  0  0  0
   -6.6450    2.7012   -0.0558 C   0  0  0  0  0  0  0  0  0  0  0  0
   -4.2849    2.8304   -0.9354 C   0  0  0  0  0  0  0  0  0  0  0  0
   -4.3927   -1.5947    1.9150 C   0  0  0  0  0  0  0  0  0  0  0  0
    5.1837    3.2933    0.5392 H   0  0  0  0  0  0  0  0  0  0  0  0
    4.5657    3.7833   -1.0298 H   0  0  0  0  0  0  0  0  0  0  0  0
    6.5005    2.1341   -1.0937 H   0  0  0  0  0  0  0  0  0  0  0  0
    4.3428    0.9020    1.4803 H   0  0  0  0  0  0  0  0  0  0  0  0
    3.0574    2.8389    1.1317 H   0  0  0  0  0  0  0  0  0  0  0  0
    2.4999    3.1296   -0.5014 H   0  0  0  0  0  0  0  0  0  0  0  0
    4.7083   -1.6963    1.2568 H   0  0  0  0  0  0  0  0  0  0  0  0
    2.4504   -2.7594    1.1433 H   0  0  0  0  0  0  0  0  0  0  0  0
    3.1984   -2.3769   -0.3776 H   0  0  0  0  0  0  0  0  0  0  0  0
    1.3850   -1.5078   -1.0188 H   0  0  0  0  0  0  0  0  0  0  0  0
   -1.4192    1.0129    1.3548 H   0  0  0  0  0  0  0  0  0  0  0  0
   -1.3175    1.4005   -0.3371 H   0  0  0  0  0  0  0  0  0  0  0  0
    0.7989    1.1937    1.7094 H   0  0  0  0  0  0  0  0  0  0  0  0
    0.6328    2.2526    0.3406 H   0  0  0  0  0  0  0  0  0  0  0  0
   -0.0656   -3.2659   -0.7311 H   0  0  0  0  0  0  0  0  0  0  0  0
    0.1225   -3.7711    0.9379 H   0  0  0  0  0  0  0  0  0  0  0  0
   -2.1514   -3.5693    1.3650 H   0  0  0  0  0  0  0  0  0  0  0  0
   -2.0272   -1.3036    1.8200 H   0  0  0  0  0  0  0  0  0  0  0  0
   -0.2282   -0.4195   -1.9798 H   0  0  0  0  0  0  0  0  0  0  0  0
   -1.9364   -0.0996   -1.8483 H   0  0  0  0  0  0  0  0  0  0  0  0
   -1.3551   -1.7559   -1.8908 H   0  0  0  0  0  0  0  0  0  0  0  0
    5.1261    2.5221   -2.8078 H   0  0  0  0  0  0  0  0  0  0  0  0
    2.8087   -0.1741    2.6171 H   0  0  0  0  0  0  0  0  0  0  0  0
   -0.1665   -0.5717    2.6411 H   0  0  0  0  0  0  0  0  0  0  0  0
    1.2481   -1.5943    2.6114 H   0  0  0  0  0  0  0  0  0  0  0  0
   -0.3090   -2.3225    2.7182 H   0  0  0  0  0  0  0  0  0  0  0  0
   -1.9511   -4.0008   -1.1686 H   0  0  0  0  0  0  0  0  0  0  0  0
    6.5331   -0.6889   -1.7923 H   0  0  0  0  0  0  0  0  0  0  0  0
    5.5696   -1.7300   -0.7555 H   0  0  0  0  0  0  0  0  0  0  0  0
    4.7825   -0.7791   -2.0021 H   0  0  0  0  0  0  0  0  0  0  0  0
    6.5611    1.1850    1.4516 H   0  0  0  0  0  0  0  0  0  0  0  0
    7.5700    0.4529    0.1978 H   0  0  0  0  0  0  0  0  0  0  0  0
    6.6361   -0.5730    1.2884 H   0  0  0  0  0  0  0  0  0  0  0  0
    2.7107   -0.0137   -2.0043 H   0  0  0  0  0  0  0  0  0  0  0  0
    1.8091    1.5314   -1.9314 H   0  0  0  0  0  0  0  0  0  0  0  0
   -5.6631    0.6345    1.3821 H   0  0  0  0  0  0  0  0  0  0  0  0
   -6.5021   -0.5629   -0.3657 H   0  0  0  0  0  0  0  0  0  0  0  0
   -5.5954    0.3018   -1.6012 H   0  0  0  0  0  0  0  0  0  0  0  0
   -4.8890   -2.2500   -0.6624 H   0  0  0  0  0  0  0  0  0  0  0  0
   -3.8264   -1.1152   -1.4921 H   0  0  0  0  0  0  0  0  0  0  0  0
   -3.9309    2.5858    1.6589 H   0  0  0  0  0  0  0  0  0  0  0  0
   -6.8111    3.7757    0.0636 H   0  0  0  0  0  0  0  0  0  0  0  0
   -7.3001    2.2053    0.6716 H   0  0  0  0  0  0  0  0  0  0  0  0
   -6.9706    2.4006   -1.0591 H   0  0  0  0  0  0  0  0  0  0  0  0
   -4.3730    2.2197   -1.8394 H   0  0  0  0  0  0  0  0  0  0  0  0
   -4.5453    3.8611   -1.2047 H   0  0  0  0  0  0  0  0  0  0  0  0
   -3.2338    2.8549   -0.6315 H   0  0  0  0  0  0  0  0  0  0  0  0
   -5.4852   -1.5237    1.8458 H   0  0  0  0  0  0  0  0  0  0  0  0
   -4.1491   -2.6450    2.0731 H   0  0  0  0  0  0  0  0  0  0  0  0
   -4.1015   -1.0342    2.8156 H   0  0  0  0  0  0  0  0  0  0  0  0
  1  2  1  0  0  0  0
  1 36  1  0  0  0  0
  1 37  1  0  0  0  0
  2  3  1  0  0  0  0
  2 19  1  0  0  0  0
  2 38  1  6  0  0  0
  3 23  1  0  0  0  0
  3 24  1  0  0  0  0
  4  3  1  0  0  0  0
  4  5  1  0  0  0  0
  4  7  1  0  0  0  0
  4 39  1  1  0  0  0
  5  6  1  1  0  0  0
  5 25  1  0  0  0  0
  6  1  1  0  0  0  0
  6 40  1  0  0  0  0
  6 41  1  0  0  0  0
  7  8  1  0  0  0  0
  7 20  1  0  0  0  0
  7 42  1  6  0  0  0
  8 43  1  0  0  0  0
  8 44  1  0  0  0  0
  9  8  1  0  0  0  0
  9 10  1  0  0  0  0
  9 11  1  0  0  0  0
  9 45  1  6  0  0  0
 10  5  1  0  0  0  0
 10 14  1  1  0  0  0
 10 25  1  0  0  0  0
 11 12  1  0  0  0  0
 11 15  1  0  0  0  0
 11 21  1  1  0  0  0
 12 13  1  0  0  0  0
 12 18  1  6  0  0  0
 13 14  1  0  0  0  0
 13 46  1  0  0  0  0
 13 47  1  0  0  0  0
 14 48  1  0  0  0  0
 14 49  1  0  0  0  0
 15 16  1  0  0  0  0
 15 50  1  0  0  0  0
 15 51  1  0  0  0  0
 16 17  1  0  0  0  0
 16 22  1  0  0  0  0
 16 52  1  1  0  0  0
 17 12  1  0  0  0  0
 17 26  1  0  0  0  0
 17 53  1  1  0  0  0
 18 54  1  0  0  0  0
 18 55  1  0  0  0  0
 18 56  1  0  0  0  0
 19 57  1  0  0  0  0
 20 58  1  0  0  0  0
 21 59  1  0  0  0  0
 21 60  1  0  0  0  0
 21 61  1  0  0  0  0
 22 62  1  0  0  0  0
 23 63  1  0  0  0  0
 23 64  1  0  0  0  0
 23 65  1  0  0  0  0
 24 66  1  0  0  0  0
 24 67  1  0  0  0  0
 24 68  1  0  0  0  0
 25 69  1  0  0  0  0
 25 70  1  0  0  0  0
 26 27  1  0  0  0  0
 26 35  1  1  0  0  0
 27 28  1  0  0  0  0
 28 29  1  0  0  0  0
 28 31  1  0  0  0  0
 28 71  1  1  0  0  0
 29 30  1  0  0  0  0
 29 72  1  0  0  0  0
 29 73  1  0  0  0  0
 30 26  1  0  0  0  0
 30 74  1  0  0  0  0
 30 75  1  0  0  0  0
 31 32  1  0  0  0  0
 31 33  1  0  0  0  0
 31 34  1  0  0  0  0
 32 76  1  0  0  0  0
 33 77  1  0  0  0  0
 33 78  1  0  0  0  0
 33 79  1  0  0  0  0
 34 80  1  0  0  0  0
 34 81  1  0  0  0  0
 34 82  1  0  0  0  0
 35 83  1  0  0  0  0
 35 84  1  0  0  0  0
 35 85  1  0  0  0  0
M  END
>  <Mol_ID>
1928

>  <Formula>
C30H50O5

>  <MolWeight>
490.715

>  <Cat>
S3894

>  <Name>
Cycloastragenol

>  <Synonyms>
CAG, TA-65, Cyclogalegigenin, Astramembrangenin

>  <Target>
Telomerase

>  <Form>
free base

>  <CAS>
84605-18-5

>  <URL>
http://selleckchem.com/products/cycloastragenol.html

$$$$
