S3898 Hydroxy Camptothecine.cdx
 OpenBabel08302519513D

 43 47  0  0  0  0  0  0  0  0999 V2000
   -3.8199   -1.8318   -0.2576 C   0  0  0  0  0  0  0  0  0  0  0  0
   -4.0164   -1.0876   -1.3619 C   0  0  0  0  0  0  0  0  0  0  0  0
   -4.7855   -2.9548   -0.0041 C   0  0  2  0  0  0  0  0  0  0  0  0
   -2.4995   -1.7274    0.3626 C   0  0  0  0  0  0  0  0  0  0  0  0
   -3.4265    0.2814   -1.4052 C   0  0  0  0  0  0  0  0  0  0  0  0
   -4.6358   -1.6819   -2.5788 C   0  0  0  0  0  0  0  0  0  0  0  0
   -4.7715   -3.7948   -1.2952 C   0  0  0  0  0  0  0  0  0  0  0  0
   -6.2555   -2.4741    0.2000 C   0  0  0  0  0  0  0  0  0  0  0  0
   -4.4187   -3.6501    1.1802 O   0  0  0  0  0  0  0  0  0  0  0  0
   -1.7923   -0.6142    0.1218 C   0  0  0  0  0  0  0  0  0  0  0  0
   -2.3686    0.4510   -0.5489 N   0  0  0  0  0  0  0  0  0  0  0  0
   -3.8808    1.1400   -2.1496 O   0  0  0  0  0  0  0  0  0  0  0  0
   -4.9639   -3.1013   -2.4536 O   0  0  0  0  0  0  0  0  0  0  0  0
   -4.6116   -5.0125   -1.2858 O   0  0  0  0  0  0  0  0  0  0  0  0
   -6.4710   -1.4617    1.3216 C   0  0  0  0  0  0  0  0  0  0  0  0
   -0.3850   -0.2858    0.3164 C   0  0  0  0  0  0  0  0  0  0  0  0
   -1.5320    1.6493   -0.4350 C   0  0  0  0  0  0  0  0  0  0  0  0
   -0.2227    1.0583   -0.0097 C   0  0  0  0  0  0  0  0  0  0  0  0
    0.6084   -1.1789    0.4239 N   0  0  0  0  0  0  0  0  0  0  0  0
    1.0457    1.5937   -0.0443 C   0  0  0  0  0  0  0  0  0  0  0  0
    1.8537   -0.6854    0.2685 C   0  0  0  0  0  0  0  0  0  0  0  0
    2.1243    0.7056    0.0912 C   0  0  0  0  0  0  0  0  0  0  0  0
    2.9265   -1.5663    0.2256 C   0  0  0  0  0  0  0  0  0  0  0  0
    3.4500    1.1613   -0.0069 C   0  0  0  0  0  0  0  0  0  0  0  0
    4.2426   -1.1153    0.0859 C   0  0  0  0  0  0  0  0  0  0  0  0
    4.4963    0.2452    0.0006 C   0  0  0  0  0  0  0  0  0  0  0  0
    5.7949    0.6454   -0.0908 O   0  0  0  0  0  0  0  0  0  0  0  0
   -2.0446   -2.5841    0.8355 H   0  0  0  0  0  0  0  0  0  0  0  0
   -3.8778   -1.6577   -3.3735 H   0  0  0  0  0  0  0  0  0  0  0  0
   -5.5147   -1.1430   -2.9350 H   0  0  0  0  0  0  0  0  0  0  0  0
   -6.6627   -2.0399   -0.7222 H   0  0  0  0  0  0  0  0  0  0  0  0
   -6.8854   -3.3474    0.4185 H   0  0  0  0  0  0  0  0  0  0  0  0
   -3.7832   -4.3405    0.9190 H   0  0  0  0  0  0  0  0  0  0  0  0
   -5.8936   -0.5465    1.1608 H   0  0  0  0  0  0  0  0  0  0  0  0
   -7.5288   -1.1753    1.3592 H   0  0  0  0  0  0  0  0  0  0  0  0
   -6.2058   -1.8795    2.2965 H   0  0  0  0  0  0  0  0  0  0  0  0
   -1.4914    2.1827   -1.3869 H   0  0  0  0  0  0  0  0  0  0  0  0
   -1.9502    2.2843    0.3545 H   0  0  0  0  0  0  0  0  0  0  0  0
    1.1989    2.6458   -0.2635 H   0  0  0  0  0  0  0  0  0  0  0  0
    2.7350   -2.6358    0.2803 H   0  0  0  0  0  0  0  0  0  0  0  0
    3.6553    2.2227   -0.1133 H   0  0  0  0  0  0  0  0  0  0  0  0
    5.0628   -1.8280    0.0497 H   0  0  0  0  0  0  0  0  0  0  0  0
    5.8309    1.6156   -0.0624 H   0  0  0  0  0  0  0  0  0  0  0  0
  1  2  2  0  0  0  0
  1  3  1  0  0  0  0
  1  4  1  0  0  0  0
  2  5  1  0  0  0  0
  2  6  1  0  0  0  0
  3  7  1  0  0  0  0
  3  9  1  1  0  0  0
  3  8  1  0  0  0  0
  4 10  2  0  0  0  0
  4 28  1  0  0  0  0
  5 11  1  0  0  0  0
  5 12  2  0  0  0  0
  6 13  1  0  0  0  0
  6 29  1  0  0  0  0
  6 30  1  0  0  0  0
  7 14  2  0  0  0  0
  7 13  1  0  0  0  0
  8 15  1  0  0  0  0
  8 31  1  0  0  0  0
  8 32  1  0  0  0  0
  9 33  1  0  0  0  0
 10 16  1  0  0  0  0
 10 11  1  0  0  0  0
 11 17  1  0  0  0  0
 15 34  1  0  0  0  0
 15 35  1  0  0  0  0
 15 36  1  0  0  0  0
 16 18  2  0  0  0  0
 16 19  1  0  0  0  0
 17 18  1  0  0  0  0
 17 37  1  0  0  0  0
 17 38  1  0  0  0  0
 18 20  1  0  0  0  0
 19 21  2  0  0  0  0
 20 22  2  0  0  0  0
 20 39  1  0  0  0  0
 21 23  1  0  0  0  0
 21 22  1  0  0  0  0
 22 24  1  0  0  0  0
 23 25  2  0  0  0  0
 23 40  1  0  0  0  0
 24 26  2  0  0  0  0
 24 41  1  0  0  0  0
 25 26  1  0  0  0  0
 25 42  1  0  0  0  0
 26 27  1  0  0  0  0
 27 43  1  0  0  0  0
M  END
>  <Mol_ID>
1932

>  <Formula>
C20H16N2O5

>  <MolWeight>
364.35144

>  <Cat>
S3898

>  <Name>
Hydroxy Camptothecine

>  <Synonyms>
10-Hydroxycamptothecin, Hydroxycamptothecine

>  <Target>
Topoisomerase

>  <Form>
free base

>  <CAS>
64439-81-2

>  <URL>
http://selleckchem.com/products/hydroxy-camptothecine.html

$$$$
