S3905 Iso-Steviol.cdx
 OpenBabel08302520012D

 53 56  0  0  0  0  0  0  0  0999 V2000
    4.3124    5.1121    0.0000 C   0  0  2  0  0  0  0  0  0  0  0  0
    5.5002    4.4339    0.0000 C   0  0  1  0  0  0  0  0  0  0  0  0
    3.1010    4.4339    0.0000 C   0  0  1  0  0  0  0  0  0  0  0  0
    4.3124    6.4922    0.0000 C   0  0  0  0  0  0  0  0  0  0  0  0
    6.7352    5.1121    0.0000 C   0  0  0  0  0  0  0  0  0  0  0  0
    5.5002    3.0031    0.0000 C   0  0  0  0  0  0  0  0  0  0  0  0
    8.3582    4.4103    0.0000 C   0  0  0  0  0  0  0  0  0  0  0  0
    3.1010    3.0031    0.0000 C   0  0  2  0  0  0  0  0  0  0  0  0
    1.8896    5.1121    0.0000 C   0  0  0  0  0  0  0  0  0  0  0  0
    3.1010    5.8414    0.0000 C   0  0  0  0  0  0  0  0  0  0  0  0
    5.5002    7.2213    0.0000 C   0  0  0  0  0  0  0  0  0  0  0  0
    6.7352    6.4922    0.0000 C   0  0  2  0  0  0  0  0  0  0  0  0
    4.3124    2.3013    0.0000 C   0  0  0  0  0  0  0  0  0  0  0  0
    8.3582    6.4922    0.0000 C   0  0  0  0  0  0  0  0  0  0  0  0
    1.8896    2.3013    0.0000 C   0  0  1  0  0  0  0  0  0  0  0  0
    0.6782    4.4339    0.0000 C   0  0  0  0  0  0  0  0  0  0  0  0
    6.7352    7.8995    0.0000 C   0  0  0  0  0  0  0  0  0  0  0  0
    9.3500    7.5349    0.0000 O   0  0  0  0  0  0  0  0  0  0  0  0
    0.6782    3.0031    0.0000 C   0  0  0  0  0  0  0  0  0  0  0  0
    1.3565    1.0899    0.0000 C   0  0  0  0  0  0  0  0  0  0  0  0
    2.4464    1.0899    0.0000 C   0  0  0  0  0  0  0  0  0  0  0  0
    2.1562    0.0000    0.0000 O   0  0  0  0  0  0  0  0  0  0  0  0
    0.0000    0.9684    0.0000 O   0  0  0  0  0  0  0  0  0  0  0  0
    5.2378    5.6493    0.0000 H   0  0  0  0  0  0  0  0  0  0  0  0
    3.3786    7.0147    0.0000 H   0  0  0  0  0  0  0  0  0  0  0  0
    4.2908    7.5620    0.0000 H   0  0  0  0  0  0  0  0  0  0  0  0
    7.6561    4.5672    0.0000 H   0  0  0  0  0  0  0  0  0  0  0  0
    7.6647    5.6421    0.0000 H   0  0  0  0  0  0  0  0  0  0  0  0
    6.4295    2.4728    0.0000 H   0  0  0  0  0  0  0  0  0  0  0  0
    5.5083    1.9331    0.0000 H   0  0  0  0  0  0  0  0  0  0  0  0
    9.1117    3.6506    0.0000 H   0  0  0  0  0  0  0  0  0  0  0  0
    9.3476    4.8177    0.0000 H   0  0  0  0  0  0  0  0  0  0  0  0
    4.0280    3.5374    0.0000 H   0  0  0  0  0  0  0  0  0  0  0  0
    1.8896    6.1821    0.0000 H   0  0  0  0  0  0  0  0  0  0  0  0
    0.9665    5.6532    0.0000 H   0  0  0  0  0  0  0  0  0  0  0  0
    4.0276    6.3764    0.0000 H   0  0  0  0  0  0  0  0  0  0  0  0
    2.1744    6.3764    0.0000 H   0  0  0  0  0  0  0  0  0  0  0  0
    3.1010    6.9114    0.0000 H   0  0  0  0  0  0  0  0  0  0  0  0
    5.4910    8.2913    0.0000 H   0  0  0  0  0  0  0  0  0  0  0  0
    6.4271    7.7558    0.0000 H   0  0  0  0  0  0  0  0  0  0  0  0
    4.3170    1.2313    0.0000 H   0  0  0  0  0  0  0  0  0  0  0  0
    3.3865    1.7650    0.0000 H   0  0  0  0  0  0  0  0  0  0  0  0
   -0.2449    4.9750    0.0000 H   0  0  0  0  0  0  0  0  0  0  0  0
   -0.2502    3.9020    0.0000 H   0  0  0  0  0  0  0  0  0  0  0  0
    7.6618    8.4345    0.0000 H   0  0  0  0  0  0  0  0  0  0  0  0
    5.8086    8.4345    0.0000 H   0  0  0  0  0  0  0  0  0  0  0  0
    6.7352    8.9695    0.0000 H   0  0  0  0  0  0  0  0  0  0  0  0
   -0.2488    2.4688    0.0000 H   0  0  0  0  0  0  0  0  0  0  0  0
   -0.2482    3.5384    0.0000 H   0  0  0  0  0  0  0  0  0  0  0  0
    1.8279    0.2168    0.0000 H   0  0  0  0  0  0  0  0  0  0  0  0
    3.5118    0.9908    0.0000 H   0  0  0  0  0  0  0  0  0  0  0  0
    2.8933    0.1177    0.0000 H   0  0  0  0  0  0  0  0  0  0  0  0
    1.7791   -0.8578    0.0000 H   0  0  0  0  0  0  0  0  0  0  0  0
  1  2  1  0  0  0  0
  1  3  1  0  0  0  0
  1  4  1  0  0  0  0
  1 24  1  1  0  0  0
  2  5  1  1  0  0  0
  2  6  1  0  0  0  0
  2  7  1  0  0  0  0
  3  8  1  0  0  0  0
  3  9  1  0  0  0  0
  3 10  1  6  0  0  0
  4 11  1  0  0  0  0
  4 25  1  0  0  0  0
  4 26  1  0  0  0  0
  5 12  1  0  0  0  0
  5 27  1  0  0  0  0
  5 28  1  0  0  0  0
  6 13  1  0  0  0  0
  6 29  1  0  0  0  0
  6 30  1  0  0  0  0
  7 14  1  0  0  0  0
  7 31  1  0  0  0  0
  7 32  1  0  0  0  0
  8 15  1  0  0  0  0
  8 13  1  0  0  0  0
  8 33  1  1  0  0  0
  9 16  1  0  0  0  0
  9 34  1  0  0  0  0
  9 35  1  0  0  0  0
 10 36  1  0  0  0  0
 10 37  1  0  0  0  0
 10 38  1  0  0  0  0
 11 12  1  0  0  0  0
 11 39  1  0  0  0  0
 11 40  1  0  0  0  0
 12 17  1  1  0  0  0
 12 14  1  0  0  0  0
 13 41  1  0  0  0  0
 13 42  1  0  0  0  0
 14 18  2  0  0  0  0
 15 19  1  0  0  0  0
 15 20  1  6  0  0  0
 15 21  1  0  0  0  0
 16 19  1  0  0  0  0
 16 43  1  0  0  0  0
 16 44  1  0  0  0  0
 17 45  1  0  0  0  0
 17 46  1  0  0  0  0
 17 47  1  0  0  0  0
 19 48  1  0  0  0  0
 19 49  1  0  0  0  0
 20 22  1  0  0  0  0
 20 23  2  0  0  0  0
 21 50  1  0  0  0  0
 21 51  1  0  0  0  0
 21 52  1  0  0  0  0
 22 53  1  0  0  0  0
M  END
>  <Mol_ID>
1938

>  <Formula>
C20H30O3

>  <MolWeight>
318.4504

>  <Cat>
S3905

>  <Name>
Iso-Steviol

>  <Synonyms>
N/A

>  <Target>
Others

>  <Form>
free base

>  <CAS>
27975-19-5

>  <URL>
http://selleckchem.com/products/iso-steviol.html

$$$$
