S3908 4'-Demethylpodophyllotoxin.cdx
 OpenBabel08302519513D

 49 53  0  0  0  0  0  0  0  0999 V2000
   -1.2826   -1.4834    0.1855 C   0  0  2  0  0  0  0  0  0  0  0  0
    0.0315   -0.6928    0.0106 C   0  0  0  0  0  0  0  0  0  0  0  0
   -2.4010   -0.6201   -0.3920 C   0  0  2  0  0  0  0  0  0  0  0  0
   -1.4795   -1.9442    1.6335 C   0  0  0  0  0  0  0  0  0  0  0  0
    0.0389    0.7427   -0.0538 C   0  0  0  0  0  0  0  0  0  0  0  0
    1.2455   -1.4070   -0.0019 C   0  0  0  0  0  0  0  0  0  0  0  0
   -2.4523    0.7112    0.3182 C   0  0  1  0  0  0  0  0  0  0  0  0
   -3.8222   -1.0722   -0.2956 C   0  0  0  0  0  0  0  0  0  0  0  0
   -0.9699   -1.2080    2.7192 C   0  0  0  0  0  0  0  0  0  0  0  0
   -2.1549   -3.1433    1.9109 C   0  0  0  0  0  0  0  0  0  0  0  0
   -1.2555    1.5571   -0.0806 C   0  0  1  0  0  0  0  0  0  0  0  0
    1.2679    1.4218   -0.1481 C   0  0  0  0  0  0  0  0  0  0  0  0
    2.4193   -0.6925   -0.0934 C   0  0  0  0  0  0  0  0  0  0  0  0
   -3.8206    1.2157   -0.0553 C   0  0  0  0  0  0  0  0  0  0  0  0
   -4.6260    0.0241   -0.1012 O   0  0  0  0  0  0  0  0  0  0  0  0
   -4.2298   -2.2055   -0.4804 O   0  0  0  0  0  0  0  0  0  0  0  0
   -1.0982   -1.6592    4.0269 C   0  0  0  0  0  0  0  0  0  0  0  0
   -2.3061   -3.6186    3.2279 C   0  0  0  0  0  0  0  0  0  0  0  0
   -1.1976    2.6635    0.8128 O   0  0  0  0  0  0  0  0  0  0  0  0
    2.4300    0.6792   -0.1626 C   0  0  0  0  0  0  0  0  0  0  0  0
    3.6708   -1.2236   -0.1235 O   0  0  0  0  0  0  0  0  0  0  0  0
   -1.7644   -2.8717    4.2778 C   0  0  0  0  0  0  0  0  0  0  0  0
   -0.6096   -1.0167    5.1399 O   0  0  0  0  0  0  0  0  0  0  0  0
   -2.9847   -4.8061    3.2960 O   0  0  0  0  0  0  0  0  0  0  0  0
    3.6909    1.1826   -0.2474 O   0  0  0  0  0  0  0  0  0  0  0  0
    4.4625   -0.0350   -0.3244 C   0  0  0  0  0  0  0  0  0  0  0  0
   -1.8424   -3.2800    5.5837 O   0  0  0  0  0  0  0  0  0  0  0  0
    0.0792    0.2106    4.9164 C   0  0  0  0  0  0  0  0  0  0  0  0
   -3.2200   -5.3676    4.5800 C   0  0  0  0  0  0  0  0  0  0  0  0
   -1.2012   -2.3857   -0.4413 H   0  0  0  0  0  0  0  0  0  0  0  0
   -2.2195   -0.4642   -1.4676 H   0  0  0  0  0  0  0  0  0  0  0  0
    1.2695   -2.4903    0.0722 H   0  0  0  0  0  0  0  0  0  0  0  0
   -2.4692    0.5815    1.4080 H   0  0  0  0  0  0  0  0  0  0  0  0
   -0.4539   -0.2752    2.5242 H   0  0  0  0  0  0  0  0  0  0  0  0
   -2.5749   -3.7361    1.0993 H   0  0  0  0  0  0  0  0  0  0  0  0
   -1.3861    1.9496   -1.0961 H   0  0  0  0  0  0  0  0  0  0  0  0
    1.3138    2.5051   -0.2152 H   0  0  0  0  0  0  0  0  0  0  0  0
   -3.8604    1.7081   -1.0321 H   0  0  0  0  0  0  0  0  0  0  0  0
   -4.2270    1.8911    0.7040 H   0  0  0  0  0  0  0  0  0  0  0  0
   -0.6094    2.4257    1.5501 H   0  0  0  0  0  0  0  0  0  0  0  0
    5.2536   -0.0029    0.4329 H   0  0  0  0  0  0  0  0  0  0  0  0
    4.9270   -0.0896   -1.3164 H   0  0  0  0  0  0  0  0  0  0  0  0
   -1.3708   -2.5937    6.0955 H   0  0  0  0  0  0  0  0  0  0  0  0
    0.9424    0.0711    4.2556 H   0  0  0  0  0  0  0  0  0  0  0  0
   -0.6014    0.9733    4.5218 H   0  0  0  0  0  0  0  0  0  0  0  0
    0.4568    0.5652    5.8802 H   0  0  0  0  0  0  0  0  0  0  0  0
   -2.2814   -5.6632    5.0600 H   0  0  0  0  0  0  0  0  0  0  0  0
   -3.8121   -4.6966    5.2110 H   0  0  0  0  0  0  0  0  0  0  0  0
   -3.8109   -6.2781    4.4390 H   0  0  0  0  0  0  0  0  0  0  0  0
  1  2  1  0  0  0  0
  1  3  1  0  0  0  0
  1  4  1  0  0  0  0
  1 30  1  6  0  0  0
  2  5  1  0  0  0  0
  2  6  2  0  0  0  0
  3  7  1  0  0  0  0
  3  8  1  0  0  0  0
  3 31  1  6  0  0  0
  4  9  2  0  0  0  0
  4 10  1  0  0  0  0
  5 11  1  0  0  0  0
  5 12  2  0  0  0  0
  6 13  1  0  0  0  0
  6 32  1  0  0  0  0
  7 14  1  0  0  0  0
  7 11  1  0  0  0  0
  7 33  1  1  0  0  0
  8 15  1  0  0  0  0
  8 16  2  0  0  0  0
  9 17  1  0  0  0  0
  9 34  1  0  0  0  0
 10 18  2  0  0  0  0
 10 35  1  0  0  0  0
 11 19  1  0  0  0  0
 11 36  1  6  0  0  0
 12 20  1  0  0  0  0
 12 37  1  0  0  0  0
 13 21  1  0  0  0  0
 13 20  2  0  0  0  0
 14 15  1  0  0  0  0
 14 38  1  0  0  0  0
 14 39  1  0  0  0  0
 17 22  2  0  0  0  0
 17 23  1  0  0  0  0
 18 24  1  0  0  0  0
 18 22  1  0  0  0  0
 19 40  1  0  0  0  0
 20 25  1  0  0  0  0
 21 26  1  0  0  0  0
 22 27  1  0  0  0  0
 23 28  1  0  0  0  0
 24 29  1  0  0  0  0
 25 26  1  0  0  0  0
 26 41  1  0  0  0  0
 26 42  1  0  0  0  0
 27 43  1  0  0  0  0
 28 44  1  0  0  0  0
 28 45  1  0  0  0  0
 28 46  1  0  0  0  0
 29 47  1  0  0  0  0
 29 48  1  0  0  0  0
 29 49  1  0  0  0  0
M  END
>  <Mol_ID>
1904

>  <Formula>
C21H20O8

>  <MolWeight>
400.3787

>  <Cat>
S3908

>  <Name>
4'-Demethylpodophyllotoxin

>  <Synonyms>
N/A

>  <Target>
Others

>  <Form>
free base

>  <CAS>
40505-27-9

>  <URL>
http://selleckchem.com/products/4-demethylpodophyllotoxin.html

$$$$
