S3910 4',7-Dimethoxyisoflavone.cdx
 OpenBabel08302519513D

 35 37  0  0  0  0  0  0  0  0999 V2000
    0.0537    0.5128    0.0114 C   0  0  0  0  0  0  0  0  0  0  0  0
    0.4425   -0.8236    0.0117 C   0  0  0  0  0  0  0  0  0  0  0  0
   -1.3819    0.8449    0.0224 C   0  0  0  0  0  0  0  0  0  0  0  0
    1.0152    1.5253   -0.0000 C   0  0  0  0  0  0  0  0  0  0  0  0
    1.7999   -1.1514    0.0032 C   0  0  0  0  0  0  0  0  0  0  0  0
   -0.4593   -1.8582    0.0184 O   0  0  0  0  0  0  0  0  0  0  0  0
   -2.3226   -0.3048    0.0221 C   0  0  0  0  0  0  0  0  0  0  0  0
   -1.7591    2.0090    0.0314 O   0  0  0  0  0  0  0  0  0  0  0  0
    2.3739    1.1960   -0.0113 C   0  0  0  0  0  0  0  0  0  0  0  0
    2.7723   -0.1443   -0.0080 C   0  0  0  0  0  0  0  0  0  0  0  0
   -1.7977   -1.5388    0.0188 C   0  0  0  0  0  0  0  0  0  0  0  0
   -3.7749   -0.1063    0.0198 C   0  0  0  0  0  0  0  0  0  0  0  0
    4.0657   -0.5899   -0.0159 O   0  0  0  0  0  0  0  0  0  0  0  0
   -4.4862   -0.0533    1.2232 C   0  0  0  0  0  0  0  0  0  0  0  0
   -4.4662    0.0395   -1.1871 C   0  0  0  0  0  0  0  0  0  0  0  0
    5.0846    0.4046   -0.0260 C   0  0  0  0  0  0  0  0  0  0  0  0
   -5.8703    0.1595    1.2227 C   0  0  0  0  0  0  0  0  0  0  0  0
   -5.8480    0.2511   -1.1837 C   0  0  0  0  0  0  0  0  0  0  0  0
   -6.5577    0.3132    0.0185 C   0  0  0  0  0  0  0  0  0  0  0  0
   -7.9019    0.5245   -0.1180 O   0  0  0  0  0  0  0  0  0  0  0  0
   -8.6626    0.6031    1.0813 C   0  0  0  0  0  0  0  0  0  0  0  0
    0.7118    2.5704   -0.0021 H   0  0  0  0  0  0  0  0  0  0  0  0
    2.1055   -2.1947    0.0043 H   0  0  0  0  0  0  0  0  0  0  0  0
    3.0922    2.0094   -0.0227 H   0  0  0  0  0  0  0  0  0  0  0  0
   -2.3912   -2.4456    0.0139 H   0  0  0  0  0  0  0  0  0  0  0  0
   -3.9691   -0.1620    2.1743 H   0  0  0  0  0  0  0  0  0  0  0  0
   -3.9370    0.0041   -2.1364 H   0  0  0  0  0  0  0  0  0  0  0  0
    5.0297    1.0151   -0.9336 H   0  0  0  0  0  0  0  0  0  0  0  0
    5.0362    1.0283    0.8735 H   0  0  0  0  0  0  0  0  0  0  0  0
    6.0529   -0.1043   -0.0256 H   0  0  0  0  0  0  0  0  0  0  0  0
   -6.3772    0.2062    2.1806 H   0  0  0  0  0  0  0  0  0  0  0  0
   -6.3747    0.3771   -2.1266 H   0  0  0  0  0  0  0  0  0  0  0  0
   -8.5609   -0.3088    1.6789 H   0  0  0  0  0  0  0  0  0  0  0  0
   -8.3858    1.4895    1.6618 H   0  0  0  0  0  0  0  0  0  0  0  0
   -9.7171    0.6983    0.8049 H   0  0  0  0  0  0  0  0  0  0  0  0
  1  2  2  0  0  0  0
  1  3  1  0  0  0  0
  1  4  1  0  0  0  0
  2  5  1  0  0  0  0
  2  6  1  0  0  0  0
  3  7  1  0  0  0  0
  3  8  2  0  0  0  0
  4  9  2  0  0  0  0
  4 22  1  0  0  0  0
  5 10  2  0  0  0  0
  5 23  1  0  0  0  0
  6 11  1  0  0  0  0
  7 12  1  0  0  0  0
  7 11  2  0  0  0  0
  9 10  1  0  0  0  0
  9 24  1  0  0  0  0
 10 13  1  0  0  0  0
 11 25  1  0  0  0  0
 12 14  2  0  0  0  0
 12 15  1  0  0  0  0
 13 16  1  0  0  0  0
 14 17  1  0  0  0  0
 14 26  1  0  0  0  0
 15 18  2  0  0  0  0
 15 27  1  0  0  0  0
 16 28  1  0  0  0  0
 16 29  1  0  0  0  0
 16 30  1  0  0  0  0
 17 19  2  0  0  0  0
 17 31  1  0  0  0  0
 18 19  1  0  0  0  0
 18 32  1  0  0  0  0
 19 20  1  0  0  0  0
 20 21  1  0  0  0  0
 21 33  1  0  0  0  0
 21 34  1  0  0  0  0
 21 35  1  0  0  0  0
M  END
>  <Mol_ID>
1906

>  <Formula>
C17H14O4

>  <MolWeight>
282.29066

>  <Cat>
S3910

>  <Name>
4',7-Dimethoxyisoflavone

>  <Synonyms>
N/A

>  <Target>
Fungal

>  <Form>
free base

>  <CAS>
1157-39-7

>  <URL>
http://selleckchem.com/products/4-7-dimethoxyisoflavone.html

$$$$
