S3918 4',7-Dimethoxy-5-Hydroxyflavone.cdx
 OpenBabel08302519513D

 36 38  0  0  0  0  0  0  0  0999 V2000
    0.0665    0.2695    0.0383 C   0  0  0  0  0  0  0  0  0  0  0  0
   -0.0919   -1.1181    0.0443 C   0  0  0  0  0  0  0  0  0  0  0  0
   -1.1554    1.1078    0.0450 C   0  0  0  0  0  0  0  0  0  0  0  0
    1.3608    0.8038    0.0181 C   0  0  0  0  0  0  0  0  0  0  0  0
   -1.3191   -1.7392    0.0618 O   0  0  0  0  0  0  0  0  0  0  0  0
    1.0258   -1.9586    0.0259 C   0  0  0  0  0  0  0  0  0  0  0  0
   -2.4427    0.3926    0.0503 C   0  0  0  0  0  0  0  0  0  0  0  0
   -1.1612    2.3320    0.0353 O   0  0  0  0  0  0  0  0  0  0  0  0
    2.4802   -0.0372   -0.0034 C   0  0  0  0  0  0  0  0  0  0  0  0
    1.5591    2.1555    0.0150 O   0  0  0  0  0  0  0  0  0  0  0  0
   -2.4466   -0.9446    0.0552 C   0  0  0  0  0  0  0  0  0  0  0  0
    2.3158   -1.4227   -0.0013 C   0  0  0  0  0  0  0  0  0  0  0  0
   -3.7135   -1.6802    0.0119 C   0  0  0  0  0  0  0  0  0  0  0  0
    3.3246   -2.3465   -0.0275 O   0  0  0  0  0  0  0  0  0  0  0  0
   -4.2751   -2.0267   -1.2216 C   0  0  0  0  0  0  0  0  0  0  0  0
   -4.3906   -2.0168    1.1882 C   0  0  0  0  0  0  0  0  0  0  0  0
    4.6568   -1.8465   -0.0622 C   0  0  0  0  0  0  0  0  0  0  0  0
   -5.4969   -2.7050   -1.2839 C   0  0  0  0  0  0  0  0  0  0  0  0
   -5.6129   -2.6936    1.1227 C   0  0  0  0  0  0  0  0  0  0  0  0
   -6.1744   -3.0385   -0.1098 C   0  0  0  0  0  0  0  0  0  0  0  0
   -7.3764   -3.6874   -0.0348 O   0  0  0  0  0  0  0  0  0  0  0  0
   -7.9834   -4.0563   -1.2673 C   0  0  0  0  0  0  0  0  0  0  0  0
    0.8906   -3.0376    0.0287 H   0  0  0  0  0  0  0  0  0  0  0  0
   -3.3405    0.9971    0.0336 H   0  0  0  0  0  0  0  0  0  0  0  0
    3.4697    0.4051   -0.0233 H   0  0  0  0  0  0  0  0  0  0  0  0
    2.5056    2.3661    0.0202 H   0  0  0  0  0  0  0  0  0  0  0  0
   -3.7651   -1.7689   -2.1477 H   0  0  0  0  0  0  0  0  0  0  0  0
   -3.9768   -1.7564    2.1589 H   0  0  0  0  0  0  0  0  0  0  0  0
    4.8341   -1.2591   -0.9693 H   0  0  0  0  0  0  0  0  0  0  0  0
    4.8814   -1.2625    0.8365 H   0  0  0  0  0  0  0  0  0  0  0  0
    5.3382   -2.7025   -0.0818 H   0  0  0  0  0  0  0  0  0  0  0  0
   -5.8925   -2.9519   -2.2625 H   0  0  0  0  0  0  0  0  0  0  0  0
   -6.1342   -2.9528    2.0419 H   0  0  0  0  0  0  0  0  0  0  0  0
   -8.1674   -3.1813   -1.8998 H   0  0  0  0  0  0  0  0  0  0  0  0
   -7.3783   -4.8031   -1.7921 H   0  0  0  0  0  0  0  0  0  0  0  0
   -8.9536   -4.5094   -1.0422 H   0  0  0  0  0  0  0  0  0  0  0  0
  1  2  2  0  0  0  0
  1  3  1  0  0  0  0
  1  4  1  0  0  0  0
  2  5  1  0  0  0  0
  2  6  1  0  0  0  0
  3  7  1  0  0  0  0
  3  8  2  0  0  0  0
  4  9  2  0  0  0  0
  4 10  1  0  0  0  0
  5 11  1  0  0  0  0
  6 12  2  0  0  0  0
  6 23  1  0  0  0  0
  7 11  2  0  0  0  0
  7 24  1  0  0  0  0
  9 12  1  0  0  0  0
  9 25  1  0  0  0  0
 10 26  1  0  0  0  0
 11 13  1  0  0  0  0
 12 14  1  0  0  0  0
 13 15  2  0  0  0  0
 13 16  1  0  0  0  0
 14 17  1  0  0  0  0
 15 18  1  0  0  0  0
 15 27  1  0  0  0  0
 16 19  2  0  0  0  0
 16 28  1  0  0  0  0
 17 29  1  0  0  0  0
 17 30  1  0  0  0  0
 17 31  1  0  0  0  0
 18 20  2  0  0  0  0
 18 32  1  0  0  0  0
 19 20  1  0  0  0  0
 19 33  1  0  0  0  0
 20 21  1  0  0  0  0
 21 22  1  0  0  0  0
 22 34  1  0  0  0  0
 22 35  1  0  0  0  0
 22 36  1  0  0  0  0
M  END
>  <Mol_ID>
1811

>  <Formula>
C17H14O5

>  <MolWeight>
298.29006

>  <Cat>
S3918

>  <Name>
4',7-Dimethoxy-5-Hydroxyflavone

>  <Synonyms>
apigenin dimethylether; apigenin 7,4'-dimethyl ether; genkwanin 4'-methyl ether; 4',7-dimethylapigenin

>  <Target>
Carbohydrate Metabolism

>  <Form>
free base

>  <CAS>
5128-44-9

>  <URL>
http://selleckchem.com/products/4-7-dimethoxy-5-hydroxyflavone.html

$$$$
