S3911 Veratramine.cdx
 OpenBabel08302519513D

 69 73  0  0  0  0  0  0  0  0999 V2000
    2.4662    1.6597  -11.9421 C   0  0  1  0  0  0  0  0  0  0  0  0
    3.5234    0.6071  -11.9649 C   0  0  2  0  0  0  0  0  0  0  0  0
    1.2145    1.0906  -12.6890 C   0  0  2  0  0  0  0  0  0  0  0  0
    2.8288    2.8958  -11.1125 C   0  0  0  0  0  0  0  0  0  0  0  0
    3.6518    0.8467  -10.4215 C   0  0  0  0  0  0  0  0  0  0  0  0
    3.9128    1.0181  -13.5617 C   0  0  0  0  0  0  0  0  0  0  0  0
    1.3769    1.9716  -13.8940 C   0  0  0  0  0  0  0  0  0  0  0  0
   -0.0687    1.1227  -11.8874 C   0  0  0  0  0  0  0  0  0  0  0  0
    1.2072   -0.3732  -13.2885 C   0  0  0  0  0  0  0  0  0  0  0  0
    3.3337    2.1486   -9.9735 C   0  0  0  0  0  0  0  0  0  0  0  0
    3.3891   -0.0910   -9.4316 C   0  0  0  0  0  0  0  0  0  0  0  0
    2.6174    1.7586  -14.5011 C   0  0  0  0  0  0  0  0  0  0  0  0
    0.7460    3.3764  -13.6217 C   0  0  0  0  0  0  0  0  0  0  0  0
   -0.3243    2.4622  -11.2731 C   0  0  0  0  0  0  0  0  0  0  0  0
    3.1435    2.6388   -8.6843 C   0  0  0  0  0  0  0  0  0  0  0  0
    3.1099    0.3390   -8.0986 C   0  0  0  0  0  0  0  0  0  0  0  0
   -0.1898    3.5781  -12.3280 C   0  0  2  0  0  0  0  0  0  0  0  0
    3.1962    1.7077   -7.6699 C   0  0  0  0  0  0  0  0  0  0  0  0
    2.8004    4.0942   -8.4940 C   0  0  0  0  0  0  0  0  0  0  0  0
   -1.5048    3.9119  -12.7711 O   0  0  0  0  0  0  0  0  0  0  0  0
    3.3341    2.1252   -6.1873 C   0  0  1  0  0  0  0  0  0  0  0  0
    3.9394    0.9632   -5.3645 C   0  0  1  0  0  0  0  0  0  0  0  0
    4.1945    3.3894   -5.8944 C   0  0  0  0  0  0  0  0  0  0  0  0
    5.4075    0.5980   -5.7653 C   0  0  1  0  0  0  0  0  0  0  0  0
    3.9535    1.1383   -3.8916 N   0  0  0  0  0  0  0  0  0  0  0  0
    5.6024   -0.8410   -5.3312 C   0  0  0  0  0  0  0  0  0  0  0  0
    5.8212    0.7588   -7.1109 O   0  0  0  0  0  0  0  0  0  0  0  0
    4.2830   -0.1376   -3.2339 C   0  0  0  0  0  0  0  0  0  0  0  0
    5.5333   -0.8608   -3.7996 C   0  0  1  0  0  0  0  0  0  0  0  0
    5.6187   -2.3021   -3.3171 C   0  0  0  0  0  0  0  0  0  0  0  0
    2.8516    2.4031  -12.6353 H   0  0  0  0  0  0  0  0  0  0  0  0
    3.2166   -0.4466  -12.0309 H   0  0  0  0  0  0  0  0  0  0  0  0
    2.0019    3.5660  -10.9489 H   0  0  0  0  0  0  0  0  0  0  0  0
    3.6869    3.4936  -11.4844 H   0  0  0  0  0  0  0  0  0  0  0  0
    4.2456    0.1380  -14.1200 H   0  0  0  0  0  0  0  0  0  0  0  0
    4.7359    1.7487  -13.5511 H   0  0  0  0  0  0  0  0  0  0  0  0
   -0.9230    0.8582  -12.5228 H   0  0  0  0  0  0  0  0  0  0  0  0
   -0.0240    0.3564  -11.0993 H   0  0  0  0  0  0  0  0  0  0  0  0
    2.0611   -0.6365  -13.9234 H   0  0  0  0  0  0  0  0  0  0  0  0
    1.1494   -1.1349  -12.5054 H   0  0  0  0  0  0  0  0  0  0  0  0
    0.3330   -0.5051  -13.9437 H   0  0  0  0  0  0  0  0  0  0  0  0
    3.2800   -1.1464   -9.6756 H   0  0  0  0  0  0  0  0  0  0  0  0
    2.9872    2.4380  -15.2615 H   0  0  0  0  0  0  0  0  0  0  0  0
    1.5861    4.0634  -13.4404 H   0  0  0  0  0  0  0  0  0  0  0  0
    0.2228    3.7436  -14.5024 H   0  0  0  0  0  0  0  0  0  0  0  0
    0.3587    2.5862  -10.4259 H   0  0  0  0  0  0  0  0  0  0  0  0
   -1.3156    2.4471  -10.8032 H   0  0  0  0  0  0  0  0  0  0  0  0
    2.8599   -0.4483   -7.3890 H   0  0  0  0  0  0  0  0  0  0  0  0
    0.1472    4.4681  -11.7813 H   0  0  0  0  0  0  0  0  0  0  0  0
    3.7008    4.7102   -8.5839 H   0  0  0  0  0  0  0  0  0  0  0  0
    2.0721    4.4530   -9.2239 H   0  0  0  0  0  0  0  0  0  0  0  0
    2.2867    4.2782   -7.5476 H   0  0  0  0  0  0  0  0  0  0  0  0
   -1.8289    3.1508  -13.2850 H   0  0  0  0  0  0  0  0  0  0  0  0
    2.3129    2.3283   -5.8283 H   0  0  0  0  0  0  0  0  0  0  0  0
    3.2625    0.1133   -5.5187 H   0  0  0  0  0  0  0  0  0  0  0  0
    3.8524    4.3108   -6.3590 H   0  0  0  0  0  0  0  0  0  0  0  0
    4.1783    3.6150   -4.8240 H   0  0  0  0  0  0  0  0  0  0  0  0
    5.2354    3.2606   -6.2061 H   0  0  0  0  0  0  0  0  0  0  0  0
    6.0934    1.2461   -5.2049 H   0  0  0  0  0  0  0  0  0  0  0  0
    3.0520    1.4860   -3.5606 H   0  0  0  0  0  0  0  0  0  0  0  0
    4.8183   -1.4787   -5.7699 H   0  0  0  0  0  0  0  0  0  0  0  0
    6.5543   -1.2331   -5.7044 H   0  0  0  0  0  0  0  0  0  0  0  0
    5.3295    0.1523   -7.6829 H   0  0  0  0  0  0  0  0  0  0  0  0
    3.4067   -0.7953   -3.2944 H   0  0  0  0  0  0  0  0  0  0  0  0
    4.4488    0.0676   -2.1685 H   0  0  0  0  0  0  0  0  0  0  0  0
    6.4171   -0.3248   -3.4333 H   0  0  0  0  0  0  0  0  0  0  0  0
    6.4656   -2.8103   -3.7946 H   0  0  0  0  0  0  0  0  0  0  0  0
    5.7630   -2.3385   -2.2359 H   0  0  0  0  0  0  0  0  0  0  0  0
    4.7103   -2.8578   -3.5696 H   0  0  0  0  0  0  0  0  0  0  0  0
  1  2  1  0  0  0  0
  1  3  1  0  0  0  0
  1  4  1  0  0  0  0
  1 31  1  6  0  0  0
  2  5  1  0  0  0  0
  2  6  1  0  0  0  0
  2 32  1  6  0  0  0
  3  7  1  0  0  0  0
  3  8  1  0  0  0  0
  3  9  1  6  0  0  0
  4 10  1  0  0  0  0
  4 33  1  0  0  0  0
  4 34  1  0  0  0  0
  5 11  2  0  0  0  0
  5 10  1  0  0  0  0
  6 12  1  0  0  0  0
  6 35  1  0  0  0  0
  6 36  1  0  0  0  0
  7 13  1  0  0  0  0
  7 12  2  0  0  0  0
  8 14  1  0  0  0  0
  8 37  1  0  0  0  0
  8 38  1  0  0  0  0
  9 39  1  0  0  0  0
  9 40  1  0  0  0  0
  9 41  1  0  0  0  0
 10 15  2  0  0  0  0
 11 16  1  0  0  0  0
 11 42  1  0  0  0  0
 12 43  1  0  0  0  0
 13 17  1  0  0  0  0
 13 44  1  0  0  0  0
 13 45  1  0  0  0  0
 14 17  1  0  0  0  0
 14 46  1  0  0  0  0
 14 47  1  0  0  0  0
 15 18  1  0  0  0  0
 15 19  1  0  0  0  0
 16 18  2  0  0  0  0
 16 48  1  0  0  0  0
 17 49  1  1  0  0  0
 17 20  1  0  0  0  0
 18 21  1  0  0  0  0
 19 50  1  0  0  0  0
 19 51  1  0  0  0  0
 19 52  1  0  0  0  0
 20 53  1  0  0  0  0
 21 23  1  0  0  0  0
 21 54  1  1  0  0  0
 22 24  1  0  0  0  0
 22 25  1  0  0  0  0
 22 55  1  6  0  0  0
 22 21  1  0  0  0  0
 23 56  1  0  0  0  0
 23 57  1  0  0  0  0
 23 58  1  0  0  0  0
 24 26  1  0  0  0  0
 24 27  1  0  0  0  0
 24 59  1  1  0  0  0
 25 28  1  0  0  0  0
 25 60  1  0  0  0  0
 26 29  1  0  0  0  0
 26 61  1  0  0  0  0
 26 62  1  0  0  0  0
 27 63  1  0  0  0  0
 28 29  1  0  0  0  0
 28 64  1  0  0  0  0
 28 65  1  0  0  0  0
 29 30  1  0  0  0  0
 29 66  1  1  0  0  0
 30 67  1  0  0  0  0
 30 68  1  0  0  0  0
 30 69  1  0  0  0  0
M  END
>  <Mol_ID>
1809

>  <Formula>
C27H39NO2

>  <MolWeight>
409.60406

>  <Cat>
S3911

>  <Name>
Veratramine

>  <Synonyms>
NSC 17821, NSC 23880

>  <Target>
Sodium Channel

>  <Form>
free base

>  <CAS>
60-70-8

>  <URL>
http://selleckchem.com/products/veratramine.html

$$$$
