S3929 Liquiritigenin.cdx
 OpenBabel08302519513D

 31 33  0  0  0  0  0  0  0  0999 V2000
   -2.3793    0.6508   -0.3505 C   0  0  2  0  0  0  0  0  0  0  0  0
   -2.4672   -0.6975    0.3552 C   0  0  0  0  0  0  0  0  0  0  0  0
   -1.2499   -1.4822   -0.0237 C   0  0  0  0  0  0  0  0  0  0  0  0
    0.0075   -0.7181   -0.0639 C   0  0  0  0  0  0  0  0  0  0  0  0
   -0.0515    0.6749    0.0160 C   0  0  0  0  0  0  0  0  0  0  0  0
   -1.2224    1.3875    0.0891 O   0  0  0  0  0  0  0  0  0  0  0  0
    1.1365    1.4032    0.0651 C   0  0  0  0  0  0  0  0  0  0  0  0
    2.3603    0.7344    0.0144 C   0  0  0  0  0  0  0  0  0  0  0  0
    2.4183   -0.6536   -0.0829 C   0  0  0  0  0  0  0  0  0  0  0  0
    1.2345   -1.3861   -0.1238 C   0  0  0  0  0  0  0  0  0  0  0  0
   -1.2700   -2.6905   -0.2261 O   0  0  0  0  0  0  0  0  0  0  0  0
   -3.6540    1.4314   -0.0637 C   0  0  0  0  0  0  0  0  0  0  0  0
   -3.7638    2.2787    1.0495 C   0  0  0  0  0  0  0  0  0  0  0  0
   -4.9885    2.8652    1.3772 C   0  0  0  0  0  0  0  0  0  0  0  0
   -6.1085    2.6109    0.5959 C   0  0  0  0  0  0  0  0  0  0  0  0
   -6.0196    1.8071   -0.5364 C   0  0  0  0  0  0  0  0  0  0  0  0
   -4.7936    1.2196   -0.8629 C   0  0  0  0  0  0  0  0  0  0  0  0
   -7.2934    3.1614    0.9844 O   0  0  0  0  0  0  0  0  0  0  0  0
    3.4975    1.4854    0.0658 O   0  0  0  0  0  0  0  0  0  0  0  0
   -2.2896    0.5259   -1.4393 H   0  0  0  0  0  0  0  0  0  0  0  0
   -2.4771   -0.5947    1.4475 H   0  0  0  0  0  0  0  0  0  0  0  0
   -3.3590   -1.2542    0.0452 H   0  0  0  0  0  0  0  0  0  0  0  0
    1.1152    2.4878    0.1401 H   0  0  0  0  0  0  0  0  0  0  0  0
    3.3692   -1.1781   -0.1145 H   0  0  0  0  0  0  0  0  0  0  0  0
    1.2661   -2.4725   -0.1788 H   0  0  0  0  0  0  0  0  0  0  0  0
   -2.9022    2.4702    1.6856 H   0  0  0  0  0  0  0  0  0  0  0  0
   -5.0720    3.5010    2.2538 H   0  0  0  0  0  0  0  0  0  0  0  0
   -6.8864    1.6137   -1.1578 H   0  0  0  0  0  0  0  0  0  0  0  0
   -4.7405    0.5694   -1.7343 H   0  0  0  0  0  0  0  0  0  0  0  0
   -7.9983    2.8165    0.4125 H   0  0  0  0  0  0  0  0  0  0  0  0
    4.2696    0.8918    0.0354 H   0  0  0  0  0  0  0  0  0  0  0  0
  1  2  1  0  0  0  0
  1  6  1  0  0  0  0
  1 20  1  6  0  0  0
  1 12  1  0  0  0  0
  2  3  1  0  0  0  0
  2 21  1  0  0  0  0
  2 22  1  0  0  0  0
  3  4  1  0  0  0  0
  3 11  2  0  0  0  0
  4  5  2  0  0  0  0
  4 10  1  0  0  0  0
  5  6  1  0  0  0  0
  5  7  1  0  0  0  0
  7  8  2  0  0  0  0
  7 23  1  0  0  0  0
  8  9  1  0  0  0  0
  8 19  1  0  0  0  0
  9 10  2  0  0  0  0
  9 24  1  0  0  0  0
 10 25  1  0  0  0  0
 12 13  2  0  0  0  0
 12 17  1  0  0  0  0
 13 14  1  0  0  0  0
 13 26  1  0  0  0  0
 14 15  2  0  0  0  0
 14 27  1  0  0  0  0
 15 16  1  0  0  0  0
 15 18  1  0  0  0  0
 16 17  2  0  0  0  0
 16 28  1  0  0  0  0
 17 29  1  0  0  0  0
 18 30  1  0  0  0  0
 19 31  1  0  0  0  0
M  END
>  <Mol_ID>
1812

>  <Formula>
C15H12O4

>  <MolWeight>
256.25338

>  <Cat>
S3929

>  <Name>
Liquiritigenin

>  <Synonyms>
4',7-Dihydroxyflavanone

>  <Target>
Estrogen/progestogen Receptor

>  <Form>
free base

>  <CAS>
578-86-9

>  <URL>
http://selleckchem.com/products/liquiritigenin.html

$$$$
