S3927 Swertiamarin.cdx
 OpenBabel08302519513D

 48 50  0  0  0  0  0  0  0  0999 V2000
   -1.7091    2.6994    0.2376 C   0  0  0  0  0  0  0  0  0  0  0  0
   -2.6985    3.6737   -0.3032 C   0  0  2  0  0  0  0  0  0  0  0  0
   -4.3392    2.0037   -3.7440 C   0  0  1  0  0  0  0  0  0  0  0  0
   -2.4849    3.8958   -1.8360 C   0  0  2  0  0  0  0  0  0  0  0  0
   -5.2183    0.7666   -4.0377 C   0  0  1  0  0  0  0  0  0  0  0  0
   -5.7921    0.9837   -5.4396 C   0  0  2  0  0  0  0  0  0  0  0  0
   -2.3328    2.5084   -2.5193 C   0  0  2  0  0  0  0  0  0  0  0  0
   -5.2058    3.1391   -3.6121 O   0  0  0  0  0  0  0  0  0  0  0  0
   -1.0950    1.8220   -0.5718 C   0  0  0  0  0  0  0  0  0  0  0  0
   -3.5680    1.7724   -2.5644 O   0  0  0  0  0  0  0  0  0  0  0  0
   -6.6656    2.2425   -5.4548 C   0  0  1  0  0  0  0  0  0  0  0  0
   -1.3141    2.7244    1.6645 C   0  0  0  0  0  0  0  0  0  0  0  0
   -5.9299    3.4477   -4.8224 C   0  0  1  0  0  0  0  0  0  0  0  0
   -1.3054    1.6883   -1.9181 O   0  0  0  0  0  0  0  0  0  0  0  0
   -1.3911    4.9176   -2.1953 C   0  0  0  0  0  0  0  0  0  0  0  0
   -1.8641    3.6906    2.4384 O   0  0  0  0  0  0  0  0  0  0  0  0
   -0.5114    1.9286    2.1285 O   0  0  0  0  0  0  0  0  0  0  0  0
   -2.6674    4.9638    0.5121 C   0  0  0  0  0  0  0  0  0  0  0  0
   -4.5408   -0.4968   -4.0307 O   0  0  0  0  0  0  0  0  0  0  0  0
   -6.5278   -0.1689   -5.8577 O   0  0  0  0  0  0  0  0  0  0  0  0
   -0.2475    4.7385   -2.8763 C   0  0  0  0  0  0  0  0  0  0  0  0
   -7.0513    2.5910   -6.7934 O   0  0  0  0  0  0  0  0  0  0  0  0
   -2.8669    4.6099    1.9716 C   0  0  0  0  0  0  0  0  0  0  0  0
   -6.9336    4.5861   -4.5448 C   0  0  0  0  0  0  0  0  0  0  0  0
   -7.9815    4.1826   -3.6683 O   0  0  0  0  0  0  0  0  0  0  0  0
   -4.0291    3.1538   -0.1133 O   0  0  0  0  0  0  0  0  0  0  0  0
   -3.6554    2.1612   -4.5899 H   0  0  0  0  0  0  0  0  0  0  0  0
   -3.4104    4.3426   -2.2270 H   0  0  0  0  0  0  0  0  0  0  0  0
   -6.0303    0.6905   -3.3027 H   0  0  0  0  0  0  0  0  0  0  0  0
   -4.9755    1.0800   -6.1669 H   0  0  0  0  0  0  0  0  0  0  0  0
   -1.9825    2.6476   -3.5479 H   0  0  0  0  0  0  0  0  0  0  0  0
   -0.3360    1.1192   -0.2415 H   0  0  0  0  0  0  0  0  0  0  0  0
   -7.5899    2.0172   -4.9100 H   0  0  0  0  0  0  0  0  0  0  0  0
   -5.1977    3.8388   -5.5416 H   0  0  0  0  0  0  0  0  0  0  0  0
   -1.5998    5.9362   -1.8742 H   0  0  0  0  0  0  0  0  0  0  0  0
   -3.4679    5.6435    0.1941 H   0  0  0  0  0  0  0  0  0  0  0  0
   -1.7072    5.4832    0.4081 H   0  0  0  0  0  0  0  0  0  0  0  0
   -3.6418   -0.3761   -4.3804 H   0  0  0  0  0  0  0  0  0  0  0  0
   -6.0783   -0.9372   -5.4496 H   0  0  0  0  0  0  0  0  0  0  0  0
    0.0744    3.7811   -3.2596 H   0  0  0  0  0  0  0  0  0  0  0  0
    0.4172    5.5758   -3.0553 H   0  0  0  0  0  0  0  0  0  0  0  0
   -6.3234    2.3823   -7.4015 H   0  0  0  0  0  0  0  0  0  0  0  0
   -3.8522    4.1739    2.1717 H   0  0  0  0  0  0  0  0  0  0  0  0
   -2.7879    5.5131    2.5851 H   0  0  0  0  0  0  0  0  0  0  0  0
   -6.4352    5.4426   -4.0812 H   0  0  0  0  0  0  0  0  0  0  0  0
   -7.3967    4.9221   -5.4784 H   0  0  0  0  0  0  0  0  0  0  0  0
   -7.6047    4.1122   -2.7740 H   0  0  0  0  0  0  0  0  0  0  0  0
   -3.9874    2.3272    0.4019 H   0  0  0  0  0  0  0  0  0  0  0  0
  2  1  1  0  0  0  0
  2 26  1  1  0  0  0
  3 10  1  0  0  0  0
  3 27  1  6  0  0  0
  4  2  1  0  0  0  0
  4 15  1  0  0  0  0
  4 28  1  6  0  0  0
  5  3  1  0  0  0  0
  5 19  1  0  0  0  0
  5 29  1  1  0  0  0
  6  5  1  0  0  0  0
  6 30  1  6  0  0  0
  6 20  1  0  0  0  0
  7  4  1  0  0  0  0
  7 14  1  0  0  0  0
  7 31  1  6  0  0  0
  7 10  1  0  0  0  0
  8  3  1  0  0  0  0
  9  1  2  0  0  0  0
  9 32  1  0  0  0  0
 11  6  1  0  0  0  0
 11 13  1  0  0  0  0
 11 22  1  0  0  0  0
 11 33  1  1  0  0  0
 12  1  1  0  0  0  0
 13  8  1  0  0  0  0
 13 34  1  6  0  0  0
 13 24  1  0  0  0  0
 14  9  1  0  0  0  0
 15 35  1  0  0  0  0
 16 12  1  0  0  0  0
 17 12  2  0  0  0  0
 18  2  1  0  0  0  0
 18 36  1  0  0  0  0
 18 37  1  0  0  0  0
 19 38  1  0  0  0  0
 20 39  1  0  0  0  0
 21 15  2  0  0  0  0
 21 40  1  0  0  0  0
 21 41  1  0  0  0  0
 22 42  1  0  0  0  0
 23 16  1  0  0  0  0
 23 18  1  0  0  0  0
 23 43  1  0  0  0  0
 23 44  1  0  0  0  0
 24 45  1  0  0  0  0
 24 46  1  0  0  0  0
 25 24  1  0  0  0  0
 25 47  1  0  0  0  0
 26 48  1  0  0  0  0
M  END
>  <Mol_ID>
1871

>  <Formula>
C16H22O10

>  <MolWeight>
374.33988

>  <Cat>
S3927

>  <Name>
Swertiamarin

>  <Synonyms>
Swertiamaroside

>  <Target>
Others

>  <Form>
free base

>  <CAS>
17388-39-5

>  <URL>
http://selleckchem.com/products/swertiamarin.html

$$$$
