S3937 Pterostilbene.cdx
 OpenBabel08302520013D

 35 36  0  0  0  0  0  0  0  0999 V2000
    0.9225    0.0344   -0.0689 C   0  0  0  0  0  0  0  0  0  0  0  0
    1.9459    0.8366   -0.3991 C   0  0  0  0  0  0  0  0  0  0  0  0
    2.7863    1.5551    0.5725 C   0  0  0  0  0  0  0  0  0  0  0  0
    3.0482    1.0554    1.8577 C   0  0  0  0  0  0  0  0  0  0  0  0
    3.8820    1.7487    2.7410 C   0  0  0  0  0  0  0  0  0  0  0  0
    4.4682    2.9413    2.3349 C   0  0  0  0  0  0  0  0  0  0  0  0
    4.2356    3.4474    1.0633 C   0  0  0  0  0  0  0  0  0  0  0  0
    3.4004    2.7533    0.1825 C   0  0  0  0  0  0  0  0  0  0  0  0
    0.1309   -0.6625   -1.0829 C   0  0  0  0  0  0  0  0  0  0  0  0
    0.5052   -1.9377   -1.5135 C   0  0  0  0  0  0  0  0  0  0  0  0
   -0.2573   -2.6183   -2.4668 C   0  0  0  0  0  0  0  0  0  0  0  0
   -1.4015   -2.0136   -2.9957 C   0  0  0  0  0  0  0  0  0  0  0  0
   -1.7814   -0.7354   -2.5742 C   0  0  0  0  0  0  0  0  0  0  0  0
   -1.0096   -0.0638   -1.6220 C   0  0  0  0  0  0  0  0  0  0  0  0
    5.2909    3.6473    3.1617 O   0  0  0  0  0  0  0  0  0  0  0  0
   -2.8791   -0.0423   -3.0100 O   0  0  0  0  0  0  0  0  0  0  0  0
   -3.7138   -0.6861   -3.9648 C   0  0  0  0  0  0  0  0  0  0  0  0
    0.2148   -3.8615   -2.7928 O   0  0  0  0  0  0  0  0  0  0  0  0
   -0.5286   -4.6045   -3.7513 C   0  0  0  0  0  0  0  0  0  0  0  0
    0.6196   -0.1386    0.9593 H   0  0  0  0  0  0  0  0  0  0  0  0
    2.1913    0.9979   -1.4475 H   0  0  0  0  0  0  0  0  0  0  0  0
    2.6165    0.1128    2.1840 H   0  0  0  0  0  0  0  0  0  0  0  0
    4.0642    1.3378    3.7289 H   0  0  0  0  0  0  0  0  0  0  0  0
    4.7041    4.3776    0.7542 H   0  0  0  0  0  0  0  0  0  0  0  0
    3.2310    3.1639   -0.8105 H   0  0  0  0  0  0  0  0  0  0  0  0
    1.3932   -2.4135   -1.1035 H   0  0  0  0  0  0  0  0  0  0  0  0
   -1.9957   -2.5366   -3.7328 H   0  0  0  0  0  0  0  0  0  0  0  0
   -1.3102    0.9304   -1.2986 H   0  0  0  0  0  0  0  0  0  0  0  0
    5.3595    3.1737    4.0071 H   0  0  0  0  0  0  0  0  0  0  0  0
   -3.1765   -0.8555   -4.9036 H   0  0  0  0  0  0  0  0  0  0  0  0
   -4.1226   -1.6215   -3.5684 H   0  0  0  0  0  0  0  0  0  0  0  0
   -4.5560   -0.0208   -4.1771 H   0  0  0  0  0  0  0  0  0  0  0  0
   -1.5444   -4.8056   -3.3945 H   0  0  0  0  0  0  0  0  0  0  0  0
   -0.5431   -4.0938   -4.7200 H   0  0  0  0  0  0  0  0  0  0  0  0
   -0.0290   -5.5678   -3.8902 H   0  0  0  0  0  0  0  0  0  0  0  0
  1  2  2  0  0  0  0
  1  9  1  0  0  0  0
  1 20  1  0  0  0  0
  2  3  1  0  0  0  0
  2 21  1  0  0  0  0
  3  4  2  0  0  0  0
  3  8  1  0  0  0  0
  4  5  1  0  0  0  0
  4 22  1  0  0  0  0
  5  6  2  0  0  0  0
  5 23  1  0  0  0  0
  6  7  1  0  0  0  0
  6 15  1  0  0  0  0
  7  8  2  0  0  0  0
  7 24  1  0  0  0  0
  8 25  1  0  0  0  0
  9 10  2  0  0  0  0
  9 14  1  0  0  0  0
 10 11  1  0  0  0  0
 10 26  1  0  0  0  0
 11 12  2  0  0  0  0
 11 18  1  0  0  0  0
 12 13  1  0  0  0  0
 12 27  1  0  0  0  0
 13 14  2  0  0  0  0
 13 16  1  0  0  0  0
 14 28  1  0  0  0  0
 15 29  1  0  0  0  0
 16 17  1  0  0  0  0
 17 30  1  0  0  0  0
 17 31  1  0  0  0  0
 17 32  1  0  0  0  0
 18 19  1  0  0  0  0
 19 33  1  0  0  0  0
 19 34  1  0  0  0  0
 19 35  1  0  0  0  0
M  END
>  <Mol_ID>
3091

>  <Formula>
C16H16O3

>  <MolWeight>
256.29644

>  <Cat>
S3937

>  <Name>
Pterostilbene

>  <Synonyms>
N/A

>  <Target>
Others

>  <Form>
free base

>  <CAS>
537-42-8

>  <URL>
https://www.selleckchem.com/products/pterostilbene.html

$$$$
