S3930 Liquiritin.cdx
 OpenBabel08302519513D

 52 55  0  0  0  0  0  0  0  0999 V2000
  -16.7963   -5.0401    4.1866 C   0  0  0  0  0  0  0  0  0  0  0  0
  -16.5924   -4.1179    3.1586 C   0  0  0  0  0  0  0  0  0  0  0  0
  -15.6948   -5.9639    4.5254 C   0  0  0  0  0  0  0  0  0  0  0  0
  -18.0286   -5.1303    4.8359 C   0  0  0  0  0  0  0  0  0  0  0  0
  -15.4122   -3.9826    2.4752 O   0  0  0  0  0  0  0  0  0  0  0  0
  -17.6487   -3.2931    2.7562 C   0  0  0  0  0  0  0  0  0  0  0  0
  -14.5476   -5.9939    3.5565 C   0  0  0  0  0  0  0  0  0  0  0  0
  -15.7585   -6.6937    5.5092 O   0  0  0  0  0  0  0  0  0  0  0  0
  -19.0797   -4.3035    4.4347 C   0  0  0  0  0  0  0  0  0  0  0  0
  -14.2710   -4.5554    3.1495 C   0  0  1  0  0  0  0  0  0  0  0  0
  -18.8829   -3.3939    3.3976 C   0  0  0  0  0  0  0  0  0  0  0  0
  -13.0416   -4.4568    2.2548 C   0  0  0  0  0  0  0  0  0  0  0  0
  -19.9398   -2.6186    3.0352 O   0  0  0  0  0  0  0  0  0  0  0  0
  -11.7626   -4.3471    2.8279 C   0  0  0  0  0  0  0  0  0  0  0  0
  -13.1393   -4.4467    0.8573 C   0  0  0  0  0  0  0  0  0  0  0  0
  -10.6229   -4.1584    2.0312 C   0  0  0  0  0  0  0  0  0  0  0  0
  -12.0001   -4.2608    0.0645 C   0  0  0  0  0  0  0  0  0  0  0  0
  -10.7395   -4.1017    0.6446 C   0  0  0  0  0  0  0  0  0  0  0  0
   -9.7218   -3.8504   -0.2331 O   0  0  0  0  0  0  0  0  0  0  0  0
   -8.3831   -4.1404    0.1875 C   0  0  2  0  0  0  0  0  0  0  0  0
   -7.8027   -3.0118    0.8589 O   0  0  0  0  0  0  0  0  0  0  0  0
   -7.5641   -4.4874   -1.0805 C   0  0  1  0  0  0  0  0  0  0  0  0
   -6.4612   -3.2709    1.3074 C   0  0  1  0  0  0  0  0  0  0  0  0
   -6.0895   -4.7203   -0.7096 C   0  0  2  0  0  0  0  0  0  0  0  0
   -8.0904   -5.6489   -1.7481 O   0  0  0  0  0  0  0  0  0  0  0  0
   -5.5319   -3.5547    0.1215 C   0  0  2  0  0  0  0  0  0  0  0  0
   -5.9684   -2.0517    2.1017 C   0  0  0  0  0  0  0  0  0  0  0  0
   -5.2869   -4.9260   -1.8811 O   0  0  0  0  0  0  0  0  0  0  0  0
   -4.2083   -3.8355    0.5829 O   0  0  0  0  0  0  0  0  0  0  0  0
   -6.8392   -1.8317    3.2141 O   0  0  0  0  0  0  0  0  0  0  0  0
  -18.1834   -5.8547    5.6326 H   0  0  0  0  0  0  0  0  0  0  0  0
  -17.4928   -2.5849    1.9466 H   0  0  0  0  0  0  0  0  0  0  0  0
  -14.8438   -6.6171    2.7035 H   0  0  0  0  0  0  0  0  0  0  0  0
  -13.6807   -6.4473    4.0452 H   0  0  0  0  0  0  0  0  0  0  0  0
  -20.0463   -4.3731    4.9186 H   0  0  0  0  0  0  0  0  0  0  0  0
  -14.0821   -3.9303    4.0359 H   0  0  0  0  0  0  0  0  0  0  0  0
  -19.6737   -2.0388    2.3033 H   0  0  0  0  0  0  0  0  0  0  0  0
  -11.6430   -4.3763    3.9096 H   0  0  0  0  0  0  0  0  0  0  0  0
  -14.1059   -4.5528    0.3689 H   0  0  0  0  0  0  0  0  0  0  0  0
   -9.6670   -4.0200    2.5265 H   0  0  0  0  0  0  0  0  0  0  0  0
  -12.1016   -4.2270   -1.0181 H   0  0  0  0  0  0  0  0  0  0  0  0
   -8.3843   -5.0189    0.8512 H   0  0  0  0  0  0  0  0  0  0  0  0
   -7.6353   -3.6706   -1.8068 H   0  0  0  0  0  0  0  0  0  0  0  0
   -6.4918   -4.1271    1.9941 H   0  0  0  0  0  0  0  0  0  0  0  0
   -5.9991   -5.6543   -0.1407 H   0  0  0  0  0  0  0  0  0  0  0  0
   -7.9769   -6.4240   -1.1722 H   0  0  0  0  0  0  0  0  0  0  0  0
   -5.4593   -2.6694   -0.5209 H   0  0  0  0  0  0  0  0  0  0  0  0
   -4.9608   -2.2091    2.4914 H   0  0  0  0  0  0  0  0  0  0  0  0
   -5.9779   -1.1467    1.4921 H   0  0  0  0  0  0  0  0  0  0  0  0
   -5.3723   -4.1449   -2.4569 H   0  0  0  0  0  0  0  0  0  0  0  0
   -4.1781   -4.7360    0.9442 H   0  0  0  0  0  0  0  0  0  0  0  0
   -7.7289   -1.7010    2.8345 H   0  0  0  0  0  0  0  0  0  0  0  0
  1  2  2  0  0  0  0
  1  3  1  0  0  0  0
  1  4  1  0  0  0  0
  2  5  1  0  0  0  0
  2  6  1  0  0  0  0
  3  7  1  0  0  0  0
  3  8  2  0  0  0  0
  4  9  2  0  0  0  0
  4 31  1  0  0  0  0
  5 10  1  0  0  0  0
  6 11  2  0  0  0  0
  6 32  1  0  0  0  0
  7 10  1  0  0  0  0
  7 33  1  0  0  0  0
  7 34  1  0  0  0  0
  9 11  1  0  0  0  0
  9 35  1  0  0  0  0
 10 36  1  1  0  0  0
 10 12  1  0  0  0  0
 11 13  1  0  0  0  0
 12 14  2  0  0  0  0
 12 15  1  0  0  0  0
 13 37  1  0  0  0  0
 14 16  1  0  0  0  0
 14 38  1  0  0  0  0
 15 17  2  0  0  0  0
 15 39  1  0  0  0  0
 16 18  2  0  0  0  0
 16 40  1  0  0  0  0
 17 18  1  0  0  0  0
 17 41  1  0  0  0  0
 18 19  1  0  0  0  0
 20 21  1  0  0  0  0
 20 22  1  0  0  0  0
 20 19  1  0  0  0  0
 20 42  1  1  0  0  0
 21 23  1  0  0  0  0
 22 24  1  0  0  0  0
 22 25  1  0  0  0  0
 22 43  1  6  0  0  0
 23 26  1  0  0  0  0
 23 27  1  0  0  0  0
 23 44  1  1  0  0  0
 24 28  1  0  0  0  0
 24 26  1  0  0  0  0
 24 45  1  1  0  0  0
 25 46  1  0  0  0  0
 26 29  1  0  0  0  0
 26 47  1  6  0  0  0
 27 30  1  0  0  0  0
 27 48  1  0  0  0  0
 27 49  1  0  0  0  0
 28 50  1  0  0  0  0
 29 51  1  0  0  0  0
 30 52  1  0  0  0  0
M  END
>  <Mol_ID>
1813

>  <Formula>
C21H22O9

>  <MolWeight>
418.39398

>  <Cat>
S3930

>  <Name>
Liquiritin

>  <Synonyms>
Liquiritoside, Liquiritigenin-4'-O-glucoside

>  <Target>
AKR1C

>  <Form>
free base

>  <CAS>
551-15-5

>  <URL>
http://selleckchem.com/products/liquiritin.html

$$$$
