S3935 Nonivamide.cdx
 OpenBabel08302520013D

 48 48  0  0  0  0  0  0  0  0999 V2000
   -2.0107    0.1154    1.4664 C   0  0  0  0  0  0  0  0  0  0  0  0
   -0.8649   -0.6020    1.8340 C   0  0  0  0  0  0  0  0  0  0  0  0
   -1.8703    1.4509    1.0299 C   0  0  0  0  0  0  0  0  0  0  0  0
   -3.3309   -0.5189    1.5395 C   0  0  0  0  0  0  0  0  0  0  0  0
    0.3896   -0.0253    1.7532 C   0  0  0  0  0  0  0  0  0  0  0  0
   -0.6357    2.0329    0.9556 C   0  0  0  0  0  0  0  0  0  0  0  0
   -3.4192   -1.6960    0.7186 N   0  0  0  0  0  0  0  0  0  0  0  0
    0.4844    1.3007    1.3136 C   0  0  0  0  0  0  0  0  0  0  0  0
    1.5785   -0.6308    2.0641 O   0  0  0  0  0  0  0  0  0  0  0  0
   -4.2328   -2.7567    0.9936 C   0  0  0  0  0  0  0  0  0  0  0  0
    1.7100    1.9073    1.2279 O   0  0  0  0  0  0  0  0  0  0  0  0
    1.5000   -1.9806    2.5099 C   0  0  0  0  0  0  0  0  0  0  0  0
   -5.0795   -2.6018    2.2543 C   0  0  0  0  0  0  0  0  0  0  0  0
   -4.2806   -3.7491    0.2883 O   0  0  0  0  0  0  0  0  0  0  0  0
   -6.0367   -1.4057    2.1634 C   0  0  0  0  0  0  0  0  0  0  0  0
   -7.0200   -1.4759    0.9933 C   0  0  0  0  0  0  0  0  0  0  0  0
   -7.9366   -0.2424    0.9247 C   0  0  0  0  0  0  0  0  0  0  0  0
   -8.9403   -0.3455   -0.2406 C   0  0  0  0  0  0  0  0  0  0  0  0
   -9.8756    0.8747   -0.3157 C   0  0  0  0  0  0  0  0  0  0  0  0
  -10.8773    0.7840   -1.4769 C   0  0  0  0  0  0  0  0  0  0  0  0
  -11.7922    2.0041   -1.5318 C   0  0  0  0  0  0  0  0  0  0  0  0
   -0.9926   -1.6283    2.1685 H   0  0  0  0  0  0  0  0  0  0  0  0
   -2.7702    2.0067    0.7369 H   0  0  0  0  0  0  0  0  0  0  0  0
   -3.5388   -0.7646    2.5891 H   0  0  0  0  0  0  0  0  0  0  0  0
   -4.0933    0.1769    1.1780 H   0  0  0  0  0  0  0  0  0  0  0  0
   -0.5324    3.0600    0.6141 H   0  0  0  0  0  0  0  0  0  0  0  0
   -2.8816   -1.7156   -0.1537 H   0  0  0  0  0  0  0  0  0  0  0  0
    2.3487    1.2246    1.5120 H   0  0  0  0  0  0  0  0  0  0  0  0
    0.9540   -2.0498    3.4575 H   0  0  0  0  0  0  0  0  0  0  0  0
    1.0515   -2.6256    1.7463 H   0  0  0  0  0  0  0  0  0  0  0  0
    2.5191   -2.3352    2.6859 H   0  0  0  0  0  0  0  0  0  0  0  0
   -5.6166   -3.5319    2.4319 H   0  0  0  0  0  0  0  0  0  0  0  0
   -4.4064   -2.4818    3.1157 H   0  0  0  0  0  0  0  0  0  0  0  0
   -6.5550   -1.2935    3.1203 H   0  0  0  0  0  0  0  0  0  0  0  0
   -5.5169   -0.4627    2.0795 H   0  0  0  0  0  0  0  0  0  0  0  0
   -6.4642   -1.5792    0.0510 H   0  0  0  0  0  0  0  0  0  0  0  0
   -7.6196   -2.3789    1.1060 H   0  0  0  0  0  0  0  0  0  0  0  0
   -8.4722   -0.1407    1.8751 H   0  0  0  0  0  0  0  0  0  0  0  0
   -7.3416    0.6721    0.8065 H   0  0  0  0  0  0  0  0  0  0  0  0
   -8.3873   -0.4479   -1.1807 H   0  0  0  0  0  0  0  0  0  0  0  0
   -9.5441   -1.2533   -0.1304 H   0  0  0  0  0  0  0  0  0  0  0  0
  -10.4236    0.9669    0.6274 H   0  0  0  0  0  0  0  0  0  0  0  0
   -9.2825    1.7900   -0.4310 H   0  0  0  0  0  0  0  0  0  0  0  0
  -10.3331    0.7111   -2.4242 H   0  0  0  0  0  0  0  0  0  0  0  0
  -11.4897   -0.1220   -1.3905 H   0  0  0  0  0  0  0  0  0  0  0  0
  -11.2091    2.9227   -1.6538 H   0  0  0  0  0  0  0  0  0  0  0  0
  -12.4799    1.9260   -2.3813 H   0  0  0  0  0  0  0  0  0  0  0  0
  -12.3966    2.0994   -0.6233 H   0  0  0  0  0  0  0  0  0  0  0  0
  1  2  2  0  0  0  0
  1  3  1  0  0  0  0
  1  4  1  0  0  0  0
  2  5  1  0  0  0  0
  2 22  1  0  0  0  0
  3  6  2  0  0  0  0
  3 23  1  0  0  0  0
  4  7  1  0  0  0  0
  4 24  1  0  0  0  0
  4 25  1  0  0  0  0
  5  8  2  0  0  0  0
  5  9  1  0  0  0  0
  6  8  1  0  0  0  0
  6 26  1  0  0  0  0
  7 10  1  0  0  0  0
  7 27  1  0  0  0  0
  8 11  1  0  0  0  0
  9 12  1  0  0  0  0
 10 13  1  0  0  0  0
 10 14  2  0  0  0  0
 11 28  1  0  0  0  0
 12 29  1  0  0  0  0
 12 30  1  0  0  0  0
 12 31  1  0  0  0  0
 13 15  1  0  0  0  0
 13 32  1  0  0  0  0
 13 33  1  0  0  0  0
 15 16  1  0  0  0  0
 15 34  1  0  0  0  0
 15 35  1  0  0  0  0
 16 17  1  0  0  0  0
 16 36  1  0  0  0  0
 16 37  1  0  0  0  0
 17 18  1  0  0  0  0
 17 38  1  0  0  0  0
 17 39  1  0  0  0  0
 18 19  1  0  0  0  0
 18 40  1  0  0  0  0
 18 41  1  0  0  0  0
 19 20  1  0  0  0  0
 19 42  1  0  0  0  0
 19 43  1  0  0  0  0
 20 21  1  0  0  0  0
 20 44  1  0  0  0  0
 20 45  1  0  0  0  0
 21 46  1  0  0  0  0
 21 47  1  0  0  0  0
 21 48  1  0  0  0  0
M  END
>  <Mol_ID>
3089

>  <Formula>
C17H27NO3

>  <MolWeight>
293.40118

>  <Cat>
S3935

>  <Name>
Nonivamide

>  <Synonyms>
pelargonic acid vanillylamide, Pseudocapsaicin, Vanillyl-N-nonylamide

>  <Target>
TRP Channel

>  <Form>
free base

>  <CAS>
2444-46-4

>  <URL>
https://www.selleckchem.com/products/nonivamide.html

$$$$
