S3936 7-Hydroxycarbostyril.cdx
 OpenBabel08302520013D

 19 20  0  0  0  0  0  0  0  0999 V2000
    1.2082   -1.3777    0.0620 N   0  0  0  0  0  0  0  0  0  0  0  0
   -0.0245   -0.7090    0.0641 C   0  0  0  0  0  0  0  0  0  0  0  0
    2.4141   -0.7338    0.0016 C   0  0  0  0  0  0  0  0  0  0  0  0
    1.2248    1.4222    0.0490 C   0  0  0  0  0  0  0  0  0  0  0  0
    2.3824    0.7486    0.0187 C   0  0  0  0  0  0  0  0  0  0  0  0
   -0.0444    0.6936    0.0414 C   0  0  0  0  0  0  0  0  0  0  0  0
   -1.2111   -1.4385    0.0562 C   0  0  0  0  0  0  0  0  0  0  0  0
    3.4814   -1.3380   -0.0616 O   0  0  0  0  0  0  0  0  0  0  0  0
   -1.2705    1.3637   -0.0116 C   0  0  0  0  0  0  0  0  0  0  0  0
   -2.4215   -0.7566   -0.0145 C   0  0  0  0  0  0  0  0  0  0  0  0
   -2.4632    0.6356   -0.0557 C   0  0  0  0  0  0  0  0  0  0  0  0
   -3.5647   -1.5000   -0.0547 O   0  0  0  0  0  0  0  0  0  0  0  0
    1.2408   -2.3877    0.0506 H   0  0  0  0  0  0  0  0  0  0  0  0
    1.2091    2.5056    0.0683 H   0  0  0  0  0  0  0  0  0  0  0  0
    3.3426    1.2473    0.0043 H   0  0  0  0  0  0  0  0  0  0  0  0
   -1.2074   -2.5227    0.0850 H   0  0  0  0  0  0  0  0  0  0  0  0
   -1.3077    2.4498   -0.0361 H   0  0  0  0  0  0  0  0  0  0  0  0
   -3.4063    1.1684   -0.1285 H   0  0  0  0  0  0  0  0  0  0  0  0
   -4.3278   -0.9007   -0.1038 H   0  0  0  0  0  0  0  0  0  0  0  0
  1 13  1  0  0  0  0
  2  1  1  0  0  0  0
  3  1  1  0  0  0  0
  4  5  2  0  0  0  0
  4 14  1  0  0  0  0
  5  3  1  0  0  0  0
  5 15  1  0  0  0  0
  6  2  2  0  0  0  0
  6  4  1  0  0  0  0
  7  2  1  0  0  0  0
  7 16  1  0  0  0  0
  8  3  2  0  0  0  0
  9  6  1  0  0  0  0
  9 17  1  0  0  0  0
 10  7  2  0  0  0  0
 11  9  2  0  0  0  0
 11 10  1  0  0  0  0
 11 18  1  0  0  0  0
 12 10  1  0  0  0  0
 12 19  1  0  0  0  0
M  END
>  <Mol_ID>
3090

>  <Formula>
C9H7NO2

>  <MolWeight>
161.15738

>  <Cat>
S3936

>  <Name>
7-Hydroxycarbostyril

>  <Synonyms>
3,4-Dihydro-7-hydroxycarbostyril

>  <Target>
Others

>  <Form>
free base

>  <CAS>
70500-72-0

>  <URL>
https://www.selleckchem.com/products/7-hydroxycarbostyril.html

$$$$
