S3939 4'-Methoxyresveratrol.cdx
 OpenBabel08302519503D

 32 33  0  0  0  0  0  0  0  0999 V2000
    1.1219   -0.2918    0.5823 C   0  0  0  0  0  0  0  0  0  0  0  0
    0.4314   -1.3101   -0.0835 C   0  0  0  0  0  0  0  0  0  0  0  0
   -0.7815   -0.9977   -0.7058 C   0  0  0  0  0  0  0  0  0  0  0  0
   -1.3174    0.2912   -0.6248 C   0  0  0  0  0  0  0  0  0  0  0  0
   -0.6465    1.2905    0.0743 C   0  0  0  0  0  0  0  0  0  0  0  0
    0.5840    0.9965    0.6666 C   0  0  0  0  0  0  0  0  0  0  0  0
    1.0085   -2.6614   -0.1270 C   0  0  0  0  0  0  0  0  0  0  0  0
    0.2664   -3.7809   -0.1777 C   0  0  0  0  0  0  0  0  0  0  0  0
    0.7998   -5.1504   -0.1357 C   0  0  0  0  0  0  0  0  0  0  0  0
   -1.0874    2.5726    0.2529 O   0  0  0  0  0  0  0  0  0  0  0  0
   -2.3532    2.8883   -0.3168 C   0  0  0  0  0  0  0  0  0  0  0  0
    1.9809   -5.4732    0.5469 C   0  0  0  0  0  0  0  0  0  0  0  0
    2.3947   -6.8010    0.6348 C   0  0  0  0  0  0  0  0  0  0  0  0
    1.6462   -7.8250    0.0679 C   0  0  0  0  0  0  0  0  0  0  0  0
    0.4669   -7.5062   -0.5933 C   0  0  0  0  0  0  0  0  0  0  0  0
    0.0440   -6.1849   -0.7059 C   0  0  0  0  0  0  0  0  0  0  0  0
    3.5367   -7.1413    1.2993 O   0  0  0  0  0  0  0  0  0  0  0  0
   -0.3285   -8.4741   -1.1335 O   0  0  0  0  0  0  0  0  0  0  0  0
    2.0789   -0.4926    1.0621 H   0  0  0  0  0  0  0  0  0  0  0  0
   -1.3361   -1.7502   -1.2600 H   0  0  0  0  0  0  0  0  0  0  0  0
   -2.2632    0.4714   -1.1195 H   0  0  0  0  0  0  0  0  0  0  0  0
    1.1218    1.7714    1.2039 H   0  0  0  0  0  0  0  0  0  0  0  0
    2.0925   -2.7077   -0.0779 H   0  0  0  0  0  0  0  0  0  0  0  0
   -0.8177   -3.7237   -0.2192 H   0  0  0  0  0  0  0  0  0  0  0  0
   -2.2907    2.8921   -1.4098 H   0  0  0  0  0  0  0  0  0  0  0  0
   -3.1356    2.2056    0.0316 H   0  0  0  0  0  0  0  0  0  0  0  0
   -2.6300    3.8950    0.0108 H   0  0  0  0  0  0  0  0  0  0  0  0
    2.5609   -4.6938    1.0285 H   0  0  0  0  0  0  0  0  0  0  0  0
    1.9896   -8.8496    0.1593 H   0  0  0  0  0  0  0  0  0  0  0  0
   -0.8853   -5.9726   -1.2300 H   0  0  0  0  0  0  0  0  0  0  0  0
    3.9326   -6.3343    1.6686 H   0  0  0  0  0  0  0  0  0  0  0  0
    0.0123   -9.3403   -0.8544 H   0  0  0  0  0  0  0  0  0  0  0  0
  1  2  2  0  0  0  0
  1  6  1  0  0  0  0
  1 19  1  0  0  0  0
  2  3  1  0  0  0  0
  2  7  1  0  0  0  0
  3  4  2  0  0  0  0
  3 20  1  0  0  0  0
  4  5  1  0  0  0  0
  4 21  1  0  0  0  0
  5  6  2  0  0  0  0
  5 10  1  0  0  0  0
  6 22  1  0  0  0  0
  7  8  2  0  0  0  0
  7 23  1  0  0  0  0
  8  9  1  0  0  0  0
  8 24  1  0  0  0  0
  9 12  2  0  0  0  0
 10 11  1  0  0  0  0
 11 25  1  0  0  0  0
 11 26  1  0  0  0  0
 11 27  1  0  0  0  0
 12 13  1  0  0  0  0
 12 28  1  0  0  0  0
 13 14  2  0  0  0  0
 13 17  1  0  0  0  0
 14 15  1  0  0  0  0
 14 29  1  0  0  0  0
 15 16  2  0  0  0  0
 15 18  1  0  0  0  0
 16  9  1  0  0  0  0
 16 30  1  0  0  0  0
 17 31  1  0  0  0  0
 18 32  1  0  0  0  0
M  END
>  <Mol_ID>
1756

>  <Formula>
C15H14O3

>  <MolWeight>
242.26986

>  <Cat>
S3939

>  <Name>
4'-Methoxyresveratrol

>  <Synonyms>
N/A

>  <Target>
NF-¦ÊB,NLRP3

>  <Form>
free base

>  <CAS>
33626-08-3

>  <URL>
http://selleckchem.com/products/4-methoxyresveratrol.html

$$$$
