S3938 Bisdemethoxycurcumin.cdx
 OpenBabel08302519503D

 39 40  0  0  0  0  0  0  0  0999 V2000
    0.8786    0.0431   -0.0211 C   0  0  0  0  0  0  0  0  0  0  0  0
    0.3618    1.3280   -0.6080 C   0  0  0  0  0  0  0  0  0  0  0  0
    1.2516    2.0489   -1.5609 C   0  0  0  0  0  0  0  0  0  0  0  0
    0.8603    3.2102   -2.1049 C   0  0  0  0  0  0  0  0  0  0  0  0
    1.7195    3.9401   -3.0358 C   0  0  0  0  0  0  0  0  0  0  0  0
    1.6589    3.6764   -4.4101 C   0  0  0  0  0  0  0  0  0  0  0  0
    2.4862    4.3689   -5.2978 C   0  0  0  0  0  0  0  0  0  0  0  0
    3.3744    5.3210   -4.8054 C   0  0  0  0  0  0  0  0  0  0  0  0
    3.4468    5.5900   -3.4426 C   0  0  0  0  0  0  0  0  0  0  0  0
    2.6180    4.8992   -2.5563 C   0  0  0  0  0  0  0  0  0  0  0  0
   -0.7626    1.7458   -0.3353 O   0  0  0  0  0  0  0  0  0  0  0  0
    4.1997    6.0204   -5.6344 O   0  0  0  0  0  0  0  0  0  0  0  0
    0.4918   -1.1678   -0.8257 C   0  0  0  0  0  0  0  0  0  0  0  0
   -0.9616   -1.4828   -0.9419 C   0  0  0  0  0  0  0  0  0  0  0  0
   -1.3721   -2.5529   -1.6385 C   0  0  0  0  0  0  0  0  0  0  0  0
   -2.7790   -2.9585   -1.7815 C   0  0  0  0  0  0  0  0  0  0  0  0
   -3.8369   -2.0369   -1.7770 C   0  0  0  0  0  0  0  0  0  0  0  0
   -5.1614   -2.4668   -1.9088 C   0  0  0  0  0  0  0  0  0  0  0  0
   -5.4292   -3.8220   -2.0621 C   0  0  0  0  0  0  0  0  0  0  0  0
   -4.3961   -4.7487   -2.0991 C   0  0  0  0  0  0  0  0  0  0  0  0
   -3.0735   -4.3172   -1.9653 C   0  0  0  0  0  0  0  0  0  0  0  0
    1.3469   -1.8817   -1.3476 O   0  0  0  0  0  0  0  0  0  0  0  0
   -6.7051   -4.2854   -2.1834 O   0  0  0  0  0  0  0  0  0  0  0  0
    0.5048   -0.0640    1.0035 H   0  0  0  0  0  0  0  0  0  0  0  0
    1.9708    0.0868    0.0593 H   0  0  0  0  0  0  0  0  0  0  0  0
    2.2122    1.6011   -1.7897 H   0  0  0  0  0  0  0  0  0  0  0  0
   -0.1017    3.6631   -1.8765 H   0  0  0  0  0  0  0  0  0  0  0  0
    0.9650    2.9339   -4.7974 H   0  0  0  0  0  0  0  0  0  0  0  0
    2.4249    4.1522   -6.3583 H   0  0  0  0  0  0  0  0  0  0  0  0
    4.1441    6.3361   -3.0728 H   0  0  0  0  0  0  0  0  0  0  0  0
    2.6787    5.1178   -1.4920 H   0  0  0  0  0  0  0  0  0  0  0  0
    4.0315    5.7398   -6.5488 H   0  0  0  0  0  0  0  0  0  0  0  0
   -1.6484   -0.8205   -0.4271 H   0  0  0  0  0  0  0  0  0  0  0  0
   -0.6405   -3.2047   -2.1160 H   0  0  0  0  0  0  0  0  0  0  0  0
   -3.6475   -0.9709   -1.6766 H   0  0  0  0  0  0  0  0  0  0  0  0
   -5.9606   -1.7327   -1.8911 H   0  0  0  0  0  0  0  0  0  0  0  0
   -4.6169   -5.8045   -2.2278 H   0  0  0  0  0  0  0  0  0  0  0  0
   -2.2772   -5.0580   -1.9936 H   0  0  0  0  0  0  0  0  0  0  0  0
   -7.3154   -3.5322   -2.1242 H   0  0  0  0  0  0  0  0  0  0  0  0
  1  2  1  0  0  0  0
  1 13  1  0  0  0  0
  1 24  1  0  0  0  0
  1 25  1  0  0  0  0
  2  3  1  0  0  0  0
  2 11  2  0  0  0  0
  3  4  2  0  0  0  0
  3 26  1  0  0  0  0
  4  5  1  0  0  0  0
  4 27  1  0  0  0  0
  5  6  2  0  0  0  0
  5 10  1  0  0  0  0
  6  7  1  0  0  0  0
  6 28  1  0  0  0  0
  7  8  2  0  0  0  0
  7 29  1  0  0  0  0
  8  9  1  0  0  0  0
  8 12  1  0  0  0  0
  9 10  2  0  0  0  0
  9 30  1  0  0  0  0
 10 31  1  0  0  0  0
 12 32  1  0  0  0  0
 13 14  1  0  0  0  0
 13 22  2  0  0  0  0
 14 15  2  0  0  0  0
 14 33  1  0  0  0  0
 15 16  1  0  0  0  0
 15 34  1  0  0  0  0
 16 17  2  0  0  0  0
 16 21  1  0  0  0  0
 17 18  1  0  0  0  0
 17 35  1  0  0  0  0
 18 19  2  0  0  0  0
 18 36  1  0  0  0  0
 19 20  1  0  0  0  0
 19 23  1  0  0  0  0
 20 21  2  0  0  0  0
 20 37  1  0  0  0  0
 21 38  1  0  0  0  0
 23 39  1  0  0  0  0
M  END
>  <Mol_ID>
1755

>  <Formula>
C19H16O4

>  <MolWeight>
308.32794

>  <Cat>
S3938

>  <Name>
Bisdemethoxycurcumin (BDMC)

>  <Synonyms>
N/A

>  <Target>
Apoptosis related

>  <Form>
free base

>  <CAS>
33171-05-0

>  <URL>
http://selleckchem.com/products/bisdemethoxycurcumin.html

$$$$
