S3934 Acetyl Resveratrol.cdx
 OpenBabel08302520013D

 44 45  0  0  0  0  0  0  0  0999 V2000
    1.4217   -0.0399    0.0083 C   0  0  0  0  0  0  0  0  0  0  0  0
    0.7019   -1.2228   -0.2253 C   0  0  0  0  0  0  0  0  0  0  0  0
    0.7183    1.1686    0.0940 C   0  0  0  0  0  0  0  0  0  0  0  0
    2.8765   -0.1696    0.2108 C   0  0  0  0  0  0  0  0  0  0  0  0
   -0.6849   -1.1971   -0.3630 C   0  0  0  0  0  0  0  0  0  0  0  0
   -0.6765    1.1884   -0.0739 C   0  0  0  0  0  0  0  0  0  0  0  0
    3.8044    0.7652   -0.0467 C   0  0  0  0  0  0  0  0  0  0  0  0
   -1.3830    0.0114   -0.3103 C   0  0  0  0  0  0  0  0  0  0  0  0
   -1.4909   -2.3586   -0.5050 O   0  0  0  0  0  0  0  0  0  0  0  0
   -1.2795    2.4686    0.0699 O   0  0  0  0  0  0  0  0  0  0  0  0
    5.2313    0.4463    0.0552 C   0  0  0  0  0  0  0  0  0  0  0  0
   -1.0512   -3.6819   -0.3847 C   0  0  0  0  0  0  0  0  0  0  0  0
   -2.6374    2.7753   -0.0751 C   0  0  0  0  0  0  0  0  0  0  0  0
    5.8953   -0.0571   -1.0705 C   0  0  0  0  0  0  0  0  0  0  0  0
    5.9392    0.5975    1.2526 C   0  0  0  0  0  0  0  0  0  0  0  0
   -2.2388   -4.5976   -0.3796 C   0  0  0  0  0  0  0  0  0  0  0  0
    0.0998   -4.0686   -0.2406 O   0  0  0  0  0  0  0  0  0  0  0  0
   -2.8515    4.2252    0.2530 C   0  0  0  0  0  0  0  0  0  0  0  0
   -3.5383    2.0050   -0.3738 O   0  0  0  0  0  0  0  0  0  0  0  0
    7.2491   -0.4035   -1.0111 C   0  0  0  0  0  0  0  0  0  0  0  0
    7.2953    0.2541    1.3146 C   0  0  0  0  0  0  0  0  0  0  0  0
    7.9463   -0.2465    0.1819 C   0  0  0  0  0  0  0  0  0  0  0  0
    9.3146   -0.5777    0.3610 O   0  0  0  0  0  0  0  0  0  0  0  0
   10.1839   -1.0655   -0.6215 C   0  0  0  0  0  0  0  0  0  0  0  0
   11.5283   -1.3262   -0.0063 C   0  0  0  0  0  0  0  0  0  0  0  0
    9.9206   -1.2975   -1.7927 O   0  0  0  0  0  0  0  0  0  0  0  0
    1.2496   -2.1569   -0.2928 H   0  0  0  0  0  0  0  0  0  0  0  0
    1.2385    2.0975    0.3070 H   0  0  0  0  0  0  0  0  0  0  0  0
    3.2049   -1.1523    0.5503 H   0  0  0  0  0  0  0  0  0  0  0  0
    3.5563    1.7530   -0.4246 H   0  0  0  0  0  0  0  0  0  0  0  0
   -2.4601   -0.0024   -0.4297 H   0  0  0  0  0  0  0  0  0  0  0  0
    5.3565   -0.1966   -2.0059 H   0  0  0  0  0  0  0  0  0  0  0  0
    5.4401    0.9732    2.1428 H   0  0  0  0  0  0  0  0  0  0  0  0
   -1.9065   -5.6153   -0.6066 H   0  0  0  0  0  0  0  0  0  0  0  0
   -2.7021   -4.5839    0.6100 H   0  0  0  0  0  0  0  0  0  0  0  0
   -2.9588   -4.2994   -1.1448 H   0  0  0  0  0  0  0  0  0  0  0  0
   -3.7831    4.5650   -0.2096 H   0  0  0  0  0  0  0  0  0  0  0  0
   -2.9175    4.3509    1.3365 H   0  0  0  0  0  0  0  0  0  0  0  0
   -2.0381    4.8336   -0.1509 H   0  0  0  0  0  0  0  0  0  0  0  0
    7.7153   -0.7940   -1.9081 H   0  0  0  0  0  0  0  0  0  0  0  0
    7.8394    0.3712    2.2479 H   0  0  0  0  0  0  0  0  0  0  0  0
   11.5439   -2.3279    0.4295 H   0  0  0  0  0  0  0  0  0  0  0  0
   12.2978   -1.2507   -0.7806 H   0  0  0  0  0  0  0  0  0  0  0  0
   11.7530   -0.5781    0.7583 H   0  0  0  0  0  0  0  0  0  0  0  0
  1  2  2  0  0  0  0
  1  3  1  0  0  0  0
  1  4  1  0  0  0  0
  2  5  1  0  0  0  0
  2 27  1  0  0  0  0
  3  6  2  0  0  0  0
  3 28  1  0  0  0  0
  4  7  2  0  0  0  0
  4 29  1  0  0  0  0
  5  8  2  0  0  0  0
  5  9  1  0  0  0  0
  6 10  1  0  0  0  0
  6  8  1  0  0  0  0
  7 11  1  0  0  0  0
  7 30  1  0  0  0  0
  8 31  1  0  0  0  0
  9 12  1  0  0  0  0
 10 13  1  0  0  0  0
 11 14  2  0  0  0  0
 11 15  1  0  0  0  0
 12 16  1  0  0  0  0
 12 17  2  0  0  0  0
 13 18  1  0  0  0  0
 13 19  2  0  0  0  0
 14 20  1  0  0  0  0
 14 32  1  0  0  0  0
 15 21  2  0  0  0  0
 15 33  1  0  0  0  0
 16 34  1  0  0  0  0
 16 35  1  0  0  0  0
 16 36  1  0  0  0  0
 18 37  1  0  0  0  0
 18 38  1  0  0  0  0
 18 39  1  0  0  0  0
 20 22  2  0  0  0  0
 20 40  1  0  0  0  0
 21 22  1  0  0  0  0
 21 41  1  0  0  0  0
 22 23  1  0  0  0  0
 23 24  1  0  0  0  0
 24 25  1  0  0  0  0
 24 26  2  0  0  0  0
 25 42  1  0  0  0  0
 25 43  1  0  0  0  0
 25 44  1  0  0  0  0
M  END
>  <Mol_ID>
3088

>  <Formula>
C20H18O6

>  <MolWeight>
354.35332

>  <Cat>
S3934

>  <Name>
Acetyl Resveratrol

>  <Synonyms>
N/A

>  <Target>
Others

>  <Form>
free base

>  <CAS>
42206-94-0

>  <URL>
https://www.selleckchem.com/products/acetyl-resveratrol.html

$$$$
