S3948 Spermine.cdx
 OpenBabel08302521383D

 40 39  0  0  0  0  0  0  0  0999 V2000
   -0.4619   -3.4543    4.7304 N   0  0  0  0  0  0  0  0  0  0  0  0
   -0.9710   -2.0945    4.8810 C   0  0  0  0  0  0  0  0  0  0  0  0
   -0.5884   -1.2157    3.6888 C   0  0  0  0  0  0  0  0  0  0  0  0
   -1.1350    0.2045    3.8633 C   0  0  0  0  0  0  0  0  0  0  0  0
   -0.7728    1.0362    2.7110 N   0  0  0  0  0  0  0  0  0  0  0  0
   -1.2680    2.4042    2.8797 C   0  0  0  0  0  0  0  0  0  0  0  0
   -0.8548    3.3061    1.7118 C   0  0  0  0  0  0  0  0  0  0  0  0
   -1.3948    2.8934    0.3355 C   0  0  0  0  0  0  0  0  0  0  0  0
   -2.9211    2.8044    0.2178 C   0  0  0  0  0  0  0  0  0  0  0  0
   -3.5658    4.0958    0.4708 N   0  0  0  0  0  0  0  0  0  0  0  0
   -5.0205    3.9947    0.3369 C   0  0  0  0  0  0  0  0  0  0  0  0
   -5.7177    5.3190    0.6693 C   0  0  0  0  0  0  0  0  0  0  0  0
   -5.3379    6.4518   -0.2836 C   0  0  0  0  0  0  0  0  0  0  0  0
   -6.0889    7.6632    0.0465 N   0  0  0  0  0  0  0  0  0  0  0  0
   -0.8286   -3.8626    3.8707 H   0  0  0  0  0  0  0  0  0  0  0  0
    0.5510   -3.4322    4.6169 H   0  0  0  0  0  0  0  0  0  0  0  0
   -2.0605   -2.1364    4.9874 H   0  0  0  0  0  0  0  0  0  0  0  0
   -0.5704   -1.6702    5.8082 H   0  0  0  0  0  0  0  0  0  0  0  0
    0.5045   -1.1835    3.5901 H   0  0  0  0  0  0  0  0  0  0  0  0
   -0.9847   -1.6537    2.7636 H   0  0  0  0  0  0  0  0  0  0  0  0
   -2.2273    0.1615    3.9599 H   0  0  0  0  0  0  0  0  0  0  0  0
   -0.7300    0.6382    4.7848 H   0  0  0  0  0  0  0  0  0  0  0  0
    0.2428    1.0548    2.6093 H   0  0  0  0  0  0  0  0  0  0  0  0
   -2.3588    2.4028    2.9812 H   0  0  0  0  0  0  0  0  0  0  0  0
   -0.8575    2.8345    3.8016 H   0  0  0  0  0  0  0  0  0  0  0  0
   -1.1716    4.3321    1.9353 H   0  0  0  0  0  0  0  0  0  0  0  0
    0.2410    3.3401    1.6547 H   0  0  0  0  0  0  0  0  0  0  0  0
   -1.0217    3.6099   -0.4080 H   0  0  0  0  0  0  0  0  0  0  0  0
   -0.9687    1.9217    0.0570 H   0  0  0  0  0  0  0  0  0  0  0  0
   -3.1603    2.4761   -0.8016 H   0  0  0  0  0  0  0  0  0  0  0  0
   -3.3050    2.0400    0.9018 H   0  0  0  0  0  0  0  0  0  0  0  0
   -3.3401    4.4163    1.4115 H   0  0  0  0  0  0  0  0  0  0  0  0
   -5.2847    3.6943   -0.6838 H   0  0  0  0  0  0  0  0  0  0  0  0
   -5.4036    3.2270    1.0202 H   0  0  0  0  0  0  0  0  0  0  0  0
   -6.8020    5.1527    0.6246 H   0  0  0  0  0  0  0  0  0  0  0  0
   -5.4878    5.6078    1.7033 H   0  0  0  0  0  0  0  0  0  0  0  0
   -4.2684    6.6741   -0.2113 H   0  0  0  0  0  0  0  0  0  0  0  0
   -5.5522    6.1668   -1.3194 H   0  0  0  0  0  0  0  0  0  0  0  0
   -5.8278    8.4029   -0.6045 H   0  0  0  0  0  0  0  0  0  0  0  0
   -7.0841    7.4976   -0.0957 H   0  0  0  0  0  0  0  0  0  0  0  0
  1  2  1  0  0  0  0
  1 15  1  0  0  0  0
  1 16  1  0  0  0  0
  2  3  1  0  0  0  0
  2 17  1  0  0  0  0
  2 18  1  0  0  0  0
  3  4  1  0  0  0  0
  3 19  1  0  0  0  0
  3 20  1  0  0  0  0
  4  5  1  0  0  0  0
  4 21  1  0  0  0  0
  4 22  1  0  0  0  0
  5  6  1  0  0  0  0
  5 23  1  0  0  0  0
  6  7  1  0  0  0  0
  6 24  1  0  0  0  0
  6 25  1  0  0  0  0
  7  8  1  0  0  0  0
  7 26  1  0  0  0  0
  7 27  1  0  0  0  0
  8  9  1  0  0  0  0
  8 28  1  0  0  0  0
  8 29  1  0  0  0  0
  9 10  1  0  0  0  0
  9 30  1  0  0  0  0
  9 31  1  0  0  0  0
 10 11  1  0  0  0  0
 10 32  1  0  0  0  0
 11 12  1  0  0  0  0
 11 33  1  0  0  0  0
 11 34  1  0  0  0  0
 12 13  1  0  0  0  0
 12 35  1  0  0  0  0
 12 36  1  0  0  0  0
 13 14  1  0  0  0  0
 13 37  1  0  0  0  0
 13 38  1  0  0  0  0
 14 39  1  0  0  0  0
 14 40  1  0  0  0  0
M  END
>  <Mol_ID>
7713

>  <Formula>
C10H26N4

>  <MolWeight>
202.34024

>  <Cat>
S3948

>  <Name>
Spermine

>  <Synonyms>
4,9-Diaza-1,12-dodecanediamine

>  <Target>
Others

>  <Form>
free base

>  <CAS>
71-44-3

>  <URL>
http://selleckchem.com/products/spermine.html

$$$$
