S3944 Valproic acid.cdx
 OpenBabel08302519563D

 26 25  0  0  0  0  0  0  0  0999 V2000
    1.0209    0.0133   -0.0500 C   0  0  0  0  0  0  0  0  0  0  0  0
    0.5160    0.4954    1.3198 C   0  0  0  0  0  0  0  0  0  0  0  0
    0.5304    0.9049   -1.2102 C   0  0  0  0  0  0  0  0  0  0  0  0
    0.5140   -1.3965   -0.3197 C   0  0  0  0  0  0  0  0  0  0  0  0
    0.9380   -0.3633    2.5197 C   0  0  0  0  0  0  0  0  0  0  0  0
    0.9394    2.3810   -1.1611 C   0  0  0  0  0  0  0  0  0  0  0  0
    1.4940   -2.2971   -0.5460 O   0  0  0  0  0  0  0  0  0  0  0  0
   -0.6686   -1.7115   -0.3420 O   0  0  0  0  0  0  0  0  0  0  0  0
    2.4439   -0.4758    2.6994 C   0  0  0  0  0  0  0  0  0  0  0  0
    2.4424    2.6059   -1.1615 C   0  0  0  0  0  0  0  0  0  0  0  0
    2.1154    0.0122   -0.0492 H   0  0  0  0  0  0  0  0  0  0  0  0
    0.8695    1.5180    1.4998 H   0  0  0  0  0  0  0  0  0  0  0  0
   -0.5807    0.5439    1.3091 H   0  0  0  0  0  0  0  0  0  0  0  0
    0.8833    0.4775   -2.1589 H   0  0  0  0  0  0  0  0  0  0  0  0
   -0.5660    0.8651   -1.2591 H   0  0  0  0  0  0  0  0  0  0  0  0
    0.5151    0.0950    3.4227 H   0  0  0  0  0  0  0  0  0  0  0  0
    0.5017   -1.3654    2.4505 H   0  0  0  0  0  0  0  0  0  0  0  0
    0.5171    2.8777   -2.0434 H   0  0  0  0  0  0  0  0  0  0  0  0
    0.4939    2.8758   -0.2916 H   0  0  0  0  0  0  0  0  0  0  0  0
    2.3992   -1.9348   -0.5065 H   0  0  0  0  0  0  0  0  0  0  0  0
    2.9423    0.4835    2.5295 H   0  0  0  0  0  0  0  0  0  0  0  0
    2.6764   -0.8024    3.7183 H   0  0  0  0  0  0  0  0  0  0  0  0
    2.8677   -1.2140    2.0116 H   0  0  0  0  0  0  0  0  0  0  0  0
    2.9256    2.0527   -1.9729 H   0  0  0  0  0  0  0  0  0  0  0  0
    2.6612    3.6698   -1.3019 H   0  0  0  0  0  0  0  0  0  0  0  0
    2.8919    2.2972   -0.2129 H   0  0  0  0  0  0  0  0  0  0  0  0
  1  2  1  0  0  0  0
  1  3  1  0  0  0  0
  1  4  1  0  0  0  0
  1 11  1  0  0  0  0
  2  5  1  0  0  0  0
  2 12  1  0  0  0  0
  2 13  1  0  0  0  0
  3  6  1  0  0  0  0
  3 14  1  0  0  0  0
  3 15  1  0  0  0  0
  4  7  1  0  0  0  0
  4  8  2  0  0  0  0
  5  9  1  0  0  0  0
  5 16  1  0  0  0  0
  5 17  1  0  0  0  0
  6 10  1  0  0  0  0
  6 18  1  0  0  0  0
  6 19  1  0  0  0  0
  7 20  1  0  0  0  0
  9 21  1  0  0  0  0
  9 22  1  0  0  0  0
  9 23  1  0  0  0  0
 10 24  1  0  0  0  0
 10 25  1  0  0  0  0
 10 26  1  0  0  0  0
M  END
>  <Mol_ID>
2223

>  <Formula>
C8H16O2

>  <MolWeight>
144.21144

>  <Cat>
S3944

>  <Name>
Valproic acid (VPA)

>  <Synonyms>
2-Propylvaleric Acid, Valproate

>  <Target>
Autophagy,HDAC,Mitophagy,Notch,PGC-1¦Á

>  <Form>
free base

>  <CAS>
99-66-1

>  <URL>
http://selleckchem.com/products/valproic-acid.html

$$$$
