S3942 Cardamonin.cdx
 OpenBabel08302521383D

 34 35  0  0  0  0  0  0  0  0999 V2000
    1.4270    1.0008   -0.4446 C   0  0  0  0  0  0  0  0  0  0  0  0
    1.4765   -0.2682    0.1544 C   0  0  0  0  0  0  0  0  0  0  0  0
    0.2433    1.3835   -1.1142 C   0  0  0  0  0  0  0  0  0  0  0  0
    2.5191    2.0070   -0.3658 C   0  0  0  0  0  0  0  0  0  0  0  0
    0.3199   -1.0609    0.1888 C   0  0  0  0  0  0  0  0  0  0  0  0
    2.5471   -0.8076    0.8213 O   0  0  0  0  0  0  0  0  0  0  0  0
   -0.8990    0.5869   -1.0836 C   0  0  0  0  0  0  0  0  0  0  0  0
    0.1206    2.5641   -1.8032 O   0  0  0  0  0  0  0  0  0  0  0  0
    3.2845    2.1154    0.9111 C   0  0  0  0  0  0  0  0  0  0  0  0
    2.6750    2.7729   -1.3118 O   0  0  0  0  0  0  0  0  0  0  0  0
   -0.8602   -0.6209   -0.4030 C   0  0  0  0  0  0  0  0  0  0  0  0
    3.7780   -0.8489    0.0967 C   0  0  0  0  0  0  0  0  0  0  0  0
    4.4397    2.7702    1.0976 C   0  0  0  0  0  0  0  0  0  0  0  0
   -1.9704   -1.4032   -0.2856 O   0  0  0  0  0  0  0  0  0  0  0  0
    5.1720    3.5608    0.1083 C   0  0  0  0  0  0  0  0  0  0  0  0
    4.9781    4.9447    0.0701 C   0  0  0  0  0  0  0  0  0  0  0  0
    6.0640    2.9631   -0.7885 C   0  0  0  0  0  0  0  0  0  0  0  0
    5.6463    5.7238   -0.8807 C   0  0  0  0  0  0  0  0  0  0  0  0
    6.7311    3.7434   -1.7361 C   0  0  0  0  0  0  0  0  0  0  0  0
    6.5141    5.1212   -1.7855 C   0  0  0  0  0  0  0  0  0  0  0  0
    0.3353   -2.0241    0.6947 H   0  0  0  0  0  0  0  0  0  0  0  0
   -1.8024    0.9262   -1.5833 H   0  0  0  0  0  0  0  0  0  0  0  0
    1.0187    2.9565   -1.8965 H   0  0  0  0  0  0  0  0  0  0  0  0
    2.8591    1.5820    1.7570 H   0  0  0  0  0  0  0  0  0  0  0  0
    3.7060   -0.4988   -0.9372 H   0  0  0  0  0  0  0  0  0  0  0  0
    4.5187   -0.2528    0.6397 H   0  0  0  0  0  0  0  0  0  0  0  0
    4.1429   -1.8796    0.0930 H   0  0  0  0  0  0  0  0  0  0  0  0
    4.9048    2.7443    2.0803 H   0  0  0  0  0  0  0  0  0  0  0  0
   -2.7480   -0.8840   -0.5553 H   0  0  0  0  0  0  0  0  0  0  0  0
    4.2971    5.4239    0.7684 H   0  0  0  0  0  0  0  0  0  0  0  0
    6.2416    1.8917   -0.7627 H   0  0  0  0  0  0  0  0  0  0  0  0
    5.4758    6.7949   -0.9126 H   0  0  0  0  0  0  0  0  0  0  0  0
    7.4133    3.2777   -2.4431 H   0  0  0  0  0  0  0  0  0  0  0  0
    7.0166    5.7248   -2.5366 H   0  0  0  0  0  0  0  0  0  0  0  0
  1  2  2  0  0  0  0
  1  3  1  0  0  0  0
  1  4  1  0  0  0  0
  2  5  1  0  0  0  0
  2  6  1  0  0  0  0
  3  7  2  0  0  0  0
  3  8  1  0  0  0  0
  4  9  1  0  0  0  0
  4 10  2  0  0  0  0
  5 11  2  0  0  0  0
  5 21  1  0  0  0  0
  6 12  1  0  0  0  0
  7 11  1  0  0  0  0
  7 22  1  0  0  0  0
  8 23  1  0  0  0  0
  9 24  1  0  0  0  0
 11 14  1  0  0  0  0
 12 25  1  0  0  0  0
 12 26  1  0  0  0  0
 12 27  1  0  0  0  0
 13 15  1  0  0  0  0
 13  9  2  3  0  0  0
 13 28  1  0  0  0  0
 14 29  1  0  0  0  0
 15 16  2  0  0  0  0
 15 17  1  0  0  0  0
 16 18  1  0  0  0  0
 16 30  1  0  0  0  0
 17 19  2  0  0  0  0
 17 31  1  0  0  0  0
 18 20  2  0  0  0  0
 18 32  1  0  0  0  0
 19 20  1  0  0  0  0
 19 33  1  0  0  0  0
 20 34  1  0  0  0  0
M  END
>  <Mol_ID>
741

>  <Formula>
C16H14O4

>  <MolWeight>
270.27996

>  <Cat>
S3942

>  <Name>
Cardamonin

>  <Synonyms>
Alpinetin chalcone

>  <Target>
TRP Channel

>  <Form>
free base

>  <CAS>
18956-16-6

>  <URL>
http://selleckchem.com/products/cardamonin.html

$$$$
