S3941 Pinocembrin.cdx
 OpenBabel08302519503D

 31 33  0  0  0  0  0  0  0  0999 V2000
    0.3882    0.2727   -0.0167 C   0  0  0  0  0  0  0  0  0  0  0  0
   -0.0653   -1.0464    0.0460 C   0  0  0  0  0  0  0  0  0  0  0  0
    1.8382    0.5182    0.0543 C   0  0  0  0  0  0  0  0  0  0  0  0
   -0.5294    1.3267   -0.0899 C   0  0  0  0  0  0  0  0  0  0  0  0
    0.7625   -2.1337    0.1393 O   0  0  0  0  0  0  0  0  0  0  0  0
   -1.4359   -1.3121    0.0589 C   0  0  0  0  0  0  0  0  0  0  0  0
    2.7055   -0.6634    0.3697 C   0  0  0  0  0  0  0  0  0  0  0  0
    2.2765    1.6594   -0.0688 O   0  0  0  0  0  0  0  0  0  0  0  0
   -1.8960    1.0636   -0.0858 C   0  0  0  0  0  0  0  0  0  0  0  0
   -0.1522    2.6411   -0.1483 O   0  0  0  0  0  0  0  0  0  0  0  0
    2.1078   -1.8893   -0.3073 C   0  0  1  0  0  0  0  0  0  0  0  0
   -2.3391   -0.2533   -0.0087 C   0  0  0  0  0  0  0  0  0  0  0  0
    2.9640   -3.1104   -0.0111 C   0  0  0  0  0  0  0  0  0  0  0  0
   -3.6855   -0.4692    0.0027 O   0  0  0  0  0  0  0  0  0  0  0  0
    4.0644   -3.4086   -0.8317 C   0  0  0  0  0  0  0  0  0  0  0  0
    2.7186   -3.9296    1.1032 C   0  0  0  0  0  0  0  0  0  0  0  0
    4.8900   -4.4993   -0.5484 C   0  0  0  0  0  0  0  0  0  0  0  0
    3.5437   -5.0213    1.3816 C   0  0  0  0  0  0  0  0  0  0  0  0
    4.6289   -5.3052    0.5565 C   0  0  0  0  0  0  0  0  0  0  0  0
   -1.7793   -2.3403    0.1192 H   0  0  0  0  0  0  0  0  0  0  0  0
    2.7421   -0.7702    1.4602 H   0  0  0  0  0  0  0  0  0  0  0  0
    3.7180   -0.4684   -0.0007 H   0  0  0  0  0  0  0  0  0  0  0  0
   -2.6107    1.8807   -0.1308 H   0  0  0  0  0  0  0  0  0  0  0  0
    0.8308    2.6806   -0.1451 H   0  0  0  0  0  0  0  0  0  0  0  0
    2.0663   -1.7543   -1.3980 H   0  0  0  0  0  0  0  0  0  0  0  0
   -3.8557   -1.4235    0.0679 H   0  0  0  0  0  0  0  0  0  0  0  0
    4.2920   -2.7889   -1.6967 H   0  0  0  0  0  0  0  0  0  0  0  0
    1.8803   -3.7235    1.7657 H   0  0  0  0  0  0  0  0  0  0  0  0
    5.7400   -4.7185   -1.1905 H   0  0  0  0  0  0  0  0  0  0  0  0
    3.3391   -5.6496    2.2455 H   0  0  0  0  0  0  0  0  0  0  0  0
    5.2728   -6.1534    0.7767 H   0  0  0  0  0  0  0  0  0  0  0  0
  1  2  2  0  0  0  0
  1  3  1  0  0  0  0
  1  4  1  0  0  0  0
  2  5  1  0  0  0  0
  2  6  1  0  0  0  0
  3  7  1  0  0  0  0
  3  8  2  0  0  0  0
  4  9  2  0  0  0  0
  4 10  1  0  0  0  0
  5 11  1  0  0  0  0
  6 12  2  0  0  0  0
  6 20  1  0  0  0  0
  7 11  1  0  0  0  0
  7 21  1  0  0  0  0
  7 22  1  0  0  0  0
  9 12  1  0  0  0  0
  9 23  1  0  0  0  0
 10 24  1  0  0  0  0
 11 13  1  0  0  0  0
 11 25  1  6  0  0  0
 12 14  1  0  0  0  0
 13 15  2  0  0  0  0
 13 16  1  0  0  0  0
 14 26  1  0  0  0  0
 15 17  1  0  0  0  0
 15 27  1  0  0  0  0
 16 18  2  0  0  0  0
 16 28  1  0  0  0  0
 17 19  2  0  0  0  0
 17 29  1  0  0  0  0
 18 19  1  0  0  0  0
 18 30  1  0  0  0  0
 19 31  1  0  0  0  0
M  END
>  <Mol_ID>
1758

>  <Formula>
C15H12O4

>  <MolWeight>
256.25338

>  <Cat>
S3941

>  <Name>
Pinocembrin

>  <Synonyms>
Dihydrochrysin, Galangin flavanone, 5,7-Dihydroxyflavanone

>  <Target>
ADC Cytotoxin,Anti-infection

>  <Form>
free base

>  <CAS>
480-39-7

>  <URL>
http://selleckchem.com/products/pinocembrin.html

$$$$
