S3949 N-Sulfo-glucosamine sodium salt.cdx
 OpenBabel08302519523D

 28 27  0  0  0  0  0  0  0  0999 V2000
    2.7749   -0.4192    0.4096 C   0  0  2  0  0  0  0  0  0  0  0  0
    2.3352   -1.2569    1.6247 C   0  0  2  0  0  0  0  0  0  0  0  0
    2.3252   -1.0942   -0.8773 C   0  0  0  0  0  0  0  0  0  0  0  0
    4.2517   -0.3135    0.2383 N   0  0  0  0  0  0  0  0  0  0  0  0
    0.8406   -1.6646    1.6125 C   0  0  1  0  0  0  0  0  0  0  0  0
    2.5431   -0.4542    2.8034 O   0  0  0  0  0  0  0  0  0  0  0  0
    0.8388   -2.0490    4.0227 O   0  0  0  0  0  0  0  0  0  0  0  0
    3.0130   -1.9185   -1.4832 O   0  0  0  0  0  0  0  0  0  0  0  0
    5.2186    0.2780    1.4799 S   0  0  0  0  0  0  0  0  0  0  0  0
    0.4763   -2.6392    2.7625 C   0  0  2  0  0  0  0  0  0  0  0  0
    0.0536   -0.4692    1.7513 O   0  0  0  0  0  0  0  0  0  0  0  0
    5.1911   -0.7882    2.4742 O   0  0  0  0  0  0  0  0  0  0  0  0
    6.5005    0.4000    0.7959 O   0  0  0  0  0  0  0  0  0  0  0  0
    4.5886    1.5390    1.8394 O   0  5  0  0  0  0  0  0  0  0  0  0
    1.1674   -4.0021    2.6200 C   0  0  0  0  0  0  0  0  0  0  0  0
    1.0165   -4.5339    1.3155 O   0  0  0  0  0  0  0  0  0  0  0  0
    2.3583    0.5934    0.4333 H   0  0  0  0  0  0  0  0  0  0  0  0
    2.9684   -2.1474    1.6940 H   0  0  0  0  0  0  0  0  0  0  0  0
    1.3085   -0.8491   -1.2250 H   0  0  0  0  0  0  0  0  0  0  0  0
    4.6862   -1.1424   -0.1696 H   0  0  0  0  0  0  0  0  0  0  0  0
    0.5494   -2.1192    0.6619 H   0  0  0  0  0  0  0  0  0  0  0  0
    2.2145   -0.9724    3.5702 H   0  0  0  0  0  0  0  0  0  0  0  0
    0.7078   -2.7215    4.7174 H   0  0  0  0  0  0  0  0  0  0  0  0
   -0.6125   -2.7753    2.7669 H   0  0  0  0  0  0  0  0  0  0  0  0
    0.3371   -0.0683    2.6012 H   0  0  0  0  0  0  0  0  0  0  0  0
    2.2370   -3.9156    2.8382 H   0  0  0  0  0  0  0  0  0  0  0  0
    0.7698   -4.7135    3.3528 H   0  0  0  0  0  0  0  0  0  0  0  0
    0.2093   -5.0783    1.2998 H   0  0  0  0  0  0  0  0  0  0  0  0
  1  3  1  0  0  0  0
  1  4  1  0  0  0  0
  1 17  1  1  0  0  0
  2  6  1  0  0  0  0
  2 18  1  1  0  0  0
  2  5  1  0  0  0  0
  2  1  1  0  0  0  0
  3  8  2  0  0  0  0
  3 19  1  0  0  0  0
  4  9  1  0  0  0  0
  4 20  1  0  0  0  0
  5 11  1  0  0  0  0
  5 21  1  6  0  0  0
  6 22  1  0  0  0  0
  7 23  1  0  0  0  0
  9 12  2  0  0  0  0
  9 13  2  0  0  0  0
  9 14  1  0  0  0  0
 10 15  1  0  0  0  0
 10 24  1  6  0  0  0
 10  7  1  0  0  0  0
 10  5  1  0  0  0  0
 11 25  1  0  0  0  0
 15 16  1  0  0  0  0
 15 26  1  0  0  0  0
 15 27  1  0  0  0  0
 16 28  1  0  0  0  0
M  CHG  1  14  -1
M  END
>  <Mol_ID>
1974

>  <Formula>
C6H12NNaO8S

>  <MolWeight>
281.21615

>  <Cat>
S3949

>  <Name>
N-Sulfo-glucosamine sodium salt

>  <Synonyms>
N-sulfoglucosamine sodium salt, N-Sulfo-D-glucosamine sodium salt

>  <Target>
Others

>  <Form>
sodium salt

>  <CAS>
38899-05-7

>  <URL>
http://selleckchem.com/products/n-sulfo-glucosamine-sodium-salt.html

$$$$
