S3953 L-Lysine hydrochloride.cdx
 OpenBabel08302521363D

 24 23  0  0  0  0  0  0  0  0999 V2000
    1.1672   -1.1028    2.2722 C   0  0  0  0  0  0  0  0  0  0  0  0
    1.1996    0.2443    0.2043 N   0  0  0  0  0  0  0  0  0  0  0  0
    0.3262   -0.5728    1.0984 C   0  0  1  0  0  0  0  0  0  0  0  0
   -0.4222   -1.6837    0.3461 C   0  0  0  0  0  0  0  0  0  0  0  0
    0.4033   -2.6595   -0.5093 C   0  0  0  0  0  0  0  0  0  0  0  0
    1.3181   -3.5860    0.3000 C   0  0  0  0  0  0  0  0  0  0  0  0
    2.1155   -4.5706   -0.5539 C   0  0  0  0  0  0  0  0  0  0  0  0
    1.2602   -5.5288   -1.2406 N   0  0  0  0  0  0  0  0  0  0  0  0
    0.7282   -1.6749    3.2555 O   0  0  0  0  0  0  0  0  0  0  0  0
    2.4901   -0.8637    2.0692 O   0  0  0  0  0  0  0  0  0  0  0  0
    0.6533    0.4824   -0.6289 H   0  0  0  0  0  0  0  0  0  0  0  0
    1.3529    1.1507    0.6630 H   0  0  0  0  0  0  0  0  0  0  0  0
   -0.4108    0.1112    1.5375 H   0  0  0  0  0  0  0  0  0  0  0  0
   -1.0190   -2.2636    1.0623 H   0  0  0  0  0  0  0  0  0  0  0  0
   -1.1455   -1.2001   -0.3251 H   0  0  0  0  0  0  0  0  0  0  0  0
   -0.3070   -3.2743   -1.0759 H   0  0  0  0  0  0  0  0  0  0  0  0
    0.9904   -2.1078   -1.2521 H   0  0  0  0  0  0  0  0  0  0  0  0
    2.0541   -2.9930    0.8437 H   0  0  0  0  0  0  0  0  0  0  0  0
    0.7266   -4.1288    1.0475 H   0  0  0  0  0  0  0  0  0  0  0  0
    2.7155   -4.0250   -1.2902 H   0  0  0  0  0  0  0  0  0  0  0  0
    2.8118   -5.1148    0.0942 H   0  0  0  0  0  0  0  0  0  0  0  0
    1.8471   -6.2168   -1.7115 H   0  0  0  0  0  0  0  0  0  0  0  0
    0.7162   -6.0492   -0.5526 H   0  0  0  0  0  0  0  0  0  0  0  0
    2.5574   -0.4624    1.1702 H   0  0  0  0  0  0  0  0  0  0  0  0
  1  3  1  0  0  0  0
  1  9  2  0  0  0  0
  1 10  1  0  0  0  0
  2 11  1  0  0  0  0
  2 12  1  0  0  0  0
  3  2  1  0  0  0  0
  3  4  1  0  0  0  0
  3 13  1  1  0  0  0
  4  5  1  0  0  0  0
  4 14  1  0  0  0  0
  4 15  1  0  0  0  0
  5  6  1  0  0  0  0
  5 16  1  0  0  0  0
  5 17  1  0  0  0  0
  6  7  1  0  0  0  0
  6 18  1  0  0  0  0
  6 19  1  0  0  0  0
  7  8  1  0  0  0  0
  7 20  1  0  0  0  0
  7 21  1  0  0  0  0
  8 22  1  0  0  0  0
  8 23  1  0  0  0  0
 10 24  1  0  0  0  0
M  END
>  <Mol_ID>
7116

>  <Formula>
C6H15ClN2O2

>  <MolWeight>
182.6485

>  <Cat>
S3953

>  <Name>
L-Lysine hydrochloride

>  <Synonyms>
N/A

>  <Target>
Others

>  <Form>
hydrochloride

>  <CAS>
657-27-2

>  <URL>
http://selleckchem.com/products/l-lysine-hydrochloride.html

$$$$
