S3966 Nifuratel.cdx
 OpenBabel08302520013D

 30 31  0  0  0  0  0  0  0  0999 V2000
    0.0014   -1.1344   -0.1779 N   0  0  0  0  0  0  0  0  0  0  0  0
    1.3855   -0.8353    0.0274 C   0  0  0  0  0  0  0  0  0  0  0  0
   -0.7636    0.0085    0.0071 C   0  0  0  0  0  0  0  0  0  0  0  0
   -0.3938   -2.4445   -0.2140 N   0  0  0  0  0  0  0  0  0  0  0  0
    1.4261    0.6729   -0.0984 C   0  0  3  0  0  0  0  0  0  0  0  0
    0.0663    1.0913    0.1485 O   0  0  0  0  0  0  0  0  0  0  0  0
   -1.9805    0.1021    0.0776 O   0  0  0  0  0  0  0  0  0  0  0  0
   -1.6379   -2.7441   -0.4009 C   0  0  0  0  0  0  0  0  0  0  0  0
    2.3547    1.3821    0.8935 C   0  0  0  0  0  0  0  0  0  0  0  0
   -2.0206   -4.1330   -0.4421 C   0  0  0  0  0  0  0  0  0  0  0  0
    4.0938    0.8470    0.7537 S   0  0  0  0  0  0  0  0  0  0  0  0
   -3.3380   -4.4423   -0.6564 O   0  0  0  0  0  0  0  0  0  0  0  0
   -1.2795   -5.2989   -0.3300 C   0  0  0  0  0  0  0  0  0  0  0  0
    4.8233    1.8615    2.0719 C   0  0  0  0  0  0  0  0  0  0  0  0
   -3.4075   -5.8001   -0.7046 C   0  0  0  0  0  0  0  0  0  0  0  0
   -2.1786   -6.3815   -0.5086 C   0  0  0  0  0  0  0  0  0  0  0  0
   -4.6925   -6.3661   -0.9739 N   0  3  0  0  0  0  0  0  0  0  0  0
   -4.7367   -7.5997   -1.0740 O   0  0  0  0  0  0  0  0  0  0  0  0
   -5.6529   -5.5943   -1.0912 O   0  5  0  0  0  0  0  0  0  0  0  0
    1.6590   -1.1841    1.0285 H   0  0  0  0  0  0  0  0  0  0  0  0
    2.0054   -1.3385   -0.7209 H   0  0  0  0  0  0  0  0  0  0  0  0
    1.6689    0.9729   -1.1257 H   0  0  0  0  0  0  0  0  0  0  0  0
   -2.4467   -2.0145   -0.5602 H   0  0  0  0  0  0  0  0  0  0  0  0
    2.3062    2.4615    0.7113 H   0  0  0  0  0  0  0  0  0  0  0  0
    2.0034    1.2196    1.9188 H   0  0  0  0  0  0  0  0  0  0  0  0
   -0.2107   -5.3478   -0.1654 H   0  0  0  0  0  0  0  0  0  0  0  0
    4.5196    2.9070    1.9760 H   0  0  0  0  0  0  0  0  0  0  0  0
    4.5315    1.4816    3.0551 H   0  0  0  0  0  0  0  0  0  0  0  0
    5.9139    1.8138    1.9970 H   0  0  0  0  0  0  0  0  0  0  0  0
   -1.9554   -7.4398   -0.5106 H   0  0  0  0  0  0  0  0  0  0  0  0
  1  2  1  0  0  0  0
  1  3  1  0  0  0  0
  1  4  1  0  0  0  0
  2  5  1  0  0  0  0
  2 20  1  0  0  0  0
  2 21  1  0  0  0  0
  3  6  1  0  0  0  0
  3  7  2  0  0  0  0
  4  8  2  0  0  0  0
  5  9  1  0  0  0  0
  5  6  1  0  0  0  0
  5 22  1  0  0  0  0
  8 10  1  0  0  0  0
  8 23  1  0  0  0  0
  9 11  1  0  0  0  0
  9 24  1  0  0  0  0
  9 25  1  0  0  0  0
 10 12  1  0  0  0  0
 10 13  2  0  0  0  0
 11 14  1  0  0  0  0
 12 15  1  0  0  0  0
 13 16  1  0  0  0  0
 13 26  1  0  0  0  0
 14 27  1  0  0  0  0
 14 28  1  0  0  0  0
 14 29  1  0  0  0  0
 15 17  1  0  0  0  0
 15 16  2  0  0  0  0
 16 30  1  0  0  0  0
 17 18  2  0  0  0  0
 17 19  1  0  0  0  0
M  CHG  2  17   1  19  -1
M  END
>  <Mol_ID>
3092

>  <Formula>
C10H11N3O5S

>  <MolWeight>
285.27644

>  <Cat>
S3966

>  <Name>
Nifuratel

>  <Synonyms>
N/A

>  <Target>
Fungal

>  <Form>
free base

>  <CAS>
4936-47-4

>  <URL>
https://www.selleckchem.com/products/nifuratel.html

$$$$
