S3962 Dihydroactinidiolide.cdx
 OpenBabel08302519513D

 29 30  0  0  0  0  0  0  0  0999 V2000
    8.6217    2.3460    2.4110 C   0  0  0  0  0  0  0  0  0  0  0  0
    9.0947    3.7636    2.5458 C   0  0  2  0  0  0  0  0  0  0  0  0
    8.2446    4.2964    3.5760 O   0  0  0  0  0  0  0  0  0  0  0  0
    7.5943    3.2761    4.1956 C   0  0  0  0  0  0  0  0  0  0  0  0
    7.7738    2.0601    3.4022 C   0  0  0  0  0  0  0  0  0  0  0  0
    8.9916    1.4863    1.2140 C   0  0  0  0  0  0  0  0  0  0  0  0
    6.9247    3.3554    5.2095 O   0  0  0  0  0  0  0  0  0  0  0  0
    8.8491    4.4928    1.2260 C   0  0  0  0  0  0  0  0  0  0  0  0
   10.5412    3.9673    3.0306 C   0  0  0  0  0  0  0  0  0  0  0  0
    9.1263    2.3466   -0.0813 C   0  0  0  0  0  0  0  0  0  0  0  0
    7.9171    0.4146    0.8878 C   0  0  0  0  0  0  0  0  0  0  0  0
   10.2832    0.7156    1.5355 C   0  0  0  0  0  0  0  0  0  0  0  0
    9.6004    3.7899    0.0936 C   0  0  0  0  0  0  0  0  0  0  0  0
    7.2340    1.1520    3.6041 H   0  0  0  0  0  0  0  0  0  0  0  0
    9.1599    5.5419    1.3017 H   0  0  0  0  0  0  0  0  0  0  0  0
    7.7736    4.5220    1.0009 H   0  0  0  0  0  0  0  0  0  0  0  0
   11.0209    3.0318    3.3321 H   0  0  0  0  0  0  0  0  0  0  0  0
   11.1847    4.4271    2.2723 H   0  0  0  0  0  0  0  0  0  0  0  0
   10.5778    4.6336    3.9033 H   0  0  0  0  0  0  0  0  0  0  0  0
    9.7811    1.8417   -0.8031 H   0  0  0  0  0  0  0  0  0  0  0  0
    8.1450    2.4093   -0.5726 H   0  0  0  0  0  0  0  0  0  0  0  0
    7.7354   -0.2682    1.7241 H   0  0  0  0  0  0  0  0  0  0  0  0
    6.9588    0.8770    0.6207 H   0  0  0  0  0  0  0  0  0  0  0  0
    8.2323   -0.1971    0.0324 H   0  0  0  0  0  0  0  0  0  0  0  0
   10.1025   -0.0317    2.3193 H   0  0  0  0  0  0  0  0  0  0  0  0
   10.6634    0.1799    0.6614 H   0  0  0  0  0  0  0  0  0  0  0  0
   11.0881    1.3684    1.8943 H   0  0  0  0  0  0  0  0  0  0  0  0
    9.4379    4.3385   -0.8417 H   0  0  0  0  0  0  0  0  0  0  0  0
   10.6809    3.7991    0.2697 H   0  0  0  0  0  0  0  0  0  0  0  0
  2  1  1  0  0  0  0
  2  9  1  1  0  0  0
  3  2  1  0  0  0  0
  3  4  1  0  0  0  0
  4  5  1  0  0  0  0
  5  1  2  0  0  0  0
  5 14  1  0  0  0  0
  6  1  1  0  0  0  0
  7  4  2  0  0  0  0
  8  2  1  0  0  0  0
  8 13  1  0  0  0  0
  8 15  1  0  0  0  0
  8 16  1  0  0  0  0
  9 17  1  0  0  0  0
  9 18  1  0  0  0  0
  9 19  1  0  0  0  0
 10  6  1  0  0  0  0
 10 20  1  0  0  0  0
 10 21  1  0  0  0  0
 11 22  1  0  0  0  0
 11 23  1  0  0  0  0
 11 24  1  0  0  0  0
 11  6  1  0  0  0  0
 12 25  1  0  0  0  0
 12 26  1  0  0  0  0
 12 27  1  0  0  0  0
 12  6  1  0  0  0  0
 13 10  1  0  0  0  0
 13 28  1  0  0  0  0
 13 29  1  0  0  0  0
M  END
>  <Mol_ID>
1789

>  <Formula>
C11H16O2

>  <MolWeight>
180.24354

>  <Cat>
S3962

>  <Name>
Dihydroactinidiolide

>  <Synonyms>
N/A

>  <Target>
Others

>  <Form>
free base

>  <CAS>
17092-92-1

>  <URL>
http://selleckchem.com/products/dihydroactinidiolide.html

$$$$
