S3965 Vanillyl Butyl Ether.cdx
 OpenBabel08302519563D

 33 33  0  0  0  0  0  0  0  0999 V2000
   -1.3917   -0.9339   -0.2688 C   0  0  0  0  0  0  0  0  0  0  0  0
   -0.3202   -0.7685    0.6270 C   0  0  0  0  0  0  0  0  0  0  0  0
   -1.7012    0.0926   -1.1731 C   0  0  0  0  0  0  0  0  0  0  0  0
   -2.2321   -2.1886   -0.2272 C   0  0  0  0  0  0  0  0  0  0  0  0
    0.3998    0.4283    0.6556 C   0  0  0  0  0  0  0  0  0  0  0  0
   -0.9827    1.2857   -1.1590 C   0  0  0  0  0  0  0  0  0  0  0  0
   -2.7801   -2.4276    1.0748 O   0  0  0  0  0  0  0  0  0  0  0  0
    0.0445    1.4460   -0.2384 C   0  0  0  0  0  0  0  0  0  0  0  0
    1.4340    0.7411    1.4967 O   0  0  0  0  0  0  0  0  0  0  0  0
   -3.8007   -1.4910    1.4230 C   0  0  0  0  0  0  0  0  0  0  0  0
    0.7056    2.6438   -0.2120 O   0  0  0  0  0  0  0  0  0  0  0  0
    1.8484   -0.2726    2.4044 C   0  0  0  0  0  0  0  0  0  0  0  0
   -4.4605   -1.8817    2.7462 C   0  0  0  0  0  0  0  0  0  0  0  0
   -3.5004   -2.1076    3.9173 C   0  0  0  0  0  0  0  0  0  0  0  0
   -2.6956   -0.8782    4.3081 C   0  0  0  0  0  0  0  0  0  0  0  0
   -0.0913   -1.5818    1.3102 H   0  0  0  0  0  0  0  0  0  0  0  0
   -2.5204   -0.0201   -1.8828 H   0  0  0  0  0  0  0  0  0  0  0  0
   -3.0423   -2.1623   -0.9668 H   0  0  0  0  0  0  0  0  0  0  0  0
   -1.5971   -3.0454   -0.4851 H   0  0  0  0  0  0  0  0  0  0  0  0
   -1.2300    2.0917   -1.8430 H   0  0  0  0  0  0  0  0  0  0  0  0
   -3.3767   -0.4849    1.5031 H   0  0  0  0  0  0  0  0  0  0  0  0
   -4.5669   -1.4768    0.6388 H   0  0  0  0  0  0  0  0  0  0  0  0
    1.3409    2.5609    0.5261 H   0  0  0  0  0  0  0  0  0  0  0  0
    1.0350   -0.5619    3.0777 H   0  0  0  0  0  0  0  0  0  0  0  0
    2.2478   -1.1394    1.8685 H   0  0  0  0  0  0  0  0  0  0  0  0
    2.6548    0.1413    3.0191 H   0  0  0  0  0  0  0  0  0  0  0  0
   -5.1977   -1.1155    3.0153 H   0  0  0  0  0  0  0  0  0  0  0  0
   -5.0140   -2.8164    2.5923 H   0  0  0  0  0  0  0  0  0  0  0  0
   -4.0860   -2.4274    4.7883 H   0  0  0  0  0  0  0  0  0  0  0  0
   -2.8165   -2.9315    3.6840 H   0  0  0  0  0  0  0  0  0  0  0  0
   -3.3459   -0.1046    4.7289 H   0  0  0  0  0  0  0  0  0  0  0  0
   -1.9560   -1.1447    5.0708 H   0  0  0  0  0  0  0  0  0  0  0  0
   -2.1553   -0.4527    3.4588 H   0  0  0  0  0  0  0  0  0  0  0  0
  1  2  2  0  0  0  0
  1  3  1  0  0  0  0
  1  4  1  0  0  0  0
  2  5  1  0  0  0  0
  2 16  1  0  0  0  0
  3  6  2  0  0  0  0
  3 17  1  0  0  0  0
  4  7  1  0  0  0  0
  4 18  1  0  0  0  0
  4 19  1  0  0  0  0
  5  8  2  0  0  0  0
  5  9  1  0  0  0  0
  6  8  1  0  0  0  0
  6 20  1  0  0  0  0
  7 10  1  0  0  0  0
  8 11  1  0  0  0  0
  9 12  1  0  0  0  0
 10 13  1  0  0  0  0
 10 21  1  0  0  0  0
 10 22  1  0  0  0  0
 11 23  1  0  0  0  0
 12 24  1  0  0  0  0
 12 25  1  0  0  0  0
 12 26  1  0  0  0  0
 13 14  1  0  0  0  0
 13 27  1  0  0  0  0
 13 28  1  0  0  0  0
 14 15  1  0  0  0  0
 14 29  1  0  0  0  0
 14 30  1  0  0  0  0
 15 31  1  0  0  0  0
 15 32  1  0  0  0  0
 15 33  1  0  0  0  0
M  END
>  <Mol_ID>
2224

>  <Formula>
C12H18O3

>  <MolWeight>
210.26952

>  <Cat>
S3965

>  <Name>
Vanillyl Butyl Ether

>  <Synonyms>
4-(Butoxymethyl)-2-methoxyphenol

>  <Target>
Others

>  <Form>
Ether

>  <CAS>
82654-98-6

>  <URL>
http://selleckchem.com/products/vanillyl-butyl-ether.html

$$$$
