S3978 5-Phenyl-2,4-pentadienoic acid.cdx
 OpenBabel08302519523D

 23 23  0  0  0  0  0  0  0  0999 V2000
    1.4208   -0.1511    0.0463 C   0  0  0  0  0  0  0  0  0  0  0  0
    2.8717   -0.3819    0.1622 C   0  0  0  0  0  0  0  0  0  0  0  0
    0.6311   -1.1068   -0.6083 C   0  0  0  0  0  0  0  0  0  0  0  0
    0.7844    0.9513    0.6341 C   0  0  0  0  0  0  0  0  0  0  0  0
    3.7940    0.5921    0.2200 C   0  0  0  0  0  0  0  0  0  0  0  0
   -0.7570   -0.9573   -0.6858 C   0  0  0  0  0  0  0  0  0  0  0  0
   -0.6038    1.1004    0.5576 C   0  0  0  0  0  0  0  0  0  0  0  0
    5.2108    0.3318    0.3672 C   0  0  0  0  0  0  0  0  0  0  0  0
   -1.3744    0.1454   -0.1009 C   0  0  0  0  0  0  0  0  0  0  0  0
    6.1207    1.3170    0.4256 C   0  0  0  0  0  0  0  0  0  0  0  0
    7.5505    0.9914    0.5972 C   0  0  0  0  0  0  0  0  0  0  0  0
    8.3186    2.0983    0.6346 O   0  0  0  0  0  0  0  0  0  0  0  0
    7.9997   -0.1376    0.6982 O   0  0  0  0  0  0  0  0  0  0  0  0
    3.1751   -1.4264    0.2001 H   0  0  0  0  0  0  0  0  0  0  0  0
    1.0899   -1.9797   -1.0677 H   0  0  0  0  0  0  0  0  0  0  0  0
    1.3552    1.6996    1.1771 H   0  0  0  0  0  0  0  0  0  0  0  0
    3.4890    1.6341    0.1565 H   0  0  0  0  0  0  0  0  0  0  0  0
   -1.3557   -1.7066   -1.1974 H   0  0  0  0  0  0  0  0  0  0  0  0
   -1.0834    1.9573    1.0236 H   0  0  0  0  0  0  0  0  0  0  0  0
    5.5290   -0.7081    0.4431 H   0  0  0  0  0  0  0  0  0  0  0  0
   -2.4543    0.2564   -0.1510 H   0  0  0  0  0  0  0  0  0  0  0  0
    5.8277    2.3545    0.3556 H   0  0  0  0  0  0  0  0  0  0  0  0
    7.8467    2.9451    0.5440 H   0  0  0  0  0  0  0  0  0  0  0  0
  1  2  1  0  0  0  0
  1  3  2  0  0  0  0
  1  4  1  0  0  0  0
  2  5  2  0  0  0  0
  2 14  1  0  0  0  0
  3  6  1  0  0  0  0
  3 15  1  0  0  0  0
  4  7  2  0  0  0  0
  4 16  1  0  0  0  0
  5  8  1  0  0  0  0
  5 17  1  0  0  0  0
  6  9  2  0  0  0  0
  6 18  1  0  0  0  0
  7  9  1  0  0  0  0
  7 19  1  0  0  0  0
  8 10  2  0  0  0  0
  8 20  1  0  0  0  0
  9 21  1  0  0  0  0
 10 11  1  0  0  0  0
 10 22  1  0  0  0  0
 11 12  1  0  0  0  0
 11 13  2  0  0  0  0
 12 23  1  0  0  0  0
M  END
>  <Mol_ID>
1981

>  <Formula>
C11H10O2

>  <MolWeight>
174.1959

>  <Cat>
S3978

>  <Name>
5-Phenyl-2,4-pentadienoic acid

>  <Synonyms>
5-Phenylpenta-2,4-dienoic acid

>  <Target>
Anti-infection

>  <Form>
free base

>  <CAS>
1552-94-9

>  <URL>
http://selleckchem.com/products/5-phenyl-2-4-pentadienoic-acid.html

$$$$
