S3977 (-)-Borneol.cdx
 OpenBabel08302519523D

 29 30  0  0  0  0  0  0  0  0999 V2000
   -1.2457   -0.7513   -0.5744 C   0  0  0  0  0  0  0  0  0  0  0  0
   -0.0153   -1.0982    0.2956 C   0  0  1  0  0  0  0  0  0  0  0  0
    1.2312   -0.7538   -0.5559 C   0  0  0  0  0  0  0  0  0  0  0  0
    1.2493    0.7862   -0.5153 C   0  0  2  0  0  0  0  0  0  0  0  0
   -1.2745    0.7871   -0.5338 C   0  0  0  0  0  0  0  0  0  0  0  0
   -0.0223    1.1288    0.3206 C   0  0  1  0  0  0  0  0  0  0  0  0
   -0.0299   -0.0017    1.3949 C   0  0  0  0  0  0  0  0  0  0  0  0
    1.1889   -0.0330    2.3383 C   0  0  0  0  0  0  0  0  0  0  0  0
   -1.2745   -0.0433    2.3059 C   0  0  0  0  0  0  0  0  0  0  0  0
   -0.0293    2.5573    0.8313 C   0  0  0  0  0  0  0  0  0  0  0  0
    1.2476    1.3608   -1.8115 O   0  0  0  0  0  0  0  0  0  0  0  0
   -2.1654   -1.1697   -0.1526 H   0  0  0  0  0  0  0  0  0  0  0  0
   -1.1532   -1.1285   -1.5983 H   0  0  0  0  0  0  0  0  0  0  0  0
   -0.0179   -2.1297    0.6558 H   0  0  0  0  0  0  0  0  0  0  0  0
    1.1752   -1.1611   -1.5707 H   0  0  0  0  0  0  0  0  0  0  0  0
    2.1360   -1.1595   -0.0895 H   0  0  0  0  0  0  0  0  0  0  0  0
    2.1583    1.1426   -0.0200 H   0  0  0  0  0  0  0  0  0  0  0  0
   -1.2539    1.2230   -1.5369 H   0  0  0  0  0  0  0  0  0  0  0  0
   -2.1990    1.1431   -0.0654 H   0  0  0  0  0  0  0  0  0  0  0  0
    1.1734    0.8278    3.0168 H   0  0  0  0  0  0  0  0  0  0  0  0
    1.1705   -0.9400    2.9536 H   0  0  0  0  0  0  0  0  0  0  0  0
    2.1567   -0.0183    1.8337 H   0  0  0  0  0  0  0  0  0  0  0  0
   -2.2292    0.0022    1.7778 H   0  0  0  0  0  0  0  0  0  0  0  0
   -1.2862   -0.9696    2.8918 H   0  0  0  0  0  0  0  0  0  0  0  0
   -1.2659    0.7965    3.0099 H   0  0  0  0  0  0  0  0  0  0  0  0
   -0.9116    2.7564    1.4480 H   0  0  0  0  0  0  0  0  0  0  0  0
    0.8566    2.7643    1.4411 H   0  0  0  0  0  0  0  0  0  0  0  0
   -0.0348    3.2707    0.0006 H   0  0  0  0  0  0  0  0  0  0  0  0
    0.6328    0.8633   -2.3739 H   0  0  0  0  0  0  0  0  0  0  0  0
  1  5  1  0  0  0  0
  1 12  1  0  0  0  0
  1 13  1  0  0  0  0
  2  1  1  0  0  0  0
  2  3  1  0  0  0  0
  2  7  1  0  0  0  0
  2 14  1  1  0  0  0
  3  4  1  0  0  0  0
  3 15  1  0  0  0  0
  3 16  1  0  0  0  0
  4  6  1  0  0  0  0
  4 11  1  0  0  0  0
  4 17  1  1  0  0  0
  5  6  1  0  0  0  0
  5 18  1  0  0  0  0
  5 19  1  0  0  0  0
  6  7  1  0  0  0  0
  6 10  1  1  0  0  0
  7  8  1  0  0  0  0
  7  9  1  0  0  0  0
  8 20  1  0  0  0  0
  8 21  1  0  0  0  0
  8 22  1  0  0  0  0
  9 23  1  0  0  0  0
  9 24  1  0  0  0  0
  9 25  1  0  0  0  0
 10 26  1  0  0  0  0
 10 27  1  0  0  0  0
 10 28  1  0  0  0  0
 11 29  1  0  0  0  0
M  END
>  <Mol_ID>
1980

>  <Formula>
C10H18O

>  <MolWeight>
154.24932

>  <Cat>
S3977

>  <Name>
(-)-Borneol

>  <Synonyms>
L-Borneol

>  <Target>
GABA Receptor

>  <Form>
free base

>  <CAS>
464-45-9

>  <URL>
http://selleckchem.com/products/l-borneol.html

$$$$
