S3981 Sinapinic Acid.cdx
 OpenBabel08302519503D

 28 28  0  0  0  0  0  0  0  0999 V2000
    0.9824   -0.1271    0.0101 C   0  0  0  0  0  0  0  0  0  0  0  0
    0.2207   -1.3075   -0.0304 C   0  0  0  0  0  0  0  0  0  0  0  0
    0.3162    1.1130    0.0232 C   0  0  0  0  0  0  0  0  0  0  0  0
    2.3362    0.0632    0.0232 O   0  0  0  0  0  0  0  0  0  0  0  0
   -1.1870   -1.2283   -0.0286 C   0  0  0  0  0  0  0  0  0  0  0  0
    0.7901   -2.5471   -0.1013 O   0  0  0  0  0  0  0  0  0  0  0  0
   -1.0757    1.2111   -0.0107 C   0  0  0  0  0  0  0  0  0  0  0  0
    3.2564   -1.0083    0.0032 C   0  0  0  0  0  0  0  0  0  0  0  0
   -1.8139    0.0286   -0.0129 C   0  0  0  0  0  0  0  0  0  0  0  0
   -2.1019   -2.2519   -0.0341 O   0  0  0  0  0  0  0  0  0  0  0  0
   -1.7830    2.5017    0.0091 C   0  0  0  0  0  0  0  0  0  0  0  0
   -1.6417   -3.5942   -0.0207 C   0  0  0  0  0  0  0  0  0  0  0  0
   -1.3093    3.6333   -0.5368 C   0  0  0  0  0  0  0  0  0  0  0  0
   -2.1167    4.8736   -0.4670 C   0  0  0  0  0  0  0  0  0  0  0  0
   -1.5019    5.9077   -1.0588 O   0  0  0  0  0  0  0  0  0  0  0  0
   -3.2074    4.9572    0.0679 O   0  0  0  0  0  0  0  0  0  0  0  0
    0.9246    2.0143    0.0646 H   0  0  0  0  0  0  0  0  0  0  0  0
    1.6294   -2.5451    0.3714 H   0  0  0  0  0  0  0  0  0  0  0  0
    3.2158   -1.5706    0.9413 H   0  0  0  0  0  0  0  0  0  0  0  0
    3.1138   -1.6480   -0.8719 H   0  0  0  0  0  0  0  0  0  0  0  0
    4.2621   -0.5811   -0.0631 H   0  0  0  0  0  0  0  0  0  0  0  0
   -2.9032    0.0654   -0.0146 H   0  0  0  0  0  0  0  0  0  0  0  0
   -2.7645    2.4989    0.4839 H   0  0  0  0  0  0  0  0  0  0  0  0
   -1.0818   -3.8307   -0.9305 H   0  0  0  0  0  0  0  0  0  0  0  0
   -1.0695   -3.8117    0.8872 H   0  0  0  0  0  0  0  0  0  0  0  0
   -2.5212   -4.2459   -0.0086 H   0  0  0  0  0  0  0  0  0  0  0  0
   -0.3538    3.6695   -1.0413 H   0  0  0  0  0  0  0  0  0  0  0  0
   -0.6379    5.7200   -1.4594 H   0  0  0  0  0  0  0  0  0  0  0  0
  1  2  2  0  0  0  0
  1  3  1  0  0  0  0
  1  4  1  0  0  0  0
  2  5  1  0  0  0  0
  2  6  1  0  0  0  0
  3  7  2  0  0  0  0
  3 17  1  0  0  0  0
  4  8  1  0  0  0  0
  5  9  2  0  0  0  0
  5 10  1  0  0  0  0
  6 18  1  0  0  0  0
  7 11  1  0  0  0  0
  7  9  1  0  0  0  0
  8 19  1  0  0  0  0
  8 20  1  0  0  0  0
  8 21  1  0  0  0  0
  9 22  1  0  0  0  0
 10 12  1  0  0  0  0
 11 13  2  0  0  0  0
 11 23  1  0  0  0  0
 12 24  1  0  0  0  0
 12 25  1  0  0  0  0
 12 26  1  0  0  0  0
 13 14  1  0  0  0  0
 13 27  1  0  0  0  0
 14 15  1  0  0  0  0
 14 16  2  0  0  0  0
 15 28  1  0  0  0  0
M  END
>  <Mol_ID>
1760

>  <Formula>
C11H12O5

>  <MolWeight>
224.20998

>  <Cat>
S3981

>  <Name>
Sinapinic Acid

>  <Synonyms>
Sinapic acid

>  <Target>
ACE,HDAC

>  <Form>
free base

>  <CAS>
530-59-6

>  <URL>
http://selleckchem.com/products/sinapinic-acid.html

$$$$
