S3983 Caryophyllene oxide.cdx
 OpenBabel08302519513D

 40 42  0  0  0  0  0  0  0  0999 V2000
    1.7989    0.2221    0.7814 C   0  0  2  0  0  0  0  0  0  0  0  0
    0.9921    0.5055    2.0522 C   0  0  2  0  0  0  0  0  0  0  0  0
    2.0997   -0.3923    2.0515 O   0  0  0  0  0  0  0  0  0  0  0  0
    2.5774    1.4338    0.3585 C   0  0  0  0  0  0  0  0  0  0  0  0
    1.5932   -0.8375   -0.2628 C   0  0  0  0  0  0  0  0  0  0  0  0
   -0.3556    0.0195    2.4074 C   0  0  0  0  0  0  0  0  0  0  0  0
    1.7398    2.3406   -0.5581 C   0  0  0  0  0  0  0  0  0  0  0  0
   -1.3753   -0.2504    1.3084 C   0  0  0  0  0  0  0  0  0  0  0  0
    0.3078    2.5704   -0.0440 C   0  0  2  0  0  0  0  0  0  0  0  0
   -1.2624    0.2724   -0.0966 C   0  0  0  0  0  0  0  0  0  0  0  0
   -0.8840    1.6512   -0.5368 C   0  0  1  0  0  0  0  0  0  0  0  0
   -0.6017    3.7437   -0.6972 C   0  0  0  0  0  0  0  0  0  0  0  0
   -1.6167   -0.5708   -1.0940 C   0  0  0  0  0  0  0  0  0  0  0  0
   -1.7804    2.8434   -0.1252 C   0  0  0  0  0  0  0  0  0  0  0  0
   -0.5866    3.8488   -2.2423 C   0  0  0  0  0  0  0  0  0  0  0  0
   -0.5954    5.1487   -0.0980 C   0  0  0  0  0  0  0  0  0  0  0  0
    1.1839    1.4199    2.6056 H   0  0  0  0  0  0  0  0  0  0  0  0
    2.8865    2.0119    1.2404 H   0  0  0  0  0  0  0  0  0  0  0  0
    3.5053    1.1370   -0.1425 H   0  0  0  0  0  0  0  0  0  0  0  0
    2.5717   -1.2663   -0.5369 H   0  0  0  0  0  0  0  0  0  0  0  0
    1.1858   -0.4203   -1.1856 H   0  0  0  0  0  0  0  0  0  0  0  0
    0.9618   -1.6560    0.0774 H   0  0  0  0  0  0  0  0  0  0  0  0
   -0.8072    0.8012    3.0368 H   0  0  0  0  0  0  0  0  0  0  0  0
   -0.2861   -0.8519    3.0702 H   0  0  0  0  0  0  0  0  0  0  0  0
    2.2573    3.3082   -0.6328 H   0  0  0  0  0  0  0  0  0  0  0  0
    1.7177    1.9200   -1.5721 H   0  0  0  0  0  0  0  0  0  0  0  0
   -2.3668    0.0315    1.6874 H   0  0  0  0  0  0  0  0  0  0  0  0
   -1.4232   -1.3498    1.2483 H   0  0  0  0  0  0  0  0  0  0  0  0
    0.3561    2.7415    1.0417 H   0  0  0  0  0  0  0  0  0  0  0  0
   -0.8211    1.5739   -1.6380 H   0  0  0  0  0  0  0  0  0  0  0  0
   -1.5931   -0.2841   -2.1416 H   0  0  0  0  0  0  0  0  0  0  0  0
   -1.9302   -1.5921   -0.8996 H   0  0  0  0  0  0  0  0  0  0  0  0
   -1.9369    2.9392    0.9631 H   0  0  0  0  0  0  0  0  0  0  0  0
   -2.7555    2.9370   -0.6067 H   0  0  0  0  0  0  0  0  0  0  0  0
   -1.5589    3.5674   -2.6643 H   0  0  0  0  0  0  0  0  0  0  0  0
   -0.3619    4.8634   -2.5863 H   0  0  0  0  0  0  0  0  0  0  0  0
    0.1702    3.1964   -2.6898 H   0  0  0  0  0  0  0  0  0  0  0  0
    0.3148    5.6855   -0.3820 H   0  0  0  0  0  0  0  0  0  0  0  0
   -1.4490    5.7213   -0.4834 H   0  0  0  0  0  0  0  0  0  0  0  0
   -0.6659    5.1360    0.9908 H   0  0  0  0  0  0  0  0  0  0  0  0
  1  2  1  0  0  0  0
  1  3  1  0  0  0  0
  1  4  1  0  0  0  0
  1  5  1  6  0  0  0
  2  6  1  0  0  0  0
  2  3  1  0  0  0  0
  2 17  1  1  0  0  0
  4  7  1  0  0  0  0
  4 18  1  0  0  0  0
  4 19  1  0  0  0  0
  5 20  1  0  0  0  0
  5 21  1  0  0  0  0
  5 22  1  0  0  0  0
  6  8  1  0  0  0  0
  6 23  1  0  0  0  0
  6 24  1  0  0  0  0
  7 25  1  0  0  0  0
  7 26  1  0  0  0  0
  8 10  1  0  0  0  0
  8 27  1  0  0  0  0
  8 28  1  0  0  0  0
  9  7  1  0  0  0  0
  9 11  1  0  0  0  0
  9 12  1  0  0  0  0
  9 29  1  1  0  0  0
 10 13  2  0  0  0  0
 10 11  1  0  0  0  0
 11 14  1  0  0  0  0
 11 30  1  6  0  0  0
 12 15  1  0  0  0  0
 12 16  1  0  0  0  0
 12 14  1  0  0  0  0
 13 31  1  0  0  0  0
 13 32  1  0  0  0  0
 14 33  1  0  0  0  0
 14 34  1  0  0  0  0
 15 35  1  0  0  0  0
 15 36  1  0  0  0  0
 15 37  1  0  0  0  0
 16 38  1  0  0  0  0
 16 39  1  0  0  0  0
 16 40  1  0  0  0  0
M  END
>  <Mol_ID>
1761

>  <Formula>
C15H24O

>  <MolWeight>
220.35046

>  <Cat>
S3983

>  <Name>
Caryophyllene oxide

>  <Synonyms>
N/A

>  <Target>
Others

>  <Form>
free base

>  <CAS>
1139-30-6

>  <URL>
http://selleckchem.com/products/caryophyllene-oxide.html

$$$$
