S3989 L-Hisidine.cdx
 OpenBabel08302521383D

 20 20  0  0  0  0  0  0  0  0999 V2000
    1.2253    2.4266   -0.8750 C   0  0  0  0  0  0  0  0  0  0  0  0
    1.0382    0.0485   -0.2420 N   0  0  0  0  0  0  0  0  0  0  0  0
    0.2564    1.3076   -0.4693 C   0  0  1  0  0  0  0  0  0  0  0  0
   -0.5824    1.7416    0.7410 C   0  0  0  0  0  0  0  0  0  0  0  0
    0.2082    2.0402    1.9723 C   0  0  0  0  0  0  0  0  0  0  0  0
    1.0244    1.2167    2.7210 C   0  0  0  0  0  0  0  0  0  0  0  0
    1.5392    2.0135    3.7048 N   0  0  0  0  0  0  0  0  0  0  0  0
    1.0035    3.2583    3.5471 C   0  0  0  0  0  0  0  0  0  0  0  0
    0.1927    3.3020    2.5150 N   0  0  0  0  0  0  0  0  0  0  0  0
    0.9303    3.3909   -1.5630 O   0  0  0  0  0  0  0  0  0  0  0  0
    2.4807    2.1934   -0.4070 O   0  0  0  0  0  0  0  0  0  0  0  0
    0.3765   -0.6840    0.0277 H   0  0  0  0  0  0  0  0  0  0  0  0
    1.4108   -0.2558   -1.1474 H   0  0  0  0  0  0  0  0  0  0  0  0
   -0.4039    1.1212   -1.3246 H   0  0  0  0  0  0  0  0  0  0  0  0
   -1.1568    2.6373    0.4692 H   0  0  0  0  0  0  0  0  0  0  0  0
   -1.3193    0.9636    0.9769 H   0  0  0  0  0  0  0  0  0  0  0  0
    1.2976    0.1761    2.6234 H   0  0  0  0  0  0  0  0  0  0  0  0
    2.2029    1.7402    4.4167 H   0  0  0  0  0  0  0  0  0  0  0  0
    1.2397    4.0844    4.2040 H   0  0  0  0  0  0  0  0  0  0  0  0
    2.4296    1.3523    0.1073 H   0  0  0  0  0  0  0  0  0  0  0  0
  1  3  1  0  0  0  0
  1 10  2  0  0  0  0
  1 11  1  0  0  0  0
  2 12  1  0  0  0  0
  2 13  1  0  0  0  0
  3  2  1  0  0  0  0
  3  4  1  0  0  0  0
  3 14  1  6  0  0  0
  4  5  1  0  0  0  0
  4 15  1  0  0  0  0
  4 16  1  0  0  0  0
  5  6  2  0  0  0  0
  5  9  1  0  0  0  0
  6  7  1  0  0  0  0
  6 17  1  0  0  0  0
  7  8  1  0  0  0  0
  7 18  1  0  0  0  0
  8  9  2  0  0  0  0
  8 19  1  0  0  0  0
 11 20  1  0  0  0  0
M  END
>  <Mol_ID>
7811

>  <Formula>
C6H9N3O2

>  <MolWeight>
155.15456

>  <Cat>
S3989

>  <Name>
L-?Histidine

>  <Synonyms>
Glyoxaline-5-alanine

>  <Target>
Others

>  <Form>
free base

>  <CAS>
71-00-1

>  <URL>
https://www.selleckchem.com/products/l-histidine.html

$$$$
