S3985 Methyl 4-hydroxybenzoate.cdx
 OpenBabel08302519523D

 19 19  0  0  0  0  0  0  0  0999 V2000
   -1.8648    0.0782   -0.0044 C   0  0  0  0  0  0  0  0  0  0  0  0
   -1.2279   -1.1743   -0.0058 C   0  0  0  0  0  0  0  0  0  0  0  0
   -1.0861    1.2424    0.0114 C   0  0  0  0  0  0  0  0  0  0  0  0
   -3.3538    0.0848   -0.0211 C   0  0  0  0  0  0  0  0  0  0  0  0
    0.1652   -1.2676    0.0066 C   0  0  0  0  0  0  0  0  0  0  0  0
    0.3112    1.1464    0.0239 C   0  0  0  0  0  0  0  0  0  0  0  0
   -3.8616    1.3433   -0.0226 O   0  0  0  0  0  0  0  0  0  0  0  0
   -4.0149   -0.9421   -0.0353 O   0  0  0  0  0  0  0  0  0  0  0  0
    0.9241   -0.1037    0.0206 C   0  0  0  0  0  0  0  0  0  0  0  0
   -5.2931    1.3651   -0.0452 C   0  0  0  0  0  0  0  0  0  0  0  0
    2.2859   -0.1508    0.0313 O   0  0  0  0  0  0  0  0  0  0  0  0
   -1.8208   -2.0872   -0.0173 H   0  0  0  0  0  0  0  0  0  0  0  0
   -1.5472    2.2266    0.0139 H   0  0  0  0  0  0  0  0  0  0  0  0
    0.6304   -2.2483    0.0045 H   0  0  0  0  0  0  0  0  0  0  0  0
    0.9231    2.0449    0.0358 H   0  0  0  0  0  0  0  0  0  0  0  0
   -5.6697    0.8874   -0.9562 H   0  0  0  0  0  0  0  0  0  0  0  0
   -5.6997    0.8693    0.8429 H   0  0  0  0  0  0  0  0  0  0  0  0
   -5.6249    2.4067   -0.0402 H   0  0  0  0  0  0  0  0  0  0  0  0
    2.5677   -1.0804    0.0228 H   0  0  0  0  0  0  0  0  0  0  0  0
  1  2  2  0  0  0  0
  1  3  1  0  0  0  0
  1  4  1  0  0  0  0
  2  5  1  0  0  0  0
  2 12  1  0  0  0  0
  3  6  2  0  0  0  0
  3 13  1  0  0  0  0
  4  7  1  0  0  0  0
  4  8  2  0  0  0  0
  5  9  2  0  0  0  0
  5 14  1  0  0  0  0
  6  9  1  0  0  0  0
  6 15  1  0  0  0  0
  7 10  1  0  0  0  0
  9 11  1  0  0  0  0
 10 16  1  0  0  0  0
 10 17  1  0  0  0  0
 10 18  1  0  0  0  0
 11 19  1  0  0  0  0
M  END
>  <Mol_ID>
1988

>  <Formula>
C8H8O3

>  <MolWeight>
152.14732

>  <Cat>
S3985

>  <Name>
Methyl 4-hydroxybenzoate

>  <Synonyms>
Methylparaben, Methyl paraben, Methyl p-hydroxybenzoate, Nipagin, Methyl parahydroxybenzoate

>  <Target>
Fungal

>  <Form>
free base

>  <CAS>
99-76-3

>  <URL>
http://selleckchem.com/products/methyl-4-hydroxybenzoate.html

$$$$
