S3987 L-Tryptophan.cdx
 OpenBabel08302519523D

 27 28  0  0  0  0  0  0  0  0999 V2000
   -0.2347   -0.7207   -0.0485 C   0  0  0  0  0  0  0  0  0  0  0  0
   -1.6180   -1.1107   -0.1038 C   0  0  0  0  0  0  0  0  0  0  0  0
   -0.1912    0.6742   -0.0814 C   0  0  0  0  0  0  0  0  0  0  0  0
    0.9890   -1.4208    0.0249 C   0  0  0  0  0  0  0  0  0  0  0  0
   -2.1551   -2.5127   -0.0705 C   0  0  0  0  0  0  0  0  0  0  0  0
   -2.3510    0.0584   -0.1754 C   0  0  0  0  0  0  0  0  0  0  0  0
   -1.4878    1.1183   -0.1642 N   0  0  0  0  0  0  0  0  0  0  0  0
    1.0034    1.4028   -0.0408 C   0  0  0  0  0  0  0  0  0  0  0  0
    2.1954   -0.7073    0.0518 C   0  0  0  0  0  0  0  0  0  0  0  0
   -3.5027   -2.7321   -0.7794 C   0  0  1  0  0  0  0  0  0  0  0  0
    2.1993    0.6846    0.0211 C   0  0  0  0  0  0  0  0  0  0  0  0
   -3.4143   -2.4207   -2.2875 C   0  0  0  0  0  0  0  0  0  0  0  0
   -3.9891   -4.1179   -0.5499 N   0  0  0  0  0  0  0  0  0  0  0  0
   -3.0911   -3.4925   -3.0493 O   0  0  0  0  0  0  0  0  0  0  0  0
   -3.6363   -1.3263   -2.7859 O   0  0  0  0  0  0  0  0  0  0  0  0
    1.0061   -2.5058    0.0521 H   0  0  0  0  0  0  0  0  0  0  0  0
   -1.4059   -3.1945   -0.4941 H   0  0  0  0  0  0  0  0  0  0  0  0
   -2.2648   -2.7882    0.9880 H   0  0  0  0  0  0  0  0  0  0  0  0
   -3.4159    0.2324   -0.2596 H   0  0  0  0  0  0  0  0  0  0  0  0
   -1.7592    2.0898   -0.2196 H   0  0  0  0  0  0  0  0  0  0  0  0
    1.0060    2.4875   -0.0643 H   0  0  0  0  0  0  0  0  0  0  0  0
    3.1388   -1.2461    0.0942 H   0  0  0  0  0  0  0  0  0  0  0  0
   -4.2704   -2.0695   -0.3640 H   0  0  0  0  0  0  0  0  0  0  0  0
    3.1443    1.2226    0.0417 H   0  0  0  0  0  0  0  0  0  0  0  0
   -4.8153   -4.3185   -1.1120 H   0  0  0  0  0  0  0  0  0  0  0  0
   -3.2808   -4.8373   -0.6444 H   0  0  0  0  0  0  0  0  0  0  0  0
   -2.9884   -4.2943   -2.5047 H   0  0  0  0  0  0  0  0  0  0  0  0
  1  2  1  0  0  0  0
  1  3  2  0  0  0  0
  1  4  1  0  0  0  0
  2  5  1  0  0  0  0
  2  6  2  0  0  0  0
  3  7  1  0  0  0  0
  3  8  1  0  0  0  0
  4  9  2  0  0  0  0
  4 16  1  0  0  0  0
  5 10  1  0  0  0  0
  5 17  1  0  0  0  0
  5 18  1  0  0  0  0
  6  7  1  0  0  0  0
  6 19  1  0  0  0  0
  7 20  1  0  0  0  0
  8 11  2  0  0  0  0
  8 21  1  0  0  0  0
  9 11  1  0  0  0  0
  9 22  1  0  0  0  0
 10 12  1  0  0  0  0
 10 13  1  0  0  0  0
 10 23  1  1  0  0  0
 11 24  1  0  0  0  0
 12 14  1  0  0  0  0
 12 15  2  0  0  0  0
 13 25  1  0  0  0  0
 13 26  1  0  0  0  0
 14 27  1  0  0  0  0
M  END
>  <Mol_ID>
1990

>  <Formula>
C11H12N2O2

>  <MolWeight>
204.22518

>  <Cat>
S3987

>  <Name>
L-Tryptophan

>  <Synonyms>
N/A

>  <Target>
Others

>  <Form>
free base

>  <CAS>
73-22-3

>  <URL>
http://selleckchem.com/products/l-tryptophan.html

$$$$
