S3993 Ethyl Vanillate.cdx
 OpenBabel08302519523D

 26 26  0  0  0  0  0  0  0  0999 V2000
   -1.1856   -1.1342   -0.2071 C   0  0  0  0  0  0  0  0  0  0  0  0
    0.2052   -1.2161   -0.0049 C   0  0  0  0  0  0  0  0  0  0  0  0
   -1.9501   -2.4145   -0.1951 C   0  0  0  0  0  0  0  0  0  0  0  0
   -1.7911    0.1196   -0.3758 C   0  0  0  0  0  0  0  0  0  0  0  0
    0.9849   -0.0607    0.0333 C   0  0  0  0  0  0  0  0  0  0  0  0
   -3.2805   -2.2167   -0.3821 O   0  0  0  0  0  0  0  0  0  0  0  0
   -1.4141   -3.4932    0.0043 O   0  0  0  0  0  0  0  0  0  0  0  0
   -1.0156    1.2815   -0.3233 C   0  0  0  0  0  0  0  0  0  0  0  0
    0.3553    1.1797   -0.1134 C   0  0  0  0  0  0  0  0  0  0  0  0
    2.3434   -0.0074    0.2101 O   0  0  0  0  0  0  0  0  0  0  0  0
   -4.0938   -3.3874   -0.1879 C   0  0  0  0  0  0  0  0  0  0  0  0
    1.0884    2.3339   -0.0437 O   0  0  0  0  0  0  0  0  0  0  0  0
    3.0248   -1.2555    0.2893 C   0  0  0  0  0  0  0  0  0  0  0  0
   -4.1823   -4.2285   -1.4497 C   0  0  0  0  0  0  0  0  0  0  0  0
    0.6512   -2.1976    0.1279 H   0  0  0  0  0  0  0  0  0  0  0  0
   -2.8631    0.2096   -0.5334 H   0  0  0  0  0  0  0  0  0  0  0  0
   -1.4740    2.2605   -0.4354 H   0  0  0  0  0  0  0  0  0  0  0  0
   -3.7170   -3.9820    0.6529 H   0  0  0  0  0  0  0  0  0  0  0  0
   -5.0950   -3.0454    0.0947 H   0  0  0  0  0  0  0  0  0  0  0  0
    2.0046    2.0437    0.1334 H   0  0  0  0  0  0  0  0  0  0  0  0
    2.7786   -1.7701    1.2237 H   0  0  0  0  0  0  0  0  0  0  0  0
    2.8132   -1.8882   -0.5796 H   0  0  0  0  0  0  0  0  0  0  0  0
    4.0994   -1.0500    0.2904 H   0  0  0  0  0  0  0  0  0  0  0  0
   -3.1975   -4.4051   -1.8922 H   0  0  0  0  0  0  0  0  0  0  0  0
   -4.6483   -5.1949   -1.2324 H   0  0  0  0  0  0  0  0  0  0  0  0
   -4.7889   -3.7205   -2.2063 H   0  0  0  0  0  0  0  0  0  0  0  0
  1  2  2  0  0  0  0
  1  3  1  0  0  0  0
  1  4  1  0  0  0  0
  2  5  1  0  0  0  0
  2 15  1  0  0  0  0
  3  6  1  0  0  0  0
  3  7  2  0  0  0  0
  4  8  2  0  0  0  0
  4 16  1  0  0  0  0
  5  9  2  0  0  0  0
  5 10  1  0  0  0  0
  6 11  1  0  0  0  0
  8  9  1  0  0  0  0
  8 17  1  0  0  0  0
  9 12  1  0  0  0  0
 10 13  1  0  0  0  0
 11 14  1  0  0  0  0
 11 18  1  0  0  0  0
 11 19  1  0  0  0  0
 12 20  1  0  0  0  0
 13 21  1  0  0  0  0
 13 22  1  0  0  0  0
 13 23  1  0  0  0  0
 14 24  1  0  0  0  0
 14 25  1  0  0  0  0
 14 26  1  0  0  0  0
M  END
>  <Mol_ID>
1995

>  <Formula>
C10H12O4

>  <MolWeight>
196.19988

>  <Cat>
S3993

>  <Name>
Ethyl Vanillate

>  <Synonyms>
Bourbonal, Ethylprotal

>  <Target>
Dehydrogenase

>  <Form>
free base

>  <CAS>
617-05-0

>  <URL>
http://selleckchem.com/products/ethylvanillate.html

$$$$
