S3996 Thioctic acid.cdx
 OpenBabel08302519523D

 26 26  0  0  0  0  0  0  0  0999 V2000
    1.1049    1.1493    0.0320 C   0  0  3  0  0  0  0  0  0  0  0  0
    0.8967   -0.3731   -0.0058 C   0  0  0  0  0  0  0  0  0  0  0  0
    2.2626    1.4572    1.4095 S   0  0  0  0  0  0  0  0  0  0  0  0
    1.6081    1.7022   -1.3158 C   0  0  0  0  0  0  0  0  0  0  0  0
    2.2270   -1.1121    0.0844 C   0  0  0  0  0  0  0  0  0  0  0  0
    3.1169   -0.4033    1.4879 S   0  0  0  0  0  0  0  0  0  0  0  0
    1.7495    3.2313   -1.3385 C   0  0  0  0  0  0  0  0  0  0  0  0
    2.2663    3.7831   -2.6714 C   0  0  0  0  0  0  0  0  0  0  0  0
    1.3219    3.5516   -3.8510 C   0  0  0  0  0  0  0  0  0  0  0  0
    1.8507    4.1813   -5.1213 C   0  0  0  0  0  0  0  0  0  0  0  0
    1.0173    3.9937   -6.1715 O   0  0  0  0  0  0  0  0  0  0  0  0
    2.9023    4.7873   -5.2287 O   0  0  0  0  0  0  0  0  0  0  0  0
    0.1528    1.6343    0.2742 H   0  0  0  0  0  0  0  0  0  0  0  0
    0.2475   -0.6770    0.8273 H   0  0  0  0  0  0  0  0  0  0  0  0
    0.3687   -0.6684   -0.9201 H   0  0  0  0  0  0  0  0  0  0  0  0
    2.5629    1.2429   -1.5976 H   0  0  0  0  0  0  0  0  0  0  0  0
    0.8829    1.4056   -2.0837 H   0  0  0  0  0  0  0  0  0  0  0  0
    2.0745   -2.1849    0.2385 H   0  0  0  0  0  0  0  0  0  0  0  0
    2.8246   -0.9819   -0.8224 H   0  0  0  0  0  0  0  0  0  0  0  0
    0.7861    3.6952   -1.0968 H   0  0  0  0  0  0  0  0  0  0  0  0
    2.4565    3.5478   -0.5636 H   0  0  0  0  0  0  0  0  0  0  0  0
    2.4274    4.8629   -2.5518 H   0  0  0  0  0  0  0  0  0  0  0  0
    3.2492    3.3495   -2.8921 H   0  0  0  0  0  0  0  0  0  0  0  0
    1.2052    2.4797   -4.0388 H   0  0  0  0  0  0  0  0  0  0  0  0
    0.3431    3.9905   -3.6316 H   0  0  0  0  0  0  0  0  0  0  0  0
    0.2097    3.4909   -5.9510 H   0  0  0  0  0  0  0  0  0  0  0  0
  1  2  1  0  0  0  0
  1  3  1  0  0  0  0
  1  4  1  0  0  0  0
  1 13  1  0  0  0  0
  2  5  1  0  0  0  0
  2 14  1  0  0  0  0
  2 15  1  0  0  0  0
  3  6  1  0  0  0  0
  4  7  1  0  0  0  0
  4 16  1  0  0  0  0
  4 17  1  0  0  0  0
  5  6  1  0  0  0  0
  5 18  1  0  0  0  0
  5 19  1  0  0  0  0
  7  8  1  0  0  0  0
  7 20  1  0  0  0  0
  7 21  1  0  0  0  0
  8  9  1  0  0  0  0
  8 22  1  0  0  0  0
  8 23  1  0  0  0  0
  9 10  1  0  0  0  0
  9 24  1  0  0  0  0
  9 25  1  0  0  0  0
 10 11  1  0  0  0  0
 10 12  2  0  0  0  0
 11 26  1  0  0  0  0
M  END
>  <Mol_ID>
1998

>  <Formula>
C8H14O2S2

>  <MolWeight>
206.32556

>  <Cat>
S3996

>  <Name>
Thioctic acid

>  <Synonyms>
DL-¦Á-Lipoic Acid

>  <Target>
Others

>  <Form>
free base

>  <CAS>
1077-28-7

>  <URL>
http://selleckchem.com/products/thioctic-acid.html

$$$$
