S3995 Guaiazulene.cdx
 OpenBabel08302519523D

 33 34  0  0  0  0  0  0  0  0999 V2000
    2.1533   -0.7279    0.8622 C   0  0  0  0  0  0  0  0  0  0  0  0
    2.2841   -2.0559    0.2001 C   0  0  0  0  0  0  0  0  0  0  0  0
    3.2731   -0.1106    1.2967 C   0  0  0  0  0  0  0  0  0  0  0  0
    0.9667   -0.0764    0.3376 C   0  0  0  0  0  0  0  0  0  0  0  0
    3.5469   -2.7499   -0.0562 C   0  0  0  0  0  0  0  0  0  0  0  0
    1.1047   -2.2461   -0.4345 C   0  0  0  0  0  0  0  0  0  0  0  0
    4.1658    0.3053    0.1881 C   0  0  0  0  0  0  0  0  0  0  0  0
    0.2942   -1.0290   -0.3587 C   0  0  0  0  0  0  0  0  0  0  0  0
    0.6448    1.3765    0.4470 C   0  0  0  0  0  0  0  0  0  0  0  0
    4.6321   -2.0510   -0.4634 C   0  0  0  0  0  0  0  0  0  0  0  0
    3.7085   -4.2236    0.1797 C   0  0  0  0  0  0  0  0  0  0  0  0
    4.7169   -0.6110   -0.6403 C   0  0  0  0  0  0  0  0  0  0  0  0
    4.2834    1.7921   -0.0229 C   0  0  0  0  0  0  0  0  0  0  0  0
    5.7198    2.2448    0.2468 C   0  0  0  0  0  0  0  0  0  0  0  0
    3.7921    2.1815   -1.4195 C   0  0  0  0  0  0  0  0  0  0  0  0
    3.9130   -0.7244    1.9467 H   0  0  0  0  0  0  0  0  0  0  0  0
    0.8851   -3.0301   -1.1456 H   0  0  0  0  0  0  0  0  0  0  0  0
   -0.6019   -0.8604   -0.9374 H   0  0  0  0  0  0  0  0  0  0  0  0
   -0.0277    1.6898   -0.3652 H   0  0  0  0  0  0  0  0  0  0  0  0
    0.1835    1.6138    1.4001 H   0  0  0  0  0  0  0  0  0  0  0  0
    1.5378    1.9931    0.3417 H   0  0  0  0  0  0  0  0  0  0  0  0
    5.5641   -2.5701   -0.6789 H   0  0  0  0  0  0  0  0  0  0  0  0
    3.1597   -4.5534    1.0733 H   0  0  0  0  0  0  0  0  0  0  0  0
    3.3933   -4.8032   -0.6808 H   0  0  0  0  0  0  0  0  0  0  0  0
    4.7621   -4.4665    0.3703 H   0  0  0  0  0  0  0  0  0  0  0  0
    5.3097   -0.2878   -1.4908 H   0  0  0  0  0  0  0  0  0  0  0  0
    3.6530    2.3201    0.7040 H   0  0  0  0  0  0  0  0  0  0  0  0
    6.4432    1.6878   -0.3551 H   0  0  0  0  0  0  0  0  0  0  0  0
    5.8406    3.3103    0.0272 H   0  0  0  0  0  0  0  0  0  0  0  0
    5.9724    2.0859    1.2999 H   0  0  0  0  0  0  0  0  0  0  0  0
    2.8246    1.7159   -1.6426 H   0  0  0  0  0  0  0  0  0  0  0  0
    3.6602    3.2644   -1.4967 H   0  0  0  0  0  0  0  0  0  0  0  0
    4.4923    1.8679   -2.2024 H   0  0  0  0  0  0  0  0  0  0  0  0
  1  2  1  0  0  0  0
  1  3  2  0  0  0  0
  1  4  1  0  0  0  0
  2  5  1  0  0  0  0
  2  6  2  0  0  0  0
  3  7  1  0  0  0  0
  3 16  1  0  0  0  0
  4  8  2  0  0  0  0
  4  9  1  0  0  0  0
  5 10  2  0  0  0  0
  5 11  1  0  0  0  0
  6  8  1  0  0  0  0
  6 17  1  0  0  0  0
  7 12  2  0  0  0  0
  7 13  1  0  0  0  0
  8 18  1  0  0  0  0
  9 19  1  0  0  0  0
  9 20  1  0  0  0  0
  9 21  1  0  0  0  0
 10 12  1  0  0  0  0
 10 22  1  0  0  0  0
 11 23  1  0  0  0  0
 11 24  1  0  0  0  0
 11 25  1  0  0  0  0
 12 26  1  0  0  0  0
 13 14  1  0  0  0  0
 13 15  1  0  0  0  0
 13 27  1  0  0  0  0
 14 28  1  0  0  0  0
 14 29  1  0  0  0  0
 14 30  1  0  0  0  0
 15 31  1  0  0  0  0
 15 32  1  0  0  0  0
 15 33  1  0  0  0  0
M  END
>  <Mol_ID>
1997

>  <Formula>
C15H18

>  <MolWeight>
198.30342

>  <Cat>
S3995

>  <Name>
Guaiazulene

>  <Synonyms>
Azulon, Vetivazulen

>  <Target>
Others

>  <Form>
free base

>  <CAS>
489-84-9

>  <URL>
http://selleckchem.com/products/guaiazulene.html

$$$$
