S3999 ¦Á-santonin.cdx
 OpenBabel08302519523D

 36 38  0  0  0  0  0  0  0  0999 V2000
   -0.4345   13.6282    0.4366 C   0  0  2  0  0  0  0  0  0  0  0  0
    0.2009   13.3132   -0.8883 C   0  0  0  0  0  0  0  0  0  0  0  0
   -0.9441   12.3357    1.0487 C   0  0  1  0  0  0  0  0  0  0  0  0
   -1.5617   14.4688    0.6081 O   0  0  0  0  0  0  0  0  0  0  0  0
    1.5207   12.5185   -0.6576 C   0  0  1  0  0  0  0  0  0  0  0  0
   -0.3041   13.5342   -2.1195 C   0  0  0  0  0  0  0  0  0  0  0  0
    0.0132   11.1642    0.9202 C   0  0  0  0  0  0  0  0  0  0  0  0
   -1.2707   12.9253    2.4039 C   0  0  1  0  0  0  0  0  0  0  0  0
   -2.0302   14.1551    1.8887 C   0  0  0  0  0  0  0  0  0  0  0  0
    1.4288   11.6580    0.6525 C   0  0  0  0  0  0  0  0  0  0  0  0
    1.7951   11.6053   -1.8359 C   0  0  0  0  0  0  0  0  0  0  0  0
    2.7302   13.4664   -0.5032 C   0  0  0  0  0  0  0  0  0  0  0  0
    0.4770   13.0438   -3.2983 C   0  0  0  0  0  0  0  0  0  0  0  0
   -1.6534   14.0982   -2.4379 C   0  0  0  0  0  0  0  0  0  0  0  0
   -2.0005   11.9837    3.3298 C   0  0  0  0  0  0  0  0  0  0  0  0
   -2.8842   14.7875    2.4881 O   0  0  0  0  0  0  0  0  0  0  0  0
    1.3367   11.8631   -3.0671 C   0  0  0  0  0  0  0  0  0  0  0  0
    0.3818   13.5382   -4.4098 O   0  0  0  0  0  0  0  0  0  0  0  0
    0.3614   14.1121    1.0263 H   0  0  0  0  0  0  0  0  0  0  0  0
   -1.8928   12.0364    0.5678 H   0  0  0  0  0  0  0  0  0  0  0  0
   -0.0318   10.5063    1.7915 H   0  0  0  0  0  0  0  0  0  0  0  0
   -0.3036   10.5552    0.0606 H   0  0  0  0  0  0  0  0  0  0  0  0
   -0.3708   13.2858    2.9208 H   0  0  0  0  0  0  0  0  0  0  0  0
    2.1108   10.8004    0.6125 H   0  0  0  0  0  0  0  0  0  0  0  0
    1.7466   12.2516    1.5210 H   0  0  0  0  0  0  0  0  0  0  0  0
    2.4444   10.7457   -1.6854 H   0  0  0  0  0  0  0  0  0  0  0  0
    2.5251   14.2765    0.2053 H   0  0  0  0  0  0  0  0  0  0  0  0
    3.0163   13.9284   -1.4551 H   0  0  0  0  0  0  0  0  0  0  0  0
    3.6068   12.9229   -0.1276 H   0  0  0  0  0  0  0  0  0  0  0  0
   -1.9354   13.8984   -3.4785 H   0  0  0  0  0  0  0  0  0  0  0  0
   -1.6859   15.1781   -2.2800 H   0  0  0  0  0  0  0  0  0  0  0  0
   -2.4215   13.6149   -1.8245 H   0  0  0  0  0  0  0  0  0  0  0  0
   -1.3298   11.1736    3.6407 H   0  0  0  0  0  0  0  0  0  0  0  0
   -2.8782   11.5372    2.8571 H   0  0  0  0  0  0  0  0  0  0  0  0
   -2.3247   12.5041    4.2364 H   0  0  0  0  0  0  0  0  0  0  0  0
    1.5888   11.2606   -3.9300 H   0  0  0  0  0  0  0  0  0  0  0  0
  1  2  1  0  0  0  0
  1  3  1  0  0  0  0
  1  4  1  0  0  0  0
  1 19  1  1  0  0  0
  2  5  1  0  0  0  0
  2  6  2  0  0  0  0
  3  7  1  0  0  0  0
  3  8  1  0  0  0  0
  3 20  1  6  0  0  0
  4  9  1  0  0  0  0
  5 10  1  0  0  0  0
  5 11  1  0  0  0  0
  5 12  1  1  0  0  0
  6 13  1  0  0  0  0
  6 14  1  0  0  0  0
  7 10  1  0  0  0  0
  7 21  1  0  0  0  0
  7 22  1  0  0  0  0
  8 15  1  0  0  0  0
  8  9  1  0  0  0  0
  8 23  1  1  0  0  0
  9 16  2  0  0  0  0
 10 24  1  0  0  0  0
 10 25  1  0  0  0  0
 11 17  2  0  0  0  0
 11 26  1  0  0  0  0
 12 27  1  0  0  0  0
 12 28  1  0  0  0  0
 12 29  1  0  0  0  0
 13 18  2  0  0  0  0
 13 17  1  0  0  0  0
 14 30  1  0  0  0  0
 14 31  1  0  0  0  0
 14 32  1  0  0  0  0
 15 33  1  0  0  0  0
 15 34  1  0  0  0  0
 15 35  1  0  0  0  0
 17 36  1  0  0  0  0
M  END
>  <Mol_ID>
2001

>  <Formula>
C15H18O3

>  <MolWeight>
246.30162

>  <Cat>
S3999

>  <Name>
¦Á-santonin

>  <Synonyms>
N/A

>  <Target>
Parasite

>  <Form>
free base

>  <CAS>
481-06-1

>  <URL>
http://selleckchem.com/products/alpha-santonin.html

$$$$
