S3994 Methyl Cholate.cdx
 OpenBabel08302519523D

 72 75  0  0  0  0  0  0  0  0999 V2000
   -0.5118    0.1538   -0.2354 C   0  0  3  0  0  0  0  0  0  0  0  0
   -1.7158   -0.7355   -0.6550 C   0  0  3  0  0  0  0  0  0  0  0  0
    0.8758   -0.5606   -0.1312 C   0  0  3  0  0  0  0  0  0  0  0  0
   -0.4919    1.4977   -0.9631 C   0  0  3  0  0  0  0  0  0  0  0  0
   -1.7573   -2.1946   -0.0669 C   0  0  3  0  0  0  0  0  0  0  0  0
   -3.0640   -0.0998   -0.2500 C   0  0  0  0  0  0  0  0  0  0  0  0
    2.1616    0.0510   -0.7655 C   0  0  3  0  0  0  0  0  0  0  0  0
    0.7358   -2.0808   -0.3735 C   0  0  0  0  0  0  0  0  0  0  0  0
    0.7336    2.2889   -0.5630 C   0  0  0  0  0  0  0  0  0  0  0  0
   -0.6292    1.3827   -2.3649 O   0  0  0  0  0  0  0  0  0  0  0  0
   -3.0349   -2.2504    0.8704 C   0  0  3  0  0  0  0  0  0  0  0  0
   -0.3802   -2.6195    0.4998 C   0  0  3  0  0  0  0  0  0  0  0  0
   -2.0484   -3.1543   -1.2781 C   0  0  0  0  0  0  0  0  0  0  0  0
   -3.9671   -1.2602    0.1351 C   0  0  0  0  0  0  0  0  0  0  0  0
    2.1234    1.6290   -0.7822 C   0  0  3  0  0  0  0  0  0  0  0  0
    3.3997   -0.5179    0.0293 C   0  0  0  0  0  0  0  0  0  0  0  0
    2.3527   -0.5129   -2.2035 C   0  0  0  0  0  0  0  0  0  0  0  0
   -2.8482   -1.9251    2.3878 C   0  0  3  0  0  0  0  0  0  0  0  0
   -0.0569   -2.1598    1.8073 O   0  0  0  0  0  0  0  0  0  0  0  0
    3.0630    2.3860    0.2008 C   0  0  0  0  0  0  0  0  0  0  0  0
    3.7816    0.2796    1.2559 C   0  0  0  0  0  0  0  0  0  0  0  0
   -4.1647   -1.7075    3.1853 C   0  0  0  0  0  0  0  0  0  0  0  0
   -2.0961   -3.0472    3.1493 C   0  0  0  0  0  0  0  0  0  0  0  0
    4.2458    1.6370    0.7770 C   0  0  3  0  0  0  0  0  0  0  0  0
   -3.8733   -1.2553    4.6166 C   0  0  0  0  0  0  0  0  0  0  0  0
    4.7550    2.3975    1.8683 O   0  0  0  0  0  0  0  0  0  0  0  0
   -5.0931   -1.2357    5.4910 C   0  0  0  0  0  0  0  0  0  0  0  0
   -4.7062   -1.0137    6.7791 O   0  0  0  0  0  0  0  0  0  0  0  0
   -6.2502   -1.4050    5.1128 O   0  0  0  0  0  0  0  0  0  0  0  0
   -5.7601   -1.0667    7.7423 C   0  0  0  0  0  0  0  0  0  0  0  0
   -0.7249    0.4336    0.8123 H   0  0  0  0  0  0  0  0  0  0  0  0
   -1.7000   -0.8034   -1.7497 H   0  0  0  0  0  0  0  0  0  0  0  0
    1.1110   -0.4402    0.9358 H   0  0  0  0  0  0  0  0  0  0  0  0
   -1.3665    2.0757   -0.6332 H   0  0  0  0  0  0  0  0  0  0  0  0
   -2.9504    0.5691    0.6116 H   0  0  0  0  0  0  0  0  0  0  0  0
   -3.4930    0.4913   -1.0663 H   0  0  0  0  0  0  0  0  0  0  0  0
    1.6520   -2.6109   -0.0995 H   0  0  0  0  0  0  0  0  0  0  0  0
    0.5653   -2.3016   -1.4311 H   0  0  0  0  0  0  0  0  0  0  0  0
    0.5956    2.5023    0.5044 H   0  0  0  0  0  0  0  0  0  0  0  0
    0.7299    3.2620   -1.0697 H   0  0  0  0  0  0  0  0  0  0  0  0
    0.2293    1.1428   -2.7481 H   0  0  0  0  0  0  0  0  0  0  0  0
   -3.4883   -3.2492    0.8211 H   0  0  0  0  0  0  0  0  0  0  0  0
   -0.3199   -3.7137    0.5335 H   0  0  0  0  0  0  0  0  0  0  0  0
   -1.2370   -3.1592   -2.0127 H   0  0  0  0  0  0  0  0  0  0  0  0
   -2.1823   -4.1848   -0.9325 H   0  0  0  0  0  0  0  0  0  0  0  0
   -2.9482   -2.8725   -1.8344 H   0  0  0  0  0  0  0  0  0  0  0  0
   -4.8359   -0.9266    0.7025 H   0  0  0  0  0  0  0  0  0  0  0  0
   -4.3752   -1.7181   -0.7737 H   0  0  0  0  0  0  0  0  0  0  0  0
    2.4450    1.9294   -1.7902 H   0  0  0  0  0  0  0  0  0  0  0  0
    3.2395   -1.5500    0.3526 H   0  0  0  0  0  0  0  0  0  0  0  0
    4.2753   -0.5716   -0.6334 H   0  0  0  0  0  0  0  0  0  0  0  0
    1.4626   -0.4092   -2.8244 H   0  0  0  0  0  0  0  0  0  0  0  0
    3.1921   -0.0268   -2.7125 H   0  0  0  0  0  0  0  0  0  0  0  0
    2.6010   -1.5819   -2.1789 H   0  0  0  0  0  0  0  0  0  0  0  0
   -2.2918   -0.9818    2.4588 H   0  0  0  0  0  0  0  0  0  0  0  0
   -0.4143   -1.2684    1.9362 H   0  0  0  0  0  0  0  0  0  0  0  0
    2.4897    2.7444    1.0683 H   0  0  0  0  0  0  0  0  0  0  0  0
    3.4130    3.3079   -0.2779 H   0  0  0  0  0  0  0  0  0  0  0  0
    2.9499    0.3686    1.9649 H   0  0  0  0  0  0  0  0  0  0  0  0
    4.5836   -0.2312    1.8039 H   0  0  0  0  0  0  0  0  0  0  0  0
   -4.8030   -0.9558    2.7138 H   0  0  0  0  0  0  0  0  0  0  0  0
   -4.7391   -2.6480    3.1831 H   0  0  0  0  0  0  0  0  0  0  0  0
   -1.4510   -3.6718    2.5327 H   0  0  0  0  0  0  0  0  0  0  0  0
   -1.4761   -2.6025    3.9387 H   0  0  0  0  0  0  0  0  0  0  0  0
   -2.7810   -3.7570    3.6198 H   0  0  0  0  0  0  0  0  0  0  0  0
    5.0440    1.5390    0.0322 H   0  0  0  0  0  0  0  0  0  0  0  0
   -3.1725   -1.9351    5.1085 H   0  0  0  0  0  0  0  0  0  0  0  0
   -3.4361   -0.2517    4.6053 H   0  0  0  0  0  0  0  0  0  0  0  0
    5.2235    1.7954    2.4710 H   0  0  0  0  0  0  0  0  0  0  0  0
   -6.2577   -0.0954    7.7867 H   0  0  0  0  0  0  0  0  0  0  0  0
   -6.4738   -1.8641    7.5248 H   0  0  0  0  0  0  0  0  0  0  0  0
   -5.3015   -1.2740    8.7131 H   0  0  0  0  0  0  0  0  0  0  0  0
  1  2  1  0  0  0  0
  1  3  1  0  0  0  0
  1  4  1  0  0  0  0
  1 31  1  0  0  0  0
  2  5  1  0  0  0  0
  2  6  1  0  0  0  0
  2 32  1  0  0  0  0
  3  7  1  0  0  0  0
  3  8  1  0  0  0  0
  3 33  1  0  0  0  0
  4  9  1  0  0  0  0
  4 10  1  0  0  0  0
  4 34  1  0  0  0  0
  5 11  1  0  0  0  0
  5 12  1  0  0  0  0
  5 13  1  0  0  0  0
  6 14  1  0  0  0  0
  6 35  1  0  0  0  0
  6 36  1  0  0  0  0
  7 15  1  0  0  0  0
  7 16  1  0  0  0  0
  7 17  1  0  0  0  0
  8 12  1  0  0  0  0
  8 37  1  0  0  0  0
  8 38  1  0  0  0  0
  9 39  1  0  0  0  0
  9 40  1  0  0  0  0
 10 41  1  0  0  0  0
 11 18  1  0  0  0  0
 11 14  1  0  0  0  0
 11 42  1  0  0  0  0
 12 19  1  0  0  0  0
 12 43  1  0  0  0  0
 13 44  1  0  0  0  0
 13 45  1  0  0  0  0
 13 46  1  0  0  0  0
 14 47  1  0  0  0  0
 14 48  1  0  0  0  0
 15  9  1  0  0  0  0
 15 20  1  0  0  0  0
 15 49  1  0  0  0  0
 16 21  1  0  0  0  0
 16 50  1  0  0  0  0
 16 51  1  0  0  0  0
 17 52  1  0  0  0  0
 17 53  1  0  0  0  0
 17 54  1  0  0  0  0
 18 22  1  0  0  0  0
 18 23  1  0  0  0  0
 18 55  1  0  0  0  0
 19 56  1  0  0  0  0
 20 24  1  0  0  0  0
 20 57  1  0  0  0  0
 20 58  1  0  0  0  0
 21 24  1  0  0  0  0
 21 59  1  0  0  0  0
 21 60  1  0  0  0  0
 22 25  1  0  0  0  0
 22 61  1  0  0  0  0
 22 62  1  0  0  0  0
 23 63  1  0  0  0  0
 23 64  1  0  0  0  0
 23 65  1  0  0  0  0
 24 26  1  0  0  0  0
 24 66  1  0  0  0  0
 25 27  1  0  0  0  0
 25 67  1  0  0  0  0
 25 68  1  0  0  0  0
 26 69  1  0  0  0  0
 27 28  1  0  0  0  0
 27 29  2  0  0  0  0
 28 30  1  0  0  0  0
 30 70  1  0  0  0  0
 30 71  1  0  0  0  0
 30 72  1  0  0  0  0
M  END
>  <Mol_ID>
1996

>  <Formula>
C25H42O5

>  <MolWeight>
422.59798

>  <Cat>
S3994

>  <Name>
Methyl Cholate

>  <Synonyms>
Cholic acid methyl ester

>  <Target>
Others

>  <Form>
free base

>  <CAS>
1448-36-8

>  <URL>
http://selleckchem.com/products/methyl-cholate.html

$$$$
