S3998 Lipoic acid.cdx
 OpenBabel08302519523D

 26 26  0  0  0  0  0  0  0  0999 V2000
    0.3065    0.3657   -2.6319 S   0  0  0  0  0  0  0  0  0  0  0  0
    0.5754    1.9589   -1.3770 S   0  0  0  0  0  0  0  0  0  0  0  0
    0.8880    1.0221    0.1616 C   0  0  1  0  0  0  0  0  0  0  0  0
    1.1697   -0.4349   -0.2478 C   0  0  0  0  0  0  0  0  0  0  0  0
    0.2020   -0.8862   -1.3378 C   0  0  0  0  0  0  0  0  0  0  0  0
   -0.5122    2.9508    4.5062 C   0  0  0  0  0  0  0  0  0  0  0  0
    0.6830    2.5795    3.6726 C   0  0  0  0  0  0  0  0  0  0  0  0
    0.6610    3.3401    2.3520 C   0  0  0  0  0  0  0  0  0  0  0  0
    1.8723    3.0679    1.4559 C   0  0  0  0  0  0  0  0  0  0  0  0
    2.0536    1.6210    0.9670 C   0  0  0  0  0  0  0  0  0  0  0  0
   -1.5939    2.3835    4.4982 O   0  0  0  0  0  0  0  0  0  0  0  0
   -0.3061    4.0314    5.2769 O   0  0  0  0  0  0  0  0  0  0  0  0
   -0.0294    1.0456    0.7598 H   0  0  0  0  0  0  0  0  0  0  0  0
    2.2055   -0.5536   -0.5952 H   0  0  0  0  0  0  0  0  0  0  0  0
    1.0660   -1.0924    0.6246 H   0  0  0  0  0  0  0  0  0  0  0  0
    0.4792   -1.8656   -1.7383 H   0  0  0  0  0  0  0  0  0  0  0  0
   -0.8259   -0.9433   -0.9658 H   0  0  0  0  0  0  0  0  0  0  0  0
    0.6519    1.4975    3.5140 H   0  0  0  0  0  0  0  0  0  0  0  0
    1.5938    2.7886    4.2455 H   0  0  0  0  0  0  0  0  0  0  0  0
    0.6357    4.4162    2.5684 H   0  0  0  0  0  0  0  0  0  0  0  0
   -0.2690    3.1259    1.8129 H   0  0  0  0  0  0  0  0  0  0  0  0
    2.7812    3.3625    1.9959 H   0  0  0  0  0  0  0  0  0  0  0  0
    1.8129    3.7403    0.5927 H   0  0  0  0  0  0  0  0  0  0  0  0
    2.2617    0.9771    1.8304 H   0  0  0  0  0  0  0  0  0  0  0  0
    2.9665    1.5918    0.3550 H   0  0  0  0  0  0  0  0  0  0  0  0
   -1.1635    4.1708    5.7326 H   0  0  0  0  0  0  0  0  0  0  0  0
  1  2  1  0  0  0  0
  1  5  1  0  0  0  0
  2  3  1  0  0  0  0
  3  4  1  0  0  0  0
  3 13  1  1  0  0  0
  3 10  1  0  0  0  0
  4  5  1  0  0  0  0
  4 14  1  0  0  0  0
  4 15  1  0  0  0  0
  5 16  1  0  0  0  0
  5 17  1  0  0  0  0
  6  7  1  0  0  0  0
  6 11  2  0  0  0  0
  6 12  1  0  0  0  0
  7  8  1  0  0  0  0
  7 18  1  0  0  0  0
  7 19  1  0  0  0  0
  8  9  1  0  0  0  0
  8 20  1  0  0  0  0
  8 21  1  0  0  0  0
  9 10  1  0  0  0  0
  9 22  1  0  0  0  0
  9 23  1  0  0  0  0
 10 24  1  0  0  0  0
 10 25  1  0  0  0  0
 12 26  1  0  0  0  0
M  END
>  <Mol_ID>
2000

>  <Formula>
C8H14O2S2

>  <MolWeight>
206.32556

>  <Cat>
S3998

>  <Name>
(+)-¦Á-Lipoic acid

>  <Synonyms>
(R)-(+)-¦Á-Lipoic acid, ¦Á-Lipoic acid, Alpha-Lipoic acid

>  <Target>
LTR,NF-¦ÊB

>  <Form>
free base

>  <CAS>
1200-22-2

>  <URL>
http://selleckchem.com/products/alpha-lipoic-acid.html

$$$$
