S3991 Ketoisophorone.cdx
 OpenBabel08302519523D

 23 23  0  0  0  0  0  0  0  0999 V2000
   -1.0722    0.9460   -0.0583 C   0  0  0  0  0  0  0  0  0  0  0  0
    0.3956    1.3689    0.0114 C   0  0  0  0  0  0  0  0  0  0  0  0
   -1.4505   -0.4886   -0.0032 C   0  0  0  0  0  0  0  0  0  0  0  0
   -1.9715    1.7866   -0.1312 O   0  0  0  0  0  0  0  0  0  0  0  0
    1.4280    0.2327   -0.0719 C   0  0  0  0  0  0  0  0  0  0  0  0
    0.5728    2.1235    1.3426 C   0  0  0  0  0  0  0  0  0  0  0  0
    0.6418    2.3473   -1.1548 C   0  0  0  0  0  0  0  0  0  0  0  0
   -0.5238   -1.4486    0.0363 C   0  0  0  0  0  0  0  0  0  0  0  0
   -2.9194   -0.7879    0.0009 C   0  0  0  0  0  0  0  0  0  0  0  0
    0.9191   -1.1783    0.0249 C   0  0  0  0  0  0  0  0  0  0  0  0
    1.6922   -2.1331    0.0673 O   0  0  0  0  0  0  0  0  0  0  0  0
    1.9756    0.2841   -1.0219 H   0  0  0  0  0  0  0  0  0  0  0  0
    2.1794    0.3465    0.7205 H   0  0  0  0  0  0  0  0  0  0  0  0
    1.5848    2.5302    1.4412 H   0  0  0  0  0  0  0  0  0  0  0  0
   -0.1288    2.9619    1.4288 H   0  0  0  0  0  0  0  0  0  0  0  0
    0.3879    1.4596    2.1964 H   0  0  0  0  0  0  0  0  0  0  0  0
    0.4349    1.8629   -2.1169 H   0  0  0  0  0  0  0  0  0  0  0  0
   -0.0071    3.2279   -1.0908 H   0  0  0  0  0  0  0  0  0  0  0  0
    1.6788    2.7005   -1.1681 H   0  0  0  0  0  0  0  0  0  0  0  0
   -0.7930   -2.4997    0.0713 H   0  0  0  0  0  0  0  0  0  0  0  0
   -3.3960   -0.3516    0.8859 H   0  0  0  0  0  0  0  0  0  0  0  0
   -3.4003   -0.3773   -0.8931 H   0  0  0  0  0  0  0  0  0  0  0  0
   -3.1176   -1.8652    0.0162 H   0  0  0  0  0  0  0  0  0  0  0  0
  1  2  1  0  0  0  0
  1  3  1  0  0  0  0
  1  4  2  0  0  0  0
  2  5  1  0  0  0  0
  2  6  1  0  0  0  0
  2  7  1  0  0  0  0
  3  8  2  0  0  0  0
  3  9  1  0  0  0  0
  5 10  1  0  0  0  0
  5 12  1  0  0  0  0
  5 13  1  0  0  0  0
  6 14  1  0  0  0  0
  6 15  1  0  0  0  0
  6 16  1  0  0  0  0
  7 17  1  0  0  0  0
  7 18  1  0  0  0  0
  7 19  1  0  0  0  0
  8 10  1  0  0  0  0
  8 20  1  0  0  0  0
  9 21  1  0  0  0  0
  9 22  1  0  0  0  0
  9 23  1  0  0  0  0
 10 11  2  0  0  0  0
M  END
>  <Mol_ID>
1993

>  <Formula>
C9H12O2

>  <MolWeight>
152.19038

>  <Cat>
S3991

>  <Name>
Ketoisophorone

>  <Synonyms>
4-Oxoisophorone; 2,6,6-Trimethyl-2-cyclohexene-1,4-dione

>  <Target>
Others

>  <Form>
free base

>  <CAS>
1125-21-9

>  <URL>
http://selleckchem.com/products/ketoisophorone.html

$$$$
