S4281 Tasimelteon.cdx
 OpenBabel08302520303D

 37 39  0  0  0  0  0  0  0  0999 V2000
   -1.0655   -1.2047   -0.7361 C   0  0  0  0  0  0  0  0  0  0  0  0
   -0.8844   -0.7687    0.5718 C   0  0  0  0  0  0  0  0  0  0  0  0
   -0.8318    0.6082    0.8589 C   0  0  0  0  0  0  0  0  0  0  0  0
   -0.9499    1.5972   -0.1424 C   0  0  0  0  0  0  0  0  0  0  0  0
   -1.2163   -0.2425   -1.7119 C   0  0  0  0  0  0  0  0  0  0  0  0
   -1.1657    1.1211   -1.4347 C   0  0  0  0  0  0  0  0  0  0  0  0
   -1.2522    1.8582   -2.7202 C   0  0  0  0  0  0  0  0  0  0  0  0
   -1.7500    0.7306   -3.6227 C   0  0  0  0  0  0  0  0  0  0  0  0
   -1.3736   -0.5374   -3.0435 O   0  0  0  0  0  0  0  0  0  0  0  0
   -0.7127    3.0479    0.2019 C   0  0  1  0  0  0  0  0  0  0  0  0
   -1.5633    4.1855   -0.3217 C   0  0  1  0  0  0  0  0  0  0  0  0
   -1.6767    3.7690    1.1181 C   0  0  0  0  0  0  0  0  0  0  0  0
   -0.8614    5.4500   -0.7121 C   0  0  0  0  0  0  0  0  0  0  0  0
   -1.8076    6.4464   -1.1518 N   0  0  0  0  0  0  0  0  0  0  0  0
   -2.1029    6.6084   -2.4878 C   0  0  0  0  0  0  0  0  0  0  0  0
   -3.0760    7.7387   -2.7565 C   0  0  0  0  0  0  0  0  0  0  0  0
   -3.3773    7.8789   -4.2394 C   0  0  0  0  0  0  0  0  0  0  0  0
   -1.6203    5.9100   -3.3722 O   0  0  0  0  0  0  0  0  0  0  0  0
   -1.0792   -2.2597   -0.9850 H   0  0  0  0  0  0  0  0  0  0  0  0
   -0.7569   -1.4930    1.3722 H   0  0  0  0  0  0  0  0  0  0  0  0
   -0.6546    0.9156    1.8886 H   0  0  0  0  0  0  0  0  0  0  0  0
   -1.9583    2.6898   -2.7232 H   0  0  0  0  0  0  0  0  0  0  0  0
   -0.2596    2.2037   -3.0244 H   0  0  0  0  0  0  0  0  0  0  0  0
   -1.3348    0.8097   -4.6325 H   0  0  0  0  0  0  0  0  0  0  0  0
   -2.8448    0.7446   -3.7059 H   0  0  0  0  0  0  0  0  0  0  0  0
    0.3421    3.2845    0.3429 H   0  0  0  0  0  0  0  0  0  0  0  0
   -2.3972    3.9539   -0.9724 H   0  0  0  0  0  0  0  0  0  0  0  0
   -2.5905    3.2667    1.4170 H   0  0  0  0  0  0  0  0  0  0  0  0
   -1.2545    4.4059    1.8863 H   0  0  0  0  0  0  0  0  0  0  0  0
   -0.3088    5.8786    0.1311 H   0  0  0  0  0  0  0  0  0  0  0  0
   -0.1436    5.2429   -1.5132 H   0  0  0  0  0  0  0  0  0  0  0  0
   -2.3066    6.9838   -0.4558 H   0  0  0  0  0  0  0  0  0  0  0  0
   -4.0033    7.5412   -2.2086 H   0  0  0  0  0  0  0  0  0  0  0  0
   -2.6430    8.6724   -2.3802 H   0  0  0  0  0  0  0  0  0  0  0  0
   -3.7921    6.9496   -4.6434 H   0  0  0  0  0  0  0  0  0  0  0  0
   -4.0992    8.6819   -4.4124 H   0  0  0  0  0  0  0  0  0  0  0  0
   -2.4661    8.1094   -4.8026 H   0  0  0  0  0  0  0  0  0  0  0  0
  1  2  2  0  0  0  0
  1 19  1  0  0  0  0
  2  3  1  0  0  0  0
  2 20  1  0  0  0  0
  3  4  2  0  0  0  0
  3 21  1  0  0  0  0
  4  6  1  0  0  0  0
  5  1  1  0  0  0  0
  5  6  2  0  0  0  0
  6  7  1  0  0  0  0
  7  8  1  0  0  0  0
  7 22  1  0  0  0  0
  7 23  1  0  0  0  0
  8  9  1  0  0  0  0
  8 24  1  0  0  0  0
  8 25  1  0  0  0  0
  9  5  1  0  0  0  0
 10  4  1  0  0  0  0
 10 12  1  0  0  0  0
 10 26  1  1  0  0  0
 11 10  1  0  0  0  0
 11 13  1  0  0  0  0
 11 27  1  6  0  0  0
 12 11  1  0  0  0  0
 12 28  1  0  0  0  0
 12 29  1  0  0  0  0
 13 14  1  0  0  0  0
 13 30  1  0  0  0  0
 13 31  1  0  0  0  0
 14 15  1  0  0  0  0
 14 32  1  0  0  0  0
 15 16  1  0  0  0  0
 15 18  2  0  0  0  0
 16 17  1  0  0  0  0
 16 33  1  0  0  0  0
 16 34  1  0  0  0  0
 17 35  1  0  0  0  0
 17 36  1  0  0  0  0
 17 37  1  0  0  0  0
M  END
>  <Mol_ID>
3282

>  <Formula>
C15H19NO2

>  <MolWeight>
245.31686

>  <Cat>
S4281

>  <Name>
Tasimelteon

>  <Synonyms>
BMS 214778, VEC 162

>  <Target>
MT Receptor

>  <Form>
free base

>  <CAS>
609799-22-6

>  <URL>
https://www.selleckchem.com/products/tasimelteon.html

$$$$
