S4516 (+)-Camphor.cdx
 OpenBabel08302519503D

 27 28  0  0  0  0  0  0  0  0999 V2000
   -1.2208   -0.8002   -0.5809 C   0  0  0  0  0  0  0  0  0  0  0  0
   -0.0240   -1.1446    0.3365 C   0  0  3  0  0  0  0  0  0  0  0  0
    1.1909   -0.7331   -0.5004 C   0  0  0  0  0  0  0  0  0  0  0  0
    1.2743    0.7811   -0.5337 C   0  0  0  0  0  0  0  0  0  0  0  0
   -1.2169    0.7457   -0.5880 C   0  0  0  0  0  0  0  0  0  0  0  0
    0.0050    1.0996    0.2970 C   0  0  3  0  0  0  0  0  0  0  0  0
   -0.0260   -0.0039    1.3909 C   0  0  0  0  0  0  0  0  0  0  0  0
    1.1919    0.0021    2.3371 C   0  0  0  0  0  0  0  0  0  0  0  0
   -1.2777    0.0305    2.2901 C   0  0  0  0  0  0  0  0  0  0  0  0
    0.0097   -2.5667    0.8436 C   0  0  0  0  0  0  0  0  0  0  0  0
    1.9564   -1.4881   -1.0764 O   0  0  0  0  0  0  0  0  0  0  0  0
   -2.1687   -1.1839   -0.1887 H   0  0  0  0  0  0  0  0  0  0  0  0
   -1.0942   -1.1941   -1.5960 H   0  0  0  0  0  0  0  0  0  0  0  0
    1.2144    1.1549   -1.5586 H   0  0  0  0  0  0  0  0  0  0  0  0
    2.1894    1.1244   -0.0476 H   0  0  0  0  0  0  0  0  0  0  0  0
   -1.1291    1.1464   -1.6035 H   0  0  0  0  0  0  0  0  0  0  0  0
   -2.1460    1.1394   -0.1626 H   0  0  0  0  0  0  0  0  0  0  0  0
   -0.0153    2.1281    0.6652 H   0  0  0  0  0  0  0  0  0  0  0  0
    1.2048    0.9193    2.9369 H   0  0  0  0  0  0  0  0  0  0  0  0
    1.1484   -0.8466    3.0292 H   0  0  0  0  0  0  0  0  0  0  0  0
    2.1561   -0.0627    1.8263 H   0  0  0  0  0  0  0  0  0  0  0  0
   -2.2244    0.0468    1.7457 H   0  0  0  0  0  0  0  0  0  0  0  0
   -1.3074   -0.8496    2.9426 H   0  0  0  0  0  0  0  0  0  0  0  0
   -1.2650    0.9192    2.9312 H   0  0  0  0  0  0  0  0  0  0  0  0
    0.9073   -2.7556    1.4417 H   0  0  0  0  0  0  0  0  0  0  0  0
   -0.8642   -2.7895    1.4639 H   0  0  0  0  0  0  0  0  0  0  0  0
    0.0208   -3.2798    0.0126 H   0  0  0  0  0  0  0  0  0  0  0  0
  1  2  1  0  0  0  0
  1  5  1  0  0  0  0
  1 12  1  0  0  0  0
  1 13  1  0  0  0  0
  2  3  1  0  0  0  0
  2  7  1  0  0  0  0
  2 10  1  0  0  0  0
  3  4  1  0  0  0  0
  3 11  2  0  0  0  0
  4  6  1  0  0  0  0
  4 14  1  0  0  0  0
  4 15  1  0  0  0  0
  5  6  1  0  0  0  0
  5 16  1  0  0  0  0
  5 17  1  0  0  0  0
  6  7  1  0  0  0  0
  6 18  1  0  0  0  0
  7  8  1  0  0  0  0
  7  9  1  0  0  0  0
  8 19  1  0  0  0  0
  8 20  1  0  0  0  0
  8 21  1  0  0  0  0
  9 22  1  0  0  0  0
  9 23  1  0  0  0  0
  9 24  1  0  0  0  0
 10 25  1  0  0  0  0
 10 26  1  0  0  0  0
 10 27  1  0  0  0  0
M  END
>  <Mol_ID>
1515

>  <Formula>
C10H16O

>  <MolWeight>
152.23344

>  <Cat>
S4516

>  <Name>
(+)-Camphor

>  <Synonyms>
D-(+)-camphor, (1R)-(+)-camphor

>  <Target>
Fungal,TRP Channel

>  <Form>
free base

>  <CAS>
464-49-3

>  <URL>
http://selleckchem.com/products/positive-rotation-camphor.html

$$$$
