S4520 2-Aminoheptane.cdx
 OpenBabel08302520003D

 25 24  0  0  0  0  0  0  0  0999 V2000
    1.1004   -0.1068    0.0111 C   0  0  0  0  0  0  0  0  0  0  0  0
    0.6049    1.3240   -0.2500 C   0  0  0  0  0  0  0  0  0  0  0  0
    2.6266   -0.2767    0.0822 C   0  0  3  0  0  0  0  0  0  0  0  0
    1.0828    1.9678   -1.5560 C   0  0  0  0  0  0  0  0  0  0  0  0
    3.2656    0.5276    1.2135 C   0  0  0  0  0  0  0  0  0  0  0  0
    2.9306   -1.6998    0.2790 N   0  0  0  0  0  0  0  0  0  0  0  0
    0.7225    1.2127   -2.8396 C   0  0  0  0  0  0  0  0  0  0  0  0
   -0.7746    1.1188   -3.0995 C   0  0  0  0  0  0  0  0  0  0  0  0
    0.6949   -0.7687   -0.7651 H   0  0  0  0  0  0  0  0  0  0  0  0
    0.6528   -0.4458    0.9576 H   0  0  0  0  0  0  0  0  0  0  0  0
   -0.4915    1.3167   -0.2295 H   0  0  0  0  0  0  0  0  0  0  0  0
    0.9044    1.9698    0.5837 H   0  0  0  0  0  0  0  0  0  0  0  0
    3.0752    0.0272   -0.8692 H   0  0  0  0  0  0  0  0  0  0  0  0
    0.6619    2.9778   -1.6152 H   0  0  0  0  0  0  0  0  0  0  0  0
    2.1696    2.0973   -1.5209 H   0  0  0  0  0  0  0  0  0  0  0  0
    2.8455    0.2555    2.1889 H   0  0  0  0  0  0  0  0  0  0  0  0
    4.3476    0.3560    1.2534 H   0  0  0  0  0  0  0  0  0  0  0  0
    3.1182    1.6021    1.0691 H   0  0  0  0  0  0  0  0  0  0  0  0
    3.9415   -1.8335    0.2937 H   0  0  0  0  0  0  0  0  0  0  0  0
    2.5934   -2.0009    1.1929 H   0  0  0  0  0  0  0  0  0  0  0  0
    1.1857    1.7285   -3.6895 H   0  0  0  0  0  0  0  0  0  0  0  0
    1.1543    0.2053   -2.8206 H   0  0  0  0  0  0  0  0  0  0  0  0
   -1.1954    2.1082   -3.3069 H   0  0  0  0  0  0  0  0  0  0  0  0
   -0.9637    0.4848   -3.9718 H   0  0  0  0  0  0  0  0  0  0  0  0
   -1.3127    0.6845   -2.2534 H   0  0  0  0  0  0  0  0  0  0  0  0
  1  2  1  0  0  0  0
  1  3  1  0  0  0  0
  1  9  1  0  0  0  0
  1 10  1  0  0  0  0
  2  4  1  0  0  0  0
  2 11  1  0  0  0  0
  2 12  1  0  0  0  0
  3  5  1  0  0  0  0
  3  6  1  0  0  0  0
  3 13  1  0  0  0  0
  4  7  1  0  0  0  0
  4 14  1  0  0  0  0
  4 15  1  0  0  0  0
  5 16  1  0  0  0  0
  5 17  1  0  0  0  0
  5 18  1  0  0  0  0
  6 19  1  0  0  0  0
  6 20  1  0  0  0  0
  7  8  1  0  0  0  0
  7 21  1  0  0  0  0
  7 22  1  0  0  0  0
  8 23  1  0  0  0  0
  8 24  1  0  0  0  0
  8 25  1  0  0  0  0
M  END
>  <Mol_ID>
2676

>  <Formula>
C7H17N

>  <MolWeight>
115.21658

>  <Cat>
S4520

>  <Name>
2-Aminoheptane

>  <Synonyms>
Tuaminoheptanez, Tuamine, Heptamine, 1-Methylhexylamine, 2-Heptylamine

>  <Target>
Others

>  <Form>
Free Base

>  <CAS>
123-82-0

>  <URL>
http://selleckchem.com/products/2-aminoheptane.html

$$$$
