S4558 Citiolone.cdx
 OpenBabel08302519503D

 19 19  0  0  0  0  0  0  0  0999 V2000
   -1.7368    0.1665   -0.0689 C   0  0  0  0  0  0  0  0  0  0  0  0
   -0.2167    1.1162    0.2076 S   0  0  0  0  0  0  0  0  0  0  0  0
    0.8249   -0.2694   -0.1239 C   0  0  0  0  0  0  0  0  0  0  0  0
    0.0105   -1.5427   -0.3072 C   0  0  3  0  0  0  0  0  0  0  0  0
   -1.3511   -1.2469    0.3224 C   0  0  0  0  0  0  0  0  0  0  0  0
   -0.0477   -1.8588   -1.7319 N   0  0  0  0  0  0  0  0  0  0  0  0
    2.0178   -0.1537   -0.3615 O   0  0  0  0  0  0  0  0  0  0  0  0
   -0.6308   -3.0193   -2.1863 C   0  0  0  0  0  0  0  0  0  0  0  0
   -1.2042   -3.8195   -1.4569 O   0  0  0  0  0  0  0  0  0  0  0  0
   -0.5260   -3.1972   -3.6743 C   0  0  0  0  0  0  0  0  0  0  0  0
   -2.0221    0.2242   -1.1243 H   0  0  0  0  0  0  0  0  0  0  0  0
   -2.5560    0.5527    0.5433 H   0  0  0  0  0  0  0  0  0  0  0  0
    0.5010   -2.3717    0.2140 H   0  0  0  0  0  0  0  0  0  0  0  0
   -2.1270   -1.9563    0.0184 H   0  0  0  0  0  0  0  0  0  0  0  0
   -1.2720   -1.3149    1.4165 H   0  0  0  0  0  0  0  0  0  0  0  0
    0.6347   -1.4107   -2.3373 H   0  0  0  0  0  0  0  0  0  0  0  0
   -1.0160   -2.3603   -4.1807 H   0  0  0  0  0  0  0  0  0  0  0  0
    0.5241   -3.2484   -3.9726 H   0  0  0  0  0  0  0  0  0  0  0  0
   -1.0243   -4.1253   -3.9682 H   0  0  0  0  0  0  0  0  0  0  0  0
  1  2  1  0  0  0  0
  1 11  1  0  0  0  0
  1 12  1  0  0  0  0
  2  3  1  0  0  0  0
  3  4  1  0  0  0  0
  3  7  2  0  0  0  0
  4  5  1  0  0  0  0
  4  6  1  0  0  0  0
  4 13  1  0  0  0  0
  5  1  1  0  0  0  0
  5 14  1  0  0  0  0
  5 15  1  0  0  0  0
  6  8  1  0  0  0  0
  6 16  1  0  0  0  0
  8  9  2  0  0  0  0
  8 10  1  0  0  0  0
 10 17  1  0  0  0  0
 10 18  1  0  0  0  0
 10 19  1  0  0  0  0
M  END
>  <Mol_ID>
1512

>  <Formula>
C6H9NO2S

>  <MolWeight>
159.20616

>  <Cat>
S4558

>  <Name>
Citiolone

>  <Synonyms>
N/A

>  <Target>
Others

>  <Form>
free base

>  <CAS>
1195-16-0

>  <URL>
http://selleckchem.com/products/citiolone.html

$$$$
