S4550 Azelaic acid.cdx
 OpenBabel08302519503D

 29 28  0  0  0  0  0  0  0  0999 V2000
   -0.8370   -0.0237   -3.9579 C   0  0  0  0  0  0  0  0  0  0  0  0
   -1.6934    0.3420   -2.7664 C   0  0  0  0  0  0  0  0  0  0  0  0
   -1.5796   -0.4059   -5.0237 O   0  0  0  0  0  0  0  0  0  0  0  0
    0.3823    0.0059   -3.9905 O   0  0  0  0  0  0  0  0  0  0  0  0
   -0.8489    0.7773   -1.5676 C   0  0  0  0  0  0  0  0  0  0  0  0
   -1.6773    1.2351   -0.3620 C   0  0  0  0  0  0  0  0  0  0  0  0
   -2.5732    0.1356    0.2117 C   0  0  0  0  0  0  0  0  0  0  0  0
   -3.3452    0.6122    1.4455 C   0  0  0  0  0  0  0  0  0  0  0  0
   -4.2520   -0.4999    1.9772 C   0  0  0  0  0  0  0  0  0  0  0  0
   -5.0509   -0.0574    3.2024 C   0  0  0  0  0  0  0  0  0  0  0  0
   -5.9453   -1.1663    3.7104 C   0  0  0  0  0  0  0  0  0  0  0  0
   -6.6659   -0.7901    4.7923 O   0  0  0  0  0  0  0  0  0  0  0  0
   -6.0383   -2.2811    3.2214 O   0  0  0  0  0  0  0  0  0  0  0  0
   -2.3620    1.1576   -3.0627 H   0  0  0  0  0  0  0  0  0  0  0  0
   -2.2894   -0.5396   -2.5102 H   0  0  0  0  0  0  0  0  0  0  0  0
   -2.5413   -0.3924   -4.8594 H   0  0  0  0  0  0  0  0  0  0  0  0
   -0.1848   -0.0426   -1.2667 H   0  0  0  0  0  0  0  0  0  0  0  0
   -0.1953    1.6059   -1.8698 H   0  0  0  0  0  0  0  0  0  0  0  0
   -0.9859    1.5777    0.4181 H   0  0  0  0  0  0  0  0  0  0  0  0
   -2.2875    2.1009   -0.6457 H   0  0  0  0  0  0  0  0  0  0  0  0
   -3.2939   -0.1920   -0.5455 H   0  0  0  0  0  0  0  0  0  0  0  0
   -1.9604   -0.7347    0.4757 H   0  0  0  0  0  0  0  0  0  0  0  0
   -2.6416    0.9229    2.2270 H   0  0  0  0  0  0  0  0  0  0  0  0
   -3.9510    1.4886    1.1851 H   0  0  0  0  0  0  0  0  0  0  0  0
   -4.9437   -0.8174    1.1864 H   0  0  0  0  0  0  0  0  0  0  0  0
   -3.6446   -1.3772    2.2329 H   0  0  0  0  0  0  0  0  0  0  0  0
   -4.3661    0.2289    4.0081 H   0  0  0  0  0  0  0  0  0  0  0  0
   -5.6806    0.8013    2.9431 H   0  0  0  0  0  0  0  0  0  0  0  0
   -6.4974    0.1270    5.0798 H   0  0  0  0  0  0  0  0  0  0  0  0
  1  2  1  0  0  0  0
  1  3  1  0  0  0  0
  1  4  2  0  0  0  0
  2  5  1  0  0  0  0
  2 14  1  0  0  0  0
  2 15  1  0  0  0  0
  3 16  1  0  0  0  0
  5  6  1  0  0  0  0
  5 17  1  0  0  0  0
  5 18  1  0  0  0  0
  6  7  1  0  0  0  0
  6 19  1  0  0  0  0
  6 20  1  0  0  0  0
  7  8  1  0  0  0  0
  7 21  1  0  0  0  0
  7 22  1  0  0  0  0
  8  9  1  0  0  0  0
  8 23  1  0  0  0  0
  8 24  1  0  0  0  0
  9 10  1  0  0  0  0
  9 25  1  0  0  0  0
  9 26  1  0  0  0  0
 10 11  1  0  0  0  0
 10 27  1  0  0  0  0
 10 28  1  0  0  0  0
 11 12  1  0  0  0  0
 11 13  2  0  0  0  0
 12 29  1  0  0  0  0
M  END
>  <Mol_ID>
1561

>  <Formula>
C9H16O4

>  <MolWeight>
188.22094

>  <Cat>
S4550

>  <Name>
Azelaic acid

>  <Synonyms>
Nonanedioic acid, Finacea, Azelex, Anchoic acid

>  <Target>
Bacterial

>  <Form>
free base

>  <CAS>
123-99-9

>  <URL>
http://selleckchem.com/products/azelaic-acid.html

$$$$
