S4565 Diiodohydroxyquinoline.cdx
 OpenBabel08302519503D

 18 19  0  0  0  0  0  0  0  0999 V2000
   -0.0154   -0.7047   -0.0356 C   0  0  0  0  0  0  0  0  0  0  0  0
   -0.0124    0.7129    0.0010 C   0  0  0  0  0  0  0  0  0  0  0  0
    1.2158   -1.3771   -0.0468 C   0  0  0  0  0  0  0  0  0  0  0  0
   -1.1675   -1.4117   -0.0751 N   0  0  0  0  0  0  0  0  0  0  0  0
    1.2360    1.3936    0.0316 C   0  0  0  0  0  0  0  0  0  0  0  0
   -1.2778    1.3471   -0.0103 C   0  0  0  0  0  0  0  0  0  0  0  0
    2.4333   -0.6907   -0.0406 C   0  0  0  0  0  0  0  0  0  0  0  0
    1.2005   -2.7570   -0.0759 O   0  0  0  0  0  0  0  0  0  0  0  0
   -2.3458   -0.7609   -0.1012 C   0  0  0  0  0  0  0  0  0  0  0  0
    2.4473    0.6976    0.0029 C   0  0  0  0  0  0  0  0  0  0  0  0
    1.4008    3.4998    0.0972 I   0  0  0  0  0  0  0  0  0  0  0  0
   -2.4533    0.6094   -0.0729 C   0  0  0  0  0  0  0  0  0  0  0  0
    4.2622   -1.7012   -0.1260 I   0  0  0  0  0  0  0  0  0  0  0  0
   -1.3692    2.4297    0.0156 H   0  0  0  0  0  0  0  0  0  0  0  0
    2.1189   -3.0731   -0.0857 H   0  0  0  0  0  0  0  0  0  0  0  0
   -3.2247   -1.3963   -0.1528 H   0  0  0  0  0  0  0  0  0  0  0  0
    3.3924    1.2345    0.0074 H   0  0  0  0  0  0  0  0  0  0  0  0
   -3.4220    1.0938   -0.1039 H   0  0  0  0  0  0  0  0  0  0  0  0
  1  2  1  0  0  0  0
  1  3  2  0  0  0  0
  1  4  1  0  0  0  0
  2  5  2  0  0  0  0
  2  6  1  0  0  0  0
  3  7  1  0  0  0  0
  3  8  1  0  0  0  0
  4  9  2  0  0  0  0
  5 10  1  0  0  0  0
  5 11  1  0  0  0  0
  6 12  2  0  0  0  0
  6 14  1  0  0  0  0
  7 13  1  0  0  0  0
  7 10  2  0  0  0  0
  8 15  1  0  0  0  0
  9 12  1  0  0  0  0
  9 16  1  0  0  0  0
 10 17  1  0  0  0  0
 12 18  1  0  0  0  0
M  END
>  <Mol_ID>
1510

>  <Formula>
C9H5I2NO

>  <MolWeight>
396.95104

>  <Cat>
S4565

>  <Name>
Diiodohydroxyquinoline

>  <Synonyms>
Iodoquinol

>  <Target>
Bacterial

>  <Form>
free base

>  <CAS>
83-73-8

>  <URL>
http://selleckchem.com/products/diiodohydroxyquinoline.html

$$$$
