S4575 Pralidoxime (chloride).cdx
 OpenBabel08302521383D

 19 19  0  0  0  0  0  0  0  0999 V2000
   -0.3043    1.2237   -0.0437 C   0  0  0  0  0  0  0  0  0  0  0  0
   -0.9804    0.0466    0.0161 N   0  3  0  0  0  0  0  0  0  0  0  0
    1.0950    1.2448   -0.0007 C   0  0  0  0  0  0  0  0  0  0  0  0
   -0.9871    2.5171   -0.2020 C   0  0  0  0  0  0  0  0  0  0  0  0
   -0.2923   -1.1249    0.0403 C   0  0  0  0  0  0  0  0  0  0  0  0
   -2.4505   -0.0471    0.1077 C   0  0  0  0  0  0  0  0  0  0  0  0
    1.7989    0.0479    0.0518 C   0  0  0  0  0  0  0  0  0  0  0  0
   -2.1227    2.6352   -0.8103 N   0  0  0  0  0  0  0  0  0  0  0  0
    1.0954   -1.1458    0.0555 C   0  0  0  0  0  0  0  0  0  0  0  0
   -2.4851    3.9866   -0.7978 O   0  0  0  0  0  0  0  0  0  0  0  0
    1.6420    2.1837   -0.0388 H   0  0  0  0  0  0  0  0  0  0  0  0
   -0.4607    3.4068    0.1954 H   0  0  0  0  0  0  0  0  0  0  0  0
   -0.8702   -2.0450    0.0553 H   0  0  0  0  0  0  0  0  0  0  0  0
   -2.8275   -0.3669   -0.8670 H   0  0  0  0  0  0  0  0  0  0  0  0
   -2.6864   -0.7978    0.8704 H   0  0  0  0  0  0  0  0  0  0  0  0
   -2.9082    0.8823    0.4404 H   0  0  0  0  0  0  0  0  0  0  0  0
    2.8852    0.0486    0.0688 H   0  0  0  0  0  0  0  0  0  0  0  0
    1.6297   -2.0956    0.0773 H   0  0  0  0  0  0  0  0  0  0  0  0
   -3.3092    4.0130   -1.3236 H   0  0  0  0  0  0  0  0  0  0  0  0
  1  2  2  0  0  0  0
  1  3  1  0  0  0  0
  1  4  1  0  0  0  0
  2  5  1  0  0  0  0
  2  6  1  0  0  0  0
  3  7  2  0  0  0  0
  3 11  1  0  0  0  0
  4  8  2  0  0  0  0
  4 12  1  0  0  0  0
  5  9  2  0  0  0  0
  5 13  1  0  0  0  0
  6 14  1  0  0  0  0
  6 15  1  0  0  0  0
  6 16  1  0  0  0  0
  7  9  1  0  0  0  0
  7 17  1  0  0  0  0
  8 10  1  0  0  0  0
  9 18  1  0  0  0  0
 10 19  1  0  0  0  0
M  CHG  1   2   1
M  END
>  <Mol_ID>
7765

>  <Formula>
C7H9ClN2O

>  <MolWeight>
172.61216

>  <Cat>
S4575

>  <Name>
Pralidoxime chloride

>  <Synonyms>
2-PAM (chloride)

>  <Target>
AChR

>  <Form>
chloride

>  <CAS>
51-15-0

>  <URL>
http://selleckchem.com/products/pralidoxime-chloride.html

$$$$
