S4571 Hexylresorcinol.cdx
 OpenBabel08302519503D

 32 32  0  0  0  0  0  0  0  0999 V2000
    1.1759    1.0075    0.0975 C   0  0  0  0  0  0  0  0  0  0  0  0
    0.8078    0.0074   -0.8152 C   0  0  0  0  0  0  0  0  0  0  0  0
    0.2959    1.2848    1.1594 C   0  0  0  0  0  0  0  0  0  0  0  0
    2.4317    1.8374   -0.0386 C   0  0  0  0  0  0  0  0  0  0  0  0
   -0.4302   -0.6260   -0.7327 C   0  0  0  0  0  0  0  0  0  0  0  0
    1.6218   -0.4032   -1.8320 O   0  0  0  0  0  0  0  0  0  0  0  0
   -0.9429    0.6435    1.2530 C   0  0  0  0  0  0  0  0  0  0  0  0
    2.4962    2.6822   -1.3227 C   0  0  0  0  0  0  0  0  0  0  0  0
   -1.3032   -0.2920    0.2922 C   0  0  0  0  0  0  0  0  0  0  0  0
    1.3443    3.6858   -1.4843 C   0  0  0  0  0  0  0  0  0  0  0  0
   -2.5193   -0.9093    0.3229 O   0  0  0  0  0  0  0  0  0  0  0  0
    1.4401    4.5198   -2.7718 C   0  0  0  0  0  0  0  0  0  0  0  0
    1.3963    3.6795   -4.0530 C   0  0  0  0  0  0  0  0  0  0  0  0
    1.4693    4.5411   -5.3033 C   0  0  0  0  0  0  0  0  0  0  0  0
    0.5609    2.0217    1.9142 H   0  0  0  0  0  0  0  0  0  0  0  0
    2.5443    2.5011    0.8283 H   0  0  0  0  0  0  0  0  0  0  0  0
    3.2994    1.1653   -0.0079 H   0  0  0  0  0  0  0  0  0  0  0  0
   -0.7103   -1.3734   -1.4689 H   0  0  0  0  0  0  0  0  0  0  0  0
    2.5367   -0.1764   -1.6046 H   0  0  0  0  0  0  0  0  0  0  0  0
   -1.6124    0.8994    2.0689 H   0  0  0  0  0  0  0  0  0  0  0  0
    3.4464    3.2291   -1.3268 H   0  0  0  0  0  0  0  0  0  0  0  0
    2.5224    2.0119   -2.1849 H   0  0  0  0  0  0  0  0  0  0  0  0
    0.3801    3.1664   -1.4768 H   0  0  0  0  0  0  0  0  0  0  0  0
    1.3414    4.3724   -0.6271 H   0  0  0  0  0  0  0  0  0  0  0  0
   -3.0427   -0.5253    1.0441 H   0  0  0  0  0  0  0  0  0  0  0  0
    0.6064    5.2337   -2.7847 H   0  0  0  0  0  0  0  0  0  0  0  0
    2.3624    5.1135   -2.7538 H   0  0  0  0  0  0  0  0  0  0  0  0
    2.2407    2.9828   -4.0810 H   0  0  0  0  0  0  0  0  0  0  0  0
    0.4781    3.0815   -4.0759 H   0  0  0  0  0  0  0  0  0  0  0  0
    2.3738    5.1586   -5.3028 H   0  0  0  0  0  0  0  0  0  0  0  0
    1.4962    3.9073   -6.1962 H   0  0  0  0  0  0  0  0  0  0  0  0
    0.5988    5.2010   -5.3817 H   0  0  0  0  0  0  0  0  0  0  0  0
  1  2  2  0  0  0  0
  1  3  1  0  0  0  0
  1  4  1  0  0  0  0
  2  5  1  0  0  0  0
  2  6  1  0  0  0  0
  3  7  2  0  0  0  0
  3 15  1  0  0  0  0
  4  8  1  0  0  0  0
  4 16  1  0  0  0  0
  4 17  1  0  0  0  0
  5  9  2  0  0  0  0
  5 18  1  0  0  0  0
  6 19  1  0  0  0  0
  7  9  1  0  0  0  0
  7 20  1  0  0  0  0
  8 10  1  0  0  0  0
  8 21  1  0  0  0  0
  8 22  1  0  0  0  0
  9 11  1  0  0  0  0
 10 12  1  0  0  0  0
 10 23  1  0  0  0  0
 10 24  1  0  0  0  0
 11 25  1  0  0  0  0
 12 13  1  0  0  0  0
 12 26  1  0  0  0  0
 12 27  1  0  0  0  0
 13 14  1  0  0  0  0
 13 28  1  0  0  0  0
 13 29  1  0  0  0  0
 14 30  1  0  0  0  0
 14 31  1  0  0  0  0
 14 32  1  0  0  0  0
M  END
>  <Mol_ID>
1507

>  <Formula>
C12H18O2

>  <MolWeight>
194.27012

>  <Cat>
S4571

>  <Name>
Hexylresorcinol

>  <Synonyms>
4-Hexylresorcinol

>  <Target>
Tyrosinase

>  <Form>
free base

>  <CAS>
136-77-6

>  <URL>
http://selleckchem.com/products/hexylresorcinol.html

$$$$
