S4583 Butamben.cdx
 OpenBabel08302519503D

 29 29  0  0  0  0  0  0  0  0999 V2000
   -1.8944    0.4277    0.5557 C   0  0  0  0  0  0  0  0  0  0  0  0
   -3.3686    0.2703    0.4459 C   0  0  0  0  0  0  0  0  0  0  0  0
   -1.3800    1.7150    0.7314 C   0  0  0  0  0  0  0  0  0  0  0  0
   -1.0132   -0.6526    0.4356 C   0  0  0  0  0  0  0  0  0  0  0  0
   -3.6767   -1.0345    0.2187 O   0  0  0  0  0  0  0  0  0  0  0  0
   -4.1618    1.1916    0.5461 O   0  0  0  0  0  0  0  0  0  0  0  0
    0.0034    1.9266    0.7229 C   0  0  0  0  0  0  0  0  0  0  0  0
    0.3692   -0.4322    0.4276 C   0  0  0  0  0  0  0  0  0  0  0  0
   -5.0713   -1.3611    0.1176 C   0  0  0  0  0  0  0  0  0  0  0  0
    0.8894    0.8543    0.5823 C   0  0  0  0  0  0  0  0  0  0  0  0
   -5.5574   -1.9683    1.4276 C   0  0  0  0  0  0  0  0  0  0  0  0
    2.2454    1.0934    0.3386 N   0  0  0  0  0  0  0  0  0  0  0  0
   -5.5712   -0.9565    2.5755 C   0  0  0  0  0  0  0  0  0  0  0  0
   -5.9929   -1.5979    3.8863 C   0  0  0  0  0  0  0  0  0  0  0  0
   -2.0493    2.5676    0.8340 H   0  0  0  0  0  0  0  0  0  0  0  0
   -1.3808   -1.6665    0.3085 H   0  0  0  0  0  0  0  0  0  0  0  0
    0.3807    2.9417    0.8030 H   0  0  0  0  0  0  0  0  0  0  0  0
    1.0337   -1.2774    0.2730 H   0  0  0  0  0  0  0  0  0  0  0  0
   -5.6806   -0.5030   -0.1882 H   0  0  0  0  0  0  0  0  0  0  0  0
   -5.1552   -2.1081   -0.6811 H   0  0  0  0  0  0  0  0  0  0  0  0
   -6.5685   -2.3684    1.2825 H   0  0  0  0  0  0  0  0  0  0  0  0
   -4.9064   -2.8068    1.7006 H   0  0  0  0  0  0  0  0  0  0  0  0
    2.8552    0.3000    0.5041 H   0  0  0  0  0  0  0  0  0  0  0  0
    2.6023    1.9577    0.7302 H   0  0  0  0  0  0  0  0  0  0  0  0
   -4.5794   -0.5174    2.7180 H   0  0  0  0  0  0  0  0  0  0  0  0
   -6.2586   -0.1388    2.3308 H   0  0  0  0  0  0  0  0  0  0  0  0
   -5.2112   -2.2720    4.2524 H   0  0  0  0  0  0  0  0  0  0  0  0
   -6.1562   -0.8275    4.6460 H   0  0  0  0  0  0  0  0  0  0  0  0
   -6.9176   -2.1704    3.7717 H   0  0  0  0  0  0  0  0  0  0  0  0
  1  2  1  0  0  0  0
  1  3  2  0  0  0  0
  1  4  1  0  0  0  0
  2  5  1  0  0  0  0
  2  6  2  0  0  0  0
  3  7  1  0  0  0  0
  3 15  1  0  0  0  0
  4  8  2  0  0  0  0
  4 16  1  0  0  0  0
  5  9  1  0  0  0  0
  7 10  2  0  0  0  0
  7 17  1  0  0  0  0
  8 10  1  0  0  0  0
  8 18  1  0  0  0  0
  9 11  1  0  0  0  0
  9 19  1  0  0  0  0
  9 20  1  0  0  0  0
 10 12  1  0  0  0  0
 11 13  1  0  0  0  0
 11 21  1  0  0  0  0
 11 22  1  0  0  0  0
 12 23  1  0  0  0  0
 12 24  1  0  0  0  0
 13 14  1  0  0  0  0
 13 25  1  0  0  0  0
 13 26  1  0  0  0  0
 14 27  1  0  0  0  0
 14 28  1  0  0  0  0
 14 29  1  0  0  0  0
M  END
>  <Mol_ID>
1528

>  <Formula>
C11H15NO2

>  <MolWeight>
193.2423

>  <Cat>
S4583

>  <Name>
Butamben

>  <Synonyms>
Butyl 4-aminobenzoate

>  <Target>
Potassium Channel

>  <Form>
free base

>  <CAS>
94-25-7

>  <URL>
http://selleckchem.com/products/butamben.html

$$$$
