S4587 Dithranol.cdx
 OpenBabel08302519503D

 20 21  0  0  0  0  0  0  0  0999 V2000
   -0.5896   -0.6633    0.1677 C   0  0  0  0  0  0  0  0  0  0  0  0
   -0.5257    0.6907   -0.0149 N   0  0  0  0  0  0  0  0  0  0  0  0
   -1.8633   -1.0064    0.1627 N   0  0  0  0  0  0  0  0  0  0  0  0
    0.5755   -1.5728    0.3251 C   0  0  0  0  0  0  0  0  0  0  0  0
   -1.7626    1.1909   -0.1611 N   0  0  0  0  0  0  0  0  0  0  0  0
    0.6200    1.5655   -0.1132 C   0  0  0  0  0  0  0  0  0  0  0  0
   -2.5735    0.1493   -0.0429 N   0  0  0  0  0  0  0  0  0  0  0  0
    1.7229   -1.2166   -0.6165 C   0  0  0  0  0  0  0  0  0  0  0  0
    1.8614    1.0643    0.6166 C   0  0  0  0  0  0  0  0  0  0  0  0
    2.5940   -0.0561   -0.1250 C   0  0  0  0  0  0  0  0  0  0  0  0
    0.2434   -2.5932    0.0994 H   0  0  0  0  0  0  0  0  0  0  0  0
    0.9119   -1.5787    1.3686 H   0  0  0  0  0  0  0  0  0  0  0  0
    0.8200    1.7218   -1.1788 H   0  0  0  0  0  0  0  0  0  0  0  0
    0.3201    2.5268    0.3202 H   0  0  0  0  0  0  0  0  0  0  0  0
    1.3313   -0.9817   -1.6151 H   0  0  0  0  0  0  0  0  0  0  0  0
    2.3700   -2.0932   -0.7441 H   0  0  0  0  0  0  0  0  0  0  0  0
    1.5966    0.7303    1.6281 H   0  0  0  0  0  0  0  0  0  0  0  0
    2.5611    1.8987    0.7459 H   0  0  0  0  0  0  0  0  0  0  0  0
    3.3717   -0.4519    0.5400 H   0  0  0  0  0  0  0  0  0  0  0  0
    3.1227    0.3675   -0.9885 H   0  0  0  0  0  0  0  0  0  0  0  0
  1  2  1  0  0  0  0
  1  3  2  0  0  0  0
  1  4  1  0  0  0  0
  2  5  1  0  0  0  0
  2  6  1  0  0  0  0
  3  7  1  0  0  0  0
  4  8  1  0  0  0  0
  4 11  1  0  0  0  0
  4 12  1  0  0  0  0
  5  7  2  0  0  0  0
  6  9  1  0  0  0  0
  6 13  1  0  0  0  0
  6 14  1  0  0  0  0
  8 10  1  0  0  0  0
  8 15  1  0  0  0  0
  8 16  1  0  0  0  0
  9 10  1  0  0  0  0
  9 17  1  0  0  0  0
  9 18  1  0  0  0  0
 10 19  1  0  0  0  0
 10 20  1  0  0  0  0
M  END
>  <Mol_ID>
1525

>  <Formula>
C6H10N4

>  <MolWeight>
138.1704

>  <Cat>
S4587

>  <Name>
Pentylenetetrazol

>  <Synonyms>
Pentylenetetrazole, Metrazole, pentetrazol, pentamethylenetetrazol, Corazol, Cardiazol, PTZ

>  <Target>
GABA Receptor

>  <Form>
Free Base

>  <CAS>
54-95-5

>  <URL>
http://selleckchem.com/products/pentylenetetrazol.html

$$$$
