S4586 4-Chloro-DL-phenylalanine.cdx
 OpenBabel08302521393D

 23 23  0  0  0  0  0  0  0  0999 V2000
    0.9156   -0.0054   -0.0134 C   0  0  3  0  0  0  0  0  0  0  0  0
    2.4340    0.1210   -0.2771 C   0  0  0  0  0  0  0  0  0  0  0  0
    0.4607   -1.0563    1.0137 C   0  0  0  0  0  0  0  0  0  0  0  0
    0.2489   -0.2953   -1.3127 N   0  0  0  0  0  0  0  0  0  0  0  0
    3.2707   -0.6200    0.4716 O   0  0  0  0  0  0  0  0  0  0  0  0
    2.8701    0.8452   -1.1689 O   0  0  0  0  0  0  0  0  0  0  0  0
    0.8770   -0.8462    2.4574 C   0  0  0  0  0  0  0  0  0  0  0  0
    1.1142    0.4200    3.0096 C   0  0  0  0  0  0  0  0  0  0  0  0
    0.9939   -1.9714    3.2916 C   0  0  0  0  0  0  0  0  0  0  0  0
    1.4887    0.5564    4.3499 C   0  0  0  0  0  0  0  0  0  0  0  0
    1.3665   -1.8323    4.6311 C   0  0  0  0  0  0  0  0  0  0  0  0
    1.6164   -0.5708    5.1582 C   0  0  0  0  0  0  0  0  0  0  0  0
    0.5722    0.9855    0.3049 H   0  0  0  0  0  0  0  0  0  0  0  0
   -0.6369   -1.1075    1.0136 H   0  0  0  0  0  0  0  0  0  0  0  0
    0.8217   -2.0408    0.6861 H   0  0  0  0  0  0  0  0  0  0  0  0
    0.5412    0.4391   -1.9694 H   0  0  0  0  0  0  0  0  0  0  0  0
    0.6419   -1.1504   -1.7082 H   0  0  0  0  0  0  0  0  0  0  0  0
    2.8780   -1.1471    1.1913 H   0  0  0  0  0  0  0  0  0  0  0  0
    1.0035    1.3288    2.4243 H   0  0  0  0  0  0  0  0  0  0  0  0
    0.7873   -2.9689    2.9070 H   0  0  0  0  0  0  0  0  0  0  0  0
    1.6712    1.5460    4.7651 H   0  0  0  0  0  0  0  0  0  0  0  0
    1.4499   -2.7129    5.2652 H   0  0  0  0  0  0  0  0  0  0  0  0
    1.8999   -0.4618    6.2019 H   0  0  0  0  0  0  0  0  0  0  0  0
  1  2  1  0  0  0  0
  1  3  1  0  0  0  0
  1  4  1  0  0  0  0
  1 13  1  0  0  0  0
  2  5  1  0  0  0  0
  2  6  2  0  0  0  0
  3  7  1  0  0  0  0
  3 14  1  0  0  0  0
  3 15  1  0  0  0  0
  4 16  1  0  0  0  0
  4 17  1  0  0  0  0
  5 18  1  0  0  0  0
  7  8  2  0  0  0  0
  7  9  1  0  0  0  0
  8 10  1  0  0  0  0
  8 19  1  0  0  0  0
  9 11  2  0  0  0  0
  9 20  1  0  0  0  0
 10 12  2  0  0  0  0
 10 21  1  0  0  0  0
 11 12  1  0  0  0  0
 11 22  1  0  0  0  0
 12 23  1  0  0  0  0
M  END
>  <Mol_ID>
8183

>  <Formula>
C9H10ClNO2

>  <MolWeight>
199.6342

>  <Cat>
S4586

>  <Name>
4-Chloro-DL-phenylalanine

>  <Synonyms>
Fenclonine, PCPA, CP-10188

>  <Target>
Hydroxylase

>  <Form>
Free Base

>  <CAS>
7424-00-2

>  <URL>
http://selleckchem.com/products/4-chloro-dl-phenylalanine.html

$$$$
