S4588 Docusate (Sodium).cdx
 OpenBabel08302519503D

 65 64  0  0  0  0  0  0  0  0999 V2000
    1.0027    0.7523   -0.2617 C   0  0  3  0  0  0  0  0  0  0  0  0
    0.3605   -0.1138   -1.3185 C   0  0  0  0  0  0  0  0  0  0  0  0
    0.8235    0.2319    1.1662 C   0  0  0  0  0  0  0  0  0  0  0  0
    0.5614    2.4535   -0.3914 S   0  0  0  0  0  0  0  0  0  0  0  0
    0.5569   -1.4418   -0.9825 O   0  0  0  0  0  0  0  0  0  0  0  0
   -0.1697    0.2173   -2.3677 O   0  0  0  0  0  0  0  0  0  0  0  0
   -0.5542   -0.0946    1.7125 C   0  0  0  0  0  0  0  0  0  0  0  0
    1.3005    3.0661    0.7182 O   0  0  0  0  0  0  0  0  0  0  0  0
    1.0623    2.8703   -1.7004 O   0  0  0  0  0  0  0  0  0  0  0  0
   -0.8828    2.4827   -0.2131 O   0  5  0  0  0  0  0  0  0  0  0  0
   -0.1811   -2.4304   -1.7282 C   0  0  0  0  0  0  0  0  0  0  0  0
   -1.5158   -0.3465    0.7932 O   0  0  0  0  0  0  0  0  0  0  0  0
   -0.7048   -0.2949    2.9199 O   0  0  0  0  0  0  0  0  0  0  0  0
    0.7357   -3.5943   -2.1616 C   0  0  3  0  0  0  0  0  0  0  0  0
   -2.7654   -0.9158    1.2628 C   0  0  0  0  0  0  0  0  0  0  0  0
    1.5887   -4.1686   -0.9859 C   0  0  0  0  0  0  0  0  0  0  0  0
   -0.0412   -4.7481   -2.8444 C   0  0  0  0  0  0  0  0  0  0  0  0
   -3.9876   -0.0308    0.9195 C   0  0  3  0  0  0  0  0  0  0  0  0
    0.7393   -4.8588    0.0939 C   0  0  0  0  0  0  0  0  0  0  0  0
   -0.8994   -4.3911   -4.0447 C   0  0  0  0  0  0  0  0  0  0  0  0
   -3.9671    0.3453   -0.5816 C   0  0  0  0  0  0  0  0  0  0  0  0
   -5.3420   -0.6996    1.2727 C   0  0  0  0  0  0  0  0  0  0  0  0
    1.4920   -5.5586    1.2232 C   0  0  0  0  0  0  0  0  0  0  0  0
   -5.1553    1.1734   -1.0911 C   0  0  0  0  0  0  0  0  0  0  0  0
   -5.5591   -1.0766    2.7287 C   0  0  0  0  0  0  0  0  0  0  0  0
    2.3380   -4.6455    2.0869 C   0  0  0  0  0  0  0  0  0  0  0  0
   -5.3789    2.4872   -0.3404 C   0  0  0  0  0  0  0  0  0  0  0  0
   -6.6098    3.2094   -0.8696 C   0  0  0  0  0  0  0  0  0  0  0  0
    2.0828    0.7407   -0.4780 H   0  0  0  0  0  0  0  0  0  0  0  0
    1.4056   -0.6938    1.2653 H   0  0  0  0  0  0  0  0  0  0  0  0
    1.2705    0.9394    1.8761 H   0  0  0  0  0  0  0  0  0  0  0  0
   -0.9652   -2.7984   -1.0595 H   0  0  0  0  0  0  0  0  0  0  0  0
   -0.6787   -1.9962   -2.6003 H   0  0  0  0  0  0  0  0  0  0  0  0
    1.4486   -3.1835   -2.8910 H   0  0  0  0  0  0  0  0  0  0  0  0
   -2.8621   -1.8868    0.7635 H   0  0  0  0  0  0  0  0  0  0  0  0
   -2.7439   -1.1153    2.3396 H   0  0  0  0  0  0  0  0  0  0  0  0
    2.3052   -4.8913   -1.3994 H   0  0  0  0  0  0  0  0  0  0  0  0
    2.1903   -3.3665   -0.5425 H   0  0  0  0  0  0  0  0  0  0  0  0
    0.6820   -5.5131   -3.1545 H   0  0  0  0  0  0  0  0  0  0  0  0
   -0.7170   -5.2253   -2.1289 H   0  0  0  0  0  0  0  0  0  0  0  0
   -3.8882    0.8934    1.5026 H   0  0  0  0  0  0  0  0  0  0  0  0
    0.0392   -4.1361    0.5246 H   0  0  0  0  0  0  0  0  0  0  0  0
    0.1388   -5.6462   -0.3697 H   0  0  0  0  0  0  0  0  0  0  0  0
   -0.3403   -3.8327   -4.7981 H   0  0  0  0  0  0  0  0  0  0  0  0
   -1.2655   -5.3162   -4.5072 H   0  0  0  0  0  0  0  0  0  0  0  0
   -1.7796   -3.8149   -3.7438 H   0  0  0  0  0  0  0  0  0  0  0  0
   -3.0462    0.8925   -0.8089 H   0  0  0  0  0  0  0  0  0  0  0  0
   -3.9299   -0.5792   -1.1732 H   0  0  0  0  0  0  0  0  0  0  0  0
   -6.1560   -0.0098    1.0237 H   0  0  0  0  0  0  0  0  0  0  0  0
   -5.4919   -1.5894    0.6488 H   0  0  0  0  0  0  0  0  0  0  0  0
    0.7404   -6.0341    1.8673 H   0  0  0  0  0  0  0  0  0  0  0  0
    2.1102   -6.3686    0.8199 H   0  0  0  0  0  0  0  0  0  0  0  0
   -4.9788    1.3976   -2.1505 H   0  0  0  0  0  0  0  0  0  0  0  0
   -6.0701    0.5693   -1.0677 H   0  0  0  0  0  0  0  0  0  0  0  0
   -5.2895   -0.2581    3.4015 H   0  0  0  0  0  0  0  0  0  0  0  0
   -6.6225   -1.2985    2.8879 H   0  0  0  0  0  0  0  0  0  0  0  0
   -4.9954   -1.9719    3.0017 H   0  0  0  0  0  0  0  0  0  0  0  0
    1.7386   -3.8304    2.5037 H   0  0  0  0  0  0  0  0  0  0  0  0
    2.7553   -5.2171    2.9233 H   0  0  0  0  0  0  0  0  0  0  0  0
    3.1714   -4.2196    1.5227 H   0  0  0  0  0  0  0  0  0  0  0  0
   -5.5182    2.3139    0.7319 H   0  0  0  0  0  0  0  0  0  0  0  0
   -4.4990    3.1299   -0.4535 H   0  0  0  0  0  0  0  0  0  0  0  0
   -7.5206    2.6558   -0.6167 H   0  0  0  0  0  0  0  0  0  0  0  0
   -6.6878    4.2072   -0.4275 H   0  0  0  0  0  0  0  0  0  0  0  0
   -6.5677    3.3188   -1.9578 H   0  0  0  0  0  0  0  0  0  0  0  0
  1  2  1  0  0  0  0
  1  3  1  0  0  0  0
  1  4  1  0  0  0  0
  1 29  1  0  0  0  0
  2  5  1  0  0  0  0
  2  6  2  0  0  0  0
  3  7  1  0  0  0  0
  3 30  1  0  0  0  0
  3 31  1  0  0  0  0
  4  8  2  0  0  0  0
  4  9  2  0  0  0  0
  4 10  1  0  0  0  0
  5 11  1  0  0  0  0
  7 12  1  0  0  0  0
  7 13  2  0  0  0  0
 11 14  1  0  0  0  0
 11 32  1  0  0  0  0
 11 33  1  0  0  0  0
 12 15  1  0  0  0  0
 14 16  1  0  0  0  0
 14 17  1  0  0  0  0
 14 34  1  0  0  0  0
 15 18  1  0  0  0  0
 15 35  1  0  0  0  0
 15 36  1  0  0  0  0
 16 19  1  0  0  0  0
 16 37  1  0  0  0  0
 16 38  1  0  0  0  0
 17 20  1  0  0  0  0
 17 39  1  0  0  0  0
 17 40  1  0  0  0  0
 18 21  1  0  0  0  0
 18 22  1  0  0  0  0
 18 41  1  0  0  0  0
 19 23  1  0  0  0  0
 19 42  1  0  0  0  0
 19 43  1  0  0  0  0
 20 44  1  0  0  0  0
 20 45  1  0  0  0  0
 20 46  1  0  0  0  0
 21 24  1  0  0  0  0
 21 47  1  0  0  0  0
 21 48  1  0  0  0  0
 22 25  1  0  0  0  0
 22 49  1  0  0  0  0
 22 50  1  0  0  0  0
 23 26  1  0  0  0  0
 23 51  1  0  0  0  0
 23 52  1  0  0  0  0
 24 27  1  0  0  0  0
 24 53  1  0  0  0  0
 24 54  1  0  0  0  0
 25 55  1  0  0  0  0
 25 56  1  0  0  0  0
 25 57  1  0  0  0  0
 26 58  1  0  0  0  0
 26 59  1  0  0  0  0
 26 60  1  0  0  0  0
 27 28  1  0  0  0  0
 27 61  1  0  0  0  0
 27 62  1  0  0  0  0
 28 63  1  0  0  0  0
 28 64  1  0  0  0  0
 28 65  1  0  0  0  0
M  CHG  1  10  -1
M  END
>  <Mol_ID>
1551

>  <Formula>
C20H37NaO7S

>  <MolWeight>
444.55835

>  <Cat>
S4588

>  <Name>
Docusate Sodium

>  <Synonyms>
Aerosol OT, Bis(2-ethylhexyl) sulfosuccinate sodium salt, Constonate

>  <Target>
Opioid Receptor

>  <Form>
sodium salt

>  <CAS>
577-11-7

>  <URL>
http://selleckchem.com/products/docusate-sodium.html

$$$$
