S4585 Succinylsulfathiazole.cdx
 OpenBabel08302519503D

 36 37  0  0  0  0  0  0  0  0999 V2000
    1.4348   -0.2608    0.0260 C   0  0  0  0  0  0  0  0  0  0  0  0
    3.1828   -0.6125    0.2193 S   0  0  0  0  0  0  0  0  0  0  0  0
    0.5218   -1.3134   -0.0066 C   0  0  0  0  0  0  0  0  0  0  0  0
    0.9742    1.0595    0.0204 C   0  0  0  0  0  0  0  0  0  0  0  0
    3.7877   -0.6842   -1.3573 N   0  0  0  0  0  0  0  0  0  0  0  0
    3.7646    0.5683    0.8194 O   0  0  0  0  0  0  0  0  0  0  0  0
    3.3075   -1.9068    0.8533 O   0  0  0  0  0  0  0  0  0  0  0  0
   -0.8473   -1.0469   -0.0621 C   0  0  0  0  0  0  0  0  0  0  0  0
   -0.4055    1.3176   -0.0376 C   0  0  0  0  0  0  0  0  0  0  0  0
    3.1884   -1.7029   -2.1255 C   0  0  0  0  0  0  0  0  0  0  0  0
   -1.3314    0.2659   -0.0609 C   0  0  0  0  0  0  0  0  0  0  0  0
    2.2173   -1.3809   -2.9408 N   0  0  0  0  0  0  0  0  0  0  0  0
    3.7468   -3.3144   -2.1953 S   0  0  0  0  0  0  0  0  0  0  0  0
   -2.7122    0.5870   -0.0639 N   0  0  0  0  0  0  0  0  0  0  0  0
    1.7990   -2.5178   -3.6089 C   0  0  0  0  0  0  0  0  0  0  0  0
    2.5415   -3.6557   -3.3695 C   0  0  0  0  0  0  0  0  0  0  0  0
   -3.7560   -0.2887    0.1797 C   0  0  0  0  0  0  0  0  0  0  0  0
   -5.1293    0.3529    0.1431 C   0  0  0  0  0  0  0  0  0  0  0  0
   -3.6688   -1.4878    0.4285 O   0  0  0  0  0  0  0  0  0  0  0  0
   -5.7977    0.1951   -1.2113 C   0  0  0  0  0  0  0  0  0  0  0  0
   -5.9494   -1.2324   -1.6825 C   0  0  0  0  0  0  0  0  0  0  0  0
   -6.7059   -2.0109   -0.8831 O   0  0  0  0  0  0  0  0  0  0  0  0
   -5.5052   -1.6299   -2.7502 O   0  0  0  0  0  0  0  0  0  0  0  0
    0.8600   -2.3485    0.0214 H   0  0  0  0  0  0  0  0  0  0  0  0
    1.6716    1.8922    0.0898 H   0  0  0  0  0  0  0  0  0  0  0  0
    3.6295    0.2189   -1.7969 H   0  0  0  0  0  0  0  0  0  0  0  0
   -1.5182   -1.8992   -0.0988 H   0  0  0  0  0  0  0  0  0  0  0  0
   -0.7391    2.3517   -0.0213 H   0  0  0  0  0  0  0  0  0  0  0  0
   -2.9346    1.5717   -0.1418 H   0  0  0  0  0  0  0  0  0  0  0  0
    0.9499   -2.4574   -4.2798 H   0  0  0  0  0  0  0  0  0  0  0  0
    2.4315   -4.6384   -3.8058 H   0  0  0  0  0  0  0  0  0  0  0  0
   -5.7293   -0.1101    0.9355 H   0  0  0  0  0  0  0  0  0  0  0  0
   -5.0544    1.4157    0.3993 H   0  0  0  0  0  0  0  0  0  0  0  0
   -6.7949    0.6498   -1.1996 H   0  0  0  0  0  0  0  0  0  0  0  0
   -5.2141    0.7289   -1.9712 H   0  0  0  0  0  0  0  0  0  0  0  0
   -7.0034   -1.5998   -0.0520 H   0  0  0  0  0  0  0  0  0  0  0  0
  1  2  1  0  0  0  0
  1  3  2  0  0  0  0
  1  4  1  0  0  0  0
  2  5  1  0  0  0  0
  2  6  2  0  0  0  0
  2  7  2  0  0  0  0
  3  8  1  0  0  0  0
  3 24  1  0  0  0  0
  4  9  2  0  0  0  0
  4 25  1  0  0  0  0
  5 10  1  0  0  0  0
  5 26  1  0  0  0  0
  8 11  2  0  0  0  0
  8 27  1  0  0  0  0
  9 11  1  0  0  0  0
  9 28  1  0  0  0  0
 10 12  2  0  0  0  0
 10 13  1  0  0  0  0
 11 14  1  0  0  0  0
 12 15  1  0  0  0  0
 13 16  1  0  0  0  0
 14 17  1  0  0  0  0
 14 29  1  0  0  0  0
 15 16  2  0  0  0  0
 15 30  1  0  0  0  0
 16 31  1  0  0  0  0
 17 18  1  0  0  0  0
 17 19  2  0  0  0  0
 18 20  1  0  0  0  0
 18 32  1  0  0  0  0
 18 33  1  0  0  0  0
 20 21  1  0  0  0  0
 20 34  1  0  0  0  0
 20 35  1  0  0  0  0
 21 22  1  0  0  0  0
 21 23  2  0  0  0  0
 22 36  1  0  0  0  0
M  END
>  <Mol_ID>
1526

>  <Formula>
C13H13N3O5S2

>  <MolWeight>
355.38942

>  <Cat>
S4585

>  <Name>
Succinylsulfathiazole

>  <Synonyms>
Succinylsulphathiazole

>  <Target>
Antibiotics

>  <Form>
free base

>  <CAS>
116-43-8

>  <URL>
http://selleckchem.com/products/succinylsulfathiazole.html

$$$$
