S4584 Butylparaben.cdx
 OpenBabel08302519503D

 28 28  0  0  0  0  0  0  0  0999 V2000
   -1.9584   -0.4169   -0.5717 C   0  0  0  0  0  0  0  0  0  0  0  0
   -3.4241   -0.2247   -0.4066 C   0  0  0  0  0  0  0  0  0  0  0  0
   -1.4785   -1.7204   -0.7685 C   0  0  0  0  0  0  0  0  0  0  0  0
   -1.0509    0.6512   -0.5212 C   0  0  0  0  0  0  0  0  0  0  0  0
   -3.7067    1.0849   -0.2092 O   0  0  0  0  0  0  0  0  0  0  0  0
   -4.2328   -1.1394   -0.4595 O   0  0  0  0  0  0  0  0  0  0  0  0
   -0.1054   -1.9616   -0.8568 C   0  0  0  0  0  0  0  0  0  0  0  0
    0.3209    0.4086   -0.6137 C   0  0  0  0  0  0  0  0  0  0  0  0
   -5.0942    1.4395   -0.1036 C   0  0  0  0  0  0  0  0  0  0  0  0
    0.7821   -0.8954   -0.7523 C   0  0  0  0  0  0  0  0  0  0  0  0
   -5.5719    2.0459   -1.4215 C   0  0  0  0  0  0  0  0  0  0  0  0
    2.1301   -1.0931   -0.7639 O   0  0  0  0  0  0  0  0  0  0  0  0
   -5.5968    1.0292   -2.5648 C   0  0  0  0  0  0  0  0  0  0  0  0
   -5.9967    1.6716   -3.8825 C   0  0  0  0  0  0  0  0  0  0  0  0
   -2.1748   -2.5542   -0.8425 H   0  0  0  0  0  0  0  0  0  0  0  0
   -1.3944    1.6751   -0.3973 H   0  0  0  0  0  0  0  0  0  0  0  0
    0.2488   -2.9776   -1.0024 H   0  0  0  0  0  0  0  0  0  0  0  0
    1.0276    1.2320   -0.5563 H   0  0  0  0  0  0  0  0  0  0  0  0
   -5.7217    0.5946    0.2053 H   0  0  0  0  0  0  0  0  0  0  0  0
   -5.1652    2.1943    0.6870 H   0  0  0  0  0  0  0  0  0  0  0  0
   -6.5782    2.4571   -1.2794 H   0  0  0  0  0  0  0  0  0  0  0  0
   -4.9098    2.8766   -1.6956 H   0  0  0  0  0  0  0  0  0  0  0  0
    2.3027   -2.0373   -0.6110 H   0  0  0  0  0  0  0  0  0  0  0  0
   -4.6126    0.5685   -2.6978 H   0  0  0  0  0  0  0  0  0  0  0  0
   -6.3022    0.2265   -2.3207 H   0  0  0  0  0  0  0  0  0  0  0  0
   -5.1786    2.2857   -4.2731 H   0  0  0  0  0  0  0  0  0  0  0  0
   -6.2208    0.8991   -4.6247 H   0  0  0  0  0  0  0  0  0  0  0  0
   -6.8806    2.3059   -3.7688 H   0  0  0  0  0  0  0  0  0  0  0  0
  1  2  1  0  0  0  0
  1  3  2  0  0  0  0
  1  4  1  0  0  0  0
  2  5  1  0  0  0  0
  2  6  2  0  0  0  0
  3  7  1  0  0  0  0
  3 15  1  0  0  0  0
  4  8  2  0  0  0  0
  4 16  1  0  0  0  0
  5  9  1  0  0  0  0
  7 10  2  0  0  0  0
  7 17  1  0  0  0  0
  8 10  1  0  0  0  0
  8 18  1  0  0  0  0
  9 11  1  0  0  0  0
  9 19  1  0  0  0  0
  9 20  1  0  0  0  0
 10 12  1  0  0  0  0
 11 13  1  0  0  0  0
 11 21  1  0  0  0  0
 11 22  1  0  0  0  0
 12 23  1  0  0  0  0
 13 14  1  0  0  0  0
 13 24  1  0  0  0  0
 13 25  1  0  0  0  0
 14 26  1  0  0  0  0
 14 27  1  0  0  0  0
 14 28  1  0  0  0  0
M  END
>  <Mol_ID>
1527

>  <Formula>
C11H14O3

>  <MolWeight>
194.22706

>  <Cat>
S4584

>  <Name>
Butylparaben

>  <Synonyms>
Butyl parahydroxybenzoate, Butyl paraben, Butyl 4-hydroxybenzoate

>  <Target>
Fungal

>  <Form>
free base

>  <CAS>
94-26-8

>  <URL>
http://selleckchem.com/products/butylparaben.html

$$$$
