S4590 Dithranol.cdx
 OpenBabel08302520013D

 27 29  0  0  0  0  0  0  0  0999 V2000
    1.2945    0.7606   -0.0096 C   0  0  0  0  0  0  0  0  0  0  0  0
    1.2757   -0.6427   -0.0094 C   0  0  0  0  0  0  0  0  0  0  0  0
    0.0022    1.5133   -0.0159 C   0  0  0  0  0  0  0  0  0  0  0  0
    2.5392    1.4214   -0.0039 C   0  0  0  0  0  0  0  0  0  0  0  0
   -0.0010   -1.4327   -0.0192 C   0  0  0  0  0  0  0  0  0  0  0  0
    2.4908   -1.3556   -0.0041 C   0  0  0  0  0  0  0  0  0  0  0  0
   -1.2917    0.7637   -0.0088 C   0  0  0  0  0  0  0  0  0  0  0  0
    0.0038    2.7387   -0.0289 O   0  0  0  0  0  0  0  0  0  0  0  0
    3.7377    0.7018    0.0009 C   0  0  0  0  0  0  0  0  0  0  0  0
    2.6187    2.7860   -0.0024 O   0  0  0  0  0  0  0  0  0  0  0  0
   -1.2758   -0.6398   -0.0090 C   0  0  0  0  0  0  0  0  0  0  0  0
    3.7126   -0.6876    0.0004 C   0  0  0  0  0  0  0  0  0  0  0  0
   -2.5350    1.4270   -0.0029 C   0  0  0  0  0  0  0  0  0  0  0  0
   -2.4926   -1.3503   -0.0041 C   0  0  0  0  0  0  0  0  0  0  0  0
   -3.7348    0.7097    0.0012 C   0  0  0  0  0  0  0  0  0  0  0  0
   -2.6118    2.7917   -0.0004 O   0  0  0  0  0  0  0  0  0  0  0  0
   -3.7125   -0.6798    0.0008 C   0  0  0  0  0  0  0  0  0  0  0  0
   -0.0016   -2.0647   -0.9173 H   0  0  0  0  0  0  0  0  0  0  0  0
   -0.0015   -2.0881    0.8619 H   0  0  0  0  0  0  0  0  0  0  0  0
    2.4876   -2.4447   -0.0047 H   0  0  0  0  0  0  0  0  0  0  0  0
    4.6962    1.2125    0.0033 H   0  0  0  0  0  0  0  0  0  0  0  0
    3.5417    3.0778    0.0002 H   0  0  0  0  0  0  0  0  0  0  0  0
    4.6435   -1.2491    0.0036 H   0  0  0  0  0  0  0  0  0  0  0  0
   -2.4912   -2.4392   -0.0049 H   0  0  0  0  0  0  0  0  0  0  0  0
   -4.6923    1.2223    0.0046 H   0  0  0  0  0  0  0  0  0  0  0  0
   -3.5344    3.0849    0.0014 H   0  0  0  0  0  0  0  0  0  0  0  0
   -4.6446   -1.2393    0.0040 H   0  0  0  0  0  0  0  0  0  0  0  0
  1  2  2  0  0  0  0
  1  3  1  0  0  0  0
  1  4  1  0  0  0  0
  2  5  1  0  0  0  0
  2  6  1  0  0  0  0
  3  7  1  0  0  0  0
  3  8  2  0  0  0  0
  4  9  2  0  0  0  0
  4 10  1  0  0  0  0
  5 11  1  0  0  0  0
  5 18  1  0  0  0  0
  5 19  1  0  0  0  0
  6 12  2  0  0  0  0
  6 20  1  0  0  0  0
  7 13  2  0  0  0  0
  7 11  1  0  0  0  0
  9 12  1  0  0  0  0
  9 21  1  0  0  0  0
 10 22  1  0  0  0  0
 11 14  2  0  0  0  0
 12 23  1  0  0  0  0
 13 15  1  0  0  0  0
 13 16  1  0  0  0  0
 14 17  1  0  0  0  0
 14 24  1  0  0  0  0
 15 17  2  0  0  0  0
 15 25  1  0  0  0  0
 16 26  1  0  0  0  0
 17 27  1  0  0  0  0
M  END
>  <Mol_ID>
2951

>  <Formula>
C14H10O3

>  <MolWeight>
226.2274

>  <Cat>
S4590

>  <Name>
Dithranol

>  <Synonyms>
Anthralin, cignoline, 1,8,9-trihydroxyanthracene

>  <Target>
Others

>  <Form>
free base

>  <CAS>
1143-38-0

>  <URL>
http://selleckchem.com/products/dithranol.html

$$$$
