S4591 Nitroxoline.cdx
 OpenBabel08302519503D

 20 21  0  0  0  0  0  0  0  0999 V2000
    0.4401   -0.9949   -0.0045 C   0  0  0  0  0  0  0  0  0  0  0  0
    0.0625    0.3667   -0.0020 C   0  0  0  0  0  0  0  0  0  0  0  0
   -0.5982   -1.9664   -0.0038 C   0  0  0  0  0  0  0  0  0  0  0  0
    1.8313   -1.2733    0.0069 C   0  0  0  0  0  0  0  0  0  0  0  0
   -1.3084    0.6818    0.0022 C   0  0  0  0  0  0  0  0  0  0  0  0
    0.9811    1.3577    0.0008 N   0  0  0  0  0  0  0  0  0  0  0  0
   -1.9575   -1.6289    0.0068 C   0  0  0  0  0  0  0  0  0  0  0  0
   -0.2858   -3.3851   -0.0046 N   0  3  0  0  0  0  0  0  0  0  0  0
    2.7647   -0.2438    0.0105 C   0  0  0  0  0  0  0  0  0  0  0  0
   -2.3131   -0.2899    0.0084 C   0  0  0  0  0  0  0  0  0  0  0  0
   -1.6817    2.0074    0.0057 O   0  0  0  0  0  0  0  0  0  0  0  0
    2.2919    1.0478    0.0062 C   0  0  0  0  0  0  0  0  0  0  0  0
    0.3697   -3.8246   -0.9578 O   0  0  0  0  0  0  0  0  0  0  0  0
   -0.7332   -4.0580    0.9337 O   0  5  0  0  0  0  0  0  0  0  0  0
    2.2056   -2.2953    0.0094 H   0  0  0  0  0  0  0  0  0  0  0  0
   -2.7284   -2.3970    0.0141 H   0  0  0  0  0  0  0  0  0  0  0  0
    3.8297   -0.4460    0.0158 H   0  0  0  0  0  0  0  0  0  0  0  0
   -3.3635   -0.0139    0.0165 H   0  0  0  0  0  0  0  0  0  0  0  0
   -2.6470    2.0835    0.0083 H   0  0  0  0  0  0  0  0  0  0  0  0
    2.9670    1.8988    0.0080 H   0  0  0  0  0  0  0  0  0  0  0  0
  1  2  1  0  0  0  0
  1  3  2  0  0  0  0
  1  4  1  0  0  0  0
  2  5  2  0  0  0  0
  2  6  1  0  0  0  0
  3  7  1  0  0  0  0
  3  8  1  0  0  0  0
  4  9  2  0  0  0  0
  4 15  1  0  0  0  0
  5 10  1  0  0  0  0
  5 11  1  0  0  0  0
  6 12  2  0  0  0  0
  7 10  2  0  0  0  0
  7 16  1  0  0  0  0
  8 13  2  0  0  0  0
  8 14  1  0  0  0  0
  9 12  1  0  0  0  0
  9 17  1  0  0  0  0
 10 18  1  0  0  0  0
 11 19  1  0  0  0  0
 12 20  1  0  0  0  0
M  CHG  2   8   1  14  -1
M  END
>  <Mol_ID>
1524

>  <Formula>
C9H6N2O3

>  <MolWeight>
190.15554

>  <Cat>
S4591

>  <Name>
Nitroxoline

>  <Synonyms>
8-Hydroxy-5-nitroquinoline, 5-nitroquinolin-8-ol, 5-Nitro-8-quinolinol, 5-Nitro-8-hydroxyquinoline

>  <Target>
Cathepsin B,Cysteine Protease

>  <Form>
free base

>  <CAS>
4008-48-4

>  <URL>
http://selleckchem.com/products/nitroxoline.html

$$$$
