S4599 Benzyl benzoate.cdx
 OpenBabel08302520003D

 28 29  0  0  0  0  0  0  0  0999 V2000
    2.9635   -1.6541    1.2584 C   0  0  0  0  0  0  0  0  0  0  0  0
    2.6706   -0.3287    0.6504 C   0  0  0  0  0  0  0  0  0  0  0  0
    1.8713   -2.4795    1.5729 C   0  0  0  0  0  0  0  0  0  0  0  0
    4.2612   -2.1158    1.5071 C   0  0  0  0  0  0  0  0  0  0  0  0
    3.7725    0.4599    0.5733 O   0  0  0  0  0  0  0  0  0  0  0  0
    1.5457   -0.0218    0.2830 O   0  0  0  0  0  0  0  0  0  0  0  0
    2.0683   -3.7369    2.1441 C   0  0  0  0  0  0  0  0  0  0  0  0
    4.4561   -3.3803    2.0790 C   0  0  0  0  0  0  0  0  0  0  0  0
    3.5669    1.7349   -0.0592 C   0  0  0  0  0  0  0  0  0  0  0  0
    3.3617   -4.1852    2.4018 C   0  0  0  0  0  0  0  0  0  0  0  0
    4.0824    2.8599    0.8063 C   0  0  0  0  0  0  0  0  0  0  0  0
    5.0705    3.7392    0.3348 C   0  0  0  0  0  0  0  0  0  0  0  0
    3.5113    3.1021    2.0641 C   0  0  0  0  0  0  0  0  0  0  0  0
    5.4698    4.8374    1.0994 C   0  0  0  0  0  0  0  0  0  0  0  0
    3.9099    4.2010    2.8274 C   0  0  0  0  0  0  0  0  0  0  0  0
    4.8864    5.0711    2.3428 C   0  0  0  0  0  0  0  0  0  0  0  0
    0.8555   -2.1427    1.3697 H   0  0  0  0  0  0  0  0  0  0  0  0
    5.1287   -1.5109    1.2576 H   0  0  0  0  0  0  0  0  0  0  0  0
    1.2137   -4.3632    2.3879 H   0  0  0  0  0  0  0  0  0  0  0  0
    5.4634   -3.7407    2.2741 H   0  0  0  0  0  0  0  0  0  0  0  0
    4.1040    1.7123   -1.0141 H   0  0  0  0  0  0  0  0  0  0  0  0
    2.5161    1.9461   -0.2919 H   0  0  0  0  0  0  0  0  0  0  0  0
    3.5161   -5.1638    2.8511 H   0  0  0  0  0  0  0  0  0  0  0  0
    5.5232    3.5846   -0.6434 H   0  0  0  0  0  0  0  0  0  0  0  0
    2.7320    2.4450    2.4445 H   0  0  0  0  0  0  0  0  0  0  0  0
    6.2253    5.5202    0.7181 H   0  0  0  0  0  0  0  0  0  0  0  0
    3.4497    4.3872    3.7936 H   0  0  0  0  0  0  0  0  0  0  0  0
    5.1842    5.9351    2.9308 H   0  0  0  0  0  0  0  0  0  0  0  0
  1  2  1  0  0  0  0
  1  3  2  0  0  0  0
  1  4  1  0  0  0  0
  2  5  1  0  0  0  0
  2  6  2  0  0  0  0
  3  7  1  0  0  0  0
  3 17  1  0  0  0  0
  4  8  2  0  0  0  0
  4 18  1  0  0  0  0
  5  9  1  0  0  0  0
  7 10  2  0  0  0  0
  7 19  1  0  0  0  0
  8 10  1  0  0  0  0
  8 20  1  0  0  0  0
  9 11  1  0  0  0  0
  9 21  1  0  0  0  0
  9 22  1  0  0  0  0
 10 23  1  0  0  0  0
 11 12  2  0  0  0  0
 11 13  1  0  0  0  0
 12 14  1  0  0  0  0
 12 24  1  0  0  0  0
 13 15  2  0  0  0  0
 13 25  1  0  0  0  0
 14 16  2  0  0  0  0
 14 26  1  0  0  0  0
 15 16  1  0  0  0  0
 15 27  1  0  0  0  0
 16 28  1  0  0  0  0
M  END
>  <Mol_ID>
2683

>  <Formula>
C14H12O2

>  <MolWeight>
212.24388

>  <Cat>
S4599

>  <Name>
Benzyl benzoate

>  <Synonyms>
Ascabiol, Novoscabin, Scabitox, Benzoic acid benzyl ester

>  <Target>
Parasite

>  <Form>
free base

>  <CAS>
120-51-4

>  <URL>
http://selleckchem.com/products/benzyl-benzoate.html

$$$$
