S4596 Cefixime.cdx
 OpenBabel08302519503D

 45 47  0  0  0  0  0  0  0  0999 V2000
    0.4226    0.4773   -1.3873 N   0  0  0  0  0  0  0  0  0  0  0  0
   -0.4531    1.4641   -1.9646 C   0  0  1  0  0  0  0  0  0  0  0  0
    1.4951   -0.0795   -2.0256 C   0  0  0  0  0  0  0  0  0  0  0  0
   -0.0886    0.5045   -0.1418 C   0  0  0  0  0  0  0  0  0  0  0  0
   -1.1970    1.4880   -0.5949 C   0  0  1  0  0  0  0  0  0  0  0  0
    0.5819    2.8763   -2.3991 S   0  0  0  0  0  0  0  0  0  0  0  0
    2.0024    0.5436   -3.1299 C   0  0  0  0  0  0  0  0  0  0  0  0
    2.0319   -1.3960   -1.4898 C   0  0  0  0  0  0  0  0  0  0  0  0
    0.2209   -0.1304    0.8384 O   0  0  0  0  0  0  0  0  0  0  0  0
   -1.3765    2.7863    0.0950 N   0  0  0  0  0  0  0  0  0  0  0  0
    1.4996    1.9029   -3.6319 C   0  0  0  0  0  0  0  0  0  0  0  0
    3.1328    0.0305   -3.9082 C   0  0  0  0  0  0  0  0  0  0  0  0
    1.1499   -2.0758   -0.7185 O   0  0  0  0  0  0  0  0  0  0  0  0
    3.0963   -1.9051   -1.7955 O   0  0  0  0  0  0  0  0  0  0  0  0
   -2.1762    3.8508   -0.3107 C   0  0  0  0  0  0  0  0  0  0  0  0
    3.3785    0.2779   -5.2045 C   0  0  0  0  0  0  0  0  0  0  0  0
   -2.8155    3.8424   -1.7135 C   0  0  0  0  0  0  0  0  0  0  0  0
   -2.3298    4.8162    0.4314 O   0  0  0  0  0  0  0  0  0  0  0  0
   -3.4705    2.6531   -2.2607 C   0  0  0  0  0  0  0  0  0  0  0  0
   -2.7828    4.8621   -2.5291 N   0  0  0  0  0  0  0  0  0  0  0  0
   -4.0248    1.6748   -1.4456 N   0  0  0  0  0  0  0  0  0  0  0  0
   -3.4946    2.3353   -3.6101 C   0  0  0  0  0  0  0  0  0  0  0  0
   -2.1549    5.9971   -2.0012 O   0  0  0  0  0  0  0  0  0  0  0  0
   -4.3681    0.6224   -2.1467 C   0  0  0  0  0  0  0  0  0  0  0  0
   -4.1322    0.7625   -3.8381 S   0  0  0  0  0  0  0  0  0  0  0  0
   -2.3755    7.0758   -2.9124 C   0  0  0  0  0  0  0  0  0  0  0  0
   -4.7903   -0.5164   -1.5862 N   0  0  0  0  0  0  0  0  0  0  0  0
   -1.7987    8.3770   -2.3902 C   0  0  0  0  0  0  0  0  0  0  0  0
   -1.3479    8.3062   -1.1131 O   0  0  0  0  0  0  0  0  0  0  0  0
   -1.7572    9.4088   -3.0491 O   0  0  0  0  0  0  0  0  0  0  0  0
   -1.0555    1.0726   -2.7902 H   0  0  0  0  0  0  0  0  0  0  0  0
   -2.1233    0.9104   -0.5491 H   0  0  0  0  0  0  0  0  0  0  0  0
   -1.0255    2.9015    1.0421 H   0  0  0  0  0  0  0  0  0  0  0  0
    0.8477    1.7601   -4.5016 H   0  0  0  0  0  0  0  0  0  0  0  0
    2.3389    2.5369   -3.9360 H   0  0  0  0  0  0  0  0  0  0  0  0
    3.8576   -0.5987   -3.4000 H   0  0  0  0  0  0  0  0  0  0  0  0
    0.7814   -1.5235    0.0062 H   0  0  0  0  0  0  0  0  0  0  0  0
    4.2566   -0.1481   -5.6759 H   0  0  0  0  0  0  0  0  0  0  0  0
    2.7291    0.8757   -5.8366 H   0  0  0  0  0  0  0  0  0  0  0  0
   -3.1060    2.9099   -4.4406 H   0  0  0  0  0  0  0  0  0  0  0  0
   -1.8874    6.8395   -3.8637 H   0  0  0  0  0  0  0  0  0  0  0  0
   -3.4530    7.2166   -3.0539 H   0  0  0  0  0  0  0  0  0  0  0  0
   -4.7658   -1.3839   -2.1089 H   0  0  0  0  0  0  0  0  0  0  0  0
   -4.7199   -0.6134   -0.5795 H   0  0  0  0  0  0  0  0  0  0  0  0
   -1.4918    7.4092   -0.7399 H   0  0  0  0  0  0  0  0  0  0  0  0
  1  2  1  0  0  0  0
  1  3  1  0  0  0  0
  1  4  1  0  0  0  0
  2  5  1  0  0  0  0
  2  6  1  0  0  0  0
  2 31  1  6  0  0  0
  3  7  2  0  0  0  0
  3  8  1  0  0  0  0
  4  9  2  0  0  0  0
  4  5  1  0  0  0  0
  5 10  1  0  0  0  0
  5 32  1  6  0  0  0
  6 11  1  0  0  0  0
  7 12  1  0  0  0  0
  7 11  1  0  0  0  0
  8 13  1  0  0  0  0
  8 14  2  0  0  0  0
 10 15  1  0  0  0  0
 10 33  1  0  0  0  0
 11 34  1  0  0  0  0
 11 35  1  0  0  0  0
 12 16  2  0  0  0  0
 12 36  1  0  0  0  0
 13 37  1  0  0  0  0
 15 17  1  0  0  0  0
 15 18  2  0  0  0  0
 16 38  1  0  0  0  0
 16 39  1  0  0  0  0
 17 19  1  0  0  0  0
 17 20  2  0  0  0  0
 19 21  1  0  0  0  0
 19 22  2  0  0  0  0
 20 23  1  0  0  0  0
 21 24  2  0  0  0  0
 22 25  1  0  0  0  0
 22 40  1  0  0  0  0
 23 26  1  0  0  0  0
 24 27  1  0  0  0  0
 24 25  1  0  0  0  0
 26 28  1  0  0  0  0
 26 41  1  0  0  0  0
 26 42  1  0  0  0  0
 27 43  1  0  0  0  0
 27 44  1  0  0  0  0
 28 29  1  0  0  0  0
 28 30  2  0  0  0  0
 29 45  1  0  0  0  0
M  END
>  <Mol_ID>
1522

>  <Formula>
C16H15N5O7S2

>  <MolWeight>
453.4496

>  <Cat>
S4596

>  <Name>
Cefixime

>  <Synonyms>
Cefixima, Cefiximum, Cephoral, Cefspan, FR-17027, FK-027, CL-284635

>  <Target>
Antibiotics,Antineoplastic and Immunosuppressive Antibiotics,Bacterial

>  <Form>
free base

>  <CAS>
79350-37-1

>  <URL>
http://selleckchem.com/products/cefixime.html

$$$$
