S4593 Chlormadinone acetate.cdx
 OpenBabel08302519503D

 57 60  0  0  0  0  0  0  0  0999 V2000
    1.4519   -1.5278   -0.2250 C   0  0  1  0  0  0  0  0  0  0  0  0
    0.7000   -2.9020   -0.5205 C   0  0  2  0  0  0  0  0  0  0  0  0
    0.9403   -0.6173   -1.4582 C   0  0  0  0  0  0  0  0  0  0  0  0
    0.8270   -0.8926    0.9608 O   0  0  0  0  0  0  0  0  0  0  0  0
    2.9516   -1.1894   -0.1692 C   0  0  0  0  0  0  0  0  0  0  0  0
   -0.6419   -2.2352   -0.9892 C   0  0  1  0  0  0  0  0  0  0  0  0
    0.4543   -3.9447    0.6226 C   0  0  0  0  0  0  0  0  0  0  0  0
    1.3615   -3.7045   -1.6983 C   0  0  0  0  0  0  0  0  0  0  0  0
   -0.2055   -1.3766   -2.1555 C   0  0  0  0  0  0  0  0  0  0  0  0
    1.2941   -1.1700    2.2022 C   0  0  0  0  0  0  0  0  0  0  0  0
    3.9986   -2.2424   -0.1456 C   0  0  0  0  0  0  0  0  0  0  0  0
    3.3094   -0.0003   -0.0828 O   0  0  0  0  0  0  0  0  0  0  0  0
   -1.9411   -3.0285   -0.9271 C   0  0  1  0  0  0  0  0  0  0  0  0
   -0.9869   -4.5058    0.8066 C   0  0  0  0  0  0  0  0  0  0  0  0
    0.4109   -0.5275    3.2327 C   0  0  0  0  0  0  0  0  0  0  0  0
    2.2317   -1.8995    2.4555 O   0  0  0  0  0  0  0  0  0  0  0  0
   -2.0511   -3.4141    0.5878 C   0  0  2  0  0  0  0  0  0  0  0  0
   -3.0504   -2.1259   -1.3693 C   0  0  0  0  0  0  0  0  0  0  0  0
   -3.5210   -3.5746    1.1940 C   0  0  2  0  0  0  0  0  0  0  0  0
   -4.2271   -2.0566   -0.7604 C   0  0  0  0  0  0  0  0  0  0  0  0
   -4.6090   -2.9502    0.3036 C   0  0  0  0  0  0  0  0  0  0  0  0
   -3.5952   -2.7605    2.5708 C   0  0  0  0  0  0  0  0  0  0  0  0
   -3.8310   -5.0537    1.5032 C   0  0  0  0  0  0  0  0  0  0  0  0
   -5.8850   -2.8335    0.7280 C   0  0  0  0  0  0  0  0  0  0  0  0
   -4.9614   -2.1681    2.9822 C   0  0  0  0  0  0  0  0  0  0  0  0
   -5.7972   -1.7739    1.7910 C   0  0  0  0  0  0  0  0  0  0  0  0
   -6.4246   -0.7226    1.6920 O   0  0  0  0  0  0  0  0  0  0  0  0
    0.5329    0.3320   -1.0765 H   0  0  0  0  0  0  0  0  0  0  0  0
    1.7192   -0.3783   -2.1885 H   0  0  0  0  0  0  0  0  0  0  0  0
   -0.8875   -1.4505   -0.2711 H   0  0  0  0  0  0  0  0  0  0  0  0
    1.1121   -4.8166    0.4942 H   0  0  0  0  0  0  0  0  0  0  0  0
    0.7648   -3.5398    1.5809 H   0  0  0  0  0  0  0  0  0  0  0  0
    0.6099   -4.2739   -2.2574 H   0  0  0  0  0  0  0  0  0  0  0  0
    1.8967   -3.0610   -2.4021 H   0  0  0  0  0  0  0  0  0  0  0  0
    2.1007   -4.4290   -1.3405 H   0  0  0  0  0  0  0  0  0  0  0  0
   -0.9574   -0.6747   -2.5280 H   0  0  0  0  0  0  0  0  0  0  0  0
    0.1377   -1.9535   -3.0197 H   0  0  0  0  0  0  0  0  0  0  0  0
    4.9105   -1.8206   -0.5810 H   0  0  0  0  0  0  0  0  0  0  0  0
    4.2001   -2.5386    0.8855 H   0  0  0  0  0  0  0  0  0  0  0  0
    3.7216   -3.1074   -0.7448 H   0  0  0  0  0  0  0  0  0  0  0  0
   -1.9151   -3.9088   -1.5790 H   0  0  0  0  0  0  0  0  0  0  0  0
   -1.1439   -5.3349    0.1011 H   0  0  0  0  0  0  0  0  0  0  0  0
   -1.0520   -4.9348    1.8126 H   0  0  0  0  0  0  0  0  0  0  0  0
   -0.5685   -1.0164    3.2498 H   0  0  0  0  0  0  0  0  0  0  0  0
    0.8707   -0.6313    4.2197 H   0  0  0  0  0  0  0  0  0  0  0  0
    0.2989    0.5380    3.0169 H   0  0  0  0  0  0  0  0  0  0  0  0
   -1.6497   -2.5727    1.1690 H   0  0  0  0  0  0  0  0  0  0  0  0
   -2.8847   -1.4477   -2.2010 H   0  0  0  0  0  0  0  0  0  0  0  0
   -4.9552   -1.3197   -1.1097 H   0  0  0  0  0  0  0  0  0  0  0  0
   -3.2268   -3.3790    3.3981 H   0  0  0  0  0  0  0  0  0  0  0  0
   -2.9124   -1.9017    2.5275 H   0  0  0  0  0  0  0  0  0  0  0  0
   -3.2049   -5.4293    2.3191 H   0  0  0  0  0  0  0  0  0  0  0  0
   -4.8665   -5.2074    1.8253 H   0  0  0  0  0  0  0  0  0  0  0  0
   -3.6594   -5.6872    0.6259 H   0  0  0  0  0  0  0  0  0  0  0  0
   -6.3519   -3.6608    1.2583 H   0  0  0  0  0  0  0  0  0  0  0  0
   -4.8090   -1.2776    3.6095 H   0  0  0  0  0  0  0  0  0  0  0  0
   -5.5437   -2.8858    3.5605 H   0  0  0  0  0  0  0  0  0  0  0  0
  1  2  1  0  0  0  0
  1  3  1  0  0  0  0
  1  4  1  1  0  0  0
  1  5  1  0  0  0  0
  2  6  1  0  0  0  0
  2  7  1  0  0  0  0
  2  8  1  6  0  0  0
  3  9  1  0  0  0  0
  3 28  1  0  0  0  0
  3 29  1  0  0  0  0
  4 10  1  0  0  0  0
  5 11  1  0  0  0  0
  5 12  2  0  0  0  0
  6 13  1  0  0  0  0
  6  9  1  0  0  0  0
  6 30  1  1  0  0  0
  7 14  1  0  0  0  0
  7 31  1  0  0  0  0
  7 32  1  0  0  0  0
  8 33  1  0  0  0  0
  8 34  1  0  0  0  0
  8 35  1  0  0  0  0
  9 36  1  0  0  0  0
  9 37  1  0  0  0  0
 10 15  1  0  0  0  0
 10 16  2  0  0  0  0
 11 38  1  0  0  0  0
 11 39  1  0  0  0  0
 11 40  1  0  0  0  0
 13 17  1  0  0  0  0
 13 18  1  0  0  0  0
 13 41  1  6  0  0  0
 14 42  1  0  0  0  0
 14 43  1  0  0  0  0
 15 44  1  0  0  0  0
 15 45  1  0  0  0  0
 15 46  1  0  0  0  0
 17 14  1  0  0  0  0
 17 19  1  0  0  0  0
 17 47  1  1  0  0  0
 18 20  2  0  0  0  0
 18 48  1  0  0  0  0
 19 21  1  0  0  0  0
 19 22  1  0  0  0  0
 19 23  1  1  0  0  0
 20 21  1  0  0  0  0
 20 49  1  0  0  0  0
 21 24  2  3  0  0  0
 22 25  1  0  0  0  0
 22 50  1  0  0  0  0
 22 51  1  0  0  0  0
 23 52  1  0  0  0  0
 23 53  1  0  0  0  0
 23 54  1  0  0  0  0
 24 26  1  0  0  0  0
 24 55  1  0  0  0  0
 25 26  1  0  0  0  0
 25 56  1  0  0  0  0
 25 57  1  0  0  0  0
 26 27  2  0  0  0  0
M  END
>  <Mol_ID>
1517

>  <Formula>
C23H29ClO4

>  <MolWeight>
404.92696

>  <Cat>
S4593

>  <Name>
Chlormadinone acetate

>  <Synonyms>
Gestafortin

>  <Target>
5-alpha Reductase,Androgen Receptor

>  <Form>
free base

>  <CAS>
302-22-7

>  <URL>
http://selleckchem.com/products/chlormadinone-acetate.html

$$$$
