S4600 Benzyl alcohol.cdx
 OpenBabel08302520003D

 16 16  0  0  0  0  0  0  0  0999 V2000
    1.3997   -0.2482    0.0854 C   0  0  0  0  0  0  0  0  0  0  0  0
    0.4975   -1.3207    0.0413 C   0  0  0  0  0  0  0  0  0  0  0  0
    0.8984    1.0609    0.0494 C   0  0  0  0  0  0  0  0  0  0  0  0
    2.8819   -0.4899    0.1849 C   0  0  0  0  0  0  0  0  0  0  0  0
   -0.8765   -1.0866   -0.0292 C   0  0  0  0  0  0  0  0  0  0  0  0
   -0.4760    1.2934   -0.0218 C   0  0  0  0  0  0  0  0  0  0  0  0
    3.5586    0.0367   -0.9479 O   0  0  0  0  0  0  0  0  0  0  0  0
   -1.3634    0.2192   -0.0582 C   0  0  0  0  0  0  0  0  0  0  0  0
    0.8586   -2.3458    0.0680 H   0  0  0  0  0  0  0  0  0  0  0  0
    1.5830    1.9069    0.0809 H   0  0  0  0  0  0  0  0  0  0  0  0
    3.2821   -0.0205    1.0903 H   0  0  0  0  0  0  0  0  0  0  0  0
    3.1051   -1.5605    0.2387 H   0  0  0  0  0  0  0  0  0  0  0  0
   -1.5692   -1.9239   -0.0573 H   0  0  0  0  0  0  0  0  0  0  0  0
   -0.8544    2.3122   -0.0438 H   0  0  0  0  0  0  0  0  0  0  0  0
    2.9544   -0.0462   -1.7049 H   0  0  0  0  0  0  0  0  0  0  0  0
   -2.4340    0.3999   -0.1070 H   0  0  0  0  0  0  0  0  0  0  0  0
  1  2  2  0  0  0  0
  1  3  1  0  0  0  0
  1  4  1  0  0  0  0
  2  5  1  0  0  0  0
  2  9  1  0  0  0  0
  3  6  2  0  0  0  0
  3 10  1  0  0  0  0
  4  7  1  0  0  0  0
  4 11  1  0  0  0  0
  4 12  1  0  0  0  0
  5  8  2  0  0  0  0
  5 13  1  0  0  0  0
  6  8  1  0  0  0  0
  6 14  1  0  0  0  0
  7 15  1  0  0  0  0
  8 16  1  0  0  0  0
M  END
>  <Mol_ID>
2682

>  <Formula>
C7H8O

>  <MolWeight>
108.13782

>  <Cat>
S4600

>  <Name>
Benzyl alcohol

>  <Synonyms>
Phenylmethanol, Benzenemethanol, Phenylcarbinol, Benzoyl alcohol

>  <Target>
Others

>  <Form>
free base

>  <CAS>
100-51-6

>  <URL>
http://selleckchem.com/products/benzyl-alcohol.html

$$$$
