S4609 Diflunisal.cdx
 OpenBabel08302519503D

 26 27  0  0  0  0  0  0  0  0999 V2000
    1.2218   -1.1577   -0.0032 C   0  0  0  0  0  0  0  0  0  0  0  0
    2.5142   -1.8892    0.0287 C   0  0  0  0  0  0  0  0  0  0  0  0
    0.0608   -1.7053   -0.5879 C   0  0  0  0  0  0  0  0  0  0  0  0
    1.0985    0.1322    0.5557 C   0  0  0  0  0  0  0  0  0  0  0  0
    3.4243   -1.7253    1.0974 C   0  0  0  0  0  0  0  0  0  0  0  0
    2.8835   -2.7704   -1.0019 C   0  0  0  0  0  0  0  0  0  0  0  0
   -1.1495   -1.0170   -0.6282 C   0  0  0  0  0  0  0  0  0  0  0  0
    0.0795   -2.9363   -1.1217 F   0  0  0  0  0  0  0  0  0  0  0  0
   -0.1175    0.8230    0.5357 C   0  0  0  0  0  0  0  0  0  0  0  0
    4.6559   -2.4037    1.1400 C   0  0  0  0  0  0  0  0  0  0  0  0
    4.0903   -3.4681   -0.9666 C   0  0  0  0  0  0  0  0  0  0  0  0
   -1.2266    0.2414   -0.0611 C   0  0  0  0  0  0  0  0  0  0  0  0
    4.9702   -3.2833    0.0937 C   0  0  0  0  0  0  0  0  0  0  0  0
    5.6433   -2.2299    2.2452 C   0  0  0  0  0  0  0  0  0  0  0  0
   -2.3877    0.9103   -0.0884 F   0  0  0  0  0  0  0  0  0  0  0  0
    6.1285   -4.0109    0.0258 O   0  0  0  0  0  0  0  0  0  0  0  0
    5.3473   -1.3630    3.2298 O   0  0  0  0  0  0  0  0  0  0  0  0
    6.6952   -2.8567    2.2437 O   0  0  0  0  0  0  0  0  0  0  0  0
    1.9536    0.6323    1.0061 H   0  0  0  0  0  0  0  0  0  0  0  0
    3.1332   -1.0631    1.9033 H   0  0  0  0  0  0  0  0  0  0  0  0
    2.2335   -2.9335   -1.8593 H   0  0  0  0  0  0  0  0  0  0  0  0
   -2.0167   -1.4681   -1.0960 H   0  0  0  0  0  0  0  0  0  0  0  0
   -0.1996    1.8127    0.9741 H   0  0  0  0  0  0  0  0  0  0  0  0
    4.3428   -4.1571   -1.7695 H   0  0  0  0  0  0  0  0  0  0  0  0
    6.6759   -3.8091    0.8185 H   0  0  0  0  0  0  0  0  0  0  0  0
    4.5053   -0.8849    3.1973 H   0  0  0  0  0  0  0  0  0  0  0  0
  1  2  1  0  0  0  0
  1  3  2  0  0  0  0
  1  4  1  0  0  0  0
  2  5  2  0  0  0  0
  2  6  1  0  0  0  0
  3  7  1  0  0  0  0
  3  8  1  0  0  0  0
  4  9  2  0  0  0  0
  4 19  1  0  0  0  0
  5 10  1  0  0  0  0
  5 20  1  0  0  0  0
  6 11  2  0  0  0  0
  6 21  1  0  0  0  0
  7 12  2  0  0  0  0
  7 22  1  0  0  0  0
  9 12  1  0  0  0  0
  9 23  1  0  0  0  0
 10 13  2  0  0  0  0
 10 14  1  0  0  0  0
 11 13  1  0  0  0  0
 11 24  1  0  0  0  0
 12 15  1  0  0  0  0
 13 16  1  0  0  0  0
 14 17  1  0  0  0  0
 14 18  2  0  0  0  0
 16 25  1  0  0  0  0
 17 26  1  0  0  0  0
M  END
>  <Mol_ID>
1545

>  <Formula>
C13H8F2O3

>  <MolWeight>
250.1976264

>  <Cat>
S4609

>  <Name>
Diflunisal

>  <Synonyms>
Dolobid, Dolobis, Flovacil, Fluniget,MK-647

>  <Target>
COX

>  <Form>
free base

>  <CAS>
22494-42-4

>  <URL>
http://selleckchem.com/products/diflunisal.html

$$$$
