S4619 Itopride hydrochloride.cdx
 OpenBabel08302519503D

 52 53  0  0  0  0  0  0  0  0999 V2000
    1.4372    0.3181    0.6021 C   0  0  0  0  0  0  0  0  0  0  0  0
    0.4630   -0.2384    1.4543 C   0  0  0  0  0  0  0  0  0  0  0  0
    1.0185    1.1154   -0.4620 C   0  0  0  0  0  0  0  0  0  0  0  0
    2.8694    0.0046    0.9049 C   0  0  0  0  0  0  0  0  0  0  0  0
   -0.9121   -0.0112    1.2688 C   0  0  0  0  0  0  0  0  0  0  0  0
   -0.3478    1.3427   -0.6602 C   0  0  0  0  0  0  0  0  0  0  0  0
    3.8530    0.5827    0.1290 N   0  0  0  0  0  0  0  0  0  0  0  0
    3.1435   -0.7483    1.8346 O   0  0  0  0  0  0  0  0  0  0  0  0
   -1.3214    0.7893    0.1886 C   0  0  0  0  0  0  0  0  0  0  0  0
   -1.8724   -0.5310    2.0938 O   0  0  0  0  0  0  0  0  0  0  0  0
    5.2500    0.3402    0.4318 C   0  0  0  0  0  0  0  0  0  0  0  0
   -2.5915    1.1302   -0.1945 O   0  0  0  0  0  0  0  0  0  0  0  0
   -1.4639   -1.3537    3.1788 C   0  0  0  0  0  0  0  0  0  0  0  0
    6.1436    1.0122   -0.5749 C   0  0  0  0  0  0  0  0  0  0  0  0
   -3.6958    0.6491    0.5577 C   0  0  0  0  0  0  0  0  0  0  0  0
    6.5679    2.3330   -0.3819 C   0  0  0  0  0  0  0  0  0  0  0  0
    6.5103    0.3534   -1.7543 C   0  0  0  0  0  0  0  0  0  0  0  0
    7.3244    2.9909   -1.3588 C   0  0  0  0  0  0  0  0  0  0  0  0
    7.2665    1.0128   -2.7274 C   0  0  0  0  0  0  0  0  0  0  0  0
    7.6713    2.3369   -2.5417 C   0  0  0  0  0  0  0  0  0  0  0  0
    8.3818    2.8732   -3.5830 O   0  0  0  0  0  0  0  0  0  0  0  0
    8.9718    4.1582   -3.3550 C   0  0  0  0  0  0  0  0  0  0  0  0
    9.9251    4.4935   -4.5158 C   0  0  0  0  0  0  0  0  0  0  0  0
   10.5877    5.8084   -4.3976 N   0  0  0  0  0  0  0  0  0  0  0  0
   11.4396    5.9056   -3.2092 C   0  0  0  0  0  0  0  0  0  0  0  0
   11.4028    6.0752   -5.5885 C   0  0  0  0  0  0  0  0  0  0  0  0
    0.8096   -0.8536    2.2807 H   0  0  0  0  0  0  0  0  0  0  0  0
    1.7148    1.5670   -1.1579 H   0  0  0  0  0  0  0  0  0  0  0  0
   -0.6683    1.9650   -1.4952 H   0  0  0  0  0  0  0  0  0  0  0  0
    3.6406    1.2473   -0.5985 H   0  0  0  0  0  0  0  0  0  0  0  0
    5.4539    0.7126    1.4409 H   0  0  0  0  0  0  0  0  0  0  0  0
    5.4274   -0.7412    0.4518 H   0  0  0  0  0  0  0  0  0  0  0  0
   -0.9597   -2.2573    2.8212 H   0  0  0  0  0  0  0  0  0  0  0  0
   -0.8369   -0.7970    3.8827 H   0  0  0  0  0  0  0  0  0  0  0  0
   -2.3646   -1.6673    3.7156 H   0  0  0  0  0  0  0  0  0  0  0  0
   -3.7340   -0.4448    0.5654 H   0  0  0  0  0  0  0  0  0  0  0  0
   -3.6981    1.0702    1.5681 H   0  0  0  0  0  0  0  0  0  0  0  0
   -4.6087    0.9939    0.0618 H   0  0  0  0  0  0  0  0  0  0  0  0
    6.3027    2.8642    0.5308 H   0  0  0  0  0  0  0  0  0  0  0  0
    6.2019   -0.6761   -1.9269 H   0  0  0  0  0  0  0  0  0  0  0  0
    7.6143    4.0191   -1.1671 H   0  0  0  0  0  0  0  0  0  0  0  0
    7.5399    0.4898   -3.6404 H   0  0  0  0  0  0  0  0  0  0  0  0
    8.1834    4.9194   -3.2938 H   0  0  0  0  0  0  0  0  0  0  0  0
    9.5351    4.1248   -2.4175 H   0  0  0  0  0  0  0  0  0  0  0  0
   10.6614    3.6868   -4.6266 H   0  0  0  0  0  0  0  0  0  0  0  0
    9.3264    4.4786   -5.4370 H   0  0  0  0  0  0  0  0  0  0  0  0
   12.2626    5.1820   -3.2309 H   0  0  0  0  0  0  0  0  0  0  0  0
   11.8659    6.9121   -3.1307 H   0  0  0  0  0  0  0  0  0  0  0  0
   10.8718    5.7547   -2.2869 H   0  0  0  0  0  0  0  0  0  0  0  0
   12.2832    5.4229   -5.6410 H   0  0  0  0  0  0  0  0  0  0  0  0
   10.8235    5.9411   -6.5082 H   0  0  0  0  0  0  0  0  0  0  0  0
   11.7477    7.1156   -5.5828 H   0  0  0  0  0  0  0  0  0  0  0  0
  1  2  2  0  0  0  0
  1  3  1  0  0  0  0
  1  4  1  0  0  0  0
  2  5  1  0  0  0  0
  2 27  1  0  0  0  0
  3  6  2  0  0  0  0
  3 28  1  0  0  0  0
  4  7  1  0  0  0  0
  4  8  2  0  0  0  0
  5  9  2  0  0  0  0
  5 10  1  0  0  0  0
  6  9  1  0  0  0  0
  6 29  1  0  0  0  0
  7 11  1  0  0  0  0
  7 30  1  0  0  0  0
  9 12  1  0  0  0  0
 10 13  1  0  0  0  0
 11 14  1  0  0  0  0
 11 31  1  0  0  0  0
 11 32  1  0  0  0  0
 12 15  1  0  0  0  0
 13 33  1  0  0  0  0
 13 34  1  0  0  0  0
 13 35  1  0  0  0  0
 14 16  2  0  0  0  0
 14 17  1  0  0  0  0
 15 36  1  0  0  0  0
 15 37  1  0  0  0  0
 15 38  1  0  0  0  0
 16 18  1  0  0  0  0
 16 39  1  0  0  0  0
 17 19  2  0  0  0  0
 17 40  1  0  0  0  0
 18 20  2  0  0  0  0
 18 41  1  0  0  0  0
 19 20  1  0  0  0  0
 19 42  1  0  0  0  0
 20 21  1  0  0  0  0
 21 22  1  0  0  0  0
 22 23  1  0  0  0  0
 22 43  1  0  0  0  0
 22 44  1  0  0  0  0
 23 24  1  0  0  0  0
 23 45  1  0  0  0  0
 23 46  1  0  0  0  0
 24 25  1  0  0  0  0
 24 26  1  0  0  0  0
 25 47  1  0  0  0  0
 25 48  1  0  0  0  0
 25 49  1  0  0  0  0
 26 50  1  0  0  0  0
 26 51  1  0  0  0  0
 26 52  1  0  0  0  0
M  END
>  <Mol_ID>
1531

>  <Formula>
C20H27ClN2O4

>  <MolWeight>
394.89238

>  <Cat>
S4619

>  <Name>
Itopride hydrochloride

>  <Synonyms>
Ganaton, HSR803

>  <Target>
AChR

>  <Form>
hydrochloride

>  <CAS>
122892-31-3

>  <URL>
http://selleckchem.com/products/itopride-hydrochloride.html

$$$$
