S4610 Mebendazole.cdx
 OpenBabel08302519503D

 35 37  0  0  0  0  0  0  0  0999 V2000
   -0.3111    0.7147   -0.0169 C   0  0  0  0  0  0  0  0  0  0  0  0
   -0.2813   -0.6726    0.0052 C   0  0  0  0  0  0  0  0  0  0  0  0
    0.8803    1.4444   -0.0356 C   0  0  0  0  0  0  0  0  0  0  0  0
   -1.5919    1.1783   -0.0225 N   0  0  0  0  0  0  0  0  0  0  0  0
   -1.6116   -1.0286    0.0223 N   0  0  0  0  0  0  0  0  0  0  0  0
    0.9091   -1.4050    0.0154 C   0  0  0  0  0  0  0  0  0  0  0  0
    2.0900    0.7425   -0.0761 C   0  0  0  0  0  0  0  0  0  0  0  0
   -2.3670    0.1230    0.0013 C   0  0  0  0  0  0  0  0  0  0  0  0
    2.1006   -0.6609   -0.0238 C   0  0  0  0  0  0  0  0  0  0  0  0
    3.3820    1.4754   -0.1524 C   0  0  0  0  0  0  0  0  0  0  0  0
   -3.7357    0.1034    0.0107 N   0  0  0  0  0  0  0  0  0  0  0  0
    3.5098    2.7486   -0.9191 C   0  0  0  0  0  0  0  0  0  0  0  0
    4.3629    1.0127    0.4243 O   0  0  0  0  0  0  0  0  0  0  0  0
   -4.4679    1.2620   -0.0090 C   0  0  0  0  0  0  0  0  0  0  0  0
    2.7296    3.0099   -2.0540 C   0  0  0  0  0  0  0  0  0  0  0  0
    4.4635    3.6886   -0.5097 C   0  0  0  0  0  0  0  0  0  0  0  0
   -5.7919    0.9322    0.0299 O   0  0  0  0  0  0  0  0  0  0  0  0
   -4.0722    2.4168   -0.0527 O   0  0  0  0  0  0  0  0  0  0  0  0
    2.8735    4.2149   -2.7447 C   0  0  0  0  0  0  0  0  0  0  0  0
    4.6127    4.8884   -1.2101 C   0  0  0  0  0  0  0  0  0  0  0  0
   -6.6549    2.0762    0.0230 C   0  0  0  0  0  0  0  0  0  0  0  0
    3.8142    5.1526   -2.3229 C   0  0  0  0  0  0  0  0  0  0  0  0
    0.8284    2.5270   -0.0272 H   0  0  0  0  0  0  0  0  0  0  0  0
   -1.9719   -1.9705    0.0468 H   0  0  0  0  0  0  0  0  0  0  0  0
    0.9264   -2.4891    0.0479 H   0  0  0  0  0  0  0  0  0  0  0  0
    3.0555   -1.1872   -0.0191 H   0  0  0  0  0  0  0  0  0  0  0  0
   -4.2553   -0.7574    0.0422 H   0  0  0  0  0  0  0  0  0  0  0  0
    2.0061    2.2867   -2.4211 H   0  0  0  0  0  0  0  0  0  0  0  0
    5.0913    3.4901    0.3567 H   0  0  0  0  0  0  0  0  0  0  0  0
    2.2538    4.4184   -3.6148 H   0  0  0  0  0  0  0  0  0  0  0  0
    5.3532    5.6166   -0.8887 H   0  0  0  0  0  0  0  0  0  0  0  0
   -6.4691    2.7041    0.9006 H   0  0  0  0  0  0  0  0  0  0  0  0
   -6.5240    2.6513   -0.8990 H   0  0  0  0  0  0  0  0  0  0  0  0
   -7.6885    1.7225    0.0651 H   0  0  0  0  0  0  0  0  0  0  0  0
    3.9299    6.0869   -2.8669 H   0  0  0  0  0  0  0  0  0  0  0  0
  1  2  1  0  0  0  0
  1  3  2  0  0  0  0
  1  4  1  0  0  0  0
  2  5  1  0  0  0  0
  2  6  2  0  0  0  0
  3  7  1  0  0  0  0
  3 23  1  0  0  0  0
  4  8  2  0  0  0  0
  5  8  1  0  0  0  0
  5 24  1  0  0  0  0
  6  9  1  0  0  0  0
  6 25  1  0  0  0  0
  7 10  1  0  0  0  0
  7  9  2  0  0  0  0
  8 11  1  0  0  0  0
  9 26  1  0  0  0  0
 10 12  1  0  0  0  0
 10 13  2  0  0  0  0
 11 14  1  0  0  0  0
 11 27  1  0  0  0  0
 12 15  2  0  0  0  0
 12 16  1  0  0  0  0
 14 17  1  0  0  0  0
 14 18  2  0  0  0  0
 15 19  1  0  0  0  0
 15 28  1  0  0  0  0
 16 20  2  0  0  0  0
 16 29  1  0  0  0  0
 17 21  1  0  0  0  0
 19 22  2  0  0  0  0
 19 30  1  0  0  0  0
 20 22  1  0  0  0  0
 20 31  1  0  0  0  0
 21 32  1  0  0  0  0
 21 33  1  0  0  0  0
 21 34  1  0  0  0  0
 22 35  1  0  0  0  0
M  END
>  <Mol_ID>
1542

>  <Formula>
C16H13N3O3

>  <MolWeight>
295.29272

>  <Cat>
S4610

>  <Name>
Mebendazole

>  <Synonyms>
Vermox, Telmin, Pantelmin, Mebenvet

>  <Target>
Parasite

>  <Form>
free base

>  <CAS>
31431-39-7

>  <URL>
http://selleckchem.com/products/mebendazole.html

$$$$
