S4612 Dapson.cdx
 OpenBabel08302519503D

 29 30  0  0  0  0  0  0  0  0999 V2000
    0.8740    0.0130   -0.1154 S   0  0  0  0  0  0  0  0  0  0  0  0
    0.3140    1.4860   -0.9432 C   0  0  0  0  0  0  0  0  0  0  0  0
    0.5263   -1.4215   -1.1117 C   0  0  0  0  0  0  0  0  0  0  0  0
    0.0751   -0.1346    1.0879 O   0  0  0  0  0  0  0  0  0  0  0  0
    2.3198    0.1246   -0.0261 O   0  0  0  0  0  0  0  0  0  0  0  0
   -0.9481    2.0081   -0.6498 C   0  0  0  0  0  0  0  0  0  0  0  0
    1.1637    2.1517   -1.8286 C   0  0  0  0  0  0  0  0  0  0  0  0
    1.4131   -2.5012   -1.0512 C   0  0  0  0  0  0  0  0  0  0  0  0
   -0.6014   -1.4850   -1.9303 C   0  0  0  0  0  0  0  0  0  0  0  0
   -1.3804    3.1704   -1.2952 C   0  0  0  0  0  0  0  0  0  0  0  0
    0.7215    3.3190   -2.4602 C   0  0  0  0  0  0  0  0  0  0  0  0
    1.1477   -3.6610   -1.7844 C   0  0  0  0  0  0  0  0  0  0  0  0
   -0.8568   -2.6561   -2.6568 C   0  0  0  0  0  0  0  0  0  0  0  0
   -0.5414    3.8530   -2.1818 C   0  0  0  0  0  0  0  0  0  0  0  0
   -0.0188   -3.7713   -2.5455 C   0  0  0  0  0  0  0  0  0  0  0  0
   -1.0430    4.9080   -2.9511 N   0  0  0  0  0  0  0  0  0  0  0  0
   -0.2202   -4.8956   -3.3571 N   0  0  0  0  0  0  0  0  0  0  0  0
   -1.6041    1.5182    0.0664 H   0  0  0  0  0  0  0  0  0  0  0  0
    2.1623    1.7747   -2.0376 H   0  0  0  0  0  0  0  0  0  0  0  0
    2.3089   -2.4510   -0.4354 H   0  0  0  0  0  0  0  0  0  0  0  0
   -1.2962   -0.6549   -2.0133 H   0  0  0  0  0  0  0  0  0  0  0  0
   -2.3815    3.5443   -1.0945 H   0  0  0  0  0  0  0  0  0  0  0  0
    1.3758    3.8123   -3.1751 H   0  0  0  0  0  0  0  0  0  0  0  0
    1.8564   -4.4848   -1.7433 H   0  0  0  0  0  0  0  0  0  0  0  0
   -1.7254   -2.6971   -3.3094 H   0  0  0  0  0  0  0  0  0  0  0  0
   -0.3318    5.5319   -3.3195 H   0  0  0  0  0  0  0  0  0  0  0  0
   -1.8146    5.4106   -2.5242 H   0  0  0  0  0  0  0  0  0  0  0  0
   -1.1910   -5.0552   -3.6073 H   0  0  0  0  0  0  0  0  0  0  0  0
    0.2240   -5.7391   -3.0055 H   0  0  0  0  0  0  0  0  0  0  0  0
  1  2  1  0  0  0  0
  1  3  1  0  0  0  0
  1  4  2  0  0  0  0
  1  5  2  0  0  0  0
  2  6  2  0  0  0  0
  2  7  1  0  0  0  0
  3  8  2  0  0  0  0
  3  9  1  0  0  0  0
  6 10  1  0  0  0  0
  6 18  1  0  0  0  0
  7 11  2  0  0  0  0
  7 19  1  0  0  0  0
  8 12  1  0  0  0  0
  8 20  1  0  0  0  0
  9 13  2  0  0  0  0
  9 21  1  0  0  0  0
 10 14  2  0  0  0  0
 10 22  1  0  0  0  0
 11 14  1  0  0  0  0
 11 23  1  0  0  0  0
 12 15  2  0  0  0  0
 12 24  1  0  0  0  0
 13 15  1  0  0  0  0
 13 25  1  0  0  0  0
 14 16  1  0  0  0  0
 15 17  1  0  0  0  0
 16 26  1  0  0  0  0
 16 27  1  0  0  0  0
 17 28  1  0  0  0  0
 17 29  1  0  0  0  0
M  END
>  <Mol_ID>
1541

>  <Formula>
C12H12N2O2S

>  <MolWeight>
248.30088

>  <Cat>
S4612

>  <Name>
Dapson

>  <Synonyms>
Dapsone, 4,4¡ä-Diaminodiphenyl sulfone, 4,4¡ä-Sulfonyldianiline, 4-Aminophenyl sulfone, Bis(4-aminophenyl) sulfone, DDS

>  <Target>
Antibiotics

>  <Form>
free base

>  <CAS>
80-08-0

>  <URL>
http://selleckchem.com/products/dapson.html

$$$$
