S4623 5,5-Dimethyloxazolidine-2,4-dione.cdx
 OpenBabel08302519553D

 16 16  0  0  0  0  0  0  0  0999 V2000
   -0.7617   -1.0228   -0.2790 C   0  0  0  0  0  0  0  0  0  0  0  0
    0.7298   -0.9910   -0.0389 C   0  0  0  0  0  0  0  0  0  0  0  0
   -1.1249    0.3459   -0.0231 O   0  0  0  0  0  0  0  0  0  0  0  0
   -1.0683   -1.3228   -1.7404 C   0  0  0  0  0  0  0  0  0  0  0  0
   -1.4860   -1.9605    0.6713 C   0  0  0  0  0  0  0  0  0  0  0  0
    1.0945    0.3089   -0.0535 N   0  0  0  0  0  0  0  0  0  0  0  0
    1.4754   -1.9407    0.1149 O   0  0  0  0  0  0  0  0  0  0  0  0
    0.0118    1.1000   -0.0276 C   0  0  0  0  0  0  0  0  0  0  0  0
    0.0271    2.3188    0.0108 O   0  0  0  0  0  0  0  0  0  0  0  0
   -0.7477   -2.3316   -2.0198 H   0  0  0  0  0  0  0  0  0  0  0  0
   -2.1416   -1.2240   -1.9378 H   0  0  0  0  0  0  0  0  0  0  0  0
   -0.5633   -0.6118   -2.4050 H   0  0  0  0  0  0  0  0  0  0  0  0
   -1.2300   -1.7449    1.7148 H   0  0  0  0  0  0  0  0  0  0  0  0
   -2.5719   -1.8456    0.5812 H   0  0  0  0  0  0  0  0  0  0  0  0
   -1.2288   -3.0058    0.4716 H   0  0  0  0  0  0  0  0  0  0  0  0
    2.0337    0.6472    0.0663 H   0  0  0  0  0  0  0  0  0  0  0  0
  1  2  1  0  0  0  0
  1  3  1  0  0  0  0
  1  4  1  0  0  0  0
  1  5  1  0  0  0  0
  2  6  1  0  0  0  0
  2  7  2  0  0  0  0
  3  8  1  0  0  0  0
  4 10  1  0  0  0  0
  4 11  1  0  0  0  0
  4 12  1  0  0  0  0
  5 13  1  0  0  0  0
  5 14  1  0  0  0  0
  5 15  1  0  0  0  0
  6  8  1  0  0  0  0
  6 16  1  0  0  0  0
  8  9  2  0  0  0  0
M  END
>  <Mol_ID>
2106

>  <Formula>
C5H7NO3

>  <MolWeight>
129.11398

>  <Cat>
S4624

>  <Name>
5,5-Dimethyloxazolidine-2,4-dione

>  <Synonyms>
Dimethadione, Dimethyloxazolidinedione, Dimethadion

>  <Target>
Others

>  <Form>
bromide

>  <CAS>
695-53-4

>  <URL>
http://selleckchem.com/products/5-5-dimethyloxazolidine-2-4-dione.html

$$$$
