S4630 Diazoxide.cdx
 OpenBabel08302519503D

 21 22  0  0  0  0  0  0  0  0999 V2000
    0.0260   -0.6112   -0.0039 C   0  0  0  0  0  0  0  0  0  0  0  0
   -0.1084    0.7713   -0.0068 C   0  0  0  0  0  0  0  0  0  0  0  0
    1.2381   -1.3149   -0.0132 N   0  0  0  0  0  0  0  0  0  0  0  0
   -1.1516   -1.3695    0.0063 C   0  0  0  0  0  0  0  0  0  0  0  0
    1.3267    1.7527   -0.0280 S   0  0  0  0  0  0  0  0  0  0  0  0
   -1.3591    1.4030    0.0036 C   0  0  0  0  0  0  0  0  0  0  0  0
    2.3818   -0.7217    0.0049 C   0  0  0  0  0  0  0  0  0  0  0  0
   -2.4118   -0.7595    0.0138 C   0  0  0  0  0  0  0  0  0  0  0  0
    2.5611    0.6578    0.0311 N   0  0  0  0  0  0  0  0  0  0  0  0
    1.4076    2.4088   -1.3146 O   0  0  0  0  0  0  0  0  0  0  0  0
    1.3780    2.5069    1.2050 O   0  0  0  0  0  0  0  0  0  0  0  0
   -2.5153    0.6293    0.0132 C   0  0  0  0  0  0  0  0  0  0  0  0
    3.6417   -1.5424    0.0034 C   0  0  0  0  0  0  0  0  0  0  0  0
   -1.0862   -2.4556    0.0076 H   0  0  0  0  0  0  0  0  0  0  0  0
   -1.4283    2.4888    0.0021 H   0  0  0  0  0  0  0  0  0  0  0  0
   -3.3100   -1.3723    0.0195 H   0  0  0  0  0  0  0  0  0  0  0  0
    3.4831    1.0810    0.0493 H   0  0  0  0  0  0  0  0  0  0  0  0
   -3.4927    1.1059    0.0186 H   0  0  0  0  0  0  0  0  0  0  0  0
    3.6573   -2.1800    0.8920 H   0  0  0  0  0  0  0  0  0  0  0  0
    3.6542   -2.1819   -0.8839 H   0  0  0  0  0  0  0  0  0  0  0  0
    4.5339   -0.9108    0.0011 H   0  0  0  0  0  0  0  0  0  0  0  0
  1  2  2  0  0  0  0
  1  3  1  0  0  0  0
  1  4  1  0  0  0  0
  2  5  1  0  0  0  0
  2  6  1  0  0  0  0
  3  7  2  0  0  0  0
  4  8  2  0  0  0  0
  4 14  1  0  0  0  0
  5  9  1  0  0  0  0
  5 10  2  0  0  0  0
  5 11  2  0  0  0  0
  6 12  2  0  0  0  0
  6 15  1  0  0  0  0
  7 13  1  0  0  0  0
  7  9  1  0  0  0  0
  8 12  1  0  0  0  0
  8 16  1  0  0  0  0
  9 17  1  0  0  0  0
 12 18  1  0  0  0  0
 13 19  1  0  0  0  0
 13 20  1  0  0  0  0
 13 21  1  0  0  0  0
M  END
>  <Mol_ID>
1534

>  <Formula>
C8H7ClN2O2S

>  <MolWeight>
230.67138

>  <Cat>
S4630

>  <Name>
Diazoxide

>  <Synonyms>
Sch-6783, SRG-95213, Proglycem

>  <Target>
ADC Cytotoxin,Potassium Channel

>  <Form>
free base

>  <CAS>
364-98-7

>  <URL>
http://selleckchem.com/products/diazoxide.html

$$$$
