S4634 SULFADIAZINE SODIUM.cdx
 OpenBabel08302519503D

 27 28  0  0  0  0  0  0  0  0999 V2000
   -1.8646   -0.0372   -0.0085 C   0  0  0  0  0  0  0  0  0  0  0  0
   -3.6389   -0.0635    0.0334 S   0  0  0  0  0  0  0  0  0  0  0  0
   -1.1972    0.9703   -0.7074 C   0  0  0  0  0  0  0  0  0  0  0  0
   -1.1468   -1.0060    0.6940 C   0  0  0  0  0  0  0  0  0  0  0  0
   -4.0426   -0.9826   -1.3033 N   0  0  0  0  0  0  0  0  0  0  0  0
   -4.0589   -0.7105    1.2578 O   0  0  0  0  0  0  0  0  0  0  0  0
   -4.0864    1.2839   -0.2701 O   0  0  0  0  0  0  0  0  0  0  0  0
    0.1998    0.9835   -0.7239 C   0  0  0  0  0  0  0  0  0  0  0  0
    0.2488   -0.9867    0.6621 C   0  0  0  0  0  0  0  0  0  0  0  0
   -4.1408   -2.3444   -1.0440 C   0  0  0  0  0  0  0  0  0  0  0  0
    0.9342    0.0311   -0.0073 C   0  0  0  0  0  0  0  0  0  0  0  0
   -5.3889   -2.7943   -0.8937 N   0  0  0  0  0  0  0  0  0  0  0  0
   -3.0117   -3.0476   -0.9398 N   0  0  0  0  0  0  0  0  0  0  0  0
    2.3256   -0.0362   -0.1497 N   0  0  0  0  0  0  0  0  0  0  0  0
   -5.4896   -4.0969   -0.5738 C   0  0  0  0  0  0  0  0  0  0  0  0
   -3.1749   -4.3528   -0.6553 C   0  0  0  0  0  0  0  0  0  0  0  0
   -4.4053   -4.9356   -0.4489 C   0  0  0  0  0  0  0  0  0  0  0  0
   -1.7493    1.7335   -1.2506 H   0  0  0  0  0  0  0  0  0  0  0  0
   -1.6635   -1.7928    1.2381 H   0  0  0  0  0  0  0  0  0  0  0  0
   -4.8845   -0.6179   -1.7344 H   0  0  0  0  0  0  0  0  0  0  0  0
    0.7135    1.7458   -1.3033 H   0  0  0  0  0  0  0  0  0  0  0  0
    0.7968   -1.7780    1.1658 H   0  0  0  0  0  0  0  0  0  0  0  0
    2.7902   -0.5304    0.6054 H   0  0  0  0  0  0  0  0  0  0  0  0
    2.7606    0.8567   -0.3532 H   0  0  0  0  0  0  0  0  0  0  0  0
   -6.5013   -4.4582   -0.4123 H   0  0  0  0  0  0  0  0  0  0  0  0
   -2.2602   -4.9342   -0.5919 H   0  0  0  0  0  0  0  0  0  0  0  0
   -4.5127   -5.9828   -0.2028 H   0  0  0  0  0  0  0  0  0  0  0  0
  1  2  1  0  0  0  0
  1  3  2  0  0  0  0
  1  4  1  0  0  0  0
  2  5  1  0  0  0  0
  2  6  2  0  0  0  0
  2  7  2  0  0  0  0
  3  8  1  0  0  0  0
  3 18  1  0  0  0  0
  4  9  2  0  0  0  0
  4 19  1  0  0  0  0
  5 10  1  0  0  0  0
  5 20  1  0  0  0  0
  8 11  2  0  0  0  0
  8 21  1  0  0  0  0
  9 11  1  0  0  0  0
  9 22  1  0  0  0  0
 10 12  2  0  0  0  0
 10 13  1  0  0  0  0
 11 14  1  0  0  0  0
 12 15  1  0  0  0  0
 13 16  2  0  0  0  0
 14 23  1  0  0  0  0
 14 24  1  0  0  0  0
 15 17  2  0  0  0  0
 15 25  1  0  0  0  0
 16 17  1  0  0  0  0
 16 26  1  0  0  0  0
 17 27  1  0  0  0  0
M  END
>  <Mol_ID>
1557

>  <Formula>
C10H9N4NaO2S

>  <MolWeight>
272.25883

>  <Cat>
S4634

>  <Name>
Sodium sulfadiazine

>  <Synonyms>
Sulfadiazin-natrium

>  <Target>
Bacterial

>  <Form>
Sodium salt

>  <CAS>
547-32-0

>  <URL>
http://selleckchem.com/products/sodium-sulfadiazine.html

$$$$
