S4637 Prasugrel Hydrochloride.cdx
 OpenBabel08302519503D

 46 49  0  0  0  0  0  0  0  0999 V2000
   -2.5815    0.3245   -0.5870 N   0  0  0  0  0  0  0  0  0  0  0  0
   -0.8244    0.0584   -2.2913 C   0  0  0  0  0  0  0  0  0  0  0  0
    1.1466   -0.3199   -3.5177 C   0  0  0  0  0  0  0  0  0  0  0  0
   -4.0008    0.7239   -0.2721 C   0  0  3  0  0  0  0  0  0  0  0  0
    0.1472    0.3169   -1.3523 C   0  0  0  0  0  0  0  0  0  0  0  0
    1.7203    0.0837   -1.9420 S   0  0  0  0  0  0  0  0  0  0  0  0
   -0.2367   -0.3345   -3.5324 C   0  0  0  0  0  0  0  0  0  0  0  0
   -4.3406    2.1459   -0.7905 C   0  0  0  0  0  0  0  0  0  0  0  0
   -5.0799   -0.3410   -0.4936 C   0  0  0  0  0  0  0  0  0  0  0  0
   -2.2917    0.2635   -2.0348 C   0  0  0  0  0  0  0  0  0  0  0  0
   -4.8369    2.2970   -2.1982 C   0  0  0  0  0  0  0  0  0  0  0  0
    2.0479   -0.5873   -4.4585 O   0  0  0  0  0  0  0  0  0  0  0  0
   -4.1525    3.2970   -3.1117 C   0  0  0  0  0  0  0  0  0  0  0  0
   -5.5469    3.5598   -2.6329 C   0  0  0  0  0  0  0  0  0  0  0  0
   -0.1570    0.7468    0.0413 C   0  0  0  0  0  0  0  0  0  0  0  0
   -1.6259    1.2234    0.1214 C   0  0  0  0  0  0  0  0  0  0  0  0
    1.7141   -0.4760   -5.7651 C   0  0  0  0  0  0  0  0  0  0  0  0
   -6.4118   -0.0406   -0.1606 C   0  0  0  0  0  0  0  0  0  0  0  0
   -4.1076    3.1496   -0.1199 O   0  0  0  0  0  0  0  0  0  0  0  0
    0.6591   -0.0641   -6.2387 O   0  0  0  0  0  0  0  0  0  0  0  0
   -6.7438    1.2065    0.2034 F   0  0  0  0  0  0  0  0  0  0  0  0
   -4.7956   -1.6723   -0.8416 C   0  0  0  0  0  0  0  0  0  0  0  0
    2.8564   -0.9393   -6.6152 C   0  0  0  0  0  0  0  0  0  0  0  0
   -7.4143   -1.0105   -0.1544 C   0  0  0  0  0  0  0  0  0  0  0  0
   -5.8027   -2.6477   -0.8573 C   0  0  0  0  0  0  0  0  0  0  0  0
   -7.1072   -2.3233   -0.4959 C   0  0  0  0  0  0  0  0  0  0  0  0
   -4.0300    0.8262    0.8221 H   0  0  0  0  0  0  0  0  0  0  0  0
   -0.8196   -0.5831   -4.4127 H   0  0  0  0  0  0  0  0  0  0  0  0
   -2.8427   -0.5560   -2.5059 H   0  0  0  0  0  0  0  0  0  0  0  0
   -2.5602    1.1881   -2.5459 H   0  0  0  0  0  0  0  0  0  0  0  0
   -5.1740    1.3794   -2.6705 H   0  0  0  0  0  0  0  0  0  0  0  0
   -3.3583    3.9140   -2.7036 H   0  0  0  0  0  0  0  0  0  0  0  0
   -4.0098    3.0269   -4.1515 H   0  0  0  0  0  0  0  0  0  0  0  0
   -6.3541    3.4736   -3.3521 H   0  0  0  0  0  0  0  0  0  0  0  0
   -5.6860    4.3565   -1.9069 H   0  0  0  0  0  0  0  0  0  0  0  0
    0.5049    1.5649    0.3557 H   0  0  0  0  0  0  0  0  0  0  0  0
   -0.0009   -0.0956    0.7255 H   0  0  0  0  0  0  0  0  0  0  0  0
   -1.6835    2.2372   -0.2926 H   0  0  0  0  0  0  0  0  0  0  0  0
   -1.8879    1.2916    1.1853 H   0  0  0  0  0  0  0  0  0  0  0  0
   -3.7805   -1.9876   -1.0636 H   0  0  0  0  0  0  0  0  0  0  0  0
    3.7525   -0.3544   -6.3915 H   0  0  0  0  0  0  0  0  0  0  0  0
    3.0367   -2.0046   -6.4465 H   0  0  0  0  0  0  0  0  0  0  0  0
    2.6043   -0.7924   -7.6714 H   0  0  0  0  0  0  0  0  0  0  0  0
   -8.4238   -0.7379    0.1426 H   0  0  0  0  0  0  0  0  0  0  0  0
   -5.5549   -3.6752   -1.1194 H   0  0  0  0  0  0  0  0  0  0  0  0
   -7.8753   -3.0911   -0.4646 H   0  0  0  0  0  0  0  0  0  0  0  0
  2 10  1  0  0  0  0
  3  7  2  0  0  0  0
  4  1  1  0  0  0  0
  4 27  1  0  0  0  0
  5  2  2  0  0  0  0
  5 15  1  0  0  0  0
  6  3  1  0  0  0  0
  6  5  1  0  0  0  0
  7  2  1  0  0  0  0
  7 28  1  0  0  0  0
  8  4  1  0  0  0  0
  9  4  1  0  0  0  0
 10  1  1  0  0  0  0
 10 29  1  0  0  0  0
 10 30  1  0  0  0  0
 11  8  1  0  0  0  0
 11 31  1  0  0  0  0
 12  3  1  0  0  0  0
 13 11  1  0  0  0  0
 13 14  1  0  0  0  0
 13 32  1  0  0  0  0
 13 33  1  0  0  0  0
 14 11  1  0  0  0  0
 14 34  1  0  0  0  0
 14 35  1  0  0  0  0
 15 16  1  0  0  0  0
 15 36  1  0  0  0  0
 15 37  1  0  0  0  0
 16  1  1  0  0  0  0
 16 38  1  0  0  0  0
 16 39  1  0  0  0  0
 17 12  1  0  0  0  0
 18  9  2  0  0  0  0
 19  8  2  0  0  0  0
 20 17  2  0  0  0  0
 21 18  1  0  0  0  0
 22  9  1  0  0  0  0
 22 40  1  0  0  0  0
 23 17  1  0  0  0  0
 23 41  1  0  0  0  0
 23 42  1  0  0  0  0
 23 43  1  0  0  0  0
 24 18  1  0  0  0  0
 24 44  1  0  0  0  0
 25 22  2  0  0  0  0
 25 45  1  0  0  0  0
 26 24  2  0  0  0  0
 26 25  1  0  0  0  0
 26 46  1  0  0  0  0
M  END
>  <Mol_ID>
1577

>  <Formula>
C20H21ClFNO3S

>  <MolWeight>
409.9020432

>  <Cat>
S4637

>  <Name>
Prasugrel Hydrochloride

>  <Synonyms>
Prasugrel HCl, LY640315,PCR 4099 Hydrochloride

>  <Target>
P2 Receptor

>  <Form>
hydrochloride

>  <CAS>
389574-19-0

>  <URL>
http://selleckchem.com/products/prasugrel-hydrochloride.html

$$$$
