S4633 Isosorbide Mononitrate.cdx
 OpenBabel08302519503D

 22 23  0  0  0  0  0  0  0  0999 V2000
   -0.1034   -0.7610   -0.5060 C   0  0  1  0  0  0  0  0  0  0  0  0
    0.1167    0.7283   -0.5789 C   0  0  1  0  0  0  0  0  0  0  0  0
    0.8738   -1.2306    0.5725 C   0  0  1  0  0  0  0  0  0  0  0  0
   -1.4797   -0.9740   -0.1777 O   0  0  0  0  0  0  0  0  0  0  0  0
   -0.8725    1.2661    0.4388 C   0  0  2  0  0  0  0  0  0  0  0  0
    1.4669    0.9881   -0.2063 O   0  0  0  0  0  0  0  0  0  0  0  0
    1.9415   -0.1294    0.5671 C   0  0  0  0  0  0  0  0  0  0  0  0
    0.2046   -1.2932    1.8365 O   0  0  0  0  0  0  0  0  0  0  0  0
   -2.0176    0.2680    0.3306 C   0  0  0  0  0  0  0  0  0  0  0  0
   -1.2672    2.5975    0.1435 O   0  0  0  0  0  0  0  0  0  0  0  0
    0.9850   -1.8819    2.8547 N   0  3  0  0  0  0  0  0  0  0  0  0
    2.1356   -2.2091    2.5685 O   0  0  0  0  0  0  0  0  0  0  0  0
    0.3917   -1.9426    3.9340 O   0  5  0  0  0  0  0  0  0  0  0  0
    0.1317   -1.2380   -1.4652 H   0  0  0  0  0  0  0  0  0  0  0  0
   -0.0729    1.1417   -1.5752 H   0  0  0  0  0  0  0  0  0  0  0  0
    1.2741   -2.2170    0.3070 H   0  0  0  0  0  0  0  0  0  0  0  0
   -0.4520    1.2678    1.4509 H   0  0  0  0  0  0  0  0  0  0  0  0
    2.8747   -0.4781    0.1153 H   0  0  0  0  0  0  0  0  0  0  0  0
    2.1599    0.2512    1.5698 H   0  0  0  0  0  0  0  0  0  0  0  0
   -2.4648    0.0727    1.3105 H   0  0  0  0  0  0  0  0  0  0  0  0
   -2.8108    0.6106   -0.3414 H   0  0  0  0  0  0  0  0  0  0  0  0
   -0.4520    3.1323    0.1209 H   0  0  0  0  0  0  0  0  0  0  0  0
  1  2  1  0  0  0  0
  1  3  1  0  0  0  0
  1  4  1  0  0  0  0
  1 14  1  6  0  0  0
  2  5  1  0  0  0  0
  2  6  1  0  0  0  0
  2 15  1  6  0  0  0
  3  7  1  0  0  0  0
  3 16  1  6  0  0  0
  3  8  1  0  0  0  0
  4  9  1  0  0  0  0
  5  9  1  0  0  0  0
  5 17  1  1  0  0  0
  5 10  1  0  0  0  0
  6  7  1  0  0  0  0
  7 18  1  0  0  0  0
  7 19  1  0  0  0  0
  8 11  1  0  0  0  0
  9 20  1  0  0  0  0
  9 21  1  0  0  0  0
 10 22  1  0  0  0  0
 11 12  2  0  0  0  0
 11 13  1  0  0  0  0
M  CHG  2  11   1  13  -1
M  END
>  <Mol_ID>
1547

>  <Formula>
C6H9NO6

>  <MolWeight>
191.13876

>  <Cat>
S4633

>  <Name>
Isosorbide Mononitrate

>  <Synonyms>
Isosorbide-5-mononitrate, Elantan, Monoket, Mononit, Imdur, Corangin

>  <Target>
Others

>  <Form>
Free Base

>  <CAS>
16051-77-7

>  <URL>
http://selleckchem.com/products/isosorbide-mononitrate.html

$$$$
