S4640 Lesinurad.cdx
 OpenBabel08302519503D

 38 41  0  0  0  0  0  0  0  0999 V2000
    0.3675    4.5009    6.5946 C   0  0  0  0  0  0  0  0  0  0  0  0
    1.6340    5.0570    5.9795 C   0  0  0  0  0  0  0  0  0  0  0  0
    0.3092    4.0274    7.7216 O   0  0  0  0  0  0  0  0  0  0  0  0
   -0.7166    4.5512    5.7875 O   0  0  0  0  0  0  0  0  0  0  0  0
    2.6395    3.7759    5.1647 S   0  0  0  0  0  0  0  0  0  0  0  0
    0.0734    3.2920    2.3774 N   0  0  0  0  0  0  0  0  0  0  0  0
    0.6398    3.9735    3.4094 N   0  0  0  0  0  0  0  0  0  0  0  0
    1.5328    3.1833    3.9669 C   0  0  0  0  0  0  0  0  0  0  0  0
    1.5274    1.9240    3.3724 N   0  0  0  0  0  0  0  0  0  0  0  0
    0.6176    2.0941    2.3268 C   0  0  0  0  0  0  0  0  0  0  0  0
    2.2208    0.7141    3.7120 C   0  0  0  0  0  0  0  0  0  0  0  0
    2.7645   -0.0370    2.6575 C   0  0  0  0  0  0  0  0  0  0  0  0
    3.3232   -1.2932    2.8809 C   0  0  0  0  0  0  0  0  0  0  0  0
    3.4498   -1.8226    4.1729 C   0  0  0  0  0  0  0  0  0  0  0  0
    3.0276   -1.0124    5.2641 C   0  0  0  0  0  0  0  0  0  0  0  0
    3.2558   -1.4406    6.5922 C   0  0  0  0  0  0  0  0  0  0  0  0
    2.8318   -0.7146    7.6940 C   0  0  0  0  0  0  0  0  0  0  0  0
    2.0779    0.4244    7.5006 C   0  0  0  0  0  0  0  0  0  0  0  0
    1.7929    0.8456    6.2021 C   0  0  0  0  0  0  0  0  0  0  0  0
    2.3451    0.2256    5.0526 C   0  0  0  0  0  0  0  0  0  0  0  0
    3.9564   -3.2472    4.3942 C   0  0  0  0  0  0  0  0  0  0  0  0
    5.4377   -3.4386    4.6253 C   0  0  0  0  0  0  0  0  0  0  0  0
    4.7868   -4.0427    3.4189 C   0  0  0  0  0  0  0  0  0  0  0  0
    0.0139    0.8312    1.0688 Br  0  0  0  0  0  0  0  0  0  0  0  0
    1.3919    5.8768    5.2957 H   0  0  0  0  0  0  0  0  0  0  0  0
    2.2220    5.4978    6.7921 H   0  0  0  0  0  0  0  0  0  0  0  0
   -0.5235    4.8149    4.8594 H   0  0  0  0  0  0  0  0  0  0  0  0
    2.7732    0.3316    1.6350 H   0  0  0  0  0  0  0  0  0  0  0  0
    3.6664   -1.8685    2.0225 H   0  0  0  0  0  0  0  0  0  0  0  0
    3.8030   -2.3649    6.7901 H   0  0  0  0  0  0  0  0  0  0  0  0
    3.0611   -1.0563    8.7012 H   0  0  0  0  0  0  0  0  0  0  0  0
    1.7052    0.9938    8.3479 H   0  0  0  0  0  0  0  0  0  0  0  0
    1.1228    1.6920    6.1228 H   0  0  0  0  0  0  0  0  0  0  0  0
    3.2805   -3.8680    4.9853 H   0  0  0  0  0  0  0  0  0  0  0  0
    6.1002   -2.5950    4.4662 H   0  0  0  0  0  0  0  0  0  0  0  0
    5.7349   -4.0887    5.4395 H   0  0  0  0  0  0  0  0  0  0  0  0
    4.6547   -5.1210    3.4128 H   0  0  0  0  0  0  0  0  0  0  0  0
    5.0365   -3.6355    2.4487 H   0  0  0  0  0  0  0  0  0  0  0  0
  1  2  1  0  0  0  0
  1  3  2  0  0  0  0
  1  4  1  0  0  0  0
  2  5  1  0  0  0  0
  2 25  1  0  0  0  0
  2 26  1  0  0  0  0
  4 27  1  0  0  0  0
  5  8  1  0  0  0  0
  6  7  1  0  0  0  0
  6 10  2  0  0  0  0
  7  8  2  0  0  0  0
  8  9  1  0  0  0  0
  9 10  1  0  0  0  0
  9 11  1  0  0  0  0
 10 24  1  0  0  0  0
 11 12  2  0  0  0  0
 11 20  1  0  0  0  0
 12 13  1  0  0  0  0
 12 28  1  0  0  0  0
 13 14  2  0  0  0  0
 13 29  1  0  0  0  0
 14 15  1  0  0  0  0
 14 21  1  0  0  0  0
 15 16  1  0  0  0  0
 15 20  2  0  0  0  0
 16 17  2  0  0  0  0
 16 30  1  0  0  0  0
 17 18  1  0  0  0  0
 17 31  1  0  0  0  0
 18 19  2  0  0  0  0
 18 32  1  0  0  0  0
 19 20  1  0  0  0  0
 19 33  1  0  0  0  0
 21 22  1  0  0  0  0
 21 23  1  0  0  0  0
 21 34  1  0  0  0  0
 22 23  1  0  0  0  0
 22 35  1  0  0  0  0
 22 36  1  0  0  0  0
 23 37  1  0  0  0  0
 23 38  1  0  0  0  0
M  END
>  <Mol_ID>
1539

>  <Formula>
C17H14BrN3O2S

>  <MolWeight>
404.28096

>  <Cat>
S4640

>  <Name>
Lesinurad

>  <Synonyms>
RDEA 594, RDEA-594, RDEA594

>  <Target>
OAT

>  <Form>
free base

>  <CAS>
878672-00-5

>  <URL>
http://selleckchem.com/products/lesinurad.html

$$$$
