S4658 Hydroquinidine.cdx
 OpenBabel08302519502D

 50 53  0  0  0  0  0  0  0  0999 V2000
    4.8488    2.0942    0.0000 C   0  0  0  0  0  0  0  0  0  0  0  0
    6.0616    2.7954    0.0000 C   0  0  0  0  0  0  0  0  0  0  0  0
    4.8488    0.7014    0.0000 C   0  0  0  0  0  0  0  0  0  0  0  0
    3.6370    2.7954    0.0000 C   0  0  0  0  0  0  0  0  0  0  0  0
    6.0616    4.1954    0.0000 C   0  0  1  0  0  0  0  0  0  0  0  0
    7.2626    2.0942    0.0000 C   0  0  0  0  0  0  0  0  0  0  0  0
    3.6370    0.0000    0.0000 C   0  0  0  0  0  0  0  0  0  0  0  0
    6.0604    0.0000    0.0000 N   0  0  0  0  0  0  0  0  0  0  0  0
    2.4251    2.0939    0.0000 C   0  0  0  0  0  0  0  0  0  0  0  0
    7.2750    4.8960    0.0000 C   0  0  2  0  0  0  0  0  0  0  0  0
    4.8501    4.8949    0.0000 O   0  0  0  0  0  0  0  0  0  0  0  0
    7.2626    0.7014    0.0000 C   0  0  0  0  0  0  0  0  0  0  0  0
    2.4253    0.7014    0.0000 C   0  0  0  0  0  0  0  0  0  0  0  0
    1.2127    2.7939    0.0000 O   0  0  0  0  0  0  0  0  0  0  0  0
    8.5574    5.8354    0.0000 N   0  0  3  0  0  0  0  0  0  0  0  0
    6.7893    6.1292    0.0000 C   0  0  0  0  0  0  0  0  0  0  0  0
    0.0000    2.0938    0.0000 C   0  0  0  0  0  0  0  0  0  0  0  0
    8.3761    7.6393    0.0000 C   0  0  0  0  0  0  0  0  0  0  0  0
    9.9421    5.5561    0.0000 C   0  0  0  0  0  0  0  0  0  0  0  0
    8.0137    7.0401    0.0000 C   0  0  1  0  0  0  0  0  0  0  0  0
    7.7221    8.5625    0.0000 C   0  0  1  0  0  0  0  0  0  0  0  0
    9.3870    6.7692    0.0000 C   0  0  0  0  0  0  0  0  0  0  0  0
    7.1732    9.8505    0.0000 C   0  0  0  0  0  0  0  0  0  0  0  0
    5.7834   10.0191    0.0000 C   0  0  0  0  0  0  0  0  0  0  0  0
    3.6369    3.8274    0.0000 H   0  0  0  0  0  0  0  0  0  0  0  0
    5.1349    3.6604    0.0000 H   0  0  0  0  0  0  0  0  0  0  0  0
    8.1576    2.6080    0.0000 H   0  0  0  0  0  0  0  0  0  0  0  0
    3.6370   -1.0320    0.0000 H   0  0  0  0  0  0  0  0  0  0  0  0
    6.2648    5.2488    0.0000 H   0  0  0  0  0  0  0  0  0  0  0  0
    4.8501    5.8649    0.0000 H   0  0  0  0  0  0  0  0  0  0  0  0
    8.1575    0.1874    0.0000 H   0  0  0  0  0  0  0  0  0  0  0  0
    1.5313    0.1858    0.0000 H   0  0  0  0  0  0  0  0  0  0  0  0
    5.7604    6.4228    0.0000 H   0  0  0  0  0  0  0  0  0  0  0  0
    6.5969    7.1818    0.0000 H   0  0  0  0  0  0  0  0  0  0  0  0
   -0.9266    2.6288    0.0000 H   0  0  0  0  0  0  0  0  0  0  0  0
   -0.0000    1.0238    0.0000 H   0  0  0  0  0  0  0  0  0  0  0  0
   -0.9267    1.5588    0.0000 H   0  0  0  0  0  0  0  0  0  0  0  0
    9.3782    8.0145    0.0000 H   0  0  0  0  0  0  0  0  0  0  0  0
    8.6904    8.6621    0.0000 H   0  0  0  0  0  0  0  0  0  0  0  0
   10.7806    4.8914    0.0000 H   0  0  0  0  0  0  0  0  0  0  0  0
   10.7842    6.2162    0.0000 H   0  0  0  0  0  0  0  0  0  0  0  0
    8.2497    5.9965    0.0000 H   0  0  0  0  0  0  0  0  0  0  0  0
    8.6561    9.0845    0.0000 H   0  0  0  0  0  0  0  0  0  0  0  0
   10.0499    7.6091    0.0000 H   0  0  0  0  0  0  0  0  0  0  0  0
    9.0162    7.7729    0.0000 H   0  0  0  0  0  0  0  0  0  0  0  0
    7.8159   10.7060    0.0000 H   0  0  0  0  0  0  0  0  0  0  0  0
    6.7537   10.8348    0.0000 H   0  0  0  0  0  0  0  0  0  0  0  0
    5.3639   11.0034    0.0000 H   0  0  0  0  0  0  0  0  0  0  0  0
    5.1407    9.1636    0.0000 H   0  0  0  0  0  0  0  0  0  0  0  0
    4.7212   10.1480    0.0000 H   0  0  0  0  0  0  0  0  0  0  0  0
  1  2  1  0  0  0  0
  1  3  1  0  0  0  0
  1  4  2  0  0  0  0
  2  5  1  0  0  0  0
  2  6  2  0  0  0  0
  3  7  2  0  0  0  0
  3  8  1  0  0  0  0
  4  9  1  0  0  0  0
  4 25  1  0  0  0  0
  5 11  1  0  0  0  0
  5 26  1  1  0  0  0
  6 12  1  0  0  0  0
  6 27  1  0  0  0  0
  7 13  1  0  0  0  0
  7 28  1  0  0  0  0
  8 12  2  0  0  0  0
  9 14  1  0  0  0  0
  9 13  2  0  0  0  0
 10  5  1  0  0  0  0
 10 15  1  0  0  0  0
 10 16  1  0  0  0  0
 10 29  1  6  0  0  0
 11 30  1  0  0  0  0
 12 31  1  0  0  0  0
 13 32  1  0  0  0  0
 14 17  1  0  0  0  0
 15 18  1  0  0  0  0
 15 19  1  0  0  0  0
 16 33  1  0  0  0  0
 16 34  1  0  0  0  0
 17 35  1  0  0  0  0
 17 36  1  0  0  0  0
 17 37  1  0  0  0  0
 18 21  1  0  0  0  0
 18 38  1  0  0  0  0
 18 39  1  0  0  0  0
 19 22  1  0  0  0  0
 19 40  1  0  0  0  0
 19 41  1  0  0  0  0
 20 16  1  0  0  0  0
 20 21  1  0  0  0  0
 20 22  1  0  0  0  0
 20 42  1  6  0  0  0
 21 23  1  0  0  0  0
 21 43  1  6  0  0  0
 22 44  1  0  0  0  0
 22 45  1  0  0  0  0
 23 24  1  0  0  0  0
 23 46  1  0  0  0  0
 23 47  1  0  0  0  0
 24 48  1  0  0  0  0
 24 49  1  0  0  0  0
 24 50  1  0  0  0  0
M  END
>  <Mol_ID>
1572

>  <Formula>
C20H26N2O2

>  <MolWeight>
326.43264

>  <Cat>
S4658

>  <Name>
Hydroquinidine

>  <Synonyms>
Dihydroquinidine, Hydroconchinine, Hydroconquinine, Dihydroquinine

>  <Target>
Others

>  <Form>
free base

>  <CAS>
1435-55-8

>  <URL>
http://selleckchem.com/products/hydroquinidine.html

$$$$
