S4657 Eslicarbazepine Acetate.cdx
 OpenBabel08302519503D

 38 40  0  0  0  0  0  0  0  0999 V2000
    0.0600   -0.7915   -1.2622 N   0  0  0  0  0  0  0  0  0  0  0  0
    1.2737   -0.5407   -0.5377 C   0  0  0  0  0  0  0  0  0  0  0  0
    1.5262    0.6726    0.1326 C   0  0  0  0  0  0  0  0  0  0  0  0
    0.0072   -1.5437   -2.4366 C   0  0  0  0  0  0  0  0  0  0  0  0
    0.7059    1.9394   -0.0574 C   0  0  2  0  0  0  0  0  0  0  0  0
   -1.1351   -0.5479   -0.5225 C   0  0  0  0  0  0  0  0  0  0  0  0
   -1.5144    0.7752   -0.2502 C   0  0  0  0  0  0  0  0  0  0  0  0
   -0.6549    1.8901   -0.7657 C   0  0  0  0  0  0  0  0  0  0  0  0
    1.5304    2.9669   -0.6779 O   0  0  0  0  0  0  0  0  0  0  0  0
    1.9919    2.7436   -1.9407 C   0  0  0  0  0  0  0  0  0  0  0  0
   -0.9584   -2.1674   -2.8690 O   0  0  0  0  0  0  0  0  0  0  0  0
    1.7893    1.7492   -2.6267 O   0  0  0  0  0  0  0  0  0  0  0  0
    1.1271   -1.4475   -3.2207 N   0  0  0  0  0  0  0  0  0  0  0  0
    2.2312   -1.5709   -0.4509 C   0  0  0  0  0  0  0  0  0  0  0  0
    2.6864    0.7815    0.9343 C   0  0  0  0  0  0  0  0  0  0  0  0
   -1.9542   -1.6024   -0.1057 C   0  0  0  0  0  0  0  0  0  0  0  0
   -2.7075    1.0304    0.4373 C   0  0  0  0  0  0  0  0  0  0  0  0
    2.8362    3.8950   -2.3939 C   0  0  0  0  0  0  0  0  0  0  0  0
    3.3882   -1.4312    0.3167 C   0  0  0  0  0  0  0  0  0  0  0  0
    3.6061   -0.2605    1.0278 C   0  0  0  0  0  0  0  0  0  0  0  0
   -3.1304   -1.3425    0.5994 C   0  0  0  0  0  0  0  0  0  0  0  0
   -3.5068   -0.0264    0.8679 C   0  0  0  0  0  0  0  0  0  0  0  0
    0.5025    2.3097    0.9581 H   0  0  0  0  0  0  0  0  0  0  0  0
   -0.5562    1.7847   -1.8529 H   0  0  0  0  0  0  0  0  0  0  0  0
   -1.1537    2.8600   -0.6381 H   0  0  0  0  0  0  0  0  0  0  0  0
    1.5919   -0.5439   -3.1737 H   0  0  0  0  0  0  0  0  0  0  0  0
    0.9811   -1.7954   -4.1586 H   0  0  0  0  0  0  0  0  0  0  0  0
    2.0677   -2.5189   -0.9597 H   0  0  0  0  0  0  0  0  0  0  0  0
    2.8910    1.7076    1.4698 H   0  0  0  0  0  0  0  0  0  0  0  0
   -1.6724   -2.6308   -0.3170 H   0  0  0  0  0  0  0  0  0  0  0  0
   -3.0288    2.0525    0.6262 H   0  0  0  0  0  0  0  0  0  0  0  0
    2.5834    4.8007   -1.8361 H   0  0  0  0  0  0  0  0  0  0  0  0
    3.8903    3.6525   -2.2470 H   0  0  0  0  0  0  0  0  0  0  0  0
    2.6332    4.0868   -3.4509 H   0  0  0  0  0  0  0  0  0  0  0  0
    4.1066   -2.2450    0.3671 H   0  0  0  0  0  0  0  0  0  0  0  0
    4.4979   -0.1501    1.6390 H   0  0  0  0  0  0  0  0  0  0  0  0
   -3.7544   -2.1673    0.9309 H   0  0  0  0  0  0  0  0  0  0  0  0
   -4.4342    0.1729    1.3974 H   0  0  0  0  0  0  0  0  0  0  0  0
  2  1  1  0  0  0  0
  3  2  2  0  0  0  0
  4  1  1  0  0  0  0
  5  3  1  0  0  0  0
  5 23  1  1  0  0  0
  5  9  1  0  0  0  0
  6  1  1  0  0  0  0
  7  6  2  0  0  0  0
  8  5  1  0  0  0  0
  8  7  1  0  0  0  0
  8 24  1  0  0  0  0
  8 25  1  0  0  0  0
 10  9  1  0  0  0  0
 11  4  2  0  0  0  0
 12 10  2  0  0  0  0
 13  4  1  0  0  0  0
 13 26  1  0  0  0  0
 13 27  1  0  0  0  0
 14  2  1  0  0  0  0
 14 28  1  0  0  0  0
 15  3  1  0  0  0  0
 15 29  1  0  0  0  0
 16  6  1  0  0  0  0
 16 30  1  0  0  0  0
 17  7  1  0  0  0  0
 17 22  2  0  0  0  0
 17 31  1  0  0  0  0
 18 10  1  0  0  0  0
 18 32  1  0  0  0  0
 18 33  1  0  0  0  0
 18 34  1  0  0  0  0
 19 14  2  0  0  0  0
 19 35  1  0  0  0  0
 20 15  2  0  0  0  0
 20 19  1  0  0  0  0
 20 36  1  0  0  0  0
 21 16  2  0  0  0  0
 21 37  1  0  0  0  0
 22 21  1  0  0  0  0
 22 38  1  0  0  0  0
M  END
>  <Mol_ID>
1552

>  <Formula>
C17H16N2O3

>  <MolWeight>
296.32054

>  <Cat>
S4657

>  <Name>
Eslicarbazepine Acetate

>  <Synonyms>
BIA 2093, Zebinix, Exalief, Stedesa, Aptiom

>  <Target>
BACE,Sodium Channel

>  <Form>
free base

>  <CAS>
236395-14-5

>  <URL>
http://selleckchem.com/products/eslicarbazepine-acetate.html

$$$$
