S4653 L-Ornithine hydrochloride.cdx
 OpenBabel08302521383D

 21 20  0  0  0  0  0  0  0  0999 V2000
    0.9196    0.1679   -0.0984 C   0  0  2  0  0  0  0  0  0  0  0  0
    0.3442    1.6006   -0.0278 C   0  0  0  0  0  0  0  0  0  0  0  0
    0.4214   -0.5735   -1.3497 C   0  0  0  0  0  0  0  0  0  0  0  0
    0.5458   -0.5665    1.1315 N   0  0  0  0  0  0  0  0  0  0  0  0
    0.7594    2.4129   -1.0267 O   0  0  0  0  0  0  0  0  0  0  0  0
   -0.3885    2.0002    0.8670 O   0  0  0  0  0  0  0  0  0  0  0  0
    0.9307   -2.0223   -1.4324 C   0  0  0  0  0  0  0  0  0  0  0  0
    0.4970   -2.7539   -2.7047 C   0  0  0  0  0  0  0  0  0  0  0  0
   -0.9520   -2.8783   -2.7966 N   0  0  0  0  0  0  0  0  0  0  0  0
    2.0124    0.2503   -0.1140 H   0  0  0  0  0  0  0  0  0  0  0  0
   -0.6760   -0.5554   -1.3740 H   0  0  0  0  0  0  0  0  0  0  0  0
    0.7546   -0.0367   -2.2457 H   0  0  0  0  0  0  0  0  0  0  0  0
    0.8692   -0.0213    1.9352 H   0  0  0  0  0  0  0  0  0  0  0  0
   -0.4747   -0.5195    1.2186 H   0  0  0  0  0  0  0  0  0  0  0  0
    1.3629    1.9907   -1.6659 H   0  0  0  0  0  0  0  0  0  0  0  0
    2.0271   -2.0177   -1.3949 H   0  0  0  0  0  0  0  0  0  0  0  0
    0.5875   -2.5953   -0.5625 H   0  0  0  0  0  0  0  0  0  0  0  0
    0.8701   -2.2260   -3.5887 H   0  0  0  0  0  0  0  0  0  0  0  0
    0.9412   -3.7557   -2.7103 H   0  0  0  0  0  0  0  0  0  0  0  0
   -1.1917   -3.4542   -3.6033 H   0  0  0  0  0  0  0  0  0  0  0  0
   -1.3028   -3.3808   -1.9809 H   0  0  0  0  0  0  0  0  0  0  0  0
  1  2  1  0  0  0  0
  1  3  1  0  0  0  0
  1  4  1  0  0  0  0
  1 10  1  6  0  0  0
  2  5  1  0  0  0  0
  2  6  2  0  0  0  0
  3  7  1  0  0  0  0
  3 11  1  0  0  0  0
  3 12  1  0  0  0  0
  4 13  1  0  0  0  0
  4 14  1  0  0  0  0
  5 15  1  0  0  0  0
  7  8  1  0  0  0  0
  7 16  1  0  0  0  0
  7 17  1  0  0  0  0
  8  9  1  0  0  0  0
  8 18  1  0  0  0  0
  8 19  1  0  0  0  0
  9 20  1  0  0  0  0
  9 21  1  0  0  0  0
M  END
>  <Mol_ID>
7852

>  <Formula>
C5H13ClN2O2

>  <MolWeight>
168.62192

>  <Cat>
S4653

>  <Name>
L-Ornithine hydrochloride

>  <Synonyms>
(S)-2,5-Diaminopentanoic acid

>  <Target>
Others

>  <Form>
free base

>  <CAS>
3184-13-2

>  <URL>
https://www.selleckchem.com/products/l-ornithine-hydrochloride.html

$$$$
