S4650 Atipamezole.cdx
 OpenBabel08302519503D

 32 34  0  0  0  0  0  0  0  0999 V2000
    2.4861    0.0199   -0.3569 C   0  0  0  0  0  0  0  0  0  0  0  0
    2.7069    0.0070   -1.8682 C   0  0  0  0  0  0  0  0  0  0  0  0
    1.6272    1.2451    0.1014 C   0  0  0  0  0  0  0  0  0  0  0  0
    1.6303   -1.2250    0.0556 C   0  0  0  0  0  0  0  0  0  0  0  0
    3.8436   -0.0117    0.3957 C   0  0  0  0  0  0  0  0  0  0  0  0
    3.7198   -0.5108   -2.6558 C   0  0  0  0  0  0  0  0  0  0  0  0
    1.8215    0.5356   -2.7830 N   0  0  0  0  0  0  0  0  0  0  0  0
    0.2270    0.7089    0.0238 C   0  0  0  0  0  0  0  0  0  0  0  0
    0.2305   -0.6885    0.0004 C   0  0  0  0  0  0  0  0  0  0  0  0
    4.7444    1.1945    0.1474 C   0  0  0  0  0  0  0  0  0  0  0  0
    3.5031   -0.2542   -3.9830 N   0  0  0  0  0  0  0  0  0  0  0  0
    2.3587    0.3839   -4.0277 C   0  0  0  0  0  0  0  0  0  0  0  0
   -0.9610    1.4195    0.0009 C   0  0  0  0  0  0  0  0  0  0  0  0
   -0.9530   -1.4069   -0.0301 C   0  0  0  0  0  0  0  0  0  0  0  0
   -2.1602    0.7045   -0.0514 C   0  0  0  0  0  0  0  0  0  0  0  0
   -2.1562   -0.6997   -0.0635 C   0  0  0  0  0  0  0  0  0  0  0  0
    1.8345    1.5169    1.1432 H   0  0  0  0  0  0  0  0  0  0  0  0
    1.7652    2.1260   -0.5341 H   0  0  0  0  0  0  0  0  0  0  0  0
    1.7658   -2.0766   -0.6195 H   0  0  0  0  0  0  0  0  0  0  0  0
    1.8412   -1.5388    1.0840 H   0  0  0  0  0  0  0  0  0  0  0  0
    3.6590   -0.0740    1.4768 H   0  0  0  0  0  0  0  0  0  0  0  0
    4.3962   -0.9224    0.1335 H   0  0  0  0  0  0  0  0  0  0  0  0
    4.6087   -1.0379   -2.3332 H   0  0  0  0  0  0  0  0  0  0  0  0
    0.9311    0.9686   -2.5768 H   0  0  0  0  0  0  0  0  0  0  0  0
    4.2699    2.1223    0.4804 H   0  0  0  0  0  0  0  0  0  0  0  0
    5.6800    1.0788    0.7043 H   0  0  0  0  0  0  0  0  0  0  0  0
    5.0069    1.3049   -0.9083 H   0  0  0  0  0  0  0  0  0  0  0  0
    1.8709    0.7512   -4.9203 H   0  0  0  0  0  0  0  0  0  0  0  0
   -0.9699    2.5049    0.0250 H   0  0  0  0  0  0  0  0  0  0  0  0
   -0.9513   -2.4933   -0.0305 H   0  0  0  0  0  0  0  0  0  0  0  0
   -3.1078    1.2367   -0.0743 H   0  0  0  0  0  0  0  0  0  0  0  0
   -3.0994   -1.2401   -0.0944 H   0  0  0  0  0  0  0  0  0  0  0  0
  1  2  1  0  0  0  0
  1  3  1  0  0  0  0
  1  4  1  0  0  0  0
  1  5  1  0  0  0  0
  2  6  2  0  0  0  0
  2  7  1  0  0  0  0
  3  8  1  0  0  0  0
  3 17  1  0  0  0  0
  3 18  1  0  0  0  0
  4  9  1  0  0  0  0
  4 19  1  0  0  0  0
  4 20  1  0  0  0  0
  5 10  1  0  0  0  0
  5 21  1  0  0  0  0
  5 22  1  0  0  0  0
  6 11  1  0  0  0  0
  6 23  1  0  0  0  0
  7 12  1  0  0  0  0
  7 24  1  0  0  0  0
  8 13  1  0  0  0  0
  8  9  2  0  0  0  0
  9 14  1  0  0  0  0
 10 25  1  0  0  0  0
 10 26  1  0  0  0  0
 10 27  1  0  0  0  0
 11 12  2  0  0  0  0
 12 28  1  0  0  0  0
 13 15  2  0  0  0  0
 13 29  1  0  0  0  0
 14 16  2  0  0  0  0
 14 30  1  0  0  0  0
 15 16  1  0  0  0  0
 15 31  1  0  0  0  0
 16 32  1  0  0  0  0
M  END
>  <Mol_ID>
1553

>  <Formula>
C14H16N2

>  <MolWeight>
212.29024

>  <Cat>
S4650

>  <Name>
Atipamezole

>  <Synonyms>
MPV-1248, MPV1248, MPV 1248, Antisedan

>  <Target>
Adrenergic Receptor

>  <Form>
Free Base

>  <CAS>
104054-27-5

>  <URL>
http://selleckchem.com/products/atipamezole.html

$$$$
