S4651 Etoricoxib.cdx
 OpenBabel08302519503D

 39 41  0  0  0  0  0  0  0  0999 V2000
    1.3581   -0.0408   -0.0545 S   0  0  0  0  0  0  0  0  0  0  0  0
   -1.4056   -2.6708    5.7805 C   0  0  0  0  0  0  0  0  0  0  0  0
   -1.6864   -3.2704    6.9778 N   0  0  0  0  0  0  0  0  0  0  0  0
   -0.1412   -2.7989    5.1510 C   0  0  0  0  0  0  0  0  0  0  0  0
   -2.5662   -1.9171    5.2507 C   0  0  0  0  0  0  0  0  0  0  0  0
    0.9571   -0.8362    1.4749 C   0  0  0  0  0  0  0  0  0  0  0  0
   -3.9366   -1.1813    3.3655 N   0  0  0  0  0  0  0  0  0  0  0  0
    0.2736   -2.1024    3.9030 C   0  0  0  0  0  0  0  0  0  0  0  0
    0.2919    0.8923   -0.3661 O   0  0  0  0  0  0  0  0  0  0  0  0
    1.7579   -1.0655   -1.0023 O   0  0  0  0  0  0  0  0  0  0  0  0
    0.7863   -3.6498    5.7923 C   0  0  0  0  0  0  0  0  0  0  0  0
   -2.9227   -1.9067    3.9035 C   0  0  0  0  0  0  0  0  0  0  0  0
    0.2374   -0.1371    2.4407 C   0  0  0  0  0  0  0  0  0  0  0  0
    1.3554   -2.1519    1.7027 C   0  0  0  0  0  0  0  0  0  0  0  0
   -3.4040   -1.1725    6.0952 C   0  0  0  0  0  0  0  0  0  0  0  0
   -0.0586   -0.7547    3.6591 C   0  0  0  0  0  0  0  0  0  0  0  0
    1.0040   -2.7775    2.9027 C   0  0  0  0  0  0  0  0  0  0  0  0
   -0.7525   -4.0550    7.5485 C   0  0  0  0  0  0  0  0  0  0  0  0
   -4.6966   -0.4512    4.2098 C   0  0  0  0  0  0  0  0  0  0  0  0
    0.4812   -4.2918    6.9878 C   0  0  0  0  0  0  0  0  0  0  0  0
    2.8067    0.8992    0.3707 C   0  0  0  0  0  0  0  0  0  0  0  0
   -4.4731   -0.4355    5.5797 C   0  0  0  0  0  0  0  0  0  0  0  0
   -5.7957    0.3557    3.5894 C   0  0  0  0  0  0  0  0  0  0  0  0
    1.7744   -3.8133    5.3660 H   0  0  0  0  0  0  0  0  0  0  0  0
   -2.3748   -2.4898    3.1680 H   0  0  0  0  0  0  0  0  0  0  0  0
   -0.1161    0.8761    2.2535 H   0  0  0  0  0  0  0  0  0  0  0  0
    1.9208   -2.7028    0.9539 H   0  0  0  0  0  0  0  0  0  0  0  0
   -3.2264   -1.1661    7.1693 H   0  0  0  0  0  0  0  0  0  0  0  0
   -0.6009   -0.1724    4.4026 H   0  0  0  0  0  0  0  0  0  0  0  0
    1.2972   -3.8175    3.0383 H   0  0  0  0  0  0  0  0  0  0  0  0
   -1.0373   -4.5040    8.4956 H   0  0  0  0  0  0  0  0  0  0  0  0
    1.1957   -4.9484    7.4717 H   0  0  0  0  0  0  0  0  0  0  0  0
    2.5498    1.6055    1.1634 H   0  0  0  0  0  0  0  0  0  0  0  0
    3.5882    0.2123    0.7031 H   0  0  0  0  0  0  0  0  0  0  0  0
    3.1368    1.4410   -0.5176 H   0  0  0  0  0  0  0  0  0  0  0  0
   -5.1124    0.1341    6.2462 H   0  0  0  0  0  0  0  0  0  0  0  0
   -5.3682    1.1427    2.9597 H   0  0  0  0  0  0  0  0  0  0  0  0
   -6.4243   -0.2906    2.9693 H   0  0  0  0  0  0  0  0  0  0  0  0
   -6.4318    0.8267    4.3451 H   0  0  0  0  0  0  0  0  0  0  0  0
  2  4  1  0  0  0  0
  3  2  2  0  0  0  0
  4  8  1  0  0  0  0
  5  2  1  0  0  0  0
  6  1  1  0  0  0  0
  7 12  2  0  0  0  0
  8 16  2  0  0  0  0
  9  1  2  0  0  0  0
 10  1  2  0  0  0  0
 11  4  2  0  0  0  0
 11 24  1  0  0  0  0
 12  5  1  0  0  0  0
 12 25  1  0  0  0  0
 13  6  2  0  0  0  0
 13 26  1  0  0  0  0
 14  6  1  0  0  0  0
 14 27  1  0  0  0  0
 15  5  2  0  0  0  0
 15 28  1  0  0  0  0
 16 13  1  0  0  0  0
 16 29  1  0  0  0  0
 17  8  1  0  0  0  0
 17 14  2  0  0  0  0
 17 30  1  0  0  0  0
 18  3  1  0  0  0  0
 18 31  1  0  0  0  0
 19  7  1  0  0  0  0
 20 11  1  0  0  0  0
 20 18  2  0  0  0  0
 20 32  1  0  0  0  0
 21  1  1  0  0  0  0
 21 33  1  0  0  0  0
 21 34  1  0  0  0  0
 21 35  1  0  0  0  0
 22 15  1  0  0  0  0
 22 19  2  0  0  0  0
 22 36  1  0  0  0  0
 23 19  1  0  0  0  0
 23 37  1  0  0  0  0
 23 38  1  0  0  0  0
 23 39  1  0  0  0  0
M  END
>  <Mol_ID>
1574

>  <Formula>
C18H15ClN2O2S

>  <MolWeight>
358.8419

>  <Cat>
S4651

>  <Name>
Etoricoxib

>  <Synonyms>
Arcoxia, MK-663, MK-0663, Tauxib, Algix, Nucoxia

>  <Target>
COX

>  <Form>
free base

>  <CAS>
202409-33-4

>  <URL>
http://selleckchem.com/products/etoricoxib.html

$$$$
