S4652 Sulisobenzone.cdx
 OpenBabel08302519503D

 33 34  0  0  0  0  0  0  0  0999 V2000
    0.1341   -1.2313    0.0948 C   0  0  0  0  0  0  0  0  0  0  0  0
   -1.2608   -1.2067    0.0398 C   0  0  0  0  0  0  0  0  0  0  0  0
    0.8796   -2.5136    0.1716 C   0  0  0  0  0  0  0  0  0  0  0  0
    0.8240   -0.0255    0.0433 C   0  0  0  0  0  0  0  0  0  0  0  0
   -1.9789    0.0119   -0.0064 C   0  0  0  0  0  0  0  0  0  0  0  0
    0.3426   -3.7028    0.8833 C   0  0  0  0  0  0  0  0  0  0  0  0
    1.9905   -2.5664   -0.3543 O   0  0  0  0  0  0  0  0  0  0  0  0
    0.1224    1.1776   -0.0038 C   0  0  0  0  0  0  0  0  0  0  0  0
    2.1892    0.0508    0.0380 O   0  0  0  0  0  0  0  0  0  0  0  0
   -1.2883    1.2287   -0.0256 C   0  0  0  0  0  0  0  0  0  0  0  0
   -3.7439   -0.1531   -0.0498 S   0  0  0  0  0  0  0  0  0  0  0  0
   -0.4733   -3.5761    2.0153 C   0  0  0  0  0  0  0  0  0  0  0  0
    0.7090   -4.9763    0.4324 C   0  0  0  0  0  0  0  0  0  0  0  0
   -1.6930    2.5262   -0.0880 O   0  0  0  0  0  0  0  0  0  0  0  0
   -4.0263   -1.7436   -0.0119 O   0  0  0  0  0  0  0  0  0  0  0  0
   -4.2751    0.3849    1.1758 O   0  0  0  0  0  0  0  0  0  0  0  0
   -4.1983    0.2548   -1.3583 O   0  0  0  0  0  0  0  0  0  0  0  0
   -0.9499   -4.7157    2.6648 C   0  0  0  0  0  0  0  0  0  0  0  0
    0.2384   -6.1135    1.0921 C   0  0  0  0  0  0  0  0  0  0  0  0
   -3.0447    2.9350   -0.0289 C   0  0  0  0  0  0  0  0  0  0  0  0
   -0.5943   -5.9821    2.2032 C   0  0  0  0  0  0  0  0  0  0  0  0
   -1.7938   -2.1544    0.0238 H   0  0  0  0  0  0  0  0  0  0  0  0
    0.6901    2.1079   -0.0293 H   0  0  0  0  0  0  0  0  0  0  0  0
    2.5427   -0.8523   -0.1314 H   0  0  0  0  0  0  0  0  0  0  0  0
   -0.7365   -2.6022    2.4187 H   0  0  0  0  0  0  0  0  0  0  0  0
    1.3654   -5.0878   -0.4287 H   0  0  0  0  0  0  0  0  0  0  0  0
   -4.3201   -2.0141   -0.9090 H   0  0  0  0  0  0  0  0  0  0  0  0
   -1.5883   -4.6156    3.5398 H   0  0  0  0  0  0  0  0  0  0  0  0
    0.5285   -7.1024    0.7451 H   0  0  0  0  0  0  0  0  0  0  0  0
   -3.6075    2.5812   -0.8930 H   0  0  0  0  0  0  0  0  0  0  0  0
   -3.5036    2.6612    0.9218 H   0  0  0  0  0  0  0  0  0  0  0  0
   -3.0563    4.0291   -0.0784 H   0  0  0  0  0  0  0  0  0  0  0  0
   -0.9556   -6.8685    2.7199 H   0  0  0  0  0  0  0  0  0  0  0  0
  1  2  2  0  0  0  0
  1  3  1  0  0  0  0
  1  4  1  0  0  0  0
  2  5  1  0  0  0  0
  2 22  1  0  0  0  0
  3  6  1  0  0  0  0
  3  7  2  0  0  0  0
  4  8  2  0  0  0  0
  4  9  1  0  0  0  0
  5 10  2  0  0  0  0
  5 11  1  0  0  0  0
  6 12  2  0  0  0  0
  6 13  1  0  0  0  0
  8 10  1  0  0  0  0
  8 23  1  0  0  0  0
  9 24  1  0  0  0  0
 10 14  1  0  0  0  0
 11 15  1  0  0  0  0
 11 16  2  0  0  0  0
 11 17  2  0  0  0  0
 12 18  1  0  0  0  0
 12 25  1  0  0  0  0
 13 19  2  0  0  0  0
 13 26  1  0  0  0  0
 14 20  1  0  0  0  0
 15 27  1  0  0  0  0
 18 21  2  0  0  0  0
 18 28  1  0  0  0  0
 19 21  1  0  0  0  0
 19 29  1  0  0  0  0
 20 30  1  0  0  0  0
 20 31  1  0  0  0  0
 20 32  1  0  0  0  0
 21 33  1  0  0  0  0
M  END
>  <Mol_ID>
1549

>  <Formula>
C14H12O6S

>  <MolWeight>
308.30648

>  <Cat>
S4652

>  <Name>
Sulisobenzone

>  <Synonyms>
Benzophenone-4, Sungard

>  <Target>
Others

>  <Form>
free base

>  <CAS>
4065-45-6

>  <URL>
http://selleckchem.com/products/sulisobenzone.html

$$$$
