S4664 Molsidomine.cdx
 OpenBabel08302519503D

 31 32  0  0  0  0  0  0  0  0999 V2000
    1.0200   -0.9121   -0.3089 N   0  3  0  0  0  0  0  0  0  0  0  0
    2.1771   -1.6624    0.1304 N   0  0  0  0  0  0  0  0  0  0  0  0
   -0.2749   -1.3816   -0.2052 C   0  0  0  0  0  0  0  0  0  0  0  0
    1.1064    0.3356   -0.7231 N   0  0  0  0  0  0  0  0  0  0  0  0
    3.4811   -0.9880    0.0671 C   0  0  0  0  0  0  0  0  0  0  0  0
    2.2213   -3.0477   -0.3651 C   0  0  0  0  0  0  0  0  0  0  0  0
   -1.0545   -0.3550   -0.6890 C   0  0  0  0  0  0  0  0  0  0  0  0
   -0.2256    0.7071   -0.9755 O   0  0  0  0  0  0  0  0  0  0  0  0
    4.3015   -1.2751   -1.1948 C   0  0  0  0  0  0  0  0  0  0  0  0
    3.0347   -3.1927   -1.6530 C   0  0  0  0  0  0  0  0  0  0  0  0
   -2.3913   -0.2883   -0.8329 N   0  5  0  0  0  0  0  0  0  0  0  0
    4.3528   -2.6784   -1.4599 O   0  0  0  0  0  0  0  0  0  0  0  0
   -3.0592   -1.3977   -1.1735 C   0  0  0  0  0  0  0  0  0  0  0  0
   -4.3604   -1.0449   -1.4065 O   0  0  0  0  0  0  0  0  0  0  0  0
   -2.6327   -2.5393   -1.2967 O   0  0  0  0  0  0  0  0  0  0  0  0
   -5.2777   -2.0610   -1.8387 C   0  0  0  0  0  0  0  0  0  0  0  0
   -5.2805   -2.1619   -3.3528 C   0  0  0  0  0  0  0  0  0  0  0  0
   -0.5677   -2.3377    0.1925 H   0  0  0  0  0  0  0  0  0  0  0  0
    4.0597   -1.3553    0.9244 H   0  0  0  0  0  0  0  0  0  0  0  0
    3.4004    0.0939    0.2188 H   0  0  0  0  0  0  0  0  0  0  0  0
    2.6859   -3.6589    0.4172 H   0  0  0  0  0  0  0  0  0  0  0  0
    1.2250   -3.4669   -0.5294 H   0  0  0  0  0  0  0  0  0  0  0  0
    3.9029   -0.7556   -2.0731 H   0  0  0  0  0  0  0  0  0  0  0  0
    5.3340   -0.9366   -1.0492 H   0  0  0  0  0  0  0  0  0  0  0  0
    3.1267   -4.2516   -1.9155 H   0  0  0  0  0  0  0  0  0  0  0  0
    2.5614   -2.6785   -2.4980 H   0  0  0  0  0  0  0  0  0  0  0  0
   -5.0579   -3.0256   -1.3679 H   0  0  0  0  0  0  0  0  0  0  0  0
   -6.2741   -1.7555   -1.4991 H   0  0  0  0  0  0  0  0  0  0  0  0
   -4.2638   -2.2033   -3.7550 H   0  0  0  0  0  0  0  0  0  0  0  0
   -5.8312   -3.0493   -3.6806 H   0  0  0  0  0  0  0  0  0  0  0  0
   -5.7634   -1.2832   -3.7930 H   0  0  0  0  0  0  0  0  0  0  0  0
  1  2  1  0  0  0  0
  1  3  1  0  0  0  0
  1  4  2  0  0  0  0
  2  5  1  0  0  0  0
  2  6  1  0  0  0  0
  3  7  2  0  0  0  0
  3 18  1  0  0  0  0
  4  8  1  0  0  0  0
  5  9  1  0  0  0  0
  5 19  1  0  0  0  0
  5 20  1  0  0  0  0
  6 10  1  0  0  0  0
  6 21  1  0  0  0  0
  6 22  1  0  0  0  0
  7 11  1  0  0  0  0
  7  8  1  0  0  0  0
  9 12  1  0  0  0  0
  9 23  1  0  0  0  0
  9 24  1  0  0  0  0
 10 12  1  0  0  0  0
 10 25  1  0  0  0  0
 10 26  1  0  0  0  0
 11 13  1  0  0  0  0
 13 14  1  0  0  0  0
 13 15  2  0  0  0  0
 14 16  1  0  0  0  0
 16 17  1  0  0  0  0
 16 27  1  0  0  0  0
 16 28  1  0  0  0  0
 17 29  1  0  0  0  0
 17 30  1  0  0  0  0
 17 31  1  0  0  0  0
M  CHG  2   1   1  11  -1
M  END
>  <Mol_ID>
1569

>  <Formula>
C9H14N4O4

>  <MolWeight>
242.23186

>  <Cat>
S4664

>  <Name>
Molsidomine

>  <Synonyms>
SIN-10, Corvaton, Morsydomine

>  <Target>
Others

>  <Form>
inner salt

>  <CAS>
25717-80-0

>  <URL>
http://selleckchem.com/products/molsidomine.html

$$$$
