S4667 Lidocaine hydrochloride.cdx
 OpenBabel08302519503D

 39 39  0  0  0  0  0  0  0  0999 V2000
    1.3363   -0.9094    0.3372 C   0  0  0  0  0  0  0  0  0  0  0  0
    0.2495   -1.7639    0.4246 C   0  0  0  0  0  0  0  0  0  0  0  0
   -1.0351   -1.2383    0.3871 C   0  0  0  0  0  0  0  0  0  0  0  0
   -1.2681    0.1500    0.2620 C   0  0  0  0  0  0  0  0  0  0  0  0
   -0.1662    1.0334    0.2188 C   0  0  0  0  0  0  0  0  0  0  0  0
    1.1481    0.4809    0.2325 C   0  0  0  0  0  0  0  0  0  0  0  0
    2.3917    1.3340    0.1570 C   0  0  0  0  0  0  0  0  0  0  0  0
   -2.7115    0.5489    0.1408 C   0  0  0  0  0  0  0  0  0  0  0  0
   -0.2433    2.4441    0.1144 N   0  0  0  0  0  0  0  0  0  0  0  0
   -1.2661    3.3424    0.3399 C   0  0  0  0  0  0  0  0  0  0  0  0
   -0.8593    4.7896    0.0036 C   0  0  0  0  0  0  0  0  0  0  0  0
   -2.3590    3.1283    0.8527 O   0  0  0  0  0  0  0  0  0  0  0  0
    0.1986    4.8608   -1.0412 N   0  0  0  0  0  0  0  0  0  0  0  0
   -0.2719    4.3932   -2.3667 C   0  0  0  0  0  0  0  0  0  0  0  0
   -1.4785    5.0946   -2.9857 C   0  0  0  0  0  0  0  0  0  0  0  0
    0.7771    6.2127   -1.1330 C   0  0  0  0  0  0  0  0  0  0  0  0
    1.5689    6.6033    0.1140 C   0  0  0  0  0  0  0  0  0  0  0  0
    2.3374   -1.3329    0.3589 H   0  0  0  0  0  0  0  0  0  0  0  0
    0.3988   -2.8366    0.5114 H   0  0  0  0  0  0  0  0  0  0  0  0
   -1.8757   -1.9281    0.4414 H   0  0  0  0  0  0  0  0  0  0  0  0
    2.4284    1.8704   -0.7965 H   0  0  0  0  0  0  0  0  0  0  0  0
    2.4183    2.0456    0.9883 H   0  0  0  0  0  0  0  0  0  0  0  0
    3.3024    0.7277    0.2216 H   0  0  0  0  0  0  0  0  0  0  0  0
   -3.0818    0.9388    1.0919 H   0  0  0  0  0  0  0  0  0  0  0  0
   -2.8536    1.2618   -0.6769 H   0  0  0  0  0  0  0  0  0  0  0  0
   -3.3437   -0.3117   -0.1080 H   0  0  0  0  0  0  0  0  0  0  0  0
    0.6109    2.9255   -0.1537 H   0  0  0  0  0  0  0  0  0  0  0  0
   -1.7494    5.3623   -0.2758 H   0  0  0  0  0  0  0  0  0  0  0  0
   -0.4907    5.1950    0.9515 H   0  0  0  0  0  0  0  0  0  0  0  0
    0.5641    4.4558   -3.0756 H   0  0  0  0  0  0  0  0  0  0  0  0
   -0.4988    3.3228   -2.3133 H   0  0  0  0  0  0  0  0  0  0  0  0
   -1.2564    6.1348   -3.2393 H   0  0  0  0  0  0  0  0  0  0  0  0
   -1.7610    4.5803   -3.9112 H   0  0  0  0  0  0  0  0  0  0  0  0
   -2.3556    5.0700   -2.3331 H   0  0  0  0  0  0  0  0  0  0  0  0
    1.4845    6.2401   -1.9720 H   0  0  0  0  0  0  0  0  0  0  0  0
    0.0101    6.9703   -1.3336 H   0  0  0  0  0  0  0  0  0  0  0  0
    2.2232    5.7886    0.4427 H   0  0  0  0  0  0  0  0  0  0  0  0
    2.1998    7.4727   -0.0978 H   0  0  0  0  0  0  0  0  0  0  0  0
    0.9095    6.8750    0.9441 H   0  0  0  0  0  0  0  0  0  0  0  0
  1  2  2  0  0  0  0
  1 18  1  0  0  0  0
  2  3  1  0  0  0  0
  2 19  1  0  0  0  0
  3  4  2  0  0  0  0
  3 20  1  0  0  0  0
  4  5  1  0  0  0  0
  4  8  1  0  0  0  0
  5  6  2  0  0  0  0
  5  9  1  0  0  0  0
  6  1  1  0  0  0  0
  6  7  1  0  0  0  0
  7 21  1  0  0  0  0
  7 22  1  0  0  0  0
  7 23  1  0  0  0  0
  8 24  1  0  0  0  0
  8 25  1  0  0  0  0
  8 26  1  0  0  0  0
  9 10  1  0  0  0  0
  9 27  1  0  0  0  0
 10 11  1  0  0  0  0
 10 12  2  0  0  0  0
 11 13  1  0  0  0  0
 11 28  1  0  0  0  0
 11 29  1  0  0  0  0
 13 14  1  0  0  0  0
 13 16  1  0  0  0  0
 14 15  1  0  0  0  0
 14 30  1  0  0  0  0
 14 31  1  0  0  0  0
 15 32  1  0  0  0  0
 15 33  1  0  0  0  0
 15 34  1  0  0  0  0
 16 17  1  0  0  0  0
 16 35  1  0  0  0  0
 16 36  1  0  0  0  0
 17 37  1  0  0  0  0
 17 38  1  0  0  0  0
 17 39  1  0  0  0  0
M  END
>  <Mol_ID>
1586

>  <Formula>
C14H23ClN2O

>  <MolWeight>
270.79822

>  <Cat>
S4667

>  <Name>
Lidocaine hydrochloride

>  <Synonyms>
Lidocaine HCL, Lidothesin, Lignocaine hydrochloride, Xyloneural

>  <Target>
EGFR

>  <Form>
hydrochloride

>  <CAS>
73-78-9

>  <URL>
http://selleckchem.com/products/lidocaine-hydrochloride.html

$$$$
