S4669 Benzocaine hydrochloride.cdx
 OpenBabel08302519503D

 23 23  0  0  0  0  0  0  0  0999 V2000
    0.2915    1.3054   -0.1087 C   0  0  0  0  0  0  0  0  0  0  0  0
    1.0477    0.1453    0.0789 C   0  0  0  0  0  0  0  0  0  0  0  0
    0.3780   -1.0635    0.2750 C   0  0  0  0  0  0  0  0  0  0  0  0
   -1.0215   -1.1038    0.3602 C   0  0  0  0  0  0  0  0  0  0  0  0
   -1.7736    0.0658    0.2036 C   0  0  0  0  0  0  0  0  0  0  0  0
   -1.1061    1.2748   -0.0279 C   0  0  0  0  0  0  0  0  0  0  0  0
    2.4245    0.1606   -0.1650 N   0  0  0  0  0  0  0  0  0  0  0  0
   -3.2597   -0.0259    0.2728 C   0  0  0  0  0  0  0  0  0  0  0  0
   -3.8255    1.1838    0.0297 O   0  0  0  0  0  0  0  0  0  0  0  0
   -3.8599   -1.0603    0.5206 O   0  0  0  0  0  0  0  0  0  0  0  0
   -5.2529    1.2471    0.1498 C   0  0  0  0  0  0  0  0  0  0  0  0
   -5.9218    0.9364   -1.1764 C   0  0  0  0  0  0  0  0  0  0  0  0
    0.7845    2.2496   -0.3285 H   0  0  0  0  0  0  0  0  0  0  0  0
    0.9372   -1.9919    0.3589 H   0  0  0  0  0  0  0  0  0  0  0  0
   -1.5162   -2.0579    0.5303 H   0  0  0  0  0  0  0  0  0  0  0  0
   -1.6581    2.2009   -0.1661 H   0  0  0  0  0  0  0  0  0  0  0  0
    2.9325   -0.6117    0.2539 H   0  0  0  0  0  0  0  0  0  0  0  0
    2.8693    1.0564    0.0096 H   0  0  0  0  0  0  0  0  0  0  0  0
   -5.6116    0.5798    0.9412 H   0  0  0  0  0  0  0  0  0  0  0  0
   -5.5049    2.2684    0.4549 H   0  0  0  0  0  0  0  0  0  0  0  0
   -5.5544   -0.0026   -1.6011 H   0  0  0  0  0  0  0  0  0  0  0  0
   -7.0071    0.8688   -1.0528 H   0  0  0  0  0  0  0  0  0  0  0  0
   -5.7080    1.7242   -1.9065 H   0  0  0  0  0  0  0  0  0  0  0  0
  1  2  2  0  0  0  0
  1 13  1  0  0  0  0
  2  3  1  0  0  0  0
  2  7  1  0  0  0  0
  3  4  2  0  0  0  0
  3 14  1  0  0  0  0
  4  5  1  0  0  0  0
  4 15  1  0  0  0  0
  5  6  2  0  0  0  0
  5  8  1  0  0  0  0
  6  1  1  0  0  0  0
  6 16  1  0  0  0  0
  7 17  1  0  0  0  0
  7 18  1  0  0  0  0
  8  9  1  0  0  0  0
  8 10  2  0  0  0  0
  9 11  1  0  0  0  0
 11 12  1  0  0  0  0
 11 19  1  0  0  0  0
 11 20  1  0  0  0  0
 12 21  1  0  0  0  0
 12 22  1  0  0  0  0
 12 23  1  0  0  0  0
M  END
>  <Mol_ID>
1585

>  <Formula>
C9H12ClNO2

>  <MolWeight>
201.65008

>  <Cat>
S4669

>  <Name>
Benzocaine hydrochloride

>  <Synonyms>
Ethyl 4-aminobenzoate hydrochloride, Benzocaine HCl, Ethyl p-aminobenzoate hydrochloride

>  <Target>
Sodium Channel

>  <Form>
hydrochloride

>  <CAS>
23239-88-5

>  <URL>
http://selleckchem.com/products/benzocaine-hydrochloride.html

$$$$
