S4679 Terazosin.cdx
 OpenBabel08302519503D

 53 56  0  0  0  0  0  0  0  0999 V2000
    0.1519    0.6297    0.0295 C   0  0  0  0  0  0  0  0  0  0  0  0
    0.0052   -0.4573   -0.8199 C   0  0  0  0  0  0  0  0  0  0  0  0
   -0.8001    1.6829    0.0042 C   0  0  0  0  0  0  0  0  0  0  0  0
    1.2750    0.5706    0.8583 C   0  0  0  0  0  0  0  0  0  0  0  0
    0.8817   -1.4664   -0.8458 N   0  0  0  0  0  0  0  0  0  0  0  0
   -1.0903   -0.4752   -1.6717 C   0  0  0  0  0  0  0  0  0  0  0  0
   -1.9050    1.6544   -0.8556 C   0  0  0  0  0  0  0  0  0  0  0  0
    2.1533   -0.4424    0.8416 N   0  0  0  0  0  0  0  0  0  0  0  0
    1.5801    1.6083    1.7499 N   0  0  0  0  0  0  0  0  0  0  0  0
    1.9399   -1.4432   -0.0217 C   0  0  0  0  0  0  0  0  0  0  0  0
   -2.0491    0.5519   -1.7098 C   0  0  0  0  0  0  0  0  0  0  0  0
   -2.8419    2.6477   -0.9038 O   0  0  0  0  0  0  0  0  0  0  0  0
    2.8264   -2.4879   -0.0753 N   0  0  0  0  0  0  0  0  0  0  0  0
   -3.0330    0.3041   -2.6318 O   0  0  0  0  0  0  0  0  0  0  0  0
   -2.7171    3.7455   -0.0100 C   0  0  0  0  0  0  0  0  0  0  0  0
    3.9489   -2.6180    0.8564 C   0  0  0  0  0  0  0  0  0  0  0  0
    2.7654   -3.4532   -1.1720 C   0  0  0  0  0  0  0  0  0  0  0  0
   -4.0823    1.2468   -2.7939 C   0  0  0  0  0  0  0  0  0  0  0  0
    5.2907   -2.7387    0.1006 C   0  0  0  0  0  0  0  0  0  0  0  0
    4.1028   -3.4654   -1.9332 C   0  0  0  0  0  0  0  0  0  0  0  0
    5.2221   -3.6999   -1.0114 N   0  0  0  0  0  0  0  0  0  0  0  0
    6.1877   -4.6879   -1.1436 C   0  0  0  0  0  0  0  0  0  0  0  0
    6.0762   -5.6620   -2.3458 C   0  0  3  0  0  0  0  0  0  0  0  0
    7.0748   -4.8269   -0.2963 O   0  0  0  0  0  0  0  0  0  0  0  0
    7.2048   -6.6871   -2.3773 C   0  0  0  0  0  0  0  0  0  0  0  0
    6.0888   -5.0059   -3.6221 O   0  0  0  0  0  0  0  0  0  0  0  0
    7.3642   -6.9904   -3.8439 C   0  0  0  0  0  0  0  0  0  0  0  0
    6.9959   -5.6809   -4.4983 C   0  0  0  0  0  0  0  0  0  0  0  0
   -0.6365    2.5249    0.6697 H   0  0  0  0  0  0  0  0  0  0  0  0
   -1.2078   -1.3273   -2.3396 H   0  0  0  0  0  0  0  0  0  0  0  0
    0.8053    1.8114    2.3698 H   0  0  0  0  0  0  0  0  0  0  0  0
    2.4074    1.3182    2.2664 H   0  0  0  0  0  0  0  0  0  0  0  0
   -2.7661    3.4137    1.0322 H   0  0  0  0  0  0  0  0  0  0  0  0
   -1.8009    4.3114   -0.2065 H   0  0  0  0  0  0  0  0  0  0  0  0
   -3.5649    4.4148   -0.1852 H   0  0  0  0  0  0  0  0  0  0  0  0
    4.0191   -1.7922    1.5729 H   0  0  0  0  0  0  0  0  0  0  0  0
    3.7932   -3.5304    1.4463 H   0  0  0  0  0  0  0  0  0  0  0  0
    2.5810   -4.4485   -0.7489 H   0  0  0  0  0  0  0  0  0  0  0  0
    1.9624   -3.2607   -1.8909 H   0  0  0  0  0  0  0  0  0  0  0  0
   -4.6721    1.3452   -1.8772 H   0  0  0  0  0  0  0  0  0  0  0  0
   -3.7016    2.2104   -3.1467 H   0  0  0  0  0  0  0  0  0  0  0  0
   -4.7540    0.8642   -3.5688 H   0  0  0  0  0  0  0  0  0  0  0  0
    5.5575   -1.7689   -0.3366 H   0  0  0  0  0  0  0  0  0  0  0  0
    6.0834   -3.0057    0.8076 H   0  0  0  0  0  0  0  0  0  0  0  0
    4.2787   -2.4910   -2.4061 H   0  0  0  0  0  0  0  0  0  0  0  0
    4.0489   -4.2143   -2.7217 H   0  0  0  0  0  0  0  0  0  0  0  0
    5.1183   -6.1898   -2.2567 H   0  0  0  0  0  0  0  0  0  0  0  0
    8.1417   -6.2730   -1.9883 H   0  0  0  0  0  0  0  0  0  0  0  0
    6.9688   -7.5779   -1.7863 H   0  0  0  0  0  0  0  0  0  0  0  0
    8.3721   -7.3229   -4.1093 H   0  0  0  0  0  0  0  0  0  0  0  0
    6.6608   -7.7747   -4.1447 H   0  0  0  0  0  0  0  0  0  0  0  0
    7.8720   -5.0400   -4.6383 H   0  0  0  0  0  0  0  0  0  0  0  0
    6.5182   -5.8294   -5.4716 H   0  0  0  0  0  0  0  0  0  0  0  0
  1  2  1  0  0  0  0
  1  3  2  0  0  0  0
  1  4  1  0  0  0  0
  2  5  1  0  0  0  0
  2  6  2  0  0  0  0
  3  7  1  0  0  0  0
  3 29  1  0  0  0  0
  4  8  2  0  0  0  0
  4  9  1  0  0  0  0
  5 10  2  0  0  0  0
  6 11  1  0  0  0  0
  6 30  1  0  0  0  0
  7 12  1  0  0  0  0
  7 11  2  0  0  0  0
  8 10  1  0  0  0  0
  9 31  1  0  0  0  0
  9 32  1  0  0  0  0
 10 13  1  0  0  0  0
 11 14  1  0  0  0  0
 12 15  1  0  0  0  0
 13 16  1  0  0  0  0
 13 17  1  0  0  0  0
 14 18  1  0  0  0  0
 15 33  1  0  0  0  0
 15 34  1  0  0  0  0
 15 35  1  0  0  0  0
 16 19  1  0  0  0  0
 16 36  1  0  0  0  0
 16 37  1  0  0  0  0
 17 20  1  0  0  0  0
 17 38  1  0  0  0  0
 17 39  1  0  0  0  0
 18 40  1  0  0  0  0
 18 41  1  0  0  0  0
 18 42  1  0  0  0  0
 19 21  1  0  0  0  0
 19 43  1  0  0  0  0
 19 44  1  0  0  0  0
 20 21  1  0  0  0  0
 20 45  1  0  0  0  0
 20 46  1  0  0  0  0
 21 22  1  0  0  0  0
 22 23  1  0  0  0  0
 22 24  2  0  0  0  0
 23 25  1  0  0  0  0
 23 26  1  0  0  0  0
 23 47  1  0  0  0  0
 25 27  1  0  0  0  0
 25 48  1  0  0  0  0
 25 49  1  0  0  0  0
 26 28  1  0  0  0  0
 27 28  1  0  0  0  0
 27 50  1  0  0  0  0
 27 51  1  0  0  0  0
 28 52  1  0  0  0  0
 28 53  1  0  0  0  0
M  END
>  <Mol_ID>
1563

>  <Formula>
C19H26ClN5O4

>  <MolWeight>
423.89384

>  <Cat>
S4679

>  <Name>
Terazosin HCl

>  <Synonyms>
Hytrin, Zayasel, Terazosine, Flumarc, Fosfomic, Blavin

>  <Target>
Adrenergic Receptor

>  <Form>
hydrochloride

>  <CAS>
63074-08-8

>  <URL>
http://selleckchem.com/products/terazosin.html

$$$$
