S4673 Etonogestrel.cdx
 OpenBabel08302520002D

 52 55  0  0  0  0  0  0  0  0999 V2000
    7.3104    4.1694    0.0000 C   0  0  1  0  0  0  0  0  0  0  0  0
    7.3104    2.7391    0.0000 C   0  0  2  0  0  0  0  0  0  0  0  0
    8.6471    4.5855    0.0000 C   0  0  1  0  0  0  0  0  0  0  0  0
    6.0856    4.8845    0.0000 C   0  0  0  0  0  0  0  0  0  0  0  0
    7.3104    5.6885    0.0000 C   0  0  0  0  0  0  0  0  0  0  0  0
    6.0529    2.0614    0.0000 C   0  0  1  0  0  0  0  0  0  0  0  0
    8.6098    2.3230    0.0000 C   0  0  0  0  0  0  0  0  0  0  0  0
    9.4043    3.4963    0.0000 C   0  0  0  0  0  0  0  0  0  0  0  0
   10.0446    4.9079    0.0000 C   0  0  0  0  0  0  0  0  0  0  0  0
    8.6330    5.9596    0.0000 O   0  0  0  0  0  0  0  0  0  0  0  0
    4.8657    4.2069    0.0000 C   0  0  0  0  0  0  0  0  0  0  0  0
    6.1136    6.3757    0.0000 C   0  0  0  0  0  0  0  0  0  0  0  0
    4.8657    2.7858    0.0000 C   0  0  2  0  0  0  0  0  0  0  0  0
    6.0529    0.6405    0.0000 C   0  0  0  0  0  0  0  0  0  0  0  0
   11.5963    5.3099    0.0000 C   0  0  0  0  0  0  0  0  0  0  0  0
    3.6925    4.9313    0.0000 C   0  0  0  0  0  0  0  0  0  0  0  0
    3.6131    2.0614    0.0000 C   0  0  2  0  0  0  0  0  0  0  0  0
    4.8329    0.0000    0.0000 C   0  0  0  0  0  0  0  0  0  0  0  0
    3.6131    0.6778    0.0000 C   0  0  0  0  0  0  0  0  0  0  0  0
    2.4257    2.7858    0.0000 C   0  0  0  0  0  0  0  0  0  0  0  0
    2.3931    0.0000    0.0000 C   0  0  0  0  0  0  0  0  0  0  0  0
    1.2198    2.0614    0.0000 C   0  0  0  0  0  0  0  0  0  0  0  0
    1.2198    0.7246    0.0000 C   0  0  0  0  0  0  0  0  0  0  0  0
    0.0000    0.0703    0.0000 O   0  0  0  0  0  0  0  0  0  0  0  0
    8.1747    3.3699    0.0000 H   0  0  0  0  0  0  0  0  0  0  0  0
    6.0971    5.9544    0.0000 H   0  0  0  0  0  0  0  0  0  0  0  0
    5.1663    5.4321    0.0000 H   0  0  0  0  0  0  0  0  0  0  0  0
    8.2364    6.2246    0.0000 H   0  0  0  0  0  0  0  0  0  0  0  0
    7.3085    6.7585    0.0000 H   0  0  0  0  0  0  0  0  0  0  0  0
    6.9716    1.5129    0.0000 H   0  0  0  0  0  0  0  0  0  0  0  0
    8.9594    1.3117    0.0000 H   0  0  0  0  0  0  0  0  0  0  0  0
    9.6706    2.1830    0.0000 H   0  0  0  0  0  0  0  0  0  0  0  0
   10.4743    3.5029    0.0000 H   0  0  0  0  0  0  0  0  0  0  0  0
    9.9087    2.5526    0.0000 H   0  0  0  0  0  0  0  0  0  0  0  0
    9.4680    6.4532    0.0000 H   0  0  0  0  0  0  0  0  0  0  0  0
    6.1111    7.4457    0.0000 H   0  0  0  0  0  0  0  0  0  0  0  0
    5.1882    5.8385    0.0000 H   0  0  0  0  0  0  0  0  0  0  0  0
    5.1857    6.9085    0.0000 H   0  0  0  0  0  0  0  0  0  0  0  0
    5.7988    3.3095    0.0000 H   0  0  0  0  0  0  0  0  0  0  0  0
    6.9686    0.0870    0.0000 H   0  0  0  0  0  0  0  0  0  0  0  0
    6.0207   -0.4290    0.0000 H   0  0  0  0  0  0  0  0  0  0  0  0
   12.5585    5.5592    0.0000 H   0  0  0  0  0  0  0  0  0  0  0  0
    3.7230    5.9628    0.0000 H   0  0  0  0  0  0  0  0  0  0  0  0
    2.7839    4.4419    0.0000 H   0  0  0  0  0  0  0  0  0  0  0  0
    3.6257    3.1313    0.0000 H   0  0  0  0  0  0  0  0  0  0  0  0
    4.8202   -1.0699    0.0000 H   0  0  0  0  0  0  0  0  0  0  0  0
    3.9075   -0.5371    0.0000 H   0  0  0  0  0  0  0  0  0  0  0  0
    2.4294    3.8558    0.0000 H   0  0  0  0  0  0  0  0  0  0  0  0
    1.4954    3.3143    0.0000 H   0  0  0  0  0  0  0  0  0  0  0  0
    2.3693   -1.0317    0.0000 H   0  0  0  0  0  0  0  0  0  0  0  0
    0.2885    2.5883    0.0000 H   0  0  0  0  0  0  0  0  0  0  0  0
    0.2955    1.5224    0.0000 H   0  0  0  0  0  0  0  0  0  0  0  0
  1  2  1  0  0  0  0
  1  3  1  0  0  0  0
  1  4  1  0  0  0  0
  1  5  1  1  0  0  0
  2  6  1  0  0  0  0
  2  7  1  0  0  0  0
  2 25  1  6  0  0  0
  3  8  1  0  0  0  0
  3  9  1  6  0  0  0
  3 10  1  0  0  0  0
  4 11  1  0  0  0  0
  4 26  1  0  0  0  0
  4 27  1  0  0  0  0
  5 12  1  0  0  0  0
  5 28  1  0  0  0  0
  5 29  1  0  0  0  0
  6 13  1  0  0  0  0
  6 14  1  0  0  0  0
  6 30  1  1  0  0  0
  7  8  1  0  0  0  0
  7 31  1  0  0  0  0
  7 32  1  0  0  0  0
  8 33  1  0  0  0  0
  8 34  1  0  0  0  0
  9 15  3  0  0  0  0
 10 35  1  0  0  0  0
 11 16  2  0  0  0  0
 12 36  1  0  0  0  0
 12 37  1  0  0  0  0
 12 38  1  0  0  0  0
 13 11  1  0  0  0  0
 13 17  1  0  0  0  0
 13 39  1  6  0  0  0
 14 18  1  0  0  0  0
 14 40  1  0  0  0  0
 14 41  1  0  0  0  0
 15 42  1  0  0  0  0
 16 43  1  0  0  0  0
 16 44  1  0  0  0  0
 17 19  1  0  0  0  0
 17 20  1  0  0  0  0
 17 45  1  1  0  0  0
 18 19  1  0  0  0  0
 18 46  1  0  0  0  0
 18 47  1  0  0  0  0
 19 21  2  0  0  0  0
 20 22  1  0  0  0  0
 20 48  1  0  0  0  0
 20 49  1  0  0  0  0
 21 23  1  0  0  0  0
 21 50  1  0  0  0  0
 22 23  1  0  0  0  0
 22 51  1  0  0  0  0
 22 52  1  0  0  0  0
 23 24  2  0  0  0  0
M  END
>  <Mol_ID>
1592

>  <Formula>
C22H28O2

>  <MolWeight>
324.45652

>  <Cat>
S4673

>  <Name>
Etonogestrel

>  <Synonyms>
Implanon, Nexplanon, 3-Oxodesogestrel, 3-keto-Desogestrel

>  <Target>
Estrogen/progestogen Receptor

>  <Form>
free base

>  <CAS>
54048-10-1

>  <URL>
http://selleckchem.com/products/etonogestrel.html

$$$$
