S4684 Sildenafil.cdx
 OpenBabel08302520433D

 63 66  0  0  0  0  0  0  0  0999 V2000
    1.3555   -0.2778    0.2966 C   0  0  0  0  0  0  0  0  0  0  0  0
    0.5375   -1.3973    0.1406 C   0  0  0  0  0  0  0  0  0  0  0  0
   -0.8451   -1.2353    0.0413 C   0  0  0  0  0  0  0  0  0  0  0  0
   -1.4192    0.0412    0.0949 C   0  0  0  0  0  0  0  0  0  0  0  0
   -0.5994    1.1687    0.3280 C   0  0  0  0  0  0  0  0  0  0  0  0
    0.7963    1.0027    0.4131 C   0  0  0  0  0  0  0  0  0  0  0  0
    3.1250   -0.4906    0.4125 S   0  0  0  0  0  0  0  0  0  0  0  0
    3.7005    0.4242   -0.8946 N   0  0  0  0  0  0  0  0  0  0  0  0
    3.5290    0.1436    1.6472 O   0  0  0  0  0  0  0  0  0  0  0  0
    3.4231   -1.8849    0.1534 O   0  0  0  0  0  0  0  0  0  0  0  0
    3.4896   -0.1269   -2.2670 C   0  0  0  0  0  0  0  0  0  0  0  0
    4.5983   -1.1187   -2.6920 C   0  0  0  0  0  0  0  0  0  0  0  0
    5.9767   -0.6271   -2.4864 N   0  0  0  0  0  0  0  0  0  0  0  0
    6.1467   -0.1006   -1.1168 C   0  0  0  0  0  0  0  0  0  0  0  0
    5.0889    0.9560   -0.7565 C   0  0  0  0  0  0  0  0  0  0  0  0
    6.9391   -1.7064   -2.7300 C   0  0  0  0  0  0  0  0  0  0  0  0
   -2.7778    0.2276   -0.0172 O   0  0  0  0  0  0  0  0  0  0  0  0
   -1.1684    2.5509    0.4877 C   0  0  0  0  0  0  0  0  0  0  0  0
   -0.4437    3.6038    0.2208 N   0  0  0  0  0  0  0  0  0  0  0  0
   -1.1215    4.8149    0.4146 C   0  0  0  0  0  0  0  0  0  0  0  0
   -2.4149    4.8979    0.8344 C   0  0  0  0  0  0  0  0  0  0  0  0
   -3.2055    3.7595    1.1196 C   0  0  0  0  0  0  0  0  0  0  0  0
   -2.4830    2.6051    0.9472 N   0  0  0  0  0  0  0  0  0  0  0  0
   -4.3778    3.7698    1.4697 O   0  0  0  0  0  0  0  0  0  0  0  0
   -0.6630    6.1408    0.3042 C   0  0  0  0  0  0  0  0  0  0  0  0
   -1.6454    7.0141    0.5989 N   0  0  0  0  0  0  0  0  0  0  0  0
   -2.6980    6.2232    0.9213 N   0  0  0  0  0  0  0  0  0  0  0  0
   -3.9419    6.8201    1.3500 C   0  0  0  0  0  0  0  0  0  0  0  0
    0.7047    6.6222   -0.0300 C   0  0  0  0  0  0  0  0  0  0  0  0
    1.5980    6.7892    1.2033 C   0  0  0  0  0  0  0  0  0  0  0  0
    1.8417    5.4880    1.9574 C   0  0  0  0  0  0  0  0  0  0  0  0
   -3.4458   -0.6307   -0.9500 C   0  0  0  0  0  0  0  0  0  0  0  0
   -4.8531   -0.1033   -1.1741 C   0  0  0  0  0  0  0  0  0  0  0  0
    0.9614   -2.3991    0.1092 H   0  0  0  0  0  0  0  0  0  0  0  0
   -1.4580   -2.1266   -0.0542 H   0  0  0  0  0  0  0  0  0  0  0  0
    1.4442    1.8607    0.5891 H   0  0  0  0  0  0  0  0  0  0  0  0
    3.4638    0.7206   -2.9633 H   0  0  0  0  0  0  0  0  0  0  0  0
    2.5109   -0.6128   -2.3395 H   0  0  0  0  0  0  0  0  0  0  0  0
    4.4631   -1.3261   -3.7615 H   0  0  0  0  0  0  0  0  0  0  0  0
    4.4533   -2.0695   -2.1670 H   0  0  0  0  0  0  0  0  0  0  0  0
    6.1169   -0.9143   -0.3816 H   0  0  0  0  0  0  0  0  0  0  0  0
    7.1344    0.3718   -1.0410 H   0  0  0  0  0  0  0  0  0  0  0  0
    5.1843    1.8244   -1.4209 H   0  0  0  0  0  0  0  0  0  0  0  0
    5.2599    1.3345    0.2562 H   0  0  0  0  0  0  0  0  0  0  0  0
    7.9667   -1.3359   -2.6437 H   0  0  0  0  0  0  0  0  0  0  0  0
    6.8153   -2.5366   -2.0239 H   0  0  0  0  0  0  0  0  0  0  0  0
    6.8290   -2.1035   -3.7451 H   0  0  0  0  0  0  0  0  0  0  0  0
   -2.9952    1.7475    1.1020 H   0  0  0  0  0  0  0  0  0  0  0  0
   -4.7294    6.5157    0.6564 H   0  0  0  0  0  0  0  0  0  0  0  0
   -4.1592    6.4707    2.3626 H   0  0  0  0  0  0  0  0  0  0  0  0
   -3.8461    7.9090    1.3489 H   0  0  0  0  0  0  0  0  0  0  0  0
    1.1774    5.9351   -0.7420 H   0  0  0  0  0  0  0  0  0  0  0  0
    0.6321    7.5905   -0.5426 H   0  0  0  0  0  0  0  0  0  0  0  0
    2.5646    7.1924    0.8794 H   0  0  0  0  0  0  0  0  0  0  0  0
    1.1601    7.5234    1.8907 H   0  0  0  0  0  0  0  0  0  0  0  0
    2.1653    4.6916    1.2799 H   0  0  0  0  0  0  0  0  0  0  0  0
    2.6190    5.6286    2.7143 H   0  0  0  0  0  0  0  0  0  0  0  0
    0.9375    5.1558    2.4777 H   0  0  0  0  0  0  0  0  0  0  0  0
   -2.9103   -0.6510   -1.9070 H   0  0  0  0  0  0  0  0  0  0  0  0
   -3.5193   -1.6425   -0.5395 H   0  0  0  0  0  0  0  0  0  0  0  0
   -4.8301    0.9010   -1.6093 H   0  0  0  0  0  0  0  0  0  0  0  0
   -5.4098   -0.7640   -1.8458 H   0  0  0  0  0  0  0  0  0  0  0  0
   -5.3947   -0.0295   -0.2253 H   0  0  0  0  0  0  0  0  0  0  0  0
  1  2  2  0  0  0  0
  1  7  1  0  0  0  0
  2  3  1  0  0  0  0
  2 34  1  0  0  0  0
  3  4  2  0  0  0  0
  3 35  1  0  0  0  0
  4  5  1  0  0  0  0
  4 17  1  0  0  0  0
  5  6  2  0  0  0  0
  5 18  1  0  0  0  0
  6  1  1  0  0  0  0
  6 36  1  0  0  0  0
  7  8  1  0  0  0  0
  7  9  2  0  0  0  0
  7 10  2  0  0  0  0
  8 11  1  0  0  0  0
 11 12  1  0  0  0  0
 11 37  1  0  0  0  0
 11 38  1  0  0  0  0
 12 13  1  0  0  0  0
 12 39  1  0  0  0  0
 12 40  1  0  0  0  0
 13 14  1  0  0  0  0
 13 16  1  0  0  0  0
 14 15  1  0  0  0  0
 14 41  1  0  0  0  0
 14 42  1  0  0  0  0
 15  8  1  0  0  0  0
 15 43  1  0  0  0  0
 15 44  1  0  0  0  0
 16 45  1  0  0  0  0
 16 46  1  0  0  0  0
 16 47  1  0  0  0  0
 17 32  1  0  0  0  0
 19 20  1  0  0  0  0
 19 18  2  0  0  0  0
 20 21  2  0  0  0  0
 20 25  1  0  0  0  0
 21 22  1  0  0  0  0
 22 23  1  0  0  0  0
 22 24  2  0  0  0  0
 23 18  1  0  0  0  0
 23 48  1  0  0  0  0
 25 26  2  0  0  0  0
 25 29  1  0  0  0  0
 26 27  1  0  0  0  0
 27 21  1  0  0  0  0
 27 28  1  0  0  0  0
 28 49  1  0  0  0  0
 28 50  1  0  0  0  0
 28 51  1  0  0  0  0
 29 30  1  0  0  0  0
 29 52  1  0  0  0  0
 29 53  1  0  0  0  0
 30 31  1  0  0  0  0
 30 54  1  0  0  0  0
 30 55  1  0  0  0  0
 31 56  1  0  0  0  0
 31 57  1  0  0  0  0
 31 58  1  0  0  0  0
 32 33  1  0  0  0  0
 32 59  1  0  0  0  0
 32 60  1  0  0  0  0
 33 61  1  0  0  0  0
 33 62  1  0  0  0  0
 33 63  1  0  0  0  0
M  END
>  <Mol_ID>
4047

>  <Formula>
C22H30N6O4S

>  <MolWeight>
474.5764

>  <Cat>
S4684

>  <Name>
Sildenafil

>  <Synonyms>
Revatio, UK-92480, Viagra

>  <Target>
PDE

>  <Form>
free base

>  <CAS>
139755-83-2

>  <URL>
http://selleckchem.com/products/sildenafil.html

$$$$
