S4682 Loxoprofen.cdx
 OpenBabel08302519503D

 36 37  0  0  0  0  0  0  0  0999 V2000
    1.3604   -0.2129    0.1865 C   0  0  0  0  0  0  0  0  0  0  0  0
    2.8473   -0.4608    0.2114 C   0  0  0  0  0  0  0  0  0  0  0  0
    0.4565   -1.2717    0.0451 C   0  0  0  0  0  0  0  0  0  0  0  0
    0.8664    1.0930    0.2638 C   0  0  0  0  0  0  0  0  0  0  0  0
    3.5462   -0.4079   -1.1534 C   0  0  3  0  0  0  0  0  0  0  0  0
   -0.9104   -1.0227   -0.0751 C   0  0  0  0  0  0  0  0  0  0  0  0
   -0.4996    1.3427    0.1561 C   0  0  0  0  0  0  0  0  0  0  0  0
    3.3543    0.9210   -1.8468 C   0  0  0  0  0  0  0  0  0  0  0  0
    3.0587   -1.4032   -2.2098 C   0  0  0  0  0  0  0  0  0  0  0  0
   -1.4047    0.2903   -0.0454 C   0  0  0  0  0  0  0  0  0  0  0  0
    2.5723    0.8090   -3.1264 C   0  0  0  0  0  0  0  0  0  0  0  0
    3.7954    1.9798   -1.4142 O   0  0  0  0  0  0  0  0  0  0  0  0
    2.1231   -0.6444   -3.1442 C   0  0  0  0  0  0  0  0  0  0  0  0
   -2.9014    0.5313   -0.1795 C   0  0  3  0  0  0  0  0  0  0  0  0
   -3.6651    0.6195    1.1389 C   0  0  0  0  0  0  0  0  0  0  0  0
   -3.2137    1.7595   -1.0423 C   0  0  0  0  0  0  0  0  0  0  0  0
   -2.9581    0.3831    2.2706 O   0  0  0  0  0  0  0  0  0  0  0  0
   -4.8635    0.8612    1.1954 O   0  0  0  0  0  0  0  0  0  0  0  0
    3.3084    0.2813    0.8773 H   0  0  0  0  0  0  0  0  0  0  0  0
    3.0424   -1.4332    0.6811 H   0  0  0  0  0  0  0  0  0  0  0  0
    0.8143   -2.2989    0.0021 H   0  0  0  0  0  0  0  0  0  0  0  0
    1.5494    1.9335    0.3905 H   0  0  0  0  0  0  0  0  0  0  0  0
    4.6218   -0.5610   -1.0020 H   0  0  0  0  0  0  0  0  0  0  0  0
   -1.5868   -1.8671   -0.2049 H   0  0  0  0  0  0  0  0  0  0  0  0
   -0.8370    2.3757    0.2221 H   0  0  0  0  0  0  0  0  0  0  0  0
    3.9195   -1.7640   -2.7854 H   0  0  0  0  0  0  0  0  0  0  0  0
    2.5786   -2.2876   -1.7790 H   0  0  0  0  0  0  0  0  0  0  0  0
    1.7146    1.4879   -3.1109 H   0  0  0  0  0  0  0  0  0  0  0  0
    3.2263    1.0381   -3.9703 H   0  0  0  0  0  0  0  0  0  0  0  0
    2.1538   -1.0566   -4.1592 H   0  0  0  0  0  0  0  0  0  0  0  0
    1.0866   -0.7235   -2.8031 H   0  0  0  0  0  0  0  0  0  0  0  0
   -3.3230   -0.3397   -0.7008 H   0  0  0  0  0  0  0  0  0  0  0  0
   -2.7104    1.6935   -2.0159 H   0  0  0  0  0  0  0  0  0  0  0  0
   -4.2877    1.8472   -1.2279 H   0  0  0  0  0  0  0  0  0  0  0  0
   -2.8998    2.6917   -0.5600 H   0  0  0  0  0  0  0  0  0  0  0  0
   -2.0084    0.1927    2.1385 H   0  0  0  0  0  0  0  0  0  0  0  0
  1  2  1  0  0  0  0
  1  3  2  0  0  0  0
  1  4  1  0  0  0  0
  2  5  1  0  0  0  0
  2 19  1  0  0  0  0
  2 20  1  0  0  0  0
  3  6  1  0  0  0  0
  3 21  1  0  0  0  0
  4  7  2  0  0  0  0
  4 22  1  0  0  0  0
  5  8  1  0  0  0  0
  5  9  1  0  0  0  0
  5 23  1  0  0  0  0
  6 10  2  0  0  0  0
  6 24  1  0  0  0  0
  7 10  1  0  0  0  0
  7 25  1  0  0  0  0
  8 11  1  0  0  0  0
  8 12  2  0  0  0  0
  9 13  1  0  0  0  0
  9 26  1  0  0  0  0
  9 27  1  0  0  0  0
 10 14  1  0  0  0  0
 11 13  1  0  0  0  0
 11 28  1  0  0  0  0
 11 29  1  0  0  0  0
 13 30  1  0  0  0  0
 13 31  1  0  0  0  0
 14 15  1  0  0  0  0
 14 16  1  0  0  0  0
 14 32  1  0  0  0  0
 15 17  1  0  0  0  0
 15 18  2  0  0  0  0
 16 33  1  0  0  0  0
 16 34  1  0  0  0  0
 16 35  1  0  0  0  0
 17 36  1  0  0  0  0
M  END
>  <Mol_ID>
1579

>  <Formula>
C15H18O3

>  <MolWeight>
246.30162

>  <Cat>
S4682

>  <Name>
Loxoprofen

>  <Synonyms>
Koloxo, Loxoprofene, Loxoprofeno

>  <Target>
Immunology & Inflammation related

>  <Form>
free base

>  <CAS>
68767-14-6

>  <URL>
http://selleckchem.com/products/loxoprofen.html

$$$$
