S4689 Deoxycholic acid.cdx
 OpenBabel08302519503D

 68 71  0  0  0  0  0  0  0  0999 V2000
   -3.8601    0.3491   -0.7306 C   0  0  2  0  0  0  0  0  0  0  0  0
   -3.1368    1.5068   -0.0537 C   0  0  0  0  0  0  0  0  0  0  0  0
   -2.5638    1.0696    1.2894 C   0  0  0  0  0  0  0  0  0  0  0  0
   -2.9474   -0.8616   -0.8924 C   0  0  0  0  0  0  0  0  0  0  0  0
   -2.3194   -1.3119    0.4442 C   0  0  1  0  0  0  0  0  0  0  0  0
   -1.3973   -2.5193    0.2064 C   0  0  0  0  0  0  0  0  0  0  0  0
   -0.1065   -2.1527   -0.5222 C   0  0  0  0  0  0  0  0  0  0  0  0
    0.6419   -1.0193    0.1918 C   0  0  1  0  0  0  0  0  0  0  0  0
    1.8853   -0.5694   -0.5873 C   0  0  2  0  0  0  0  0  0  0  0  0
    2.9250   -1.6061   -0.9838 C   0  0  0  0  0  0  0  0  0  0  0  0
    4.1192   -0.7456   -1.4226 C   0  0  0  0  0  0  0  0  0  0  0  0
    3.9523    0.6421   -0.7440 C   0  0  2  0  0  0  0  0  0  0  0  0
    5.2640    1.2971   -0.1910 C   0  0  1  0  0  0  0  0  0  0  0  0
    6.1005    0.4398    0.7940 C   0  0  0  0  0  0  0  0  0  0  0  0
    7.3792    1.1041    1.3176 C   0  0  0  0  0  0  0  0  0  0  0  0
    8.0119    0.2825    2.4168 C   0  0  0  0  0  0  0  0  0  0  0  0
    6.1227    1.7454   -1.3884 C   0  0  0  0  0  0  0  0  0  0  0  0
    2.7095    0.4883    0.1937 C   0  0  2  0  0  0  0  0  0  0  0  0
    3.0907    0.0026    1.6112 C   0  0  0  0  0  0  0  0  0  0  0  0
    1.8387    1.7575    0.3435 C   0  0  2  0  0  0  0  0  0  0  0  0
    0.4953    1.4379    1.0304 C   0  0  0  0  0  0  0  0  0  0  0  0
   -0.2728    0.2273    0.4178 C   0  0  2  0  0  0  0  0  0  0  0  0
   -1.5923   -0.1424    1.1902 C   0  0  1  0  0  0  0  0  0  0  0  0
   -1.2848   -0.5750    2.6486 C   0  0  0  0  0  0  0  0  0  0  0  0
    7.4637   -0.5188    3.1495 O   0  0  0  0  0  0  0  0  0  0  0  0
    9.3247    0.5503    2.5499 O   0  0  0  0  0  0  0  0  0  0  0  0
    1.5790    2.3923   -0.9101 O   0  0  0  0  0  0  0  0  0  0  0  0
   -4.3368    0.7608   -2.0060 O   0  0  0  0  0  0  0  0  0  0  0  0
   -4.7350    0.0677   -0.1331 H   0  0  0  0  0  0  0  0  0  0  0  0
   -2.3483    1.9019   -0.7073 H   0  0  0  0  0  0  0  0  0  0  0  0
   -3.8332    2.3405    0.0908 H   0  0  0  0  0  0  0  0  0  0  0  0
   -2.0821    1.9243    1.7768 H   0  0  0  0  0  0  0  0  0  0  0  0
   -3.4061    0.8015    1.9431 H   0  0  0  0  0  0  0  0  0  0  0  0
   -3.5239   -1.6874   -1.3293 H   0  0  0  0  0  0  0  0  0  0  0  0
   -2.1777   -0.6310   -1.6376 H   0  0  0  0  0  0  0  0  0  0  0  0
   -3.1491   -1.6567    1.0781 H   0  0  0  0  0  0  0  0  0  0  0  0
   -1.1467   -2.9843    1.1668 H   0  0  0  0  0  0  0  0  0  0  0  0
   -1.9307   -3.2889   -0.3694 H   0  0  0  0  0  0  0  0  0  0  0  0
    0.5281   -3.0455   -0.5686 H   0  0  0  0  0  0  0  0  0  0  0  0
   -0.3222   -1.8742   -1.5585 H   0  0  0  0  0  0  0  0  0  0  0  0
    0.9506   -1.4308    1.1554 H   0  0  0  0  0  0  0  0  0  0  0  0
    1.5307   -0.1360   -1.5349 H   0  0  0  0  0  0  0  0  0  0  0  0
    3.2007   -2.2489   -0.1420 H   0  0  0  0  0  0  0  0  0  0  0  0
    2.5808   -2.2527   -1.7980 H   0  0  0  0  0  0  0  0  0  0  0  0
    5.0632   -1.2486   -1.2101 H   0  0  0  0  0  0  0  0  0  0  0  0
    4.0746   -0.6077   -2.5126 H   0  0  0  0  0  0  0  0  0  0  0  0
    3.6315    1.3082   -1.5583 H   0  0  0  0  0  0  0  0  0  0  0  0
    4.9672    2.2105    0.3422 H   0  0  0  0  0  0  0  0  0  0  0  0
    5.5101    0.2142    1.6790 H   0  0  0  0  0  0  0  0  0  0  0  0
    6.3614   -0.5261    0.3502 H   0  0  0  0  0  0  0  0  0  0  0  0
    8.1122    1.1952    0.5090 H   0  0  0  0  0  0  0  0  0  0  0  0
    7.1632    2.0981    1.7231 H   0  0  0  0  0  0  0  0  0  0  0  0
    5.5925    2.5041   -1.9742 H   0  0  0  0  0  0  0  0  0  0  0  0
    7.0654    2.2024   -1.0769 H   0  0  0  0  0  0  0  0  0  0  0  0
    6.3556    0.9062   -2.0518 H   0  0  0  0  0  0  0  0  0  0  0  0
    3.7325   -0.8822    1.5848 H   0  0  0  0  0  0  0  0  0  0  0  0
    3.5935    0.8021    2.1656 H   0  0  0  0  0  0  0  0  0  0  0  0
    2.2328   -0.2695    2.2299 H   0  0  0  0  0  0  0  0  0  0  0  0
    2.3747    2.5024    0.9422 H   0  0  0  0  0  0  0  0  0  0  0  0
   -0.1328    2.3326    0.9596 H   0  0  0  0  0  0  0  0  0  0  0  0
    0.6803    1.2666    2.0942 H   0  0  0  0  0  0  0  0  0  0  0  0
   -0.5707    0.5585   -0.5854 H   0  0  0  0  0  0  0  0  0  0  0  0
   -0.5823   -1.4099    2.7078 H   0  0  0  0  0  0  0  0  0  0  0  0
   -0.8655    0.2483    3.2358 H   0  0  0  0  0  0  0  0  0  0  0  0
   -2.2010   -0.8910    3.1615 H   0  0  0  0  0  0  0  0  0  0  0  0
    9.6136   -0.0260    3.2887 H   0  0  0  0  0  0  0  0  0  0  0  0
    0.9622    1.8463   -1.4205 H   0  0  0  0  0  0  0  0  0  0  0  0
   -3.5682    0.9653   -2.5651 H   0  0  0  0  0  0  0  0  0  0  0  0
  1  2  1  0  0  0  0
  1  4  1  0  0  0  0
  1 28  1  0  0  0  0
  1 29  1  1  0  0  0
  2  3  1  0  0  0  0
  2 30  1  0  0  0  0
  2 31  1  0  0  0  0
  3 23  1  0  0  0  0
  3 32  1  0  0  0  0
  3 33  1  0  0  0  0
  4 34  1  0  0  0  0
  4 35  1  0  0  0  0
  5  4  1  0  0  0  0
  5  6  1  0  0  0  0
  5 23  1  0  0  0  0
  5 36  1  1  0  0  0
  6  7  1  0  0  0  0
  6 37  1  0  0  0  0
  6 38  1  0  0  0  0
  7 39  1  0  0  0  0
  7 40  1  0  0  0  0
  8  7  1  0  0  0  0
  8  9  1  0  0  0  0
  8 22  1  0  0  0  0
  8 41  1  1  0  0  0
  9 10  1  0  0  0  0
  9 18  1  0  0  0  0
  9 42  1  6  0  0  0
 10 11  1  0  0  0  0
 10 43  1  0  0  0  0
 10 44  1  0  0  0  0
 11 45  1  0  0  0  0
 11 46  1  0  0  0  0
 12 11  1  0  0  0  0
 12 18  1  0  0  0  0
 12 47  1  6  0  0  0
 12 13  1  0  0  0  0
 13 14  1  0  0  0  0
 13 17  1  0  0  0  0
 13 48  1  1  0  0  0
 14 15  1  0  0  0  0
 14 49  1  0  0  0  0
 14 50  1  0  0  0  0
 15 16  1  0  0  0  0
 15 51  1  0  0  0  0
 15 52  1  0  0  0  0
 16 25  2  0  0  0  0
 16 26  1  0  0  0  0
 17 53  1  0  0  0  0
 17 54  1  0  0  0  0
 17 55  1  0  0  0  0
 18 19  1  1  0  0  0
 18 20  1  0  0  0  0
 19 56  1  0  0  0  0
 19 57  1  0  0  0  0
 19 58  1  0  0  0  0
 20 21  1  0  0  0  0
 20 27  1  0  0  0  0
 20 59  1  1  0  0  0
 21 60  1  0  0  0  0
 21 61  1  0  0  0  0
 22 21  1  0  0  0  0
 22 23  1  0  0  0  0
 22 62  1  6  0  0  0
 23 24  1  1  0  0  0
 24 63  1  0  0  0  0
 24 64  1  0  0  0  0
 24 65  1  0  0  0  0
 26 66  1  0  0  0  0
 27 67  1  0  0  0  0
 28 68  1  0  0  0  0
M  END
>  <Mol_ID>
1588

>  <Formula>
C24H40O4

>  <MolWeight>
392.572

>  <Cat>
S4689

>  <Name>
Deoxycholic acid

>  <Synonyms>
Deoxycholate, Desoxycholic acid, Cholerebic, Cholorebic

>  <Target>
GPCR19

>  <Form>
free base

>  <CAS>
83-44-3

>  <URL>
http://selleckchem.com/products/deoxycholic-acid.html

$$$$
