S4685 Efavirenz.cdx
 OpenBabel08302519503D

 30 32  0  0  0  0  0  0  0  0999 V2000
   -1.2430   -1.4980   -0.0800 C   0  0  2  0  0  0  0  0  0  0  0  0
   -1.4896   -1.9587   -1.5073 C   0  0  0  0  0  0  0  0  0  0  0  0
    0.0704   -0.7318   -0.0170 C   0  0  0  0  0  0  0  0  0  0  0  0
   -2.4049    0.6417   -0.0498 C   0  0  0  0  0  0  0  0  0  0  0  0
   -1.2672   -2.7150    0.8900 C   0  0  0  0  0  0  0  0  0  0  0  0
   -2.3887   -0.6705    0.2564 O   0  0  0  0  0  0  0  0  0  0  0  0
   -1.2088    1.2850   -0.0589 N   0  0  0  0  0  0  0  0  0  0  0  0
    0.0243    0.6566    0.0292 C   0  0  0  0  0  0  0  0  0  0  0  0
   -1.7012   -2.3539   -2.7317 C   0  0  0  0  0  0  0  0  0  0  0  0
   -1.9206   -2.7477   -4.0916 C   0  0  0  0  0  0  0  0  0  0  0  0
    1.3311   -1.3514   -0.0775 C   0  0  0  0  0  0  0  0  0  0  0  0
   -2.0121   -4.2107   -4.4330 C   0  0  0  0  0  0  0  0  0  0  0  0
   -0.7946   -3.4262   -4.8272 C   0  0  0  0  0  0  0  0  0  0  0  0
   -3.4573    1.2514   -0.2301 O   0  0  0  0  0  0  0  0  0  0  0  0
    1.1890    1.4227    0.0922 C   0  0  0  0  0  0  0  0  0  0  0  0
    2.5027   -0.5934   -0.0203 C   0  0  0  0  0  0  0  0  0  0  0  0
    2.4310    0.7928    0.0788 C   0  0  0  0  0  0  0  0  0  0  0  0
   -1.4959   -3.8875    0.2463 F   0  0  0  0  0  0  0  0  0  0  0  0
   -0.1068   -2.8804    1.5715 F   0  0  0  0  0  0  0  0  0  0  0  0
   -2.2369   -2.5935    1.8314 F   0  0  0  0  0  0  0  0  0  0  0  0
   -1.2636    2.2883   -0.1673 H   0  0  0  0  0  0  0  0  0  0  0  0
   -2.5481   -2.0770   -4.6721 H   0  0  0  0  0  0  0  0  0  0  0  0
    1.4250   -2.4324   -0.1750 H   0  0  0  0  0  0  0  0  0  0  0  0
   -1.9111   -4.9428   -3.6400 H   0  0  0  0  0  0  0  0  0  0  0  0
   -2.7005   -4.5040   -5.2178 H   0  0  0  0  0  0  0  0  0  0  0  0
   -0.6596   -3.1833   -5.8749 H   0  0  0  0  0  0  0  0  0  0  0  0
    0.1298   -3.6317   -4.2992 H   0  0  0  0  0  0  0  0  0  0  0  0
    1.1437    2.5072    0.1476 H   0  0  0  0  0  0  0  0  0  0  0  0
    3.4706   -1.0873   -0.0638 H   0  0  0  0  0  0  0  0  0  0  0  0
    3.3434    1.3823    0.1245 H   0  0  0  0  0  0  0  0  0  0  0  0
  1  5  1  0  0  0  0
  1  2  1  6  0  0  0
  3  1  1  0  0  0  0
  4  6  1  0  0  0  0
  5 18  1  0  0  0  0
  5 19  1  0  0  0  0
  5 20  1  0  0  0  0
  6  1  1  0  0  0  0
  7  4  1  0  0  0  0
  7 21  1  0  0  0  0
  8  3  2  0  0  0  0
  8  7  1  0  0  0  0
  9  2  3  0  0  0  0
 10  9  1  0  0  0  0
 10 22  1  0  0  0  0
 11  3  1  0  0  0  0
 11 23  1  0  0  0  0
 12 10  1  0  0  0  0
 12 13  1  0  0  0  0
 12 24  1  0  0  0  0
 12 25  1  0  0  0  0
 13 10  1  0  0  0  0
 13 26  1  0  0  0  0
 13 27  1  0  0  0  0
 14  4  2  0  0  0  0
 15  8  1  0  0  0  0
 15 17  2  0  0  0  0
 15 28  1  0  0  0  0
 16 11  2  0  0  0  0
 16 29  1  0  0  0  0
 17 16  1  0  0  0  0
 17 30  1  0  0  0  0
M  END
>  <Mol_ID>
1583

>  <Formula>
C14H9ClF3NO2

>  <MolWeight>
315.6749696

>  <Cat>
S4685

>  <Name>
Efavirenz

>  <Synonyms>
Sustiva, Stocrin, DMP-266, DMP 266

>  <Target>
Reverse Transcriptase

>  <Form>
free base

>  <CAS>
154598-52-4

>  <URL>
http://selleckchem.com/products/efavirenz.html

$$$$
