S4696 ArbinoxaMine Maleate.cdx
 OpenBabel08302519503D

 51 51  0  0  0  0  0  0  0  0999 V2000
    2.2439    0.1710    0.9572 C   0  0  3  0  0  0  0  0  0  0  0  0
    2.2473    0.7534   -0.5473 C   0  0  0  0  0  0  0  0  0  0  0  0
    2.2093   -1.3994    1.0951 C   0  0  0  0  0  0  0  0  0  0  0  0
    1.2722    0.8779    1.8069 O   0  0  0  0  0  0  0  0  0  0  0  0
    1.7361    2.0271   -0.9046 C   0  0  0  0  0  0  0  0  0  0  0  0
    2.8241    0.0419   -1.6218 C   0  0  0  0  0  0  0  0  0  0  0  0
    2.6493   -1.9968    2.2798 C   0  0  0  0  0  0  0  0  0  0  0  0
    1.8438   -2.1884    0.0488 N   0  0  0  0  0  0  0  0  0  0  0  0
    1.0370    0.5543    3.2008 C   0  0  0  0  0  0  0  0  0  0  0  0
    1.7102    2.4967   -2.2432 C   0  0  0  0  0  0  0  0  0  0  0  0
    2.8420    0.5280   -2.9572 C   0  0  0  0  0  0  0  0  0  0  0  0
    2.7476   -3.3874    2.3958 C   0  0  0  0  0  0  0  0  0  0  0  0
    1.9943   -3.5394    0.1639 C   0  0  0  0  0  0  0  0  0  0  0  0
    1.9898    1.1765    4.2833 C   0  0  0  0  0  0  0  0  0  0  0  0
    2.2696    1.7520   -3.2735 C   0  0  0  0  0  0  0  0  0  0  0  0
    2.4487   -4.1795    1.3006 C   0  0  0  0  0  0  0  0  0  0  0  0
    1.6421    2.5717    4.6252 N   0  0  0  0  0  0  0  0  0  0  0  0
    0.6130    2.6900    5.6691 C   0  0  0  0  0  0  0  0  0  0  0  0
    2.7880    3.4029    4.9954 C   0  0  0  0  0  0  0  0  0  0  0  0
   -1.0600   -0.1297   -0.3865 C   0  0  0  0  0  0  0  0  0  0  0  0
   -1.2521    0.9963    0.3006 C   0  0  0  0  0  0  0  0  0  0  0  0
   -1.8902   -1.2983   -0.7472 C   0  0  0  0  0  0  0  0  0  0  0  0
   -2.3418    1.6323    1.0461 C   0  0  0  0  0  0  0  0  0  0  0  0
   -3.1128   -1.3233   -0.1905 O   0  0  0  0  0  0  0  0  0  0  0  0
   -1.4935   -2.1453   -1.5336 O   0  0  0  0  0  0  0  0  0  0  0  0
   -3.5468    1.1656    0.7244 O   0  0  0  0  0  0  0  0  0  0  0  0
   -2.1425    2.4940    1.8864 O   0  0  0  0  0  0  0  0  0  0  0  0
    3.2274    0.4761    1.3390 H   0  0  0  0  0  0  0  0  0  0  0  0
    1.3112    2.6878   -0.1542 H   0  0  0  0  0  0  0  0  0  0  0  0
    3.2610   -0.9399   -1.4752 H   0  0  0  0  0  0  0  0  0  0  0  0
    2.9318   -1.3962    3.1355 H   0  0  0  0  0  0  0  0  0  0  0  0
    0.0211    0.9056    3.4256 H   0  0  0  0  0  0  0  0  0  0  0  0
    0.9534   -0.5258    3.3548 H   0  0  0  0  0  0  0  0  0  0  0  0
    1.2473    3.4530   -2.4887 H   0  0  0  0  0  0  0  0  0  0  0  0
    3.2938   -0.0669   -3.7485 H   0  0  0  0  0  0  0  0  0  0  0  0
    3.0836   -3.8409    3.3257 H   0  0  0  0  0  0  0  0  0  0  0  0
    1.7538   -4.1162   -0.7270 H   0  0  0  0  0  0  0  0  0  0  0  0
    1.9461    0.5669    5.1995 H   0  0  0  0  0  0  0  0  0  0  0  0
    3.0177    1.1082    3.9126 H   0  0  0  0  0  0  0  0  0  0  0  0
    2.2550    2.1113   -4.3002 H   0  0  0  0  0  0  0  0  0  0  0  0
    2.5831   -5.2569    1.3328 H   0  0  0  0  0  0  0  0  0  0  0  0
    1.0360    2.7429    6.6829 H   0  0  0  0  0  0  0  0  0  0  0  0
    0.0393    3.6098    5.5081 H   0  0  0  0  0  0  0  0  0  0  0  0
   -0.0996    1.8591    5.6639 H   0  0  0  0  0  0  0  0  0  0  0  0
    3.1524    3.2120    6.0132 H   0  0  0  0  0  0  0  0  0  0  0  0
    3.6264    3.2709    4.3052 H   0  0  0  0  0  0  0  0  0  0  0  0
    2.4992    4.4596    4.9379 H   0  0  0  0  0  0  0  0  0  0  0  0
   -0.0817   -0.2997   -0.8032 H   0  0  0  0  0  0  0  0  0  0  0  0
   -0.3866    1.6449    0.4075 H   0  0  0  0  0  0  0  0  0  0  0  0
   -3.1730   -0.8437    0.6475 H   0  0  0  0  0  0  0  0  0  0  0  0
   -3.5981    0.9270   -0.2343 H   0  0  0  0  0  0  0  0  0  0  0  0
  1  2  1  0  0  0  0
  1  3  1  0  0  0  0
  1  4  1  0  0  0  0
  1 28  1  0  0  0  0
  2  5  2  0  0  0  0
  2  6  1  0  0  0  0
  3  8  1  0  0  0  0
  3  7  2  0  0  0  0
  4  9  1  0  0  0  0
  5 10  1  0  0  0  0
  5 29  1  0  0  0  0
  6 11  2  0  0  0  0
  6 30  1  0  0  0  0
  7 12  1  0  0  0  0
  7 31  1  0  0  0  0
  8 13  2  0  0  0  0
  9 14  1  0  0  0  0
  9 32  1  0  0  0  0
  9 33  1  0  0  0  0
 10 15  2  0  0  0  0
 10 34  1  0  0  0  0
 11 15  1  0  0  0  0
 11 35  1  0  0  0  0
 12 16  2  0  0  0  0
 12 36  1  0  0  0  0
 13 16  1  0  0  0  0
 13 37  1  0  0  0  0
 14 17  1  0  0  0  0
 14 38  1  0  0  0  0
 14 39  1  0  0  0  0
 15 40  1  0  0  0  0
 16 41  1  0  0  0  0
 17 18  1  0  0  0  0
 17 19  1  0  0  0  0
 18 42  1  0  0  0  0
 18 43  1  0  0  0  0
 18 44  1  0  0  0  0
 19 45  1  0  0  0  0
 19 46  1  0  0  0  0
 19 47  1  0  0  0  0
 20 21  2  0  0  0  0
 20 22  1  0  0  0  0
 20 48  1  0  0  0  0
 21 23  1  0  0  0  0
 21 49  1  0  0  0  0
 22 24  1  0  0  0  0
 22 25  2  0  0  0  0
 23 26  1  0  0  0  0
 23 27  2  0  0  0  0
 24 50  1  0  0  0  0
 26 51  1  0  0  0  0
M  END
>  <Mol_ID>
1584

>  <Formula>
C20H23ClN2O5

>  <MolWeight>
406.86002

>  <Cat>
S4696

>  <Name>
CarbinoxaMine Maleate

>  <Synonyms>
N/A

>  <Target>
Histamine Receptor

>  <Form>
maleate

>  <CAS>
3505-38-2

>  <URL>
http://selleckchem.com/products/carbinoxamine-maleate.html

$$$$
