S4695 D panthenol.cdx
 OpenBabel08302520003D

 33 32  0  0  0  0  0  0  0  0999 V2000
    0.9581    0.0719   -0.0621 C   0  0  1  0  0  0  0  0  0  0  0  0
    0.5809    1.1425    0.9789 C   0  0  0  0  0  0  0  0  0  0  0  0
    0.1842   -1.2663    0.0807 C   0  0  0  0  0  0  0  0  0  0  0  0
    0.7488    0.6270   -1.3667 O   0  0  0  0  0  0  0  0  0  0  0  0
    1.2892    1.1059    2.1583 N   0  0  0  0  0  0  0  0  0  0  0  0
   -0.2669    2.0018    0.7294 O   0  0  0  0  0  0  0  0  0  0  0  0
   -1.3349   -1.0343   -0.0949 C   0  0  0  0  0  0  0  0  0  0  0  0
    0.6837   -2.2382   -1.0157 C   0  0  0  0  0  0  0  0  0  0  0  0
    0.4573   -1.9273    1.4448 C   0  0  0  0  0  0  0  0  0  0  0  0
    1.0932    2.0917    3.2024 C   0  0  0  0  0  0  0  0  0  0  0  0
   -2.0728   -2.2438    0.0499 O   0  0  0  0  0  0  0  0  0  0  0  0
    2.0386    3.2854    3.0732 C   0  0  0  0  0  0  0  0  0  0  0  0
    1.8698    4.0925    1.7897 C   0  0  0  0  0  0  0  0  0  0  0  0
    0.5374    4.5624    1.6559 O   0  0  0  0  0  0  0  0  0  0  0  0
    2.0366   -0.1111    0.0212 H   0  0  0  0  0  0  0  0  0  0  0  0
    0.0238    1.2795   -1.2777 H   0  0  0  0  0  0  0  0  0  0  0  0
    2.0658    0.4611    2.2513 H   0  0  0  0  0  0  0  0  0  0  0  0
   -1.7134   -0.3434    0.6651 H   0  0  0  0  0  0  0  0  0  0  0  0
   -1.5721   -0.6083   -1.0757 H   0  0  0  0  0  0  0  0  0  0  0  0
    1.7687   -2.3723   -0.9520 H   0  0  0  0  0  0  0  0  0  0  0  0
    0.2289   -3.2296   -0.9188 H   0  0  0  0  0  0  0  0  0  0  0  0
    0.4524   -1.8656   -2.0195 H   0  0  0  0  0  0  0  0  0  0  0  0
    1.5314   -2.0715    1.6055 H   0  0  0  0  0  0  0  0  0  0  0  0
    0.0665   -1.3257    2.2722 H   0  0  0  0  0  0  0  0  0  0  0  0
   -0.0178   -2.9127    1.5145 H   0  0  0  0  0  0  0  0  0  0  0  0
    0.0475    2.4201    3.2064 H   0  0  0  0  0  0  0  0  0  0  0  0
    1.2819    1.5825    4.1530 H   0  0  0  0  0  0  0  0  0  0  0  0
   -1.9336   -2.7732   -0.7537 H   0  0  0  0  0  0  0  0  0  0  0  0
    1.8546    3.9482    3.9281 H   0  0  0  0  0  0  0  0  0  0  0  0
    3.0774    2.9430    3.1433 H   0  0  0  0  0  0  0  0  0  0  0  0
    2.5328    4.9631    1.8138 H   0  0  0  0  0  0  0  0  0  0  0  0
    2.1367    3.5093    0.9023 H   0  0  0  0  0  0  0  0  0  0  0  0
    0.0075    3.8133    1.3060 H   0  0  0  0  0  0  0  0  0  0  0  0
  1  4  1  0  0  0  0
  1 15  1  1  0  0  0
  1  3  1  0  0  0  0
  1  2  1  0  0  0  0
  2  5  1  0  0  0  0
  2  6  2  0  0  0  0
  3  7  1  0  0  0  0
  3  8  1  0  0  0  0
  3  9  1  0  0  0  0
  4 16  1  0  0  0  0
  5 10  1  0  0  0  0
  5 17  1  0  0  0  0
  7 11  1  0  0  0  0
  7 18  1  0  0  0  0
  7 19  1  0  0  0  0
  8 20  1  0  0  0  0
  8 21  1  0  0  0  0
  8 22  1  0  0  0  0
  9 23  1  0  0  0  0
  9 24  1  0  0  0  0
  9 25  1  0  0  0  0
 10 12  1  0  0  0  0
 10 26  1  0  0  0  0
 10 27  1  0  0  0  0
 11 28  1  0  0  0  0
 12 13  1  0  0  0  0
 12 29  1  0  0  0  0
 12 30  1  0  0  0  0
 13 14  1  0  0  0  0
 13 31  1  0  0  0  0
 13 32  1  0  0  0  0
 14 33  1  0  0  0  0
M  END
>  <Mol_ID>
2686

>  <Formula>
C9H19NO4

>  <MolWeight>
205.25146

>  <Cat>
S4695

>  <Name>
D panthenol

>  <Synonyms>
Dexpanthenol, D-Panthenol, Pantothenol, Ilopan, D-Pantothenyl alcohol

>  <Target>
Vitamin

>  <Form>
free base

>  <CAS>
81-13-0

>  <URL>
http://selleckchem.com/products/d-panthenol.html

$$$$
