S4691 Oxybenzone.cdx
 OpenBabel08302519503D

 29 30  0  0  0  0  0  0  0  0999 V2000
    0.1293   -1.2515    0.0725 C   0  0  0  0  0  0  0  0  0  0  0  0
    0.8595   -2.5462    0.0773 C   0  0  0  0  0  0  0  0  0  0  0  0
    0.8474   -0.0522    0.0141 C   0  0  0  0  0  0  0  0  0  0  0  0
   -1.2681   -1.2033    0.1418 C   0  0  0  0  0  0  0  0  0  0  0  0
    0.2695   -3.7848   -0.4907 C   0  0  0  0  0  0  0  0  0  0  0  0
    2.0008   -2.5748    0.5364 O   0  0  0  0  0  0  0  0  0  0  0  0
    0.1794    1.1712   -0.0329 C   0  0  0  0  0  0  0  0  0  0  0  0
    2.2163   -0.0053   -0.0055 O   0  0  0  0  0  0  0  0  0  0  0  0
   -1.9381    0.0255    0.0895 C   0  0  0  0  0  0  0  0  0  0  0  0
    0.5857   -5.0143    0.0982 C   0  0  0  0  0  0  0  0  0  0  0  0
   -0.5528   -3.7469   -1.6241 C   0  0  0  0  0  0  0  0  0  0  0  0
   -1.2168    1.2171   -0.0017 C   0  0  0  0  0  0  0  0  0  0  0  0
    0.0478   -6.1934   -0.4198 C   0  0  0  0  0  0  0  0  0  0  0  0
   -1.0957   -4.9273   -2.1322 C   0  0  0  0  0  0  0  0  0  0  0  0
   -1.7536    2.4734   -0.0568 O   0  0  0  0  0  0  0  0  0  0  0  0
   -0.7988   -6.1481   -1.5282 C   0  0  0  0  0  0  0  0  0  0  0  0
   -3.1725    2.5706   -0.0255 C   0  0  0  0  0  0  0  0  0  0  0  0
   -1.8597   -2.1101    0.2411 H   0  0  0  0  0  0  0  0  0  0  0  0
    0.7513    2.0946   -0.0885 H   0  0  0  0  0  0  0  0  0  0  0  0
    2.5478   -0.9050    0.2192 H   0  0  0  0  0  0  0  0  0  0  0  0
   -3.0230    0.0157    0.1253 H   0  0  0  0  0  0  0  0  0  0  0  0
    1.2505   -5.0566    0.9589 H   0  0  0  0  0  0  0  0  0  0  0  0
   -0.7686   -2.8098   -2.1310 H   0  0  0  0  0  0  0  0  0  0  0  0
    0.2924   -7.1492    0.0376 H   0  0  0  0  0  0  0  0  0  0  0  0
   -1.7425   -4.8948   -3.0057 H   0  0  0  0  0  0  0  0  0  0  0  0
   -1.2163   -7.0676   -1.9311 H   0  0  0  0  0  0  0  0  0  0  0  0
   -3.6170    2.0986   -0.9082 H   0  0  0  0  0  0  0  0  0  0  0  0
   -3.5793    2.1443    0.8975 H   0  0  0  0  0  0  0  0  0  0  0  0
   -3.4370    3.6320   -0.0449 H   0  0  0  0  0  0  0  0  0  0  0  0
  1  2  1  0  0  0  0
  1  3  2  0  0  0  0
  1  4  1  0  0  0  0
  2  5  1  0  0  0  0
  2  6  2  0  0  0  0
  3  7  1  0  0  0  0
  3  8  1  0  0  0  0
  4  9  2  0  0  0  0
  4 18  1  0  0  0  0
  5 10  2  0  0  0  0
  5 11  1  0  0  0  0
  7 12  2  0  0  0  0
  7 19  1  0  0  0  0
  8 20  1  0  0  0  0
  9 12  1  0  0  0  0
  9 21  1  0  0  0  0
 10 13  1  0  0  0  0
 10 22  1  0  0  0  0
 11 14  2  0  0  0  0
 11 23  1  0  0  0  0
 12 15  1  0  0  0  0
 13 16  2  0  0  0  0
 13 24  1  0  0  0  0
 14 16  1  0  0  0  0
 14 25  1  0  0  0  0
 15 17  1  0  0  0  0
 16 26  1  0  0  0  0
 17 27  1  0  0  0  0
 17 28  1  0  0  0  0
 17 29  1  0  0  0  0
M  END
>  <Mol_ID>
1567

>  <Formula>
C14H12O3

>  <MolWeight>
228.24328

>  <Cat>
S4691

>  <Name>
Oxybenzone

>  <Synonyms>
Eusolex 4360, Escalol 567, KAHSCREEN BZ-3, Benzophenone 3

>  <Target>
Others

>  <Form>
free base

>  <CAS>
131-57-7

>  <URL>
http://selleckchem.com/products/oxybenzone.html

$$$$
