S4694 Alosetron Hydrochloride.cdx
 OpenBabel08302521403D

 40 43  0  0  0  0  0  0  0  0999 V2000
   -0.0683   -1.7156   -0.0462 N   0  0  0  0  0  0  0  0  0  0  0  0
   -1.1877   -0.9253    0.0025 C   0  0  0  0  0  0  0  0  0  0  0  0
   -0.7913    0.3898    0.1707 C   0  0  0  0  0  0  0  0  0  0  0  0
    0.6311    0.4061    0.1427 C   0  0  0  0  0  0  0  0  0  0  0  0
    1.5911    1.4390    0.1763 C   0  0  0  0  0  0  0  0  0  0  0  0
    2.9497    1.1281    0.0893 C   0  0  0  0  0  0  0  0  0  0  0  0
    3.3614   -0.1942   -0.0281 C   0  0  0  0  0  0  0  0  0  0  0  0
    2.4310   -1.2383   -0.0738 C   0  0  0  0  0  0  0  0  0  0  0  0
    1.0636   -0.9202    0.0049 C   0  0  0  0  0  0  0  0  0  0  0  0
   -1.7376    1.4971    0.2105 C   0  0  0  0  0  0  0  0  0  0  0  0
   -2.6058   -1.3567   -0.1643 C   0  0  0  0  0  0  0  0  0  0  0  0
   -3.5217   -0.2267    0.3462 C   0  0  0  0  0  0  0  0  0  0  0  0
   -3.0694    1.1234   -0.0280 N   0  0  0  0  0  0  0  0  0  0  0  0
   -1.3982    2.6710    0.3301 O   0  0  0  0  0  0  0  0  0  0  0  0
   -3.7320    1.8215   -1.1194 C   0  0  0  0  0  0  0  0  0  0  0  0
   -4.8399    4.9057    0.4625 C   0  0  0  0  0  0  0  0  0  0  0  0
   -3.9781    3.8584    0.3406 N   0  0  0  0  0  0  0  0  0  0  0  0
   -4.4523    3.0317   -0.6527 C   0  0  0  0  0  0  0  0  0  0  0  0
   -5.5900    3.6671   -1.1184 C   0  0  0  0  0  0  0  0  0  0  0  0
   -5.8258    4.8164   -0.3981 N   0  0  0  0  0  0  0  0  0  0  0  0
   -6.4744    3.3005   -2.2480 C   0  0  0  0  0  0  0  0  0  0  0  0
   -0.0848   -3.1570   -0.1684 C   0  0  0  0  0  0  0  0  0  0  0  0
    1.2741    2.4765    0.2532 H   0  0  0  0  0  0  0  0  0  0  0  0
    3.6847    1.9286    0.1088 H   0  0  0  0  0  0  0  0  0  0  0  0
    4.4233   -0.4202   -0.0927 H   0  0  0  0  0  0  0  0  0  0  0  0
    2.7752   -2.2612   -0.1817 H   0  0  0  0  0  0  0  0  0  0  0  0
   -2.8018   -1.5387   -1.2273 H   0  0  0  0  0  0  0  0  0  0  0  0
   -2.8151   -2.2805    0.3848 H   0  0  0  0  0  0  0  0  0  0  0  0
   -4.5601   -0.3807    0.0330 H   0  0  0  0  0  0  0  0  0  0  0  0
   -3.5129   -0.2483    1.4445 H   0  0  0  0  0  0  0  0  0  0  0  0
   -2.9745    2.1191   -1.8565 H   0  0  0  0  0  0  0  0  0  0  0  0
   -4.4175    1.1323   -1.6235 H   0  0  0  0  0  0  0  0  0  0  0  0
   -4.6901    5.7015    1.1782 H   0  0  0  0  0  0  0  0  0  0  0  0
   -3.1073    3.7236    0.8419 H   0  0  0  0  0  0  0  0  0  0  0  0
   -5.9954    3.5538   -3.2005 H   0  0  0  0  0  0  0  0  0  0  0  0
   -6.6909    2.2289   -2.2438 H   0  0  0  0  0  0  0  0  0  0  0  0
   -7.4244    3.8401   -2.1912 H   0  0  0  0  0  0  0  0  0  0  0  0
   -0.5886   -3.5664    0.7106 H   0  0  0  0  0  0  0  0  0  0  0  0
   -0.6244   -3.4232   -1.0808 H   0  0  0  0  0  0  0  0  0  0  0  0
    0.9317   -3.5509   -0.2184 H   0  0  0  0  0  0  0  0  0  0  0  0
  1  2  1  0  0  0  0
  1  9  1  0  0  0  0
  1 22  1  0  0  0  0
  2  3  2  0  0  0  0
  2 11  1  0  0  0  0
  3  4  1  0  0  0  0
  3 10  1  0  0  0  0
  4  5  1  0  0  0  0
  4  9  2  0  0  0  0
  5  6  2  0  0  0  0
  5 23  1  0  0  0  0
  6  7  1  0  0  0  0
  6 24  1  0  0  0  0
  7  8  2  0  0  0  0
  7 25  1  0  0  0  0
  8  9  1  0  0  0  0
  8 26  1  0  0  0  0
 10 13  1  0  0  0  0
 10 14  2  0  0  0  0
 11 12  1  0  0  0  0
 11 27  1  0  0  0  0
 11 28  1  0  0  0  0
 12 13  1  0  0  0  0
 12 29  1  0  0  0  0
 12 30  1  0  0  0  0
 13 15  1  0  0  0  0
 15 18  1  0  0  0  0
 15 31  1  0  0  0  0
 15 32  1  0  0  0  0
 16 20  2  0  0  0  0
 16 33  1  0  0  0  0
 17 18  1  0  0  0  0
 17 16  1  0  0  0  0
 17 34  1  0  0  0  0
 18 19  2  0  0  0  0
 19 20  1  0  0  0  0
 19 21  1  0  0  0  0
 21 35  1  0  0  0  0
 21 36  1  0  0  0  0
 21 37  1  0  0  0  0
 22 38  1  0  0  0  0
 22 39  1  0  0  0  0
 22 40  1  0  0  0  0
M  END
>  <Mol_ID>
8240

>  <Formula>
C17H19ClN4O

>  <MolWeight>
330.81196

>  <Cat>
S4694

>  <Name>
Alosetron Hydrochloride

>  <Synonyms>
GR 68755C, GR 68755, GR 68755X, Lotronex, GR-68755, GR68755

>  <Target>
5-HT Receptor

>  <Form>
hydrochloride

>  <CAS>
122852-69-1

>  <URL>
http://selleckchem.com/products/alosetron-hydrochloride.html

$$$$
