S4693 Guanfacine Hydrochloride.cdx
 OpenBabel08302519503D

 24 24  0  0  0  0  0  0  0  0999 V2000
    1.4152   -0.1573    0.0917 C   0  0  0  0  0  0  0  0  0  0  0  0
    2.9086   -0.3556    0.1566 C   0  0  0  0  0  0  0  0  0  0  0  0
    0.5777   -1.1963   -0.3396 C   0  0  0  0  0  0  0  0  0  0  0  0
    0.8425    1.0704    0.4513 C   0  0  0  0  0  0  0  0  0  0  0  0
    3.6089   -0.0042   -1.1429 C   0  0  0  0  0  0  0  0  0  0  0  0
   -0.8063   -1.0178   -0.3848 C   0  0  0  0  0  0  0  0  0  0  0  0
   -0.5413    1.2471    0.4018 C   0  0  0  0  0  0  0  0  0  0  0  0
    4.0111    1.3195   -1.2279 N   0  0  0  0  0  0  0  0  0  0  0  0
    3.7786   -0.8329   -2.0371 O   0  0  0  0  0  0  0  0  0  0  0  0
   -1.3656    0.2022   -0.0107 C   0  0  0  0  0  0  0  0  0  0  0  0
    4.7396    1.8943   -2.2259 C   0  0  0  0  0  0  0  0  0  0  0  0
    5.1490    1.1744   -3.2871 N   0  0  0  0  0  0  0  0  0  0  0  0
    5.0008    3.1388   -2.0765 N   0  0  0  0  0  0  0  0  0  0  0  0
    3.3331    0.2256    0.9846 H   0  0  0  0  0  0  0  0  0  0  0  0
    3.1379   -1.4030    0.3913 H   0  0  0  0  0  0  0  0  0  0  0  0
    0.9975   -2.1548   -0.6397 H   0  0  0  0  0  0  0  0  0  0  0  0
    1.4649    1.8984    0.7815 H   0  0  0  0  0  0  0  0  0  0  0  0
   -1.4489   -1.8318   -0.7112 H   0  0  0  0  0  0  0  0  0  0  0  0
   -0.9775    2.2004    0.6886 H   0  0  0  0  0  0  0  0  0  0  0  0
    3.7815    1.9641   -0.4898 H   0  0  0  0  0  0  0  0  0  0  0  0
   -2.4434    0.3393   -0.0420 H   0  0  0  0  0  0  0  0  0  0  0  0
    5.3542    1.6600   -4.1488 H   0  0  0  0  0  0  0  0  0  0  0  0
    4.6523    0.2910   -3.4162 H   0  0  0  0  0  0  0  0  0  0  0  0
    5.5750    3.4473   -2.8634 H   0  0  0  0  0  0  0  0  0  0  0  0
  1  2  1  0  0  0  0
  1  3  2  0  0  0  0
  1  4  1  0  0  0  0
  2  5  1  0  0  0  0
  2 14  1  0  0  0  0
  2 15  1  0  0  0  0
  3  6  1  0  0  0  0
  3 16  1  0  0  0  0
  4  7  2  0  0  0  0
  4 17  1  0  0  0  0
  5  8  1  0  0  0  0
  5  9  2  0  0  0  0
  6 10  2  0  0  0  0
  6 18  1  0  0  0  0
  7 10  1  0  0  0  0
  7 19  1  0  0  0  0
  8 11  1  0  0  0  0
  8 20  1  0  0  0  0
 10 21  1  0  0  0  0
 11 12  1  0  0  0  0
 11 13  2  0  0  0  0
 12 22  1  0  0  0  0
 12 23  1  0  0  0  0
 13 24  1  0  0  0  0
M  END
>  <Mol_ID>
1566

>  <Formula>
C9H10Cl3N3O

>  <MolWeight>
282.5542

>  <Cat>
S4693

>  <Name>
Guanfacine Hydrochloride

>  <Synonyms>
Guanfacine, Tenex, Intuniv

>  <Target>
Adrenergic Receptor

>  <Form>
hydrochloride

>  <CAS>
29110-48-3

>  <URL>
http://selleckchem.com/products/guanfacine-hydrochloride.html

$$$$
