S4700 4-Aminobutyric acid.cdx
 OpenBabel08302521383D

 16 15  0  0  0  0  0  0  0  0999 V2000
    1.1349    0.0591   -0.0282 C   0  0  0  0  0  0  0  0  0  0  0  0
    0.4085   -0.6838   -1.1189 C   0  0  0  0  0  0  0  0  0  0  0  0
   -0.5085   -1.7690   -0.5622 C   0  0  0  0  0  0  0  0  0  0  0  0
   -1.6124   -1.2752    0.3782 C   0  0  0  0  0  0  0  0  0  0  0  0
    0.6881    1.0484    0.5328 O   0  0  0  0  0  0  0  0  0  0  0  0
    2.3211   -0.4927    0.3065 O   0  0  0  0  0  0  0  0  0  0  0  0
   -2.4953   -0.3147   -0.2701 N   0  0  0  0  0  0  0  0  0  0  0  0
   -0.1446    0.0462   -1.7196 H   0  0  0  0  0  0  0  0  0  0  0  0
    1.1426   -1.1264   -1.8023 H   0  0  0  0  0  0  0  0  0  0  0  0
   -0.9690   -2.2971   -1.4064 H   0  0  0  0  0  0  0  0  0  0  0  0
    0.0941   -2.5101   -0.0227 H   0  0  0  0  0  0  0  0  0  0  0  0
   -2.2101   -2.1372    0.6959 H   0  0  0  0  0  0  0  0  0  0  0  0
   -1.1857   -0.8339    1.2847 H   0  0  0  0  0  0  0  0  0  0  0  0
    2.5609   -1.2779   -0.2204 H   0  0  0  0  0  0  0  0  0  0  0  0
   -3.2403   -0.0628    0.3801 H   0  0  0  0  0  0  0  0  0  0  0  0
   -1.9868    0.5597   -0.4251 H   0  0  0  0  0  0  0  0  0  0  0  0
  1  2  1  0  0  0  0
  1  5  2  0  0  0  0
  1  6  1  0  0  0  0
  2  3  1  0  0  0  0
  2  8  1  0  0  0  0
  2  9  1  0  0  0  0
  3  4  1  0  0  0  0
  3 10  1  0  0  0  0
  3 11  1  0  0  0  0
  4  7  1  0  0  0  0
  4 12  1  0  0  0  0
  4 13  1  0  0  0  0
  6 14  1  0  0  0  0
  7 15  1  0  0  0  0
  7 16  1  0  0  0  0
M  END
>  <Mol_ID>
7774

>  <Formula>
C4H9NO2

>  <MolWeight>
103.11976

>  <Cat>
S4700

>  <Name>
4-Aminobutyric acid (GABA)

>  <Synonyms>
4-Aminobutanoic acid, GABA, Gamma-aminobutyric acid, Piperidic acid

>  <Target>
GABA Receptor

>  <Form>
free base

>  <CAS>
56-12-2

>  <URL>
http://selleckchem.com/products/4-aminobutyric-acid.html

$$$$
