S4706 Eugenol.cdx
 OpenBabel08302520003D

 24 24  0  0  0  0  0  0  0  0999 V2000
    0.9179   -0.0321    0.0153 C   0  0  0  0  0  0  0  0  0  0  0  0
    0.1683   -1.2101    0.0181 C   0  0  0  0  0  0  0  0  0  0  0  0
    0.2458    1.1951   -0.0016 C   0  0  0  0  0  0  0  0  0  0  0  0
    2.2868    0.0548    0.0269 O   0  0  0  0  0  0  0  0  0  0  0  0
   -1.2386   -1.1603   -0.0063 C   0  0  0  0  0  0  0  0  0  0  0  0
   -1.1408    1.2658   -0.0189 C   0  0  0  0  0  0  0  0  0  0  0  0
    0.9522    2.3678    0.0018 O   0  0  0  0  0  0  0  0  0  0  0  0
    2.9996   -1.1769    0.0393 C   0  0  0  0  0  0  0  0  0  0  0  0
   -1.8836    0.0862   -0.0193 C   0  0  0  0  0  0  0  0  0  0  0  0
   -2.0485   -2.4366    0.0096 C   0  0  0  0  0  0  0  0  0  0  0  0
   -2.3675   -2.8985    1.4030 C   0  0  0  0  0  0  0  0  0  0  0  0
   -3.6091   -3.0628    1.8777 C   0  0  0  0  0  0  0  0  0  0  0  0
    0.6479   -2.1826    0.0373 H   0  0  0  0  0  0  0  0  0  0  0  0
   -1.6372    2.2312   -0.0306 H   0  0  0  0  0  0  0  0  0  0  0  0
    1.8892    2.0941    0.0271 H   0  0  0  0  0  0  0  0  0  0  0  0
    2.7955   -1.7381    0.9572 H   0  0  0  0  0  0  0  0  0  0  0  0
    2.7738   -1.7751   -0.8498 H   0  0  0  0  0  0  0  0  0  0  0  0
    4.0688   -0.9454    0.0201 H   0  0  0  0  0  0  0  0  0  0  0  0
   -2.9697    0.1424   -0.0287 H   0  0  0  0  0  0  0  0  0  0  0  0
   -2.9642   -2.2884   -0.5770 H   0  0  0  0  0  0  0  0  0  0  0  0
   -1.4917   -3.2284   -0.5073 H   0  0  0  0  0  0  0  0  0  0  0  0
   -1.5234   -3.1195    2.0538 H   0  0  0  0  0  0  0  0  0  0  0  0
   -3.7743   -3.4040    2.8952 H   0  0  0  0  0  0  0  0  0  0  0  0
   -4.4850   -2.8596    1.2694 H   0  0  0  0  0  0  0  0  0  0  0  0
  1  2  2  0  0  0  0
  1  3  1  0  0  0  0
  1  4  1  0  0  0  0
  2  5  1  0  0  0  0
  2 13  1  0  0  0  0
  3  6  2  0  0  0  0
  3  7  1  0  0  0  0
  4  8  1  0  0  0  0
  5  9  2  0  0  0  0
  5 10  1  0  0  0  0
  6  9  1  0  0  0  0
  6 14  1  0  0  0  0
  7 15  1  0  0  0  0
  8 16  1  0  0  0  0
  8 17  1  0  0  0  0
  8 18  1  0  0  0  0
  9 19  1  0  0  0  0
 10 11  1  0  0  0  0
 10 20  1  0  0  0  0
 10 21  1  0  0  0  0
 11 12  2  0  0  0  0
 11 22  1  0  0  0  0
 12 23  1  0  0  0  0
 12 24  1  0  0  0  0
M  END
>  <Mol_ID>
2691

>  <Formula>
C10H12O2

>  <MolWeight>
164.20108

>  <Cat>
S4706

>  <Name>
Eugenol

>  <Synonyms>
4-Allyl-2-methoxyphenol, 4-Allylguaiacol, Eugenic acid, Allylguaiacol

>  <Target>
Immunology & Inflammation related

>  <Form>
Free Base

>  <CAS>
97-53-0

>  <URL>
http://selleckchem.com/products/eugenol.html

$$$$
