S4702 Sarcosine.cdx
 OpenBabel08302521383D

 13 12  0  0  0  0  0  0  0  0999 V2000
    0.9814   -0.1430    0.1938 C   0  0  0  0  0  0  0  0  0  0  0  0
    0.6086   -1.6146    0.3326 C   0  0  0  0  0  0  0  0  0  0  0  0
    0.2579    0.6829    1.1994 N   0  0  0  0  0  0  0  0  0  0  0  0
   -0.6135   -1.7788    0.9007 O   0  0  0  0  0  0  0  0  0  0  0  0
    1.2957   -2.5457   -0.0636 O   0  0  0  0  0  0  0  0  0  0  0  0
    0.8318    0.4963    2.5388 C   0  0  0  0  0  0  0  0  0  0  0  0
    0.6587    0.1719   -0.8048 H   0  0  0  0  0  0  0  0  0  0  0  0
    2.0638   -0.0143    0.2757 H   0  0  0  0  0  0  0  0  0  0  0  0
    0.4100    1.6634    0.9432 H   0  0  0  0  0  0  0  0  0  0  0  0
   -0.9255   -0.8772    1.1557 H   0  0  0  0  0  0  0  0  0  0  0  0
    1.9088    0.6910    2.5512 H   0  0  0  0  0  0  0  0  0  0  0  0
    0.3545    1.1955    3.2325 H   0  0  0  0  0  0  0  0  0  0  0  0
    0.6456   -0.5134    2.9171 H   0  0  0  0  0  0  0  0  0  0  0  0
  1  2  1  0  0  0  0
  1  3  1  0  0  0  0
  1  7  1  0  0  0  0
  1  8  1  0  0  0  0
  2  4  1  0  0  0  0
  2  5  2  0  0  0  0
  3  6  1  0  0  0  0
  3  9  1  0  0  0  0
  4 10  1  0  0  0  0
  6 11  1  0  0  0  0
  6 12  1  0  0  0  0
  6 13  1  0  0  0  0
M  END
>  <Mol_ID>
7775

>  <Formula>
C3H7NO2

>  <MolWeight>
89.09318

>  <Cat>
S4702

>  <Name>
Sarcosine

>  <Synonyms>
N-methylglycine, Sarcosinic acid, Methylaminoacetic acid, Methylglycine

>  <Target>
Amino acid transporter,GlyT,NMDAR

>  <Form>
free base

>  <CAS>
107-97-1

>  <URL>
http://selleckchem.com/products/sarcosine.html

$$$$
