S4709 Latanoprost.cdx
 OpenBabel08302520003D

 71 72  0  0  0  0  0  0  0  0999 V2000
   -1.0442   -7.0806   -0.7303 C   0  0  2  0  0  0  0  0  0  0  0  0
   -1.8171   -6.2943   -1.8448 C   0  0  2  0  0  0  0  0  0  0  0  0
   -1.6808   -8.4824   -0.7538 C   0  0  2  0  0  0  0  0  0  0  0  0
   -1.0958   -6.4039    0.6549 C   0  0  0  0  0  0  0  0  0  0  0  0
   -2.4847   -7.3860   -2.7123 C   0  0  1  0  0  0  0  0  0  0  0  0
   -0.8916   -5.4013   -2.7006 C   0  0  0  0  0  0  0  0  0  0  0  0
   -1.9278   -8.7242   -2.2320 C   0  0  0  0  0  0  0  0  0  0  0  0
   -2.9435   -8.5062   -0.0893 O   0  0  0  0  0  0  0  0  0  0  0  0
   -0.3456   -7.1720    1.7215 C   0  0  0  0  0  0  0  0  0  0  0  0
   -3.8956   -7.3354   -2.5102 O   0  0  0  0  0  0  0  0  0  0  0  0
   -1.6031   -4.5933   -3.8184 C   0  0  0  0  0  0  0  0  0  0  0  0
    0.6296   -6.7273    2.5328 C   0  0  0  0  0  0  0  0  0  0  0  0
   -2.5993   -3.5440   -3.3072 C   0  0  2  0  0  0  0  0  0  0  0  0
    1.2576   -5.3613    2.5415 C   0  0  0  0  0  0  0  0  0  0  0  0
   -3.2402   -2.6715   -4.3975 C   0  0  0  0  0  0  0  0  0  0  0  0
   -1.8980   -2.6645   -2.4184 O   0  0  0  0  0  0  0  0  0  0  0  0
    2.7381   -5.3661    2.9596 C   0  0  0  0  0  0  0  0  0  0  0  0
   -4.1401   -3.3961   -5.4033 C   0  0  0  0  0  0  0  0  0  0  0  0
    3.6134   -6.1981    2.0231 C   0  0  0  0  0  0  0  0  0  0  0  0
   -4.7669   -2.3901   -6.3499 C   0  0  0  0  0  0  0  0  0  0  0  0
    5.0785   -6.2607    2.3862 C   0  0  0  0  0  0  0  0  0  0  0  0
   -4.1181   -2.0312   -7.5419 C   0  0  0  0  0  0  0  0  0  0  0  0
   -5.9656   -1.7433   -6.0138 C   0  0  0  0  0  0  0  0  0  0  0  0
    5.5143   -5.1352    3.0068 O   0  0  0  0  0  0  0  0  0  0  0  0
    5.7832   -7.2123    2.0710 O   0  0  0  0  0  0  0  0  0  0  0  0
   -4.6493   -1.0487   -8.3730 C   0  0  0  0  0  0  0  0  0  0  0  0
   -6.4942   -0.7527   -6.8458 C   0  0  0  0  0  0  0  0  0  0  0  0
    6.9123   -5.0102    3.3629 C   0  0  0  0  0  0  0  0  0  0  0  0
   -5.8315   -0.3999   -8.0203 C   0  0  0  0  0  0  0  0  0  0  0  0
    7.3701   -6.0842    4.3465 C   0  0  0  0  0  0  0  0  0  0  0  0
    7.8100   -4.8965    2.1339 C   0  0  0  0  0  0  0  0  0  0  0  0
    0.0078   -7.1765   -1.0335 H   0  0  0  0  0  0  0  0  0  0  0  0
   -2.5789   -5.6631   -1.3711 H   0  0  0  0  0  0  0  0  0  0  0  0
   -1.0358   -9.2562   -0.3264 H   0  0  0  0  0  0  0  0  0  0  0  0
   -0.7239   -5.3786    0.5723 H   0  0  0  0  0  0  0  0  0  0  0  0
   -2.1380   -6.3175    0.9889 H   0  0  0  0  0  0  0  0  0  0  0  0
   -2.3108   -7.2747   -3.7851 H   0  0  0  0  0  0  0  0  0  0  0  0
   -0.3406   -4.7142   -2.0477 H   0  0  0  0  0  0  0  0  0  0  0  0
   -0.1347   -6.0355   -3.1818 H   0  0  0  0  0  0  0  0  0  0  0  0
   -2.6316   -9.5410   -2.4052 H   0  0  0  0  0  0  0  0  0  0  0  0
   -0.9793   -8.9379   -2.7407 H   0  0  0  0  0  0  0  0  0  0  0  0
   -2.7716   -8.6467    0.8591 H   0  0  0  0  0  0  0  0  0  0  0  0
   -0.6753   -8.1971    1.8896 H   0  0  0  0  0  0  0  0  0  0  0  0
   -4.0501   -7.6224   -1.5856 H   0  0  0  0  0  0  0  0  0  0  0  0
   -0.8173   -4.0838   -4.3921 H   0  0  0  0  0  0  0  0  0  0  0  0
   -2.1021   -5.2707   -4.5178 H   0  0  0  0  0  0  0  0  0  0  0  0
    1.0055   -7.4210    3.2865 H   0  0  0  0  0  0  0  0  0  0  0  0
   -3.3921   -4.0257   -2.7274 H   0  0  0  0  0  0  0  0  0  0  0  0
    1.1776   -4.8900    1.5566 H   0  0  0  0  0  0  0  0  0  0  0  0
    0.7036   -4.7353    3.2516 H   0  0  0  0  0  0  0  0  0  0  0  0
   -3.8284   -1.8918   -3.8930 H   0  0  0  0  0  0  0  0  0  0  0  0
   -2.4538   -2.1242   -4.9349 H   0  0  0  0  0  0  0  0  0  0  0  0
   -1.2648   -2.1489   -2.9502 H   0  0  0  0  0  0  0  0  0  0  0  0
    3.0905   -4.3270    2.9711 H   0  0  0  0  0  0  0  0  0  0  0  0
    2.8366   -5.7352    3.9887 H   0  0  0  0  0  0  0  0  0  0  0  0
   -3.5687   -4.1306   -5.9835 H   0  0  0  0  0  0  0  0  0  0  0  0
   -4.9297   -3.9549   -4.8862 H   0  0  0  0  0  0  0  0  0  0  0  0
    3.2559   -7.2346    2.0261 H   0  0  0  0  0  0  0  0  0  0  0  0
    3.5429   -5.8155    0.9997 H   0  0  0  0  0  0  0  0  0  0  0  0
   -3.1864   -2.5188   -7.8234 H   0  0  0  0  0  0  0  0  0  0  0  0
   -6.4861   -1.9949   -5.0922 H   0  0  0  0  0  0  0  0  0  0  0  0
   -4.1313   -0.7699   -9.2883 H   0  0  0  0  0  0  0  0  0  0  0  0
   -7.4157   -0.2452   -6.5688 H   0  0  0  0  0  0  0  0  0  0  0  0
    6.9799   -4.0524    3.8934 H   0  0  0  0  0  0  0  0  0  0  0  0
   -6.2370    0.3822   -8.6585 H   0  0  0  0  0  0  0  0  0  0  0  0
    7.3290   -7.0900    3.9202 H   0  0  0  0  0  0  0  0  0  0  0  0
    8.4008   -5.9037    4.6690 H   0  0  0  0  0  0  0  0  0  0  0  0
    6.7248   -6.0864    5.2312 H   0  0  0  0  0  0  0  0  0  0  0  0
    7.5278   -4.0184    1.5428 H   0  0  0  0  0  0  0  0  0  0  0  0
    8.8610   -4.7914    2.4226 H   0  0  0  0  0  0  0  0  0  0  0  0
    7.7238   -5.7620    1.4716 H   0  0  0  0  0  0  0  0  0  0  0  0
  1  2  1  0  0  0  0
  1  3  1  0  0  0  0
  1 32  1  6  0  0  0
  1  4  1  0  0  0  0
  2  5  1  0  0  0  0
  2 33  1  1  0  0  0
  2  6  1  0  0  0  0
  3  7  1  0  0  0  0
  3 34  1  1  0  0  0
  3  8  1  0  0  0  0
  4  9  1  0  0  0  0
  4 35  1  0  0  0  0
  4 36  1  0  0  0  0
  5 10  1  0  0  0  0
  5  7  1  0  0  0  0
  5 37  1  6  0  0  0
  6 11  1  0  0  0  0
  6 38  1  0  0  0  0
  6 39  1  0  0  0  0
  7 40  1  0  0  0  0
  7 41  1  0  0  0  0
  8 42  1  0  0  0  0
  9 12  2  0  0  0  0
  9 43  1  0  0  0  0
 10 44  1  0  0  0  0
 11 45  1  0  0  0  0
 11 46  1  0  0  0  0
 12 14  1  0  0  0  0
 12 47  1  0  0  0  0
 13 16  1  0  0  0  0
 13 48  1  1  0  0  0
 13 15  1  0  0  0  0
 13 11  1  0  0  0  0
 14 17  1  0  0  0  0
 14 49  1  0  0  0  0
 14 50  1  0  0  0  0
 15 18  1  0  0  0  0
 15 51  1  0  0  0  0
 15 52  1  0  0  0  0
 16 53  1  0  0  0  0
 17 19  1  0  0  0  0
 17 54  1  0  0  0  0
 17 55  1  0  0  0  0
 18 20  1  0  0  0  0
 18 56  1  0  0  0  0
 18 57  1  0  0  0  0
 19 21  1  0  0  0  0
 19 58  1  0  0  0  0
 19 59  1  0  0  0  0
 20 22  2  0  0  0  0
 20 23  1  0  0  0  0
 21 24  1  0  0  0  0
 21 25  2  0  0  0  0
 22 26  1  0  0  0  0
 22 60  1  0  0  0  0
 23 27  2  0  0  0  0
 23 61  1  0  0  0  0
 24 28  1  0  0  0  0
 26 29  2  0  0  0  0
 26 62  1  0  0  0  0
 27 29  1  0  0  0  0
 27 63  1  0  0  0  0
 28 30  1  0  0  0  0
 28 31  1  0  0  0  0
 28 64  1  0  0  0  0
 29 65  1  0  0  0  0
 30 66  1  0  0  0  0
 30 67  1  0  0  0  0
 30 68  1  0  0  0  0
 31 69  1  0  0  0  0
 31 70  1  0  0  0  0
 31 71  1  0  0  0  0
M  END
>  <Mol_ID>
2704

>  <Formula>
C26H40O5

>  <MolWeight>
432.5928

>  <Cat>
S4709

>  <Name>
Latanoprost

>  <Synonyms>
Xalatan, PhXA41, PHXA-41

>  <Target>
GPR,Immunology & Inflammation related,RAR/RXR

>  <Form>
Free Base

>  <CAS>
130209-82-4

>  <URL>
http://selleckchem.com/products/latanoprost.html

$$$$
