S4703 Choline bitartrate.cdx
 OpenBabel08302521383D

 36 34  0  0  0  0  0  0  0  0999 V2000
    2.2565   -2.7327    2.7506 C   0  0  2  0  0  0  0  0  0  0  0  0
    1.6499   -2.3656    1.4144 C   0  0  2  0  0  0  0  0  0  0  0  0
    3.7158   -3.2197    2.6976 C   0  0  0  0  0  0  0  0  0  0  0  0
    1.3976   -3.7247    3.3473 O   0  0  0  0  0  0  0  0  0  0  0  0
    2.4919   -1.2925    0.7020 C   0  0  0  0  0  0  0  0  0  0  0  0
    0.2770   -1.9091    1.5767 O   0  0  0  0  0  0  0  0  0  0  0  0
    4.1087   -3.8431    1.5614 O   0  0  0  0  0  0  0  0  0  0  0  0
    4.4655   -3.1589    3.6674 O   0  0  0  0  0  0  0  0  0  0  0  0
    2.7078   -1.5809   -0.5184 O   0  0  0  0  0  0  0  0  0  0  0  0
    2.7130   -0.2292    1.3328 O   0  5  0  0  0  0  0  0  0  0  0  0
   -0.2266   -0.1564   -0.8225 C   0  0  0  0  0  0  0  0  0  0  0  0
   -0.1903    1.2786   -1.3769 N   0  3  0  0  0  0  0  0  0  0  0  0
   -0.2550   -1.2556   -1.8974 C   0  0  0  0  0  0  0  0  0  0  0  0
   -1.4854    1.5943   -2.0731 C   0  0  0  0  0  0  0  0  0  0  0  0
    0.0137    2.2167   -0.1850 C   0  0  0  0  0  0  0  0  0  0  0  0
    1.0107    1.4525   -2.2975 C   0  0  0  0  0  0  0  0  0  0  0  0
   -0.2160   -2.5619   -1.3403 O   0  0  0  0  0  0  0  0  0  0  0  0
    2.2303   -1.8650    3.4201 H   0  0  0  0  0  0  0  0  0  0  0  0
    1.5747   -3.2531    0.7766 H   0  0  0  0  0  0  0  0  0  0  0  0
    1.1774   -4.3775    2.6573 H   0  0  0  0  0  0  0  0  0  0  0  0
    0.2037   -1.5997    2.4960 H   0  0  0  0  0  0  0  0  0  0  0  0
    3.5294   -3.8013    0.7791 H   0  0  0  0  0  0  0  0  0  0  0  0
   -1.1048   -0.2385   -0.1658 H   0  0  0  0  0  0  0  0  0  0  0  0
    0.6423   -0.2357   -0.1898 H   0  0  0  0  0  0  0  0  0  0  0  0
   -1.1752   -1.1919   -2.4800 H   0  0  0  0  0  0  0  0  0  0  0  0
    0.5920   -1.1807   -2.5808 H   0  0  0  0  0  0  0  0  0  0  0  0
   -2.3098    1.4092   -1.3773 H   0  0  0  0  0  0  0  0  0  0  0  0
   -1.4719    2.6434   -2.3781 H   0  0  0  0  0  0  0  0  0  0  0  0
   -1.5790    0.9532   -2.9533 H   0  0  0  0  0  0  0  0  0  0  0  0
    1.0217    2.0684    0.2198 H   0  0  0  0  0  0  0  0  0  0  0  0
   -0.0949    3.2482   -0.5411 H   0  0  0  0  0  0  0  0  0  0  0  0
   -0.7421    1.9988    0.5732 H   0  0  0  0  0  0  0  0  0  0  0  0
    1.9151    1.1403   -1.7664 H   0  0  0  0  0  0  0  0  0  0  0  0
    0.8587    0.8522   -3.1977 H   0  0  0  0  0  0  0  0  0  0  0  0
    1.0743    2.5082   -2.5766 H   0  0  0  0  0  0  0  0  0  0  0  0
    0.7082   -2.6814   -1.0383 H   0  0  0  0  0  0  0  0  0  0  0  0
  1  3  1  0  0  0  0
  1  4  1  0  0  0  0
  1 18  1  1  0  0  0
  2  6  1  0  0  0  0
  2 19  1  6  0  0  0
  2  5  1  0  0  0  0
  2  1  1  0  0  0  0
  3  7  1  0  0  0  0
  3  8  2  0  0  0  0
  4 20  1  0  0  0  0
  5  9  2  0  0  0  0
  5 10  1  0  0  0  0
  6 21  1  0  0  0  0
  7 22  1  0  0  0  0
 11 12  1  0  0  0  0
 11 13  1  0  0  0  0
 11 23  1  0  0  0  0
 11 24  1  0  0  0  0
 12 14  1  0  0  0  0
 12 15  1  0  0  0  0
 12 16  1  0  0  0  0
 13 17  1  0  0  0  0
 13 25  1  0  0  0  0
 13 26  1  0  0  0  0
 14 27  1  0  0  0  0
 14 28  1  0  0  0  0
 14 29  1  0  0  0  0
 15 30  1  0  0  0  0
 15 31  1  0  0  0  0
 15 32  1  0  0  0  0
 16 33  1  0  0  0  0
 16 34  1  0  0  0  0
 16 35  1  0  0  0  0
 17 36  1  0  0  0  0
M  CHG  2  10  -1  12   1
M  END
>  <Mol_ID>
7776

>  <Formula>
C9H19NO7

>  <MolWeight>
253.24966

>  <Cat>
S4703

>  <Name>
Choline bitartrate

>  <Synonyms>
2-hydroxyethyl(trimethyl)azanium;2,3,4-trihydroxy-4-oxobutanoate

>  <Target>
AChR

>  <Form>
tartrate

>  <CAS>
87-67-2

>  <URL>
http://selleckchem.com/products/choline-bitartrate.html

$$$$
