S4715 Benzamide.cdx
 OpenBabel08302519503D

 16 16  0  0  0  0  0  0  0  0999 V2000
    0.9678   -0.1253   -0.0214 C   0  0  0  0  0  0  0  0  0  0  0  0
    0.1087    0.6988    0.8669 C   0  0  0  0  0  0  0  0  0  0  0  0
    0.5388    1.9866    1.2070 C   0  0  0  0  0  0  0  0  0  0  0  0
   -0.2521    2.7946    2.0255 C   0  0  0  0  0  0  0  0  0  0  0  0
   -1.4666    2.3142    2.5155 C   0  0  0  0  0  0  0  0  0  0  0  0
   -1.8888    1.0231    2.1968 C   0  0  0  0  0  0  0  0  0  0  0  0
   -1.1022    0.2125    1.3759 C   0  0  0  0  0  0  0  0  0  0  0  0
    2.1780    0.0442   -0.0907 O   0  0  0  0  0  0  0  0  0  0  0  0
    0.3394   -1.0554   -0.8029 N   0  0  0  0  0  0  0  0  0  0  0  0
    1.4873    2.3631    0.8289 H   0  0  0  0  0  0  0  0  0  0  0  0
    0.0809    3.7973    2.2823 H   0  0  0  0  0  0  0  0  0  0  0  0
   -2.0808    2.9441    3.1546 H   0  0  0  0  0  0  0  0  0  0  0  0
   -2.8267    0.6454    2.5964 H   0  0  0  0  0  0  0  0  0  0  0  0
   -1.4313   -0.8006    1.1640 H   0  0  0  0  0  0  0  0  0  0  0  0
   -0.6573   -1.0332   -0.9643 H   0  0  0  0  0  0  0  0  0  0  0  0
    0.9164   -1.5231   -1.4900 H   0  0  0  0  0  0  0  0  0  0  0  0
  1  2  1  0  0  0  0
  1  8  2  0  0  0  0
  1  9  1  0  0  0  0
  2  3  2  0  0  0  0
  2  7  1  0  0  0  0
  3  4  1  0  0  0  0
  3 10  1  0  0  0  0
  4  5  2  0  0  0  0
  4 11  1  0  0  0  0
  5  6  1  0  0  0  0
  5 12  1  0  0  0  0
  6  7  2  0  0  0  0
  6 13  1  0  0  0  0
  7 14  1  0  0  0  0
  9 15  1  0  0  0  0
  9 16  1  0  0  0  0
M  END
>  <Mol_ID>
1601

>  <Formula>
C7H7NO

>  <MolWeight>
121.13658

>  <Cat>
S4715

>  <Name>
Benzamide

>  <Target>
PARP

>  <Form>
free base

>  <CAS>
55-21-0

>  <URL>
http://selleckchem.com/products/benzamide.html

$$$$
