S4712 Diethylmaleate.cdx
 OpenBabel08302520003D

 24 23  0  0  0  0  0  0  0  0999 V2000
    0.9938   -0.2136   -0.1886 C   0  0  0  0  0  0  0  0  0  0  0  0
    0.0377    0.2354   -1.2214 C   0  0  0  0  0  0  0  0  0  0  0  0
    0.4660   -0.9737    0.7903 O   0  0  0  0  0  0  0  0  0  0  0  0
    2.1589    0.1597   -0.2429 O   0  0  0  0  0  0  0  0  0  0  0  0
   -1.2467    0.0076   -1.5270 C   0  0  0  0  0  0  0  0  0  0  0  0
    1.3518   -1.2500    1.8899 C   0  0  0  0  0  0  0  0  0  0  0  0
   -2.3119   -0.8478   -0.9728 C   0  0  0  0  0  0  0  0  0  0  0  0
    2.2705   -2.4258    1.6030 C   0  0  0  0  0  0  0  0  0  0  0  0
   -1.8787   -1.6791   -0.0097 O   0  0  0  0  0  0  0  0  0  0  0  0
   -3.4510   -0.7970   -1.4224 O   0  0  0  0  0  0  0  0  0  0  0  0
   -2.8441   -2.6130    0.4899 C   0  0  0  0  0  0  0  0  0  0  0  0
   -3.7418   -1.9739    1.5332 C   0  0  0  0  0  0  0  0  0  0  0  0
    0.5480    0.9374   -1.8822 H   0  0  0  0  0  0  0  0  0  0  0  0
   -1.6351    0.5586   -2.3846 H   0  0  0  0  0  0  0  0  0  0  0  0
    1.9313   -0.3551    2.1470 H   0  0  0  0  0  0  0  0  0  0  0  0
    0.7274   -1.4795    2.7601 H   0  0  0  0  0  0  0  0  0  0  0  0
    2.7573   -2.3366    0.6273 H   0  0  0  0  0  0  0  0  0  0  0  0
    3.0443   -2.5024    2.3739 H   0  0  0  0  0  0  0  0  0  0  0  0
    1.7036   -3.3623    1.5949 H   0  0  0  0  0  0  0  0  0  0  0  0
   -3.4279   -3.0427   -0.3322 H   0  0  0  0  0  0  0  0  0  0  0  0
   -2.2797   -3.4320    0.9458 H   0  0  0  0  0  0  0  0  0  0  0  0
   -4.3203   -1.1471    1.1093 H   0  0  0  0  0  0  0  0  0  0  0  0
   -4.4403   -2.7110    1.9404 H   0  0  0  0  0  0  0  0  0  0  0  0
   -3.1469   -1.5595    2.3530 H   0  0  0  0  0  0  0  0  0  0  0  0
  1  2  1  0  0  0  0
  1  3  1  0  0  0  0
  1  4  2  0  0  0  0
  2  5  2  0  0  0  0
  2 13  1  0  0  0  0
  3  6  1  0  0  0  0
  5  7  1  0  0  0  0
  5 14  1  0  0  0  0
  6  8  1  0  0  0  0
  6 15  1  0  0  0  0
  6 16  1  0  0  0  0
  7  9  1  0  0  0  0
  7 10  2  0  0  0  0
  8 17  1  0  0  0  0
  8 18  1  0  0  0  0
  8 19  1  0  0  0  0
  9 11  1  0  0  0  0
 11 12  1  0  0  0  0
 11 20  1  0  0  0  0
 11 21  1  0  0  0  0
 12 22  1  0  0  0  0
 12 23  1  0  0  0  0
 12 24  1  0  0  0  0
M  END
>  <Mol_ID>
2698

>  <Formula>
C8H12O4

>  <MolWeight>
172.17848

>  <Cat>
S4712

>  <Name>
Diethylmaleate

>  <Synonyms>
Diethyl ester, Maleic acid diethyl ester

>  <Target>
NF-¦ÊB,Nrf2

>  <Form>
Free Base

>  <CAS>
141-05-9

>  <URL>
http://selleckchem.com/products/diethylmaleate.html

$$$$
