S4719 Kynurenic acid.cdx
 OpenBabel08302519503D

 21 22  0  0  0  0  0  0  0  0999 V2000
    0.1336   -0.6890    0.0162 C   0  0  0  0  0  0  0  0  0  0  0  0
    0.0481    0.7210    0.0172 C   0  0  0  0  0  0  0  0  0  0  0  0
    1.3116   -1.3428    0.0041 N   0  0  0  0  0  0  0  0  0  0  0  0
   -1.0503   -1.4183    0.0102 C   0  0  0  0  0  0  0  0  0  0  0  0
    1.2536    1.4456    0.0279 C   0  0  0  0  0  0  0  0  0  0  0  0
   -1.2166    1.3460   -0.0072 C   0  0  0  0  0  0  0  0  0  0  0  0
    2.4463   -0.5831   -0.0117 C   0  0  0  0  0  0  0  0  0  0  0  0
   -2.3028   -0.7952   -0.0251 C   0  0  0  0  0  0  0  0  0  0  0  0
    2.4761    0.7979    0.0095 C   0  0  0  0  0  0  0  0  0  0  0  0
    1.2111    2.8154    0.0417 O   0  0  0  0  0  0  0  0  0  0  0  0
   -2.3858    0.5908   -0.0399 C   0  0  0  0  0  0  0  0  0  0  0  0
    3.7269   -1.3450   -0.0903 C   0  0  0  0  0  0  0  0  0  0  0  0
    3.4842   -2.6770   -0.1430 O   0  0  0  0  0  0  0  0  0  0  0  0
    4.8344   -0.8423   -0.1159 O   0  0  0  0  0  0  0  0  0  0  0  0
   -1.0049   -2.5049    0.0220 H   0  0  0  0  0  0  0  0  0  0  0  0
   -1.2871    2.4324   -0.0150 H   0  0  0  0  0  0  0  0  0  0  0  0
   -3.2092   -1.3951   -0.0476 H   0  0  0  0  0  0  0  0  0  0  0  0
    3.4198    1.3298   -0.0037 H   0  0  0  0  0  0  0  0  0  0  0  0
    2.1157    3.1724    0.0487 H   0  0  0  0  0  0  0  0  0  0  0  0
   -3.3529    1.0851   -0.0792 H   0  0  0  0  0  0  0  0  0  0  0  0
    2.5089   -2.8230   -0.1129 H   0  0  0  0  0  0  0  0  0  0  0  0
  1  2  1  0  0  0  0
  1  3  2  0  0  0  0
  1  4  1  0  0  0  0
  2  5  2  0  0  0  0
  2  6  1  0  0  0  0
  3  7  1  0  0  0  0
  4  8  2  0  0  0  0
  4 15  1  0  0  0  0
  5  9  1  0  0  0  0
  5 10  1  0  0  0  0
  6 11  2  0  0  0  0
  6 16  1  0  0  0  0
  7 12  1  0  0  0  0
  7  9  2  0  0  0  0
  8 11  1  0  0  0  0
  8 17  1  0  0  0  0
  9 18  1  0  0  0  0
 10 19  1  0  0  0  0
 11 20  1  0  0  0  0
 12 13  1  0  0  0  0
 12 14  2  0  0  0  0
 13 21  1  0  0  0  0
M  END
>  <Mol_ID>
1598

>  <Formula>
C10H7NO3

>  <MolWeight>
189.16748

>  <Cat>
S4719

>  <Name>
Kynurenic acid

>  <Synonyms>
Quinurenic acid, Kynurenate

>  <Target>
NMDAR

>  <Form>
free base

>  <CAS>
492-27-3

>  <URL>
http://selleckchem.com/products/kynurenic-acid.html

$$$$
