S4718 Acetylcholine iodide.cdx
 OpenBabel08302519503D

 27 25  0  0  0  0  0  0  0  0999 V2000
    1.0254   -0.1496    0.2053 N   0  3  0  0  0  0  0  0  0  0  0  0
    0.6445    1.1159   -0.5094 C   0  0  0  0  0  0  0  0  0  0  0  0
    0.3607   -1.3415   -0.3803 C   0  0  0  0  0  0  0  0  0  0  0  0
    0.5824   -0.0329    1.6168 C   0  0  0  0  0  0  0  0  0  0  0  0
    2.4932   -0.3499    0.2115 C   0  0  0  0  0  0  0  0  0  0  0  0
    0.8710    1.1583   -2.0450 C   0  0  0  0  0  0  0  0  0  0  0  0
    2.1890    1.0416   -2.4381 O   0  0  0  0  0  0  0  0  0  0  0  0
    3.1498    1.9883   -2.2696 C   0  0  0  0  0  0  0  0  0  0  0  0
    4.5405    1.7073   -2.7532 C   0  0  0  0  0  0  0  0  0  0  0  0
    2.8887    3.0682   -1.7634 O   0  0  0  0  0  0  0  0  0  0  0  0
   -3.1031    1.7620    1.5075 I   0  5  0  0  0  0  0  0  0  0  0  0
   -0.4442    1.3001   -0.3678 H   0  0  0  0  0  0  0  0  0  0  0  0
    1.1689    1.9848   -0.0500 H   0  0  0  0  0  0  0  0  0  0  0  0
    0.6619   -2.2669    0.1561 H   0  0  0  0  0  0  0  0  0  0  0  0
   -0.7479   -1.2553   -0.3112 H   0  0  0  0  0  0  0  0  0  0  0  0
    0.6383   -1.4909   -1.4424 H   0  0  0  0  0  0  0  0  0  0  0  0
    0.8643   -0.9325    2.2087 H   0  0  0  0  0  0  0  0  0  0  0  0
    1.0340    0.8570    2.1115 H   0  0  0  0  0  0  0  0  0  0  0  0
   -0.5238    0.0684    1.6850 H   0  0  0  0  0  0  0  0  0  0  0  0
    2.8932   -0.5206   -0.8052 H   0  0  0  0  0  0  0  0  0  0  0  0
    3.0114    0.5242    0.6679 H   0  0  0  0  0  0  0  0  0  0  0  0
    2.7659   -1.2500    0.8048 H   0  0  0  0  0  0  0  0  0  0  0  0
    0.2801    0.3587   -2.5405 H   0  0  0  0  0  0  0  0  0  0  0  0
    0.4639    2.1141   -2.4487 H   0  0  0  0  0  0  0  0  0  0  0  0
    4.5188    1.4823   -3.8410 H   0  0  0  0  0  0  0  0  0  0  0  0
    5.2037    2.5813   -2.5854 H   0  0  0  0  0  0  0  0  0  0  0  0
    4.9565    0.8315   -2.2129 H   0  0  0  0  0  0  0  0  0  0  0  0
  1  2  1  0  0  0  0
  1  3  1  0  0  0  0
  1  4  1  0  0  0  0
  1  5  1  0  0  0  0
  2  6  1  0  0  0  0
  2 12  1  0  0  0  0
  2 13  1  0  0  0  0
  3 14  1  0  0  0  0
  3 15  1  0  0  0  0
  3 16  1  0  0  0  0
  4 17  1  0  0  0  0
  4 18  1  0  0  0  0
  4 19  1  0  0  0  0
  5 20  1  0  0  0  0
  5 21  1  0  0  0  0
  5 22  1  0  0  0  0
  6  7  1  0  0  0  0
  6 23  1  0  0  0  0
  6 24  1  0  0  0  0
  7  8  1  0  0  0  0
  8  9  1  0  0  0  0
  8 10  2  0  0  0  0
  9 25  1  0  0  0  0
  9 26  1  0  0  0  0
  9 27  1  0  0  0  0
M  CHG  2   1   1  11  -1
M  END
>  <Mol_ID>
1603

>  <Formula>
C7H16INO2

>  <MolWeight>
273.11191

>  <Cat>
S4718

>  <Name>
Acetylcholine iodide

>  <Synonyms>
Acetylcolina

>  <Target>
AChR

>  <Form>
iodide salt

>  <CAS>
2260-50-6

>  <URL>
http://selleckchem.com/products/acetylcholine-iodide.html

$$$$
