S4728 3,3'-Diindolylmethane.cdx
 OpenBabel08302519503D

 33 36  0  0  0  0  0  0  0  0999 V2000
   -0.3370   -0.6820    0.5597 C   0  0  0  0  0  0  0  0  0  0  0  0
   -1.5563   -1.1574   -0.0295 C   0  0  0  0  0  0  0  0  0  0  0  0
   -0.2558    0.6883    0.3128 C   0  0  0  0  0  0  0  0  0  0  0  0
    0.7097   -1.2931    1.2819 C   0  0  0  0  0  0  0  0  0  0  0  0
   -2.0713   -2.5693   -0.0229 C   0  0  0  0  0  0  0  0  0  0  0  0
   -2.1589   -0.0657   -0.6258 C   0  0  0  0  0  0  0  0  0  0  0  0
   -1.3813    1.0376   -0.3965 N   0  0  0  0  0  0  0  0  0  0  0  0
    0.8157    1.4783    0.7472 C   0  0  0  0  0  0  0  0  0  0  0  0
    1.7925   -0.5198    1.7188 C   0  0  0  0  0  0  0  0  0  0  0  0
   -2.9579   -2.8512    1.1534 C   0  0  0  0  0  0  0  0  0  0  0  0
    1.8414    0.8461    1.4546 C   0  0  0  0  0  0  0  0  0  0  0  0
   -4.3792   -2.6685    1.2222 C   0  0  0  0  0  0  0  0  0  0  0  0
   -2.5620   -3.3352    2.3873 C   0  0  0  0  0  0  0  0  0  0  0  0
   -4.7821   -2.9862    2.5200 C   0  0  0  0  0  0  0  0  0  0  0  0
   -5.3600   -2.2420    0.3027 C   0  0  0  0  0  0  0  0  0  0  0  0
   -3.6619   -3.4032    3.1988 N   0  0  0  0  0  0  0  0  0  0  0  0
   -6.1070   -2.8627    2.9562 C   0  0  0  0  0  0  0  0  0  0  0  0
   -6.6898   -2.1140    0.7198 C   0  0  0  0  0  0  0  0  0  0  0  0
   -7.0533   -2.4089    2.0313 C   0  0  0  0  0  0  0  0  0  0  0  0
    0.6818   -2.3563    1.4961 H   0  0  0  0  0  0  0  0  0  0  0  0
   -2.6202   -2.7607   -0.9537 H   0  0  0  0  0  0  0  0  0  0  0  0
   -1.2276   -3.2708   -0.0236 H   0  0  0  0  0  0  0  0  0  0  0  0
   -3.0824    0.0205   -1.1818 H   0  0  0  0  0  0  0  0  0  0  0  0
   -1.5946    1.9755   -0.7059 H   0  0  0  0  0  0  0  0  0  0  0  0
    0.8539    2.5437    0.5460 H   0  0  0  0  0  0  0  0  0  0  0  0
    2.6014   -0.9929    2.2697 H   0  0  0  0  0  0  0  0  0  0  0  0
    2.6897    1.4310    1.8028 H   0  0  0  0  0  0  0  0  0  0  0  0
   -1.5858   -3.6135    2.7608 H   0  0  0  0  0  0  0  0  0  0  0  0
   -5.0871   -2.0064   -0.7211 H   0  0  0  0  0  0  0  0  0  0  0  0
   -3.6565   -3.7037    4.1632 H   0  0  0  0  0  0  0  0  0  0  0  0
   -6.3947   -3.0970    3.9747 H   0  0  0  0  0  0  0  0  0  0  0  0
   -7.4424   -1.7730    0.0136 H   0  0  0  0  0  0  0  0  0  0  0  0
   -8.0882   -2.2861    2.3421 H   0  0  0  0  0  0  0  0  0  0  0  0
  1  2  1  0  0  0  0
  1  3  1  0  0  0  0
  1  4  2  0  0  0  0
  2  5  1  0  0  0  0
  2  6  2  0  0  0  0
  3  7  1  0  0  0  0
  3  8  2  0  0  0  0
  4  9  1  0  0  0  0
  4 20  1  0  0  0  0
  5 10  1  0  0  0  0
  5 21  1  0  0  0  0
  5 22  1  0  0  0  0
  6  7  1  0  0  0  0
  6 23  1  0  0  0  0
  7 24  1  0  0  0  0
  8 11  1  0  0  0  0
  8 25  1  0  0  0  0
  9 11  2  0  0  0  0
  9 26  1  0  0  0  0
 10 12  1  0  0  0  0
 10 13  2  0  0  0  0
 11 27  1  0  0  0  0
 12 14  2  0  0  0  0
 12 15  1  0  0  0  0
 13 16  1  0  0  0  0
 13 28  1  0  0  0  0
 14 17  1  0  0  0  0
 14 16  1  0  0  0  0
 15 18  2  0  0  0  0
 15 29  1  0  0  0  0
 16 30  1  0  0  0  0
 17 19  2  0  0  0  0
 17 31  1  0  0  0  0
 18 19  1  0  0  0  0
 18 32  1  0  0  0  0
 19 33  1  0  0  0  0
M  END
>  <Mol_ID>
1599

>  <Formula>
C17H14N2

>  <MolWeight>
246.30646

>  <Cat>
S4728

>  <Name>
3,3'-Diindolylmethane

>  <Synonyms>
DIM

>  <Target>
Androgen Receptor

>  <Form>
free base

>  <CAS>
1968-05-4

>  <URL>
http://selleckchem.com/products/3-3-diindolylmethane.html

$$$$
