S4725 Benzenesulfonamide.cdx
 OpenBabel08302519503D

 17 17  0  0  0  0  0  0  0  0999 V2000
    1.3962   -0.2235    0.0752 C   0  0  0  0  0  0  0  0  0  0  0  0
    0.5278   -1.3192    0.0695 C   0  0  0  0  0  0  0  0  0  0  0  0
   -0.8491   -1.1004    0.0217 C   0  0  0  0  0  0  0  0  0  0  0  0
   -1.3510    0.2021   -0.0125 C   0  0  0  0  0  0  0  0  0  0  0  0
   -0.4797    1.2925    0.0076 C   0  0  0  0  0  0  0  0  0  0  0  0
    0.8984    1.0829    0.0560 C   0  0  0  0  0  0  0  0  0  0  0  0
    3.1424   -0.4817    0.1607 S   0  0  0  0  0  0  0  0  0  0  0  0
    3.7700    0.6873    0.7311 O   0  0  0  0  0  0  0  0  0  0  0  0
    3.4076   -1.8167    0.6451 O   0  0  0  0  0  0  0  0  0  0  0  0
    3.5704   -0.4863   -1.4630 N   0  0  0  0  0  0  0  0  0  0  0  0
    0.9132   -2.3354    0.1027 H   0  0  0  0  0  0  0  0  0  0  0  0
   -1.5340   -1.9452    0.0137 H   0  0  0  0  0  0  0  0  0  0  0  0
   -2.4252    0.3687   -0.0490 H   0  0  0  0  0  0  0  0  0  0  0  0
   -0.8754    2.3054   -0.0115 H   0  0  0  0  0  0  0  0  0  0  0  0
    1.5727    1.9359    0.0789 H   0  0  0  0  0  0  0  0  0  0  0  0
    4.1496    0.3268   -1.6724 H   0  0  0  0  0  0  0  0  0  0  0  0
    4.0060   -1.3778   -1.7014 H   0  0  0  0  0  0  0  0  0  0  0  0
  1  2  2  0  0  0  0
  1  6  1  0  0  0  0
  1  7  1  0  0  0  0
  2  3  1  0  0  0  0
  2 11  1  0  0  0  0
  3  4  2  0  0  0  0
  3 12  1  0  0  0  0
  4  5  1  0  0  0  0
  4 13  1  0  0  0  0
  5  6  2  0  0  0  0
  5 14  1  0  0  0  0
  6 15  1  0  0  0  0
  7  8  2  0  0  0  0
  7  9  2  0  0  0  0
  7 10  1  0  0  0  0
 10 16  1  0  0  0  0
 10 17  1  0  0  0  0
M  END
>  <Mol_ID>
1607

>  <Formula>
C6H7NO2S

>  <MolWeight>
157.19028

>  <Cat>
S4725

>  <Name>
Benzenesulfonamide

>  <Synonyms>
Benzenesulphonamide, Benzosulfonamide, Phenyl sulfonamide, Benzene sulfonamide

>  <Target>
Carbonic Anhydrase

>  <Form>
free base

>  <CAS>
98-10-2

>  <URL>
http://selleckchem.com/products/benzenesulfonamide.html

$$$$
