S4726 Lauric Acid.cdx
 OpenBabel08302519503D

 38 37  0  0  0  0  0  0  0  0999 V2000
    1.2388   -1.6354    1.2612 C   0  0  0  0  0  0  0  0  0  0  0  0
    0.5869   -0.2517    1.1919 C   0  0  0  0  0  0  0  0  0  0  0  0
    0.6923   -2.6184    0.2195 C   0  0  0  0  0  0  0  0  0  0  0  0
    1.1059    0.6751    2.2966 C   0  0  0  0  0  0  0  0  0  0  0  0
    0.9965   -2.2192   -1.2250 C   0  0  0  0  0  0  0  0  0  0  0  0
    0.5370    2.0983    2.2215 C   0  0  0  0  0  0  0  0  0  0  0  0
    0.5053   -3.2589   -2.2087 C   0  0  0  0  0  0  0  0  0  0  0  0
   -0.9815    2.1607    2.4015 C   0  0  0  0  0  0  0  0  0  0  0  0
    0.7574   -2.9096   -3.4924 O   0  0  0  0  0  0  0  0  0  0  0  0
   -0.0574   -4.3006   -1.9169 O   0  0  0  0  0  0  0  0  0  0  0  0
   -1.5010    3.6010    2.3682 C   0  0  0  0  0  0  0  0  0  0  0  0
   -3.0230    3.6380    2.5302 C   0  0  0  0  0  0  0  0  0  0  0  0
   -3.5622    5.0677    2.4949 C   0  0  0  0  0  0  0  0  0  0  0  0
   -5.0749    5.0943    2.6541 C   0  0  0  0  0  0  0  0  0  0  0  0
    1.0599   -2.0618    2.2560 H   0  0  0  0  0  0  0  0  0  0  0  0
    2.3255   -1.5436    1.1471 H   0  0  0  0  0  0  0  0  0  0  0  0
    0.7850    0.2115    0.2201 H   0  0  0  0  0  0  0  0  0  0  0  0
   -0.4985   -0.3724    1.2823 H   0  0  0  0  0  0  0  0  0  0  0  0
    1.1297   -3.6054    0.4178 H   0  0  0  0  0  0  0  0  0  0  0  0
   -0.3909   -2.7308    0.3523 H   0  0  0  0  0  0  0  0  0  0  0  0
    0.8816    0.2433    3.2793 H   0  0  0  0  0  0  0  0  0  0  0  0
    2.1985    0.7404    2.2227 H   0  0  0  0  0  0  0  0  0  0  0  0
    0.5012   -1.2746   -1.4691 H   0  0  0  0  0  0  0  0  0  0  0  0
    2.0781   -2.1063   -1.3585 H   0  0  0  0  0  0  0  0  0  0  0  0
    1.0153    2.7004    3.0037 H   0  0  0  0  0  0  0  0  0  0  0  0
    0.8145    2.5512    1.2620 H   0  0  0  0  0  0  0  0  0  0  0  0
   -1.4775    1.5933    1.6062 H   0  0  0  0  0  0  0  0  0  0  0  0
   -1.2563    1.6931    3.3549 H   0  0  0  0  0  0  0  0  0  0  0  0
    1.2089   -2.0497   -3.5847 H   0  0  0  0  0  0  0  0  0  0  0  0
   -1.0294    4.1835    3.1687 H   0  0  0  0  0  0  0  0  0  0  0  0
   -1.2214    4.0706    1.4171 H   0  0  0  0  0  0  0  0  0  0  0  0
   -3.4912    3.0515    1.7300 H   0  0  0  0  0  0  0  0  0  0  0  0
   -3.3011    3.1657    3.4802 H   0  0  0  0  0  0  0  0  0  0  0  0
   -3.1059    5.6574    3.2983 H   0  0  0  0  0  0  0  0  0  0  0  0
   -3.2923    5.5462    1.5463 H   0  0  0  0  0  0  0  0  0  0  0  0
   -5.3791    4.6304    3.5979 H   0  0  0  0  0  0  0  0  0  0  0  0
   -5.4395    6.1263    2.6502 H   0  0  0  0  0  0  0  0  0  0  0  0
   -5.5650    4.5583    1.8348 H   0  0  0  0  0  0  0  0  0  0  0  0
  1  2  1  0  0  0  0
  1  3  1  0  0  0  0
  1 15  1  0  0  0  0
  1 16  1  0  0  0  0
  2  4  1  0  0  0  0
  2 17  1  0  0  0  0
  2 18  1  0  0  0  0
  3  5  1  0  0  0  0
  3 19  1  0  0  0  0
  3 20  1  0  0  0  0
  4  6  1  0  0  0  0
  4 21  1  0  0  0  0
  4 22  1  0  0  0  0
  5  7  1  0  0  0  0
  5 23  1  0  0  0  0
  5 24  1  0  0  0  0
  6  8  1  0  0  0  0
  6 25  1  0  0  0  0
  6 26  1  0  0  0  0
  7  9  1  0  0  0  0
  7 10  2  0  0  0  0
  8 11  1  0  0  0  0
  8 27  1  0  0  0  0
  8 28  1  0  0  0  0
  9 29  1  0  0  0  0
 11 12  1  0  0  0  0
 11 30  1  0  0  0  0
 11 31  1  0  0  0  0
 12 13  1  0  0  0  0
 12 32  1  0  0  0  0
 12 33  1  0  0  0  0
 13 14  1  0  0  0  0
 13 34  1  0  0  0  0
 13 35  1  0  0  0  0
 14 36  1  0  0  0  0
 14 37  1  0  0  0  0
 14 38  1  0  0  0  0
M  END
>  <Mol_ID>
1606

>  <Formula>
C12H24O2

>  <MolWeight>
200.31776

>  <Cat>
S4726

>  <Name>
Lauric Acid

>  <Synonyms>
dodecanoic acid, N-Dodecanoic acid, Dodecylic acid

>  <Target>
Anti-infection

>  <Form>
free base

>  <CAS>
143-07-7

>  <URL>
http://selleckchem.com/products/lauric-acid.html

$$$$
