S4736 Trapidil.cdx
 OpenBabel08302519503D

 30 31  0  0  0  0  0  0  0  0999 V2000
    1.5494   -1.2808    0.0304 C   0  0  0  0  0  0  0  0  0  0  0  0
    1.8038    0.1894    0.0293 C   0  0  0  0  0  0  0  0  0  0  0  0
    0.8873    1.1093    0.0289 N   0  0  0  0  0  0  0  0  0  0  0  0
   -0.4077    0.6781    0.0210 C   0  0  0  0  0  0  0  0  0  0  0  0
   -0.7416   -0.6876    0.0087 N   0  0  0  0  0  0  0  0  0  0  0  0
    0.2665   -1.6842    0.0062 C   0  0  0  0  0  0  0  0  0  0  0  0
   -1.5110    1.3956    0.0078 N   0  0  0  0  0  0  0  0  0  0  0  0
   -2.4961    0.4602   -0.0113 C   0  0  0  0  0  0  0  0  0  0  0  0
   -2.1012   -0.8100   -0.0046 N   0  0  0  0  0  0  0  0  0  0  0  0
   -0.0719   -3.0458   -0.0281 N   0  0  0  0  0  0  0  0  0  0  0  0
   -0.1616   -3.7824   -1.2945 C   0  0  0  0  0  0  0  0  0  0  0  0
   -0.4401   -3.7781    1.1886 C   0  0  0  0  0  0  0  0  0  0  0  0
    0.7968   -4.4160    1.8073 C   0  0  0  0  0  0  0  0  0  0  0  0
   -1.5746   -3.7664   -1.8549 C   0  0  0  0  0  0  0  0  0  0  0  0
    3.2454    0.6339    0.0125 C   0  0  0  0  0  0  0  0  0  0  0  0
    2.3796   -1.9720    0.0463 H   0  0  0  0  0  0  0  0  0  0  0  0
   -3.5471    0.7205   -0.0328 H   0  0  0  0  0  0  0  0  0  0  0  0
    0.5279   -3.3539   -2.0319 H   0  0  0  0  0  0  0  0  0  0  0  0
    0.1571   -4.8201   -1.1411 H   0  0  0  0  0  0  0  0  0  0  0  0
   -0.9140   -3.1083    1.9154 H   0  0  0  0  0  0  0  0  0  0  0  0
   -1.1707   -4.5624    0.9588 H   0  0  0  0  0  0  0  0  0  0  0  0
    1.5210   -3.6556    2.1175 H   0  0  0  0  0  0  0  0  0  0  0  0
    0.5236   -5.0038    2.6888 H   0  0  0  0  0  0  0  0  0  0  0  0
    1.2982   -5.0819    1.0964 H   0  0  0  0  0  0  0  0  0  0  0  0
   -1.8680   -2.7570   -2.1584 H   0  0  0  0  0  0  0  0  0  0  0  0
   -1.6362   -4.4124   -2.7366 H   0  0  0  0  0  0  0  0  0  0  0  0
   -2.3047   -4.1239   -1.1219 H   0  0  0  0  0  0  0  0  0  0  0  0
    3.4263    1.2244   -0.8913 H   0  0  0  0  0  0  0  0  0  0  0  0
    3.4453    1.2560    0.8900 H   0  0  0  0  0  0  0  0  0  0  0  0
    3.9303   -0.2170    0.0184 H   0  0  0  0  0  0  0  0  0  0  0  0
  1  2  1  0  0  0  0
  1 16  1  0  0  0  0
  2  3  2  0  0  0  0
  2 15  1  0  0  0  0
  4  5  1  0  0  0  0
  4  7  2  0  0  0  0
  4  3  1  0  0  0  0
  6  1  2  0  0  0  0
  6 10  1  0  0  0  0
  6  5  1  0  0  0  0
  7  8  1  0  0  0  0
  8  9  2  0  0  0  0
  8 17  1  0  0  0  0
  9  5  1  0  0  0  0
 10 11  1  0  0  0  0
 10 12  1  0  0  0  0
 11 14  1  0  0  0  0
 11 18  1  0  0  0  0
 11 19  1  0  0  0  0
 12 13  1  0  0  0  0
 12 20  1  0  0  0  0
 12 21  1  0  0  0  0
 13 22  1  0  0  0  0
 13 23  1  0  0  0  0
 13 24  1  0  0  0  0
 14 25  1  0  0  0  0
 14 26  1  0  0  0  0
 14 27  1  0  0  0  0
 15 28  1  0  0  0  0
 15 29  1  0  0  0  0
 15 30  1  0  0  0  0
M  END
>  <Mol_ID>
1619

>  <Formula>
C10H15N5

>  <MolWeight>
205.2596

>  <Cat>
S4736

>  <Name>
Trapidil

>  <Synonyms>
Rocornal, Trapymin, Avantrin, Trapymine

>  <Target>
PDGFR

>  <Form>
free base

>  <CAS>
15421-84-8

>  <URL>
http://selleckchem.com/products/trapidil.html

$$$$
