S4732 MPTP hydrochloride.cdx
 OpenBabel08302519503D

 28 29  0  0  0  0  0  0  0  0999 V2000
    1.2549   -0.4107    0.4927 C   0  0  0  0  0  0  0  0  0  0  0  0
    0.4800   -1.3796   -0.1451 C   0  0  0  0  0  0  0  0  0  0  0  0
   -0.7886   -1.0531   -0.6252 C   0  0  0  0  0  0  0  0  0  0  0  0
   -1.2835    0.2454   -0.4635 C   0  0  0  0  0  0  0  0  0  0  0  0
   -0.5145    1.2187    0.1816 C   0  0  0  0  0  0  0  0  0  0  0  0
    0.7611    0.8810    0.6580 C   0  0  0  0  0  0  0  0  0  0  0  0
   -1.0609    2.5627    0.4174 C   0  0  0  0  0  0  0  0  0  0  0  0
   -0.8690    3.6084   -0.6323 C   0  0  0  0  0  0  0  0  0  0  0  0
   -1.3590    5.0165   -0.2373 C   0  0  0  0  0  0  0  0  0  0  0  0
   -2.3076    5.1694    0.8652 N   0  0  0  0  0  0  0  0  0  0  0  0
   -2.2814    4.1538    1.9123 C   0  0  0  0  0  0  0  0  0  0  0  0
   -1.7044    2.8222    1.5676 C   0  0  0  0  0  0  0  0  0  0  0  0
   -3.6471    5.5521    0.4580 C   0  0  0  0  0  0  0  0  0  0  0  0
    2.2415   -0.6660    0.8700 H   0  0  0  0  0  0  0  0  0  0  0  0
    0.8619   -2.3902   -0.2628 H   0  0  0  0  0  0  0  0  0  0  0  0
   -1.3951   -1.8076   -1.1188 H   0  0  0  0  0  0  0  0  0  0  0  0
   -2.2810    0.4840   -0.8254 H   0  0  0  0  0  0  0  0  0  0  0  0
    1.3638    1.6273    1.1723 H   0  0  0  0  0  0  0  0  0  0  0  0
   -1.3896    3.2906   -1.5439 H   0  0  0  0  0  0  0  0  0  0  0  0
    0.1988    3.6796   -0.8824 H   0  0  0  0  0  0  0  0  0  0  0  0
   -1.7415    5.5014   -1.1461 H   0  0  0  0  0  0  0  0  0  0  0  0
   -0.4743    5.6105    0.0284 H   0  0  0  0  0  0  0  0  0  0  0  0
   -1.7020    4.5512    2.7527 H   0  0  0  0  0  0  0  0  0  0  0  0
   -3.2914    3.9800    2.3079 H   0  0  0  0  0  0  0  0  0  0  0  0
   -1.8242    2.0397    2.3105 H   0  0  0  0  0  0  0  0  0  0  0  0
   -4.1663    4.7470   -0.0697 H   0  0  0  0  0  0  0  0  0  0  0  0
   -4.2446    5.8420    1.3300 H   0  0  0  0  0  0  0  0  0  0  0  0
   -3.6185    6.4364   -0.1881 H   0  0  0  0  0  0  0  0  0  0  0  0
  1  2  2  0  0  0  0
  1 14  1  0  0  0  0
  2  3  1  0  0  0  0
  2 15  1  0  0  0  0
  3  4  2  0  0  0  0
  3 16  1  0  0  0  0
  4  5  1  0  0  0  0
  4 17  1  0  0  0  0
  5  6  2  0  0  0  0
  5  7  1  0  0  0  0
  6  1  1  0  0  0  0
  6 18  1  0  0  0  0
  7  8  1  0  0  0  0
  8  9  1  0  0  0  0
  8 19  1  0  0  0  0
  8 20  1  0  0  0  0
  9 10  1  0  0  0  0
  9 21  1  0  0  0  0
  9 22  1  0  0  0  0
 10 11  1  0  0  0  0
 10 13  1  0  0  0  0
 11 12  1  0  0  0  0
 11 23  1  0  0  0  0
 11 24  1  0  0  0  0
 12  7  2  0  0  0  0
 12 25  1  0  0  0  0
 13 26  1  0  0  0  0
 13 27  1  0  0  0  0
 13 28  1  0  0  0  0
M  END
>  <Mol_ID>
1614

>  <Formula>
C12H16ClN

>  <MolWeight>
209.71514

>  <Cat>
S4732

>  <Name>
MPTP hydrochloride

>  <Synonyms>
N/A

>  <Target>
Apoptosis related,Dopamine Receptor

>  <Form>
hydrochloride

>  <CAS>
23007-85-4

>  <URL>
http://selleckchem.com/products/mptp-hydrochloride.html

$$$$
