S4733 Retigabine.cdx
 OpenBabel08302519503D

 40 41  0  0  0  0  0  0  0  0999 V2000
    1.0380   -0.2165    0.0202 C   0  0  0  0  0  0  0  0  0  0  0  0
    0.2295    0.6867    0.6642 N   0  0  0  0  0  0  0  0  0  0  0  0
    2.0804    0.0335   -0.5790 O   0  0  0  0  0  0  0  0  0  0  0  0
    0.5581   -1.4864    0.1395 O   0  0  0  0  0  0  0  0  0  0  0  0
    0.5069    2.0730    0.8299 C   0  0  0  0  0  0  0  0  0  0  0  0
    1.3427    2.8232   -0.0283 C   0  0  0  0  0  0  0  0  0  0  0  0
    1.7018    4.1273    0.3371 C   0  0  0  0  0  0  0  0  0  0  0  0
    1.3224    4.7067    1.5514 C   0  0  0  0  0  0  0  0  0  0  0  0
    0.3982    4.0069    2.3269 C   0  0  0  0  0  0  0  0  0  0  0  0
   -0.0160    2.7101    1.9670 C   0  0  0  0  0  0  0  0  0  0  0  0
    1.9132    5.9012    1.9136 N   0  0  0  0  0  0  0  0  0  0  0  0
    1.3503    6.8957    2.8031 C   0  0  0  0  0  0  0  0  0  0  0  0
    2.1280    7.0220    4.0971 C   0  0  0  0  0  0  0  0  0  0  0  0
    2.2049    8.2698    4.7439 C   0  0  0  0  0  0  0  0  0  0  0  0
    2.8434    8.3948    5.9807 C   0  0  0  0  0  0  0  0  0  0  0  0
    3.4037    7.2740    6.5793 C   0  0  0  0  0  0  0  0  0  0  0  0
    3.3434    6.0317    5.9627 C   0  0  0  0  0  0  0  0  0  0  0  0
    2.7050    5.9060    4.7274 C   0  0  0  0  0  0  0  0  0  0  0  0
    4.0032    7.3914    7.7718 F   0  0  0  0  0  0  0  0  0  0  0  0
    1.6357    2.4303   -1.3558 N   0  0  0  0  0  0  0  0  0  0  0  0
    1.3859   -2.4960   -0.4735 C   0  0  0  0  0  0  0  0  0  0  0  0
    1.1699   -2.5631   -1.9791 C   0  0  0  0  0  0  0  0  0  0  0  0
   -0.4661    0.2642    1.2628 H   0  0  0  0  0  0  0  0  0  0  0  0
    2.3231    4.7002   -0.3470 H   0  0  0  0  0  0  0  0  0  0  0  0
    0.0372    4.4221    3.2636 H   0  0  0  0  0  0  0  0  0  0  0  0
   -0.6969    2.1854    2.6330 H   0  0  0  0  0  0  0  0  0  0  0  0
    2.6542    6.2398    1.3103 H   0  0  0  0  0  0  0  0  0  0  0  0
    1.4033    7.8533    2.2694 H   0  0  0  0  0  0  0  0  0  0  0  0
    0.2938    6.7164    3.0250 H   0  0  0  0  0  0  0  0  0  0  0  0
    1.7599    9.1540    4.2910 H   0  0  0  0  0  0  0  0  0  0  0  0
    2.8989    9.3549    6.4842 H   0  0  0  0  0  0  0  0  0  0  0  0
    3.7850    5.1668    6.4465 H   0  0  0  0  0  0  0  0  0  0  0  0
    2.6586    4.9264    4.2559 H   0  0  0  0  0  0  0  0  0  0  0  0
    2.5291    2.7966   -1.6619 H   0  0  0  0  0  0  0  0  0  0  0  0
    1.6715    1.4117   -1.4286 H   0  0  0  0  0  0  0  0  0  0  0  0
    2.4478   -2.3369   -0.2377 H   0  0  0  0  0  0  0  0  0  0  0  0
    1.1093   -3.4544   -0.0245 H   0  0  0  0  0  0  0  0  0  0  0  0
    1.6700   -1.7319   -2.4884 H   0  0  0  0  0  0  0  0  0  0  0  0
    1.5801   -3.4924   -2.3883 H   0  0  0  0  0  0  0  0  0  0  0  0
    0.1066   -2.5015   -2.2264 H   0  0  0  0  0  0  0  0  0  0  0  0
  1  2  1  0  0  0  0
  1  3  2  0  0  0  0
  1  4  1  0  0  0  0
  2  5  1  0  0  0  0
  2 23  1  0  0  0  0
  4 21  1  0  0  0  0
  5  6  2  0  0  0  0
  5 10  1  0  0  0  0
  6  7  1  0  0  0  0
  6 20  1  0  0  0  0
  7  8  2  0  0  0  0
  7 24  1  0  0  0  0
  8  9  1  0  0  0  0
  8 11  1  0  0  0  0
  9 10  2  0  0  0  0
  9 25  1  0  0  0  0
 10 26  1  0  0  0  0
 11 12  1  0  0  0  0
 11 27  1  0  0  0  0
 12 13  1  0  0  0  0
 12 28  1  0  0  0  0
 12 29  1  0  0  0  0
 13 14  2  0  0  0  0
 13 18  1  0  0  0  0
 14 15  1  0  0  0  0
 14 30  1  0  0  0  0
 15 16  2  0  0  0  0
 15 31  1  0  0  0  0
 16 17  1  0  0  0  0
 16 19  1  0  0  0  0
 17 18  2  0  0  0  0
 17 32  1  0  0  0  0
 18 33  1  0  0  0  0
 20 34  1  0  0  0  0
 20 35  1  0  0  0  0
 21 22  1  0  0  0  0
 21 36  1  0  0  0  0
 21 37  1  0  0  0  0
 22 38  1  0  0  0  0
 22 39  1  0  0  0  0
 22 40  1  0  0  0  0
M  END
>  <Mol_ID>
1618

>  <Formula>
C16H18FN3O2

>  <MolWeight>
303.3314232

>  <Cat>
S4733

>  <Name>
Retigabine

>  <Synonyms>
D-23129, N-(2-amino-4-[fluorobenzylamino]-phenyl) carbamic acid

>  <Target>
Potassium Channel

>  <Form>
free base

>  <CAS>
150812-12-7

>  <URL>
http://selleckchem.com/products/retigabine.html

$$$$
