S4737 Psoralen.cdx
 OpenBabel08302519503D

 20 22  0  0  0  0  0  0  0  0999 V2000
   -2.8567    1.1578    0.0214 C   0  0  0  0  0  0  0  0  0  0  0  0
   -2.9945   -0.3083    0.0105 C   0  0  0  0  0  0  0  0  0  0  0  0
   -1.8198   -1.0467    0.0016 O   0  0  0  0  0  0  0  0  0  0  0  0
   -0.5533   -0.4196   -0.0047 C   0  0  0  0  0  0  0  0  0  0  0  0
   -0.4491    0.9739   -0.0090 C   0  0  0  0  0  0  0  0  0  0  0  0
   -1.6679    1.7688    0.0092 C   0  0  0  0  0  0  0  0  0  0  0  0
    0.5579   -1.2648   -0.0045 C   0  0  0  0  0  0  0  0  0  0  0  0
    1.7925   -0.6249   -0.0059 C   0  0  0  0  0  0  0  0  0  0  0  0
    1.9611    0.7564   -0.0153 C   0  0  0  0  0  0  0  0  0  0  0  0
    0.8172    1.5794   -0.0206 C   0  0  0  0  0  0  0  0  0  0  0  0
    3.0033   -1.2479    0.0039 O   0  0  0  0  0  0  0  0  0  0  0  0
    3.9503   -0.2742    0.0019 C   0  0  0  0  0  0  0  0  0  0  0  0
    3.3654    0.9711   -0.0133 C   0  0  0  0  0  0  0  0  0  0  0  0
   -4.1016   -0.8334    0.0095 O   0  0  0  0  0  0  0  0  0  0  0  0
   -3.7852    1.7154    0.0412 H   0  0  0  0  0  0  0  0  0  0  0  0
   -1.5953    2.8508    0.0198 H   0  0  0  0  0  0  0  0  0  0  0  0
    0.4722   -2.3436    0.0017 H   0  0  0  0  0  0  0  0  0  0  0  0
    0.9254    2.6600   -0.0276 H   0  0  0  0  0  0  0  0  0  0  0  0
    4.9741   -0.6215    0.0129 H   0  0  0  0  0  0  0  0  0  0  0  0
    3.8873    1.9173   -0.0178 H   0  0  0  0  0  0  0  0  0  0  0  0
  1  2  1  0  0  0  0
  1 15  1  0  0  0  0
  2  3  1  0  0  0  0
  2 14  2  0  0  0  0
  3  4  1  0  0  0  0
  4  5  2  0  0  0  0
  4  7  1  0  0  0  0
  5  6  1  0  0  0  0
  6  1  2  0  0  0  0
  6 16  1  0  0  0  0
  7  8  2  0  0  0  0
  7 17  1  0  0  0  0
  8  9  1  0  0  0  0
  8 11  1  0  0  0  0
  9 10  2  0  0  0  0
 10  5  1  0  0  0  0
 10 18  1  0  0  0  0
 11 12  1  0  0  0  0
 12 13  2  0  0  0  0
 12 19  1  0  0  0  0
 13  9  1  0  0  0  0
 13 20  1  0  0  0  0
M  END
>  <Mol_ID>
1624

>  <Formula>
C11H6O3

>  <MolWeight>
186.16354

>  <Cat>
S4737

>  <Name>
Psoralen

>  <Synonyms>
Psoralene, Ficusin, Furocoumarin

>  <Target>
ADC Cytotoxin,DNA/RNA Synthesis

>  <Form>
free base

>  <CAS>
66-97-7

>  <URL>
http://selleckchem.com/products/psoralen.html

$$$$
