S4739 Oxyresveratrol.cdx
 OpenBabel08302519503D

 30 31  0  0  0  0  0  0  0  0999 V2000
   -0.1297    1.6901    0.4236 C   0  0  0  0  0  0  0  0  0  0  0  0
   -1.2740    0.9775    0.0220 C   0  0  0  0  0  0  0  0  0  0  0  0
   -1.1045   -0.3650   -0.3580 C   0  0  0  0  0  0  0  0  0  0  0  0
    0.1421   -0.9892   -0.2845 C   0  0  0  0  0  0  0  0  0  0  0  0
    1.2513   -0.2598    0.1174 C   0  0  0  0  0  0  0  0  0  0  0  0
    1.1290    1.0800    0.4675 C   0  0  0  0  0  0  0  0  0  0  0  0
    2.4597   -0.8906    0.1343 O   0  0  0  0  0  0  0  0  0  0  0  0
   -2.1196   -1.1262   -0.8729 O   0  0  0  0  0  0  0  0  0  0  0  0
   -2.5463    1.7271   -0.0347 C   0  0  0  0  0  0  0  0  0  0  0  0
   -3.7609    1.2280    0.2591 C   0  0  0  0  0  0  0  0  0  0  0  0
   -5.0206    1.9920    0.1642 C   0  0  0  0  0  0  0  0  0  0  0  0
   -6.1934    1.3007   -0.1826 C   0  0  0  0  0  0  0  0  0  0  0  0
   -7.4071    1.9831   -0.2761 C   0  0  0  0  0  0  0  0  0  0  0  0
   -7.4830    3.3467   -0.0175 C   0  0  0  0  0  0  0  0  0  0  0  0
   -6.3286    4.0264    0.3426 C   0  0  0  0  0  0  0  0  0  0  0  0
   -5.1026    3.3655    0.4436 C   0  0  0  0  0  0  0  0  0  0  0  0
   -6.4388    5.3641    0.5935 O   0  0  0  0  0  0  0  0  0  0  0  0
   -8.5593    1.3405   -0.6237 O   0  0  0  0  0  0  0  0  0  0  0  0
   -0.2065    2.7379    0.7071 H   0  0  0  0  0  0  0  0  0  0  0  0
    0.2492   -2.0309   -0.5729 H   0  0  0  0  0  0  0  0  0  0  0  0
    1.9929    1.6635    0.7687 H   0  0  0  0  0  0  0  0  0  0  0  0
    3.1419   -0.2580    0.4102 H   0  0  0  0  0  0  0  0  0  0  0  0
   -2.7155   -0.5183   -1.3420 H   0  0  0  0  0  0  0  0  0  0  0  0
   -2.4415    2.7689   -0.3267 H   0  0  0  0  0  0  0  0  0  0  0  0
   -3.8694    0.1909    0.5705 H   0  0  0  0  0  0  0  0  0  0  0  0
   -6.1534    0.2357   -0.3869 H   0  0  0  0  0  0  0  0  0  0  0  0
   -8.4303    3.8676   -0.0943 H   0  0  0  0  0  0  0  0  0  0  0  0
   -4.2178    3.9144    0.7493 H   0  0  0  0  0  0  0  0  0  0  0  0
   -5.5636    5.7177    0.8191 H   0  0  0  0  0  0  0  0  0  0  0  0
   -8.3649    0.4010   -0.7709 H   0  0  0  0  0  0  0  0  0  0  0  0
  1  2  2  0  0  0  0
  1 19  1  0  0  0  0
  2  9  1  0  0  0  0
  2  3  1  0  0  0  0
  3  4  2  0  0  0  0
  3  8  1  0  0  0  0
  4  5  1  0  0  0  0
  4 20  1  0  0  0  0
  5  6  2  0  0  0  0
  5  7  1  0  0  0  0
  6  1  1  0  0  0  0
  6 21  1  0  0  0  0
  7 22  1  0  0  0  0
  8 23  1  0  0  0  0
  9 10  2  0  0  0  0
  9 24  1  0  0  0  0
 10 11  1  0  0  0  0
 10 25  1  0  0  0  0
 11 12  2  0  0  0  0
 12 13  1  0  0  0  0
 12 26  1  0  0  0  0
 13 14  2  0  0  0  0
 13 18  1  0  0  0  0
 14 15  1  0  0  0  0
 14 27  1  0  0  0  0
 15 16  2  0  0  0  0
 15 17  1  0  0  0  0
 16 11  1  0  0  0  0
 16 28  1  0  0  0  0
 17 29  1  0  0  0  0
 18 30  1  0  0  0  0
M  END
>  <Mol_ID>
1622

>  <Formula>
C14H12O4

>  <MolWeight>
244.24268

>  <Cat>
S4739

>  <Name>
Oxyresveratrol

>  <Synonyms>
Tetrahydroxystilbene, 2,3',4,5'-tetrahydroxystilbene

>  <Target>
Tyrosinase

>  <Form>
free base

>  <CAS>
29700-22-9

>  <URL>
http://selleckchem.com/products/oxyresveratrol.html

$$$$
