S4740 Ferulic acid (sodium).cdx
 OpenBabel08302521383D

 23 23  0  0  0  0  0  0  0  0999 V2000
   -1.2448   -1.1639   -0.0258 C   0  0  0  0  0  0  0  0  0  0  0  0
    0.1595   -1.2060    0.0081 C   0  0  0  0  0  0  0  0  0  0  0  0
   -1.8878    0.0823   -0.0100 C   0  0  0  0  0  0  0  0  0  0  0  0
   -2.0466   -2.3977   -0.0243 C   0  0  0  0  0  0  0  0  0  0  0  0
    0.9122   -0.0313    0.0172 C   0  0  0  0  0  0  0  0  0  0  0  0
   -1.1443    1.2654    0.0057 C   0  0  0  0  0  0  0  0  0  0  0  0
   -1.6453   -3.5558   -0.5710 C   0  0  0  0  0  0  0  0  0  0  0  0
    0.2424    1.1962    0.0155 C   0  0  0  0  0  0  0  0  0  0  0  0
    2.2836    0.0476    0.0313 O   0  0  0  0  0  0  0  0  0  0  0  0
   -2.4768   -4.8385   -0.5442 C   0  0  0  0  0  0  0  0  0  0  0  0
    0.9563    2.3651    0.0294 O   0  0  0  0  0  0  0  0  0  0  0  0
    2.9771   -1.1973    0.0155 C   0  0  0  0  0  0  0  0  0  0  0  0
   -1.9033   -5.8230   -1.0931 O   0  0  0  0  0  0  0  0  0  0  0  0
   -3.6044   -4.7659    0.0167 O   0  5  0  0  0  0  0  0  0  0  0  0
    0.6416   -2.1775    0.0343 H   0  0  0  0  0  0  0  0  0  0  0  0
   -2.9737    0.1356   -0.0204 H   0  0  0  0  0  0  0  0  0  0  0  0
   -3.0269   -2.3494    0.4495 H   0  0  0  0  0  0  0  0  0  0  0  0
   -1.6434    2.2290    0.0084 H   0  0  0  0  0  0  0  0  0  0  0  0
   -0.6907   -3.6544   -1.0787 H   0  0  0  0  0  0  0  0  0  0  0  0
    1.8892    2.0743    0.0365 H   0  0  0  0  0  0  0  0  0  0  0  0
    2.7667   -1.7753    0.9217 H   0  0  0  0  0  0  0  0  0  0  0  0
    2.7430   -1.7724   -0.8868 H   0  0  0  0  0  0  0  0  0  0  0  0
    4.0496   -0.9815    0.0010 H   0  0  0  0  0  0  0  0  0  0  0  0
  1  2  2  0  0  0  0
  1  3  1  0  0  0  0
  1  4  1  0  0  0  0
  2  5  1  0  0  0  0
  2 15  1  0  0  0  0
  3  6  2  0  0  0  0
  3 16  1  0  0  0  0
  4  7  2  0  0  0  0
  4 17  1  0  0  0  0
  5  8  2  0  0  0  0
  5  9  1  0  0  0  0
  6  8  1  0  0  0  0
  6 18  1  0  0  0  0
  7 10  1  0  0  0  0
  7 19  1  0  0  0  0
  8 11  1  0  0  0  0
  9 12  1  0  0  0  0
 10 13  2  0  0  0  0
 10 14  1  0  0  0  0
 11 20  1  0  0  0  0
 12 21  1  0  0  0  0
 12 22  1  0  0  0  0
 12 23  1  0  0  0  0
M  CHG  1  14  -1
M  END
>  <Mol_ID>
7777

>  <Formula>
C10H9NaO4

>  <MolWeight>
216.16583

>  <Cat>
S4740

>  <Name>
Sodium ferulate

>  <Synonyms>
Ferulic acid sodium salt

>  <Target>
5-HT Receptor

>  <Form>
Sodium salt

>  <CAS>
24276-84-4

>  <URL>
http://selleckchem.com/products/ferulic-acid-sodium.html

$$$$
