S4759 p-Coumaric Acid.cdx
 OpenBabel08302519503D

 20 20  0  0  0  0  0  0  0  0999 V2000
    0.8412   -0.0708    0.2003 C   0  0  0  0  0  0  0  0  0  0  0  0
    0.1704   -1.1838   -0.5025 C   0  0  0  0  0  0  0  0  0  0  0  0
   -1.1444   -1.0933   -0.7589 C   0  0  0  0  0  0  0  0  0  0  0  0
   -1.9433   -2.1186   -1.4460 C   0  0  0  0  0  0  0  0  0  0  0  0
   -1.6408   -3.4867   -1.3837 C   0  0  0  0  0  0  0  0  0  0  0  0
   -2.4631   -4.4303   -2.0088 C   0  0  0  0  0  0  0  0  0  0  0  0
   -3.5972   -4.0053   -2.6906 C   0  0  0  0  0  0  0  0  0  0  0  0
   -3.9177   -2.6565   -2.7615 C   0  0  0  0  0  0  0  0  0  0  0  0
   -3.0958   -1.7160   -2.1361 C   0  0  0  0  0  0  0  0  0  0  0  0
    0.2879    0.9483    0.5732 O   0  0  0  0  0  0  0  0  0  0  0  0
    2.1529   -0.3109    0.3923 O   0  0  0  0  0  0  0  0  0  0  0  0
   -4.4351   -4.8904   -3.3000 O   0  0  0  0  0  0  0  0  0  0  0  0
    0.7554   -2.0409   -0.8026 H   0  0  0  0  0  0  0  0  0  0  0  0
   -1.6910   -0.1989   -0.4577 H   0  0  0  0  0  0  0  0  0  0  0  0
   -0.7749   -3.8434   -0.8327 H   0  0  0  0  0  0  0  0  0  0  0  0
   -2.2080   -5.4833   -1.9429 H   0  0  0  0  0  0  0  0  0  0  0  0
   -4.8092   -2.3358   -3.2933 H   0  0  0  0  0  0  0  0  0  0  0  0
   -3.3681   -0.6640   -2.1942 H   0  0  0  0  0  0  0  0  0  0  0  0
    2.4831   -1.1582    0.0463 H   0  0  0  0  0  0  0  0  0  0  0  0
   -4.1191   -5.7914   -3.1237 H   0  0  0  0  0  0  0  0  0  0  0  0
  1  2  1  0  0  0  0
  1 10  2  0  0  0  0
  1 11  1  0  0  0  0
  2  3  2  0  0  0  0
  2 13  1  0  0  0  0
  3  4  1  0  0  0  0
  3 14  1  0  0  0  0
  4  5  2  0  0  0  0
  4  9  1  0  0  0  0
  5  6  1  0  0  0  0
  5 15  1  0  0  0  0
  6  7  2  0  0  0  0
  6 16  1  0  0  0  0
  7  8  1  0  0  0  0
  7 12  1  0  0  0  0
  8  9  2  0  0  0  0
  8 17  1  0  0  0  0
  9 18  1  0  0  0  0
 11 19  1  0  0  0  0
 12 20  1  0  0  0  0
M  END
>  <Mol_ID>
1751

>  <Formula>
C9H8O3

>  <MolWeight>
164.15802

>  <Cat>
S4759

>  <Name>
p-Coumaric Acid

>  <Synonyms>
4-Hydroxycinnamic acid, P-Hydroxycinnamic acid, 4-Coumaric acid, Trans-p-Coumaric acid, para-Coumaric Acid

>  <Target>
Anti-infection

>  <Form>
free base

>  <CAS>
501-98-4

>  <URL>
http://selleckchem.com/products/p-coumaric-acid.html

$$$$
