S4752 Corticosterone.cdx
 OpenBabel08302519503D

 55 58  0  0  0  0  0  0  0  0999 V2000
    0.7916    0.1858   -0.2447 C   0  0  3  0  0  0  0  0  0  0  0  0
    0.6455   -1.2943    0.2812 C   0  0  3  0  0  0  0  0  0  0  0  0
   -0.4149    1.0808    0.3355 C   0  0  3  0  0  0  0  0  0  0  0  0
    2.2621    0.7581   -0.1933 C   0  0  3  0  0  0  0  0  0  0  0  0
    1.8713   -2.1710    0.0803 C   0  0  3  0  0  0  0  0  0  0  0  0
   -0.6486   -1.8613   -0.2815 C   0  0  0  0  0  0  0  0  0  0  0  0
   -1.7510    0.2760    0.4372 C   0  0  0  0  0  0  0  0  0  0  0  0
   -0.7064    2.2763   -0.6193 C   0  0  0  0  0  0  0  0  0  0  0  0
    3.3958   -0.2900   -0.1560 C   0  0  0  0  0  0  0  0  0  0  0  0
    2.4926    1.6948    0.8480 O   0  0  0  0  0  0  0  0  0  0  0  0
    3.0632   -1.4732    0.7638 C   0  0  3  0  0  0  0  0  0  0  0  0
    1.8761   -3.5843    0.6896 C   0  0  0  0  0  0  0  0  0  0  0  0
   -1.7587   -1.2354    0.5481 C   0  0  0  0  0  0  0  0  0  0  0  0
   -2.9615    0.8585    0.3565 C   0  0  0  0  0  0  0  0  0  0  0  0
   -1.8913    3.1209   -0.1486 C   0  0  0  0  0  0  0  0  0  0  0  0
    4.1257   -2.5957    0.7712 C   0  0  3  0  0  0  0  0  0  0  0  0
    2.7125   -1.0740    2.2395 C   0  0  0  0  0  0  0  0  0  0  0  0
    3.3026   -3.8023    1.2553 C   0  0  0  0  0  0  0  0  0  0  0  0
   -3.1293    2.2883    0.0531 C   0  0  0  0  0  0  0  0  0  0  0  0
    5.3582   -2.1904    1.5847 C   0  0  0  0  0  0  0  0  0  0  0  0
   -4.2660    2.7559   -0.0172 O   0  0  0  0  0  0  0  0  0  0  0  0
    6.3989   -3.2295    1.9368 C   0  0  0  0  0  0  0  0  0  0  0  0
    5.6034   -1.0094    1.8648 O   0  0  0  0  0  0  0  0  0  0  0  0
    7.4507   -2.5917    2.6650 O   0  0  0  0  0  0  0  0  0  0  0  0
   -0.0814    1.6923    1.7247 C   0  0  0  0  0  0  0  0  0  0  0  0
    0.6070    0.0990   -1.3193 H   0  0  0  0  0  0  0  0  0  0  0  0
    0.4843   -1.2431    1.3731 H   0  0  0  0  0  0  0  0  0  0  0  0
    2.4105    1.3447   -1.1147 H   0  0  0  0  0  0  0  0  0  0  0  0
    2.0539   -2.2905   -1.0002 H   0  0  0  0  0  0  0  0  0  0  0  0
   -0.7726   -1.6218   -1.3503 H   0  0  0  0  0  0  0  0  0  0  0  0
   -0.6914   -2.9527   -0.2005 H   0  0  0  0  0  0  0  0  0  0  0  0
   -0.9255    1.8938   -1.6238 H   0  0  0  0  0  0  0  0  0  0  0  0
    0.1773    2.9230   -0.7165 H   0  0  0  0  0  0  0  0  0  0  0  0
    3.5594   -0.6642   -1.1774 H   0  0  0  0  0  0  0  0  0  0  0  0
    4.3415    0.1763    0.1394 H   0  0  0  0  0  0  0  0  0  0  0  0
    3.1505    1.3394    1.4726 H   0  0  0  0  0  0  0  0  0  0  0  0
    1.6530   -4.3316   -0.0825 H   0  0  0  0  0  0  0  0  0  0  0  0
    1.1199   -3.6989    1.4744 H   0  0  0  0  0  0  0  0  0  0  0  0
   -2.7142   -1.6539    0.2098 H   0  0  0  0  0  0  0  0  0  0  0  0
   -1.6465   -1.5271    1.5988 H   0  0  0  0  0  0  0  0  0  0  0  0
   -3.8850    0.2946    0.4666 H   0  0  0  0  0  0  0  0  0  0  0  0
   -2.1212    3.8848   -0.9072 H   0  0  0  0  0  0  0  0  0  0  0  0
   -1.6851    3.6489    0.7891 H   0  0  0  0  0  0  0  0  0  0  0  0
    4.4754   -2.8004   -0.2492 H   0  0  0  0  0  0  0  0  0  0  0  0
    1.9942   -0.2623    2.2981 H   0  0  0  0  0  0  0  0  0  0  0  0
    2.2596   -1.9030    2.7974 H   0  0  0  0  0  0  0  0  0  0  0  0
    3.5643   -0.7273    2.8190 H   0  0  0  0  0  0  0  0  0  0  0  0
    3.7235   -4.7544    0.9168 H   0  0  0  0  0  0  0  0  0  0  0  0
    3.2619   -3.8540    2.3509 H   0  0  0  0  0  0  0  0  0  0  0  0
    5.9708   -4.0101    2.5648 H   0  0  0  0  0  0  0  0  0  0  0  0
    6.8196   -3.6403    1.0181 H   0  0  0  0  0  0  0  0  0  0  0  0
    7.2573   -1.6277    2.6383 H   0  0  0  0  0  0  0  0  0  0  0  0
    0.3900    0.9800    2.3998 H   0  0  0  0  0  0  0  0  0  0  0  0
    0.5786    2.5659    1.6283 H   0  0  0  0  0  0  0  0  0  0  0  0
   -0.9657    2.0681    2.2490 H   0  0  0  0  0  0  0  0  0  0  0  0
  1  2  1  0  0  0  0
  1  3  1  0  0  0  0
  1  4  1  0  0  0  0
  1 26  1  0  0  0  0
  2  5  1  0  0  0  0
  2  6  1  0  0  0  0
  2 27  1  0  0  0  0
  3  7  1  0  0  0  0
  3  8  1  0  0  0  0
  3 25  1  0  0  0  0
  4  9  1  0  0  0  0
  4 10  1  0  0  0  0
  4 28  1  0  0  0  0
  5 11  1  0  0  0  0
  5 12  1  0  0  0  0
  5 29  1  0  0  0  0
  6 13  1  0  0  0  0
  6 30  1  0  0  0  0
  6 31  1  0  0  0  0
  7 14  2  0  0  0  0
  7 13  1  0  0  0  0
  8 15  1  0  0  0  0
  8 32  1  0  0  0  0
  8 33  1  0  0  0  0
  9 11  1  0  0  0  0
  9 34  1  0  0  0  0
  9 35  1  0  0  0  0
 10 36  1  0  0  0  0
 11 16  1  0  0  0  0
 11 17  1  0  0  0  0
 12 18  1  0  0  0  0
 12 37  1  0  0  0  0
 12 38  1  0  0  0  0
 13 39  1  0  0  0  0
 13 40  1  0  0  0  0
 14 19  1  0  0  0  0
 14 41  1  0  0  0  0
 15 19  1  0  0  0  0
 15 42  1  0  0  0  0
 15 43  1  0  0  0  0
 16 20  1  0  0  0  0
 16 18  1  0  0  0  0
 16 44  1  0  0  0  0
 17 45  1  0  0  0  0
 17 46  1  0  0  0  0
 17 47  1  0  0  0  0
 18 48  1  0  0  0  0
 18 49  1  0  0  0  0
 19 21  2  0  0  0  0
 20 22  1  0  0  0  0
 20 23  2  0  0  0  0
 22 24  1  0  0  0  0
 22 50  1  0  0  0  0
 22 51  1  0  0  0  0
 24 52  1  0  0  0  0
 25 53  1  0  0  0  0
 25 54  1  0  0  0  0
 25 55  1  0  0  0  0
M  END
>  <Mol_ID>
1630

>  <Formula>
C21H30O4

>  <MolWeight>
346.4605

>  <Cat>
S4752

>  <Name>
Corticosterone (NSC-9705)

>  <Synonyms>
17-deoxycortisol, 11¦Â,21-dihydroxyprogesterone

>  <Target>
Glucocorticoid Receptor

>  <Form>
free base

>  <CAS>
50-22-6

>  <URL>
http://selleckchem.com/products/corticosterone.html

$$$$
