S4763 4-Hydroxychalcone.cdx
 OpenBabel08302519523D

 29 30  0  0  0  0  0  0  0  0999 V2000
    1.4191   -0.2175    0.3966 C   0  0  0  0  0  0  0  0  0  0  0  0
    2.8639   -0.4741    0.1273 C   0  0  0  0  0  0  0  0  0  0  0  0
    0.4814   -1.0438   -0.2359 C   0  0  0  0  0  0  0  0  0  0  0  0
    0.9742    0.7616    1.2958 C   0  0  0  0  0  0  0  0  0  0  0  0
    3.8002    0.6797    0.1966 C   0  0  0  0  0  0  0  0  0  0  0  0
    3.2508   -1.5992   -0.1607 O   0  0  0  0  0  0  0  0  0  0  0  0
   -0.8836   -0.8899    0.0161 C   0  0  0  0  0  0  0  0  0  0  0  0
   -0.3943    0.9059    1.5526 C   0  0  0  0  0  0  0  0  0  0  0  0
    5.1229    0.4821    0.3394 C   0  0  0  0  0  0  0  0  0  0  0  0
   -1.3208    0.0818    0.9136 C   0  0  0  0  0  0  0  0  0  0  0  0
    6.0920    1.5839    0.4549 C   0  0  0  0  0  0  0  0  0  0  0  0
    5.7384    2.8206    1.0193 C   0  0  0  0  0  0  0  0  0  0  0  0
    7.4201    1.3876    0.0530 C   0  0  0  0  0  0  0  0  0  0  0  0
    6.6741    3.8497    1.1444 C   0  0  0  0  0  0  0  0  0  0  0  0
    8.3612    2.4147    0.1842 C   0  0  0  0  0  0  0  0  0  0  0  0
    7.9792    3.6380    0.7212 C   0  0  0  0  0  0  0  0  0  0  0  0
    8.9224    4.6167    0.8216 O   0  0  0  0  0  0  0  0  0  0  0  0
    0.8147   -1.8173   -0.9246 H   0  0  0  0  0  0  0  0  0  0  0  0
    1.6717    1.3991    1.8314 H   0  0  0  0  0  0  0  0  0  0  0  0
    3.3729    1.6706    0.1130 H   0  0  0  0  0  0  0  0  0  0  0  0
   -1.6023   -1.5387   -0.4787 H   0  0  0  0  0  0  0  0  0  0  0  0
   -0.7411    1.6529    2.2639 H   0  0  0  0  0  0  0  0  0  0  0  0
    5.5279   -0.5278    0.3817 H   0  0  0  0  0  0  0  0  0  0  0  0
   -2.3827    0.1894    1.1224 H   0  0  0  0  0  0  0  0  0  0  0  0
    4.7292    2.9999    1.3793 H   0  0  0  0  0  0  0  0  0  0  0  0
    7.7377    0.4382   -0.3739 H   0  0  0  0  0  0  0  0  0  0  0  0
    6.3647    4.7954    1.5774 H   0  0  0  0  0  0  0  0  0  0  0  0
    9.3888    2.2603   -0.1340 H   0  0  0  0  0  0  0  0  0  0  0  0
    8.4976    5.4225    1.1591 H   0  0  0  0  0  0  0  0  0  0  0  0
  1  2  1  0  0  0  0
  1  3  2  0  0  0  0
  1  4  1  0  0  0  0
  2  5  1  0  0  0  0
  2  6  2  0  0  0  0
  3  7  1  0  0  0  0
  3 18  1  0  0  0  0
  4  8  2  0  0  0  0
  4 19  1  0  0  0  0
  5  9  2  0  0  0  0
  5 20  1  0  0  0  0
  7 10  2  0  0  0  0
  7 21  1  0  0  0  0
  8 10  1  0  0  0  0
  8 22  1  0  0  0  0
  9 11  1  0  0  0  0
  9 23  1  0  0  0  0
 10 24  1  0  0  0  0
 11 12  2  0  0  0  0
 11 13  1  0  0  0  0
 12 14  1  0  0  0  0
 12 25  1  0  0  0  0
 13 15  2  0  0  0  0
 13 26  1  0  0  0  0
 14 16  2  0  0  0  0
 14 27  1  0  0  0  0
 15 16  1  0  0  0  0
 15 28  1  0  0  0  0
 16 17  1  0  0  0  0
 17 29  1  0  0  0  0
M  END
>  <Mol_ID>
1968

>  <Formula>
C15H12O2

>  <MolWeight>
224.25458

>  <Cat>
S4763

>  <Name>
4-Hydroxychalcone

>  <Synonyms>
P-Cinnamoylphenol

>  <Target>
NF-¦ÊB

>  <Form>
free base

>  <CAS>
20426-12-4

>  <URL>
http://selleckchem.com/products/4-hydroxychalcone.html

$$$$
