S4769 L-5-Hydroxytryptophan.cdx
 OpenBabel08302519523D

 28 29  0  0  0  0  0  0  0  0999 V2000
   -2.6988    1.6019    2.6487 C   0  0  0  0  0  0  0  0  0  0  0  0
   -2.7510    1.0467    0.2577 N   0  0  0  0  0  0  0  0  0  0  0  0
   -1.9804    0.8316    1.5299 C   0  0  1  0  0  0  0  0  0  0  0  0
   -0.5399    1.3367    1.3592 C   0  0  0  0  0  0  0  0  0  0  0  0
    0.3348    1.1278    2.5541 C   0  0  0  0  0  0  0  0  0  0  0  0
    0.9481    2.1196    3.2975 C   0  0  0  0  0  0  0  0  0  0  0  0
    1.6417    1.5272    4.3183 N   0  0  0  0  0  0  0  0  0  0  0  0
    1.5130    0.1610    4.2491 C   0  0  0  0  0  0  0  0  0  0  0  0
    2.0459   -0.8397    5.0739 C   0  0  0  0  0  0  0  0  0  0  0  0
    1.7276   -2.1687    4.7717 C   0  0  0  0  0  0  0  0  0  0  0  0
    0.9126   -2.4680    3.6873 C   0  0  0  0  0  0  0  0  0  0  0  0
    0.3946   -1.4675    2.8679 C   0  0  0  0  0  0  0  0  0  0  0  0
    0.6967   -0.1225    3.1538 C   0  0  0  0  0  0  0  0  0  0  0  0
   -2.6668    1.3337    3.8386 O   0  0  0  0  0  0  0  0  0  0  0  0
   -3.4162    2.6414    2.1403 O   0  0  0  0  0  0  0  0  0  0  0  0
    0.5850   -3.7572    3.3783 O   0  0  0  0  0  0  0  0  0  0  0  0
   -2.2657    0.5382   -0.4879 H   0  0  0  0  0  0  0  0  0  0  0  0
   -3.6437    0.5486    0.3557 H   0  0  0  0  0  0  0  0  0  0  0  0
   -2.0244   -0.2364    1.7639 H   0  0  0  0  0  0  0  0  0  0  0  0
   -0.0704    0.8284    0.5061 H   0  0  0  0  0  0  0  0  0  0  0  0
   -0.5521    2.4068    1.1081 H   0  0  0  0  0  0  0  0  0  0  0  0
    0.9335    3.1969    3.1971 H   0  0  0  0  0  0  0  0  0  0  0  0
    2.1673    2.0209    5.0265 H   0  0  0  0  0  0  0  0  0  0  0  0
    2.6780   -0.5966    5.9223 H   0  0  0  0  0  0  0  0  0  0  0  0
    2.1264   -2.9567    5.4039 H   0  0  0  0  0  0  0  0  0  0  0  0
   -0.2385   -1.7366    2.0296 H   0  0  0  0  0  0  0  0  0  0  0  0
   -3.3213    2.5848    1.1580 H   0  0  0  0  0  0  0  0  0  0  0  0
    1.0063   -4.3445    4.0261 H   0  0  0  0  0  0  0  0  0  0  0  0
  1  3  1  0  0  0  0
  1 14  2  0  0  0  0
  1 15  1  0  0  0  0
  2 17  1  0  0  0  0
  2 18  1  0  0  0  0
  3  2  1  0  0  0  0
  3  4  1  0  0  0  0
  3 19  1  1  0  0  0
  4  5  1  0  0  0  0
  4 20  1  0  0  0  0
  4 21  1  0  0  0  0
  5  6  2  0  0  0  0
  5 13  1  0  0  0  0
  6  7  1  0  0  0  0
  6 22  1  0  0  0  0
  7  8  1  0  0  0  0
  7 23  1  0  0  0  0
  8  9  1  0  0  0  0
  8 13  2  0  0  0  0
  9 10  2  0  0  0  0
  9 24  1  0  0  0  0
 10 11  1  0  0  0  0
 10 25  1  0  0  0  0
 11 12  2  0  0  0  0
 11 16  1  0  0  0  0
 12 13  1  0  0  0  0
 12 26  1  0  0  0  0
 15 27  1  0  0  0  0
 16 28  1  0  0  0  0
M  END
>  <Mol_ID>
1955

>  <Formula>
C11H12N2O3

>  <MolWeight>
220.22458

>  <Cat>
S4769

>  <Name>
L-5-Hydroxytryptophan

>  <Synonyms>
L-oxitriptan

>  <Target>
Others

>  <Form>
free base

>  <CAS>
4350-09-8

>  <URL>
http://selleckchem.com/products/l-5-hydroxytryptophan.html

$$$$
