S4767 7-Hydroxy-3,4-dihydrocarbostyril.cdx
 OpenBabel08302519523D

 21 22  0  0  0  0  0  0  0  0999 V2000
   -1.1930    1.3723   -0.1452 N   0  0  0  0  0  0  0  0  0  0  0  0
    0.0217    0.6904   -0.0273 C   0  0  0  0  0  0  0  0  0  0  0  0
   -2.4215    0.7679   -0.1074 C   0  0  0  0  0  0  0  0  0  0  0  0
    1.2131    1.4114    0.0215 C   0  0  0  0  0  0  0  0  0  0  0  0
    0.0335   -0.7093   -0.0115 C   0  0  0  0  0  0  0  0  0  0  0  0
   -3.4489    1.4039   -0.3333 O   0  0  0  0  0  0  0  0  0  0  0  0
   -1.2575   -1.4642   -0.1610 C   0  0  0  0  0  0  0  0  0  0  0  0
    1.2610   -1.3847    0.0256 C   0  0  0  0  0  0  0  0  0  0  0  0
    2.4217    0.7254    0.0747 C   0  0  0  0  0  0  0  0  0  0  0  0
   -2.4452   -0.6685    0.3567 C   0  0  0  0  0  0  0  0  0  0  0  0
    2.4576   -0.6663    0.0723 C   0  0  0  0  0  0  0  0  0  0  0  0
    3.5681    1.4635    0.1147 O   0  0  0  0  0  0  0  0  0  0  0  0
   -1.1967    2.3676   -0.3252 H   0  0  0  0  0  0  0  0  0  0  0  0
    1.2159    2.4972    0.0178 H   0  0  0  0  0  0  0  0  0  0  0  0
   -1.2049   -2.4142    0.3840 H   0  0  0  0  0  0  0  0  0  0  0  0
   -1.3988   -1.6967   -1.2239 H   0  0  0  0  0  0  0  0  0  0  0  0
    1.2901   -2.4717    0.0001 H   0  0  0  0  0  0  0  0  0  0  0  0
   -2.4491   -0.6525    1.4534 H   0  0  0  0  0  0  0  0  0  0  0  0
   -3.3768   -1.1375    0.0231 H   0  0  0  0  0  0  0  0  0  0  0  0
    3.3994   -1.2055    0.0943 H   0  0  0  0  0  0  0  0  0  0  0  0
    4.3290    0.8594    0.1193 H   0  0  0  0  0  0  0  0  0  0  0  0
  1 13  1  0  0  0  0
  2  1  1  0  0  0  0
  3  1  1  0  0  0  0
  4  2  1  0  0  0  0
  4 14  1  0  0  0  0
  5  2  2  0  0  0  0
  6  3  2  0  0  0  0
  7  5  1  0  0  0  0
  7 10  1  0  0  0  0
  7 15  1  0  0  0  0
  7 16  1  0  0  0  0
  8  5  1  0  0  0  0
  8 17  1  0  0  0  0
  9  4  2  0  0  0  0
  9 11  1  0  0  0  0
 10  3  1  0  0  0  0
 10 18  1  0  0  0  0
 10 19  1  0  0  0  0
 11  8  2  0  0  0  0
 11 20  1  0  0  0  0
 12  9  1  0  0  0  0
 12 21  1  0  0  0  0
M  END
>  <Mol_ID>
1971

>  <Formula>
C9H9NO2

>  <MolWeight>
163.17326

>  <Cat>
S4767

>  <Name>
7-Hydroxy-3,4-dihydrocarbostyril

>  <Synonyms>
N/A

>  <Target>
Others

>  <Form>
free base

>  <CAS>
22246-18-0

>  <URL>
http://selleckchem.com/products/7-hydroxy-3-4-dihydrocarbostyril.html

$$$$
