S4762 2,4-Dihydroxyacetophenone.cdx
 OpenBabel08302519523D

 19 19  0  0  0  0  0  0  0  0999 V2000
    1.1989    1.1550   -0.0087 C   0  0  0  0  0  0  0  0  0  0  0  0
    1.2062   -0.2536   -0.0044 C   0  0  0  0  0  0  0  0  0  0  0  0
   -0.0411    1.8111    0.0003 C   0  0  0  0  0  0  0  0  0  0  0  0
    2.4999    1.8954   -0.0244 C   0  0  0  0  0  0  0  0  0  0  0  0
    0.0158   -0.9801    0.0038 C   0  0  0  0  0  0  0  0  0  0  0  0
    2.3562   -1.0007   -0.0071 O   0  0  0  0  0  0  0  0  0  0  0  0
   -1.2369    1.0813    0.0099 C   0  0  0  0  0  0  0  0  0  0  0  0
    2.5593    3.4023   -0.0303 C   0  0  0  0  0  0  0  0  0  0  0  0
    3.5475    1.2426   -0.0350 O   0  0  0  0  0  0  0  0  0  0  0  0
   -1.1976   -0.3076    0.0098 C   0  0  0  0  0  0  0  0  0  0  0  0
   -2.3410   -1.0488    0.0159 O   0  0  0  0  0  0  0  0  0  0  0  0
   -0.1271    2.8914   -0.0002 H   0  0  0  0  0  0  0  0  0  0  0  0
    0.0401   -2.0665    0.0054 H   0  0  0  0  0  0  0  0  0  0  0  0
    3.1214   -0.3820   -0.0098 H   0  0  0  0  0  0  0  0  0  0  0  0
   -2.1831    1.6147    0.0172 H   0  0  0  0  0  0  0  0  0  0  0  0
    3.1242    3.7319    0.8467 H   0  0  0  0  0  0  0  0  0  0  0  0
    3.0722    3.7282   -0.9399 H   0  0  0  0  0  0  0  0  0  0  0  0
    1.5907    3.8943   -0.0010 H   0  0  0  0  0  0  0  0  0  0  0  0
   -3.1077   -0.4526    0.0109 H   0  0  0  0  0  0  0  0  0  0  0  0
  1  2  2  0  0  0  0
  1  3  1  0  0  0  0
  1  4  1  0  0  0  0
  2  5  1  0  0  0  0
  2  6  1  0  0  0  0
  3  7  2  0  0  0  0
  3 12  1  0  0  0  0
  4  8  1  0  0  0  0
  4  9  2  0  0  0  0
  5 10  2  0  0  0  0
  5 13  1  0  0  0  0
  6 14  1  0  0  0  0
  7 10  1  0  0  0  0
  7 15  1  0  0  0  0
  8 16  1  0  0  0  0
  8 17  1  0  0  0  0
  8 18  1  0  0  0  0
 10 11  1  0  0  0  0
 11 19  1  0  0  0  0
M  END
>  <Mol_ID>
1967

>  <Formula>
C8H8O3

>  <MolWeight>
152.14732

>  <Cat>
S4762

>  <Name>
2,4-Dihydroxyacetophenone

>  <Synonyms>
Resacetophenone, 4-Acetylresorcinol

>  <Target>
Others

>  <Form>
free base

>  <CAS>
89-84-9

>  <URL>
http://selleckchem.com/products/2-4-dihydroxyacetophenone.html

$$$$
