S4765 Syringaldehyde.cdx
 OpenBabel08302519523D

 23 23  0  0  0  0  0  0  0  0999 V2000
    0.9692   -0.0907    0.0415 C   0  0  0  0  0  0  0  0  0  0  0  0
    0.2248   -1.2821    0.1209 C   0  0  0  0  0  0  0  0  0  0  0  0
    0.2878    1.1316   -0.0333 C   0  0  0  0  0  0  0  0  0  0  0  0
    2.3230    0.0963    0.0230 O   0  0  0  0  0  0  0  0  0  0  0  0
   -1.1850   -1.2413    0.1022 C   0  0  0  0  0  0  0  0  0  0  0  0
    0.8453   -2.4950    0.2223 O   0  0  0  0  0  0  0  0  0  0  0  0
   -1.1045    1.1770   -0.0363 C   0  0  0  0  0  0  0  0  0  0  0  0
    3.2235   -0.9811    0.1957 C   0  0  0  0  0  0  0  0  0  0  0  0
   -1.8376   -0.0024    0.0246 C   0  0  0  0  0  0  0  0  0  0  0  0
   -2.0765   -2.2801    0.1285 O   0  0  0  0  0  0  0  0  0  0  0  0
   -1.8092    2.4705   -0.1005 C   0  0  0  0  0  0  0  0  0  0  0  0
   -1.5903   -3.6132    0.1283 C   0  0  0  0  0  0  0  0  0  0  0  0
   -1.2096    3.5367   -0.1546 O   0  0  0  0  0  0  0  0  0  0  0  0
    0.8569    2.0589   -0.0839 H   0  0  0  0  0  0  0  0  0  0  0  0
    1.4749   -2.5483   -0.5134 H   0  0  0  0  0  0  0  0  0  0  0  0
    3.0233   -1.5460    1.1076 H   0  0  0  0  0  0  0  0  0  0  0  0
    3.2352   -1.6191   -0.6933 H   0  0  0  0  0  0  0  0  0  0  0  0
    4.2301   -0.5546    0.2846 H   0  0  0  0  0  0  0  0  0  0  0  0
   -2.9244    0.0191    0.0052 H   0  0  0  0  0  0  0  0  0  0  0  0
   -2.9113    2.4327   -0.0944 H   0  0  0  0  0  0  0  0  0  0  0  0
   -0.9757   -3.8174   -0.7540 H   0  0  0  0  0  0  0  0  0  0  0  0
   -1.0658   -3.8404    1.0607 H   0  0  0  0  0  0  0  0  0  0  0  0
   -2.4582   -4.2793    0.0730 H   0  0  0  0  0  0  0  0  0  0  0  0
  1  2  2  0  0  0  0
  1  3  1  0  0  0  0
  1  4  1  0  0  0  0
  2  5  1  0  0  0  0
  2  6  1  0  0  0  0
  3  7  2  0  0  0  0
  3 14  1  0  0  0  0
  4  8  1  0  0  0  0
  5  9  2  0  0  0  0
  5 10  1  0  0  0  0
  6 15  1  0  0  0  0
  7 11  1  0  0  0  0
  7  9  1  0  0  0  0
  8 16  1  0  0  0  0
  8 17  1  0  0  0  0
  8 18  1  0  0  0  0
  9 19  1  0  0  0  0
 10 12  1  0  0  0  0
 11 13  2  0  0  0  0
 11 20  1  0  0  0  0
 12 21  1  0  0  0  0
 12 22  1  0  0  0  0
 12 23  1  0  0  0  0
M  END
>  <Mol_ID>
1970

>  <Formula>
C9H10O4

>  <MolWeight>
182.1733

>  <Cat>
S4765

>  <Name>
Syringaldehyde

>  <Synonyms>
Syringic aldehyde

>  <Target>
COX

>  <Form>
free base

>  <CAS>
134-96-3

>  <URL>
http://selleckchem.com/products/syringaldehyde.html

$$$$
