S4779 Menadiol Diacetate.cdx
 OpenBabel08302519523D

 33 34  0  0  0  0  0  0  0  0999 V2000
    0.3192    0.7147    0.0969 C   0  0  0  0  0  0  0  0  0  0  0  0
    0.0564   -0.6813    0.0390 C   0  0  0  0  0  0  0  0  0  0  0  0
   -0.7713    1.6074    0.1855 C   0  0  0  0  0  0  0  0  0  0  0  0
    1.6627    1.1621    0.0434 C   0  0  0  0  0  0  0  0  0  0  0  0
   -1.3025   -1.1358    0.0481 C   0  0  0  0  0  0  0  0  0  0  0  0
    1.1574   -1.5654   -0.0332 C   0  0  0  0  0  0  0  0  0  0  0  0
   -2.0829    1.1370    0.2187 C   0  0  0  0  0  0  0  0  0  0  0  0
   -0.4895    3.0123    0.1849 O   0  0  0  0  0  0  0  0  0  0  0  0
    2.7314    0.2628   -0.0331 C   0  0  0  0  0  0  0  0  0  0  0  0
   -2.3720   -0.2339    0.0979 C   0  0  0  0  0  0  0  0  0  0  0  0
   -1.4860   -2.5414   -0.1561 O   0  0  0  0  0  0  0  0  0  0  0  0
    2.4754   -1.1003   -0.0695 C   0  0  0  0  0  0  0  0  0  0  0  0
   -1.4228    4.0544    0.2533 C   0  0  0  0  0  0  0  0  0  0  0  0
   -3.8247   -0.6026    0.0165 C   0  0  0  0  0  0  0  0  0  0  0  0
   -0.7314    5.3759    0.0797 C   0  0  0  0  0  0  0  0  0  0  0  0
   -2.6357    3.9630    0.3871 O   0  0  0  0  0  0  0  0  0  0  0  0
   -2.3997   -3.3656    0.5082 C   0  0  0  0  0  0  0  0  0  0  0  0
   -3.1946   -3.0338    1.3749 O   0  0  0  0  0  0  0  0  0  0  0  0
   -2.2087   -4.7869    0.0600 C   0  0  0  0  0  0  0  0  0  0  0  0
    1.8877    2.2256    0.0668 H   0  0  0  0  0  0  0  0  0  0  0  0
    0.9971   -2.6408   -0.0674 H   0  0  0  0  0  0  0  0  0  0  0  0
   -2.9217    1.8134    0.3047 H   0  0  0  0  0  0  0  0  0  0  0  0
    3.7491    0.6322   -0.0725 H   0  0  0  0  0  0  0  0  0  0  0  0
    3.2994   -1.8047   -0.1252 H   0  0  0  0  0  0  0  0  0  0  0  0
   -3.9946   -1.3683   -0.7447 H   0  0  0  0  0  0  0  0  0  0  0  0
   -4.1980   -0.9256    0.9905 H   0  0  0  0  0  0  0  0  0  0  0  0
   -4.4303    0.2632   -0.2784 H   0  0  0  0  0  0  0  0  0  0  0  0
   -0.8391    5.7025   -0.9579 H   0  0  0  0  0  0  0  0  0  0  0  0
   -1.1970    6.1061    0.7481 H   0  0  0  0  0  0  0  0  0  0  0  0
    0.3270    5.3057    0.3400 H   0  0  0  0  0  0  0  0  0  0  0  0
   -1.9763   -4.8337   -1.0070 H   0  0  0  0  0  0  0  0  0  0  0  0
   -1.4054   -5.2432    0.6433 H   0  0  0  0  0  0  0  0  0  0  0  0
   -3.1361   -5.3458    0.2221 H   0  0  0  0  0  0  0  0  0  0  0  0
  1  4  1  0  0  0  0
  1  2  1  0  0  0  0
  1  3  2  0  0  0  0
  2  5  2  0  0  0  0
  2  6  1  0  0  0  0
  3  7  1  0  0  0  0
  3  8  1  0  0  0  0
  4  9  2  0  0  0  0
  4 20  1  0  0  0  0
  5 10  1  0  0  0  0
  5 11  1  0  0  0  0
  6 12  2  0  0  0  0
  6 21  1  0  0  0  0
  7 10  2  0  0  0  0
  7 22  1  0  0  0  0
  8 13  1  0  0  0  0
  9 12  1  0  0  0  0
  9 23  1  0  0  0  0
 10 14  1  0  0  0  0
 11 17  1  0  0  0  0
 12 24  1  0  0  0  0
 13 15  1  0  0  0  0
 13 16  2  0  0  0  0
 14 25  1  0  0  0  0
 14 26  1  0  0  0  0
 14 27  1  0  0  0  0
 15 28  1  0  0  0  0
 15 29  1  0  0  0  0
 15 30  1  0  0  0  0
 17 18  2  0  0  0  0
 17 19  1  0  0  0  0
 19 31  1  0  0  0  0
 19 32  1  0  0  0  0
 19 33  1  0  0  0  0
M  END
>  <Mol_ID>
1947

>  <Formula>
C15H14O4

>  <MolWeight>
258.26926

>  <Cat>
S4779

>  <Name>
Menadiol Diacetate

>  <Synonyms>
Vitamin K4, Acetomenaphthone, Kapilin

>  <Target>
Vitamin

>  <Form>
free base

>  <CAS>
573-20-6

>  <URL>
http://selleckchem.com/products/menadiol-diacetate.html

$$$$
