S4771 ¦Â-thujaplicin.cdx
 OpenBabel08302519523D

 24 24  0  0  0  0  0  0  0  0999 V2000
   -1.7489   -1.2312   -0.0040 C   0  0  0  0  0  0  0  0  0  0  0  0
   -0.3210   -1.5089   -0.0142 C   0  0  0  0  0  0  0  0  0  0  0  0
   -2.3142   -0.0147    0.0010 C   0  0  0  0  0  0  0  0  0  0  0  0
   -2.6759   -2.4603   -0.0040 C   0  0  0  0  0  0  0  0  0  0  0  0
    0.7615   -0.7163   -0.0109 C   0  0  0  0  0  0  0  0  0  0  0  0
   -1.7043    1.2817   -0.0159 C   0  0  0  0  0  0  0  0  0  0  0  0
   -2.5089   -3.3198   -1.2635 C   0  0  0  0  0  0  0  0  0  0  0  0
   -2.5283   -3.3041    1.2675 C   0  0  0  0  0  0  0  0  0  0  0  0
    0.8012    0.7821    0.0024 C   0  0  0  0  0  0  0  0  0  0  0  0
    2.0267   -1.3177   -0.0191 O   0  0  0  0  0  0  0  0  0  0  0  0
   -0.4139    1.6172   -0.0164 C   0  0  0  0  0  0  0  0  0  0  0  0
    1.8831    1.3746    0.0240 O   0  0  0  0  0  0  0  0  0  0  0  0
   -0.1101   -2.5767   -0.0219 H   0  0  0  0  0  0  0  0  0  0  0  0
   -3.4042    0.0454    0.0143 H   0  0  0  0  0  0  0  0  0  0  0  0
   -3.7199   -2.1162   -0.0152 H   0  0  0  0  0  0  0  0  0  0  0  0
   -2.4204    2.1052   -0.0305 H   0  0  0  0  0  0  0  0  0  0  0  0
   -1.5150   -3.7738   -1.3295 H   0  0  0  0  0  0  0  0  0  0  0  0
   -3.2408   -4.1348   -1.2716 H   0  0  0  0  0  0  0  0  0  0  0  0
   -2.6679   -2.7206   -2.1668 H   0  0  0  0  0  0  0  0  0  0  0  0
   -2.7124   -2.6966    2.1605 H   0  0  0  0  0  0  0  0  0  0  0  0
   -3.2537   -4.1252    1.2691 H   0  0  0  0  0  0  0  0  0  0  0  0
   -1.5316   -3.7473    1.3591 H   0  0  0  0  0  0  0  0  0  0  0  0
    1.9361   -2.2822   -0.0260 H   0  0  0  0  0  0  0  0  0  0  0  0
   -0.1677    2.6777   -0.0301 H   0  0  0  0  0  0  0  0  0  0  0  0
  1  2  1  0  0  0  0
  1  3  2  0  0  0  0
  1  4  1  0  0  0  0
  2  5  2  0  0  0  0
  2 13  1  0  0  0  0
  3  6  1  0  0  0  0
  3 14  1  0  0  0  0
  4  7  1  0  0  0  0
  4  8  1  0  0  0  0
  4 15  1  0  0  0  0
  5  9  1  0  0  0  0
  5 10  1  0  0  0  0
  6 11  2  0  0  0  0
  6 16  1  0  0  0  0
  7 17  1  0  0  0  0
  7 18  1  0  0  0  0
  7 19  1  0  0  0  0
  8 20  1  0  0  0  0
  8 21  1  0  0  0  0
  8 22  1  0  0  0  0
  9 12  2  0  0  0  0
  9 11  1  0  0  0  0
 10 23  1  0  0  0  0
 11 24  1  0  0  0  0
M  END
>  <Mol_ID>
1956

>  <Formula>
C10H12O2

>  <MolWeight>
164.20108

>  <Cat>
S4771

>  <Name>
¦Â-thujaplicin

>  <Synonyms>
Hinokitiol, 4-Isopropyltropolone

>  <Target>
DNA Methyltransferase

>  <Form>
free base

>  <CAS>
499-44-5

>  <URL>
http://selleckchem.com/products/beta-thujaplicin.html

$$$$
