S4774 Xanthurenic Acid.cdx
 OpenBabel08302519523D

 22 23  0  0  0  0  0  0  0  0999 V2000
    0.1092   -0.7174    0.0254 C   0  0  0  0  0  0  0  0  0  0  0  0
    0.0305    0.6924    0.0057 C   0  0  0  0  0  0  0  0  0  0  0  0
    1.2983   -1.3610    0.0183 N   0  0  0  0  0  0  0  0  0  0  0  0
   -1.0957   -1.4333    0.0496 C   0  0  0  0  0  0  0  0  0  0  0  0
    1.2392    1.4161    0.0058 C   0  0  0  0  0  0  0  0  0  0  0  0
   -1.2309    1.3253   -0.0184 C   0  0  0  0  0  0  0  0  0  0  0  0
    2.4324   -0.6090   -0.0059 C   0  0  0  0  0  0  0  0  0  0  0  0
   -2.3436   -0.8050    0.0173 C   0  0  0  0  0  0  0  0  0  0  0  0
   -1.0448   -2.8079    0.1070 O   0  0  0  0  0  0  0  0  0  0  0  0
    2.4629    0.7701   -0.0020 C   0  0  0  0  0  0  0  0  0  0  0  0
    1.1969    2.7866    0.0082 O   0  0  0  0  0  0  0  0  0  0  0  0
   -2.4088    0.5816   -0.0231 C   0  0  0  0  0  0  0  0  0  0  0  0
    3.7019   -1.3890   -0.0637 C   0  0  0  0  0  0  0  0  0  0  0  0
    3.4357   -2.7164   -0.1088 O   0  0  0  0  0  0  0  0  0  0  0  0
    4.8174   -0.8990   -0.0814 O   0  0  0  0  0  0  0  0  0  0  0  0
   -1.2932    2.4124   -0.0436 H   0  0  0  0  0  0  0  0  0  0  0  0
   -3.2648   -1.3798    0.0146 H   0  0  0  0  0  0  0  0  0  0  0  0
   -1.9413   -3.1533    0.2468 H   0  0  0  0  0  0  0  0  0  0  0  0
    3.4077    1.3007   -0.0173 H   0  0  0  0  0  0  0  0  0  0  0  0
    2.1021    3.1424    0.0295 H   0  0  0  0  0  0  0  0  0  0  0  0
   -3.3707    1.0868   -0.0578 H   0  0  0  0  0  0  0  0  0  0  0  0
    2.4542   -2.8438   -0.0840 H   0  0  0  0  0  0  0  0  0  0  0  0
  1  2  1  0  0  0  0
  1  3  2  0  0  0  0
  1  4  1  0  0  0  0
  2  5  2  0  0  0  0
  2  6  1  0  0  0  0
  3  7  1  0  0  0  0
  4  8  2  0  0  0  0
  4  9  1  0  0  0  0
  5 10  1  0  0  0  0
  5 11  1  0  0  0  0
  6 12  2  0  0  0  0
  6 16  1  0  0  0  0
  7 13  1  0  0  0  0
  7 10  2  0  0  0  0
  8 12  1  0  0  0  0
  8 17  1  0  0  0  0
  9 18  1  0  0  0  0
 10 19  1  0  0  0  0
 11 20  1  0  0  0  0
 12 21  1  0  0  0  0
 13 14  1  0  0  0  0
 13 15  2  0  0  0  0
 14 22  1  0  0  0  0
M  END
>  <Mol_ID>
1958

>  <Formula>
C10H7NO4

>  <MolWeight>
205.16688

>  <Cat>
S4774

>  <Name>
Xanthurenic Acid

>  <Synonyms>
xanthurenate, 8-Hydroxykynurenic acid, 4,8-Dihydroxyquinaldic acid

>  <Target>
GluR

>  <Form>
free base

>  <CAS>
59-00-7

>  <URL>
http://selleckchem.com/products/xanthurenic-acid.html

$$$$
