S4778 o-Veratraldehyde.cdx
 OpenBabel08302519523D

 22 22  0  0  0  0  0  0  0  0999 V2000
    1.4069   -0.3874   -0.0686 C   0  0  0  0  0  0  0  0  0  0  0  0
    0.4221   -1.3951   -0.0201 C   0  0  0  0  0  0  0  0  0  0  0  0
    0.9809    0.9583   -0.0406 C   0  0  0  0  0  0  0  0  0  0  0  0
    2.7434   -0.6473   -0.2343 O   0  0  0  0  0  0  0  0  0  0  0  0
   -0.9425   -1.0675    0.0767 C   0  0  0  0  0  0  0  0  0  0  0  0
    0.7326   -2.8339   -0.1386 C   0  0  0  0  0  0  0  0  0  0  0  0
   -0.3853    1.2640    0.0491 C   0  0  0  0  0  0  0  0  0  0  0  0
    1.7563    2.0898   -0.0358 O   0  0  0  0  0  0  0  0  0  0  0  0
    3.3472   -1.5261    0.7147 C   0  0  0  0  0  0  0  0  0  0  0  0
   -1.3485    0.2597    0.0937 C   0  0  0  0  0  0  0  0  0  0  0  0
   -0.0075   -3.6987    0.3091 O   0  0  0  0  0  0  0  0  0  0  0  0
    3.0291    2.0354   -0.6611 C   0  0  0  0  0  0  0  0  0  0  0  0
   -1.6950   -1.8539    0.0953 H   0  0  0  0  0  0  0  0  0  0  0  0
    1.6632   -3.1007   -0.6613 H   0  0  0  0  0  0  0  0  0  0  0  0
   -0.7037    2.3072    0.0585 H   0  0  0  0  0  0  0  0  0  0  0  0
    2.7817   -1.6245    1.6470 H   0  0  0  0  0  0  0  0  0  0  0  0
    3.5005   -2.5052    0.2532 H   0  0  0  0  0  0  0  0  0  0  0  0
    4.3408   -1.1334    0.9520 H   0  0  0  0  0  0  0  0  0  0  0  0
   -2.4054    0.5126    0.1261 H   0  0  0  0  0  0  0  0  0  0  0  0
    3.7723    1.6003    0.0129 H   0  0  0  0  0  0  0  0  0  0  0  0
    2.9918    1.5135   -1.6223 H   0  0  0  0  0  0  0  0  0  0  0  0
    3.3363    3.0675   -0.8599 H   0  0  0  0  0  0  0  0  0  0  0  0
  1  2  2  0  0  0  0
  1  3  1  0  0  0  0
  1  4  1  0  0  0  0
  2  5  1  0  0  0  0
  2  6  1  0  0  0  0
  3  7  2  0  0  0  0
  3  8  1  0  0  0  0
  4  9  1  0  0  0  0
  5 10  2  0  0  0  0
  5 13  1  0  0  0  0
  6 11  2  0  0  0  0
  6 14  1  0  0  0  0
  7 10  1  0  0  0  0
  7 15  1  0  0  0  0
  8 12  1  0  0  0  0
  9 16  1  0  0  0  0
  9 17  1  0  0  0  0
  9 18  1  0  0  0  0
 10 19  1  0  0  0  0
 12 20  1  0  0  0  0
 12 21  1  0  0  0  0
 12 22  1  0  0  0  0
M  END
>  <Mol_ID>
1961

>  <Formula>
C9H10O3

>  <MolWeight>
166.1739

>  <Cat>
S4778

>  <Name>
o-Veratraldehyde

>  <Synonyms>
2,3-Dimethoxybenzaldehyde

>  <Target>
Others

>  <Form>
free base

>  <CAS>
86-51-1

>  <URL>
http://selleckchem.com/products/o-veratraldehyde.html

$$$$
