S4787 Methyl syringate.cdx
 OpenBabel08302519523D

 27 27  0  0  0  0  0  0  0  0999 V2000
   -1.2447   -1.1616   -0.0124 C   0  0  0  0  0  0  0  0  0  0  0  0
    0.1601   -1.2197    0.0069 C   0  0  0  0  0  0  0  0  0  0  0  0
   -1.8961    0.0836   -0.0198 C   0  0  0  0  0  0  0  0  0  0  0  0
   -1.9789   -2.4595   -0.0256 C   0  0  0  0  0  0  0  0  0  0  0  0
    0.9141   -0.0498    0.0176 C   0  0  0  0  0  0  0  0  0  0  0  0
   -1.1501    1.2681   -0.0069 C   0  0  0  0  0  0  0  0  0  0  0  0
   -3.3243   -2.2863   -0.0453 O   0  0  0  0  0  0  0  0  0  0  0  0
   -1.4064   -3.5412   -0.0186 O   0  0  0  0  0  0  0  0  0  0  0  0
    0.2500    1.1838    0.0111 C   0  0  0  0  0  0  0  0  0  0  0  0
    2.2834    0.0303    0.0326 O   0  0  0  0  0  0  0  0  0  0  0  0
   -1.6703    2.5341   -0.0109 O   0  0  0  0  0  0  0  0  0  0  0  0
   -4.0596   -3.5149   -0.0582 C   0  0  0  0  0  0  0  0  0  0  0  0
    1.0014    2.3349    0.0231 O   0  0  0  0  0  0  0  0  0  0  0  0
    2.9966   -1.2018    0.0396 C   0  0  0  0  0  0  0  0  0  0  0  0
   -3.0826    2.6675   -0.0318 C   0  0  0  0  0  0  0  0  0  0  0  0
    0.6385   -2.1952    0.0132 H   0  0  0  0  0  0  0  0  0  0  0  0
   -2.9796    0.1121   -0.0345 H   0  0  0  0  0  0  0  0  0  0  0  0
   -3.8178   -4.1015   -0.9509 H   0  0  0  0  0  0  0  0  0  0  0  0
   -3.8564   -4.0957    0.8485 H   0  0  0  0  0  0  0  0  0  0  0  0
   -5.1272   -3.2781   -0.0819 H   0  0  0  0  0  0  0  0  0  0  0  0
    1.9314    2.0384    0.0348 H   0  0  0  0  0  0  0  0  0  0  0  0
    2.7833   -1.7730    0.9490 H   0  0  0  0  0  0  0  0  0  0  0  0
    2.7798   -1.7888   -0.8589 H   0  0  0  0  0  0  0  0  0  0  0  0
    4.0657   -0.9689    0.0344 H   0  0  0  0  0  0  0  0  0  0  0  0
   -3.5047    2.2380   -0.9461 H   0  0  0  0  0  0  0  0  0  0  0  0
   -3.5338    2.2227    0.8612 H   0  0  0  0  0  0  0  0  0  0  0  0
   -3.3187    3.7367   -0.0262 H   0  0  0  0  0  0  0  0  0  0  0  0
  1  2  2  0  0  0  0
  1  3  1  0  0  0  0
  1  4  1  0  0  0  0
  2  5  1  0  0  0  0
  2 16  1  0  0  0  0
  3  6  2  0  0  0  0
  3 17  1  0  0  0  0
  4  7  1  0  0  0  0
  4  8  2  0  0  0  0
  5  9  2  0  0  0  0
  5 10  1  0  0  0  0
  6 11  1  0  0  0  0
  6  9  1  0  0  0  0
  7 12  1  0  0  0  0
  9 13  1  0  0  0  0
 10 14  1  0  0  0  0
 11 15  1  0  0  0  0
 12 18  1  0  0  0  0
 12 19  1  0  0  0  0
 12 20  1  0  0  0  0
 13 21  1  0  0  0  0
 14 22  1  0  0  0  0
 14 23  1  0  0  0  0
 14 24  1  0  0  0  0
 15 25  1  0  0  0  0
 15 26  1  0  0  0  0
 15 27  1  0  0  0  0
M  END
>  <Mol_ID>
1954

>  <Formula>
C10H12O5

>  <MolWeight>
212.19928

>  <Cat>
S4787

>  <Name>
Methyl syringate

>  <Synonyms>
Syringic Acid Methyl Ester

>  <Target>
TRP Channel

>  <Form>
free base

>  <CAS>
884-35-5

>  <URL>
http://selleckchem.com/products/methyl-syringate.html

$$$$
