S4785 Nicotinamide N-oxide.cdx
 OpenBabel08302519523D

 16 16  0  0  0  0  0  0  0  0999 V2000
    1.2800    1.1852   -0.0049 C   0  0  0  0  0  0  0  0  0  0  0  0
   -0.1175    1.2123   -0.0023 C   0  0  0  0  0  0  0  0  0  0  0  0
    1.9372   -0.0482   -0.0059 C   0  0  0  0  0  0  0  0  0  0  0  0
    1.9836    2.4936   -0.0060 C   0  0  0  0  0  0  0  0  0  0  0  0
   -0.8588    0.0485   -0.0000 N   0  3  0  0  0  0  0  0  0  0  0  0
    1.1997   -1.2295   -0.0035 C   0  0  0  0  0  0  0  0  0  0  0  0
    3.3491    2.5088   -0.0094 N   0  0  0  0  0  0  0  0  0  0  0  0
    1.3569    3.5458   -0.0036 O   0  0  0  0  0  0  0  0  0  0  0  0
   -0.1907   -1.1643   -0.0006 C   0  0  0  0  0  0  0  0  0  0  0  0
   -2.1257    0.0806    0.0028 O   0  5  0  0  0  0  0  0  0  0  0  0
   -0.7238    2.1064   -0.0015 H   0  0  0  0  0  0  0  0  0  0  0  0
    3.0197   -0.1217   -0.0080 H   0  0  0  0  0  0  0  0  0  0  0  0
    1.6988   -2.1950   -0.0041 H   0  0  0  0  0  0  0  0  0  0  0  0
    3.7901    3.4208   -0.0096 H   0  0  0  0  0  0  0  0  0  0  0  0
    3.9520    1.7022   -0.0126 H   0  0  0  0  0  0  0  0  0  0  0  0
   -0.8527   -2.0173    0.0018 H   0  0  0  0  0  0  0  0  0  0  0  0
  1  2  2  0  0  0  0
  1  3  1  0  0  0  0
  1  4  1  0  0  0  0
  2  5  1  0  0  0  0
  2 11  1  0  0  0  0
  3  6  2  0  0  0  0
  3 12  1  0  0  0  0
  4  7  1  0  0  0  0
  4  8  2  0  0  0  0
  5  9  2  0  0  0  0
  5 10  1  0  0  0  0
  6  9  1  0  0  0  0
  6 13  1  0  0  0  0
  7 14  1  0  0  0  0
  7 15  1  0  0  0  0
  9 16  1  0  0  0  0
M  CHG  2   5   1  10  -1
M  END
>  <Mol_ID>
1953

>  <Formula>
C6H6N2O2

>  <MolWeight>
138.12404

>  <Cat>
S4785

>  <Name>
Nicotinamide N-oxide

>  <Synonyms>
Nicotinamide 1-oxide, 1-oxynicotinamide, 1-Oxy-nicotinamide

>  <Target>
CXCR

>  <Form>
free base

>  <CAS>
1986-81-8

>  <URL>
http://selleckchem.com/products/nicotinamide-n-oxide.html

$$$$
