S4786 S-Methyl-L-cysteine.cdx
 OpenBabel08302521383D

 17 16  0  0  0  0  0  0  0  0999 V2000
    1.2032    0.0475    0.1178 C   0  0  1  0  0  0  0  0  0  0  0  0
    0.5121   -1.0474   -0.7166 C   0  0  0  0  0  0  0  0  0  0  0  0
    1.2037    1.3779   -0.6434 C   0  0  0  0  0  0  0  0  0  0  0  0
    0.6370    0.1587    1.4773 N   0  0  0  0  0  0  0  0  0  0  0  0
   -1.3283   -0.9971   -0.7265 S   0  0  0  0  0  0  0  0  0  0  0  0
    0.6720    2.4105    0.0556 O   0  0  0  0  0  0  0  0  0  0  0  0
    1.6260    1.5185   -1.7824 O   0  0  0  0  0  0  0  0  0  0  0  0
   -1.6077    0.3596   -1.8937 C   0  0  0  0  0  0  0  0  0  0  0  0
    2.2596   -0.2198    0.2370 H   0  0  0  0  0  0  0  0  0  0  0  0
    0.8719   -1.0548   -1.7515 H   0  0  0  0  0  0  0  0  0  0  0  0
    0.7765   -2.0220   -0.2887 H   0  0  0  0  0  0  0  0  0  0  0  0
    1.1320    0.7787    2.1078 H   0  0  0  0  0  0  0  0  0  0  0  0
   -0.3796    0.2360    1.4846 H   0  0  0  0  0  0  0  0  0  0  0  0
    0.3441    2.0918    0.9193 H   0  0  0  0  0  0  0  0  0  0  0  0
   -1.4248    1.3205   -1.4091 H   0  0  0  0  0  0  0  0  0  0  0  0
   -0.9750    0.2562   -2.7785 H   0  0  0  0  0  0  0  0  0  0  0  0
   -2.6534    0.3408   -2.2123 H   0  0  0  0  0  0  0  0  0  0  0  0
  1  4  1  0  0  0  0
  1  9  1  1  0  0  0
  1  3  1  0  0  0  0
  1  2  1  0  0  0  0
  2  5  1  0  0  0  0
  2 10  1  0  0  0  0
  2 11  1  0  0  0  0
  3  6  1  0  0  0  0
  3  7  2  0  0  0  0
  4 12  1  0  0  0  0
  4 13  1  0  0  0  0
  5  8  1  0  0  0  0
  6 14  1  0  0  0  0
  8 15  1  0  0  0  0
  8 16  1  0  0  0  0
  8 17  1  0  0  0  0
M  END
>  <Mol_ID>
7806

>  <Formula>
C4H9NO2S

>  <MolWeight>
135.18476

>  <Cat>
S4786

>  <Name>
S-Methyl-L-cysteine

>  <Synonyms>
S-Methylcysteine

>  <Target>
Others

>  <Form>
free base

>  <CAS>
1187-84-4

>  <URL>
http://selleckchem.com/products/s-methyl-l-cysteine.html

$$$$
