S4780 7-Methoxy-4-methylcoumarin.cdx
 OpenBabel08302519523D

 24 25  0  0  0  0  0  0  0  0999 V2000
    0.3584    0.7874   -0.0118 C   0  0  0  0  0  0  0  0  0  0  0  0
    0.5891   -0.5894   -0.0012 C   0  0  0  0  0  0  0  0  0  0  0  0
    1.3945    1.7254   -0.0181 C   0  0  0  0  0  0  0  0  0  0  0  0
   -0.9482    1.3148   -0.0162 O   0  0  0  0  0  0  0  0  0  0  0  0
   -0.5654   -1.4980   -0.0066 C   0  0  0  0  0  0  0  0  0  0  0  0
    1.9196   -1.0195    0.0103 C   0  0  0  0  0  0  0  0  0  0  0  0
    2.7131    1.2845   -0.0123 C   0  0  0  0  0  0  0  0  0  0  0  0
   -2.0531    0.4838   -0.0093 C   0  0  0  0  0  0  0  0  0  0  0  0
   -1.7955   -0.9638   -0.0098 C   0  0  0  0  0  0  0  0  0  0  0  0
   -0.3599   -2.9837   -0.0148 C   0  0  0  0  0  0  0  0  0  0  0  0
    2.9692   -0.0893    0.0046 C   0  0  0  0  0  0  0  0  0  0  0  0
    3.8250    2.0805   -0.0224 O   0  0  0  0  0  0  0  0  0  0  0  0
   -3.2004    0.9159   -0.0060 O   0  0  0  0  0  0  0  0  0  0  0  0
    3.6022    3.4862   -0.0465 C   0  0  0  0  0  0  0  0  0  0  0  0
    1.1359    2.7778   -0.0283 H   0  0  0  0  0  0  0  0  0  0  0  0
    2.1732   -2.0761    0.0228 H   0  0  0  0  0  0  0  0  0  0  0  0
   -2.6889   -1.5784   -0.0147 H   0  0  0  0  0  0  0  0  0  0  0  0
    0.2003   -3.2938   -0.9031 H   0  0  0  0  0  0  0  0  0  0  0  0
    0.1832   -3.3071    0.8794 H   0  0  0  0  0  0  0  0  0  0  0  0
   -1.3127   -3.5249   -0.0287 H   0  0  0  0  0  0  0  0  0  0  0  0
    3.9982   -0.4421    0.0116 H   0  0  0  0  0  0  0  0  0  0  0  0
    3.0617    3.7851   -0.9511 H   0  0  0  0  0  0  0  0  0  0  0  0
    3.0756    3.8161    0.8554 H   0  0  0  0  0  0  0  0  0  0  0  0
    4.5774    3.9815   -0.0631 H   0  0  0  0  0  0  0  0  0  0  0  0
  1  2  1  0  0  0  0
  1  3  2  0  0  0  0
  1  4  1  0  0  0  0
  2  5  1  0  0  0  0
  2  6  2  0  0  0  0
  3  7  1  0  0  0  0
  3 15  1  0  0  0  0
  4  8  1  0  0  0  0
  5  9  2  0  0  0  0
  5 10  1  0  0  0  0
  6 11  1  0  0  0  0
  6 16  1  0  0  0  0
  7 12  1  0  0  0  0
  7 11  2  0  0  0  0
  8 13  2  0  0  0  0
  8  9  1  0  0  0  0
  9 17  1  0  0  0  0
 10 18  1  0  0  0  0
 10 19  1  0  0  0  0
 10 20  1  0  0  0  0
 11 21  1  0  0  0  0
 12 14  1  0  0  0  0
 14 22  1  0  0  0  0
 14 23  1  0  0  0  0
 14 24  1  0  0  0  0
M  END
>  <Mol_ID>
1948

>  <Formula>
C11H10O3

>  <MolWeight>
190.1953

>  <Cat>
S4780

>  <Name>
7-Methoxy-4-methylcoumarin

>  <Synonyms>
N/A

>  <Target>
Bacterial,Dyes

>  <Form>
free base

>  <CAS>
2555-28-4

>  <URL>
http://selleckchem.com/products/7-methoxy-4-methylcoumarin.html

$$$$
