S4781 Xanthoxyline.cdx
 OpenBabel08302519523D

 26 26  0  0  0  0  0  0  0  0999 V2000
    0.8489   -0.1000   -0.0550 C   0  0  0  0  0  0  0  0  0  0  0  0
    0.1243   -1.3040   -0.0223 C   0  0  0  0  0  0  0  0  0  0  0  0
    0.1464    1.1166   -0.0033 C   0  0  0  0  0  0  0  0  0  0  0  0
    2.2138   -0.1636   -0.1385 O   0  0  0  0  0  0  0  0  0  0  0  0
   -1.2843   -1.2446   -0.0046 C   0  0  0  0  0  0  0  0  0  0  0  0
    0.7541   -2.6578   -0.0612 C   0  0  0  0  0  0  0  0  0  0  0  0
   -1.2509    1.1576    0.0463 C   0  0  0  0  0  0  0  0  0  0  0  0
    2.8970    1.0010   -0.5973 C   0  0  0  0  0  0  0  0  0  0  0  0
   -1.9681   -0.0310    0.0494 C   0  0  0  0  0  0  0  0  0  0  0  0
   -2.0804   -2.3636   -0.0446 O   0  0  0  0  0  0  0  0  0  0  0  0
    2.0649   -2.9600    0.6113 C   0  0  0  0  0  0  0  0  0  0  0  0
    0.1133   -3.5672   -0.6011 O   0  0  0  0  0  0  0  0  0  0  0  0
   -1.7787    2.4189    0.0714 O   0  0  0  0  0  0  0  0  0  0  0  0
   -3.1977    2.5250    0.0218 C   0  0  0  0  0  0  0  0  0  0  0  0
    0.6595    2.0725   -0.0054 H   0  0  0  0  0  0  0  0  0  0  0  0
    2.6058    1.2335   -1.6266 H   0  0  0  0  0  0  0  0  0  0  0  0
    2.7397    1.8611    0.0609 H   0  0  0  0  0  0  0  0  0  0  0  0
    3.9702    0.7872   -0.5870 H   0  0  0  0  0  0  0  0  0  0  0  0
   -3.0519   -0.0533    0.0812 H   0  0  0  0  0  0  0  0  0  0  0  0
   -1.5201   -3.1149   -0.3472 H   0  0  0  0  0  0  0  0  0  0  0  0
    1.8817   -3.6958    1.4005 H   0  0  0  0  0  0  0  0  0  0  0  0
    2.7517   -3.3858   -0.1256 H   0  0  0  0  0  0  0  0  0  0  0  0
    2.5320   -2.0974    1.0809 H   0  0  0  0  0  0  0  0  0  0  0  0
   -3.5982    2.0602   -0.8830 H   0  0  0  0  0  0  0  0  0  0  0  0
   -3.6532    2.1018    0.9205 H   0  0  0  0  0  0  0  0  0  0  0  0
   -3.4484    3.5911   -0.0141 H   0  0  0  0  0  0  0  0  0  0  0  0
  1  2  2  0  0  0  0
  1  3  1  0  0  0  0
  1  4  1  0  0  0  0
  2  5  1  0  0  0  0
  2  6  1  0  0  0  0
  3  7  2  0  0  0  0
  3 15  1  0  0  0  0
  4  8  1  0  0  0  0
  5  9  2  0  0  0  0
  5 10  1  0  0  0  0
  6 11  1  0  0  0  0
  6 12  2  0  0  0  0
  7 13  1  0  0  0  0
  7  9  1  0  0  0  0
  8 16  1  0  0  0  0
  8 17  1  0  0  0  0
  8 18  1  0  0  0  0
  9 19  1  0  0  0  0
 10 20  1  0  0  0  0
 11 21  1  0  0  0  0
 11 22  1  0  0  0  0
 11 23  1  0  0  0  0
 13 14  1  0  0  0  0
 14 24  1  0  0  0  0
 14 25  1  0  0  0  0
 14 26  1  0  0  0  0
M  END
>  <Mol_ID>
1949

>  <Formula>
C10H12O4

>  <MolWeight>
196.19988

>  <Cat>
S4781

>  <Name>
Xanthoxyline

>  <Synonyms>
Brevifolin

>  <Target>
Fungal

>  <Form>
free base

>  <CAS>
90-24-4

>  <URL>
http://selleckchem.com/products/xanthoxyline.html

$$$$
