S4789 5-Acetylsalicylic acid.cdx
 OpenBabel08302519513D

 21 21  0  0  0  0  0  0  0  0999 V2000
    0.1714   -1.2700    0.0133 C   0  0  0  0  0  0  0  0  0  0  0  0
   -1.2291   -1.1753   -0.0056 C   0  0  0  0  0  0  0  0  0  0  0  0
    0.9154   -0.0784    0.0182 C   0  0  0  0  0  0  0  0  0  0  0  0
    0.9082   -2.5673    0.0263 C   0  0  0  0  0  0  0  0  0  0  0  0
   -1.8776    0.0787   -0.0137 C   0  0  0  0  0  0  0  0  0  0  0  0
    0.2827    1.1633    0.0124 C   0  0  0  0  0  0  0  0  0  0  0  0
    2.2848   -0.0335    0.0263 O   0  0  0  0  0  0  0  0  0  0  0  0
    0.1865   -3.7024    0.0242 O   0  0  0  0  0  0  0  0  0  0  0  0
    2.1319   -2.5867    0.0371 O   0  0  0  0  0  0  0  0  0  0  0  0
   -1.1097    1.2447   -0.0021 C   0  0  0  0  0  0  0  0  0  0  0  0
   -3.3751    0.0814   -0.0371 C   0  0  0  0  0  0  0  0  0  0  0  0
   -4.1621    1.3680   -0.0500 C   0  0  0  0  0  0  0  0  0  0  0  0
   -3.9637   -1.0010   -0.0476 O   0  0  0  0  0  0  0  0  0  0  0  0
   -1.8576   -2.0600   -0.0159 H   0  0  0  0  0  0  0  0  0  0  0  0
    0.8823    2.0715    0.0179 H   0  0  0  0  0  0  0  0  0  0  0  0
    2.6337   -0.9545    0.0219 H   0  0  0  0  0  0  0  0  0  0  0  0
   -0.7829   -3.6445    0.0263 H   0  0  0  0  0  0  0  0  0  0  0  0
   -1.5477    2.2367   -0.0058 H   0  0  0  0  0  0  0  0  0  0  0  0
   -4.7729    1.3957   -0.9571 H   0  0  0  0  0  0  0  0  0  0  0  0
   -4.8114    1.3899    0.8301 H   0  0  0  0  0  0  0  0  0  0  0  0
   -3.5530    2.2686   -0.0334 H   0  0  0  0  0  0  0  0  0  0  0  0
  1  2  2  0  0  0  0
  1  3  1  0  0  0  0
  1  4  1  0  0  0  0
  2  5  1  0  0  0  0
  2 14  1  0  0  0  0
  3  6  2  0  0  0  0
  3  7  1  0  0  0  0
  4  8  1  0  0  0  0
  4  9  2  0  0  0  0
  5 10  2  0  0  0  0
  5 11  1  0  0  0  0
  6 10  1  0  0  0  0
  6 15  1  0  0  0  0
  7 16  1  0  0  0  0
  8 17  1  0  0  0  0
 10 18  1  0  0  0  0
 11 12  1  0  0  0  0
 11 13  2  0  0  0  0
 12 19  1  0  0  0  0
 12 20  1  0  0  0  0
 12 21  1  0  0  0  0
M  END
>  <Mol_ID>
1943

>  <Formula>
C9H8O4

>  <MolWeight>
180.15742

>  <Cat>
S4789

>  <Name>
5-Acetylsalicylic acid

>  <Synonyms>
5-acetyl-2-hydroxybenzoic acid

>  <Target>
Immunology & Inflammation related

>  <Form>
free base

>  <CAS>
13110-96-8

>  <URL>
http://selleckchem.com/products/5-acetylsalicylic-acid.html

$$$$
