S4791 S-allyl-L-cysteine.cdx
 OpenBabel08302521383D

 21 20  0  0  0  0  0  0  0  0999 V2000
    1.0852    0.1531   -0.0729 C   0  0  1  0  0  0  0  0  0  0  0  0
    0.6057    0.0019   -1.5268 C   0  0  0  0  0  0  0  0  0  0  0  0
    2.4046   -0.5957    0.1728 C   0  0  0  0  0  0  0  0  0  0  0  0
    1.1926    1.5641    0.3638 N   0  0  0  0  0  0  0  0  0  0  0  0
    1.6634    0.9008   -2.7317 S   0  0  0  0  0  0  0  0  0  0  0  0
    3.4713   -0.0705   -0.4737 O   0  0  0  0  0  0  0  0  0  0  0  0
    2.5086   -1.5546    0.9244 O   0  0  0  0  0  0  0  0  0  0  0  0
    0.7688    0.4729   -4.2571 C   0  0  0  0  0  0  0  0  0  0  0  0
    1.5412    1.0014   -5.4260 C   0  0  0  0  0  0  0  0  0  0  0  0
    2.0140    0.2487   -6.4295 C   0  0  0  0  0  0  0  0  0  0  0  0
    0.3390   -0.3250    0.5739 H   0  0  0  0  0  0  0  0  0  0  0  0
    0.5897   -1.0575   -1.8045 H   0  0  0  0  0  0  0  0  0  0  0  0
   -0.4121    0.3976   -1.6160 H   0  0  0  0  0  0  0  0  0  0  0  0
    1.5693    1.5916    1.3138 H   0  0  0  0  0  0  0  0  0  0  0  0
    1.8457    2.0769   -0.2265 H   0  0  0  0  0  0  0  0  0  0  0  0
    3.2079    0.6087   -1.1329 H   0  0  0  0  0  0  0  0  0  0  0  0
    0.6482   -0.6137   -4.3182 H   0  0  0  0  0  0  0  0  0  0  0  0
   -0.2224    0.9356   -4.2361 H   0  0  0  0  0  0  0  0  0  0  0  0
    1.7193    2.0748   -5.4548 H   0  0  0  0  0  0  0  0  0  0  0  0
    2.5681    0.7013   -7.2466 H   0  0  0  0  0  0  0  0  0  0  0  0
    1.8674   -0.8266   -6.4621 H   0  0  0  0  0  0  0  0  0  0  0  0
  1  4  1  0  0  0  0
  1 11  1  1  0  0  0
  1  3  1  0  0  0  0
  1  2  1  0  0  0  0
  2  5  1  0  0  0  0
  2 12  1  0  0  0  0
  2 13  1  0  0  0  0
  3  6  1  0  0  0  0
  3  7  2  0  0  0  0
  4 14  1  0  0  0  0
  4 15  1  0  0  0  0
  5  8  1  0  0  0  0
  6 16  1  0  0  0  0
  8  9  1  0  0  0  0
  8 17  1  0  0  0  0
  8 18  1  0  0  0  0
  9 10  2  0  0  0  0
  9 19  1  0  0  0  0
 10 20  1  0  0  0  0
 10 21  1  0  0  0  0
M  END
>  <Mol_ID>
7803

>  <Formula>
C6H11NO2S

>  <MolWeight>
161.22204

>  <Cat>
S4791

>  <Name>
S-allyl-L-cysteine

>  <Synonyms>
S-Allylcysteine

>  <Target>
Others

>  <Form>
free base

>  <CAS>
21593-77-1

>  <URL>
http://selleckchem.com/products/s-allyl-l-cysteine.html

$$$$
