S4790 3-Hydroxyflavone.cdx
 OpenBabel08302519513D

 28 30  0  0  0  0  0  0  0  0999 V2000
    1.4951   -1.5310   -0.0532 C   0  0  0  0  0  0  0  0  0  0  0  0
    2.3845   -2.7025   -0.0048 C   0  0  0  0  0  0  0  0  0  0  0  0
    0.1484   -1.8647   -0.0770 O   0  0  0  0  0  0  0  0  0  0  0  0
    1.9678   -0.2728   -0.0441 C   0  0  0  0  0  0  0  0  0  0  0  0
    2.7617   -3.2460    1.2312 C   0  0  0  0  0  0  0  0  0  0  0  0
    2.8529   -3.3007   -1.1811 C   0  0  0  0  0  0  0  0  0  0  0  0
   -0.7768   -0.8500   -0.0433 C   0  0  0  0  0  0  0  0  0  0  0  0
    1.0005    0.8501   -0.0368 C   0  0  0  0  0  0  0  0  0  0  0  0
    3.3118    0.0500   -0.0241 O   0  0  0  0  0  0  0  0  0  0  0  0
    3.5896   -4.3695    1.2914 C   0  0  0  0  0  0  0  0  0  0  0  0
    3.6722   -4.4329   -1.1200 C   0  0  0  0  0  0  0  0  0  0  0  0
   -0.4247    0.4969   -0.0287 C   0  0  0  0  0  0  0  0  0  0  0  0
   -2.1237   -1.2122   -0.0180 C   0  0  0  0  0  0  0  0  0  0  0  0
    1.4060    2.0062   -0.0211 O   0  0  0  0  0  0  0  0  0  0  0  0
    4.0409   -4.9649    0.1152 C   0  0  0  0  0  0  0  0  0  0  0  0
   -1.4072    1.4916    0.0026 C   0  0  0  0  0  0  0  0  0  0  0  0
   -3.1111   -0.2233    0.0142 C   0  0  0  0  0  0  0  0  0  0  0  0
   -2.7537    1.1267    0.0214 C   0  0  0  0  0  0  0  0  0  0  0  0
    2.4132   -2.7972    2.1586 H   0  0  0  0  0  0  0  0  0  0  0  0
    2.5841   -2.8912   -2.1515 H   0  0  0  0  0  0  0  0  0  0  0  0
    3.3343    1.0307   -0.0205 H   0  0  0  0  0  0  0  0  0  0  0  0
    3.8806   -4.7772    2.2562 H   0  0  0  0  0  0  0  0  0  0  0  0
    4.0248   -4.8983   -2.0368 H   0  0  0  0  0  0  0  0  0  0  0  0
   -2.4070   -2.2617   -0.0205 H   0  0  0  0  0  0  0  0  0  0  0  0
    4.6823   -5.8414    0.1622 H   0  0  0  0  0  0  0  0  0  0  0  0
   -1.1272    2.5428    0.0138 H   0  0  0  0  0  0  0  0  0  0  0  0
   -4.1614   -0.5062    0.0333 H   0  0  0  0  0  0  0  0  0  0  0  0
   -3.5243    1.8941    0.0435 H   0  0  0  0  0  0  0  0  0  0  0  0
  1  2  1  0  0  0  0
  1  3  1  0  0  0  0
  1  4  2  0  0  0  0
  2  5  2  0  0  0  0
  2  6  1  0  0  0  0
  3  7  1  0  0  0  0
  4  8  1  0  0  0  0
  4  9  1  0  0  0  0
  5 10  1  0  0  0  0
  5 19  1  0  0  0  0
  6 11  2  0  0  0  0
  6 20  1  0  0  0  0
  7 12  2  0  0  0  0
  7 13  1  0  0  0  0
  8 14  2  0  0  0  0
  8 12  1  0  0  0  0
  9 21  1  0  0  0  0
 10 15  2  0  0  0  0
 10 22  1  0  0  0  0
 11 15  1  0  0  0  0
 11 23  1  0  0  0  0
 12 16  1  0  0  0  0
 13 17  2  0  0  0  0
 13 24  1  0  0  0  0
 15 25  1  0  0  0  0
 16 18  2  0  0  0  0
 16 26  1  0  0  0  0
 17 18  1  0  0  0  0
 17 27  1  0  0  0  0
 18 28  1  0  0  0  0
M  END
>  <Mol_ID>
1944

>  <Formula>
C15H10O3

>  <MolWeight>
238.2381

>  <Cat>
S4790

>  <Name>
3-Hydroxyflavone

>  <Synonyms>
Flavon-3-ol, 3-HF, 3-Hydroxy-2-phenylchromone

>  <Target>
Others

>  <Form>
free base

>  <CAS>
577-85-5

>  <URL>
http://selleckchem.com/products/3-hydroxyflavone.html

$$$$
