S4799 Indole-3-acetic acid.cdx
 OpenBabel08302519523D

 22 23  0  0  0  0  0  0  0  0999 V2000
   -0.2408   -0.7523   -0.0420 C   0  0  0  0  0  0  0  0  0  0  0  0
   -0.2511    0.6420   -0.0417 C   0  0  0  0  0  0  0  0  0  0  0  0
   -1.6049   -1.1900   -0.0234 C   0  0  0  0  0  0  0  0  0  0  0  0
    1.0020   -1.4187   -0.0242 C   0  0  0  0  0  0  0  0  0  0  0  0
   -1.5674    1.0398   -0.0504 N   0  0  0  0  0  0  0  0  0  0  0  0
    0.9208    1.4069   -0.0314 C   0  0  0  0  0  0  0  0  0  0  0  0
   -2.3904   -0.0539   -0.0449 C   0  0  0  0  0  0  0  0  0  0  0  0
   -2.0893   -2.6039    0.0347 C   0  0  0  0  0  0  0  0  0  0  0  0
    2.1830   -0.6686   -0.0138 C   0  0  0  0  0  0  0  0  0  0  0  0
    2.1396    0.7230   -0.0189 C   0  0  0  0  0  0  0  0  0  0  0  0
   -2.3061   -3.1255    1.4403 C   0  0  0  0  0  0  0  0  0  0  0  0
   -1.4737   -2.6441    2.3939 O   0  0  0  0  0  0  0  0  0  0  0  0
   -3.1297   -3.9925    1.7031 O   0  0  0  0  0  0  0  0  0  0  0  0
    1.0546   -2.5041   -0.0175 H   0  0  0  0  0  0  0  0  0  0  0  0
   -1.8762    2.0027   -0.0490 H   0  0  0  0  0  0  0  0  0  0  0  0
    0.8920    2.4916   -0.0322 H   0  0  0  0  0  0  0  0  0  0  0  0
   -3.4665    0.0690   -0.0456 H   0  0  0  0  0  0  0  0  0  0  0  0
   -3.0460   -2.6733   -0.4972 H   0  0  0  0  0  0  0  0  0  0  0  0
   -1.3824   -3.2740   -0.4668 H   0  0  0  0  0  0  0  0  0  0  0  0
    3.1432   -1.1790   -0.0019 H   0  0  0  0  0  0  0  0  0  0  0  0
    3.0692    1.2886   -0.0134 H   0  0  0  0  0  0  0  0  0  0  0  0
   -0.8642   -1.9471    2.0822 H   0  0  0  0  0  0  0  0  0  0  0  0
  1  2  2  0  0  0  0
  1  3  1  0  0  0  0
  1  4  1  0  0  0  0
  2  5  1  0  0  0  0
  2  6  1  0  0  0  0
  3  7  2  0  0  0  0
  3  8  1  0  0  0  0
  4  9  2  0  0  0  0
  4 14  1  0  0  0  0
  5  7  1  0  0  0  0
  5 15  1  0  0  0  0
  6 10  2  0  0  0  0
  6 16  1  0  0  0  0
  7 17  1  0  0  0  0
  8 11  1  0  0  0  0
  8 18  1  0  0  0  0
  8 19  1  0  0  0  0
  9 10  1  0  0  0  0
  9 20  1  0  0  0  0
 10 21  1  0  0  0  0
 11 12  1  0  0  0  0
 11 13  2  0  0  0  0
 12 22  1  0  0  0  0
M  END
>  <Mol_ID>
1962

>  <Formula>
C10H9NO2

>  <MolWeight>
175.18396

>  <Cat>
S4799

>  <Name>
Indole-3-acetic acid

>  <Synonyms>
indolylacetic acid, 1H-Indole-3-acetic acid, indoleacetic acid, heteroauxin, IAA

>  <Target>
Others

>  <Form>
free base

>  <CAS>
87-51-4

>  <URL>
http://selleckchem.com/products/indole-3-acetic-acid.html

$$$$
