S4793 Cedryl acetate.cdx
 OpenBabel08302519583D

 47 49  0  0  0  0  0  0  0  0999 V2000
    2.2389    2.2258    0.5540 C   0  0  2  0  0  0  0  0  0  0  0  0
    2.8112    2.0980   -0.8530 C   0  0  0  0  0  0  0  0  0  0  0  0
    1.6174    2.4552   -1.7496 C   0  0  0  0  0  0  0  0  0  0  0  0
    0.5341    3.0627   -0.8483 C   0  0  1  0  0  0  0  0  0  0  0  0
   -0.9026    2.7243   -0.3749 C   0  0  0  0  0  0  0  0  0  0  0  0
   -1.3040    1.3783    0.3109 C   0  0  0  0  0  0  0  0  0  0  0  0
   -1.8855    2.7963   -1.5541 C   0  0  0  0  0  0  0  0  0  0  0  0
   -1.0212    3.8512    0.7570 C   0  0  1  0  0  0  0  0  0  0  0  0
    0.2422    3.4647    1.5860 C   0  0  0  0  0  0  0  0  0  0  0  0
   -0.8724    5.3720    0.3526 C   0  0  1  0  0  0  0  0  0  0  0  0
   -1.1534    6.3135    1.5395 C   0  0  0  0  0  0  0  0  0  0  0  0
    0.5864    5.7884   -0.1537 C   0  0  0  0  0  0  0  0  0  0  0  0
    1.7660    4.8852    0.3408 C   0  0  0  0  0  0  0  0  0  0  0  0
    1.2818    3.4302    0.4643 C   0  0  1  0  0  0  0  0  0  0  0  0
   -1.8196    5.6799   -0.7218 O   0  0  0  0  0  0  0  0  0  0  0  0
    3.2332    2.1654    1.6929 C   0  0  0  0  0  0  0  0  0  0  0  0
   -3.1575    5.4542   -0.5362 C   0  0  0  0  0  0  0  0  0  0  0  0
   -3.9119    5.5479   -1.8217 C   0  0  0  0  0  0  0  0  0  0  0  0
   -3.6728    5.1300    0.5287 O   0  0  0  0  0  0  0  0  0  0  0  0
    1.6142    1.3285    0.6802 H   0  0  0  0  0  0  0  0  0  0  0  0
    3.1822    1.0929   -1.0755 H   0  0  0  0  0  0  0  0  0  0  0  0
    3.6475    2.7979   -1.0073 H   0  0  0  0  0  0  0  0  0  0  0  0
    1.2894    1.6728   -2.4316 H   0  0  0  0  0  0  0  0  0  0  0  0
    1.9976    3.2691   -2.3965 H   0  0  0  0  0  0  0  0  0  0  0  0
    0.3187    3.9320   -1.4697 H   0  0  0  0  0  0  0  0  0  0  0  0
   -2.3164    1.5063    0.7389 H   0  0  0  0  0  0  0  0  0  0  0  0
   -1.3717    0.5386   -0.3843 H   0  0  0  0  0  0  0  0  0  0  0  0
   -0.6812    1.0524    1.1428 H   0  0  0  0  0  0  0  0  0  0  0  0
   -1.6691    3.6159   -2.2422 H   0  0  0  0  0  0  0  0  0  0  0  0
   -2.9149    2.8855   -1.1950 H   0  0  0  0  0  0  0  0  0  0  0  0
   -1.8433    1.8772   -2.1548 H   0  0  0  0  0  0  0  0  0  0  0  0
   -1.8988    3.6904    1.3747 H   0  0  0  0  0  0  0  0  0  0  0  0
    0.1639    2.5055    2.1004 H   0  0  0  0  0  0  0  0  0  0  0  0
    0.4840    4.1756    2.3819 H   0  0  0  0  0  0  0  0  0  0  0  0
   -0.4144    6.2014    2.3373 H   0  0  0  0  0  0  0  0  0  0  0  0
   -1.1332    7.3577    1.2032 H   0  0  0  0  0  0  0  0  0  0  0  0
   -2.1406    6.1553    1.9765 H   0  0  0  0  0  0  0  0  0  0  0  0
    0.8122    6.8287    0.1170 H   0  0  0  0  0  0  0  0  0  0  0  0
    0.5997    5.8266   -1.2522 H   0  0  0  0  0  0  0  0  0  0  0  0
    2.1072    5.2529    1.3182 H   0  0  0  0  0  0  0  0  0  0  0  0
    2.6209    4.9884   -0.3371 H   0  0  0  0  0  0  0  0  0  0  0  0
    2.8753    2.7185    2.5656 H   0  0  0  0  0  0  0  0  0  0  0  0
    4.2272    2.5246    1.4157 H   0  0  0  0  0  0  0  0  0  0  0  0
    3.3444    1.1180    2.0079 H   0  0  0  0  0  0  0  0  0  0  0  0
   -3.5929    6.4209   -2.3948 H   0  0  0  0  0  0  0  0  0  0  0  0
   -4.9760    5.6510   -1.5986 H   0  0  0  0  0  0  0  0  0  0  0  0
   -3.7734    4.6423   -2.4139 H   0  0  0  0  0  0  0  0  0  0  0  0
  1  2  1  0  0  0  0
  1 14  1  0  0  0  0
  1 16  1  0  0  0  0
  1 20  1  1  0  0  0
  2  3  1  0  0  0  0
  2 21  1  0  0  0  0
  2 22  1  0  0  0  0
  3 23  1  0  0  0  0
  3 24  1  0  0  0  0
  4  3  1  0  0  0  0
  4  5  1  0  0  0  0
  4 14  1  0  0  0  0
  4 25  1  6  0  0  0
  5  6  1  0  0  0  0
  5  7  1  0  0  0  0
  6 26  1  0  0  0  0
  6 27  1  0  0  0  0
  6 28  1  0  0  0  0
  7 29  1  0  0  0  0
  7 30  1  0  0  0  0
  7 31  1  0  0  0  0
  8  5  1  0  0  0  0
  8  9  1  0  0  0  0
  8 10  1  0  0  0  0
  8 32  1  1  0  0  0
  9 33  1  0  0  0  0
  9 34  1  0  0  0  0
 10 12  1  0  0  0  0
 10 11  1  0  0  0  0
 10 15  1  6  0  0  0
 11 35  1  0  0  0  0
 11 36  1  0  0  0  0
 11 37  1  0  0  0  0
 12 13  1  0  0  0  0
 12 38  1  0  0  0  0
 12 39  1  0  0  0  0
 13 40  1  0  0  0  0
 13 41  1  0  0  0  0
 14  9  1  1  0  0  0
 14 13  1  0  0  0  0
 15 17  1  0  0  0  0
 16 42  1  0  0  0  0
 16 43  1  0  0  0  0
 16 44  1  0  0  0  0
 17 18  1  0  0  0  0
 17 19  2  0  0  0  0
 18 45  1  0  0  0  0
 18 46  1  0  0  0  0
 18 47  1  0  0  0  0
M  END
>  <Mol_ID>
1945

>  <Formula>
C17H28O2

>  <MolWeight>
264.40302

>  <Cat>
S4793

>  <Name>
Cedryl acetate

>  <Synonyms>
Cedrol acetate, Cedranyl acetate

>  <Target>
Carbohydrate Metabolism,Fungal

>  <Form>
free base

>  <CAS>
77-54-3

>  <URL>
http://selleckchem.com/products/cedryl-acetate.html

$$$$
