S4803 Thymidine.cdx
 OpenBabel08302519523D

 31 32  0  0  0  0  0  0  0  0999 V2000
    0.9923    1.4643    0.3072 O   0  0  0  0  0  0  0  0  0  0  0  0
    0.4683    0.5363    1.2501 C   0  0  0  0  0  0  0  0  0  0  0  0
   -1.0660    0.4704    1.2164 C   0  0  2  0  0  0  0  0  0  0  0  0
   -1.6381    0.1311   -0.1533 C   0  0  1  0  0  0  0  0  0  0  0  0
   -2.9087   -0.5143   -0.0128 O   0  0  0  0  0  0  0  0  0  0  0  0
   -1.8296    1.4774   -0.7997 C   0  0  0  0  0  0  0  0  0  0  0  0
   -2.1718    2.3757    0.3867 C   0  0  1  0  0  0  0  0  0  0  0  0
   -1.6312    1.7540    1.5741 O   0  0  0  0  0  0  0  0  0  0  0  0
   -1.7125    3.7537    0.2302 N   0  0  0  0  0  0  0  0  0  0  0  0
   -2.2602    4.4853   -0.8174 C   0  0  0  0  0  0  0  0  0  0  0  0
   -3.1242    4.0568   -1.5801 O   0  0  0  0  0  0  0  0  0  0  0  0
   -1.7691    5.7503   -0.9813 N   0  0  0  0  0  0  0  0  0  0  0  0
   -0.7834    6.3303   -0.2431 C   0  0  0  0  0  0  0  0  0  0  0  0
   -0.3291    7.4377   -0.5130 O   0  0  0  0  0  0  0  0  0  0  0  0
   -0.2941    5.5480    0.9139 C   0  0  0  0  0  0  0  0  0  0  0  0
    0.7148    6.1895    1.8071 C   0  0  0  0  0  0  0  0  0  0  0  0
   -0.7757    4.3097    1.0805 C   0  0  0  0  0  0  0  0  0  0  0  0
    1.9595    1.4719    0.4153 H   0  0  0  0  0  0  0  0  0  0  0  0
    0.8909   -0.4465    1.0247 H   0  0  0  0  0  0  0  0  0  0  0  0
    0.8062    0.8499    2.2449 H   0  0  0  0  0  0  0  0  0  0  0  0
   -1.3987   -0.2474    1.9740 H   0  0  0  0  0  0  0  0  0  0  0  0
   -1.0027   -0.5391   -0.7382 H   0  0  0  0  0  0  0  0  0  0  0  0
   -3.4333   -0.0311    0.6525 H   0  0  0  0  0  0  0  0  0  0  0  0
   -0.9049    1.8087   -1.2854 H   0  0  0  0  0  0  0  0  0  0  0  0
   -2.6210    1.4836   -1.5555 H   0  0  0  0  0  0  0  0  0  0  0  0
   -3.2606    2.4074    0.5217 H   0  0  0  0  0  0  0  0  0  0  0  0
   -2.1178    6.2699   -1.7691 H   0  0  0  0  0  0  0  0  0  0  0  0
    1.6469    6.3712    1.2626 H   0  0  0  0  0  0  0  0  0  0  0  0
    0.3409    7.1464    2.1861 H   0  0  0  0  0  0  0  0  0  0  0  0
    0.9493    5.5614    2.6730 H   0  0  0  0  0  0  0  0  0  0  0  0
   -0.4321    3.6941    1.9062 H   0  0  0  0  0  0  0  0  0  0  0  0
  1  2  1  0  0  0  0
  1 18  1  0  0  0  0
  2 19  1  0  0  0  0
  2 20  1  0  0  0  0
  3  2  1  0  0  0  0
  3  4  1  0  0  0  0
  3  8  1  0  0  0  0
  3 21  1  1  0  0  0
  4  5  1  0  0  0  0
  4  6  1  0  0  0  0
  4 22  1  6  0  0  0
  5 23  1  0  0  0  0
  6 24  1  0  0  0  0
  6 25  1  0  0  0  0
  7  6  1  0  0  0  0
  7  8  1  0  0  0  0
  7 26  1  1  0  0  0
  7  9  1  0  0  0  0
  9 10  1  0  0  0  0
  9 17  1  0  0  0  0
 10 11  2  0  0  0  0
 10 12  1  0  0  0  0
 12 13  1  0  0  0  0
 12 27  1  0  0  0  0
 13 14  2  0  0  0  0
 13 15  1  0  0  0  0
 15 16  1  0  0  0  0
 15 17  2  0  0  0  0
 16 28  1  0  0  0  0
 16 29  1  0  0  0  0
 16 30  1  0  0  0  0
 17 31  1  0  0  0  0
M  END
>  <Mol_ID>
1964

>  <Formula>
C10H14N2O5

>  <MolWeight>
242.22856

>  <Cat>
S4803

>  <Name>
Thymidine (NSC 21548)

>  <Synonyms>
Deoxythymidine, 2'-Deoxythymidine, 5-Methyldeoxyuridine, DThyd

>  <Target>
DNA/RNA Synthesis

>  <Form>
free base

>  <CAS>
50-89-5

>  <URL>
http://selleckchem.com/products/thymidine.html

$$$$
