S4809 3-Indolepropionic acid.cdx
 OpenBabel08302519523D

 25 26  0  0  0  0  0  0  0  0999 V2000
   -0.2415   -0.7266   -0.0473 C   0  0  0  0  0  0  0  0  0  0  0  0
   -1.6211   -1.1241   -0.0881 C   0  0  0  0  0  0  0  0  0  0  0  0
   -0.2051    0.6679   -0.0794 C   0  0  0  0  0  0  0  0  0  0  0  0
    0.9845   -1.4232    0.0169 C   0  0  0  0  0  0  0  0  0  0  0  0
   -2.3633    0.0398   -0.1520 C   0  0  0  0  0  0  0  0  0  0  0  0
   -2.1430   -2.5274   -0.0456 C   0  0  0  0  0  0  0  0  0  0  0  0
   -1.5055    1.1051   -0.1494 N   0  0  0  0  0  0  0  0  0  0  0  0
    0.9874    1.4005   -0.0453 C   0  0  0  0  0  0  0  0  0  0  0  0
    2.1878   -0.7063    0.0412 C   0  0  0  0  0  0  0  0  0  0  0  0
   -3.4657   -2.7561   -0.7687 C   0  0  0  0  0  0  0  0  0  0  0  0
    2.1862    0.6857    0.0127 C   0  0  0  0  0  0  0  0  0  0  0  0
   -3.4171   -2.4421   -2.2429 C   0  0  0  0  0  0  0  0  0  0  0  0
   -2.5728   -3.2278   -2.9473 O   0  0  0  0  0  0  0  0  0  0  0  0
   -4.1300   -1.6070   -2.7807 O   0  0  0  0  0  0  0  0  0  0  0  0
    1.0050   -2.5080    0.0438 H   0  0  0  0  0  0  0  0  0  0  0  0
   -3.4312    0.2061   -0.2130 H   0  0  0  0  0  0  0  0  0  0  0  0
   -1.3846   -3.2081   -0.4500 H   0  0  0  0  0  0  0  0  0  0  0  0
   -2.2739   -2.8045    1.0085 H   0  0  0  0  0  0  0  0  0  0  0  0
   -1.7829    2.0756   -0.1964 H   0  0  0  0  0  0  0  0  0  0  0  0
    0.9873    2.4854   -0.0671 H   0  0  0  0  0  0  0  0  0  0  0  0
    3.1328   -1.2425    0.0823 H   0  0  0  0  0  0  0  0  0  0  0  0
   -3.7867   -3.7983   -0.6570 H   0  0  0  0  0  0  0  0  0  0  0  0
   -4.2571   -2.1429   -0.3204 H   0  0  0  0  0  0  0  0  0  0  0  0
    3.1297    1.2263    0.0338 H   0  0  0  0  0  0  0  0  0  0  0  0
   -2.0789   -3.8765   -2.4148 H   0  0  0  0  0  0  0  0  0  0  0  0
  1  2  1  0  0  0  0
  1  3  2  0  0  0  0
  1  4  1  0  0  0  0
  2  5  2  0  0  0  0
  2  6  1  0  0  0  0
  3  7  1  0  0  0  0
  3  8  1  0  0  0  0
  4  9  2  0  0  0  0
  4 15  1  0  0  0  0
  5  7  1  0  0  0  0
  5 16  1  0  0  0  0
  6 10  1  0  0  0  0
  6 17  1  0  0  0  0
  6 18  1  0  0  0  0
  7 19  1  0  0  0  0
  8 11  2  0  0  0  0
  8 20  1  0  0  0  0
  9 11  1  0  0  0  0
  9 21  1  0  0  0  0
 10 12  1  0  0  0  0
 10 22  1  0  0  0  0
 10 23  1  0  0  0  0
 11 24  1  0  0  0  0
 12 13  1  0  0  0  0
 12 14  2  0  0  0  0
 13 25  1  0  0  0  0
M  END
>  <Mol_ID>
1946

>  <Formula>
C11H11NO2

>  <MolWeight>
189.21054

>  <Cat>
S4809

>  <Name>
3-Indolepropionic acid

>  <Synonyms>
indole-3-propionic acid, Indolepropionic acid

>  <Target>
Others

>  <Form>
free base

>  <CAS>
830-96-6

>  <URL>
http://selleckchem.com/products/3-indolepropionic-acid.html

$$$$
