S4801 6-Chloropurine.cdx
 OpenBabel08302519523D

 13 14  0  0  0  0  0  0  0  0999 V2000
    0.2902    0.7196    0.0181 C   0  0  0  0  0  0  0  0  0  0  0  0
    0.2128   -0.6633    0.0065 C   0  0  0  0  0  0  0  0  0  0  0  0
   -0.9230    1.3990    0.0201 C   0  0  0  0  0  0  0  0  0  0  0  0
    1.6017    1.1342    0.0285 N   0  0  0  0  0  0  0  0  0  0  0  0
   -0.8903   -1.4266   -0.0062 N   0  0  0  0  0  0  0  0  0  0  0  0
    1.5083   -1.0900    0.0132 N   0  0  0  0  0  0  0  0  0  0  0  0
   -2.0835    0.6912    0.0080 N   0  0  0  0  0  0  0  0  0  0  0  0
    2.3069    0.0217    0.0256 C   0  0  0  0  0  0  0  0  0  0  0  0
   -2.0006   -0.6589   -0.0049 C   0  0  0  0  0  0  0  0  0  0  0  0
   -0.9961    2.4783    0.0318 H   0  0  0  0  0  0  0  0  0  0  0  0
    1.8049   -2.0540    0.0110 H   0  0  0  0  0  0  0  0  0  0  0  0
    3.3873   -0.0428    0.0322 H   0  0  0  0  0  0  0  0  0  0  0  0
   -2.9476   -1.1911   -0.0149 H   0  0  0  0  0  0  0  0  0  0  0  0
  1  2  1  0  0  0  0
  1  3  2  0  0  0  0
  1  4  1  0  0  0  0
  2  5  2  0  0  0  0
  2  6  1  0  0  0  0
  3  7  1  0  0  0  0
  3 10  1  0  0  0  0
  4  8  2  0  0  0  0
  5  9  1  0  0  0  0
  6 11  1  0  0  0  0
  7  9  2  0  0  0  0
  8  6  1  0  0  0  0
  8 12  1  0  0  0  0
  9 13  1  0  0  0  0
M  END
>  <Mol_ID>
1963

>  <Formula>
C5H3ClN4

>  <MolWeight>
154.55712

>  <Cat>
S4801

>  <Name>
6-Chloropurine

>  <Synonyms>
N/A

>  <Target>
Others

>  <Form>
free base

>  <CAS>
87-42-3

>  <URL>
http://selleckchem.com/products/6-chloropurine.html

$$$$
