S4804 1-Naphthyl acetate.cdx
 OpenBabel08302519523D

 24 25  0  0  0  0  0  0  0  0999 V2000
    0.0269   -0.6467   -0.0456 C   0  0  0  0  0  0  0  0  0  0  0  0
   -0.0830    0.7637   -0.0070 C   0  0  0  0  0  0  0  0  0  0  0  0
    1.3206   -1.2203   -0.1269 C   0  0  0  0  0  0  0  0  0  0  0  0
   -1.1599   -1.4106   -0.0069 C   0  0  0  0  0  0  0  0  0  0  0  0
    1.0786    1.5504   -0.0460 C   0  0  0  0  0  0  0  0  0  0  0  0
   -1.3522    1.3619    0.0641 C   0  0  0  0  0  0  0  0  0  0  0  0
    2.4647   -0.4255   -0.1914 C   0  0  0  0  0  0  0  0  0  0  0  0
    1.3724   -2.6466   -0.1222 O   0  0  0  0  0  0  0  0  0  0  0  0
   -2.4139   -0.8024    0.0531 C   0  0  0  0  0  0  0  0  0  0  0  0
    2.3393    0.9613   -0.1466 C   0  0  0  0  0  0  0  0  0  0  0  0
   -2.5098    0.5849    0.0876 C   0  0  0  0  0  0  0  0  0  0  0  0
    2.4983   -3.4703   -0.1908 C   0  0  0  0  0  0  0  0  0  0  0  0
    2.0619   -4.9014   -0.0677 C   0  0  0  0  0  0  0  0  0  0  0  0
    3.6648   -3.1188   -0.2869 O   0  0  0  0  0  0  0  0  0  0  0  0
   -1.1142   -2.4974   -0.0336 H   0  0  0  0  0  0  0  0  0  0  0  0
    1.0096    2.6357   -0.0049 H   0  0  0  0  0  0  0  0  0  0  0  0
   -1.4486    2.4454    0.0936 H   0  0  0  0  0  0  0  0  0  0  0  0
    3.4594   -0.8486   -0.2739 H   0  0  0  0  0  0  0  0  0  0  0  0
   -3.3138   -1.4109    0.0692 H   0  0  0  0  0  0  0  0  0  0  0  0
    3.2279    1.5868   -0.1895 H   0  0  0  0  0  0  0  0  0  0  0  0
   -3.4851    1.0629    0.1283 H   0  0  0  0  0  0  0  0  0  0  0  0
    2.7121   -5.5305   -0.6820 H   0  0  0  0  0  0  0  0  0  0  0  0
    2.1200   -5.2112    0.9784 H   0  0  0  0  0  0  0  0  0  0  0  0
    1.0385   -5.0260   -0.4326 H   0  0  0  0  0  0  0  0  0  0  0  0
  1  2  1  0  0  0  0
  1  3  2  0  0  0  0
  1  4  1  0  0  0  0
  2  5  2  0  0  0  0
  2  6  1  0  0  0  0
  3  7  1  0  0  0  0
  3  8  1  0  0  0  0
  4  9  2  0  0  0  0
  4 15  1  0  0  0  0
  5 10  1  0  0  0  0
  5 16  1  0  0  0  0
  6 11  2  0  0  0  0
  6 17  1  0  0  0  0
  7 10  2  0  0  0  0
  7 18  1  0  0  0  0
  8 12  1  0  0  0  0
  9 11  1  0  0  0  0
  9 19  1  0  0  0  0
 10 20  1  0  0  0  0
 11 21  1  0  0  0  0
 12 13  1  0  0  0  0
 12 14  2  0  0  0  0
 13 22  1  0  0  0  0
 13 23  1  0  0  0  0
 13 24  1  0  0  0  0
M  END
>  <Mol_ID>
1965

>  <Formula>
C12H10O2

>  <MolWeight>
186.2066

>  <Cat>
S4804

>  <Name>
1-Naphthyl acetate

>  <Synonyms>
N/A

>  <Target>
AChR

>  <Form>
free base

>  <CAS>
830-81-9

>  <URL>
http://selleckchem.com/products/1-naphthyl-acetate.html

$$$$
