S4802 6-Methylcoumarin.cdx
 OpenBabel08302519513D

 20 21  0  0  0  0  0  0  0  0999 V2000
   -0.3012   -0.7371    0.0053 C   0  0  0  0  0  0  0  0  0  0  0  0
    0.0565    0.6090    0.0109 C   0  0  0  0  0  0  0  0  0  0  0  0
   -1.6577   -1.0752   -0.0009 C   0  0  0  0  0  0  0  0  0  0  0  0
    0.7498   -1.7423    0.0106 C   0  0  0  0  0  0  0  0  0  0  0  0
    1.4085    1.0031    0.0103 O   0  0  0  0  0  0  0  0  0  0  0  0
   -0.9002    1.6195    0.0168 C   0  0  0  0  0  0  0  0  0  0  0  0
   -2.6414   -0.0711    0.0030 C   0  0  0  0  0  0  0  0  0  0  0  0
    2.0294   -1.3558    0.0125 C   0  0  0  0  0  0  0  0  0  0  0  0
    2.4287    0.0630    0.0062 C   0  0  0  0  0  0  0  0  0  0  0  0
   -2.2515    1.2758    0.0144 C   0  0  0  0  0  0  0  0  0  0  0  0
   -4.0955   -0.4443   -0.0044 C   0  0  0  0  0  0  0  0  0  0  0  0
    3.6126    0.3784   -0.0009 O   0  0  0  0  0  0  0  0  0  0  0  0
   -1.9605   -2.1204   -0.0082 H   0  0  0  0  0  0  0  0  0  0  0  0
    0.4803   -2.7924    0.0173 H   0  0  0  0  0  0  0  0  0  0  0  0
   -0.5977    2.6620    0.0240 H   0  0  0  0  0  0  0  0  0  0  0  0
    2.8430   -2.0709    0.0195 H   0  0  0  0  0  0  0  0  0  0  0  0
   -2.9987    2.0665    0.0208 H   0  0  0  0  0  0  0  0  0  0  0  0
   -4.3321   -1.0241   -0.9023 H   0  0  0  0  0  0  0  0  0  0  0  0
   -4.3381   -1.0365    0.8836 H   0  0  0  0  0  0  0  0  0  0  0  0
   -4.7368    0.4435   -0.0007 H   0  0  0  0  0  0  0  0  0  0  0  0
  1  2  1  0  0  0  0
  1  3  2  0  0  0  0
  1  4  1  0  0  0  0
  2  5  1  0  0  0  0
  2  6  2  0  0  0  0
  3  7  1  0  0  0  0
  3 13  1  0  0  0  0
  4  8  2  0  0  0  0
  4 14  1  0  0  0  0
  5  9  1  0  0  0  0
  6 10  1  0  0  0  0
  6 15  1  0  0  0  0
  7 11  1  0  0  0  0
  7 10  2  0  0  0  0
  8  9  1  0  0  0  0
  8 16  1  0  0  0  0
  9 12  2  0  0  0  0
 10 17  1  0  0  0  0
 11 18  1  0  0  0  0
 11 19  1  0  0  0  0
 11 20  1  0  0  0  0
M  END
>  <Mol_ID>
1874

>  <Formula>
C10H8O2

>  <MolWeight>
160.16932

>  <Cat>
S4802

>  <Name>
6-Methylcoumarin

>  <Synonyms>
Toncarine

>  <Target>
Others

>  <Form>
free base

>  <CAS>
92-48-8

>  <URL>
http://selleckchem.com/products/6-methylcoumarin.html

$$$$
