S4817 Atenolol.cdx
 OpenBabel08302519523D

 41 41  0  0  0  0  0  0  0  0999 V2000
   -4.2092    3.8609    1.9988 C   0  0  0  0  0  0  0  0  0  0  0  0
   -4.3705    2.5238    2.3732 C   0  0  0  0  0  0  0  0  0  0  0  0
   -3.8979    1.4857    1.5606 C   0  0  0  0  0  0  0  0  0  0  0  0
   -3.2509    1.7567    0.3499 C   0  0  0  0  0  0  0  0  0  0  0  0
   -3.0252    3.0938    0.0069 C   0  0  0  0  0  0  0  0  0  0  0  0
   -3.5032    4.1371    0.8201 C   0  0  0  0  0  0  0  0  0  0  0  0
   -4.8187    4.9486    2.8498 C   0  0  0  0  0  0  0  0  0  0  0  0
   -3.9257    5.4314    3.9746 C   0  0  0  0  0  0  0  0  0  0  0  0
   -3.3788    6.6708    3.7980 N   0  0  0  0  0  0  0  0  0  0  0  0
   -3.7133    4.7941    5.0015 O   0  0  0  0  0  0  0  0  0  0  0  0
   -2.8143    0.7939   -0.5443 O   0  0  0  0  0  0  0  0  0  0  0  0
   -3.3894   -0.5057   -0.3439 C   0  0  0  0  0  0  0  0  0  0  0  0
   -3.2388   -1.4833   -1.5279 C   0  0  3  0  0  0  0  0  0  0  0  0
   -1.8042   -2.0043   -1.8102 C   0  0  0  0  0  0  0  0  0  0  0  0
   -1.8790   -3.0166   -2.8796 N   0  0  0  0  0  0  0  0  0  0  0  0
   -0.6303   -3.6612   -3.2835 C   0  0  0  0  0  0  0  0  0  0  0  0
    0.0329   -4.4920   -2.1846 C   0  0  0  0  0  0  0  0  0  0  0  0
   -0.9406   -4.5797   -4.4754 C   0  0  0  0  0  0  0  0  0  0  0  0
   -4.0851   -2.6252   -1.2446 O   0  0  0  0  0  0  0  0  0  0  0  0
   -4.8826    2.2729    3.3021 H   0  0  0  0  0  0  0  0  0  0  0  0
   -4.0637    0.4726    1.9105 H   0  0  0  0  0  0  0  0  0  0  0  0
   -2.4986    3.3328   -0.9123 H   0  0  0  0  0  0  0  0  0  0  0  0
   -3.3357    5.1662    0.5100 H   0  0  0  0  0  0  0  0  0  0  0  0
   -5.1258    5.7928    2.2211 H   0  0  0  0  0  0  0  0  0  0  0  0
   -5.7477    4.5842    3.3096 H   0  0  0  0  0  0  0  0  0  0  0  0
   -2.7564    7.0132    4.5189 H   0  0  0  0  0  0  0  0  0  0  0  0
   -3.4204    7.1680    2.9202 H   0  0  0  0  0  0  0  0  0  0  0  0
   -2.9544   -0.9621    0.5533 H   0  0  0  0  0  0  0  0  0  0  0  0
   -4.4713   -0.3982   -0.1802 H   0  0  0  0  0  0  0  0  0  0  0  0
   -3.6294   -1.0079   -2.4350 H   0  0  0  0  0  0  0  0  0  0  0  0
   -1.1484   -1.1790   -2.1028 H   0  0  0  0  0  0  0  0  0  0  0  0
   -1.4103   -2.4654   -0.8975 H   0  0  0  0  0  0  0  0  0  0  0  0
   -2.6072   -3.7008   -2.6683 H   0  0  0  0  0  0  0  0  0  0  0  0
    0.0748   -2.8959   -3.6264 H   0  0  0  0  0  0  0  0  0  0  0  0
   -0.6379   -5.2703   -1.8050 H   0  0  0  0  0  0  0  0  0  0  0  0
    0.9284   -4.9913   -2.5753 H   0  0  0  0  0  0  0  0  0  0  0  0
    0.3541   -3.8695   -1.3450 H   0  0  0  0  0  0  0  0  0  0  0  0
   -1.3287   -4.0095   -5.3266 H   0  0  0  0  0  0  0  0  0  0  0  0
   -0.0378   -5.1018   -4.8130 H   0  0  0  0  0  0  0  0  0  0  0  0
   -1.6834   -5.3440   -4.2135 H   0  0  0  0  0  0  0  0  0  0  0  0
   -3.5785   -3.2284   -0.6738 H   0  0  0  0  0  0  0  0  0  0  0  0
  1  2  2  0  0  0  0
  1  7  1  0  0  0  0
  2  3  1  0  0  0  0
  2 20  1  0  0  0  0
  3  4  2  0  0  0  0
  3 21  1  0  0  0  0
  4  5  1  0  0  0  0
  4 11  1  0  0  0  0
  5  6  2  0  0  0  0
  5 22  1  0  0  0  0
  6  1  1  0  0  0  0
  6 23  1  0  0  0  0
  7  8  1  0  0  0  0
  7 24  1  0  0  0  0
  7 25  1  0  0  0  0
  8  9  1  0  0  0  0
  8 10  2  0  0  0  0
  9 26  1  0  0  0  0
  9 27  1  0  0  0  0
 11 12  1  0  0  0  0
 12 13  1  0  0  0  0
 12 28  1  0  0  0  0
 12 29  1  0  0  0  0
 13 14  1  0  0  0  0
 13 19  1  0  0  0  0
 13 30  1  0  0  0  0
 14 15  1  0  0  0  0
 14 31  1  0  0  0  0
 14 32  1  0  0  0  0
 15 16  1  0  0  0  0
 15 33  1  0  0  0  0
 16 17  1  0  0  0  0
 16 18  1  0  0  0  0
 16 34  1  0  0  0  0
 17 35  1  0  0  0  0
 17 36  1  0  0  0  0
 17 37  1  0  0  0  0
 18 38  1  0  0  0  0
 18 39  1  0  0  0  0
 18 40  1  0  0  0  0
 19 41  1  0  0  0  0
M  END
>  <Mol_ID>
2003

>  <Formula>
C14H22N2O3

>  <MolWeight>
266.33608

>  <Cat>
S4817

>  <Name>
Atenolol

>  <Synonyms>
Tenormin, Normiten, Blokium

>  <Target>
Adrenergic Receptor

>  <Form>
free base

>  <CAS>
29122-68-7

>  <URL>
http://selleckchem.com/products/atenolol.html

$$$$
