S4810 Glycylglycine.cdx
 OpenBabel08302521383D

 17 16  0  0  0  0  0  0  0  0999 V2000
    0.8479   -0.0440    0.1032 C   0  0  0  0  0  0  0  0  0  0  0  0
    0.2012    0.8371    0.9332 N   0  0  0  0  0  0  0  0  0  0  0  0
    2.3767    0.0798    0.1217 C   0  0  0  0  0  0  0  0  0  0  0  0
    0.2482   -0.9017   -0.5310 O   0  0  0  0  0  0  0  0  0  0  0  0
   -1.2448    0.9335    1.0745 C   0  0  0  0  0  0  0  0  0  0  0  0
    2.8105    1.1984    0.9871 N   0  0  0  0  0  0  0  0  0  0  0  0
   -1.7854    0.1018    2.2317 C   0  0  0  0  0  0  0  0  0  0  0  0
   -1.0532   -1.0035    2.5076 O   0  0  0  0  0  0  0  0  0  0  0  0
   -2.8324    0.3500    2.8127 O   0  0  0  0  0  0  0  0  0  0  0  0
    0.8067    1.3788    1.5494 H   0  0  0  0  0  0  0  0  0  0  0  0
    2.7838   -0.8569    0.5138 H   0  0  0  0  0  0  0  0  0  0  0  0
    2.7339    0.2394   -0.8995 H   0  0  0  0  0  0  0  0  0  0  0  0
   -1.4780    1.9863    1.2567 H   0  0  0  0  0  0  0  0  0  0  0  0
   -1.7297    0.5977    0.1519 H   0  0  0  0  0  0  0  0  0  0  0  0
    3.8300    1.1658    1.0560 H   0  0  0  0  0  0  0  0  0  0  0  0
    2.6093    2.0752    0.5011 H   0  0  0  0  0  0  0  0  0  0  0  0
   -0.3437   -1.1223    1.8452 H   0  0  0  0  0  0  0  0  0  0  0  0
  1  2  1  0  0  0  0
  1  3  1  0  0  0  0
  1  4  2  0  0  0  0
  2  5  1  0  0  0  0
  2 10  1  0  0  0  0
  3  6  1  0  0  0  0
  3 11  1  0  0  0  0
  3 12  1  0  0  0  0
  5  7  1  0  0  0  0
  5 13  1  0  0  0  0
  5 14  1  0  0  0  0
  6 15  1  0  0  0  0
  6 16  1  0  0  0  0
  7  8  1  0  0  0  0
  7  9  2  0  0  0  0
  8 17  1  0  0  0  0
M  END
>  <Mol_ID>
7798

>  <Formula>
C4H8N2O3

>  <MolWeight>
132.11792

>  <Cat>
S4810

>  <Name>
Glycylglycine

>  <Synonyms>
Diglycine, Diglycocoll, Glycine dipeptide, N-Glycylglycine

>  <Target>
Others

>  <Form>
free base

>  <CAS>
556-50-3

>  <URL>
http://selleckchem.com/products/glycylglycine.html

$$$$
