S4812 Ceftizoxime.cdx
 OpenBabel08302519523D

 38 40  0  0  0  0  0  0  0  0999 V2000
    4.0065   -0.5831    3.0099 N   0  0  0  0  0  0  0  0  0  0  0  0
    3.2055   -0.8739    4.0405 C   0  0  0  0  0  0  0  0  0  0  0  0
    1.9803   -0.2298    3.3030 C   0  0  2  0  0  0  0  0  0  0  0  0
    2.9814   -0.0892    2.1043 C   0  0  1  0  0  0  0  0  0  0  0  0
   -0.1939    2.8560    5.5413 C   0  0  0  0  0  0  0  0  0  0  0  0
    5.3315   -0.6104    2.7118 C   0  0  0  0  0  0  0  0  0  0  0  0
   -0.3636    2.7739    4.0790 C   0  0  0  0  0  0  0  0  0  0  0  0
    0.4939    1.8511    6.2334 N   0  0  0  0  0  0  0  0  0  0  0  0
    1.4085    1.0179    3.8838 N   0  0  0  0  0  0  0  0  0  0  0  0
    0.3024    1.6158    3.2946 C   0  0  0  0  0  0  0  0  0  0  0  0
    0.5564    2.1223    7.5124 C   0  0  0  0  0  0  0  0  0  0  0  0
    6.3371   -1.4687    3.4267 C   0  0  0  0  0  0  0  0  0  0  0  0
   -0.6021    3.9023    6.3504 C   0  0  0  0  0  0  0  0  0  0  0  0
   -0.1623    3.6034    7.9817 S   0  0  0  0  0  0  0  0  0  0  0  0
    3.4006    1.5936    1.5794 S   0  0  0  0  0  0  0  0  0  0  0  0
    5.8121    0.2016    1.7472 C   0  0  0  0  0  0  0  0  0  0  0  0
   -1.1141    3.6912    3.5169 N   0  0  0  0  0  0  0  0  0  0  0  0
    3.4704   -1.4108    5.0944 O   0  0  0  0  0  0  0  0  0  0  0  0
   -0.1737    1.1833    2.2474 O   0  0  0  0  0  0  0  0  0  0  0  0
    5.8435   -2.3367    4.3287 O   0  0  0  0  0  0  0  0  0  0  0  0
    7.5318   -1.4516    3.1564 O   0  0  0  0  0  0  0  0  0  0  0  0
    1.1411    1.3045    8.4018 N   0  0  0  0  0  0  0  0  0  0  0  0
    5.0554    1.2248    0.9581 C   0  0  0  0  0  0  0  0  0  0  0  0
   -1.0035    3.6604    2.1158 O   0  0  0  0  0  0  0  0  0  0  0  0
   -2.2784    3.5616    1.4889 C   0  0  0  0  0  0  0  0  0  0  0  0
    1.1869   -0.9719    3.1411 H   0  0  0  0  0  0  0  0  0  0  0  0
    2.7668   -0.7919    1.2895 H   0  0  0  0  0  0  0  0  0  0  0  0
    1.6058    1.2798    4.8523 H   0  0  0  0  0  0  0  0  0  0  0  0
   -1.1134    4.8128    6.0700 H   0  0  0  0  0  0  0  0  0  0  0  0
    6.8810    0.1857    1.5266 H   0  0  0  0  0  0  0  0  0  0  0  0
    4.9344   -2.1563    4.6496 H   0  0  0  0  0  0  0  0  0  0  0  0
    0.8838    1.3922    9.3778 H   0  0  0  0  0  0  0  0  0  0  0  0
    1.3213    0.3508    8.1065 H   0  0  0  0  0  0  0  0  0  0  0  0
    5.0063    0.9193   -0.0913 H   0  0  0  0  0  0  0  0  0  0  0  0
    5.6081    2.1687    1.0000 H   0  0  0  0  0  0  0  0  0  0  0  0
   -2.2542    4.1587    0.5716 H   0  0  0  0  0  0  0  0  0  0  0  0
   -2.4515    2.5183    1.2079 H   0  0  0  0  0  0  0  0  0  0  0  0
   -3.0990    3.9161    2.1198 H   0  0  0  0  0  0  0  0  0  0  0  0
  2  1  1  0  0  0  0
  2  3  1  0  0  0  0
  3  4  1  0  0  0  0
  3  9  1  0  0  0  0
  3 26  1  6  0  0  0
  4  1  1  0  0  0  0
  4 15  1  0  0  0  0
  4 27  1  6  0  0  0
  5  7  1  0  0  0  0
  6  1  1  0  0  0  0
  7 10  1  0  0  0  0
  8  5  1  0  0  0  0
  9 28  1  0  0  0  0
 10  9  1  0  0  0  0
 11  8  2  0  0  0  0
 12  6  1  0  0  0  0
 13  5  2  0  0  0  0
 13 29  1  0  0  0  0
 14 11  1  0  0  0  0
 14 13  1  0  0  0  0
 15 23  1  0  0  0  0
 16  6  2  0  0  0  0
 16 30  1  0  0  0  0
 17  7  2  0  0  0  0
 18  2  2  0  0  0  0
 19 10  2  0  0  0  0
 20 12  1  0  0  0  0
 20 31  1  0  0  0  0
 21 12  2  0  0  0  0
 22 11  1  0  0  0  0
 22 32  1  0  0  0  0
 22 33  1  0  0  0  0
 23 16  1  0  0  0  0
 23 34  1  0  0  0  0
 23 35  1  0  0  0  0
 24 17  1  0  0  0  0
 25 24  1  0  0  0  0
 25 36  1  0  0  0  0
 25 37  1  0  0  0  0
 25 38  1  0  0  0  0
M  END
>  <Mol_ID>
2002

>  <Formula>
C13H13N5O5S2

>  <MolWeight>
383.40282

>  <Cat>
S4812

>  <Name>
Ceftizoxime

>  <Synonyms>
N/A

>  <Target>
Antibiotics

>  <Form>
free base

>  <CAS>
68401-81-0

>  <URL>
http://selleckchem.com/products/ceftizoxime.html

$$$$
