S4821 Glycine.cdx
 OpenBabel08302521383D

 10  9  0  0  0  0  0  0  0  0999 V2000
    0.9941   -0.0859    0.0097 C   0  0  0  0  0  0  0  0  0  0  0  0
    0.2512    0.2615    1.2975 C   0  0  0  0  0  0  0  0  0  0  0  0
    0.2705    0.2691   -1.0844 O   0  0  0  0  0  0  0  0  0  0  0  0
    2.0819   -0.6361   -0.0471 O   0  0  0  0  0  0  0  0  0  0  0  0
   -0.7855    1.2848    1.0008 N   0  0  0  0  0  0  0  0  0  0  0  0
   -0.2304   -0.6471    1.6690 H   0  0  0  0  0  0  0  0  0  0  0  0
    0.9554    0.6516    2.0371 H   0  0  0  0  0  0  0  0  0  0  0  0
   -0.5547    0.6924   -0.7378 H   0  0  0  0  0  0  0  0  0  0  0  0
   -1.3445    1.4110    1.8497 H   0  0  0  0  0  0  0  0  0  0  0  0
   -0.3077    2.1854    0.8829 H   0  0  0  0  0  0  0  0  0  0  0  0
  1  2  1  0  0  0  0
  1  3  1  0  0  0  0
  1  4  2  0  0  0  0
  2  5  1  0  0  0  0
  2  6  1  0  0  0  0
  2  7  1  0  0  0  0
  3  8  1  0  0  0  0
  5  9  1  0  0  0  0
  5 10  1  0  0  0  0
M  END
>  <Mol_ID>
7810

>  <Formula>
C2H5NO2

>  <MolWeight>
75.0666

>  <Cat>
S4821

>  <Name>
Glycine

>  <Synonyms>
2-Aminoacetic acid, Aminoacetic acid, Glycocoll

>  <Target>
Others

>  <Form>
free base

>  <CAS>
56-40-6

>  <URL>
http://selleckchem.com/products/glycine.html

$$$$
