S4828 Sodium carbonate.cdx
 OpenBabel08302521383D

  6  5  0  0  0  0  0  0  0  0999 V2000
    0.9442    0.0965    0.0656 O   0  0  0  0  0  0  0  0  0  0  0  0
    0.1868    1.1125    0.5032 C   0  0  0  0  0  0  0  0  0  0  0  0
    0.9442    2.1285    0.9409 O   0  0  0  0  0  0  0  0  0  0  0  0
   -1.0281    1.1125    0.5032 O   0  0  0  0  0  0  0  0  0  0  0  0
    1.9025    0.2193    0.1185 H   0  0  0  0  0  0  0  0  0  0  0  0
    1.9025    2.0057    0.8880 H   0  0  0  0  0  0  0  0  0  0  0  0
  1  2  1  0  0  0  0
  1  5  1  0  0  0  0
  2  3  1  0  0  0  0
  2  4  2  0  0  0  0
  3  6  1  0  0  0  0
M  END
>  <Mol_ID>
7814

>  <Formula>
CNa2O3

>  <MolWeight>
105.98844

>  <Cat>
S4828

>  <Name>
Sodium carbonate

>  <Synonyms>
Disodium carbonate, Soda Ash, Carbonic acid disodium salt

>  <Target>
Others

>  <Form>
disodium salt of carbonic acid

>  <CAS>
497-19-8

>  <URL>
http://selleckchem.com/products/sodium-carbonate.html

$$$$
