S4831 Piperonyl butoxide.cdx
 OpenBabel08302519533D

 54 55  0  0  0  0  0  0  0  0999 V2000
    2.1839   -2.7104   -3.8583 C   0  0  0  0  0  0  0  0  0  0  0  0
    1.7849   -3.9809   -4.1852 C   0  0  0  0  0  0  0  0  0  0  0  0
    2.2598   -2.3083   -2.5551 C   0  0  0  0  0  0  0  0  0  0  0  0
    2.5221   -1.9741   -4.9447 O   0  0  0  0  0  0  0  0  0  0  0  0
    1.4325   -4.8926   -3.2021 C   0  0  0  0  0  0  0  0  0  0  0  0
    1.8302   -4.2094   -5.5252 O   0  0  0  0  0  0  0  0  0  0  0  0
    1.9457   -3.2069   -1.4896 C   0  0  0  0  0  0  0  0  0  0  0  0
    2.3718   -2.9531   -5.9908 C   0  0  0  0  0  0  0  0  0  0  0  0
    1.5045   -4.5265   -1.8230 C   0  0  0  0  0  0  0  0  0  0  0  0
    2.2693   -2.5620   -0.1239 C   0  0  0  0  0  0  0  0  0  0  0  0
    1.2853   -5.6365   -0.8063 C   0  0  0  0  0  0  0  0  0  0  0  0
    1.9603   -3.1851    1.1198 O   0  0  0  0  0  0  0  0  0  0  0  0
    0.2192   -6.7320   -1.0712 C   0  0  0  0  0  0  0  0  0  0  0  0
    2.4721   -2.4355    2.2626 C   0  0  0  0  0  0  0  0  0  0  0  0
   -1.2098   -6.3520   -0.7020 C   0  0  0  0  0  0  0  0  0  0  0  0
    1.7878   -1.0681    2.4955 C   0  0  0  0  0  0  0  0  0  0  0  0
    1.7994   -0.5580    3.8314 O   0  0  0  0  0  0  0  0  0  0  0  0
    3.0113   -0.1239    4.4557 C   0  0  0  0  0  0  0  0  0  0  0  0
    3.6875    1.1262    3.8653 C   0  0  0  0  0  0  0  0  0  0  0  0
    4.5503    1.8387    4.7689 O   0  0  0  0  0  0  0  0  0  0  0  0
    5.6916    1.1688    5.3113 C   0  0  0  0  0  0  0  0  0  0  0  0
    6.8127    0.9605    4.2881 C   0  0  0  0  0  0  0  0  0  0  0  0
    8.0226    0.1934    4.8388 C   0  0  0  0  0  0  0  0  0  0  0  0
    9.0173    1.0233    5.6408 C   0  0  0  0  0  0  0  0  0  0  0  0
    2.6053   -1.3006   -2.3486 H   0  0  0  0  0  0  0  0  0  0  0  0
    1.1648   -5.8962   -3.5199 H   0  0  0  0  0  0  0  0  0  0  0  0
    1.7122   -2.5430   -6.7620 H   0  0  0  0  0  0  0  0  0  0  0  0
    3.3591   -3.1389   -6.4363 H   0  0  0  0  0  0  0  0  0  0  0  0
    3.3510   -2.3751   -0.1341 H   0  0  0  0  0  0  0  0  0  0  0  0
    1.7513   -1.5964   -0.1251 H   0  0  0  0  0  0  0  0  0  0  0  0
    2.2495   -6.1603   -0.7485 H   0  0  0  0  0  0  0  0  0  0  0  0
    1.0945   -5.2193    0.1829 H   0  0  0  0  0  0  0  0  0  0  0  0
    0.2311   -7.1094   -2.0995 H   0  0  0  0  0  0  0  0  0  0  0  0
    0.4868   -7.5947   -0.4467 H   0  0  0  0  0  0  0  0  0  0  0  0
    2.3316   -3.0693    3.1438 H   0  0  0  0  0  0  0  0  0  0  0  0
    3.5547   -2.2960    2.1500 H   0  0  0  0  0  0  0  0  0  0  0  0
   -1.2462   -5.7164    0.1869 H   0  0  0  0  0  0  0  0  0  0  0  0
   -1.7149   -5.8397   -1.5261 H   0  0  0  0  0  0  0  0  0  0  0  0
   -1.7865   -7.2592   -0.4814 H   0  0  0  0  0  0  0  0  0  0  0  0
    2.1659   -0.3071    1.8053 H   0  0  0  0  0  0  0  0  0  0  0  0
    0.7267   -1.1962    2.2470 H   0  0  0  0  0  0  0  0  0  0  0  0
    2.7289    0.1215    5.4876 H   0  0  0  0  0  0  0  0  0  0  0  0
    3.7143   -0.9588    4.5256 H   0  0  0  0  0  0  0  0  0  0  0  0
    4.2283    0.8860    2.9459 H   0  0  0  0  0  0  0  0  0  0  0  0
    2.9081    1.8430    3.5787 H   0  0  0  0  0  0  0  0  0  0  0  0
    6.0715    1.8141    6.1132 H   0  0  0  0  0  0  0  0  0  0  0  0
    5.3884    0.2294    5.7828 H   0  0  0  0  0  0  0  0  0  0  0  0
    6.4081    0.3904    3.4458 H   0  0  0  0  0  0  0  0  0  0  0  0
    7.1245    1.9272    3.8735 H   0  0  0  0  0  0  0  0  0  0  0  0
    7.6862   -0.6517    5.4475 H   0  0  0  0  0  0  0  0  0  0  0  0
    8.5721   -0.2351    3.9884 H   0  0  0  0  0  0  0  0  0  0  0  0
    8.5384    1.5718    6.4557 H   0  0  0  0  0  0  0  0  0  0  0  0
    9.7804    0.3677    6.0791 H   0  0  0  0  0  0  0  0  0  0  0  0
    9.5399    1.7400    4.9972 H   0  0  0  0  0  0  0  0  0  0  0  0
  1  2  1  0  0  0  0
  1  3  2  0  0  0  0
  1  4  1  0  0  0  0
  2  5  2  0  0  0  0
  2  6  1  0  0  0  0
  3  7  1  0  0  0  0
  3 25  1  0  0  0  0
  4  8  1  0  0  0  0
  5  9  1  0  0  0  0
  5 26  1  0  0  0  0
  6  8  1  0  0  0  0
  7 10  1  0  0  0  0
  7  9  2  0  0  0  0
  8 27  1  0  0  0  0
  8 28  1  0  0  0  0
  9 11  1  0  0  0  0
 10 12  1  0  0  0  0
 10 29  1  0  0  0  0
 10 30  1  0  0  0  0
 11 13  1  0  0  0  0
 11 31  1  0  0  0  0
 11 32  1  0  0  0  0
 12 14  1  0  0  0  0
 13 15  1  0  0  0  0
 13 33  1  0  0  0  0
 13 34  1  0  0  0  0
 14 16  1  0  0  0  0
 14 35  1  0  0  0  0
 14 36  1  0  0  0  0
 15 37  1  0  0  0  0
 15 38  1  0  0  0  0
 15 39  1  0  0  0  0
 16 17  1  0  0  0  0
 16 40  1  0  0  0  0
 16 41  1  0  0  0  0
 17 18  1  0  0  0  0
 18 19  1  0  0  0  0
 18 42  1  0  0  0  0
 18 43  1  0  0  0  0
 19 20  1  0  0  0  0
 19 44  1  0  0  0  0
 19 45  1  0  0  0  0
 20 21  1  0  0  0  0
 21 22  1  0  0  0  0
 21 46  1  0  0  0  0
 21 47  1  0  0  0  0
 22 23  1  0  0  0  0
 22 48  1  0  0  0  0
 22 49  1  0  0  0  0
 23 24  1  0  0  0  0
 23 50  1  0  0  0  0
 23 51  1  0  0  0  0
 24 52  1  0  0  0  0
 24 53  1  0  0  0  0
 24 54  1  0  0  0  0
M  END
>  <Mol_ID>
2059

>  <Formula>
C19H30O5

>  <MolWeight>
338.4385

>  <Cat>
S4831

>  <Name>
Piperonyl butoxide

>  <Synonyms>
Butacide, Ethanol butoxide, Pyrenone 606,ENT-14250

>  <Target>
P450 (e.g. CYP17)

>  <Form>
Peroxides

>  <CAS>
51-03-6

>  <URL>
http://selleckchem.com/products/piperonyl-butoxide.html

$$$$
