S4836 Nilutamide.cdx
 OpenBabel08302519533D

 32 33  0  0  0  0  0  0  0  0999 V2000
   -0.7429   -0.9288   -0.3188 N   0  0  0  0  0  0  0  0  0  0  0  0
   -1.6149   -1.9896   -0.6816 C   0  0  0  0  0  0  0  0  0  0  0  0
    0.5858   -1.0495    0.0425 C   0  0  0  0  0  0  0  0  0  0  0  0
   -1.0939    0.4029   -0.3190 C   0  0  0  0  0  0  0  0  0  0  0  0
   -1.3498   -3.3299   -0.3547 C   0  0  0  0  0  0  0  0  0  0  0  0
   -2.7640   -1.7152   -1.4400 C   0  0  0  0  0  0  0  0  0  0  0  0
    1.2007    0.3616    0.1079 C   0  0  0  0  0  0  0  0  0  0  0  0
    1.2366   -2.0723    0.2187 O   0  0  0  0  0  0  0  0  0  0  0  0
    0.0250    1.1606   -0.0920 N   0  0  0  0  0  0  0  0  0  0  0  0
   -2.1922    0.9220   -0.4457 O   0  0  0  0  0  0  0  0  0  0  0  0
   -2.2121   -4.3801   -0.7511 C   0  0  0  0  0  0  0  0  0  0  0  0
   -3.6043   -2.7252   -1.8864 C   0  0  0  0  0  0  0  0  0  0  0  0
    1.8250    0.6511    1.4605 C   0  0  0  0  0  0  0  0  0  0  0  0
    2.1865    0.5493   -1.0407 C   0  0  0  0  0  0  0  0  0  0  0  0
   -3.3241   -4.0554   -1.5434 C   0  0  0  0  0  0  0  0  0  0  0  0
   -1.9368   -5.7800   -0.2667 C   0  0  0  0  0  0  0  0  0  0  0  0
   -4.2265   -5.0744   -2.0581 N   0  3  0  0  0  0  0  0  0  0  0  0
   -0.8633   -5.8479    0.5738 F   0  0  0  0  0  0  0  0  0  0  0  0
   -2.9783   -6.2937    0.4420 F   0  0  0  0  0  0  0  0  0  0  0  0
   -1.6678   -6.6609   -1.2617 F   0  0  0  0  0  0  0  0  0  0  0  0
   -3.7398   -5.9268   -2.8033 O   0  0  0  0  0  0  0  0  0  0  0  0
   -5.4179   -4.9715   -1.7481 O   0  5  0  0  0  0  0  0  0  0  0  0
   -0.4825   -3.5845    0.2508 H   0  0  0  0  0  0  0  0  0  0  0  0
   -3.0118   -0.7033   -1.7463 H   0  0  0  0  0  0  0  0  0  0  0  0
   -0.0378    2.1697   -0.0518 H   0  0  0  0  0  0  0  0  0  0  0  0
   -4.4603   -2.4678   -2.5072 H   0  0  0  0  0  0  0  0  0  0  0  0
    2.6844    0.0009    1.6508 H   0  0  0  0  0  0  0  0  0  0  0  0
    2.1622    1.6927    1.5136 H   0  0  0  0  0  0  0  0  0  0  0  0
    1.1045    0.4977    2.2722 H   0  0  0  0  0  0  0  0  0  0  0  0
    1.7392    0.2817   -2.0058 H   0  0  0  0  0  0  0  0  0  0  0  0
    2.5151    1.5922   -1.1091 H   0  0  0  0  0  0  0  0  0  0  0  0
    3.0727   -0.0810   -0.9072 H   0  0  0  0  0  0  0  0  0  0  0  0
  1  2  1  0  0  0  0
  1  3  1  0  0  0  0
  1  4  1  0  0  0  0
  2  5  2  0  0  0  0
  2  6  1  0  0  0  0
  3  7  1  0  0  0  0
  3  8  2  0  0  0  0
  4  9  1  0  0  0  0
  4 10  2  0  0  0  0
  5 11  1  0  0  0  0
  5 23  1  0  0  0  0
  6 12  2  0  0  0  0
  6 24  1  0  0  0  0
  7 13  1  0  0  0  0
  7 14  1  0  0  0  0
  7  9  1  0  0  0  0
  9 25  1  0  0  0  0
 11 15  2  0  0  0  0
 11 16  1  0  0  0  0
 12 15  1  0  0  0  0
 12 26  1  0  0  0  0
 13 27  1  0  0  0  0
 13 28  1  0  0  0  0
 13 29  1  0  0  0  0
 14 30  1  0  0  0  0
 14 31  1  0  0  0  0
 14 32  1  0  0  0  0
 15 17  1  0  0  0  0
 16 18  1  0  0  0  0
 16 19  1  0  0  0  0
 16 20  1  0  0  0  0
 17 21  2  0  0  0  0
 17 22  1  0  0  0  0
M  CHG  2  17   1  22  -1
M  END
>  <Mol_ID>
2029

>  <Formula>
C12H10F3N3O4

>  <MolWeight>
317.2207096

>  <Cat>
S4836

>  <Name>
Nilutamide

>  <Synonyms>
RU23908

>  <Target>
Androgen Receptor

>  <Form>
Nonsteroidal antiandrogens

>  <CAS>
63612-50-0

>  <URL>
http://selleckchem.com/products/nilutamide.html

$$$$
