S4834 Propantheline bromide.cdx
 OpenBabel08302519533D

 58 59  0  0  0  0  0  0  0  0999 V2000
   -1.4642   -2.2921   -3.0330 C   0  0  0  0  0  0  0  0  0  0  0  0
   -0.9385   -2.8139   -4.3650 C   0  0  0  0  0  0  0  0  0  0  0  0
   -2.9951   -2.2771   -2.9879 C   0  0  0  0  0  0  0  0  0  0  0  0
   -0.9126   -2.8316   -1.6969 C   0  0  0  0  0  0  0  0  0  0  0  0
   -1.8404   -3.2165   -5.3635 C   0  0  0  0  0  0  0  0  0  0  0  0
    0.4063   -2.6608   -4.7442 C   0  0  0  0  0  0  0  0  0  0  0  0
   -3.7390   -2.8313   -4.0291 C   0  0  0  0  0  0  0  0  0  0  0  0
   -3.6902   -1.6678   -1.9342 C   0  0  0  0  0  0  0  0  0  0  0  0
   -0.2195   -4.0120   -1.6834 O   0  0  0  0  0  0  0  0  0  0  0  0
   -1.1390   -2.2598   -0.6256 O   0  0  0  0  0  0  0  0  0  0  0  0
   -3.1861   -3.3776   -5.1536 O   0  0  0  0  0  0  0  0  0  0  0  0
   -1.4320   -3.4357   -6.6877 C   0  0  0  0  0  0  0  0  0  0  0  0
    0.8173   -2.8837   -6.0686 C   0  0  0  0  0  0  0  0  0  0  0  0
   -5.1319   -2.8314   -3.9850 C   0  0  0  0  0  0  0  0  0  0  0  0
   -5.0813   -1.6777   -1.8725 C   0  0  0  0  0  0  0  0  0  0  0  0
   -0.1869   -4.7109   -0.3930 C   0  0  0  0  0  0  0  0  0  0  0  0
   -0.1021   -3.2596   -7.0452 C   0  0  0  0  0  0  0  0  0  0  0  0
   -5.8077   -2.2691   -2.9122 C   0  0  0  0  0  0  0  0  0  0  0  0
    1.0880   -4.5692    0.5583 C   0  0  0  0  0  0  0  0  0  0  0  0
    1.1799   -3.2443    1.4735 N   0  3  0  0  0  0  0  0  0  0  0  0
   -0.2041   -3.1549    2.2800 C   0  0  0  0  0  0  0  0  0  0  0  0
    2.4047   -3.2048    2.5014 C   0  0  0  0  0  0  0  0  0  0  0  0
    1.4218   -2.1075    0.4412 C   0  0  0  0  0  0  0  0  0  0  0  0
   -0.3689   -4.3378    3.2640 C   0  0  0  0  0  0  0  0  0  0  0  0
   -0.4758   -1.8659    3.0488 C   0  0  0  0  0  0  0  0  0  0  0  0
    3.7691   -3.5431    1.8884 C   0  0  0  0  0  0  0  0  0  0  0  0
    2.5209   -1.8273    3.1919 C   0  0  0  0  0  0  0  0  0  0  0  0
    0.6947    1.2421   -3.7064 Br  0  5  0  0  0  0  0  0  0  0  0  0
   -1.1805   -1.2308   -3.0420 H   0  0  0  0  0  0  0  0  0  0  0  0
    1.1363   -2.2566   -4.0454 H   0  0  0  0  0  0  0  0  0  0  0  0
   -3.1618   -1.1382   -1.1163 H   0  0  0  0  0  0  0  0  0  0  0  0
   -2.1687   -3.6805   -7.4502 H   0  0  0  0  0  0  0  0  0  0  0  0
    1.8495   -2.6909   -6.3553 H   0  0  0  0  0  0  0  0  0  0  0  0
   -5.6947   -3.2469   -4.8194 H   0  0  0  0  0  0  0  0  0  0  0  0
   -5.6048   -1.2085   -1.0485 H   0  0  0  0  0  0  0  0  0  0  0  0
   -1.1326   -4.5547    0.1375 H   0  0  0  0  0  0  0  0  0  0  0  0
   -0.2352   -5.7695   -0.6713 H   0  0  0  0  0  0  0  0  0  0  0  0
    0.2053   -3.3680   -8.0823 H   0  0  0  0  0  0  0  0  0  0  0  0
   -6.8910   -2.2626   -2.8882 H   0  0  0  0  0  0  0  0  0  0  0  0
    1.0984   -5.4054    1.2657 H   0  0  0  0  0  0  0  0  0  0  0  0
    2.0054   -4.6106   -0.0341 H   0  0  0  0  0  0  0  0  0  0  0  0
   -0.9943   -3.2201    1.5369 H   0  0  0  0  0  0  0  0  0  0  0  0
    2.2072   -3.9748    3.2508 H   0  0  0  0  0  0  0  0  0  0  0  0
    2.4850   -1.8626    0.4232 H   0  0  0  0  0  0  0  0  0  0  0  0
    1.2314   -2.4750   -0.5620 H   0  0  0  0  0  0  0  0  0  0  0  0
    0.8314   -1.2340    0.6879 H   0  0  0  0  0  0  0  0  0  0  0  0
    0.3704   -4.3135    4.0719 H   0  0  0  0  0  0  0  0  0  0  0  0
   -1.3457   -4.2829    3.7586 H   0  0  0  0  0  0  0  0  0  0  0  0
   -0.3235   -5.3154    2.7811 H   0  0  0  0  0  0  0  0  0  0  0  0
   -0.1986   -0.9613    2.5108 H   0  0  0  0  0  0  0  0  0  0  0  0
   -1.5545   -1.8014    3.2472 H   0  0  0  0  0  0  0  0  0  0  0  0
   -0.0229   -1.8668    4.0434 H   0  0  0  0  0  0  0  0  0  0  0  0
    4.1425   -2.7685    1.2118 H   0  0  0  0  0  0  0  0  0  0  0  0
    4.5117   -3.6042    2.6985 H   0  0  0  0  0  0  0  0  0  0  0  0
    3.7797   -4.5070    1.3802 H   0  0  0  0  0  0  0  0  0  0  0  0
    1.9689   -1.8068    4.1335 H   0  0  0  0  0  0  0  0  0  0  0  0
    3.5538   -1.5881    3.4661 H   0  0  0  0  0  0  0  0  0  0  0  0
    2.1721   -0.9938    2.5727 H   0  0  0  0  0  0  0  0  0  0  0  0
  1  2  1  0  0  0  0
  1  3  1  0  0  0  0
  1  4  1  0  0  0  0
  1 29  1  0  0  0  0
  2  5  2  0  0  0  0
  2  6  1  0  0  0  0
  3  7  2  0  0  0  0
  3  8  1  0  0  0  0
  4  9  1  0  0  0  0
  4 10  2  0  0  0  0
  5 11  1  0  0  0  0
  5 12  1  0  0  0  0
  6 13  2  0  0  0  0
  6 30  1  0  0  0  0
  7 14  1  0  0  0  0
  7 11  1  0  0  0  0
  8 15  2  0  0  0  0
  8 31  1  0  0  0  0
  9 16  1  0  0  0  0
 12 17  2  0  0  0  0
 12 32  1  0  0  0  0
 13 17  1  0  0  0  0
 13 33  1  0  0  0  0
 14 18  2  0  0  0  0
 14 34  1  0  0  0  0
 15 18  1  0  0  0  0
 15 35  1  0  0  0  0
 16 19  1  0  0  0  0
 16 36  1  0  0  0  0
 16 37  1  0  0  0  0
 17 38  1  0  0  0  0
 18 39  1  0  0  0  0
 19 20  1  0  0  0  0
 19 40  1  0  0  0  0
 19 41  1  0  0  0  0
 20 21  1  0  0  0  0
 20 22  1  0  0  0  0
 20 23  1  0  0  0  0
 21 24  1  0  0  0  0
 21 25  1  0  0  0  0
 21 42  1  0  0  0  0
 22 26  1  0  0  0  0
 22 27  1  0  0  0  0
 22 43  1  0  0  0  0
 23 44  1  0  0  0  0
 23 45  1  0  0  0  0
 23 46  1  0  0  0  0
 24 47  1  0  0  0  0
 24 48  1  0  0  0  0
 24 49  1  0  0  0  0
 25 50  1  0  0  0  0
 25 51  1  0  0  0  0
 25 52  1  0  0  0  0
 26 53  1  0  0  0  0
 26 54  1  0  0  0  0
 26 55  1  0  0  0  0
 27 56  1  0  0  0  0
 27 57  1  0  0  0  0
 27 58  1  0  0  0  0
M  CHG  2  20   1  28  -1
M  END
>  <Mol_ID>
2024

>  <Formula>
C23H30BrNO3

>  <MolWeight>
448.3932

>  <Cat>
S4834

>  <Name>
Propantheline bromide

>  <Synonyms>
Pro-Banthine, Neometantyl, Neopepulsan

>  <Target>
AChR

>  <Form>
bromide

>  <CAS>
50-34-0

>  <URL>
http://selleckchem.com/products/propantheline-bromide.html

$$$$
