S4837 Ibudilast.cdx
 OpenBabel08302519533D

 35 36  0  0  0  0  0  0  0  0999 V2000
    1.5073   -1.2914   -0.0039 C   0  0  0  0  0  0  0  0  0  0  0  0
    0.1950   -0.8240    0.0018 C   0  0  0  0  0  0  0  0  0  0  0  0
    2.3007   -0.0983    0.0064 C   0  0  0  0  0  0  0  0  0  0  0  0
    2.0367   -2.6602   -0.0163 C   0  0  0  0  0  0  0  0  0  0  0  0
    0.2718    0.5782   -0.0050 N   0  0  0  0  0  0  0  0  0  0  0  0
   -1.1225   -1.3830    0.0067 C   0  0  0  0  0  0  0  0  0  0  0  0
    1.5493    1.0053   -0.0167 N   0  0  0  0  0  0  0  0  0  0  0  0
    3.8099    0.0381    0.0226 C   0  0  0  0  0  0  0  0  0  0  0  0
    1.1222   -3.8763   -0.0142 C   0  0  0  0  0  0  0  0  0  0  0  0
    3.2589   -2.8476   -0.0120 O   0  0  0  0  0  0  0  0  0  0  0  0
   -0.8596    1.3968   -0.0010 C   0  0  0  0  0  0  0  0  0  0  0  0
   -2.2078   -0.5842    0.0012 C   0  0  0  0  0  0  0  0  0  0  0  0
    4.3812    0.1274   -1.3958 C   0  0  0  0  0  0  0  0  0  0  0  0
    4.2863    1.2031    0.8982 C   0  0  0  0  0  0  0  0  0  0  0  0
    1.8226   -5.0427   -0.7174 C   0  0  0  0  0  0  0  0  0  0  0  0
    0.7519   -4.2277    1.4231 C   0  0  0  0  0  0  0  0  0  0  0  0
   -2.0895    0.8606   -0.0026 C   0  0  0  0  0  0  0  0  0  0  0  0
   -1.2819   -2.4525    0.0253 H   0  0  0  0  0  0  0  0  0  0  0  0
    4.2459   -0.8505    0.4875 H   0  0  0  0  0  0  0  0  0  0  0  0
    0.2306   -3.6668   -0.6047 H   0  0  0  0  0  0  0  0  0  0  0  0
   -0.6736    2.4621    0.0009 H   0  0  0  0  0  0  0  0  0  0  0  0
   -3.2084   -1.0050    0.0028 H   0  0  0  0  0  0  0  0  0  0  0  0
    3.9387    0.9492   -1.9688 H   0  0  0  0  0  0  0  0  0  0  0  0
    5.4670    0.2728   -1.3739 H   0  0  0  0  0  0  0  0  0  0  0  0
    4.1880   -0.8004   -1.9476 H   0  0  0  0  0  0  0  0  0  0  0  0
    4.0083    1.0216    1.9434 H   0  0  0  0  0  0  0  0  0  0  0  0
    5.3760    1.3035    0.8594 H   0  0  0  0  0  0  0  0  0  0  0  0
    3.8484    2.1608    0.5990 H   0  0  0  0  0  0  0  0  0  0  0  0
    2.7359   -5.3458   -0.1938 H   0  0  0  0  0  0  0  0  0  0  0  0
    1.1646   -5.9133   -0.7894 H   0  0  0  0  0  0  0  0  0  0  0  0
    2.1104   -4.7497   -1.7344 H   0  0  0  0  0  0  0  0  0  0  0  0
    0.2765   -3.3801    1.9286 H   0  0  0  0  0  0  0  0  0  0  0  0
    0.0550   -5.0710    1.4554 H   0  0  0  0  0  0  0  0  0  0  0  0
    1.6381   -4.4940    2.0107 H   0  0  0  0  0  0  0  0  0  0  0  0
   -2.9851    1.4714   -0.0018 H   0  0  0  0  0  0  0  0  0  0  0  0
  1  2  2  0  0  0  0
  1  3  1  0  0  0  0
  1  4  1  0  0  0  0
  2  5  1  0  0  0  0
  2  6  1  0  0  0  0
  3  7  2  0  0  0  0
  3  8  1  0  0  0  0
  4  9  1  0  0  0  0
  4 10  2  0  0  0  0
  5 11  1  0  0  0  0
  5  7  1  0  0  0  0
  6 12  2  0  0  0  0
  6 18  1  0  0  0  0
  8 13  1  0  0  0  0
  8 14  1  0  0  0  0
  8 19  1  0  0  0  0
  9 15  1  0  0  0  0
  9 16  1  0  0  0  0
  9 20  1  0  0  0  0
 11 17  2  0  0  0  0
 11 21  1  0  0  0  0
 12 17  1  0  0  0  0
 12 22  1  0  0  0  0
 13 23  1  0  0  0  0
 13 24  1  0  0  0  0
 13 25  1  0  0  0  0
 14 26  1  0  0  0  0
 14 27  1  0  0  0  0
 14 28  1  0  0  0  0
 15 29  1  0  0  0  0
 15 30  1  0  0  0  0
 15 31  1  0  0  0  0
 16 32  1  0  0  0  0
 16 33  1  0  0  0  0
 16 34  1  0  0  0  0
 17 35  1  0  0  0  0
M  END
>  <Mol_ID>
2030

>  <Formula>
C14H18N2O

>  <MolWeight>
230.30552

>  <Cat>
S4837

>  <Name>
Ibudilast

>  <Synonyms>
KC-404, AV411, MN166

>  <Target>
PDE

>  <Form>
free base

>  <CAS>
50847-11-5

>  <URL>
http://selleckchem.com/products/Ibudilast.html

$$$$
