S4835 Aceclofenac.cdx
 OpenBabel08302519533D

 36 37  0  0  0  0  0  0  0  0999 V2000
    1.3914   -0.1596    0.0248 C   0  0  0  0  0  0  0  0  0  0  0  0
    0.5349   -1.2802    0.1087 C   0  0  0  0  0  0  0  0  0  0  0  0
    2.7998   -0.2903   -0.0491 N   0  0  0  0  0  0  0  0  0  0  0  0
    0.8127    1.1183   -0.0766 C   0  0  0  0  0  0  0  0  0  0  0  0
    1.0405   -2.7042    0.1291 C   0  0  0  0  0  0  0  0  0  0  0  0
   -0.8603   -1.0776    0.1401 C   0  0  0  0  0  0  0  0  0  0  0  0
    3.7754    0.5937    0.4764 C   0  0  0  0  0  0  0  0  0  0  0  0
   -0.5694    1.3030   -0.0413 C   0  0  0  0  0  0  0  0  0  0  0  0
    1.9702   -3.0049    1.2769 C   0  0  0  0  0  0  0  0  0  0  0  0
   -1.4068    0.2034    0.0741 C   0  0  0  0  0  0  0  0  0  0  0  0
    3.5439    1.3951    1.6009 C   0  0  0  0  0  0  0  0  0  0  0  0
    5.0453    0.6147   -0.1128 C   0  0  0  0  0  0  0  0  0  0  0  0
    1.3250   -3.5523    2.3356 O   0  0  0  0  0  0  0  0  0  0  0  0
    3.1722   -2.7492    1.2729 O   0  0  0  0  0  0  0  0  0  0  0  0
    4.5412    2.2407    2.0911 C   0  0  0  0  0  0  0  0  0  0  0  0
    6.0443    1.4595    0.3757 C   0  0  0  0  0  0  0  0  0  0  0  0
    2.1667   -3.9013    3.4351 C   0  0  0  0  0  0  0  0  0  0  0  0
    5.7885    2.2788    1.4729 C   0  0  0  0  0  0  0  0  0  0  0  0
    2.5913   -2.7473    4.3380 C   0  0  0  0  0  0  0  0  0  0  0  0
    3.4043   -1.8418    3.7490 O   0  0  0  0  0  0  0  0  0  0  0  0
    2.2582   -2.6534    5.5119 O   0  0  0  0  0  0  0  0  0  0  0  0
    3.1452   -1.2411    0.0705 H   0  0  0  0  0  0  0  0  0  0  0  0
    1.4461    1.9943   -0.2049 H   0  0  0  0  0  0  0  0  0  0  0  0
    0.2123   -3.4234    0.1595 H   0  0  0  0  0  0  0  0  0  0  0  0
    1.5693   -2.9173   -0.8082 H   0  0  0  0  0  0  0  0  0  0  0  0
   -1.5417   -1.9247    0.2057 H   0  0  0  0  0  0  0  0  0  0  0  0
   -0.9848    2.3053   -0.1159 H   0  0  0  0  0  0  0  0  0  0  0  0
   -2.4846    0.3420    0.0960 H   0  0  0  0  0  0  0  0  0  0  0  0
    2.5887    1.3601    2.1184 H   0  0  0  0  0  0  0  0  0  0  0  0
    5.2543   -0.0156   -0.9734 H   0  0  0  0  0  0  0  0  0  0  0  0
    4.3420    2.8632    2.9594 H   0  0  0  0  0  0  0  0  0  0  0  0
    7.0195    1.4793   -0.1027 H   0  0  0  0  0  0  0  0  0  0  0  0
    1.6033   -4.6105    4.0516 H   0  0  0  0  0  0  0  0  0  0  0  0
    3.0606   -4.4415    3.0982 H   0  0  0  0  0  0  0  0  0  0  0  0
    6.5623    2.9411    1.8516 H   0  0  0  0  0  0  0  0  0  0  0  0
    3.6155   -2.0361    2.8056 H   0  0  0  0  0  0  0  0  0  0  0  0
  1  2  2  0  0  0  0
  1  3  1  0  0  0  0
  1  4  1  0  0  0  0
  2  5  1  0  0  0  0
  2  6  1  0  0  0  0
  3  7  1  0  0  0  0
  3 22  1  0  0  0  0
  4  8  2  0  0  0  0
  4 23  1  0  0  0  0
  5  9  1  0  0  0  0
  5 24  1  0  0  0  0
  5 25  1  0  0  0  0
  6 10  2  0  0  0  0
  6 26  1  0  0  0  0
  7 11  2  0  0  0  0
  7 12  1  0  0  0  0
  8 10  1  0  0  0  0
  8 27  1  0  0  0  0
  9 13  1  0  0  0  0
  9 14  2  0  0  0  0
 10 28  1  0  0  0  0
 11 15  1  0  0  0  0
 11 29  1  0  0  0  0
 12 16  2  0  0  0  0
 12 30  1  0  0  0  0
 13 17  1  0  0  0  0
 15 18  2  0  0  0  0
 15 31  1  0  0  0  0
 16 18  1  0  0  0  0
 16 32  1  0  0  0  0
 17 19  1  0  0  0  0
 17 33  1  0  0  0  0
 17 34  1  0  0  0  0
 18 35  1  0  0  0  0
 19 20  1  0  0  0  0
 19 21  2  0  0  0  0
 20 36  1  0  0  0  0
M  END
>  <Mol_ID>
2061

>  <Formula>
C16H13Cl2NO4

>  <MolWeight>
354.18472

>  <Cat>
S4835

>  <Name>
Aceclofenac

>  <Synonyms>
Preservex, Airtal

>  <Target>
Immunology & Inflammation related

>  <Form>
free base

>  <CAS>
89796-99-6

>  <URL>
http://selleckchem.com/products/aceclofenac.html

$$$$
