S4833 Cefoxitin sodium.cdx
 OpenBabel08302520013D

 44 46  0  0  0  0  0  0  0  0999 V2000
   -1.3103    1.6071   -0.6502 C   0  0  1  0  0  0  0  0  0  0  0  0
    0.0462    0.8136   -0.7363 C   0  0  2  0  0  0  0  0  0  0  0  0
   -1.8485    0.2424   -0.0126 C   0  0  0  0  0  0  0  0  0  0  0  0
   -1.3770    2.7797    0.2984 N   0  0  0  0  0  0  0  0  0  0  0  0
   -1.8965    1.8960   -1.9579 O   0  0  0  0  0  0  0  0  0  0  0  0
   -0.6793   -0.3772   -0.3431 N   0  0  0  0  0  0  0  0  0  0  0  0
    1.3476    1.0943    0.5025 S   0  0  0  0  0  0  0  0  0  0  0  0
   -2.8364   -0.0170    0.6339 O   0  0  0  0  0  0  0  0  0  0  0  0
   -0.6022    3.9103    0.1418 C   0  0  0  0  0  0  0  0  0  0  0  0
   -3.1477    2.5573   -1.9878 C   0  0  0  0  0  0  0  0  0  0  0  0
   -0.0896   -1.6042   -0.1007 C   0  0  0  0  0  0  0  0  0  0  0  0
    2.1708   -0.4494    0.0097 C   0  0  0  0  0  0  0  0  0  0  0  0
   -0.8062    4.9793    1.2115 C   0  0  0  0  0  0  0  0  0  0  0  0
    0.2121    4.0364   -0.7701 O   0  0  0  0  0  0  0  0  0  0  0  0
    1.2627   -1.6677    0.1059 C   0  0  0  0  0  0  0  0  0  0  0  0
   -0.9672   -2.9274   -0.2131 C   0  0  0  0  0  0  0  0  0  0  0  0
   -1.1891    6.3065    0.6091 C   0  0  0  0  0  0  0  0  0  0  0  0
    2.0389   -2.9423    0.4062 C   0  0  0  0  0  0  0  0  0  0  0  0
   -2.1915   -2.8016    0.0574 O   0  0  0  0  0  0  0  0  0  0  0  0
   -0.3658   -3.9343   -0.6943 O   0  5  0  0  0  0  0  0  0  0  0  0
   -0.4796    7.0993   -0.2759 C   0  0  0  0  0  0  0  0  0  0  0  0
   -2.6636    7.0623    1.0621 S   0  0  0  0  0  0  0  0  0  0  0  0
    1.5579   -3.6464    1.5682 O   0  0  0  0  0  0  0  0  0  0  0  0
   -1.1571    8.3126   -0.5944 C   0  0  0  0  0  0  0  0  0  0  0  0
   -2.3495    8.4285    0.0825 C   0  0  0  0  0  0  0  0  0  0  0  0
    2.0484   -3.3024    2.7747 C   0  0  0  0  0  0  0  0  0  0  0  0
    1.5898   -4.1487    3.7270 N   0  0  0  0  0  0  0  0  0  0  0  0
    2.8353   -2.3995    3.0193 O   0  0  0  0  0  0  0  0  0  0  0  0
    0.4238    0.7606   -1.7619 H   0  0  0  0  0  0  0  0  0  0  0  0
   -2.1006    2.7550    1.0085 H   0  0  0  0  0  0  0  0  0  0  0  0
   -3.8099    2.2049   -1.1943 H   0  0  0  0  0  0  0  0  0  0  0  0
   -2.9839    3.6349   -1.8927 H   0  0  0  0  0  0  0  0  0  0  0  0
   -3.6177    2.3656   -2.9569 H   0  0  0  0  0  0  0  0  0  0  0  0
    2.5101   -0.3500   -1.0313 H   0  0  0  0  0  0  0  0  0  0  0  0
    3.0669   -0.5481    0.6265 H   0  0  0  0  0  0  0  0  0  0  0  0
   -1.5565    4.6479    1.9386 H   0  0  0  0  0  0  0  0  0  0  0  0
    0.1366    5.0847    1.7624 H   0  0  0  0  0  0  0  0  0  0  0  0
    1.9923   -3.6234   -0.4502 H   0  0  0  0  0  0  0  0  0  0  0  0
    3.1133   -2.7438    0.5223 H   0  0  0  0  0  0  0  0  0  0  0  0
    0.4829    6.8146   -0.6875 H   0  0  0  0  0  0  0  0  0  0  0  0
   -0.7840    9.0650   -1.2792 H   0  0  0  0  0  0  0  0  0  0  0  0
   -3.0547    9.2478    0.0445 H   0  0  0  0  0  0  0  0  0  0  0  0
    1.8802   -4.0230    4.6837 H   0  0  0  0  0  0  0  0  0  0  0  0
    0.9953   -4.9215    3.4627 H   0  0  0  0  0  0  0  0  0  0  0  0
  1  2  1  0  0  0  0
  1  3  1  0  0  0  0
  1  4  1  0  0  0  0
  1  5  1  6  0  0  0
  2  6  1  0  0  0  0
  2  7  1  0  0  0  0
  2 29  1  6  0  0  0
  3  8  2  0  0  0  0
  3  6  1  0  0  0  0
  4  9  1  0  0  0  0
  4 30  1  0  0  0  0
  5 10  1  0  0  0  0
  6 11  1  0  0  0  0
  7 12  1  0  0  0  0
  9 13  1  0  0  0  0
  9 14  2  0  0  0  0
 10 31  1  0  0  0  0
 10 32  1  0  0  0  0
 10 33  1  0  0  0  0
 11 15  2  0  0  0  0
 11 16  1  0  0  0  0
 12 15  1  0  0  0  0
 12 34  1  0  0  0  0
 12 35  1  0  0  0  0
 13 17  1  0  0  0  0
 13 36  1  0  0  0  0
 13 37  1  0  0  0  0
 15 18  1  0  0  0  0
 16 19  2  0  0  0  0
 16 20  1  0  0  0  0
 17 21  2  0  0  0  0
 17 22  1  0  0  0  0
 18 23  1  0  0  0  0
 18 38  1  0  0  0  0
 18 39  1  0  0  0  0
 21 24  1  0  0  0  0
 21 40  1  0  0  0  0
 22 25  1  0  0  0  0
 23 26  1  0  0  0  0
 24 25  2  0  0  0  0
 24 41  1  0  0  0  0
 25 42  1  0  0  0  0
 26 27  1  0  0  0  0
 26 28  2  0  0  0  0
 27 43  1  0  0  0  0
 27 44  1  0  0  0  0
M  CHG  1  20  -1
M  END
>  <Mol_ID>
2952

>  <Formula>
C16H16N3NaO7S2

>  <MolWeight>
449.43391

>  <Cat>
S4833

>  <Name>
Cefoxitin sodium

>  <Synonyms>
N/A

>  <Target>
Antibiotics,Bacterial

>  <Form>
sodium salt

>  <CAS>
33564-30-6

>  <URL>
http://selleckchem.com/products/cefoxitin-sodium.html

$$$$
