S4847 Faropenem Sodium.cdx
 OpenBabel08302519553D

 33 35  0  0  0  0  0  0  0  0999 V2000
    4.1889   -3.5907   -0.7628 N   0  0  0  0  0  0  0  0  0  0  0  0
    4.6566   -3.4639   -2.1508 C   0  0  1  0  0  0  0  0  0  0  0  0
    3.6897   -2.3802   -0.2502 C   0  0  0  0  0  0  0  0  0  0  0  0
    3.3710   -4.6550   -1.0581 C   0  0  0  0  0  0  0  0  0  0  0  0
    3.5927   -4.4840   -2.5602 C   0  0  2  0  0  0  0  0  0  0  0  0
    4.2828   -1.7920   -2.7041 S   0  0  0  0  0  0  0  0  0  0  0  0
    3.6649   -1.3325   -1.1177 C   0  0  0  0  0  0  0  0  0  0  0  0
    3.2104   -2.2746    1.2463 C   0  0  0  0  0  0  0  0  0  0  0  0
    2.6935   -5.4363   -0.4273 O   0  0  0  0  0  0  0  0  0  0  0  0
    4.1149   -5.6853   -3.3244 C   0  0  1  0  0  0  0  0  0  0  0  0
    3.1602    0.0841   -0.9055 C   0  0  1  0  0  0  0  0  0  0  0  0
    2.8841   -3.3655    1.7891 O   0  0  0  0  0  0  0  0  0  0  0  0
    3.2737   -1.1256    1.7690 O   0  5  0  0  0  0  0  0  0  0  0  0
    2.9935   -6.6655   -3.6257 C   0  0  0  0  0  0  0  0  0  0  0  0
    4.6652   -5.2376   -4.5696 O   0  0  0  0  0  0  0  0  0  0  0  0
    3.9608    1.1864   -1.6184 C   0  0  0  0  0  0  0  0  0  0  0  0
    1.8168    0.1830   -1.4415 O   0  0  0  0  0  0  0  0  0  0  0  0
    3.2321    1.3685   -2.9295 C   0  0  0  0  0  0  0  0  0  0  0  0
    1.7993    1.0938   -2.5410 C   0  0  0  0  0  0  0  0  0  0  0  0
    5.7001   -3.7690   -2.2628 H   0  0  0  0  0  0  0  0  0  0  0  0
    2.6968   -4.0594   -3.0383 H   0  0  0  0  0  0  0  0  0  0  0  0
    4.9184   -6.1884   -2.7777 H   0  0  0  0  0  0  0  0  0  0  0  0
    3.1113    0.3593    0.1472 H   0  0  0  0  0  0  0  0  0  0  0  0
    2.1783   -6.1760   -4.1697 H   0  0  0  0  0  0  0  0  0  0  0  0
    3.3564   -7.4769   -4.2653 H   0  0  0  0  0  0  0  0  0  0  0  0
    2.5801   -7.0960   -2.7089 H   0  0  0  0  0  0  0  0  0  0  0  0
    3.9573   -4.7890   -5.0662 H   0  0  0  0  0  0  0  0  0  0  0  0
    3.8802    2.1203   -1.0464 H   0  0  0  0  0  0  0  0  0  0  0  0
    5.0266    0.9681   -1.7273 H   0  0  0  0  0  0  0  0  0  0  0  0
    3.3752    2.3534   -3.3813 H   0  0  0  0  0  0  0  0  0  0  0  0
    3.5577    0.6377   -3.6752 H   0  0  0  0  0  0  0  0  0  0  0  0
    1.2983    2.0136   -2.2214 H   0  0  0  0  0  0  0  0  0  0  0  0
    1.2212    0.6516   -3.3574 H   0  0  0  0  0  0  0  0  0  0  0  0
  1  2  1  0  0  0  0
  1  3  1  0  0  0  0
  1  4  1  0  0  0  0
  2  5  1  0  0  0  0
  2  6  1  0  0  0  0
  2 20  1  6  0  0  0
  3  7  2  0  0  0  0
  3  8  1  0  0  0  0
  4  9  2  0  0  0  0
  5  4  1  0  0  0  0
  5 10  1  0  0  0  0
  5 21  1  6  0  0  0
  6  7  1  0  0  0  0
  8 12  2  0  0  0  0
  8 13  1  0  0  0  0
 10 14  1  0  0  0  0
 10 15  1  0  0  0  0
 10 22  1  1  0  0  0
 11 16  1  0  0  0  0
 11 17  1  0  0  0  0
 11 23  1  1  0  0  0
 11  7  1  0  0  0  0
 14 24  1  0  0  0  0
 14 25  1  0  0  0  0
 14 26  1  0  0  0  0
 15 27  1  0  0  0  0
 16 18  1  0  0  0  0
 16 28  1  0  0  0  0
 16 29  1  0  0  0  0
 17 19  1  0  0  0  0
 18 19  1  0  0  0  0
 18 30  1  0  0  0  0
 18 31  1  0  0  0  0
 19 32  1  0  0  0  0
 19 33  1  0  0  0  0
M  CHG  1  13  -1
M  END
>  <Mol_ID>
2094

>  <Formula>
C12H14NNaO5S

>  <MolWeight>
307.29803

>  <Cat>
S4847

>  <Name>
Faropenem Sodium

>  <Synonyms>
N/A

>  <Target>
Antibiotics

>  <Form>
sodium

>  <CAS>
122547-49-3

>  <URL>
http://selleckchem.com/products/faropenem-sodium.html

$$$$
