S4845 Rabeprazole.cdx
 OpenBabel08302520013D

 46 48  0  0  0  0  0  0  0  0999 V2000
    0.1857    3.1005   -1.4412 C   0  0  0  0  0  0  0  0  0  0  0  0
   -0.7364    4.1140   -1.6879 C   0  0  0  0  0  0  0  0  0  0  0  0
   -0.5764    2.0704   -0.9584 N   0  0  0  0  0  0  0  0  0  0  0  0
    1.5558    3.2377   -1.6698 C   0  0  0  0  0  0  0  0  0  0  0  0
   -2.0160    3.7125   -1.3787 N   0  0  0  0  0  0  0  0  0  0  0  0
   -0.2806    5.3485   -2.1767 C   0  0  0  0  0  0  0  0  0  0  0  0
   -1.8803    2.4734   -0.9478 C   0  0  0  0  0  0  0  0  0  0  0  0
    1.9900    4.4730   -2.1657 C   0  0  0  0  0  0  0  0  0  0  0  0
    1.0911    5.5143   -2.4120 C   0  0  0  0  0  0  0  0  0  0  0  0
   -3.1653    1.5001   -0.3090 S   0  0  3  0  0  0  0  0  0  0  0  0
   -4.2610    1.4488   -1.7487 C   0  0  0  0  0  0  0  0  0  0  0  0
   -2.5791    0.1496   -0.0169 O   0  0  0  0  0  0  0  0  0  0  0  0
   -3.8377    0.5454   -2.8871 C   0  0  0  0  0  0  0  0  0  0  0  0
   -4.1226   -0.8364   -2.9358 C   0  0  0  0  0  0  0  0  0  0  0  0
   -3.2447    1.1921   -3.9248 N   0  0  0  0  0  0  0  0  0  0  0  0
   -3.7106   -1.5564   -4.0773 C   0  0  0  0  0  0  0  0  0  0  0  0
   -4.8919   -1.5042   -1.8286 C   0  0  0  0  0  0  0  0  0  0  0  0
   -2.9436    0.4852   -5.0300 C   0  0  0  0  0  0  0  0  0  0  0  0
   -3.1560   -0.8722   -5.1536 C   0  0  0  0  0  0  0  0  0  0  0  0
   -3.9806   -2.9025   -4.1555 O   0  0  0  0  0  0  0  0  0  0  0  0
   -2.9564   -3.7196   -4.7499 C   0  0  0  0  0  0  0  0  0  0  0  0
   -3.5628   -4.7682   -5.6856 C   0  0  0  0  0  0  0  0  0  0  0  0
   -4.3668   -4.1940   -6.8489 C   0  0  0  0  0  0  0  0  0  0  0  0
   -3.5061   -3.4830   -7.7385 O   0  0  0  0  0  0  0  0  0  0  0  0
   -4.2398   -2.9177   -8.8269 C   0  0  0  0  0  0  0  0  0  0  0  0
   -0.2571    1.1625   -0.6510 H   0  0  0  0  0  0  0  0  0  0  0  0
    2.2554    2.4320   -1.4752 H   0  0  0  0  0  0  0  0  0  0  0  0
   -0.9830    6.1527   -2.3631 H   0  0  0  0  0  0  0  0  0  0  0  0
    3.0497    4.6268   -2.3607 H   0  0  0  0  0  0  0  0  0  0  0  0
    1.4578    6.4653   -2.7906 H   0  0  0  0  0  0  0  0  0  0  0  0
   -5.2511    1.1558   -1.3861 H   0  0  0  0  0  0  0  0  0  0  0  0
   -4.3833    2.4747   -2.1181 H   0  0  0  0  0  0  0  0  0  0  0  0
   -4.3316   -1.4869   -0.8909 H   0  0  0  0  0  0  0  0  0  0  0  0
   -5.8509   -0.9939   -1.6837 H   0  0  0  0  0  0  0  0  0  0  0  0
   -5.1298   -2.5480   -2.0495 H   0  0  0  0  0  0  0  0  0  0  0  0
   -2.5327    1.0611   -5.8528 H   0  0  0  0  0  0  0  0  0  0  0  0
   -2.9219   -1.3599   -6.0916 H   0  0  0  0  0  0  0  0  0  0  0  0
   -2.1700   -3.1614   -5.2680 H   0  0  0  0  0  0  0  0  0  0  0  0
   -2.4571   -4.2490   -3.9285 H   0  0  0  0  0  0  0  0  0  0  0  0
   -2.7463   -5.3834   -6.0840 H   0  0  0  0  0  0  0  0  0  0  0  0
   -4.2231   -5.4243   -5.1072 H   0  0  0  0  0  0  0  0  0  0  0  0
   -4.8147   -5.0295   -7.4017 H   0  0  0  0  0  0  0  0  0  0  0  0
   -5.1717   -3.5429   -6.4925 H   0  0  0  0  0  0  0  0  0  0  0  0
   -5.0063   -3.6017   -9.1976 H   0  0  0  0  0  0  0  0  0  0  0  0
   -4.7013   -1.9755   -8.5117 H   0  0  0  0  0  0  0  0  0  0  0  0
   -3.5396   -2.7081   -9.6415 H   0  0  0  0  0  0  0  0  0  0  0  0
  1  2  2  0  0  0  0
  1  3  1  0  0  0  0
  1  4  1  0  0  0  0
  2  5  1  0  0  0  0
  2  6  1  0  0  0  0
  3  7  1  0  0  0  0
  3 26  1  0  0  0  0
  4  8  2  0  0  0  0
  4 27  1  0  0  0  0
  5  7  2  0  0  0  0
  6  9  2  0  0  0  0
  6 28  1  0  0  0  0
  7 10  1  0  0  0  0
  8  9  1  0  0  0  0
  8 29  1  0  0  0  0
  9 30  1  0  0  0  0
 10 11  1  0  0  0  0
 10 12  2  0  0  0  0
 11 13  1  0  0  0  0
 11 31  1  0  0  0  0
 11 32  1  0  0  0  0
 13 14  2  0  0  0  0
 13 15  1  0  0  0  0
 14 16  1  0  0  0  0
 14 17  1  0  0  0  0
 15 18  2  0  0  0  0
 16 19  2  0  0  0  0
 16 20  1  0  0  0  0
 17 33  1  0  0  0  0
 17 34  1  0  0  0  0
 17 35  1  0  0  0  0
 18 19  1  0  0  0  0
 18 36  1  0  0  0  0
 19 37  1  0  0  0  0
 20 21  1  0  0  0  0
 21 22  1  0  0  0  0
 21 38  1  0  0  0  0
 21 39  1  0  0  0  0
 22 23  1  0  0  0  0
 22 40  1  0  0  0  0
 22 41  1  0  0  0  0
 23 24  1  0  0  0  0
 23 42  1  0  0  0  0
 23 43  1  0  0  0  0
 24 25  1  0  0  0  0
 25 44  1  0  0  0  0
 25 45  1  0  0  0  0
 25 46  1  0  0  0  0
M  END
>  <Mol_ID>
2953

>  <Formula>
C18H21N3O3S

>  <MolWeight>
359.44264

>  <Cat>
S4845

>  <Name>
Rabeprazole

>  <Synonyms>
LY307640

>  <Target>
Proton Pump

>  <Form>
free base

>  <CAS>
117976-89-3

>  <URL>
http://selleckchem.com/products/rabeprazole.html

$$$$
