S4851 Tafluprost.cdx
 OpenBabel08302520013D

 66 67  0  0  0  0  0  0  0  0999 V2000
   -5.7570   -2.8993    1.8864 C   0  0  2  0  0  0  0  0  0  0  0  0
   -4.2984   -2.8023    1.5145 C   0  0  0  0  0  0  0  0  0  0  0  0
   -7.7447   -1.7555    2.6262 C   0  0  0  0  0  0  0  0  0  0  0  0
   -6.6527   -2.6788    0.6278 C   0  0  2  0  0  0  0  0  0  0  0  0
   -6.2860   -1.9384    2.9741 C   0  0  1  0  0  0  0  0  0  0  0  0
   -7.7488   -1.7010    1.1060 C   0  0  1  0  0  0  0  0  0  0  0  0
   -2.1097   -1.5805    1.1836 C   0  0  0  0  0  0  0  0  0  0  0  0
   -3.5309   -1.7114    1.6509 C   0  0  0  0  0  0  0  0  0  0  0  0
   -7.6524   -8.0039    0.3846 C   0  0  0  0  0  0  0  0  0  0  0  0
   -8.0654   -7.9772    1.5380 O   0  0  0  0  0  0  0  0  0  0  0  0
   -6.3474   -8.1069    0.0119 O   0  0  0  0  0  0  0  0  0  0  0  0
   -7.8178   -4.1449   -1.2147 C   0  0  0  0  0  0  0  0  0  0  0  0
   -8.9208   -4.8916   -1.4081 C   0  0  0  0  0  0  0  0  0  0  0  0
   -1.8520   -0.1549    0.6758 C   0  0  0  0  0  0  0  0  0  0  0  0
   -0.5048   -0.0272    0.2228 O   0  0  0  0  0  0  0  0  0  0  0  0
   -1.2660   -1.8672    2.2074 F   0  0  0  0  0  0  0  0  0  0  0  0
   -1.8451   -2.4754    0.1935 F   0  0  0  0  0  0  0  0  0  0  0  0
   -6.1323   -2.4808    4.2761 O   0  0  0  0  0  0  0  0  0  0  0  0
   -9.0602   -1.9425    0.6486 O   0  0  0  0  0  0  0  0  0  0  0  0
   -7.0237   -4.0586    0.0586 C   0  0  0  0  0  0  0  0  0  0  0  0
   -0.1090    1.2232   -0.1571 C   0  0  0  0  0  0  0  0  0  0  0  0
   -5.3514   -8.2019    1.0523 C   0  0  0  0  0  0  0  0  0  0  0  0
   -8.5346   -8.0010   -0.8440 C   0  0  0  0  0  0  0  0  0  0  0  0
   -9.6639   -5.7018   -0.3780 C   0  0  0  0  0  0  0  0  0  0  0  0
   -0.9159    2.3585   -0.2285 C   0  0  0  0  0  0  0  0  0  0  0  0
    1.2419    1.3192   -0.4965 C   0  0  0  0  0  0  0  0  0  0  0  0
   -9.8254   -7.1945   -0.6931 C   0  0  0  0  0  0  0  0  0  0  0  0
   -4.0211   -8.4878    0.3593 C   0  0  0  0  0  0  0  0  0  0  0  0
   -5.2431   -6.8959    1.8317 C   0  0  0  0  0  0  0  0  0  0  0  0
    1.7854    2.5355   -0.9052 C   0  0  0  0  0  0  0  0  0  0  0  0
   -0.3722    3.5797   -0.6356 C   0  0  0  0  0  0  0  0  0  0  0  0
    0.9775    3.6668   -0.9714 C   0  0  0  0  0  0  0  0  0  0  0  0
   -5.8955   -3.9192    2.2743 H   0  0  0  0  0  0  0  0  0  0  0  0
   -3.8579   -3.6984    1.0742 H   0  0  0  0  0  0  0  0  0  0  0  0
   -8.1402   -0.8316    3.0658 H   0  0  0  0  0  0  0  0  0  0  0  0
   -8.3717   -2.5687    3.0074 H   0  0  0  0  0  0  0  0  0  0  0  0
   -6.0861   -2.1533   -0.1553 H   0  0  0  0  0  0  0  0  0  0  0  0
   -5.7889   -0.9661    2.9655 H   0  0  0  0  0  0  0  0  0  0  0  0
   -7.4601   -0.6864    0.7966 H   0  0  0  0  0  0  0  0  0  0  0  0
   -3.9416   -0.8042    2.0797 H   0  0  0  0  0  0  0  0  0  0  0  0
   -7.4059   -3.6082   -2.0707 H   0  0  0  0  0  0  0  0  0  0  0  0
   -9.3607   -4.8939   -2.4064 H   0  0  0  0  0  0  0  0  0  0  0  0
   -2.5356    0.0619   -0.1556 H   0  0  0  0  0  0  0  0  0  0  0  0
   -2.0253    0.5455    1.5038 H   0  0  0  0  0  0  0  0  0  0  0  0
   -6.6024   -3.3348    4.3158 H   0  0  0  0  0  0  0  0  0  0  0  0
   -9.0228   -2.3043   -0.2509 H   0  0  0  0  0  0  0  0  0  0  0  0
   -6.0789   -4.5643   -0.1828 H   0  0  0  0  0  0  0  0  0  0  0  0
   -7.4835   -4.6489    0.8548 H   0  0  0  0  0  0  0  0  0  0  0  0
   -5.5934   -9.0373    1.7201 H   0  0  0  0  0  0  0  0  0  0  0  0
   -8.7928   -9.0495   -1.0437 H   0  0  0  0  0  0  0  0  0  0  0  0
   -7.9654   -7.6336   -1.7033 H   0  0  0  0  0  0  0  0  0  0  0  0
   -9.2351   -5.5952    0.6204 H   0  0  0  0  0  0  0  0  0  0  0  0
  -10.6702   -5.2680   -0.3042 H   0  0  0  0  0  0  0  0  0  0  0  0
   -1.9718    2.3357    0.0190 H   0  0  0  0  0  0  0  0  0  0  0  0
    1.8725    0.4323   -0.4424 H   0  0  0  0  0  0  0  0  0  0  0  0
  -10.4312   -7.6397    0.1069 H   0  0  0  0  0  0  0  0  0  0  0  0
  -10.4089   -7.3048   -1.6158 H   0  0  0  0  0  0  0  0  0  0  0  0
   -3.7891   -7.7082   -0.3759 H   0  0  0  0  0  0  0  0  0  0  0  0
   -3.1977   -8.5421    1.0789 H   0  0  0  0  0  0  0  0  0  0  0  0
   -4.0651   -9.4342   -0.1900 H   0  0  0  0  0  0  0  0  0  0  0  0
   -5.1868   -6.0502    1.1453 H   0  0  0  0  0  0  0  0  0  0  0  0
   -6.1180   -6.7368    2.4680 H   0  0  0  0  0  0  0  0  0  0  0  0
   -4.3575   -6.8812    2.4748 H   0  0  0  0  0  0  0  0  0  0  0  0
    2.8379    2.5949   -1.1667 H   0  0  0  0  0  0  0  0  0  0  0  0
   -1.0037    4.4622   -0.6933 H   0  0  0  0  0  0  0  0  0  0  0  0
    1.3991    4.6163   -1.2907 H   0  0  0  0  0  0  0  0  0  0  0  0
  1 33  1  1  0  0  0
  1  2  1  0  0  0  0
  2 34  1  0  0  0  0
  3  5  1  0  0  0  0
  3  6  1  0  0  0  0
  3 35  1  0  0  0  0
  3 36  1  0  0  0  0
  4  1  1  0  0  0  0
  4 37  1  6  0  0  0
  4 20  1  0  0  0  0
  5  1  1  0  0  0  0
  5 18  1  0  0  0  0
  5 38  1  6  0  0  0
  6  4  1  0  0  0  0
  6 39  1  6  0  0  0
  6 19  1  0  0  0  0
  7  8  1  0  0  0  0
  8  2  2  0  0  0  0
  8 40  1  0  0  0  0
  9 23  1  0  0  0  0
 10  9  2  0  0  0  0
 11  9  1  0  0  0  0
 12 20  1  0  0  0  0
 12 41  1  0  0  0  0
 13 12  2  0  0  0  0
 13 42  1  0  0  0  0
 14  7  1  0  0  0  0
 14 43  1  0  0  0  0
 14 44  1  0  0  0  0
 15 14  1  0  0  0  0
 16  7  1  0  0  0  0
 17  7  1  0  0  0  0
 18 45  1  0  0  0  0
 19 46  1  0  0  0  0
 20 47  1  0  0  0  0
 20 48  1  0  0  0  0
 21 15  1  0  0  0  0
 22 11  1  0  0  0  0
 22 49  1  0  0  0  0
 23 27  1  0  0  0  0
 23 50  1  0  0  0  0
 23 51  1  0  0  0  0
 24 13  1  0  0  0  0
 24 52  1  0  0  0  0
 24 53  1  0  0  0  0
 25 21  2  0  0  0  0
 25 54  1  0  0  0  0
 26 21  1  0  0  0  0
 26 55  1  0  0  0  0
 27 24  1  0  0  0  0
 27 56  1  0  0  0  0
 27 57  1  0  0  0  0
 28 22  1  0  0  0  0
 28 58  1  0  0  0  0
 28 59  1  0  0  0  0
 28 60  1  0  0  0  0
 29 22  1  0  0  0  0
 29 61  1  0  0  0  0
 29 62  1  0  0  0  0
 29 63  1  0  0  0  0
 30 26  2  0  0  0  0
 30 64  1  0  0  0  0
 31 25  1  0  0  0  0
 31 32  2  0  0  0  0
 31 65  1  0  0  0  0
 32 30  1  0  0  0  0
 32 66  1  0  0  0  0
M  END
>  <Mol_ID>
2836

>  <Formula>
C25H34F2O5

>  <MolWeight>
452.5312664

>  <Cat>
S4851

>  <Name>
Tafluprost

>  <Synonyms>
AFP-168,MK2452

>  <Target>
Prostaglandin Receptor

>  <Form>
Prostaglandin analogue

>  <CAS>
209860-87-7

>  <URL>
http://selleckchem.com/products/tafluprost.html

$$$$
