S4850 Flucloxacillin sodium.cdx
 OpenBabel08302520013D

 46 49  0  0  0  0  0  0  0  0999 V2000
   -0.6853    0.2470    0.7029 N   0  0  0  0  0  0  0  0  0  0  0  0
   -0.4954   -1.2082    0.7060 C   0  0  1  0  0  0  0  0  0  0  0  0
    0.4665    1.1035    0.3601 C   0  0  2  0  0  0  0  0  0  0  0  0
   -1.7812    0.1995   -0.1094 C   0  0  0  0  0  0  0  0  0  0  0  0
   -1.8754   -1.3300    0.0314 C   0  0  1  0  0  0  0  0  0  0  0  0
    1.0015   -1.4622   -0.3220 S   0  0  0  0  0  0  0  0  0  0  0  0
    1.7008    0.1832    0.2367 C   0  0  0  0  0  0  0  0  0  0  0  0
    0.6976    2.3226    1.2930 C   0  0  0  0  0  0  0  0  0  0  0  0
   -2.3176    1.0039   -0.8392 O   0  0  0  0  0  0  0  0  0  0  0  0
   -1.9673   -2.0788   -1.2527 N   0  0  0  0  0  0  0  0  0  0  0  0
    2.6905    0.6503   -0.8345 C   0  0  0  0  0  0  0  0  0  0  0  0
    2.4317   -0.0747    1.5629 C   0  0  0  0  0  0  0  0  0  0  0  0
    1.6821    3.0537    0.9778 O   0  0  0  0  0  0  0  0  0  0  0  0
   -0.1035    2.4499    2.2625 O   0  5  0  0  0  0  0  0  0  0  0  0
   -2.0397   -3.4508   -1.2663 C   0  0  0  0  0  0  0  0  0  0  0  0
   -2.2730   -4.0524   -2.5587 C   0  0  0  0  0  0  0  0  0  0  0  0
   -1.9924   -4.1097   -0.2337 O   0  0  0  0  0  0  0  0  0  0  0  0
   -3.1269   -5.1648   -2.8674 C   0  0  0  0  0  0  0  0  0  0  0  0
   -1.7016   -3.7174   -3.7704 C   0  0  0  0  0  0  0  0  0  0  0  0
   -4.0322   -5.9126   -1.9902 C   0  0  0  0  0  0  0  0  0  0  0  0
   -3.0649   -5.4420   -4.1804 N   0  0  0  0  0  0  0  0  0  0  0  0
   -2.1758   -4.5513   -4.7305 O   0  0  0  0  0  0  0  0  0  0  0  0
   -0.7105   -2.7299   -4.2419 C   0  0  0  0  0  0  0  0  0  0  0  0
   -4.2217   -7.2915   -2.1462 C   0  0  0  0  0  0  0  0  0  0  0  0
   -4.7612   -5.2600   -0.9818 C   0  0  0  0  0  0  0  0  0  0  0  0
   -5.1016   -8.0010   -1.3261 C   0  0  0  0  0  0  0  0  0  0  0  0
   -3.5508   -7.9832   -3.0804 F   0  0  0  0  0  0  0  0  0  0  0  0
   -5.6312   -5.9704   -0.1472 C   0  0  0  0  0  0  0  0  0  0  0  0
   -5.8052   -7.3407   -0.3219 C   0  0  0  0  0  0  0  0  0  0  0  0
   -0.4343   -1.6265    1.7152 H   0  0  0  0  0  0  0  0  0  0  0  0
    0.2465    1.5379   -0.6261 H   0  0  0  0  0  0  0  0  0  0  0  0
   -2.6836   -1.6214    0.7149 H   0  0  0  0  0  0  0  0  0  0  0  0
   -2.0590   -1.5511   -2.1128 H   0  0  0  0  0  0  0  0  0  0  0  0
    3.1482    1.6069   -0.5624 H   0  0  0  0  0  0  0  0  0  0  0  0
    3.5097   -0.0664   -0.9668 H   0  0  0  0  0  0  0  0  0  0  0  0
    2.2033    0.7872   -1.8068 H   0  0  0  0  0  0  0  0  0  0  0  0
    3.1740   -0.8766    1.4631 H   0  0  0  0  0  0  0  0  0  0  0  0
    2.9770    0.8148    1.8956 H   0  0  0  0  0  0  0  0  0  0  0  0
    1.7431   -0.3562    2.3674 H   0  0  0  0  0  0  0  0  0  0  0  0
    0.1433   -3.2388   -4.7001 H   0  0  0  0  0  0  0  0  0  0  0  0
   -1.1610   -2.0747   -4.9944 H   0  0  0  0  0  0  0  0  0  0  0  0
   -0.3279   -2.1040   -3.4332 H   0  0  0  0  0  0  0  0  0  0  0  0
   -4.6633   -4.1888   -0.8235 H   0  0  0  0  0  0  0  0  0  0  0  0
   -5.2247   -9.0688   -1.4773 H   0  0  0  0  0  0  0  0  0  0  0  0
   -6.1688   -5.4475    0.6407 H   0  0  0  0  0  0  0  0  0  0  0  0
   -6.4835   -7.8912    0.3244 H   0  0  0  0  0  0  0  0  0  0  0  0
  1  2  1  0  0  0  0
  1  3  1  0  0  0  0
  1  4  1  0  0  0  0
  2  5  1  0  0  0  0
  2  6  1  0  0  0  0
  2 30  1  1  0  0  0
  3  7  1  0  0  0  0
  3 31  1  6  0  0  0
  3  8  1  0  0  0  0
  4  9  2  0  0  0  0
  4  5  1  0  0  0  0
  5 32  1  1  0  0  0
  5 10  1  0  0  0  0
  6  7  1  0  0  0  0
  7 11  1  0  0  0  0
  7 12  1  0  0  0  0
  8 13  2  0  0  0  0
  8 14  1  0  0  0  0
 10 15  1  0  0  0  0
 10 33  1  0  0  0  0
 11 34  1  0  0  0  0
 11 35  1  0  0  0  0
 11 36  1  0  0  0  0
 12 37  1  0  0  0  0
 12 38  1  0  0  0  0
 12 39  1  0  0  0  0
 15 16  1  0  0  0  0
 15 17  2  0  0  0  0
 16 18  1  0  0  0  0
 16 19  2  0  0  0  0
 18 20  1  0  0  0  0
 18 21  2  0  0  0  0
 19 22  1  0  0  0  0
 19 23  1  0  0  0  0
 20 24  2  0  0  0  0
 20 25  1  0  0  0  0
 21 22  1  0  0  0  0
 23 40  1  0  0  0  0
 23 41  1  0  0  0  0
 23 42  1  0  0  0  0
 24 26  1  0  0  0  0
 24 27  1  0  0  0  0
 25 28  2  0  0  0  0
 25 43  1  0  0  0  0
 26 29  2  0  0  0  0
 26 44  1  0  0  0  0
 28 29  1  0  0  0  0
 28 45  1  0  0  0  0
 29 46  1  0  0  0  0
M  CHG  1  14  -1
M  END
>  <Mol_ID>
2955

>  <Formula>
C19H16ClFN3NaO5S

>  <MolWeight>
475.8536132

>  <Cat>
S4850

>  <Name>
Flucloxacillin sodium

>  <Synonyms>
Floxacillin sodium

>  <Target>
Antibiotics,Bacterial

>  <Form>
sodium salt

>  <CAS>
1847-24-1

>  <URL>
http://selleckchem.com/products/flucloxacillin-sodium.html

$$$$
