S4859 TriacetonaMine.cdx
 OpenBabel08302519533D

 28 28  0  0  0  0  0  0  0  0999 V2000
    0.6707    1.1821   -0.0119 N   0  0  0  0  0  0  0  0  0  0  0  0
    1.4341   -0.0465    0.2971 C   0  0  0  0  0  0  0  0  0  0  0  0
   -0.7741    1.1943    0.3058 C   0  0  0  0  0  0  0  0  0  0  0  0
    0.7313   -1.3115   -0.2130 C   0  0  0  0  0  0  0  0  0  0  0  0
    2.7935    0.0731   -0.4305 C   0  0  0  0  0  0  0  0  0  0  0  0
    1.7563   -0.1620    1.7990 C   0  0  0  0  0  0  0  0  0  0  0  0
   -1.4875   -0.0511   -0.2351 C   0  0  0  0  0  0  0  0  0  0  0  0
   -1.0367    1.3663    1.8133 C   0  0  0  0  0  0  0  0  0  0  0  0
   -1.3776    2.4374   -0.3877 C   0  0  0  0  0  0  0  0  0  0  0  0
   -0.7293   -1.2918    0.1516 C   0  0  0  0  0  0  0  0  0  0  0  0
   -1.2943   -2.2782    0.6192 O   0  0  0  0  0  0  0  0  0  0  0  0
    0.7911    1.4038   -1.0032 H   0  0  0  0  0  0  0  0  0  0  0  0
    0.7855   -1.3878   -1.3061 H   0  0  0  0  0  0  0  0  0  0  0  0
    1.1911   -2.2133    0.2068 H   0  0  0  0  0  0  0  0  0  0  0  0
    3.3453    0.9630   -0.1049 H   0  0  0  0  0  0  0  0  0  0  0  0
    3.4264   -0.7993   -0.2241 H   0  0  0  0  0  0  0  0  0  0  0  0
    2.6702    0.1338   -1.5179 H   0  0  0  0  0  0  0  0  0  0  0  0
    0.9050   -0.4982    2.3925 H   0  0  0  0  0  0  0  0  0  0  0  0
    2.5514   -0.8968    1.9739 H   0  0  0  0  0  0  0  0  0  0  0  0
    2.1061    0.7941    2.2056 H   0  0  0  0  0  0  0  0  0  0  0  0
   -1.5450   -0.0362   -1.3301 H   0  0  0  0  0  0  0  0  0  0  0  0
   -2.5117   -0.1176    0.1497 H   0  0  0  0  0  0  0  0  0  0  0  0
   -0.3954    2.1445    2.2432 H   0  0  0  0  0  0  0  0  0  0  0  0
   -2.0755    1.6646    1.9988 H   0  0  0  0  0  0  0  0  0  0  0  0
   -0.8873    0.4446    2.3784 H   0  0  0  0  0  0  0  0  0  0  0  0
   -1.2618    2.3942   -1.4766 H   0  0  0  0  0  0  0  0  0  0  0  0
   -2.4518    2.5191   -0.1784 H   0  0  0  0  0  0  0  0  0  0  0  0
   -0.9038    3.3615   -0.0355 H   0  0  0  0  0  0  0  0  0  0  0  0
  1  2  1  0  0  0  0
  1  3  1  0  0  0  0
  1 12  1  0  0  0  0
  2  4  1  0  0  0  0
  2  5  1  0  0  0  0
  2  6  1  0  0  0  0
  3  7  1  0  0  0  0
  3  8  1  0  0  0  0
  3  9  1  0  0  0  0
  4 10  1  0  0  0  0
  4 13  1  0  0  0  0
  4 14  1  0  0  0  0
  5 15  1  0  0  0  0
  5 16  1  0  0  0  0
  5 17  1  0  0  0  0
  6 18  1  0  0  0  0
  6 19  1  0  0  0  0
  6 20  1  0  0  0  0
  7 10  1  0  0  0  0
  7 21  1  0  0  0  0
  7 22  1  0  0  0  0
  8 23  1  0  0  0  0
  8 24  1  0  0  0  0
  8 25  1  0  0  0  0
  9 26  1  0  0  0  0
  9 27  1  0  0  0  0
  9 28  1  0  0  0  0
 10 11  2  0  0  0  0
M  END
>  <Mol_ID>
2041

>  <Formula>
C9H17NO

>  <MolWeight>
155.23738

>  <Cat>
S4859

>  <Name>
TriacetonaMine

>  <Synonyms>
2,2,6,6-Tetramethyl-4-piperidinone; Tempidon; Tmpone; Odoratine; Vincubine

>  <Target>
ADC Cytotoxin

>  <Form>
free base

>  <CAS>
826-36-8

>  <URL>
http://selleckchem.com/products/triacetonamine.html

$$$$
