S4869 Sulfamethoxazole sodium.cdx
 OpenBabel08302519533D

 28 29  0  0  0  0  0  0  0  0999 V2000
    0.1655    1.1642    0.3335 C   0  0  0  0  0  0  0  0  0  0  0  0
    0.9015    0.0229   -0.0037 C   0  0  0  0  0  0  0  0  0  0  0  0
    0.2146   -1.1222   -0.4167 C   0  0  0  0  0  0  0  0  0  0  0  0
   -1.1820   -1.1672   -0.3971 C   0  0  0  0  0  0  0  0  0  0  0  0
   -1.9019   -0.0450    0.0193 C   0  0  0  0  0  0  0  0  0  0  0  0
   -1.2311    1.1322    0.3636 C   0  0  0  0  0  0  0  0  0  0  0  0
   -3.6842   -0.0778   -0.0129 S   0  0  0  0  0  0  0  0  0  0  0  0
   -4.1068   -1.1056   -0.9392 O   0  0  0  0  0  0  0  0  0  0  0  0
   -4.0976   -0.5436    1.5578 N   0  0  0  0  0  0  0  0  0  0  0  0
   -4.1339    1.2926   -0.1566 O   0  0  0  0  0  0  0  0  0  0  0  0
    2.2898    0.1017   -0.1588 N   0  0  0  0  0  0  0  0  0  0  0  0
   -3.6323   -1.7619    2.0356 C   0  0  0  0  0  0  0  0  0  0  0  0
   -2.5901   -1.8175    2.8648 N   0  0  0  0  0  0  0  0  0  0  0  0
   -2.4777   -3.1476    3.2300 O   0  0  0  0  0  0  0  0  0  0  0  0
   -3.4945   -3.8568    2.6686 C   0  0  0  0  0  0  0  0  0  0  0  0
   -4.2387   -3.0218    1.8692 C   0  0  0  0  0  0  0  0  0  0  0  0
   -3.5956   -5.2714    3.0708 C   0  0  0  0  0  0  0  0  0  0  0  0
    0.6788    2.0923    0.5706 H   0  0  0  0  0  0  0  0  0  0  0  0
    0.7653   -1.9930   -0.7637 H   0  0  0  0  0  0  0  0  0  0  0  0
   -1.6935   -2.0709   -0.7162 H   0  0  0  0  0  0  0  0  0  0  0  0
   -1.7809    2.0335    0.6313 H   0  0  0  0  0  0  0  0  0  0  0  0
   -3.8859    0.2292    2.1807 H   0  0  0  0  0  0  0  0  0  0  0  0
    2.7627   -0.7947   -0.0976 H   0  0  0  0  0  0  0  0  0  0  0  0
    2.7305    0.8086    0.4210 H   0  0  0  0  0  0  0  0  0  0  0  0
   -5.1313   -3.2686    1.3139 H   0  0  0  0  0  0  0  0  0  0  0  0
   -2.6627   -5.8044    2.8648 H   0  0  0  0  0  0  0  0  0  0  0  0
   -3.7993   -5.3418    4.1449 H   0  0  0  0  0  0  0  0  0  0  0  0
   -4.4070   -5.7785    2.5405 H   0  0  0  0  0  0  0  0  0  0  0  0
  1  2  2  0  0  0  0
  1 18  1  0  0  0  0
  2  3  1  0  0  0  0
  2 11  1  0  0  0  0
  3  4  2  0  0  0  0
  3 19  1  0  0  0  0
  4  5  1  0  0  0  0
  4 20  1  0  0  0  0
  5  6  2  0  0  0  0
  5  7  1  0  0  0  0
  6  1  1  0  0  0  0
  6 21  1  0  0  0  0
  7  8  2  0  0  0  0
  7  9  1  0  0  0  0
  7 10  2  0  0  0  0
  9 12  1  0  0  0  0
  9 22  1  0  0  0  0
 11 23  1  0  0  0  0
 11 24  1  0  0  0  0
 12 13  2  0  0  0  0
 13 14  1  0  0  0  0
 14 15  1  0  0  0  0
 15 16  2  0  0  0  0
 15 17  1  0  0  0  0
 16 12  1  0  0  0  0
 16 25  1  0  0  0  0
 17 26  1  0  0  0  0
 17 27  1  0  0  0  0
 17 28  1  0  0  0  0
M  END
>  <Mol_ID>
2044

>  <Formula>
C10H10N3NaO3S

>  <MolWeight>
275.25947

>  <Cat>
S4869

>  <Name>
Sulfamethoxazole sodium

>  <Synonyms>
N/A

>  <Target>
Antibiotics,Bacterial

>  <Form>
sodium

>  <CAS>
4563-84-2

>  <URL>
http://selleckchem.com/products/sulfamethoxazole-sodium.html

$$$$
