S4860 Indole-3-carboxylic acid.cdx
 OpenBabel08302519533D

 19 20  0  0  0  0  0  0  0  0999 V2000
   -0.2380   -0.7912   -0.0086 C   0  0  0  0  0  0  0  0  0  0  0  0
   -0.2603    0.6041   -0.0152 C   0  0  0  0  0  0  0  0  0  0  0  0
   -1.6004   -1.2560   -0.0167 C   0  0  0  0  0  0  0  0  0  0  0  0
    1.0186   -1.4351   -0.0001 C   0  0  0  0  0  0  0  0  0  0  0  0
   -1.5790    0.9863   -0.0211 N   0  0  0  0  0  0  0  0  0  0  0  0
    0.9031    1.3837   -0.0176 C   0  0  0  0  0  0  0  0  0  0  0  0
   -2.3953   -0.1177   -0.0302 C   0  0  0  0  0  0  0  0  0  0  0  0
   -2.0300   -2.6562   -0.0160 C   0  0  0  0  0  0  0  0  0  0  0  0
    2.1916   -0.6728   -0.0101 C   0  0  0  0  0  0  0  0  0  0  0  0
    2.1317    0.7174   -0.0198 C   0  0  0  0  0  0  0  0  0  0  0  0
   -3.3742   -2.8561   -0.0278 O   0  0  0  0  0  0  0  0  0  0  0  0
   -1.2585   -3.6050   -0.0061 O   0  0  0  0  0  0  0  0  0  0  0  0
    1.0804   -2.5210    0.0085 H   0  0  0  0  0  0  0  0  0  0  0  0
   -1.8931    1.9474   -0.0243 H   0  0  0  0  0  0  0  0  0  0  0  0
    0.8623    2.4682   -0.0224 H   0  0  0  0  0  0  0  0  0  0  0  0
   -3.4661    0.0283   -0.0444 H   0  0  0  0  0  0  0  0  0  0  0  0
    3.1554   -1.1759   -0.0121 H   0  0  0  0  0  0  0  0  0  0  0  0
    3.0544    1.2931   -0.0301 H   0  0  0  0  0  0  0  0  0  0  0  0
   -3.8764   -2.0257   -0.0438 H   0  0  0  0  0  0  0  0  0  0  0  0
  1  2  2  0  0  0  0
  1  3  1  0  0  0  0
  1  4  1  0  0  0  0
  2  5  1  0  0  0  0
  2  6  1  0  0  0  0
  3  7  2  0  0  0  0
  3  8  1  0  0  0  0
  4  9  2  0  0  0  0
  4 13  1  0  0  0  0
  5  7  1  0  0  0  0
  5 14  1  0  0  0  0
  6 10  2  0  0  0  0
  6 15  1  0  0  0  0
  7 16  1  0  0  0  0
  8 11  1  0  0  0  0
  8 12  2  0  0  0  0
  9 10  1  0  0  0  0
  9 17  1  0  0  0  0
 10 18  1  0  0  0  0
 11 19  1  0  0  0  0
M  END
>  <Mol_ID>
2063

>  <Formula>
C9H7NO2

>  <MolWeight>
161.15738

>  <Cat>
S4860

>  <Name>
Indole-3-carboxylic acid

>  <Synonyms>
3-Indoleformic acid, 3-Carboxyindole, ¦Â-Indolylcarboxylic acid, 3-indolecarboxylate, 3-indoleformate

>  <Target>
Others

>  <Form>
Aromatic carboxylic acids

>  <CAS>
771-50-6

>  <URL>
http://selleckchem.com/products/indole-carboxylic-acid.html

$$$$
