S4867 Propacetamol hydrochloride.cdx
 OpenBabel08302519533D

 39 39  0  0  0  0  0  0  0  0999 V2000
    1.0023   -0.1600    0.0019 C   0  0  0  0  0  0  0  0  0  0  0  0
    0.2777   -0.2183    1.3456 C   0  0  0  0  0  0  0  0  0  0  0  0
    0.4177   -0.1069   -1.0740 O   0  0  0  0  0  0  0  0  0  0  0  0
    2.3883   -0.2543    0.1914 O   0  0  0  0  0  0  0  0  0  0  0  0
    0.6460    0.8837    2.2614 N   0  0  0  0  0  0  0  0  0  0  0  0
    0.3663    2.2219    1.7051 C   0  0  0  0  0  0  0  0  0  0  0  0
   -1.0882    2.5484    1.3704 C   0  0  0  0  0  0  0  0  0  0  0  0
    0.0537    0.7246    3.5995 C   0  0  0  0  0  0  0  0  0  0  0  0
    0.5364   -0.5257    4.3318 C   0  0  0  0  0  0  0  0  0  0  0  0
    3.2862   -0.2817   -0.8985 C   0  0  0  0  0  0  0  0  0  0  0  0
    3.0821    0.4266   -2.0778 C   0  0  0  0  0  0  0  0  0  0  0  0
    4.0286    0.3529   -3.1072 C   0  0  0  0  0  0  0  0  0  0  0  0
    5.1923   -0.4058   -2.9620 C   0  0  0  0  0  0  0  0  0  0  0  0
    5.3961   -1.0981   -1.7603 C   0  0  0  0  0  0  0  0  0  0  0  0
    4.4533   -1.0245   -0.7243 C   0  0  0  0  0  0  0  0  0  0  0  0
    6.2539    0.2111   -5.1396 C   0  0  0  0  0  0  0  0  0  0  0  0
    7.3486   -0.2418   -6.0734 C   0  0  0  0  0  0  0  0  0  0  0  0
    5.5505    1.1665   -5.4482 O   0  0  0  0  0  0  0  0  0  0  0  0
    6.1703   -0.5324   -3.9752 N   0  0  0  0  0  0  0  0  0  0  0  0
   -0.8017   -0.2364    1.1558 H   0  0  0  0  0  0  0  0  0  0  0  0
    0.5345   -1.1940    1.7726 H   0  0  0  0  0  0  0  0  0  0  0  0
    0.7330    2.9792    2.4106 H   0  0  0  0  0  0  0  0  0  0  0  0
    0.9738    2.3688    0.8046 H   0  0  0  0  0  0  0  0  0  0  0  0
   -1.7058    2.6113    2.2715 H   0  0  0  0  0  0  0  0  0  0  0  0
   -1.1388    3.5214    0.8690 H   0  0  0  0  0  0  0  0  0  0  0  0
   -1.5342    1.8155    0.6926 H   0  0  0  0  0  0  0  0  0  0  0  0
    0.3453    1.5831    4.2176 H   0  0  0  0  0  0  0  0  0  0  0  0
   -1.0422    0.7157    3.5586 H   0  0  0  0  0  0  0  0  0  0  0  0
    1.6132   -0.6774    4.2029 H   0  0  0  0  0  0  0  0  0  0  0  0
    0.3404   -0.4314    5.4053 H   0  0  0  0  0  0  0  0  0  0  0  0
    0.0137   -1.4213    3.9807 H   0  0  0  0  0  0  0  0  0  0  0  0
    2.1970    1.0373   -2.2291 H   0  0  0  0  0  0  0  0  0  0  0  0
    3.8118    0.8917   -4.0250 H   0  0  0  0  0  0  0  0  0  0  0  0
    6.2963   -1.6874   -1.6028 H   0  0  0  0  0  0  0  0  0  0  0  0
    4.6332   -1.5489    0.2101 H   0  0  0  0  0  0  0  0  0  0  0  0
    6.8958   -0.5429   -7.0230 H   0  0  0  0  0  0  0  0  0  0  0  0
    8.0372    0.5905   -6.2461 H   0  0  0  0  0  0  0  0  0  0  0  0
    7.9150   -1.0864   -5.6743 H   0  0  0  0  0  0  0  0  0  0  0  0
    6.9111   -1.1983   -3.7984 H   0  0  0  0  0  0  0  0  0  0  0  0
  1  2  1  0  0  0  0
  1  3  2  0  0  0  0
  1  4  1  0  0  0  0
  2  5  1  0  0  0  0
  2 20  1  0  0  0  0
  2 21  1  0  0  0  0
  4 10  1  0  0  0  0
  5  6  1  0  0  0  0
  5  8  1  0  0  0  0
  6  7  1  0  0  0  0
  6 22  1  0  0  0  0
  6 23  1  0  0  0  0
  7 24  1  0  0  0  0
  7 25  1  0  0  0  0
  7 26  1  0  0  0  0
  8  9  1  0  0  0  0
  8 27  1  0  0  0  0
  8 28  1  0  0  0  0
  9 29  1  0  0  0  0
  9 30  1  0  0  0  0
  9 31  1  0  0  0  0
 10 11  2  0  0  0  0
 10 15  1  0  0  0  0
 11 12  1  0  0  0  0
 11 32  1  0  0  0  0
 12 13  2  0  0  0  0
 12 33  1  0  0  0  0
 13 14  1  0  0  0  0
 13 19  1  0  0  0  0
 14 15  2  0  0  0  0
 14 34  1  0  0  0  0
 15 35  1  0  0  0  0
 16 17  1  0  0  0  0
 16 18  2  0  0  0  0
 16 19  1  0  0  0  0
 17 36  1  0  0  0  0
 17 37  1  0  0  0  0
 17 38  1  0  0  0  0
 19 39  1  0  0  0  0
M  END
>  <Mol_ID>
2016

>  <Formula>
C14H21ClN2O3

>  <MolWeight>
300.78114

>  <Cat>
S4867

>  <Name>
Propacetamol hydrochloride

>  <Synonyms>
N/A

>  <Target>
Others

>  <Form>
hydrochloride

>  <CAS>
66532-86-3

>  <URL>
http://selleckchem.com/products/propacetamol-hydrochloride.html

$$$$
