S4866 Nicarbazin.cdx
 OpenBabel08302519553D

 49 50  0  0  0  0  0  0  0  0999 V2000
    3.9915   -1.6152    0.4443 C   0  0  0  0  0  0  0  0  0  0  0  0
    3.5338   -0.2718    0.5678 N   0  0  0  0  0  0  0  0  0  0  0  0
    5.3100   -1.9700    0.1158 C   0  0  0  0  0  0  0  0  0  0  0  0
    3.0627   -2.6505    0.6568 C   0  0  0  0  0  0  0  0  0  0  0  0
    4.2789    0.8854    0.3602 C   0  0  0  0  0  0  0  0  0  0  0  0
    5.6847   -3.3110   -0.0632 C   0  0  0  0  0  0  0  0  0  0  0  0
    3.4457   -3.9983    0.5748 C   0  0  0  0  0  0  0  0  0  0  0  0
    3.5071    2.0432    0.4643 N   0  0  0  0  0  0  0  0  0  0  0  0
    5.4786    0.8866    0.1127 O   0  0  0  0  0  0  0  0  0  0  0  0
    4.7424   -4.3076    0.1695 C   0  0  0  0  0  0  0  0  0  0  0  0
    3.9433    3.3826    0.2422 C   0  0  0  0  0  0  0  0  0  0  0  0
    5.0984   -5.6954   -0.0500 N   0  3  0  0  0  0  0  0  0  0  0  0
    5.2392    3.7259   -0.1634 C   0  0  0  0  0  0  0  0  0  0  0  0
    3.0177    4.4252    0.4260 C   0  0  0  0  0  0  0  0  0  0  0  0
    5.8512   -6.2186    0.7894 O   0  0  0  0  0  0  0  0  0  0  0  0
    4.6150   -6.2647   -1.0458 O   0  5  0  0  0  0  0  0  0  0  0  0
    5.6113    5.0612   -0.3780 C   0  0  0  0  0  0  0  0  0  0  0  0
    3.3700    5.7702    0.2199 C   0  0  0  0  0  0  0  0  0  0  0  0
    4.6766    6.0800   -0.1811 C   0  0  0  0  0  0  0  0  0  0  0  0
    5.0746    7.4792   -0.4062 N   0  3  0  0  0  0  0  0  0  0  0  0
    6.2836    7.7255   -0.5310 O   0  0  0  0  0  0  0  0  0  0  0  0
    4.1756    8.3315   -0.4512 O   0  5  0  0  0  0  0  0  0  0  0  0
   -1.4053    0.5711   -0.3664 C   0  0  0  0  0  0  0  0  0  0  0  0
   -1.8571   -0.6598    0.0688 C   0  0  0  0  0  0  0  0  0  0  0  0
   -0.2662    0.7134   -1.0671 N   0  0  0  0  0  0  0  0  0  0  0  0
   -2.1632    1.8242   -0.0507 C   0  0  0  0  0  0  0  0  0  0  0  0
   -1.1284   -1.7670   -0.3303 C   0  0  0  0  0  0  0  0  0  0  0  0
    0.3747   -0.4159   -1.3632 C   0  0  0  0  0  0  0  0  0  0  0  0
    0.0319   -1.6593   -1.0151 N   0  0  0  0  0  0  0  0  0  0  0  0
   -1.6257   -3.1455   -0.0026 C   0  0  0  0  0  0  0  0  0  0  0  0
    1.5901   -0.2819   -1.9534 O   0  0  0  0  0  0  0  0  0  0  0  0
    2.5645   -0.1496    0.8230 H   0  0  0  0  0  0  0  0  0  0  0  0
    6.0858   -1.2207   -0.0139 H   0  0  0  0  0  0  0  0  0  0  0  0
    2.0215   -2.4303    0.8810 H   0  0  0  0  0  0  0  0  0  0  0  0
    6.6980   -3.5505   -0.3785 H   0  0  0  0  0  0  0  0  0  0  0  0
    2.7398   -4.7882    0.8191 H   0  0  0  0  0  0  0  0  0  0  0  0
    2.5269    1.9265    0.6772 H   0  0  0  0  0  0  0  0  0  0  0  0
    6.0035    2.9739   -0.3344 H   0  0  0  0  0  0  0  0  0  0  0  0
    1.9964    4.2119    0.7346 H   0  0  0  0  0  0  0  0  0  0  0  0
    6.6280    5.2786   -0.6970 H   0  0  0  0  0  0  0  0  0  0  0  0
    2.6311    6.5504    0.3735 H   0  0  0  0  0  0  0  0  0  0  0  0
   -2.7595   -0.7565    0.6606 H   0  0  0  0  0  0  0  0  0  0  0  0
   -1.8364    2.2252    0.9126 H   0  0  0  0  0  0  0  0  0  0  0  0
   -1.9856    2.5775   -0.8254 H   0  0  0  0  0  0  0  0  0  0  0  0
   -3.2403    1.6325   -0.0161 H   0  0  0  0  0  0  0  0  0  0  0  0
   -1.3307   -3.8536   -0.7835 H   0  0  0  0  0  0  0  0  0  0  0  0
   -1.2232   -3.4816    0.9568 H   0  0  0  0  0  0  0  0  0  0  0  0
   -2.7205   -3.1582    0.0504 H   0  0  0  0  0  0  0  0  0  0  0  0
    1.9353   -1.1841   -1.8663 H   0  0  0  0  0  0  0  0  0  0  0  0
  1  2  1  0  0  0  0
  1  3  2  0  0  0  0
  1  4  1  0  0  0  0
  2  5  1  0  0  0  0
  2 32  1  0  0  0  0
  3  6  1  0  0  0  0
  3 33  1  0  0  0  0
  4  7  2  0  0  0  0
  4 34  1  0  0  0  0
  5  9  2  0  0  0  0
  5  8  1  0  0  0  0
  6 10  2  0  0  0  0
  6 35  1  0  0  0  0
  7 10  1  0  0  0  0
  7 36  1  0  0  0  0
  8 11  1  0  0  0  0
  8 37  1  0  0  0  0
 10 12  1  0  0  0  0
 11 13  2  0  0  0  0
 11 14  1  0  0  0  0
 12 15  2  0  0  0  0
 12 16  1  0  0  0  0
 13 17  1  0  0  0  0
 13 38  1  0  0  0  0
 14 18  2  0  0  0  0
 14 39  1  0  0  0  0
 17 19  2  0  0  0  0
 17 40  1  0  0  0  0
 18 19  1  0  0  0  0
 18 41  1  0  0  0  0
 19 20  1  0  0  0  0
 20 21  2  0  0  0  0
 20 22  1  0  0  0  0
 23 24  2  0  0  0  0
 23 25  1  0  0  0  0
 23 26  1  0  0  0  0
 24 27  1  0  0  0  0
 24 42  1  0  0  0  0
 25 28  2  0  0  0  0
 26 43  1  0  0  0  0
 26 44  1  0  0  0  0
 26 45  1  0  0  0  0
 27 29  2  0  0  0  0
 27 30  1  0  0  0  0
 28 31  1  0  0  0  0
 28 29  1  0  0  0  0
 30 46  1  0  0  0  0
 30 47  1  0  0  0  0
 30 48  1  0  0  0  0
 31 49  1  0  0  0  0
M  CHG  4  12   1  16  -1  20   1  22  -1
M  END
>  <Mol_ID>
2099

>  <Formula>
C19H18N6O6

>  <MolWeight>
426.38282

>  <Cat>
S4866

>  <Name>
Nicarbazin

>  <Synonyms>
N/A

>  <Target>
Parasite

>  <Form>
salt

>  <CAS>
330-95-0

>  <URL>
http://selleckchem.com/products/nicarbazin.html

$$$$
