S4864 2-Furoic acid.cdx
 OpenBabel08302519533D

 12 12  0  0  0  0  0  0  0  0999 V2000
   -0.1392    1.2327   -0.0122 C   0  0  0  0  0  0  0  0  0  0  0  0
   -0.5866    2.6040   -0.0172 C   0  0  0  0  0  0  0  0  0  0  0  0
    1.1293    0.6868   -0.0044 C   0  0  0  0  0  0  0  0  0  0  0  0
   -1.0724    0.2249   -0.0154 O   0  0  0  0  0  0  0  0  0  0  0  0
   -1.9430    2.6828   -0.0245 O   0  0  0  0  0  0  0  0  0  0  0  0
    0.1314    3.5939   -0.0154 O   0  0  0  0  0  0  0  0  0  0  0  0
    0.9683   -0.7190   -0.0030 C   0  0  0  0  0  0  0  0  0  0  0  0
   -0.3872   -0.9497   -0.0098 C   0  0  0  0  0  0  0  0  0  0  0  0
    2.0535    1.2494   -0.0003 H   0  0  0  0  0  0  0  0  0  0  0  0
   -2.3275    1.7807   -0.0246 H   0  0  0  0  0  0  0  0  0  0  0  0
    1.7452   -1.4714    0.0024 H   0  0  0  0  0  0  0  0  0  0  0  0
   -0.9911   -1.8475   -0.0114 H   0  0  0  0  0  0  0  0  0  0  0  0
  1  2  1  0  0  0  0
  1  3  2  0  0  0  0
  1  4  1  0  0  0  0
  2  5  1  0  0  0  0
  2  6  2  0  0  0  0
  3  7  1  0  0  0  0
  3  9  1  0  0  0  0
  4  8  1  0  0  0  0
  5 10  1  0  0  0  0
  7  8  2  0  0  0  0
  7 11  1  0  0  0  0
  8 12  1  0  0  0  0
M  END
>  <Mol_ID>
2042

>  <Formula>
C5H4O3

>  <MolWeight>
112.08346

>  <Cat>
S4864

>  <Name>
2-Furoic acid

>  <Synonyms>
2-Furancarboxylic acid, Pyromucic acid, 2-Carboxyfuran, ¦Á-furancarboxylic acid, ¦Á-furoic acid

>  <Target>
ATP-citrate lyase

>  <Form>
free base

>  <CAS>
88-14-2

>  <URL>
http://selleckchem.com/products/2-furoic-acid.html

$$$$
