S4876 Robenidine Hydrochoride.cdx
 OpenBabel08302519533D

 35 36  0  0  0  0  0  0  0  0999 V2000
    1.8746   -0.4649   -1.6678 C   0  0  0  0  0  0  0  0  0  0  0  0
    1.1488    0.7220   -1.5437 C   0  0  0  0  0  0  0  0  0  0  0  0
    1.3460   -1.5490   -2.3797 C   0  0  0  0  0  0  0  0  0  0  0  0
    3.2139   -0.6147   -1.0776 C   0  0  0  0  0  0  0  0  0  0  0  0
   -0.1058    0.8207   -2.1402 C   0  0  0  0  0  0  0  0  0  0  0  0
    0.0892   -1.4440   -2.9713 C   0  0  0  0  0  0  0  0  0  0  0  0
    3.7943    0.2993   -0.3652 N   0  0  0  0  0  0  0  0  0  0  0  0
   -0.6356   -0.2590   -2.8535 C   0  0  0  0  0  0  0  0  0  0  0  0
    5.0398   -0.0718    0.0735 N   0  0  0  0  0  0  0  0  0  0  0  0
    5.4204   -1.2715    0.6320 C   0  0  0  0  0  0  0  0  0  0  0  0
    6.7822   -1.4687    0.6803 N   0  0  0  0  0  0  0  0  0  0  0  0
    4.5896   -2.1825    1.0381 N   0  0  0  0  0  0  0  0  0  0  0  0
    7.6970   -0.8000   -0.1016 N   0  0  0  0  0  0  0  0  0  0  0  0
    8.8918   -1.3026   -0.0454 C   0  0  0  0  0  0  0  0  0  0  0  0
   10.0322   -0.7995   -0.8347 C   0  0  0  0  0  0  0  0  0  0  0  0
    9.8757    0.1630   -1.8342 C   0  0  0  0  0  0  0  0  0  0  0  0
   11.2974   -1.3320   -0.5607 C   0  0  0  0  0  0  0  0  0  0  0  0
   10.9946    0.6033   -2.5478 C   0  0  0  0  0  0  0  0  0  0  0  0
   12.4108   -0.8847   -1.2720 C   0  0  0  0  0  0  0  0  0  0  0  0
   12.2597    0.0846   -2.2624 C   0  0  0  0  0  0  0  0  0  0  0  0
    1.5635    1.5640   -0.9903 H   0  0  0  0  0  0  0  0  0  0  0  0
    1.9047   -2.4783   -2.4724 H   0  0  0  0  0  0  0  0  0  0  0  0
    3.7230   -1.5689   -1.3096 H   0  0  0  0  0  0  0  0  0  0  0  0
   -0.6738    1.7449   -2.0546 H   0  0  0  0  0  0  0  0  0  0  0  0
   -0.3237   -2.2846   -3.5235 H   0  0  0  0  0  0  0  0  0  0  0  0
   -1.6137   -0.1733   -3.3170 H   0  0  0  0  0  0  0  0  0  0  0  0
    5.7040    0.6760    0.2545 H   0  0  0  0  0  0  0  0  0  0  0  0
    7.0360   -2.3957    1.0048 H   0  0  0  0  0  0  0  0  0  0  0  0
    5.0912   -2.9881    1.4048 H   0  0  0  0  0  0  0  0  0  0  0  0
    9.1140   -2.1577    0.6186 H   0  0  0  0  0  0  0  0  0  0  0  0
    8.8937    0.5681   -2.0672 H   0  0  0  0  0  0  0  0  0  0  0  0
   11.4303   -2.0894    0.2072 H   0  0  0  0  0  0  0  0  0  0  0  0
   10.8819    1.3530   -3.3277 H   0  0  0  0  0  0  0  0  0  0  0  0
   13.3955   -1.2906   -1.0533 H   0  0  0  0  0  0  0  0  0  0  0  0
   13.1290    0.4353   -2.8141 H   0  0  0  0  0  0  0  0  0  0  0  0
  1  2  2  0  0  0  0
  1  3  1  0  0  0  0
  1  4  1  0  0  0  0
  2  5  1  0  0  0  0
  2 21  1  0  0  0  0
  3  6  2  0  0  0  0
  3 22  1  0  0  0  0
  4  7  2  0  0  0  0
  4 23  1  0  0  0  0
  5  8  2  0  0  0  0
  5 24  1  0  0  0  0
  6  8  1  0  0  0  0
  6 25  1  0  0  0  0
  7  9  1  0  0  0  0
  8 26  1  0  0  0  0
  9 10  1  0  0  0  0
  9 27  1  0  0  0  0
 10 11  1  0  0  0  0
 10 12  2  0  0  0  0
 11 13  1  0  0  0  0
 11 28  1  0  0  0  0
 12 29  1  0  0  0  0
 13 14  2  0  0  0  0
 14 15  1  0  0  0  0
 14 30  1  0  0  0  0
 15 16  2  0  0  0  0
 15 17  1  0  0  0  0
 16 18  1  0  0  0  0
 16 31  1  0  0  0  0
 17 19  2  0  0  0  0
 17 32  1  0  0  0  0
 18 20  2  0  0  0  0
 18 33  1  0  0  0  0
 19 20  1  0  0  0  0
 19 34  1  0  0  0  0
 20 35  1  0  0  0  0
M  END
>  <Mol_ID>
2045

>  <Formula>
C15H14Cl3N5

>  <MolWeight>
370.66416

>  <Cat>
S4876

>  <Name>
Robenidine Hydrochloride

>  <Synonyms>
Dexium, Nugatex, Rasexinium, Toraxine

>  <Target>
Parasite

>  <Form>
hydrochloride

>  <CAS>
25875-50-7

>  <URL>
http://selleckchem.com/products/robenidine-hydrochoride.html

$$$$
