S4882 Resorantel.cdx
 OpenBabel08302519533D

 28 29  0  0  0  0  0  0  0  0999 V2000
   -0.0273   -1.0331    0.0557 C   0  0  0  0  0  0  0  0  0  0  0  0
    0.1444   -2.5223    0.0301 C   0  0  0  0  0  0  0  0  0  0  0  0
    0.8835   -0.2456    0.7863 C   0  0  0  0  0  0  0  0  0  0  0  0
   -1.0356   -0.3749   -0.6697 C   0  0  0  0  0  0  0  0  0  0  0  0
   -1.0072   -3.2754   -0.1471 N   0  0  0  0  0  0  0  0  0  0  0  0
    1.2744   -2.9936    0.1052 O   0  0  0  0  0  0  0  0  0  0  0  0
    0.8143    1.1503    0.7615 C   0  0  0  0  0  0  0  0  0  0  0  0
    1.8335   -0.8269    1.5820 O   0  0  0  0  0  0  0  0  0  0  0  0
   -1.1098    1.0231   -0.6893 C   0  0  0  0  0  0  0  0  0  0  0  0
   -1.9727   -1.0885   -1.3753 O   0  0  0  0  0  0  0  0  0  0  0  0
   -1.0812   -4.6832   -0.1330 C   0  0  0  0  0  0  0  0  0  0  0  0
   -0.1801    1.7820    0.0195 C   0  0  0  0  0  0  0  0  0  0  0  0
   -0.0829   -5.4907    0.4224 C   0  0  0  0  0  0  0  0  0  0  0  0
   -2.2078   -5.2936   -0.6958 C   0  0  0  0  0  0  0  0  0  0  0  0
   -0.1754   -6.8840    0.3685 C   0  0  0  0  0  0  0  0  0  0  0  0
   -2.3004   -6.6896   -0.7598 C   0  0  0  0  0  0  0  0  0  0  0  0
   -1.2768   -7.4775   -0.2367 C   0  0  0  0  0  0  0  0  0  0  0  0
   -1.3771   -9.3607   -0.3577 Br  0  0  0  0  0  0  0  0  0  0  0  0
   -1.8213   -2.7621   -0.4733 H   0  0  0  0  0  0  0  0  0  0  0  0
    1.5199    1.7543    1.3253 H   0  0  0  0  0  0  0  0  0  0  0  0
    2.4833   -0.1676    1.8696 H   0  0  0  0  0  0  0  0  0  0  0  0
   -1.8832    1.5397   -1.2511 H   0  0  0  0  0  0  0  0  0  0  0  0
   -2.4968   -0.4687   -1.9139 H   0  0  0  0  0  0  0  0  0  0  0  0
   -0.2343    2.8684    0.0035 H   0  0  0  0  0  0  0  0  0  0  0  0
    0.7829   -5.0572    0.9152 H   0  0  0  0  0  0  0  0  0  0  0  0
   -3.0081   -4.6954   -1.1221 H   0  0  0  0  0  0  0  0  0  0  0  0
    0.6231   -7.4845    0.7959 H   0  0  0  0  0  0  0  0  0  0  0  0
   -3.1640   -7.1499   -1.2315 H   0  0  0  0  0  0  0  0  0  0  0  0
  1  2  1  0  0  0  0
  1  3  2  0  0  0  0
  1  4  1  0  0  0  0
  2  5  1  0  0  0  0
  2  6  2  0  0  0  0
  3  7  1  0  0  0  0
  3  8  1  0  0  0  0
  4  9  2  0  0  0  0
  4 10  1  0  0  0  0
  5 11  1  0  0  0  0
  5 19  1  0  0  0  0
  7 12  2  0  0  0  0
  7 20  1  0  0  0  0
  8 21  1  0  0  0  0
  9 12  1  0  0  0  0
  9 22  1  0  0  0  0
 10 23  1  0  0  0  0
 11 13  2  0  0  0  0
 11 14  1  0  0  0  0
 12 24  1  0  0  0  0
 13 15  1  0  0  0  0
 13 25  1  0  0  0  0
 14 16  2  0  0  0  0
 14 26  1  0  0  0  0
 15 17  2  0  0  0  0
 15 27  1  0  0  0  0
 16 17  1  0  0  0  0
 16 28  1  0  0  0  0
 17 18  1  0  0  0  0
M  END
>  <Mol_ID>
2068

>  <Formula>
C13H10BrNO3

>  <MolWeight>
308.1274

>  <Cat>
S4882

>  <Name>
Resorantel

>  <Synonyms>
N/A

>  <Target>
Parasite

>  <Form>
free base

>  <CAS>
20788-07-2

>  <URL>
http://selleckchem.com/products/resorantel.html

$$$$
