S4889 Perospirone hydrochloride.cdx
 OpenBabel08302520013D

 60 64  0  0  0  0  0  0  0  0999 V2000
    7.1872   -4.4459    1.0996 C   0  0  0  0  0  0  0  0  0  0  0  0
    8.0133   -3.3123    1.5411 C   0  0  0  0  0  0  0  0  0  0  0  0
    6.0040   -4.3041    0.3927 N   0  0  0  0  0  0  0  0  0  0  0  0
    7.6967   -5.6440    1.3791 N   0  0  0  0  0  0  0  0  0  0  0  0
    9.1933   -3.7886    2.1302 C   0  0  0  0  0  0  0  0  0  0  0  0
    7.8736   -1.9015    1.4572 C   0  0  0  0  0  0  0  0  0  0  0  0
    5.6539   -5.4845   -0.4511 C   0  0  0  0  0  0  0  0  0  0  0  0
    4.8271   -3.8514    1.1668 C   0  0  0  0  0  0  0  0  0  0  0  0
    9.1401   -5.4974    2.1400 S   0  0  0  0  0  0  0  0  0  0  0  0
   10.2168   -2.9448    2.6053 C   0  0  0  0  0  0  0  0  0  0  0  0
    8.8822   -1.0483    1.9434 C   0  0  0  0  0  0  0  0  0  0  0  0
    4.3973   -5.2482   -1.3242 C   0  0  0  0  0  0  0  0  0  0  0  0
    3.6032   -3.6159    0.2428 C   0  0  0  0  0  0  0  0  0  0  0  0
   10.0439   -1.5665    2.5023 C   0  0  0  0  0  0  0  0  0  0  0  0
    3.1930   -4.7458   -0.6190 N   0  0  0  0  0  0  0  0  0  0  0  0
    2.4649   -5.8287    0.0530 C   0  0  0  0  0  0  0  0  0  0  0  0
    1.1634   -5.4229    0.7669 C   0  0  0  0  0  0  0  0  0  0  0  0
    0.1532   -4.6178   -0.0525 C   0  0  0  0  0  0  0  0  0  0  0  0
   -0.5003   -5.3621   -1.2243 C   0  0  0  0  0  0  0  0  0  0  0  0
   -1.5255   -4.5056   -1.8106 N   0  0  0  0  0  0  0  0  0  0  0  0
   -1.2484   -3.5124   -2.7079 C   0  0  0  0  0  0  0  0  0  0  0  0
   -2.7891   -4.4128   -1.2976 C   0  0  0  0  0  0  0  0  0  0  0  0
   -2.5227   -2.7385   -2.9572 C   0  0  1  0  0  0  0  0  0  0  0  0
   -0.1792   -3.3012   -3.2558 O   0  0  0  0  0  0  0  0  0  0  0  0
   -3.3827   -3.0958   -1.7413 C   0  0  2  0  0  0  0  0  0  0  0  0
   -3.3188   -5.1724   -0.4977 O   0  0  0  0  0  0  0  0  0  0  0  0
   -2.2919   -1.2503   -3.2196 C   0  0  0  0  0  0  0  0  0  0  0  0
   -3.2571   -2.1312   -0.5563 C   0  0  0  0  0  0  0  0  0  0  0  0
   -2.1375   -0.4083   -1.9571 C   0  0  0  0  0  0  0  0  0  0  0  0
   -3.2727   -0.6748   -0.9807 C   0  0  0  0  0  0  0  0  0  0  0  0
    6.9858   -1.4694    1.0048 H   0  0  0  0  0  0  0  0  0  0  0  0
    6.4925   -5.7099   -1.1232 H   0  0  0  0  0  0  0  0  0  0  0  0
    5.4854   -6.3634    0.1846 H   0  0  0  0  0  0  0  0  0  0  0  0
    4.5735   -4.5971    1.9308 H   0  0  0  0  0  0  0  0  0  0  0  0
    5.0480   -2.9098    1.6821 H   0  0  0  0  0  0  0  0  0  0  0  0
   11.1256   -3.3589    3.0341 H   0  0  0  0  0  0  0  0  0  0  0  0
    8.7615    0.0312    1.8717 H   0  0  0  0  0  0  0  0  0  0  0  0
    4.6516   -4.5169   -2.1016 H   0  0  0  0  0  0  0  0  0  0  0  0
    4.1614   -6.1756   -1.8631 H   0  0  0  0  0  0  0  0  0  0  0  0
    3.8466   -2.7818   -0.4297 H   0  0  0  0  0  0  0  0  0  0  0  0
    2.7602   -3.2560    0.8410 H   0  0  0  0  0  0  0  0  0  0  0  0
   10.8265   -0.8990    2.8586 H   0  0  0  0  0  0  0  0  0  0  0  0
    2.1914   -6.5808   -0.6992 H   0  0  0  0  0  0  0  0  0  0  0  0
    3.1060   -6.3402    0.7810 H   0  0  0  0  0  0  0  0  0  0  0  0
    0.6709   -6.3307    1.1385 H   0  0  0  0  0  0  0  0  0  0  0  0
    1.4154   -4.8386    1.6603 H   0  0  0  0  0  0  0  0  0  0  0  0
   -0.6407   -4.2964    0.6362 H   0  0  0  0  0  0  0  0  0  0  0  0
    0.6126   -3.6921   -0.4184 H   0  0  0  0  0  0  0  0  0  0  0  0
    0.2383   -5.6108   -1.9921 H   0  0  0  0  0  0  0  0  0  0  0  0
   -0.9738   -6.2857   -0.8712 H   0  0  0  0  0  0  0  0  0  0  0  0
   -2.9651   -3.1841   -3.8590 H   0  0  0  0  0  0  0  0  0  0  0  0
   -4.4293   -3.2187   -2.0385 H   0  0  0  0  0  0  0  0  0  0  0  0
   -1.4121   -1.0985   -3.8566 H   0  0  0  0  0  0  0  0  0  0  0  0
   -3.1499   -0.8610   -3.7826 H   0  0  0  0  0  0  0  0  0  0  0  0
   -4.0683   -2.3227    0.1565 H   0  0  0  0  0  0  0  0  0  0  0  0
   -2.3274   -2.3221   -0.0017 H   0  0  0  0  0  0  0  0  0  0  0  0
   -1.1752   -0.6278   -1.4780 H   0  0  0  0  0  0  0  0  0  0  0  0
   -2.1245    0.6546   -2.2236 H   0  0  0  0  0  0  0  0  0  0  0  0
   -3.1601   -0.0354   -0.0978 H   0  0  0  0  0  0  0  0  0  0  0  0
   -4.2370   -0.4272   -1.4397 H   0  0  0  0  0  0  0  0  0  0  0  0
  1  2  1  0  0  0  0
  1  3  1  0  0  0  0
  1  4  2  0  0  0  0
  2  5  2  0  0  0  0
  2  6  1  0  0  0  0
  3  7  1  0  0  0  0
  3  8  1  0  0  0  0
  4  9  1  0  0  0  0
  5 10  1  0  0  0  0
  5  9  1  0  0  0  0
  6 11  2  0  0  0  0
  6 31  1  0  0  0  0
  7 12  1  0  0  0  0
  7 32  1  0  0  0  0
  7 33  1  0  0  0  0
  8 13  1  0  0  0  0
  8 34  1  0  0  0  0
  8 35  1  0  0  0  0
 10 14  2  0  0  0  0
 10 36  1  0  0  0  0
 11 14  1  0  0  0  0
 11 37  1  0  0  0  0
 12 15  1  0  0  0  0
 12 38  1  0  0  0  0
 12 39  1  0  0  0  0
 13 15  1  0  0  0  0
 13 40  1  0  0  0  0
 13 41  1  0  0  0  0
 14 42  1  0  0  0  0
 15 16  1  0  0  0  0
 16 17  1  0  0  0  0
 16 43  1  0  0  0  0
 16 44  1  0  0  0  0
 17 18  1  0  0  0  0
 17 45  1  0  0  0  0
 17 46  1  0  0  0  0
 18 19  1  0  0  0  0
 18 47  1  0  0  0  0
 18 48  1  0  0  0  0
 19 20  1  0  0  0  0
 19 49  1  0  0  0  0
 19 50  1  0  0  0  0
 20 21  1  0  0  0  0
 20 22  1  0  0  0  0
 21 23  1  0  0  0  0
 21 24  2  0  0  0  0
 22 25  1  0  0  0  0
 22 26  2  0  0  0  0
 23 27  1  0  0  0  0
 23 25  1  0  0  0  0
 23 51  1  6  0  0  0
 25 28  1  0  0  0  0
 25 52  1  6  0  0  0
 27 29  1  0  0  0  0
 27 53  1  0  0  0  0
 27 54  1  0  0  0  0
 28 30  1  0  0  0  0
 28 55  1  0  0  0  0
 28 56  1  0  0  0  0
 29 30  1  0  0  0  0
 29 57  1  0  0  0  0
 29 58  1  0  0  0  0
 30 59  1  0  0  0  0
 30 60  1  0  0  0  0
M  END
>  <Mol_ID>
2870

>  <Formula>
C23H31ClN4O2S

>  <MolWeight>
463.03584

>  <Cat>
S4889

>  <Name>
Perospirone hydrochloride

>  <Synonyms>
SM-9018 hydrochloride

>  <Target>
5-HT Receptor,Dopamine Receptor

>  <Form>
hydrochloride

>  <CAS>
129273-38-7

>  <URL>
http://selleckchem.com/products/perospirone-hydrochloride.html

$$$$
