S4880 Cefathiamidine.cdx
 OpenBabel08302520013D

 59 60  0  0  0  0  0  0  0  0999 V2000
   -2.0390   -0.6638   -0.3936 N   0  0  0  0  0  0  0  0  0  0  0  0
   -0.8374    0.0816   -0.0456 C   0  0  1  0  0  0  0  0  0  0  0  0
   -2.3439   -1.9252    0.0640 C   0  0  0  0  0  0  0  0  0  0  0  0
   -2.7970    0.4252   -0.6798 C   0  0  0  0  0  0  0  0  0  0  0  0
   -1.5362    1.3478   -0.6095 C   0  0  1  0  0  0  0  0  0  0  0  0
   -0.5842   -0.0211    1.7433 S   0  0  0  0  0  0  0  0  0  0  0  0
   -1.5633   -2.5152    1.0115 C   0  0  0  0  0  0  0  0  0  0  0  0
   -3.4884   -2.6981   -0.5547 C   0  0  0  0  0  0  0  0  0  0  0  0
   -3.9933    0.5075   -0.8274 O   0  0  0  0  0  0  0  0  0  0  0  0
   -1.6000    2.5700    0.2358 N   0  0  0  0  0  0  0  0  0  0  0  0
   -0.3688   -1.8290    1.6484 C   0  0  0  0  0  0  0  0  0  0  0  0
   -1.7984   -3.9050    1.5802 C   0  0  0  0  0  0  0  0  0  0  0  0
   -4.4887   -1.9773   -1.0938 O   0  0  0  0  0  0  0  0  0  0  0  0
   -3.4965   -3.9193   -0.6379 O   0  0  0  0  0  0  0  0  0  0  0  0
   -2.0572    3.7614   -0.3158 C   0  0  0  0  0  0  0  0  0  0  0  0
   -3.0818   -3.9955    2.2052 O   0  0  0  0  0  0  0  0  0  0  0  0
   -1.9899    4.9566    0.6278 C   0  0  0  0  0  0  0  0  0  0  0  0
   -2.4994    3.8004   -1.4571 O   0  0  0  0  0  0  0  0  0  0  0  0
   -3.1543   -3.5998    3.5016 C   0  0  0  0  0  0  0  0  0  0  0  0
   -2.0736    6.5456   -0.2453 S   0  0  0  0  0  0  0  0  0  0  0  0
   -4.5160   -3.8681    4.0665 C   0  0  0  0  0  0  0  0  0  0  0  0
   -2.2235   -3.1278    4.1487 O   0  0  0  0  0  0  0  0  0  0  0  0
   -0.6434    6.4337   -1.2873 C   0  0  0  0  0  0  0  0  0  0  0  0
   -0.6929    7.1002   -2.4852 N   0  0  0  0  0  0  0  0  0  0  0  0
    0.3310    5.7872   -0.7694 N   0  0  0  0  0  0  0  0  0  0  0  0
   -1.8972    7.3338   -3.2802 C   0  0  0  0  0  0  0  0  0  0  0  0
    1.6196    5.5834   -1.4146 C   0  0  0  0  0  0  0  0  0  0  0  0
   -2.0761    8.8313   -3.5146 C   0  0  0  0  0  0  0  0  0  0  0  0
   -1.8123    6.5828   -4.6084 C   0  0  0  0  0  0  0  0  0  0  0  0
    2.6163    5.2802   -0.2871 C   0  0  0  0  0  0  0  0  0  0  0  0
    1.5301    4.4197   -2.4031 C   0  0  0  0  0  0  0  0  0  0  0  0
    0.0370   -0.2151   -0.6344 H   0  0  0  0  0  0  0  0  0  0  0  0
   -1.1642    1.5992   -1.6108 H   0  0  0  0  0  0  0  0  0  0  0  0
   -1.2233    2.5665    1.1812 H   0  0  0  0  0  0  0  0  0  0  0  0
    0.5275   -2.0543    1.0573 H   0  0  0  0  0  0  0  0  0  0  0  0
   -0.1837   -2.1852    2.6652 H   0  0  0  0  0  0  0  0  0  0  0  0
   -1.7424   -4.6618    0.7910 H   0  0  0  0  0  0  0  0  0  0  0  0
   -1.0145   -4.2000    2.2902 H   0  0  0  0  0  0  0  0  0  0  0  0
   -4.4687   -1.0029   -0.9584 H   0  0  0  0  0  0  0  0  0  0  0  0
   -2.8507    4.9002    1.3017 H   0  0  0  0  0  0  0  0  0  0  0  0
   -1.0827    4.9119    1.2383 H   0  0  0  0  0  0  0  0  0  0  0  0
   -4.4667   -4.7189    4.7521 H   0  0  0  0  0  0  0  0  0  0  0  0
   -4.8723   -2.9776    4.5910 H   0  0  0  0  0  0  0  0  0  0  0  0
   -5.2308   -4.0984    3.2702 H   0  0  0  0  0  0  0  0  0  0  0  0
    0.1781    7.1911   -2.9882 H   0  0  0  0  0  0  0  0  0  0  0  0
   -2.7910    6.9629   -2.7710 H   0  0  0  0  0  0  0  0  0  0  0  0
    1.9703    6.4804   -1.9381 H   0  0  0  0  0  0  0  0  0  0  0  0
   -1.2576    9.2464   -4.1130 H   0  0  0  0  0  0  0  0  0  0  0  0
   -3.0134    9.0279   -4.0454 H   0  0  0  0  0  0  0  0  0  0  0  0
   -2.1047    9.3770   -2.5649 H   0  0  0  0  0  0  0  0  0  0  0  0
   -1.4514    5.5581   -4.4682 H   0  0  0  0  0  0  0  0  0  0  0  0
   -2.8038    6.5274   -5.0719 H   0  0  0  0  0  0  0  0  0  0  0  0
   -1.1440    7.0820   -5.3186 H   0  0  0  0  0  0  0  0  0  0  0  0
    2.1314    4.7954    0.5686 H   0  0  0  0  0  0  0  0  0  0  0  0
    3.4436    4.6430   -0.6146 H   0  0  0  0  0  0  0  0  0  0  0  0
    3.0530    6.2153    0.0820 H   0  0  0  0  0  0  0  0  0  0  0  0
    1.3854    4.8070   -3.4180 H   0  0  0  0  0  0  0  0  0  0  0  0
    2.4462    3.8193   -2.4235 H   0  0  0  0  0  0  0  0  0  0  0  0
    0.6902    3.7514   -2.1870 H   0  0  0  0  0  0  0  0  0  0  0  0
  1  2  1  0  0  0  0
  1  3  1  0  0  0  0
  1  4  1  0  0  0  0
  2  5  1  0  0  0  0
  2  6  1  0  0  0  0
  2 32  1  6  0  0  0
  3  7  2  0  0  0  0
  3  8  1  0  0  0  0
  4  9  2  0  0  0  0
  4  5  1  0  0  0  0
  5 10  1  0  0  0  0
  5 33  1  6  0  0  0
  6 11  1  0  0  0  0
  7 12  1  0  0  0  0
  7 11  1  0  0  0  0
  8 13  1  0  0  0  0
  8 14  2  0  0  0  0
 10 15  1  0  0  0  0
 10 34  1  0  0  0  0
 11 35  1  0  0  0  0
 11 36  1  0  0  0  0
 12 16  1  0  0  0  0
 12 37  1  0  0  0  0
 12 38  1  0  0  0  0
 13 39  1  0  0  0  0
 15 17  1  0  0  0  0
 15 18  2  0  0  0  0
 16 19  1  0  0  0  0
 17 20  1  0  0  0  0
 17 40  1  0  0  0  0
 17 41  1  0  0  0  0
 19 21  1  0  0  0  0
 19 22  2  0  0  0  0
 20 23  1  0  0  0  0
 21 42  1  0  0  0  0
 21 43  1  0  0  0  0
 21 44  1  0  0  0  0
 23 24  1  0  0  0  0
 23 25  2  0  0  0  0
 24 26  1  0  0  0  0
 24 45  1  0  0  0  0
 25 27  1  0  0  0  0
 26 28  1  0  0  0  0
 26 29  1  0  0  0  0
 26 46  1  0  0  0  0
 27 30  1  0  0  0  0
 27 31  1  0  0  0  0
 27 47  1  0  0  0  0
 28 48  1  0  0  0  0
 28 49  1  0  0  0  0
 28 50  1  0  0  0  0
 29 51  1  0  0  0  0
 29 52  1  0  0  0  0
 29 53  1  0  0  0  0
 30 54  1  0  0  0  0
 30 55  1  0  0  0  0
 30 56  1  0  0  0  0
 31 57  1  0  0  0  0
 31 58  1  0  0  0  0
 31 59  1  0  0  0  0
M  END
>  <Mol_ID>
2869

>  <Formula>
C19H28N4O6S2

>  <MolWeight>
472.57882

>  <Cat>
S4880

>  <Name>
Cefathiamidine

>  <Synonyms>
N/A

>  <Target>
Bacterial

>  <Form>
free base

>  <CAS>
33075-00-2

>  <URL>
http://selleckchem.com/products/cefathiamidine.html

$$$$
