S4885 Taurolidine.cdx
 OpenBabel08302519533D

 33 34  0  0  0  0  0  0  0  0999 V2000
   -3.5177   -2.5484   -0.8044 S   0  0  0  0  0  0  0  0  0  0  0  0
   -2.7680   -0.9494   -0.8763 C   0  0  0  0  0  0  0  0  0  0  0  0
   -2.6544   -3.2986    0.4209 N   0  0  0  0  0  0  0  0  0  0  0  0
   -4.8735   -2.4273   -0.3294 O   0  0  0  0  0  0  0  0  0  0  0  0
   -3.2199   -3.2852   -2.0115 O   0  0  0  0  0  0  0  0  0  0  0  0
   -1.2831   -0.9354   -0.5218 C   0  0  0  0  0  0  0  0  0  0  0  0
   -1.2091   -3.2022    0.2646 C   0  0  0  0  0  0  0  0  0  0  0  0
   -0.7189   -1.8413    0.4865 N   0  0  0  0  0  0  0  0  0  0  0  0
   -0.8517   -1.5179    1.9107 C   0  0  0  0  0  0  0  0  0  0  0  0
   -0.3954   -0.2021    2.3733 N   0  0  0  0  0  0  0  0  0  0  0  0
    0.9739    0.2343    2.0825 C   0  0  0  0  0  0  0  0  0  0  0  0
   -0.6462   -0.0939    3.8108 C   0  0  0  0  0  0  0  0  0  0  0  0
    2.1654   -0.2720    2.8878 C   0  0  0  0  0  0  0  0  0  0  0  0
    0.1894   -1.0001    4.5855 N   0  0  0  0  0  0  0  0  0  0  0  0
    1.8151   -0.6174    4.5889 S   0  0  0  0  0  0  0  0  0  0  0  0
    2.5215   -1.8219    4.9885 O   0  0  0  0  0  0  0  0  0  0  0  0
    1.9348    0.5962    5.3626 O   0  0  0  0  0  0  0  0  0  0  0  0
   -2.8985   -0.6119   -1.9202 H   0  0  0  0  0  0  0  0  0  0  0  0
   -3.3407   -0.2788   -0.2296 H   0  0  0  0  0  0  0  0  0  0  0  0
   -2.9775   -4.2620    0.4898 H   0  0  0  0  0  0  0  0  0  0  0  0
   -0.7479   -1.1770   -1.4521 H   0  0  0  0  0  0  0  0  0  0  0  0
   -0.9875    0.1000   -0.3158 H   0  0  0  0  0  0  0  0  0  0  0  0
   -0.9014   -3.5846   -0.7157 H   0  0  0  0  0  0  0  0  0  0  0  0
   -0.7544   -3.8936    0.9836 H   0  0  0  0  0  0  0  0  0  0  0  0
   -1.9105   -1.6048    2.1885 H   0  0  0  0  0  0  0  0  0  0  0  0
   -0.3039   -2.2892    2.4637 H   0  0  0  0  0  0  0  0  0  0  0  0
    1.1979    0.1137    1.0181 H   0  0  0  0  0  0  0  0  0  0  0  0
    0.9613    1.3263    2.2189 H   0  0  0  0  0  0  0  0  0  0  0  0
   -0.5258    0.9383    4.1635 H   0  0  0  0  0  0  0  0  0  0  0  0
   -1.6923   -0.3391    4.0287 H   0  0  0  0  0  0  0  0  0  0  0  0
    2.5908   -1.1799    2.4411 H   0  0  0  0  0  0  0  0  0  0  0  0
    2.9506    0.4957    2.9004 H   0  0  0  0  0  0  0  0  0  0  0  0
   -0.1168   -1.0532    5.5594 H   0  0  0  0  0  0  0  0  0  0  0  0
  1  2  1  0  0  0  0
  1  3  1  0  0  0  0
  1  4  2  0  0  0  0
  1  5  2  0  0  0  0
  2  6  1  0  0  0  0
  2 18  1  0  0  0  0
  2 19  1  0  0  0  0
  3  7  1  0  0  0  0
  3 20  1  0  0  0  0
  6  8  1  0  0  0  0
  6 21  1  0  0  0  0
  6 22  1  0  0  0  0
  7  8  1  0  0  0  0
  7 23  1  0  0  0  0
  7 24  1  0  0  0  0
  8  9  1  0  0  0  0
  9 10  1  0  0  0  0
  9 25  1  0  0  0  0
  9 26  1  0  0  0  0
 10 11  1  0  0  0  0
 10 12  1  0  0  0  0
 11 13  1  0  0  0  0
 11 27  1  0  0  0  0
 11 28  1  0  0  0  0
 12 14  1  0  0  0  0
 12 29  1  0  0  0  0
 12 30  1  0  0  0  0
 13 15  1  0  0  0  0
 13 31  1  0  0  0  0
 13 32  1  0  0  0  0
 14 15  1  0  0  0  0
 14 33  1  0  0  0  0
 15 16  2  0  0  0  0
 15 17  2  0  0  0  0
M  END
>  <Mol_ID>
2070

>  <Formula>
C7H16N4O4S2

>  <MolWeight>
284.35634

>  <Cat>
S4885

>  <Name>
Taurolidine

>  <Synonyms>
Taurolin, Tauroline, Tauroflex

>  <Target>
Antibiotics,Bacterial

>  <Form>
free base

>  <CAS>
19388-87-5

>  <URL>
http://selleckchem.com/products/taurolidine.html

$$$$
