S4894 D-Glucurone.cdx
 OpenBabel08302519543D

 20 21  0  0  0  0  0  0  0  0999 V2000
    1.3563   -1.1322   -0.0872 C   0  0  2  0  0  0  0  0  0  0  0  0
    0.0952   -0.5597   -0.7325 C   0  0  2  0  0  0  0  0  0  0  0  0
    0.1039    0.9032   -0.3622 C   0  0  3  0  0  0  0  0  0  0  0  0
    0.8514    0.9720    0.8571 O   0  0  0  0  0  0  0  0  0  0  0  0
    1.9421    0.0656    0.6835 C   0  0  3  0  0  0  0  0  0  0  0  0
   -1.0798   -1.1033   -0.1179 O   0  0  0  0  0  0  0  0  0  0  0  0
    2.3200   -1.6179   -1.0323 O   0  0  0  0  0  0  0  0  0  0  0  0
   -1.3487    1.2583   -0.1644 C   0  0  2  0  0  0  0  0  0  0  0  0
   -1.9597   -0.0948    0.1704 C   0  0  0  0  0  0  0  0  0  0  0  0
   -3.1001   -0.2925    0.5636 O   0  0  0  0  0  0  0  0  0  0  0  0
   -1.8896    1.8593   -1.3339 O   0  0  0  0  0  0  0  0  0  0  0  0
    2.9544    0.7061   -0.0864 O   0  0  0  0  0  0  0  0  0  0  0  0
    1.1053   -1.9458    0.6028 H   0  0  0  0  0  0  0  0  0  0  0  0
    0.0203   -0.7369   -1.8087 H   0  0  0  0  0  0  0  0  0  0  0  0
    0.6050    1.5201   -1.1181 H   0  0  0  0  0  0  0  0  0  0  0  0
    2.3614   -0.2216    1.6518 H   0  0  0  0  0  0  0  0  0  0  0  0
    1.9961   -1.4827   -1.9395 H   0  0  0  0  0  0  0  0  0  0  0  0
   -1.4845    1.9364    0.6854 H   0  0  0  0  0  0  0  0  0  0  0  0
   -1.8798    1.2162   -2.0634 H   0  0  0  0  0  0  0  0  0  0  0  0
    3.2519    0.0400   -0.7353 H   0  0  0  0  0  0  0  0  0  0  0  0
  1  2  1  0  0  0  0
  1  5  1  0  0  0  0
  1  7  1  0  0  0  0
  1 13  1  1  0  0  0
  2  3  1  0  0  0  0
  2  6  1  0  0  0  0
  2 14  1  6  0  0  0
  3  4  1  0  0  0  0
  3  8  1  0  0  0  0
  3 15  1  0  0  0  0
  4  5  1  0  0  0  0
  5 12  1  0  0  0  0
  5 16  1  0  0  0  0
  7 17  1  0  0  0  0
  8  9  1  0  0  0  0
  8 18  1  1  0  0  0
  8 11  1  0  0  0  0
  9  6  1  0  0  0  0
  9 10  2  0  0  0  0
 11 19  1  0  0  0  0
 12 20  1  0  0  0  0
M  END
>  <Mol_ID>
2073

>  <Formula>
C6H8O6

>  <MolWeight>
176.12412

>  <Cat>
S4894

>  <Name>
D-Glucurone

>  <Synonyms>
N/A

>  <Target>
Others

>  <Form>
free base

>  <CAS>
32449-92-6

>  <URL>
http://selleckchem.com/products/d-glucurone.html

$$$$
