S4899 Sulfogaiacol.cdx
 OpenBabel08302519543D

 20 20  0  0  0  0  0  0  0  0999 V2000
   -1.2317   -1.1974   -0.0167 C   0  0  0  0  0  0  0  0  0  0  0  0
    0.1686   -1.2522    0.0048 C   0  0  0  0  0  0  0  0  0  0  0  0
   -1.9142    0.0240   -0.0099 C   0  0  0  0  0  0  0  0  0  0  0  0
   -2.1757   -2.7446   -0.0084 S   0  0  0  0  0  0  0  0  0  0  0  0
    0.8960   -0.0652    0.0146 C   0  0  0  0  0  0  0  0  0  0  0  0
   -1.1882    1.2123    0.0020 C   0  0  0  0  0  0  0  0  0  0  0  0
   -2.3195   -3.0079   -1.4359 O   0  0  0  0  0  0  0  0  0  0  0  0
   -1.2935   -3.6572    0.7164 O   0  0  0  0  0  0  0  0  0  0  0  0
   -3.4004   -2.3784    0.6976 O   0  5  0  0  0  0  0  0  0  0  0  0
    0.2024    1.1560    0.0134 C   0  0  0  0  0  0  0  0  0  0  0  0
    2.2662    0.0423    0.0235 O   0  0  0  0  0  0  0  0  0  0  0  0
    0.8983    2.3372    0.0268 O   0  0  0  0  0  0  0  0  0  0  0  0
    2.9808   -1.1902    0.0208 C   0  0  0  0  0  0  0  0  0  0  0  0
    0.6376   -2.2307    0.0098 H   0  0  0  0  0  0  0  0  0  0  0  0
   -3.0013    0.0334   -0.0168 H   0  0  0  0  0  0  0  0  0  0  0  0
   -1.7005    2.1678    0.0032 H   0  0  0  0  0  0  0  0  0  0  0  0
    1.8345    2.0601    0.0404 H   0  0  0  0  0  0  0  0  0  0  0  0
    2.7786   -1.7641    0.9312 H   0  0  0  0  0  0  0  0  0  0  0  0
    2.7591   -1.7760   -0.8777 H   0  0  0  0  0  0  0  0  0  0  0  0
    4.0498   -0.9561    0.0061 H   0  0  0  0  0  0  0  0  0  0  0  0
  1  2  2  0  0  0  0
  1  3  1  0  0  0  0
  1  4  1  0  0  0  0
  2  5  1  0  0  0  0
  2 14  1  0  0  0  0
  3  6  2  0  0  0  0
  3 15  1  0  0  0  0
  4  7  2  0  0  0  0
  4  8  2  0  0  0  0
  4  9  1  0  0  0  0
  5 10  2  0  0  0  0
  5 11  1  0  0  0  0
  6 10  1  0  0  0  0
  6 16  1  0  0  0  0
 10 12  1  0  0  0  0
 11 13  1  0  0  0  0
 12 17  1  0  0  0  0
 13 18  1  0  0  0  0
 13 19  1  0  0  0  0
 13 20  1  0  0  0  0
M  CHG  1   9  -1
M  END
>  <Mol_ID>
2076

>  <Formula>
C7H7KO5S

>  <MolWeight>
242.29078

>  <Cat>
S4899

>  <Name>
Sulfogaiacol

>  <Synonyms>
Guaiacolsulfonate

>  <Target>
Others

>  <Form>
sulfonic acids

>  <CAS>
1321-14-8

>  <URL>
http://selleckchem.com/products/sulfogaiacol.html

$$$$
