S4897 Nortropine Hydrochloride.cdx
 OpenBabel08302519543D

 22 23  0  0  0  0  0  0  0  0999 V2000
    0.4061    1.1403    0.4041 C   0  0  1  0  0  0  0  0  0  0  0  0
   -1.0528    1.3381   -0.0248 C   0  0  0  0  0  0  0  0  0  0  0  0
    0.5095   -0.0198    1.2932 N   0  0  0  0  0  0  0  0  0  0  0  0
    1.3214    0.7500   -0.7522 C   0  0  0  0  0  0  0  0  0  0  0  0
   -1.7660    0.0542   -0.4743 C   0  0  2  0  0  0  0  0  0  0  0  0
    0.3534   -1.1516    0.3753 C   0  0  2  0  0  0  0  0  0  0  0  0
    1.2839   -0.7741   -0.7738 C   0  0  0  0  0  0  0  0  0  0  0  0
   -1.1131   -1.2710   -0.0557 C   0  0  0  0  0  0  0  0  0  0  0  0
   -1.9615    0.0754   -1.8901 O   0  0  0  0  0  0  0  0  0  0  0  0
    0.7708    2.0496    0.8935 H   0  0  0  0  0  0  0  0  0  0  0  0
   -1.1038    2.1010   -0.8110 H   0  0  0  0  0  0  0  0  0  0  0  0
   -1.5981    1.7428    0.8383 H   0  0  0  0  0  0  0  0  0  0  0  0
   -0.2246   -0.0119    2.0003 H   0  0  0  0  0  0  0  0  0  0  0  0
    1.0127    1.1826   -1.7085 H   0  0  0  0  0  0  0  0  0  0  0  0
    2.3485    1.0825   -0.5537 H   0  0  0  0  0  0  0  0  0  0  0  0
   -2.7818    0.0728   -0.0590 H   0  0  0  0  0  0  0  0  0  0  0  0
    0.6762   -2.0876    0.8430 H   0  0  0  0  0  0  0  0  0  0  0  0
    0.9498   -1.1625   -1.7408 H   0  0  0  0  0  0  0  0  0  0  0  0
    2.2934   -1.1624   -0.5904 H   0  0  0  0  0  0  0  0  0  0  0  0
   -1.6761   -1.6703    0.7980 H   0  0  0  0  0  0  0  0  0  0  0  0
   -1.1997   -2.0125   -0.8601 H   0  0  0  0  0  0  0  0  0  0  0  0
   -1.0921    0.0643   -2.3171 H   0  0  0  0  0  0  0  0  0  0  0  0
  1  2  1  0  0  0  0
  1  3  1  0  0  0  0
  1  4  1  0  0  0  0
  1 10  1  1  0  0  0
  2  5  1  0  0  0  0
  2 11  1  0  0  0  0
  2 12  1  0  0  0  0
  3  6  1  0  0  0  0
  3 13  1  0  0  0  0
  4  7  1  0  0  0  0
  4 14  1  0  0  0  0
  4 15  1  0  0  0  0
  5  8  1  0  0  0  0
  5 16  1  1  0  0  0
  5  9  1  0  0  0  0
  6  7  1  0  0  0  0
  6  8  1  0  0  0  0
  6 17  1  1  0  0  0
  7 18  1  0  0  0  0
  7 19  1  0  0  0  0
  8 20  1  0  0  0  0
  8 21  1  0  0  0  0
  9 22  1  0  0  0  0
M  END
>  <Mol_ID>
2074

>  <Formula>
C7H14ClNO

>  <MolWeight>
163.64516

>  <Cat>
S4897

>  <Name>
Nortropine Hydrochloride

>  <Synonyms>
Nortropeno Hydrochloride

>  <Target>
Others

>  <Form>
hydrochloride

>  <CAS>
14383-51-8

>  <URL>
http://selleckchem.com/products/nortropine-hydrochloride.html

$$$$
