S4898 Sulfalozine sodium.cdx
 OpenBabel08302519543D

 27 28  0  0  0  0  0  0  0  0999 V2000
   -1.8692   -0.0002    0.0228 C   0  0  0  0  0  0  0  0  0  0  0  0
   -3.6454   -0.0489    0.0052 S   0  0  0  0  0  0  0  0  0  0  0  0
   -1.1965    1.0384   -0.6208 C   0  0  0  0  0  0  0  0  0  0  0  0
   -1.1614   -1.0191    0.6659 C   0  0  0  0  0  0  0  0  0  0  0  0
   -3.9948   -1.0100   -1.3403 N   0  0  0  0  0  0  0  0  0  0  0  0
   -4.0649   -0.8020    1.1650 O   0  0  0  0  0  0  0  0  0  0  0  0
   -4.1341    1.2957   -0.2285 O   0  0  0  0  0  0  0  0  0  0  0  0
    0.1984    1.0328   -0.6548 C   0  0  0  0  0  0  0  0  0  0  0  0
    0.2345   -1.0062    0.6305 C   0  0  0  0  0  0  0  0  0  0  0  0
   -3.6179   -0.4780   -2.5937 C   0  0  0  0  0  0  0  0  0  0  0  0
    0.9253    0.0368    0.0059 C   0  0  0  0  0  0  0  0  0  0  0  0
   -2.3586   -0.7599   -2.9773 N   0  0  0  0  0  0  0  0  0  0  0  0
   -4.4828    0.2793   -3.3704 C   0  0  0  0  0  0  0  0  0  0  0  0
    2.3139   -0.0414   -0.1577 N   0  0  0  0  0  0  0  0  0  0  0  0
   -1.9919   -0.2324   -4.1752 C   0  0  0  0  0  0  0  0  0  0  0  0
   -4.1251    0.7798   -4.5803 N   0  0  0  0  0  0  0  0  0  0  0  0
   -2.8559    0.5141   -4.9620 C   0  0  0  0  0  0  0  0  0  0  0  0
   -1.7466    1.8211   -1.1394 H   0  0  0  0  0  0  0  0  0  0  0  0
   -1.6791   -1.8313    1.1697 H   0  0  0  0  0  0  0  0  0  0  0  0
   -3.6069   -1.9394   -1.2023 H   0  0  0  0  0  0  0  0  0  0  0  0
    0.7147    1.8110   -1.2111 H   0  0  0  0  0  0  0  0  0  0  0  0
    0.7804   -1.8246    1.0951 H   0  0  0  0  0  0  0  0  0  0  0  0
   -5.5013    0.4718   -3.0547 H   0  0  0  0  0  0  0  0  0  0  0  0
    2.7814   -0.5672    0.5742 H   0  0  0  0  0  0  0  0  0  0  0  0
    2.7553    0.8568   -0.3265 H   0  0  0  0  0  0  0  0  0  0  0  0
   -0.9712   -0.4254   -4.4901 H   0  0  0  0  0  0  0  0  0  0  0  0
   -2.5508    0.9185   -5.9210 H   0  0  0  0  0  0  0  0  0  0  0  0
  1  2  1  0  0  0  0
  1  3  2  0  0  0  0
  1  4  1  0  0  0  0
  2  5  1  0  0  0  0
  2  6  2  0  0  0  0
  2  7  2  0  0  0  0
  3  8  1  0  0  0  0
  3 18  1  0  0  0  0
  4  9  2  0  0  0  0
  4 19  1  0  0  0  0
  5 10  1  0  0  0  0
  5 20  1  0  0  0  0
  8 11  2  0  0  0  0
  8 21  1  0  0  0  0
  9 11  1  0  0  0  0
  9 22  1  0  0  0  0
 10 12  2  0  0  0  0
 10 13  1  0  0  0  0
 11 14  1  0  0  0  0
 12 15  1  0  0  0  0
 13 16  2  0  0  0  0
 13 23  1  0  0  0  0
 14 24  1  0  0  0  0
 14 25  1  0  0  0  0
 15 17  2  0  0  0  0
 15 26  1  0  0  0  0
 16 17  1  0  0  0  0
 17 27  1  0  0  0  0
M  END
>  <Mol_ID>
2075

>  <Formula>
C10H9ClN4O2S

>  <MolWeight>
284.72206

>  <Cat>
S4898

>  <Name>
Sulfalozine sodium

>  <Synonyms>
Sulfaclozine sodium, Sulfachlopryrazine sodium

>  <Target>
Parasite

>  <Form>
free base

>  <CAS>
102-65-8

>  <URL>
http://selleckchem.com/products/sulfalozine-sodium.html

$$$$
