S4893 Cytosine.cdx
 OpenBabel08302519543D

 13 13  0  0  0  0  0  0  0  0999 V2000
    0.0868    0.9876    0.0548 N   0  0  0  0  0  0  0  0  0  0  0  0
    1.1928    0.3046    0.0844 C   0  0  0  0  0  0  0  0  0  0  0  0
   -1.1107    0.3201    0.0046 C   0  0  0  0  0  0  0  0  0  0  0  0
    1.2403   -1.1756    0.0409 C   0  0  0  0  0  0  0  0  0  0  0  0
    2.3579    1.0148    0.1573 N   0  0  0  0  0  0  0  0  0  0  0  0
   -1.0871   -1.0547   -0.0121 N   0  0  0  0  0  0  0  0  0  0  0  0
   -2.1958    0.8946   -0.0268 O   0  0  0  0  0  0  0  0  0  0  0  0
    0.0586   -1.7899    0.0011 C   0  0  0  0  0  0  0  0  0  0  0  0
    2.1869   -1.6941    0.0556 H   0  0  0  0  0  0  0  0  0  0  0  0
    2.2332    1.9979   -0.0635 H   0  0  0  0  0  0  0  0  0  0  0  0
    3.1931    0.6053   -0.2408 H   0  0  0  0  0  0  0  0  0  0  0  0
   -1.9972   -1.4945   -0.0366 H   0  0  0  0  0  0  0  0  0  0  0  0
   -0.0446   -2.8689   -0.0215 H   0  0  0  0  0  0  0  0  0  0  0  0
  1  2  2  0  0  0  0
  1  3  1  0  0  0  0
  2  4  1  0  0  0  0
  2  5  1  0  0  0  0
  3  6  1  0  0  0  0
  3  7  2  0  0  0  0
  4  8  2  0  0  0  0
  4  9  1  0  0  0  0
  5 10  1  0  0  0  0
  5 11  1  0  0  0  0
  6  8  1  0  0  0  0
  6 12  1  0  0  0  0
  8 13  1  0  0  0  0
M  END
>  <Mol_ID>
2072

>  <Formula>
C4H5N3O

>  <MolWeight>
111.102

>  <Cat>
S4893

>  <Name>
Cytosine

>  <Synonyms>
4-Amino-2-hydroxypyrimidine, Cytosinimine

>  <Target>
Others

>  <Form>
free base

>  <CAS>
71-30-7

>  <URL>
http://selleckchem.com/products/cytosine.html

$$$$
