S4891 1-Aminohydantoin Hydrochloride.cdx
 OpenBabel08302520013D

 13 13  0  0  0  0  0  0  0  0999 V2000
   -0.7221   -0.9538    0.1552 C   0  0  0  0  0  0  0  0  0  0  0  0
    0.6739   -0.9440    0.2193 N   0  0  0  0  0  0  0  0  0  0  0  0
   -1.1327    0.3369    0.0588 N   0  0  0  0  0  0  0  0  0  0  0  0
   -1.4432   -1.9389    0.1751 O   0  0  0  0  0  0  0  0  0  0  0  0
    1.2238    0.3805    0.0747 C   0  0  0  0  0  0  0  0  0  0  0  0
    1.4575   -2.1034    0.1966 N   0  0  0  0  0  0  0  0  0  0  0  0
   -0.0671    1.1817    0.0014 C   0  0  0  0  0  0  0  0  0  0  0  0
   -0.1453    2.3968   -0.1026 O   0  0  0  0  0  0  0  0  0  0  0  0
   -2.0952    0.6203   -0.0029 H   0  0  0  0  0  0  0  0  0  0  0  0
    1.8052    0.6439    0.9605 H   0  0  0  0  0  0  0  0  0  0  0  0
    1.7887    0.4636   -0.8562 H   0  0  0  0  0  0  0  0  0  0  0  0
    1.7346   -2.3116    1.1602 H   0  0  0  0  0  0  0  0  0  0  0  0
    0.8346   -2.8827   -0.0553 H   0  0  0  0  0  0  0  0  0  0  0  0
  1  2  1  0  0  0  0
  1  3  1  0  0  0  0
  1  4  2  0  0  0  0
  2  5  1  0  0  0  0
  2  6  1  0  0  0  0
  3  7  1  0  0  0  0
  3  9  1  0  0  0  0
  5  7  1  0  0  0  0
  5 10  1  0  0  0  0
  5 11  1  0  0  0  0
  6 12  1  0  0  0  0
  6 13  1  0  0  0  0
  7  8  2  0  0  0  0
M  END
>  <Mol_ID>
3093

>  <Formula>
C3H6ClN3O2

>  <MolWeight>
151.55164

>  <Cat>
S4891

>  <Name>
1-Aminohydantoin Hydrochloride

>  <Synonyms>
N/A

>  <Target>
Others

>  <Form>
HCl

>  <CAS>
2827-56-7

>  <URL>
http://selleckchem.com/products/1-aminohydantoin-hydrochloride.html

$$$$
