S4892 Phenibut.cdx
 OpenBabel08302519533D

 26 26  0  0  0  0  0  0  0  0999 V2000
    1.0169   -0.1087   -0.0191 C   0  0  3  0  0  0  0  0  0  0  0  0
    0.5787    0.6768   -1.2516 C   0  0  0  0  0  0  0  0  0  0  0  0
    0.6159   -1.5949   -0.0205 C   0  0  0  0  0  0  0  0  0  0  0  0
    0.4975    0.6187    1.2449 C   0  0  0  0  0  0  0  0  0  0  0  0
   -0.6019    0.3912   -1.9534 C   0  0  0  0  0  0  0  0  0  0  0  0
    1.3655    1.7576   -1.6870 C   0  0  0  0  0  0  0  0  0  0  0  0
    1.1578   -2.3592   -1.2028 C   0  0  0  0  0  0  0  0  0  0  0  0
    0.9314   -0.0160    2.4923 N   0  0  0  0  0  0  0  0  0  0  0  0
   -0.9736    1.1497   -3.0661 C   0  0  0  0  0  0  0  0  0  0  0  0
    0.9878    2.5200   -2.7945 C   0  0  0  0  0  0  0  0  0  0  0  0
    2.5043   -2.4632   -1.2153 O   0  0  0  0  0  0  0  0  0  0  0  0
    0.4494   -2.8962   -2.0414 O   0  0  0  0  0  0  0  0  0  0  0  0
   -0.1810    2.2141   -3.4854 C   0  0  0  0  0  0  0  0  0  0  0  0
    2.1155   -0.0721    0.0073 H   0  0  0  0  0  0  0  0  0  0  0  0
    0.9811   -2.1110    0.8752 H   0  0  0  0  0  0  0  0  0  0  0  0
   -0.4742   -1.7111   -0.0059 H   0  0  0  0  0  0  0  0  0  0  0  0
    0.8730    1.6493    1.2499 H   0  0  0  0  0  0  0  0  0  0  0  0
   -0.5967    0.6826    1.2355 H   0  0  0  0  0  0  0  0  0  0  0  0
   -1.2520   -0.4299   -1.6617 H   0  0  0  0  0  0  0  0  0  0  0  0
    2.2828    2.0186   -1.1626 H   0  0  0  0  0  0  0  0  0  0  0  0
    0.6902    0.6009    3.2707 H   0  0  0  0  0  0  0  0  0  0  0  0
    0.3817   -0.8604    2.6553 H   0  0  0  0  0  0  0  0  0  0  0  0
   -1.8831    0.9026   -3.6082 H   0  0  0  0  0  0  0  0  0  0  0  0
    1.6073    3.3520   -3.1191 H   0  0  0  0  0  0  0  0  0  0  0  0
    2.9477   -2.0257   -0.4641 H   0  0  0  0  0  0  0  0  0  0  0  0
   -0.4738    2.8019   -4.3512 H   0  0  0  0  0  0  0  0  0  0  0  0
  1  2  1  0  0  0  0
  1  3  1  0  0  0  0
  1  4  1  0  0  0  0
  1 14  1  0  0  0  0
  2  5  2  0  0  0  0
  2  6  1  0  0  0  0
  3  7  1  0  0  0  0
  3 15  1  0  0  0  0
  3 16  1  0  0  0  0
  4  8  1  0  0  0  0
  4 17  1  0  0  0  0
  4 18  1  0  0  0  0
  5  9  1  0  0  0  0
  5 19  1  0  0  0  0
  6 10  2  0  0  0  0
  6 20  1  0  0  0  0
  7 11  1  0  0  0  0
  7 12  2  0  0  0  0
  8 21  1  0  0  0  0
  8 22  1  0  0  0  0
  9 13  2  0  0  0  0
  9 23  1  0  0  0  0
 10 13  1  0  0  0  0
 10 24  1  0  0  0  0
 11 25  1  0  0  0  0
 13 26  1  0  0  0  0
M  END
>  <Mol_ID>
2047

>  <Formula>
C10H13NO2

>  <MolWeight>
179.21572

>  <Cat>
S4892

>  <Name>
Phenibut

>  <Synonyms>
Aminophenylbutyric acid, Fenibut, Fenigam, Phenigam, Phenybut, PhGABA, ¦Â-Phenyl-¦Ã-aminobutyric acid, ¦Â-Phenyl-GABA

>  <Target>
GABA Receptor

>  <Form>
free base

>  <CAS>
1078-21-3

>  <URL>
http://selleckchem.com/products/phenibut.html

$$$$
