S4927 Cyclen.cdx
 OpenBabel08302519523D

 32 32  0  0  0  0  0  0  0  0999 V2000
   -1.8811   -1.4366   -0.3935 C   0  0  0  0  0  0  0  0  0  0  0  0
   -2.7941   -0.2815    0.0801 C   0  0  0  0  0  0  0  0  0  0  0  0
   -0.8502   -1.8253    0.5860 N   0  0  0  0  0  0  0  0  0  0  0  0
   -2.2648    1.0428   -0.2648 N   0  0  0  0  0  0  0  0  0  0  0  0
    0.2629   -2.5190   -0.0823 C   0  0  0  0  0  0  0  0  0  0  0  0
   -1.2595    1.5172    0.6986 C   0  0  0  0  0  0  0  0  0  0  0  0
    1.2864   -1.5303   -0.7006 C   0  0  0  0  0  0  0  0  0  0  0  0
   -0.2627    2.5012    0.0405 C   0  0  0  0  0  0  0  0  0  0  0  0
    2.1955   -1.0154    0.3358 N   0  0  0  0  0  0  0  0  0  0  0  0
    0.8789    1.8192   -0.5790 N   0  0  0  0  0  0  0  0  0  0  0  0
    2.7853    0.2785   -0.0366 C   0  0  0  0  0  0  0  0  0  0  0  0
    1.9264    1.4916    0.3944 C   0  0  0  0  0  0  0  0  0  0  0  0
   -1.4441   -1.1601   -1.3609 H   0  0  0  0  0  0  0  0  0  0  0  0
   -2.5089   -2.3166   -0.5866 H   0  0  0  0  0  0  0  0  0  0  0  0
   -3.7422   -0.3879   -0.4628 H   0  0  0  0  0  0  0  0  0  0  0  0
   -3.0445   -0.3620    1.1441 H   0  0  0  0  0  0  0  0  0  0  0  0
   -1.2753   -2.4553    1.2681 H   0  0  0  0  0  0  0  0  0  0  0  0
   -3.0262    1.7189   -0.2967 H   0  0  0  0  0  0  0  0  0  0  0  0
    0.7751   -3.1458    0.6576 H   0  0  0  0  0  0  0  0  0  0  0  0
   -0.1128   -3.2039   -0.8514 H   0  0  0  0  0  0  0  0  0  0  0  0
   -1.7850    2.0355    1.5097 H   0  0  0  0  0  0  0  0  0  0  0  0
   -0.7128    0.6963    1.1703 H   0  0  0  0  0  0  0  0  0  0  0  0
    0.7555   -0.7277   -1.2193 H   0  0  0  0  0  0  0  0  0  0  0  0
    1.8811   -2.0597   -1.4534 H   0  0  0  0  0  0  0  0  0  0  0  0
   -0.7832    3.0850   -0.7288 H   0  0  0  0  0  0  0  0  0  0  0  0
    0.0881    3.2296    0.7822 H   0  0  0  0  0  0  0  0  0  0  0  0
    1.6342   -0.8894    1.1805 H   0  0  0  0  0  0  0  0  0  0  0  0
    1.2728    2.3997   -1.3170 H   0  0  0  0  0  0  0  0  0  0  0  0
    3.0455    0.3220   -1.1014 H   0  0  0  0  0  0  0  0  0  0  0  0
    3.7360    0.3507    0.5053 H   0  0  0  0  0  0  0  0  0  0  0  0
    2.5782    2.3665    0.5093 H   0  0  0  0  0  0  0  0  0  0  0  0
    1.5094    1.2927    1.3897 H   0  0  0  0  0  0  0  0  0  0  0  0
  1  2  1  0  0  0  0
  1  3  1  0  0  0  0
  1 13  1  0  0  0  0
  1 14  1  0  0  0  0
  2  4  1  0  0  0  0
  2 15  1  0  0  0  0
  2 16  1  0  0  0  0
  3  5  1  0  0  0  0
  3 17  1  0  0  0  0
  4  6  1  0  0  0  0
  4 18  1  0  0  0  0
  5  7  1  0  0  0  0
  5 19  1  0  0  0  0
  5 20  1  0  0  0  0
  6  8  1  0  0  0  0
  6 21  1  0  0  0  0
  6 22  1  0  0  0  0
  7  9  1  0  0  0  0
  7 23  1  0  0  0  0
  7 24  1  0  0  0  0
  8 10  1  0  0  0  0
  8 25  1  0  0  0  0
  8 26  1  0  0  0  0
  9 11  1  0  0  0  0
  9 27  1  0  0  0  0
 10 12  1  0  0  0  0
 10 28  1  0  0  0  0
 11 12  1  0  0  0  0
 11 29  1  0  0  0  0
 11 30  1  0  0  0  0
 12 31  1  0  0  0  0
 12 32  1  0  0  0  0
M  END
>  <Mol_ID>
2006

>  <Formula>
C8H20N4

>  <MolWeight>
172.2712

>  <Cat>
S4927

>  <Name>
Cyclen

>  <Synonyms>
1,4,7,10-tetraazacyclododecane

>  <Target>
Others

>  <Form>
free base

>  <CAS>
294-90-6

>  <URL>
http://selleckchem.com/products/cyclen.html

$$$$
