S4932 Proxyphylline.cdx
 OpenBabel08302519533D

 31 32  0  0  0  0  0  0  0  0999 V2000
    0.1601    0.6718    0.1809 C   0  0  0  0  0  0  0  0  0  0  0  0
    0.2073   -0.6836    0.0595 C   0  0  0  0  0  0  0  0  0  0  0  0
    1.4581    1.0841    0.0669 N   0  0  0  0  0  0  0  0  0  0  0  0
   -1.0561    1.3904    0.3283 C   0  0  0  0  0  0  0  0  0  0  0  0
   -0.9344   -1.4494    0.0443 N   0  0  0  0  0  0  0  0  0  0  0  0
    1.4856   -1.1372   -0.0625 N   0  0  0  0  0  0  0  0  0  0  0  0
    2.2252   -0.0469   -0.0581 C   0  0  0  0  0  0  0  0  0  0  0  0
    1.9504    2.4427    0.0553 C   0  0  0  0  0  0  0  0  0  0  0  0
   -2.1867    0.5844    0.1849 N   0  0  0  0  0  0  0  0  0  0  0  0
   -1.1013    2.5993    0.5391 O   0  0  0  0  0  0  0  0  0  0  0  0
   -2.1821   -0.8188    0.0690 C   0  0  0  0  0  0  0  0  0  0  0  0
   -0.8411   -2.8942   -0.0557 C   0  0  0  0  0  0  0  0  0  0  0  0
    2.0256    3.0826   -1.3390 C   0  0  3  0  0  0  0  0  0  0  0  0
   -3.4586    1.2804    0.1525 C   0  0  0  0  0  0  0  0  0  0  0  0
   -3.2325   -1.4608   -0.0129 O   0  0  0  0  0  0  0  0  0  0  0  0
    0.6902    3.2020   -2.0649 C   0  0  0  0  0  0  0  0  0  0  0  0
    2.5856    4.3939   -1.2108 O   0  0  0  0  0  0  0  0  0  0  0  0
    3.3045   -0.0177   -0.1499 H   0  0  0  0  0  0  0  0  0  0  0  0
    1.3430    3.0463    0.7376 H   0  0  0  0  0  0  0  0  0  0  0  0
    2.9537    2.4297    0.5006 H   0  0  0  0  0  0  0  0  0  0  0  0
   -0.3222   -3.1578   -0.9835 H   0  0  0  0  0  0  0  0  0  0  0  0
   -0.2785   -3.2747    0.8030 H   0  0  0  0  0  0  0  0  0  0  0  0
   -1.8246   -3.3662   -0.0602 H   0  0  0  0  0  0  0  0  0  0  0  0
    2.7122    2.5045   -1.9678 H   0  0  0  0  0  0  0  0  0  0  0  0
   -3.5609    1.8930    1.0538 H   0  0  0  0  0  0  0  0  0  0  0  0
   -3.4621    1.9491   -0.7160 H   0  0  0  0  0  0  0  0  0  0  0  0
   -4.3131    0.6045    0.0787 H   0  0  0  0  0  0  0  0  0  0  0  0
   -0.0288    3.7826   -1.4782 H   0  0  0  0  0  0  0  0  0  0  0  0
    0.8178    3.7411   -3.0098 H   0  0  0  0  0  0  0  0  0  0  0  0
    0.2588    2.2228   -2.2912 H   0  0  0  0  0  0  0  0  0  0  0  0
    1.9060    4.9773   -0.8258 H   0  0  0  0  0  0  0  0  0  0  0  0
  1  2  2  0  0  0  0
  1  3  1  0  0  0  0
  1  4  1  0  0  0  0
  2  5  1  0  0  0  0
  2  6  1  0  0  0  0
  3  7  1  0  0  0  0
  3  8  1  0  0  0  0
  4  9  1  0  0  0  0
  4 10  2  0  0  0  0
  5 11  1  0  0  0  0
  5 12  1  0  0  0  0
  6  7  2  0  0  0  0
  7 18  1  0  0  0  0
  8 13  1  0  0  0  0
  8 19  1  0  0  0  0
  8 20  1  0  0  0  0
  9 14  1  0  0  0  0
  9 11  1  0  0  0  0
 11 15  2  0  0  0  0
 12 21  1  0  0  0  0
 12 22  1  0  0  0  0
 12 23  1  0  0  0  0
 13 16  1  0  0  0  0
 13 17  1  0  0  0  0
 13 24  1  0  0  0  0
 14 25  1  0  0  0  0
 14 26  1  0  0  0  0
 14 27  1  0  0  0  0
 16 28  1  0  0  0  0
 16 29  1  0  0  0  0
 16 30  1  0  0  0  0
 17 31  1  0  0  0  0
M  END
>  <Mol_ID>
2035

>  <Formula>
C10H14N4O3

>  <MolWeight>
238.24316

>  <Cat>
S4932

>  <Name>
Proxyphylline

>  <Synonyms>
Monophylline, Spasmolysin

>  <Target>
Adenosine Receptor

>  <Form>
free base

>  <CAS>
603-00-9

>  <URL>
http://selleckchem.com/products/proxyphylline.html

$$$$
