S4939 cis-Aconitic acid.cdx
 OpenBabel08302519553D

 18 17  0  0  0  0  0  0  0  0999 V2000
    1.1395    0.0633    0.0194 C   0  0  0  0  0  0  0  0  0  0  0  0
    0.1776    0.0252   -1.1040 C   0  0  0  0  0  0  0  0  0  0  0  0
   -1.1659    0.0736   -1.2031 C   0  0  0  0  0  0  0  0  0  0  0  0
   -2.1467    0.1157   -0.0997 C   0  0  0  0  0  0  0  0  0  0  0  0
   -1.8341    0.0687   -2.5645 C   0  0  0  0  0  0  0  0  0  0  0  0
   -2.7496   -1.1265   -2.7128 C   0  0  0  0  0  0  0  0  0  0  0  0
    2.3053   -0.2590   -0.1608 O   0  0  0  0  0  0  0  0  0  0  0  0
    0.7137    0.5993    1.1671 O   0  0  0  0  0  0  0  0  0  0  0  0
   -3.3317    0.3712   -0.2211 O   0  0  0  0  0  0  0  0  0  0  0  0
   -1.6345   -0.2057    1.0969 O   0  0  0  0  0  0  0  0  0  0  0  0
   -2.6315   -2.2108   -2.1661 O   0  0  0  0  0  0  0  0  0  0  0  0
   -3.7493   -0.9015   -3.5882 O   0  0  0  0  0  0  0  0  0  0  0  0
    0.7413   -0.0613   -2.0313 H   0  0  0  0  0  0  0  0  0  0  0  0
   -2.4167    0.9914   -2.6809 H   0  0  0  0  0  0  0  0  0  0  0  0
   -1.1054    0.0302   -3.3818 H   0  0  0  0  0  0  0  0  0  0  0  0
   -0.2550    0.5318    1.2777 H   0  0  0  0  0  0  0  0  0  0  0  0
   -2.4356   -0.3047    1.6665 H   0  0  0  0  0  0  0  0  0  0  0  0
   -4.2853   -1.7231   -3.5638 H   0  0  0  0  0  0  0  0  0  0  0  0
  1  2  1  0  0  0  0
  1  7  2  0  0  0  0
  1  8  1  0  0  0  0
  2  3  2  0  0  0  0
  2 13  1  0  0  0  0
  3  4  1  0  0  0  0
  3  5  1  0  0  0  0
  4  9  2  0  0  0  0
  4 10  1  0  0  0  0
  5  6  1  0  0  0  0
  5 14  1  0  0  0  0
  5 15  1  0  0  0  0
  6 11  2  0  0  0  0
  6 12  1  0  0  0  0
  8 16  1  0  0  0  0
 10 17  1  0  0  0  0
 12 18  1  0  0  0  0
M  END
>  <Mol_ID>
2079

>  <Formula>
C6H6O6

>  <MolWeight>
174.10824

>  <Cat>
S4939

>  <Name>
cis-Aconitic acid

>  <Synonyms>
cis-aconitate, Achilleic acid, Citridinic acid, Equisetic acid, Pyrocitric acid

>  <Target>
Others

>  <Form>
free base

>  <CAS>
585-84-2

>  <URL>
http://selleckchem.com/products/cis-aconitic-acid.html

$$$$
