S4938 Cedrol.cdx
 OpenBabel08302519543D

 42 44  0  0  0  0  0  0  0  0999 V2000
    0.7761   -0.8489   -0.3077 C   0  0  2  0  0  0  0  0  0  0  0  0
    0.7744    0.2886    0.7581 C   0  0  2  0  0  0  0  0  0  0  0  0
   -0.2126   -0.3482   -1.3760 C   0  0  0  0  0  0  0  0  0  0  0  0
    0.2410   -2.1394    0.3555 C   0  0  0  0  0  0  0  0  0  0  0  0
    2.2066   -0.8987   -0.8884 C   0  0  1  0  0  0  0  0  0  0  0  0
   -0.5728    1.0477    0.5424 C   0  0  0  0  0  0  0  0  0  0  0  0
    2.1142    1.0194    0.5910 C   0  0  0  0  0  0  0  0  0  0  0  0
   -1.3563    0.1496   -0.4927 C   0  0  2  0  0  0  0  0  0  0  0  0
   -1.2717   -2.3654    0.2199 C   0  0  0  0  0  0  0  0  0  0  0  0
    2.7023    0.5450   -0.7294 C   0  0  0  0  0  0  0  0  0  0  0  0
    3.1605   -1.8908   -0.2275 C   0  0  0  0  0  0  0  0  0  0  0  0
   -1.2767    1.2701    1.8909 C   0  0  0  0  0  0  0  0  0  0  0  0
   -0.3917    2.4579   -0.0730 C   0  0  0  0  0  0  0  0  0  0  0  0
   -2.1472   -1.1090   -0.0310 C   0  0  2  0  0  0  0  0  0  0  0  0
   -3.1750   -1.4777   -1.1305 C   0  0  0  0  0  0  0  0  0  0  0  0
   -2.9583   -0.8281    1.1064 O   0  0  0  0  0  0  0  0  0  0  0  0
    0.7853   -0.1254    1.7747 H   0  0  0  0  0  0  0  0  0  0  0  0
    0.1956    0.4691   -1.9799 H   0  0  0  0  0  0  0  0  0  0  0  0
   -0.4967   -1.1354   -2.0811 H   0  0  0  0  0  0  0  0  0  0  0  0
    0.5056   -2.1693    1.4203 H   0  0  0  0  0  0  0  0  0  0  0  0
    0.7293   -3.0215   -0.0780 H   0  0  0  0  0  0  0  0  0  0  0  0
    2.1758   -1.1497   -1.9569 H   0  0  0  0  0  0  0  0  0  0  0  0
    2.7864    0.7047    1.4023 H   0  0  0  0  0  0  0  0  0  0  0  0
    2.0600    2.1087    0.6548 H   0  0  0  0  0  0  0  0  0  0  0  0
   -2.0358    0.7923   -1.0644 H   0  0  0  0  0  0  0  0  0  0  0  0
   -1.6310   -2.9357    1.0822 H   0  0  0  0  0  0  0  0  0  0  0  0
   -1.3855   -3.0483   -0.6358 H   0  0  0  0  0  0  0  0  0  0  0  0
    3.7943    0.6252   -0.7414 H   0  0  0  0  0  0  0  0  0  0  0  0
    2.3237    1.1680   -1.5475 H   0  0  0  0  0  0  0  0  0  0  0  0
    2.8864   -2.9217   -0.4867 H   0  0  0  0  0  0  0  0  0  0  0  0
    4.1831   -1.7416   -0.5915 H   0  0  0  0  0  0  0  0  0  0  0  0
    3.1652   -1.7989    0.8589 H   0  0  0  0  0  0  0  0  0  0  0  0
   -1.3120    0.3614    2.4978 H   0  0  0  0  0  0  0  0  0  0  0  0
   -0.7390    2.0114    2.4940 H   0  0  0  0  0  0  0  0  0  0  0  0
   -2.2975    1.6408    1.7495 H   0  0  0  0  0  0  0  0  0  0  0  0
    0.1108    3.1404    0.6215 H   0  0  0  0  0  0  0  0  0  0  0  0
   -1.3652    2.9061   -0.3058 H   0  0  0  0  0  0  0  0  0  0  0  0
    0.1879    2.4427   -1.0001 H   0  0  0  0  0  0  0  0  0  0  0  0
   -3.8158   -2.3054   -0.8005 H   0  0  0  0  0  0  0  0  0  0  0  0
   -3.8482   -0.6359   -1.3368 H   0  0  0  0  0  0  0  0  0  0  0  0
   -2.6962   -1.7691   -2.0703 H   0  0  0  0  0  0  0  0  0  0  0  0
   -2.5332   -1.2032    1.8953 H   0  0  0  0  0  0  0  0  0  0  0  0
  1  2  1  0  0  0  0
  1  3  1  6  0  0  0
  1  4  1  0  0  0  0
  1  5  1  0  0  0  0
  2  6  1  0  0  0  0
  2  7  1  0  0  0  0
  2 17  1  1  0  0  0
  3 18  1  0  0  0  0
  3 19  1  0  0  0  0
  4  9  1  0  0  0  0
  4 20  1  0  0  0  0
  4 21  1  0  0  0  0
  5 10  1  0  0  0  0
  5 11  1  0  0  0  0
  5 22  1  6  0  0  0
  6 12  1  0  0  0  0
  6 13  1  0  0  0  0
  7 10  1  0  0  0  0
  7 23  1  0  0  0  0
  7 24  1  0  0  0  0
  8  3  1  0  0  0  0
  8  6  1  0  0  0  0
  8 14  1  0  0  0  0
  8 25  1  6  0  0  0
  9 14  1  0  0  0  0
  9 26  1  0  0  0  0
  9 27  1  0  0  0  0
 10 28  1  0  0  0  0
 10 29  1  0  0  0  0
 11 30  1  0  0  0  0
 11 31  1  0  0  0  0
 11 32  1  0  0  0  0
 12 33  1  0  0  0  0
 12 34  1  0  0  0  0
 12 35  1  0  0  0  0
 13 36  1  0  0  0  0
 13 37  1  0  0  0  0
 13 38  1  0  0  0  0
 14 15  1  0  0  0  0
 14 16  1  1  0  0  0
 15 39  1  0  0  0  0
 15 40  1  0  0  0  0
 15 41  1  0  0  0  0
 16 42  1  0  0  0  0
M  END
>  <Mol_ID>
2078

>  <Formula>
C15H26O

>  <MolWeight>
222.36634

>  <Cat>
S4938

>  <Name>
Cedrol

>  <Synonyms>
N/A

>  <Target>
P450 (e.g. CYP17)

>  <Form>
free base

>  <CAS>
77-53-2

>  <URL>
http://selleckchem.com/products/cedrol.html

$$$$
