S4936 Antiarol.cdx
 OpenBabel08302519543D

 25 25  0  0  0  0  0  0  0  0999 V2000
    0.9181   -0.1740    0.1491 C   0  0  0  0  0  0  0  0  0  0  0  0
    0.1089   -1.3305    0.0379 C   0  0  0  0  0  0  0  0  0  0  0  0
    0.2936    1.0959    0.0896 C   0  0  0  0  0  0  0  0  0  0  0  0
    2.2744   -0.1458    0.3182 O   0  0  0  0  0  0  0  0  0  0  0  0
   -1.2891   -1.2004   -0.0891 C   0  0  0  0  0  0  0  0  0  0  0  0
    0.6794   -2.5793    0.1139 O   0  0  0  0  0  0  0  0  0  0  0  0
   -1.0961    1.1918   -0.0603 C   0  0  0  0  0  0  0  0  0  0  0  0
    0.8620    2.3457    0.1534 O   0  0  0  0  0  0  0  0  0  0  0  0
    3.0783   -1.3103    0.2773 C   0  0  0  0  0  0  0  0  0  0  0  0
   -1.8749    0.0541   -0.1383 C   0  0  0  0  0  0  0  0  0  0  0  0
    0.0183   -3.6138   -0.6177 C   0  0  0  0  0  0  0  0  0  0  0  0
    2.2615    2.4869    0.3218 C   0  0  0  0  0  0  0  0  0  0  0  0
   -3.2236    0.2092   -0.2574 O   0  0  0  0  0  0  0  0  0  0  0  0
   -1.9283   -2.0704   -0.1385 H   0  0  0  0  0  0  0  0  0  0  0  0
   -1.5676    2.1696   -0.1050 H   0  0  0  0  0  0  0  0  0  0  0  0
    3.1045   -1.7910    1.2603 H   0  0  0  0  0  0  0  0  0  0  0  0
    2.8025   -2.0056   -0.5161 H   0  0  0  0  0  0  0  0  0  0  0  0
    4.0982   -0.9821    0.0469 H   0  0  0  0  0  0  0  0  0  0  0  0
   -0.8871   -3.9463   -0.0986 H   0  0  0  0  0  0  0  0  0  0  0  0
   -0.2109   -3.3022   -1.6441 H   0  0  0  0  0  0  0  0  0  0  0  0
    0.6920   -4.4734   -0.6735 H   0  0  0  0  0  0  0  0  0  0  0  0
    2.5813    2.1234    1.3035 H   0  0  0  0  0  0  0  0  0  0  0  0
    2.8183    2.0203   -0.4967 H   0  0  0  0  0  0  0  0  0  0  0  0
    2.4870    3.5579    0.2841 H   0  0  0  0  0  0  0  0  0  0  0  0
   -3.6511   -0.6610   -0.2149 H   0  0  0  0  0  0  0  0  0  0  0  0
  1  2  2  0  0  0  0
  1  3  1  0  0  0  0
  1  4  1  0  0  0  0
  2  5  1  0  0  0  0
  2  6  1  0  0  0  0
  3  7  2  0  0  0  0
  3  8  1  0  0  0  0
  4  9  1  0  0  0  0
  5 10  2  0  0  0  0
  5 14  1  0  0  0  0
  6 11  1  0  0  0  0
  7 10  1  0  0  0  0
  7 15  1  0  0  0  0
  8 12  1  0  0  0  0
  9 16  1  0  0  0  0
  9 17  1  0  0  0  0
  9 18  1  0  0  0  0
 10 13  1  0  0  0  0
 11 19  1  0  0  0  0
 11 20  1  0  0  0  0
 11 21  1  0  0  0  0
 12 22  1  0  0  0  0
 12 23  1  0  0  0  0
 12 24  1  0  0  0  0
 13 25  1  0  0  0  0
M  END
>  <Mol_ID>
2077

>  <Formula>
C9H12O4

>  <MolWeight>
184.18918

>  <Cat>
S4936

>  <Name>
Antiarol

>  <Synonyms>
3,4,5-trimethoxyphenol

>  <Target>
Others

>  <Form>
free base

>  <CAS>
642-71-7

>  <URL>
http://selleckchem.com/products/antiarol.html

$$$$
