S4943 Isovanillin.cdx
 OpenBabel08302519533D

 19 19  0  0  0  0  0  0  0  0999 V2000
   -1.2441   -1.1823   -0.0056 C   0  0  0  0  0  0  0  0  0  0  0  0
    0.1504   -1.2661    0.0043 C   0  0  0  0  0  0  0  0  0  0  0  0
   -1.8756    0.0607   -0.0122 C   0  0  0  0  0  0  0  0  0  0  0  0
   -2.0543   -2.4162   -0.0078 C   0  0  0  0  0  0  0  0  0  0  0  0
    0.9206   -0.0997    0.0102 C   0  0  0  0  0  0  0  0  0  0  0  0
   -1.0980    1.2223   -0.0020 C   0  0  0  0  0  0  0  0  0  0  0  0
   -1.5398   -3.5288   -0.0053 O   0  0  0  0  0  0  0  0  0  0  0  0
    0.3046    1.1592    0.0119 C   0  0  0  0  0  0  0  0  0  0  0  0
    2.2820   -0.2295    0.0135 O   0  0  0  0  0  0  0  0  0  0  0  0
    0.8982    2.3926    0.0256 O   0  0  0  0  0  0  0  0  0  0  0  0
    2.3185    2.4453    0.0440 C   0  0  0  0  0  0  0  0  0  0  0  0
    0.6226   -2.2455    0.0094 H   0  0  0  0  0  0  0  0  0  0  0  0
   -2.9594    0.1434   -0.0236 H   0  0  0  0  0  0  0  0  0  0  0  0
   -3.1493   -2.2906   -0.0116 H   0  0  0  0  0  0  0  0  0  0  0  0
   -1.5874    2.1951   -0.0045 H   0  0  0  0  0  0  0  0  0  0  0  0
    2.5196   -1.1709   -0.0208 H   0  0  0  0  0  0  0  0  0  0  0  0
    2.7236    1.9740    0.9454 H   0  0  0  0  0  0  0  0  0  0  0  0
    2.7405    2.0176   -0.8711 H   0  0  0  0  0  0  0  0  0  0  0  0
    2.6135    3.4985    0.0737 H   0  0  0  0  0  0  0  0  0  0  0  0
  1  2  2  0  0  0  0
  1  3  1  0  0  0  0
  1  4  1  0  0  0  0
  2  5  1  0  0  0  0
  2 12  1  0  0  0  0
  3  6  2  0  0  0  0
  3 13  1  0  0  0  0
  4  7  2  0  0  0  0
  4 14  1  0  0  0  0
  5  8  2  0  0  0  0
  5  9  1  0  0  0  0
  6  8  1  0  0  0  0
  6 15  1  0  0  0  0
  8 10  1  0  0  0  0
  9 16  1  0  0  0  0
 10 11  1  0  0  0  0
 11 17  1  0  0  0  0
 11 18  1  0  0  0  0
 11 19  1  0  0  0  0
M  END
>  <Mol_ID>
2049

>  <Formula>
C8H8O3

>  <MolWeight>
152.14732

>  <Cat>
s4943

>  <Name>
Isovanillin

>  <Synonyms>
5-Formylguaiacol, 3-Hydroxy-p-anisaldehyde, 3-Hydroxy-4-methoxybenzaldehyde

>  <Target>
Others

>  <Form>
free base

>  <CAS>
621-59-0

>  <URL>
http://selleckchem.com/products/lsovanillin.html

$$$$
