S4941 Farnesol.cdx
 OpenBabel08302520013D

 42 41  0  0  0  0  0  0  0  0999 V2000
   -3.0348    2.0151    3.5611 C   0  0  0  0  0  0  0  0  0  0  0  0
   -2.4584    0.9054    2.7400 C   0  0  0  0  0  0  0  0  0  0  0  0
   -2.8879   -0.3688    2.6129 C   0  0  0  0  0  0  0  0  0  0  0  0
   -4.0974   -0.9335    3.3070 C   0  0  0  0  0  0  0  0  0  0  0  0
   -2.1744   -1.3258    1.6668 C   0  0  0  0  0  0  0  0  0  0  0  0
   -1.6062   -2.5972    2.3240 C   0  0  0  0  0  0  0  0  0  0  0  0
   -0.8586   -3.4439    1.3166 C   0  0  0  0  0  0  0  0  0  0  0  0
   -0.6877   -4.7824    1.3067 C   0  0  0  0  0  0  0  0  0  0  0  0
   -1.2020   -5.7074    2.3755 C   0  0  0  0  0  0  0  0  0  0  0  0
    0.1554   -5.4145    0.2019 C   0  0  0  0  0  0  0  0  0  0  0  0
   -0.2759   -6.8141   -0.2695 C   0  0  0  0  0  0  0  0  0  0  0  0
    0.6013   -7.2997   -1.3967 C   0  0  0  0  0  0  0  0  0  0  0  0
    1.3606   -8.4154   -1.4099 C   0  0  0  0  0  0  0  0  0  0  0  0
    2.2123   -8.7648   -2.6003 C   0  0  0  0  0  0  0  0  0  0  0  0
    1.4253   -9.3870   -0.2647 C   0  0  0  0  0  0  0  0  0  0  0  0
   -3.2937    3.1143    2.6980 O   0  0  0  0  0  0  0  0  0  0  0  0
   -2.3108    2.3395    4.3141 H   0  0  0  0  0  0  0  0  0  0  0  0
   -3.9645    1.7611    4.0726 H   0  0  0  0  0  0  0  0  0  0  0  0
   -1.5720    1.2107    2.1830 H   0  0  0  0  0  0  0  0  0  0  0  0
   -4.7374   -1.4524    2.5858 H   0  0  0  0  0  0  0  0  0  0  0  0
   -3.7933   -1.6477    4.0786 H   0  0  0  0  0  0  0  0  0  0  0  0
   -4.7170   -0.1729    3.7868 H   0  0  0  0  0  0  0  0  0  0  0  0
   -2.8787   -1.6105    0.8730 H   0  0  0  0  0  0  0  0  0  0  0  0
   -1.3542   -0.7966    1.1618 H   0  0  0  0  0  0  0  0  0  0  0  0
   -0.9113   -2.3103    3.1224 H   0  0  0  0  0  0  0  0  0  0  0  0
   -2.4232   -3.1673    2.7772 H   0  0  0  0  0  0  0  0  0  0  0  0
   -0.3769   -2.8695    0.5228 H   0  0  0  0  0  0  0  0  0  0  0  0
   -1.9104   -6.4290    1.9520 H   0  0  0  0  0  0  0  0  0  0  0  0
   -0.3713   -6.2600    2.8252 H   0  0  0  0  0  0  0  0  0  0  0  0
   -1.7195   -5.1879    3.1849 H   0  0  0  0  0  0  0  0  0  0  0  0
    0.1586   -4.7467   -0.6723 H   0  0  0  0  0  0  0  0  0  0  0  0
    1.1911   -5.4642    0.5602 H   0  0  0  0  0  0  0  0  0  0  0  0
   -0.2443   -7.5135    0.5722 H   0  0  0  0  0  0  0  0  0  0  0  0
   -1.3132   -6.7878   -0.6240 H   0  0  0  0  0  0  0  0  0  0  0  0
    0.6035   -6.6609   -2.2796 H   0  0  0  0  0  0  0  0  0  0  0  0
    3.2634   -8.8464   -2.3023 H   0  0  0  0  0  0  0  0  0  0  0  0
    1.8963   -9.7231   -3.0256 H   0  0  0  0  0  0  0  0  0  0  0  0
    2.1510   -8.0109   -3.3919 H   0  0  0  0  0  0  0  0  0  0  0  0
    1.8304   -8.9062    0.6310 H   0  0  0  0  0  0  0  0  0  0  0  0
    0.4327   -9.7921   -0.0429 H   0  0  0  0  0  0  0  0  0  0  0  0
    2.0748  -10.2374   -0.5016 H   0  0  0  0  0  0  0  0  0  0  0  0
   -3.8842    2.7861    1.9985 H   0  0  0  0  0  0  0  0  0  0  0  0
  1  2  1  0  0  0  0
  1 16  1  0  0  0  0
  1 17  1  0  0  0  0
  1 18  1  0  0  0  0
  2  3  2  0  0  0  0
  2 19  1  0  0  0  0
  3  4  1  0  0  0  0
  3  5  1  0  0  0  0
  4 20  1  0  0  0  0
  4 21  1  0  0  0  0
  4 22  1  0  0  0  0
  5  6  1  0  0  0  0
  5 23  1  0  0  0  0
  5 24  1  0  0  0  0
  6  7  1  0  0  0  0
  6 25  1  0  0  0  0
  6 26  1  0  0  0  0
  7  8  2  0  0  0  0
  7 27  1  0  0  0  0
  8  9  1  0  0  0  0
  8 10  1  0  0  0  0
  9 28  1  0  0  0  0
  9 29  1  0  0  0  0
  9 30  1  0  0  0  0
 10 11  1  0  0  0  0
 10 31  1  0  0  0  0
 10 32  1  0  0  0  0
 11 12  1  0  0  0  0
 11 33  1  0  0  0  0
 11 34  1  0  0  0  0
 12 13  2  0  0  0  0
 12 35  1  0  0  0  0
 13 14  1  0  0  0  0
 13 15  1  0  0  0  0
 14 36  1  0  0  0  0
 14 37  1  0  0  0  0
 14 38  1  0  0  0  0
 15 39  1  0  0  0  0
 15 40  1  0  0  0  0
 15 41  1  0  0  0  0
 16 42  1  0  0  0  0
M  END
>  <Mol_ID>
2838

>  <Formula>
C15H26O

>  <MolWeight>
222.36634

>  <Cat>
S4941

>  <Name>
Farnesol

>  <Synonyms>
N/A

>  <Target>
Antibiotics

>  <Form>
free base

>  <CAS>
4602-84-0

>  <URL>
http://selleckchem.com/products/farnesol.html

$$$$
