S4949 Nonanoic acid.cdx
 OpenBabel08302520013D

 29 28  0  0  0  0  0  0  0  0999 V2000
    1.0457    0.0356    0.0612 C   0  0  0  0  0  0  0  0  0  0  0  0
    0.5558   -0.5636    1.3828 C   0  0  0  0  0  0  0  0  0  0  0  0
    0.5814   -0.7541   -1.1687 C   0  0  0  0  0  0  0  0  0  0  0  0
    1.0759    0.1596    2.6305 C   0  0  0  0  0  0  0  0  0  0  0  0
   -0.9388   -0.7713   -1.3473 C   0  0  0  0  0  0  0  0  0  0  0  0
    0.7120    1.6423    2.7556 C   0  0  0  0  0  0  0  0  0  0  0  0
   -1.3542   -1.4984   -2.6065 C   0  0  0  0  0  0  0  0  0  0  0  0
   -0.7944    1.9120    2.7873 C   0  0  0  0  0  0  0  0  0  0  0  0
   -2.6995   -1.5305   -2.7565 O   0  0  0  0  0  0  0  0  0  0  0  0
   -0.5957   -2.0101   -3.4131 O   0  0  0  0  0  0  0  0  0  0  0  0
   -1.0830    3.3937    2.9829 C   0  0  0  0  0  0  0  0  0  0  0  0
    2.1424    0.0534    0.0619 H   0  0  0  0  0  0  0  0  0  0  0  0
    0.7105    1.0741   -0.0357 H   0  0  0  0  0  0  0  0  0  0  0  0
   -0.5374   -0.5834    1.4129 H   0  0  0  0  0  0  0  0  0  0  0  0
    0.8853   -1.6092    1.4365 H   0  0  0  0  0  0  0  0  0  0  0  0
    1.0420   -0.3089   -2.0601 H   0  0  0  0  0  0  0  0  0  0  0  0
    0.9577   -1.7833   -1.1112 H   0  0  0  0  0  0  0  0  0  0  0  0
    0.6998   -0.3714    3.5128 H   0  0  0  0  0  0  0  0  0  0  0  0
    2.1694    0.0689    2.6631 H   0  0  0  0  0  0  0  0  0  0  0  0
   -1.4128   -1.2838   -0.5043 H   0  0  0  0  0  0  0  0  0  0  0  0
   -1.3161    0.2556   -1.4045 H   0  0  0  0  0  0  0  0  0  0  0  0
    1.1539    2.0174    3.6884 H   0  0  0  0  0  0  0  0  0  0  0  0
    1.1748    2.2118    1.9437 H   0  0  0  0  0  0  0  0  0  0  0  0
   -1.2599    1.5856    1.8510 H   0  0  0  0  0  0  0  0  0  0  0  0
   -1.2591    1.3440    3.6008 H   0  0  0  0  0  0  0  0  0  0  0  0
   -3.1859   -1.0874   -2.0356 H   0  0  0  0  0  0  0  0  0  0  0  0
   -0.6539    3.9862    2.1698 H   0  0  0  0  0  0  0  0  0  0  0  0
   -2.1618    3.5719    3.0003 H   0  0  0  0  0  0  0  0  0  0  0  0
   -0.6641    3.7549    3.9288 H   0  0  0  0  0  0  0  0  0  0  0  0
  1  2  1  0  0  0  0
  1  3  1  0  0  0  0
  1 12  1  0  0  0  0
  1 13  1  0  0  0  0
  2  4  1  0  0  0  0
  2 14  1  0  0  0  0
  2 15  1  0  0  0  0
  3  5  1  0  0  0  0
  3 16  1  0  0  0  0
  3 17  1  0  0  0  0
  4  6  1  0  0  0  0
  4 18  1  0  0  0  0
  4 19  1  0  0  0  0
  5  7  1  0  0  0  0
  5 20  1  0  0  0  0
  5 21  1  0  0  0  0
  6  8  1  0  0  0  0
  6 22  1  0  0  0  0
  6 23  1  0  0  0  0
  7  9  1  0  0  0  0
  7 10  2  0  0  0  0
  8 11  1  0  0  0  0
  8 24  1  0  0  0  0
  8 25  1  0  0  0  0
  9 26  1  0  0  0  0
 11 27  1  0  0  0  0
 11 28  1  0  0  0  0
 11 29  1  0  0  0  0
M  END
>  <Mol_ID>
2839

>  <Formula>
C9H18O2

>  <MolWeight>
158.23802

>  <Cat>
s4949

>  <Name>
Nonanoic acid

>  <Synonyms>
Pelargonic acid, Nonoic acid

>  <Target>
Others

>  <Form>
free base

>  <CAS>
112-05-0

>  <URL>
http://selleckchem.com/products/nonanoic-acid.html

$$$$
