S4940 Maltol.cdx
 OpenBabel08302519533D

 15 15  0  0  0  0  0  0  0  0999 V2000
    1.2882   -0.7228    0.0165 C   0  0  0  0  0  0  0  0  0  0  0  0
    0.0029   -1.4664    0.1037 C   0  0  0  0  0  0  0  0  0  0  0  0
    1.2532    0.6146   -0.1003 C   0  0  0  0  0  0  0  0  0  0  0  0
    2.4598   -1.4534    0.0585 O   0  0  0  0  0  0  0  0  0  0  0  0
   -1.2371   -0.6780    0.0499 C   0  0  0  0  0  0  0  0  0  0  0  0
   -0.0005   -2.6886    0.2126 O   0  0  0  0  0  0  0  0  0  0  0  0
    0.0631    1.3334   -0.1350 O   0  0  0  0  0  0  0  0  0  0  0  0
    2.4727    1.4749   -0.2127 C   0  0  0  0  0  0  0  0  0  0  0  0
   -1.1253    0.6475   -0.0613 C   0  0  0  0  0  0  0  0  0  0  0  0
    2.1712   -2.3864    0.1520 H   0  0  0  0  0  0  0  0  0  0  0  0
   -2.1817   -1.1997    0.1029 H   0  0  0  0  0  0  0  0  0  0  0  0
    2.4366    2.0558   -1.1399 H   0  0  0  0  0  0  0  0  0  0  0  0
    2.5201    2.1736    0.6290 H   0  0  0  0  0  0  0  0  0  0  0  0
    3.4011    0.8955   -0.2202 H   0  0  0  0  0  0  0  0  0  0  0  0
   -1.9669    1.3255   -0.1072 H   0  0  0  0  0  0  0  0  0  0  0  0
  1  2  1  0  0  0  0
  1  3  2  0  0  0  0
  1  4  1  0  0  0  0
  2  5  1  0  0  0  0
  2  6  2  0  0  0  0
  3  7  1  0  0  0  0
  3  8  1  0  0  0  0
  4 10  1  0  0  0  0
  5  9  2  0  0  0  0
  5 11  1  0  0  0  0
  7  9  1  0  0  0  0
  8 12  1  0  0  0  0
  8 13  1  0  0  0  0
  8 14  1  0  0  0  0
  9 15  1  0  0  0  0
M  END
>  <Mol_ID>
2048

>  <Formula>
C6H6O3

>  <MolWeight>
126.11004

>  <Cat>
S4940

>  <Name>
Maltol

>  <Synonyms>
Larixinic acid, Palatone, Veltol

>  <Target>
Antioxidant

>  <Form>
Pyrone

>  <CAS>
118-71-8

>  <URL>
http://selleckchem.com/products/maltol.html

$$$$
