S4942 4-Hydroxy-3,5-dimethoxybenzyl alcohol.cdx
 OpenBabel08302519553D

 25 25  0  0  0  0  0  0  0  0999 V2000
    0.9528   -0.1164    0.0214 C   0  0  0  0  0  0  0  0  0  0  0  0
    0.2184   -1.3146   -0.0345 C   0  0  0  0  0  0  0  0  0  0  0  0
    0.2613    1.1058    0.0404 C   0  0  0  0  0  0  0  0  0  0  0  0
    2.3035    0.0967    0.0529 O   0  0  0  0  0  0  0  0  0  0  0  0
   -1.1909   -1.2729   -0.0472 C   0  0  0  0  0  0  0  0  0  0  0  0
    0.8355   -2.5327   -0.0951 O   0  0  0  0  0  0  0  0  0  0  0  0
   -1.1331    1.1673    0.0113 C   0  0  0  0  0  0  0  0  0  0  0  0
    3.2396   -0.9600   -0.0099 C   0  0  0  0  0  0  0  0  0  0  0  0
   -1.8455   -0.0325   -0.0224 C   0  0  0  0  0  0  0  0  0  0  0  0
   -2.0837   -2.3126   -0.0653 O   0  0  0  0  0  0  0  0  0  0  0  0
   -1.8523    2.4878    0.0180 C   0  0  0  0  0  0  0  0  0  0  0  0
   -1.6016   -3.6455   -0.0307 C   0  0  0  0  0  0  0  0  0  0  0  0
   -2.6175    2.6498   -1.1691 O   0  0  0  0  0  0  0  0  0  0  0  0
    0.8388    2.0295    0.0717 H   0  0  0  0  0  0  0  0  0  0  0  0
    1.5705   -2.5214    0.5310 H   0  0  0  0  0  0  0  0  0  0  0  0
    3.2375   -1.5315    0.9231 H   0  0  0  0  0  0  0  0  0  0  0  0
    3.0848   -1.5962   -0.8853 H   0  0  0  0  0  0  0  0  0  0  0  0
    4.2347   -0.5116   -0.1001 H   0  0  0  0  0  0  0  0  0  0  0  0
   -2.9357   -0.0078   -0.0358 H   0  0  0  0  0  0  0  0  0  0  0  0
   -2.5184    2.5578    0.8841 H   0  0  0  0  0  0  0  0  0  0  0  0
   -1.1452    3.3226    0.0716 H   0  0  0  0  0  0  0  0  0  0  0  0
   -1.0320   -3.8843   -0.9332 H   0  0  0  0  0  0  0  0  0  0  0  0
   -1.0298   -3.8429    0.8815 H   0  0  0  0  0  0  0  0  0  0  0  0
   -2.4729   -4.3090   -0.0128 H   0  0  0  0  0  0  0  0  0  0  0  0
   -2.1625    2.1612   -1.8766 H   0  0  0  0  0  0  0  0  0  0  0  0
  1  2  2  0  0  0  0
  1  3  1  0  0  0  0
  1  4  1  0  0  0  0
  2  5  1  0  0  0  0
  2  6  1  0  0  0  0
  3  7  2  0  0  0  0
  3 14  1  0  0  0  0
  4  8  1  0  0  0  0
  5  9  2  0  0  0  0
  5 10  1  0  0  0  0
  6 15  1  0  0  0  0
  7 11  1  0  0  0  0
  7  9  1  0  0  0  0
  8 16  1  0  0  0  0
  8 17  1  0  0  0  0
  8 18  1  0  0  0  0
  9 19  1  0  0  0  0
 10 12  1  0  0  0  0
 11 13  1  0  0  0  0
 11 20  1  0  0  0  0
 11 21  1  0  0  0  0
 12 22  1  0  0  0  0
 12 23  1  0  0  0  0
 12 24  1  0  0  0  0
 13 25  1  0  0  0  0
M  END
>  <Mol_ID>
2080

>  <Formula>
C9H12O4

>  <MolWeight>
184.18918

>  <Cat>
S4942

>  <Name>
4-Hydroxy-3,5-dimethoxybenzyl alcohol

>  <Synonyms>
Syringic alcohol, Syringyl alcohol

>  <Target>
Antiviral

>  <Form>
free base

>  <CAS>
530-56-3

>  <URL>
http://selleckchem.com/products/4-hydroxy-3-5-dimethoxybenzyl-alcohol.html

$$$$
