S4953 Usnic acid.cdx
 OpenBabel08302519533D

 41 43  0  0  0  0  0  0  0  0999 V2000
    0.7773   -0.8424    0.3366 C   0  0  3  0  0  0  0  0  0  0  0  0
   -0.6375   -0.6934   -0.2174 C   0  0  0  0  0  0  0  0  0  0  0  0
    1.1099    0.6312    0.5249 C   0  0  0  0  0  0  0  0  0  0  0  0
    1.8949   -1.5455   -0.4379 C   0  0  0  0  0  0  0  0  0  0  0  0
    0.6133   -1.6396    1.6540 C   0  0  0  0  0  0  0  0  0  0  0  0
   -1.0539    0.6389   -0.0266 C   0  0  0  0  0  0  0  0  0  0  0  0
   -1.6101   -1.6605   -0.4231 C   0  0  0  0  0  0  0  0  0  0  0  0
   -0.0340    1.4220    0.4609 O   0  0  0  0  0  0  0  0  0  0  0  0
    2.2867    1.2451    0.4423 C   0  0  0  0  0  0  0  0  0  0  0  0
    3.1294   -0.7738   -0.8612 C   0  0  3  0  0  0  0  0  0  0  0  0
    1.8715   -2.7596   -0.6818 O   0  0  0  0  0  0  0  0  0  0  0  0
   -2.3740    1.0606   -0.1291 C   0  0  0  0  0  0  0  0  0  0  0  0
   -2.9821   -1.3141   -0.3516 C   0  0  0  0  0  0  0  0  0  0  0  0
   -1.1848   -2.9501   -0.5241 O   0  0  0  0  0  0  0  0  0  0  0  0
    3.4252    0.4745   -0.0915 C   0  0  0  0  0  0  0  0  0  0  0  0
    3.0646   -0.5404   -2.3455 C   0  0  0  0  0  0  0  0  0  0  0  0
   -3.3412    0.0545   -0.2227 C   0  0  0  0  0  0  0  0  0  0  0  0
   -2.7138    2.5107   -0.0380 C   0  0  0  0  0  0  0  0  0  0  0  0
   -4.0110   -2.4084   -0.2049 C   0  0  0  0  0  0  0  0  0  0  0  0
    4.5557    0.9479   -0.0013 O   0  0  0  0  0  0  0  0  0  0  0  0
    3.6424   -1.6061   -3.2495 C   0  0  0  0  0  0  0  0  0  0  0  0
    2.4657    0.4277   -2.8154 O   0  0  0  0  0  0  0  0  0  0  0  0
   -4.6481    0.4262   -0.0359 O   0  0  0  0  0  0  0  0  0  0  0  0
   -3.9364    3.0432   -0.7747 C   0  0  0  0  0  0  0  0  0  0  0  0
   -1.9921    3.2837    0.5898 O   0  0  0  0  0  0  0  0  0  0  0  0
    0.4833   -2.7130    1.4409 H   0  0  0  0  0  0  0  0  0  0  0  0
    1.4846   -1.5573    2.3063 H   0  0  0  0  0  0  0  0  0  0  0  0
   -0.2786   -1.3423    2.2204 H   0  0  0  0  0  0  0  0  0  0  0  0
    2.4000    2.3214    0.5315 H   0  0  0  0  0  0  0  0  0  0  0  0
    3.9969   -1.4161   -0.6435 H   0  0  0  0  0  0  0  0  0  0  0  0
   -1.8846   -3.5665   -0.2598 H   0  0  0  0  0  0  0  0  0  0  0  0
   -3.9075   -3.1523   -0.9978 H   0  0  0  0  0  0  0  0  0  0  0  0
   -3.8729   -2.8886    0.7708 H   0  0  0  0  0  0  0  0  0  0  0  0
   -5.0422   -2.0540   -0.2355 H   0  0  0  0  0  0  0  0  0  0  0  0
    2.8286   -2.1088   -3.7682 H   0  0  0  0  0  0  0  0  0  0  0  0
    4.3290   -1.1329   -3.9685 H   0  0  0  0  0  0  0  0  0  0  0  0
    4.1988   -2.3397   -2.6685 H   0  0  0  0  0  0  0  0  0  0  0  0
   -5.2532   -0.1973   -0.4620 H   0  0  0  0  0  0  0  0  0  0  0  0
   -4.6765    3.3611   -0.0299 H   0  0  0  0  0  0  0  0  0  0  0  0
   -3.6348    3.8980   -1.3798 H   0  0  0  0  0  0  0  0  0  0  0  0
   -4.3776    2.3147   -1.4445 H   0  0  0  0  0  0  0  0  0  0  0  0
  1  2  1  0  0  0  0
  1  3  1  0  0  0  0
  1  4  1  0  0  0  0
  1  5  1  0  0  0  0
  2  6  2  0  0  0  0
  2  7  1  0  0  0  0
  3  8  1  0  0  0  0
  3  9  2  0  0  0  0
  4 10  1  0  0  0  0
  4 11  2  0  0  0  0
  5 26  1  0  0  0  0
  5 27  1  0  0  0  0
  5 28  1  0  0  0  0
  6 12  1  0  0  0  0
  6  8  1  0  0  0  0
  7 13  2  0  0  0  0
  7 14  1  0  0  0  0
  9 15  1  0  0  0  0
  9 29  1  0  0  0  0
 10 16  1  0  0  0  0
 10 15  1  0  0  0  0
 10 30  1  0  0  0  0
 12 17  2  0  0  0  0
 12 18  1  0  0  0  0
 13 19  1  0  0  0  0
 13 17  1  0  0  0  0
 14 31  1  0  0  0  0
 15 20  2  0  0  0  0
 16 21  1  0  0  0  0
 16 22  2  0  0  0  0
 17 23  1  0  0  0  0
 18 24  1  0  0  0  0
 18 25  2  0  0  0  0
 19 32  1  0  0  0  0
 19 33  1  0  0  0  0
 19 34  1  0  0  0  0
 21 35  1  0  0  0  0
 21 36  1  0  0  0  0
 21 37  1  0  0  0  0
 23 38  1  0  0  0  0
 24 39  1  0  0  0  0
 24 40  1  0  0  0  0
 24 41  1  0  0  0  0
M  END
>  <Mol_ID>
2051

>  <Formula>
C18H16O7

>  <MolWeight>
344.31544

>  <Cat>
S4953

>  <Name>
Usnic acid

>  <Synonyms>
Usniacin

>  <Target>
Akt,ERK

>  <Form>
free base

>  <CAS>
125-46-2

>  <URL>
http://selleckchem.com/products/usnic-acid.html

$$$$
