S4952 Fumaric acid.cdx
 OpenBabel08302519533D

 12 11  0  0  0  0  0  0  0  0999 V2000
    0.8418    0.0917    0.0388 C   0  0  0  0  0  0  0  0  0  0  0  0
    0.1304    1.0163    0.9325 C   0  0  0  0  0  0  0  0  0  0  0  0
    2.1788    0.2062    0.1495 O   0  0  0  0  0  0  0  0  0  0  0  0
    0.2880   -0.6888   -0.7156 O   0  0  0  0  0  0  0  0  0  0  0  0
   -1.2104    1.0228    0.9388 C   0  0  0  0  0  0  0  0  0  0  0  0
   -1.8858    1.9622    1.8468 C   0  0  0  0  0  0  0  0  0  0  0  0
   -3.2258    1.8827    1.7700 O   0  0  0  0  0  0  0  0  0  0  0  0
   -1.2986    2.7306    2.5896 O   0  0  0  0  0  0  0  0  0  0  0  0
    0.7023    1.6777    1.5718 H   0  0  0  0  0  0  0  0  0  0  0  0
    2.4985    0.8680    0.7892 H   0  0  0  0  0  0  0  0  0  0  0  0
   -1.7915    0.3665    0.3044 H   0  0  0  0  0  0  0  0  0  0  0  0
   -3.5796    1.2299    1.1390 H   0  0  0  0  0  0  0  0  0  0  0  0
  1  2  1  0  0  0  0
  1  3  1  0  0  0  0
  1  4  2  0  0  0  0
  2  5  2  0  0  0  0
  2  9  1  0  0  0  0
  3 10  1  0  0  0  0
  5  6  1  0  0  0  0
  5 11  1  0  0  0  0
  6  7  1  0  0  0  0
  6  8  2  0  0  0  0
  7 12  1  0  0  0  0
M  END
>  <Mol_ID>
2050

>  <Formula>
C4H4O4

>  <MolWeight>
116.07216

>  <Cat>
S4952

>  <Name>
Fumaric acid

>  <Synonyms>
2-Butenedioic acid, Trans-Butenedioic acid, Allomaleic acid, Boletic acid, Donitic acid, Lichenic acid, Fumarate

>  <Target>
Others

>  <Form>
free base

>  <CAS>
110-17-8

>  <URL>
http://selleckchem.com/products/fumaric-acid.html

$$$$
