S4957 Linalool.cdx
 OpenBabel08302520013D

 29 28  0  0  0  0  0  0  0  0999 V2000
    0.9723    0.0363   -0.0572 C   0  0  3  0  0  0  0  0  0  0  0  0
    0.4614    0.0672    1.4003 C   0  0  0  0  0  0  0  0  0  0  0  0
    0.3797   -1.0803   -0.8976 C   0  0  0  0  0  0  0  0  0  0  0  0
    2.5008   -0.0507   -0.1237 C   0  0  0  0  0  0  0  0  0  0  0  0
    0.5887    1.2539   -0.6989 O   0  0  0  0  0  0  0  0  0  0  0  0
    1.0069    1.2195    2.2574 C   0  0  0  0  0  0  0  0  0  0  0  0
   -0.5034   -2.0196   -0.5300 C   0  0  0  0  0  0  0  0  0  0  0  0
    0.4220    1.1401    3.6447 C   0  0  0  0  0  0  0  0  0  0  0  0
    1.1007    1.0228    4.8025 C   0  0  0  0  0  0  0  0  0  0  0  0
    0.3749    0.8798    6.1128 C   0  0  0  0  0  0  0  0  0  0  0  0
    2.6014    1.0112    4.8875 C   0  0  0  0  0  0  0  0  0  0  0  0
   -0.6347    0.1589    1.3874 H   0  0  0  0  0  0  0  0  0  0  0  0
    0.6994   -0.8853    1.8940 H   0  0  0  0  0  0  0  0  0  0  0  0
    0.7279   -1.1032   -1.9327 H   0  0  0  0  0  0  0  0  0  0  0  0
    2.8492   -0.1207   -1.1618 H   0  0  0  0  0  0  0  0  0  0  0  0
    2.9728    0.8521    0.2783 H   0  0  0  0  0  0  0  0  0  0  0  0
    2.8803   -0.9211    0.4226 H   0  0  0  0  0  0  0  0  0  0  0  0
   -0.3773    1.2239   -0.8083 H   0  0  0  0  0  0  0  0  0  0  0  0
    2.0984    1.1790    2.2951 H   0  0  0  0  0  0  0  0  0  0  0  0
    0.7325    2.1846    1.8158 H   0  0  0  0  0  0  0  0  0  0  0  0
   -0.8424   -2.7641   -1.2424 H   0  0  0  0  0  0  0  0  0  0  0  0
   -0.9125   -2.0807    0.4735 H   0  0  0  0  0  0  0  0  0  0  0  0
   -0.6674    1.1658    3.6811 H   0  0  0  0  0  0  0  0  0  0  0  0
    0.6952   -0.0349    6.6235 H   0  0  0  0  0  0  0  0  0  0  0  0
    0.5869    1.7354    6.7613 H   0  0  0  0  0  0  0  0  0  0  0  0
   -0.7098    0.8173    5.9802 H   0  0  0  0  0  0  0  0  0  0  0  0
    3.0136    0.1418    4.3661 H   0  0  0  0  0  0  0  0  0  0  0  0
    3.0214    1.9260    4.4550 H   0  0  0  0  0  0  0  0  0  0  0  0
    2.9401    0.9614    5.9282 H   0  0  0  0  0  0  0  0  0  0  0  0
  1  2  1  0  0  0  0
  1  3  1  0  0  0  0
  1  4  1  0  0  0  0
  1  5  1  0  0  0  0
  2  6  1  0  0  0  0
  2 12  1  0  0  0  0
  2 13  1  0  0  0  0
  3  7  2  0  0  0  0
  3 14  1  0  0  0  0
  4 15  1  0  0  0  0
  4 16  1  0  0  0  0
  4 17  1  0  0  0  0
  5 18  1  0  0  0  0
  6  8  1  0  0  0  0
  6 19  1  0  0  0  0
  6 20  1  0  0  0  0
  7 21  1  0  0  0  0
  7 22  1  0  0  0  0
  8  9  2  0  0  0  0
  8 23  1  0  0  0  0
  9 10  1  0  0  0  0
  9 11  1  0  0  0  0
 10 24  1  0  0  0  0
 10 25  1  0  0  0  0
 10 26  1  0  0  0  0
 11 27  1  0  0  0  0
 11 28  1  0  0  0  0
 11 29  1  0  0  0  0
M  END
>  <Mol_ID>
2840

>  <Formula>
C10H18O

>  <MolWeight>
154.24932

>  <Cat>
S4957

>  <Name>
Linalool

>  <Synonyms>
Phantol

>  <Target>
NMDAR

>  <Form>
free base

>  <CAS>
78-70-6

>  <URL>
http://selleckchem.com/products/linalool.html

$$$$
