S4955 Acetosyringone.cdx
 OpenBabel08302520013D

 26 26  0  0  0  0  0  0  0  0999 V2000
    0.9626   -0.1521    0.0139 C   0  0  0  0  0  0  0  0  0  0  0  0
    0.2102   -1.3378   -0.0056 C   0  0  0  0  0  0  0  0  0  0  0  0
    0.2869    1.0863    0.0141 C   0  0  0  0  0  0  0  0  0  0  0  0
    2.3153    0.0472    0.0218 O   0  0  0  0  0  0  0  0  0  0  0  0
   -1.1990   -1.2676   -0.0119 C   0  0  0  0  0  0  0  0  0  0  0  0
    0.7648   -2.5842   -0.0410 O   0  0  0  0  0  0  0  0  0  0  0  0
   -1.1011    1.1736    0.0017 C   0  0  0  0  0  0  0  0  0  0  0  0
    3.2404   -1.0203    0.0132 C   0  0  0  0  0  0  0  0  0  0  0  0
   -1.8352   -0.0144   -0.0046 C   0  0  0  0  0  0  0  0  0  0  0  0
   -2.1009   -2.3032   -0.0184 O   0  0  0  0  0  0  0  0  0  0  0  0
   -1.8509    2.4668   -0.0041 C   0  0  0  0  0  0  0  0  0  0  0  0
   -1.6174   -3.6398   -0.0210 C   0  0  0  0  0  0  0  0  0  0  0  0
   -1.1368    3.7970   -0.0028 C   0  0  0  0  0  0  0  0  0  0  0  0
   -3.0856    2.4446   -0.0125 O   0  0  0  0  0  0  0  0  0  0  0  0
    0.9102    1.9787    0.0166 H   0  0  0  0  0  0  0  0  0  0  0  0
    1.6948   -2.5723    0.1891 H   0  0  0  0  0  0  0  0  0  0  0  0
    3.1896   -1.5828    0.9511 H   0  0  0  0  0  0  0  0  0  0  0  0
    3.1025   -1.6576   -0.8652 H   0  0  0  0  0  0  0  0  0  0  0  0
    4.2466   -0.5970   -0.0487 H   0  0  0  0  0  0  0  0  0  0  0  0
   -2.9242    0.0174   -0.0128 H   0  0  0  0  0  0  0  0  0  0  0  0
   -1.0517   -3.8556   -0.9336 H   0  0  0  0  0  0  0  0  0  0  0  0
   -1.0416   -3.8578    0.8851 H   0  0  0  0  0  0  0  0  0  0  0  0
   -2.4823   -4.3090   -0.0175 H   0  0  0  0  0  0  0  0  0  0  0  0
   -1.4311    4.3546   -0.8968 H   0  0  0  0  0  0  0  0  0  0  0  0
   -1.4381    4.3540    0.8893 H   0  0  0  0  0  0  0  0  0  0  0  0
   -0.0519    3.7275    0.0013 H   0  0  0  0  0  0  0  0  0  0  0  0
  1  2  2  0  0  0  0
  1  3  1  0  0  0  0
  1  4  1  0  0  0  0
  2  5  1  0  0  0  0
  2  6  1  0  0  0  0
  3  7  2  0  0  0  0
  3 15  1  0  0  0  0
  4  8  1  0  0  0  0
  5  9  2  0  0  0  0
  5 10  1  0  0  0  0
  6 16  1  0  0  0  0
  7 11  1  0  0  0  0
  7  9  1  0  0  0  0
  8 17  1  0  0  0  0
  8 18  1  0  0  0  0
  8 19  1  0  0  0  0
  9 20  1  0  0  0  0
 10 12  1  0  0  0  0
 11 13  1  0  0  0  0
 11 14  2  0  0  0  0
 12 21  1  0  0  0  0
 12 22  1  0  0  0  0
 12 23  1  0  0  0  0
 13 24  1  0  0  0  0
 13 25  1  0  0  0  0
 13 26  1  0  0  0  0
M  END
>  <Mol_ID>
2958

>  <Formula>
C10H12O4

>  <MolWeight>
196.19988

>  <Cat>
S4955

>  <Name>
Acetosyringone

>  <Synonyms>
Acetosyringenin

>  <Target>
Others

>  <Form>
free base

>  <CAS>
2478-38-8

>  <URL>
http://selleckchem.com/products/acetosyringone.html

$$$$
