S4965 Helicin.cdx
 OpenBabel08302519553D

 36 37  0  0  0  0  0  0  0  0999 V2000
    1.1144    1.3420   -0.1906 C   0  0  2  0  0  0  0  0  0  0  0  0
    2.3266    1.9340    0.3219 O   0  0  0  0  0  0  0  0  0  0  0  0
   -0.0471    1.9577    0.3925 O   0  0  0  0  0  0  0  0  0  0  0  0
    1.1334   -0.1688    0.1322 C   0  0  1  0  0  0  0  0  0  0  0  0
    2.8271    2.9922   -0.4008 C   0  0  0  0  0  0  0  0  0  0  0  0
   -1.2692    1.4312   -0.1588 C   0  0  1  0  0  0  0  0  0  0  0  0
   -0.1793   -0.8129   -0.3437 C   0  0  2  0  0  0  0  0  0  0  0  0
    2.2479   -0.8252   -0.4921 O   0  0  0  0  0  0  0  0  0  0  0  0
    4.2083    3.2498   -0.3677 C   0  0  0  0  0  0  0  0  0  0  0  0
    2.0063    3.8449   -1.1487 C   0  0  0  0  0  0  0  0  0  0  0  0
   -1.4107   -0.0573    0.1735 C   0  0  2  0  0  0  0  0  0  0  0  0
   -2.4653    2.2262    0.3776 C   0  0  0  0  0  0  0  0  0  0  0  0
   -0.2687   -2.1918    0.0322 O   0  0  0  0  0  0  0  0  0  0  0  0
    4.7452    4.3233   -1.0912 C   0  0  0  0  0  0  0  0  0  0  0  0
    5.1464    2.3965    0.4025 C   0  0  0  0  0  0  0  0  0  0  0  0
    2.5490    4.8910   -1.8968 C   0  0  0  0  0  0  0  0  0  0  0  0
   -2.6102   -0.5615   -0.4204 O   0  0  0  0  0  0  0  0  0  0  0  0
   -2.3395    3.5956   -0.0017 O   0  0  0  0  0  0  0  0  0  0  0  0
    3.9177    5.1329   -1.8674 C   0  0  0  0  0  0  0  0  0  0  0  0
    6.3563    2.6335    0.4526 O   0  0  0  0  0  0  0  0  0  0  0  0
    1.0867    1.4446   -1.2841 H   0  0  0  0  0  0  0  0  0  0  0  0
    1.2580   -0.3204    1.2107 H   0  0  0  0  0  0  0  0  0  0  0  0
   -1.2426    1.5808   -1.2467 H   0  0  0  0  0  0  0  0  0  0  0  0
   -0.2022   -0.8259   -1.4407 H   0  0  0  0  0  0  0  0  0  0  0  0
    2.0805   -0.8956   -1.4488 H   0  0  0  0  0  0  0  0  0  0  0  0
    0.9265    3.7258   -1.1660 H   0  0  0  0  0  0  0  0  0  0  0  0
   -1.4925   -0.2068    1.2578 H   0  0  0  0  0  0  0  0  0  0  0  0
   -3.4091    1.8561   -0.0328 H   0  0  0  0  0  0  0  0  0  0  0  0
   -2.5196    2.1881    1.4713 H   0  0  0  0  0  0  0  0  0  0  0  0
    0.1505   -2.3042    0.9066 H   0  0  0  0  0  0  0  0  0  0  0  0
    5.8151    4.5295   -1.0622 H   0  0  0  0  0  0  0  0  0  0  0  0
    4.7235    1.5279    0.9256 H   0  0  0  0  0  0  0  0  0  0  0  0
    1.8962    5.5215   -2.4966 H   0  0  0  0  0  0  0  0  0  0  0  0
   -2.3807   -1.3092   -1.0029 H   0  0  0  0  0  0  0  0  0  0  0  0
   -1.5127    3.9112    0.4020 H   0  0  0  0  0  0  0  0  0  0  0  0
    4.3397    5.9536   -2.4424 H   0  0  0  0  0  0  0  0  0  0  0  0
  1  2  1  0  0  0  0
  1  3  1  0  0  0  0
  1  4  1  0  0  0  0
  1 21  1  6  0  0  0
  2  5  1  0  0  0  0
  3  6  1  0  0  0  0
  4  7  1  0  0  0  0
  4  8  1  0  0  0  0
  4 22  1  1  0  0  0
  5  9  2  0  0  0  0
  5 10  1  0  0  0  0
  6 11  1  0  0  0  0
  6 12  1  0  0  0  0
  6 23  1  6  0  0  0
  7 13  1  0  0  0  0
  7 11  1  0  0  0  0
  7 24  1  6  0  0  0
  8 25  1  0  0  0  0
  9 14  1  0  0  0  0
  9 15  1  0  0  0  0
 10 16  2  0  0  0  0
 10 26  1  0  0  0  0
 11 17  1  0  0  0  0
 11 27  1  1  0  0  0
 12 18  1  0  0  0  0
 12 28  1  0  0  0  0
 12 29  1  0  0  0  0
 13 30  1  0  0  0  0
 14 19  2  0  0  0  0
 14 31  1  0  0  0  0
 15 20  2  0  0  0  0
 15 32  1  0  0  0  0
 16 19  1  0  0  0  0
 16 33  1  0  0  0  0
 17 34  1  0  0  0  0
 18 35  1  0  0  0  0
 19 36  1  0  0  0  0
M  END
>  <Mol_ID>
2087

>  <Formula>
C13H16O7

>  <MolWeight>
284.26194

>  <Cat>
S4965

>  <Name>
Helecin

>  <Synonyms>
Helicin

>  <Target>
Others

>  <Form>
free base

>  <CAS>
618-65-5

>  <URL>
http://selleckchem.com/products/helicin.html

$$$$
