S4960 Jasmone.cdx
 OpenBabel08302520013D

 28 28  0  0  0  0  0  0  0  0999 V2000
    0.1750    0.9415   -0.0364 C   0  0  0  0  0  0  0  0  0  0  0  0
    1.2303    0.1093   -0.0087 C   0  0  0  0  0  0  0  0  0  0  0  0
   -1.0158    0.0604   -0.0615 C   0  0  0  0  0  0  0  0  0  0  0  0
    0.1241    2.4326   -0.0584 C   0  0  0  0  0  0  0  0  0  0  0  0
    0.8753   -1.3482   -0.0090 C   0  0  0  0  0  0  0  0  0  0  0  0
    2.6775    0.4780   -0.0105 C   0  0  0  0  0  0  0  0  0  0  0  0
   -0.6427   -1.3878    0.0299 C   0  0  0  0  0  0  0  0  0  0  0  0
   -2.1697    0.4528   -0.1545 O   0  0  0  0  0  0  0  0  0  0  0  0
   -1.0466    3.0190    0.6762 C   0  0  0  0  0  0  0  0  0  0  0  0
   -1.1261    3.3345    1.9792 C   0  0  0  0  0  0  0  0  0  0  0  0
   -0.0588    3.1598    3.0166 C   0  0  0  0  0  0  0  0  0  0  0  0
    0.2949    4.4899    3.6626 C   0  0  0  0  0  0  0  0  0  0  0  0
    1.0505    2.8587    0.3430 H   0  0  0  0  0  0  0  0  0  0  0  0
    0.0760    2.7696   -1.1010 H   0  0  0  0  0  0  0  0  0  0  0  0
    1.2507   -1.8380   -0.9150 H   0  0  0  0  0  0  0  0  0  0  0  0
    1.2997   -1.8630    0.8583 H   0  0  0  0  0  0  0  0  0  0  0  0
    3.1756    0.0621    0.8710 H   0  0  0  0  0  0  0  0  0  0  0  0
    3.1667    0.0750   -0.9036 H   0  0  0  0  0  0  0  0  0  0  0  0
    2.8389    1.5592   -0.0057 H   0  0  0  0  0  0  0  0  0  0  0  0
   -1.0106   -1.8102    0.9692 H   0  0  0  0  0  0  0  0  0  0  0  0
   -1.0539   -1.9364   -0.8216 H   0  0  0  0  0  0  0  0  0  0  0  0
   -1.9362    3.1753    0.0656 H   0  0  0  0  0  0  0  0  0  0  0  0
   -2.0756    3.7293    2.3427 H   0  0  0  0  0  0  0  0  0  0  0  0
   -0.4272    2.4699    3.7861 H   0  0  0  0  0  0  0  0  0  0  0  0
    0.8473    2.7093    2.5993 H   0  0  0  0  0  0  0  0  0  0  0  0
   -0.5618    4.9024    4.2062 H   0  0  0  0  0  0  0  0  0  0  0  0
    1.1147    4.3596    4.3758 H   0  0  0  0  0  0  0  0  0  0  0  0
    0.6075    5.2242    2.9126 H   0  0  0  0  0  0  0  0  0  0  0  0
  1  2  2  0  0  0  0
  1  3  1  0  0  0  0
  1  4  1  0  0  0  0
  2  5  1  0  0  0  0
  2  6  1  0  0  0  0
  3  7  1  0  0  0  0
  3  8  2  0  0  0  0
  4  9  1  0  0  0  0
  4 13  1  0  0  0  0
  4 14  1  0  0  0  0
  5  7  1  0  0  0  0
  5 15  1  0  0  0  0
  5 16  1  0  0  0  0
  6 17  1  0  0  0  0
  6 18  1  0  0  0  0
  6 19  1  0  0  0  0
  7 20  1  0  0  0  0
  7 21  1  0  0  0  0
  9 10  2  0  0  0  0
  9 22  1  0  0  0  0
 10 11  1  0  0  0  0
 10 23  1  0  0  0  0
 11 12  1  0  0  0  0
 11 24  1  0  0  0  0
 11 25  1  0  0  0  0
 12 26  1  0  0  0  0
 12 27  1  0  0  0  0
 12 28  1  0  0  0  0
M  END
>  <Mol_ID>
2841

>  <Formula>
C11H16O

>  <MolWeight>
164.24414

>  <Cat>
S4960

>  <Name>
Jasmone

>  <Synonyms>
N/A

>  <Target>
Others

>  <Form>
Ketones

>  <CAS>
488-10-8

>  <URL>
http://selleckchem.com/products/jasmone.html

$$$$
