S4961 3,4,5-Trimethoxycinnamic acid.cdx
 OpenBabel08302519553D

 31 31  0  0  0  0  0  0  0  0999 V2000
   -0.2483   -0.3402    1.3529 C   0  0  0  0  0  0  0  0  0  0  0  0
   -1.0747    0.8690    1.1681 C   0  0  0  0  0  0  0  0  0  0  0  0
   -1.1588    1.4380   -0.0455 C   0  0  0  0  0  0  0  0  0  0  0  0
   -1.9375    2.6541   -0.3264 C   0  0  0  0  0  0  0  0  0  0  0  0
   -1.5058    3.5250   -1.3330 C   0  0  0  0  0  0  0  0  0  0  0  0
   -2.2083    4.7060   -1.6384 C   0  0  0  0  0  0  0  0  0  0  0  0
   -3.3815    5.0273   -0.9169 C   0  0  0  0  0  0  0  0  0  0  0  0
   -3.8441    4.1182    0.0586 C   0  0  0  0  0  0  0  0  0  0  0  0
   -3.1204    2.9543    0.3466 C   0  0  0  0  0  0  0  0  0  0  0  0
    0.3980   -0.8785    0.4728 O   0  0  0  0  0  0  0  0  0  0  0  0
   -0.2875   -0.7876    2.6242 O   0  0  0  0  0  0  0  0  0  0  0  0
   -4.9518    4.2549    0.8625 O   0  0  0  0  0  0  0  0  0  0  0  0
   -6.0860    4.8961    0.2912 C   0  0  0  0  0  0  0  0  0  0  0  0
   -4.1274    6.1703   -1.0419 O   0  0  0  0  0  0  0  0  0  0  0  0
   -3.7456    7.1924   -1.9464 C   0  0  0  0  0  0  0  0  0  0  0  0
   -1.7952    5.5691   -2.6207 O   0  0  0  0  0  0  0  0  0  0  0  0
   -0.6207    5.2633   -3.3605 C   0  0  0  0  0  0  0  0  0  0  0  0
   -1.5860    1.2813    2.0262 H   0  0  0  0  0  0  0  0  0  0  0  0
   -0.6101    1.0132   -0.8860 H   0  0  0  0  0  0  0  0  0  0  0  0
   -0.5938    3.2691   -1.8646 H   0  0  0  0  0  0  0  0  0  0  0  0
   -3.5160    2.2828    1.1046 H   0  0  0  0  0  0  0  0  0  0  0  0
   -0.8422   -0.2729    3.2376 H   0  0  0  0  0  0  0  0  0  0  0  0
   -6.0152    5.9811    0.4095 H   0  0  0  0  0  0  0  0  0  0  0  0
   -6.2425    4.6115   -0.7549 H   0  0  0  0  0  0  0  0  0  0  0  0
   -6.9660    4.5711    0.8554 H   0  0  0  0  0  0  0  0  0  0  0  0
   -2.7497    7.5841   -1.7183 H   0  0  0  0  0  0  0  0  0  0  0  0
   -3.8345    6.8530   -2.9829 H   0  0  0  0  0  0  0  0  0  0  0  0
   -4.4494    8.0212   -1.8192 H   0  0  0  0  0  0  0  0  0  0  0  0
    0.2631    5.2698   -2.7147 H   0  0  0  0  0  0  0  0  0  0  0  0
   -0.7219    4.3120   -3.8924 H   0  0  0  0  0  0  0  0  0  0  0  0
   -0.4892    6.0479   -4.1120 H   0  0  0  0  0  0  0  0  0  0  0  0
  1  2  1  0  0  0  0
  1 10  2  0  0  0  0
  1 11  1  0  0  0  0
  2  3  2  0  0  0  0
  2 18  1  0  0  0  0
  3  4  1  0  0  0  0
  3 19  1  0  0  0  0
  4  5  2  0  0  0  0
  4  9  1  0  0  0  0
  5  6  1  0  0  0  0
  5 20  1  0  0  0  0
  6  7  2  0  0  0  0
  6 16  1  0  0  0  0
  7  8  1  0  0  0  0
  7 14  1  0  0  0  0
  8  9  2  0  0  0  0
  8 12  1  0  0  0  0
  9 21  1  0  0  0  0
 11 22  1  0  0  0  0
 12 13  1  0  0  0  0
 13 23  1  0  0  0  0
 13 24  1  0  0  0  0
 13 25  1  0  0  0  0
 14 15  1  0  0  0  0
 15 26  1  0  0  0  0
 15 27  1  0  0  0  0
 15 28  1  0  0  0  0
 16 17  1  0  0  0  0
 17 29  1  0  0  0  0
 17 30  1  0  0  0  0
 17 31  1  0  0  0  0
M  END
>  <Mol_ID>
2084

>  <Formula>
C12H14O5

>  <MolWeight>
238.23656

>  <Cat>
S4961

>  <Name>
3,4,5-Trimethoxycinnamic acid

>  <Synonyms>
N/A

>  <Target>
GABA Receptor

>  <Form>
free base

>  <CAS>
90-50-6

>  <URL>
http://selleckchem.com/products/trimethoxycinnamic-acid.html

$$$$
