S4972 Choline Glycerophosphate.cdx
 OpenBabel08302521383D

 36 35  0  0  0  0  0  0  0  0999 V2000
    0.1234    0.0231   -2.7366 P   0  0  3  0  0  0  0  0  0  0  0  0
   -0.6975   -1.2762   -3.2294 O   0  0  0  0  0  0  0  0  0  0  0  0
    1.0426   -0.6500   -1.5814 O   0  0  0  0  0  0  0  0  0  0  0  0
   -0.7727    1.0013   -2.0382 O   0  0  0  0  0  0  0  0  0  0  0  0
    1.0190    0.4671   -3.8602 O   0  5  0  0  0  0  0  0  0  0  0  0
   -1.9721   -1.0436   -3.8093 C   0  0  0  0  0  0  0  0  0  0  0  0
    2.3066   -1.1566   -1.9329 C   0  0  0  0  0  0  0  0  0  0  0  0
   -1.9524   -0.1453   -5.0549 C   0  0  1  0  0  0  0  0  0  0  0  0
    3.3311   -0.0825   -2.3365 C   0  0  0  0  0  0  0  0  0  0  0  0
   -1.0310   -0.6572   -6.1696 C   0  0  0  0  0  0  0  0  0  0  0  0
   -3.2906   -0.0779   -5.5833 O   0  0  0  0  0  0  0  0  0  0  0  0
    3.5986    1.0412   -1.2930 N   0  3  0  0  0  0  0  0  0  0  0  0
   -1.4799   -1.9411   -6.6248 O   0  0  0  0  0  0  0  0  0  0  0  0
    4.6219    1.9777   -1.9213 C   0  0  0  0  0  0  0  0  0  0  0  0
    2.3323    1.8759   -1.0283 C   0  0  0  0  0  0  0  0  0  0  0  0
    4.1080    0.4706    0.0070 C   0  0  0  0  0  0  0  0  0  0  0  0
   -2.3993   -2.0202   -4.0602 H   0  0  0  0  0  0  0  0  0  0  0  0
   -2.6415   -0.6232   -3.0515 H   0  0  0  0  0  0  0  0  0  0  0  0
    2.6815   -1.7130   -1.0658 H   0  0  0  0  0  0  0  0  0  0  0  0
    2.1940   -1.8871   -2.7425 H   0  0  0  0  0  0  0  0  0  0  0  0
   -1.6536    0.8720   -4.7837 H   0  0  0  0  0  0  0  0  0  0  0  0
    4.2964   -0.5840   -2.4857 H   0  0  0  0  0  0  0  0  0  0  0  0
    3.1060    0.4213   -3.2748 H   0  0  0  0  0  0  0  0  0  0  0  0
   -1.0903    0.0143   -7.0333 H   0  0  0  0  0  0  0  0  0  0  0  0
    0.0153   -0.7365   -5.8674 H   0  0  0  0  0  0  0  0  0  0  0  0
   -3.3664   -0.8409   -6.1903 H   0  0  0  0  0  0  0  0  0  0  0  0
   -1.1097   -2.5878   -5.9967 H   0  0  0  0  0  0  0  0  0  0  0  0
    4.1413    2.5290   -2.7366 H   0  0  0  0  0  0  0  0  0  0  0  0
    4.9797    2.6763   -1.1594 H   0  0  0  0  0  0  0  0  0  0  0  0
    5.4544    1.3822   -2.3081 H   0  0  0  0  0  0  0  0  0  0  0  0
    1.6170    1.2844   -0.4554 H   0  0  0  0  0  0  0  0  0  0  0  0
    2.6285    2.7375   -0.4225 H   0  0  0  0  0  0  0  0  0  0  0  0
    1.9251    2.2136   -1.9835 H   0  0  0  0  0  0  0  0  0  0  0  0
    3.2579    0.1412    0.6133 H   0  0  0  0  0  0  0  0  0  0  0  0
    4.7669   -0.3739   -0.2097 H   0  0  0  0  0  0  0  0  0  0  0  0
    4.6623    1.2467    0.5426 H   0  0  0  0  0  0  0  0  0  0  0  0
  1  2  1  0  0  0  0
  1  3  1  0  0  0  0
  1  4  2  0  0  0  0
  1  5  1  0  0  0  0
  2  6  1  0  0  0  0
  3  7  1  0  0  0  0
  6  8  1  0  0  0  0
  6 17  1  0  0  0  0
  6 18  1  0  0  0  0
  7  9  1  0  0  0  0
  7 19  1  0  0  0  0
  7 20  1  0  0  0  0
  8 10  1  0  0  0  0
  8 11  1  0  0  0  0
  8 21  1  1  0  0  0
  9 12  1  0  0  0  0
  9 22  1  0  0  0  0
  9 23  1  0  0  0  0
 10 13  1  0  0  0  0
 10 24  1  0  0  0  0
 10 25  1  0  0  0  0
 11 26  1  0  0  0  0
 12 14  1  0  0  0  0
 12 15  1  0  0  0  0
 12 16  1  0  0  0  0
 13 27  1  0  0  0  0
 14 28  1  0  0  0  0
 14 29  1  0  0  0  0
 14 30  1  0  0  0  0
 15 31  1  0  0  0  0
 15 32  1  0  0  0  0
 15 33  1  0  0  0  0
 16 34  1  0  0  0  0
 16 35  1  0  0  0  0
 16 36  1  0  0  0  0
M  CHG  2   5  -1  12   1
M  END
>  <Mol_ID>
7815

>  <Formula>
C8H20NO6P

>  <MolWeight>
257.221261

>  <Cat>
S4972

>  <Name>
Choline Glycerophosphate

>  <Synonyms>
Glycerophosphorylcholine

>  <Target>
Others

>  <Form>
Free Base

>  <CAS>
28319-77-9

>  <URL>
http://selleckchem.com/products/choline-glycerophosphate.html

$$$$
