S4976 Sulfalene(SMPZ).cdx
 OpenBabel08302519553D

 31 32  0  0  0  0  0  0  0  0999 V2000
   -1.9404   -0.0240    0.0374 C   0  0  0  0  0  0  0  0  0  0  0  0
   -3.7131   -0.0265    0.1882 S   0  0  0  0  0  0  0  0  0  0  0  0
   -1.2866    1.0629   -0.5477 C   0  0  0  0  0  0  0  0  0  0  0  0
   -1.1997   -1.0734    0.5857 C   0  0  0  0  0  0  0  0  0  0  0  0
   -4.2551   -0.7639   -1.2215 N   0  0  0  0  0  0  0  0  0  0  0  0
   -4.0804   -0.8329    1.3340 O   0  0  0  0  0  0  0  0  0  0  0  0
   -4.1513    1.3521    0.0992 O   0  0  0  0  0  0  0  0  0  0  0  0
    0.1120    1.0809   -0.6010 C   0  0  0  0  0  0  0  0  0  0  0  0
    0.1960   -1.0473    0.5193 C   0  0  0  0  0  0  0  0  0  0  0  0
   -4.3230   -2.1789   -1.1660 C   0  0  0  0  0  0  0  0  0  0  0  0
    0.8666    0.0499   -0.0292 C   0  0  0  0  0  0  0  0  0  0  0  0
   -5.5137   -2.8783   -0.9164 C   0  0  0  0  0  0  0  0  0  0  0  0
   -3.1366   -2.8028   -1.3137 N   0  0  0  0  0  0  0  0  0  0  0  0
    2.2544    0.0088   -0.2062 N   0  0  0  0  0  0  0  0  0  0  0  0
   -5.5499   -4.2326   -0.8468 N   0  0  0  0  0  0  0  0  0  0  0  0
   -6.6884   -2.1607   -0.7793 O   0  0  0  0  0  0  0  0  0  0  0  0
   -3.1818   -4.1531   -1.2338 C   0  0  0  0  0  0  0  0  0  0  0  0
   -4.3592   -4.8499   -1.0071 C   0  0  0  0  0  0  0  0  0  0  0  0
   -7.8006   -2.9953   -0.4560 C   0  0  0  0  0  0  0  0  0  0  0  0
   -1.8499    1.8930   -0.9675 H   0  0  0  0  0  0  0  0  0  0  0  0
   -1.7005   -1.9221    1.0451 H   0  0  0  0  0  0  0  0  0  0  0  0
   -5.1099   -0.3077   -1.5351 H   0  0  0  0  0  0  0  0  0  0  0  0
    0.6115    1.9144   -1.0883 H   0  0  0  0  0  0  0  0  0  0  0  0
    0.7576   -1.8938    0.9066 H   0  0  0  0  0  0  0  0  0  0  0  0
    2.7384   -0.5719    0.4714 H   0  0  0  0  0  0  0  0  0  0  0  0
    2.6838    0.9235   -0.3042 H   0  0  0  0  0  0  0  0  0  0  0  0
   -2.2366   -4.6670   -1.3588 H   0  0  0  0  0  0  0  0  0  0  0  0
   -4.3740   -5.9331   -0.9496 H   0  0  0  0  0  0  0  0  0  0  0  0
   -8.0198   -3.6948   -1.2712 H   0  0  0  0  0  0  0  0  0  0  0  0
   -7.6377   -3.5322    0.4859 H   0  0  0  0  0  0  0  0  0  0  0  0
   -8.6786   -2.3557   -0.3248 H   0  0  0  0  0  0  0  0  0  0  0  0
  1  2  1  0  0  0  0
  1  3  2  0  0  0  0
  1  4  1  0  0  0  0
  2  5  1  0  0  0  0
  2  6  2  0  0  0  0
  2  7  2  0  0  0  0
  3  8  1  0  0  0  0
  3 20  1  0  0  0  0
  4  9  2  0  0  0  0
  4 21  1  0  0  0  0
  5 10  1  0  0  0  0
  5 22  1  0  0  0  0
  8 11  2  0  0  0  0
  8 23  1  0  0  0  0
  9 11  1  0  0  0  0
  9 24  1  0  0  0  0
 10 12  2  0  0  0  0
 10 13  1  0  0  0  0
 11 14  1  0  0  0  0
 12 15  1  0  0  0  0
 12 16  1  0  0  0  0
 13 17  2  0  0  0  0
 14 25  1  0  0  0  0
 14 26  1  0  0  0  0
 15 18  2  0  0  0  0
 16 19  1  0  0  0  0
 17 18  1  0  0  0  0
 17 27  1  0  0  0  0
 18 28  1  0  0  0  0
 19 29  1  0  0  0  0
 19 30  1  0  0  0  0
 19 31  1  0  0  0  0
M  END
>  <Mol_ID>
2101

>  <Formula>
C11H12N4O3S

>  <MolWeight>
280.30298

>  <Cat>
S4976

>  <Name>
Sulfalene (SMPZ)

>  <Synonyms>
Butadiene sulfone, 3-Sulfolene

>  <Target>
Others

>  <Form>
free base

>  <CAS>
152-47-6

>  <URL>
http://selleckchem.com/products/sulfalene-smpz.html

$$$$
