S4973 Iminostilbene.cdx
 OpenBabel08302519553D

 26 28  0  0  0  0  0  0  0  0999 V2000
    1.2442   -0.4986    0.5004 C   0  0  0  0  0  0  0  0  0  0  0  0
    1.5565    0.8101    0.0879 C   0  0  0  0  0  0  0  0  0  0  0  0
   -0.0011   -0.8490    1.0743 N   0  0  0  0  0  0  0  0  0  0  0  0
    2.1698   -1.5306    0.2592 C   0  0  0  0  0  0  0  0  0  0  0  0
    0.6800    1.9660    0.3310 C   0  0  0  0  0  0  0  0  0  0  0  0
    2.7994    1.0567   -0.5202 C   0  0  0  0  0  0  0  0  0  0  0  0
   -1.2462   -0.4873    0.5070 C   0  0  0  0  0  0  0  0  0  0  0  0
    3.3874   -1.2760   -0.3737 C   0  0  0  0  0  0  0  0  0  0  0  0
   -0.6613    1.9716    0.3305 C   0  0  0  0  0  0  0  0  0  0  0  0
    3.7038    0.0201   -0.7587 C   0  0  0  0  0  0  0  0  0  0  0  0
   -1.5480    0.8218    0.0903 C   0  0  0  0  0  0  0  0  0  0  0  0
   -2.1854   -1.5112    0.2795 C   0  0  0  0  0  0  0  0  0  0  0  0
   -2.7898    1.0779   -0.5167 C   0  0  0  0  0  0  0  0  0  0  0  0
   -3.4016   -1.2467   -0.3481 C   0  0  0  0  0  0  0  0  0  0  0  0
   -3.7058    0.0493   -0.7449 C   0  0  0  0  0  0  0  0  0  0  0  0
   -0.0043   -1.7910    1.4444 H   0  0  0  0  0  0  0  0  0  0  0  0
    1.9312   -2.5540    0.5367 H   0  0  0  0  0  0  0  0  0  0  0  0
    1.1933    2.9078    0.5105 H   0  0  0  0  0  0  0  0  0  0  0  0
    3.0677    2.0648   -0.8308 H   0  0  0  0  0  0  0  0  0  0  0  0
    4.0762   -2.0915   -0.5724 H   0  0  0  0  0  0  0  0  0  0  0  0
   -1.1668    2.9180    0.5091 H   0  0  0  0  0  0  0  0  0  0  0  0
    4.6500    0.2267   -1.2515 H   0  0  0  0  0  0  0  0  0  0  0  0
   -1.9581   -2.5350    0.5649 H   0  0  0  0  0  0  0  0  0  0  0  0
   -3.0478    2.0866   -0.8332 H   0  0  0  0  0  0  0  0  0  0  0  0
   -4.1027   -2.0556   -0.5369 H   0  0  0  0  0  0  0  0  0  0  0  0
   -4.6518    0.2625   -1.2348 H   0  0  0  0  0  0  0  0  0  0  0  0
  1  2  2  0  0  0  0
  1  3  1  0  0  0  0
  1  4  1  0  0  0  0
  2  5  1  0  0  0  0
  2  6  1  0  0  0  0
  3  7  1  0  0  0  0
  3 16  1  0  0  0  0
  4  8  2  0  0  0  0
  4 17  1  0  0  0  0
  5  9  2  0  0  0  0
  5 18  1  0  0  0  0
  6 10  2  0  0  0  0
  6 19  1  0  0  0  0
  7 11  2  0  0  0  0
  7 12  1  0  0  0  0
  8 10  1  0  0  0  0
  8 20  1  0  0  0  0
  9 11  1  0  0  0  0
  9 21  1  0  0  0  0
 10 22  1  0  0  0  0
 11 13  1  0  0  0  0
 12 14  2  0  0  0  0
 12 23  1  0  0  0  0
 13 15  2  0  0  0  0
 13 24  1  0  0  0  0
 14 15  1  0  0  0  0
 14 25  1  0  0  0  0
 15 26  1  0  0  0  0
M  END
>  <Mol_ID>
2089

>  <Formula>
C14H11N

>  <MolWeight>
193.24384

>  <Cat>
S4973

>  <Name>
Iminostilbene

>  <Synonyms>
2,3,6,7-Dibenzazepine

>  <Target>
Others

>  <Form>
free base

>  <CAS>
256-96-2

>  <URL>
http://selleckchem.com/products/iminostilbene.html

$$$$
