S4970 Nerol.cdx
 OpenBabel08302520013D

 29 28  0  0  0  0  0  0  0  0999 V2000
    0.9157   -0.1777    0.0353 C   0  0  0  0  0  0  0  0  0  0  0  0
    0.1214    0.0393   -1.2414 C   0  0  0  0  0  0  0  0  0  0  0  0
    1.5750    0.8257    0.6556 C   0  0  0  0  0  0  0  0  0  0  0  0
    1.0065   -1.5485    0.6540 C   0  0  0  0  0  0  0  0  0  0  0  0
   -0.6379   -1.1616   -1.8350 C   0  0  0  0  0  0  0  0  0  0  0  0
    1.6495    2.2675    0.2661 C   0  0  0  0  0  0  0  0  0  0  0  0
   -1.3109   -0.7826   -3.1321 C   0  0  0  0  0  0  0  0  0  0  0  0
    1.1772    3.0449    1.3558 O   0  0  0  0  0  0  0  0  0  0  0  0
   -1.1710   -1.3979   -4.3223 C   0  0  0  0  0  0  0  0  0  0  0  0
   -1.8271   -0.8479   -5.5605 C   0  0  0  0  0  0  0  0  0  0  0  0
   -0.3576   -2.6476   -4.5230 C   0  0  0  0  0  0  0  0  0  0  0  0
   -0.6065    0.8406   -1.0571 H   0  0  0  0  0  0  0  0  0  0  0  0
    0.8174    0.4110   -2.0073 H   0  0  0  0  0  0  0  0  0  0  0  0
    2.1377    0.5952    1.5606 H   0  0  0  0  0  0  0  0  0  0  0  0
    0.6581   -2.3504    0.0035 H   0  0  0  0  0  0  0  0  0  0  0  0
    2.0479   -1.7890    0.9022 H   0  0  0  0  0  0  0  0  0  0  0  0
    0.4117   -1.5859    1.5725 H   0  0  0  0  0  0  0  0  0  0  0  0
    0.0559   -1.9911   -2.0023 H   0  0  0  0  0  0  0  0  0  0  0  0
   -1.4033   -1.5060   -1.1293 H   0  0  0  0  0  0  0  0  0  0  0  0
    2.6883    2.5485    0.0724 H   0  0  0  0  0  0  0  0  0  0  0  0
    1.0559    2.5141   -0.6184 H   0  0  0  0  0  0  0  0  0  0  0  0
   -1.9524    0.0988   -3.0727 H   0  0  0  0  0  0  0  0  0  0  0  0
    0.3388    2.6461    1.6453 H   0  0  0  0  0  0  0  0  0  0  0  0
   -1.0706   -0.6530   -6.3283 H   0  0  0  0  0  0  0  0  0  0  0  0
   -2.5549   -1.5615   -5.9594 H   0  0  0  0  0  0  0  0  0  0  0  0
   -2.3482    0.0943   -5.3677 H   0  0  0  0  0  0  0  0  0  0  0  0
    0.7039   -2.4589   -4.3288 H   0  0  0  0  0  0  0  0  0  0  0  0
   -0.7119   -3.4469   -3.8675 H   0  0  0  0  0  0  0  0  0  0  0  0
   -0.4450   -3.0165   -5.5517 H   0  0  0  0  0  0  0  0  0  0  0  0
  1  2  1  0  0  0  0
  1  3  2  0  0  0  0
  1  4  1  0  0  0  0
  2  5  1  0  0  0  0
  2 12  1  0  0  0  0
  2 13  1  0  0  0  0
  3  6  1  0  0  0  0
  3 14  1  0  0  0  0
  4 15  1  0  0  0  0
  4 16  1  0  0  0  0
  4 17  1  0  0  0  0
  5  7  1  0  0  0  0
  5 18  1  0  0  0  0
  5 19  1  0  0  0  0
  6  8  1  0  0  0  0
  6 20  1  0  0  0  0
  6 21  1  0  0  0  0
  7  9  2  0  0  0  0
  7 22  1  0  0  0  0
  8 23  1  0  0  0  0
  9 10  1  0  0  0  0
  9 11  1  0  0  0  0
 10 24  1  0  0  0  0
 10 25  1  0  0  0  0
 10 26  1  0  0  0  0
 11 27  1  0  0  0  0
 11 28  1  0  0  0  0
 11 29  1  0  0  0  0
M  END
>  <Mol_ID>
2842

>  <Formula>
C10H18O

>  <MolWeight>
154.24932

>  <Cat>
S4970

>  <Name>
Nerol

>  <Synonyms>
Cis-Geraniol, Neryl alcohol

>  <Target>
Fungal,ROS

>  <Form>
free base

>  <CAS>
106-25-2

>  <URL>
http://selleckchem.com/products/nerol.html

$$$$
