S4984 2,2'-Cyclouridine.cdx
 OpenBabel08302520013D

 26 28  0  0  0  0  0  0  0  0999 V2000
   -0.9388    0.7248   -0.5706 C   0  0  2  0  0  0  0  0  0  0  0  0
   -1.4383   -0.6930   -0.8039 C   0  0  1  0  0  0  0  0  0  0  0  0
    0.4400    0.4691   -0.2791 N   0  0  0  0  0  0  0  0  0  0  0  0
   -1.6120    1.2488    0.5794 O   0  0  0  0  0  0  0  0  0  0  0  0
   -0.5307   -1.5473   -0.0814 O   0  0  0  0  0  0  0  0  0  0  0  0
   -2.8194   -0.6898   -0.2023 C   0  0  1  0  0  0  0  0  0  0  0  0
    0.6357   -0.8428    0.0330 C   0  0  0  0  0  0  0  0  0  0  0  0
    1.5035    1.3223   -0.2546 C   0  0  0  0  0  0  0  0  0  0  0  0
   -2.7564    0.4067    0.8621 C   0  0  1  0  0  0  0  0  0  0  0  0
   -3.7432   -0.3195   -1.2324 O   0  0  0  0  0  0  0  0  0  0  0  0
    1.7340   -1.4037    0.3843 N   0  0  0  0  0  0  0  0  0  0  0  0
    2.7137    0.8559    0.0727 C   0  0  0  0  0  0  0  0  0  0  0  0
   -2.6080   -0.1611    2.2755 C   0  0  0  0  0  0  0  0  0  0  0  0
    2.8551   -0.5936    0.4354 C   0  0  0  0  0  0  0  0  0  0  0  0
   -2.5806    0.9034    3.2239 O   0  0  0  0  0  0  0  0  0  0  0  0
    3.9693   -1.0008    0.7533 O   0  0  0  0  0  0  0  0  0  0  0  0
   -1.1054    1.3895   -1.4242 H   0  0  0  0  0  0  0  0  0  0  0  0
   -1.4120   -0.9814   -1.8603 H   0  0  0  0  0  0  0  0  0  0  0  0
   -3.1188   -1.6647    0.1954 H   0  0  0  0  0  0  0  0  0  0  0  0
    1.3127    2.3584   -0.5170 H   0  0  0  0  0  0  0  0  0  0  0  0
   -3.6357    1.0606    0.8241 H   0  0  0  0  0  0  0  0  0  0  0  0
   -4.6231   -0.6514   -0.9739 H   0  0  0  0  0  0  0  0  0  0  0  0
    3.6090    1.4603    0.1011 H   0  0  0  0  0  0  0  0  0  0  0  0
   -3.4570   -0.8060    2.5228 H   0  0  0  0  0  0  0  0  0  0  0  0
   -1.6829   -0.7328    2.3922 H   0  0  0  0  0  0  0  0  0  0  0  0
   -1.8705    1.5068    2.9332 H   0  0  0  0  0  0  0  0  0  0  0  0
  1  2  1  0  0  0  0
  1  3  1  0  0  0  0
  1  4  1  0  0  0  0
  1 17  1  6  0  0  0
  2  5  1  0  0  0  0
  2  6  1  0  0  0  0
  2 18  1  6  0  0  0
  3  7  1  0  0  0  0
  3  8  1  0  0  0  0
  4  9  1  0  0  0  0
  5  7  1  0  0  0  0
  6  9  1  0  0  0  0
  6 19  1  1  0  0  0
  6 10  1  0  0  0  0
  7 11  2  0  0  0  0
  8 12  2  0  0  0  0
  8 20  1  0  0  0  0
  9 21  1  6  0  0  0
  9 13  1  0  0  0  0
 10 22  1  0  0  0  0
 11 14  1  0  0  0  0
 12 14  1  0  0  0  0
 12 23  1  0  0  0  0
 13 15  1  0  0  0  0
 13 24  1  0  0  0  0
 13 25  1  0  0  0  0
 14 16  2  0  0  0  0
 15 26  1  0  0  0  0
M  END
>  <Mol_ID>
3094

>  <Formula>
C9H10N2O5

>  <MolWeight>
226.1861

>  <Cat>
S4984

>  <Name>
2,2'-Cyclouridine

>  <Synonyms>
N/A

>  <Target>
Others

>  <Form>
free base

>  <CAS>
3736-77-4

>  <URL>
http://selleckchem.com/products/2-2-cyclouridine.html

$$$$
