S4981 Cyclogalegenol.cdx
 OpenBabel08302519533D

 85 90  0  0  0  0  0  0  0  0999 V2000
    2.1688   -3.7555    0.7101 C   0  0  2  0  0  0  0  0  0  0  0  0
    2.8075   -2.6276    1.3431 O   0  0  0  0  0  0  0  0  0  0  0  0
    4.2405   -2.7226    1.2937 C   0  0  1  0  0  0  0  0  0  0  0  0
    4.5464   -3.6466    0.1293 C   0  0  0  0  0  0  0  0  0  0  0  0
    3.2376   -4.3286   -0.2354 C   0  0  0  0  0  0  0  0  0  0  0  0
   -2.6374    3.8000    1.8585 C   0  0  0  0  0  0  0  0  0  0  0  0
   -3.4023    4.3415    0.6493 C   0  0  1  0  0  0  0  0  0  0  0  0
   -3.6942    3.3327   -0.5286 C   0  0  0  0  0  0  0  0  0  0  0  0
   -1.4485    2.9597    1.4326 C   0  0  0  0  0  0  0  0  0  0  0  0
   -1.9978    1.8185    0.5829 C   0  0  1  0  0  0  0  0  0  0  0  0
   -2.5069    2.3488   -0.7411 C   0  0  1  0  0  0  0  0  0  0  0  0
   -2.6326    1.2974   -1.8884 C   0  0  2  0  0  0  0  0  0  0  0  0
   -2.8866   -0.1585   -1.4834 C   0  0  0  0  0  0  0  0  0  0  0  0
   -1.4184    0.3971    0.5179 C   0  0  1  0  0  0  0  0  0  0  0  0
   -1.9589   -0.7280   -0.3945 C   0  0  2  0  0  0  0  0  0  0  0  0
    0.8768   -0.7416    0.6930 C   0  0  0  0  0  0  0  0  0  0  0  0
    0.0666    0.5245    0.6844 C   0  0  0  0  0  0  0  0  0  0  0  0
    0.0985   -2.0189    0.4314 C   0  0  1  0  0  0  0  0  0  0  0  0
   -0.8759   -1.7751   -0.7904 C   0  0  1  0  0  0  0  0  0  0  0  0
   -1.3539   -3.2338   -1.0021 C   0  0  0  0  0  0  0  0  0  0  0  0
   -0.0633   -4.0986   -0.8273 C   0  0  1  0  0  0  0  0  0  0  0  0
    0.9736   -3.1872   -0.1071 C   0  0  2  0  0  0  0  0  0  0  0  0
   -2.5067    0.7435    1.5044 C   0  0  0  0  0  0  0  0  0  0  0  0
   -0.5945   -2.4214    1.7660 C   0  0  0  0  0  0  0  0  0  0  0  0
    1.8491   -4.7401    1.8365 C   0  0  0  0  0  0  0  0  0  0  0  0
   -0.1769   -1.3380   -2.1159 C   0  0  0  0  0  0  0  0  0  0  0  0
   -5.0111    2.5694   -0.3145 C   0  0  0  0  0  0  0  0  0  0  0  0
   -3.8371    4.2094   -1.8047 C   0  0  0  0  0  0  0  0  0  0  0  0
    4.8126   -1.2783    1.2230 C   0  0  0  0  0  0  0  0  0  0  0  0
    4.3215   -0.6132    0.0522 O   0  0  0  0  0  0  0  0  0  0  0  0
    4.3584   -0.4566    2.4422 C   0  0  0  0  0  0  0  0  0  0  0  0
    6.3326   -1.2341    1.1071 C   0  0  0  0  0  0  0  0  0  0  0  0
   -4.6102    4.9487    1.1142 O   0  0  0  0  0  0  0  0  0  0  0  0
   -1.4637    1.3526   -2.7184 O   0  0  0  0  0  0  0  0  0  0  0  0
   -0.3549   -5.3150   -0.1693 O   0  0  0  0  0  0  0  0  0  0  0  0
    4.5634   -3.1980    2.2313 H   0  0  0  0  0  0  0  0  0  0  0  0
    4.9404   -3.1031   -0.7361 H   0  0  0  0  0  0  0  0  0  0  0  0
    5.3082   -4.3801    0.4121 H   0  0  0  0  0  0  0  0  0  0  0  0
    3.3063   -5.4198   -0.1791 H   0  0  0  0  0  0  0  0  0  0  0  0
    3.0174   -4.1066   -1.2875 H   0  0  0  0  0  0  0  0  0  0  0  0
   -2.2968    4.6316    2.4891 H   0  0  0  0  0  0  0  0  0  0  0  0
   -3.3075    3.2097    2.5002 H   0  0  0  0  0  0  0  0  0  0  0  0
   -2.7877    5.1613    0.2555 H   0  0  0  0  0  0  0  0  0  0  0  0
   -0.7194    3.5508    0.8672 H   0  0  0  0  0  0  0  0  0  0  0  0
   -0.9307    2.6047    2.3339 H   0  0  0  0  0  0  0  0  0  0  0  0
   -1.6935    3.0011   -1.0811 H   0  0  0  0  0  0  0  0  0  0  0  0
   -3.4411    1.5821   -2.5654 H   0  0  0  0  0  0  0  0  0  0  0  0
   -2.8872   -0.8067   -2.3667 H   0  0  0  0  0  0  0  0  0  0  0  0
   -3.9138   -0.2075   -1.0989 H   0  0  0  0  0  0  0  0  0  0  0  0
   -2.6444   -1.3201    0.2292 H   0  0  0  0  0  0  0  0  0  0  0  0
    1.6407   -0.6177   -0.0733 H   0  0  0  0  0  0  0  0  0  0  0  0
    1.3916   -0.7938    1.6531 H   0  0  0  0  0  0  0  0  0  0  0  0
    0.3355    1.0830    1.5889 H   0  0  0  0  0  0  0  0  0  0  0  0
    0.4369    1.1408   -0.1484 H   0  0  0  0  0  0  0  0  0  0  0  0
   -1.8047   -3.3941   -1.9873 H   0  0  0  0  0  0  0  0  0  0  0  0
   -2.1178   -3.5196   -0.2680 H   0  0  0  0  0  0  0  0  0  0  0  0
    0.3299   -4.3690   -1.8136 H   0  0  0  0  0  0  0  0  0  0  0  0
    1.5192   -2.6978   -0.9238 H   0  0  0  0  0  0  0  0  0  0  0  0
   -3.5258    0.4034    1.3592 H   0  0  0  0  0  0  0  0  0  0  0  0
   -2.2328    0.7219    2.5545 H   0  0  0  0  0  0  0  0  0  0  0  0
   -1.0376   -3.4180    1.7409 H   0  0  0  0  0  0  0  0  0  0  0  0
    0.1232   -2.4156    2.5940 H   0  0  0  0  0  0  0  0  0  0  0  0
   -1.3898   -1.7347    2.0625 H   0  0  0  0  0  0  0  0  0  0  0  0
    1.3554   -4.2508    2.6788 H   0  0  0  0  0  0  0  0  0  0  0  0
    2.7734   -5.1620    2.2467 H   0  0  0  0  0  0  0  0  0  0  0  0
    1.2404   -5.5873    1.5117 H   0  0  0  0  0  0  0  0  0  0  0  0
    0.5317   -2.0725   -2.5078 H   0  0  0  0  0  0  0  0  0  0  0  0
   -0.9007   -1.2237   -2.9283 H   0  0  0  0  0  0  0  0  0  0  0  0
    0.3680   -0.3998   -2.0059 H   0  0  0  0  0  0  0  0  0  0  0  0
   -5.1599    1.7917   -1.0720 H   0  0  0  0  0  0  0  0  0  0  0  0
   -5.8749    3.2348   -0.3858 H   0  0  0  0  0  0  0  0  0  0  0  0
   -5.0374    2.0861    0.6656 H   0  0  0  0  0  0  0  0  0  0  0  0
   -2.9198    4.7894   -1.9784 H   0  0  0  0  0  0  0  0  0  0  0  0
   -4.0178    3.6198   -2.7071 H   0  0  0  0  0  0  0  0  0  0  0  0
   -4.6627    4.9241   -1.7032 H   0  0  0  0  0  0  0  0  0  0  0  0
    3.4239   -0.9591   -0.0751 H   0  0  0  0  0  0  0  0  0  0  0  0
    4.7712    0.5568    2.4109 H   0  0  0  0  0  0  0  0  0  0  0  0
    3.2628   -0.3299    2.4668 H   0  0  0  0  0  0  0  0  0  0  0  0
    4.6671   -0.9311    3.3788 H   0  0  0  0  0  0  0  0  0  0  0  0
    6.6837   -0.1939    1.1205 H   0  0  0  0  0  0  0  0  0  0  0  0
    6.6650   -1.6441    0.1483 H   0  0  0  0  0  0  0  0  0  0  0  0
    6.8201   -1.7748    1.9212 H   0  0  0  0  0  0  0  0  0  0  0  0
   -5.0577    4.3063    1.6970 H   0  0  0  0  0  0  0  0  0  0  0  0
   -0.6871    1.4559   -2.1434 H   0  0  0  0  0  0  0  0  0  0  0  0
   -0.8924   -5.1324    0.6191 H   0  0  0  0  0  0  0  0  0  0  0  0
  1  2  1  0  0  0  0
  1 25  1  1  0  0  0
  2  3  1  0  0  0  0
  3 29  1  0  0  0  0
  3  4  1  0  0  0  0
  3 36  1  1  0  0  0
  4  5  1  0  0  0  0
  4 37  1  0  0  0  0
  4 38  1  0  0  0  0
  5  1  1  0  0  0  0
  5 39  1  0  0  0  0
  5 40  1  0  0  0  0
  6  7  1  0  0  0  0
  6  9  1  0  0  0  0
  6 41  1  0  0  0  0
  6 42  1  0  0  0  0
  7  8  1  0  0  0  0
  7 33  1  0  0  0  0
  7 43  1  6  0  0  0
  8 27  1  0  0  0  0
  8 28  1  0  0  0  0
  9 44  1  0  0  0  0
  9 45  1  0  0  0  0
 10  9  1  1  0  0  0
 10 11  1  0  0  0  0
 10 23  1  0  0  0  0
 10 14  1  0  0  0  0
 11  8  1  0  0  0  0
 11 12  1  0  0  0  0
 11 46  1  6  0  0  0
 12 13  1  0  0  0  0
 12 34  1  0  0  0  0
 12 47  1  6  0  0  0
 13 48  1  0  0  0  0
 13 49  1  0  0  0  0
 14 15  1  0  0  0  0
 14 17  1  1  0  0  0
 14 23  1  0  0  0  0
 15 13  1  0  0  0  0
 15 19  1  0  0  0  0
 15 50  1  1  0  0  0
 16 17  1  0  0  0  0
 16 51  1  0  0  0  0
 16 52  1  0  0  0  0
 17 53  1  0  0  0  0
 17 54  1  0  0  0  0
 18 16  1  0  0  0  0
 18 19  1  0  0  0  0
 18 24  1  1  0  0  0
 19 20  1  0  0  0  0
 19 26  1  6  0  0  0
 20 21  1  0  0  0  0
 20 55  1  0  0  0  0
 20 56  1  0  0  0  0
 21 35  1  0  0  0  0
 21 57  1  6  0  0  0
 22  1  1  0  0  0  0
 22 18  1  0  0  0  0
 22 21  1  0  0  0  0
 22 58  1  6  0  0  0
 23 59  1  0  0  0  0
 23 60  1  0  0  0  0
 24 61  1  0  0  0  0
 24 62  1  0  0  0  0
 24 63  1  0  0  0  0
 25 64  1  0  0  0  0
 25 65  1  0  0  0  0
 25 66  1  0  0  0  0
 26 67  1  0  0  0  0
 26 68  1  0  0  0  0
 26 69  1  0  0  0  0
 27 70  1  0  0  0  0
 27 71  1  0  0  0  0
 27 72  1  0  0  0  0
 28 73  1  0  0  0  0
 28 74  1  0  0  0  0
 28 75  1  0  0  0  0
 29 30  1  0  0  0  0
 29 31  1  0  0  0  0
 29 32  1  0  0  0  0
 30 76  1  0  0  0  0
 31 77  1  0  0  0  0
 31 78  1  0  0  0  0
 31 79  1  0  0  0  0
 32 80  1  0  0  0  0
 32 81  1  0  0  0  0
 32 82  1  0  0  0  0
 33 83  1  0  0  0  0
 34 84  1  0  0  0  0
 35 85  1  0  0  0  0
M  END
>  <Mol_ID>
2013

>  <Formula>
C30H50O5

>  <MolWeight>
490.715

>  <Cat>
S4981

>  <Name>
Cyclogalegenol

>  <Synonyms>
Astramembrangenin, Cyclosieversigenin

>  <Target>
Telomerase

>  <Form>
Cyclohexanol

>  <CAS>
78574-94-4

>  <URL>
http://selleckchem.com/products/cyclogalegenol.html

$$$$
