S4983 Sorbic acid.cdx
 OpenBabel08302519553D

 16 15  0  0  0  0  0  0  0  0999 V2000
    0.9251   -0.0075    0.0533 C   0  0  0  0  0  0  0  0  0  0  0  0
    0.2907   -1.1845   -0.1086 C   0  0  0  0  0  0  0  0  0  0  0  0
    0.1300    1.2297    0.2234 C   0  0  0  0  0  0  0  0  0  0  0  0
    0.9769   -2.4507   -0.2827 C   0  0  0  0  0  0  0  0  0  0  0  0
    0.8736    2.3388    0.3760 O   0  0  0  0  0  0  0  0  0  0  0  0
   -1.0972    1.2557    0.2270 O   0  0  0  0  0  0  0  0  0  0  0  0
    0.3489   -3.6277   -0.4446 C   0  0  0  0  0  0  0  0  0  0  0  0
    1.0676   -4.9320   -0.6240 C   0  0  0  0  0  0  0  0  0  0  0  0
    2.0021    0.0629    0.0629 H   0  0  0  0  0  0  0  0  0  0  0  0
   -0.7992   -1.2133   -0.1126 H   0  0  0  0  0  0  0  0  0  0  0  0
    2.0637   -2.4341   -0.2805 H   0  0  0  0  0  0  0  0  0  0  0  0
    1.8389    2.2396    0.3623 H   0  0  0  0  0  0  0  0  0  0  0  0
   -0.7387   -3.6832   -0.4523 H   0  0  0  0  0  0  0  0  0  0  0  0
    0.7953   -5.6294    0.1746 H   0  0  0  0  0  0  0  0  0  0  0  0
    0.7953   -5.3879   -1.5813 H   0  0  0  0  0  0  0  0  0  0  0  0
    2.1551   -4.8077   -0.6069 H   0  0  0  0  0  0  0  0  0  0  0  0
  1  2  2  0  0  0  0
  1  3  1  0  0  0  0
  1  9  1  0  0  0  0
  2  4  1  0  0  0  0
  2 10  1  0  0  0  0
  3  5  1  0  0  0  0
  3  6  2  0  0  0  0
  4  7  2  0  0  0  0
  4 11  1  0  0  0  0
  5 12  1  0  0  0  0
  7  8  1  0  0  0  0
  7 13  1  0  0  0  0
  8 14  1  0  0  0  0
  8 15  1  0  0  0  0
  8 16  1  0  0  0  0
M  END
>  <Mol_ID>
2103

>  <Formula>
C6H8O2

>  <MolWeight>
112.12652

>  <Cat>
S4983

>  <Name>
Sorbic acid

>  <Synonyms>
2,4-Hexadienoic acid

>  <Target>
Bacterial

>  <Form>
free base

>  <CAS>
110-44-1

>  <URL>
http://selleckchem.com/products/sorbic-acid.html

$$$$
