S4990 TBHQ.cdx
 OpenBabel08302519533D

 26 26  0  0  0  0  0  0  0  0999 V2000
    0.9190   -0.0748   -0.0666 C   0  0  0  0  0  0  0  0  0  0  0  0
    0.3923    0.6907    1.1710 C   0  0  0  0  0  0  0  0  0  0  0  0
    0.4505    0.4518   -1.4410 C   0  0  0  0  0  0  0  0  0  0  0  0
    0.4733   -1.5578   -0.0102 C   0  0  0  0  0  0  0  0  0  0  0  0
    2.4650   -0.0294   -0.0703 C   0  0  0  0  0  0  0  0  0  0  0  0
   -0.4051    1.8487    1.1478 C   0  0  0  0  0  0  0  0  0  0  0  0
    0.7209    0.1945    2.4567 C   0  0  0  0  0  0  0  0  0  0  0  0
   -0.8661    2.4624    2.3213 C   0  0  0  0  0  0  0  0  0  0  0  0
   -0.7892    2.4839    0.0045 O   0  0  0  0  0  0  0  0  0  0  0  0
    0.2709    0.8175    3.6242 C   0  0  0  0  0  0  0  0  0  0  0  0
   -0.5209    1.9495    3.5646 C   0  0  0  0  0  0  0  0  0  0  0  0
    0.5909    0.3377    4.8590 O   0  0  0  0  0  0  0  0  0  0  0  0
    0.7859   -0.2061   -2.2522 H   0  0  0  0  0  0  0  0  0  0  0  0
   -0.6417    0.5001   -1.5049 H   0  0  0  0  0  0  0  0  0  0  0  0
    0.8673    1.4387   -1.6642 H   0  0  0  0  0  0  0  0  0  0  0  0
    0.8282   -2.1078   -0.8916 H   0  0  0  0  0  0  0  0  0  0  0  0
    0.8690   -2.0857    0.8633 H   0  0  0  0  0  0  0  0  0  0  0  0
   -0.6192   -1.6412    0.0144 H   0  0  0  0  0  0  0  0  0  0  0  0
    2.8300    1.0023   -0.1343 H   0  0  0  0  0  0  0  0  0  0  0  0
    2.8973   -0.4747    0.8327 H   0  0  0  0  0  0  0  0  0  0  0  0
    2.8745   -0.5822   -0.9244 H   0  0  0  0  0  0  0  0  0  0  0  0
    1.3400   -0.6945    2.5497 H   0  0  0  0  0  0  0  0  0  0  0  0
   -1.4861    3.3541    2.2593 H   0  0  0  0  0  0  0  0  0  0  0  0
    0.0289    2.7740   -0.4289 H   0  0  0  0  0  0  0  0  0  0  0  0
   -0.8676    2.4286    4.4748 H   0  0  0  0  0  0  0  0  0  0  0  0
    1.1147   -0.4729    4.7504 H   0  0  0  0  0  0  0  0  0  0  0  0
  1  2  1  0  0  0  0
  1  3  1  0  0  0  0
  1  4  1  0  0  0  0
  1  5  1  0  0  0  0
  2  6  2  0  0  0  0
  2  7  1  0  0  0  0
  3 13  1  0  0  0  0
  3 14  1  0  0  0  0
  3 15  1  0  0  0  0
  4 16  1  0  0  0  0
  4 17  1  0  0  0  0
  4 18  1  0  0  0  0
  5 19  1  0  0  0  0
  5 20  1  0  0  0  0
  5 21  1  0  0  0  0
  6  8  1  0  0  0  0
  6  9  1  0  0  0  0
  7 10  2  0  0  0  0
  7 22  1  0  0  0  0
  8 11  2  0  0  0  0
  8 23  1  0  0  0  0
  9 24  1  0  0  0  0
 10 12  1  0  0  0  0
 10 11  1  0  0  0  0
 11 25  1  0  0  0  0
 12 26  1  0  0  0  0
M  END
>  <Mol_ID>
2021

>  <Formula>
C10H14O2

>  <MolWeight>
166.21696

>  <Cat>
S4990

>  <Name>
TBHQ

>  <Synonyms>
Tert-butylhydroquinone

>  <Target>
Nrf2

>  <Form>
free base

>  <CAS>
1948-33-0

>  <URL>
http://selleckchem.com/products/tbhq.html

$$$$
