S4992 Nanofin.cdx
 OpenBabel08302520013D

 23 23  0  0  0  0  0  0  0  0999 V2000
    0.7332    1.1895   -0.1657 N   0  0  0  0  0  0  0  0  0  0  0  0
    1.4525   -0.0338    0.2201 C   0  0  3  0  0  0  0  0  0  0  0  0
   -0.6673    1.2036    0.2848 C   0  0  3  0  0  0  0  0  0  0  0  0
    0.7343   -1.3003   -0.2701 C   0  0  0  0  0  0  0  0  0  0  0  0
    2.8696    0.0259   -0.3523 C   0  0  0  0  0  0  0  0  0  0  0  0
   -1.4229   -0.0320   -0.2214 C   0  0  0  0  0  0  0  0  0  0  0  0
   -0.7776    1.3724    1.8042 C   0  0  0  0  0  0  0  0  0  0  0  0
   -0.7264   -1.3303    0.1700 C   0  0  0  0  0  0  0  0  0  0  0  0
    0.7440    1.2660   -1.1849 H   0  0  0  0  0  0  0  0  0  0  0  0
    1.5477   -0.0714    1.3116 H   0  0  0  0  0  0  0  0  0  0  0  0
   -1.1401    2.0869   -0.1630 H   0  0  0  0  0  0  0  0  0  0  0  0
    0.7772   -1.3561   -1.3656 H   0  0  0  0  0  0  0  0  0  0  0  0
    1.2454   -2.1916    0.1123 H   0  0  0  0  0  0  0  0  0  0  0  0
    3.3981    0.9181    0.0008 H   0  0  0  0  0  0  0  0  0  0  0  0
    3.4486   -0.8493   -0.0376 H   0  0  0  0  0  0  0  0  0  0  0  0
    2.8624    0.0475   -1.4478 H   0  0  0  0  0  0  0  0  0  0  0  0
   -1.4935    0.0159   -1.3165 H   0  0  0  0  0  0  0  0  0  0  0  0
   -2.4524   -0.0326    0.1568 H   0  0  0  0  0  0  0  0  0  0  0  0
   -0.2942    2.3007    2.1269 H   0  0  0  0  0  0  0  0  0  0  0  0
   -1.8293    1.4233    2.1068 H   0  0  0  0  0  0  0  0  0  0  0  0
   -0.3202    0.5480    2.3601 H   0  0  0  0  0  0  0  0  0  0  0  0
   -1.2379   -2.1824   -0.2907 H   0  0  0  0  0  0  0  0  0  0  0  0
   -0.7842   -1.4759    1.2551 H   0  0  0  0  0  0  0  0  0  0  0  0
  1  2  1  0  0  0  0
  1  3  1  0  0  0  0
  1  9  1  0  0  0  0
  2  4  1  0  0  0  0
  2  5  1  0  0  0  0
  2 10  1  0  0  0  0
  3  6  1  0  0  0  0
  3  7  1  0  0  0  0
  3 11  1  0  0  0  0
  4  8  1  0  0  0  0
  4 12  1  0  0  0  0
  4 13  1  0  0  0  0
  5 14  1  0  0  0  0
  5 15  1  0  0  0  0
  5 16  1  0  0  0  0
  6  8  1  0  0  0  0
  6 17  1  0  0  0  0
  6 18  1  0  0  0  0
  7 19  1  0  0  0  0
  7 20  1  0  0  0  0
  7 21  1  0  0  0  0
  8 22  1  0  0  0  0
  8 23  1  0  0  0  0
M  END
>  <Mol_ID>
2959

>  <Formula>
C7H15N

>  <MolWeight>
113.2007

>  <Cat>
S4992

>  <Name>
Nanofin

>  <Synonyms>
2,6-Dimethylpiperidine, Lupetidine, Naniopinum

>  <Target>
AChR

>  <Form>
Piperidines

>  <CAS>
504-03-0

>  <URL>
http://selleckchem.com/products/nanofin.html

$$$$
