S4995 Nicotinic acid N-oxide.cdx
 OpenBabel08302520013D

 15 15  0  0  0  0  0  0  0  0999 V2000
    1.2672    1.2004   -0.0089 C   0  0  0  0  0  0  0  0  0  0  0  0
   -0.1282    1.2183   -0.0035 C   0  0  0  0  0  0  0  0  0  0  0  0
    1.9476   -0.0201    0.0054 C   0  0  0  0  0  0  0  0  0  0  0  0
    1.9612    2.5061    0.0336 C   0  0  0  0  0  0  0  0  0  0  0  0
   -0.8535    0.0449   -0.0120 N   0  3  0  0  0  0  0  0  0  0  0  0
    1.2244   -1.2088   -0.0071 C   0  0  0  0  0  0  0  0  0  0  0  0
    3.1690    2.5166   -0.5652 O   0  0  0  0  0  0  0  0  0  0  0  0
    1.4621    3.4932    0.5445 O   0  0  0  0  0  0  0  0  0  0  0  0
   -0.1683   -1.1597   -0.0182 C   0  0  0  0  0  0  0  0  0  0  0  0
   -2.1192    0.0620   -0.0188 O   0  5  0  0  0  0  0  0  0  0  0  0
   -0.7428    2.1062    0.0111 H   0  0  0  0  0  0  0  0  0  0  0  0
    3.0324   -0.0654    0.0606 H   0  0  0  0  0  0  0  0  0  0  0  0
    1.7330   -2.1698    0.0083 H   0  0  0  0  0  0  0  0  0  0  0  0
    3.3970    1.7346   -1.0992 H   0  0  0  0  0  0  0  0  0  0  0  0
   -0.8200   -2.0213   -0.0182 H   0  0  0  0  0  0  0  0  0  0  0  0
  1  2  2  0  0  0  0
  1  3  1  0  0  0  0
  1  4  1  0  0  0  0
  2  5  1  0  0  0  0
  2 11  1  0  0  0  0
  3  6  2  0  0  0  0
  3 12  1  0  0  0  0
  4  7  1  0  0  0  0
  4  8  2  0  0  0  0
  5  9  2  0  0  0  0
  5 10  1  0  0  0  0
  6  9  1  0  0  0  0
  6 13  1  0  0  0  0
  7 14  1  0  0  0  0
  9 15  1  0  0  0  0
M  CHG  2   5   1  10  -1
M  END
>  <Mol_ID>
2890

>  <Formula>
C6H5NO3

>  <MolWeight>
139.1088

>  <Cat>
S4995

>  <Name>
Nicotinic acid N-oxide

>  <Synonyms>
Oxiniacic acid, Nicotinic acid 1-oxide

>  <Target>
Others

>  <Form>
free base

>  <CAS>
2398-81-4

>  <URL>
http://selleckchem.com/products/nicotinic-acid-n-oxide.html

$$$$
