S4998 2-Aminobenzenesulfonamide.cdx
 OpenBabel08302520013D

 19 19  0  0  0  0  0  0  0  0999 V2000
    0.3001    1.2386   -0.0280 C   0  0  0  0  0  0  0  0  0  0  0  0
    0.9958    0.0169   -0.0187 C   0  0  0  0  0  0  0  0  0  0  0  0
   -1.1014    1.2750    0.0308 C   0  0  0  0  0  0  0  0  0  0  0  0
    1.1751    2.7761   -0.0246 S   0  0  0  0  0  0  0  0  0  0  0  0
    0.2378   -1.1628   -0.0587 C   0  0  0  0  0  0  0  0  0  0  0  0
    2.3851   -0.0889   -0.2132 N   0  0  0  0  0  0  0  0  0  0  0  0
   -1.8286    0.0852    0.0454 C   0  0  0  0  0  0  0  0  0  0  0  0
    1.3653    3.0853   -1.6611 N   0  0  0  0  0  0  0  0  0  0  0  0
    0.3131    3.8221    0.4825 O   0  0  0  0  0  0  0  0  0  0  0  0
    2.5079    2.5694    0.5027 O   0  0  0  0  0  0  0  0  0  0  0  0
   -1.1584   -1.1331   -0.0053 C   0  0  0  0  0  0  0  0  0  0  0  0
   -1.6337    2.2243    0.0537 H   0  0  0  0  0  0  0  0  0  0  0  0
    0.7363   -2.1272   -0.1308 H   0  0  0  0  0  0  0  0  0  0  0  0
    2.7825   -0.9575    0.1322 H   0  0  0  0  0  0  0  0  0  0  0  0
    2.9034    0.7185    0.1512 H   0  0  0  0  0  0  0  0  0  0  0  0
   -2.9151    0.1082    0.0820 H   0  0  0  0  0  0  0  0  0  0  0  0
    1.0853    4.0424   -1.8741 H   0  0  0  0  0  0  0  0  0  0  0  0
    2.3072    2.8407   -1.9655 H   0  0  0  0  0  0  0  0  0  0  0  0
   -1.7194   -2.0644   -0.0161 H   0  0  0  0  0  0  0  0  0  0  0  0
  1  2  2  0  0  0  0
  1  3  1  0  0  0  0
  1  4  1  0  0  0  0
  2  5  1  0  0  0  0
  2  6  1  0  0  0  0
  3  7  2  0  0  0  0
  3 12  1  0  0  0  0
  4  8  1  0  0  0  0
  4  9  2  0  0  0  0
  4 10  2  0  0  0  0
  5 11  2  0  0  0  0
  5 13  1  0  0  0  0
  6 14  1  0  0  0  0
  6 15  1  0  0  0  0
  7 11  1  0  0  0  0
  7 16  1  0  0  0  0
  8 17  1  0  0  0  0
  8 18  1  0  0  0  0
 11 19  1  0  0  0  0
M  END
>  <Mol_ID>
3095

>  <Formula>
C6H8N2O2S

>  <MolWeight>
172.20492

>  <Cat>
S4998

>  <Name>
2-Aminobenzenesulfonamide

>  <Synonyms>
Orthanilamide, O-Aminobenzenesulfonamide, O-Sulfanilamide, Benzenesulfonamide

>  <Target>
Carbonic Anhydrase

>  <Form>
Sulfonamides

>  <CAS>
3306-62-5

>  <URL>
https://www.selleckchem.com/products/2-aminobenzenesulfonamide.html

$$$$
