S4991 Valpromide.cdx
 OpenBabel08302519533D

 27 26  0  0  0  0  0  0  0  0999 V2000
    1.0113    0.0673   -0.0107 C   0  0  0  0  0  0  0  0  0  0  0  0
    0.4972    1.4380    0.4701 C   0  0  0  0  0  0  0  0  0  0  0  0
    0.5190   -0.2754   -1.4345 C   0  0  0  0  0  0  0  0  0  0  0  0
    0.5376   -1.0529    0.9151 C   0  0  0  0  0  0  0  0  0  0  0  0
    0.9408    1.8511    1.8805 C   0  0  0  0  0  0  0  0  0  0  0  0
    0.8912    0.7087   -2.5475 C   0  0  0  0  0  0  0  0  0  0  0  0
    1.3028   -2.1804    0.8914 N   0  0  0  0  0  0  0  0  0  0  0  0
   -0.4791   -1.0069    1.5989 O   0  0  0  0  0  0  0  0  0  0  0  0
    2.4502    1.9142    2.0592 C   0  0  0  0  0  0  0  0  0  0  0  0
    2.3890    0.8837   -2.7363 C   0  0  0  0  0  0  0  0  0  0  0  0
    2.1076    0.0724   -0.0030 H   0  0  0  0  0  0  0  0  0  0  0  0
    0.8363    2.2172   -0.2218 H   0  0  0  0  0  0  0  0  0  0  0  0
   -0.6002    1.4520    0.4393 H   0  0  0  0  0  0  0  0  0  0  0  0
    0.8945   -1.2684   -1.7159 H   0  0  0  0  0  0  0  0  0  0  0  0
   -0.5755   -0.3698   -1.4192 H   0  0  0  0  0  0  0  0  0  0  0  0
    0.5239    2.8433    2.0878 H   0  0  0  0  0  0  0  0  0  0  0  0
    0.5175    1.1784    2.6352 H   0  0  0  0  0  0  0  0  0  0  0  0
    0.4672    0.3320   -3.4867 H   0  0  0  0  0  0  0  0  0  0  0  0
    0.4244    1.6841   -2.3745 H   0  0  0  0  0  0  0  0  0  0  0  0
    1.0178   -2.9504    1.4818 H   0  0  0  0  0  0  0  0  0  0  0  0
    2.1445   -2.2710    0.3415 H   0  0  0  0  0  0  0  0  0  0  0  0
    2.9305    2.4247    1.2190 H   0  0  0  0  0  0  0  0  0  0  0  0
    2.6970    2.4618    2.9750 H   0  0  0  0  0  0  0  0  0  0  0  0
    2.8794    0.9116    2.1486 H   0  0  0  0  0  0  0  0  0  0  0  0
    2.8918   -0.0839   -2.8307 H   0  0  0  0  0  0  0  0  0  0  0  0
    2.5869    1.4572   -3.6482 H   0  0  0  0  0  0  0  0  0  0  0  0
    2.8349    1.4274   -1.8985 H   0  0  0  0  0  0  0  0  0  0  0  0
  1  2  1  0  0  0  0
  1  3  1  0  0  0  0
  1  4  1  0  0  0  0
  1 11  1  0  0  0  0
  2  5  1  0  0  0  0
  2 12  1  0  0  0  0
  2 13  1  0  0  0  0
  3  6  1  0  0  0  0
  3 14  1  0  0  0  0
  3 15  1  0  0  0  0
  4  7  1  0  0  0  0
  4  8  2  0  0  0  0
  5  9  1  0  0  0  0
  5 16  1  0  0  0  0
  5 17  1  0  0  0  0
  6 10  1  0  0  0  0
  6 18  1  0  0  0  0
  6 19  1  0  0  0  0
  7 20  1  0  0  0  0
  7 21  1  0  0  0  0
  9 22  1  0  0  0  0
  9 23  1  0  0  0  0
  9 24  1  0  0  0  0
 10 25  1  0  0  0  0
 10 26  1  0  0  0  0
 10 27  1  0  0  0  0
M  END
>  <Mol_ID>
2027

>  <Formula>
C8H17NO

>  <MolWeight>
143.22668

>  <Cat>
S4991

>  <Name>
Valpromide

>  <Synonyms>
Depamide, Dipropylacetamide, 2-propylpentanamide

>  <Target>
Epoxide Hydrolase

>  <Form>
free base

>  <CAS>
2430-27-5

>  <URL>
http://selleckchem.com/products/valpromide.html

$$$$
