S5019 Indobufen.cdx
 OpenBabel08302519553D

 39 41  0  0  0  0  0  0  0  0999 V2000
   -1.8538   -0.9858   -0.0464 N   0  0  0  0  0  0  0  0  0  0  0  0
   -3.1865   -1.4571   -0.1193 C   0  0  0  0  0  0  0  0  0  0  0  0
   -1.2796    0.0128   -0.8378 C   0  0  0  0  0  0  0  0  0  0  0  0
   -0.8914   -1.5349    0.8996 C   0  0  0  0  0  0  0  0  0  0  0  0
   -4.0741   -1.0113   -1.1035 C   0  0  0  0  0  0  0  0  0  0  0  0
   -3.6508   -2.4040    0.8025 C   0  0  0  0  0  0  0  0  0  0  0  0
    0.1221    0.1265   -0.4243 C   0  0  0  0  0  0  0  0  0  0  0  0
   -1.7522    0.7083   -1.7181 O   0  0  0  0  0  0  0  0  0  0  0  0
    0.3592   -0.7906    0.5921 C   0  0  0  0  0  0  0  0  0  0  0  0
   -5.3911   -1.4748   -1.1531 C   0  0  0  0  0  0  0  0  0  0  0  0
   -4.9603   -2.8813    0.7491 C   0  0  0  0  0  0  0  0  0  0  0  0
    1.1021    0.9663   -0.9157 C   0  0  0  0  0  0  0  0  0  0  0  0
    1.6158   -0.9036    1.1566 C   0  0  0  0  0  0  0  0  0  0  0  0
   -5.8554   -2.3986   -0.2113 C   0  0  0  0  0  0  0  0  0  0  0  0
    2.3733    0.8622   -0.3520 C   0  0  0  0  0  0  0  0  0  0  0  0
    2.6280   -0.0669    0.6745 C   0  0  0  0  0  0  0  0  0  0  0  0
   -7.3007   -2.8662   -0.2714 C   0  0  3  0  0  0  0  0  0  0  0  0
   -7.5119   -4.1504   -1.0750 C   0  0  0  0  0  0  0  0  0  0  0  0
   -7.9399   -3.0119    1.1288 C   0  0  0  0  0  0  0  0  0  0  0  0
   -6.4295   -4.6638   -1.7022 O   0  0  0  0  0  0  0  0  0  0  0  0
   -8.6080   -4.6895   -1.1809 O   0  0  0  0  0  0  0  0  0  0  0  0
   -7.9062   -1.7203    1.9424 C   0  0  0  0  0  0  0  0  0  0  0  0
   -1.2197   -1.3342    1.9248 H   0  0  0  0  0  0  0  0  0  0  0  0
   -0.7649   -2.6069    0.7158 H   0  0  0  0  0  0  0  0  0  0  0  0
   -3.7721   -0.2918   -1.8593 H   0  0  0  0  0  0  0  0  0  0  0  0
   -3.0198   -2.7835    1.6004 H   0  0  0  0  0  0  0  0  0  0  0  0
   -6.0473   -1.0943   -1.9350 H   0  0  0  0  0  0  0  0  0  0  0  0
   -5.2683   -3.6134    1.4923 H   0  0  0  0  0  0  0  0  0  0  0  0
    0.8831    1.6729   -1.7099 H   0  0  0  0  0  0  0  0  0  0  0  0
    1.8192   -1.6185    1.9476 H   0  0  0  0  0  0  0  0  0  0  0  0
    3.1755    1.5029   -0.7102 H   0  0  0  0  0  0  0  0  0  0  0  0
    3.6277   -0.1344    1.0976 H   0  0  0  0  0  0  0  0  0  0  0  0
   -7.8711   -2.0951   -0.8095 H   0  0  0  0  0  0  0  0  0  0  0  0
   -8.9869   -3.3217    1.0240 H   0  0  0  0  0  0  0  0  0  0  0  0
   -7.4536   -3.8144    1.6967 H   0  0  0  0  0  0  0  0  0  0  0  0
   -5.5976   -4.1600   -1.6026 H   0  0  0  0  0  0  0  0  0  0  0  0
   -8.4601   -0.9258    1.4333 H   0  0  0  0  0  0  0  0  0  0  0  0
   -8.3613   -1.8818    2.9242 H   0  0  0  0  0  0  0  0  0  0  0  0
   -6.8862   -1.3639    2.1149 H   0  0  0  0  0  0  0  0  0  0  0  0
  1  2  1  0  0  0  0
  1  3  1  0  0  0  0
  1  4  1  0  0  0  0
  2  5  2  0  0  0  0
  2  6  1  0  0  0  0
  3  7  1  0  0  0  0
  3  8  2  0  0  0  0
  4  9  1  0  0  0  0
  4 23  1  0  0  0  0
  4 24  1  0  0  0  0
  5 10  1  0  0  0  0
  5 25  1  0  0  0  0
  6 11  2  0  0  0  0
  6 26  1  0  0  0  0
  7 12  1  0  0  0  0
  7  9  2  0  0  0  0
  9 13  1  0  0  0  0
 10 14  2  0  0  0  0
 10 27  1  0  0  0  0
 11 14  1  0  0  0  0
 11 28  1  0  0  0  0
 12 15  2  0  0  0  0
 12 29  1  0  0  0  0
 13 16  2  0  0  0  0
 13 30  1  0  0  0  0
 14 17  1  0  0  0  0
 15 16  1  0  0  0  0
 15 31  1  0  0  0  0
 16 32  1  0  0  0  0
 17 18  1  0  0  0  0
 17 19  1  0  0  0  0
 17 33  1  0  0  0  0
 18 20  1  0  0  0  0
 18 21  2  0  0  0  0
 19 22  1  0  0  0  0
 19 34  1  0  0  0  0
 19 35  1  0  0  0  0
 20 36  1  0  0  0  0
 22 37  1  0  0  0  0
 22 38  1  0  0  0  0
 22 39  1  0  0  0  0
M  END
>  <Mol_ID>
2093

>  <Formula>
C18H17NO3

>  <MolWeight>
295.33248

>  <Cat>
S5019

>  <Name>
Indobufen

>  <Synonyms>
Ibustrin, K 3920

>  <Target>
COX

>  <Form>
free base

>  <CAS>
63610-08-2

>  <URL>
http://selleckchem.com/products/indobufen.html

$$$$
