S5023 Nadolol.cdx
 OpenBabel08302519533D

 49 50  0  0  0  0  0  0  0  0999 V2000
   -0.6541    1.5866   -1.0691 C   0  0  0  0  0  0  0  0  0  0  0  0
   -1.1570    0.4590   -1.7585 C   0  0  0  0  0  0  0  0  0  0  0  0
    0.7207    1.6701   -0.7660 C   0  0  0  0  0  0  0  0  0  0  0  0
   -1.5719    2.7421   -0.7344 C   0  0  0  0  0  0  0  0  0  0  0  0
   -2.6375    0.2460   -2.0155 C   0  0  0  0  0  0  0  0  0  0  0  0
   -0.2608   -0.4916   -2.2573 C   0  0  0  0  0  0  0  0  0  0  0  0
    1.5970    0.7330   -1.3093 C   0  0  0  0  0  0  0  0  0  0  0  0
    1.0884    2.6249    0.1424 O   0  0  0  0  0  0  0  0  0  0  0  0
   -2.8128    2.7219   -1.6385 C   0  0  1  0  0  0  0  0  0  0  0  0
   -3.5362    1.3723   -1.4988 C   0  0  2  0  0  0  0  0  0  0  0  0
    1.1071   -0.3258   -2.0792 C   0  0  0  0  0  0  0  0  0  0  0  0
    2.3808    3.2186    0.0332 C   0  0  0  0  0  0  0  0  0  0  0  0
   -3.6646    3.8231   -1.3206 O   0  0  0  0  0  0  0  0  0  0  0  0
   -3.9384    1.1069   -0.1528 O   0  0  0  0  0  0  0  0  0  0  0  0
    3.2531    3.0256    1.2914 C   0  0  3  0  0  0  0  0  0  0  0  0
    3.5980    1.5493    1.5989 C   0  0  0  0  0  0  0  0  0  0  0  0
    4.4685    3.7815    1.1212 O   0  0  0  0  0  0  0  0  0  0  0  0
    4.5374    1.4688    2.7345 N   0  0  0  0  0  0  0  0  0  0  0  0
    5.0258    0.1341    3.1291 C   0  0  0  0  0  0  0  0  0  0  0  0
    5.8359   -0.5633    2.0249 C   0  0  0  0  0  0  0  0  0  0  0  0
    5.9644    0.3490    4.3367 C   0  0  0  0  0  0  0  0  0  0  0  0
    3.8645   -0.7624    3.5808 C   0  0  0  0  0  0  0  0  0  0  0  0
   -1.0560    3.6964   -0.9004 H   0  0  0  0  0  0  0  0  0  0  0  0
   -1.8493    2.7214    0.3258 H   0  0  0  0  0  0  0  0  0  0  0  0
   -2.9425   -0.7084   -1.5648 H   0  0  0  0  0  0  0  0  0  0  0  0
   -2.7688    0.1709   -3.1009 H   0  0  0  0  0  0  0  0  0  0  0  0
   -0.6239   -1.3493   -2.8161 H   0  0  0  0  0  0  0  0  0  0  0  0
    2.6663    0.7859   -1.1431 H   0  0  0  0  0  0  0  0  0  0  0  0
   -2.5038    2.8586   -2.6834 H   0  0  0  0  0  0  0  0  0  0  0  0
   -4.4712    1.3904   -2.0753 H   0  0  0  0  0  0  0  0  0  0  0  0
    1.8031   -1.0444   -2.5162 H   0  0  0  0  0  0  0  0  0  0  0  0
    2.9268    2.9344   -0.8749 H   0  0  0  0  0  0  0  0  0  0  0  0
    2.2074    4.2964   -0.0807 H   0  0  0  0  0  0  0  0  0  0  0  0
   -4.3977    3.8127   -1.9595 H   0  0  0  0  0  0  0  0  0  0  0  0
   -3.1382    0.9925    0.3952 H   0  0  0  0  0  0  0  0  0  0  0  0
    2.7271    3.4475    2.1571 H   0  0  0  0  0  0  0  0  0  0  0  0
    2.6831    0.9975    1.8086 H   0  0  0  0  0  0  0  0  0  0  0  0
    4.0792    1.1200    0.7110 H   0  0  0  0  0  0  0  0  0  0  0  0
    5.0924    3.2282    0.6188 H   0  0  0  0  0  0  0  0  0  0  0  0
    5.3037    2.1257    2.6060 H   0  0  0  0  0  0  0  0  0  0  0  0
    6.7637   -0.0270    1.8063 H   0  0  0  0  0  0  0  0  0  0  0  0
    6.1098   -1.5797    2.3341 H   0  0  0  0  0  0  0  0  0  0  0  0
    5.2728   -0.6629    1.0910 H   0  0  0  0  0  0  0  0  0  0  0  0
    5.4306    0.7807    5.1907 H   0  0  0  0  0  0  0  0  0  0  0  0
    6.4024   -0.6009    4.6675 H   0  0  0  0  0  0  0  0  0  0  0  0
    6.7939    1.0210    4.0883 H   0  0  0  0  0  0  0  0  0  0  0  0
    3.2739   -0.2824    4.3700 H   0  0  0  0  0  0  0  0  0  0  0  0
    3.1888   -1.0068    2.7539 H   0  0  0  0  0  0  0  0  0  0  0  0
    4.2361   -1.7114    3.9846 H   0  0  0  0  0  0  0  0  0  0  0  0
  1  2  1  0  0  0  0
  1  3  2  0  0  0  0
  1  4  1  0  0  0  0
  2  5  1  0  0  0  0
  2  6  2  0  0  0  0
  3  7  1  0  0  0  0
  3  8  1  0  0  0  0
  4  9  1  0  0  0  0
  4 23  1  0  0  0  0
  4 24  1  0  0  0  0
  5 10  1  0  0  0  0
  5 25  1  0  0  0  0
  5 26  1  0  0  0  0
  6 11  1  0  0  0  0
  6 27  1  0  0  0  0
  7 11  2  0  0  0  0
  7 28  1  0  0  0  0
  8 12  1  0  0  0  0
  9 10  1  0  0  0  0
  9 29  1  6  0  0  0
  9 13  1  0  0  0  0
 10 14  1  0  0  0  0
 10 30  1  6  0  0  0
 11 31  1  0  0  0  0
 12 15  1  0  0  0  0
 12 32  1  0  0  0  0
 12 33  1  0  0  0  0
 13 34  1  0  0  0  0
 14 35  1  0  0  0  0
 15 16  1  0  0  0  0
 15 17  1  0  0  0  0
 15 36  1  0  0  0  0
 16 18  1  0  0  0  0
 16 37  1  0  0  0  0
 16 38  1  0  0  0  0
 17 39  1  0  0  0  0
 18 19  1  0  0  0  0
 18 40  1  0  0  0  0
 19 20  1  0  0  0  0
 19 21  1  0  0  0  0
 19 22  1  0  0  0  0
 20 41  1  0  0  0  0
 20 42  1  0  0  0  0
 20 43  1  0  0  0  0
 21 44  1  0  0  0  0
 21 45  1  0  0  0  0
 21 46  1  0  0  0  0
 22 47  1  0  0  0  0
 22 48  1  0  0  0  0
 22 49  1  0  0  0  0
M  END
>  <Mol_ID>
2022

>  <Formula>
C17H27NO4

>  <MolWeight>
309.40058

>  <Cat>
S5023

>  <Name>
Nadolol

>  <Synonyms>
Corgard, Solgol, Anabet, SQ11725

>  <Target>
Adrenergic Receptor

>  <Form>
free base

>  <CAS>
42200-33-9

>  <URL>
http://selleckchem.com/products/nadolol.html

$$$$
