S5025 Efinaconazole.cdx
 OpenBabel08302520003D

 47 49  0  0  0  0  0  0  0  0999 V2000
    2.7763   -2.8868   -2.5585 C   0  0  0  0  0  0  0  0  0  0  0  0
    4.0136   -3.6284   -2.6115 N   0  0  0  0  0  0  0  0  0  0  0  0
    4.6719   -3.7842   -3.7769 N   0  0  0  0  0  0  0  0  0  0  0  0
    5.6636   -4.6012   -3.4115 C   0  0  0  0  0  0  0  0  0  0  0  0
    5.6609   -4.9708   -2.0956 N   0  0  0  0  0  0  0  0  0  0  0  0
    4.5976   -4.3593   -1.6223 C   0  0  0  0  0  0  0  0  0  0  0  0
    2.4200   -1.9854    0.2835 N   0  0  0  0  0  0  0  0  0  0  0  0
    0.9935   -1.6384    0.4400 C   0  0  0  0  0  0  0  0  0  0  0  0
    0.6470   -0.5055    1.4269 C   0  0  0  0  0  0  0  0  0  0  0  0
    1.4322   -0.5689    2.7146 C   0  0  0  0  0  0  0  0  0  0  0  0
    2.8487   -1.0829    2.6278 C   0  0  0  0  0  0  0  0  0  0  0  0
    3.0081   -2.2251    1.6141 C   0  0  0  0  0  0  0  0  0  0  0  0
    2.9104   -1.3802   -2.2011 C   0  0  1  0  0  0  0  0  0  0  0  0
    3.2688   -1.1830   -0.6512 C   0  0  1  0  0  0  0  0  0  0  0  0
    0.8951   -0.1813    3.8845 C   0  0  0  0  0  0  0  0  0  0  0  0
    3.3884    0.3056   -0.2649 C   0  0  0  0  0  0  0  0  0  0  0  0
    3.8010   -0.6502   -3.2282 C   0  0  0  0  0  0  0  0  0  0  0  0
    5.0427   -0.0717   -2.9200 C   0  0  0  0  0  0  0  0  0  0  0  0
    5.6946    0.7880   -3.8000 C   0  0  0  0  0  0  0  0  0  0  0  0
    5.1623    0.9947   -5.0599 C   0  0  0  0  0  0  0  0  0  0  0  0
    4.0112    0.3332   -5.4601 C   0  0  0  0  0  0  0  0  0  0  0  0
    3.3319   -0.4799   -4.5495 C   0  0  0  0  0  0  0  0  0  0  0  0
    5.7642    1.8453   -5.9008 F   0  0  0  0  0  0  0  0  0  0  0  0
    5.6203   -0.2728   -1.7287 F   0  0  0  0  0  0  0  0  0  0  0  0
    1.5905   -0.8071   -2.4107 O   0  0  0  0  0  0  0  0  0  0  0  0
    2.1100   -3.4075   -1.8599 H   0  0  0  0  0  0  0  0  0  0  0  0
    2.2881   -3.0111   -3.5354 H   0  0  0  0  0  0  0  0  0  0  0  0
    6.4031   -4.9429   -4.1234 H   0  0  0  0  0  0  0  0  0  0  0  0
    4.2237   -4.4010   -0.6108 H   0  0  0  0  0  0  0  0  0  0  0  0
    0.5017   -1.4526   -0.5160 H   0  0  0  0  0  0  0  0  0  0  0  0
    0.4924   -2.5438    0.8135 H   0  0  0  0  0  0  0  0  0  0  0  0
    0.7952    0.4718    0.9608 H   0  0  0  0  0  0  0  0  0  0  0  0
   -0.4289   -0.5549    1.6375 H   0  0  0  0  0  0  0  0  0  0  0  0
    3.5116   -0.2514    2.3778 H   0  0  0  0  0  0  0  0  0  0  0  0
    3.1833   -1.4439    3.6078 H   0  0  0  0  0  0  0  0  0  0  0  0
    2.5177   -3.1166    2.0333 H   0  0  0  0  0  0  0  0  0  0  0  0
    4.0640   -2.5049    1.5242 H   0  0  0  0  0  0  0  0  0  0  0  0
    4.2727   -1.6083   -0.5490 H   0  0  0  0  0  0  0  0  0  0  0  0
    1.4644   -0.2173    4.8071 H   0  0  0  0  0  0  0  0  0  0  0  0
   -0.1186    0.2016    3.9424 H   0  0  0  0  0  0  0  0  0  0  0  0
    4.1160    0.4338    0.5416 H   0  0  0  0  0  0  0  0  0  0  0  0
    3.7351    0.9449   -1.0763 H   0  0  0  0  0  0  0  0  0  0  0  0
    2.4506    0.7612    0.0311 H   0  0  0  0  0  0  0  0  0  0  0  0
    6.5981    1.3018   -3.4933 H   0  0  0  0  0  0  0  0  0  0  0  0
    3.6323    0.4718   -6.4676 H   0  0  0  0  0  0  0  0  0  0  0  0
    2.4107   -0.9641   -4.8716 H   0  0  0  0  0  0  0  0  0  0  0  0
    1.6551    0.1450   -2.2179 H   0  0  0  0  0  0  0  0  0  0  0  0
  1  2  1  0  0  0  0
  1 26  1  0  0  0  0
  1 27  1  0  0  0  0
  2  3  1  0  0  0  0
  2  6  1  0  0  0  0
  3  4  2  0  0  0  0
  4  5  1  0  0  0  0
  4 28  1  0  0  0  0
  5  6  2  0  0  0  0
  6 29  1  0  0  0  0
  7  8  1  0  0  0  0
  7 12  1  0  0  0  0
  8  9  1  0  0  0  0
  8 30  1  0  0  0  0
  8 31  1  0  0  0  0
  9 10  1  0  0  0  0
  9 32  1  0  0  0  0
  9 33  1  0  0  0  0
 10 11  1  0  0  0  0
 10 15  2  0  0  0  0
 11 12  1  0  0  0  0
 11 34  1  0  0  0  0
 11 35  1  0  0  0  0
 12 36  1  0  0  0  0
 12 37  1  0  0  0  0
 13  1  1  0  0  0  0
 13 17  1  0  0  0  0
 13 25  1  6  0  0  0
 14 16  1  0  0  0  0
 14 38  1  1  0  0  0
 14 13  1  0  0  0  0
 14  7  1  0  0  0  0
 15 39  1  0  0  0  0
 15 40  1  0  0  0  0
 16 41  1  0  0  0  0
 16 42  1  0  0  0  0
 16 43  1  0  0  0  0
 17 18  2  0  0  0  0
 17 22  1  0  0  0  0
 18 19  1  0  0  0  0
 18 24  1  0  0  0  0
 19 20  2  0  0  0  0
 19 44  1  0  0  0  0
 20 21  1  0  0  0  0
 20 23  1  0  0  0  0
 21 22  2  0  0  0  0
 21 45  1  0  0  0  0
 22 46  1  0  0  0  0
 25 47  1  0  0  0  0
M  END
>  <Mol_ID>
2792

>  <Formula>
C18H22F2N4O

>  <MolWeight>
348.3902864

>  <Cat>
S5025

>  <Name>
Efinaconazole

>  <Synonyms>
KP-103

>  <Target>
Fungal

>  <Form>
free base

>  <CAS>
164650-44-6

>  <URL>
http://selleckchem.com/products/efinaconazole.html

$$$$
