S5029 Etofylline.cdx
 OpenBabel08302520013D

 28 29  0  0  0  0  0  0  0  0999 V2000
    0.1690    0.7101    0.1299 C   0  0  0  0  0  0  0  0  0  0  0  0
    0.2089   -0.6480    0.0584 C   0  0  0  0  0  0  0  0  0  0  0  0
    1.4754    1.1075    0.0734 N   0  0  0  0  0  0  0  0  0  0  0  0
   -1.0419    1.4459    0.2265 C   0  0  0  0  0  0  0  0  0  0  0  0
   -0.9368   -1.4084    0.0486 N   0  0  0  0  0  0  0  0  0  0  0  0
    1.4856   -1.1168   -0.0167 N   0  0  0  0  0  0  0  0  0  0  0  0
    2.2345   -0.0311   -0.0080 C   0  0  0  0  0  0  0  0  0  0  0  0
    1.9778    2.4668    0.0048 C   0  0  0  0  0  0  0  0  0  0  0  0
   -2.1791    0.6364    0.1322 N   0  0  0  0  0  0  0  0  0  0  0  0
   -1.0730    2.6665    0.3716 O   0  0  0  0  0  0  0  0  0  0  0  0
   -2.1804   -0.7718    0.0629 C   0  0  0  0  0  0  0  0  0  0  0  0
   -0.8481   -2.8560   -0.0122 C   0  0  0  0  0  0  0  0  0  0  0  0
    2.3478    3.0369    1.3701 C   0  0  0  0  0  0  0  0  0  0  0  0
   -3.4528    1.3282    0.1113 C   0  0  0  0  0  0  0  0  0  0  0  0
   -3.2342   -1.4125    0.0134 O   0  0  0  0  0  0  0  0  0  0  0  0
    1.2310    3.1355    2.2463 O   0  0  0  0  0  0  0  0  0  0  0  0
    3.3158   -0.0139   -0.0690 H   0  0  0  0  0  0  0  0  0  0  0  0
    2.8541    2.4567   -0.6516 H   0  0  0  0  0  0  0  0  0  0  0  0
    1.2146    3.0814   -0.4817 H   0  0  0  0  0  0  0  0  0  0  0  0
   -0.3211   -3.1455   -0.9263 H   0  0  0  0  0  0  0  0  0  0  0  0
   -0.2940   -3.2168    0.8614 H   0  0  0  0  0  0  0  0  0  0  0  0
   -1.8352   -3.3254   -0.0150 H   0  0  0  0  0  0  0  0  0  0  0  0
    3.1061    2.4174    1.8599 H   0  0  0  0  0  0  0  0  0  0  0  0
    2.7648    4.0418    1.2481 H   0  0  0  0  0  0  0  0  0  0  0  0
   -3.5354    1.9608    1.0007 H   0  0  0  0  0  0  0  0  0  0  0  0
   -3.4805    1.9744   -0.7729 H   0  0  0  0  0  0  0  0  0  0  0  0
   -4.3073    0.6485    0.0759 H   0  0  0  0  0  0  0  0  0  0  0  0
    0.4638    3.4783    1.7459 H   0  0  0  0  0  0  0  0  0  0  0  0
  1  2  2  0  0  0  0
  1  3  1  0  0  0  0
  1  4  1  0  0  0  0
  2  5  1  0  0  0  0
  2  6  1  0  0  0  0
  3  7  1  0  0  0  0
  3  8  1  0  0  0  0
  4  9  1  0  0  0  0
  4 10  2  0  0  0  0
  5 11  1  0  0  0  0
  5 12  1  0  0  0  0
  6  7  2  0  0  0  0
  7 17  1  0  0  0  0
  8 13  1  0  0  0  0
  8 18  1  0  0  0  0
  8 19  1  0  0  0  0
  9 14  1  0  0  0  0
  9 11  1  0  0  0  0
 11 15  2  0  0  0  0
 12 20  1  0  0  0  0
 12 21  1  0  0  0  0
 12 22  1  0  0  0  0
 13 16  1  0  0  0  0
 13 23  1  0  0  0  0
 13 24  1  0  0  0  0
 14 25  1  0  0  0  0
 14 26  1  0  0  0  0
 14 27  1  0  0  0  0
 16 28  1  0  0  0  0
M  END
>  <Mol_ID>
2847

>  <Formula>
C9H12N4O3

>  <MolWeight>
224.21658

>  <Cat>
S5029

>  <Name>
Etofylline

>  <Synonyms>
Aethophyllinum, Cordalin, Oxyphylline

>  <Target>
Others

>  <Form>
Methylxanthines

>  <CAS>
519-37-9

>  <URL>
http://selleckchem.com/products/etofylline.html

$$$$
