S5032 Mephenesin.cdx
 OpenBabel08302520013D

 27 27  0  0  0  0  0  0  0  0999 V2000
    0.0973    0.9928    0.0629 C   0  0  0  0  0  0  0  0  0  0  0  0
    0.5917   -0.2640   -0.3296 C   0  0  0  0  0  0  0  0  0  0  0  0
    1.0104    1.9999    0.2805 O   0  0  0  0  0  0  0  0  0  0  0  0
   -1.2861    1.1542    0.2297 C   0  0  0  0  0  0  0  0  0  0  0  0
   -0.2861   -1.3625   -0.3920 C   0  0  0  0  0  0  0  0  0  0  0  0
    2.0351   -0.5085   -0.6800 C   0  0  0  0  0  0  0  0  0  0  0  0
    0.5114    3.1294    1.0242 C   0  0  0  0  0  0  0  0  0  0  0  0
   -2.1516    0.0598    0.1374 C   0  0  0  0  0  0  0  0  0  0  0  0
   -1.6469   -1.2003   -0.1426 C   0  0  0  0  0  0  0  0  0  0  0  0
    1.6412    4.0013    1.5915 C   0  0  3  0  0  0  0  0  0  0  0  0
    2.6130    3.2220    2.4872 C   0  0  0  0  0  0  0  0  0  0  0  0
    2.3675    4.6308    0.5323 O   0  0  0  0  0  0  0  0  0  0  0  0
    3.3595    2.2782    1.7201 O   0  0  0  0  0  0  0  0  0  0  0  0
   -1.7291    2.1250    0.4343 H   0  0  0  0  0  0  0  0  0  0  0  0
    0.0897   -2.3514   -0.6364 H   0  0  0  0  0  0  0  0  0  0  0  0
    2.5382   -1.0432    0.1301 H   0  0  0  0  0  0  0  0  0  0  0  0
    2.0946   -1.1136   -1.5943 H   0  0  0  0  0  0  0  0  0  0  0  0
    2.5745    0.4199   -0.8863 H   0  0  0  0  0  0  0  0  0  0  0  0
   -0.1024    3.7400    0.3511 H   0  0  0  0  0  0  0  0  0  0  0  0
   -0.0856    2.7828    1.8743 H   0  0  0  0  0  0  0  0  0  0  0  0
   -3.2148    0.2008    0.2886 H   0  0  0  0  0  0  0  0  0  0  0  0
   -2.3183   -2.0571   -0.1879 H   0  0  0  0  0  0  0  0  0  0  0  0
    1.1843    4.8036    2.1828 H   0  0  0  0  0  0  0  0  0  0  0  0
    3.3413    3.9103    2.9295 H   0  0  0  0  0  0  0  0  0  0  0  0
    2.0913    2.7033    3.2954 H   0  0  0  0  0  0  0  0  0  0  0  0
    3.1588    4.0771    0.3768 H   0  0  0  0  0  0  0  0  0  0  0  0
    2.7128    1.7415    1.2178 H   0  0  0  0  0  0  0  0  0  0  0  0
  1  2  2  0  0  0  0
  1  3  1  0  0  0  0
  1  4  1  0  0  0  0
  2  5  1  0  0  0  0
  2  6  1  0  0  0  0
  3  7  1  0  0  0  0
  4  8  2  0  0  0  0
  4 14  1  0  0  0  0
  5  9  2  0  0  0  0
  5 15  1  0  0  0  0
  6 16  1  0  0  0  0
  6 17  1  0  0  0  0
  6 18  1  0  0  0  0
  7 10  1  0  0  0  0
  7 19  1  0  0  0  0
  7 20  1  0  0  0  0
  8  9  1  0  0  0  0
  8 21  1  0  0  0  0
  9 22  1  0  0  0  0
 10 11  1  0  0  0  0
 10 12  1  0  0  0  0
 10 23  1  0  0  0  0
 11 13  1  0  0  0  0
 11 24  1  0  0  0  0
 11 25  1  0  0  0  0
 12 26  1  0  0  0  0
 13 27  1  0  0  0  0
M  END
>  <Mol_ID>
2848

>  <Formula>
C10H14O3

>  <MolWeight>
182.21636

>  <Cat>
S5032

>  <Name>
Mephenesin

>  <Synonyms>
Decontractyl, Cresoxydiol, Memphenesin, Mephedan

>  <Target>
NMDAR

>  <Form>
free base

>  <CAS>
59-47-2

>  <URL>
http://selleckchem.com/products/mephenesin.html

$$$$
