S5031 Sulfaquinoxaline sodium.cdx
 OpenBabel08302521403D

 33 35  0  0  0  0  0  0  0  0999 V2000
    2.2744   -0.8373   -0.0162 C   0  0  0  0  0  0  0  0  0  0  0  0
    1.3488   -0.7190   -1.0382 C   0  0  0  0  0  0  0  0  0  0  0  0
    0.1161   -0.1979   -0.8393 N   0  0  0  0  0  0  0  0  0  0  0  0
   -0.1689    0.1891    0.4201 C   0  0  0  0  0  0  0  0  0  0  0  0
    0.7884    0.0684    1.4632 C   0  0  0  0  0  0  0  0  0  0  0  0
    2.0231   -0.4307    1.2377 N   0  0  0  0  0  0  0  0  0  0  0  0
   -1.4233    0.7133    0.7087 C   0  0  0  0  0  0  0  0  0  0  0  0
   -1.7652    1.1123    2.0015 C   0  0  0  0  0  0  0  0  0  0  0  0
   -0.8343    0.9872    3.0246 C   0  0  0  0  0  0  0  0  0  0  0  0
    0.4325    0.4694    2.7460 C   0  0  0  0  0  0  0  0  0  0  0  0
    3.5410   -1.4332   -0.1898 N   0  0  0  0  0  0  0  0  0  0  0  0
    3.6123   -3.1049    0.0486 S   0  0  0  0  0  0  0  0  0  0  0  0
    3.1226   -3.7569   -1.5300 C   0  0  0  0  0  0  0  0  0  0  0  0
    4.0837   -4.0392   -2.5022 C   0  0  0  0  0  0  0  0  0  0  0  0
    3.6765   -4.5332   -3.7454 C   0  0  0  0  0  0  0  0  0  0  0  0
    2.3266   -4.7917   -4.0088 C   0  0  0  0  0  0  0  0  0  0  0  0
    1.3781   -4.4932   -3.0259 C   0  0  0  0  0  0  0  0  0  0  0  0
    1.7719   -4.0138   -1.7751 C   0  0  0  0  0  0  0  0  0  0  0  0
    1.9124   -5.1149   -5.3051 N   0  0  0  0  0  0  0  0  0  0  0  0
    5.0153   -3.4189    0.2227 O   0  0  0  0  0  0  0  0  0  0  0  0
    2.6288   -3.5223    1.0248 O   0  0  0  0  0  0  0  0  0  0  0  0
    1.5732   -1.0217   -2.0542 H   0  0  0  0  0  0  0  0  0  0  0  0
   -2.1524    0.8087   -0.0927 H   0  0  0  0  0  0  0  0  0  0  0  0
   -2.7550    1.5136    2.2046 H   0  0  0  0  0  0  0  0  0  0  0  0
   -1.0899    1.2871    4.0380 H   0  0  0  0  0  0  0  0  0  0  0  0
    1.1573    0.3670    3.5506 H   0  0  0  0  0  0  0  0  0  0  0  0
    4.2570   -0.9940    0.3866 H   0  0  0  0  0  0  0  0  0  0  0  0
    5.1407   -3.8671   -2.3121 H   0  0  0  0  0  0  0  0  0  0  0  0
    4.4254   -4.7125   -4.5131 H   0  0  0  0  0  0  0  0  0  0  0  0
    0.3186   -4.6320   -3.2273 H   0  0  0  0  0  0  0  0  0  0  0  0
    1.0185   -3.8208   -1.0140 H   0  0  0  0  0  0  0  0  0  0  0  0
    1.0022   -5.5626   -5.3510 H   0  0  0  0  0  0  0  0  0  0  0  0
    2.6105   -5.6050   -5.8555 H   0  0  0  0  0  0  0  0  0  0  0  0
  1  2  2  0  0  0  0
  1 11  1  0  0  0  0
  2  3  1  0  0  0  0
  2 22  1  0  0  0  0
  3  4  2  0  0  0  0
  4  5  1  0  0  0  0
  4  7  1  0  0  0  0
  5  6  2  0  0  0  0
  6  1  1  0  0  0  0
  7  8  2  0  0  0  0
  7 23  1  0  0  0  0
  8  9  1  0  0  0  0
  8 24  1  0  0  0  0
  9 10  2  0  0  0  0
  9 25  1  0  0  0  0
 10  5  1  0  0  0  0
 10 26  1  0  0  0  0
 11 12  1  0  0  0  0
 11 27  1  0  0  0  0
 12 13  1  0  0  0  0
 12 20  2  0  0  0  0
 12 21  2  0  0  0  0
 13 14  2  0  0  0  0
 14 15  1  0  0  0  0
 14 28  1  0  0  0  0
 15 16  2  0  0  0  0
 15 29  1  0  0  0  0
 16 17  1  0  0  0  0
 16 19  1  0  0  0  0
 17 18  2  0  0  0  0
 17 30  1  0  0  0  0
 18 13  1  0  0  0  0
 18 31  1  0  0  0  0
 19 32  1  0  0  0  0
 19 33  1  0  0  0  0
M  END
>  <Mol_ID>
8253

>  <Formula>
C14H11N4NaO2S

>  <MolWeight>
322.31751

>  <Cat>
S5031

>  <Name>
Sulfaquinoxaline sodium

>  <Synonyms>
SQ-Na

>  <Target>
Parasite

>  <Form>
sodium salt

>  <CAS>
967-80-6

>  <URL>
http://selleckchem.com/products/sulfaquinoxaline-sodium.html

$$$$
