S5047 Methyl ¦Á-D-mannopyranoside.cdx
 OpenBabel08302520003D

 27 27  0  0  0  0  0  0  0  0999 V2000
    0.2290   -1.8296    0.1372 C   0  0  1  0  0  0  0  0  0  0  0  0
   -1.1835   -1.5465    0.2262 O   0  0  0  0  0  0  0  0  0  0  0  0
    1.0667   -0.5830    0.4493 C   0  0  2  0  0  0  0  0  0  0  0  0
    0.5305   -2.9580    1.1282 C   0  0  0  0  0  0  0  0  0  0  0  0
   -1.6207   -0.5503   -0.7057 C   0  0  1  0  0  0  0  0  0  0  0  0
    0.6416    0.5766   -0.4686 C   0  0  1  0  0  0  0  0  0  0  0  0
    2.4584   -0.8862    0.3146 O   0  0  0  0  0  0  0  0  0  0  0  0
   -0.2179   -4.1257    0.7708 O   0  0  0  0  0  0  0  0  0  0  0  0
   -0.8763    0.7764   -0.4497 C   0  0  2  0  0  0  0  0  0  0  0  0
   -1.4617   -0.9685   -2.0562 O   0  0  0  0  0  0  0  0  0  0  0  0
    1.2847    1.7883   -0.0371 O   0  0  0  0  0  0  0  0  0  0  0  0
   -1.2360    1.3258    0.8381 O   0  0  0  0  0  0  0  0  0  0  0  0
   -2.4317   -1.9478   -2.4155 C   0  0  0  0  0  0  0  0  0  0  0  0
    0.4514   -2.2008   -0.8727 H   0  0  0  0  0  0  0  0  0  0  0  0
    0.9146   -0.2809    1.4929 H   0  0  0  0  0  0  0  0  0  0  0  0
    1.5916   -3.2264    1.1363 H   0  0  0  0  0  0  0  0  0  0  0  0
    0.2282   -2.6790    2.1432 H   0  0  0  0  0  0  0  0  0  0  0  0
   -2.6822   -0.3757   -0.4979 H   0  0  0  0  0  0  0  0  0  0  0  0
    0.9897    0.3852   -1.4905 H   0  0  0  0  0  0  0  0  0  0  0  0
    2.7830   -0.4996   -0.5184 H   0  0  0  0  0  0  0  0  0  0  0  0
   -1.1275   -3.8137    0.6191 H   0  0  0  0  0  0  0  0  0  0  0  0
   -1.1502    1.5256   -1.1999 H   0  0  0  0  0  0  0  0  0  0  0  0
    0.7047    2.1702    0.6512 H   0  0  0  0  0  0  0  0  0  0  0  0
   -1.4214    0.5766    1.4355 H   0  0  0  0  0  0  0  0  0  0  0  0
   -2.2934   -2.8619   -1.8299 H   0  0  0  0  0  0  0  0  0  0  0  0
   -3.4442   -1.5587   -2.2721 H   0  0  0  0  0  0  0  0  0  0  0  0
   -2.3042   -2.1887   -3.4747 H   0  0  0  0  0  0  0  0  0  0  0  0
  1  2  1  0  0  0  0
  1  3  1  0  0  0  0
  1  4  1  0  0  0  0
  1 14  1  6  0  0  0
  2  5  1  0  0  0  0
  3  6  1  0  0  0  0
  3  7  1  0  0  0  0
  3 15  1  1  0  0  0
  4  8  1  0  0  0  0
  4 16  1  0  0  0  0
  4 17  1  0  0  0  0
  5  9  1  0  0  0  0
  5 18  1  1  0  0  0
  5 10  1  0  0  0  0
  6 11  1  0  0  0  0
  6  9  1  0  0  0  0
  6 19  1  6  0  0  0
  7 20  1  0  0  0  0
  8 21  1  0  0  0  0
  9 12  1  0  0  0  0
  9 22  1  6  0  0  0
 10 13  1  0  0  0  0
 11 23  1  0  0  0  0
 12 24  1  0  0  0  0
 13 25  1  0  0  0  0
 13 26  1  0  0  0  0
 13 27  1  0  0  0  0
M  END
>  <Mol_ID>
2794

>  <Formula>
C7H14O6

>  <MolWeight>
194.18246

>  <Cat>
S5047

>  <Name>
Methyl ¦Á-D-mannopyranoside

>  <Synonyms>
N/A

>  <Target>
Bacterial

>  <Form>
free base

>  <CAS>
617-04-9

>  <URL>
http://selleckchem.com/products/methyl-alpha-d-mannopyranoside.html

$$$$
