S5043 Benorylate.cdx
 OpenBabel08302520003D

 38 39  0  0  0  0  0  0  0  0999 V2000
    1.4152    0.0361   -0.0334 C   0  0  0  0  0  0  0  0  0  0  0  0
    0.9653    1.2600   -0.5342 C   0  0  0  0  0  0  0  0  0  0  0  0
    2.4222   -0.0252    1.0330 C   0  0  0  0  0  0  0  0  0  0  0  0
    0.9888   -1.1692   -0.5995 C   0  0  0  0  0  0  0  0  0  0  0  0
    0.1734    1.2871   -1.6788 C   0  0  0  0  0  0  0  0  0  0  0  0
    1.2326    2.4114    0.2512 O   0  0  0  0  0  0  0  0  0  0  0  0
    3.5175    0.7000    0.5777 O   0  0  0  0  0  0  0  0  0  0  0  0
    2.3113   -0.7116    2.0338 O   0  0  0  0  0  0  0  0  0  0  0  0
    0.1912   -1.1416   -1.7399 C   0  0  0  0  0  0  0  0  0  0  0  0
   -0.1823    0.0837   -2.2976 C   0  0  0  0  0  0  0  0  0  0  0  0
    1.2302    3.7164   -0.2410 C   0  0  0  0  0  0  0  0  0  0  0  0
    4.7014    0.6116    1.3169 C   0  0  0  0  0  0  0  0  0  0  0  0
    1.3505    4.6704    0.9176 C   0  0  0  0  0  0  0  0  0  0  0  0
    1.1856    4.0529   -1.4074 O   0  0  0  0  0  0  0  0  0  0  0  0
    5.1811   -0.6061    1.7840 C   0  0  0  0  0  0  0  0  0  0  0  0
    5.4175    1.7863    1.5381 C   0  0  0  0  0  0  0  0  0  0  0  0
    6.3154   -0.6355    2.5904 C   0  0  0  0  0  0  0  0  0  0  0  0
    6.5591    1.7530    2.3437 C   0  0  0  0  0  0  0  0  0  0  0  0
    6.9967    0.5417    2.9057 C   0  0  0  0  0  0  0  0  0  0  0  0
    8.0869    0.5757    3.8036 N   0  0  0  0  0  0  0  0  0  0  0  0
    8.7408   -0.5213    4.3343 C   0  0  0  0  0  0  0  0  0  0  0  0
    9.7256   -0.1714    5.4184 C   0  0  0  0  0  0  0  0  0  0  0  0
    8.5891   -1.6956    4.0095 O   0  0  0  0  0  0  0  0  0  0  0  0
    1.2970   -2.1205   -0.1699 H   0  0  0  0  0  0  0  0  0  0  0  0
   -0.1800    2.2196   -2.1086 H   0  0  0  0  0  0  0  0  0  0  0  0
   -0.1241   -2.0723   -2.2058 H   0  0  0  0  0  0  0  0  0  0  0  0
   -0.7704    0.1022   -3.2126 H   0  0  0  0  0  0  0  0  0  0  0  0
    2.3986    4.7776    1.2029 H   0  0  0  0  0  0  0  0  0  0  0  0
    0.9470    5.6426    0.6189 H   0  0  0  0  0  0  0  0  0  0  0  0
    0.7606    4.3164    1.7659 H   0  0  0  0  0  0  0  0  0  0  0  0
    4.6640   -1.5366    1.5648 H   0  0  0  0  0  0  0  0  0  0  0  0
    5.0829    2.7232    1.1036 H   0  0  0  0  0  0  0  0  0  0  0  0
    6.6056   -1.5986    2.9957 H   0  0  0  0  0  0  0  0  0  0  0  0
    7.0924    2.6770    2.5338 H   0  0  0  0  0  0  0  0  0  0  0  0
    8.4102    1.4929    4.0740 H   0  0  0  0  0  0  0  0  0  0  0  0
    9.3803   -0.6132    6.3580 H   0  0  0  0  0  0  0  0  0  0  0  0
   10.7005   -0.5900    5.1542 H   0  0  0  0  0  0  0  0  0  0  0  0
    9.8319    0.9070    5.5550 H   0  0  0  0  0  0  0  0  0  0  0  0
  1  2  2  0  0  0  0
  1  3  1  0  0  0  0
  1  4  1  0  0  0  0
  2  5  1  0  0  0  0
  2  6  1  0  0  0  0
  3  7  1  0  0  0  0
  3  8  2  0  0  0  0
  4  9  2  0  0  0  0
  4 24  1  0  0  0  0
  5 10  2  0  0  0  0
  5 25  1  0  0  0  0
  6 11  1  0  0  0  0
  7 12  1  0  0  0  0
  9 10  1  0  0  0  0
  9 26  1  0  0  0  0
 10 27  1  0  0  0  0
 11 13  1  0  0  0  0
 11 14  2  0  0  0  0
 12 15  2  0  0  0  0
 12 16  1  0  0  0  0
 13 28  1  0  0  0  0
 13 29  1  0  0  0  0
 13 30  1  0  0  0  0
 15 17  1  0  0  0  0
 15 31  1  0  0  0  0
 16 18  2  0  0  0  0
 16 32  1  0  0  0  0
 17 19  2  0  0  0  0
 17 33  1  0  0  0  0
 18 19  1  0  0  0  0
 18 34  1  0  0  0  0
 19 20  1  0  0  0  0
 20 21  1  0  0  0  0
 20 35  1  0  0  0  0
 21 22  1  0  0  0  0
 21 23  2  0  0  0  0
 22 36  1  0  0  0  0
 22 37  1  0  0  0  0
 22 38  1  0  0  0  0
M  END
>  <Mol_ID>
2817

>  <Formula>
C17H15NO5

>  <MolWeight>
313.3047

>  <Cat>
S5043

>  <Name>
Benorylate

>  <Synonyms>
Benorilate, Benoral, Benortan

>  <Target>
Immunology & Inflammation related

>  <Form>
free base

>  <CAS>
5003-48-5

>  <URL>
http://selleckchem.com/products/benorylate.html

$$$$
