S5046 Clonixin.cdx
 OpenBabel08302520013D

 29 30  0  0  0  0  0  0  0  0999 V2000
   -0.6703    1.1940   -0.1039 C   0  0  0  0  0  0  0  0  0  0  0  0
    0.6360    1.2810    0.3917 C   0  0  0  0  0  0  0  0  0  0  0  0
   -1.5139    2.3412   -0.1690 N   0  0  0  0  0  0  0  0  0  0  0  0
   -1.1616    0.0336   -0.6076 N   0  0  0  0  0  0  0  0  0  0  0  0
    1.4145    0.1115    0.4017 C   0  0  0  0  0  0  0  0  0  0  0  0
    1.2613    2.5139    0.9433 C   0  0  0  0  0  0  0  0  0  0  0  0
   -2.9387    2.2798   -0.0543 C   0  0  0  0  0  0  0  0  0  0  0  0
   -0.3882   -1.0709   -0.5845 C   0  0  0  0  0  0  0  0  0  0  0  0
    0.8978   -1.0812   -0.0858 C   0  0  0  0  0  0  0  0  0  0  0  0
    0.4451    3.5741    1.1047 O   0  0  0  0  0  0  0  0  0  0  0  0
    2.4473    2.5623    1.2354 O   0  0  0  0  0  0  0  0  0  0  0  0
   -3.7797    3.2650   -0.6142 C   0  0  0  0  0  0  0  0  0  0  0  0
   -3.5297    1.2927    0.7617 C   0  0  0  0  0  0  0  0  0  0  0  0
   -5.1730    3.1773   -0.4136 C   0  0  0  0  0  0  0  0  0  0  0  0
   -3.2956    4.4392   -1.4209 C   0  0  0  0  0  0  0  0  0  0  0  0
   -4.9111    1.2105    0.9396 C   0  0  0  0  0  0  0  0  0  0  0  0
   -5.7366    2.1511    0.3432 C   0  0  0  0  0  0  0  0  0  0  0  0
   -1.2682    2.8074   -1.0429 H   0  0  0  0  0  0  0  0  0  0  0  0
    2.4275    0.1289    0.8017 H   0  0  0  0  0  0  0  0  0  0  0  0
   -0.8498   -1.9657   -0.9898 H   0  0  0  0  0  0  0  0  0  0  0  0
    1.4800   -1.9961   -0.0774 H   0  0  0  0  0  0  0  0  0  0  0  0
   -0.5038    3.3860    0.9304 H   0  0  0  0  0  0  0  0  0  0  0  0
   -2.9130    0.5469    1.2583 H   0  0  0  0  0  0  0  0  0  0  0  0
   -5.8351    3.9221   -0.8526 H   0  0  0  0  0  0  0  0  0  0  0  0
   -3.8260    4.4734   -2.3797 H   0  0  0  0  0  0  0  0  0  0  0  0
   -3.4927    5.3690   -0.8765 H   0  0  0  0  0  0  0  0  0  0  0  0
   -2.2288    4.4089   -1.6481 H   0  0  0  0  0  0  0  0  0  0  0  0
   -5.3329    0.4103    1.5419 H   0  0  0  0  0  0  0  0  0  0  0  0
   -6.8135    2.0936    0.4756 H   0  0  0  0  0  0  0  0  0  0  0  0
  1  2  2  0  0  0  0
  1  3  1  0  0  0  0
  1  4  1  0  0  0  0
  2  5  1  0  0  0  0
  2  6  1  0  0  0  0
  3  7  1  0  0  0  0
  3 18  1  0  0  0  0
  4  8  2  0  0  0  0
  5  9  2  0  0  0  0
  5 19  1  0  0  0  0
  6 10  1  0  0  0  0
  6 11  2  0  0  0  0
  7 12  2  0  0  0  0
  7 13  1  0  0  0  0
  8  9  1  0  0  0  0
  8 20  1  0  0  0  0
  9 21  1  0  0  0  0
 10 22  1  0  0  0  0
 12 14  1  0  0  0  0
 12 15  1  0  0  0  0
 13 16  2  0  0  0  0
 13 23  1  0  0  0  0
 14 17  2  0  0  0  0
 14 24  1  0  0  0  0
 15 25  1  0  0  0  0
 15 26  1  0  0  0  0
 15 27  1  0  0  0  0
 16 17  1  0  0  0  0
 16 28  1  0  0  0  0
 17 29  1  0  0  0  0
M  END
>  <Mol_ID>
2853

>  <Formula>
C13H11ClN2O2

>  <MolWeight>
262.69164

>  <Cat>
S5046

>  <Name>
Clonixin

>  <Synonyms>
Clonixic acid

>  <Target>
Immunology & Inflammation related

>  <Form>
free base

>  <CAS>
17737-65-4

>  <URL>
http://selleckchem.com/products/clonixin.html

$$$$
