S5048 Fosfomycin Disodium.cdx
 OpenBabel08302521383D

 13 13  0  0  0  0  0  0  0  0999 V2000
    1.0894   -0.0190    0.0406 P   0  0  0  0  0  0  0  0  0  0  0  0
    2.9194   -0.0190    0.0406 C   0  0  2  0  0  0  0  0  0  0  0  0
    1.3246   -1.1699    1.0422 O   0  0  0  0  0  0  0  0  0  0  0  0
    1.3270    1.4363    0.5040 O   0  5  0  0  0  0  0  0  0  0  0  0
   -0.6406   -0.0190    0.0406 O   0  5  0  0  0  0  0  0  0  0  0  0
    3.6836    0.8957   -0.8844 C   0  0  1  0  0  0  0  0  0  0  0  0
    3.6626   -0.5145   -1.1116 O   0  0  0  0  0  0  0  0  0  0  0  0
    3.0266    1.6929   -1.9532 C   0  0  0  0  0  0  0  0  0  0  0  0
    3.3596   -0.2293    1.0072 H   0  0  0  0  0  0  0  0  0  0  0  0
    4.5739    1.3603   -0.4898 H   0  0  0  0  0  0  0  0  0  0  0  0
    2.7484    2.6814   -1.5764 H   0  0  0  0  0  0  0  0  0  0  0  0
    3.7210    1.8362   -2.7873 H   0  0  0  0  0  0  0  0  0  0  0  0
    2.1284    1.2063   -2.3474 H   0  0  0  0  0  0  0  0  0  0  0  0
  1  3  2  0  0  0  0
  1  4  1  0  0  0  0
  1  5  1  0  0  0  0
  2  1  1  0  0  0  0
  2  6  1  0  0  0  0
  2  7  1  0  0  0  0
  2  9  1  1  0  0  0
  6  8  1  0  0  0  0
  6  7  1  0  0  0  0
  6 10  1  1  0  0  0
  8 11  1  0  0  0  0
  8 12  1  0  0  0  0
  8 13  1  0  0  0  0
M  CHG  2   4  -1   5  -1
M  END
>  <Mol_ID>
7817

>  <Formula>
C3H5Na2O4P

>  <MolWeight>
182.022701

>  <Cat>
S5048

>  <Name>
Fosfomycin Disodium

>  <Synonyms>
Phosphonemycin Disodium

>  <Target>
Antibiotics,Bacterial

>  <Form>
sodium

>  <CAS>
26016-99-9

>  <URL>
http://selleckchem.com/products/fosfomycin-disodium.html

$$$$
