S5042 Bevantolol hydrochloride.cdx
 OpenBabel08302520013D

 52 53  0  0  0  0  0  0  0  0999 V2000
   -6.1334   -3.4372    0.1010 C   0  0  0  0  0  0  0  0  0  0  0  0
   -5.9901   -2.9223    1.3998 C   0  0  0  0  0  0  0  0  0  0  0  0
   -5.9216   -2.5809   -0.9965 C   0  0  0  0  0  0  0  0  0  0  0  0
   -6.3932   -4.7212   -0.2981 O   0  0  0  0  0  0  0  0  0  0  0  0
   -5.7006   -1.5567    1.5548 C   0  0  0  0  0  0  0  0  0  0  0  0
   -6.1230   -3.7596    2.4763 O   0  0  0  0  0  0  0  0  0  0  0  0
   -5.5877   -1.2403   -0.8242 C   0  0  0  0  0  0  0  0  0  0  0  0
   -6.9845   -5.6394    0.6072 C   0  0  0  0  0  0  0  0  0  0  0  0
   -5.4750   -0.7146    0.4625 C   0  0  0  0  0  0  0  0  0  0  0  0
   -5.4688   -3.3638    3.6787 C   0  0  0  0  0  0  0  0  0  0  0  0
   -5.0780    0.7217    0.6816 C   0  0  0  0  0  0  0  0  0  0  0  0
   -3.5571    0.8744    0.8381 C   0  0  0  0  0  0  0  0  0  0  0  0
   -3.1267    2.2521    1.1029 N   0  0  0  0  0  0  0  0  0  0  0  0
   -3.6365    2.8207    2.3562 C   0  0  0  0  0  0  0  0  0  0  0  0
   -3.2785    2.1105    3.6815 C   0  0  3  0  0  0  0  0  0  0  0  0
   -1.7563    2.0603    3.8916 C   0  0  0  0  0  0  0  0  0  0  0  0
   -3.9329    2.8300    4.7378 O   0  0  0  0  0  0  0  0  0  0  0  0
   -1.4474    1.4250    5.1422 O   0  0  0  0  0  0  0  0  0  0  0  0
   -0.1115    1.4777    5.4636 C   0  0  0  0  0  0  0  0  0  0  0  0
    0.1985    1.6743    6.8121 C   0  0  0  0  0  0  0  0  0  0  0  0
    0.9213    1.3346    4.5352 C   0  0  0  0  0  0  0  0  0  0  0  0
    1.5324    1.8253    7.2217 C   0  0  0  0  0  0  0  0  0  0  0  0
    2.2512    1.4421    4.9457 C   0  0  0  0  0  0  0  0  0  0  0  0
    2.5562    1.6958    6.2791 C   0  0  0  0  0  0  0  0  0  0  0  0
    1.8767    2.1251    8.6503 C   0  0  0  0  0  0  0  0  0  0  0  0
   -6.0202   -2.9807   -2.0037 H   0  0  0  0  0  0  0  0  0  0  0  0
   -5.6383   -1.1212    2.5554 H   0  0  0  0  0  0  0  0  0  0  0  0
   -5.4136   -0.6165   -1.6972 H   0  0  0  0  0  0  0  0  0  0  0  0
   -6.3926   -5.7919    1.5102 H   0  0  0  0  0  0  0  0  0  0  0  0
   -8.0178   -5.3592    0.8353 H   0  0  0  0  0  0  0  0  0  0  0  0
   -7.0114   -6.6110    0.1005 H   0  0  0  0  0  0  0  0  0  0  0  0
   -4.5156   -2.8470    3.4987 H   0  0  0  0  0  0  0  0  0  0  0  0
   -6.1362   -2.7411    4.2798 H   0  0  0  0  0  0  0  0  0  0  0  0
   -5.2343   -4.2676    4.2504 H   0  0  0  0  0  0  0  0  0  0  0  0
   -5.4385    1.3429   -0.1487 H   0  0  0  0  0  0  0  0  0  0  0  0
   -5.6032    1.0808    1.5769 H   0  0  0  0  0  0  0  0  0  0  0  0
   -3.1657    0.2003    1.6105 H   0  0  0  0  0  0  0  0  0  0  0  0
   -3.0770    0.5593   -0.0971 H   0  0  0  0  0  0  0  0  0  0  0  0
   -2.1094    2.3014    1.0743 H   0  0  0  0  0  0  0  0  0  0  0  0
   -3.2675    3.8538    2.4156 H   0  0  0  0  0  0  0  0  0  0  0  0
   -4.7244    2.9437    2.2944 H   0  0  0  0  0  0  0  0  0  0  0  0
   -3.6889    1.0947    3.7056 H   0  0  0  0  0  0  0  0  0  0  0  0
   -1.3152    1.4943    3.0697 H   0  0  0  0  0  0  0  0  0  0  0  0
   -1.3580    3.0823    3.9088 H   0  0  0  0  0  0  0  0  0  0  0  0
   -3.2567    3.1048    5.3816 H   0  0  0  0  0  0  0  0  0  0  0  0
   -0.6068    1.7410    7.5399 H   0  0  0  0  0  0  0  0  0  0  0  0
    0.7256    1.1253    3.4890 H   0  0  0  0  0  0  0  0  0  0  0  0
    3.0529    1.3292    4.2156 H   0  0  0  0  0  0  0  0  0  0  0  0
    3.5977    1.7887    6.5765 H   0  0  0  0  0  0  0  0  0  0  0  0
    2.2838    1.2363    9.1426 H   0  0  0  0  0  0  0  0  0  0  0  0
    2.6202    2.9296    8.6951 H   0  0  0  0  0  0  0  0  0  0  0  0
    0.9994    2.4655    9.2091 H   0  0  0  0  0  0  0  0  0  0  0  0
  1  2  2  0  0  0  0
  1  3  1  0  0  0  0
  1  4  1  0  0  0  0
  2  5  1  0  0  0  0
  2  6  1  0  0  0  0
  3  7  2  0  0  0  0
  3 26  1  0  0  0  0
  4  8  1  0  0  0  0
  5  9  2  0  0  0  0
  5 27  1  0  0  0  0
  6 10  1  0  0  0  0
  7  9  1  0  0  0  0
  7 28  1  0  0  0  0
  8 29  1  0  0  0  0
  8 30  1  0  0  0  0
  8 31  1  0  0  0  0
  9 11  1  0  0  0  0
 10 32  1  0  0  0  0
 10 33  1  0  0  0  0
 10 34  1  0  0  0  0
 11 12  1  0  0  0  0
 11 35  1  0  0  0  0
 11 36  1  0  0  0  0
 12 13  1  0  0  0  0
 12 37  1  0  0  0  0
 12 38  1  0  0  0  0
 13 14  1  0  0  0  0
 13 39  1  0  0  0  0
 14 15  1  0  0  0  0
 14 40  1  0  0  0  0
 14 41  1  0  0  0  0
 15 16  1  0  0  0  0
 15 17  1  0  0  0  0
 15 42  1  0  0  0  0
 16 18  1  0  0  0  0
 16 43  1  0  0  0  0
 16 44  1  0  0  0  0
 17 45  1  0  0  0  0
 18 19  1  0  0  0  0
 19 20  2  0  0  0  0
 19 21  1  0  0  0  0
 20 22  1  0  0  0  0
 20 46  1  0  0  0  0
 21 23  2  0  0  0  0
 21 47  1  0  0  0  0
 22 24  2  0  0  0  0
 22 25  1  0  0  0  0
 23 24  1  0  0  0  0
 23 48  1  0  0  0  0
 24 49  1  0  0  0  0
 25 50  1  0  0  0  0
 25 51  1  0  0  0  0
 25 52  1  0  0  0  0
M  END
>  <Mol_ID>
2851

>  <Formula>
C20H28ClNO4

>  <MolWeight>
381.89362

>  <Cat>
S5042

>  <Name>
Bevantolol hydrochloride

>  <Synonyms>
NC-1400 hydrochloride

>  <Target>
Adrenergic Receptor

>  <Form>
hydrochloride

>  <CAS>
42864-78-8

>  <URL>
http://selleckchem.com/products/bevantolol-hydrochloride.html

$$$$
