S5040 Tiamulin.cdx
 OpenBabel08302520013D

 81 83  0  0  0  0  0  0  0  0999 V2000
    0.7556   -0.0330   -1.9539 C   0  0  2  0  0  0  0  0  0  0  0  0
    0.9466    0.5276   -0.4395 C   0  0  2  0  0  0  0  0  0  0  0  0
    0.6476    1.0684   -3.4164 C   0  0  2  0  0  0  0  0  0  0  0  0
   -0.4316   -1.0433   -1.7890 C   0  0  0  0  0  0  0  0  0  0  0  0
    2.0990   -0.8426   -2.0373 C   0  0  0  0  0  0  0  0  0  0  0  0
   -0.2388    1.4280    0.0254 C   0  0  1  0  0  0  0  0  0  0  0  0
    2.4068    0.8814   -0.4107 C   0  0  0  0  0  0  0  0  0  0  0  0
   -0.2541    2.6157   -3.8152 C   0  0  1  0  0  0  0  0  0  0  0  0
    0.3252    0.1921   -4.6462 C   0  0  0  0  0  0  0  0  0  0  0  0
   -1.6170   -0.6430   -0.8643 C   0  0  0  0  0  0  0  0  0  0  0  0
    3.1855   -0.0012   -1.3548 C   0  0  0  0  0  0  0  0  0  0  0  0
   -0.4629    2.3237   -1.1547 C   0  0  1  0  0  0  0  0  0  0  0  0
   -1.4247    0.4271    0.2750 C   0  0  1  0  0  0  0  0  0  0  0  0
   -0.0201    2.4366    1.1619 C   0  0  0  0  0  0  0  0  0  0  0  0
    2.9290    1.6983    0.3361 O   0  0  0  0  0  0  0  0  0  0  0  0
   -1.4947    3.4491   -2.9853 C   0  0  1  0  0  0  0  0  0  0  0  0
    0.6641    3.6234   -4.2810 O   0  0  0  0  0  0  0  0  0  0  0  0
   -1.8273    2.5213   -1.8701 C   0  0  0  0  0  0  0  0  0  0  0  0
    0.9243    2.8478   -1.6008 O   0  0  0  0  0  0  0  0  0  0  0  0
   -1.3259   -0.2585    1.6564 C   0  0  0  0  0  0  0  0  0  0  0  0
   -1.3670    4.8487   -2.2985 C   0  0  0  0  0  0  0  0  0  0  0  0
   -2.6748    3.7338   -3.9495 C   0  0  0  0  0  0  0  0  0  0  0  0
    1.5852    4.0674   -1.5291 C   0  0  0  0  0  0  0  0  0  0  0  0
   -1.9521    5.2197   -1.1265 C   0  0  0  0  0  0  0  0  0  0  0  0
    3.0663    3.9368   -1.9335 C   0  0  0  0  0  0  0  0  0  0  0  0
    1.1479    5.0956   -1.0283 O   0  0  0  0  0  0  0  0  0  0  0  0
    3.7497    4.4877   -3.5493 S   0  0  0  0  0  0  0  0  0  0  0  0
    3.4571    6.3055   -3.8663 C   0  0  0  0  0  0  0  0  0  0  0  0
    4.3412    7.4593   -3.2703 C   0  0  0  0  0  0  0  0  0  0  0  0
    4.0720    8.8361   -3.8030 N   0  0  0  0  0  0  0  0  0  0  0  0
    4.9371    9.9024   -3.2610 C   0  0  0  0  0  0  0  0  0  0  0  0
    3.8977    8.9957   -5.2552 C   0  0  0  0  0  0  0  0  0  0  0  0
    4.4773   10.4025   -1.8951 C   0  0  0  0  0  0  0  0  0  0  0  0
    5.0832    8.6791   -6.1620 C   0  0  0  0  0  0  0  0  0  0  0  0
    0.9512   -0.3409    0.2369 H   0  0  0  0  0  0  0  0  0  0  0  0
    1.6976    1.3768   -3.5362 H   0  0  0  0  0  0  0  0  0  0  0  0
   -0.0361   -1.9619   -1.3276 H   0  0  0  0  0  0  0  0  0  0  0  0
   -0.8076   -1.3865   -2.7567 H   0  0  0  0  0  0  0  0  0  0  0  0
    2.3827   -1.1444   -3.0466 H   0  0  0  0  0  0  0  0  0  0  0  0
    2.0186   -1.7753   -1.4571 H   0  0  0  0  0  0  0  0  0  0  0  0
   -0.7568    2.3247   -4.7435 H   0  0  0  0  0  0  0  0  0  0  0  0
   -0.7076   -0.1663   -4.5987 H   0  0  0  0  0  0  0  0  0  0  0  0
    0.4212    0.7743   -5.5715 H   0  0  0  0  0  0  0  0  0  0  0  0
    1.0000   -0.6588   -4.7420 H   0  0  0  0  0  0  0  0  0  0  0  0
   -2.0102   -1.5690   -0.4183 H   0  0  0  0  0  0  0  0  0  0  0  0
   -2.4329   -0.3094   -1.5139 H   0  0  0  0  0  0  0  0  0  0  0  0
    3.7453    0.6012   -2.0684 H   0  0  0  0  0  0  0  0  0  0  0  0
    3.8612   -0.6402   -0.7748 H   0  0  0  0  0  0  0  0  0  0  0  0
   -0.4625    1.5012   -1.8232 H   0  0  0  0  0  0  0  0  0  0  0  0
   -2.3637    0.9959    0.3193 H   0  0  0  0  0  0  0  0  0  0  0  0
   -0.8024    2.3918    1.9218 H   0  0  0  0  0  0  0  0  0  0  0  0
    0.9530    2.3462    1.6393 H   0  0  0  0  0  0  0  0  0  0  0  0
   -0.0927    3.4714    0.7929 H   0  0  0  0  0  0  0  0  0  0  0  0
    1.5643    3.2611   -4.3323 H   0  0  0  0  0  0  0  0  0  0  0  0
   -2.2261    1.6056   -2.3450 H   0  0  0  0  0  0  0  0  0  0  0  0
   -2.6391    2.7769   -1.1860 H   0  0  0  0  0  0  0  0  0  0  0  0
   -0.3787   -0.7830    1.8041 H   0  0  0  0  0  0  0  0  0  0  0  0
   -1.4252    0.4716    2.4663 H   0  0  0  0  0  0  0  0  0  0  0  0
   -2.1356   -0.9811    1.8007 H   0  0  0  0  0  0  0  0  0  0  0  0
   -0.7285    5.5633   -2.7609 H   0  0  0  0  0  0  0  0  0  0  0  0
   -2.5583    3.2717   -4.9292 H   0  0  0  0  0  0  0  0  0  0  0  0
   -3.6305    3.4055   -3.5291 H   0  0  0  0  0  0  0  0  0  0  0  0
   -2.7854    4.8141   -4.1542 H   0  0  0  0  0  0  0  0  0  0  0  0
   -1.8060    6.1982   -0.7026 H   0  0  0  0  0  0  0  0  0  0  0  0
   -2.6339    4.6014   -0.5354 H   0  0  0  0  0  0  0  0  0  0  0  0
    3.6943    4.2905   -1.1119 H   0  0  0  0  0  0  0  0  0  0  0  0
    3.2677    2.8610   -1.9800 H   0  0  0  0  0  0  0  0  0  0  0  0
    3.6804    6.3266   -4.9418 H   0  0  0  0  0  0  0  0  0  0  0  0
    2.3913    6.5175   -3.7741 H   0  0  0  0  0  0  0  0  0  0  0  0
    4.1564    7.4846   -2.1906 H   0  0  0  0  0  0  0  0  0  0  0  0
    5.4030    7.2225   -3.4163 H   0  0  0  0  0  0  0  0  0  0  0  0
    5.9955    9.6157   -3.2390 H   0  0  0  0  0  0  0  0  0  0  0  0
    4.8931   10.7867   -3.9148 H   0  0  0  0  0  0  0  0  0  0  0  0
    3.0260    8.4200   -5.5800 H   0  0  0  0  0  0  0  0  0  0  0  0
    3.6075   10.0379   -5.4610 H   0  0  0  0  0  0  0  0  0  0  0  0
    4.9827    9.8706   -1.0853 H   0  0  0  0  0  0  0  0  0  0  0  0
    4.7069   11.4713   -1.7897 H   0  0  0  0  0  0  0  0  0  0  0  0
    3.3951   10.2982   -1.7659 H   0  0  0  0  0  0  0  0  0  0  0  0
    5.4600    7.6653   -6.0099 H   0  0  0  0  0  0  0  0  0  0  0  0
    4.7648    8.7591   -7.2096 H   0  0  0  0  0  0  0  0  0  0  0  0
    5.9069    9.3874   -6.0239 H   0  0  0  0  0  0  0  0  0  0  0  0
  1  2  1  0  0  0  0
  1  3  1  0  0  0  0
  1  4  1  6  0  0  0
  1  5  1  0  0  0  0
  2  6  1  0  0  0  0
  2  7  1  0  0  0  0
  2 35  1  1  0  0  0
  3  8  1  0  0  0  0
  3 36  1  6  0  0  0
  3  9  1  0  0  0  0
  4 10  1  0  0  0  0
  4 37  1  0  0  0  0
  4 38  1  0  0  0  0
  5 11  1  0  0  0  0
  5 39  1  0  0  0  0
  5 40  1  0  0  0  0
  6 12  1  0  0  0  0
  6 13  1  0  0  0  0
  6 14  1  1  0  0  0
  7 15  2  0  0  0  0
  7 11  1  0  0  0  0
  8 16  1  0  0  0  0
  8 41  1  6  0  0  0
  8 17  1  0  0  0  0
  9 42  1  0  0  0  0
  9 43  1  0  0  0  0
  9 44  1  0  0  0  0
 10 13  1  0  0  0  0
 10 45  1  0  0  0  0
 10 46  1  0  0  0  0
 11 47  1  0  0  0  0
 11 48  1  0  0  0  0
 12 18  1  0  0  0  0
 12 19  1  0  0  0  0
 12 49  1  6  0  0  0
 13 50  1  1  0  0  0
 13 20  1  0  0  0  0
 14 51  1  0  0  0  0
 14 52  1  0  0  0  0
 14 53  1  0  0  0  0
 16 18  1  0  0  0  0
 16 22  1  0  0  0  0
 16 21  1  1  0  0  0
 17 54  1  0  0  0  0
 18 55  1  0  0  0  0
 18 56  1  0  0  0  0
 19 23  1  0  0  0  0
 20 57  1  0  0  0  0
 20 58  1  0  0  0  0
 20 59  1  0  0  0  0
 21 24  2  0  0  0  0
 21 60  1  0  0  0  0
 22 61  1  0  0  0  0
 22 62  1  0  0  0  0
 22 63  1  0  0  0  0
 23 25  1  0  0  0  0
 23 26  2  0  0  0  0
 24 64  1  0  0  0  0
 24 65  1  0  0  0  0
 25 27  1  0  0  0  0
 25 66  1  0  0  0  0
 25 67  1  0  0  0  0
 27 28  1  0  0  0  0
 28 29  1  0  0  0  0
 28 68  1  0  0  0  0
 28 69  1  0  0  0  0
 29 30  1  0  0  0  0
 29 70  1  0  0  0  0
 29 71  1  0  0  0  0
 30 31  1  0  0  0  0
 30 32  1  0  0  0  0
 31 33  1  0  0  0  0
 31 72  1  0  0  0  0
 31 73  1  0  0  0  0
 32 34  1  0  0  0  0
 32 74  1  0  0  0  0
 32 75  1  0  0  0  0
 33 76  1  0  0  0  0
 33 77  1  0  0  0  0
 33 78  1  0  0  0  0
 34 79  1  0  0  0  0
 34 80  1  0  0  0  0
 34 81  1  0  0  0  0
M  END
>  <Mol_ID>
2850

>  <Formula>
C28H47NO4S

>  <MolWeight>
493.74208

>  <Cat>
S5040

>  <Name>
Tiamulin

>  <Synonyms>
N/A

>  <Target>
Ribosomal Peptidyl Transferase

>  <Form>
free base

>  <CAS>
55297-95-5

>  <URL>
http://selleckchem.com/products/tiamulin.html

$$$$
