S5052 Granisetron.cdx
 OpenBabel08302520003D

 47 50  0  0  0  0  0  0  0  0999 V2000
   -1.8653    5.4650   -0.2472 C   0  0  0  0  0  0  0  0  0  0  0  0
   -3.8982    4.8306   -0.4307 N   0  0  0  0  0  0  0  0  0  0  0  0
   -2.6341    4.3553   -0.3773 N   0  0  0  0  0  0  0  0  0  0  0  0
   -2.6892    6.6470   -0.2154 C   0  0  0  0  0  0  0  0  0  0  0  0
   -0.3781    5.3706   -0.1512 C   0  0  0  0  0  0  0  0  0  0  0  0
   -5.0128    3.9302   -0.6235 C   0  0  0  0  0  0  0  0  0  0  0  0
   -4.0032    6.1900   -0.3037 C   0  0  0  0  0  0  0  0  0  0  0  0
    0.1028    4.0719   -0.1767 N   0  0  0  0  0  0  0  0  0  0  0  0
    0.3520    6.3535   -0.0596 O   0  0  0  0  0  0  0  0  0  0  0  0
   -2.4846    8.0407   -0.1159 C   0  0  0  0  0  0  0  0  0  0  0  0
   -5.1210    7.0416   -0.2682 C   0  0  0  0  0  0  0  0  0  0  0  0
   -3.5926    8.9068   -0.0775 C   0  0  0  0  0  0  0  0  0  0  0  0
   -4.8914    8.4121   -0.1447 C   0  0  0  0  0  0  0  0  0  0  0  0
    1.4990    3.6041   -0.1496 C   0  0  1  0  0  0  0  0  0  0  0  0
    2.3609    4.0914   -1.3269 C   0  0  0  0  0  0  0  0  0  0  0  0
    3.8202    3.5479   -1.2579 C   0  0  1  0  0  0  0  0  0  0  0  0
    4.8523    4.6929   -1.1795 C   0  0  0  0  0  0  0  0  0  0  0  0
    4.7914    5.4410    0.1520 C   0  0  0  0  0  0  0  0  0  0  0  0
    4.7334    4.4817    1.3400 C   0  0  0  0  0  0  0  0  0  0  0  0
    3.7171    3.3361    1.1379 C   0  0  1  0  0  0  0  0  0  0  0  0
    2.2376    3.8300    1.1842 C   0  0  0  0  0  0  0  0  0  0  0  0
    3.9559    2.6134   -0.1244 N   0  0  0  0  0  0  0  0  0  0  0  0
    5.2015    1.8474   -0.1372 C   0  0  0  0  0  0  0  0  0  0  0  0
   -5.6577    3.9860    0.2580 H   0  0  0  0  0  0  0  0  0  0  0  0
   -5.5637    4.2503   -1.5133 H   0  0  0  0  0  0  0  0  0  0  0  0
   -4.6479    2.9107   -0.7608 H   0  0  0  0  0  0  0  0  0  0  0  0
   -0.6330    3.3727   -0.2492 H   0  0  0  0  0  0  0  0  0  0  0  0
   -1.4766    8.4465   -0.0677 H   0  0  0  0  0  0  0  0  0  0  0  0
   -6.1349    6.6566   -0.3292 H   0  0  0  0  0  0  0  0  0  0  0  0
   -3.4320    9.9794    0.0065 H   0  0  0  0  0  0  0  0  0  0  0  0
   -5.7352    9.0982   -0.1036 H   0  0  0  0  0  0  0  0  0  0  0  0
    1.3858    2.5167   -0.2681 H   0  0  0  0  0  0  0  0  0  0  0  0
    2.3562    5.1861   -1.3731 H   0  0  0  0  0  0  0  0  0  0  0  0
    1.8997    3.7481   -2.2615 H   0  0  0  0  0  0  0  0  0  0  0  0
    4.0012    3.0000   -2.1922 H   0  0  0  0  0  0  0  0  0  0  0  0
    5.8646    4.2902   -1.3154 H   0  0  0  0  0  0  0  0  0  0  0  0
    4.7013    5.3976   -2.0057 H   0  0  0  0  0  0  0  0  0  0  0  0
    5.6637    6.0986    0.2472 H   0  0  0  0  0  0  0  0  0  0  0  0
    3.9107    6.0919    0.1674 H   0  0  0  0  0  0  0  0  0  0  0  0
    5.7350    4.0598    1.4981 H   0  0  0  0  0  0  0  0  0  0  0  0
    4.5005    5.0405    2.2539 H   0  0  0  0  0  0  0  0  0  0  0  0
    3.8435    2.6382    1.9769 H   0  0  0  0  0  0  0  0  0  0  0  0
    1.7086    3.2677    1.9652 H   0  0  0  0  0  0  0  0  0  0  0  0
    2.1874    4.8836    1.4808 H   0  0  0  0  0  0  0  0  0  0  0  0
    6.1052    2.4596   -0.0570 H   0  0  0  0  0  0  0  0  0  0  0  0
    5.2159    1.1273    0.6890 H   0  0  0  0  0  0  0  0  0  0  0  0
    5.2782    1.2603   -1.0594 H   0  0  0  0  0  0  0  0  0  0  0  0
  2  3  1  0  0  0  0
  3  1  2  0  0  0  0
  4  1  1  0  0  0  0
  5  1  1  0  0  0  0
  6  2  1  0  0  0  0
  6 24  1  0  0  0  0
  6 25  1  0  0  0  0
  6 26  1  0  0  0  0
  7  2  1  0  0  0  0
  7  4  2  0  0  0  0
  8  5  1  0  0  0  0
  8 27  1  0  0  0  0
  9  5  2  0  0  0  0
 10  4  1  0  0  0  0
 10 28  1  0  0  0  0
 11  7  1  0  0  0  0
 11 29  1  0  0  0  0
 12 10  2  0  0  0  0
 12 30  1  0  0  0  0
 13 11  2  0  0  0  0
 13 12  1  0  0  0  0
 13 31  1  0  0  0  0
 14  8  1  0  0  0  0
 14 15  1  0  0  0  0
 14 32  1  6  0  0  0
 15 33  1  0  0  0  0
 15 34  1  0  0  0  0
 16 15  1  0  0  0  0
 16 17  1  0  0  0  0
 16 22  1  0  0  0  0
 16 35  1  6  0  0  0
 17 18  1  0  0  0  0
 17 36  1  0  0  0  0
 17 37  1  0  0  0  0
 18 19  1  0  0  0  0
 18 38  1  0  0  0  0
 18 39  1  0  0  0  0
 19 40  1  0  0  0  0
 19 41  1  0  0  0  0
 20 19  1  0  0  0  0
 20 21  1  0  0  0  0
 20 22  1  0  0  0  0
 20 42  1  1  0  0  0
 21 14  1  0  0  0  0
 21 43  1  0  0  0  0
 21 44  1  0  0  0  0
 22 23  1  0  0  0  0
 23 45  1  0  0  0  0
 23 46  1  0  0  0  0
 23 47  1  0  0  0  0
M  END
>  <Mol_ID>
2819

>  <Formula>
C18H24N4O

>  <MolWeight>
312.40936

>  <Cat>
S5052

>  <Name>
Granisetron

>  <Synonyms>
Sancuso, Kevatril, Granisetronum, Sustol

>  <Target>
5-HT Receptor

>  <Form>
Serotonin 5-HT3 receptor

>  <CAS>
109889-09-0

>  <URL>
http://selleckchem.com/products/granisetron.html

$$$$
