S5067 Losartan.cdx
 OpenBabel08302520303D

 53 56  0  0  0  0  0  0  0  0999 V2000
    0.8759   -0.7667    0.0364 N   0  0  0  0  0  0  0  0  0  0  0  0
    0.5447    0.2528    0.9161 C   0  0  0  0  0  0  0  0  0  0  0  0
   -0.2310   -0.9969   -0.7622 C   0  0  0  0  0  0  0  0  0  0  0  0
    2.1322   -1.5148   -0.0166 C   0  0  0  0  0  0  0  0  0  0  0  0
   -0.6772    0.6929    0.6752 N   0  0  0  0  0  0  0  0  0  0  0  0
    1.4079    0.8052    2.0120 C   0  0  0  0  0  0  0  0  0  0  0  0
   -1.1603   -0.0661   -0.3468 C   0  0  0  0  0  0  0  0  0  0  0  0
   -0.3489   -2.0373   -1.8074 C   0  0  0  0  0  0  0  0  0  0  0  0
    2.9222   -1.2613   -1.2784 C   0  0  0  0  0  0  0  0  0  0  0  0
    2.1390    2.0721    1.5663 C   0  0  0  0  0  0  0  0  0  0  0  0
    0.0814   -1.4724   -3.0332 O   0  0  0  0  0  0  0  0  0  0  0  0
    3.2155    0.0402   -1.6832 C   0  0  0  0  0  0  0  0  0  0  0  0
    3.4171   -2.3129   -2.0584 C   0  0  0  0  0  0  0  0  0  0  0  0
    2.9754    2.6909    2.6850 C   0  0  0  0  0  0  0  0  0  0  0  0
    3.9543    0.2888   -2.8403 C   0  0  0  0  0  0  0  0  0  0  0  0
    4.2076   -2.0564   -3.1938 C   0  0  0  0  0  0  0  0  0  0  0  0
    3.7358    3.9098    2.1809 C   0  0  0  0  0  0  0  0  0  0  0  0
    4.5183   -0.7440   -3.6007 C   0  0  0  0  0  0  0  0  0  0  0  0
    5.3782   -0.4553   -4.7878 C   0  0  0  0  0  0  0  0  0  0  0  0
    6.3396    0.5971   -4.8493 C   0  0  0  0  0  0  0  0  0  0  0  0
    5.2068   -1.2398   -5.9543 C   0  0  0  0  0  0  0  0  0  0  0  0
    6.6435    1.4810   -3.7177 C   0  0  0  0  0  0  0  0  0  0  0  0
    7.0485    0.8253   -6.0515 C   0  0  0  0  0  0  0  0  0  0  0  0
    5.9272   -1.0006   -7.1297 C   0  0  0  0  0  0  0  0  0  0  0  0
    6.8091    2.8379   -3.8241 N   0  0  0  0  0  0  0  0  0  0  0  0
    6.7582    1.1852   -2.4362 N   0  0  0  0  0  0  0  0  0  0  0  0
    6.8414    0.0381   -7.1809 C   0  0  0  0  0  0  0  0  0  0  0  0
    6.9715    3.3907   -2.6164 N   0  0  0  0  0  0  0  0  0  0  0  0
    6.9375    2.3737   -1.7697 N   0  0  0  0  0  0  0  0  0  0  0  0
    2.7478   -1.2495    0.8468 H   0  0  0  0  0  0  0  0  0  0  0  0
    1.8696   -2.5737    0.0916 H   0  0  0  0  0  0  0  0  0  0  0  0
    0.7533    1.0541    2.8582 H   0  0  0  0  0  0  0  0  0  0  0  0
    2.1128    0.0587    2.3889 H   0  0  0  0  0  0  0  0  0  0  0  0
   -2.1564    0.0942   -0.7362 H   0  0  0  0  0  0  0  0  0  0  0  0
    0.2580   -2.9216   -1.5952 H   0  0  0  0  0  0  0  0  0  0  0  0
   -1.3865   -2.3665   -1.9236 H   0  0  0  0  0  0  0  0  0  0  0  0
    2.8020    1.8405    0.7302 H   0  0  0  0  0  0  0  0  0  0  0  0
    1.4150    2.8114    1.2000 H   0  0  0  0  0  0  0  0  0  0  0  0
   -0.3644   -0.6138   -3.1278 H   0  0  0  0  0  0  0  0  0  0  0  0
    2.8680    0.8938   -1.1139 H   0  0  0  0  0  0  0  0  0  0  0  0
    3.1965   -3.3459   -1.7968 H   0  0  0  0  0  0  0  0  0  0  0  0
    2.3296    2.9846    3.5200 H   0  0  0  0  0  0  0  0  0  0  0  0
    3.6918    1.9545    3.0669 H   0  0  0  0  0  0  0  0  0  0  0  0
    4.1028    1.3296   -3.1124 H   0  0  0  0  0  0  0  0  0  0  0  0
    4.5836   -2.9102   -3.7541 H   0  0  0  0  0  0  0  0  0  0  0  0
    3.0470    4.6787    1.8160 H   0  0  0  0  0  0  0  0  0  0  0  0
    4.3378    4.3449    2.9843 H   0  0  0  0  0  0  0  0  0  0  0  0
    4.4096    3.6392    1.3609 H   0  0  0  0  0  0  0  0  0  0  0  0
    4.4760   -2.0489   -5.9672 H   0  0  0  0  0  0  0  0  0  0  0  0
    7.7902    1.6188   -6.1175 H   0  0  0  0  0  0  0  0  0  0  0  0
    5.7596   -1.6256   -8.0049 H   0  0  0  0  0  0  0  0  0  0  0  0
    6.7905    3.4274   -4.6451 H   0  0  0  0  0  0  0  0  0  0  0  0
    7.3950    0.2353   -8.0943 H   0  0  0  0  0  0  0  0  0  0  0  0
  1  2  1  0  0  0  0
  1  3  1  0  0  0  0
  1  4  1  0  0  0  0
  2  5  2  0  0  0  0
  2  6  1  0  0  0  0
  3  7  2  0  0  0  0
  3  8  1  0  0  0  0
  4  9  1  0  0  0  0
  4 30  1  0  0  0  0
  4 31  1  0  0  0  0
  5  7  1  0  0  0  0
  6 10  1  0  0  0  0
  6 32  1  0  0  0  0
  6 33  1  0  0  0  0
  7 34  1  0  0  0  0
  8 11  1  0  0  0  0
  8 35  1  0  0  0  0
  8 36  1  0  0  0  0
  9 12  2  0  0  0  0
  9 13  1  0  0  0  0
 10 14  1  0  0  0  0
 10 37  1  0  0  0  0
 10 38  1  0  0  0  0
 11 39  1  0  0  0  0
 12 15  1  0  0  0  0
 12 40  1  0  0  0  0
 13 16  2  0  0  0  0
 13 41  1  0  0  0  0
 14 17  1  0  0  0  0
 14 42  1  0  0  0  0
 14 43  1  0  0  0  0
 15 18  2  0  0  0  0
 15 44  1  0  0  0  0
 16 18  1  0  0  0  0
 16 45  1  0  0  0  0
 17 46  1  0  0  0  0
 17 47  1  0  0  0  0
 17 48  1  0  0  0  0
 18 19  1  0  0  0  0
 19 20  1  0  0  0  0
 19 21  2  0  0  0  0
 20 22  1  0  0  0  0
 20 23  2  0  0  0  0
 21 24  1  0  0  0  0
 21 49  1  0  0  0  0
 22 25  1  0  0  0  0
 22 26  2  0  0  0  0
 23 27  1  0  0  0  0
 23 50  1  0  0  0  0
 24 27  2  0  0  0  0
 24 51  1  0  0  0  0
 25 28  1  0  0  0  0
 25 52  1  0  0  0  0
 26 29  1  0  0  0  0
 27 53  1  0  0  0  0
 28 29  2  0  0  0  0
M  END
>  <Mol_ID>
3284

>  <Formula>
C22H23ClN6O

>  <MolWeight>
422.91062

>  <Cat>
S5067

>  <Name>
Losartan

>  <Synonyms>
DuP-753

>  <Target>
Angiotensin Receptor

>  <Form>
free base

>  <CAS>
114798-26-4

>  <URL>
https://www.selleckchem.com/products/losartan.html

$$$$
