S5065 Ganciclovir sodium.cdx
 OpenBabel08302520143D

 30 31  0  0  0  0  0  0  0  0999 V2000
    0.5250    0.6255    1.2447 C   0  0  0  0  0  0  0  0  0  0  0  0
    0.2968   -0.7074    0.9173 C   0  0  0  0  0  0  0  0  0  0  0  0
    1.4004    1.0784    0.2998 N   0  0  0  0  0  0  0  0  0  0  0  0
   -0.0224    1.3412    2.2441 N   0  0  0  0  0  0  0  0  0  0  0  0
    1.0803   -1.0573   -0.1824 N   0  0  0  0  0  0  0  0  0  0  0  0
   -0.6462   -1.3820    1.7202 C   0  0  0  0  0  0  0  0  0  0  0  0
    1.7364    0.0308   -0.5076 C   0  0  0  0  0  0  0  0  0  0  0  0
    1.8311    2.4454    0.1388 C   0  0  0  0  0  0  0  0  0  0  0  0
   -0.8449    0.5774    2.9849 C   0  0  0  0  0  0  0  0  0  0  0  0
   -1.1974   -0.6959    2.7612 N   0  0  0  0  0  0  0  0  0  0  0  0
   -0.9808   -2.5772    1.4655 O   0  5  0  0  0  0  0  0  0  0  0  0
    1.5278    2.9250   -1.1764 O   0  0  0  0  0  0  0  0  0  0  0  0
   -1.4851    1.1958    4.0530 N   0  0  0  0  0  0  0  0  0  0  0  0
    0.1171    2.9829   -1.5025 C   0  0  0  0  0  0  0  0  0  0  0  0
   -0.6899    3.9121   -0.5827 C   0  0  0  0  0  0  0  0  0  0  0  0
    0.0199    3.4645   -2.9588 C   0  0  0  0  0  0  0  0  0  0  0  0
   -0.1202    5.2204   -0.5552 O   0  0  0  0  0  0  0  0  0  0  0  0
    0.6804    2.5478   -3.8358 O   0  0  0  0  0  0  0  0  0  0  0  0
    2.4277    0.1227   -1.3315 H   0  0  0  0  0  0  0  0  0  0  0  0
    1.3948    3.0874    0.9097 H   0  0  0  0  0  0  0  0  0  0  0  0
    2.9174    2.4589    0.2681 H   0  0  0  0  0  0  0  0  0  0  0  0
   -1.6498    2.1555    3.7994 H   0  0  0  0  0  0  0  0  0  0  0  0
   -2.2997    0.6120    4.2178 H   0  0  0  0  0  0  0  0  0  0  0  0
   -0.2946    1.9686   -1.4576 H   0  0  0  0  0  0  0  0  0  0  0  0
   -1.7240    3.9988   -0.9317 H   0  0  0  0  0  0  0  0  0  0  0  0
   -0.7189    3.5279    0.4413 H   0  0  0  0  0  0  0  0  0  0  0  0
   -1.0240    3.5364   -3.2785 H   0  0  0  0  0  0  0  0  0  0  0  0
    0.5013    4.4370   -3.0933 H   0  0  0  0  0  0  0  0  0  0  0  0
   -0.0928    5.4989    0.3764 H   0  0  0  0  0  0  0  0  0  0  0  0
    1.5575    2.3953   -3.4376 H   0  0  0  0  0  0  0  0  0  0  0  0
  1  2  2  0  0  0  0
  1  3  1  0  0  0  0
  1  4  1  0  0  0  0
  2  5  1  0  0  0  0
  2  6  1  0  0  0  0
  3  7  1  0  0  0  0
  3  8  1  0  0  0  0
  4  9  2  0  0  0  0
  5  7  2  0  0  0  0
  6 10  2  0  0  0  0
  6 11  1  0  0  0  0
  7 19  1  0  0  0  0
  8 12  1  0  0  0  0
  8 20  1  0  0  0  0
  8 21  1  0  0  0  0
  9 13  1  0  0  0  0
  9 10  1  0  0  0  0
 12 14  1  0  0  0  0
 13 22  1  0  0  0  0
 13 23  1  0  0  0  0
 14 15  1  0  0  0  0
 14 16  1  0  0  0  0
 14 24  1  0  0  0  0
 15 17  1  0  0  0  0
 15 25  1  0  0  0  0
 15 26  1  0  0  0  0
 16 18  1  0  0  0  0
 16 27  1  0  0  0  0
 16 28  1  0  0  0  0
 17 29  1  0  0  0  0
 18 30  1  0  0  0  0
M  CHG  1  11  -1
M  END
>  <Mol_ID>
3140

>  <Formula>
C9H12N5NaO4

>  <MolWeight>
277.21245

>  <Cat>
S5065

>  <Name>
Ganciclovir sodium

>  <Synonyms>
RS-21592 sodium, Cytovene IV sodium, BW 759 sodium, 2'-Nor-2'-deoxyguanosine sodium

>  <Target>
CMV

>  <Form>
Nucleoside

>  <CAS>
107910-75-8

>  <URL>
https://www.selleckchem.com/products/ganciclovir-sodium.html

$$$$
