S5071 Duloxetine.cdx
 OpenBabel08302520013D

 40 42  0  0  0  0  0  0  0  0999 V2000
    0.2445    1.1825   -0.0071 C   0  0  0  0  0  0  0  0  0  0  0  0
   -0.3807    3.6995   -2.2053 C   0  0  0  0  0  0  0  0  0  0  0  0
   -0.9316    2.8985   -1.2307 O   0  0  0  0  0  0  0  0  0  0  0  0
   -0.7394   -0.0623   -0.6636 S   0  0  0  0  0  0  0  0  0  0  0  0
   -0.1670    2.6441   -0.0346 C   0  0  1  0  0  0  0  0  0  0  0  0
   -1.2781    4.4541   -3.0115 C   0  0  0  0  0  0  0  0  0  0  0  0
    1.3906    0.6513    0.5639 C   0  0  0  0  0  0  0  0  0  0  0  0
    0.3694   -1.2816   -0.2071 C   0  0  0  0  0  0  0  0  0  0  0  0
    1.4577   -0.7671    0.4583 C   0  0  0  0  0  0  0  0  0  0  0  0
   -0.7509    5.2838   -4.0356 C   0  0  0  0  0  0  0  0  0  0  0  0
   -1.0489    3.0239    1.1713 C   0  0  0  0  0  0  0  0  0  0  0  0
   -1.1813    3.3133    3.6159 N   0  0  0  0  0  0  0  0  0  0  0  0
    0.9925    3.7386   -2.4643 C   0  0  0  0  0  0  0  0  0  0  0  0
    1.4978    4.5686   -3.4647 C   0  0  0  0  0  0  0  0  0  0  0  0
   -0.3672    2.7770    2.5221 C   0  0  0  0  0  0  0  0  0  0  0  0
   -2.6834    4.4238   -2.8547 C   0  0  0  0  0  0  0  0  0  0  0  0
    0.6337    5.3409   -4.2373 C   0  0  0  0  0  0  0  0  0  0  0  0
   -0.5656    3.0376    4.9091 C   0  0  0  0  0  0  0  0  0  0  0  0
   -1.6130    6.0395   -4.8495 C   0  0  0  0  0  0  0  0  0  0  0  0
   -3.5298    5.1765   -3.6764 C   0  0  0  0  0  0  0  0  0  0  0  0
   -2.9957    5.9826   -4.6736 C   0  0  0  0  0  0  0  0  0  0  0  0
    0.7312    3.2715    0.0164 H   0  0  0  0  0  0  0  0  0  0  0  0
    2.1411    1.2546    1.0607 H   0  0  0  0  0  0  0  0  0  0  0  0
    0.1656   -2.3188   -0.4377 H   0  0  0  0  0  0  0  0  0  0  0  0
    2.2625   -1.3784    0.8484 H   0  0  0  0  0  0  0  0  0  0  0  0
   -1.3031    4.0889    1.0779 H   0  0  0  0  0  0  0  0  0  0  0  0
   -2.0058    2.4876    1.1269 H   0  0  0  0  0  0  0  0  0  0  0  0
   -2.1076    2.8857    3.5910 H   0  0  0  0  0  0  0  0  0  0  0  0
    1.6907    3.1126   -1.9173 H   0  0  0  0  0  0  0  0  0  0  0  0
    2.5672    4.6011   -3.6540 H   0  0  0  0  0  0  0  0  0  0  0  0
   -0.2254    1.7017    2.6765 H   0  0  0  0  0  0  0  0  0  0  0  0
    0.6182    3.2581    2.5286 H   0  0  0  0  0  0  0  0  0  0  0  0
   -3.1279    3.7982   -2.0852 H   0  0  0  0  0  0  0  0  0  0  0  0
    1.0517    5.9765   -5.0156 H   0  0  0  0  0  0  0  0  0  0  0  0
   -0.4783    1.9612    5.0918 H   0  0  0  0  0  0  0  0  0  0  0  0
    0.4273    3.4934    4.9823 H   0  0  0  0  0  0  0  0  0  0  0  0
   -1.1826    3.4639    5.7061 H   0  0  0  0  0  0  0  0  0  0  0  0
   -1.2112    6.6761   -5.6359 H   0  0  0  0  0  0  0  0  0  0  0  0
   -4.6067    5.1249   -3.5393 H   0  0  0  0  0  0  0  0  0  0  0  0
   -3.6488    6.5651   -5.3183 H   0  0  0  0  0  0  0  0  0  0  0  0
  2  3  1  0  0  0  0
  3  5  1  0  0  0  0
  4  1  1  0  0  0  0
  5  1  1  0  0  0  0
  5 11  1  0  0  0  0
  5 22  1  6  0  0  0
  6  2  1  0  0  0  0
  7  1  2  0  0  0  0
  7 23  1  0  0  0  0
  8  4  1  0  0  0  0
  8 24  1  0  0  0  0
  9  7  1  0  0  0  0
  9  8  2  0  0  0  0
  9 25  1  0  0  0  0
 10  6  2  0  0  0  0
 11 26  1  0  0  0  0
 11 27  1  0  0  0  0
 12 15  1  0  0  0  0
 12 28  1  0  0  0  0
 13  2  2  0  0  0  0
 13 29  1  0  0  0  0
 14 13  1  0  0  0  0
 14 30  1  0  0  0  0
 15 11  1  0  0  0  0
 15 31  1  0  0  0  0
 15 32  1  0  0  0  0
 16  6  1  0  0  0  0
 16 33  1  0  0  0  0
 17 10  1  0  0  0  0
 17 14  2  0  0  0  0
 17 34  1  0  0  0  0
 18 12  1  0  0  0  0
 18 35  1  0  0  0  0
 18 36  1  0  0  0  0
 18 37  1  0  0  0  0
 19 10  1  0  0  0  0
 19 38  1  0  0  0  0
 20 16  2  0  0  0  0
 20 39  1  0  0  0  0
 21 19  2  0  0  0  0
 21 20  1  0  0  0  0
 21 40  1  0  0  0  0
M  END
>  <Mol_ID>
2962

>  <Formula>
C18H19NOS

>  <MolWeight>
297.41456

>  <Cat>
S5071

>  <Name>
Duloxetine

>  <Synonyms>
LY-248686

>  <Target>
5-HT Receptor,Serotonin Transporter

>  <Form>
free base

>  <CAS>
116539-59-4

>  <URL>
http://selleckchem.com/products/duloxetine.html

$$$$
