S5079 Sitagliptin.cdx
 OpenBabel08302520013D

 43 45  0  0  0  0  0  0  0  0999 V2000
   -3.9348   -3.0243    3.0392 C   0  0  0  0  0  0  0  0  0  0  0  0
   -3.7561   -1.8899    2.2979 N   0  0  0  0  0  0  0  0  0  0  0  0
   -2.7112   -1.1943    2.8814 C   0  0  0  0  0  0  0  0  0  0  0  0
   -3.0469   -3.0139    4.0205 N   0  0  0  0  0  0  0  0  0  0  0  0
   -2.2894   -1.8751    3.9160 N   0  0  0  0  0  0  0  0  0  0  0  0
   -4.9333   -4.1201    2.8213 C   0  0  0  0  0  0  0  0  0  0  0  0
   -3.0318    0.6448    1.3045 N   0  0  0  0  0  0  0  0  0  0  0  0
   -3.3481    1.9783    1.1078 C   0  0  0  0  0  0  0  0  0  0  0  0
   -2.1455    0.0851    2.3377 C   0  0  0  0  0  0  0  0  0  0  0  0
   -2.7351    3.0817    1.9527 C   0  0  0  0  0  0  0  0  0  0  0  0
   -0.2220    4.8826   -0.7026 C   0  0  0  0  0  0  0  0  0  0  0  0
   -4.4633   -1.3737    1.1399 C   0  0  0  0  0  0  0  0  0  0  0  0
    1.9186    6.0900   -0.8086 C   0  0  0  0  0  0  0  0  0  0  0  0
    0.8769    5.4898   -0.0854 C   0  0  0  0  0  0  0  0  0  0  0  0
    1.8746    6.1021   -2.1897 C   0  0  0  0  0  0  0  0  0  0  0  0
    0.8050    5.5197   -2.8487 C   0  0  0  0  0  0  0  0  0  0  0  0
   -0.2345    4.9193   -2.1215 C   0  0  0  0  0  0  0  0  0  0  0  0
   -3.6049   -0.3515    0.3877 C   0  0  0  0  0  0  0  0  0  0  0  0
   -1.4485    4.3198    0.0379 C   0  0  0  0  0  0  0  0  0  0  0  0
   -4.1631    2.3088    0.2387 O   0  0  0  0  0  0  0  0  0  0  0  0
   -1.3793    3.6654    1.4725 C   0  0  1  0  0  0  0  0  0  0  0  0
   -5.7604   -3.8850    1.7694 F   0  0  0  0  0  0  0  0  0  0  0  0
   -4.3305   -5.3137    2.5746 F   0  0  0  0  0  0  0  0  0  0  0  0
   -5.7327   -4.3063    3.9044 F   0  0  0  0  0  0  0  0  0  0  0  0
    0.9704    5.5467    1.2469 F   0  0  0  0  0  0  0  0  0  0  0  0
    2.8633    6.6913   -2.8784 F   0  0  0  0  0  0  0  0  0  0  0  0
    0.7503    5.5469   -4.1885 F   0  0  0  0  0  0  0  0  0  0  0  0
   -1.0165    4.5970    2.5563 N   0  0  0  0  0  0  0  0  0  0  0  0
   -1.1904   -0.1444    1.8524 H   0  0  0  0  0  0  0  0  0  0  0  0
   -1.9564    0.7909    3.1475 H   0  0  0  0  0  0  0  0  0  0  0  0
   -3.4807    3.8933    1.9748 H   0  0  0  0  0  0  0  0  0  0  0  0
   -2.6775    2.7438    2.9945 H   0  0  0  0  0  0  0  0  0  0  0  0
   -5.3749   -0.9019    1.5212 H   0  0  0  0  0  0  0  0  0  0  0  0
   -4.7293   -2.2052    0.4787 H   0  0  0  0  0  0  0  0  0  0  0  0
    2.7455    6.5547   -0.2847 H   0  0  0  0  0  0  0  0  0  0  0  0
   -1.0662    4.5015   -2.6902 H   0  0  0  0  0  0  0  0  0  0  0  0
   -4.2017    0.1221   -0.3978 H   0  0  0  0  0  0  0  0  0  0  0  0
   -2.7589   -0.8437   -0.1114 H   0  0  0  0  0  0  0  0  0  0  0  0
   -1.8533    3.5417   -0.6226 H   0  0  0  0  0  0  0  0  0  0  0  0
   -2.1944    5.1261    0.0552 H   0  0  0  0  0  0  0  0  0  0  0  0
   -0.6332    2.8639    1.4512 H   0  0  0  0  0  0  0  0  0  0  0  0
   -0.1231    5.0509    2.3594 H   0  0  0  0  0  0  0  0  0  0  0  0
   -1.6999    5.3504    2.6385 H   0  0  0  0  0  0  0  0  0  0  0  0
  2  1  1  0  0  0  0
  3  2  1  0  0  0  0
  4  1  2  0  0  0  0
  5  3  2  0  0  0  0
  5  4  1  0  0  0  0
  6  1  1  0  0  0  0
  7 18  1  0  0  0  0
  8  7  1  0  0  0  0
  9  3  1  0  0  0  0
  9  7  1  0  0  0  0
  9 29  1  0  0  0  0
  9 30  1  0  0  0  0
 10  8  1  0  0  0  0
 10 31  1  0  0  0  0
 10 32  1  0  0  0  0
 11 19  1  0  0  0  0
 12  2  1  0  0  0  0
 12 33  1  0  0  0  0
 12 34  1  0  0  0  0
 13 14  2  0  0  0  0
 13 15  1  0  0  0  0
 13 35  1  0  0  0  0
 14 11  1  0  0  0  0
 15 16  2  0  0  0  0
 16 17  1  0  0  0  0
 17 11  2  0  0  0  0
 17 36  1  0  0  0  0
 18 12  1  0  0  0  0
 18 37  1  0  0  0  0
 18 38  1  0  0  0  0
 19 21  1  0  0  0  0
 19 39  1  0  0  0  0
 19 40  1  0  0  0  0
 20  8  2  0  0  0  0
 21 10  1  0  0  0  0
 21 28  1  0  0  0  0
 21 41  1  6  0  0  0
 22  6  1  0  0  0  0
 23  6  1  0  0  0  0
 24  6  1  0  0  0  0
 25 14  1  0  0  0  0
 26 15  1  0  0  0  0
 27 16  1  0  0  0  0
 28 42  1  0  0  0  0
 28 43  1  0  0  0  0
M  END
>  <Mol_ID>
2826

>  <Formula>
C16H15F6N5O

>  <MolWeight>
407.3136192

>  <Cat>
S5079

>  <Name>
Sitagliptin

>  <Synonyms>
MK-0431

>  <Target>
DPP

>  <Form>
free base

>  <CAS>
486460-32-6

>  <URL>
http://selleckchem.com/products/sitagliptin.html

$$$$
