S5075 Acotiamide.cdx
 OpenBabel08302520013D

 61 62  0  0  0  0  0  0  0  0999 V2000
   -1.4596   -0.0809   -0.0397 S   0  0  0  0  0  0  0  0  0  0  0  0
   -0.1691   -1.1955   -0.0113 C   0  0  0  0  0  0  0  0  0  0  0  0
    1.0364   -0.6673    0.0773 N   0  0  0  0  0  0  0  0  0  0  0  0
    0.9450    0.7243    0.0434 C   0  0  0  0  0  0  0  0  0  0  0  0
   -0.3478    1.2187   -0.0063 C   0  0  0  0  0  0  0  0  0  0  0  0
    2.1343    1.5761    0.0403 C   0  0  0  0  0  0  0  0  0  0  0  0
    2.0941    2.8042    0.0092 O   0  0  0  0  0  0  0  0  0  0  0  0
    3.3060    0.8528    0.0754 N   0  0  0  0  0  0  0  0  0  0  0  0
   -0.3568   -2.5532   -0.0214 N   0  0  0  0  0  0  0  0  0  0  0  0
   -1.5124   -3.2117   -0.3652 C   0  0  0  0  0  0  0  0  0  0  0  0
   -1.4849   -4.7088   -0.2745 C   0  0  0  0  0  0  0  0  0  0  0  0
   -0.3984   -5.4855    0.1226 C   0  0  0  0  0  0  0  0  0  0  0  0
   -0.5478   -6.8680    0.2819 C   0  0  0  0  0  0  0  0  0  0  0  0
   -1.7834   -7.5265    0.0514 C   0  0  0  0  0  0  0  0  0  0  0  0
   -2.8630   -6.7694   -0.4077 C   0  0  0  0  0  0  0  0  0  0  0  0
   -2.6793   -5.3797   -0.5680 C   0  0  0  0  0  0  0  0  0  0  0  0
   -2.5538   -2.6798   -0.7403 O   0  0  0  0  0  0  0  0  0  0  0  0
   -4.1607   -7.0495   -0.6963 O   0  0  0  0  0  0  0  0  0  0  0  0
   -4.7294   -8.3319   -0.6633 C   0  0  0  0  0  0  0  0  0  0  0  0
   -1.7775   -8.7964    0.5578 O   0  0  0  0  0  0  0  0  0  0  0  0
   -2.1870   -9.8823   -0.2556 C   0  0  0  0  0  0  0  0  0  0  0  0
    0.8117   -4.8969    0.3946 O   0  0  0  0  0  0  0  0  0  0  0  0
    4.6106    1.4673   -0.0143 C   0  0  0  0  0  0  0  0  0  0  0  0
    5.7288    0.5398    0.5007 C   0  0  0  0  0  0  0  0  0  0  0  0
    5.8293   -0.8342   -0.0748 N   0  0  0  0  0  0  0  0  0  0  0  0
    6.3167   -0.8753   -1.4846 C   0  0  0  0  0  0  0  0  0  0  0  0
    5.3406   -0.3171   -2.5278 C   0  0  0  0  0  0  0  0  0  0  0  0
    7.7139   -0.2798   -1.7031 C   0  0  0  0  0  0  0  0  0  0  0  0
    6.6461   -1.7154    0.8331 C   0  0  0  0  0  0  0  0  0  0  0  0
    5.9625   -1.9412    2.1969 C   0  0  0  0  0  0  0  0  0  0  0  0
    6.9812   -3.1014    0.2406 C   0  0  0  0  0  0  0  0  0  0  0  0
   -0.6753    2.2476   -0.0302 H   0  0  0  0  0  0  0  0  0  0  0  0
    3.2297   -0.1549   -0.0420 H   0  0  0  0  0  0  0  0  0  0  0  0
    0.4776   -3.1037    0.1489 H   0  0  0  0  0  0  0  0  0  0  0  0
    0.2890   -7.4643    0.6376 H   0  0  0  0  0  0  0  0  0  0  0  0
   -3.5448   -4.7911   -0.8862 H   0  0  0  0  0  0  0  0  0  0  0  0
   -4.3202   -8.9633   -1.4550 H   0  0  0  0  0  0  0  0  0  0  0  0
   -4.6591   -8.7718    0.3326 H   0  0  0  0  0  0  0  0  0  0  0  0
   -5.7958   -8.2166   -0.8855 H   0  0  0  0  0  0  0  0  0  0  0  0
   -3.1680  -10.2241    0.0821 H   0  0  0  0  0  0  0  0  0  0  0  0
   -2.1809   -9.6636   -1.3264 H   0  0  0  0  0  0  0  0  0  0  0  0
   -1.5136  -10.7262   -0.0712 H   0  0  0  0  0  0  0  0  0  0  0  0
    1.4399   -5.5833    0.6814 H   0  0  0  0  0  0  0  0  0  0  0  0
    4.7655    1.7943   -1.0414 H   0  0  0  0  0  0  0  0  0  0  0  0
    4.5987    2.3846    0.5866 H   0  0  0  0  0  0  0  0  0  0  0  0
    6.6903    1.0609    0.4381 H   0  0  0  0  0  0  0  0  0  0  0  0
    5.5136    0.4539    1.5712 H   0  0  0  0  0  0  0  0  0  0  0  0
    6.3758   -1.9286   -1.7776 H   0  0  0  0  0  0  0  0  0  0  0  0
    5.4014    0.7678   -2.6258 H   0  0  0  0  0  0  0  0  0  0  0  0
    5.5880   -0.7220   -3.5170 H   0  0  0  0  0  0  0  0  0  0  0  0
    4.3084   -0.6119   -2.3137 H   0  0  0  0  0  0  0  0  0  0  0  0
    8.4624   -0.7526   -1.0601 H   0  0  0  0  0  0  0  0  0  0  0  0
    8.0358   -0.4415   -2.7377 H   0  0  0  0  0  0  0  0  0  0  0  0
    7.7341    0.7980   -1.5178 H   0  0  0  0  0  0  0  0  0  0  0  0
    7.6067   -1.2233    1.0375 H   0  0  0  0  0  0  0  0  0  0  0  0
    4.8822   -2.0833    2.0924 H   0  0  0  0  0  0  0  0  0  0  0  0
    6.3637   -2.8226    2.7108 H   0  0  0  0  0  0  0  0  0  0  0  0
    6.1395   -1.0964    2.8711 H   0  0  0  0  0  0  0  0  0  0  0  0
    7.8326   -3.0316   -0.4462 H   0  0  0  0  0  0  0  0  0  0  0  0
    7.2714   -3.8217    1.0129 H   0  0  0  0  0  0  0  0  0  0  0  0
    6.1313   -3.5326   -0.2989 H   0  0  0  0  0  0  0  0  0  0  0  0
  1  2  1  0  0  0  0
  1  5  1  0  0  0  0
  2  3  2  0  0  0  0
  2  9  1  0  0  0  0
  3  4  1  0  0  0  0
  4  5  2  0  0  0  0
  4  6  1  0  0  0  0
  5 32  1  0  0  0  0
  6  7  2  0  0  0  0
  6  8  1  0  0  0  0
  8 23  1  0  0  0  0
  8 33  1  0  0  0  0
  9 10  1  0  0  0  0
  9 34  1  0  0  0  0
 10 11  1  0  0  0  0
 10 17  2  0  0  0  0
 11 12  2  0  0  0  0
 11 16  1  0  0  0  0
 12 13  1  0  0  0  0
 12 22  1  0  0  0  0
 13 14  2  0  0  0  0
 13 35  1  0  0  0  0
 14 15  1  0  0  0  0
 14 20  1  0  0  0  0
 15 16  2  0  0  0  0
 15 18  1  0  0  0  0
 16 36  1  0  0  0  0
 18 19  1  0  0  0  0
 19 37  1  0  0  0  0
 19 38  1  0  0  0  0
 19 39  1  0  0  0  0
 20 21  1  0  0  0  0
 21 40  1  0  0  0  0
 21 41  1  0  0  0  0
 21 42  1  0  0  0  0
 22 43  1  0  0  0  0
 23 24  1  0  0  0  0
 23 44  1  0  0  0  0
 23 45  1  0  0  0  0
 24 25  1  0  0  0  0
 24 46  1  0  0  0  0
 24 47  1  0  0  0  0
 25 26  1  0  0  0  0
 25 29  1  0  0  0  0
 26 27  1  0  0  0  0
 26 28  1  0  0  0  0
 26 48  1  0  0  0  0
 27 49  1  0  0  0  0
 27 50  1  0  0  0  0
 27 51  1  0  0  0  0
 28 52  1  0  0  0  0
 28 53  1  0  0  0  0
 28 54  1  0  0  0  0
 29 30  1  0  0  0  0
 29 31  1  0  0  0  0
 29 55  1  0  0  0  0
 30 56  1  0  0  0  0
 30 57  1  0  0  0  0
 30 58  1  0  0  0  0
 31 59  1  0  0  0  0
 31 60  1  0  0  0  0
 31 61  1  0  0  0  0
M  END
>  <Mol_ID>
2824

>  <Formula>
C21H30N4O5S

>  <MolWeight>
450.5517

>  <Cat>
S5075

>  <Name>
Acotiamide

>  <Synonyms>
Acofide, Z388

>  <Target>
AChR

>  <Form>
free base

>  <CAS>
185106-16-5

>  <URL>
http://selleckchem.com/products/acotiamide.html

$$$$
