S5076 Xipamide.cdx
 OpenBabel08302520003D

 38 39  0  0  0  0  0  0  0  0999 V2000
    0.1244   -1.3047   -0.0554 C   0  0  0  0  0  0  0  0  0  0  0  0
   -1.2676   -1.2628    0.1249 C   0  0  0  0  0  0  0  0  0  0  0  0
    0.9054   -2.5868   -0.0728 C   0  0  0  0  0  0  0  0  0  0  0  0
    0.8149   -0.0834   -0.2132 C   0  0  0  0  0  0  0  0  0  0  0  0
   -1.9342   -0.0264    0.1161 C   0  0  0  0  0  0  0  0  0  0  0  0
    0.2057   -3.7813    0.0322 N   0  0  0  0  0  0  0  0  0  0  0  0
    2.1209   -2.5049   -0.2456 O   0  0  0  0  0  0  0  0  0  0  0  0
    0.1462    1.1403   -0.1877 C   0  0  0  0  0  0  0  0  0  0  0  0
    2.1710    0.0042   -0.4007 O   0  0  0  0  0  0  0  0  0  0  0  0
   -1.2272    1.1760   -0.0239 C   0  0  0  0  0  0  0  0  0  0  0  0
   -3.6949    0.0429    0.3280 S   0  0  0  0  0  0  0  0  0  0  0  0
    0.8540   -5.0433   -0.0545 C   0  0  0  0  0  0  0  0  0  0  0  0
   -4.2235   -0.0478   -1.2581 N   0  0  0  0  0  0  0  0  0  0  0  0
   -4.1290   -1.1718    0.9807 O   0  0  0  0  0  0  0  0  0  0  0  0
   -4.0606    1.3568    0.7985 O   0  0  0  0  0  0  0  0  0  0  0  0
    1.8925   -5.4106    0.8310 C   0  0  0  0  0  0  0  0  0  0  0  0
    0.4014   -5.9652   -1.0265 C   0  0  0  0  0  0  0  0  0  0  0  0
    2.5230   -6.6568    0.6664 C   0  0  0  0  0  0  0  0  0  0  0  0
    2.3039   -4.5707    2.0115 C   0  0  0  0  0  0  0  0  0  0  0  0
    1.0465   -7.2068   -1.1520 C   0  0  0  0  0  0  0  0  0  0  0  0
   -0.7149   -5.6459   -1.9839 C   0  0  0  0  0  0  0  0  0  0  0  0
    2.1086   -7.5446   -0.3209 C   0  0  0  0  0  0  0  0  0  0  0  0
   -1.8529   -2.1610    0.2812 H   0  0  0  0  0  0  0  0  0  0  0  0
   -0.7450   -3.7646   -0.3036 H   0  0  0  0  0  0  0  0  0  0  0  0
    0.7071    2.0662   -0.2970 H   0  0  0  0  0  0  0  0  0  0  0  0
    2.5370   -0.9107   -0.4164 H   0  0  0  0  0  0  0  0  0  0  0  0
   -1.7475    2.1318   -0.0038 H   0  0  0  0  0  0  0  0  0  0  0  0
   -5.0375   -0.6634   -1.3064 H   0  0  0  0  0  0  0  0  0  0  0  0
   -4.4099    0.8856   -1.6300 H   0  0  0  0  0  0  0  0  0  0  0  0
    3.3346   -6.9527    1.3284 H   0  0  0  0  0  0  0  0  0  0  0  0
    2.8574   -3.6817    1.7068 H   0  0  0  0  0  0  0  0  0  0  0  0
    1.4242   -4.2831    2.5962 H   0  0  0  0  0  0  0  0  0  0  0  0
    2.9580   -5.1344    2.6874 H   0  0  0  0  0  0  0  0  0  0  0  0
    0.7315   -7.9180   -1.9127 H   0  0  0  0  0  0  0  0  0  0  0  0
   -1.6481   -5.4756   -1.4382 H   0  0  0  0  0  0  0  0  0  0  0  0
   -0.4664   -4.7598   -2.5769 H   0  0  0  0  0  0  0  0  0  0  0  0
   -0.8924   -6.4690   -2.6847 H   0  0  0  0  0  0  0  0  0  0  0  0
    2.6048   -8.5051   -0.4321 H   0  0  0  0  0  0  0  0  0  0  0  0
  1  2  2  0  0  0  0
  1  3  1  0  0  0  0
  1  4  1  0  0  0  0
  2  5  1  0  0  0  0
  2 23  1  0  0  0  0
  3  6  1  0  0  0  0
  3  7  2  0  0  0  0
  4  8  2  0  0  0  0
  4  9  1  0  0  0  0
  5 10  2  0  0  0  0
  5 11  1  0  0  0  0
  6 12  1  0  0  0  0
  6 24  1  0  0  0  0
  8 10  1  0  0  0  0
  8 25  1  0  0  0  0
  9 26  1  0  0  0  0
 10 27  1  0  0  0  0
 11 13  1  0  0  0  0
 11 14  2  0  0  0  0
 11 15  2  0  0  0  0
 12 16  2  0  0  0  0
 12 17  1  0  0  0  0
 13 28  1  0  0  0  0
 13 29  1  0  0  0  0
 16 18  1  0  0  0  0
 16 19  1  0  0  0  0
 17 20  2  0  0  0  0
 17 21  1  0  0  0  0
 18 22  2  0  0  0  0
 18 30  1  0  0  0  0
 19 31  1  0  0  0  0
 19 32  1  0  0  0  0
 19 33  1  0  0  0  0
 20 22  1  0  0  0  0
 20 34  1  0  0  0  0
 21 35  1  0  0  0  0
 21 36  1  0  0  0  0
 21 37  1  0  0  0  0
 22 38  1  0  0  0  0
M  END
>  <Mol_ID>
2798

>  <Formula>
C15H15ClN2O4S

>  <MolWeight>
354.8086

>  <Cat>
S5076

>  <Name>
Xipamide

>  <Synonyms>
N/A

>  <Target>
Others

>  <Form>
free base

>  <CAS>
14293-44-8

>  <URL>
http://selleckchem.com/products/xipamide.html

$$$$
