S5089 4-Isopropylbenzaldehyde.cdx
 OpenBabel08302520003D

 23 23  0  0  0  0  0  0  0  0999 V2000
    1.3458   -0.1943    0.0695 C   0  0  0  0  0  0  0  0  0  0  0  0
    0.4542   -1.2775    0.0232 C   0  0  0  0  0  0  0  0  0  0  0  0
    0.8262    1.1105    0.0294 C   0  0  0  0  0  0  0  0  0  0  0  0
    2.8390   -0.4457    0.1938 C   0  0  0  0  0  0  0  0  0  0  0  0
   -0.9240   -1.0619   -0.0499 C   0  0  0  0  0  0  0  0  0  0  0  0
   -0.5510    1.3310   -0.0375 C   0  0  0  0  0  0  0  0  0  0  0  0
    3.6139    0.1157   -1.0009 C   0  0  0  0  0  0  0  0  0  0  0  0
    3.3779    0.1209    1.5105 C   0  0  0  0  0  0  0  0  0  0  0  0
   -1.4221    0.2427   -0.0758 C   0  0  0  0  0  0  0  0  0  0  0  0
   -2.8753    0.4857   -0.1363 C   0  0  0  0  0  0  0  0  0  0  0  0
   -3.6914   -0.4281   -0.1747 O   0  0  0  0  0  0  0  0  0  0  0  0
    0.8250   -2.3005    0.0525 H   0  0  0  0  0  0  0  0  0  0  0  0
    1.4941    1.9688    0.0627 H   0  0  0  0  0  0  0  0  0  0  0  0
    3.0137   -1.5298    0.2112 H   0  0  0  0  0  0  0  0  0  0  0  0
   -1.6047   -1.9107   -0.0789 H   0  0  0  0  0  0  0  0  0  0  0  0
   -0.9249    2.3507   -0.0536 H   0  0  0  0  0  0  0  0  0  0  0  0
    3.5135    1.2033   -1.0826 H   0  0  0  0  0  0  0  0  0  0  0  0
    4.6814   -0.1126   -0.9093 H   0  0  0  0  0  0  0  0  0  0  0  0
    3.2569   -0.3235   -1.9391 H   0  0  0  0  0  0  0  0  0  0  0  0
    2.8390   -0.3022    2.3658 H   0  0  0  0  0  0  0  0  0  0  0  0
    4.4397   -0.1179    1.6303 H   0  0  0  0  0  0  0  0  0  0  0  0
    3.2747    1.2106    1.5598 H   0  0  0  0  0  0  0  0  0  0  0  0
   -3.1978    1.5407   -0.1440 H   0  0  0  0  0  0  0  0  0  0  0  0
  1  2  2  0  0  0  0
  1  3  1  0  0  0  0
  1  4  1  0  0  0  0
  2  5  1  0  0  0  0
  2 12  1  0  0  0  0
  3  6  2  0  0  0  0
  3 13  1  0  0  0  0
  4  7  1  0  0  0  0
  4  8  1  0  0  0  0
  4 14  1  0  0  0  0
  5  9  2  0  0  0  0
  5 15  1  0  0  0  0
  6  9  1  0  0  0  0
  6 16  1  0  0  0  0
  7 17  1  0  0  0  0
  7 18  1  0  0  0  0
  7 19  1  0  0  0  0
  8 20  1  0  0  0  0
  8 21  1  0  0  0  0
  8 22  1  0  0  0  0
  9 10  1  0  0  0  0
 10 11  2  0  0  0  0
 10 23  1  0  0  0  0
M  END
>  <Mol_ID>
2802

>  <Formula>
C10H12O

>  <MolWeight>
148.20168

>  <Cat>
S5089

>  <Name>
4-Isopropylbenzaldehyde

>  <Synonyms>
Cuminaldehyde, Cuminic aldehyde, Cuminal

>  <Target>
Others

>  <Form>
free base

>  <CAS>
122-03-2

>  <URL>
http://selleckchem.com/products/4-isopropylbenzaldehyde.html

$$$$
