S5086 p-Anisaldehyde.cdx
 OpenBabel08302520003D

 18 18  0  0  0  0  0  0  0  0999 V2000
    1.3762   -0.2294    0.0626 C   0  0  0  0  0  0  0  0  0  0  0  0
    0.5175   -1.3301    0.0399 C   0  0  0  0  0  0  0  0  0  0  0  0
   -0.8667   -1.1373   -0.0129 C   0  0  0  0  0  0  0  0  0  0  0  0
   -1.3930    0.1554   -0.0468 C   0  0  0  0  0  0  0  0  0  0  0  0
   -0.5245    1.2515   -0.0218 C   0  0  0  0  0  0  0  0  0  0  0  0
    0.8598    1.0670    0.0320 C   0  0  0  0  0  0  0  0  0  0  0  0
   -2.7211    0.4786   -0.1082 O   0  0  0  0  0  0  0  0  0  0  0  0
   -3.6440   -0.6043   -0.1313 C   0  0  0  0  0  0  0  0  0  0  0  0
    2.8374   -0.4316    0.1206 C   0  0  0  0  0  0  0  0  0  0  0  0
    3.3386   -1.5483    0.1554 O   0  0  0  0  0  0  0  0  0  0  0  0
    0.9208   -2.3407    0.0621 H   0  0  0  0  0  0  0  0  0  0  0  0
   -1.5014   -2.0167   -0.0284 H   0  0  0  0  0  0  0  0  0  0  0  0
   -0.9334    2.2600   -0.0454 H   0  0  0  0  0  0  0  0  0  0  0  0
    1.5135    1.9346    0.0494 H   0  0  0  0  0  0  0  0  0  0  0  0
   -3.4623   -1.2663   -0.9846 H   0  0  0  0  0  0  0  0  0  0  0  0
   -3.6175   -1.1588    0.8125 H   0  0  0  0  0  0  0  0  0  0  0  0
   -4.6485   -0.1862   -0.2474 H   0  0  0  0  0  0  0  0  0  0  0  0
    3.4611    0.4778    0.1319 H   0  0  0  0  0  0  0  0  0  0  0  0
  1  2  2  0  0  0  0
  1  6  1  0  0  0  0
  1  9  1  0  0  0  0
  2  3  1  0  0  0  0
  2 11  1  0  0  0  0
  3  4  2  0  0  0  0
  3 12  1  0  0  0  0
  4  5  1  0  0  0  0
  4  7  1  0  0  0  0
  5  6  2  0  0  0  0
  5 13  1  0  0  0  0
  6 14  1  0  0  0  0
  7  8  1  0  0  0  0
  8 15  1  0  0  0  0
  8 16  1  0  0  0  0
  8 17  1  0  0  0  0
  9 10  2  0  0  0  0
  9 18  1  0  0  0  0
M  END
>  <Mol_ID>
2801

>  <Formula>
C8H8O2

>  <MolWeight>
136.14792

>  <Cat>
S5086

>  <Name>
p-Anisaldehyde

>  <Synonyms>
4-Methoxybenzaldehyde, Anisaldehyde, Anisic aldehyde, P-Methoxybenzaldehyde, 4-Anisaldehyde

>  <Target>
Fungal

>  <Form>
free base

>  <CAS>
123-11-5

>  <URL>
http://selleckchem.com/products/p-anisaldehyde.html

$$$$
