S5085 Azamethiphos.cdx
 OpenBabel08302520003D

 29 30  0  0  0  0  0  0  0  0999 V2000
    1.1897   -0.2666    0.3686 C   0  0  0  0  0  0  0  0  0  0  0  0
    1.3341   -1.3377   -0.4841 N   0  0  0  0  0  0  0  0  0  0  0  0
    1.0626    0.8428   -0.4317 C   0  0  0  0  0  0  0  0  0  0  0  0
    1.1680   -0.2519    1.7046 N   0  0  0  0  0  0  0  0  0  0  0  0
    1.3635   -0.8309   -1.7633 C   0  0  0  0  0  0  0  0  0  0  0  0
    1.7247   -2.6756   -0.1241 C   0  0  0  0  0  0  0  0  0  0  0  0
    1.1451    0.5550   -1.7779 O   0  0  0  0  0  0  0  0  0  0  0  0
    0.8946    2.0886    0.1327 C   0  0  0  0  0  0  0  0  0  0  0  0
    0.9649    0.9667    2.2579 C   0  0  0  0  0  0  0  0  0  0  0  0
    1.5619   -1.4762   -2.7866 O   0  0  0  0  0  0  0  0  0  0  0  0
    0.8745   -3.3523    1.3103 S   0  0  0  0  0  0  0  0  0  0  0  0
    0.8338    2.1477    1.5253 C   0  0  0  0  0  0  0  0  0  0  0  0
    1.8668   -5.1135    1.7600 P   0  0  0  0  0  0  0  0  0  0  0  0
    2.0607   -5.2332    3.3648 O   0  0  0  0  0  0  0  0  0  0  0  0
    0.8852   -6.3702    1.4806 O   0  0  0  0  0  0  0  0  0  0  0  0
    3.1652   -5.2375    1.0149 O   0  0  0  0  0  0  0  0  0  0  0  0
    2.4973   -6.4699    3.8938 C   0  0  0  0  0  0  0  0  0  0  0  0
    0.4924   -6.6086    0.1463 C   0  0  0  0  0  0  0  0  0  0  0  0
    1.5159   -3.3324   -0.9770 H   0  0  0  0  0  0  0  0  0  0  0  0
    2.8106   -2.6739    0.0182 H   0  0  0  0  0  0  0  0  0  0  0  0
    0.8112    2.9816   -0.4752 H   0  0  0  0  0  0  0  0  0  0  0  0
    0.9005    0.9709    3.3428 H   0  0  0  0  0  0  0  0  0  0  0  0
    0.6867    3.0927    2.0387 H   0  0  0  0  0  0  0  0  0  0  0  0
    1.7331   -7.2386    3.7369 H   0  0  0  0  0  0  0  0  0  0  0  0
    3.4362   -6.7809    3.4332 H   0  0  0  0  0  0  0  0  0  0  0  0
    2.6491   -6.3564    4.9721 H   0  0  0  0  0  0  0  0  0  0  0  0
   -0.3042   -5.9135   -0.1326 H   0  0  0  0  0  0  0  0  0  0  0  0
    1.3387   -6.4974   -0.5350 H   0  0  0  0  0  0  0  0  0  0  0  0
    0.1097   -7.6286    0.0744 H   0  0  0  0  0  0  0  0  0  0  0  0
  1  2  1  0  0  0  0
  1  3  2  0  0  0  0
  1  4  1  0  0  0  0
  2  5  1  0  0  0  0
  2  6  1  0  0  0  0
  3  7  1  0  0  0  0
  3  8  1  0  0  0  0
  4  9  2  0  0  0  0
  5 10  2  0  0  0  0
  5  7  1  0  0  0  0
  6 11  1  0  0  0  0
  6 19  1  0  0  0  0
  6 20  1  0  0  0  0
  8 12  2  0  0  0  0
  8 21  1  0  0  0  0
  9 12  1  0  0  0  0
  9 22  1  0  0  0  0
 11 13  1  0  0  0  0
 12 23  1  0  0  0  0
 13 14  1  0  0  0  0
 13 15  1  0  0  0  0
 13 16  2  0  0  0  0
 14 17  1  0  0  0  0
 15 18  1  0  0  0  0
 17 24  1  0  0  0  0
 17 25  1  0  0  0  0
 17 26  1  0  0  0  0
 18 27  1  0  0  0  0
 18 28  1  0  0  0  0
 18 29  1  0  0  0  0
M  END
>  <Mol_ID>
2800

>  <Formula>
C9H10ClN2O5PS

>  <MolWeight>
324.677861

>  <Cat>
S5085

>  <Name>
Azamethiphos

>  <Synonyms>
N/A

>  <Target>
Others

>  <Form>
free base

>  <CAS>
35575-96-3

>  <URL>
http://selleckchem.com/products/azamethiphos.html

$$$$
