S5088 Labetalone hydrochloride.cdx
 OpenBabel08302520013D

 46 47  0  0  0  0  0  0  0  0999 V2000
   -5.3975   -2.8471    0.5139 C   0  0  0  0  0  0  0  0  0  0  0  0
   -4.9164   -1.5255    0.5257 C   0  0  0  0  0  0  0  0  0  0  0  0
   -6.8433   -3.0424    0.2445 C   0  0  0  0  0  0  0  0  0  0  0  0
   -3.5626   -1.2653    0.7805 C   0  0  0  0  0  0  0  0  0  0  0  0
   -4.5165   -3.9088    0.7343 C   0  0  0  0  0  0  0  0  0  0  0  0
   -2.9918    0.1253    0.7809 C   0  0  0  0  0  0  0  0  0  0  0  0
   -7.4832   -2.2607   -0.4407 O   0  0  0  0  0  0  0  0  0  0  0  0
   -3.9314    1.2685    0.3928 C   0  0  0  0  0  0  0  0  0  0  0  0
   -2.7001   -2.3433    1.0259 C   0  0  0  0  0  0  0  0  0  0  0  0
   -3.2244    2.5407    0.2622 N   0  0  0  0  0  0  0  0  0  0  0  0
   -1.7973    0.2777    1.0193 O   0  0  0  0  0  0  0  0  0  0  0  0
   -3.1757   -3.6578    1.0029 C   0  0  0  0  0  0  0  0  0  0  0  0
   -7.4386   -4.1284    0.8376 N   0  0  0  0  0  0  0  0  0  0  0  0
   -4.8884   -5.2236    0.6738 O   0  0  0  0  0  0  0  0  0  0  0  0
   -5.8815    2.8911   -1.6648 C   0  0  0  0  0  0  0  0  0  0  0  0
   -6.4598    2.9276   -3.0630 C   0  0  0  0  0  0  0  0  0  0  0  0
   -4.7395    3.8676   -1.3641 C   0  0  0  0  0  0  0  0  0  0  0  0
   -4.0366    3.7346    0.0100 C   0  0  3  0  0  0  0  0  0  0  0  0
   -6.1477    3.9130   -4.0059 C   0  0  0  0  0  0  0  0  0  0  0  0
   -7.2799    1.8550   -3.4573 C   0  0  0  0  0  0  0  0  0  0  0  0
   -3.0581    4.9215    0.1290 C   0  0  0  0  0  0  0  0  0  0  0  0
   -7.7152    1.7347   -4.7761 C   0  0  0  0  0  0  0  0  0  0  0  0
   -6.5836    3.7906   -5.3268 C   0  0  0  0  0  0  0  0  0  0  0  0
   -7.3516    2.6950   -5.7152 C   0  0  0  0  0  0  0  0  0  0  0  0
   -5.6248   -0.7229    0.3305 H   0  0  0  0  0  0  0  0  0  0  0  0
   -4.3163    0.9643   -0.5730 H   0  0  0  0  0  0  0  0  0  0  0  0
   -4.7231    1.3439    1.1438 H   0  0  0  0  0  0  0  0  0  0  0  0
   -1.6425   -2.1651    1.2183 H   0  0  0  0  0  0  0  0  0  0  0  0
   -2.4482    2.4512   -0.3911 H   0  0  0  0  0  0  0  0  0  0  0  0
   -2.4898   -4.4856    1.1717 H   0  0  0  0  0  0  0  0  0  0  0  0
   -7.0432   -4.5179    1.6891 H   0  0  0  0  0  0  0  0  0  0  0  0
   -8.4470   -4.1459    0.7707 H   0  0  0  0  0  0  0  0  0  0  0  0
   -5.7506   -5.2851    0.2181 H   0  0  0  0  0  0  0  0  0  0  0  0
   -5.5062    1.8769   -1.5902 H   0  0  0  0  0  0  0  0  0  0  0  0
   -6.6831    3.0020   -0.9260 H   0  0  0  0  0  0  0  0  0  0  0  0
   -5.1619    4.8815   -1.4205 H   0  0  0  0  0  0  0  0  0  0  0  0
   -3.9806    3.8068   -2.1545 H   0  0  0  0  0  0  0  0  0  0  0  0
   -4.7813    3.8414    0.8088 H   0  0  0  0  0  0  0  0  0  0  0  0
   -5.5329    4.7694   -3.7438 H   0  0  0  0  0  0  0  0  0  0  0  0
   -7.5491    1.0791   -2.7415 H   0  0  0  0  0  0  0  0  0  0  0  0
   -2.5392    4.9236    1.0937 H   0  0  0  0  0  0  0  0  0  0  0  0
   -2.2971    4.8874   -0.6615 H   0  0  0  0  0  0  0  0  0  0  0  0
   -3.5853    5.8776    0.0360 H   0  0  0  0  0  0  0  0  0  0  0  0
   -8.3154    0.8789   -5.0720 H   0  0  0  0  0  0  0  0  0  0  0  0
   -6.3012    4.5423   -6.0591 H   0  0  0  0  0  0  0  0  0  0  0  0
   -7.6601    2.5863   -6.7508 H   0  0  0  0  0  0  0  0  0  0  0  0
  2  1  2  0  0  0  0
  2 25  1  0  0  0  0
  3  1  1  0  0  0  0
  4  2  1  0  0  0  0
  4  9  2  0  0  0  0
  5  1  1  0  0  0  0
  6  4  1  0  0  0  0
  7  3  2  0  0  0  0
  8  6  1  0  0  0  0
  8 26  1  0  0  0  0
  8 27  1  0  0  0  0
  9 12  1  0  0  0  0
  9 28  1  0  0  0  0
 10  8  1  0  0  0  0
 10 29  1  0  0  0  0
 11  6  2  0  0  0  0
 12  5  2  0  0  0  0
 12 30  1  0  0  0  0
 13  3  1  0  0  0  0
 13 31  1  0  0  0  0
 13 32  1  0  0  0  0
 14  5  1  0  0  0  0
 14 33  1  0  0  0  0
 15 17  1  0  0  0  0
 15 34  1  0  0  0  0
 15 35  1  0  0  0  0
 16 15  1  0  0  0  0
 17 18  1  0  0  0  0
 17 36  1  0  0  0  0
 17 37  1  0  0  0  0
 18 10  1  0  0  0  0
 18 38  1  0  0  0  0
 19 16  2  0  0  0  0
 19 39  1  0  0  0  0
 20 16  1  0  0  0  0
 20 40  1  0  0  0  0
 21 18  1  0  0  0  0
 21 41  1  0  0  0  0
 21 42  1  0  0  0  0
 21 43  1  0  0  0  0
 22 20  2  0  0  0  0
 22 24  1  0  0  0  0
 22 44  1  0  0  0  0
 23 19  1  0  0  0  0
 23 45  1  0  0  0  0
 24 23  2  0  0  0  0
 24 46  1  0  0  0  0
M  END
>  <Mol_ID>
2857

>  <Formula>
C19H23ClN2O3

>  <MolWeight>
362.85052

>  <Cat>
S5088

>  <Name>
Labetalone hydrochloride

>  <Synonyms>
Benzoic amide

>  <Target>
Adrenergic Receptor

>  <Form>
hydrochloride

>  <CAS>
96441-14-4

>  <URL>
http://selleckchem.com/products/labetalone-hydrochloride.html

$$$$
