S5092 Febantel.cdx
 OpenBabel08302520013D

 53 54  0  0  0  0  0  0  0  0999 V2000
    1.4975   -0.2394    0.7322 C   0  0  0  0  0  0  0  0  0  0  0  0
    0.6877   -1.3430    0.3559 C   0  0  0  0  0  0  0  0  0  0  0  0
    0.9802    1.0663    0.7030 C   0  0  0  0  0  0  0  0  0  0  0  0
    2.8980   -0.3683    0.9990 N   0  0  0  0  0  0  0  0  0  0  0  0
    1.2154   -2.6511    0.3358 N   0  0  0  0  0  0  0  0  0  0  0  0
   -0.6151   -1.0571   -0.0889 C   0  0  0  0  0  0  0  0  0  0  0  0
   -0.3496    1.3024    0.3243 C   0  0  0  0  0  0  0  0  0  0  0  0
    3.3290   -0.4988    2.3128 C   0  0  0  0  0  0  0  0  0  0  0  0
    0.6143   -3.7334    0.7208 C   0  0  0  0  0  0  0  0  0  0  0  0
   -1.1458    0.2312   -0.0527 C   0  0  0  0  0  0  0  0  0  0  0  0
   -0.9856    2.9531    0.1407 S   0  0  0  0  0  0  0  0  0  0  0  0
    4.8621   -0.6614    2.5268 C   0  0  0  0  0  0  0  0  0  0  0  0
    2.5607   -0.5416    3.2771 O   0  0  0  0  0  0  0  0  0  0  0  0
   -0.7025   -3.8066    1.1330 N   0  0  0  0  0  0  0  0  0  0  0  0
    1.2706   -4.9468    0.6319 N   0  0  0  0  0  0  0  0  0  0  0  0
   -1.7101    3.3194    1.7282 C   0  0  0  0  0  0  0  0  0  0  0  0
    5.7956    0.1816    1.8749 O   0  0  0  0  0  0  0  0  0  0  0  0
   -1.5032   -4.7959    1.6433 C   0  0  0  0  0  0  0  0  0  0  0  0
    2.3481   -5.2595   -0.1803 C   0  0  0  0  0  0  0  0  0  0  0  0
   -1.2063    2.8145    2.9303 C   0  0  0  0  0  0  0  0  0  0  0  0
   -2.7772    4.2273    1.7717 C   0  0  0  0  0  0  0  0  0  0  0  0
    6.3209   -0.3090    0.6539 C   0  0  0  0  0  0  0  0  0  0  0  0
   -2.7698   -4.4935    1.2588 O   0  0  0  0  0  0  0  0  0  0  0  0
   -1.1664   -5.7086    2.3781 O   0  0  0  0  0  0  0  0  0  0  0  0
    2.6227   -4.2935   -1.0913 O   0  0  0  0  0  0  0  0  0  0  0  0
    2.9176   -6.3493   -0.1140 O   0  0  0  0  0  0  0  0  0  0  0  0
   -1.7463    3.2194    4.1529 C   0  0  0  0  0  0  0  0  0  0  0  0
   -3.3149    4.6365    2.9949 C   0  0  0  0  0  0  0  0  0  0  0  0
   -3.8508   -5.2609    1.7956 C   0  0  0  0  0  0  0  0  0  0  0  0
    3.6790   -4.5504   -2.0051 C   0  0  0  0  0  0  0  0  0  0  0  0
   -2.7941    4.1355    4.1849 C   0  0  0  0  0  0  0  0  0  0  0  0
    1.6293    1.9097    0.9203 H   0  0  0  0  0  0  0  0  0  0  0  0
    3.3867   -0.9851    0.3626 H   0  0  0  0  0  0  0  0  0  0  0  0
   -1.2424   -1.8181   -0.5343 H   0  0  0  0  0  0  0  0  0  0  0  0
   -2.1746    0.3845   -0.3745 H   0  0  0  0  0  0  0  0  0  0  0  0
    5.0015   -0.4195    3.5900 H   0  0  0  0  0  0  0  0  0  0  0  0
    5.1367   -1.7190    2.4328 H   0  0  0  0  0  0  0  0  0  0  0  0
   -1.3080   -3.1748    0.6477 H   0  0  0  0  0  0  0  0  0  0  0  0
    0.9385   -5.7083    1.2118 H   0  0  0  0  0  0  0  0  0  0  0  0
   -0.3728    2.1177    2.9450 H   0  0  0  0  0  0  0  0  0  0  0  0
   -3.1886    4.6408    0.8531 H   0  0  0  0  0  0  0  0  0  0  0  0
    6.4776   -1.3921    0.6621 H   0  0  0  0  0  0  0  0  0  0  0  0
    5.6590   -0.0234   -0.1659 H   0  0  0  0  0  0  0  0  0  0  0  0
    7.2929    0.1692    0.4843 H   0  0  0  0  0  0  0  0  0  0  0  0
   -1.3295    2.8308    5.0779 H   0  0  0  0  0  0  0  0  0  0  0  0
   -4.1279    5.3571    3.0173 H   0  0  0  0  0  0  0  0  0  0  0  0
   -4.7734   -4.8639    1.3563 H   0  0  0  0  0  0  0  0  0  0  0  0
   -3.7666   -6.3149    1.5186 H   0  0  0  0  0  0  0  0  0  0  0  0
   -3.9105   -5.1319    2.8795 H   0  0  0  0  0  0  0  0  0  0  0  0
    4.5671   -4.9181   -1.4854 H   0  0  0  0  0  0  0  0  0  0  0  0
    3.3465   -5.2559   -2.7714 H   0  0  0  0  0  0  0  0  0  0  0  0
    3.9312   -3.6045   -2.4927 H   0  0  0  0  0  0  0  0  0  0  0  0
   -3.1958    4.4665    5.1397 H   0  0  0  0  0  0  0  0  0  0  0  0
  1  2  2  0  0  0  0
  1  3  1  0  0  0  0
  1  4  1  0  0  0  0
  2  5  1  0  0  0  0
  2  6  1  0  0  0  0
  3  7  2  0  0  0  0
  3 32  1  0  0  0  0
  4  8  1  0  0  0  0
  4 33  1  0  0  0  0
  5  9  2  0  0  0  0
  6 10  2  0  0  0  0
  6 34  1  0  0  0  0
  7 11  1  0  0  0  0
  7 10  1  0  0  0  0
  8 12  1  0  0  0  0
  8 13  2  0  0  0  0
  9 14  1  0  0  0  0
 10 35  1  0  0  0  0
 11 16  1  0  0  0  0
 12 17  1  0  0  0  0
 12 36  1  0  0  0  0
 12 37  1  0  0  0  0
 14 18  1  0  0  0  0
 14 38  1  0  0  0  0
 15 19  1  0  0  0  0
 15  9  1  0  0  0  0
 15 39  1  0  0  0  0
 16 20  2  0  0  0  0
 16 21  1  0  0  0  0
 17 22  1  0  0  0  0
 18 23  1  0  0  0  0
 18 24  2  0  0  0  0
 19 25  1  0  0  0  0
 19 26  2  0  0  0  0
 20 27  1  0  0  0  0
 20 40  1  0  0  0  0
 21 28  2  0  0  0  0
 21 41  1  0  0  0  0
 22 42  1  0  0  0  0
 22 43  1  0  0  0  0
 22 44  1  0  0  0  0
 23 29  1  0  0  0  0
 25 30  1  0  0  0  0
 27 31  2  0  0  0  0
 27 45  1  0  0  0  0
 28 31  1  0  0  0  0
 28 46  1  0  0  0  0
 29 47  1  0  0  0  0
 29 48  1  0  0  0  0
 29 49  1  0  0  0  0
 30 50  1  0  0  0  0
 30 51  1  0  0  0  0
 30 52  1  0  0  0  0
 31 53  1  0  0  0  0
M  END
>  <Mol_ID>
2828

>  <Formula>
C20H22N4O6S

>  <MolWeight>
446.47688

>  <Cat>
S5092

>  <Name>
Febantel

>  <Synonyms>
Rintal, Combotel, Oratel, Bay Vh 5757, Negabot Plus

>  <Target>
Parasite

>  <Form>
free base

>  <CAS>
58306-30-2

>  <URL>
http://selleckchem.com/products/febantel.html

$$$$
