S5096 SulfadiMethoxine sodiuM.cdx
 OpenBabel08302520003D

 35 36  0  0  0  0  0  0  0  0999 V2000
   -2.3227   -0.9781    0.7806 C   0  0  0  0  0  0  0  0  0  0  0  0
   -3.6495   -0.0889    0.0060 S   0  0  0  0  0  0  0  0  0  0  0  0
   -1.0018   -0.7160    0.4154 C   0  0  0  0  0  0  0  0  0  0  0  0
   -2.6149   -1.9106    1.7768 C   0  0  0  0  0  0  0  0  0  0  0  0
   -3.9944   -1.0650   -1.3289 N   0  0  0  0  0  0  0  0  0  0  0  0
   -4.7618   -0.0670    0.9310 O   0  0  0  0  0  0  0  0  0  0  0  0
   -3.0885    1.1357   -0.5251 O   0  0  0  0  0  0  0  0  0  0  0  0
    0.0311   -1.4218    1.0367 C   0  0  0  0  0  0  0  0  0  0  0  0
   -1.5736   -2.6136    2.3834 C   0  0  0  0  0  0  0  0  0  0  0  0
   -5.0063   -2.0325   -1.1485 C   0  0  0  0  0  0  0  0  0  0  0  0
   -0.2414   -2.3462    2.0524 C   0  0  0  0  0  0  0  0  0  0  0  0
   -4.7166   -3.3189   -0.7696 C   0  0  0  0  0  0  0  0  0  0  0  0
   -6.2291   -1.5655   -1.4029 N   0  0  0  0  0  0  0  0  0  0  0  0
    0.7809   -3.1525    2.5613 N   0  0  0  0  0  0  0  0  0  0  0  0
   -5.8120   -4.1396   -0.6796 C   0  0  0  0  0  0  0  0  0  0  0  0
   -7.2209   -2.4416   -1.2284 C   0  0  0  0  0  0  0  0  0  0  0  0
   -7.0702   -3.7280   -0.8906 N   0  0  0  0  0  0  0  0  0  0  0  0
   -5.5810   -5.4635   -0.3613 O   0  0  0  0  0  0  0  0  0  0  0  0
   -8.4860   -1.9376   -1.4395 O   0  0  0  0  0  0  0  0  0  0  0  0
   -6.7701   -6.2551   -0.3869 C   0  0  0  0  0  0  0  0  0  0  0  0
   -9.5058   -2.9084   -1.2436 C   0  0  0  0  0  0  0  0  0  0  0  0
   -0.7677    0.0181   -0.3521 H   0  0  0  0  0  0  0  0  0  0  0  0
   -3.6426   -2.1064    2.0751 H   0  0  0  0  0  0  0  0  0  0  0  0
   -4.1941   -0.4509   -2.1181 H   0  0  0  0  0  0  0  0  0  0  0  0
    1.0564   -1.2427    0.7224 H   0  0  0  0  0  0  0  0  0  0  0  0
   -1.8112   -3.3720    3.1252 H   0  0  0  0  0  0  0  0  0  0  0  0
   -3.7122   -3.6752   -0.5993 H   0  0  0  0  0  0  0  0  0  0  0  0
    0.5741   -3.5540    3.4709 H   0  0  0  0  0  0  0  0  0  0  0  0
    1.6984   -2.7176    2.5359 H   0  0  0  0  0  0  0  0  0  0  0  0
   -7.4998   -5.9002    0.3497 H   0  0  0  0  0  0  0  0  0  0  0  0
   -7.2092   -6.2770   -1.3914 H   0  0  0  0  0  0  0  0  0  0  0  0
   -6.5008   -7.2809   -0.1192 H   0  0  0  0  0  0  0  0  0  0  0  0
   -9.4155   -3.7261   -1.9678 H   0  0  0  0  0  0  0  0  0  0  0  0
   -9.5041   -3.2939   -0.2168 H   0  0  0  0  0  0  0  0  0  0  0  0
  -10.4701   -2.4208   -1.4121 H   0  0  0  0  0  0  0  0  0  0  0  0
  1  2  1  0  0  0  0
  1  3  2  0  0  0  0
  1  4  1  0  0  0  0
  2  5  1  0  0  0  0
  2  6  2  0  0  0  0
  2  7  2  0  0  0  0
  3  8  1  0  0  0  0
  3 22  1  0  0  0  0
  4  9  2  0  0  0  0
  4 23  1  0  0  0  0
  5 10  1  0  0  0  0
  5 24  1  0  0  0  0
  8 11  2  0  0  0  0
  8 25  1  0  0  0  0
  9 11  1  0  0  0  0
  9 26  1  0  0  0  0
 10 12  2  0  0  0  0
 10 13  1  0  0  0  0
 11 14  1  0  0  0  0
 12 15  1  0  0  0  0
 12 27  1  0  0  0  0
 13 16  2  0  0  0  0
 14 28  1  0  0  0  0
 14 29  1  0  0  0  0
 15 17  2  0  0  0  0
 15 18  1  0  0  0  0
 16 19  1  0  0  0  0
 16 17  1  0  0  0  0
 18 20  1  0  0  0  0
 19 21  1  0  0  0  0
 20 30  1  0  0  0  0
 20 31  1  0  0  0  0
 20 32  1  0  0  0  0
 21 33  1  0  0  0  0
 21 34  1  0  0  0  0
 21 35  1  0  0  0  0
M  END
>  <Mol_ID>
2806

>  <Formula>
C12H13N4NaO4S

>  <MolWeight>
332.31079

>  <Cat>
S5096

>  <Name>
SulfadiMethoxine sodium

>  <Synonyms>
Sulfadimethoxydiazine sodium

>  <Target>
Anti-infection

>  <Form>
sodium salt

>  <CAS>
1037-50-9

>  <URL>
http://selleckchem.com/products/sulfadiMethoxine-sodium.html

$$$$
