S5091 Geranyl acetate.cdx
 OpenBabel08302520003D

 34 33  0  0  0  0  0  0  0  0999 V2000
    1.0839   -0.1392   -0.0137 C   0  0  0  0  0  0  0  0  0  0  0  0
    0.2435   -0.4419   -1.2479 C   0  0  0  0  0  0  0  0  0  0  0  0
    0.5628    0.3359    1.1344 C   0  0  0  0  0  0  0  0  0  0  0  0
    2.5561   -0.4152   -0.1772 C   0  0  0  0  0  0  0  0  0  0  0  0
   -1.2601   -0.1320   -1.1454 C   0  0  0  0  0  0  0  0  0  0  0  0
    1.2659    0.6549    2.4210 C   0  0  0  0  0  0  0  0  0  0  0  0
   -1.9996   -0.4911   -2.4048 C   0  0  0  0  0  0  0  0  0  0  0  0
    0.7281   -0.1584    3.4761 O   0  0  0  0  0  0  0  0  0  0  0  0
   -3.0628   -1.3143   -2.4901 C   0  0  0  0  0  0  0  0  0  0  0  0
   -0.4191    0.2923    4.0521 C   0  0  0  0  0  0  0  0  0  0  0  0
   -3.7090   -1.6101   -3.8138 C   0  0  0  0  0  0  0  0  0  0  0  0
   -3.6820   -1.9889   -1.2972 C   0  0  0  0  0  0  0  0  0  0  0  0
   -0.8395   -0.6079    5.1748 C   0  0  0  0  0  0  0  0  0  0  0  0
   -1.0328    1.3005    3.7292 O   0  0  0  0  0  0  0  0  0  0  0  0
    0.6586    0.1263   -2.0923 H   0  0  0  0  0  0  0  0  0  0  0  0
    0.3685   -1.5063   -1.4915 H   0  0  0  0  0  0  0  0  0  0  0  0
   -0.5039    0.5386    1.1931 H   0  0  0  0  0  0  0  0  0  0  0  0
    2.8082   -0.6401   -1.2191 H   0  0  0  0  0  0  0  0  0  0  0  0
    3.1525    0.4552    0.1130 H   0  0  0  0  0  0  0  0  0  0  0  0
    2.8554   -1.2774    0.4284 H   0  0  0  0  0  0  0  0  0  0  0  0
   -1.6798   -0.6664   -0.2867 H   0  0  0  0  0  0  0  0  0  0  0  0
   -1.4047    0.9399   -0.9631 H   0  0  0  0  0  0  0  0  0  0  0  0
    2.3368    0.4406    2.3727 H   0  0  0  0  0  0  0  0  0  0  0  0
    1.1642    1.7202    2.6592 H   0  0  0  0  0  0  0  0  0  0  0  0
   -1.6256   -0.0157   -3.3104 H   0  0  0  0  0  0  0  0  0  0  0  0
   -3.7151   -2.6896   -3.9960 H   0  0  0  0  0  0  0  0  0  0  0  0
   -4.7415   -1.2466   -3.8218 H   0  0  0  0  0  0  0  0  0  0  0  0
   -3.1790   -1.1369   -4.6469 H   0  0  0  0  0  0  0  0  0  0  0  0
   -2.9765   -2.6892   -0.8391 H   0  0  0  0  0  0  0  0  0  0  0  0
   -3.9945   -1.2510   -0.5504 H   0  0  0  0  0  0  0  0  0  0  0  0
   -4.5742   -2.5577   -1.5798 H   0  0  0  0  0  0  0  0  0  0  0  0
   -0.7185   -0.0783    6.1229 H   0  0  0  0  0  0  0  0  0  0  0  0
   -1.8826   -0.9016    5.0320 H   0  0  0  0  0  0  0  0  0  0  0  0
   -0.2309   -1.5164    5.1974 H   0  0  0  0  0  0  0  0  0  0  0  0
  1  2  1  0  0  0  0
  1  3  2  0  0  0  0
  1  4  1  0  0  0  0
  2  5  1  0  0  0  0
  2 15  1  0  0  0  0
  2 16  1  0  0  0  0
  3  6  1  0  0  0  0
  3 17  1  0  0  0  0
  4 18  1  0  0  0  0
  4 19  1  0  0  0  0
  4 20  1  0  0  0  0
  5  7  1  0  0  0  0
  5 21  1  0  0  0  0
  5 22  1  0  0  0  0
  6  8  1  0  0  0  0
  6 23  1  0  0  0  0
  6 24  1  0  0  0  0
  7  9  2  0  0  0  0
  7 25  1  0  0  0  0
  8 10  1  0  0  0  0
  9 11  1  0  0  0  0
  9 12  1  0  0  0  0
 10 13  1  0  0  0  0
 10 14  2  0  0  0  0
 11 26  1  0  0  0  0
 11 27  1  0  0  0  0
 11 28  1  0  0  0  0
 12 29  1  0  0  0  0
 12 30  1  0  0  0  0
 12 31  1  0  0  0  0
 13 32  1  0  0  0  0
 13 33  1  0  0  0  0
 13 34  1  0  0  0  0
M  END
>  <Mol_ID>
2804

>  <Formula>
C12H20O2

>  <MolWeight>
196.286

>  <Cat>
S5091

>  <Name>
Geranyl acetate

>  <Synonyms>
Geraniol acetate, Geranyl ethanoate

>  <Target>
Others

>  <Form>
free base

>  <CAS>
105-87-3

>  <URL>
http://selleckchem.com/products/geranyl-acetate.html

$$$$
