S5100 Pralidoxime Iodide.cdx
 OpenBabel08302520013D

 20 19  0  0  0  0  0  0  0  0999 V2000
   -0.2062    1.2869   -0.2532 C   0  0  0  0  0  0  0  0  0  0  0  0
   -0.8539    0.0612   -0.1958 N   0  3  0  0  0  0  0  0  0  0  0  0
    1.2035    1.3111   -0.3311 C   0  0  0  0  0  0  0  0  0  0  0  0
   -0.9299    2.5975   -0.2383 C   0  0  0  0  0  0  0  0  0  0  0  0
   -0.1296   -1.1025   -0.2223 C   0  0  0  0  0  0  0  0  0  0  0  0
   -2.3137   -0.1117   -0.1010 C   0  0  0  0  0  0  0  0  0  0  0  0
    1.9277    0.1246   -0.3532 C   0  0  0  0  0  0  0  0  0  0  0  0
   -0.2821    3.7072   -0.2941 N   0  0  0  0  0  0  0  0  0  0  0  0
    1.2603   -1.0893   -0.3009 C   0  0  0  0  0  0  0  0  0  0  0  0
   -0.9212    4.8575   -0.2867 O   0  0  0  0  0  0  0  0  0  0  0  0
    0.6260   -0.0216    3.3821 I   0  5  0  0  0  0  0  0  0  0  0  0
    1.7513    2.2441   -0.3741 H   0  0  0  0  0  0  0  0  0  0  0  0
   -2.0060    2.6570   -0.1885 H   0  0  0  0  0  0  0  0  0  0  0  0
   -0.6301   -2.0639   -0.1789 H   0  0  0  0  0  0  0  0  0  0  0  0
   -2.6787   -0.6902   -0.9768 H   0  0  0  0  0  0  0  0  0  0  0  0
   -2.5607   -0.6739    0.8256 H   0  0  0  0  0  0  0  0  0  0  0  0
   -2.8914    0.8214   -0.0674 H   0  0  0  0  0  0  0  0  0  0  0  0
    3.0085    0.1472   -0.4113 H   0  0  0  0  0  0  0  0  0  0  0  0
    1.8154   -2.0184   -0.3179 H   0  0  0  0  0  0  0  0  0  0  0  0
   -0.4264    5.6864   -0.3328 H   0  0  0  0  0  0  0  0  0  0  0  0
  1  2  2  0  0  0  0
  1  3  1  0  0  0  0
  1  4  1  0  0  0  0
  2  5  1  0  0  0  0
  2  6  1  0  0  0  0
  3  7  2  0  0  0  0
  3 12  1  0  0  0  0
  4  8  2  0  0  0  0
  4 13  1  0  0  0  0
  5  9  2  0  0  0  0
  5 14  1  0  0  0  0
  6 15  1  0  0  0  0
  6 16  1  0  0  0  0
  6 17  1  0  0  0  0
  7  9  1  0  0  0  0
  7 18  1  0  0  0  0
  8 10  1  0  0  0  0
  9 19  1  0  0  0  0
 10 20  1  0  0  0  0
M  CHG  2   2   1  11  -1
M  END
>  <Mol_ID>
2830

>  <Formula>
C7H9IN2O

>  <MolWeight>
264.06363

>  <Cat>
S5100

>  <Name>
Pralidoxime Iodide

>  <Synonyms>
2-PAM

>  <Target>
AChR

>  <Form>
iodide salt

>  <CAS>
94-63-3

>  <URL>
http://selleckchem.com/products/pralidoxime-lodide.html

$$$$
