S5101 Tabersonine hydrochloride.cdx
 OpenBabel08302519563D

 49 53  0  0  0  0  0  0  0  0999 V2000
   -3.6239   -6.5544    1.2939 C   0  0  2  0  0  0  0  0  0  0  0  0
   -4.5002   -5.3002    1.3313 C   0  0  3  0  0  0  0  0  0  0  0  0
   -3.4647   -6.8171   -0.2002 C   0  0  0  0  0  0  0  0  0  0  0  0
   -4.5097   -7.6017    1.9623 C   0  0  0  0  0  0  0  0  0  0  0  0
   -2.3307   -6.5121    2.0565 C   0  0  0  0  0  0  0  0  0  0  0  0
   -5.1314   -4.6902   -0.1935 C   0  0  3  0  0  0  0  0  0  0  0  0
   -3.6284   -4.5257    2.2571 N   0  0  3  0  0  0  0  0  0  0  0  0
   -3.0306   -5.7266   -1.0373 C   0  0  0  0  0  0  0  0  0  0  0  0
   -4.5593   -7.8063   -0.3070 N   0  0  0  0  0  0  0  0  0  0  0  0
   -5.1855   -8.1959    0.9216 C   0  0  0  0  0  0  0  0  0  0  0  0
   -4.8717   -7.6921    3.3316 C   0  0  0  0  0  0  0  0  0  0  0  0
   -2.2984   -5.0830    2.4925 C   0  0  0  0  0  0  0  0  0  0  0  0
   -4.0147   -4.5736   -1.1625 C   0  0  0  0  0  0  0  0  0  0  0  0
   -5.4420   -3.2406    0.3910 C   0  0  0  0  0  0  0  0  0  0  0  0
   -6.0856   -5.5629   -1.3573 C   0  0  0  0  0  0  0  0  0  0  0  0
   -3.7542   -3.1014    2.3000 C   0  0  0  0  0  0  0  0  0  0  0  0
   -1.7843   -4.6893   -1.1261 C   0  0  0  0  0  0  0  0  0  0  0  0
   -6.4149   -8.7602    1.2598 C   0  0  0  0  0  0  0  0  0  0  0  0
   -6.0178   -8.3760    3.6715 C   0  0  0  0  0  0  0  0  0  0  0  0
   -4.4098   -2.5679    0.9693 C   0  0  0  0  0  0  0  0  0  0  0  0
   -6.0637   -5.3281   -2.9711 C   0  0  0  0  0  0  0  0  0  0  0  0
   -1.9863   -3.7729   -2.2343 O   0  0  0  0  0  0  0  0  0  0  0  0
   -0.9076   -4.4865   -0.3229 O   0  0  0  0  0  0  0  0  0  0  0  0
   -6.8176   -8.8616    2.6368 C   0  0  0  0  0  0  0  0  0  0  0  0
   -1.9691   -2.2817   -2.1441 C   0  0  0  0  0  0  0  0  0  0  0  0
   -5.4282   -5.4420    1.9091 H   0  0  0  0  0  0  0  0  0  0  0  0
   -1.4829   -6.8111    1.4312 H   0  0  0  0  0  0  0  0  0  0  0  0
   -2.2997   -7.2091    2.9114 H   0  0  0  0  0  0  0  0  0  0  0  0
   -4.7655   -8.2868   -1.1681 H   0  0  0  0  0  0  0  0  0  0  0  0
   -4.3178   -7.1505    4.1000 H   0  0  0  0  0  0  0  0  0  0  0  0
   -1.5102   -4.5739    1.9380 H   0  0  0  0  0  0  0  0  0  0  0  0
   -2.0219   -5.0422    3.5528 H   0  0  0  0  0  0  0  0  0  0  0  0
   -4.2546   -4.4996   -2.2170 H   0  0  0  0  0  0  0  0  0  0  0  0
   -3.6732   -3.5563   -1.0588 H   0  0  0  0  0  0  0  0  0  0  0  0
   -6.3263   -3.2954    1.0102 H   0  0  0  0  0  0  0  0  0  0  0  0
   -5.5321   -6.4780   -1.4986 H   0  0  0  0  0  0  0  0  0  0  0  0
   -7.0390   -5.9507   -1.0035 H   0  0  0  0  0  0  0  0  0  0  0  0
   -4.3733   -2.7845    3.1446 H   0  0  0  0  0  0  0  0  0  0  0  0
   -2.7850   -2.6396    2.4390 H   0  0  0  0  0  0  0  0  0  0  0  0
   -7.1434   -9.0613    0.5148 H   0  0  0  0  0  0  0  0  0  0  0  0
   -6.3471   -8.4438    4.7181 H   0  0  0  0  0  0  0  0  0  0  0  0
   -3.4666   -2.4182    0.3961 H   0  0  0  0  0  0  0  0  0  0  0  0
   -5.9322   -4.2961   -3.3128 H   0  0  0  0  0  0  0  0  0  0  0  0
   -5.2290   -5.9059   -3.4393 H   0  0  0  0  0  0  0  0  0  0  0  0
   -6.9421   -5.7541   -3.4712 H   0  0  0  0  0  0  0  0  0  0  0  0
   -7.7912   -9.2902    2.9043 H   0  0  0  0  0  0  0  0  0  0  0  0
   -2.9782   -1.8734   -2.3636 H   0  0  0  0  0  0  0  0  0  0  0  0
   -1.6784   -1.8969   -1.1636 H   0  0  0  0  0  0  0  0  0  0  0  0
   -1.3265   -1.8674   -2.9278 H   0  0  0  0  0  0  0  0  0  0  0  0
  1  2  1  0  0  0  0
  1  3  1  6  0  0  0
  1  4  1  0  0  0  0
  1  5  1  0  0  0  0
  2  6  1  0  0  0  0
  2  7  1  0  0  0  0
  2 26  1  0  0  0  0
  3  8  2  3  0  0  0
  3  9  1  0  0  0  0
  4 10  2  0  0  0  0
  4 11  1  0  0  0  0
  5 12  1  0  0  0  0
  5 27  1  0  0  0  0
  5 28  1  0  0  0  0
  6 13  1  0  0  0  0
  6 14  1  0  0  0  0
  6 15  1  0  0  0  0
  7 16  1  0  0  0  0
  7 12  1  0  0  0  0
  8 17  1  0  0  0  0
  8 13  1  0  0  0  0
  9 10  1  0  0  0  0
  9 29  1  0  0  0  0
 10 18  1  0  0  0  0
 11 19  2  0  0  0  0
 11 30  1  0  0  0  0
 12 31  1  0  0  0  0
 12 32  1  0  0  0  0
 13 33  1  0  0  0  0
 13 34  1  0  0  0  0
 14 20  2  3  0  0  0
 14 35  1  0  0  0  0
 15 21  1  0  0  0  0
 15 36  1  0  0  0  0
 15 37  1  0  0  0  0
 16 20  1  0  0  0  0
 16 38  1  0  0  0  0
 16 39  1  0  0  0  0
 17 22  1  0  0  0  0
 17 23  2  0  0  0  0
 18 24  2  0  0  0  0
 18 40  1  0  0  0  0
 19 24  1  0  0  0  0
 19 41  1  0  0  0  0
 20 42  1  0  0  0  0
 21 43  1  0  0  0  0
 21 44  1  0  0  0  0
 21 45  1  0  0  0  0
 22 25  1  0  0  0  0
 24 46  1  0  0  0  0
 25 47  1  0  0  0  0
 25 48  1  0  0  0  0
 25 49  1  0  0  0  0
M  END
>  <Mol_ID>
2228

>  <Formula>
C21H25ClN2O2

>  <MolWeight>
372.8884

>  <Cat>
S5101

>  <Name>
Tabersonine hydrochloride

>  <Synonyms>
N/A

>  <Target>
Beta Amyloid

>  <Form>
hydrochloride

>  <CAS>
29479-00-3

>  <URL>
http://selleckchem.com/products/tabersonine-hydrochloride.html

$$$$
