S5111 7-Ethylcamptothecin.cdx
 OpenBabel08302520003D

 48 52  0  0  0  0  0  0  0  0999 V2000
    0.6114   -1.2237   -0.9362 N   0  0  0  0  0  0  0  0  0  0  0  0
   -0.4049   -0.3414   -0.8780 C   0  0  0  0  0  0  0  0  0  0  0  0
   -0.2189    0.9172   -0.3024 C   0  0  0  0  0  0  0  0  0  0  0  0
    1.0476    1.4842   -0.1866 C   0  0  0  0  0  0  0  0  0  0  0  0
    2.1449    0.6060   -0.3418 C   0  0  0  0  0  0  0  0  0  0  0  0
    3.4909    1.0146   -0.1584 C   0  0  0  0  0  0  0  0  0  0  0  0
    4.5315    0.0940   -0.0968 C   0  0  0  0  0  0  0  0  0  0  0  0
    4.2383   -1.2545   -0.1971 C   0  0  0  0  0  0  0  0  0  0  0  0
    2.9209   -1.6643   -0.4595 C   0  0  0  0  0  0  0  0  0  0  0  0
    1.8573   -0.7679   -0.6084 C   0  0  0  0  0  0  0  0  0  0  0  0
   -1.4830    1.3140    0.4178 C   0  0  0  0  0  0  0  0  0  0  0  0
   -2.2042    0.0358    0.4098 N   0  0  0  0  0  0  0  0  0  0  0  0
   -2.9526   -0.5711    1.3932 C   0  0  0  0  0  0  0  0  0  0  0  0
   -3.5307   -1.8756    0.9425 C   0  0  0  0  0  0  0  0  0  0  0  0
   -4.0643   -1.6549   -0.2768 C   0  0  0  0  0  0  0  0  0  0  0  0
   -2.8375   -1.4678   -1.2093 C   0  0  0  0  0  0  0  0  0  0  0  0
   -1.8409   -0.6948   -0.6982 C   0  0  0  0  0  0  0  0  0  0  0  0
   -2.9606   -3.3072    0.9738 C   0  0  0  0  0  0  0  0  0  0  0  0
   -5.2288   -2.6337   -0.4473 C   0  0  1  0  0  0  0  0  0  0  0  0
   -4.5221   -3.8469   -1.0091 C   0  0  0  0  0  0  0  0  0  0  0  0
   -3.3965   -4.1661   -0.2287 O   0  0  0  0  0  0  0  0  0  0  0  0
   -4.8369   -4.4630   -2.0352 O   0  0  0  0  0  0  0  0  0  0  0  0
   -3.2851   -0.0664    2.4549 O   0  0  0  0  0  0  0  0  0  0  0  0
   -5.5954   -3.3212    0.8492 O   0  0  0  0  0  0  0  0  0  0  0  0
    1.2011    2.9519    0.1370 C   0  0  0  0  0  0  0  0  0  0  0  0
    1.4150    3.7716   -1.1317 C   0  0  0  0  0  0  0  0  0  0  0  0
   -6.6028   -2.0114   -0.6906 C   0  0  0  0  0  0  0  0  0  0  0  0
   -6.8199   -1.0247   -1.8074 C   0  0  0  0  0  0  0  0  0  0  0  0
    3.7472    2.0644   -0.0292 H   0  0  0  0  0  0  0  0  0  0  0  0
    5.5544    0.4302    0.0649 H   0  0  0  0  0  0  0  0  0  0  0  0
    5.0312   -1.9904   -0.0804 H   0  0  0  0  0  0  0  0  0  0  0  0
    2.7170   -2.7313   -0.5224 H   0  0  0  0  0  0  0  0  0  0  0  0
   -2.0498    2.0294   -0.1911 H   0  0  0  0  0  0  0  0  0  0  0  0
   -1.3467    1.6758    1.4366 H   0  0  0  0  0  0  0  0  0  0  0  0
   -2.6883   -2.1081   -2.0741 H   0  0  0  0  0  0  0  0  0  0  0  0
   -3.2769   -3.8668    1.8559 H   0  0  0  0  0  0  0  0  0  0  0  0
   -1.8666   -3.2971    0.9238 H   0  0  0  0  0  0  0  0  0  0  0  0
   -5.7404   -2.6376    1.5263 H   0  0  0  0  0  0  0  0  0  0  0  0
    0.3108    3.3258    0.6540 H   0  0  0  0  0  0  0  0  0  0  0  0
    2.0275    3.1166    0.8370 H   0  0  0  0  0  0  0  0  0  0  0  0
    0.5736    3.6565   -1.8238 H   0  0  0  0  0  0  0  0  0  0  0  0
    1.5086    4.8347   -0.8878 H   0  0  0  0  0  0  0  0  0  0  0  0
    2.3243    3.4680   -1.6622 H   0  0  0  0  0  0  0  0  0  0  0  0
   -7.3793   -2.7875   -0.7257 H   0  0  0  0  0  0  0  0  0  0  0  0
   -6.8491   -1.4415    0.2269 H   0  0  0  0  0  0  0  0  0  0  0  0
   -6.8605   -1.5274   -2.7731 H   0  0  0  0  0  0  0  0  0  0  0  0
   -7.7885   -0.5282   -1.6447 H   0  0  0  0  0  0  0  0  0  0  0  0
   -6.0601   -0.2402   -1.8173 H   0  0  0  0  0  0  0  0  0  0  0  0
  1  2  2  0  0  0  0
  1 10  1  0  0  0  0
  2  3  1  0  0  0  0
  2 17  1  0  0  0  0
  3  4  2  0  0  0  0
  3 11  1  0  0  0  0
  4  5  1  0  0  0  0
  4 25  1  0  0  0  0
  5  6  1  0  0  0  0
  5 10  2  0  0  0  0
  6  7  2  0  0  0  0
  6 29  1  0  0  0  0
  7  8  1  0  0  0  0
  7 30  1  0  0  0  0
  8  9  2  0  0  0  0
  8 31  1  0  0  0  0
  9 10  1  0  0  0  0
  9 32  1  0  0  0  0
 11 12  1  0  0  0  0
 11 33  1  0  0  0  0
 11 34  1  0  0  0  0
 12 13  1  0  0  0  0
 12 17  1  0  0  0  0
 13 14  1  0  0  0  0
 13 23  2  0  0  0  0
 14 15  2  0  0  0  0
 14 18  1  0  0  0  0
 15 16  1  0  0  0  0
 15 19  1  0  0  0  0
 16 17  2  0  0  0  0
 16 35  1  0  0  0  0
 18 21  1  0  0  0  0
 18 36  1  0  0  0  0
 18 37  1  0  0  0  0
 19 20  1  0  0  0  0
 19 24  1  1  0  0  0
 19 27  1  0  0  0  0
 20 21  1  0  0  0  0
 20 22  2  0  0  0  0
 24 38  1  0  0  0  0
 25 26  1  0  0  0  0
 25 39  1  0  0  0  0
 25 40  1  0  0  0  0
 26 41  1  0  0  0  0
 26 42  1  0  0  0  0
 26 43  1  0  0  0  0
 27 28  1  0  0  0  0
 27 44  1  0  0  0  0
 27 45  1  0  0  0  0
 28 46  1  0  0  0  0
 28 47  1  0  0  0  0
 28 48  1  0  0  0  0
M  END
>  <Mol_ID>
2771

>  <Formula>
C22H20N2O4

>  <MolWeight>
376.4052

>  <Cat>
S5111

>  <Name>
7-Ethylcamptothecin

>  <Synonyms>
N/A

>  <Target>
Topoisomerase

>  <Form>
free base

>  <CAS>
78287-27-1

>  <URL>
http://selleckchem.com/products/7-ethylcamptothecin.html

$$$$
