S5112 alpha-Arbutin.cdx
 OpenBabel08302520003D

 35 36  0  0  0  0  0  0  0  0999 V2000
    1.0260    1.4996   -0.4192 C   0  0  2  0  0  0  0  0  0  0  0  0
    1.3345    0.1472    0.2510 C   0  0  1  0  0  0  0  0  0  0  0  0
    0.1031   -0.7686    0.2131 C   0  0  2  0  0  0  0  0  0  0  0  0
   -0.0849    2.1184    0.2393 O   0  0  0  0  0  0  0  0  0  0  0  0
   -1.1478   -0.0412    0.7447 C   0  0  1  0  0  0  0  0  0  0  0  0
   -1.2907    1.3552    0.1049 C   0  0  1  0  0  0  0  0  0  0  0  0
    0.7985    1.2882   -1.8229 O   0  0  0  0  0  0  0  0  0  0  0  0
    2.4702   -0.4750   -0.3673 O   0  0  0  0  0  0  0  0  0  0  0  0
    0.3795   -1.9578    0.9750 O   0  0  0  0  0  0  0  0  0  0  0  0
    0.6541    2.3891   -2.6250 C   0  0  0  0  0  0  0  0  0  0  0  0
   -2.2865   -0.8772    0.5090 O   0  0  0  0  0  0  0  0  0  0  0  0
    0.2474    4.4648   -4.4450 C   0  0  0  0  0  0  0  0  0  0  0  0
   -2.4276    2.1576    0.7521 C   0  0  0  0  0  0  0  0  0  0  0  0
    0.9812    3.7032   -2.2766 C   0  0  0  0  0  0  0  0  0  0  0  0
    0.1318    2.1275   -3.8913 C   0  0  0  0  0  0  0  0  0  0  0  0
   -0.0789    3.1587   -4.8051 C   0  0  0  0  0  0  0  0  0  0  0  0
    0.7806    4.7427   -3.1924 C   0  0  0  0  0  0  0  0  0  0  0  0
    0.0277    5.4489   -5.3631 O   0  0  0  0  0  0  0  0  0  0  0  0
   -3.6877    1.5620    0.4598 O   0  0  0  0  0  0  0  0  0  0  0  0
    1.9148    2.1281   -0.2881 H   0  0  0  0  0  0  0  0  0  0  0  0
    1.6046    0.3159    1.3004 H   0  0  0  0  0  0  0  0  0  0  0  0
   -0.0783   -1.1221   -0.8090 H   0  0  0  0  0  0  0  0  0  0  0  0
   -1.0561    0.0648    1.8337 H   0  0  0  0  0  0  0  0  0  0  0  0
   -1.5466    1.2369   -0.9558 H   0  0  0  0  0  0  0  0  0  0  0  0
    2.2029   -0.7244   -1.2710 H   0  0  0  0  0  0  0  0  0  0  0  0
   -0.0883   -1.8995    1.8259 H   0  0  0  0  0  0  0  0  0  0  0  0
   -3.0052   -0.3219    0.1409 H   0  0  0  0  0  0  0  0  0  0  0  0
   -2.3021    2.2081    1.8400 H   0  0  0  0  0  0  0  0  0  0  0  0
   -2.4257    3.1866    0.3743 H   0  0  0  0  0  0  0  0  0  0  0  0
    1.3970    3.9556   -1.3084 H   0  0  0  0  0  0  0  0  0  0  0  0
   -0.1258    1.1045   -4.1704 H   0  0  0  0  0  0  0  0  0  0  0  0
   -0.4939    2.9529   -5.7829 H   0  0  0  0  0  0  0  0  0  0  0  0
    1.0467    5.7554   -2.9055 H   0  0  0  0  0  0  0  0  0  0  0  0
    0.3044    6.2965   -4.9812 H   0  0  0  0  0  0  0  0  0  0  0  0
   -4.3671    2.1548    0.8316 H   0  0  0  0  0  0  0  0  0  0  0  0
  1 20  1  1  0  0  0
  1  7  1  0  0  0  0
  2  1  1  0  0  0  0
  2  8  1  0  0  0  0
  2 21  1  1  0  0  0
  3  2  1  0  0  0  0
  3  9  1  0  0  0  0
  3  5  1  0  0  0  0
  3 22  1  6  0  0  0
  4  1  1  0  0  0  0
  5  6  1  0  0  0  0
  5 11  1  0  0  0  0
  5 23  1  1  0  0  0
  6  4  1  0  0  0  0
  6 13  1  0  0  0  0
  6 24  1  6  0  0  0
  8 25  1  0  0  0  0
  9 26  1  0  0  0  0
 10  7  1  0  0  0  0
 11 27  1  0  0  0  0
 12 16  2  0  0  0  0
 13 28  1  0  0  0  0
 13 29  1  0  0  0  0
 14 10  1  0  0  0  0
 14 30  1  0  0  0  0
 15 10  2  0  0  0  0
 15 31  1  0  0  0  0
 16 15  1  0  0  0  0
 16 32  1  0  0  0  0
 17 12  1  0  0  0  0
 17 14  2  0  0  0  0
 17 33  1  0  0  0  0
 18 12  1  0  0  0  0
 18 34  1  0  0  0  0
 19 13  1  0  0  0  0
 19 35  1  0  0  0  0
M  END
>  <Mol_ID>
2772

>  <Formula>
C12H16O7

>  <MolWeight>
272.25124

>  <Cat>
S5112

>  <Name>
alpha-Arbutin

>  <Synonyms>
alpha-Arbutoside, 4-hydroxyphenyl-D-lucopyranoside

>  <Target>
Others

>  <Form>
free base

>  <CAS>
84380-01-8

>  <URL>
http://selleckchem.com/products/alpha-arbutin.html

$$$$
