S5115 Sodium L-ascorbyl-2-phosphate.cdx
 OpenBabel08302521383D

 22 22  0  0  0  0  0  0  0  0999 V2000
   -2.9183   -3.2366    3.6116 C   0  0  0  0  0  0  0  0  0  0  0  0
   -2.6015   -2.0217    3.1166 C   0  0  0  0  0  0  0  0  0  0  0  0
   -2.4860   -4.2696    2.6242 C   0  0  0  0  0  0  0  0  0  0  0  0
   -3.5217   -3.5021    4.8187 O   0  0  0  0  0  0  0  0  0  0  0  0
   -2.0684   -2.2188    1.7295 C   0  0  2  0  0  0  0  0  0  0  0  0
   -2.6609   -0.8025    3.4795 O   0  5  0  0  0  0  0  0  0  0  0  0
   -2.1564   -3.6135    1.4601 O   0  0  0  0  0  0  0  0  0  0  0  0
   -2.2413   -5.4575    2.7322 O   0  0  0  0  0  0  0  0  0  0  0  0
   -4.2565   -4.9084    5.2569 P   0  0  0  0  0  0  0  0  0  0  0  0
   -0.6046   -1.7603    1.5248 C   0  0  2  0  0  0  0  0  0  0  0  0
   -5.0351   -5.3756    4.0256 O   0  0  0  0  0  0  0  0  0  0  0  0
   -3.1336   -5.8412    5.7059 O   0  5  0  0  0  0  0  0  0  0  0  0
   -5.1786   -4.5154    6.4133 O   0  5  0  0  0  0  0  0  0  0  0  0
    0.4061   -2.4270    2.4747 C   0  0  0  0  0  0  0  0  0  0  0  0
   -0.4717   -0.3249    1.6572 O   0  0  0  0  0  0  0  0  0  0  0  0
    1.7498   -2.0976    2.0507 O   0  0  0  0  0  0  0  0  0  0  0  0
   -2.7115   -1.7027    1.0026 H   0  0  0  0  0  0  0  0  0  0  0  0
   -0.3040   -1.9914    0.4969 H   0  0  0  0  0  0  0  0  0  0  0  0
    0.2927   -2.0697    3.5032 H   0  0  0  0  0  0  0  0  0  0  0  0
    0.3258   -3.5164    2.4571 H   0  0  0  0  0  0  0  0  0  0  0  0
   -1.1335   -0.1362    2.3882 H   0  0  0  0  0  0  0  0  0  0  0  0
    1.6385   -1.2735    1.5412 H   0  0  0  0  0  0  0  0  0  0  0  0
  1  2  2  0  0  0  0
  1  3  1  0  0  0  0
  1  4  1  0  0  0  0
  2  5  1  0  0  0  0
  2  6  1  0  0  0  0
  3  7  1  0  0  0  0
  3  8  2  0  0  0  0
  4  9  1  0  0  0  0
  5  7  1  0  0  0  0
  5 17  1  6  0  0  0
  9 11  2  0  0  0  0
  9 12  1  0  0  0  0
  9 13  1  0  0  0  0
 10 15  1  0  0  0  0
 10 18  1  6  0  0  0
 10 14  1  0  0  0  0
 10  5  1  0  0  0  0
 14 16  1  0  0  0  0
 14 19  1  0  0  0  0
 14 20  1  0  0  0  0
 15 21  1  0  0  0  0
 16 22  1  0  0  0  0
M  CHG  3   6  -1  12  -1  13  -1
M  END
>  <Mol_ID>
7808

>  <Formula>
C6H6Na3O9P

>  <MolWeight>
322.049511

>  <Cat>
S5115

>  <Name>
Sodium L-ascorbyl-2-phosphate

>  <Synonyms>
Sodium ascorbyl monophosphate, Sodium ascorbyl phosphate

>  <Target>
c-Met

>  <Form>
sodium salt

>  <CAS>
66170-10-3

>  <URL>
http://selleckchem.com/products/sodium-l-ascorbyl-2-phosphate.html

$$$$
