S5127 Spiculisporic Acid.cdx
 OpenBabel08302520003D

 51 51  0  0  0  0  0  0  0  0999 V2000
    1.9462    1.4807   -2.6276 C   0  0  3  0  0  0  0  0  0  0  0  0
    3.0704    0.8662   -1.7563 C   0  0  3  0  0  0  0  0  0  0  0  0
    0.5415    1.0733   -2.1927 C   0  0  0  0  0  0  0  0  0  0  0  0
    1.9456    2.9073   -2.4228 O   0  0  0  0  0  0  0  0  0  0  0  0
    2.0847    1.2223   -4.1381 C   0  0  0  0  0  0  0  0  0  0  0  0
    3.1329   -0.6656   -1.8324 C   0  0  0  0  0  0  0  0  0  0  0  0
    4.3928    1.4945   -2.1566 C   0  0  0  0  0  0  0  0  0  0  0  0
    0.2198    2.0500   -1.0869 C   0  0  0  0  0  0  0  0  0  0  0  0
    1.0159    3.2490   -1.4871 C   0  0  0  0  0  0  0  0  0  0  0  0
    2.2242    2.3583   -4.8639 O   0  0  0  0  0  0  0  0  0  0  0  0
    1.9833    0.1213   -4.6563 O   0  0  0  0  0  0  0  0  0  0  0  0
    4.1843   -1.3118   -0.9242 C   0  0  0  0  0  0  0  0  0  0  0  0
    4.7315    2.5655   -1.4054 O   0  0  0  0  0  0  0  0  0  0  0  0
    5.0842    1.1062   -3.0827 O   0  0  0  0  0  0  0  0  0  0  0  0
    0.9273    4.3644   -1.0089 O   0  0  0  0  0  0  0  0  0  0  0  0
    4.1047   -2.8428   -1.0048 C   0  0  0  0  0  0  0  0  0  0  0  0
    4.3175   -3.3960   -2.4210 C   0  0  0  0  0  0  0  0  0  0  0  0
    5.6807   -3.0314   -3.0226 C   0  0  0  0  0  0  0  0  0  0  0  0
    6.8650   -3.5673   -2.2150 C   0  0  0  0  0  0  0  0  0  0  0  0
    6.8485   -5.0930   -2.1508 C   0  0  0  0  0  0  0  0  0  0  0  0
    7.9895   -5.6388   -1.3053 C   0  0  0  0  0  0  0  0  0  0  0  0
    7.9398   -7.1648   -1.2757 C   0  0  0  0  0  0  0  0  0  0  0  0
    9.0691   -7.7297   -0.4355 C   0  0  0  0  0  0  0  0  0  0  0  0
    2.9010    1.1227   -0.7036 H   0  0  0  0  0  0  0  0  0  0  0  0
    0.4435    0.0346   -1.8683 H   0  0  0  0  0  0  0  0  0  0  0  0
   -0.1758    1.2061   -3.0138 H   0  0  0  0  0  0  0  0  0  0  0  0
    2.1646   -1.0908   -1.5473 H   0  0  0  0  0  0  0  0  0  0  0  0
    3.3197   -0.9617   -2.8672 H   0  0  0  0  0  0  0  0  0  0  0  0
    0.5763    1.6909   -0.1191 H   0  0  0  0  0  0  0  0  0  0  0  0
   -0.8448    2.2792   -1.0508 H   0  0  0  0  0  0  0  0  0  0  0  0
    2.2757    3.1578   -4.2959 H   0  0  0  0  0  0  0  0  0  0  0  0
    5.1909   -0.9745   -1.1942 H   0  0  0  0  0  0  0  0  0  0  0  0
    4.0248   -1.0026    0.1150 H   0  0  0  0  0  0  0  0  0  0  0  0
    4.1053    2.8366   -0.7145 H   0  0  0  0  0  0  0  0  0  0  0  0
    4.8356   -3.2791   -0.3143 H   0  0  0  0  0  0  0  0  0  0  0  0
    3.1231   -3.1730   -0.6434 H   0  0  0  0  0  0  0  0  0  0  0  0
    4.1854   -4.4828   -2.4028 H   0  0  0  0  0  0  0  0  0  0  0  0
    3.5269   -3.0421   -3.0913 H   0  0  0  0  0  0  0  0  0  0  0  0
    5.7334   -3.4214   -4.0460 H   0  0  0  0  0  0  0  0  0  0  0  0
    5.7739   -1.9431   -3.1143 H   0  0  0  0  0  0  0  0  0  0  0  0
    7.7970   -3.2273   -2.6818 H   0  0  0  0  0  0  0  0  0  0  0  0
    6.8611   -3.1453   -1.2034 H   0  0  0  0  0  0  0  0  0  0  0  0
    5.9099   -5.4492   -1.7141 H   0  0  0  0  0  0  0  0  0  0  0  0
    6.9050   -5.4970   -3.1687 H   0  0  0  0  0  0  0  0  0  0  0  0
    8.9492   -5.2996   -1.7109 H   0  0  0  0  0  0  0  0  0  0  0  0
    7.9071   -5.2473   -0.2839 H   0  0  0  0  0  0  0  0  0  0  0  0
    6.9794   -7.5006   -0.8657 H   0  0  0  0  0  0  0  0  0  0  0  0
    8.0101   -7.5602   -2.2959 H   0  0  0  0  0  0  0  0  0  0  0  0
    9.0010   -7.3733    0.5971 H   0  0  0  0  0  0  0  0  0  0  0  0
    9.0234   -8.8224   -0.4249 H   0  0  0  0  0  0  0  0  0  0  0  0
   10.0407   -7.4302   -0.8405 H   0  0  0  0  0  0  0  0  0  0  0  0
  1  2  1  0  0  0  0
  1  3  1  0  0  0  0
  1  4  1  0  0  0  0
  1  5  1  0  0  0  0
  2  6  1  0  0  0  0
  2  7  1  0  0  0  0
  2 24  1  0  0  0  0
  3  8  1  0  0  0  0
  3 25  1  0  0  0  0
  3 26  1  0  0  0  0
  4  9  1  0  0  0  0
  5 10  1  0  0  0  0
  5 11  2  0  0  0  0
  6 12  1  0  0  0  0
  6 27  1  0  0  0  0
  6 28  1  0  0  0  0
  7 13  1  0  0  0  0
  7 14  2  0  0  0  0
  8  9  1  0  0  0  0
  8 29  1  0  0  0  0
  8 30  1  0  0  0  0
  9 15  2  0  0  0  0
 10 31  1  0  0  0  0
 12 16  1  0  0  0  0
 12 32  1  0  0  0  0
 12 33  1  0  0  0  0
 13 34  1  0  0  0  0
 16 17  1  0  0  0  0
 16 35  1  0  0  0  0
 16 36  1  0  0  0  0
 17 18  1  0  0  0  0
 17 37  1  0  0  0  0
 17 38  1  0  0  0  0
 18 19  1  0  0  0  0
 18 39  1  0  0  0  0
 18 40  1  0  0  0  0
 19 20  1  0  0  0  0
 19 41  1  0  0  0  0
 19 42  1  0  0  0  0
 20 21  1  0  0  0  0
 20 43  1  0  0  0  0
 20 44  1  0  0  0  0
 21 22  1  0  0  0  0
 21 45  1  0  0  0  0
 21 46  1  0  0  0  0
 22 23  1  0  0  0  0
 22 47  1  0  0  0  0
 22 48  1  0  0  0  0
 23 49  1  0  0  0  0
 23 50  1  0  0  0  0
 23 51  1  0  0  0  0
M  END
>  <Mol_ID>
2783

>  <Formula>
C17H28O6

>  <MolWeight>
328.40062

>  <Cat>
S5127

>  <Name>
Spiculisporic Acid

>  <Synonyms>
4,5-dicarboxy-4-pentadecanolide

>  <Target>
Others

>  <Form>
free base

>  <CAS>
469-77-2

>  <URL>
http://selleckchem.com/products/spiculisporic-acid.html

$$$$
