S5120 Elemicin.cdx
 OpenBabel08302519563D

 31 31  0  0  0  0  0  0  0  0999 V2000
    1.3954   -0.3790   -0.1006 C   0  0  0  0  0  0  0  0  0  0  0  0
    0.4367   -1.4070    0.0617 C   0  0  0  0  0  0  0  0  0  0  0  0
    0.9656    0.9566   -0.1842 C   0  0  0  0  0  0  0  0  0  0  0  0
    2.7415   -0.6506   -0.0749 O   0  0  0  0  0  0  0  0  0  0  0  0
   -0.9301   -1.1042   -0.0043 C   0  0  0  0  0  0  0  0  0  0  0  0
    0.9071   -2.6800    0.2874 O   0  0  0  0  0  0  0  0  0  0  0  0
   -0.4116    1.2337   -0.1933 C   0  0  0  0  0  0  0  0  0  0  0  0
    1.7074    2.1056   -0.2704 O   0  0  0  0  0  0  0  0  0  0  0  0
    3.1730   -1.6287   -1.0231 C   0  0  0  0  0  0  0  0  0  0  0  0
   -1.3679    0.2157   -0.1420 C   0  0  0  0  0  0  0  0  0  0  0  0
   -0.0209   -3.6185    0.8206 C   0  0  0  0  0  0  0  0  0  0  0  0
    3.1225    2.0241   -0.2562 C   0  0  0  0  0  0  0  0  0  0  0  0
   -2.8444    0.5336   -0.2009 C   0  0  0  0  0  0  0  0  0  0  0  0
   -3.4716    0.6160    1.1607 C   0  0  0  0  0  0  0  0  0  0  0  0
   -4.4748   -0.1637    1.5799 C   0  0  0  0  0  0  0  0  0  0  0  0
   -1.6817   -1.8850    0.0540 H   0  0  0  0  0  0  0  0  0  0  0  0
   -0.7323    2.2720   -0.2507 H   0  0  0  0  0  0  0  0  0  0  0  0
    2.3720   -2.1188   -1.5866 H   0  0  0  0  0  0  0  0  0  0  0  0
    3.8326   -1.1398   -1.7470 H   0  0  0  0  0  0  0  0  0  0  0  0
    3.7567   -2.3869   -0.4916 H   0  0  0  0  0  0  0  0  0  0  0  0
   -0.5704   -3.2078    1.6751 H   0  0  0  0  0  0  0  0  0  0  0  0
   -0.7070   -3.9650    0.0407 H   0  0  0  0  0  0  0  0  0  0  0  0
    0.5436   -4.4843    1.1782 H   0  0  0  0  0  0  0  0  0  0  0  0
    3.4908    1.6241    0.6930 H   0  0  0  0  0  0  0  0  0  0  0  0
    3.4978    1.4632   -1.1167 H   0  0  0  0  0  0  0  0  0  0  0  0
    3.5092    3.0449   -0.3486 H   0  0  0  0  0  0  0  0  0  0  0  0
   -2.9947    1.4864   -0.7219 H   0  0  0  0  0  0  0  0  0  0  0  0
   -3.3415   -0.2249   -0.8189 H   0  0  0  0  0  0  0  0  0  0  0  0
   -3.0830    1.3813    1.8312 H   0  0  0  0  0  0  0  0  0  0  0  0
   -4.8924   -0.0433    2.5760 H   0  0  0  0  0  0  0  0  0  0  0  0
   -4.9023   -0.9371    0.9488 H   0  0  0  0  0  0  0  0  0  0  0  0
  1  2  2  0  0  0  0
  1  3  1  0  0  0  0
  1  4  1  0  0  0  0
  2  5  1  0  0  0  0
  2  6  1  0  0  0  0
  3  7  2  0  0  0  0
  3  8  1  0  0  0  0
  4  9  1  0  0  0  0
  5 10  2  0  0  0  0
  5 16  1  0  0  0  0
  6 11  1  0  0  0  0
  7 10  1  0  0  0  0
  7 17  1  0  0  0  0
  8 12  1  0  0  0  0
  9 18  1  0  0  0  0
  9 19  1  0  0  0  0
  9 20  1  0  0  0  0
 10 13  1  0  0  0  0
 11 21  1  0  0  0  0
 11 22  1  0  0  0  0
 11 23  1  0  0  0  0
 12 24  1  0  0  0  0
 12 25  1  0  0  0  0
 12 26  1  0  0  0  0
 13 14  1  0  0  0  0
 13 27  1  0  0  0  0
 13 28  1  0  0  0  0
 14 15  2  0  0  0  0
 14 29  1  0  0  0  0
 15 30  1  0  0  0  0
 15 31  1  0  0  0  0
M  END
>  <Mol_ID>
2219

>  <Formula>
C12H16O3

>  <MolWeight>
208.25364

>  <Cat>
S5120

>  <Name>
Elemicin

>  <Synonyms>
3,4,5-trimethoxyallylbenzene

>  <Target>
SCD

>  <Form>
free base

>  <CAS>
487-11-6

>  <URL>
http://selleckchem.com/products/elemicin.html

$$$$
