S5126 Aleuritic Acid.cdx
 OpenBabel08302520003D

 53 52  0  0  0  0  0  0  0  0999 V2000
    1.0827   -0.3785   -0.1848 C   0  0  1  0  0  0  0  0  0  0  0  0
    0.6239   -1.0408    1.1347 C   0  0  2  0  0  0  0  0  0  0  0  0
    0.3086   -0.8655   -1.4175 C   0  0  0  0  0  0  0  0  0  0  0  0
    0.8851    1.0361   -0.0562 O   0  0  0  0  0  0  0  0  0  0  0  0
    0.6854   -2.5726    1.1354 C   0  0  0  0  0  0  0  0  0  0  0  0
   -0.7296   -0.6313    1.4008 O   0  0  0  0  0  0  0  0  0  0  0  0
    0.8731   -0.2817   -2.7170 C   0  0  0  0  0  0  0  0  0  0  0  0
    2.0728   -3.1472    0.8371 C   0  0  0  0  0  0  0  0  0  0  0  0
    0.1272   -0.7701   -3.9644 C   0  0  0  0  0  0  0  0  0  0  0  0
    3.1377   -2.8044    1.8845 C   0  0  0  0  0  0  0  0  0  0  0  0
   -1.3680   -0.4353   -4.0023 C   0  0  0  0  0  0  0  0  0  0  0  0
    2.8194   -3.2844    3.3047 C   0  0  0  0  0  0  0  0  0  0  0  0
   -1.6483    1.0673   -3.9070 C   0  0  0  0  0  0  0  0  0  0  0  0
    2.6605   -4.8060    3.3959 C   0  0  0  0  0  0  0  0  0  0  0  0
   -3.1374    1.4154   -3.9614 C   0  0  0  0  0  0  0  0  0  0  0  0
    2.3169   -5.2719    4.8046 C   0  0  0  0  0  0  0  0  0  0  0  0
   -3.9247    0.8628   -2.7730 C   0  0  0  0  0  0  0  0  0  0  0  0
    3.3423   -4.9218    5.7202 O   0  0  0  0  0  0  0  0  0  0  0  0
   -5.3721    1.2925   -2.8020 C   0  0  0  0  0  0  0  0  0  0  0  0
   -6.0704    0.7930   -1.7524 O   0  0  0  0  0  0  0  0  0  0  0  0
   -5.8900    1.9990   -3.6519 O   0  0  0  0  0  0  0  0  0  0  0  0
    2.1560   -0.5393   -0.3289 H   0  0  0  0  0  0  0  0  0  0  0  0
    1.2250   -0.6319    1.9555 H   0  0  0  0  0  0  0  0  0  0  0  0
    0.3510   -1.9566   -1.4937 H   0  0  0  0  0  0  0  0  0  0  0  0
   -0.7434   -0.5791   -1.3110 H   0  0  0  0  0  0  0  0  0  0  0  0
   -0.0143    1.1323    0.3150 H   0  0  0  0  0  0  0  0  0  0  0  0
    0.3137   -2.9488    2.0961 H   0  0  0  0  0  0  0  0  0  0  0  0
   -0.0320   -2.9717    0.4076 H   0  0  0  0  0  0  0  0  0  0  0  0
   -0.9017   -0.8382    2.3377 H   0  0  0  0  0  0  0  0  0  0  0  0
    0.8670    0.8126   -2.6797 H   0  0  0  0  0  0  0  0  0  0  0  0
    1.9254   -0.5777   -2.8108 H   0  0  0  0  0  0  0  0  0  0  0  0
    1.9905   -4.2349    0.7355 H   0  0  0  0  0  0  0  0  0  0  0  0
    2.4204   -2.7981   -0.1423 H   0  0  0  0  0  0  0  0  0  0  0  0
    0.6120   -0.3425   -4.8504 H   0  0  0  0  0  0  0  0  0  0  0  0
    0.2407   -1.8588   -4.0438 H   0  0  0  0  0  0  0  0  0  0  0  0
    4.0922   -3.2415    1.5664 H   0  0  0  0  0  0  0  0  0  0  0  0
    3.2961   -1.7197    1.9064 H   0  0  0  0  0  0  0  0  0  0  0  0
   -1.7869   -0.8208   -4.9401 H   0  0  0  0  0  0  0  0  0  0  0  0
   -1.8759   -0.9770   -3.1979 H   0  0  0  0  0  0  0  0  0  0  0  0
    3.6346   -2.9610    3.9635 H   0  0  0  0  0  0  0  0  0  0  0  0
    1.9142   -2.7901    3.6758 H   0  0  0  0  0  0  0  0  0  0  0  0
   -1.2325    1.4779   -2.9805 H   0  0  0  0  0  0  0  0  0  0  0  0
   -1.1400    1.5755   -4.7361 H   0  0  0  0  0  0  0  0  0  0  0  0
    1.8668   -5.1500    2.7253 H   0  0  0  0  0  0  0  0  0  0  0  0
    3.5973   -5.2752    3.0724 H   0  0  0  0  0  0  0  0  0  0  0  0
   -3.2323    2.5088   -3.9781 H   0  0  0  0  0  0  0  0  0  0  0  0
   -3.5706    1.0530   -4.9014 H   0  0  0  0  0  0  0  0  0  0  0  0
    1.3814   -4.8169    5.1450 H   0  0  0  0  0  0  0  0  0  0  0  0
    2.1904   -6.3588    4.8251 H   0  0  0  0  0  0  0  0  0  0  0  0
   -3.9086   -0.2316   -2.7847 H   0  0  0  0  0  0  0  0  0  0  0  0
   -3.4810    1.2193   -1.8364 H   0  0  0  0  0  0  0  0  0  0  0  0
    4.1548   -5.3764    5.4390 H   0  0  0  0  0  0  0  0  0  0  0  0
   -5.5317    0.2433   -1.1513 H   0  0  0  0  0  0  0  0  0  0  0  0
  1  4  1  0  0  0  0
  1 22  1  6  0  0  0
  1  3  1  0  0  0  0
  1  2  1  0  0  0  0
  2 23  1  1  0  0  0
  2  6  1  0  0  0  0
  2  5  1  0  0  0  0
  3  7  1  0  0  0  0
  3 24  1  0  0  0  0
  3 25  1  0  0  0  0
  4 26  1  0  0  0  0
  5  8  1  0  0  0  0
  5 27  1  0  0  0  0
  5 28  1  0  0  0  0
  6 29  1  0  0  0  0
  7  9  1  0  0  0  0
  7 30  1  0  0  0  0
  7 31  1  0  0  0  0
  8 10  1  0  0  0  0
  8 32  1  0  0  0  0
  8 33  1  0  0  0  0
  9 11  1  0  0  0  0
  9 34  1  0  0  0  0
  9 35  1  0  0  0  0
 10 12  1  0  0  0  0
 10 36  1  0  0  0  0
 10 37  1  0  0  0  0
 11 13  1  0  0  0  0
 11 38  1  0  0  0  0
 11 39  1  0  0  0  0
 12 14  1  0  0  0  0
 12 40  1  0  0  0  0
 12 41  1  0  0  0  0
 13 15  1  0  0  0  0
 13 42  1  0  0  0  0
 13 43  1  0  0  0  0
 14 16  1  0  0  0  0
 14 44  1  0  0  0  0
 14 45  1  0  0  0  0
 15 17  1  0  0  0  0
 15 46  1  0  0  0  0
 15 47  1  0  0  0  0
 16 18  1  0  0  0  0
 16 48  1  0  0  0  0
 16 49  1  0  0  0  0
 17 19  1  0  0  0  0
 17 50  1  0  0  0  0
 17 51  1  0  0  0  0
 18 52  1  0  0  0  0
 19 20  1  0  0  0  0
 19 21  2  0  0  0  0
 20 53  1  0  0  0  0
M  END
>  <Mol_ID>
2782

>  <Formula>
C16H32O5

>  <MolWeight>
304.42228

>  <Cat>
S5126

>  <Name>
Aleuritic Acid

>  <Synonyms>
Aleuritolic acid, 9,10,16-trihydroxy-palmitic acid

>  <Target>
Others

>  <Form>
free base

>  <CAS>
533-87-9

>  <URL>
http://selleckchem.com/products/aleuritic-acid.html

$$$$
