S5128 Orsellinic acid ethyl ester.cdx
 OpenBabel08302520003D

 26 26  0  0  0  0  0  0  0  0999 V2000
    0.7563   -1.2287    0.2211 C   0  0  0  0  0  0  0  0  0  0  0  0
   -0.6410   -1.3784    0.0358 C   0  0  0  0  0  0  0  0  0  0  0  0
    1.2796    0.0729    0.3857 C   0  0  0  0  0  0  0  0  0  0  0  0
    1.6719   -2.4007    0.0929 C   0  0  0  0  0  0  0  0  0  0  0  0
   -1.4520   -0.2257   -0.0358 C   0  0  0  0  0  0  0  0  0  0  0  0
   -1.3655   -2.6962   -0.0556 C   0  0  0  0  0  0  0  0  0  0  0  0
    0.4535    1.2029    0.3383 C   0  0  0  0  0  0  0  0  0  0  0  0
    2.6252    0.2742    0.5556 O   0  0  0  0  0  0  0  0  0  0  0  0
    2.7389   -2.3270    0.9250 O   0  0  0  0  0  0  0  0  0  0  0  0
    1.4732   -3.3070   -0.7070 O   0  0  0  0  0  0  0  0  0  0  0  0
   -0.9036    1.0408    0.1014 C   0  0  0  0  0  0  0  0  0  0  0  0
    3.7956   -3.2639    0.6506 C   0  0  0  0  0  0  0  0  0  0  0  0
   -1.7446    2.1062   -0.0124 O   0  0  0  0  0  0  0  0  0  0  0  0
    3.6619   -4.4858    1.5374 C   0  0  0  0  0  0  0  0  0  0  0  0
   -2.5217   -0.3219   -0.2165 H   0  0  0  0  0  0  0  0  0  0  0  0
   -2.0152   -2.8065    0.8203 H   0  0  0  0  0  0  0  0  0  0  0  0
   -1.9901   -2.7203   -0.9558 H   0  0  0  0  0  0  0  0  0  0  0  0
   -0.7197   -3.5726   -0.0802 H   0  0  0  0  0  0  0  0  0  0  0  0
    0.8688    2.1970    0.4604 H   0  0  0  0  0  0  0  0  0  0  0  0
    2.8061    1.2164    0.7052 H   0  0  0  0  0  0  0  0  0  0  0  0
    3.8153   -3.5498   -0.4088 H   0  0  0  0  0  0  0  0  0  0  0  0
    4.7474   -2.7612    0.8528 H   0  0  0  0  0  0  0  0  0  0  0  0
   -1.2300    2.9282    0.0328 H   0  0  0  0  0  0  0  0  0  0  0  0
    2.6427   -4.8822    1.5172 H   0  0  0  0  0  0  0  0  0  0  0  0
    4.3562   -5.2708    1.2220 H   0  0  0  0  0  0  0  0  0  0  0  0
    3.8877   -4.2251    2.5764 H   0  0  0  0  0  0  0  0  0  0  0  0
  1  2  2  0  0  0  0
  1  3  1  0  0  0  0
  1  4  1  0  0  0  0
  2  5  1  0  0  0  0
  2  6  1  0  0  0  0
  3  7  2  0  0  0  0
  3  8  1  0  0  0  0
  4  9  1  0  0  0  0
  4 10  2  0  0  0  0
  5 11  2  0  0  0  0
  5 15  1  0  0  0  0
  6 16  1  0  0  0  0
  6 17  1  0  0  0  0
  6 18  1  0  0  0  0
  7 11  1  0  0  0  0
  7 19  1  0  0  0  0
  8 20  1  0  0  0  0
  9 12  1  0  0  0  0
 11 13  1  0  0  0  0
 12 14  1  0  0  0  0
 12 21  1  0  0  0  0
 12 22  1  0  0  0  0
 13 23  1  0  0  0  0
 14 24  1  0  0  0  0
 14 25  1  0  0  0  0
 14 26  1  0  0  0  0
M  END
>  <Mol_ID>
2760

>  <Formula>
C10H12O4

>  <MolWeight>
196.19988

>  <Cat>
S5128

>  <Name>
Orsellinic acid ethyl ester

>  <Synonyms>
Ethyl Orsellinate

>  <Target>
Others

>  <Form>
free base

>  <CAS>
2524-37-0

>  <URL>
http://selleckchem.com/products/orsellinic-acid-ethyl-ester.html

$$$$
