S5137 O-Phospho-L-serine.cdx
 OpenBabel08302521383D

 19 18  0  0  0  0  0  0  0  0999 V2000
    1.7263   -2.2422    0.3984 P   0  0  0  0  0  0  0  0  0  0  0  0
    0.6375   -1.5787   -0.5757 O   0  0  0  0  0  0  0  0  0  0  0  0
    0.8736   -2.7121    1.6613 O   0  0  0  0  0  0  0  0  0  0  0  0
    2.5339   -1.0212    1.0198 O   0  0  0  0  0  0  0  0  0  0  0  0
    2.5429   -3.3576   -0.1491 O   0  0  0  0  0  0  0  0  0  0  0  0
    0.9701   -1.6151   -1.9637 C   0  0  0  0  0  0  0  0  0  0  0  0
   -0.1015   -0.8866   -2.7728 C   0  0  1  0  0  0  0  0  0  0  0  0
   -0.0571    0.6225   -2.4793 C   0  0  0  0  0  0  0  0  0  0  0  0
    0.0997   -1.1359   -4.2190 N   0  0  0  0  0  0  0  0  0  0  0  0
   -0.2744    0.9298   -1.1787 O   0  0  0  0  0  0  0  0  0  0  0  0
    0.1208    1.4804   -3.3301 O   0  0  0  0  0  0  0  0  0  0  0  0
    1.0625   -3.6550    1.8395 H   0  0  0  0  0  0  0  0  0  0  0  0
    1.9814   -0.4816    1.6129 H   0  0  0  0  0  0  0  0  0  0  0  0
    1.9600   -1.1686   -2.1117 H   0  0  0  0  0  0  0  0  0  0  0  0
    1.0062   -2.6678   -2.2659 H   0  0  0  0  0  0  0  0  0  0  0  0
   -1.1014   -1.2396   -2.4959 H   0  0  0  0  0  0  0  0  0  0  0  0
   -0.7149   -0.7791   -4.7234 H   0  0  0  0  0  0  0  0  0  0  0  0
    0.8580   -0.5227   -4.5396 H   0  0  0  0  0  0  0  0  0  0  0  0
   -0.3673    0.1279   -0.6217 H   0  0  0  0  0  0  0  0  0  0  0  0
  1  2  1  0  0  0  0
  1  3  1  0  0  0  0
  1  4  1  0  0  0  0
  1  5  2  0  0  0  0
  2  6  1  0  0  0  0
  3 12  1  0  0  0  0
  4 13  1  0  0  0  0
  6  7  1  0  0  0  0
  6 14  1  0  0  0  0
  6 15  1  0  0  0  0
  7  8  1  0  0  0  0
  7  9  1  0  0  0  0
  7 16  1  1  0  0  0
  8 10  1  0  0  0  0
  8 11  2  0  0  0  0
  9 17  1  0  0  0  0
  9 18  1  0  0  0  0
 10 19  1  0  0  0  0
M  END
>  <Mol_ID>
7825

>  <Formula>
C3H8NO6P

>  <MolWeight>
185.072481

>  <Cat>
S5137

>  <Name>
O-Phospho-L-serine

>  <Synonyms>
Dexfosfoserine

>  <Target>
GluR

>  <Form>
free base

>  <CAS>
407-41-0

>  <URL>
http://selleckchem.com/products/o-phospho-l-serine.html

$$$$
