S5133 Sodium erythorbate.cdx
 OpenBabel08302520003D

 20 20  0  0  0  0  0  0  0  0999 V2000
    0.0791   -0.7237    0.1193 C   0  0  0  0  0  0  0  0  0  0  0  0
    1.1435    0.0686   -0.0009 C   0  0  0  0  0  0  0  0  0  0  0  0
    0.7556    1.5024   -0.0158 C   0  0  2  0  0  0  0  0  0  0  0  0
   -0.6773    1.4629    0.1190 O   0  0  0  0  0  0  0  0  0  0  0  0
   -1.1007    0.1661    0.1937 C   0  0  0  0  0  0  0  0  0  0  0  0
   -2.2640   -0.1807    0.2762 O   0  0  0  0  0  0  0  0  0  0  0  0
    0.0134   -2.0849    0.1455 O   0  0  0  0  0  0  0  0  0  0  0  0
    2.4605   -0.2831   -0.0859 O   0  0  0  0  0  0  0  0  0  0  0  0
    1.1294    2.2783   -1.2925 C   0  0  1  0  0  0  0  0  0  0  0  0
    0.4960    1.7132   -2.5703 C   0  0  0  0  0  0  0  0  0  0  0  0
    0.7041    3.6539   -1.1765 O   0  0  0  0  0  0  0  0  0  0  0  0
    0.8834    2.5056   -3.6927 O   0  0  0  0  0  0  0  0  0  0  0  0
    1.1465    2.0224    0.8666 H   0  0  0  0  0  0  0  0  0  0  0  0
    0.8706   -2.4621   -0.0998 H   0  0  0  0  0  0  0  0  0  0  0  0
    2.5755   -1.2263    0.1214 H   0  0  0  0  0  0  0  0  0  0  0  0
    2.2190    2.3093   -1.4078 H   0  0  0  0  0  0  0  0  0  0  0  0
    0.8120    0.6838   -2.7583 H   0  0  0  0  0  0  0  0  0  0  0  0
   -0.5969    1.7462   -2.5200 H   0  0  0  0  0  0  0  0  0  0  0  0
   -0.2555    3.6435   -0.9947 H   0  0  0  0  0  0  0  0  0  0  0  0
    0.7966    3.4368   -3.4082 H   0  0  0  0  0  0  0  0  0  0  0  0
  1  2  2  0  0  0  0
  1  7  1  0  0  0  0
  2  3  1  0  0  0  0
  2  8  1  0  0  0  0
  3  4  1  0  0  0  0
  3 13  1  1  0  0  0
  3  9  1  0  0  0  0
  4  5  1  0  0  0  0
  5  1  1  0  0  0  0
  5  6  2  0  0  0  0
  7 14  1  0  0  0  0
  8 15  1  0  0  0  0
  9 10  1  0  0  0  0
  9 11  1  0  0  0  0
  9 16  1  6  0  0  0
 10 12  1  0  0  0  0
 10 17  1  0  0  0  0
 10 18  1  0  0  0  0
 11 19  1  0  0  0  0
 12 20  1  0  0  0  0
M  END
>  <Mol_ID>
2762

>  <Formula>
C6H7NaO6

>  <MolWeight>
198.10595

>  <Cat>
S5133

>  <Name>
Sodium erythorbate

>  <Synonyms>
D-Isoascorbate, Erythorbic acid sodium salt, Araboascorbic acid monosodium salt, Erbit N, Eribate N, Isoascorbate C sodium, Sodium isoascorbate

>  <Target>
Others

>  <Form>
sodium salt

>  <CAS>
6381-77-7

>  <URL>
http://selleckchem.com/products/sodium-erythorbate.html

$$$$
