S5138 Citral.cdx
 OpenBabel08302519563D

 27 26  0  0  0  0  0  0  0  0999 V2000
    9.6575    0.4498    2.7754 O   0  0  0  0  0  0  0  0  0  0  0  0
    8.8951   -0.2702    2.1473 C   0  0  0  0  0  0  0  0  0  0  0  0
    7.4597   -0.3397    2.4955 C   0  0  0  0  0  0  0  0  0  0  0  0
    6.4926   -1.0471    1.8783 C   0  0  0  0  0  0  0  0  0  0  0  0
    6.6897   -1.8640    0.6250 C   0  0  0  0  0  0  0  0  0  0  0  0
    5.0602   -1.0851    2.4127 C   0  0  0  0  0  0  0  0  0  0  0  0
    4.7868   -0.2472    3.6780 C   0  0  0  0  0  0  0  0  0  0  0  0
    3.3584   -0.3562    4.1279 C   0  0  0  0  0  0  0  0  0  0  0  0
    2.9325   -0.7696    5.3367 C   0  0  0  0  0  0  0  0  0  0  0  0
    1.4626   -0.9052    5.6235 C   0  0  0  0  0  0  0  0  0  0  0  0
    3.8528   -1.1344    6.4699 C   0  0  0  0  0  0  0  0  0  0  0  0
    9.2433   -0.9120    1.3254 H   0  0  0  0  0  0  0  0  0  0  0  0
    7.2502    0.2637    3.3744 H   0  0  0  0  0  0  0  0  0  0  0  0
    6.3885   -2.9030    0.7918 H   0  0  0  0  0  0  0  0  0  0  0  0
    6.0795   -1.4568   -0.1892 H   0  0  0  0  0  0  0  0  0  0  0  0
    7.7223   -1.8802    0.2714 H   0  0  0  0  0  0  0  0  0  0  0  0
    4.3802   -0.7593    1.6138 H   0  0  0  0  0  0  0  0  0  0  0  0
    4.8104   -2.1328    2.6282 H   0  0  0  0  0  0  0  0  0  0  0  0
    5.4658   -0.5676    4.4759 H   0  0  0  0  0  0  0  0  0  0  0  0
    4.9978    0.8092    3.4744 H   0  0  0  0  0  0  0  0  0  0  0  0
    2.6207   -0.0599    3.3834 H   0  0  0  0  0  0  0  0  0  0  0  0
    1.2406   -1.9287    5.9422 H   0  0  0  0  0  0  0  0  0  0  0  0
    1.1601   -0.2144    6.4158 H   0  0  0  0  0  0  0  0  0  0  0  0
    0.8512   -0.6981    4.7391 H   0  0  0  0  0  0  0  0  0  0  0  0
    4.4798   -1.9911    6.2040 H   0  0  0  0  0  0  0  0  0  0  0  0
    4.4936   -0.2879    6.7401 H   0  0  0  0  0  0  0  0  0  0  0  0
    3.2880   -1.4079    7.3679 H   0  0  0  0  0  0  0  0  0  0  0  0
  1  2  2  0  0  0  0
  2  3  1  0  0  0  0
  2 12  1  0  0  0  0
  3  4  2  0  0  0  0
  3 13  1  0  0  0  0
  4  5  1  0  0  0  0
  4  6  1  0  0  0  0
  5 14  1  0  0  0  0
  5 15  1  0  0  0  0
  5 16  1  0  0  0  0
  6  7  1  0  0  0  0
  6 17  1  0  0  0  0
  6 18  1  0  0  0  0
  7  8  1  0  0  0  0
  7 19  1  0  0  0  0
  7 20  1  0  0  0  0
  8  9  2  0  0  0  0
  8 21  1  0  0  0  0
  9 10  1  0  0  0  0
  9 11  1  0  0  0  0
 10 22  1  0  0  0  0
 10 23  1  0  0  0  0
 10 24  1  0  0  0  0
 11 25  1  0  0  0  0
 11 26  1  0  0  0  0
 11 27  1  0  0  0  0
M  END
>  <Mol_ID>
2222

>  <Formula>
C10H16O

>  <MolWeight>
152.23344

>  <Cat>
S5138

>  <Name>
Citral

>  <Synonyms>
Geranialdehyde

>  <Target>
Immunology & Inflammation related

>  <Form>
free base

>  <CAS>
5392-40-5

>  <URL>
http://selleckchem.com/products/citral.html

$$$$
