S5139 Methyl Dihydrojasmonate.cdx
 OpenBabel08302519563D

 38 38  0  0  0  0  0  0  0  0999 V2000
   -1.6176   -0.7400   -0.2453 C   0  0  3  0  0  0  0  0  0  0  0  0
   -0.1532   -1.1978    0.0302 C   0  0  3  0  0  0  0  0  0  0  0  0
   -2.1738   -1.0006   -1.6558 C   0  0  0  0  0  0  0  0  0  0  0  0
   -1.6525    0.7543    0.1255 C   0  0  0  0  0  0  0  0  0  0  0  0
    0.6108    0.1134    0.0836 C   0  0  0  0  0  0  0  0  0  0  0  0
    0.4332   -2.1906   -0.9832 C   0  0  0  0  0  0  0  0  0  0  0  0
   -3.6390   -0.6078   -1.7753 C   0  0  0  0  0  0  0  0  0  0  0  0
   -0.2638    1.3095   -0.1254 C   0  0  0  0  0  0  0  0  0  0  0  0
    1.8170    0.2079    0.2774 O   0  0  0  0  0  0  0  0  0  0  0  0
    1.8707   -2.6710   -0.7198 C   0  0  0  0  0  0  0  0  0  0  0  0
   -3.9121   -0.2430   -3.0580 O   0  0  0  0  0  0  0  0  0  0  0  0
   -4.4429   -0.6387   -0.8553 O   0  0  0  0  0  0  0  0  0  0  0  0
    2.0567   -3.3820    0.6206 C   0  0  0  0  0  0  0  0  0  0  0  0
   -5.2532    0.1875   -3.3088 C   0  0  0  0  0  0  0  0  0  0  0  0
    3.5014   -3.8537    0.8028 C   0  0  0  0  0  0  0  0  0  0  0  0
    3.6867   -4.5774    2.1271 C   0  0  0  0  0  0  0  0  0  0  0  0
   -2.2706   -1.2781    0.4557 H   0  0  0  0  0  0  0  0  0  0  0  0
   -0.1260   -1.6185    1.0426 H   0  0  0  0  0  0  0  0  0  0  0  0
   -1.5891   -0.4484   -2.3995 H   0  0  0  0  0  0  0  0  0  0  0  0
   -2.1284   -2.0684   -1.8977 H   0  0  0  0  0  0  0  0  0  0  0  0
   -2.3991    1.3284   -0.4326 H   0  0  0  0  0  0  0  0  0  0  0  0
   -1.9015    0.8565    1.1885 H   0  0  0  0  0  0  0  0  0  0  0  0
   -0.2140   -3.0752   -1.0278 H   0  0  0  0  0  0  0  0  0  0  0  0
    0.4291   -1.7389   -1.9834 H   0  0  0  0  0  0  0  0  0  0  0  0
   -0.0162    2.1008    0.5869 H   0  0  0  0  0  0  0  0  0  0  0  0
   -0.1408    1.6639   -1.1519 H   0  0  0  0  0  0  0  0  0  0  0  0
    2.1443   -3.3637   -1.5271 H   0  0  0  0  0  0  0  0  0  0  0  0
    2.5721   -1.8351   -0.8005 H   0  0  0  0  0  0  0  0  0  0  0  0
    1.7973   -2.7104    1.4458 H   0  0  0  0  0  0  0  0  0  0  0  0
    1.3794   -4.2425    0.6728 H   0  0  0  0  0  0  0  0  0  0  0  0
   -5.8352   -0.6558   -3.6943 H   0  0  0  0  0  0  0  0  0  0  0  0
   -5.7406    0.6089   -2.4246 H   0  0  0  0  0  0  0  0  0  0  0  0
   -5.2186    0.9654   -4.0777 H   0  0  0  0  0  0  0  0  0  0  0  0
    3.7834   -4.5250   -0.0167 H   0  0  0  0  0  0  0  0  0  0  0  0
    4.1808   -2.9939    0.7656 H   0  0  0  0  0  0  0  0  0  0  0  0
    3.0320   -5.4523    2.1908 H   0  0  0  0  0  0  0  0  0  0  0  0
    4.7213   -4.9189    2.2325 H   0  0  0  0  0  0  0  0  0  0  0  0
    3.4601   -3.9163    2.9698 H   0  0  0  0  0  0  0  0  0  0  0  0
  1  2  1  0  0  0  0
  1  3  1  0  0  0  0
  1  4  1  0  0  0  0
  1 17  1  0  0  0  0
  2  5  1  0  0  0  0
  2  6  1  0  0  0  0
  2 18  1  0  0  0  0
  3  7  1  0  0  0  0
  3 19  1  0  0  0  0
  3 20  1  0  0  0  0
  4  8  1  0  0  0  0
  4 21  1  0  0  0  0
  4 22  1  0  0  0  0
  5  9  2  0  0  0  0
  5  8  1  0  0  0  0
  6 10  1  0  0  0  0
  6 23  1  0  0  0  0
  6 24  1  0  0  0  0
  7 11  1  0  0  0  0
  7 12  2  0  0  0  0
  8 25  1  0  0  0  0
  8 26  1  0  0  0  0
 10 13  1  0  0  0  0
 10 27  1  0  0  0  0
 10 28  1  0  0  0  0
 11 14  1  0  0  0  0
 13 15  1  0  0  0  0
 13 29  1  0  0  0  0
 13 30  1  0  0  0  0
 14 31  1  0  0  0  0
 14 32  1  0  0  0  0
 14 33  1  0  0  0  0
 15 16  1  0  0  0  0
 15 34  1  0  0  0  0
 15 35  1  0  0  0  0
 16 36  1  0  0  0  0
 16 37  1  0  0  0  0
 16 38  1  0  0  0  0
M  END
>  <Mol_ID>
2221

>  <Formula>
C13H22O3

>  <MolWeight>
226.31198

>  <Cat>
S5139

>  <Name>
Methyl Dihydrojasmonate

>  <Synonyms>
Hedione, Kharismal

>  <Target>
Others

>  <Form>
free base

>  <CAS>
24851-98-7

>  <URL>
http://selleckchem.com/products/methyl-dihydrojasmonate.html

$$$$
