S5134 D(-)-Arabinose.cdx
 OpenBabel08302520003D

 20 20  0  0  0  0  0  0  0  0999 V2000
    0.6946    1.3005   -0.2652 C   0  0  0  0  0  0  0  0  0  0  0  0
    1.5026    0.1005    0.2326 C   0  0  2  0  0  0  0  0  0  0  0  0
    0.8446   -1.2237   -0.1600 C   0  0  2  0  0  0  0  0  0  0  0  0
   -0.6448   -1.2381    0.2169 C   0  0  1  0  0  0  0  0  0  0  0  0
   -1.3382    0.0330   -0.3124 C   0  0  3  0  0  0  0  0  0  0  0  0
   -0.6911    1.2326    0.0750 O   0  0  0  0  0  0  0  0  0  0  0  0
   -1.5175   -0.0210   -1.7272 O   0  0  0  0  0  0  0  0  0  0  0  0
    1.5443   -2.2881    0.5057 O   0  0  0  0  0  0  0  0  0  0  0  0
    1.6408    0.1683    1.6560 O   0  0  0  0  0  0  0  0  0  0  0  0
   -1.2732   -2.4123   -0.3284 O   0  0  0  0  0  0  0  0  0  0  0  0
    1.0821    2.2201    0.1857 H   0  0  0  0  0  0  0  0  0  0  0  0
    0.7843    1.4006   -1.3519 H   0  0  0  0  0  0  0  0  0  0  0  0
    2.5208    0.1434   -0.1702 H   0  0  0  0  0  0  0  0  0  0  0  0
    0.9421   -1.3997   -1.2377 H   0  0  0  0  0  0  0  0  0  0  0  0
   -0.7408   -1.2919    1.3073 H   0  0  0  0  0  0  0  0  0  0  0  0
   -2.3540    0.0671    0.0981 H   0  0  0  0  0  0  0  0  0  0  0  0
   -0.6425   -0.0970   -2.1471 H   0  0  0  0  0  0  0  0  0  0  0  0
    2.3717   -2.4502    0.0185 H   0  0  0  0  0  0  0  0  0  0  0  0
    1.9589   -0.7132    1.9423 H   0  0  0  0  0  0  0  0  0  0  0  0
   -1.6564   -2.1623   -1.1905 H   0  0  0  0  0  0  0  0  0  0  0  0
  1  2  1  0  0  0  0
  1  6  1  0  0  0  0
  1 11  1  0  0  0  0
  1 12  1  0  0  0  0
  2  3  1  0  0  0  0
  2 13  1  6  0  0  0
  2  9  1  0  0  0  0
  3  4  1  0  0  0  0
  3 14  1  6  0  0  0
  3  8  1  0  0  0  0
  4  5  1  0  0  0  0
  4 10  1  0  0  0  0
  4 15  1  1  0  0  0
  5  6  1  0  0  0  0
  5  7  1  0  0  0  0
  5 16  1  0  0  0  0
  7 17  1  0  0  0  0
  8 18  1  0  0  0  0
  9 19  1  0  0  0  0
 10 20  1  0  0  0  0
M  END
>  <Mol_ID>
2784

>  <Formula>
C5H10O5

>  <MolWeight>
150.1299

>  <Cat>
S5134

>  <Name>
D(-)-Arabinose

>  <Synonyms>
D-arabinose

>  <Target>
Others

>  <Form>
free base

>  <CAS>
28697-53-2

>  <URL>
http://selleckchem.com/products/d-arabinose.html

$$$$
