S5146 3-Methylpyrazole.cdx
 OpenBabel08302520003D

 12 12  0  0  0  0  0  0  0  0999 V2000
    0.7214    0.0715   -0.0002 C   0  0  0  0  0  0  0  0  0  0  0  0
   -0.1125    1.2134   -0.0015 C   0  0  0  0  0  0  0  0  0  0  0  0
    0.0062   -1.0604    0.0021 N   0  0  0  0  0  0  0  0  0  0  0  0
    2.2026    0.0235   -0.0021 C   0  0  0  0  0  0  0  0  0  0  0  0
   -1.3931    0.7176   -0.0004 C   0  0  0  0  0  0  0  0  0  0  0  0
   -1.2695   -0.6399    0.0016 N   0  0  0  0  0  0  0  0  0  0  0  0
    0.1848    2.2525   -0.0035 H   0  0  0  0  0  0  0  0  0  0  0  0
    2.5727   -0.5028    0.8835 H   0  0  0  0  0  0  0  0  0  0  0  0
    2.5700   -0.4946   -0.8937 H   0  0  0  0  0  0  0  0  0  0  0  0
    2.6281    1.0322    0.0019 H   0  0  0  0  0  0  0  0  0  0  0  0
   -2.3603    1.1989   -0.0012 H   0  0  0  0  0  0  0  0  0  0  0  0
   -2.0054   -1.3383    0.0024 H   0  0  0  0  0  0  0  0  0  0  0  0
  1  2  1  0  0  0  0
  1  3  2  0  0  0  0
  1  4  1  0  0  0  0
  2  5  2  0  0  0  0
  2  7  1  0  0  0  0
  3  6  1  0  0  0  0
  4  8  1  0  0  0  0
  4  9  1  0  0  0  0
  4 10  1  0  0  0  0
  5  6  1  0  0  0  0
  5 11  1  0  0  0  0
  6 12  1  0  0  0  0
M  END
>  <Mol_ID>
2746

>  <Formula>
C4H6N2

>  <MolWeight>
82.10384

>  <Cat>
S5146

>  <Name>
3-Methylpyrazole

>  <Synonyms>
3-MP

>  <Target>
Dehydrogenase

>  <Form>
free base

>  <CAS>
1453-58-3

>  <URL>
http://selleckchem.com/products/3-methylpyrazole.html

$$$$
