S5147 1,3,5-Trimethylpyrazole.cdx
 OpenBabel08302520003D

 18 18  0  0  0  0  0  0  0  0999 V2000
    0.8151    0.6996   -0.0096 C   0  0  0  0  0  0  0  0  0  0  0  0
    0.6474   -0.6607   -0.0137 N   0  0  0  0  0  0  0  0  0  0  0  0
   -0.4600    1.2255    0.0017 C   0  0  0  0  0  0  0  0  0  0  0  0
    2.1347    1.3746   -0.0263 C   0  0  0  0  0  0  0  0  0  0  0  0
   -0.6448   -1.0391   -0.0241 N   0  0  0  0  0  0  0  0  0  0  0  0
    1.6600   -1.6906   -0.0169 C   0  0  0  0  0  0  0  0  0  0  0  0
   -1.3265    0.1110   -0.0212 C   0  0  0  0  0  0  0  0  0  0  0  0
   -2.8071    0.0999   -0.0532 C   0  0  0  0  0  0  0  0  0  0  0  0
   -0.7302    2.2722    0.0092 H   0  0  0  0  0  0  0  0  0  0  0  0
    2.7253    1.0979    0.8526 H   0  0  0  0  0  0  0  0  0  0  0  0
    2.6951    1.1016   -0.9263 H   0  0  0  0  0  0  0  0  0  0  0  0
    2.0174    2.4628   -0.0232 H   0  0  0  0  0  0  0  0  0  0  0  0
    1.5218   -2.3109    0.8723 H   0  0  0  0  0  0  0  0  0  0  0  0
    1.5367   -2.2885   -0.9236 H   0  0  0  0  0  0  0  0  0  0  0  0
    2.6555   -1.2437   -0.0025 H   0  0  0  0  0  0  0  0  0  0  0  0
   -3.1639   -0.3584   -0.9812 H   0  0  0  0  0  0  0  0  0  0  0  0
   -3.2086   -0.4694    0.7911 H   0  0  0  0  0  0  0  0  0  0  0  0
   -3.2116    1.1156   -0.0005 H   0  0  0  0  0  0  0  0  0  0  0  0
  1  2  1  0  0  0  0
  1  3  2  0  0  0  0
  1  4  1  0  0  0  0
  2  5  1  0  0  0  0
  2  6  1  0  0  0  0
  3  7  1  0  0  0  0
  3  9  1  0  0  0  0
  4 10  1  0  0  0  0
  4 11  1  0  0  0  0
  4 12  1  0  0  0  0
  5  7  2  0  0  0  0
  6 13  1  0  0  0  0
  6 14  1  0  0  0  0
  6 15  1  0  0  0  0
  7  8  1  0  0  0  0
  8 16  1  0  0  0  0
  8 17  1  0  0  0  0
  8 18  1  0  0  0  0
M  END
>  <Mol_ID>
2747

>  <Formula>
C6H10N2

>  <MolWeight>
110.157

>  <Cat>
S5147

>  <Name>
1,3,5-Trimethylpyrazole

>  <Synonyms>
1,3,5-TMePz; 1,3,5-Trimethyl-1H-pyrazole

>  <Target>
Others

>  <Form>
free base

>  <CAS>
1072-91-9

>  <URL>
http://selleckchem.com/products/1-3-5-trimethylpyrazole.html

$$$$
