S5141 Pyrithioxin.cdx
 OpenBabel08302520003D

 44 45  0  0  0  0  0  0  0  0999 V2000
    3.6472    1.4203   -1.1775 C   0  0  0  0  0  0  0  0  0  0  0  0
    4.0945    0.1340   -1.5246 C   0  0  0  0  0  0  0  0  0  0  0  0
    3.7313    2.4250   -2.1569 C   0  0  0  0  0  0  0  0  0  0  0  0
    3.0219    1.8074    0.1496 C   0  0  0  0  0  0  0  0  0  0  0  0
    4.6623   -0.0602   -2.8058 C   0  0  0  0  0  0  0  0  0  0  0  0
    3.9647   -1.0165   -0.5498 C   0  0  0  0  0  0  0  0  0  0  0  0
    4.2518    2.2453   -3.3904 N   0  0  0  0  0  0  0  0  0  0  0  0
    4.0871    1.5245    1.6126 S   0  0  0  0  0  0  0  0  0  0  0  0
    4.7260    1.0192   -3.7065 C   0  0  0  0  0  0  0  0  0  0  0  0
    5.1412   -1.2551   -3.2478 O   0  0  0  0  0  0  0  0  0  0  0  0
    3.1823   -2.0718   -1.0840 O   0  0  0  0  0  0  0  0  0  0  0  0
    2.8758    2.1283    3.1826 S   0  0  0  0  0  0  0  0  0  0  0  0
    5.3030    0.8816   -5.0821 C   0  0  0  0  0  0  0  0  0  0  0  0
    1.4521    0.9945    3.0759 C   0  0  0  0  0  0  0  0  0  0  0  0
    0.4012    1.2224    4.1444 C   0  0  0  0  0  0  0  0  0  0  0  0
   -0.7155    2.0824    4.0060 C   0  0  0  0  0  0  0  0  0  0  0  0
    0.5457    0.5470    5.3492 C   0  0  0  0  0  0  0  0  0  0  0  0
   -1.5933    2.2092    5.1150 C   0  0  0  0  0  0  0  0  0  0  0  0
   -0.9427    2.8709    2.7409 C   0  0  0  0  0  0  0  0  0  0  0  0
   -0.2901    0.6447    6.4054 N   0  0  0  0  0  0  0  0  0  0  0  0
   -1.3468    1.4871    6.2825 C   0  0  0  0  0  0  0  0  0  0  0  0
   -2.6745    3.0450    5.1070 O   0  0  0  0  0  0  0  0  0  0  0  0
   -2.2020    2.5396    2.1708 O   0  0  0  0  0  0  0  0  0  0  0  0
   -2.2351    1.5703    7.4916 C   0  0  0  0  0  0  0  0  0  0  0  0
    3.3642    3.4270   -1.9822 H   0  0  0  0  0  0  0  0  0  0  0  0
    2.7635    2.8670    0.1349 H   0  0  0  0  0  0  0  0  0  0  0  0
    2.0886    1.2529    0.2761 H   0  0  0  0  0  0  0  0  0  0  0  0
    4.9485   -1.4003   -0.2710 H   0  0  0  0  0  0  0  0  0  0  0  0
    3.4731   -0.7270    0.3770 H   0  0  0  0  0  0  0  0  0  0  0  0
    5.1538   -1.9181   -2.5258 H   0  0  0  0  0  0  0  0  0  0  0  0
    2.6511   -1.7238   -1.8165 H   0  0  0  0  0  0  0  0  0  0  0  0
    4.5414    1.1294   -5.8291 H   0  0  0  0  0  0  0  0  0  0  0  0
    6.1435    1.5740   -5.1944 H   0  0  0  0  0  0  0  0  0  0  0  0
    5.6691   -0.1252   -5.2999 H   0  0  0  0  0  0  0  0  0  0  0  0
    1.0087    1.1147    2.0904 H   0  0  0  0  0  0  0  0  0  0  0  0
    1.7989   -0.0450    3.1249 H   0  0  0  0  0  0  0  0  0  0  0  0
    1.3854   -0.1346    5.5161 H   0  0  0  0  0  0  0  0  0  0  0  0
   -0.9108    3.9485    2.9425 H   0  0  0  0  0  0  0  0  0  0  0  0
   -0.1876    2.6859    1.9757 H   0  0  0  0  0  0  0  0  0  0  0  0
   -2.9890    3.1650    4.1849 H   0  0  0  0  0  0  0  0  0  0  0  0
   -2.2474    1.5659    2.1211 H   0  0  0  0  0  0  0  0  0  0  0  0
   -2.6106    0.5730    7.7411 H   0  0  0  0  0  0  0  0  0  0  0  0
   -1.6641    1.9531    8.3428 H   0  0  0  0  0  0  0  0  0  0  0  0
   -3.0995    2.2232    7.3426 H   0  0  0  0  0  0  0  0  0  0  0  0
  1  2  2  0  0  0  0
  1  3  1  0  0  0  0
  1  4  1  0  0  0  0
  2  5  1  0  0  0  0
  2  6  1  0  0  0  0
  3  7  2  0  0  0  0
  3 25  1  0  0  0  0
  4  8  1  0  0  0  0
  4 26  1  0  0  0  0
  4 27  1  0  0  0  0
  5  9  2  0  0  0  0
  5 10  1  0  0  0  0
  6 11  1  0  0  0  0
  6 28  1  0  0  0  0
  6 29  1  0  0  0  0
  7  9  1  0  0  0  0
  8 12  1  0  0  0  0
  9 13  1  0  0  0  0
 10 30  1  0  0  0  0
 11 31  1  0  0  0  0
 12 14  1  0  0  0  0
 13 32  1  0  0  0  0
 13 33  1  0  0  0  0
 13 34  1  0  0  0  0
 14 15  1  0  0  0  0
 14 35  1  0  0  0  0
 14 36  1  0  0  0  0
 15 16  2  0  0  0  0
 15 17  1  0  0  0  0
 16 18  1  0  0  0  0
 16 19  1  0  0  0  0
 17 20  2  0  0  0  0
 17 37  1  0  0  0  0
 18 21  2  0  0  0  0
 18 22  1  0  0  0  0
 19 23  1  0  0  0  0
 19 38  1  0  0  0  0
 19 39  1  0  0  0  0
 20 21  1  0  0  0  0
 21 24  1  0  0  0  0
 22 40  1  0  0  0  0
 23 41  1  0  0  0  0
 24 42  1  0  0  0  0
 24 43  1  0  0  0  0
 24 44  1  0  0  0  0
M  END
>  <Mol_ID>
2755

>  <Formula>
C16H20N2O4S2

>  <MolWeight>
368.471

>  <Cat>
S5141

>  <Name>
Pyrithioxin

>  <Synonyms>
Bonifen, Encefabol, Pyritinol, Vitamin B6 disulfide

>  <Target>
Others

>  <Form>
free base

>  <CAS>
1098-97-1

>  <URL>
http://selleckchem.com/products/pyrithioxin.html

$$$$
