S5148 2-Methylenebutyrolactone.cdx
 OpenBabel08302519563D

 13 13  0  0  0  0  0  0  0  0999 V2000
   -0.1841    0.9059    0.0116 C   0  0  0  0  0  0  0  0  0  0  0  0
   -0.4934   -0.5400    0.0097 C   0  0  0  0  0  0  0  0  0  0  0  0
    1.2696    1.0771    0.2162 C   0  0  0  0  0  0  0  0  0  0  0  0
   -1.1118    1.8544   -0.1560 C   0  0  0  0  0  0  0  0  0  0  0  0
    0.6889   -1.2131    0.0482 O   0  0  0  0  0  0  0  0  0  0  0  0
   -1.5999   -1.0430   -0.0040 O   0  0  0  0  0  0  0  0  0  0  0  0
    1.7810   -0.3048   -0.1174 C   0  0  0  0  0  0  0  0  0  0  0  0
    1.7221    1.8414   -0.4215 H   0  0  0  0  0  0  0  0  0  0  0  0
    1.4758    1.3207    1.2641 H   0  0  0  0  0  0  0  0  0  0  0  0
   -2.1587    1.5937   -0.2952 H   0  0  0  0  0  0  0  0  0  0  0  0
   -0.8538    2.9076   -0.1472 H   0  0  0  0  0  0  0  0  0  0  0  0
    2.1393   -0.3748   -1.1504 H   0  0  0  0  0  0  0  0  0  0  0  0
    2.5971   -0.6002    0.5493 H   0  0  0  0  0  0  0  0  0  0  0  0
  1  2  1  0  0  0  0
  1  3  1  0  0  0  0
  1  4  2  0  0  0  0
  2  5  1  0  0  0  0
  2  6  2  0  0  0  0
  3  7  1  0  0  0  0
  3  8  1  0  0  0  0
  3  9  1  0  0  0  0
  4 10  1  0  0  0  0
  4 11  1  0  0  0  0
  5  7  1  0  0  0  0
  7 12  1  0  0  0  0
  7 13  1  0  0  0  0
M  END
>  <Mol_ID>
2216

>  <Formula>
C5H6O2

>  <MolWeight>
98.09994

>  <Cat>
S5148

>  <Name>
2-Methylenebutyrolactone

>  <Synonyms>
Tulipalin A, MBL, ¦Á-methylene-¦Ã-butyrolactone

>  <Target>
Others

>  <Form>
free base

>  <CAS>
547-65-9

>  <URL>
http://selleckchem.com/products/2-methylenebutyrolactone.html

$$$$
