S5154 Tetrahydropiperine.cdx
 OpenBabel08302520013D

 44 46  0  0  0  0  0  0  0  0999 V2000
    1.6456    5.3046    0.0485 C   0  0  0  0  0  0  0  0  0  0  0  0
    1.0110    4.3234    0.7741 C   0  0  0  0  0  0  0  0  0  0  0  0
    1.5049    3.0392    0.8504 C   0  0  0  0  0  0  0  0  0  0  0  0
    2.6796    2.7425    0.1427 C   0  0  0  0  0  0  0  0  0  0  0  0
    3.3403    3.7646   -0.5789 C   0  0  0  0  0  0  0  0  0  0  0  0
    2.8186    5.0603   -0.6313 C   0  0  0  0  0  0  0  0  0  0  0  0
    0.9800    6.4895    0.0867 O   0  0  0  0  0  0  0  0  0  0  0  0
   -0.1585    6.1339    0.8997 C   0  0  0  0  0  0  0  0  0  0  0  0
   -0.1296    4.7695    1.3656 O   0  0  0  0  0  0  0  0  0  0  0  0
    3.2295    1.3405    0.1370 C   0  0  0  0  0  0  0  0  0  0  0  0
    4.1596    1.0730    1.3182 C   0  0  0  0  0  0  0  0  0  0  0  0
    4.6703   -0.3738    1.3464 C   0  0  0  0  0  0  0  0  0  0  0  0
    5.5288   -0.7650    0.1393 C   0  0  0  0  0  0  0  0  0  0  0  0
    6.7351    0.1439   -0.0081 C   0  0  0  0  0  0  0  0  0  0  0  0
    7.7115    0.0840    0.9732 N   0  0  0  0  0  0  0  0  0  0  0  0
    6.7792    0.9445   -0.9439 O   0  0  0  0  0  0  0  0  0  0  0  0
    8.7542    1.1043    1.0064 C   0  0  0  0  0  0  0  0  0  0  0  0
   10.1316    0.4817    0.8004 C   0  0  0  0  0  0  0  0  0  0  0  0
   10.3702   -0.6705    1.7775 C   0  0  0  0  0  0  0  0  0  0  0  0
    9.2339   -1.6884    1.7088 C   0  0  0  0  0  0  0  0  0  0  0  0
    7.8861   -1.0087    1.9307 C   0  0  0  0  0  0  0  0  0  0  0  0
    0.9831    2.2826    1.4258 H   0  0  0  0  0  0  0  0  0  0  0  0
    4.2630    3.5406   -1.1140 H   0  0  0  0  0  0  0  0  0  0  0  0
    3.3104    5.8416   -1.1991 H   0  0  0  0  0  0  0  0  0  0  0  0
   -0.1884    6.8002    1.7687 H   0  0  0  0  0  0  0  0  0  0  0  0
   -1.0712    6.2830    0.3112 H   0  0  0  0  0  0  0  0  0  0  0  0
    2.3948    0.6276    0.1510 H   0  0  0  0  0  0  0  0  0  0  0  0
    3.7494    1.1738   -0.8127 H   0  0  0  0  0  0  0  0  0  0  0  0
    5.0058    1.7735    1.3011 H   0  0  0  0  0  0  0  0  0  0  0  0
    3.6302    1.2683    2.2594 H   0  0  0  0  0  0  0  0  0  0  0  0
    5.2376   -0.5064    2.2740 H   0  0  0  0  0  0  0  0  0  0  0  0
    3.8171   -1.0591    1.4099 H   0  0  0  0  0  0  0  0  0  0  0  0
    5.8525   -1.8087    0.2015 H   0  0  0  0  0  0  0  0  0  0  0  0
    4.9417   -0.7071   -0.7844 H   0  0  0  0  0  0  0  0  0  0  0  0
    8.7001    1.5883    1.9893 H   0  0  0  0  0  0  0  0  0  0  0  0
    8.5774    1.8820    0.2568 H   0  0  0  0  0  0  0  0  0  0  0  0
   10.9067    1.2449    0.9284 H   0  0  0  0  0  0  0  0  0  0  0  0
   10.2095    0.1045   -0.2262 H   0  0  0  0  0  0  0  0  0  0  0  0
   11.3237   -1.1592    1.5512 H   0  0  0  0  0  0  0  0  0  0  0  0
   10.4414   -0.2755    2.7984 H   0  0  0  0  0  0  0  0  0  0  0  0
    9.2402   -2.1720    0.7231 H   0  0  0  0  0  0  0  0  0  0  0  0
    9.3844   -2.4733    2.4578 H   0  0  0  0  0  0  0  0  0  0  0  0
    7.1000   -1.7598    1.8514 H   0  0  0  0  0  0  0  0  0  0  0  0
    7.8300   -0.5784    2.9376 H   0  0  0  0  0  0  0  0  0  0  0  0
  1  2  1  0  0  0  0
  1  7  1  0  0  0  0
  2  3  2  0  0  0  0
  3  4  1  0  0  0  0
  3 22  1  0  0  0  0
  4  5  2  0  0  0  0
  4 10  1  0  0  0  0
  5  6  1  0  0  0  0
  5 23  1  0  0  0  0
  6  1  2  0  0  0  0
  6 24  1  0  0  0  0
  7  8  1  0  0  0  0
  8  9  1  0  0  0  0
  8 25  1  0  0  0  0
  8 26  1  0  0  0  0
  9  2  1  0  0  0  0
 10 11  1  0  0  0  0
 10 27  1  0  0  0  0
 10 28  1  0  0  0  0
 11 12  1  0  0  0  0
 11 29  1  0  0  0  0
 11 30  1  0  0  0  0
 12 13  1  0  0  0  0
 12 31  1  0  0  0  0
 12 32  1  0  0  0  0
 13 14  1  0  0  0  0
 13 33  1  0  0  0  0
 13 34  1  0  0  0  0
 14 15  1  0  0  0  0
 14 16  2  0  0  0  0
 15 17  1  0  0  0  0
 17 18  1  0  0  0  0
 17 35  1  0  0  0  0
 17 36  1  0  0  0  0
 18 19  1  0  0  0  0
 18 37  1  0  0  0  0
 18 38  1  0  0  0  0
 19 20  1  0  0  0  0
 19 39  1  0  0  0  0
 19 40  1  0  0  0  0
 20 21  1  0  0  0  0
 20 41  1  0  0  0  0
 20 42  1  0  0  0  0
 21 15  1  0  0  0  0
 21 43  1  0  0  0  0
 21 44  1  0  0  0  0
M  END
>  <Mol_ID>
2971

>  <Formula>
C17H23NO3

>  <MolWeight>
289.36942

>  <Cat>
S5154

>  <Name>
Tetrahydropiperine

>  <Synonyms>
Cosmoperine

>  <Target>
Others

>  <Form>
free base

>  <CAS>
23434-88-0

>  <URL>
http://selleckchem.com/products/tetrahydropiperine.html

$$$$
