S5153 Tetrahydroberberine.cdx
 OpenBabel08302520013D

 46 50  0  0  0  0  0  0  0  0999 V2000
    0.5005   -0.8623   -0.0356 C   0  0  0  0  0  0  0  0  0  0  0  0
    0.7207    0.5318    0.0381 C   0  0  0  0  0  0  0  0  0  0  0  0
    2.1441    1.0229    0.1629 C   0  0  0  0  0  0  0  0  0  0  0  0
    3.0452    0.0403    0.9479 C   0  0  0  0  0  0  0  0  0  0  0  0
    2.8989   -1.3305    0.4991 N   0  0  3  0  0  0  0  0  0  0  0  0
    3.6406   -2.4256    1.1120 C   0  0  0  0  0  0  0  0  0  0  0  0
    3.8916   -3.4696    0.0229 C   0  0  0  0  0  0  0  0  0  0  0  0
    3.2682   -3.2719   -1.2345 C   0  0  0  0  0  0  0  0  0  0  0  0
    1.9329   -2.5491   -1.3029 C   0  0  0  0  0  0  0  0  0  0  0  0
    1.6281   -1.8456    0.0348 C   0  0  3  0  0  0  0  0  0  0  0  0
   -2.8270    1.5326   -0.1799 O   0  0  0  0  0  0  0  0  0  0  0  0
   -3.7594    0.4358   -0.3200 C   0  0  0  0  0  0  0  0  0  0  0  0
   -3.1470   -0.8590   -0.2001 O   0  0  0  0  0  0  0  0  0  0  0  0
   -1.8430   -0.5058   -0.1446 C   0  0  0  0  0  0  0  0  0  0  0  0
   -1.6463    0.8518   -0.1187 C   0  0  0  0  0  0  0  0  0  0  0  0
   -0.7966   -1.3835   -0.1164 C   0  0  0  0  0  0  0  0  0  0  0  0
   -0.3815    1.4044   -0.0294 C   0  0  0  0  0  0  0  0  0  0  0  0
    3.9258   -3.6847   -2.3828 C   0  0  0  0  0  0  0  0  0  0  0  0
    5.1173   -4.3918   -2.2555 C   0  0  0  0  0  0  0  0  0  0  0  0
    5.5657   -4.8460   -1.0015 C   0  0  0  0  0  0  0  0  0  0  0  0
    4.8912   -4.4408    0.1550 C   0  0  0  0  0  0  0  0  0  0  0  0
    6.6871   -5.6233   -1.1077 O   0  0  0  0  0  0  0  0  0  0  0  0
    7.1670   -6.2973    0.0444 C   0  0  0  0  0  0  0  0  0  0  0  0
    5.2338   -4.9107    1.3960 O   0  0  0  0  0  0  0  0  0  0  0  0
    4.1203   -5.5067    2.0815 C   0  0  0  0  0  0  0  0  0  0  0  0
    2.1697    1.9942    0.6738 H   0  0  0  0  0  0  0  0  0  0  0  0
    2.5441    1.1796   -0.8500 H   0  0  0  0  0  0  0  0  0  0  0  0
    2.8386    0.1152    2.0163 H   0  0  0  0  0  0  0  0  0  0  0  0
    4.0860    0.3489    0.7886 H   0  0  0  0  0  0  0  0  0  0  0  0
    4.6077   -2.0742    1.4862 H   0  0  0  0  0  0  0  0  0  0  0  0
    3.0847   -2.8539    1.9553 H   0  0  0  0  0  0  0  0  0  0  0  0
    1.1523   -3.2958   -1.5006 H   0  0  0  0  0  0  0  0  0  0  0  0
    1.9372   -1.8383   -2.1388 H   0  0  0  0  0  0  0  0  0  0  0  0
    1.2813   -2.6085    0.7459 H   0  0  0  0  0  0  0  0  0  0  0  0
   -4.2272    0.4912   -1.3100 H   0  0  0  0  0  0  0  0  0  0  0  0
   -4.5366    0.5244    0.4465 H   0  0  0  0  0  0  0  0  0  0  0  0
   -0.9774   -2.4536   -0.1377 H   0  0  0  0  0  0  0  0  0  0  0  0
   -0.2525    2.4852   -0.0030 H   0  0  0  0  0  0  0  0  0  0  0  0
    3.5587   -3.3996   -3.3649 H   0  0  0  0  0  0  0  0  0  0  0  0
    5.6943   -4.6218   -3.1475 H   0  0  0  0  0  0  0  0  0  0  0  0
    7.4901   -5.5948    0.8135 H   0  0  0  0  0  0  0  0  0  0  0  0
    6.4179   -7.0105    0.4090 H   0  0  0  0  0  0  0  0  0  0  0  0
    8.0530   -6.8658   -0.2640 H   0  0  0  0  0  0  0  0  0  0  0  0
    3.7379   -4.8087    2.8321 H   0  0  0  0  0  0  0  0  0  0  0  0
    3.3041   -5.8249    1.4193 H   0  0  0  0  0  0  0  0  0  0  0  0
    4.4776   -6.3942    2.6141 H   0  0  0  0  0  0  0  0  0  0  0  0
  1  2  2  0  0  0  0
  1 10  1  0  0  0  0
  1 16  1  0  0  0  0
  2  3  1  0  0  0  0
  2 17  1  0  0  0  0
  3  4  1  0  0  0  0
  3 26  1  0  0  0  0
  3 27  1  0  0  0  0
  4  5  1  0  0  0  0
  4 28  1  0  0  0  0
  4 29  1  0  0  0  0
  5  6  1  0  0  0  0
  5 10  1  0  0  0  0
  6  7  1  0  0  0  0
  6 30  1  0  0  0  0
  6 31  1  0  0  0  0
  7  8  2  0  0  0  0
  7 21  1  0  0  0  0
  8  9  1  0  0  0  0
  8 18  1  0  0  0  0
  9 10  1  0  0  0  0
  9 32  1  0  0  0  0
  9 33  1  0  0  0  0
 10 34  1  0  0  0  0
 11 12  1  0  0  0  0
 11 15  1  0  0  0  0
 12 13  1  0  0  0  0
 12 35  1  0  0  0  0
 12 36  1  0  0  0  0
 13 14  1  0  0  0  0
 14 15  1  0  0  0  0
 14 16  2  0  0  0  0
 15 17  2  0  0  0  0
 16 37  1  0  0  0  0
 17 38  1  0  0  0  0
 18 19  2  0  0  0  0
 18 39  1  0  0  0  0
 19 20  1  0  0  0  0
 19 40  1  0  0  0  0
 20 21  2  0  0  0  0
 20 22  1  0  0  0  0
 21 24  1  0  0  0  0
 22 23  1  0  0  0  0
 23 41  1  0  0  0  0
 23 42  1  0  0  0  0
 23 43  1  0  0  0  0
 24 25  1  0  0  0  0
 25 44  1  0  0  0  0
 25 45  1  0  0  0  0
 25 46  1  0  0  0  0
M  END
>  <Mol_ID>
2963

>  <Formula>
C20H21NO4

>  <MolWeight>
339.38504

>  <Cat>
S5153

>  <Name>
Tetrahydroberberine

>  <Synonyms>
Canadine

>  <Target>
5-HT Receptor,ADC Cytotoxin,Dopamine Receptor

>  <Form>
free base

>  <CAS>
522-97-4

>  <URL>
http://selleckchem.com/products/tetrahydroberberine.html

$$$$
