S5157 Thymol.cdx
 OpenBabel08302520003D

 25 25  0  0  0  0  0  0  0  0999 V2000
   -1.1480   -1.0514   -0.0324 C   0  0  0  0  0  0  0  0  0  0  0  0
   -1.1294    0.3511   -0.0271 C   0  0  0  0  0  0  0  0  0  0  0  0
    0.0977   -1.7121   -0.0056 C   0  0  0  0  0  0  0  0  0  0  0  0
   -2.4258   -1.8781   -0.0663 C   0  0  0  0  0  0  0  0  0  0  0  0
    0.0783    1.0581   -0.0110 C   0  0  0  0  0  0  0  0  0  0  0  0
   -2.2423    1.1420   -0.0380 O   0  0  0  0  0  0  0  0  0  0  0  0
    1.3056   -1.0055    0.0082 C   0  0  0  0  0  0  0  0  0  0  0  0
   -2.4725   -2.8060   -1.2860 C   0  0  0  0  0  0  0  0  0  0  0  0
   -2.6240   -2.6573    1.2374 C   0  0  0  0  0  0  0  0  0  0  0  0
    1.3038    0.3882    0.0019 C   0  0  0  0  0  0  0  0  0  0  0  0
    2.5806    1.1728    0.0061 C   0  0  0  0  0  0  0  0  0  0  0  0
    0.1434   -2.7994    0.0008 H   0  0  0  0  0  0  0  0  0  0  0  0
   -3.2974   -1.2262   -0.1663 H   0  0  0  0  0  0  0  0  0  0  0  0
    0.0519    2.1458   -0.0110 H   0  0  0  0  0  0  0  0  0  0  0  0
   -3.0416    0.5997   -0.0125 H   0  0  0  0  0  0  0  0  0  0  0  0
    2.2423   -1.5567    0.0193 H   0  0  0  0  0  0  0  0  0  0  0  0
   -1.6552   -3.5348   -1.2926 H   0  0  0  0  0  0  0  0  0  0  0  0
   -3.4137   -3.3658   -1.3083 H   0  0  0  0  0  0  0  0  0  0  0  0
   -2.4090   -2.2246   -2.2133 H   0  0  0  0  0  0  0  0  0  0  0  0
   -2.6742   -1.9733    2.0926 H   0  0  0  0  0  0  0  0  0  0  0  0
   -3.5622   -3.2227    1.2104 H   0  0  0  0  0  0  0  0  0  0  0  0
   -1.8124   -3.3676    1.4263 H   0  0  0  0  0  0  0  0  0  0  0  0
    2.6397    1.7989   -0.8897 H   0  0  0  0  0  0  0  0  0  0  0  0
    2.6285    1.8106    0.8942 H   0  0  0  0  0  0  0  0  0  0  0  0
    3.4569    0.5163    0.0154 H   0  0  0  0  0  0  0  0  0  0  0  0
  1  2  2  0  0  0  0
  1  3  1  0  0  0  0
  1  4  1  0  0  0  0
  2  5  1  0  0  0  0
  2  6  1  0  0  0  0
  3  7  2  0  0  0  0
  3 12  1  0  0  0  0
  4  8  1  0  0  0  0
  4  9  1  0  0  0  0
  4 13  1  0  0  0  0
  5 10  2  0  0  0  0
  5 14  1  0  0  0  0
  6 15  1  0  0  0  0
  7 10  1  0  0  0  0
  7 16  1  0  0  0  0
  8 17  1  0  0  0  0
  8 18  1  0  0  0  0
  8 19  1  0  0  0  0
  9 20  1  0  0  0  0
  9 21  1  0  0  0  0
  9 22  1  0  0  0  0
 10 11  1  0  0  0  0
 11 23  1  0  0  0  0
 11 24  1  0  0  0  0
 11 25  1  0  0  0  0
M  END
>  <Mol_ID>
2756

>  <Formula>
C10H14O

>  <MolWeight>
150.21756

>  <Cat>
S5157

>  <Name>
Thymol

>  <Synonyms>
2-isopropyl-5-methylphenol, IPMP

>  <Target>
Immunology & Inflammation related

>  <Form>
free base

>  <CAS>
89-83-8

>  <URL>
http://selleckchem.com/products/thymol.html

$$$$
