S5166 Benzoyleneurea.cdx
 OpenBabel08302520003D

 18 19  0  0  0  0  0  0  0  0999 V2000
   -0.6252   -0.5257   -0.0012 C   0  0  0  0  0  0  0  0  0  0  0  0
   -0.4509    0.8587   -0.0221 C   0  0  0  0  0  0  0  0  0  0  0  0
    0.5799   -1.3823    0.0263 C   0  0  0  0  0  0  0  0  0  0  0  0
   -1.9082   -1.0782    0.0113 C   0  0  0  0  0  0  0  0  0  0  0  0
    0.8382    1.3955   -0.0354 N   0  0  0  0  0  0  0  0  0  0  0  0
   -1.5594    1.7035   -0.0202 C   0  0  0  0  0  0  0  0  0  0  0  0
    1.7821   -0.7227    0.0814 N   0  0  0  0  0  0  0  0  0  0  0  0
    0.5000   -2.6036    0.0024 O   0  0  0  0  0  0  0  0  0  0  0  0
   -3.0185   -0.2328    0.0237 C   0  0  0  0  0  0  0  0  0  0  0  0
    1.9661    0.6287    0.0206 C   0  0  0  0  0  0  0  0  0  0  0  0
   -2.8437    1.1538    0.0121 C   0  0  0  0  0  0  0  0  0  0  0  0
    3.0844    1.1340    0.0167 O   0  0  0  0  0  0  0  0  0  0  0  0
   -2.0426   -2.1577    0.0212 H   0  0  0  0  0  0  0  0  0  0  0  0
    0.9829    2.3964   -0.0726 H   0  0  0  0  0  0  0  0  0  0  0  0
   -1.4414    2.7834   -0.0305 H   0  0  0  0  0  0  0  0  0  0  0  0
    2.6147   -1.2906    0.1138 H   0  0  0  0  0  0  0  0  0  0  0  0
   -4.0209   -0.6542    0.0484 H   0  0  0  0  0  0  0  0  0  0  0  0
   -3.7128    1.8081    0.0317 H   0  0  0  0  0  0  0  0  0  0  0  0
  1  2  2  0  0  0  0
  1  3  1  0  0  0  0
  1  4  1  0  0  0  0
  2  5  1  0  0  0  0
  2  6  1  0  0  0  0
  3  7  1  0  0  0  0
  3  8  2  0  0  0  0
  4  9  2  0  0  0  0
  4 13  1  0  0  0  0
  5 10  1  0  0  0  0
  5 14  1  0  0  0  0
  6 11  2  0  0  0  0
  6 15  1  0  0  0  0
  7 10  1  0  0  0  0
  7 16  1  0  0  0  0
  9 11  1  0  0  0  0
  9 17  1  0  0  0  0
 10 12  2  0  0  0  0
 11 18  1  0  0  0  0
M  END
>  <Mol_ID>
2780

>  <Formula>
C8H6N2O2

>  <MolWeight>
162.14544

>  <Cat>
S5166

>  <Name>
Benzoyleneurea

>  <Synonyms>
2,4-Dihydroxyquinazoline, Quinazolinedione, Quinazoline-2,4-diol

>  <Target>
Bacterial,Transferase

>  <Form>
free base

>  <CAS>
86-96-4

>  <URL>
http://selleckchem.com/products/benzoyleneurea.html

$$$$
