S5160 4-Methoxysalicylic acid.cdx
 OpenBabel08302520003D

 20 20  0  0  0  0  0  0  0  0999 V2000
    0.1593   -1.2813    0.0120 C   0  0  0  0  0  0  0  0  0  0  0  0
    0.8571   -0.0610    0.0149 C   0  0  0  0  0  0  0  0  0  0  0  0
   -1.2429   -1.2394   -0.0004 C   0  0  0  0  0  0  0  0  0  0  0  0
    0.9420   -2.5518    0.0214 C   0  0  0  0  0  0  0  0  0  0  0  0
    0.1758    1.1579    0.0093 C   0  0  0  0  0  0  0  0  0  0  0  0
    2.2261    0.0307    0.0228 O   0  0  0  0  0  0  0  0  0  0  0  0
   -1.9233   -0.0115   -0.0065 C   0  0  0  0  0  0  0  0  0  0  0  0
    0.2563   -3.7098    0.0286 O   0  0  0  0  0  0  0  0  0  0  0  0
    2.1663   -2.5339    0.0233 O   0  0  0  0  0  0  0  0  0  0  0  0
   -1.2180    1.1907   -0.0008 C   0  0  0  0  0  0  0  0  0  0  0  0
   -1.7668    2.4422   -0.0046 O   0  0  0  0  0  0  0  0  0  0  0  0
   -3.1866    2.5248   -0.0155 C   0  0  0  0  0  0  0  0  0  0  0  0
   -1.8575   -2.1313   -0.0069 H   0  0  0  0  0  0  0  0  0  0  0  0
    0.7399    2.0876    0.0125 H   0  0  0  0  0  0  0  0  0  0  0  0
    2.6058   -0.8772    0.0217 H   0  0  0  0  0  0  0  0  0  0  0  0
   -3.0092   -0.0317   -0.0158 H   0  0  0  0  0  0  0  0  0  0  0  0
   -0.7126   -3.6718    0.0345 H   0  0  0  0  0  0  0  0  0  0  0  0
   -3.6000    2.0727   -0.9232 H   0  0  0  0  0  0  0  0  0  0  0  0
   -3.6146    2.0682    0.8833 H   0  0  0  0  0  0  0  0  0  0  0  0
   -3.4622    3.5835   -0.0149 H   0  0  0  0  0  0  0  0  0  0  0  0
  1  2  2  0  0  0  0
  1  3  1  0  0  0  0
  1  4  1  0  0  0  0
  2  5  1  0  0  0  0
  2  6  1  0  0  0  0
  3  7  2  0  0  0  0
  3 13  1  0  0  0  0
  4  8  1  0  0  0  0
  4  9  2  0  0  0  0
  5 10  2  0  0  0  0
  5 14  1  0  0  0  0
  6 15  1  0  0  0  0
  7 10  1  0  0  0  0
  7 16  1  0  0  0  0
  8 17  1  0  0  0  0
 10 11  1  0  0  0  0
 11 12  1  0  0  0  0
 12 18  1  0  0  0  0
 12 19  1  0  0  0  0
 12 20  1  0  0  0  0
M  END
>  <Mol_ID>
2776

>  <Formula>
C8H8O4

>  <MolWeight>
168.14672

>  <Cat>
S5160

>  <Name>
4-Methoxysalicylic acid

>  <Synonyms>
2-Hydroxy-p-anisic Acid

>  <Target>
Others

>  <Form>
free base

>  <CAS>
2237-36-7

>  <URL>
http://selleckchem.com/products/4-methoxysalicylic-acid.html

$$$$
