S5167 Benzyl cinnamate.cdx
 OpenBabel08302520003D

 32 33  0  0  0  0  0  0  0  0999 V2000
    1.8685    2.1905    0.5459 C   0  0  0  0  0  0  0  0  0  0  0  0
    3.2895    1.8086    0.5109 C   0  0  0  0  0  0  0  0  0  0  0  0
    1.5430    3.5155    0.8699 C   0  0  0  0  0  0  0  0  0  0  0  0
    0.8320    1.3116    0.2035 C   0  0  0  0  0  0  0  0  0  0  0  0
    3.7650    0.5754    0.7492 C   0  0  0  0  0  0  0  0  0  0  0  0
    0.2165    3.9508    0.8627 C   0  0  0  0  0  0  0  0  0  0  0  0
   -0.4973    1.7478    0.1963 C   0  0  0  0  0  0  0  0  0  0  0  0
    5.2027    0.2232    0.7351 C   0  0  0  0  0  0  0  0  0  0  0  0
   -0.8048    3.0669    0.5239 C   0  0  0  0  0  0  0  0  0  0  0  0
    5.9715    1.2695    0.3595 O   0  0  0  0  0  0  0  0  0  0  0  0
    5.5909   -0.8924    1.0500 O   0  0  0  0  0  0  0  0  0  0  0  0
    7.3908    1.0598    0.3766 C   0  0  0  0  0  0  0  0  0  0  0  0
    8.0273    1.4773   -0.9304 C   0  0  0  0  0  0  0  0  0  0  0  0
    7.4592    2.4586   -1.7553 C   0  0  0  0  0  0  0  0  0  0  0  0
    9.2696    0.9323   -1.2933 C   0  0  0  0  0  0  0  0  0  0  0  0
    8.1151    2.8815   -2.9139 C   0  0  0  0  0  0  0  0  0  0  0  0
    9.9244    1.3560   -2.4516 C   0  0  0  0  0  0  0  0  0  0  0  0
    9.3495    2.3340   -3.2589 C   0  0  0  0  0  0  0  0  0  0  0  0
    3.9759    2.6236    0.2897 H   0  0  0  0  0  0  0  0  0  0  0  0
    2.3244    4.2256    1.1352 H   0  0  0  0  0  0  0  0  0  0  0  0
    1.0400    0.2829   -0.0779 H   0  0  0  0  0  0  0  0  0  0  0  0
    3.1166   -0.2553    1.0039 H   0  0  0  0  0  0  0  0  0  0  0  0
   -0.0185    4.9815    1.1178 H   0  0  0  0  0  0  0  0  0  0  0  0
   -1.2925    1.0580   -0.0755 H   0  0  0  0  0  0  0  0  0  0  0  0
   -1.8373    3.4060    0.5105 H   0  0  0  0  0  0  0  0  0  0  0  0
    7.8016    1.6925    1.1707 H   0  0  0  0  0  0  0  0  0  0  0  0
    7.6572    0.0206    0.6016 H   0  0  0  0  0  0  0  0  0  0  0  0
    6.5023    2.9079   -1.4994 H   0  0  0  0  0  0  0  0  0  0  0  0
    9.7403    0.1750   -0.6697 H   0  0  0  0  0  0  0  0  0  0  0  0
    7.6661    3.6452   -3.5434 H   0  0  0  0  0  0  0  0  0  0  0  0
   10.8871    0.9274   -2.7188 H   0  0  0  0  0  0  0  0  0  0  0  0
    9.8642    2.6725   -4.1542 H   0  0  0  0  0  0  0  0  0  0  0  0
  1  2  1  0  0  0  0
  1  3  2  0  0  0  0
  1  4  1  0  0  0  0
  2  5  2  0  0  0  0
  2 19  1  0  0  0  0
  3  6  1  0  0  0  0
  3 20  1  0  0  0  0
  4  7  2  0  0  0  0
  4 21  1  0  0  0  0
  5  8  1  0  0  0  0
  5 22  1  0  0  0  0
  6  9  2  0  0  0  0
  6 23  1  0  0  0  0
  7  9  1  0  0  0  0
  7 24  1  0  0  0  0
  8 10  1  0  0  0  0
  8 11  2  0  0  0  0
  9 25  1  0  0  0  0
 10 12  1  0  0  0  0
 12 13  1  0  0  0  0
 12 26  1  0  0  0  0
 12 27  1  0  0  0  0
 13 14  2  0  0  0  0
 13 15  1  0  0  0  0
 14 16  1  0  0  0  0
 14 28  1  0  0  0  0
 15 17  2  0  0  0  0
 15 29  1  0  0  0  0
 16 18  2  0  0  0  0
 16 30  1  0  0  0  0
 17 18  1  0  0  0  0
 17 31  1  0  0  0  0
 18 32  1  0  0  0  0
M  END
>  <Mol_ID>
2764

>  <Formula>
C16H14O2

>  <MolWeight>
238.28116

>  <Cat>
S5167

>  <Name>
Benzyl cinnamate

>  <Synonyms>
Cinnamein, Benzylcinnamoate, Benzyl 3-phenylpropenoate, Cinnamic acid benzyl ester

>  <Target>
Others

>  <Form>
free base

>  <CAS>
103-41-3

>  <URL>
http://selleckchem.com/products/benzyl-cinnamate.html

$$$$
