S5175 (-)-Ambroxide.cdx
 OpenBabel08302520382D

 45 47  0  0  0  0  0  0  0  0999 V2000
    2.4279    3.4069    0.0000 C   0  0  2  0  0  0  0  0  0  0  0  0
    3.6384    4.1044    0.0000 C   0  0  2  0  0  0  0  0  0  0  0  0
    2.4279    2.0254    0.0000 C   0  0  2  0  0  0  0  0  0  0  0  0
    1.2139    4.1044    0.0000 C   0  0  0  0  0  0  0  0  0  0  0  0
    4.8524    3.4069    0.0000 C   0  0  1  0  0  0  0  0  0  0  0  0
    3.8697    5.4659    0.0000 C   0  0  0  0  0  0  0  0  0  0  0  0
    1.2139    1.3378    0.0000 C   0  0  0  0  0  0  0  0  0  0  0  0
    3.6384    1.3378    0.0000 C   0  0  0  0  0  0  0  0  0  0  0  0
    0.0000    3.4069    0.0000 C   0  0  0  0  0  0  0  0  0  0  0  0
    4.8524    2.0254    0.0000 C   0  0  0  0  0  0  0  0  0  0  0  0
    5.8784    4.3962    0.0000 O   0  0  0  0  0  0  0  0  0  0  0  0
    6.0293    2.5954    0.0000 C   0  0  0  0  0  0  0  0  0  0  0  0
    5.2715    5.6737    0.0000 C   0  0  0  0  0  0  0  0  0  0  0  0
    0.0000    2.0254    0.0000 C   0  0  0  0  0  0  0  0  0  0  0  0
    0.5197    0.0000    0.0000 C   0  0  0  0  0  0  0  0  0  0  0  0
    1.9549    0.0535    0.0000 C   0  0  0  0  0  0  0  0  0  0  0  0
    2.4279    4.8069    0.0000 C   0  0  0  0  0  0  0  0  0  0  0  0
    2.7603    4.7158    0.0000 H   0  0  0  0  0  0  0  0  0  0  0  0
    3.3527    2.5636    0.0000 H   0  0  0  0  0  0  0  0  0  0  0  0
    1.2139    5.1744    0.0000 H   0  0  0  0  0  0  0  0  0  0  0  0
    0.2878    4.6404    0.0000 H   0  0  0  0  0  0  0  0  0  0  0  0
    3.1211    6.2304    0.0000 H   0  0  0  0  0  0  0  0  0  0  0  0
    4.2107    6.4801    0.0000 H   0  0  0  0  0  0  0  0  0  0  0  0
    3.6377    0.2678    0.0000 H   0  0  0  0  0  0  0  0  0  0  0  0
    4.5627    0.7987    0.0000 H   0  0  0  0  0  0  0  0  0  0  0  0
   -0.9261    3.9429    0.0000 H   0  0  0  0  0  0  0  0  0  0  0  0
   -0.9269    2.8724    0.0000 H   0  0  0  0  0  0  0  0  0  0  0  0
    5.7768    1.4866    0.0000 H   0  0  0  0  0  0  0  0  0  0  0  0
    4.8458    0.9554    0.0000 H   0  0  0  0  0  0  0  0  0  0  0  0
    5.9437    1.5288    0.0000 H   0  0  0  0  0  0  0  0  0  0  0  0
    6.9958    3.0546    0.0000 H   0  0  0  0  0  0  0  0  0  0  0  0
    6.9102    1.9880    0.0000 H   0  0  0  0  0  0  0  0  0  0  0  0
    5.7751    6.6178    0.0000 H   0  0  0  0  0  0  0  0  0  0  0  0
    6.3412    5.6488    0.0000 H   0  0  0  0  0  0  0  0  0  0  0  0
   -0.9244    1.4866    0.0000 H   0  0  0  0  0  0  0  0  0  0  0  0
   -0.9277    2.5585    0.0000 H   0  0  0  0  0  0  0  0  0  0  0  0
   -0.5492   -0.0481    0.0000 H   0  0  0  0  0  0  0  0  0  0  0  0
    1.0958   -0.9017    0.0000 H   0  0  0  0  0  0  0  0  0  0  0  0
    0.0269   -0.9497    0.0000 H   0  0  0  0  0  0  0  0  0  0  0  0
    1.4196   -0.8730    0.0000 H   0  0  0  0  0  0  0  0  0  0  0  0
    3.0249    0.0532    0.0000 H   0  0  0  0  0  0  0  0  0  0  0  0
    2.4896   -0.8733    0.0000 H   0  0  0  0  0  0  0  0  0  0  0  0
    3.3545    5.3419    0.0000 H   0  0  0  0  0  0  0  0  0  0  0  0
    1.5013    5.3419    0.0000 H   0  0  0  0  0  0  0  0  0  0  0  0
    2.4279    5.8769    0.0000 H   0  0  0  0  0  0  0  0  0  0  0  0
  1  2  1  0  0  0  0
  1  3  1  0  0  0  0
  1  4  1  0  0  0  0
  1 17  1  1  0  0  0
  2  5  1  0  0  0  0
  2  6  1  0  0  0  0
  2 18  1  6  0  0  0
  3  7  1  0  0  0  0
  3  8  1  0  0  0  0
  3 19  1  6  0  0  0
  4  9  1  0  0  0  0
  4 20  1  0  0  0  0
  4 21  1  0  0  0  0
  5 10  1  0  0  0  0
  5 11  1  0  0  0  0
  5 12  1  1  0  0  0
  6 13  1  0  0  0  0
  6 22  1  0  0  0  0
  6 23  1  0  0  0  0
  7 14  1  0  0  0  0
  7 15  1  0  0  0  0
  7 16  1  0  0  0  0
  8 10  1  0  0  0  0
  8 24  1  0  0  0  0
  8 25  1  0  0  0  0
  9 14  1  0  0  0  0
  9 26  1  0  0  0  0
  9 27  1  0  0  0  0
 10 28  1  0  0  0  0
 10 29  1  0  0  0  0
 11 13  1  0  0  0  0
 12 30  1  0  0  0  0
 12 31  1  0  0  0  0
 12 32  1  0  0  0  0
 13 33  1  0  0  0  0
 13 34  1  0  0  0  0
 14 35  1  0  0  0  0
 14 36  1  0  0  0  0
 15 37  1  0  0  0  0
 15 38  1  0  0  0  0
 15 39  1  0  0  0  0
 16 40  1  0  0  0  0
 16 41  1  0  0  0  0
 16 42  1  0  0  0  0
 17 43  1  0  0  0  0
 17 44  1  0  0  0  0
 17 45  1  0  0  0  0
M  END
>  <Mol_ID>
2768

>  <Formula>
C16H28O

>  <MolWeight>
236.39292

>  <Cat>
S5175

>  <Name>
(-)-Ambroxide

>  <Synonyms>
N/A

>  <Target>
Others

>  <Form>
free base

>  <CAS>
6790-58-5

>  <URL>
http://selleckchem.com/products/ambroxide.html

$$$$
