S5171 Atrazine.cdx
 OpenBabel08302520003D

 28 28  0  0  0  0  0  0  0  0999 V2000
   -1.2805   -0.0471   -0.0838 C   0  0  0  0  0  0  0  0  0  0  0  0
   -0.5615   -1.1634   -0.0014 N   0  0  0  0  0  0  0  0  0  0  0  0
   -0.7653    1.1728   -0.0481 N   0  0  0  0  0  0  0  0  0  0  0  0
   -2.6531   -0.2252   -0.2309 N   0  0  0  0  0  0  0  0  0  0  0  0
    0.7548   -1.0103    0.1128 C   0  0  0  0  0  0  0  0  0  0  0  0
    0.5575    1.2110    0.0486 C   0  0  0  0  0  0  0  0  0  0  0  0
   -3.5117    0.7597    0.4214 C   0  0  0  0  0  0  0  0  0  0  0  0
    1.3694    0.1645    0.1264 N   0  0  0  0  0  0  0  0  0  0  0  0
    1.4880   -2.1842    0.2429 N   0  0  0  0  0  0  0  0  0  0  0  0
   -3.9154    1.8368   -0.5846 C   0  0  0  0  0  0  0  0  0  0  0  0
   -4.7664    0.0587    0.9528 C   0  0  0  0  0  0  0  0  0  0  0  0
    2.7987   -2.1753   -0.3814 C   0  0  0  0  0  0  0  0  0  0  0  0
    3.4558   -3.5353   -0.1933 C   0  0  0  0  0  0  0  0  0  0  0  0
   -2.8426   -1.1972   -0.0128 H   0  0  0  0  0  0  0  0  0  0  0  0
    1.0191    2.1917    0.0658 H   0  0  0  0  0  0  0  0  0  0  0  0
   -3.0113    1.2260    1.2800 H   0  0  0  0  0  0  0  0  0  0  0  0
    0.8739   -2.9388   -0.0424 H   0  0  0  0  0  0  0  0  0  0  0  0
   -4.4328    1.4016   -1.4468 H   0  0  0  0  0  0  0  0  0  0  0  0
   -4.5834    2.5711   -0.1224 H   0  0  0  0  0  0  0  0  0  0  0  0
   -3.0416    2.3753   -0.9664 H   0  0  0  0  0  0  0  0  0  0  0  0
   -4.4998   -0.7058    1.6915 H   0  0  0  0  0  0  0  0  0  0  0  0
   -5.4396    0.7713    1.4379 H   0  0  0  0  0  0  0  0  0  0  0  0
   -5.3186   -0.4380    0.1466 H   0  0  0  0  0  0  0  0  0  0  0  0
    2.7146   -1.9650   -1.4546 H   0  0  0  0  0  0  0  0  0  0  0  0
    3.4448   -1.4127    0.0696 H   0  0  0  0  0  0  0  0  0  0  0  0
    2.8795   -4.3223   -0.6917 H   0  0  0  0  0  0  0  0  0  0  0  0
    4.4664   -3.5356   -0.6148 H   0  0  0  0  0  0  0  0  0  0  0  0
    3.5278   -3.7955    0.8682 H   0  0  0  0  0  0  0  0  0  0  0  0
  1  2  2  0  0  0  0
  1  3  1  0  0  0  0
  1  4  1  0  0  0  0
  2  5  1  0  0  0  0
  3  6  2  0  0  0  0
  4  7  1  0  0  0  0
  4 14  1  0  0  0  0
  5  8  2  0  0  0  0
  5  9  1  0  0  0  0
  6  8  1  0  0  0  0
  6 15  1  0  0  0  0
  7 10  1  0  0  0  0
  7 11  1  0  0  0  0
  7 16  1  0  0  0  0
  9 12  1  0  0  0  0
  9 17  1  0  0  0  0
 10 18  1  0  0  0  0
 10 19  1  0  0  0  0
 10 20  1  0  0  0  0
 11 21  1  0  0  0  0
 11 22  1  0  0  0  0
 11 23  1  0  0  0  0
 12 13  1  0  0  0  0
 12 24  1  0  0  0  0
 12 25  1  0  0  0  0
 13 26  1  0  0  0  0
 13 27  1  0  0  0  0
 13 28  1  0  0  0  0
M  END
>  <Mol_ID>
2766

>  <Formula>
C8H14ClN5

>  <MolWeight>
215.68326

>  <Cat>
S5171

>  <Name>
Atrazine

>  <Synonyms>
Chromozin, Oleogesaprim, Aktikon, Gesaprim

>  <Target>
AP-1

>  <Form>
free base

>  <CAS>
1912-24-9

>  <URL>
http://selleckchem.com/products/atrazine.html

$$$$
