S5173 2'-Hydroxy-4'-methylacetophenone.cdx
 OpenBabel08302519563D

 21 21  0  0  0  0  0  0  0  0999 V2000
   -1.1623   -1.0942   -0.0442 C   0  0  0  0  0  0  0  0  0  0  0  0
   -1.1779    0.3018   -0.0884 C   0  0  0  0  0  0  0  0  0  0  0  0
    0.0735   -1.7534    0.0218 C   0  0  0  0  0  0  0  0  0  0  0  0
   -2.3804   -1.9517   -0.0348 C   0  0  0  0  0  0  0  0  0  0  0  0
    0.0174    1.0242   -0.1105 C   0  0  0  0  0  0  0  0  0  0  0  0
   -2.3201    1.0510   -0.0580 O   0  0  0  0  0  0  0  0  0  0  0  0
    1.2693   -1.0319    0.0214 C   0  0  0  0  0  0  0  0  0  0  0  0
   -3.6091   -1.5346   -0.7969 C   0  0  0  0  0  0  0  0  0  0  0  0
   -2.3566   -3.0140    0.5837 O   0  0  0  0  0  0  0  0  0  0  0  0
    1.2505    0.3639   -0.0452 C   0  0  0  0  0  0  0  0  0  0  0  0
    2.5250    1.1569   -0.0121 C   0  0  0  0  0  0  0  0  0  0  0  0
    0.1121   -2.8414    0.0724 H   0  0  0  0  0  0  0  0  0  0  0  0
   -0.0178    2.1118   -0.1465 H   0  0  0  0  0  0  0  0  0  0  0  0
   -2.8609    0.7303    0.6855 H   0  0  0  0  0  0  0  0  0  0  0  0
    2.2150   -1.5696    0.0822 H   0  0  0  0  0  0  0  0  0  0  0  0
   -3.9259   -2.3692   -1.4306 H   0  0  0  0  0  0  0  0  0  0  0  0
   -4.4044   -1.2945   -0.0863 H   0  0  0  0  0  0  0  0  0  0  0  0
   -3.4328   -0.6815   -1.4539 H   0  0  0  0  0  0  0  0  0  0  0  0
    2.6004    1.7918   -0.9003 H   0  0  0  0  0  0  0  0  0  0  0  0
    2.5529    1.7852    0.8843 H   0  0  0  0  0  0  0  0  0  0  0  0
    3.4036    0.5034    0.0088 H   0  0  0  0  0  0  0  0  0  0  0  0
  1  2  2  0  0  0  0
  1  3  1  0  0  0  0
  1  4  1  0  0  0  0
  2  5  1  0  0  0  0
  2  6  1  0  0  0  0
  3  7  2  0  0  0  0
  3 12  1  0  0  0  0
  4  8  1  0  0  0  0
  4  9  2  0  0  0  0
  5 10  2  0  0  0  0
  5 13  1  0  0  0  0
  6 14  1  0  0  0  0
  7 10  1  0  0  0  0
  7 15  1  0  0  0  0
  8 16  1  0  0  0  0
  8 17  1  0  0  0  0
  8 18  1  0  0  0  0
 10 11  1  0  0  0  0
 11 19  1  0  0  0  0
 11 20  1  0  0  0  0
 11 21  1  0  0  0  0
M  END
>  <Mol_ID>
2227

>  <Formula>
C9H10O2

>  <MolWeight>
150.1745

>  <Cat>
S5173

>  <Name>
2'-Hydroxy-4'-methylacetophenone

>  <Synonyms>
N/A

>  <Target>
Others

>  <Form>
free base

>  <CAS>
6921-64-8

>  <URL>
http://selleckchem.com/products/2-hydroxy-4-methylacetophenone.html

$$$$
