S5174 Kojic acid.cdx
 OpenBabel08302520003D

 16 16  0  0  0  0  0  0  0  0999 V2000
   -1.8604   -0.5479   -0.0341 O   0  0  0  0  0  0  0  0  0  0  0  0
   -0.7003   -1.2888   -0.0105 C   0  0  0  0  0  0  0  0  0  0  0  0
    0.5316   -0.7745    0.0086 C   0  0  0  0  0  0  0  0  0  0  0  0
    1.6695   -1.5515    0.0200 O   0  0  0  0  0  0  0  0  0  0  0  0
    0.6661    0.7025    0.0122 C   0  0  0  0  0  0  0  0  0  0  0  0
    1.7730    1.2277    0.0181 O   0  0  0  0  0  0  0  0  0  0  0  0
   -0.5810    1.4848    0.0001 C   0  0  0  0  0  0  0  0  0  0  0  0
   -1.7592    0.8399   -0.0251 C   0  0  0  0  0  0  0  0  0  0  0  0
   -3.0727    1.5651   -0.0548 C   0  0  0  0  0  0  0  0  0  0  0  0
   -3.8415    1.2240    1.0902 O   0  0  0  0  0  0  0  0  0  0  0  0
   -0.9057   -2.3508   -0.0113 H   0  0  0  0  0  0  0  0  0  0  0  0
    2.4134   -0.9113    0.0184 H   0  0  0  0  0  0  0  0  0  0  0  0
   -0.4883    2.5630    0.0142 H   0  0  0  0  0  0  0  0  0  0  0  0
   -2.9330    2.6510   -0.0536 H   0  0  0  0  0  0  0  0  0  0  0  0
   -3.6430    1.3018   -0.9513 H   0  0  0  0  0  0  0  0  0  0  0  0
   -3.8936    0.2526    1.1150 H   0  0  0  0  0  0  0  0  0  0  0  0
  1  2  1  0  0  0  0
  1  8  1  0  0  0  0
  2  3  2  0  0  0  0
  2 11  1  0  0  0  0
  3  4  1  0  0  0  0
  3  5  1  0  0  0  0
  4 12  1  0  0  0  0
  5  6  2  0  0  0  0
  5  7  1  0  0  0  0
  7  8  2  0  0  0  0
  7 13  1  0  0  0  0
  8  9  1  0  0  0  0
  9 10  1  0  0  0  0
  9 14  1  0  0  0  0
  9 15  1  0  0  0  0
 10 16  1  0  0  0  0
M  END
>  <Mol_ID>
2767

>  <Formula>
C6H6O4

>  <MolWeight>
142.10944

>  <Cat>
S5174

>  <Name>
Kojic acid

>  <Synonyms>
N/A

>  <Target>
Fungal,Tyrosinase

>  <Form>
free base

>  <CAS>
501-30-4

>  <URL>
http://selleckchem.com/products/kojic-acid.html

$$$$
