S5200 Diaveridine.cdx
 OpenBabel08302520003D

 35 36  0  0  0  0  0  0  0  0999 V2000
    1.2690   -0.1726    0.0818 C   0  0  0  0  0  0  0  0  0  0  0  0
    2.7796   -0.3024    0.1416 C   0  0  0  0  0  0  0  0  0  0  0  0
    0.4507   -1.3165    0.0318 C   0  0  0  0  0  0  0  0  0  0  0  0
    0.6657    1.0872    0.0717 C   0  0  0  0  0  0  0  0  0  0  0  0
    3.5125   -0.4232   -1.1667 C   0  0  0  0  0  0  0  0  0  0  0  0
   -0.9525   -1.2177   -0.0070 C   0  0  0  0  0  0  0  0  0  0  0  0
   -0.7244    1.1958    0.0321 C   0  0  0  0  0  0  0  0  0  0  0  0
    4.8944   -0.5099   -1.2296 C   0  0  0  0  0  0  0  0  0  0  0  0
    2.8929   -0.4454   -2.4004 C   0  0  0  0  0  0  0  0  0  0  0  0
   -1.5413    0.0579   -0.0151 C   0  0  0  0  0  0  0  0  0  0  0  0
   -1.7830   -2.3069   -0.0064 O   0  0  0  0  0  0  0  0  0  0  0  0
    5.5812   -0.5977   -2.3791 N   0  0  0  0  0  0  0  0  0  0  0  0
    5.6883   -0.4888   -0.0805 N   0  0  0  0  0  0  0  0  0  0  0  0
    3.5460   -0.5531   -3.5738 N   0  0  0  0  0  0  0  0  0  0  0  0
   -2.8784    0.3652    0.0008 O   0  0  0  0  0  0  0  0  0  0  0  0
   -1.1981   -3.6002    0.0652 C   0  0  0  0  0  0  0  0  0  0  0  0
    4.8716   -0.6367   -3.5066 C   0  0  0  0  0  0  0  0  0  0  0  0
   -3.7695   -0.5398   -0.6368 C   0  0  0  0  0  0  0  0  0  0  0  0
    5.5624   -0.7284   -4.6986 N   0  0  0  0  0  0  0  0  0  0  0  0
    3.1737    0.5648    0.6891 H   0  0  0  0  0  0  0  0  0  0  0  0
    3.0147   -1.1812    0.7576 H   0  0  0  0  0  0  0  0  0  0  0  0
    0.9400   -2.2860    0.0368 H   0  0  0  0  0  0  0  0  0  0  0  0
    1.2668    1.9933    0.1060 H   0  0  0  0  0  0  0  0  0  0  0  0
   -1.1853    2.1815    0.0386 H   0  0  0  0  0  0  0  0  0  0  0  0
    1.8131   -0.3749   -2.5072 H   0  0  0  0  0  0  0  0  0  0  0  0
    6.6524   -0.5794   -0.3969 H   0  0  0  0  0  0  0  0  0  0  0  0
    5.4504   -1.2457    0.5523 H   0  0  0  0  0  0  0  0  0  0  0  0
   -0.5985   -3.8089   -0.8268 H   0  0  0  0  0  0  0  0  0  0  0  0
   -0.6075   -3.7203    0.9795 H   0  0  0  0  0  0  0  0  0  0  0  0
   -2.0102   -4.3329    0.0987 H   0  0  0  0  0  0  0  0  0  0  0  0
   -3.4107   -0.8345   -1.6284 H   0  0  0  0  0  0  0  0  0  0  0  0
   -3.9761   -1.4072   -0.0040 H   0  0  0  0  0  0  0  0  0  0  0  0
   -4.7226   -0.0174   -0.7731 H   0  0  0  0  0  0  0  0  0  0  0  0
    6.4869   -0.3363   -4.5844 H   0  0  0  0  0  0  0  0  0  0  0  0
    4.9898   -0.3519   -5.4414 H   0  0  0  0  0  0  0  0  0  0  0  0
  1  2  1  0  0  0  0
  1  3  2  0  0  0  0
  1  4  1  0  0  0  0
  2  5  1  0  0  0  0
  2 20  1  0  0  0  0
  2 21  1  0  0  0  0
  3  6  1  0  0  0  0
  3 22  1  0  0  0  0
  4  7  2  0  0  0  0
  4 23  1  0  0  0  0
  5  8  2  0  0  0  0
  5  9  1  0  0  0  0
  6 10  2  0  0  0  0
  6 11  1  0  0  0  0
  7 10  1  0  0  0  0
  7 24  1  0  0  0  0
  8 12  1  0  0  0  0
  8 13  1  0  0  0  0
  9 14  2  0  0  0  0
  9 25  1  0  0  0  0
 10 15  1  0  0  0  0
 11 16  1  0  0  0  0
 12 17  2  0  0  0  0
 13 26  1  0  0  0  0
 13 27  1  0  0  0  0
 14 17  1  0  0  0  0
 15 18  1  0  0  0  0
 16 28  1  0  0  0  0
 16 29  1  0  0  0  0
 16 30  1  0  0  0  0
 17 19  1  0  0  0  0
 18 31  1  0  0  0  0
 18 32  1  0  0  0  0
 18 33  1  0  0  0  0
 19 34  1  0  0  0  0
 19 35  1  0  0  0  0
M  END
>  <Mol_ID>
2807

>  <Formula>
C13H16N4O2

>  <MolWeight>
260.29174

>  <Cat>
S5200

>  <Name>
Diaveridine

>  <Synonyms>
AI3-23935, CCRIS-3784

>  <Target>
DHFR

>  <Form>
free base

>  <CAS>
5355-16-8

>  <URL>
http://selleckchem.com/products/diaveridine.html

$$$$
