S5215 Abacavir.cdx
 OpenBabel08302520013D

 39 42  0  0  0  0  0  0  0  0999 V2000
    0.3802    0.5562   -0.1201 C   0  0  0  0  0  0  0  0  0  0  0  0
    0.3165   -0.8273   -0.0121 C   0  0  0  0  0  0  0  0  0  0  0  0
   -0.8331    1.2704   -0.1291 C   0  0  0  0  0  0  0  0  0  0  0  0
    1.6851    0.9889   -0.2389 N   0  0  0  0  0  0  0  0  0  0  0  0
    1.6209   -1.2488   -0.0834 N   0  0  0  0  0  0  0  0  0  0  0  0
   -0.8078   -1.5577    0.1033 N   0  0  0  0  0  0  0  0  0  0  0  0
   -0.8573    2.6785   -0.2594 N   0  0  0  0  0  0  0  0  0  0  0  0
   -1.9792    0.5519   -0.0004 N   0  0  0  0  0  0  0  0  0  0  0  0
    2.3975   -0.1183   -0.2037 C   0  0  0  0  0  0  0  0  0  0  0  0
    2.1867   -2.5818   -0.2464 C   0  0  2  0  0  0  0  0  0  0  0  0
   -1.9120   -0.7848    0.1405 C   0  0  0  0  0  0  0  0  0  0  0  0
   -2.0392    3.3502   -0.7942 C   0  0  0  0  0  0  0  0  0  0  0  0
    1.7763   -3.2854   -1.5503 C   0  0  0  0  0  0  0  0  0  0  0  0
    1.9488   -3.6025    0.8177 C   0  0  0  0  0  0  0  0  0  0  0  0
   -3.1290   -1.4187    0.2999 N   0  0  0  0  0  0  0  0  0  0  0  0
   -2.0981    3.7573   -2.2411 C   0  0  0  0  0  0  0  0  0  0  0  0
   -2.0088    4.8068   -1.1738 C   0  0  0  0  0  0  0  0  0  0  0  0
    1.5159   -4.7619   -1.2006 C   0  0  1  0  0  0  0  0  0  0  0  0
    1.6834   -4.8040    0.2905 C   0  0  0  0  0  0  0  0  0  0  0  0
    0.0999   -5.1964   -1.5967 C   0  0  0  0  0  0  0  0  0  0  0  0
   -0.0948   -6.5870   -1.3534 O   0  0  0  0  0  0  0  0  0  0  0  0
    0.0713    3.0231   -0.4953 H   0  0  0  0  0  0  0  0  0  0  0  0
    3.4754   -0.1636   -0.2972 H   0  0  0  0  0  0  0  0  0  0  0  0
    3.2752   -2.4381   -0.2663 H   0  0  0  0  0  0  0  0  0  0  0  0
   -2.9622    3.0131   -0.3265 H   0  0  0  0  0  0  0  0  0  0  0  0
    0.9064   -2.8181   -2.0251 H   0  0  0  0  0  0  0  0  0  0  0  0
    2.5970   -3.2099   -2.2762 H   0  0  0  0  0  0  0  0  0  0  0  0
    2.1024   -3.4358    1.8767 H   0  0  0  0  0  0  0  0  0  0  0  0
   -3.0750   -2.3798   -0.0137 H   0  0  0  0  0  0  0  0  0  0  0  0
   -3.8666   -0.8365   -0.0683 H   0  0  0  0  0  0  0  0  0  0  0  0
   -1.2251    3.5941   -2.8607 H   0  0  0  0  0  0  0  0  0  0  0  0
   -3.0413    3.6370   -2.7604 H   0  0  0  0  0  0  0  0  0  0  0  0
   -2.8960    5.4042   -0.9884 H   0  0  0  0  0  0  0  0  0  0  0  0
   -1.0815    5.3577   -1.0758 H   0  0  0  0  0  0  0  0  0  0  0  0
    2.2606   -5.4105   -1.6778 H   0  0  0  0  0  0  0  0  0  0  0  0
    1.5757   -5.7234    0.8551 H   0  0  0  0  0  0  0  0  0  0  0  0
   -0.6536   -4.6475   -1.0209 H   0  0  0  0  0  0  0  0  0  0  0  0
   -0.0867   -5.0100   -2.6589 H   0  0  0  0  0  0  0  0  0  0  0  0
    0.4293   -7.0786   -2.0070 H   0  0  0  0  0  0  0  0  0  0  0  0
  1  2  2  0  0  0  0
  1  3  1  0  0  0  0
  1  4  1  0  0  0  0
  2  5  1  0  0  0  0
  2  6  1  0  0  0  0
  3  7  1  0  0  0  0
  3  8  2  0  0  0  0
  4  9  2  0  0  0  0
  5  9  1  0  0  0  0
  6 11  2  0  0  0  0
  7 12  1  0  0  0  0
  7 22  1  0  0  0  0
  8 11  1  0  0  0  0
  9 23  1  0  0  0  0
 10  5  1  0  0  0  0
 10 13  1  0  0  0  0
 10 14  1  0  0  0  0
 10 24  1  6  0  0  0
 11 15  1  0  0  0  0
 12 16  1  0  0  0  0
 12 17  1  0  0  0  0
 12 25  1  0  0  0  0
 13 18  1  0  0  0  0
 13 26  1  0  0  0  0
 13 27  1  0  0  0  0
 14 19  2  0  0  0  0
 14 28  1  0  0  0  0
 15 29  1  0  0  0  0
 15 30  1  0  0  0  0
 16 17  1  0  0  0  0
 16 31  1  0  0  0  0
 16 32  1  0  0  0  0
 17 33  1  0  0  0  0
 17 34  1  0  0  0  0
 18 20  1  0  0  0  0
 18 19  1  0  0  0  0
 18 35  1  6  0  0  0
 19 36  1  0  0  0  0
 20 21  1  0  0  0  0
 20 37  1  0  0  0  0
 20 38  1  0  0  0  0
 21 39  1  0  0  0  0
M  END
>  <Mol_ID>
2896

>  <Formula>
C14H18N6O

>  <MolWeight>
286.33232

>  <Cat>
S5215

>  <Name>
Abacavir (1592U89)

>  <Synonyms>
N/A

>  <Target>
Reverse Transcriptase

>  <Form>
free base

>  <CAS>
136470-78-5

>  <URL>
http://selleckchem.com/products/abacavir.html

$$$$
