S5221 Diludine.cdx
 OpenBabel08302520293D

 37 37  0  0  0  0  0  0  0  0999 V2000
   -1.4114   -1.0024    0.2849 C   0  0  0  0  0  0  0  0  0  0  0  0
   -0.0692   -1.7118    0.2462 C   0  0  0  0  0  0  0  0  0  0  0  0
   -1.4784    0.3310    0.0889 C   0  0  0  0  0  0  0  0  0  0  0  0
   -2.5656   -1.9057    0.5754 C   0  0  0  0  0  0  0  0  0  0  0  0
    1.1456   -0.7860    0.3586 C   0  0  0  0  0  0  0  0  0  0  0  0
   -0.3020    1.0473   -0.0428 N   0  0  0  0  0  0  0  0  0  0  0  0
   -2.7198    1.1887    0.0145 C   0  0  0  0  0  0  0  0  0  0  0  0
   -3.5766   -1.2304    1.1736 O   0  0  0  0  0  0  0  0  0  0  0  0
   -2.5377   -3.1121    0.3779 O   0  0  0  0  0  0  0  0  0  0  0  0
    0.9656    0.5532    0.2352 C   0  0  0  0  0  0  0  0  0  0  0  0
    2.4600   -1.4413    0.6547 C   0  0  0  0  0  0  0  0  0  0  0  0
   -4.7228   -1.9893    1.5845 C   0  0  0  0  0  0  0  0  0  0  0  0
    1.9893    1.6467    0.4069 C   0  0  0  0  0  0  0  0  0  0  0  0
    2.3274   -2.7963    0.6108 O   0  0  0  0  0  0  0  0  0  0  0  0
    3.4985   -0.8595    0.9211 O   0  0  0  0  0  0  0  0  0  0  0  0
   -5.6801   -2.2162    0.4277 C   0  0  0  0  0  0  0  0  0  0  0  0
    3.4466   -3.5717    1.0757 C   0  0  0  0  0  0  0  0  0  0  0  0
    4.3358   -4.0018   -0.0772 C   0  0  0  0  0  0  0  0  0  0  0  0
   -0.0340   -2.4265    1.0799 H   0  0  0  0  0  0  0  0  0  0  0  0
    0.0113   -2.2808   -0.6906 H   0  0  0  0  0  0  0  0  0  0  0  0
   -0.3914    2.0584   -0.1121 H   0  0  0  0  0  0  0  0  0  0  0  0
   -2.7633    1.8451    0.8906 H   0  0  0  0  0  0  0  0  0  0  0  0
   -2.6766    1.8216   -0.8795 H   0  0  0  0  0  0  0  0  0  0  0  0
   -3.6578    0.6407   -0.0563 H   0  0  0  0  0  0  0  0  0  0  0  0
   -4.4136   -2.9326    2.0462 H   0  0  0  0  0  0  0  0  0  0  0  0
   -5.2293   -1.4009    2.3582 H   0  0  0  0  0  0  0  0  0  0  0  0
    2.0048    2.2930   -0.4749 H   0  0  0  0  0  0  0  0  0  0  0  0
    1.6991    2.2702    1.2655 H   0  0  0  0  0  0  0  0  0  0  0  0
    3.0099    1.3151    0.5869 H   0  0  0  0  0  0  0  0  0  0  0  0
   -5.1578   -2.5344   -0.4791 H   0  0  0  0  0  0  0  0  0  0  0  0
   -6.4271   -2.9707    0.6924 H   0  0  0  0  0  0  0  0  0  0  0  0
   -6.2094   -1.2888    0.1825 H   0  0  0  0  0  0  0  0  0  0  0  0
    4.0217   -3.0321    1.8362 H   0  0  0  0  0  0  0  0  0  0  0  0
    3.0380   -4.4643    1.5653 H   0  0  0  0  0  0  0  0  0  0  0  0
    4.5820   -3.1606   -0.7309 H   0  0  0  0  0  0  0  0  0  0  0  0
    5.2646   -4.4454    0.2975 H   0  0  0  0  0  0  0  0  0  0  0  0
    3.8289   -4.7533   -0.6923 H   0  0  0  0  0  0  0  0  0  0  0  0
  1  2  1  0  0  0  0
  1  3  2  0  0  0  0
  1  4  1  0  0  0  0
  2  5  1  0  0  0  0
  2 19  1  0  0  0  0
  2 20  1  0  0  0  0
  3  6  1  0  0  0  0
  3  7  1  0  0  0  0
  4  8  1  0  0  0  0
  4  9  2  0  0  0  0
  5 10  2  0  0  0  0
  5 11  1  0  0  0  0
  6 10  1  0  0  0  0
  6 21  1  0  0  0  0
  7 22  1  0  0  0  0
  7 23  1  0  0  0  0
  7 24  1  0  0  0  0
  8 12  1  0  0  0  0
 10 13  1  0  0  0  0
 11 14  1  0  0  0  0
 11 15  2  0  0  0  0
 12 16  1  0  0  0  0
 12 25  1  0  0  0  0
 12 26  1  0  0  0  0
 13 27  1  0  0  0  0
 13 28  1  0  0  0  0
 13 29  1  0  0  0  0
 14 17  1  0  0  0  0
 16 30  1  0  0  0  0
 16 31  1  0  0  0  0
 16 32  1  0  0  0  0
 17 18  1  0  0  0  0
 17 33  1  0  0  0  0
 17 34  1  0  0  0  0
 18 35  1  0  0  0  0
 18 36  1  0  0  0  0
 18 37  1  0  0  0  0
M  END
>  <Mol_ID>
3224

>  <Formula>
C13H19NO4

>  <MolWeight>
253.29426

>  <Cat>
S5221

>  <Name>
Diludine

>  <Synonyms>
Ethidine, Diethone

>  <Target>
Others

>  <Form>
Esters

>  <CAS>
1149-23-1

>  <URL>
https://www.selleckchem.com/products/diludine.html

$$$$
