S5226 L-carnosine.cdx
 OpenBabel08302521383D

 30 30  0  0  0  0  0  0  0  0999 V2000
    0.8035    0.0292   -0.0568 C   0  0  2  0  0  0  0  0  0  0  0  0
    0.5108    1.3229    0.7096 C   0  0  0  0  0  0  0  0  0  0  0  0
    0.0431   -0.0439   -1.3287 N   0  0  0  0  0  0  0  0  0  0  0  0
    0.4374   -1.1379    0.8692 C   0  0  0  0  0  0  0  0  0  0  0  0
    0.9119    2.5263   -0.0660 C   0  0  0  0  0  0  0  0  0  0  0  0
    0.5693   -0.7561   -2.3949 C   0  0  0  0  0  0  0  0  0  0  0  0
   -0.5882   -1.8946    0.4056 O   0  0  0  0  0  0  0  0  0  0  0  0
    0.9522   -1.3370    1.9607 O   0  0  0  0  0  0  0  0  0  0  0  0
    2.0893    3.2384   -0.0287 C   0  0  0  0  0  0  0  0  0  0  0  0
    0.0546    3.0643   -1.0006 N   0  0  0  0  0  0  0  0  0  0  0  0
   -0.2313   -0.6016   -3.6700 C   0  0  0  0  0  0  0  0  0  0  0  0
    1.5399   -1.4936   -2.2781 O   0  0  0  0  0  0  0  0  0  0  0  0
    1.9255    4.2480   -0.9325 N   0  0  0  0  0  0  0  0  0  0  0  0
    0.6807    4.1137   -1.4799 C   0  0  0  0  0  0  0  0  0  0  0  0
    0.3844   -1.4041   -4.8122 C   0  0  0  0  0  0  0  0  0  0  0  0
   -0.4516   -1.3262   -6.0109 N   0  0  0  0  0  0  0  0  0  0  0  0
    1.8728   -0.0554   -0.2883 H   0  0  0  0  0  0  0  0  0  0  0  0
   -0.5609    1.3892    0.9397 H   0  0  0  0  0  0  0  0  0  0  0  0
    1.0337    1.3242    1.6740 H   0  0  0  0  0  0  0  0  0  0  0  0
   -0.4426    0.8183   -1.5847 H   0  0  0  0  0  0  0  0  0  0  0  0
   -0.8444   -1.5637   -0.4803 H   0  0  0  0  0  0  0  0  0  0  0  0
    2.9973    3.1175    0.5480 H   0  0  0  0  0  0  0  0  0  0  0  0
   -1.2487   -0.9580   -3.4667 H   0  0  0  0  0  0  0  0  0  0  0  0
   -0.2830    0.4612   -3.9330 H   0  0  0  0  0  0  0  0  0  0  0  0
    2.5927    4.9762   -1.1480 H   0  0  0  0  0  0  0  0  0  0  0  0
    0.2947    4.8082   -2.2147 H   0  0  0  0  0  0  0  0  0  0  0  0
    1.3829   -1.0187   -5.0482 H   0  0  0  0  0  0  0  0  0  0  0  0
    0.5009   -2.4550   -4.5249 H   0  0  0  0  0  0  0  0  0  0  0  0
   -0.0725   -1.9593   -6.7165 H   0  0  0  0  0  0  0  0  0  0  0  0
   -1.3874   -1.6741   -5.8042 H   0  0  0  0  0  0  0  0  0  0  0  0
  1  2  1  0  0  0  0
  1  3  1  0  0  0  0
  1  4  1  0  0  0  0
  1 17  1  6  0  0  0
  2  5  1  0  0  0  0
  2 18  1  0  0  0  0
  2 19  1  0  0  0  0
  3  6  1  0  0  0  0
  3 20  1  0  0  0  0
  4  7  1  0  0  0  0
  4  8  2  0  0  0  0
  5  9  2  0  0  0  0
  5 10  1  0  0  0  0
  6 11  1  0  0  0  0
  6 12  2  0  0  0  0
  7 21  1  0  0  0  0
  9 13  1  0  0  0  0
  9 22  1  0  0  0  0
 10 14  2  0  0  0  0
 11 15  1  0  0  0  0
 11 23  1  0  0  0  0
 11 24  1  0  0  0  0
 13 14  1  0  0  0  0
 13 25  1  0  0  0  0
 14 26  1  0  0  0  0
 15 16  1  0  0  0  0
 15 27  1  0  0  0  0
 15 28  1  0  0  0  0
 16 29  1  0  0  0  0
 16 30  1  0  0  0  0
M  END
>  <Mol_ID>
7819

>  <Formula>
C9H14N4O3

>  <MolWeight>
226.23246

>  <Cat>
S5226

>  <Name>
L-carnosine

>  <Synonyms>
Karnozin

>  <Target>
Others

>  <Form>
free base

>  <CAS>
305-84-0

>  <URL>
http://selleckchem.com/products/l-carnosine.html

$$$$
