S5224 Adrafinil.cdx
 OpenBabel08302520013D

 35 36  0  0  0  0  0  0  0  0999 V2000
    0.8030   -0.0053    0.0094 C   0  0  0  0  0  0  0  0  0  0  0  0
    0.4926   -1.3625    0.6607 C   0  0  0  0  0  0  0  0  0  0  0  0
    0.5887    1.2424    0.8798 C   0  0  0  0  0  0  0  0  0  0  0  0
    0.0910    0.0549   -1.7299 S   0  0  3  0  0  0  0  0  0  0  0  0
   -0.7620   -1.6479    1.2300 C   0  0  0  0  0  0  0  0  0  0  0  0
    1.4723   -2.3682    0.7185 C   0  0  0  0  0  0  0  0  0  0  0  0
    0.1619    1.1746    2.2211 C   0  0  0  0  0  0  0  0  0  0  0  0
    0.9379    2.5172    0.3970 C   0  0  0  0  0  0  0  0  0  0  0  0
   -1.6660   -0.0316   -1.3432 C   0  0  0  0  0  0  0  0  0  0  0  0
    0.3552    1.3897   -2.3673 O   0  0  0  0  0  0  0  0  0  0  0  0
   -1.0475   -2.8809    1.8088 C   0  0  0  0  0  0  0  0  0  0  0  0
    1.1919   -3.6046    1.3121 C   0  0  0  0  0  0  0  0  0  0  0  0
   -0.0286    2.3203    2.9980 C   0  0  0  0  0  0  0  0  0  0  0  0
    0.7651    3.6668    1.1761 C   0  0  0  0  0  0  0  0  0  0  0  0
   -2.5493    0.0279   -2.5609 C   0  0  0  0  0  0  0  0  0  0  0  0
   -0.0671   -3.8621    1.8512 C   0  0  0  0  0  0  0  0  0  0  0  0
    0.2594    3.5693    2.4675 C   0  0  0  0  0  0  0  0  0  0  0  0
   -2.5258    1.2040   -3.2682 N   0  0  0  0  0  0  0  0  0  0  0  0
   -3.3234   -0.8849   -2.8585 O   0  0  0  0  0  0  0  0  0  0  0  0
   -3.3529    1.2083   -4.4212 O   0  0  0  0  0  0  0  0  0  0  0  0
    1.8844   -0.0048   -0.1884 H   0  0  0  0  0  0  0  0  0  0  0  0
   -1.5493   -0.8920    1.2492 H   0  0  0  0  0  0  0  0  0  0  0  0
    2.4698   -2.2005    0.3156 H   0  0  0  0  0  0  0  0  0  0  0  0
   -0.0182    0.2263    2.7192 H   0  0  0  0  0  0  0  0  0  0  0  0
    1.3698    2.6394   -0.5955 H   0  0  0  0  0  0  0  0  0  0  0  0
   -1.8687   -1.0078   -0.9039 H   0  0  0  0  0  0  0  0  0  0  0  0
   -1.9483    0.7621   -0.6475 H   0  0  0  0  0  0  0  0  0  0  0  0
   -2.0305   -3.0656    2.2345 H   0  0  0  0  0  0  0  0  0  0  0  0
    1.9610   -4.3713    1.3605 H   0  0  0  0  0  0  0  0  0  0  0  0
   -0.3942    2.2291    4.0186 H   0  0  0  0  0  0  0  0  0  0  0  0
    1.0355    4.6401    0.7725 H   0  0  0  0  0  0  0  0  0  0  0  0
   -0.2830   -4.8228    2.3113 H   0  0  0  0  0  0  0  0  0  0  0  0
    0.1127    4.4640    3.0673 H   0  0  0  0  0  0  0  0  0  0  0  0
   -1.6605    1.7470   -3.3267 H   0  0  0  0  0  0  0  0  0  0  0  0
   -3.8262    0.3494   -4.3457 H   0  0  0  0  0  0  0  0  0  0  0  0
  1  2  1  0  0  0  0
  1  3  1  0  0  0  0
  1  4  1  0  0  0  0
  1 21  1  0  0  0  0
  2  5  2  0  0  0  0
  2  6  1  0  0  0  0
  3  7  2  0  0  0  0
  3  8  1  0  0  0  0
  4  9  1  0  0  0  0
  4 10  2  0  0  0  0
  5 11  1  0  0  0  0
  5 22  1  0  0  0  0
  6 12  2  0  0  0  0
  6 23  1  0  0  0  0
  7 13  1  0  0  0  0
  7 24  1  0  0  0  0
  8 14  2  0  0  0  0
  8 25  1  0  0  0  0
  9 15  1  0  0  0  0
  9 26  1  0  0  0  0
  9 27  1  0  0  0  0
 11 16  2  0  0  0  0
 11 28  1  0  0  0  0
 12 16  1  0  0  0  0
 12 29  1  0  0  0  0
 13 17  2  0  0  0  0
 13 30  1  0  0  0  0
 14 17  1  0  0  0  0
 14 31  1  0  0  0  0
 15 18  1  0  0  0  0
 15 19  2  0  0  0  0
 16 32  1  0  0  0  0
 17 33  1  0  0  0  0
 18 20  1  0  0  0  0
 18 34  1  0  0  0  0
 20 35  1  0  0  0  0
M  END
>  <Mol_ID>
2873

>  <Formula>
C15H15NO3S

>  <MolWeight>
289.3495

>  <Cat>
S5224

>  <Name>
Adrafinil

>  <Synonyms>
benzhydrylsulfinylacetohydroxamic acid, adrafinyl, CRL-40028

>  <Target>
Others

>  <Form>
free base

>  <CAS>
63547-13-7

>  <URL>
http://selleckchem.com/products/adrafinil.html

$$$$
