S5222 Coluracetam.cdx
 OpenBabel08302520013D

 48 51  0  0  0  0  0  0  0  0999 V2000
   -0.1200    1.5471   -0.0406 C   0  0  0  0  0  0  0  0  0  0  0  0
   -1.3839    0.9065    0.0330 C   0  0  0  0  0  0  0  0  0  0  0  0
    1.0324    0.7282   -0.1688 C   0  0  0  0  0  0  0  0  0  0  0  0
   -0.0512    2.9494    0.1633 N   0  0  0  0  0  0  0  0  0  0  0  0
   -1.3855   -0.4847    0.0019 C   0  0  0  0  0  0  0  0  0  0  0  0
   -2.7734    1.2889    0.0838 C   0  0  0  0  0  0  0  0  0  0  0  0
    0.8594   -0.6700   -0.1091 C   0  0  0  0  0  0  0  0  0  0  0  0
    2.4274    1.3113   -0.2343 C   0  0  0  0  0  0  0  0  0  0  0  0
    0.4472    3.8633   -0.7553 C   0  0  0  0  0  0  0  0  0  0  0  0
   -0.3301   -1.3028   -0.0442 N   0  0  0  0  0  0  0  0  0  0  0  0
   -2.6552   -0.9616    0.0308 O   0  0  0  0  0  0  0  0  0  0  0  0
   -3.4927    0.1034    0.0581 C   0  0  0  0  0  0  0  0  0  0  0  0
   -3.3499    2.6551    0.0872 C   0  0  0  0  0  0  0  0  0  0  0  0
    2.0348   -1.6172   -0.0979 C   0  0  0  0  0  0  0  0  0  0  0  0
    3.5586    0.2975   -0.4330 C   0  0  0  0  0  0  0  0  0  0  0  0
    0.2420    5.3329   -0.3447 C   0  0  0  0  0  0  0  0  0  0  0  0
    0.9914    3.5806   -1.8211 O   0  0  0  0  0  0  0  0  0  0  0  0
   -4.9355   -0.2221    0.0223 C   0  0  0  0  0  0  0  0  0  0  0  0
    3.3208   -0.9613    0.3786 C   0  0  0  0  0  0  0  0  0  0  0  0
    1.3490    5.8835    0.4153 N   0  0  0  0  0  0  0  0  0  0  0  0
    1.4248    5.7761    1.7938 C   0  0  0  0  0  0  0  0  0  0  0  0
    2.1367    6.9903   -0.0693 C   0  0  0  0  0  0  0  0  0  0  0  0
    2.4743    6.7425    2.2918 C   0  0  0  0  0  0  0  0  0  0  0  0
    0.7089    5.0768    2.4863 O   0  0  0  0  0  0  0  0  0  0  0  0
    3.1814    7.1841    1.0134 C   0  0  0  0  0  0  0  0  0  0  0  0
   -0.7054    3.3256    0.8404 H   0  0  0  0  0  0  0  0  0  0  0  0
    2.6118    1.8714    0.6891 H   0  0  0  0  0  0  0  0  0  0  0  0
    2.5006    2.0058   -1.0733 H   0  0  0  0  0  0  0  0  0  0  0  0
   -3.0566    3.1945    0.9924 H   0  0  0  0  0  0  0  0  0  0  0  0
   -3.0111    3.2188   -0.7870 H   0  0  0  0  0  0  0  0  0  0  0  0
   -4.4447    2.6265    0.0589 H   0  0  0  0  0  0  0  0  0  0  0  0
    2.1655   -2.0109   -1.1131 H   0  0  0  0  0  0  0  0  0  0  0  0
    1.8111   -2.4705    0.5544 H   0  0  0  0  0  0  0  0  0  0  0  0
    4.5159    0.7547   -0.1593 H   0  0  0  0  0  0  0  0  0  0  0  0
    3.6305    0.0299   -1.4957 H   0  0  0  0  0  0  0  0  0  0  0  0
    0.1040    5.9263   -1.2567 H   0  0  0  0  0  0  0  0  0  0  0  0
   -0.6771    5.4281    0.2449 H   0  0  0  0  0  0  0  0  0  0  0  0
   -5.4403    0.1650    0.9125 H   0  0  0  0  0  0  0  0  0  0  0  0
   -5.4035    0.2211   -0.8625 H   0  0  0  0  0  0  0  0  0  0  0  0
   -5.1007   -1.3037   -0.0185 H   0  0  0  0  0  0  0  0  0  0  0  0
    4.1576   -1.6580    0.2552 H   0  0  0  0  0  0  0  0  0  0  0  0
    3.2560   -0.7159    1.4460 H   0  0  0  0  0  0  0  0  0  0  0  0
    1.4879    7.8690   -0.1468 H   0  0  0  0  0  0  0  0  0  0  0  0
    2.5749    6.7607   -1.0446 H   0  0  0  0  0  0  0  0  0  0  0  0
    1.9763    7.5870    2.7808 H   0  0  0  0  0  0  0  0  0  0  0  0
    3.1625    6.2568    2.9873 H   0  0  0  0  0  0  0  0  0  0  0  0
    3.5527    8.2111    1.0693 H   0  0  0  0  0  0  0  0  0  0  0  0
    4.0399    6.5282    0.8260 H   0  0  0  0  0  0  0  0  0  0  0  0
  1  2  2  0  0  0  0
  1  3  1  0  0  0  0
  1  4  1  0  0  0  0
  2  5  1  0  0  0  0
  2  6  1  0  0  0  0
  3  7  2  0  0  0  0
  3  8  1  0  0  0  0
  4  9  1  0  0  0  0
  4 26  1  0  0  0  0
  5 10  2  0  0  0  0
  5 11  1  0  0  0  0
  6 12  2  0  0  0  0
  6 13  1  0  0  0  0
  7 14  1  0  0  0  0
  7 10  1  0  0  0  0
  8 15  1  0  0  0  0
  8 27  1  0  0  0  0
  8 28  1  0  0  0  0
  9 16  1  0  0  0  0
  9 17  2  0  0  0  0
 11 12  1  0  0  0  0
 12 18  1  0  0  0  0
 13 29  1  0  0  0  0
 13 30  1  0  0  0  0
 13 31  1  0  0  0  0
 14 19  1  0  0  0  0
 14 32  1  0  0  0  0
 14 33  1  0  0  0  0
 15 19  1  0  0  0  0
 15 34  1  0  0  0  0
 15 35  1  0  0  0  0
 16 20  1  0  0  0  0
 16 36  1  0  0  0  0
 16 37  1  0  0  0  0
 18 38  1  0  0  0  0
 18 39  1  0  0  0  0
 18 40  1  0  0  0  0
 19 41  1  0  0  0  0
 19 42  1  0  0  0  0
 20 21  1  0  0  0  0
 20 22  1  0  0  0  0
 21 23  1  0  0  0  0
 21 24  2  0  0  0  0
 22 25  1  0  0  0  0
 22 43  1  0  0  0  0
 22 44  1  0  0  0  0
 23 25  1  0  0  0  0
 23 45  1  0  0  0  0
 23 46  1  0  0  0  0
 25 47  1  0  0  0  0
 25 48  1  0  0  0  0
M  END
>  <Mol_ID>
2858

>  <Formula>
C19H23N3O3

>  <MolWeight>
341.40422

>  <Cat>
S5222

>  <Name>
Coluracetam

>  <Synonyms>
MKC-231, BCI-540

>  <Target>
GluR

>  <Form>
free base

>  <CAS>
135463-81-9

>  <URL>
http://selleckchem.com/products/coluracetam.html

$$$$
