S5228 Minoxidil sulphate.cdx
 OpenBabel08302520013D

 34 35  0  0  0  0  0  0  0  0999 V2000
   -0.8146    1.0655   -0.1860 N   0  0  0  0  0  0  0  0  0  0  0  0
   -0.6419   -1.3245    0.0248 C   0  0  0  0  0  0  0  0  0  0  0  0
   -1.4947   -0.1172   -0.0112 C   0  0  0  0  0  0  0  0  0  0  0  0
    0.7008   -1.1887   -0.0662 C   0  0  0  0  0  0  0  0  0  0  0  0
    0.5631    1.1171   -0.1532 C   0  0  0  0  0  0  0  0  0  0  0  0
    1.3233    0.0552   -0.0950 N   0  0  0  0  0  0  0  0  0  0  0  0
   -2.4857    2.8473   -0.9440 S   0  0  0  0  0  0  0  0  0  0  0  0
   -1.4754    2.2390    0.1931 O   0  0  0  0  0  0  0  0  0  0  0  0
    1.4540   -2.3705   -0.1126 N   0  0  0  0  0  0  0  0  0  0  0  0
    1.1583    2.3474   -0.1837 N   0  0  0  0  0  0  0  0  0  0  0  0
   -3.7231    2.1007   -0.9102 O   0  0  0  0  0  0  0  0  0  0  0  0
   -2.5018    4.2895   -0.8159 O   0  0  0  0  0  0  0  0  0  0  0  0
   -2.7692   -0.3226    0.1081 N   0  0  0  0  0  0  0  0  0  0  0  0
   -1.7994    2.5310   -2.3670 O   0  0  0  0  0  0  0  0  0  0  0  0
    2.8506   -2.3993    0.3383 C   0  0  0  0  0  0  0  0  0  0  0  0
    1.1759   -3.3717   -1.1585 C   0  0  0  0  0  0  0  0  0  0  0  0
    1.4184   -4.7702   -0.6041 C   0  0  0  0  0  0  0  0  0  0  0  0
    3.1343   -3.7726    0.9534 C   0  0  0  0  0  0  0  0  0  0  0  0
    2.8261   -4.9031   -0.0290 C   0  0  0  0  0  0  0  0  0  0  0  0
   -1.1372   -2.2813    0.1055 H   0  0  0  0  0  0  0  0  0  0  0  0
    2.1484    2.2701    0.0353 H   0  0  0  0  0  0  0  0  0  0  0  0
    0.7050    3.0604    0.3740 H   0  0  0  0  0  0  0  0  0  0  0  0
   -3.3162    0.5394    0.0199 H   0  0  0  0  0  0  0  0  0  0  0  0
   -2.4170    2.8232   -3.0687 H   0  0  0  0  0  0  0  0  0  0  0  0
    3.0419   -1.6313    1.0973 H   0  0  0  0  0  0  0  0  0  0  0  0
    3.5267   -2.2078   -0.5053 H   0  0  0  0  0  0  0  0  0  0  0  0
    1.8209   -3.1819   -2.0259 H   0  0  0  0  0  0  0  0  0  0  0  0
    0.1431   -3.3124   -1.5202 H   0  0  0  0  0  0  0  0  0  0  0  0
    1.2671   -5.5122   -1.3958 H   0  0  0  0  0  0  0  0  0  0  0  0
    0.6830   -4.9816    0.1824 H   0  0  0  0  0  0  0  0  0  0  0  0
    2.5143   -3.9013    1.8502 H   0  0  0  0  0  0  0  0  0  0  0  0
    4.1802   -3.8341    1.2727 H   0  0  0  0  0  0  0  0  0  0  0  0
    2.9288   -5.8720    0.4721 H   0  0  0  0  0  0  0  0  0  0  0  0
    3.5562   -4.8836   -0.8469 H   0  0  0  0  0  0  0  0  0  0  0  0
  2  3  1  0  0  0  0
  2  4  2  0  0  0  0
  2 20  1  0  0  0  0
  3  1  1  0  0  0  0
  4  6  1  0  0  0  0
  5  1  1  0  0  0  0
  6  5  2  0  0  0  0
  7  8  1  0  0  0  0
  8  1  1  0  0  0  0
  9  4  1  0  0  0  0
 10  5  1  0  0  0  0
 10 21  1  0  0  0  0
 10 22  1  0  0  0  0
 11  7  2  0  0  0  0
 12  7  2  0  0  0  0
 13  3  2  0  0  0  0
 13 23  1  0  0  0  0
 14  7  1  0  0  0  0
 14 24  1  0  0  0  0
 15  9  1  0  0  0  0
 15 25  1  0  0  0  0
 15 26  1  0  0  0  0
 16  9  1  0  0  0  0
 16 27  1  0  0  0  0
 16 28  1  0  0  0  0
 17 16  1  0  0  0  0
 17 29  1  0  0  0  0
 17 30  1  0  0  0  0
 18 15  1  0  0  0  0
 18 31  1  0  0  0  0
 18 32  1  0  0  0  0
 19 17  1  0  0  0  0
 19 18  1  0  0  0  0
 19 33  1  0  0  0  0
 19 34  1  0  0  0  0
M  END
>  <Mol_ID>
2875

>  <Formula>
C9H15N5O4S

>  <MolWeight>
289.3115

>  <Cat>
S5228

>  <Name>
Minoxidil sulphate

>  <Synonyms>
U-58838

>  <Target>
Others

>  <Form>
free base

>  <CAS>
83701-22-8

>  <URL>
http://selleckchem.com/products/minoxidil-sulphate.html

$$$$
