S5236 ¦Â-Estradiol 17-Acetate.cdx
 OpenBabel08302520013D

 49 52  0  0  0  0  0  0  0  0999 V2000
   -2.3199    0.5859   -0.3067 C   0  0  2  0  0  0  0  0  0  0  0  0
   -2.9658   -0.7084    0.2309 C   0  0  1  0  0  0  0  0  0  0  0  0
   -0.8476    0.7075    0.0750 C   0  0  1  0  0  0  0  0  0  0  0  0
   -3.2832    1.6775    0.1425 C   0  0  0  0  0  0  0  0  0  0  0  0
   -4.4189   -0.4848   -0.2574 C   0  0  2  0  0  0  0  0  0  0  0  0
   -2.2256   -1.8957   -0.4018 C   0  0  0  0  0  0  0  0  0  0  0  0
   -2.9418   -0.8582    1.7735 C   0  0  0  0  0  0  0  0  0  0  0  0
   -0.0615   -0.4859   -0.5449 C   0  0  2  0  0  0  0  0  0  0  0  0
   -0.2289    2.0179   -0.4198 C   0  0  0  0  0  0  0  0  0  0  0  0
   -4.6675    1.0175    0.0253 C   0  0  0  0  0  0  0  0  0  0  0  0
   -5.3926   -1.2732    0.4378 O   0  0  0  0  0  0  0  0  0  0  0  0
   -0.7059   -1.8395   -0.1498 C   0  0  0  0  0  0  0  0  0  0  0  0
    1.4347   -0.3671   -0.2581 C   0  0  0  0  0  0  0  0  0  0  0  0
    1.1902    2.1565    0.1150 C   0  0  0  0  0  0  0  0  0  0  0  0
   -5.6054   -2.5240   -0.0534 C   0  0  0  0  0  0  0  0  0  0  0  0
    2.0124    0.8946    0.0059 C   0  0  0  0  0  0  0  0  0  0  0  0
    2.2869   -1.4849   -0.3377 C   0  0  0  0  0  0  0  0  0  0  0  0
   -6.5833   -3.2692    0.8028 C   0  0  0  0  0  0  0  0  0  0  0  0
   -5.0531   -3.0095   -1.0322 O   0  0  0  0  0  0  0  0  0  0  0  0
    3.3947    1.0003    0.2341 C   0  0  0  0  0  0  0  0  0  0  0  0
    3.6627   -1.3665   -0.1194 C   0  0  0  0  0  0  0  0  0  0  0  0
    4.2057   -0.1237    0.1710 C   0  0  0  0  0  0  0  0  0  0  0  0
    5.5386    0.0419    0.3960 O   0  0  0  0  0  0  0  0  0  0  0  0
   -2.3663    0.5666   -1.4085 H   0  0  0  0  0  0  0  0  0  0  0  0
   -0.7489    0.6848    1.1680 H   0  0  0  0  0  0  0  0  0  0  0  0
   -3.0882    1.9822    1.1769 H   0  0  0  0  0  0  0  0  0  0  0  0
   -3.2117    2.5728   -0.4834 H   0  0  0  0  0  0  0  0  0  0  0  0
   -4.5057   -0.6406   -1.3416 H   0  0  0  0  0  0  0  0  0  0  0  0
   -2.3969   -1.9057   -1.4875 H   0  0  0  0  0  0  0  0  0  0  0  0
   -2.6136   -2.8458   -0.0168 H   0  0  0  0  0  0  0  0  0  0  0  0
   -3.4575   -0.0375    2.2816 H   0  0  0  0  0  0  0  0  0  0  0  0
   -3.4403   -1.7862    2.0772 H   0  0  0  0  0  0  0  0  0  0  0  0
   -1.9278   -0.8972    2.1778 H   0  0  0  0  0  0  0  0  0  0  0  0
   -0.1485   -0.4107   -1.6399 H   0  0  0  0  0  0  0  0  0  0  0  0
   -0.8140    2.8841   -0.0926 H   0  0  0  0  0  0  0  0  0  0  0  0
   -0.2184    2.0370   -1.5175 H   0  0  0  0  0  0  0  0  0  0  0  0
   -5.2532    1.1808    0.9370 H   0  0  0  0  0  0  0  0  0  0  0  0
   -5.2339    1.4645   -0.8002 H   0  0  0  0  0  0  0  0  0  0  0  0
   -0.2556   -2.6554   -0.7269 H   0  0  0  0  0  0  0  0  0  0  0  0
   -0.4945   -2.0586    0.9030 H   0  0  0  0  0  0  0  0  0  0  0  0
    1.1478    2.4409    1.1741 H   0  0  0  0  0  0  0  0  0  0  0  0
    1.6898    2.9709   -0.4243 H   0  0  0  0  0  0  0  0  0  0  0  0
    1.8965   -2.4689   -0.5809 H   0  0  0  0  0  0  0  0  0  0  0  0
   -7.0387   -4.0686    0.2108 H   0  0  0  0  0  0  0  0  0  0  0  0
   -6.0666   -3.7016    1.6625 H   0  0  0  0  0  0  0  0  0  0  0  0
   -7.3847   -2.6042    1.1363 H   0  0  0  0  0  0  0  0  0  0  0  0
    3.8431    1.9647    0.4596 H   0  0  0  0  0  0  0  0  0  0  0  0
    4.2871   -2.2513   -0.1836 H   0  0  0  0  0  0  0  0  0  0  0  0
    5.9719   -0.8241    0.3244 H   0  0  0  0  0  0  0  0  0  0  0  0
  1  2  1  0  0  0  0
  1  3  1  0  0  0  0
  1  4  1  0  0  0  0
  1 24  1  6  0  0  0
  2  5  1  0  0  0  0
  2  6  1  0  0  0  0
  2  7  1  1  0  0  0
  3  8  1  0  0  0  0
  3  9  1  0  0  0  0
  3 25  1  1  0  0  0
  4 10  1  0  0  0  0
  4 26  1  0  0  0  0
  4 27  1  0  0  0  0
  5 10  1  0  0  0  0
  5 28  1  6  0  0  0
  5 11  1  0  0  0  0
  6 12  1  0  0  0  0
  6 29  1  0  0  0  0
  6 30  1  0  0  0  0
  7 31  1  0  0  0  0
  7 32  1  0  0  0  0
  7 33  1  0  0  0  0
  8 13  1  0  0  0  0
  8 12  1  0  0  0  0
  8 34  1  6  0  0  0
  9 14  1  0  0  0  0
  9 35  1  0  0  0  0
  9 36  1  0  0  0  0
 10 37  1  0  0  0  0
 10 38  1  0  0  0  0
 11 15  1  0  0  0  0
 12 39  1  0  0  0  0
 12 40  1  0  0  0  0
 13 16  2  0  0  0  0
 13 17  1  0  0  0  0
 14 16  1  0  0  0  0
 14 41  1  0  0  0  0
 14 42  1  0  0  0  0
 15 18  1  0  0  0  0
 15 19  2  0  0  0  0
 16 20  1  0  0  0  0
 17 21  2  0  0  0  0
 17 43  1  0  0  0  0
 18 44  1  0  0  0  0
 18 45  1  0  0  0  0
 18 46  1  0  0  0  0
 20 22  2  0  0  0  0
 20 47  1  0  0  0  0
 21 22  1  0  0  0  0
 21 48  1  0  0  0  0
 22 23  1  0  0  0  0
 23 49  1  0  0  0  0
M  END
>  <Mol_ID>
2832

>  <Formula>
C20H26O3

>  <MolWeight>
314.41864

>  <Cat>
S5236

>  <Name>
¦Â-Estradiol 17-Acetate

>  <Synonyms>
N/A

>  <Target>
Others

>  <Form>
free base

>  <CAS>
1743-60-8

>  <URL>
http://selleckchem.com/products/beta-estradiol-17-acetate.html

$$$$
