S5237 Dihydroartemisinic acid.cdx
 OpenBabel08302520013D

 41 42  0  0  0  0  0  0  0  0999 V2000
    0.8530    1.5452   -0.0085 C   0  0  0  0  0  0  0  0  0  0  0  0
    2.3105    1.0709   -0.0997 C   0  0  0  0  0  0  0  0  0  0  0  0
    2.5226   -0.4150    0.0616 C   0  0  0  0  0  0  0  0  0  0  0  0
    1.5127   -1.2688    0.3094 C   0  0  0  0  0  0  0  0  0  0  0  0
    0.0828   -0.8418    0.4751 C   0  0  1  0  0  0  0  0  0  0  0  0
    0.0084    0.6467    0.9087 C   0  0  2  0  0  0  0  0  0  0  0  0
   -0.8488   -1.2610   -0.7181 C   0  0  1  0  0  0  0  0  0  0  0  0
   -2.2746   -0.7585   -0.3880 C   0  0  0  0  0  0  0  0  0  0  0  0
   -2.3428    0.7365   -0.0863 C   0  0  0  0  0  0  0  0  0  0  0  0
   -1.4371    1.1616    1.0736 C   0  0  1  0  0  0  0  0  0  0  0  0
   -0.3938   -0.8908   -2.1729 C   0  0  1  0  0  0  0  0  0  0  0  0
    0.8528   -1.6312   -2.6752 C   0  0  0  0  0  0  0  0  0  0  0  0
   -1.4393   -1.1482   -3.2435 C   0  0  0  0  0  0  0  0  0  0  0  0
   -1.6762   -0.4186   -4.1888 O   0  0  0  0  0  0  0  0  0  0  0  0
   -2.0422   -2.3478   -3.1507 O   0  0  0  0  0  0  0  0  0  0  0  0
   -2.0153    0.7152    2.4273 C   0  0  0  0  0  0  0  0  0  0  0  0
    3.9192   -0.9275   -0.1497 C   0  0  0  0  0  0  0  0  0  0  0  0
    0.4200    1.6060   -1.0086 H   0  0  0  0  0  0  0  0  0  0  0  0
    0.8447    2.5764    0.3625 H   0  0  0  0  0  0  0  0  0  0  0  0
    2.7137    1.3909   -1.0679 H   0  0  0  0  0  0  0  0  0  0  0  0
    2.8957    1.5849    0.6734 H   0  0  0  0  0  0  0  0  0  0  0  0
    1.7115   -2.3357    0.3934 H   0  0  0  0  0  0  0  0  0  0  0  0
   -0.2837   -1.4105    1.3441 H   0  0  0  0  0  0  0  0  0  0  0  0
    0.4881    0.7230    1.8986 H   0  0  0  0  0  0  0  0  0  0  0  0
   -0.9069   -2.3591   -0.6956 H   0  0  0  0  0  0  0  0  0  0  0  0
   -2.6479   -1.3147    0.4807 H   0  0  0  0  0  0  0  0  0  0  0  0
   -2.9797   -0.9879   -1.1920 H   0  0  0  0  0  0  0  0  0  0  0  0
   -2.0739    1.3015   -0.9849 H   0  0  0  0  0  0  0  0  0  0  0  0
   -3.3815    1.0048    0.1443 H   0  0  0  0  0  0  0  0  0  0  0  0
   -1.4243    2.2597    1.1002 H   0  0  0  0  0  0  0  0  0  0  0  0
   -0.2060    0.1818   -2.2301 H   0  0  0  0  0  0  0  0  0  0  0  0
    0.7700   -2.7108   -2.5091 H   0  0  0  0  0  0  0  0  0  0  0  0
    1.0021   -1.4758   -3.7506 H   0  0  0  0  0  0  0  0  0  0  0  0
    1.7689   -1.2785   -2.2096 H   0  0  0  0  0  0  0  0  0  0  0  0
   -2.6087   -2.3784   -3.9487 H   0  0  0  0  0  0  0  0  0  0  0  0
   -1.9819   -0.3700    2.5590 H   0  0  0  0  0  0  0  0  0  0  0  0
   -1.4468    1.1653    3.2501 H   0  0  0  0  0  0  0  0  0  0  0  0
   -3.0555    1.0378    2.5352 H   0  0  0  0  0  0  0  0  0  0  0  0
    4.3897   -1.1715    0.8072 H   0  0  0  0  0  0  0  0  0  0  0  0
    3.9133   -1.8241   -0.7799 H   0  0  0  0  0  0  0  0  0  0  0  0
    4.5408   -0.1837   -0.6581 H   0  0  0  0  0  0  0  0  0  0  0  0
  1  2  1  0  0  0  0
  1 18  1  0  0  0  0
  1 19  1  0  0  0  0
  2  3  1  0  0  0  0
  2 20  1  0  0  0  0
  2 21  1  0  0  0  0
  3  4  2  0  0  0  0
  3 17  1  0  0  0  0
  4 22  1  0  0  0  0
  5  4  1  0  0  0  0
  5  6  1  0  0  0  0
  5  7  1  0  0  0  0
  5 23  1  1  0  0  0
  6  1  1  0  0  0  0
  6 24  1  1  0  0  0
  7  8  1  0  0  0  0
  7 25  1  1  0  0  0
  7 11  1  0  0  0  0
  8  9  1  0  0  0  0
  8 26  1  0  0  0  0
  8 27  1  0  0  0  0
  9 10  1  0  0  0  0
  9 28  1  0  0  0  0
  9 29  1  0  0  0  0
 10  6  1  0  0  0  0
 10 30  1  1  0  0  0
 10 16  1  0  0  0  0
 11 12  1  0  0  0  0
 11 13  1  0  0  0  0
 11 31  1  6  0  0  0
 12 32  1  0  0  0  0
 12 33  1  0  0  0  0
 12 34  1  0  0  0  0
 13 14  2  0  0  0  0
 13 15  1  0  0  0  0
 15 35  1  0  0  0  0
 16 36  1  0  0  0  0
 16 37  1  0  0  0  0
 16 38  1  0  0  0  0
 17 39  1  0  0  0  0
 17 40  1  0  0  0  0
 17 41  1  0  0  0  0
M  END
>  <Mol_ID>
2976

>  <Formula>
C15H24O2

>  <MolWeight>
236.34986

>  <Cat>
S5237

>  <Name>
Dihydroartemisinic acid

>  <Synonyms>
N/A

>  <Target>
Others

>  <Form>
free base

>  <CAS>
85031-59-0

>  <URL>
http://selleckchem.com/products/dihydroartemisinic-acid.html

$$$$
