S5239 Paroxetine mesylate.cdx
 OpenBabel08302520013D

 53 55  0  0  0  0  0  0  0  0999 V2000
    1.3131   -0.1742    1.4997 N   0  0  0  0  0  0  0  0  0  0  0  0
    0.7578    1.1197    1.0975 C   0  0  0  0  0  0  0  0  0  0  0  0
   -0.7684    1.2469    1.2583 C   0  0  2  0  0  0  0  0  0  0  0  0
   -1.5424   -0.0834    1.0002 C   0  0  1  0  0  0  0  0  0  0  0  0
   -0.7570   -1.3816    1.2357 C   0  0  0  0  0  0  0  0  0  0  0  0
    0.6834   -1.2785    0.7873 C   0  0  0  0  0  0  0  0  0  0  0  0
   -2.8389   -0.1707    1.7982 C   0  0  0  0  0  0  0  0  0  0  0  0
   -4.0367   -0.4815    1.1422 C   0  0  0  0  0  0  0  0  0  0  0  0
   -5.2049   -0.6919    1.8763 C   0  0  0  0  0  0  0  0  0  0  0  0
   -5.1804   -0.5822    3.2618 C   0  0  0  0  0  0  0  0  0  0  0  0
   -4.0104   -0.2518    3.9317 C   0  0  0  0  0  0  0  0  0  0  0  0
   -2.8400   -0.0476    3.2018 C   0  0  0  0  0  0  0  0  0  0  0  0
   -1.4391    2.3536    0.3763 C   0  0  0  0  0  0  0  0  0  0  0  0
   -0.7173    3.5589    0.1238 O   0  0  0  0  0  0  0  0  0  0  0  0
    0.3880    7.4499    3.7141 O   0  0  0  0  0  0  0  0  0  0  0  0
    0.1967    6.6003    4.8647 C   0  0  0  0  0  0  0  0  0  0  0  0
   -0.5635    5.4095    4.5710 O   0  0  0  0  0  0  0  0  0  0  0  0
   -0.5823    5.4579    3.2104 C   0  0  0  0  0  0  0  0  0  0  0  0
   -0.0516    6.6304    2.7233 C   0  0  0  0  0  0  0  0  0  0  0  0
   -0.9934    4.4324    2.3857 C   0  0  0  0  0  0  0  0  0  0  0  0
   -0.7518    4.5843    1.0254 C   0  0  0  0  0  0  0  0  0  0  0  0
   -0.3159    5.8297    0.5155 C   0  0  0  0  0  0  0  0  0  0  0  0
    0.0374    6.8741    1.3735 C   0  0  0  0  0  0  0  0  0  0  0  0
   -6.2978   -0.8172    3.9608 F   0  0  0  0  0  0  0  0  0  0  0  0
    0.8556    0.8321   -2.4158 C   0  0  0  0  0  0  0  0  0  0  0  0
    1.0217    2.5594   -2.8125 S   0  0  0  0  0  0  0  0  0  0  0  0
    2.1058    2.7227   -3.7403 O   0  0  0  0  0  0  0  0  0  0  0  0
   -0.2951    3.1128   -3.0286 O   0  0  0  0  0  0  0  0  0  0  0  0
    1.5124    3.1059   -1.3724 O   0  0  0  0  0  0  0  0  0  0  0  0
    2.3173   -0.1856    1.3123 H   0  0  0  0  0  0  0  0  0  0  0  0
    1.0740    1.3197    0.0824 H   0  0  0  0  0  0  0  0  0  0  0  0
    1.2412    1.8867    1.7151 H   0  0  0  0  0  0  0  0  0  0  0  0
   -0.9025    1.5408    2.3031 H   0  0  0  0  0  0  0  0  0  0  0  0
   -1.8006   -0.0987   -0.0686 H   0  0  0  0  0  0  0  0  0  0  0  0
   -0.7777   -1.6765    2.2924 H   0  0  0  0  0  0  0  0  0  0  0  0
   -1.2487   -2.1983    0.6884 H   0  0  0  0  0  0  0  0  0  0  0  0
    1.1981   -2.2154    1.0296 H   0  0  0  0  0  0  0  0  0  0  0  0
    0.7554   -1.1563   -0.2989 H   0  0  0  0  0  0  0  0  0  0  0  0
   -4.0644   -0.5939    0.0608 H   0  0  0  0  0  0  0  0  0  0  0  0
   -6.1294   -0.9570    1.3766 H   0  0  0  0  0  0  0  0  0  0  0  0
   -4.0088   -0.1829    5.0157 H   0  0  0  0  0  0  0  0  0  0  0  0
   -1.9196    0.1679    3.7409 H   0  0  0  0  0  0  0  0  0  0  0  0
   -1.5679    1.9366   -0.6300 H   0  0  0  0  0  0  0  0  0  0  0  0
   -2.4577    2.5750    0.7176 H   0  0  0  0  0  0  0  0  0  0  0  0
    1.1798    6.2983    5.2504 H   0  0  0  0  0  0  0  0  0  0  0  0
   -0.3240    7.1706    5.6400 H   0  0  0  0  0  0  0  0  0  0  0  0
   -1.3941    3.5313    2.8240 H   0  0  0  0  0  0  0  0  0  0  0  0
   -0.2092    5.9724   -0.5586 H   0  0  0  0  0  0  0  0  0  0  0  0
    0.4271    7.8130    0.9949 H   0  0  0  0  0  0  0  0  0  0  0  0
    0.5880    0.3008   -3.3243 H   0  0  0  0  0  0  0  0  0  0  0  0
    0.0512    0.6914   -1.6875 H   0  0  0  0  0  0  0  0  0  0  0  0
    1.8053    0.4512   -2.0347 H   0  0  0  0  0  0  0  0  0  0  0  0
    0.7973    3.6612   -0.9806 H   0  0  0  0  0  0  0  0  0  0  0  0
  1  2  1  0  0  0  0
  1  6  1  0  0  0  0
  1 30  1  0  0  0  0
  2  3  1  0  0  0  0
  2 31  1  0  0  0  0
  2 32  1  0  0  0  0
  3  4  1  0  0  0  0
  3 13  1  0  0  0  0
  3 33  1  1  0  0  0
  4  5  1  0  0  0  0
  4  7  1  0  0  0  0
  4 34  1  6  0  0  0
  5  6  1  0  0  0  0
  5 35  1  0  0  0  0
  5 36  1  0  0  0  0
  6 37  1  0  0  0  0
  6 38  1  0  0  0  0
  7  8  2  0  0  0  0
  7 12  1  0  0  0  0
  8  9  1  0  0  0  0
  8 39  1  0  0  0  0
  9 10  2  0  0  0  0
  9 40  1  0  0  0  0
 10 11  1  0  0  0  0
 10 24  1  0  0  0  0
 11 12  2  0  0  0  0
 11 41  1  0  0  0  0
 12 42  1  0  0  0  0
 13 14  1  0  0  0  0
 13 43  1  0  0  0  0
 13 44  1  0  0  0  0
 14 21  1  0  0  0  0
 15 16  1  0  0  0  0
 15 19  1  0  0  0  0
 16 17  1  0  0  0  0
 16 45  1  0  0  0  0
 16 46  1  0  0  0  0
 17 18  1  0  0  0  0
 18 19  2  0  0  0  0
 18 20  1  0  0  0  0
 19 23  1  0  0  0  0
 20 21  2  0  0  0  0
 20 47  1  0  0  0  0
 21 22  1  0  0  0  0
 22 23  2  0  0  0  0
 22 48  1  0  0  0  0
 23 49  1  0  0  0  0
 25 26  1  0  0  0  0
 25 50  1  0  0  0  0
 25 51  1  0  0  0  0
 25 52  1  0  0  0  0
 26 27  2  0  0  0  0
 26 28  2  0  0  0  0
 26 29  1  0  0  0  0
 29 53  1  0  0  0  0
M  END
>  <Mol_ID>
3098

>  <Formula>
C20H24FNO6S

>  <MolWeight>
425.4710632

>  <Cat>
S5239

>  <Name>
Paroxetine mesylate

>  <Synonyms>
BRL-29060A mesylate,FG-7051 mesylate

>  <Target>
Serotonin Transporter

>  <Form>
Mesylate

>  <CAS>
217797-14-3

>  <URL>
http://selleckchem.com/products/paroxetine-mesylate.html

$$$$
