S5238 Solifenacin.cdx
 OpenBabel08302520143D

 53 57  0  0  0  0  0  0  0  0999 V2000
    7.6947    4.6658    4.8621 C   0  0  2  0  0  0  0  0  0  0  0  0
    7.0105    3.6612    4.0201 N   0  0  0  0  0  0  0  0  0  0  0  0
    6.4455    4.0997    2.7402 C   0  0  0  0  0  0  0  0  0  0  0  0
    7.1726    5.2986    2.1007 C   0  0  0  0  0  0  0  0  0  0  0  0
    7.2080    6.4299    3.0921 C   0  0  0  0  0  0  0  0  0  0  0  0
    7.0385    7.7570    2.6836 C   0  0  0  0  0  0  0  0  0  0  0  0
    6.8747    8.7598    3.6400 C   0  0  0  0  0  0  0  0  0  0  0  0
    6.8912    8.4348    4.9930 C   0  0  0  0  0  0  0  0  0  0  0  0
    7.1523    7.1214    5.4038 C   0  0  0  0  0  0  0  0  0  0  0  0
    7.3446    6.1050    4.4551 C   0  0  0  0  0  0  0  0  0  0  0  0
    6.7768    2.3604    4.4668 C   0  0  0  0  0  0  0  0  0  0  0  0
    6.1866    1.5156    3.8103 O   0  0  0  0  0  0  0  0  0  0  0  0
    7.2772    2.1306    5.7121 O   0  0  0  0  0  0  0  0  0  0  0  0
    9.2161    4.4335    4.8856 C   0  0  0  0  0  0  0  0  0  0  0  0
    9.9121    3.8958    3.7865 C   0  0  0  0  0  0  0  0  0  0  0  0
   11.2955    3.7071    3.8214 C   0  0  0  0  0  0  0  0  0  0  0  0
   12.0109    4.0329    4.9668 C   0  0  0  0  0  0  0  0  0  0  0  0
   11.3441    4.5549    6.0726 C   0  0  0  0  0  0  0  0  0  0  0  0
    9.9612    4.7640    6.0295 C   0  0  0  0  0  0  0  0  0  0  0  0
    6.8491    2.1265    8.3730 C   0  0  0  0  0  0  0  0  0  0  0  0
    8.3852    2.0736    8.5124 C   0  0  0  0  0  0  0  0  0  0  0  0
    8.9462    0.7425    8.1564 N   0  0  3  0  0  0  0  0  0  0  0  0
    8.6755    0.4390    6.7172 C   0  0  0  0  0  0  0  0  0  0  0  0
    6.4011    0.8598    7.6310 C   0  0  3  0  0  0  0  0  0  0  0  0
    7.2267    0.8020    6.3155 C   0  0  1  0  0  0  0  0  0  0  0  0
    6.7512   -0.3236    8.5744 C   0  0  0  0  0  0  0  0  0  0  0  0
    8.2410   -0.2704    8.9639 C   0  0  0  0  0  0  0  0  0  0  0  0
    7.3174    4.5173    5.8825 H   0  0  0  0  0  0  0  0  0  0  0  0
    6.4118    3.2587    2.0342 H   0  0  0  0  0  0  0  0  0  0  0  0
    5.4041    4.3851    2.9504 H   0  0  0  0  0  0  0  0  0  0  0  0
    8.1914    5.0488    1.7942 H   0  0  0  0  0  0  0  0  0  0  0  0
    6.6281    5.6078    1.2015 H   0  0  0  0  0  0  0  0  0  0  0  0
    7.0016    8.0192    1.6308 H   0  0  0  0  0  0  0  0  0  0  0  0
    6.7057    9.7904    3.3283 H   0  0  0  0  0  0  0  0  0  0  0  0
    6.7061    9.2092    5.7370 H   0  0  0  0  0  0  0  0  0  0  0  0
    7.1838    6.8978    6.4676 H   0  0  0  0  0  0  0  0  0  0  0  0
    9.3861    3.5995    2.8847 H   0  0  0  0  0  0  0  0  0  0  0  0
   11.8086    3.2997    2.9540 H   0  0  0  0  0  0  0  0  0  0  0  0
   13.0859    3.8753    4.9997 H   0  0  0  0  0  0  0  0  0  0  0  0
   11.9028    4.7973    6.9728 H   0  0  0  0  0  0  0  0  0  0  0  0
    9.4678    5.1730    6.9077 H   0  0  0  0  0  0  0  0  0  0  0  0
    6.3682    2.1801    9.3571 H   0  0  0  0  0  0  0  0  0  0  0  0
    6.5419    3.0268    7.8283 H   0  0  0  0  0  0  0  0  0  0  0  0
    8.8490    2.8454    7.8907 H   0  0  0  0  0  0  0  0  0  0  0  0
    8.6569    2.3220    9.5450 H   0  0  0  0  0  0  0  0  0  0  0  0
    9.4037    0.9610    6.0876 H   0  0  0  0  0  0  0  0  0  0  0  0
    8.8418   -0.6353    6.5497 H   0  0  0  0  0  0  0  0  0  0  0  0
    5.3267    0.8868    7.4228 H   0  0  0  0  0  0  0  0  0  0  0  0
    6.8209    0.0518    5.6242 H   0  0  0  0  0  0  0  0  0  0  0  0
    6.1523   -0.2563    9.4924 H   0  0  0  0  0  0  0  0  0  0  0  0
    6.5188   -1.2848    8.1037 H   0  0  0  0  0  0  0  0  0  0  0  0
    8.7089   -1.2535    8.8281 H   0  0  0  0  0  0  0  0  0  0  0  0
    8.3607   -0.0405   10.0314 H   0  0  0  0  0  0  0  0  0  0  0  0
  1  2  1  0  0  0  0
  1 10  1  0  0  0  0
  1 28  1  1  0  0  0
  1 14  1  0  0  0  0
  2  3  1  0  0  0  0
  2 11  1  0  0  0  0
  3  4  1  0  0  0  0
  3 29  1  0  0  0  0
  3 30  1  0  0  0  0
  4  5  1  0  0  0  0
  4 31  1  0  0  0  0
  4 32  1  0  0  0  0
  5  6  2  0  0  0  0
  5 10  1  0  0  0  0
  6  7  1  0  0  0  0
  6 33  1  0  0  0  0
  7  8  2  0  0  0  0
  7 34  1  0  0  0  0
  8  9  1  0  0  0  0
  8 35  1  0  0  0  0
  9 10  2  0  0  0  0
  9 36  1  0  0  0  0
 11 12  2  0  0  0  0
 11 13  1  0  0  0  0
 14 15  2  0  0  0  0
 14 19  1  0  0  0  0
 15 16  1  0  0  0  0
 15 37  1  0  0  0  0
 16 17  2  0  0  0  0
 16 38  1  0  0  0  0
 17 18  1  0  0  0  0
 17 39  1  0  0  0  0
 18 19  2  0  0  0  0
 18 40  1  0  0  0  0
 19 41  1  0  0  0  0
 20 21  1  0  0  0  0
 20 24  1  0  0  0  0
 20 42  1  0  0  0  0
 20 43  1  0  0  0  0
 21 22  1  0  0  0  0
 21 44  1  0  0  0  0
 21 45  1  0  0  0  0
 22 23  1  0  0  0  0
 23 25  1  0  0  0  0
 23 46  1  0  0  0  0
 23 47  1  0  0  0  0
 24 25  1  0  0  0  0
 24 26  1  0  0  0  0
 24 48  1  0  0  0  0
 25 49  1  6  0  0  0
 25 13  1  0  0  0  0
 26 27  1  0  0  0  0
 26 50  1  0  0  0  0
 26 51  1  0  0  0  0
 27 22  1  0  0  0  0
 27 52  1  0  0  0  0
 27 53  1  0  0  0  0
M  END
>  <Mol_ID>
3211

>  <Formula>
C23H26N2O2

>  <MolWeight>
362.46474

>  <Cat>
S5238

>  <Name>
Solifenacin (YM905)

>  <Target>
AChR

>  <Form>
free base

>  <CAS>
242478-37-1

>  <URL>
https://www.selleckchem.com/products/solifenacin.html

$$$$
