S5249 Coptisine chloride.cdx
 OpenBabel08302521403D

 38 43  0  0  0  0  0  0  0  0999 V2000
    0.2014    0.0674    0.1511 C   0  0  0  0  0  0  0  0  0  0  0  0
   -1.2406   -0.0061   -0.0631 C   0  0  0  0  0  0  0  0  0  0  0  0
    0.6412    1.2401    0.6852 N   0  3  0  0  0  0  0  0  0  0  0  0
    1.1426   -0.9416   -0.1633 C   0  0  0  0  0  0  0  0  0  0  0  0
   -1.9435    1.1942   -0.3725 C   0  0  0  0  0  0  0  0  0  0  0  0
   -1.9707   -1.1828    0.1508 C   0  0  0  0  0  0  0  0  0  0  0  0
    1.8989    1.3700    1.1268 C   0  0  0  0  0  0  0  0  0  0  0  0
   -0.1824    2.4775    0.6696 C   0  0  0  0  0  0  0  0  0  0  0  0
    2.5122   -0.6987    0.0306 C   0  0  0  0  0  0  0  0  0  0  0  0
   -3.3412    1.2310   -0.4622 C   0  0  0  0  0  0  0  0  0  0  0  0
   -1.1390    2.4520   -0.5088 C   0  0  0  0  0  0  0  0  0  0  0  0
   -3.3473   -1.1010    0.1178 C   0  0  0  0  0  0  0  0  0  0  0  0
    2.8582    0.4671    0.7313 C   0  0  0  0  0  0  0  0  0  0  0  0
    3.5582   -1.4826   -0.5230 C   0  0  0  0  0  0  0  0  0  0  0  0
   -4.0105    0.0699   -0.1775 C   0  0  0  0  0  0  0  0  0  0  0  0
   -4.2008   -2.1159    0.4260 O   0  0  0  0  0  0  0  0  0  0  0  0
    4.1674    0.8470    0.8196 C   0  0  0  0  0  0  0  0  0  0  0  0
    4.8894   -1.0246   -0.4924 C   0  0  0  0  0  0  0  0  0  0  0  0
   -5.3583   -0.0653   -0.0851 O   0  0  0  0  0  0  0  0  0  0  0  0
   -5.4659   -1.4194    0.4044 C   0  0  0  0  0  0  0  0  0  0  0  0
    5.1480    0.1728    0.1456 C   0  0  0  0  0  0  0  0  0  0  0  0
    4.5964    2.0361    1.3336 O   0  0  0  0  0  0  0  0  0  0  0  0
    6.2895    0.9127    0.0873 O   0  0  0  0  0  0  0  0  0  0  0  0
    5.7932    2.1874    0.5508 C   0  0  0  0  0  0  0  0  0  0  0  0
    0.8175   -1.8457   -0.6765 H   0  0  0  0  0  0  0  0  0  0  0  0
   -1.5000   -2.1242    0.4141 H   0  0  0  0  0  0  0  0  0  0  0  0
    2.1477    2.2881    1.6530 H   0  0  0  0  0  0  0  0  0  0  0  0
    0.4992    3.3295    0.5528 H   0  0  0  0  0  0  0  0  0  0  0  0
   -0.6821    2.5347    1.6418 H   0  0  0  0  0  0  0  0  0  0  0  0
   -3.8878    2.1416   -0.6780 H   0  0  0  0  0  0  0  0  0  0  0  0
   -0.5965    2.4356   -1.4641 H   0  0  0  0  0  0  0  0  0  0  0  0
   -1.7676    3.3477   -0.4963 H   0  0  0  0  0  0  0  0  0  0  0  0
    3.3360   -2.3922   -1.0762 H   0  0  0  0  0  0  0  0  0  0  0  0
    5.6736   -1.5400   -1.0365 H   0  0  0  0  0  0  0  0  0  0  0  0
   -5.8630   -1.3888    1.4264 H   0  0  0  0  0  0  0  0  0  0  0  0
   -6.1637   -1.9740   -0.2364 H   0  0  0  0  0  0  0  0  0  0  0  0
    5.5136    2.8112   -0.3145 H   0  0  0  0  0  0  0  0  0  0  0  0
    6.5452    2.7156    1.1366 H   0  0  0  0  0  0  0  0  0  0  0  0
  1  2  1  0  0  0  0
  1  3  1  0  0  0  0
  1  4  2  0  0  0  0
  2  5  2  0  0  0  0
  2  6  1  0  0  0  0
  3  7  2  0  0  0  0
  3  8  1  0  0  0  0
  4  9  1  0  0  0  0
  4 25  1  0  0  0  0
  5 10  1  0  0  0  0
  5 11  1  0  0  0  0
  6 12  2  0  0  0  0
  6 26  1  0  0  0  0
  7 13  1  0  0  0  0
  7 27  1  0  0  0  0
  8 11  1  0  0  0  0
  8 28  1  0  0  0  0
  8 29  1  0  0  0  0
  9 14  2  0  0  0  0
  9 13  1  0  0  0  0
 10 15  2  0  0  0  0
 10 30  1  0  0  0  0
 11 31  1  0  0  0  0
 11 32  1  0  0  0  0
 12 16  1  0  0  0  0
 12 15  1  0  0  0  0
 13 17  2  0  0  0  0
 14 18  1  0  0  0  0
 14 33  1  0  0  0  0
 15 19  1  0  0  0  0
 16 20  1  0  0  0  0
 17 21  1  0  0  0  0
 17 22  1  0  0  0  0
 18 21  2  0  0  0  0
 18 34  1  0  0  0  0
 19 20  1  0  0  0  0
 20 35  1  0  0  0  0
 20 36  1  0  0  0  0
 21 23  1  0  0  0  0
 22 24  1  0  0  0  0
 23 24  1  0  0  0  0
 24 37  1  0  0  0  0
 24 38  1  0  0  0  0
M  CHG  1   3   1
M  END
>  <Mol_ID>
8254

>  <Formula>
C19H14ClNO4

>  <MolWeight>
355.77176

>  <Cat>
S5249

>  <Name>
Coptisine chloride

>  <Synonyms>
Q-100696, NSC-119754

>  <Target>
IDO/TDO

>  <Form>
chloride

>  <CAS>
6020-18-4

>  <URL>
http://selleckchem.com/products/coptisine-chloride.html

$$$$
