S5246 Entecavir.cdx
 OpenBabel08302520013D

 35 37  0  0  0  0  0  0  0  0999 V2000
    1.4809    1.1823   -0.1799 N   0  0  0  0  0  0  0  0  0  0  0  0
    2.1369   -0.0076   -0.2737 C   0  0  0  0  0  0  0  0  0  0  0  0
    2.0496    2.4927    0.0787 C   0  0  2  0  0  0  0  0  0  0  0  0
    0.1599    0.9032   -0.4501 C   0  0  0  0  0  0  0  0  0  0  0  0
    1.2068   -0.9525   -0.6266 C   0  0  0  0  0  0  0  0  0  0  0  0
    3.4347   -0.3096   -0.1145 N   0  0  0  0  0  0  0  0  0  0  0  0
    1.5341    3.2108    1.3124 C   0  0  0  0  0  0  0  0  0  0  0  0
    1.7911    3.5054   -1.0423 C   0  0  0  0  0  0  0  0  0  0  0  0
   -0.0386   -0.3709   -0.7234 N   0  0  0  0  0  0  0  0  0  0  0  0
    1.6326   -2.3397   -0.8614 C   0  0  0  0  0  0  0  0  0  0  0  0
    3.7972   -1.6061   -0.3821 C   0  0  0  0  0  0  0  0  0  0  0  0
    1.5164    4.7130    1.0465 C   0  0  1  0  0  0  0  0  0  0  0  0
    1.1627    2.6421    2.4708 C   0  0  0  0  0  0  0  0  0  0  0  0
    2.1000    4.8399   -0.3772 C   0  0  1  0  0  0  0  0  0  0  0  0
    3.0052   -2.5742   -0.7282 N   0  0  0  0  0  0  0  0  0  0  0  0
    0.8403   -3.2278   -1.1604 O   0  0  0  0  0  0  0  0  0  0  0  0
    5.1350   -1.8199   -0.2747 N   0  0  0  0  0  0  0  0  0  0  0  0
    0.1128    5.3268    1.1238 C   0  0  0  0  0  0  0  0  0  0  0  0
    3.5199    4.9896   -0.3056 O   0  0  0  0  0  0  0  0  0  0  0  0
    0.1729    6.7298    0.8870 O   0  0  0  0  0  0  0  0  0  0  0  0
    3.1333    2.3654    0.1954 H   0  0  0  0  0  0  0  0  0  0  0  0
   -0.6110    1.6636   -0.4429 H   0  0  0  0  0  0  0  0  0  0  0  0
    4.1711    0.3739    0.0167 H   0  0  0  0  0  0  0  0  0  0  0  0
    2.4328    3.3047   -1.9063 H   0  0  0  0  0  0  0  0  0  0  0  0
    0.7470    3.4855   -1.3783 H   0  0  0  0  0  0  0  0  0  0  0  0
    2.1824    5.2243    1.7543 H   0  0  0  0  0  0  0  0  0  0  0  0
    0.8201    3.2345    3.3142 H   0  0  0  0  0  0  0  0  0  0  0  0
    1.2023    1.5655    2.6198 H   0  0  0  0  0  0  0  0  0  0  0  0
    1.6932    5.6860   -0.9411 H   0  0  0  0  0  0  0  0  0  0  0  0
    5.5650   -1.4392    0.5590 H   0  0  0  0  0  0  0  0  0  0  0  0
    5.3438   -2.8114   -0.3632 H   0  0  0  0  0  0  0  0  0  0  0  0
   -0.5544    4.8910    0.3742 H   0  0  0  0  0  0  0  0  0  0  0  0
   -0.3438    5.1713    2.1078 H   0  0  0  0  0  0  0  0  0  0  0  0
    3.7825    5.5820   -1.0342 H   0  0  0  0  0  0  0  0  0  0  0  0
    0.5784    7.1437    1.6702 H   0  0  0  0  0  0  0  0  0  0  0  0
  1  2  1  0  0  0  0
  1  4  1  0  0  0  0
  2  5  2  0  0  0  0
  2  6  1  0  0  0  0
  3  1  1  0  0  0  0
  3  7  1  0  0  0  0
  3  8  1  0  0  0  0
  3 21  1  1  0  0  0
  4  9  2  0  0  0  0
  4 22  1  0  0  0  0
  5 10  1  0  0  0  0
  5  9  1  0  0  0  0
  6 23  1  0  0  0  0
  7 12  1  0  0  0  0
  7 13  2  0  0  0  0
  8 14  1  0  0  0  0
  8 24  1  0  0  0  0
  8 25  1  0  0  0  0
 10 15  1  0  0  0  0
 10 16  2  0  0  0  0
 11 17  1  0  0  0  0
 11 15  2  0  0  0  0
 11  6  1  0  0  0  0
 12 18  1  0  0  0  0
 12 14  1  0  0  0  0
 12 26  1  1  0  0  0
 13 27  1  0  0  0  0
 13 28  1  0  0  0  0
 14 29  1  6  0  0  0
 14 19  1  0  0  0  0
 17 30  1  0  0  0  0
 17 31  1  0  0  0  0
 18 20  1  0  0  0  0
 18 32  1  0  0  0  0
 18 33  1  0  0  0  0
 19 34  1  0  0  0  0
 20 35  1  0  0  0  0
M  END
>  <Mol_ID>
2907

>  <Formula>
C12H15N5O3

>  <MolWeight>
277.2792

>  <Cat>
S5246

>  <Name>
Entecavir

>  <Synonyms>
BMS200475,SQ34676

>  <Target>
Reverse Transcriptase

>  <Form>
free base

>  <CAS>
142217-69-4

>  <URL>
https://www.selleckchem.com/products/s5246-entecavir.html

$$$$
