S5255 Nicardipine.cdx
 OpenBabel08302520143D

 64 66  0  0  0  0  0  0  0  0999 V2000
    0.0057   -1.7651    0.9192 C   0  0  3  0  0  0  0  0  0  0  0  0
    0.2974   -2.6648    2.1335 C   0  0  0  0  0  0  0  0  0  0  0  0
   -1.3506   -1.0401    0.9235 C   0  0  0  0  0  0  0  0  0  0  0  0
    1.2138   -0.8580    0.5966 C   0  0  0  0  0  0  0  0  0  0  0  0
    0.6315   -4.0104    1.8716 C   0  0  0  0  0  0  0  0  0  0  0  0
    0.4577   -2.1816    3.4393 C   0  0  0  0  0  0  0  0  0  0  0  0
   -1.4075    0.2931    0.6708 C   0  0  0  0  0  0  0  0  0  0  0  0
   -2.5927   -1.8712    0.9569 C   0  0  0  0  0  0  0  0  0  0  0  0
    1.0318    0.4628    0.3711 C   0  0  0  0  0  0  0  0  0  0  0  0
    2.5113   -1.5728    0.4232 C   0  0  0  0  0  0  0  0  0  0  0  0
    1.2621   -4.7949    2.8417 C   0  0  0  0  0  0  0  0  0  0  0  0
    1.0289   -2.9954    4.4307 C   0  0  0  0  0  0  0  0  0  0  0  0
   -0.2289    1.0092    0.5112 N   0  0  0  0  0  0  0  0  0  0  0  0
   -2.6413    1.1285    0.4069 C   0  0  0  0  0  0  0  0  0  0  0  0
   -2.2940   -3.1291    0.5637 O   0  0  0  0  0  0  0  0  0  0  0  0
   -3.7237   -1.4683    1.1905 O   0  0  0  0  0  0  0  0  0  0  0  0
    2.0628    1.4503   -0.1228 C   0  0  0  0  0  0  0  0  0  0  0  0
    3.5720   -0.7981    0.7659 O   0  0  0  0  0  0  0  0  0  0  0  0
    2.5951   -2.7391    0.0672 O   0  0  0  0  0  0  0  0  0  0  0  0
    1.4648   -4.2910    4.1290 C   0  0  0  0  0  0  0  0  0  0  0  0
    1.8046   -6.1041    2.4601 N   0  3  0  0  0  0  0  0  0  0  0  0
   -3.3084   -3.8190   -0.1883 C   0  0  0  0  0  0  0  0  0  0  0  0
    4.8416   -1.4361    0.5987 C   0  0  0  0  0  0  0  0  0  0  0  0
    1.5772   -6.5165    1.3124 O   0  0  0  0  0  0  0  0  0  0  0  0
    2.4691   -6.7197    3.3057 O   0  5  0  0  0  0  0  0  0  0  0  0
   -2.9740   -3.6747   -1.6880 C   0  0  0  0  0  0  0  0  0  0  0  0
   -1.5687   -3.9620   -2.0157 N   0  0  0  0  0  0  0  0  0  0  0  0
   -1.1068   -5.3078   -1.6660 C   0  0  0  0  0  0  0  0  0  0  0  0
   -1.2172   -3.5580   -3.3688 C   0  0  0  0  0  0  0  0  0  0  0  0
   -1.7324   -6.4903   -2.3743 C   0  0  0  0  0  0  0  0  0  0  0  0
   -1.2662   -6.8935   -3.6339 C   0  0  0  0  0  0  0  0  0  0  0  0
   -2.6799   -7.2925   -1.7200 C   0  0  0  0  0  0  0  0  0  0  0  0
   -1.6668   -8.1122   -4.1830 C   0  0  0  0  0  0  0  0  0  0  0  0
   -3.0764   -8.5134   -2.2681 C   0  0  0  0  0  0  0  0  0  0  0  0
   -2.5484   -8.9349   -3.4859 C   0  0  0  0  0  0  0  0  0  0  0  0
   -0.0511   -2.4255    0.0404 H   0  0  0  0  0  0  0  0  0  0  0  0
    0.4996   -4.3996    0.8627 H   0  0  0  0  0  0  0  0  0  0  0  0
    0.1983   -1.1537    3.6875 H   0  0  0  0  0  0  0  0  0  0  0  0
    1.1879   -2.6009    5.4336 H   0  0  0  0  0  0  0  0  0  0  0  0
   -0.3428    1.9680    0.1826 H   0  0  0  0  0  0  0  0  0  0  0  0
   -2.6953    1.9540    1.1243 H   0  0  0  0  0  0  0  0  0  0  0  0
   -2.5690    1.5673   -0.5978 H   0  0  0  0  0  0  0  0  0  0  0  0
   -3.5941    0.6046    0.4340 H   0  0  0  0  0  0  0  0  0  0  0  0
    1.6390    2.0386   -0.9466 H   0  0  0  0  0  0  0  0  0  0  0  0
    2.3340    2.1437    0.6798 H   0  0  0  0  0  0  0  0  0  0  0  0
    2.9664    0.9959   -0.5276 H   0  0  0  0  0  0  0  0  0  0  0  0
    1.9879   -4.8717    4.8844 H   0  0  0  0  0  0  0  0  0  0  0  0
   -3.2973   -4.8646    0.1271 H   0  0  0  0  0  0  0  0  0  0  0  0
   -4.3152   -3.4353    0.0124 H   0  0  0  0  0  0  0  0  0  0  0  0
    4.9022   -2.3393    1.2133 H   0  0  0  0  0  0  0  0  0  0  0  0
    5.0208   -1.6728   -0.4560 H   0  0  0  0  0  0  0  0  0  0  0  0
    5.6174   -0.7398    0.9294 H   0  0  0  0  0  0  0  0  0  0  0  0
   -3.6603   -4.2837   -2.2866 H   0  0  0  0  0  0  0  0  0  0  0  0
   -3.1653   -2.6252   -1.9509 H   0  0  0  0  0  0  0  0  0  0  0  0
   -0.0198   -5.3624   -1.8182 H   0  0  0  0  0  0  0  0  0  0  0  0
   -1.2080   -5.4591   -0.5842 H   0  0  0  0  0  0  0  0  0  0  0  0
   -1.8600   -4.0199   -4.1242 H   0  0  0  0  0  0  0  0  0  0  0  0
   -1.2962   -2.4698   -3.4708 H   0  0  0  0  0  0  0  0  0  0  0  0
   -0.1743   -3.8067   -3.5975 H   0  0  0  0  0  0  0  0  0  0  0  0
   -0.5422   -6.2859   -4.1709 H   0  0  0  0  0  0  0  0  0  0  0  0
   -3.0718   -7.0050   -0.7482 H   0  0  0  0  0  0  0  0  0  0  0  0
   -1.2585   -8.4363   -5.1363 H   0  0  0  0  0  0  0  0  0  0  0  0
   -3.7665   -9.1533   -1.7243 H   0  0  0  0  0  0  0  0  0  0  0  0
   -2.8114   -9.9110   -3.8841 H   0  0  0  0  0  0  0  0  0  0  0  0
  1  2  1  0  0  0  0
  1  3  1  0  0  0  0
  1  4  1  0  0  0  0
  1 36  1  0  0  0  0
  2  5  2  0  0  0  0
  2  6  1  0  0  0  0
  3  7  2  0  0  0  0
  3  8  1  0  0  0  0
  4  9  2  0  0  0  0
  4 10  1  0  0  0  0
  5 11  1  0  0  0  0
  5 37  1  0  0  0  0
  6 12  2  0  0  0  0
  6 38  1  0  0  0  0
  7 13  1  0  0  0  0
  7 14  1  0  0  0  0
  8 15  1  0  0  0  0
  8 16  2  0  0  0  0
  9 17  1  0  0  0  0
  9 13  1  0  0  0  0
 10 18  1  0  0  0  0
 10 19  2  0  0  0  0
 11 20  2  0  0  0  0
 11 21  1  0  0  0  0
 12 20  1  0  0  0  0
 12 39  1  0  0  0  0
 13 40  1  0  0  0  0
 14 41  1  0  0  0  0
 14 42  1  0  0  0  0
 14 43  1  0  0  0  0
 15 22  1  0  0  0  0
 17 44  1  0  0  0  0
 17 45  1  0  0  0  0
 17 46  1  0  0  0  0
 18 23  1  0  0  0  0
 20 47  1  0  0  0  0
 21 24  2  0  0  0  0
 21 25  1  0  0  0  0
 22 26  1  0  0  0  0
 22 48  1  0  0  0  0
 22 49  1  0  0  0  0
 23 50  1  0  0  0  0
 23 51  1  0  0  0  0
 23 52  1  0  0  0  0
 26 27  1  0  0  0  0
 26 53  1  0  0  0  0
 26 54  1  0  0  0  0
 27 28  1  0  0  0  0
 27 29  1  0  0  0  0
 28 30  1  0  0  0  0
 28 55  1  0  0  0  0
 28 56  1  0  0  0  0
 29 57  1  0  0  0  0
 29 58  1  0  0  0  0
 29 59  1  0  0  0  0
 30 31  2  0  0  0  0
 30 32  1  0  0  0  0
 31 33  1  0  0  0  0
 31 60  1  0  0  0  0
 32 34  2  0  0  0  0
 32 61  1  0  0  0  0
 33 35  2  0  0  0  0
 33 62  1  0  0  0  0
 34 35  1  0  0  0  0
 34 63  1  0  0  0  0
 35 64  1  0  0  0  0
M  CHG  2  21   1  25  -1
M  END
>  <Mol_ID>
3141

>  <Formula>
C26H29N3O6

>  <MolWeight>
479.52496

>  <Cat>
S5255

>  <Name>
Nicardipine

>  <Synonyms>
YC-93

>  <Target>
Calcium Channel

>  <Form>
free base

>  <CAS>
55985-32-5

>  <URL>
https://www.selleckchem.com/products/nicardipine.html

$$$$
