S5256 Benproperine phosphate.cdx
 OpenBabel08302520013D

 58 59  0  0  0  0  0  0  0  0999 V2000
    2.7977   -0.5582    2.3962 C   0  0  0  0  0  0  0  0  0  0  0  0
    1.9339   -1.7503    2.5808 C   0  0  0  0  0  0  0  0  0  0  0  0
    4.2777   -0.5288    1.5962 C   0  0  0  0  0  0  0  0  0  0  0  0
    2.1874    0.6926    2.7158 C   0  0  0  0  0  0  0  0  0  0  0  0
    2.2412   -2.9834    1.9804 O   0  0  0  0  0  0  0  0  0  0  0  0
    0.6166   -1.5985    3.1411 C   0  0  0  0  0  0  0  0  0  0  0  0
    4.9303    0.5868    0.4864 C   0  0  0  0  0  0  0  0  0  0  0  0
    0.8167    0.8005    3.0713 C   0  0  0  0  0  0  0  0  0  0  0  0
    1.1905   -3.9408    1.4401 C   0  0  0  0  0  0  0  0  0  0  0  0
    0.0475   -0.3284    3.2968 C   0  0  0  0  0  0  0  0  0  0  0  0
    4.6191    1.9554    0.3266 C   0  0  0  0  0  0  0  0  0  0  0  0
    5.8033    0.1234   -0.5650 C   0  0  0  0  0  0  0  0  0  0  0  0
    1.3700   -5.3570    2.1064 C   0  0  3  0  0  0  0  0  0  0  0  0
    5.2992    2.8095   -0.6125 C   0  0  0  0  0  0  0  0  0  0  0  0
    6.4315    0.9591   -1.5365 C   0  0  0  0  0  0  0  0  0  0  0  0
    0.2240   -6.3674    2.0900 N   0  0  0  0  0  0  0  0  0  0  0  0
    2.7560   -5.8858    1.7316 C   0  0  0  0  0  0  0  0  0  0  0  0
    6.2438    2.3332   -1.5150 C   0  0  0  0  0  0  0  0  0  0  0  0
    0.4018   -7.6076    1.2834 C   0  0  0  0  0  0  0  0  0  0  0  0
    0.0295   -6.8323    3.4946 C   0  0  0  0  0  0  0  0  0  0  0  0
   -0.8028   -8.5770    1.3303 C   0  0  0  0  0  0  0  0  0  0  0  0
   -1.2234   -7.6833    3.7041 C   0  0  0  0  0  0  0  0  0  0  0  0
   -1.4248   -8.8264    2.7053 C   0  0  0  0  0  0  0  0  0  0  0  0
    1.0772    0.0544    0.0329 P   0  0  0  0  0  0  0  0  0  0  0  0
    0.9664   -0.4549   -1.4954 O   0  0  0  0  0  0  0  0  0  0  0  0
    0.6965   -1.4628    0.4166 O   0  0  0  0  0  0  0  0  0  0  0  0
   -0.6528    0.0544    0.0329 O   0  0  0  0  0  0  0  0  0  0  0  0
    2.6255    0.0544    0.0329 O   0  0  0  0  0  0  0  0  0  0  0  0
    5.0255   -0.5844    2.3883 H   0  0  0  0  0  0  0  0  0  0  0  0
    4.2871   -1.4818    1.0382 H   0  0  0  0  0  0  0  0  0  0  0  0
    2.7059    1.6217    2.4928 H   0  0  0  0  0  0  0  0  0  0  0  0
   -0.0581   -2.4478    3.2284 H   0  0  0  0  0  0  0  0  0  0  0  0
    0.3180    1.7756    3.0574 H   0  0  0  0  0  0  0  0  0  0  0  0
    0.1535   -3.5870    1.5454 H   0  0  0  0  0  0  0  0  0  0  0  0
    1.3591   -4.0289    0.3516 H   0  0  0  0  0  0  0  0  0  0  0  0
   -1.0378   -0.2358    3.4556 H   0  0  0  0  0  0  0  0  0  0  0  0
    3.7416    2.3846    0.7981 H   0  0  0  0  0  0  0  0  0  0  0  0
    5.9361   -0.9420   -0.7082 H   0  0  0  0  0  0  0  0  0  0  0  0
    1.4637   -5.0495    3.1537 H   0  0  0  0  0  0  0  0  0  0  0  0
    5.0210    3.8697   -0.6563 H   0  0  0  0  0  0  0  0  0  0  0  0
    7.0569    0.5454   -2.3190 H   0  0  0  0  0  0  0  0  0  0  0  0
    3.4735   -5.0580    1.7011 H   0  0  0  0  0  0  0  0  0  0  0  0
    3.1071   -6.5854    2.4884 H   0  0  0  0  0  0  0  0  0  0  0  0
    2.7788   -6.3548    0.7449 H   0  0  0  0  0  0  0  0  0  0  0  0
    6.7164    2.9920   -2.2509 H   0  0  0  0  0  0  0  0  0  0  0  0
    1.2801   -8.1745    1.6122 H   0  0  0  0  0  0  0  0  0  0  0  0
    0.5631   -7.3653    0.2253 H   0  0  0  0  0  0  0  0  0  0  0  0
   -0.0863   -5.9673    4.2080 H   0  0  0  0  0  0  0  0  0  0  0  0
    0.9071   -7.4041    3.8136 H   0  0  0  0  0  0  0  0  0  0  0  0
   -0.5033   -9.5534    0.9191 H   0  0  0  0  0  0  0  0  0  0  0  0
   -1.5970   -8.2175    0.6573 H   0  0  0  0  0  0  0  0  0  0  0  0
   -2.1079   -7.0516    3.6970 H   0  0  0  0  0  0  0  0  0  0  0  0
   -1.1703   -8.1329    4.7117 H   0  0  0  0  0  0  0  0  0  0  0  0
   -2.5047   -9.0026    2.5891 H   0  0  0  0  0  0  0  0  0  0  0  0
   -1.0480   -9.7682    3.1312 H   0  0  0  0  0  0  0  0  0  0  0  0
    1.5060   -1.2903   -1.4598 H   0  0  0  0  0  0  0  0  0  0  0  0
   -0.0694   -1.3260    1.0163 H   0  0  0  0  0  0  0  0  0  0  0  0
   -0.8598   -0.4773   -0.7671 H   0  0  0  0  0  0  0  0  0  0  0  0
  1  2  1  0  0  0  0
  1  3  1  0  0  0  0
  1  4  2  0  0  0  0
  2  5  1  0  0  0  0
  2  6  2  0  0  0  0
  3  7  1  0  0  0  0
  3 29  1  0  0  0  0
  3 30  1  0  0  0  0
  4  8  1  0  0  0  0
  4 31  1  0  0  0  0
  5  9  1  0  0  0  0
  6 10  1  0  0  0  0
  6 32  1  0  0  0  0
  7 11  2  0  0  0  0
  7 12  1  0  0  0  0
  8 10  2  0  0  0  0
  8 33  1  0  0  0  0
  9 13  1  0  0  0  0
  9 34  1  0  0  0  0
  9 35  1  0  0  0  0
 10 36  1  0  0  0  0
 11 14  1  0  0  0  0
 11 37  1  0  0  0  0
 12 15  2  0  0  0  0
 12 38  1  0  0  0  0
 13 16  1  0  0  0  0
 13 17  1  0  0  0  0
 13 39  1  0  0  0  0
 14 18  2  0  0  0  0
 14 40  1  0  0  0  0
 15 18  1  0  0  0  0
 15 41  1  0  0  0  0
 16 19  1  0  0  0  0
 16 20  1  0  0  0  0
 17 42  1  0  0  0  0
 17 43  1  0  0  0  0
 17 44  1  0  0  0  0
 18 45  1  0  0  0  0
 19 21  1  0  0  0  0
 19 46  1  0  0  0  0
 19 47  1  0  0  0  0
 20 22  1  0  0  0  0
 20 48  1  0  0  0  0
 20 49  1  0  0  0  0
 21 23  1  0  0  0  0
 21 50  1  0  0  0  0
 21 51  1  0  0  0  0
 22 23  1  0  0  0  0
 22 52  1  0  0  0  0
 22 53  1  0  0  0  0
 23 54  1  0  0  0  0
 23 55  1  0  0  0  0
 24 25  1  0  0  0  0
 24 26  1  0  0  0  0
 24 27  1  0  0  0  0
 24 28  2  0  0  0  0
 25 56  1  0  0  0  0
 26 57  1  0  0  0  0
 27 58  1  0  0  0  0
M  END
>  <Mol_ID>
2978

>  <Formula>
C21H30NO5P

>  <MolWeight>
407.440361

>  <Cat>
S5256

>  <Name>
Benproperine phosphate

>  <Synonyms>
Blascorid, Pirexyl phosphate

>  <Target>
Actin,Microtubule Associated

>  <Form>
phosphate

>  <CAS>
19428-14-9

>  <URL>
http://selleckchem.com/products/benproperine-phosphate.html

$$$$
