S5259 ¦Â-Nicotinamide Mononucleotide.cdx
 OpenBabel08302521383D

 37 38  0  0  0  0  0  0  0  0999 V2000
    0.5720    1.4702    0.3542 C   0  0  2  0  0  0  0  0  0  0  0  0
    0.8877    2.8766    0.0171 N   0  3  0  0  0  0  0  0  0  0  0  0
    1.7449    0.6533    0.2756 O   0  0  0  0  0  0  0  0  0  0  0  0
   -0.4866    0.8664   -0.5530 C   0  0  1  0  0  0  0  0  0  0  0  0
    2.0936    3.1731   -0.5367 C   0  0  0  0  0  0  0  0  0  0  0  0
    0.0618    3.8612    0.4475 C   0  0  0  0  0  0  0  0  0  0  0  0
    1.3866   -0.5994   -0.3447 C   0  0  1  0  0  0  0  0  0  0  0  0
   -0.1499   -0.6095   -0.3907 C   0  0  1  0  0  0  0  0  0  0  0  0
   -1.8126    1.1703   -0.1070 O   0  0  0  0  0  0  0  0  0  0  0  0
    2.5655    4.4730   -0.5368 C   0  0  0  0  0  0  0  0  0  0  0  0
    0.4858    5.1880    0.4446 C   0  0  0  0  0  0  0  0  0  0  0  0
    1.9734   -0.7160   -1.7551 C   0  0  0  0  0  0  0  0  0  0  0  0
   -0.6963   -1.0132    0.8786 O   0  0  0  0  0  0  0  0  0  0  0  0
    1.7640    5.4894   -0.0133 C   0  0  0  0  0  0  0  0  0  0  0  0
    3.9584    4.7503   -0.9399 C   0  0  0  0  0  0  0  0  0  0  0  0
    3.4090   -0.7260   -1.7690 O   0  0  0  0  0  0  0  0  0  0  0  0
    4.5571    3.8996   -1.8236 N   0  0  0  0  0  0  0  0  0  0  0  0
    4.5484    5.7089   -0.4591 O   0  0  0  0  0  0  0  0  0  0  0  0
    4.1446   -1.0529   -3.3004 P   0  0  3  0  0  0  0  0  0  0  0  0
    2.9622   -2.0915   -3.7268 O   0  0  0  0  0  0  0  0  0  0  0  0
    3.6334    0.3504   -3.6965 O   0  0  0  0  0  0  0  0  0  0  0  0
    4.8801   -1.3798   -4.8317 O   0  5  0  0  0  0  0  0  0  0  0  0
    0.2498    1.4876    1.4031 H   0  0  0  0  0  0  0  0  0  0  0  0
   -0.3819    1.2010   -1.5901 H   0  0  0  0  0  0  0  0  0  0  0  0
    2.6950    2.3404   -0.8886 H   0  0  0  0  0  0  0  0  0  0  0  0
   -0.9090    3.5735    0.8404 H   0  0  0  0  0  0  0  0  0  0  0  0
    1.7864   -1.3917    0.2962 H   0  0  0  0  0  0  0  0  0  0  0  0
   -0.5909   -1.2484   -1.1601 H   0  0  0  0  0  0  0  0  0  0  0  0
   -2.0987    0.4072    0.4454 H   0  0  0  0  0  0  0  0  0  0  0  0
   -0.1527    5.9734    0.8449 H   0  0  0  0  0  0  0  0  0  0  0  0
    1.5900   -1.6632   -2.1421 H   0  0  0  0  0  0  0  0  0  0  0  0
    1.6176    0.1002   -2.3901 H   0  0  0  0  0  0  0  0  0  0  0  0
   -0.4136   -1.9364    1.0379 H   0  0  0  0  0  0  0  0  0  0  0  0
    2.1450    6.5086    0.0511 H   0  0  0  0  0  0  0  0  0  0  0  0
    5.5182    4.0939   -2.0800 H   0  0  0  0  0  0  0  0  0  0  0  0
    4.1264    3.1473   -2.3566 H   0  0  0  0  0  0  0  0  0  0  0  0
    3.0184   -1.9415   -4.6992 H   0  0  0  0  0  0  0  0  0  0  0  0
  1  3  1  0  0  0  0
  1  4  1  0  0  0  0
  1 23  1  1  0  0  0
  1  2  1  0  0  0  0
  2  5  2  0  0  0  0
  2  6  1  0  0  0  0
  3  7  1  0  0  0  0
  4  8  1  0  0  0  0
  4  9  1  0  0  0  0
  4 24  1  6  0  0  0
  5 10  1  0  0  0  0
  5 25  1  0  0  0  0
  6 11  2  0  0  0  0
  6 26  1  0  0  0  0
  7  8  1  0  0  0  0
  7 27  1  1  0  0  0
  7 12  1  0  0  0  0
  8 13  1  0  0  0  0
  8 28  1  6  0  0  0
  9 29  1  0  0  0  0
 10 14  2  0  0  0  0
 10 15  1  0  0  0  0
 11 14  1  0  0  0  0
 11 30  1  0  0  0  0
 12 16  1  0  0  0  0
 12 31  1  0  0  0  0
 12 32  1  0  0  0  0
 13 33  1  0  0  0  0
 14 34  1  0  0  0  0
 15 17  1  0  0  0  0
 15 18  2  0  0  0  0
 16 19  1  0  0  0  0
 17 35  1  0  0  0  0
 17 36  1  0  0  0  0
 19 20  1  0  0  0  0
 19 21  2  0  0  0  0
 19 22  1  0  0  0  0
 20 37  1  0  0  0  0
M  CHG  2   2   1  22  -1
M  END
>  <Mol_ID>
7849

>  <Formula>
C11H15N2O8P

>  <MolWeight>
334.219161

>  <Cat>
S5259

>  <Name>
¦Â-Nicotinamide Mononucleotide

>  <Synonyms>
¦Â-NM, NMN

>  <Target>
Others

>  <Form>
inner salt

>  <CAS>
1094-61-7

>  <URL>
http://selleckchem.com/products/beta-nicotinamide-mononucleotide.html

$$$$
