S5253 Cisapride.cdx
 OpenBabel08302520013D

 61 63  0  0  0  0  0  0  0  0999 V2000
   -2.4611   -0.6751    2.8765 C   0  0  0  0  0  0  0  0  0  0  0  0
   -1.3660    0.1362    3.2201 C   0  0  0  0  0  0  0  0  0  0  0  0
   -3.4027   -0.3190    1.7801 C   0  0  0  0  0  0  0  0  0  0  0  0
   -2.7373   -1.8082    3.6462 C   0  0  0  0  0  0  0  0  0  0  0  0
   -0.5304   -0.2672    4.2796 C   0  0  0  0  0  0  0  0  0  0  0  0
   -1.1754    1.2840    2.4976 O   0  0  0  0  0  0  0  0  0  0  0  0
   -3.7705   -1.2538    0.8252 N   0  0  0  0  0  0  0  0  0  0  0  0
   -3.9025    0.8039    1.7291 O   0  0  0  0  0  0  0  0  0  0  0  0
   -1.8625   -2.2284    4.6469 C   0  0  0  0  0  0  0  0  0  0  0  0
   -0.7283   -1.4858    4.9433 C   0  0  0  0  0  0  0  0  0  0  0  0
   -0.2003    2.2067    2.9698 C   0  0  0  0  0  0  0  0  0  0  0  0
   -3.0332   -2.4573    0.3803 C   0  0  2  0  0  0  0  0  0  0  0  0
    0.0554   -1.8205    6.0541 N   0  0  0  0  0  0  0  0  0  0  0  0
   -3.0281   -2.6721   -1.1688 C   0  0  1  0  0  0  0  0  0  0  0  0
   -3.3725   -3.7101    1.2076 C   0  0  0  0  0  0  0  0  0  0  0  0
   -3.5223   -4.0482   -1.6759 C   0  0  0  0  0  0  0  0  0  0  0  0
   -3.5328   -1.5419   -1.9050 O   0  0  0  0  0  0  0  0  0  0  0  0
   -3.7832   -4.9771    0.4751 C   0  0  0  0  0  0  0  0  0  0  0  0
   -3.0860   -5.1542   -0.8057 N   0  0  0  0  0  0  0  0  0  0  0  0
   -4.9208   -1.5153   -2.2047 C   0  0  0  0  0  0  0  0  0  0  0  0
   -3.4457   -6.4810   -1.3530 C   0  0  0  0  0  0  0  0  0  0  0  0
   -2.7706   -6.8998   -2.6653 C   0  0  0  0  0  0  0  0  0  0  0  0
   -1.2456   -6.9494   -2.5952 C   0  0  0  0  0  0  0  0  0  0  0  0
   -0.7139   -7.4407   -3.8359 O   0  0  0  0  0  0  0  0  0  0  0  0
   -0.5882   -8.7933   -3.9974 C   0  0  0  0  0  0  0  0  0  0  0  0
   -0.7287   -9.2553   -5.3125 C   0  0  0  0  0  0  0  0  0  0  0  0
   -0.2748   -9.7019   -2.9846 C   0  0  0  0  0  0  0  0  0  0  0  0
   -0.6089  -10.6165   -5.6057 C   0  0  0  0  0  0  0  0  0  0  0  0
   -0.1544  -11.0655   -3.2764 C   0  0  0  0  0  0  0  0  0  0  0  0
   -0.3301  -11.5112   -4.5812 C   0  0  0  0  0  0  0  0  0  0  0  0
   -0.2145  -12.8176   -4.8541 F   0  0  0  0  0  0  0  0  0  0  0  0
   -3.6543   -2.3619    3.4928 H   0  0  0  0  0  0  0  0  0  0  0  0
    0.2973    0.3555    4.5989 H   0  0  0  0  0  0  0  0  0  0  0  0
   -4.2829   -0.7720    0.0971 H   0  0  0  0  0  0  0  0  0  0  0  0
   -2.0905   -3.1343    5.2018 H   0  0  0  0  0  0  0  0  0  0  0  0
   -0.3931    2.5046    4.0066 H   0  0  0  0  0  0  0  0  0  0  0  0
    0.8073    1.7923    2.8604 H   0  0  0  0  0  0  0  0  0  0  0  0
   -0.2573    3.1082    2.3523 H   0  0  0  0  0  0  0  0  0  0  0  0
   -1.9920   -2.2117    0.6303 H   0  0  0  0  0  0  0  0  0  0  0  0
    0.0708   -2.8147    6.2608 H   0  0  0  0  0  0  0  0  0  0  0  0
    0.9854   -1.4142    6.0516 H   0  0  0  0  0  0  0  0  0  0  0  0
   -1.9576   -2.6673   -1.4220 H   0  0  0  0  0  0  0  0  0  0  0  0
   -2.4854   -3.9566    1.8096 H   0  0  0  0  0  0  0  0  0  0  0  0
   -4.1840   -3.4989    1.9082 H   0  0  0  0  0  0  0  0  0  0  0  0
   -4.6132   -4.0657   -1.7801 H   0  0  0  0  0  0  0  0  0  0  0  0
   -3.1233   -4.1719   -2.6898 H   0  0  0  0  0  0  0  0  0  0  0  0
   -3.5703   -5.8242    1.1421 H   0  0  0  0  0  0  0  0  0  0  0  0
   -4.8733   -4.9745    0.3297 H   0  0  0  0  0  0  0  0  0  0  0  0
   -5.1979   -2.3223   -2.8869 H   0  0  0  0  0  0  0  0  0  0  0  0
   -5.5348   -1.5596   -1.3019 H   0  0  0  0  0  0  0  0  0  0  0  0
   -5.1304   -0.5710   -2.7165 H   0  0  0  0  0  0  0  0  0  0  0  0
   -3.1812   -7.2437   -0.6069 H   0  0  0  0  0  0  0  0  0  0  0  0
   -4.5334   -6.5496   -1.4892 H   0  0  0  0  0  0  0  0  0  0  0  0
   -3.1463   -7.8956   -2.9342 H   0  0  0  0  0  0  0  0  0  0  0  0
   -3.0806   -6.2499   -3.4909 H   0  0  0  0  0  0  0  0  0  0  0  0
   -0.8542   -5.9328   -2.4778 H   0  0  0  0  0  0  0  0  0  0  0  0
   -0.8954   -7.5118   -1.7258 H   0  0  0  0  0  0  0  0  0  0  0  0
   -0.9355   -8.5502   -6.1139 H   0  0  0  0  0  0  0  0  0  0  0  0
   -0.0850   -9.3815   -1.9668 H   0  0  0  0  0  0  0  0  0  0  0  0
   -0.7248  -10.9786   -6.6225 H   0  0  0  0  0  0  0  0  0  0  0  0
    0.0885  -11.7791   -2.4953 H   0  0  0  0  0  0  0  0  0  0  0  0
  1  2  2  0  0  0  0
  1  3  1  0  0  0  0
  1  4  1  0  0  0  0
  2  5  1  0  0  0  0
  2  6  1  0  0  0  0
  3  7  1  0  0  0  0
  3  8  2  0  0  0  0
  4  9  2  0  0  0  0
  4 32  1  0  0  0  0
  5 10  2  0  0  0  0
  5 33  1  0  0  0  0
  6 11  1  0  0  0  0
  7 34  1  0  0  0  0
  9 10  1  0  0  0  0
  9 35  1  0  0  0  0
 10 13  1  0  0  0  0
 11 36  1  0  0  0  0
 11 37  1  0  0  0  0
 11 38  1  0  0  0  0
 12  7  1  0  0  0  0
 12 14  1  0  0  0  0
 12 15  1  0  0  0  0
 12 39  1  1  0  0  0
 13 40  1  0  0  0  0
 13 41  1  0  0  0  0
 14 16  1  0  0  0  0
 14 17  1  0  0  0  0
 14 42  1  6  0  0  0
 15 18  1  0  0  0  0
 15 43  1  0  0  0  0
 15 44  1  0  0  0  0
 16 19  1  0  0  0  0
 16 45  1  0  0  0  0
 16 46  1  0  0  0  0
 17 20  1  0  0  0  0
 18 19  1  0  0  0  0
 18 47  1  0  0  0  0
 18 48  1  0  0  0  0
 19 21  1  0  0  0  0
 20 49  1  0  0  0  0
 20 50  1  0  0  0  0
 20 51  1  0  0  0  0
 21 22  1  0  0  0  0
 21 52  1  0  0  0  0
 21 53  1  0  0  0  0
 22 23  1  0  0  0  0
 22 54  1  0  0  0  0
 22 55  1  0  0  0  0
 23 24  1  0  0  0  0
 23 56  1  0  0  0  0
 23 57  1  0  0  0  0
 24 25  1  0  0  0  0
 25 26  2  0  0  0  0
 25 27  1  0  0  0  0
 26 28  1  0  0  0  0
 26 58  1  0  0  0  0
 27 29  2  0  0  0  0
 27 59  1  0  0  0  0
 28 30  2  0  0  0  0
 28 60  1  0  0  0  0
 29 30  1  0  0  0  0
 29 61  1  0  0  0  0
 30 31  1  0  0  0  0
M  END
>  <Mol_ID>
2897

>  <Formula>
C23H29ClFN3O4

>  <MolWeight>
465.9454632

>  <Cat>
S5253

>  <Name>
Cisapride (R 51619)

>  <Synonyms>
Kaudalit, Kinestase, Prepulsid, Presid, Pridesia, Propulsid

>  <Target>
5-HT Receptor

>  <Form>
Benzamide

>  <CAS>
81098-60-4

>  <URL>
http://selleckchem.com/products/cisapride.html

$$$$
