S5269 J147.cdx
 OpenBabel08302520013D

 42 43  0  0  0  0  0  0  0  0999 V2000
    0.9376    0.2599    0.1202 C   0  0  0  0  0  0  0  0  0  0  0  0
   -0.0030   -0.0716   -1.0409 C   0  0  0  0  0  0  0  0  0  0  0  0
    0.4397    0.6946    1.1757 O   0  0  0  0  0  0  0  0  0  0  0  0
    2.3350    0.1570   -0.0306 N   0  0  0  0  0  0  0  0  0  0  0  0
    2.9983   -0.4087   -1.1074 N   0  0  0  0  0  0  0  0  0  0  0  0
    2.8154    0.1065   -2.2819 C   0  0  0  0  0  0  0  0  0  0  0  0
    3.4336   -0.4620   -3.5014 C   0  0  0  0  0  0  0  0  0  0  0  0
    4.4832   -1.3879   -3.4320 C   0  0  0  0  0  0  0  0  0  0  0  0
    5.0421   -1.8895   -4.6112 C   0  0  0  0  0  0  0  0  0  0  0  0
    4.5362   -1.4722   -5.8468 C   0  0  0  0  0  0  0  0  0  0  0  0
    3.4795   -0.5637   -5.9146 C   0  0  0  0  0  0  0  0  0  0  0  0
    2.9282   -0.0546   -4.7406 C   0  0  0  0  0  0  0  0  0  0  0  0
    6.0763   -2.7799   -4.7049 O   0  0  0  0  0  0  0  0  0  0  0  0
    6.6409   -3.2496   -3.4879 C   0  0  0  0  0  0  0  0  0  0  0  0
    3.1475    0.1344    1.1520 C   0  0  0  0  0  0  0  0  0  0  0  0
    4.2727    0.9717    1.2783 C   0  0  0  0  0  0  0  0  0  0  0  0
    5.0420    0.9168    2.4593 C   0  0  0  0  0  0  0  0  0  0  0  0
    4.7061    0.0587    3.5131 C   0  0  0  0  0  0  0  0  0  0  0  0
    3.5833   -0.7553    3.3837 C   0  0  0  0  0  0  0  0  0  0  0  0
    2.8090   -0.7151    2.2201 C   0  0  0  0  0  0  0  0  0  0  0  0
    5.5275    0.0261    4.7683 C   0  0  0  0  0  0  0  0  0  0  0  0
    4.6659    1.9841    0.2405 C   0  0  0  0  0  0  0  0  0  0  0  0
    0.5014   -0.8297   -2.0515 F   0  0  0  0  0  0  0  0  0  0  0  0
   -1.1154   -0.7432   -0.6171 F   0  0  0  0  0  0  0  0  0  0  0  0
   -0.4689    1.0690   -1.6362 F   0  0  0  0  0  0  0  0  0  0  0  0
    2.1711    0.9914   -2.4291 H   0  0  0  0  0  0  0  0  0  0  0  0
    4.8476   -1.6970   -2.4572 H   0  0  0  0  0  0  0  0  0  0  0  0
    4.9690   -1.8635   -6.7646 H   0  0  0  0  0  0  0  0  0  0  0  0
    3.0896   -0.2590   -6.8828 H   0  0  0  0  0  0  0  0  0  0  0  0
    2.0939    0.6391   -4.8061 H   0  0  0  0  0  0  0  0  0  0  0  0
    7.0787   -2.4271   -2.9130 H   0  0  0  0  0  0  0  0  0  0  0  0
    5.9010   -3.7985   -2.8972 H   0  0  0  0  0  0  0  0  0  0  0  0
    7.4475   -3.9449   -3.7414 H   0  0  0  0  0  0  0  0  0  0  0  0
    5.9079    1.5740    2.5566 H   0  0  0  0  0  0  0  0  0  0  0  0
    3.2970   -1.4251    4.1916 H   0  0  0  0  0  0  0  0  0  0  0  0
    1.9419   -1.3678    2.1540 H   0  0  0  0  0  0  0  0  0  0  0  0
    4.9071    0.2859    5.6321 H   0  0  0  0  0  0  0  0  0  0  0  0
    5.9523   -0.9709    4.9158 H   0  0  0  0  0  0  0  0  0  0  0  0
    6.3559    0.7407    4.7270 H   0  0  0  0  0  0  0  0  0  0  0  0
    4.8174    2.9611    0.7151 H   0  0  0  0  0  0  0  0  0  0  0  0
    5.5967    1.6802   -0.2496 H   0  0  0  0  0  0  0  0  0  0  0  0
    3.9009    2.1330   -0.5241 H   0  0  0  0  0  0  0  0  0  0  0  0
  1  2  1  0  0  0  0
  1  3  2  0  0  0  0
  1  4  1  0  0  0  0
  2 23  1  0  0  0  0
  2 24  1  0  0  0  0
  2 25  1  0  0  0  0
  4  5  1  0  0  0  0
  4 15  1  0  0  0  0
  5  6  2  0  0  0  0
  6  7  1  0  0  0  0
  6 26  1  0  0  0  0
  7  8  2  0  0  0  0
  7 12  1  0  0  0  0
  8  9  1  0  0  0  0
  8 27  1  0  0  0  0
  9 10  2  0  0  0  0
  9 13  1  0  0  0  0
 10 11  1  0  0  0  0
 10 28  1  0  0  0  0
 11 12  2  0  0  0  0
 11 29  1  0  0  0  0
 12 30  1  0  0  0  0
 13 14  1  0  0  0  0
 14 31  1  0  0  0  0
 14 32  1  0  0  0  0
 14 33  1  0  0  0  0
 15 16  2  0  0  0  0
 15 20  1  0  0  0  0
 16 17  1  0  0  0  0
 16 22  1  0  0  0  0
 17 18  2  0  0  0  0
 17 34  1  0  0  0  0
 18 19  1  0  0  0  0
 18 21  1  0  0  0  0
 19 20  2  0  0  0  0
 19 35  1  0  0  0  0
 20 36  1  0  0  0  0
 21 37  1  0  0  0  0
 21 38  1  0  0  0  0
 21 39  1  0  0  0  0
 22 40  1  0  0  0  0
 22 41  1  0  0  0  0
 22 42  1  0  0  0  0
M  END
>  <Mol_ID>
2878

>  <Formula>
C18H17F3N2O2

>  <MolWeight>
350.3349896

>  <Cat>
S5269

>  <Name>
J147

>  <Synonyms>
N/A

>  <Target>
MAO

>  <Form>
free base

>  <CAS>
1146963-51-0

>  <URL>
http://selleckchem.com/products/j147.html

$$$$
