S5267 Nylidrin Hydrochloride.cdx
 OpenBabel08302521383D

 47 48  0  0  0  0  0  0  0  0999 V2000
   -1.8645    0.1135   -0.3135 C   0  0  0  0  0  0  0  0  0  0  0  0
   -3.3893    0.0709   -0.2477 C   0  0  3  0  0  0  0  0  0  0  0  0
   -1.0952   -0.5644    0.6469 C   0  0  0  0  0  0  0  0  0  0  0  0
   -1.1901    0.8386   -1.3101 C   0  0  0  0  0  0  0  0  0  0  0  0
   -3.9874    0.6807    1.0737 C   0  0  3  0  0  0  0  0  0  0  0  0
   -3.9487    0.7696   -1.3690 O   0  0  0  0  0  0  0  0  0  0  0  0
    0.3037   -0.4887    0.6312 C   0  0  0  0  0  0  0  0  0  0  0  0
    0.2070    0.9232   -1.3238 C   0  0  0  0  0  0  0  0  0  0  0  0
   -3.5832    2.1000    1.1808 N   0  0  0  0  0  0  0  0  0  0  0  0
   -5.5171    0.5521    1.0610 C   0  0  0  0  0  0  0  0  0  0  0  0
    0.9382    0.2602   -0.3494 C   0  0  0  0  0  0  0  0  0  0  0  0
   -4.0523    2.8488    2.3630 C   0  0  3  0  0  0  0  0  0  0  0  0
    2.2976    0.3656   -0.3946 O   0  0  0  0  0  0  0  0  0  0  0  0
   -3.4898    2.2814    3.6885 C   0  0  0  0  0  0  0  0  0  0  0  0
   -3.6294    4.2960    2.0788 C   0  0  0  0  0  0  0  0  0  0  0  0
   -3.9569    2.9971    4.9725 C   0  0  0  0  0  0  0  0  0  0  0  0
   -3.4373    2.2946    6.2168 C   0  0  0  0  0  0  0  0  0  0  0  0
   -2.1780    2.6201    6.7431 C   0  0  0  0  0  0  0  0  0  0  0  0
   -4.1703    1.2660    6.8274 C   0  0  0  0  0  0  0  0  0  0  0  0
   -1.6353    1.8882    7.8062 C   0  0  0  0  0  0  0  0  0  0  0  0
   -3.6333    0.5468    7.9042 C   0  0  0  0  0  0  0  0  0  0  0  0
   -2.3577    0.8425    8.3732 C   0  0  0  0  0  0  0  0  0  0  0  0
   -3.6997   -0.9763   -0.3448 H   0  0  0  0  0  0  0  0  0  0  0  0
   -1.5777   -1.1558    1.4229 H   0  0  0  0  0  0  0  0  0  0  0  0
   -1.7428    1.3543   -2.0939 H   0  0  0  0  0  0  0  0  0  0  0  0
   -3.5908    0.1117    1.9208 H   0  0  0  0  0  0  0  0  0  0  0  0
   -4.0043    1.6989   -1.0681 H   0  0  0  0  0  0  0  0  0  0  0  0
    0.8721   -1.0167    1.3927 H   0  0  0  0  0  0  0  0  0  0  0  0
    0.7097    1.5007   -2.0888 H   0  0  0  0  0  0  0  0  0  0  0  0
   -2.5590    2.1439    1.1510 H   0  0  0  0  0  0  0  0  0  0  0  0
   -5.8179   -0.4838    0.8777 H   0  0  0  0  0  0  0  0  0  0  0  0
   -5.9529    0.8468    2.0204 H   0  0  0  0  0  0  0  0  0  0  0  0
   -5.9700    1.1775    0.2824 H   0  0  0  0  0  0  0  0  0  0  0  0
   -5.1454    2.8452    2.3993 H   0  0  0  0  0  0  0  0  0  0  0  0
    2.6777   -0.1804    0.3047 H   0  0  0  0  0  0  0  0  0  0  0  0
   -3.7968    1.2322    3.7772 H   0  0  0  0  0  0  0  0  0  0  0  0
   -2.3928    2.2786    3.6528 H   0  0  0  0  0  0  0  0  0  0  0  0
   -4.0420    4.6313    1.1195 H   0  0  0  0  0  0  0  0  0  0  0  0
   -4.0012    4.9856    2.8429 H   0  0  0  0  0  0  0  0  0  0  0  0
   -2.5396    4.3983    2.0198 H   0  0  0  0  0  0  0  0  0  0  0  0
   -3.6130    4.0374    4.9808 H   0  0  0  0  0  0  0  0  0  0  0  0
   -5.0528    3.0319    5.0093 H   0  0  0  0  0  0  0  0  0  0  0  0
   -1.6041    3.4421    6.3239 H   0  0  0  0  0  0  0  0  0  0  0  0
   -5.1643    1.0077    6.4701 H   0  0  0  0  0  0  0  0  0  0  0  0
   -0.6458    2.1315    8.1834 H   0  0  0  0  0  0  0  0  0  0  0  0
   -4.2075   -0.2510    8.3673 H   0  0  0  0  0  0  0  0  0  0  0  0
   -1.9237    0.2567    9.1835 H   0  0  0  0  0  0  0  0  0  0  0  0
  1  2  1  0  0  0  0
  1  3  2  0  0  0  0
  1  4  1  0  0  0  0
  2  5  1  0  0  0  0
  2  6  1  0  0  0  0
  2 23  1  0  0  0  0
  3  7  1  0  0  0  0
  3 24  1  0  0  0  0
  4  8  2  0  0  0  0
  4 25  1  0  0  0  0
  5  9  1  0  0  0  0
  5 10  1  0  0  0  0
  5 26  1  0  0  0  0
  6 27  1  0  0  0  0
  7 11  2  0  0  0  0
  7 28  1  0  0  0  0
  8 11  1  0  0  0  0
  8 29  1  0  0  0  0
  9 12  1  0  0  0  0
  9 30  1  0  0  0  0
 10 31  1  0  0  0  0
 10 32  1  0  0  0  0
 10 33  1  0  0  0  0
 11 13  1  0  0  0  0
 12 14  1  0  0  0  0
 12 15  1  0  0  0  0
 12 34  1  0  0  0  0
 13 35  1  0  0  0  0
 14 16  1  0  0  0  0
 14 36  1  0  0  0  0
 14 37  1  0  0  0  0
 15 38  1  0  0  0  0
 15 39  1  0  0  0  0
 15 40  1  0  0  0  0
 16 17  1  0  0  0  0
 16 41  1  0  0  0  0
 16 42  1  0  0  0  0
 17 18  2  0  0  0  0
 17 19  1  0  0  0  0
 18 20  1  0  0  0  0
 18 43  1  0  0  0  0
 19 21  2  0  0  0  0
 19 44  1  0  0  0  0
 20 22  2  0  0  0  0
 20 45  1  0  0  0  0
 21 22  1  0  0  0  0
 21 46  1  0  0  0  0
 22 47  1  0  0  0  0
M  END
>  <Mol_ID>
7850

>  <Formula>
C19H26ClNO2

>  <MolWeight>
335.86824

>  <Cat>
S5267

>  <Name>
Nylidrin Hydrochloride

>  <Synonyms>
Buphenine HCl

>  <Target>
Adrenergic Receptor

>  <Form>
hydrochloride

>  <CAS>
849-55-8

>  <URL>
https://www.selleckchem.com/products/nylidrin-hydrochloride.html

$$$$
