S5265 TBB.cdx
 OpenBabel08302520013D

 14 15  0  0  0  0  0  0  0  0999 V2000
   -0.2584   -0.6673    0.0002 C   0  0  0  0  0  0  0  0  0  0  0  0
   -0.2216    0.7185   -0.0007 C   0  0  0  0  0  0  0  0  0  0  0  0
    0.9435   -1.3953   -0.0004 C   0  0  0  0  0  0  0  0  0  0  0  0
    0.9606    1.4587   -0.0013 C   0  0  0  0  0  0  0  0  0  0  0  0
    2.1717    0.7336   -0.0005 C   0  0  0  0  0  0  0  0  0  0  0  0
    2.1649   -0.6830   -0.0012 C   0  0  0  0  0  0  0  0  0  0  0  0
   -2.3448   -0.0049    0.0009 N   0  0  0  0  0  0  0  0  0  0  0  0
   -1.5678   -1.0791    0.0012 N   0  0  0  0  0  0  0  0  0  0  0  0
   -1.5446    1.0689   -0.0005 N   0  0  0  0  0  0  0  0  0  0  0  0
    0.8251   -3.2937    0.0004 Br  0  0  0  0  0  0  0  0  0  0  0  0
    0.8367    3.3522   -0.0043 Br  0  0  0  0  0  0  0  0  0  0  0  0
    3.8276    1.7037    0.0035 Br  0  0  0  0  0  0  0  0  0  0  0  0
    3.8154   -1.6635   -0.0050 Br  0  0  0  0  0  0  0  0  0  0  0  0
   -1.9620    1.9930   -0.0009 H   0  0  0  0  0  0  0  0  0  0  0  0
  2  1  1  0  0  0  0
  3  1  2  0  0  0  0
  4  2  2  0  0  0  0
  5  4  1  0  0  0  0
  5  6  2  0  0  0  0
  6  3  1  0  0  0  0
  7  8  2  0  0  0  0
  8  1  1  0  0  0  0
  9  2  1  0  0  0  0
  9  7  1  0  0  0  0
  9 14  1  0  0  0  0
 10  3  1  0  0  0  0
 11  4  1  0  0  0  0
 12  5  1  0  0  0  0
 13  6  1  0  0  0  0
M  END
>  <Mol_ID>
3101

>  <Formula>
C6HBr4N3

>  <MolWeight>
434.70824

>  <Cat>
S5265

>  <Name>
TBB

>  <Synonyms>
4,5,6,7-tetrabromobenzotriazole

>  <Target>
Casein Kinase

>  <Form>
Benzotriazoles

>  <CAS>
17374-26-4

>  <URL>
http://selleckchem.com/products/tbb.html

$$$$
