S5273 Canrenone.cdx
 OpenBabel08302520382D

 53 57  0  0  0  0  0  0  0  0999 V2000
    8.4670    4.5554    0.0000 C   0  0  2  0  0  0  0  0  0  0  0  0
    7.1590    4.2459    0.0000 C   0  0  2  0  0  0  0  0  0  0  0  0
    9.3253    3.4701    0.0000 C   0  0  0  0  0  0  0  0  0  0  0  0
    9.7163    5.1770    0.0000 O   0  0  0  0  0  0  0  0  0  0  0  0
    7.4987    5.5794    0.0000 C   0  0  0  0  0  0  0  0  0  0  0  0
    7.1715    2.7853    0.0000 C   0  0  1  0  0  0  0  0  0  0  0  0
    5.9789    4.8978    0.0000 C   0  0  0  0  0  0  0  0  0  0  0  0
    6.9569    5.5333    0.0000 C   0  0  0  0  0  0  0  0  0  0  0  0
    8.4299    2.3066    0.0000 C   0  0  0  0  0  0  0  0  0  0  0  0
    9.5682    6.5991    0.0000 C   0  0  0  0  0  0  0  0  0  0  0  0
    8.1535    6.8659    0.0000 C   0  0  0  0  0  0  0  0  0  0  0  0
    6.0284    2.1168    0.0000 C   0  0  1  0  0  0  0  0  0  0  0  0
    4.7948    4.2211    0.0000 C   0  0  0  0  0  0  0  0  0  0  0  0
   10.5871    7.5609    0.0000 O   0  0  0  0  0  0  0  0  0  0  0  0
    4.8113    2.7975    0.0000 C   0  0  2  0  0  0  0  0  0  0  0  0
    6.0284    0.6767    0.0000 C   0  0  0  0  0  0  0  0  0  0  0  0
    3.6559    2.1622    0.0000 C   0  0  2  0  0  0  0  0  0  0  0  0
    4.8897    0.0000    0.0000 C   0  0  0  0  0  0  0  0  0  0  0  0
    3.6559    0.7262    0.0000 C   0  0  0  0  0  0  0  0  0  0  0  0
    2.4510    2.8554    0.0000 C   0  0  0  0  0  0  0  0  0  0  0  0
    3.6188    3.5692    0.0000 C   0  0  0  0  0  0  0  0  0  0  0  0
    2.4758    0.0248    0.0000 C   0  0  0  0  0  0  0  0  0  0  0  0
    1.2256    2.1870    0.0000 C   0  0  0  0  0  0  0  0  0  0  0  0
    1.2256    0.7262    0.0000 C   0  0  0  0  0  0  0  0  0  0  0  0
    0.0000    0.0495    0.0000 O   0  0  0  0  0  0  0  0  0  0  0  0
   10.3953    3.4772    0.0000 H   0  0  0  0  0  0  0  0  0  0  0  0
    9.8010    2.5117    0.0000 H   0  0  0  0  0  0  0  0  0  0  0  0
    6.4397    5.4266    0.0000 H   0  0  0  0  0  0  0  0  0  0  0  0
    6.8756    6.4492    0.0000 H   0  0  0  0  0  0  0  0  0  0  0  0
    8.0498    3.3964    0.0000 H   0  0  0  0  0  0  0  0  0  0  0  0
    5.9711    5.9678    0.0000 H   0  0  0  0  0  0  0  0  0  0  0  0
    5.0515    5.4315    0.0000 H   0  0  0  0  0  0  0  0  0  0  0  0
    7.7894    6.2055    0.0000 H   0  0  0  0  0  0  0  0  0  0  0  0
    5.9585    5.9181    0.0000 H   0  0  0  0  0  0  0  0  0  0  0  0
    6.7910    6.5904    0.0000 H   0  0  0  0  0  0  0  0  0  0  0  0
    8.7212    1.2770    0.0000 H   0  0  0  0  0  0  0  0  0  0  0  0
    7.6408    1.5839    0.0000 H   0  0  0  0  0  0  0  0  0  0  0  0
    7.6816    7.8262    0.0000 H   0  0  0  0  0  0  0  0  0  0  0  0
    8.8012    7.7176    0.0000 H   0  0  0  0  0  0  0  0  0  0  0  0
    6.9565    1.5844    0.0000 H   0  0  0  0  0  0  0  0  0  0  0  0
    3.8662    4.7528    0.0000 H   0  0  0  0  0  0  0  0  0  0  0  0
    3.8722    3.6791    0.0000 H   0  0  0  0  0  0  0  0  0  0  0  0
    5.7311    3.3442    0.0000 H   0  0  0  0  0  0  0  0  0  0  0  0
    6.9254    0.1663    0.0000 H   0  0  0  0  0  0  0  0  0  0  0  0
    4.8919   -1.0320    0.0000 H   0  0  0  0  0  0  0  0  0  0  0  0
    2.4632    3.9253    0.0000 H   0  0  0  0  0  0  0  0  0  0  0  0
    1.5340    3.4068    0.0000 H   0  0  0  0  0  0  0  0  0  0  0  0
    4.5310    4.1284    0.0000 H   0  0  0  0  0  0  0  0  0  0  0  0
    2.6784    4.0796    0.0000 H   0  0  0  0  0  0  0  0  0  0  0  0
    3.5906    4.6388    0.0000 H   0  0  0  0  0  0  0  0  0  0  0  0
    2.4887   -1.0071    0.0000 H   0  0  0  0  0  0  0  0  0  0  0  0
    0.3055    2.7332    0.0000 H   0  0  0  0  0  0  0  0  0  0  0  0
    0.2957    1.6576    0.0000 H   0  0  0  0  0  0  0  0  0  0  0  0
  1  2  1  0  0  0  0
  1  3  1  0  0  0  0
  1  4  1  1  0  0  0
  1  5  1  0  0  0  0
  2  6  1  0  0  0  0
  2  7  1  0  0  0  0
  2  8  1  1  0  0  0
  3  9  1  0  0  0  0
  3 26  1  0  0  0  0
  3 27  1  0  0  0  0
  4 10  1  0  0  0  0
  5 11  1  0  0  0  0
  5 28  1  0  0  0  0
  5 29  1  0  0  0  0
  6 12  1  0  0  0  0
  6  9  1  0  0  0  0
  6 30  1  6  0  0  0
  7 13  1  0  0  0  0
  7 31  1  0  0  0  0
  7 32  1  0  0  0  0
  8 33  1  0  0  0  0
  8 34  1  0  0  0  0
  8 35  1  0  0  0  0
  9 36  1  0  0  0  0
  9 37  1  0  0  0  0
 10 14  2  0  0  0  0
 10 11  1  0  0  0  0
 11 38  1  0  0  0  0
 11 39  1  0  0  0  0
 12 15  1  0  0  0  0
 12 16  1  0  0  0  0
 12 40  1  1  0  0  0
 13 41  1  0  0  0  0
 13 42  1  0  0  0  0
 15 13  1  0  0  0  0
 15 17  1  0  0  0  0
 15 43  1  6  0  0  0
 16 18  2  0  0  0  0
 16 44  1  0  0  0  0
 17 19  1  0  0  0  0
 17 20  1  0  0  0  0
 17 21  1  1  0  0  0
 18 19  1  0  0  0  0
 18 45  1  0  0  0  0
 19 22  2  0  0  0  0
 20 23  1  0  0  0  0
 20 46  1  0  0  0  0
 20 47  1  0  0  0  0
 21 48  1  0  0  0  0
 21 49  1  0  0  0  0
 21 50  1  0  0  0  0
 22 24  1  0  0  0  0
 22 51  1  0  0  0  0
 23 24  1  0  0  0  0
 23 52  1  0  0  0  0
 23 53  1  0  0  0  0
 24 25  2  0  0  0  0
M  END
>  <Mol_ID>
2879

>  <Formula>
C22H28O3

>  <MolWeight>
340.45592

>  <Cat>
S5273

>  <Name>
Canrenone

>  <Synonyms>
Aldadiene, SC-9376, RP-11614, 6,7-Dehydro-7¦Á-desthioacetylspironolactone

>  <Target>
Mineralocorticoid Receptor

>  <Form>
free base

>  <CAS>
976-71-6

>  <URL>
http://selleckchem.com/products/canrenone.html

$$$$
