S5278 Tedizolid.cdx
 OpenBabel08302520143D

 42 45  0  0  0  0  0  0  0  0999 V2000
    4.0902    0.0146    2.4128 O   0  0  0  0  0  0  0  0  0  0  0  0
    3.6464    1.3343    2.1250 C   0  0  0  0  0  0  0  0  0  0  0  0
    3.1502    1.4462    0.6886 C   0  0  1  0  0  0  0  0  0  0  0  0
    2.7160    2.8575    0.3683 C   0  0  0  0  0  0  0  0  0  0  0  0
    3.0948    2.9921   -1.0029 N   0  0  0  0  0  0  0  0  0  0  0  0
    4.0266    2.0169   -1.3256 C   0  0  0  0  0  0  0  0  0  0  0  0
    4.2042    1.1783   -0.2507 O   0  0  0  0  0  0  0  0  0  0  0  0
    2.8521    4.1458   -1.7688 C   0  0  0  0  0  0  0  0  0  0  0  0
    2.6917    4.0597   -3.1515 C   0  0  0  0  0  0  0  0  0  0  0  0
    2.4573    5.2117   -3.9141 C   0  0  0  0  0  0  0  0  0  0  0  0
    2.4374    6.4907   -3.3282 C   0  0  0  0  0  0  0  0  0  0  0  0
    2.6118    6.5419   -1.9365 C   0  0  0  0  0  0  0  0  0  0  0  0
    2.7777    5.3969   -1.1602 C   0  0  0  0  0  0  0  0  0  0  0  0
    2.2610    7.7124   -4.1428 C   0  0  0  0  0  0  0  0  0  0  0  0
    1.6605    8.8722   -3.6442 C   0  0  0  0  0  0  0  0  0  0  0  0
    1.4898   10.0287   -4.3320 N   0  0  0  0  0  0  0  0  0  0  0  0
    1.9331   10.0635   -5.6103 C   0  0  0  0  0  0  0  0  0  0  0  0
    2.5345    8.9639   -6.2116 C   0  0  0  0  0  0  0  0  0  0  0  0
    2.6997    7.7914   -5.4716 C   0  0  0  0  0  0  0  0  0  0  0  0
    1.7627   11.3142   -6.3437 C   0  0  0  0  0  0  0  0  0  0  0  0
    2.1294   11.5037   -7.6283 N   0  0  0  0  0  0  0  0  0  0  0  0
    1.7579   12.7835   -7.7924 N   0  0  0  0  0  0  0  0  0  0  0  0
    1.2066   13.3797   -6.7292 N   0  0  0  0  0  0  0  0  0  0  0  0
    1.2034   12.4454   -5.7880 N   0  0  0  0  0  0  0  0  0  0  0  0
    4.6766    1.9136   -2.3533 O   0  0  0  0  0  0  0  0  0  0  0  0
    1.9331   13.4633   -9.0457 C   0  0  0  0  0  0  0  0  0  0  0  0
    2.6695    7.7202   -1.2961 F   0  0  0  0  0  0  0  0  0  0  0  0
    4.8964   -0.1326    1.8834 H   0  0  0  0  0  0  0  0  0  0  0  0
    2.8351    1.5737    2.8202 H   0  0  0  0  0  0  0  0  0  0  0  0
    4.4814    2.0157    2.3179 H   0  0  0  0  0  0  0  0  0  0  0  0
    2.3622    0.7094    0.4913 H   0  0  0  0  0  0  0  0  0  0  0  0
    3.2578    3.5945    0.9694 H   0  0  0  0  0  0  0  0  0  0  0  0
    1.6371    2.9944    0.4950 H   0  0  0  0  0  0  0  0  0  0  0  0
    2.7136    3.0935   -3.6526 H   0  0  0  0  0  0  0  0  0  0  0  0
    2.2899    5.0837   -4.9820 H   0  0  0  0  0  0  0  0  0  0  0  0
    2.9328    5.5342   -0.0961 H   0  0  0  0  0  0  0  0  0  0  0  0
    1.2731    8.9215   -2.6292 H   0  0  0  0  0  0  0  0  0  0  0  0
    2.8802    9.0088   -7.2400 H   0  0  0  0  0  0  0  0  0  0  0  0
    3.1949    6.9501   -5.9520 H   0  0  0  0  0  0  0  0  0  0  0  0
    3.0027   13.5130   -9.2630 H   0  0  0  0  0  0  0  0  0  0  0  0
    1.4118   12.8951   -9.8199 H   0  0  0  0  0  0  0  0  0  0  0  0
    1.5161   14.4705   -8.9767 H   0  0  0  0  0  0  0  0  0  0  0  0
  1 28  1  0  0  0  0
  2  1  1  0  0  0  0
  2 29  1  0  0  0  0
  2 30  1  0  0  0  0
  3  4  1  0  0  0  0
  3 31  1  6  0  0  0
  3  2  1  0  0  0  0
  4  5  1  0  0  0  0
  4 32  1  0  0  0  0
  4 33  1  0  0  0  0
  5  6  1  0  0  0  0
  5  8  1  0  0  0  0
  6  7  1  0  0  0  0
  6 25  2  0  0  0  0
  7  3  1  0  0  0  0
  9 10  2  0  0  0  0
  9  8  1  0  0  0  0
  9 34  1  0  0  0  0
 10 11  1  0  0  0  0
 10 35  1  0  0  0  0
 11 12  2  0  0  0  0
 11 14  1  0  0  0  0
 12 27  1  0  0  0  0
 13  8  2  0  0  0  0
 13 12  1  0  0  0  0
 13 36  1  0  0  0  0
 14 15  2  0  0  0  0
 15 16  1  0  0  0  0
 15 37  1  0  0  0  0
 16 17  2  0  0  0  0
 17 18  1  0  0  0  0
 17 20  1  0  0  0  0
 18 38  1  0  0  0  0
 19 14  1  0  0  0  0
 19 18  2  0  0  0  0
 19 39  1  0  0  0  0
 20 21  2  0  0  0  0
 21 22  1  0  0  0  0
 22 26  1  0  0  0  0
 23 24  2  0  0  0  0
 23 22  1  0  0  0  0
 24 20  1  0  0  0  0
 26 40  1  0  0  0  0
 26 41  1  0  0  0  0
 26 42  1  0  0  0  0
M  END
>  <Mol_ID>
3212

>  <Formula>
C17H15FN6O3

>  <MolWeight>
370.3378032

>  <Cat>
S5278

>  <Name>
Tedizolid (TR-700)

>  <Target>
Antibiotics,Bacterial

>  <Form>
Oxazolidinone

>  <CAS>
856866-72-3

>  <URL>
https://www.selleckchem.com/products/tedizolid.html

$$$$
