S5274 GS967.cdx
 OpenBabel08302520013D

 31 33  0  0  0  0  0  0  0  0999 V2000
   -0.2636   -0.7100    0.0101 C   0  0  0  0  0  0  0  0  0  0  0  0
    0.9486   -1.4504    0.0167 C   0  0  0  0  0  0  0  0  0  0  0  0
    2.1292   -0.7986    0.0201 C   0  0  0  0  0  0  0  0  0  0  0  0
    2.1958    0.6622    0.0173 C   0  0  0  0  0  0  0  0  0  0  0  0
    1.0410    1.3570    0.0087 C   0  0  0  0  0  0  0  0  0  0  0  0
   -0.1810    0.6786    0.0043 N   0  0  0  0  0  0  0  0  0  0  0  0
   -2.2916    0.0481   -0.0029 N   0  0  0  0  0  0  0  0  0  0  0  0
   -1.5208   -1.0841    0.0070 N   0  0  0  0  0  0  0  0  0  0  0  0
   -1.4941    1.1048   -0.0071 C   0  0  0  0  0  0  0  0  0  0  0  0
   -1.9296    2.5173   -0.0266 C   0  0  0  0  0  0  0  0  0  0  0  0
   -0.9043    3.4097   -0.0082 F   0  0  0  0  0  0  0  0  0  0  0  0
   -2.6569    2.8089   -1.1368 F   0  0  0  0  0  0  0  0  0  0  0  0
   -2.7086    2.8233    1.0440 F   0  0  0  0  0  0  0  0  0  0  0  0
    3.4658    1.4010    0.0178 C   0  0  0  0  0  0  0  0  0  0  0  0
    4.0472    1.8110    1.2228 C   0  0  0  0  0  0  0  0  0  0  0  0
    5.2692    2.4951    1.2266 C   0  0  0  0  0  0  0  0  0  0  0  0
    5.9372    2.7398    0.0283 C   0  0  0  0  0  0  0  0  0  0  0  0
    5.3335    2.3668   -1.1770 C   0  0  0  0  0  0  0  0  0  0  0  0
    4.1090    1.6958   -1.1865 C   0  0  0  0  0  0  0  0  0  0  0  0
    7.1399    3.3596   -0.1137 O   0  0  0  0  0  0  0  0  0  0  0  0
    8.1017    3.2820    0.9288 C   0  0  0  0  0  0  0  0  0  0  0  0
    7.8254    2.3539    1.8685 F   0  0  0  0  0  0  0  0  0  0  0  0
    9.2975    2.9665    0.3813 F   0  0  0  0  0  0  0  0  0  0  0  0
    8.2167    4.4882    1.5240 F   0  0  0  0  0  0  0  0  0  0  0  0
    0.8983   -2.5336    0.0196 H   0  0  0  0  0  0  0  0  0  0  0  0
    3.0613   -1.3532    0.0222 H   0  0  0  0  0  0  0  0  0  0  0  0
    1.0281    2.4393    0.0050 H   0  0  0  0  0  0  0  0  0  0  0  0
    3.5545    1.5982    2.1696 H   0  0  0  0  0  0  0  0  0  0  0  0
    5.6671    2.8195    2.1841 H   0  0  0  0  0  0  0  0  0  0  0  0
    5.8282    2.5872   -2.1209 H   0  0  0  0  0  0  0  0  0  0  0  0
    3.6698    1.4018   -2.1372 H   0  0  0  0  0  0  0  0  0  0  0  0
  1  2  1  0  0  0  0
  1  6  1  0  0  0  0
  1  8  2  0  0  0  0
  2  3  2  0  0  0  0
  2 25  1  0  0  0  0
  3  4  1  0  0  0  0
  3 26  1  0  0  0  0
  4  5  2  0  0  0  0
  4 14  1  0  0  0  0
  5  6  1  0  0  0  0
  5 27  1  0  0  0  0
  6  9  1  0  0  0  0
  7  8  1  0  0  0  0
  7  9  2  0  0  0  0
  9 10  1  0  0  0  0
 10 11  1  0  0  0  0
 10 12  1  0  0  0  0
 10 13  1  0  0  0  0
 14 15  2  0  0  0  0
 14 19  1  0  0  0  0
 15 16  1  0  0  0  0
 15 28  1  0  0  0  0
 16 17  2  0  0  0  0
 16 29  1  0  0  0  0
 17 18  1  0  0  0  0
 17 20  1  0  0  0  0
 18 19  2  0  0  0  0
 18 30  1  0  0  0  0
 19 31  1  0  0  0  0
 20 21  1  0  0  0  0
 21 22  1  0  0  0  0
 21 23  1  0  0  0  0
 21 24  1  0  0  0  0
M  END
>  <Mol_ID>
2880

>  <Formula>
C14H7F6N3O

>  <MolWeight>
347.2152992

>  <Cat>
S5274

>  <Name>
GS967

>  <Synonyms>
GS458967

>  <Target>
Sodium Channel

>  <Form>
free base

>  <CAS>
1262618-39-2

>  <URL>
http://selleckchem.com/products/gs967.html

$$$$
