S5288 Estropipate.cdx
 OpenBabel08302520293D

 62 65  0  0  0  0  0  0  0  0999 V2000
    0.2039    0.4858    1.1008 C   0  0  2  0  0  0  0  0  0  0  0  0
   -0.5070   -0.8197    1.5624 C   0  0  1  0  0  0  0  0  0  0  0  0
    1.7504    0.4012    1.2257 C   0  0  1  0  0  0  0  0  0  0  0  0
   -0.4787    1.6682    1.8298 C   0  0  0  0  0  0  0  0  0  0  0  0
   -2.0165   -0.7475    1.2013 C   0  0  0  0  0  0  0  0  0  0  0  0
    0.2341   -2.0891    1.0581 C   0  0  0  0  0  0  0  0  0  0  0  0
    2.4705   -0.8404    0.5992 C   0  0  2  0  0  0  0  0  0  0  0  0
    2.6569    1.5745    0.8330 C   0  0  0  0  0  0  0  0  0  0  0  0
   -1.9615    1.8013    1.4298 C   0  0  0  0  0  0  0  0  0  0  0  0
   -2.6814    0.4975    1.1622 C   0  0  0  0  0  0  0  0  0  0  0  0
   -2.7779   -1.8946    0.8901 C   0  0  0  0  0  0  0  0  0  0  0  0
    1.7854   -2.1023    1.1165 C   0  0  0  0  0  0  0  0  0  0  0  0
    3.8496   -0.4799    1.1447 C   0  0  0  0  0  0  0  0  0  0  0  0
    2.9001   -1.0139   -0.8864 C   0  0  0  0  0  0  0  0  0  0  0  0
    4.0809    1.0234    1.0533 C   0  0  0  0  0  0  0  0  0  0  0  0
   -4.0402    0.5626    0.7551 C   0  0  0  0  0  0  0  0  0  0  0  0
   -4.1205   -1.8126    0.4839 C   0  0  0  0  0  0  0  0  0  0  0  0
    4.7043   -1.2861    1.4862 O   0  0  0  0  0  0  0  0  0  0  0  0
   -4.7578   -0.5768    0.3936 C   0  0  0  0  0  0  0  0  0  0  0  0
   -6.0637   -0.3867    0.0301 O   0  0  0  0  0  0  0  0  0  0  0  0
   -6.8987   -1.4265   -0.8912 S   0  0  0  0  0  0  0  0  0  0  0  0
   -8.3345   -0.7133   -1.0233 O   0  0  0  0  0  0  0  0  0  0  0  0
   -6.3290   -1.4699   -2.2281 O   0  0  0  0  0  0  0  0  0  0  0  0
   -7.1629   -2.6508   -0.1410 O   0  0  0  0  0  0  0  0  0  0  0  0
   -1.3347   -0.2096   -2.5275 C   0  0  0  0  0  0  0  0  0  0  0  0
    0.1657   -0.3472   -2.2723 C   0  0  0  0  0  0  0  0  0  0  0  0
   -1.9231    1.0563   -2.0862 N   0  0  0  0  0  0  0  0  0  0  0  0
    1.0095    0.8380   -2.4896 N   0  0  0  0  0  0  0  0  0  0  0  0
   -1.0805    2.2060   -2.4257 C   0  0  0  0  0  0  0  0  0  0  0  0
    0.3904    2.0786   -2.0164 C   0  0  0  0  0  0  0  0  0  0  0  0
   -0.0400    0.6288    0.0643 H   0  0  0  0  0  0  0  0  0  0  0  0
   -0.4725   -0.8536    2.6606 H   0  0  0  0  0  0  0  0  0  0  0  0
    1.8904    0.3113    2.3173 H   0  0  0  0  0  0  0  0  0  0  0  0
   -0.4215    1.5273    2.9161 H   0  0  0  0  0  0  0  0  0  0  0  0
    0.0205    2.6179    1.6065 H   0  0  0  0  0  0  0  0  0  0  0  0
   -0.0813   -2.3196    0.0340 H   0  0  0  0  0  0  0  0  0  0  0  0
   -0.1102   -2.9413    1.6591 H   0  0  0  0  0  0  0  0  0  0  0  0
    2.4906    2.4674    1.4425 H   0  0  0  0  0  0  0  0  0  0  0  0
    2.5399    1.8664   -0.2145 H   0  0  0  0  0  0  0  0  0  0  0  0
   -2.5082    2.3676    2.1945 H   0  0  0  0  0  0  0  0  0  0  0  0
   -2.0164    2.4047    0.5137 H   0  0  0  0  0  0  0  0  0  0  0  0
   -2.3354   -2.8843    0.9549 H   0  0  0  0  0  0  0  0  0  0  0  0
    2.1249   -2.9714    0.5357 H   0  0  0  0  0  0  0  0  0  0  0  0
    2.1032   -2.2911    2.1459 H   0  0  0  0  0  0  0  0  0  0  0  0
    3.7660   -1.6948   -0.9546 H   0  0  0  0  0  0  0  0  0  0  0  0
    2.1674   -1.5072   -1.5161 H   0  0  0  0  0  0  0  0  0  0  0  0
    3.2429   -0.0880   -1.3643 H   0  0  0  0  0  0  0  0  0  0  0  0
    4.5310    1.3882    1.9771 H   0  0  0  0  0  0  0  0  0  0  0  0
    4.7230    1.2547    0.1954 H   0  0  0  0  0  0  0  0  0  0  0  0
   -4.5389    1.5308    0.6760 H   0  0  0  0  0  0  0  0  0  0  0  0
   -4.6464   -2.7290    0.2470 H   0  0  0  0  0  0  0  0  0  0  0  0
   -8.9483   -1.1531   -0.4004 H   0  0  0  0  0  0  0  0  0  0  0  0
   -1.8431   -1.0304   -2.0027 H   0  0  0  0  0  0  0  0  0  0  0  0
   -1.5254   -0.3523   -3.5923 H   0  0  0  0  0  0  0  0  0  0  0  0
    0.2926   -0.6879   -1.2517 H   0  0  0  0  0  0  0  0  0  0  0  0
    0.5538   -1.1732   -2.8776 H   0  0  0  0  0  0  0  0  0  0  0  0
   -2.0087    1.0057   -1.0753 H   0  0  0  0  0  0  0  0  0  0  0  0
    1.1544    0.9261   -3.4911 H   0  0  0  0  0  0  0  0  0  0  0  0
   -1.1303    2.3743   -3.5043 H   0  0  0  0  0  0  0  0  0  0  0  0
   -1.4997    3.0917   -1.9364 H   0  0  0  0  0  0  0  0  0  0  0  0
    0.4833    2.1980   -0.9352 H   0  0  0  0  0  0  0  0  0  0  0  0
    0.9651    2.9209   -2.4162 H   0  0  0  0  0  0  0  0  0  0  0  0
  1  2  1  0  0  0  0
  1  3  1  0  0  0  0
  1  4  1  0  0  0  0
  1 31  1  6  0  0  0
  2  6  1  0  0  0  0
  2  5  1  0  0  0  0
  2 32  1  1  0  0  0
  3  7  1  0  0  0  0
  3  8  1  0  0  0  0
  3 33  1  1  0  0  0
  4  9  1  0  0  0  0
  4 34  1  0  0  0  0
  4 35  1  0  0  0  0
  5 10  2  0  0  0  0
  5 11  1  0  0  0  0
  6 12  1  0  0  0  0
  6 36  1  0  0  0  0
  6 37  1  0  0  0  0
  7 13  1  0  0  0  0
  7 14  1  6  0  0  0
  7 12  1  0  0  0  0
  8 15  1  0  0  0  0
  8 38  1  0  0  0  0
  8 39  1  0  0  0  0
  9 10  1  0  0  0  0
  9 40  1  0  0  0  0
  9 41  1  0  0  0  0
 10 16  1  0  0  0  0
 11 17  2  0  0  0  0
 11 42  1  0  0  0  0
 12 43  1  0  0  0  0
 12 44  1  0  0  0  0
 13 18  2  0  0  0  0
 13 15  1  0  0  0  0
 14 45  1  0  0  0  0
 14 46  1  0  0  0  0
 14 47  1  0  0  0  0
 15 48  1  0  0  0  0
 15 49  1  0  0  0  0
 16 19  2  0  0  0  0
 16 50  1  0  0  0  0
 17 19  1  0  0  0  0
 17 51  1  0  0  0  0
 19 20  1  0  0  0  0
 20 21  1  0  0  0  0
 21 22  1  0  0  0  0
 21 23  2  0  0  0  0
 21 24  2  0  0  0  0
 22 52  1  0  0  0  0
 25 26  1  0  0  0  0
 25 27  1  0  0  0  0
 25 53  1  0  0  0  0
 25 54  1  0  0  0  0
 26 28  1  0  0  0  0
 26 55  1  0  0  0  0
 26 56  1  0  0  0  0
 27 29  1  0  0  0  0
 27 57  1  0  0  0  0
 28 30  1  0  0  0  0
 28 58  1  0  0  0  0
 29 30  1  0  0  0  0
 29 59  1  0  0  0  0
 29 60  1  0  0  0  0
 30 61  1  0  0  0  0
 30 62  1  0  0  0  0
M  END
>  <Mol_ID>
3233

>  <Formula>
C22H32N2O5S

>  <MolWeight>
436.56488

>  <Cat>
S5288

>  <Name>
Estropipate

>  <Synonyms>
Piperazine estrone sulfate, Estrone sulfate piperazine salt, Pipestrone

>  <Target>
Estrogen/progestogen Receptor

>  <Form>
Estrogen

>  <CAS>
7280-37-7

>  <URL>
https://www.selleckchem.com/products/estropipate.html

$$$$
