S5283 TMB-PS.cdx
 OpenBabel08302520013D

 51 52  0  0  0  0  0  0  0  0999 V2000
    0.0145   -1.8285   -0.0143 C   0  0  0  0  0  0  0  0  0  0  0  0
    0.0377   -3.3039   -0.0216 C   0  0  0  0  0  0  0  0  0  0  0  0
    1.1817   -1.0595   -0.0408 C   0  0  0  0  0  0  0  0  0  0  0  0
   -1.1938   -1.1326    0.0347 C   0  0  0  0  0  0  0  0  0  0  0  0
    1.0713   -4.0348    0.5766 C   0  0  0  0  0  0  0  0  0  0  0  0
   -0.9979   -4.0368   -0.6225 C   0  0  0  0  0  0  0  0  0  0  0  0
    1.1699    0.3534   -0.0099 C   0  0  0  0  0  0  0  0  0  0  0  0
   -1.2560    0.2699    0.0235 C   0  0  0  0  0  0  0  0  0  0  0  0
    1.0767   -5.4421    0.5890 C   0  0  0  0  0  0  0  0  0  0  0  0
   -1.0408   -5.4376   -0.5952 C   0  0  0  0  0  0  0  0  0  0  0  0
   -0.0653    1.0421   -0.0123 C   0  0  0  0  0  0  0  0  0  0  0  0
    2.5276    1.0018    0.0534 C   0  0  0  0  0  0  0  0  0  0  0  0
   -2.6359    0.8825    0.0286 C   0  0  0  0  0  0  0  0  0  0  0  0
   -0.0083   -6.1532    0.0379 C   0  0  0  0  0  0  0  0  0  0  0  0
    2.2436   -6.1447    1.2286 C   0  0  0  0  0  0  0  0  0  0  0  0
   -2.2242   -6.1205   -1.2238 C   0  0  0  0  0  0  0  0  0  0  0  0
   -0.2237    2.4387    0.0745 N   0  0  0  0  0  0  0  0  0  0  0  0
    0.0455   -7.5552   -0.0728 N   0  0  0  0  0  0  0  0  0  0  0  0
    0.8266    3.3514   -0.3575 C   0  0  0  0  0  0  0  0  0  0  0  0
    0.2570    4.7224   -0.6909 C   0  0  0  0  0  0  0  0  0  0  0  0
   -0.4128    5.3707    0.5062 C   0  0  0  0  0  0  0  0  0  0  0  0
   -1.0839    6.9606    0.0740 S   0  0  0  0  0  0  0  0  0  0  0  0
   -1.7355    7.3001    1.5139 O   0  0  0  0  0  0  0  0  0  0  0  0
   -0.0142    7.8890   -0.1720 O   0  0  0  0  0  0  0  0  0  0  0  0
   -2.2042    6.7860   -0.8264 O   0  0  0  0  0  0  0  0  0  0  0  0
    2.1447   -1.5667   -0.0811 H   0  0  0  0  0  0  0  0  0  0  0  0
   -2.1277   -1.6888    0.0902 H   0  0  0  0  0  0  0  0  0  0  0  0
    1.8952   -3.5092    1.0535 H   0  0  0  0  0  0  0  0  0  0  0  0
   -1.8019   -3.5067   -1.1305 H   0  0  0  0  0  0  0  0  0  0  0  0
    2.7399    1.5665   -0.8573 H   0  0  0  0  0  0  0  0  0  0  0  0
    2.6095    1.6349    0.9413 H   0  0  0  0  0  0  0  0  0  0  0  0
    3.3315    0.2613    0.1347 H   0  0  0  0  0  0  0  0  0  0  0  0
   -2.7932    1.4840    0.9270 H   0  0  0  0  0  0  0  0  0  0  0  0
   -2.7937    1.4880   -0.8692 H   0  0  0  0  0  0  0  0  0  0  0  0
   -3.4135    0.1063    0.0245 H   0  0  0  0  0  0  0  0  0  0  0  0
    1.9009   -6.7418    2.0796 H   0  0  0  0  0  0  0  0  0  0  0  0
    2.7476   -6.7889    0.5021 H   0  0  0  0  0  0  0  0  0  0  0  0
    2.9857   -5.4332    1.6079 H   0  0  0  0  0  0  0  0  0  0  0  0
   -1.9064   -6.7776   -2.0373 H   0  0  0  0  0  0  0  0  0  0  0  0
   -2.7669   -6.6981   -0.4682 H   0  0  0  0  0  0  0  0  0  0  0  0
   -2.9340   -5.3962   -1.6417 H   0  0  0  0  0  0  0  0  0  0  0  0
   -0.5382    2.6394    1.0236 H   0  0  0  0  0  0  0  0  0  0  0  0
   -0.8594   -7.9943   -0.1811 H   0  0  0  0  0  0  0  0  0  0  0  0
    0.6033   -8.0051    0.6415 H   0  0  0  0  0  0  0  0  0  0  0  0
    1.5795    3.4657    0.4291 H   0  0  0  0  0  0  0  0  0  0  0  0
    1.3003    2.9886   -1.2742 H   0  0  0  0  0  0  0  0  0  0  0  0
    1.0764    5.3625   -1.0429 H   0  0  0  0  0  0  0  0  0  0  0  0
   -0.4509    4.6353   -1.5225 H   0  0  0  0  0  0  0  0  0  0  0  0
   -1.2507    4.7672    0.8697 H   0  0  0  0  0  0  0  0  0  0  0  0
    0.3015    5.5243    1.3211 H   0  0  0  0  0  0  0  0  0  0  0  0
   -2.7073    7.2465    1.4223 H   0  0  0  0  0  0  0  0  0  0  0  0
  1  2  1  0  0  0  0
  1  3  2  0  0  0  0
  1  4  1  0  0  0  0
  2  5  2  0  0  0  0
  2  6  1  0  0  0  0
  3  7  1  0  0  0  0
  3 26  1  0  0  0  0
  4  8  2  0  0  0  0
  4 27  1  0  0  0  0
  5  9  1  0  0  0  0
  5 28  1  0  0  0  0
  6 10  2  0  0  0  0
  6 29  1  0  0  0  0
  7 11  2  0  0  0  0
  7 12  1  0  0  0  0
  8 13  1  0  0  0  0
  8 11  1  0  0  0  0
  9 14  2  0  0  0  0
  9 15  1  0  0  0  0
 10 16  1  0  0  0  0
 10 14  1  0  0  0  0
 11 17  1  0  0  0  0
 12 30  1  0  0  0  0
 12 31  1  0  0  0  0
 12 32  1  0  0  0  0
 13 33  1  0  0  0  0
 13 34  1  0  0  0  0
 13 35  1  0  0  0  0
 14 18  1  0  0  0  0
 15 36  1  0  0  0  0
 15 37  1  0  0  0  0
 15 38  1  0  0  0  0
 16 39  1  0  0  0  0
 16 40  1  0  0  0  0
 16 41  1  0  0  0  0
 17 19  1  0  0  0  0
 17 42  1  0  0  0  0
 18 43  1  0  0  0  0
 18 44  1  0  0  0  0
 19 20  1  0  0  0  0
 19 45  1  0  0  0  0
 19 46  1  0  0  0  0
 20 21  1  0  0  0  0
 20 47  1  0  0  0  0
 20 48  1  0  0  0  0
 21 22  1  0  0  0  0
 21 49  1  0  0  0  0
 21 50  1  0  0  0  0
 22 23  1  0  0  0  0
 22 24  2  0  0  0  0
 22 25  2  0  0  0  0
 23 51  1  0  0  0  0
M  END
>  <Mol_ID>
2882

>  <Formula>
C19H26N2O3S

>  <MolWeight>
362.48634

>  <Cat>
S5283

>  <Name>
TMB-PS

>  <Synonyms>
TMBZ-PS, TetraMethyl BisPhenol S, Bis-(2,6dimethyl-4-hydroxyphenyl)-sulfone

>  <Target>
Dyes

>  <Form>
free base

>  <CAS>
102062-36-2

>  <URL>
http://selleckchem.com/products/tmb-ps.html

$$$$
