S5281 Dapiprazole Hydrochloride.cdx
 OpenBabel08302520013D

 51 54  0  0  0  0  0  0  0  0999 V2000
   -2.6587   -2.3741   -4.5886 C   0  0  0  0  0  0  0  0  0  0  0  0
   -1.4652   -1.4175   -4.6558 C   0  0  0  0  0  0  0  0  0  0  0  0
   -0.3899   -1.8332   -3.6535 C   0  0  0  0  0  0  0  0  0  0  0  0
   -0.9510   -2.0957   -2.3477 N   0  0  0  0  0  0  0  0  0  0  0  0
   -2.2660   -2.3994   -2.1197 C   0  0  0  0  0  0  0  0  0  0  0  0
   -3.2933   -2.3704   -3.1934 C   0  0  0  0  0  0  0  0  0  0  0  0
   -0.3158   -2.1735   -1.1410 C   0  0  0  0  0  0  0  0  0  0  0  0
   -1.2030   -2.5085   -0.2252 N   0  0  0  0  0  0  0  0  0  0  0  0
   -2.4279   -2.6482   -0.8396 N   0  0  0  0  0  0  0  0  0  0  0  0
    1.1499   -1.9974   -0.9342 C   0  0  0  0  0  0  0  0  0  0  0  0
    1.8541   -3.3494   -1.1077 C   0  0  0  0  0  0  0  0  0  0  0  0
    3.3293   -3.3134   -1.1250 N   0  0  0  0  0  0  0  0  0  0  0  0
    3.8572   -4.6970   -1.2799 C   0  0  0  0  0  0  0  0  0  0  0  0
    3.5658   -5.6317   -0.0807 C   0  0  0  0  0  0  0  0  0  0  0  0
    4.0384   -5.0355    1.1783 N   0  0  0  0  0  0  0  0  0  0  0  0
    3.7333   -3.6138    1.3991 C   0  0  0  0  0  0  0  0  0  0  0  0
    3.9234   -2.7683    0.1166 C   0  0  0  0  0  0  0  0  0  0  0  0
    4.8713   -5.7297    2.0371 C   0  0  0  0  0  0  0  0  0  0  0  0
    5.8792   -6.5593    1.5047 C   0  0  0  0  0  0  0  0  0  0  0  0
    6.7690   -7.2765    2.3108 C   0  0  0  0  0  0  0  0  0  0  0  0
    6.6880   -7.1707    3.6892 C   0  0  0  0  0  0  0  0  0  0  0  0
    5.7045   -6.3647    4.2520 C   0  0  0  0  0  0  0  0  0  0  0  0
    4.7803   -5.6607    3.4476 C   0  0  0  0  0  0  0  0  0  0  0  0
    3.6865   -4.9116    4.1714 C   0  0  0  0  0  0  0  0  0  0  0  0
   -3.4088   -2.0940   -5.3365 H   0  0  0  0  0  0  0  0  0  0  0  0
   -2.3205   -3.3883   -4.8373 H   0  0  0  0  0  0  0  0  0  0  0  0
   -1.0433   -1.4031   -5.6662 H   0  0  0  0  0  0  0  0  0  0  0  0
   -1.8043   -0.3986   -4.4295 H   0  0  0  0  0  0  0  0  0  0  0  0
    0.1009   -2.7586   -3.9765 H   0  0  0  0  0  0  0  0  0  0  0  0
    0.3636   -1.0463   -3.5600 H   0  0  0  0  0  0  0  0  0  0  0  0
   -3.8956   -1.4625   -3.0707 H   0  0  0  0  0  0  0  0  0  0  0  0
   -3.9707   -3.2256   -3.0940 H   0  0  0  0  0  0  0  0  0  0  0  0
    1.5563   -1.2537   -1.6273 H   0  0  0  0  0  0  0  0  0  0  0  0
    1.3116   -1.6126    0.0794 H   0  0  0  0  0  0  0  0  0  0  0  0
    1.4684   -4.0234   -0.3353 H   0  0  0  0  0  0  0  0  0  0  0  0
    1.5367   -3.7741   -2.0701 H   0  0  0  0  0  0  0  0  0  0  0  0
    3.4637   -5.1414   -2.2019 H   0  0  0  0  0  0  0  0  0  0  0  0
    4.9449   -4.6350   -1.4228 H   0  0  0  0  0  0  0  0  0  0  0  0
    2.4895   -5.8195    0.0062 H   0  0  0  0  0  0  0  0  0  0  0  0
    4.0002   -6.6154   -0.2860 H   0  0  0  0  0  0  0  0  0  0  0  0
    2.7038   -3.5140    1.7609 H   0  0  0  0  0  0  0  0  0  0  0  0
    4.4036   -3.1776    2.1481 H   0  0  0  0  0  0  0  0  0  0  0  0
    5.0039   -2.6640   -0.0584 H   0  0  0  0  0  0  0  0  0  0  0  0
    3.5749   -1.7448    0.2959 H   0  0  0  0  0  0  0  0  0  0  0  0
    6.0090   -6.6407    0.4307 H   0  0  0  0  0  0  0  0  0  0  0  0
    7.5250   -7.9059    1.8498 H   0  0  0  0  0  0  0  0  0  0  0  0
    7.3790   -7.7163    4.3252 H   0  0  0  0  0  0  0  0  0  0  0  0
    5.6425   -6.3037    5.3387 H   0  0  0  0  0  0  0  0  0  0  0  0
    3.8194   -3.8306    4.0867 H   0  0  0  0  0  0  0  0  0  0  0  0
    2.7033   -5.2019    3.7887 H   0  0  0  0  0  0  0  0  0  0  0  0
    3.6881   -5.1369    5.2449 H   0  0  0  0  0  0  0  0  0  0  0  0
  1  2  1  0  0  0  0
  1 25  1  0  0  0  0
  1 26  1  0  0  0  0
  2  3  1  0  0  0  0
  2 27  1  0  0  0  0
  2 28  1  0  0  0  0
  3  4  1  0  0  0  0
  3 29  1  0  0  0  0
  3 30  1  0  0  0  0
  4  5  1  0  0  0  0
  4  7  1  0  0  0  0
  5  6  1  0  0  0  0
  6  1  1  0  0  0  0
  6 31  1  0  0  0  0
  6 32  1  0  0  0  0
  7  8  2  0  0  0  0
  7 10  1  0  0  0  0
  8  9  1  0  0  0  0
  9  5  2  0  0  0  0
 10 11  1  0  0  0  0
 10 33  1  0  0  0  0
 10 34  1  0  0  0  0
 11 12  1  0  0  0  0
 11 35  1  0  0  0  0
 11 36  1  0  0  0  0
 12 13  1  0  0  0  0
 13 14  1  0  0  0  0
 13 37  1  0  0  0  0
 13 38  1  0  0  0  0
 14 15  1  0  0  0  0
 14 39  1  0  0  0  0
 14 40  1  0  0  0  0
 15 16  1  0  0  0  0
 15 18  1  0  0  0  0
 16 17  1  0  0  0  0
 16 41  1  0  0  0  0
 16 42  1  0  0  0  0
 17 12  1  0  0  0  0
 17 43  1  0  0  0  0
 17 44  1  0  0  0  0
 18 19  2  0  0  0  0
 19 20  1  0  0  0  0
 19 45  1  0  0  0  0
 20 21  2  0  0  0  0
 20 46  1  0  0  0  0
 21 22  1  0  0  0  0
 21 47  1  0  0  0  0
 22 23  2  0  0  0  0
 22 48  1  0  0  0  0
 23 18  1  0  0  0  0
 23 24  1  0  0  0  0
 24 49  1  0  0  0  0
 24 50  1  0  0  0  0
 24 51  1  0  0  0  0
M  END
>  <Mol_ID>
2981

>  <Formula>
C19H28ClN5

>  <MolWeight>
361.91212

>  <Cat>
S5281

>  <Name>
Dapiprazole Hydrochloride

>  <Synonyms>
Glamidolo Hydrochloride, Reversil Hydrochloride

>  <Target>
Adrenergic Receptor

>  <Form>
hydrochloride

>  <CAS>
72822-13-0

>  <URL>
http://selleckchem.com/products/dapiprazole-hydrochloride.html

$$$$
