S5292 Diazolidinyl urea.cdx
 OpenBabel08302520013D

 33 33  0  0  0  0  0  0  0  0999 V2000
   -0.7079   -1.3870   -0.0796 C   0  0  3  0  0  0  0  0  0  0  0  0
    0.7151   -1.2122   -0.0932 N   0  0  0  0  0  0  0  0  0  0  0  0
   -1.2870   -2.1078   -1.1991 N   0  0  0  0  0  0  0  0  0  0  0  0
   -1.1841    0.0739    0.0148 C   0  0  0  0  0  0  0  0  0  0  0  0
    1.0658    0.1178    0.0062 C   0  0  0  0  0  0  0  0  0  0  0  0
    1.6268   -2.3061   -0.0413 C   0  0  0  0  0  0  0  0  0  0  0  0
   -1.0340   -1.6552   -2.4770 C   0  0  0  0  0  0  0  0  0  0  0  0
   -1.9528   -3.3513   -0.9046 C   0  0  0  0  0  0  0  0  0  0  0  0
   -0.0716    0.8716    0.0361 N   0  0  0  0  0  0  0  0  0  0  0  0
   -2.3555    0.4233    0.0831 O   0  0  0  0  0  0  0  0  0  0  0  0
    2.2102    0.5348    0.1003 O   0  0  0  0  0  0  0  0  0  0  0  0
    1.4421   -2.9385    1.2072 O   0  0  0  0  0  0  0  0  0  0  0  0
   -1.5212   -2.4364   -3.4883 N   0  0  0  0  0  0  0  0  0  0  0  0
   -0.3978   -0.6278   -2.7000 O   0  0  0  0  0  0  0  0  0  0  0  0
   -3.2817   -3.2365   -1.3695 O   0  0  0  0  0  0  0  0  0  0  0  0
   -0.0917    2.2984    0.1261 C   0  0  0  0  0  0  0  0  0  0  0  0
   -1.4900   -1.9523   -4.8303 C   0  0  0  0  0  0  0  0  0  0  0  0
   -0.2079    2.8381   -1.1767 O   0  0  0  0  0  0  0  0  0  0  0  0
   -1.5024   -3.0936   -5.6512 O   0  0  0  0  0  0  0  0  0  0  0  0
   -0.9810   -1.8579    0.8720 H   0  0  0  0  0  0  0  0  0  0  0  0
    1.4029   -3.0134   -0.8442 H   0  0  0  0  0  0  0  0  0  0  0  0
    2.6647   -1.9716   -0.1343 H   0  0  0  0  0  0  0  0  0  0  0  0
   -1.4575   -4.1749   -1.4274 H   0  0  0  0  0  0  0  0  0  0  0  0
   -1.9709   -3.5691    0.1668 H   0  0  0  0  0  0  0  0  0  0  0  0
    1.8453   -2.3386    1.8588 H   0  0  0  0  0  0  0  0  0  0  0  0
   -2.3400   -2.9870   -3.2606 H   0  0  0  0  0  0  0  0  0  0  0  0
   -3.6128   -2.3904   -1.0174 H   0  0  0  0  0  0  0  0  0  0  0  0
   -0.9500    2.6278    0.7185 H   0  0  0  0  0  0  0  0  0  0  0  0
    0.8332    2.6702    0.5781 H   0  0  0  0  0  0  0  0  0  0  0  0
   -2.3873   -1.3551   -5.0141 H   0  0  0  0  0  0  0  0  0  0  0  0
   -0.5992   -1.3510   -5.0350 H   0  0  0  0  0  0  0  0  0  0  0  0
    0.3817    2.3091   -1.7414 H   0  0  0  0  0  0  0  0  0  0  0  0
   -0.6938   -3.5755   -5.4114 H   0  0  0  0  0  0  0  0  0  0  0  0
  1  2  1  0  0  0  0
  1  3  1  0  0  0  0
  1  4  1  0  0  0  0
  1 20  1  0  0  0  0
  2  5  1  0  0  0  0
  2  6  1  0  0  0  0
  3  7  1  0  0  0  0
  3  8  1  0  0  0  0
  4  9  1  0  0  0  0
  4 10  2  0  0  0  0
  5 11  2  0  0  0  0
  5  9  1  0  0  0  0
  6 12  1  0  0  0  0
  6 21  1  0  0  0  0
  6 22  1  0  0  0  0
  7 13  1  0  0  0  0
  7 14  2  0  0  0  0
  8 15  1  0  0  0  0
  8 23  1  0  0  0  0
  8 24  1  0  0  0  0
  9 16  1  0  0  0  0
 12 25  1  0  0  0  0
 13 17  1  0  0  0  0
 13 26  1  0  0  0  0
 15 27  1  0  0  0  0
 16 18  1  0  0  0  0
 16 28  1  0  0  0  0
 16 29  1  0  0  0  0
 17 19  1  0  0  0  0
 17 30  1  0  0  0  0
 17 31  1  0  0  0  0
 18 32  1  0  0  0  0
 19 33  1  0  0  0  0
M  END
>  <Mol_ID>
2915

>  <Formula>
C8H14N4O7

>  <MolWeight>
278.21936

>  <Cat>
S5292

>  <Name>
Diazolidinyl urea

>  <Synonyms>
Germall II

>  <Target>
Anti-infection

>  <Form>
free base

>  <CAS>
78491-02-8

>  <URL>
http://selleckchem.com/products/diazolidinyl-urea.html

$$$$
