S5291 Sulfisomidin.cdx
 OpenBabel08302520013D

 33 34  0  0  0  0  0  0  0  0999 V2000
   -2.3068   -0.9577    0.7807 C   0  0  0  0  0  0  0  0  0  0  0  0
   -3.6572   -0.0917    0.0195 S   0  0  0  0  0  0  0  0  0  0  0  0
   -0.9944   -0.6699    0.4042 C   0  0  0  0  0  0  0  0  0  0  0  0
   -2.5750   -1.9066    1.7653 C   0  0  0  0  0  0  0  0  0  0  0  0
   -3.9948   -1.0807   -1.3044 N   0  0  0  0  0  0  0  0  0  0  0  0
   -4.7581   -0.0792    0.9581 O   0  0  0  0  0  0  0  0  0  0  0  0
   -3.1219    1.1375   -0.5250 O   0  0  0  0  0  0  0  0  0  0  0  0
    0.0561   -1.3650    1.0076 C   0  0  0  0  0  0  0  0  0  0  0  0
   -1.5167   -2.5992    2.3555 C   0  0  0  0  0  0  0  0  0  0  0  0
   -4.9837   -2.0673   -1.1136 C   0  0  0  0  0  0  0  0  0  0  0  0
   -0.1921   -2.3058    2.0144 C   0  0  0  0  0  0  0  0  0  0  0  0
   -4.6540   -3.3553   -0.7671 C   0  0  0  0  0  0  0  0  0  0  0  0
   -6.2210   -1.6289   -1.3475 N   0  0  0  0  0  0  0  0  0  0  0  0
    0.8483   -3.1039    2.5030 N   0  0  0  0  0  0  0  0  0  0  0  0
   -5.7146   -4.2301   -0.6799 C   0  0  0  0  0  0  0  0  0  0  0  0
   -7.1949   -2.5370   -1.1872 C   0  0  0  0  0  0  0  0  0  0  0  0
   -6.9899   -3.8303   -0.8725 N   0  0  0  0  0  0  0  0  0  0  0  0
   -5.5063   -5.6908   -0.4206 C   0  0  0  0  0  0  0  0  0  0  0  0
   -8.6048   -2.0783   -1.3838 C   0  0  0  0  0  0  0  0  0  0  0  0
   -0.7793    0.0744   -0.3594 H   0  0  0  0  0  0  0  0  0  0  0  0
   -3.5971   -2.1241    2.0680 H   0  0  0  0  0  0  0  0  0  0  0  0
   -4.1968   -0.4854   -2.1069 H   0  0  0  0  0  0  0  0  0  0  0  0
    1.0760   -1.1661    0.6859 H   0  0  0  0  0  0  0  0  0  0  0  0
   -1.7346   -3.3695    3.0906 H   0  0  0  0  0  0  0  0  0  0  0  0
   -3.6291   -3.6690   -0.6240 H   0  0  0  0  0  0  0  0  0  0  0  0
    0.6565   -3.5183    3.4094 H   0  0  0  0  0  0  0  0  0  0  0  0
    1.7583   -2.6541    2.4738 H   0  0  0  0  0  0  0  0  0  0  0  0
   -6.0852   -6.0052    0.4520 H   0  0  0  0  0  0  0  0  0  0  0  0
   -5.8367   -6.2683   -1.2901 H   0  0  0  0  0  0  0  0  0  0  0  0
   -4.4524   -5.9260   -0.2372 H   0  0  0  0  0  0  0  0  0  0  0  0
   -8.8737   -1.3551   -0.6081 H   0  0  0  0  0  0  0  0  0  0  0  0
   -8.7075   -1.6025   -2.3635 H   0  0  0  0  0  0  0  0  0  0  0  0
   -9.3029   -2.9194   -1.3328 H   0  0  0  0  0  0  0  0  0  0  0  0
  1  2  1  0  0  0  0
  1  3  2  0  0  0  0
  1  4  1  0  0  0  0
  2  5  1  0  0  0  0
  2  6  2  0  0  0  0
  2  7  2  0  0  0  0
  3  8  1  0  0  0  0
  3 20  1  0  0  0  0
  4  9  2  0  0  0  0
  4 21  1  0  0  0  0
  5 10  1  0  0  0  0
  5 22  1  0  0  0  0
  8 11  2  0  0  0  0
  8 23  1  0  0  0  0
  9 11  1  0  0  0  0
  9 24  1  0  0  0  0
 10 12  2  0  0  0  0
 10 13  1  0  0  0  0
 11 14  1  0  0  0  0
 12 15  1  0  0  0  0
 12 25  1  0  0  0  0
 13 16  2  0  0  0  0
 14 26  1  0  0  0  0
 14 27  1  0  0  0  0
 15 17  2  0  0  0  0
 15 18  1  0  0  0  0
 16 19  1  0  0  0  0
 16 17  1  0  0  0  0
 18 28  1  0  0  0  0
 18 29  1  0  0  0  0
 18 30  1  0  0  0  0
 19 31  1  0  0  0  0
 19 32  1  0  0  0  0
 19 33  1  0  0  0  0
M  END
>  <Mol_ID>
2914

>  <Formula>
C12H14N4O2S

>  <MolWeight>
278.33016

>  <Cat>
S5291

>  <Name>
sulfaisodimidine

>  <Synonyms>
Sulfamethin, Sulfaisodimidine

>  <Target>
Bacterial

>  <Form>
free base

>  <CAS>
515-64-0

>  <URL>
http://selleckchem.com/products/sulfaisodimidine.html

$$$$
