S5294 Cephalotin acid.cdx
 OpenBabel08302520013D

 42 44  0  0  0  0  0  0  0  0999 V2000
   -0.6991   -0.4802   -0.5986 N   0  0  0  0  0  0  0  0  0  0  0  0
   -0.0025    0.7676   -0.9034 C   0  0  1  0  0  0  0  0  0  0  0  0
   -0.0821   -1.6584   -0.2415 C   0  0  0  0  0  0  0  0  0  0  0  0
   -1.8269    0.1144   -0.1386 C   0  0  0  0  0  0  0  0  0  0  0  0
   -1.3712    1.4843   -0.7038 C   0  0  1  0  0  0  0  0  0  0  0  0
    1.2723    1.0494    0.3554 S   0  0  0  0  0  0  0  0  0  0  0  0
    1.2586   -1.6972   -0.0121 C   0  0  0  0  0  0  0  0  0  0  0  0
   -0.8828   -2.9415   -0.2222 C   0  0  0  0  0  0  0  0  0  0  0  0
   -2.7432   -0.3438    0.5100 O   0  0  0  0  0  0  0  0  0  0  0  0
   -1.4260    2.6758    0.1872 N   0  0  0  0  0  0  0  0  0  0  0  0
    2.1527   -0.4763   -0.0817 C   0  0  0  0  0  0  0  0  0  0  0  0
    2.0283   -2.9489    0.3779 C   0  0  0  0  0  0  0  0  0  0  0  0
   -2.1965   -2.8226    0.0499 O   0  0  0  0  0  0  0  0  0  0  0  0
   -0.4052   -4.0296   -0.5102 O   0  0  0  0  0  0  0  0  0  0  0  0
   -1.1953    3.9327   -0.3366 C   0  0  0  0  0  0  0  0  0  0  0  0
    1.5025   -3.5259    1.5815 O   0  0  0  0  0  0  0  0  0  0  0  0
   -1.3579    5.0898    0.6304 C   0  0  0  0  0  0  0  0  0  0  0  0
   -0.9108    4.0951   -1.5225 O   0  0  0  0  0  0  0  0  0  0  0  0
    2.0197   -3.0688    2.7502 C   0  0  0  0  0  0  0  0  0  0  0  0
   -0.0353    5.4675    1.2156 C   0  0  0  0  0  0  0  0  0  0  0  0
    1.4763   -3.8487    3.9102 C   0  0  0  0  0  0  0  0  0  0  0  0
    2.8400   -2.1679    2.8557 O   0  0  0  0  0  0  0  0  0  0  0  0
    0.9000    6.3529    0.7155 C   0  0  0  0  0  0  0  0  0  0  0  0
    0.4686    4.7984    2.7102 S   0  0  0  0  0  0  0  0  0  0  0  0
    2.0362    6.4778    1.5659 C   0  0  0  0  0  0  0  0  0  0  0  0
    1.9298    5.6854    2.6865 C   0  0  0  0  0  0  0  0  0  0  0  0
    0.3604    0.8088   -1.9364 H   0  0  0  0  0  0  0  0  0  0  0  0
   -1.8950    1.6920   -1.6471 H   0  0  0  0  0  0  0  0  0  0  0  0
   -1.4812    2.5718    1.1963 H   0  0  0  0  0  0  0  0  0  0  0  0
    2.5648   -0.3874   -1.0948 H   0  0  0  0  0  0  0  0  0  0  0  0
    2.9996   -0.5548    0.6068 H   0  0  0  0  0  0  0  0  0  0  0  0
    1.9760   -3.6990   -0.4183 H   0  0  0  0  0  0  0  0  0  0  0  0
    3.1038   -2.7560    0.4951 H   0  0  0  0  0  0  0  0  0  0  0  0
   -2.5120   -1.9404    0.3468 H   0  0  0  0  0  0  0  0  0  0  0  0
   -1.7804    5.9347    0.0722 H   0  0  0  0  0  0  0  0  0  0  0  0
   -2.0912    4.8358    1.4043 H   0  0  0  0  0  0  0  0  0  0  0  0
    2.2511   -4.5203    4.2890 H   0  0  0  0  0  0  0  0  0  0  0  0
    1.1550   -3.1580    4.6942 H   0  0  0  0  0  0  0  0  0  0  0  0
    0.6083   -4.4428    3.6093 H   0  0  0  0  0  0  0  0  0  0  0  0
    0.7771    6.8885   -0.2194 H   0  0  0  0  0  0  0  0  0  0  0  0
    2.8882    7.1162    1.3658 H   0  0  0  0  0  0  0  0  0  0  0  0
    2.6407    5.5835    3.4950 H   0  0  0  0  0  0  0  0  0  0  0  0
  1  2  1  0  0  0  0
  1  3  1  0  0  0  0
  1  4  1  0  0  0  0
  2  5  1  0  0  0  0
  2  6  1  0  0  0  0
  2 27  1  6  0  0  0
  3  7  2  0  0  0  0
  3  8  1  0  0  0  0
  4  9  2  0  0  0  0
  4  5  1  0  0  0  0
  5 10  1  0  0  0  0
  5 28  1  6  0  0  0
  6 11  1  0  0  0  0
  7 12  1  0  0  0  0
  7 11  1  0  0  0  0
  8 13  1  0  0  0  0
  8 14  2  0  0  0  0
 10 15  1  0  0  0  0
 10 29  1  0  0  0  0
 11 30  1  0  0  0  0
 11 31  1  0  0  0  0
 12 16  1  0  0  0  0
 12 32  1  0  0  0  0
 12 33  1  0  0  0  0
 13 34  1  0  0  0  0
 15 17  1  0  0  0  0
 15 18  2  0  0  0  0
 16 19  1  0  0  0  0
 17 20  1  0  0  0  0
 17 35  1  0  0  0  0
 17 36  1  0  0  0  0
 19 21  1  0  0  0  0
 19 22  2  0  0  0  0
 20 23  2  0  0  0  0
 20 24  1  0  0  0  0
 21 37  1  0  0  0  0
 21 38  1  0  0  0  0
 21 39  1  0  0  0  0
 23 25  1  0  0  0  0
 23 40  1  0  0  0  0
 24 26  1  0  0  0  0
 25 26  2  0  0  0  0
 25 41  1  0  0  0  0
 26 42  1  0  0  0  0
M  END
>  <Mol_ID>
2917

>  <Formula>
C16H16N2O6S2

>  <MolWeight>
396.43804

>  <Cat>
S5294

>  <Name>
Cephalotin acid

>  <Synonyms>
Cephalothin, Cefalotin, Cephalothinum

>  <Target>
Antibiotics

>  <Form>
free base

>  <CAS>
153-61-7

>  <URL>
http://selleckchem.com/products/cephalotin-acid.html

$$$$
