S5308 7-(Diethylamino)coumarin-3-carboxylic acid.cdx
 OpenBabel08302520013D

 34 35  0  0  0  0  0  0  0  0999 V2000
    0.5470   -0.8579    0.0365 C   0  0  0  0  0  0  0  0  0  0  0  0
    0.3028    0.5057    0.0241 C   0  0  0  0  0  0  0  0  0  0  0  0
   -0.5765   -1.7764   -0.0392 C   0  0  0  0  0  0  0  0  0  0  0  0
    1.8663   -1.2872    0.1013 C   0  0  0  0  0  0  0  0  0  0  0  0
    1.3374    1.4423    0.0286 C   0  0  0  0  0  0  0  0  0  0  0  0
   -1.0116    1.0031    0.0015 O   0  0  0  0  0  0  0  0  0  0  0  0
   -1.8357   -1.3064   -0.0755 C   0  0  0  0  0  0  0  0  0  0  0  0
    2.9098   -0.3468    0.1223 C   0  0  0  0  0  0  0  0  0  0  0  0
    2.6800    1.0394    0.0461 C   0  0  0  0  0  0  0  0  0  0  0  0
   -2.0950    0.1418   -0.0190 C   0  0  0  0  0  0  0  0  0  0  0  0
   -2.9340   -2.2947   -0.1770 C   0  0  0  0  0  0  0  0  0  0  0  0
    3.7168    1.9608   -0.0314 N   0  0  0  0  0  0  0  0  0  0  0  0
   -3.2508    0.5639   -0.0026 O   0  0  0  0  0  0  0  0  0  0  0  0
   -4.1814   -1.7771   -0.1981 O   0  0  0  0  0  0  0  0  0  0  0  0
   -2.7412   -3.5033   -0.2450 O   0  0  0  0  0  0  0  0  0  0  0  0
    3.5382    3.2554   -0.7078 C   0  0  0  0  0  0  0  0  0  0  0  0
    5.0506    1.6592    0.4995 C   0  0  0  0  0  0  0  0  0  0  0  0
    3.2304    3.0829   -2.1911 C   0  0  0  0  0  0  0  0  0  0  0  0
    5.9737    1.0890   -0.5668 C   0  0  0  0  0  0  0  0  0  0  0  0
   -0.3616   -2.8414   -0.0847 H   0  0  0  0  0  0  0  0  0  0  0  0
    2.1125   -2.3463    0.1200 H   0  0  0  0  0  0  0  0  0  0  0  0
    1.0706    2.4939    0.0242 H   0  0  0  0  0  0  0  0  0  0  0  0
    3.9218   -0.7390    0.1555 H   0  0  0  0  0  0  0  0  0  0  0  0
   -4.2346   -0.7927   -0.1280 H   0  0  0  0  0  0  0  0  0  0  0  0
    2.7597    3.8506   -0.2176 H   0  0  0  0  0  0  0  0  0  0  0  0
    4.4555    3.8516   -0.6250 H   0  0  0  0  0  0  0  0  0  0  0  0
    5.5004    2.5787    0.8963 H   0  0  0  0  0  0  0  0  0  0  0  0
    4.9892    0.9793    1.3576 H   0  0  0  0  0  0  0  0  0  0  0  0
    2.2587    2.6067   -2.3545 H   0  0  0  0  0  0  0  0  0  0  0  0
    3.2045    4.0579   -2.6878 H   0  0  0  0  0  0  0  0  0  0  0  0
    3.9893    2.4671   -2.6840 H   0  0  0  0  0  0  0  0  0  0  0  0
    6.1228    1.8001   -1.3846 H   0  0  0  0  0  0  0  0  0  0  0  0
    6.9520    0.8620   -0.1313 H   0  0  0  0  0  0  0  0  0  0  0  0
    5.5797    0.1662   -1.0017 H   0  0  0  0  0  0  0  0  0  0  0  0
  1  2  2  0  0  0  0
  1  3  1  0  0  0  0
  1  4  1  0  0  0  0
  2  5  1  0  0  0  0
  2  6  1  0  0  0  0
  3  7  2  0  0  0  0
  3 20  1  0  0  0  0
  4  8  2  0  0  0  0
  4 21  1  0  0  0  0
  5  9  2  0  0  0  0
  5 22  1  0  0  0  0
  6 10  1  0  0  0  0
  7 11  1  0  0  0  0
  7 10  1  0  0  0  0
  8  9  1  0  0  0  0
  8 23  1  0  0  0  0
  9 12  1  0  0  0  0
 10 13  2  0  0  0  0
 11 14  1  0  0  0  0
 11 15  2  0  0  0  0
 12 16  1  0  0  0  0
 12 17  1  0  0  0  0
 14 24  1  0  0  0  0
 16 18  1  0  0  0  0
 16 25  1  0  0  0  0
 16 26  1  0  0  0  0
 17 19  1  0  0  0  0
 17 27  1  0  0  0  0
 17 28  1  0  0  0  0
 18 29  1  0  0  0  0
 18 30  1  0  0  0  0
 18 31  1  0  0  0  0
 19 32  1  0  0  0  0
 19 33  1  0  0  0  0
 19 34  1  0  0  0  0
M  END
>  <Mol_ID>
2884

>  <Formula>
C14H15NO4

>  <MolWeight>
261.2732

>  <Cat>
S5308

>  <Name>
7-(Diethylamino)coumarin-3-carboxylic acid

>  <Synonyms>
7-DCCA

>  <Target>
Others

>  <Form>
free base

>  <CAS>
50995-74-9

>  <URL>
http://selleckchem.com/products/7-diethylamino-coumarin-3-carboxylic-acid.html

$$$$
