S5309 Propyphenazone.cdx
 OpenBabel08302520013D

 35 36  0  0  0  0  0  0  0  0999 V2000
   -0.2762   -1.1935    0.1989 N   0  0  0  0  0  0  0  0  0  0  0  0
   -0.5597   -2.5689    0.0994 C   0  0  0  0  0  0  0  0  0  0  0  0
    1.0315   -0.7049    0.2729 C   0  0  0  0  0  0  0  0  0  0  0  0
   -1.1089   -0.1679   -0.2895 N   0  0  0  0  0  0  0  0  0  0  0  0
   -0.0869   -3.4126    1.1163 C   0  0  0  0  0  0  0  0  0  0  0  0
   -1.2738   -3.1148   -0.9688 C   0  0  0  0  0  0  0  0  0  0  0  0
    0.9598    0.7623    0.0116 C   0  0  0  0  0  0  0  0  0  0  0  0
    2.0692   -1.3106    0.4897 O   0  0  0  0  0  0  0  0  0  0  0  0
   -0.3475    1.0072   -0.2044 C   0  0  0  0  0  0  0  0  0  0  0  0
   -2.5237   -0.2080    0.0685 C   0  0  0  0  0  0  0  0  0  0  0  0
   -0.3467   -4.7846    1.0783 C   0  0  0  0  0  0  0  0  0  0  0  0
   -1.5021   -4.4936   -1.0226 C   0  0  0  0  0  0  0  0  0  0  0  0
    2.1576    1.6569    0.0724 C   0  0  0  0  0  0  0  0  0  0  0  0
   -0.9908    2.3563   -0.2796 C   0  0  0  0  0  0  0  0  0  0  0  0
   -1.0481   -5.3232    0.0055 C   0  0  0  0  0  0  0  0  0  0  0  0
    2.9002    1.5633    1.4061 C   0  0  0  0  0  0  0  0  0  0  0  0
    3.1047    1.3728   -1.0986 C   0  0  0  0  0  0  0  0  0  0  0  0
    0.4648   -3.0007    1.9536 H   0  0  0  0  0  0  0  0  0  0  0  0
   -1.6052   -2.4842   -1.7890 H   0  0  0  0  0  0  0  0  0  0  0  0
   -2.6909    0.2020    1.0696 H   0  0  0  0  0  0  0  0  0  0  0  0
   -3.0997    0.3843   -0.6522 H   0  0  0  0  0  0  0  0  0  0  0  0
   -2.9380   -1.2190    0.0425 H   0  0  0  0  0  0  0  0  0  0  0  0
    0.0052   -5.4224    1.8857 H   0  0  0  0  0  0  0  0  0  0  0  0
   -2.0208   -4.9256   -1.8748 H   0  0  0  0  0  0  0  0  0  0  0  0
    1.8349    2.6991   -0.0341 H   0  0  0  0  0  0  0  0  0  0  0  0
   -1.5776    2.4649   -1.1951 H   0  0  0  0  0  0  0  0  0  0  0  0
   -1.6593    2.4939    0.5795 H   0  0  0  0  0  0  0  0  0  0  0  0
   -0.2658    3.1731   -0.2445 H   0  0  0  0  0  0  0  0  0  0  0  0
   -1.2329   -6.3947   -0.0369 H   0  0  0  0  0  0  0  0  0  0  0  0
    3.3264    0.5696    1.5756 H   0  0  0  0  0  0  0  0  0  0  0  0
    3.7295    2.2788    1.4336 H   0  0  0  0  0  0  0  0  0  0  0  0
    2.2315    1.7928    2.2426 H   0  0  0  0  0  0  0  0  0  0  0  0
    2.5876    1.4894   -2.0582 H   0  0  0  0  0  0  0  0  0  0  0  0
    3.9494    2.0703   -1.0920 H   0  0  0  0  0  0  0  0  0  0  0  0
    3.5140    0.3574   -1.0604 H   0  0  0  0  0  0  0  0  0  0  0  0
  1  2  1  0  0  0  0
  1  3  1  0  0  0  0
  1  4  1  0  0  0  0
  2  5  2  0  0  0  0
  2  6  1  0  0  0  0
  3  7  1  0  0  0  0
  3  8  2  0  0  0  0
  4  9  1  0  0  0  0
  4 10  1  0  0  0  0
  5 11  1  0  0  0  0
  5 18  1  0  0  0  0
  6 12  2  0  0  0  0
  6 19  1  0  0  0  0
  7 13  1  0  0  0  0
  7  9  2  0  0  0  0
  9 14  1  0  0  0  0
 10 20  1  0  0  0  0
 10 21  1  0  0  0  0
 10 22  1  0  0  0  0
 11 15  2  0  0  0  0
 11 23  1  0  0  0  0
 12 15  1  0  0  0  0
 12 24  1  0  0  0  0
 13 16  1  0  0  0  0
 13 17  1  0  0  0  0
 13 25  1  0  0  0  0
 14 26  1  0  0  0  0
 14 27  1  0  0  0  0
 14 28  1  0  0  0  0
 15 29  1  0  0  0  0
 16 30  1  0  0  0  0
 16 31  1  0  0  0  0
 16 32  1  0  0  0  0
 17 33  1  0  0  0  0
 17 34  1  0  0  0  0
 17 35  1  0  0  0  0
M  END
>  <Mol_ID>
2835

>  <Formula>
C14H18N2O

>  <MolWeight>
230.30552

>  <Cat>
S5309

>  <Name>
Propyphenazone (4-Isopropylantipyrine)

>  <Synonyms>
Isopropylantipyrine, Isopropyrine

>  <Target>
COX

>  <Form>
free base

>  <CAS>
479-92-5

>  <URL>
http://selleckchem.com/products/propyphenazone.html

$$$$
