S5306 Forchlorfenuron.cdx
 OpenBabel08302520013D

 27 28  0  0  0  0  0  0  0  0999 V2000
    0.8136   -0.2255   -0.0260 N   0  0  0  0  0  0  0  0  0  0  0  0
    0.2033   -1.0869    0.8749 C   0  0  0  0  0  0  0  0  0  0  0  0
   -0.9850   -1.0357    1.1649 O   0  0  0  0  0  0  0  0  0  0  0  0
    1.0869   -2.0220    1.3846 N   0  0  0  0  0  0  0  0  0  0  0  0
    0.7511   -3.1194    2.2163 C   0  0  0  0  0  0  0  0  0  0  0  0
   -0.5590   -3.4384    2.5927 C   0  0  0  0  0  0  0  0  0  0  0  0
   -0.8295   -4.5451    3.4033 C   0  0  0  0  0  0  0  0  0  0  0  0
    0.2118   -5.3567    3.8384 C   0  0  0  0  0  0  0  0  0  0  0  0
    1.5215   -5.0561    3.4703 C   0  0  0  0  0  0  0  0  0  0  0  0
    1.7908   -3.9421    2.6659 C   0  0  0  0  0  0  0  0  0  0  0  0
   -1.6965    2.2767   -1.1521 C   0  0  0  0  0  0  0  0  0  0  0  0
   -1.1107    1.2944   -0.3767 C   0  0  0  0  0  0  0  0  0  0  0  0
    0.1544    0.8201   -0.7229 C   0  0  0  0  0  0  0  0  0  0  0  0
    0.7964    1.3955   -1.8184 C   0  0  0  0  0  0  0  0  0  0  0  0
    0.1277    2.3794   -2.5344 C   0  0  0  0  0  0  0  0  0  0  0  0
   -1.1060    2.8307   -2.2286 N   0  0  0  0  0  0  0  0  0  0  0  0
    1.7311   -0.4832   -0.3551 H   0  0  0  0  0  0  0  0  0  0  0  0
    2.0687   -1.8727    1.2129 H   0  0  0  0  0  0  0  0  0  0  0  0
   -1.4115   -2.8485    2.2755 H   0  0  0  0  0  0  0  0  0  0  0  0
   -1.8553   -4.7670    3.6801 H   0  0  0  0  0  0  0  0  0  0  0  0
   -0.0014   -6.2203    4.4623 H   0  0  0  0  0  0  0  0  0  0  0  0
    2.3344   -5.6927    3.8091 H   0  0  0  0  0  0  0  0  0  0  0  0
    2.8225   -3.7370    2.3952 H   0  0  0  0  0  0  0  0  0  0  0  0
   -2.6899    2.6478   -0.9154 H   0  0  0  0  0  0  0  0  0  0  0  0
   -1.6639    0.9280    0.4802 H   0  0  0  0  0  0  0  0  0  0  0  0
    1.7822    1.0830   -2.1402 H   0  0  0  0  0  0  0  0  0  0  0  0
    0.5774    2.8415   -3.4084 H   0  0  0  0  0  0  0  0  0  0  0  0
  1  2  1  0  0  0  0
  1 13  1  0  0  0  0
  1 17  1  0  0  0  0
  2  3  2  0  0  0  0
  2  4  1  0  0  0  0
  4  5  1  0  0  0  0
  4 18  1  0  0  0  0
  5  6  2  0  0  0  0
  5 10  1  0  0  0  0
  6  7  1  0  0  0  0
  6 19  1  0  0  0  0
  7  8  2  0  0  0  0
  7 20  1  0  0  0  0
  8  9  1  0  0  0  0
  8 21  1  0  0  0  0
  9 10  2  0  0  0  0
  9 22  1  0  0  0  0
 10 23  1  0  0  0  0
 11 12  2  0  0  0  0
 11 16  1  0  0  0  0
 11 24  1  0  0  0  0
 12 13  1  0  0  0  0
 12 25  1  0  0  0  0
 13 14  2  0  0  0  0
 14 15  1  0  0  0  0
 14 26  1  0  0  0  0
 15 16  2  0  0  0  0
 15 27  1  0  0  0  0
M  END
>  <Mol_ID>
2861

>  <Formula>
C12H10ClN3O

>  <MolWeight>
247.6803

>  <Cat>
S5306

>  <Name>
Forchlorfenuron (CPPU)

>  <Synonyms>
KT-30

>  <Target>
Others

>  <Form>
free base

>  <CAS>
68157-60-8

>  <URL>
http://selleckchem.com/products/forchlorfenuron.html

$$$$
