S5303 N-Acetyl-DL-phenylalanine.cdx
 OpenBabel08302520293D

 28 28  0  0  0  0  0  0  0  0999 V2000
    1.2959   -0.1533    0.1192 C   0  0  0  0  0  0  0  0  0  0  0  0
    0.5538   -0.3099   -1.0587 C   0  0  0  0  0  0  0  0  0  0  0  0
    2.7999   -0.2818    0.1614 C   0  0  0  0  0  0  0  0  0  0  0  0
    0.6058    0.0993    1.3161 C   0  0  0  0  0  0  0  0  0  0  0  0
   -0.8332   -0.1525   -1.0523 C   0  0  0  0  0  0  0  0  0  0  0  0
   -0.7823    0.2443    1.3228 C   0  0  0  0  0  0  0  0  0  0  0  0
   -1.5005    0.1294    0.1357 C   0  0  0  0  0  0  0  0  0  0  0  0
    3.5925    0.1311   -1.0909 C   0  0  3  0  0  0  0  0  0  0  0  0
    3.3757    1.6212   -1.4170 C   0  0  0  0  0  0  0  0  0  0  0  0
    4.3849    2.4215   -0.9933 O   0  0  0  0  0  0  0  0  0  0  0  0
    2.3850    2.0727   -1.9703 O   0  0  0  0  0  0  0  0  0  0  0  0
    5.0307   -0.1194   -0.8646 N   0  0  0  0  0  0  0  0  0  0  0  0
    5.9639   -0.4454   -1.8098 C   0  0  0  0  0  0  0  0  0  0  0  0
    7.1200   -0.6526   -1.4506 O   0  0  0  0  0  0  0  0  0  0  0  0
    5.5358   -0.5297   -3.2486 C   0  0  0  0  0  0  0  0  0  0  0  0
    1.0346   -0.5219   -2.0098 H   0  0  0  0  0  0  0  0  0  0  0  0
    3.1761    0.3094    1.0098 H   0  0  0  0  0  0  0  0  0  0  0  0
    3.0283   -1.3302    0.3960 H   0  0  0  0  0  0  0  0  0  0  0  0
    1.1455    0.1982    2.2552 H   0  0  0  0  0  0  0  0  0  0  0  0
   -1.3903   -0.2373   -1.9822 H   0  0  0  0  0  0  0  0  0  0  0  0
   -1.3021    0.4569    2.2534 H   0  0  0  0  0  0  0  0  0  0  0  0
   -2.5785    0.2625    0.1352 H   0  0  0  0  0  0  0  0  0  0  0  0
    3.2855   -0.4497   -1.9642 H   0  0  0  0  0  0  0  0  0  0  0  0
    5.1178    1.8939   -0.6168 H   0  0  0  0  0  0  0  0  0  0  0  0
    5.3855   -0.1867    0.0866 H   0  0  0  0  0  0  0  0  0  0  0  0
    4.8254   -1.3525   -3.3780 H   0  0  0  0  0  0  0  0  0  0  0  0
    5.0837    0.4117   -3.5681 H   0  0  0  0  0  0  0  0  0  0  0  0
    6.4098   -0.7272   -3.8793 H   0  0  0  0  0  0  0  0  0  0  0  0
  1  2  2  0  0  0  0
  1  3  1  0  0  0  0
  1  4  1  0  0  0  0
  2  5  1  0  0  0  0
  2 16  1  0  0  0  0
  3  8  1  0  0  0  0
  3 17  1  0  0  0  0
  3 18  1  0  0  0  0
  4  6  2  0  0  0  0
  4 19  1  0  0  0  0
  5  7  2  0  0  0  0
  5 20  1  0  0  0  0
  6  7  1  0  0  0  0
  6 21  1  0  0  0  0
  7 22  1  0  0  0  0
  8  9  1  0  0  0  0
  8 12  1  0  0  0  0
  8 23  1  0  0  0  0
  9 10  1  0  0  0  0
  9 11  2  0  0  0  0
 10 24  1  0  0  0  0
 12 13  1  0  0  0  0
 12 25  1  0  0  0  0
 13 14  2  0  0  0  0
 13 15  1  0  0  0  0
 15 26  1  0  0  0  0
 15 27  1  0  0  0  0
 15 28  1  0  0  0  0
M  END
>  <Mol_ID>
3234

>  <Formula>
C11H13NO3

>  <MolWeight>
207.22582

>  <Cat>
S5303

>  <Name>
Afalanine (N-Acetyl-DL-phenylalanine)

>  <Synonyms>
Afalanine

>  <Target>
Others

>  <Form>
Amino acid

>  <CAS>
2901-75-9

>  <URL>
https://www.selleckchem.com/products/n-acetyl-dl-phenylalanine.html

$$$$
