S5305 2-Bromo-N-carbamoyl-3-methylbutanamide.cdx
 OpenBabel08302520013D

 22 21  0  0  0  0  0  0  0  0999 V2000
    1.0731    0.0222    0.0462 C   0  0  0  0  0  0  0  0  0  0  0  0
    0.1282   -1.1101    0.4268 C   0  0  3  0  0  0  0  0  0  0  0  0
    0.5593    0.9935   -0.7970 N   0  0  0  0  0  0  0  0  0  0  0  0
    2.2005    0.0903    0.5455 O   0  0  0  0  0  0  0  0  0  0  0  0
   -0.7508   -0.8095    1.6521 C   0  0  0  0  0  0  0  0  0  0  0  0
   -0.8968   -1.6471   -1.1545 Br  0  0  0  0  0  0  0  0  0  0  0  0
    1.1931    2.0786   -1.3310 C   0  0  0  0  0  0  0  0  0  0  0  0
   -1.7201    0.3647    1.4907 C   0  0  0  0  0  0  0  0  0  0  0  0
   -1.5082   -2.0566    2.1255 C   0  0  0  0  0  0  0  0  0  0  0  0
    2.4362    2.3409   -0.8782 N   0  0  0  0  0  0  0  0  0  0  0  0
    0.6524    2.7806   -2.1759 O   0  0  0  0  0  0  0  0  0  0  0  0
    0.7572   -1.9882    0.6293 H   0  0  0  0  0  0  0  0  0  0  0  0
   -0.3452    0.8228   -1.2194 H   0  0  0  0  0  0  0  0  0  0  0  0
   -0.0711   -0.5327    2.4711 H   0  0  0  0  0  0  0  0  0  0  0  0
   -2.3945    0.2346    0.6416 H   0  0  0  0  0  0  0  0  0  0  0  0
   -2.3391    0.4768    2.3880 H   0  0  0  0  0  0  0  0  0  0  0  0
   -1.1772    1.3078    1.3606 H   0  0  0  0  0  0  0  0  0  0  0  0
   -0.8156   -2.8857    2.3066 H   0  0  0  0  0  0  0  0  0  0  0  0
   -2.0356   -1.8565    3.0644 H   0  0  0  0  0  0  0  0  0  0  0  0
   -2.2537   -2.3864    1.3955 H   0  0  0  0  0  0  0  0  0  0  0  0
    2.9631    3.0718   -1.3349 H   0  0  0  0  0  0  0  0  0  0  0  0
    2.9475    1.6141   -0.3839 H   0  0  0  0  0  0  0  0  0  0  0  0
  1  2  1  0  0  0  0
  1  3  1  0  0  0  0
  1  4  2  0  0  0  0
  2  5  1  0  0  0  0
  2  6  1  0  0  0  0
  2 12  1  0  0  0  0
  3  7  1  0  0  0  0
  3 13  1  0  0  0  0
  5  8  1  0  0  0  0
  5  9  1  0  0  0  0
  5 14  1  0  0  0  0
  7 10  1  0  0  0  0
  7 11  2  0  0  0  0
  8 15  1  0  0  0  0
  8 16  1  0  0  0  0
  8 17  1  0  0  0  0
  9 18  1  0  0  0  0
  9 19  1  0  0  0  0
  9 20  1  0  0  0  0
 10 21  1  0  0  0  0
 10 22  1  0  0  0  0
M  END
>  <Mol_ID>
2834

>  <Formula>
C6H11BrN2O2

>  <MolWeight>
223.06774

>  <Cat>
S5305

>  <Name>
Bromisoval

>  <Synonyms>
Bromovalerylurea, Isobromyl, Bromaral, BRN 1773255, 2-Bromo-N-carbamoyl-3-methylbutanamide

>  <Target>
Others

>  <Form>
free base

>  <CAS>
496-67-3

>  <URL>
http://selleckchem.com/products/bromisoval.html

$$$$
