S5304 2-Acetylphenothiazine.cdx
 OpenBabel08302520013D

 28 30  0  0  0  0  0  0  0  0999 V2000
    1.2328   -0.7369    0.3734 C   0  0  0  0  0  0  0  0  0  0  0  0
    1.3694    0.6291    0.0594 C   0  0  0  0  0  0  0  0  0  0  0  0
   -0.0126   -1.2865    0.7236 N   0  0  0  0  0  0  0  0  0  0  0  0
    2.3221   -1.6026    0.1610 C   0  0  0  0  0  0  0  0  0  0  0  0
    0.0016    1.7696    0.2429 S   0  0  0  0  0  0  0  0  0  0  0  0
    2.5849    1.1207   -0.4275 C   0  0  0  0  0  0  0  0  0  0  0  0
   -1.2523   -0.7222    0.3702 C   0  0  0  0  0  0  0  0  0  0  0  0
    3.5112   -1.1186   -0.3814 C   0  0  0  0  0  0  0  0  0  0  0  0
   -1.3769    0.6446    0.0549 C   0  0  0  0  0  0  0  0  0  0  0  0
    3.6493    0.2477   -0.6538 C   0  0  0  0  0  0  0  0  0  0  0  0
   -2.3488   -1.5695    0.1600 C   0  0  0  0  0  0  0  0  0  0  0  0
    4.6596   -2.0104   -0.7122 C   0  0  0  0  0  0  0  0  0  0  0  0
   -2.5885    1.1436   -0.4385 C   0  0  0  0  0  0  0  0  0  0  0  0
   -3.5427   -1.0723   -0.3640 C   0  0  0  0  0  0  0  0  0  0  0  0
    4.4119   -3.4366   -1.1304 C   0  0  0  0  0  0  0  0  0  0  0  0
    5.8035   -1.5504   -0.6836 O   0  0  0  0  0  0  0  0  0  0  0  0
   -3.6638    0.2834   -0.6604 C   0  0  0  0  0  0  0  0  0  0  0  0
   -0.0271   -2.2239    1.0979 H   0  0  0  0  0  0  0  0  0  0  0  0
    2.2048   -2.6593    0.3901 H   0  0  0  0  0  0  0  0  0  0  0  0
    2.6993    2.1748   -0.6652 H   0  0  0  0  0  0  0  0  0  0  0  0
    4.5788    0.6360   -1.0707 H   0  0  0  0  0  0  0  0  0  0  0  0
   -2.2621   -2.6355    0.3535 H   0  0  0  0  0  0  0  0  0  0  0  0
   -2.6910    2.1984   -0.6820 H   0  0  0  0  0  0  0  0  0  0  0  0
   -4.3704   -1.7484   -0.5629 H   0  0  0  0  0  0  0  0  0  0  0  0
    4.8368   -3.5816   -2.1295 H   0  0  0  0  0  0  0  0  0  0  0  0
    4.9031   -4.1081   -0.4234 H   0  0  0  0  0  0  0  0  0  0  0  0
    3.3528   -3.6911   -1.1885 H   0  0  0  0  0  0  0  0  0  0  0  0
   -4.5893    0.6688   -1.0800 H   0  0  0  0  0  0  0  0  0  0  0  0
  1  2  2  0  0  0  0
  1  3  1  0  0  0  0
  1  4  1  0  0  0  0
  2  5  1  0  0  0  0
  2  6  1  0  0  0  0
  3  7  1  0  0  0  0
  3 18  1  0  0  0  0
  4  8  2  0  0  0  0
  4 19  1  0  0  0  0
  5  9  1  0  0  0  0
  6 10  2  0  0  0  0
  6 20  1  0  0  0  0
  7 11  2  0  0  0  0
  7  9  1  0  0  0  0
  8 12  1  0  0  0  0
  8 10  1  0  0  0  0
  9 13  2  0  0  0  0
 10 21  1  0  0  0  0
 11 14  1  0  0  0  0
 11 22  1  0  0  0  0
 12 15  1  0  0  0  0
 12 16  2  0  0  0  0
 13 17  1  0  0  0  0
 13 23  1  0  0  0  0
 14 17  2  0  0  0  0
 14 24  1  0  0  0  0
 15 25  1  0  0  0  0
 15 26  1  0  0  0  0
 15 27  1  0  0  0  0
 17 28  1  0  0  0  0
M  END
>  <Mol_ID>
2833

>  <Formula>
C14H11NOS

>  <MolWeight>
241.30824

>  <Cat>
S5304

>  <Name>
2-Acetylphenothiazine (ML171)

>  <Synonyms>
2-APT

>  <Target>
NADPH-oxidase

>  <Form>
free base

>  <CAS>
6631-94-3

>  <URL>
http://selleckchem.com/products/2-acetylphenothiazine-ml171.html

$$$$
