S5307 2'-deoxy-2'-fluoro-2'-C-methyluridine.cdx
 OpenBabel08302520013D

 31 32  0  0  0  0  0  0  0  0999 V2000
    2.9668    0.0239   -1.3889 C   0  0  0  0  0  0  0  0  0  0  0  0
    2.5178   -0.0078    0.0696 C   0  0  1  0  0  0  0  0  0  0  0  0
    1.1587    0.0065    0.0985 F   0  0  0  0  0  0  0  0  0  0  0  0
    3.0259   -1.2630    0.7881 C   0  0  2  0  0  0  0  0  0  0  0  0
    2.1015   -1.7420    1.7736 O   0  0  0  0  0  0  0  0  0  0  0  0
    4.3006   -0.8039    1.5033 C   0  0  1  0  0  0  0  0  0  0  0  0
    5.5712   -1.4149    0.9152 C   0  0  0  0  0  0  0  0  0  0  0  0
    6.7164   -0.9497    1.6266 O   0  0  0  0  0  0  0  0  0  0  0  0
    4.3947    0.6323    1.3797 O   0  0  0  0  0  0  0  0  0  0  0  0
    3.1029    1.1075    0.9461 C   0  0  1  0  0  0  0  0  0  0  0  0
    3.2327    2.4273    0.3296 N   0  0  0  0  0  0  0  0  0  0  0  0
    4.3907    2.8003   -0.3261 C   0  0  0  0  0  0  0  0  0  0  0  0
    4.5459    4.0128   -0.8595 C   0  0  0  0  0  0  0  0  0  0  0  0
    3.4531    4.9891   -0.7350 C   0  0  0  0  0  0  0  0  0  0  0  0
    3.5786    6.1330   -1.1488 O   0  0  0  0  0  0  0  0  0  0  0  0
    2.3178    4.5293   -0.1324 N   0  0  0  0  0  0  0  0  0  0  0  0
    2.1435    3.2890    0.4309 C   0  0  0  0  0  0  0  0  0  0  0  0
    1.0872    3.0031    0.9936 O   0  0  0  0  0  0  0  0  0  0  0  0
    2.6138   -0.8682   -1.9195 H   0  0  0  0  0  0  0  0  0  0  0  0
    2.5306    0.8822   -1.9095 H   0  0  0  0  0  0  0  0  0  0  0  0
    4.0549    0.0671   -1.4897 H   0  0  0  0  0  0  0  0  0  0  0  0
    3.2072   -2.0992    0.1047 H   0  0  0  0  0  0  0  0  0  0  0  0
    1.4444   -1.0462    1.9633 H   0  0  0  0  0  0  0  0  0  0  0  0
    4.2595   -1.0191    2.5779 H   0  0  0  0  0  0  0  0  0  0  0  0
    5.5485   -2.5063    0.9837 H   0  0  0  0  0  0  0  0  0  0  0  0
    5.7044   -1.1279   -0.1318 H   0  0  0  0  0  0  0  0  0  0  0  0
    6.6267    0.0194    1.6959 H   0  0  0  0  0  0  0  0  0  0  0  0
    2.4827    1.2121    1.8480 H   0  0  0  0  0  0  0  0  0  0  0  0
    5.1918    2.0691   -0.3869 H   0  0  0  0  0  0  0  0  0  0  0  0
    5.4480    4.3283   -1.3659 H   0  0  0  0  0  0  0  0  0  0  0  0
    1.5584    5.1848   -0.0300 H   0  0  0  0  0  0  0  0  0  0  0  0
  1 19  1  0  0  0  0
  1 20  1  0  0  0  0
  1 21  1  0  0  0  0
  2  4  1  0  0  0  0
  2 10  1  0  0  0  0
  2  3  1  1  0  0  0
  2  1  1  0  0  0  0
  4  5  1  0  0  0  0
  4  6  1  0  0  0  0
  4 22  1  6  0  0  0
  5 23  1  0  0  0  0
  6  9  1  0  0  0  0
  6 24  1  1  0  0  0
  6  7  1  0  0  0  0
  7  8  1  0  0  0  0
  7 25  1  0  0  0  0
  7 26  1  0  0  0  0
  8 27  1  0  0  0  0
  9 10  1  0  0  0  0
 10 11  1  0  0  0  0
 10 28  1  1  0  0  0
 11 12  1  0  0  0  0
 11 17  1  0  0  0  0
 12 13  2  0  0  0  0
 12 29  1  0  0  0  0
 13 14  1  0  0  0  0
 13 30  1  0  0  0  0
 14 15  2  0  0  0  0
 14 16  1  0  0  0  0
 16 17  1  0  0  0  0
 16 31  1  0  0  0  0
 17 18  2  0  0  0  0
M  END
>  <Mol_ID>
2862

>  <Formula>
C10H13FN2O5

>  <MolWeight>
260.2190232

>  <Cat>
S5307

>  <Name>
PSI-6206 (GS-331007)

>  <Synonyms>
RO-2433

>  <Target>
HCV Protease

>  <Form>
free base

>  <CAS>
863329-66-2

>  <URL>
http://selleckchem.com/products/psi-6206-ro-2433-gs-331007.html

$$$$
