S5311 Pyridoxal phosphate.cdx
 OpenBabel08302520013D

 26 26  0  0  0  0  0  0  0  0999 V2000
    0.9922   -0.2125    0.0126 C   0  0  0  0  0  0  0  0  0  0  0  0
    0.1576   -1.1390   -0.7891 C   0  0  0  0  0  0  0  0  0  0  0  0
   -0.9875   -0.6830   -1.4651 C   0  0  0  0  0  0  0  0  0  0  0  0
   -1.4233    0.7545   -1.5306 C   0  0  0  0  0  0  0  0  0  0  0  0
   -1.6986   -1.6395   -2.1849 C   0  0  0  0  0  0  0  0  0  0  0  0
   -1.3626   -2.9432   -2.2765 N   0  0  0  0  0  0  0  0  0  0  0  0
   -0.2480   -3.3597   -1.6295 C   0  0  0  0  0  0  0  0  0  0  0  0
    0.0899   -4.8102   -1.8002 C   0  0  0  0  0  0  0  0  0  0  0  0
    0.5312   -2.4922   -0.8686 C   0  0  0  0  0  0  0  0  0  0  0  0
    1.6412   -2.9906   -0.2374 O   0  0  0  0  0  0  0  0  0  0  0  0
    1.9797   -0.6194    0.6242 O   0  0  0  0  0  0  0  0  0  0  0  0
   -3.4698    2.2947   -1.7786 P   0  0  0  0  0  0  0  0  0  0  0  0
   -4.9551    2.3496   -1.8436 O   0  0  0  0  0  0  0  0  0  0  0  0
   -2.8307    0.8364   -1.6588 O   0  0  0  0  0  0  0  0  0  0  0  0
   -2.8693    3.1289   -0.5620 O   0  0  0  0  0  0  0  0  0  0  0  0
   -2.7857    2.9510   -3.0609 O   0  0  0  0  0  0  0  0  0  0  0  0
    0.7179    0.8497    0.0603 H   0  0  0  0  0  0  0  0  0  0  0  0
   -1.1497    1.2903   -0.6200 H   0  0  0  0  0  0  0  0  0  0  0  0
   -0.9388    1.2327   -2.3897 H   0  0  0  0  0  0  0  0  0  0  0  0
   -2.5977   -1.3784   -2.7404 H   0  0  0  0  0  0  0  0  0  0  0  0
   -0.7086   -5.4271   -1.3765 H   0  0  0  0  0  0  0  0  0  0  0  0
    0.1816   -5.0391   -2.8670 H   0  0  0  0  0  0  0  0  0  0  0  0
    1.0299   -5.0905   -1.3181 H   0  0  0  0  0  0  0  0  0  0  0  0
    2.0734   -2.2632    0.2652 H   0  0  0  0  0  0  0  0  0  0  0  0
   -3.4414    3.0591    0.2245 H   0  0  0  0  0  0  0  0  0  0  0  0
   -3.4674    3.2082   -3.7095 H   0  0  0  0  0  0  0  0  0  0  0  0
  1  2  1  0  0  0  0
  1 11  2  0  0  0  0
  1 17  1  0  0  0  0
  2  3  2  0  0  0  0
  2  9  1  0  0  0  0
  3  4  1  0  0  0  0
  3  5  1  0  0  0  0
  4 14  1  0  0  0  0
  4 18  1  0  0  0  0
  4 19  1  0  0  0  0
  5  6  2  0  0  0  0
  5 20  1  0  0  0  0
  6  7  1  0  0  0  0
  7  8  1  0  0  0  0
  7  9  2  0  0  0  0
  8 21  1  0  0  0  0
  8 22  1  0  0  0  0
  8 23  1  0  0  0  0
  9 10  1  0  0  0  0
 10 24  1  0  0  0  0
 12 13  2  0  0  0  0
 12 14  1  0  0  0  0
 12 15  1  0  0  0  0
 12 16  1  0  0  0  0
 15 25  1  0  0  0  0
 16 26  1  0  0  0  0
M  END
>  <Mol_ID>
2886

>  <Formula>
C8H10NO6P

>  <MolWeight>
247.141861

>  <Cat>
S5311

>  <Name>
Pyridoxal phosphate

>  <Synonyms>
pyridoxal 5'-phosphate, PAL-P, PLP, Vitamin B6 phosphate

>  <Target>
Vitamin

>  <Form>
free base

>  <CAS>
54-47-7

>  <URL>
http://selleckchem.com/products/pyridoxal-phosphate.html

$$$$
