S5314 HTHQ.cdx
 OpenBabel08302520013D

 41 41  0  0  0  0  0  0  0  0999 V2000
   -0.4171    1.0966    0.0910 C   0  0  0  0  0  0  0  0  0  0  0  0
   -0.9478   -0.1591    0.4164 C   0  0  0  0  0  0  0  0  0  0  0  0
    0.9531    1.2017   -0.1842 C   0  0  0  0  0  0  0  0  0  0  0  0
   -1.0935    2.3009    0.1196 O   0  0  0  0  0  0  0  0  0  0  0  0
   -0.1900   -1.3307    0.1469 C   0  0  0  0  0  0  0  0  0  0  0  0
   -2.2205   -0.3037    1.2108 C   0  0  0  0  0  0  0  0  0  0  0  0
    1.7770    0.0679   -0.2147 C   0  0  0  0  0  0  0  0  0  0  0  0
   -2.3761    2.3025   -0.5292 C   0  0  0  0  0  0  0  0  0  0  0  0
    1.1824   -1.1962   -0.1156 C   0  0  0  0  0  0  0  0  0  0  0  0
   -0.8250   -2.6978    0.1979 C   0  0  0  0  0  0  0  0  0  0  0  0
    3.2699    0.2387   -0.2749 C   0  0  0  0  0  0  0  0  0  0  0  0
   -2.9202    3.7314   -0.6900 C   0  0  0  0  0  0  0  0  0  0  0  0
    1.9963   -2.2926   -0.2400 O   0  0  0  0  0  0  0  0  0  0  0  0
   -2.2074    4.6356   -1.7006 C   0  0  0  0  0  0  0  0  0  0  0  0
   -2.2198    4.1739   -3.1625 C   0  0  0  0  0  0  0  0  0  0  0  0
   -3.5935    3.9932   -3.8164 C   0  0  0  0  0  0  0  0  0  0  0  0
   -4.4172    5.2702   -3.9086 C   0  0  0  0  0  0  0  0  0  0  0  0
    1.3948    2.1887   -0.3188 H   0  0  0  0  0  0  0  0  0  0  0  0
   -3.0440   -0.6654    0.5893 H   0  0  0  0  0  0  0  0  0  0  0  0
   -2.0515   -1.0051    2.0366 H   0  0  0  0  0  0  0  0  0  0  0  0
   -2.5033    0.6313    1.7022 H   0  0  0  0  0  0  0  0  0  0  0  0
   -2.3407    1.7826   -1.4923 H   0  0  0  0  0  0  0  0  0  0  0  0
   -3.1017    1.7957    0.1106 H   0  0  0  0  0  0  0  0  0  0  0  0
   -0.5038   -3.2929   -0.6651 H   0  0  0  0  0  0  0  0  0  0  0  0
   -0.5478   -3.2166    1.1200 H   0  0  0  0  0  0  0  0  0  0  0  0
   -1.9146   -2.6521    0.1325 H   0  0  0  0  0  0  0  0  0  0  0  0
    3.5544    0.8064   -1.1630 H   0  0  0  0  0  0  0  0  0  0  0  0
    3.6097    0.7753    0.6195 H   0  0  0  0  0  0  0  0  0  0  0  0
    3.8096   -0.7135   -0.2961 H   0  0  0  0  0  0  0  0  0  0  0  0
   -3.9836    3.6755   -0.9523 H   0  0  0  0  0  0  0  0  0  0  0  0
   -2.8659    4.2314    0.2856 H   0  0  0  0  0  0  0  0  0  0  0  0
    1.5217   -3.0881    0.0397 H   0  0  0  0  0  0  0  0  0  0  0  0
   -2.6647    5.6332   -1.6445 H   0  0  0  0  0  0  0  0  0  0  0  0
   -1.1652    4.7673   -1.3872 H   0  0  0  0  0  0  0  0  0  0  0  0
   -1.6536    4.9086   -3.7512 H   0  0  0  0  0  0  0  0  0  0  0  0
   -1.6677    3.2316   -3.2442 H   0  0  0  0  0  0  0  0  0  0  0  0
   -3.4348    3.6211   -4.8369 H   0  0  0  0  0  0  0  0  0  0  0  0
   -4.1689    3.2234   -3.2929 H   0  0  0  0  0  0  0  0  0  0  0  0
   -3.8591    6.0684   -4.4080 H   0  0  0  0  0  0  0  0  0  0  0  0
   -5.3279    5.0869   -4.4888 H   0  0  0  0  0  0  0  0  0  0  0  0
   -4.7210    5.6237   -2.9191 H   0  0  0  0  0  0  0  0  0  0  0  0
  1  2  2  0  0  0  0
  1  3  1  0  0  0  0
  1  4  1  0  0  0  0
  2  5  1  0  0  0  0
  2  6  1  0  0  0  0
  3  7  2  0  0  0  0
  3 18  1  0  0  0  0
  4  8  1  0  0  0  0
  5  9  2  0  0  0  0
  5 10  1  0  0  0  0
  6 19  1  0  0  0  0
  6 20  1  0  0  0  0
  6 21  1  0  0  0  0
  7 11  1  0  0  0  0
  7  9  1  0  0  0  0
  8 12  1  0  0  0  0
  8 22  1  0  0  0  0
  8 23  1  0  0  0  0
  9 13  1  0  0  0  0
 10 24  1  0  0  0  0
 10 25  1  0  0  0  0
 10 26  1  0  0  0  0
 11 27  1  0  0  0  0
 11 28  1  0  0  0  0
 11 29  1  0  0  0  0
 12 14  1  0  0  0  0
 12 30  1  0  0  0  0
 12 31  1  0  0  0  0
 13 32  1  0  0  0  0
 14 15  1  0  0  0  0
 14 33  1  0  0  0  0
 14 34  1  0  0  0  0
 15 16  1  0  0  0  0
 15 35  1  0  0  0  0
 15 36  1  0  0  0  0
 16 17  1  0  0  0  0
 16 37  1  0  0  0  0
 16 38  1  0  0  0  0
 17 39  1  0  0  0  0
 17 40  1  0  0  0  0
 17 41  1  0  0  0  0
M  END
>  <Mol_ID>
2902

>  <Formula>
C15H24O2

>  <MolWeight>
236.34986

>  <Cat>
S5314

>  <Name>
HTHQ (1-O-Hexyl-2,3,5-trimethylhydroquinone)

>  <Synonyms>
N/A

>  <Target>
ROS

>  <Form>
Hydroquinones

>  <CAS>
148081-72-5

>  <URL>
http://selleckchem.com/products/hthq-1-o-hexyl-2-3-5-trimethylhydroquinone.html

$$$$
