S5319 AWD 131-138.cdx
 OpenBabel08302520013D

 33 35  0  0  0  0  0  0  0  0999 V2000
   -0.2760    1.0425   -0.1213 C   0  0  0  0  0  0  0  0  0  0  0  0
    1.0150    0.5869   -0.0301 N   0  0  0  0  0  0  0  0  0  0  0  0
    0.9757   -0.7078   -0.0602 C   0  0  0  0  0  0  0  0  0  0  0  0
   -0.4307   -1.2624   -0.0672 C   0  0  0  0  0  0  0  0  0  0  0  0
   -1.1463   -0.0330   -0.2264 N   0  0  0  0  0  0  0  0  0  0  0  0
   -0.5641    2.2297   -0.1287 O   0  0  0  0  0  0  0  0  0  0  0  0
    4.2154   -1.4289   -1.3266 C   0  0  0  0  0  0  0  0  0  0  0  0
    3.4524   -0.9701   -0.0750 C   0  0  0  0  0  0  0  0  0  0  0  0
    2.0877   -1.5252   -0.0794 N   0  0  0  0  0  0  0  0  0  0  0  0
    2.0540   -2.9779   -0.2853 C   0  0  0  0  0  0  0  0  0  0  0  0
    2.8602   -3.3464   -1.5416 C   0  0  0  0  0  0  0  0  0  0  0  0
    4.2075   -2.8621   -1.4524 O   0  0  0  0  0  0  0  0  0  0  0  0
   -2.5131   -0.0098   -0.6089 C   0  0  0  0  0  0  0  0  0  0  0  0
   -3.1257    1.1520   -1.0884 C   0  0  0  0  0  0  0  0  0  0  0  0
   -4.4373    1.1260   -1.5783 C   0  0  0  0  0  0  0  0  0  0  0  0
   -5.1632   -0.0612   -1.5805 C   0  0  0  0  0  0  0  0  0  0  0  0
   -4.5853   -1.2188   -1.0731 C   0  0  0  0  0  0  0  0  0  0  0  0
   -3.2735   -1.1922   -0.5891 C   0  0  0  0  0  0  0  0  0  0  0  0
   -0.6631   -1.7323    0.8944 H   0  0  0  0  0  0  0  0  0  0  0  0
   -0.5836   -1.9276   -0.9210 H   0  0  0  0  0  0  0  0  0  0  0  0
    3.7855   -0.9924   -2.2354 H   0  0  0  0  0  0  0  0  0  0  0  0
    5.2603   -1.1095   -1.2632 H   0  0  0  0  0  0  0  0  0  0  0  0
    3.9639   -1.3388    0.8217 H   0  0  0  0  0  0  0  0  0  0  0  0
    3.4590    0.1239   -0.0287 H   0  0  0  0  0  0  0  0  0  0  0  0
    2.4984   -3.4598    0.5913 H   0  0  0  0  0  0  0  0  0  0  0  0
    1.0360   -3.3625   -0.3887 H   0  0  0  0  0  0  0  0  0  0  0  0
    2.9039   -4.4349   -1.6492 H   0  0  0  0  0  0  0  0  0  0  0  0
    2.3938   -2.9392   -2.4469 H   0  0  0  0  0  0  0  0  0  0  0  0
   -2.5995    2.1022   -1.1311 H   0  0  0  0  0  0  0  0  0  0  0  0
   -4.8812    2.0376   -1.9725 H   0  0  0  0  0  0  0  0  0  0  0  0
   -6.1741   -0.0809   -1.9773 H   0  0  0  0  0  0  0  0  0  0  0  0
   -5.1505   -2.1477   -1.0615 H   0  0  0  0  0  0  0  0  0  0  0  0
   -2.8675   -2.1195   -0.2006 H   0  0  0  0  0  0  0  0  0  0  0  0
  1  2  1  0  0  0  0
  1  5  1  0  0  0  0
  1  6  2  0  0  0  0
  2  3  2  0  0  0  0
  3  4  1  0  0  0  0
  3  9  1  0  0  0  0
  4  5  1  0  0  0  0
  4 19  1  0  0  0  0
  4 20  1  0  0  0  0
  5 13  1  0  0  0  0
  7  8  1  0  0  0  0
  7 12  1  0  0  0  0
  7 21  1  0  0  0  0
  7 22  1  0  0  0  0
  8  9  1  0  0  0  0
  8 23  1  0  0  0  0
  8 24  1  0  0  0  0
  9 10  1  0  0  0  0
 10 11  1  0  0  0  0
 10 25  1  0  0  0  0
 10 26  1  0  0  0  0
 11 12  1  0  0  0  0
 11 27  1  0  0  0  0
 11 28  1  0  0  0  0
 13 14  2  0  0  0  0
 13 18  1  0  0  0  0
 14 15  1  0  0  0  0
 14 29  1  0  0  0  0
 15 16  2  0  0  0  0
 15 30  1  0  0  0  0
 16 17  1  0  0  0  0
 16 31  1  0  0  0  0
 17 18  2  0  0  0  0
 17 32  1  0  0  0  0
 18 33  1  0  0  0  0
M  END
>  <Mol_ID>
2982

>  <Formula>
C13H14ClN3O2

>  <MolWeight>
279.72216

>  <Cat>
S5319

>  <Name>
Imepitoin

>  <Synonyms>
ELB-138,AWD 131-138

>  <Target>
GABA Receptor

>  <Form>
free base

>  <CAS>
188116-07-6

>  <URL>
http://selleckchem.com/products/awd-131-138.html

$$$$
