S5312  Urolithin A.cdx
 OpenBabel08302520013D

 25 27  0  0  0  0  0  0  0  0999 V2000
    1.4147    0.7886    0.0005 C   0  0  0  0  0  0  0  0  0  0  0  0
    0.7311   -0.4306    0.0001 C   0  0  0  0  0  0  0  0  0  0  0  0
   -0.7363   -0.4179   -0.0000 C   0  0  0  0  0  0  0  0  0  0  0  0
   -1.4140    0.8136   -0.0010 C   0  0  0  0  0  0  0  0  0  0  0  0
   -0.6667    2.0953   -0.0011 C   0  0  0  0  0  0  0  0  0  0  0  0
    0.7177    2.0146    0.0001 O   0  0  0  0  0  0  0  0  0  0  0  0
    1.5171   -1.5958   -0.0001 C   0  0  0  0  0  0  0  0  0  0  0  0
    2.9172   -1.5329    0.0001 C   0  0  0  0  0  0  0  0  0  0  0  0
    3.5502   -0.2967    0.0008 C   0  0  0  0  0  0  0  0  0  0  0  0
    2.8082    0.8737    0.0010 C   0  0  0  0  0  0  0  0  0  0  0  0
   -2.8197    0.8751   -0.0020 C   0  0  0  0  0  0  0  0  0  0  0  0
   -3.5557   -0.3002   -0.0016 C   0  0  0  0  0  0  0  0  0  0  0  0
   -2.9167   -1.5289    0.0001 C   0  0  0  0  0  0  0  0  0  0  0  0
   -1.5202   -1.5872    0.0008 C   0  0  0  0  0  0  0  0  0  0  0  0
   -1.2485    3.1747   -0.0022 O   0  0  0  0  0  0  0  0  0  0  0  0
   -4.9175   -0.2941   -0.0026 O   0  0  0  0  0  0  0  0  0  0  0  0
    4.9089   -0.1951    0.0013 O   0  0  0  0  0  0  0  0  0  0  0  0
    1.0648   -2.5833   -0.0011 H   0  0  0  0  0  0  0  0  0  0  0  0
    3.4874   -2.4570   -0.0001 H   0  0  0  0  0  0  0  0  0  0  0  0
    3.3041    1.8392    0.0014 H   0  0  0  0  0  0  0  0  0  0  0  0
   -3.3184    1.8411   -0.0029 H   0  0  0  0  0  0  0  0  0  0  0  0
   -3.5011   -2.4455    0.0009 H   0  0  0  0  0  0  0  0  0  0  0  0
   -1.0675   -2.5746    0.0015 H   0  0  0  0  0  0  0  0  0  0  0  0
   -5.2307    0.6263   -0.0063 H   0  0  0  0  0  0  0  0  0  0  0  0
    5.2914   -1.0879    0.0005 H   0  0  0  0  0  0  0  0  0  0  0  0
  1  2  2  0  0  0  0
  1  6  1  0  0  0  0
  1 10  1  0  0  0  0
  2  3  1  0  0  0  0
  2  7  1  0  0  0  0
  3  4  2  0  0  0  0
  3 14  1  0  0  0  0
  4  5  1  0  0  0  0
  4 11  1  0  0  0  0
  5  6  1  0  0  0  0
  5 15  2  0  0  0  0
  7  8  2  0  0  0  0
  7 18  1  0  0  0  0
  8  9  1  0  0  0  0
  8 19  1  0  0  0  0
  9 10  2  0  0  0  0
  9 17  1  0  0  0  0
 10 20  1  0  0  0  0
 11 12  2  0  0  0  0
 11 21  1  0  0  0  0
 12 13  1  0  0  0  0
 12 16  1  0  0  0  0
 13 14  2  0  0  0  0
 13 22  1  0  0  0  0
 14 23  1  0  0  0  0
 16 24  1  0  0  0  0
 17 25  1  0  0  0  0
M  END
>  <Mol_ID>
2887

>  <Formula>
C13H8O4

>  <MolWeight>
228.20022

>  <Cat>
S5312

>  <Name>
Urolithin A

>  <Synonyms>
3,8-Dihydroxy Urolithin; 2',7-Dihydroxy-3,4-benzocoumarin

>  <Target>
Mitophagy

>  <Form>
free base

>  <CAS>
1143-70-0

>  <URL>
http://selleckchem.com/products/urolithin-a.html

$$$$
