S5316 NU2058.cdx
 OpenBabel08302520013D

 35 37  0  0  0  0  0  0  0  0999 V2000
   -0.7027   -1.1581   -0.4794 N   0  0  0  0  0  0  0  0  0  0  0  0
   -1.4350    1.1267   -0.4324 N   0  0  0  0  0  0  0  0  0  0  0  0
    0.5248   -0.6512   -0.3142 C   0  0  0  0  0  0  0  0  0  0  0  0
    0.8855    0.6809   -0.2023 C   0  0  0  0  0  0  0  0  0  0  0  0
   -0.1703    1.5952   -0.2647 C   0  0  0  0  0  0  0  0  0  0  0  0
   -1.6349   -0.1966   -0.5559 C   0  0  0  0  0  0  0  0  0  0  0  0
    2.2586    0.7905   -0.0597 N   0  0  0  0  0  0  0  0  0  0  0  0
    1.6956   -1.3464   -0.2471 N   0  0  0  0  0  0  0  0  0  0  0  0
    2.7089   -0.4427   -0.1054 C   0  0  0  0  0  0  0  0  0  0  0  0
   -0.0764    2.9722   -0.2004 O   0  0  0  0  0  0  0  0  0  0  0  0
   -2.9325   -0.6065   -0.7824 N   0  0  0  0  0  0  0  0  0  0  0  0
    1.2488    3.4860   -0.0463 C   0  0  0  0  0  0  0  0  0  0  0  0
    1.1793    5.0201   -0.0200 C   0  0  0  0  0  0  0  0  0  0  0  0
    0.5987    5.5645   -1.3364 C   0  0  0  0  0  0  0  0  0  0  0  0
    2.5628    5.6239    0.2620 C   0  0  0  0  0  0  0  0  0  0  0  0
    0.5816    7.0902   -1.3622 C   0  0  0  0  0  0  0  0  0  0  0  0
    2.5266    7.1496    0.2362 C   0  0  0  0  0  0  0  0  0  0  0  0
    1.9624    7.6723   -1.0796 C   0  0  0  0  0  0  0  0  0  0  0  0
    1.7801   -2.3496   -0.3161 H   0  0  0  0  0  0  0  0  0  0  0  0
    3.7481   -0.7367   -0.0457 H   0  0  0  0  0  0  0  0  0  0  0  0
   -3.5865    0.0918   -0.4547 H   0  0  0  0  0  0  0  0  0  0  0  0
   -3.0722   -1.5627   -0.4932 H   0  0  0  0  0  0  0  0  0  0  0  0
    1.6720    3.1325    0.9017 H   0  0  0  0  0  0  0  0  0  0  0  0
    1.8830    3.1712   -0.8851 H   0  0  0  0  0  0  0  0  0  0  0  0
    0.5006    5.3144    0.7929 H   0  0  0  0  0  0  0  0  0  0  0  0
    1.1923    5.1975   -2.1838 H   0  0  0  0  0  0  0  0  0  0  0  0
   -0.4222    5.1926   -1.4840 H   0  0  0  0  0  0  0  0  0  0  0  0
    2.9240    5.2941    1.2431 H   0  0  0  0  0  0  0  0  0  0  0  0
    3.2859    5.2656   -0.4821 H   0  0  0  0  0  0  0  0  0  0  0  0
    0.2278    7.4381   -2.3394 H   0  0  0  0  0  0  0  0  0  0  0  0
   -0.1316    7.4580   -0.6143 H   0  0  0  0  0  0  0  0  0  0  0  0
    3.5376    7.5439    0.3885 H   0  0  0  0  0  0  0  0  0  0  0  0
    1.9123    7.5141    1.0687 H   0  0  0  0  0  0  0  0  0  0  0  0
    2.6442    7.4112   -1.8984 H   0  0  0  0  0  0  0  0  0  0  0  0
    1.9033    8.7659   -1.0477 H   0  0  0  0  0  0  0  0  0  0  0  0
  2  6  2  0  0  0  0
  3  1  2  0  0  0  0
  4  3  1  0  0  0  0
  5  2  1  0  0  0  0
  5  4  2  0  0  0  0
  6  1  1  0  0  0  0
  7  4  1  0  0  0  0
  8  3  1  0  0  0  0
  8 19  1  0  0  0  0
  9  7  2  0  0  0  0
  9  8  1  0  0  0  0
  9 20  1  0  0  0  0
 10  5  1  0  0  0  0
 11  6  1  0  0  0  0
 11 21  1  0  0  0  0
 11 22  1  0  0  0  0
 12 10  1  0  0  0  0
 12 23  1  0  0  0  0
 12 24  1  0  0  0  0
 13 12  1  0  0  0  0
 13 25  1  0  0  0  0
 14 13  1  0  0  0  0
 14 26  1  0  0  0  0
 14 27  1  0  0  0  0
 15 13  1  0  0  0  0
 15 28  1  0  0  0  0
 15 29  1  0  0  0  0
 16 14  1  0  0  0  0
 16 30  1  0  0  0  0
 16 31  1  0  0  0  0
 17 15  1  0  0  0  0
 17 32  1  0  0  0  0
 17 33  1  0  0  0  0
 18 16  1  0  0  0  0
 18 17  1  0  0  0  0
 18 34  1  0  0  0  0
 18 35  1  0  0  0  0
M  END
>  <Mol_ID>
2903

>  <Formula>
C12H17N5O

>  <MolWeight>
247.29628

>  <Cat>
S5316

>  <Name>
NU2058

>  <Synonyms>
O(6)-Cyclohexylmethylguanine

>  <Target>
CDK

>  <Form>
free base

>  <CAS>
161058-83-9

>  <URL>
http://selleckchem.com/products/nu2058.html

$$$$
