S5321 Y15.cdx
 OpenBabel08302520013D

 20 20  0  0  0  0  0  0  0  0999 V2000
   -1.4048   -0.0721   -0.1277 C   0  0  0  0  0  0  0  0  0  0  0  0
   -0.6337   -1.2519   -0.1281 C   0  0  0  0  0  0  0  0  0  0  0  0
   -0.7492    1.1650   -0.0544 C   0  0  0  0  0  0  0  0  0  0  0  0
   -2.8044   -0.1093    0.0347 N   0  0  0  0  0  0  0  0  0  0  0  0
    0.7629   -1.1488   -0.0594 C   0  0  0  0  0  0  0  0  0  0  0  0
   -1.2271   -2.5192    0.0380 N   0  0  0  0  0  0  0  0  0  0  0  0
    0.6472    1.2689   -0.1241 C   0  0  0  0  0  0  0  0  0  0  0  0
    1.4181    0.0895   -0.1287 C   0  0  0  0  0  0  0  0  0  0  0  0
    1.2411    2.5353    0.0473 N   0  0  0  0  0  0  0  0  0  0  0  0
    2.8182    0.1233    0.0314 N   0  0  0  0  0  0  0  0  0  0  0  0
   -1.3403    2.0688    0.0709 H   0  0  0  0  0  0  0  0  0  0  0  0
   -3.2366   -0.9476   -0.3261 H   0  0  0  0  0  0  0  0  0  0  0  0
   -3.2733    0.7359   -0.2719 H   0  0  0  0  0  0  0  0  0  0  0  0
    1.3536   -2.0526    0.0605 H   0  0  0  0  0  0  0  0  0  0  0  0
   -0.6438   -3.2880   -0.2727 H   0  0  0  0  0  0  0  0  0  0  0  0
   -2.1733   -2.5797   -0.3100 H   0  0  0  0  0  0  0  0  0  0  0  0
    2.1898    2.5953   -0.2936 H   0  0  0  0  0  0  0  0  0  0  0  0
    0.6601    3.3058   -0.2650 H   0  0  0  0  0  0  0  0  0  0  0  0
    3.2513    0.9610   -0.3300 H   0  0  0  0  0  0  0  0  0  0  0  0
    3.2839   -0.7226   -0.2777 H   0  0  0  0  0  0  0  0  0  0  0  0
  1  2  2  0  0  0  0
  1  3  1  0  0  0  0
  1  4  1  0  0  0  0
  2  5  1  0  0  0  0
  2  6  1  0  0  0  0
  3  7  2  0  0  0  0
  3 11  1  0  0  0  0
  4 12  1  0  0  0  0
  4 13  1  0  0  0  0
  5  8  2  0  0  0  0
  5 14  1  0  0  0  0
  6 15  1  0  0  0  0
  6 16  1  0  0  0  0
  7  9  1  0  0  0  0
  7  8  1  0  0  0  0
  8 10  1  0  0  0  0
  9 17  1  0  0  0  0
  9 18  1  0  0  0  0
 10 19  1  0  0  0  0
 10 20  1  0  0  0  0
M  END
>  <Mol_ID>
2891

>  <Formula>
C6H14Cl4N4

>  <MolWeight>
284.01416

>  <Cat>
S5321

>  <Name>
Y15

>  <Synonyms>
1,2,4,5-Benzenetetraamine tetrahydrochloride, FAK inhibitor 14

>  <Target>
FAK

>  <Form>
tetrahydrochloride

>  <CAS>
4506-66-5

>  <URL>
http://selleckchem.com/products/y15.html

$$$$
