S5329 FAAH-IN-2.cdx
 OpenBabel08302520013D

 33 35  0  0  0  0  0  0  0  0999 V2000
   -0.0318   -0.6786    0.0233 C   0  0  0  0  0  0  0  0  0  0  0  0
   -1.1824   -1.4535    0.1337 C   0  0  0  0  0  0  0  0  0  0  0  0
   -2.4538   -0.8781    0.1113 C   0  0  0  0  0  0  0  0  0  0  0  0
   -2.5615    0.4980   -0.0812 C   0  0  0  0  0  0  0  0  0  0  0  0
   -1.4375    1.2948   -0.2138 C   0  0  0  0  0  0  0  0  0  0  0  0
   -0.1552    0.7121   -0.1214 C   0  0  0  0  0  0  0  0  0  0  0  0
    1.0529    1.4293   -0.1511 C   0  0  0  0  0  0  0  0  0  0  0  0
    2.2469    0.8075   -0.1165 N   0  0  0  0  0  0  0  0  0  0  0  0
    2.2369   -0.5212   -0.0123 C   0  0  0  0  0  0  0  0  0  0  0  0
    1.1513   -1.2970    0.0719 N   0  0  0  0  0  0  0  0  0  0  0  0
   -3.7865    1.1001   -0.1156 O   0  0  0  0  0  0  0  0  0  0  0  0
    1.0221    2.8531   -0.1764 N   0  0  0  0  0  0  0  0  0  0  0  0
    3.7190    5.3693    0.3232 C   0  0  0  0  0  0  0  0  0  0  0  0
    4.5314    5.0872   -0.7686 C   0  0  0  0  0  0  0  0  0  0  0  0
    4.1679    4.1255   -1.7004 C   0  0  0  0  0  0  0  0  0  0  0  0
    2.9832    3.4142   -1.5170 C   0  0  0  0  0  0  0  0  0  0  0  0
    2.1652    3.6519   -0.4000 C   0  0  0  0  0  0  0  0  0  0  0  0
    2.5289    4.6582    0.5043 C   0  0  0  0  0  0  0  0  0  0  0  0
    5.6882    5.7478   -0.9198 F   0  0  0  0  0  0  0  0  0  0  0  0
   -3.5728   -2.9279    0.5585 C   0  0  0  0  0  0  0  0  0  0  0  0
   -3.6462   -1.5372    0.2638 O   0  0  0  0  0  0  0  0  0  0  0  0
   -1.0495   -2.5231    0.2555 H   0  0  0  0  0  0  0  0  0  0  0  0
   -1.5606    2.3589   -0.3889 H   0  0  0  0  0  0  0  0  0  0  0  0
    3.2011   -1.0177    0.0168 H   0  0  0  0  0  0  0  0  0  0  0  0
   -4.4302    0.3838    0.0564 H   0  0  0  0  0  0  0  0  0  0  0  0
    0.4774    3.1844    0.6159 H   0  0  0  0  0  0  0  0  0  0  0  0
    4.0265    6.1276    1.0375 H   0  0  0  0  0  0  0  0  0  0  0  0
    4.8097    3.9178   -2.5495 H   0  0  0  0  0  0  0  0  0  0  0  0
    2.7050    2.6485   -2.2368 H   0  0  0  0  0  0  0  0  0  0  0  0
    1.9164    4.8706    1.3735 H   0  0  0  0  0  0  0  0  0  0  0  0
   -3.1566   -3.4836   -0.2872 H   0  0  0  0  0  0  0  0  0  0  0  0
   -3.0020   -3.1128    1.4751 H   0  0  0  0  0  0  0  0  0  0  0  0
   -4.5931   -3.2858    0.7258 H   0  0  0  0  0  0  0  0  0  0  0  0
  1  2  2  0  0  0  0
  1  6  1  0  0  0  0
  1 10  1  0  0  0  0
  2  3  1  0  0  0  0
  2 22  1  0  0  0  0
  3  4  2  0  0  0  0
  3 21  1  0  0  0  0
  4  5  1  0  0  0  0
  4 11  1  0  0  0  0
  5  6  2  0  0  0  0
  5 23  1  0  0  0  0
  6  7  1  0  0  0  0
  7  8  2  0  0  0  0
  7 12  1  0  0  0  0
  8  9  1  0  0  0  0
  9 10  2  0  0  0  0
  9 24  1  0  0  0  0
 11 25  1  0  0  0  0
 12 17  1  0  0  0  0
 12 26  1  0  0  0  0
 13 14  2  0  0  0  0
 13 18  1  0  0  0  0
 13 27  1  0  0  0  0
 14 15  1  0  0  0  0
 14 19  1  0  0  0  0
 15 16  2  0  0  0  0
 15 28  1  0  0  0  0
 16 17  1  0  0  0  0
 16 29  1  0  0  0  0
 17 18  2  0  0  0  0
 18 30  1  0  0  0  0
 20 21  1  0  0  0  0
 20 31  1  0  0  0  0
 20 32  1  0  0  0  0
 20 33  1  0  0  0  0
M  END
>  <Mol_ID>
2968

>  <Formula>
C15H11ClFN3O2

>  <MolWeight>
319.7181432

>  <Cat>
S5329

>  <Name>
FAAH-IN-2

>  <Synonyms>
N/A

>  <Target>
FAAH

>  <Form>
free base

>  <CAS>
184475-71-6

>  <URL>
http://selleckchem.com/products/faah-in-2.html

$$$$
