S5322 Sodium gualenate.cdx
 OpenBabel08302520013D

 36 37  0  0  0  0  0  0  0  0999 V2000
    1.3041   -1.5590    0.0463 C   0  0  0  0  0  0  0  0  0  0  0  0
    1.7525   -0.2022   -0.3676 C   0  0  0  0  0  0  0  0  0  0  0  0
   -0.0194   -1.5601   -0.2240 C   0  0  0  0  0  0  0  0  0  0  0  0
    2.2100   -2.5740    0.5413 C   0  0  0  0  0  0  0  0  0  0  0  0
    0.5644    0.6222   -0.6015 C   0  0  0  0  0  0  0  0  0  0  0  0
    3.0185    0.2191   -0.5416 C   0  0  0  0  0  0  0  0  0  0  0  0
   -0.4747   -0.2215   -0.5802 C   0  0  0  0  0  0  0  0  0  0  0  0
   -1.1077   -2.9025   -0.0178 S   0  0  0  0  0  0  0  0  0  0  0  0
    3.2440   -2.1578    1.3047 C   0  0  0  0  0  0  0  0  0  0  0  0
    2.2155   -3.9359   -0.0682 C   0  0  0  0  0  0  0  0  0  0  0  0
    0.5236    2.0981   -0.5513 C   0  0  0  0  0  0  0  0  0  0  0  0
    4.2856   -0.3959   -0.1089 C   0  0  0  0  0  0  0  0  0  0  0  0
   -0.6727   -3.9039   -0.9959 O   0  0  0  0  0  0  0  0  0  0  0  0
   -0.9618   -3.3114    1.3790 O   0  0  0  0  0  0  0  0  0  0  0  0
   -2.4305   -2.3522   -0.3226 O   0  5  0  0  0  0  0  0  0  0  0  0
    4.3879   -1.5213    0.6367 C   0  0  0  0  0  0  0  0  0  0  0  0
    5.5113    0.5231   -0.1651 C   0  0  0  0  0  0  0  0  0  0  0  0
    5.9166    1.0441   -1.5460 C   0  0  0  0  0  0  0  0  0  0  0  0
    5.2676    1.6771    0.8303 C   0  0  0  0  0  0  0  0  0  0  0  0
    3.1371    1.1798   -1.0400 H   0  0  0  0  0  0  0  0  0  0  0  0
   -1.5205    0.0385   -0.6134 H   0  0  0  0  0  0  0  0  0  0  0  0
    2.9741   -1.3938    2.0518 H   0  0  0  0  0  0  0  0  0  0  0  0
    1.5137   -4.5852    0.4654 H   0  0  0  0  0  0  0  0  0  0  0  0
    1.9532   -3.9040   -1.1286 H   0  0  0  0  0  0  0  0  0  0  0  0
    3.2044   -4.4020    0.0090 H   0  0  0  0  0  0  0  0  0  0  0  0
    1.0722    2.4588    0.3334 H   0  0  0  0  0  0  0  0  0  0  0  0
    0.9530    2.5631   -1.4369 H   0  0  0  0  0  0  0  0  0  0  0  0
   -0.5084    2.4524   -0.4343 H   0  0  0  0  0  0  0  0  0  0  0  0
    5.3534   -1.8680    0.9977 H   0  0  0  0  0  0  0  0  0  0  0  0
    6.3914   -0.0200    0.2079 H   0  0  0  0  0  0  0  0  0  0  0  0
    5.0874    1.4884   -2.1020 H   0  0  0  0  0  0  0  0  0  0  0  0
    6.6919    1.8141   -1.4448 H   0  0  0  0  0  0  0  0  0  0  0  0
    6.3427    0.2383   -2.1530 H   0  0  0  0  0  0  0  0  0  0  0  0
    5.4522    1.3267    1.8529 H   0  0  0  0  0  0  0  0  0  0  0  0
    5.9212    2.5317    0.6412 H   0  0  0  0  0  0  0  0  0  0  0  0
    4.2363    2.0487    0.8119 H   0  0  0  0  0  0  0  0  0  0  0  0
  1  2  1  0  0  0  0
  1  3  2  0  0  0  0
  1  4  1  0  0  0  0
  2  5  1  0  0  0  0
  2  6  2  0  0  0  0
  3  7  1  0  0  0  0
  3  8  1  0  0  0  0
  4  9  2  0  0  0  0
  4 10  1  0  0  0  0
  5 11  1  0  0  0  0
  5  7  2  0  0  0  0
  6 12  1  0  0  0  0
  6 20  1  0  0  0  0
  7 21  1  0  0  0  0
  8 13  2  0  0  0  0
  8 14  2  0  0  0  0
  8 15  1  0  0  0  0
  9 16  1  0  0  0  0
  9 22  1  0  0  0  0
 10 23  1  0  0  0  0
 10 24  1  0  0  0  0
 10 25  1  0  0  0  0
 11 26  1  0  0  0  0
 11 27  1  0  0  0  0
 11 28  1  0  0  0  0
 12 17  1  0  0  0  0
 12 16  2  0  0  0  0
 16 29  1  0  0  0  0
 17 18  1  0  0  0  0
 17 19  1  0  0  0  0
 17 30  1  0  0  0  0
 18 31  1  0  0  0  0
 18 32  1  0  0  0  0
 18 33  1  0  0  0  0
 19 34  1  0  0  0  0
 19 35  1  0  0  0  0
 19 36  1  0  0  0  0
M  CHG  1  15  -1
M  END
>  <Mol_ID>
2965

>  <Formula>
C15H17NaO3S

>  <MolWeight>
300.34845

>  <Cat>
S5322

>  <Name>
Sodium gualenate

>  <Synonyms>
Guaiazulenesulfonate sodium

>  <Target>
Immunology & Inflammation related

>  <Form>
sodium salt

>  <CAS>
6223-35-4

>  <URL>
http://selleckchem.com/products/sodium-gualenate.html

$$$$
