S5339 4-Allylanisole.cdx
 OpenBabel08302520013D

 23 23  0  0  0  0  0  0  0  0999 V2000
    1.3747   -0.2409    0.0818 C   0  0  0  0  0  0  0  0  0  0  0  0
    0.4964   -1.3315    0.0275 C   0  0  0  0  0  0  0  0  0  0  0  0
    0.8428    1.0534    0.0429 C   0  0  0  0  0  0  0  0  0  0  0  0
    2.8661   -0.4586    0.1698 C   0  0  0  0  0  0  0  0  0  0  0  0
   -0.8876   -1.1329   -0.0396 C   0  0  0  0  0  0  0  0  0  0  0  0
   -0.5397    1.2473   -0.0233 C   0  0  0  0  0  0  0  0  0  0  0  0
    3.5231   -0.5564   -1.1778 C   0  0  0  0  0  0  0  0  0  0  0  0
   -1.4125    0.1580   -0.0619 C   0  0  0  0  0  0  0  0  0  0  0  0
    4.4989    0.2570   -1.6020 C   0  0  0  0  0  0  0  0  0  0  0  0
   -2.7392    0.4860   -0.1248 O   0  0  0  0  0  0  0  0  0  0  0  0
   -3.6650   -0.5929   -0.1558 C   0  0  0  0  0  0  0  0  0  0  0  0
    0.8851   -2.3476    0.0405 H   0  0  0  0  0  0  0  0  0  0  0  0
    1.5008    1.9188    0.0705 H   0  0  0  0  0  0  0  0  0  0  0  0
    3.3128    0.3453    0.7688 H   0  0  0  0  0  0  0  0  0  0  0  0
    3.0642   -1.3839    0.7257 H   0  0  0  0  0  0  0  0  0  0  0  0
   -1.5248   -2.0110   -0.0704 H   0  0  0  0  0  0  0  0  0  0  0  0
   -0.9403    2.2580   -0.0427 H   0  0  0  0  0  0  0  0  0  0  0  0
    3.1840   -1.3569   -1.8324 H   0  0  0  0  0  0  0  0  0  0  0  0
    4.9431    0.1261   -2.5843 H   0  0  0  0  0  0  0  0  0  0  0  0
    4.8764    1.0673   -0.9860 H   0  0  0  0  0  0  0  0  0  0  0  0
   -3.4935   -1.2406   -1.0220 H   0  0  0  0  0  0  0  0  0  0  0  0
   -3.6322   -1.1638    0.7781 H   0  0  0  0  0  0  0  0  0  0  0  0
   -4.6695   -0.1701   -0.2543 H   0  0  0  0  0  0  0  0  0  0  0  0
  1  2  2  0  0  0  0
  1  3  1  0  0  0  0
  1  4  1  0  0  0  0
  2  5  1  0  0  0  0
  2 12  1  0  0  0  0
  3  6  2  0  0  0  0
  3 13  1  0  0  0  0
  4  7  1  0  0  0  0
  4 14  1  0  0  0  0
  4 15  1  0  0  0  0
  5  8  2  0  0  0  0
  5 16  1  0  0  0  0
  6  8  1  0  0  0  0
  6 17  1  0  0  0  0
  7  9  2  0  0  0  0
  7 18  1  0  0  0  0
  8 10  1  0  0  0  0
  9 19  1  0  0  0  0
  9 20  1  0  0  0  0
 10 11  1  0  0  0  0
 11 21  1  0  0  0  0
 11 22  1  0  0  0  0
 11 23  1  0  0  0  0
M  END
>  <Mol_ID>
2926

>  <Formula>
C10H12O

>  <MolWeight>
148.20168

>  <Cat>
S5339

>  <Name>
4-Allylanisole

>  <Synonyms>
Estragole, p-Allylanisole, Methyl chavicol

>  <Target>
Others

>  <Form>
free base

>  <CAS>
140-67-0

>  <URL>
http://selleckchem.com/products/4-allylanisole.html

$$$$
