S5335 COREY LACTONE DIOL.cdx
 OpenBabel08302520013D

 24 25  0  0  0  0  0  0  0  0999 V2000
   -0.1010   -0.8004   -0.6139 C   0  0  1  0  0  0  0  0  0  0  0  0
    0.0233    0.7001   -0.6637 C   0  0  2  0  0  0  0  0  0  0  0  0
    0.9257   -1.2621    0.4450 C   0  0  2  0  0  0  0  0  0  0  0  0
   -1.5421   -0.9980   -0.1896 C   0  0  0  0  0  0  0  0  0  0  0  0
    1.4725    1.0090   -0.3278 C   0  0  0  0  0  0  0  0  0  0  0  0
   -0.8752    1.2035    0.3204 O   0  0  0  0  0  0  0  0  0  0  0  0
    1.9221   -0.1063    0.6132 C   0  0  1  0  0  0  0  0  0  0  0  0
    1.6279   -2.5470    0.0071 C   0  0  0  0  0  0  0  0  0  0  0  0
   -1.8573    0.2786    0.5332 C   0  0  0  0  0  0  0  0  0  0  0  0
    1.8718    0.3322    1.9660 O   0  0  0  0  0  0  0  0  0  0  0  0
    0.6735   -3.5816   -0.1967 O   0  0  0  0  0  0  0  0  0  0  0  0
   -2.8673    0.4878    1.1895 O   0  0  0  0  0  0  0  0  0  0  0  0
    0.1083   -1.2576   -1.5873 H   0  0  0  0  0  0  0  0  0  0  0  0
   -0.2620    1.1246   -1.6332 H   0  0  0  0  0  0  0  0  0  0  0  0
    0.4161   -1.4683    1.3967 H   0  0  0  0  0  0  0  0  0  0  0  0
   -1.6795   -1.8608    0.4663 H   0  0  0  0  0  0  0  0  0  0  0  0
   -2.2000   -1.0772   -1.0606 H   0  0  0  0  0  0  0  0  0  0  0  0
    1.5888    2.0035    0.1147 H   0  0  0  0  0  0  0  0  0  0  0  0
    2.0664    0.9534   -1.2478 H   0  0  0  0  0  0  0  0  0  0  0  0
    2.9564   -0.4005    0.4073 H   0  0  0  0  0  0  0  0  0  0  0  0
    2.1675   -2.3999   -0.9347 H   0  0  0  0  0  0  0  0  0  0  0  0
    2.3523   -2.8792    0.7597 H   0  0  0  0  0  0  0  0  0  0  0  0
    2.5517    1.0183    2.0875 H   0  0  0  0  0  0  0  0  0  0  0  0
    0.1882   -3.7050    0.6376 H   0  0  0  0  0  0  0  0  0  0  0  0
  1  2  1  0  0  0  0
  1  3  1  0  0  0  0
  1  4  1  0  0  0  0
  1 13  1  6  0  0  0
  2  5  1  0  0  0  0
  2  6  1  0  0  0  0
  2 14  1  6  0  0  0
  3  7  1  0  0  0  0
  3  8  1  0  0  0  0
  3 15  1  1  0  0  0
  4  9  1  0  0  0  0
  4 16  1  0  0  0  0
  4 17  1  0  0  0  0
  5  7  1  0  0  0  0
  5 18  1  0  0  0  0
  5 19  1  0  0  0  0
  6  9  1  0  0  0  0
  7 20  1  6  0  0  0
  7 10  1  0  0  0  0
  8 11  1  0  0  0  0
  8 21  1  0  0  0  0
  8 22  1  0  0  0  0
  9 12  2  0  0  0  0
 10 23  1  0  0  0  0
 11 24  1  0  0  0  0
M  END
>  <Mol_ID>
2924

>  <Formula>
C8H12O4

>  <MolWeight>
172.17848

>  <Cat>
S5335

>  <Name>
Corey Lactone Diol

>  <Synonyms>
N/A

>  <Target>
Others

>  <Form>
free base

>  <CAS>
32233-40-2

>  <URL>
http://selleckchem.com/products/corey-lactone-diol.html

$$$$
