S5333 Sulbenicillin Sodium.cdx
 OpenBabel08302520013D

 43 45  0  0  0  0  0  0  0  0999 V2000
   -0.8247    0.3599    0.6506 N   0  0  0  0  0  0  0  0  0  0  0  0
   -0.5027   -1.0738    0.5932 C   0  0  1  0  0  0  0  0  0  0  0  0
    0.2132    1.3298    0.2458 C   0  0  2  0  0  0  0  0  0  0  0  0
   -1.9604    0.2230   -0.1018 C   0  0  0  0  0  0  0  0  0  0  0  0
   -1.9145   -1.3102    0.0222 C   0  0  1  0  0  0  0  0  0  0  0  0
    0.9497   -1.1546   -0.5087 S   0  0  0  0  0  0  0  0  0  0  0  0
    1.5233    0.5344    0.0403 C   0  0  0  0  0  0  0  0  0  0  0  0
    0.3033    2.6120    1.1264 C   0  0  0  0  0  0  0  0  0  0  0  0
   -2.6323    1.0118   -0.7270 O   0  0  0  0  0  0  0  0  0  0  0  0
   -2.0672   -2.0689   -1.2356 N   0  0  0  0  0  0  0  0  0  0  0  0
    2.3994    1.1193   -1.0711 C   0  0  0  0  0  0  0  0  0  0  0  0
    2.3719    0.3029    1.2997 C   0  0  0  0  0  0  0  0  0  0  0  0
    1.1875    3.4497    0.7759 O   0  5  0  0  0  0  0  0  0  0  0  0
   -0.5035    2.6955    2.0987 O   0  0  0  0  0  0  0  0  0  0  0  0
   -2.6588   -3.3116   -1.2862 C   0  0  0  0  0  0  0  0  0  0  0  0
   -2.7815   -3.9742   -2.6494 C   0  0  3  0  0  0  0  0  0  0  0  0
   -3.1615   -3.8217   -0.2675 O   0  0  0  0  0  0  0  0  0  0  0  0
   -3.9916   -3.5273   -3.4874 C   0  0  0  0  0  0  0  0  0  0  0  0
   -1.2079   -3.8471   -3.4899 S   0  0  0  0  0  0  0  0  0  0  0  0
   -4.2381   -2.1974   -3.8631 C   0  0  0  0  0  0  0  0  0  0  0  0
   -4.9273   -4.4998   -3.9030 C   0  0  0  0  0  0  0  0  0  0  0  0
   -0.2828   -4.5120   -2.5785 O   0  5  0  0  0  0  0  0  0  0  0  0
   -1.3866   -4.5748   -4.7539 O   0  0  0  0  0  0  0  0  0  0  0  0
   -0.9917   -2.4100   -3.6532 O   0  0  0  0  0  0  0  0  0  0  0  0
   -5.3550   -1.8616   -4.6437 C   0  0  0  0  0  0  0  0  0  0  0  0
   -6.0422   -4.1644   -4.6771 C   0  0  0  0  0  0  0  0  0  0  0  0
   -6.2545   -2.8430   -5.0544 C   0  0  0  0  0  0  0  0  0  0  0  0
   -0.3372   -1.4988    1.5895 H   0  0  0  0  0  0  0  0  0  0  0  0
   -0.0992    1.7076   -0.7405 H   0  0  0  0  0  0  0  0  0  0  0  0
   -2.6303   -1.6585    0.7746 H   0  0  0  0  0  0  0  0  0  0  0  0
   -1.6371   -1.7131   -2.1006 H   0  0  0  0  0  0  0  0  0  0  0  0
    2.7495    2.1219   -0.8053 H   0  0  0  0  0  0  0  0  0  0  0  0
    3.2911    0.5063   -1.2485 H   0  0  0  0  0  0  0  0  0  0  0  0
    1.8553    1.2032   -2.0185 H   0  0  0  0  0  0  0  0  0  0  0  0
    3.1429   -0.4621    1.1282 H   0  0  0  0  0  0  0  0  0  0  0  0
    2.9059    1.2124    1.5932 H   0  0  0  0  0  0  0  0  0  0  0  0
    1.7712   -0.0232    2.1555 H   0  0  0  0  0  0  0  0  0  0  0  0
   -2.8940   -5.0491   -2.4660 H   0  0  0  0  0  0  0  0  0  0  0  0
   -3.5609   -1.3975   -3.5697 H   0  0  0  0  0  0  0  0  0  0  0  0
   -4.7836   -5.5440   -3.6281 H   0  0  0  0  0  0  0  0  0  0  0  0
   -5.5104   -0.8254   -4.9354 H   0  0  0  0  0  0  0  0  0  0  0  0
   -6.7363   -4.9398   -4.9893 H   0  0  0  0  0  0  0  0  0  0  0  0
   -7.1129   -2.5777   -5.6644 H   0  0  0  0  0  0  0  0  0  0  0  0
  1  2  1  0  0  0  0
  1  3  1  0  0  0  0
  1  4  1  0  0  0  0
  2  5  1  0  0  0  0
  2  6  1  0  0  0  0
  2 28  1  1  0  0  0
  3  7  1  0  0  0  0
  3 29  1  6  0  0  0
  3  8  1  0  0  0  0
  4  9  2  0  0  0  0
  4  5  1  0  0  0  0
  5 30  1  1  0  0  0
  5 10  1  0  0  0  0
  6  7  1  0  0  0  0
  7 11  1  0  0  0  0
  7 12  1  0  0  0  0
  8 13  1  0  0  0  0
  8 14  2  0  0  0  0
 10 15  1  0  0  0  0
 10 31  1  0  0  0  0
 11 32  1  0  0  0  0
 11 33  1  0  0  0  0
 11 34  1  0  0  0  0
 12 35  1  0  0  0  0
 12 36  1  0  0  0  0
 12 37  1  0  0  0  0
 15 16  1  0  0  0  0
 15 17  2  0  0  0  0
 16 18  1  0  0  0  0
 16 19  1  0  0  0  0
 16 38  1  0  0  0  0
 18 20  2  0  0  0  0
 18 21  1  0  0  0  0
 19 22  1  0  0  0  0
 19 23  2  0  0  0  0
 19 24  2  0  0  0  0
 20 25  1  0  0  0  0
 20 39  1  0  0  0  0
 21 26  2  0  0  0  0
 21 40  1  0  0  0  0
 25 27  2  0  0  0  0
 25 41  1  0  0  0  0
 26 27  1  0  0  0  0
 26 42  1  0  0  0  0
 27 43  1  0  0  0  0
M  CHG  2  13  -1  22  -1
M  END
>  <Mol_ID>
2923

>  <Formula>
C16H16N2Na2O7S2

>  <MolWeight>
458.41698

>  <Cat>
S5333

>  <Name>
Sulbenicillin Sodium

>  <Synonyms>
Sulfocillin, Sulfobenzylpenicillin

>  <Target>
Antibiotics

>  <Form>
sodium salt

>  <CAS>
28002-18-8

>  <URL>
http://selleckchem.com/products/sulbenicillin-sodium.html

$$$$
