S5342 Dihydrojasmone.cdx
 OpenBabel08302520013D

 30 30  0  0  0  0  0  0  0  0999 V2000
    0.1267    0.8964    0.0196 C   0  0  0  0  0  0  0  0  0  0  0  0
   -0.7132   -0.0084    0.5451 C   0  0  0  0  0  0  0  0  0  0  0  0
    1.2737    0.1206   -0.4978 C   0  0  0  0  0  0  0  0  0  0  0  0
    0.0604    2.3835   -0.0498 C   0  0  0  0  0  0  0  0  0  0  0  0
   -0.2186   -1.4243    0.4780 C   0  0  0  0  0  0  0  0  0  0  0  0
   -2.0507    0.2543    1.1509 C   0  0  0  0  0  0  0  0  0  0  0  0
    1.1527   -1.3372   -0.1771 C   0  0  0  0  0  0  0  0  0  0  0  0
    2.2066    0.6248   -1.1079 O   0  0  0  0  0  0  0  0  0  0  0  0
   -0.6169    2.8787   -1.3286 C   0  0  0  0  0  0  0  0  0  0  0  0
   -0.7152    4.4083   -1.3598 C   0  0  0  0  0  0  0  0  0  0  0  0
   -1.3872    4.8917   -2.6457 C   0  0  0  0  0  0  0  0  0  0  0  0
   -1.4880    6.4082   -2.7014 C   0  0  0  0  0  0  0  0  0  0  0  0
   -0.4765    2.7682    0.8258 H   0  0  0  0  0  0  0  0  0  0  0  0
    1.0730    2.7998    0.0192 H   0  0  0  0  0  0  0  0  0  0  0  0
   -0.1407   -1.8615    1.4795 H   0  0  0  0  0  0  0  0  0  0  0  0
   -0.8952   -2.0498   -0.1142 H   0  0  0  0  0  0  0  0  0  0  0  0
   -2.8232   -0.2915    0.5985 H   0  0  0  0  0  0  0  0  0  0  0  0
   -2.0719   -0.0774    2.1934 H   0  0  0  0  0  0  0  0  0  0  0  0
   -2.3177    1.3147    1.1271 H   0  0  0  0  0  0  0  0  0  0  0  0
    1.1996   -1.9373   -1.0893 H   0  0  0  0  0  0  0  0  0  0  0  0
    1.9475   -1.6331    0.5140 H   0  0  0  0  0  0  0  0  0  0  0  0
   -0.0548    2.5311   -2.2042 H   0  0  0  0  0  0  0  0  0  0  0  0
   -1.6246    2.4512   -1.4035 H   0  0  0  0  0  0  0  0  0  0  0  0
   -1.2880    4.7590   -0.4922 H   0  0  0  0  0  0  0  0  0  0  0  0
    0.2883    4.8453   -1.2814 H   0  0  0  0  0  0  0  0  0  0  0  0
   -0.8203    4.5395   -3.5153 H   0  0  0  0  0  0  0  0  0  0  0  0
   -2.3939    4.4637   -2.7208 H   0  0  0  0  0  0  0  0  0  0  0  0
   -0.4957    6.8688   -2.6767 H   0  0  0  0  0  0  0  0  0  0  0  0
   -1.9830    6.7203   -3.6265 H   0  0  0  0  0  0  0  0  0  0  0  0
   -2.0688    6.7957   -1.8586 H   0  0  0  0  0  0  0  0  0  0  0  0
  1  2  2  0  0  0  0
  1  3  1  0  0  0  0
  1  4  1  0  0  0  0
  2  5  1  0  0  0  0
  2  6  1  0  0  0  0
  3  7  1  0  0  0  0
  3  8  2  0  0  0  0
  4  9  1  0  0  0  0
  4 13  1  0  0  0  0
  4 14  1  0  0  0  0
  5  7  1  0  0  0  0
  5 15  1  0  0  0  0
  5 16  1  0  0  0  0
  6 17  1  0  0  0  0
  6 18  1  0  0  0  0
  6 19  1  0  0  0  0
  7 20  1  0  0  0  0
  7 21  1  0  0  0  0
  9 10  1  0  0  0  0
  9 22  1  0  0  0  0
  9 23  1  0  0  0  0
 10 11  1  0  0  0  0
 10 24  1  0  0  0  0
 10 25  1  0  0  0  0
 11 12  1  0  0  0  0
 11 26  1  0  0  0  0
 11 27  1  0  0  0  0
 12 28  1  0  0  0  0
 12 29  1  0  0  0  0
 12 30  1  0  0  0  0
M  END
>  <Mol_ID>
2927

>  <Formula>
C11H18O

>  <MolWeight>
166.26002

>  <Cat>
S5342

>  <Name>
Dihydrojasmone

>  <Synonyms>
N/A

>  <Target>
Others

>  <Form>
free base

>  <CAS>
1128-08-1

>  <URL>
http://selleckchem.com/products/dihydrojasmone.html

$$$$
