S5347 2-Phenylethylamine.cdx
 OpenBabel08302520013D

 20 20  0  0  0  0  0  0  0  0999 V2000
   -1.1378   -1.6786    0.9532 N   0  0  0  0  0  0  0  0  0  0  0  0
    0.0273   -2.2829    1.6006 C   0  0  0  0  0  0  0  0  0  0  0  0
    1.1335   -1.2770    1.9573 C   0  0  0  0  0  0  0  0  0  0  0  0
    0.7384   -0.1765    2.9148 C   0  0  0  0  0  0  0  0  0  0  0  0
    0.2267   -0.4691    4.1862 C   0  0  0  0  0  0  0  0  0  0  0  0
   -0.0827    0.5581    5.0811 C   0  0  0  0  0  0  0  0  0  0  0  0
    0.1223    1.8879    4.7185 C   0  0  0  0  0  0  0  0  0  0  0  0
    0.6335    2.1920    3.4591 C   0  0  0  0  0  0  0  0  0  0  0  0
    0.9405    1.1671    2.5635 C   0  0  0  0  0  0  0  0  0  0  0  0
   -1.6593   -1.1452    1.6507 H   0  0  0  0  0  0  0  0  0  0  0  0
   -0.8270   -0.9873    0.2711 H   0  0  0  0  0  0  0  0  0  0  0  0
   -0.3069   -2.8280    2.4899 H   0  0  0  0  0  0  0  0  0  0  0  0
    0.4469   -3.0293    0.9163 H   0  0  0  0  0  0  0  0  0  0  0  0
    1.9773   -1.8203    2.4019 H   0  0  0  0  0  0  0  0  0  0  0  0
    1.5170   -0.8371    1.0275 H   0  0  0  0  0  0  0  0  0  0  0  0
    0.0755   -1.5000    4.4978 H   0  0  0  0  0  0  0  0  0  0  0  0
   -0.4740    0.3196    6.0669 H   0  0  0  0  0  0  0  0  0  0  0  0
   -0.1070    2.6857    5.4202 H   0  0  0  0  0  0  0  0  0  0  0  0
    0.8019    3.2290    3.1771 H   0  0  0  0  0  0  0  0  0  0  0  0
    1.3503    1.4266    1.5895 H   0  0  0  0  0  0  0  0  0  0  0  0
  1  2  1  0  0  0  0
  1 10  1  0  0  0  0
  1 11  1  0  0  0  0
  2  3  1  0  0  0  0
  2 12  1  0  0  0  0
  2 13  1  0  0  0  0
  3  4  1  0  0  0  0
  3 14  1  0  0  0  0
  3 15  1  0  0  0  0
  4  5  2  0  0  0  0
  4  9  1  0  0  0  0
  5  6  1  0  0  0  0
  5 16  1  0  0  0  0
  6  7  2  0  0  0  0
  6 17  1  0  0  0  0
  7  8  1  0  0  0  0
  7 18  1  0  0  0  0
  8  9  2  0  0  0  0
  8 19  1  0  0  0  0
  9 20  1  0  0  0  0
M  END
>  <Mol_ID>
2931

>  <Formula>
C8H11N

>  <MolWeight>
121.17964

>  <Cat>
S5347

>  <Name>
2-Phenylethylamine

>  <Synonyms>
¦Â-Phenylethylamine, benzeneethanamine, ¦Â-aminoethylbenzene

>  <Target>
Others

>  <Form>
free base

>  <CAS>
64-04-0

>  <URL>
http://selleckchem.com/products/2-phenylethylamine.html

$$$$
