S5343 Vanillic acid.cdx
 OpenBabel08302520013D

 20 20  0  0  0  0  0  0  0  0999 V2000
    0.8800   -0.0554    0.0320 C   0  0  0  0  0  0  0  0  0  0  0  0
    0.1308   -1.2300    0.0206 C   0  0  0  0  0  0  0  0  0  0  0  0
    0.2078    1.1715    0.0323 C   0  0  0  0  0  0  0  0  0  0  0  0
    2.2482    0.0323    0.0362 O   0  0  0  0  0  0  0  0  0  0  0  0
   -1.2745   -1.1727    0.0096 C   0  0  0  0  0  0  0  0  0  0  0  0
   -1.1812    1.2454    0.0117 C   0  0  0  0  0  0  0  0  0  0  0  0
    0.9128    2.3428    0.0415 O   0  0  0  0  0  0  0  0  0  0  0  0
    2.9655   -1.1986    0.0263 C   0  0  0  0  0  0  0  0  0  0  0  0
   -1.9296    0.0674   -0.0085 C   0  0  0  0  0  0  0  0  0  0  0  0
   -2.0107   -2.4623   -0.0362 C   0  0  0  0  0  0  0  0  0  0  0  0
   -3.2298   -2.4337    0.5381 O   0  0  0  0  0  0  0  0  0  0  0  0
   -1.5304   -3.4735   -0.5214 O   0  0  0  0  0  0  0  0  0  0  0  0
    0.6067   -2.2068    0.0112 H   0  0  0  0  0  0  0  0  0  0  0  0
   -1.6706    2.2140   -0.0065 H   0  0  0  0  0  0  0  0  0  0  0  0
    1.8537    2.0753    0.0339 H   0  0  0  0  0  0  0  0  0  0  0  0
    2.7617   -1.7775    0.9329 H   0  0  0  0  0  0  0  0  0  0  0  0
    2.7431   -1.7800   -0.8743 H   0  0  0  0  0  0  0  0  0  0  0  0
    4.0337   -0.9623    0.0142 H   0  0  0  0  0  0  0  0  0  0  0  0
   -3.0113    0.1416   -0.0752 H   0  0  0  0  0  0  0  0  0  0  0  0
   -3.4365   -1.6290    1.0456 H   0  0  0  0  0  0  0  0  0  0  0  0
  1  2  2  0  0  0  0
  1  3  1  0  0  0  0
  1  4  1  0  0  0  0
  2  5  1  0  0  0  0
  2 13  1  0  0  0  0
  3  6  2  0  0  0  0
  3  7  1  0  0  0  0
  4  8  1  0  0  0  0
  5  9  2  0  0  0  0
  5 10  1  0  0  0  0
  6  9  1  0  0  0  0
  6 14  1  0  0  0  0
  7 15  1  0  0  0  0
  8 16  1  0  0  0  0
  8 17  1  0  0  0  0
  8 18  1  0  0  0  0
  9 19  1  0  0  0  0
 10 11  1  0  0  0  0
 10 12  2  0  0  0  0
 11 20  1  0  0  0  0
M  END
>  <Mol_ID>
2928

>  <Formula>
C8H8O4

>  <MolWeight>
168.14672

>  <Cat>
S5343

>  <Name>
Vanillic acid

>  <Synonyms>
4-hydroxy-3-methoxybenzoic acid

>  <Target>
NF-¦ÊB

>  <Form>
free base

>  <CAS>
121-34-6

>  <URL>
http://selleckchem.com/products/vanillic-acid.html

$$$$
