S5349 Ethyl chrysanthemumate.cdx
 OpenBabel08302520013D

 34 34  0  0  0  0  0  0  0  0999 V2000
   -1.1612    0.1591    0.8084 C   0  0  3  0  0  0  0  0  0  0  0  0
   -1.2343   -0.1136   -0.6733 C   0  0  3  0  0  0  0  0  0  0  0  0
    0.1266    0.0314    0.0079 C   0  0  0  0  0  0  0  0  0  0  0  0
   -1.5759   -0.8649    1.7773 C   0  0  0  0  0  0  0  0  0  0  0  0
   -1.7561    0.9193   -1.6123 C   0  0  0  0  0  0  0  0  0  0  0  0
    0.9810   -1.2153    0.0273 C   0  0  0  0  0  0  0  0  0  0  0  0
    0.9377    1.3006   -0.1341 C   0  0  0  0  0  0  0  0  0  0  0  0
   -1.0850   -1.0224    3.0240 C   0  0  0  0  0  0  0  0  0  0  0  0
   -2.1770    0.3579   -2.7803 O   0  0  0  0  0  0  0  0  0  0  0  0
   -1.7791    2.1107   -1.3485 O   0  0  0  0  0  0  0  0  0  0  0  0
   -1.6560   -2.0239    3.9878 C   0  0  0  0  0  0  0  0  0  0  0  0
    0.0454   -0.1814    3.5497 C   0  0  0  0  0  0  0  0  0  0  0  0
   -2.6408    1.2743   -3.7863 C   0  0  0  0  0  0  0  0  0  0  0  0
   -4.0983    1.6388   -3.5651 C   0  0  0  0  0  0  0  0  0  0  0  0
   -1.4596    1.1585    1.1218 H   0  0  0  0  0  0  0  0  0  0  0  0
   -1.5150   -1.1222   -0.9696 H   0  0  0  0  0  0  0  0  0  0  0  0
   -2.4061   -1.4985    1.4684 H   0  0  0  0  0  0  0  0  0  0  0  0
    0.4161   -2.1161    0.2857 H   0  0  0  0  0  0  0  0  0  0  0  0
    1.4240   -1.3737   -0.9625 H   0  0  0  0  0  0  0  0  0  0  0  0
    1.8011   -1.1164    0.7465 H   0  0  0  0  0  0  0  0  0  0  0  0
    1.2219    1.4625   -1.1780 H   0  0  0  0  0  0  0  0  0  0  0  0
    0.3938    2.1829    0.2191 H   0  0  0  0  0  0  0  0  0  0  0  0
    1.8549    1.2391    0.4628 H   0  0  0  0  0  0  0  0  0  0  0  0
   -0.8903   -2.7473    4.2855 H   0  0  0  0  0  0  0  0  0  0  0  0
   -2.0195   -1.5153    4.8862 H   0  0  0  0  0  0  0  0  0  0  0  0
   -2.4979   -2.5796    3.5616 H   0  0  0  0  0  0  0  0  0  0  0  0
    0.9403   -0.3022    2.9320 H   0  0  0  0  0  0  0  0  0  0  0  0
   -0.2350    0.8761    3.5739 H   0  0  0  0  0  0  0  0  0  0  0  0
    0.3180   -0.4747    4.5688 H   0  0  0  0  0  0  0  0  0  0  0  0
   -2.0080    2.1686   -3.8286 H   0  0  0  0  0  0  0  0  0  0  0  0
   -2.5399    0.7671   -4.7528 H   0  0  0  0  0  0  0  0  0  0  0  0
   -4.2451    2.1199   -2.5932 H   0  0  0  0  0  0  0  0  0  0  0  0
   -4.4503    2.3205   -4.3463 H   0  0  0  0  0  0  0  0  0  0  0  0
   -4.7259    0.7419   -3.5767 H   0  0  0  0  0  0  0  0  0  0  0  0
  1  2  1  0  0  0  0
  1  3  1  0  0  0  0
  1  4  1  0  0  0  0
  1 15  1  0  0  0  0
  2  5  1  0  0  0  0
  2  3  1  0  0  0  0
  2 16  1  0  0  0  0
  3  6  1  0  0  0  0
  3  7  1  0  0  0  0
  4  8  2  0  0  0  0
  4 17  1  0  0  0  0
  5  9  1  0  0  0  0
  5 10  2  0  0  0  0
  6 18  1  0  0  0  0
  6 19  1  0  0  0  0
  6 20  1  0  0  0  0
  7 21  1  0  0  0  0
  7 22  1  0  0  0  0
  7 23  1  0  0  0  0
  8 11  1  0  0  0  0
  8 12  1  0  0  0  0
  9 13  1  0  0  0  0
 11 24  1  0  0  0  0
 11 25  1  0  0  0  0
 11 26  1  0  0  0  0
 12 27  1  0  0  0  0
 12 28  1  0  0  0  0
 12 29  1  0  0  0  0
 13 14  1  0  0  0  0
 13 30  1  0  0  0  0
 13 31  1  0  0  0  0
 14 32  1  0  0  0  0
 14 33  1  0  0  0  0
 14 34  1  0  0  0  0
M  END
>  <Mol_ID>
2970

>  <Formula>
C12H20O2

>  <MolWeight>
196.286

>  <Cat>
S5349

>  <Name>
Ethyl chrysanthemumate

>  <Synonyms>
Chrysanthemic acid ethyl ester

>  <Target>
Others

>  <Form>
Esters

>  <CAS>
97-41-6

>  <URL>
http://selleckchem.com/products/ethyl-chrysanthemumate.html

$$$$
