S5344 1,4-Diaminobutane dihydrochloride.cdx
 OpenBabel08302521383D

 18 17  0  0  0  0  0  0  0  0999 V2000
    0.9240   -0.0492    0.0605 C   0  0  0  0  0  0  0  0  0  0  0  0
    0.4151   -1.2368   -0.7663 C   0  0  0  0  0  0  0  0  0  0  0  0
    0.4076   -0.0411    1.5003 C   0  0  0  0  0  0  0  0  0  0  0  0
   -1.1030   -1.2452   -0.9395 C   0  0  0  0  0  0  0  0  0  0  0  0
    0.9671    1.0909    2.2321 N   0  0  0  0  0  0  0  0  0  0  0  0
   -1.5143   -2.3610   -1.7851 N   0  0  0  0  0  0  0  0  0  0  0  0
    0.6463    0.8860   -0.4417 H   0  0  0  0  0  0  0  0  0  0  0  0
    2.0214   -0.0881    0.0696 H   0  0  0  0  0  0  0  0  0  0  0  0
    0.8971   -1.1987   -1.7515 H   0  0  0  0  0  0  0  0  0  0  0  0
    0.7397   -2.1723   -0.2929 H   0  0  0  0  0  0  0  0  0  0  0  0
   -0.6829    0.0478    1.5201 H   0  0  0  0  0  0  0  0  0  0  0  0
    0.6793   -0.9725    2.0078 H   0  0  0  0  0  0  0  0  0  0  0  0
   -1.5924   -1.3583    0.0318 H   0  0  0  0  0  0  0  0  0  0  0  0
   -1.4486   -0.3041   -1.3819 H   0  0  0  0  0  0  0  0  0  0  0  0
    0.6419    1.0630    3.1979 H   0  0  0  0  0  0  0  0  0  0  0  0
    1.9860    1.0045    2.2721 H   0  0  0  0  0  0  0  0  0  0  0  0
   -2.5189   -2.5046   -1.6894 H   0  0  0  0  0  0  0  0  0  0  0  0
   -1.3619   -2.1174   -2.7636 H   0  0  0  0  0  0  0  0  0  0  0  0
  1  2  1  0  0  0  0
  1  3  1  0  0  0  0
  1  7  1  0  0  0  0
  1  8  1  0  0  0  0
  2  4  1  0  0  0  0
  2  9  1  0  0  0  0
  2 10  1  0  0  0  0
  3  5  1  0  0  0  0
  3 11  1  0  0  0  0
  3 12  1  0  0  0  0
  4  6  1  0  0  0  0
  4 13  1  0  0  0  0
  4 14  1  0  0  0  0
  5 15  1  0  0  0  0
  5 16  1  0  0  0  0
  6 17  1  0  0  0  0
  6 18  1  0  0  0  0
M  END
>  <Mol_ID>
7823

>  <Formula>
C4H14Cl2N2

>  <MolWeight>
161.07336

>  <Cat>
S5344

>  <Name>
1,4-Diaminobutane dihydrochloride

>  <Synonyms>
Putrescine dihydrochloride, Tetramethylenediamine dihydrochloride, 1,4-Butanediamine dihydrochloride

>  <Target>
Others

>  <Form>
dihydrochloride

>  <CAS>
333-93-7

>  <URL>
http://selleckchem.com/products/1-4-diaminobutane-dihydrochloride.html

$$$$
