S5345 Nerolidol.cdx
 OpenBabel08302520013D

 42 41  0  0  0  0  0  0  0  0999 V2000
    3.1302    1.1006   -1.7347 C   0  0  3  0  0  0  0  0  0  0  0  0
    2.5191   -0.3159   -1.7905 C   0  0  0  0  0  0  0  0  0  0  0  0
    4.5246    1.1526   -1.1422 C   0  0  0  0  0  0  0  0  0  0  0  0
    2.2302    2.0768   -0.9649 C   0  0  0  0  0  0  0  0  0  0  0  0
    3.2530    1.5968   -3.0683 O   0  0  0  0  0  0  0  0  0  0  0  0
    1.1176   -0.3769   -2.4168 C   0  0  0  0  0  0  0  0  0  0  0  0
    5.2578    0.1389   -0.6592 C   0  0  0  0  0  0  0  0  0  0  0  0
    0.5578   -1.7701   -2.3268 C   0  0  0  0  0  0  0  0  0  0  0  0
   -0.2246   -2.4010   -3.2231 C   0  0  0  0  0  0  0  0  0  0  0  0
   -0.8191   -3.7800   -2.9825 C   0  0  0  0  0  0  0  0  0  0  0  0
   -0.6310   -1.7671   -4.5310 C   0  0  0  0  0  0  0  0  0  0  0  0
   -0.4769   -4.4515   -1.6410 C   0  0  0  0  0  0  0  0  0  0  0  0
   -1.1360   -5.7965   -1.5192 C   0  0  0  0  0  0  0  0  0  0  0  0
   -0.5176   -6.9685   -1.2797 C   0  0  0  0  0  0  0  0  0  0  0  0
   -1.2946   -8.2529   -1.2297 C   0  0  0  0  0  0  0  0  0  0  0  0
    0.9640   -7.0903   -1.0537 C   0  0  0  0  0  0  0  0  0  0  0  0
    3.1743   -0.9730   -2.3800 H   0  0  0  0  0  0  0  0  0  0  0  0
    2.4767   -0.7315   -0.7742 H   0  0  0  0  0  0  0  0  0  0  0  0
    4.9704    2.1475   -1.1140 H   0  0  0  0  0  0  0  0  0  0  0  0
    2.6905    3.0695   -0.8928 H   0  0  0  0  0  0  0  0  0  0  0  0
    1.2792    2.2402   -1.4840 H   0  0  0  0  0  0  0  0  0  0  0  0
    2.0221    1.7205    0.0485 H   0  0  0  0  0  0  0  0  0  0  0  0
    3.9139    1.0403   -3.5159 H   0  0  0  0  0  0  0  0  0  0  0  0
    0.4314    0.2674   -1.8587 H   0  0  0  0  0  0  0  0  0  0  0  0
    1.1549   -0.0131   -3.4477 H   0  0  0  0  0  0  0  0  0  0  0  0
    6.2503    0.3226   -0.2577 H   0  0  0  0  0  0  0  0  0  0  0  0
    4.9071   -0.8873   -0.6424 H   0  0  0  0  0  0  0  0  0  0  0  0
    0.7954   -2.2681   -1.3898 H   0  0  0  0  0  0  0  0  0  0  0  0
   -1.9115   -3.6892   -3.0580 H   0  0  0  0  0  0  0  0  0  0  0  0
   -0.4978   -4.4405   -3.7990 H   0  0  0  0  0  0  0  0  0  0  0  0
   -1.4225   -1.0292   -4.3650 H   0  0  0  0  0  0  0  0  0  0  0  0
    0.2158   -1.2816   -5.0258 H   0  0  0  0  0  0  0  0  0  0  0  0
   -1.0133   -2.5164   -5.2330 H   0  0  0  0  0  0  0  0  0  0  0  0
    0.6109   -4.5381   -1.5447 H   0  0  0  0  0  0  0  0  0  0  0  0
   -0.8273   -3.8275   -0.8094 H   0  0  0  0  0  0  0  0  0  0  0  0
   -2.2187   -5.7876   -1.6396 H   0  0  0  0  0  0  0  0  0  0  0  0
   -0.8980   -8.9583   -1.9671 H   0  0  0  0  0  0  0  0  0  0  0  0
   -1.2227   -8.7045   -0.2356 H   0  0  0  0  0  0  0  0  0  0  0  0
   -2.3554   -8.1018   -1.4558 H   0  0  0  0  0  0  0  0  0  0  0  0
    1.5202   -6.7706   -1.9405 H   0  0  0  0  0  0  0  0  0  0  0  0
    1.2774   -6.4875   -0.1943 H   0  0  0  0  0  0  0  0  0  0  0  0
    1.2504   -8.1262   -0.8435 H   0  0  0  0  0  0  0  0  0  0  0  0
  1  2  1  0  0  0  0
  1  3  1  0  0  0  0
  1  4  1  0  0  0  0
  1  5  1  0  0  0  0
  2  6  1  0  0  0  0
  2 17  1  0  0  0  0
  2 18  1  0  0  0  0
  3  7  2  0  0  0  0
  3 19  1  0  0  0  0
  4 20  1  0  0  0  0
  4 21  1  0  0  0  0
  4 22  1  0  0  0  0
  5 23  1  0  0  0  0
  6  8  1  0  0  0  0
  6 24  1  0  0  0  0
  6 25  1  0  0  0  0
  7 26  1  0  0  0  0
  7 27  1  0  0  0  0
  8  9  2  0  0  0  0
  8 28  1  0  0  0  0
  9 10  1  0  0  0  0
  9 11  1  0  0  0  0
 10 12  1  0  0  0  0
 10 29  1  0  0  0  0
 10 30  1  0  0  0  0
 11 31  1  0  0  0  0
 11 32  1  0  0  0  0
 11 33  1  0  0  0  0
 12 13  1  0  0  0  0
 12 34  1  0  0  0  0
 12 35  1  0  0  0  0
 13 14  2  0  0  0  0
 13 36  1  0  0  0  0
 14 15  1  0  0  0  0
 14 16  1  0  0  0  0
 15 37  1  0  0  0  0
 15 38  1  0  0  0  0
 15 39  1  0  0  0  0
 16 40  1  0  0  0  0
 16 41  1  0  0  0  0
 16 42  1  0  0  0  0
M  END
>  <Mol_ID>
2929

>  <Formula>
C15H26O

>  <MolWeight>
222.36634

>  <Cat>
S5345

>  <Name>
Nerolidol

>  <Synonyms>
Peruviol

>  <Target>
Parasite

>  <Form>
free base

>  <CAS>
7212-44-4

>  <URL>
http://selleckchem.com/products/nerolidol.html

$$$$
