S5348 4-(4-Acetoxyphenyl)-2-butanone.cdx
 OpenBabel08302520013D

 29 29  0  0  0  0  0  0  0  0999 V2000
    1.2906   -0.4194   -0.2155 C   0  0  0  0  0  0  0  0  0  0  0  0
    0.3153   -1.3997   -0.3437 C   0  0  0  0  0  0  0  0  0  0  0  0
    0.9239    0.9248   -0.1352 C   0  0  0  0  0  0  0  0  0  0  0  0
    2.6821   -0.6742   -0.1404 O   0  0  0  0  0  0  0  0  0  0  0  0
   -1.0356   -1.0352   -0.3626 C   0  0  0  0  0  0  0  0  0  0  0  0
   -0.4286    1.2838   -0.1486 C   0  0  0  0  0  0  0  0  0  0  0  0
    3.2918   -1.9327   -0.1503 C   0  0  0  0  0  0  0  0  0  0  0  0
   -1.4305    0.3045   -0.2335 C   0  0  0  0  0  0  0  0  0  0  0  0
    4.7691   -1.7585    0.0575 C   0  0  0  0  0  0  0  0  0  0  0  0
    2.7470   -3.0225   -0.2526 O   0  0  0  0  0  0  0  0  0  0  0  0
   -2.8872    0.7260   -0.2411 C   0  0  0  0  0  0  0  0  0  0  0  0
   -3.8479   -0.2840    0.3918 C   0  0  0  0  0  0  0  0  0  0  0  0
   -5.2806    0.2101    0.4334 C   0  0  0  0  0  0  0  0  0  0  0  0
   -6.2994   -0.7476    0.9997 C   0  0  0  0  0  0  0  0  0  0  0  0
   -5.6219    1.3036   -0.0146 O   0  0  0  0  0  0  0  0  0  0  0  0
    0.5605   -2.4521   -0.4304 H   0  0  0  0  0  0  0  0  0  0  0  0
    1.6855    1.6959   -0.0564 H   0  0  0  0  0  0  0  0  0  0  0  0
   -1.7685   -1.8292   -0.4748 H   0  0  0  0  0  0  0  0  0  0  0  0
   -0.6947    2.3376   -0.0858 H   0  0  0  0  0  0  0  0  0  0  0  0
    4.9772   -1.6481    1.1245 H   0  0  0  0  0  0  0  0  0  0  0  0
    5.2912   -2.6400   -0.3270 H   0  0  0  0  0  0  0  0  0  0  0  0
    5.1340   -0.8878   -0.4934 H   0  0  0  0  0  0  0  0  0  0  0  0
   -2.9815    1.6771    0.3005 H   0  0  0  0  0  0  0  0  0  0  0  0
   -3.1827    0.9242   -1.2788 H   0  0  0  0  0  0  0  0  0  0  0  0
   -3.8548   -1.2200   -0.1764 H   0  0  0  0  0  0  0  0  0  0  0  0
   -3.5384   -0.5012    1.4208 H   0  0  0  0  0  0  0  0  0  0  0  0
   -7.0939   -0.1862    1.4980 H   0  0  0  0  0  0  0  0  0  0  0  0
   -6.7180   -1.3522    0.1914 H   0  0  0  0  0  0  0  0  0  0  0  0
   -5.8304   -1.4029    1.7389 H   0  0  0  0  0  0  0  0  0  0  0  0
  1  2  2  0  0  0  0
  1  3  1  0  0  0  0
  1  4  1  0  0  0  0
  2  5  1  0  0  0  0
  2 16  1  0  0  0  0
  3  6  2  0  0  0  0
  3 17  1  0  0  0  0
  4  7  1  0  0  0  0
  5  8  2  0  0  0  0
  5 18  1  0  0  0  0
  6  8  1  0  0  0  0
  6 19  1  0  0  0  0
  7  9  1  0  0  0  0
  7 10  2  0  0  0  0
  8 11  1  0  0  0  0
  9 20  1  0  0  0  0
  9 21  1  0  0  0  0
  9 22  1  0  0  0  0
 11 12  1  0  0  0  0
 11 23  1  0  0  0  0
 11 24  1  0  0  0  0
 12 13  1  0  0  0  0
 12 25  1  0  0  0  0
 12 26  1  0  0  0  0
 13 14  1  0  0  0  0
 13 15  2  0  0  0  0
 14 27  1  0  0  0  0
 14 28  1  0  0  0  0
 14 29  1  0  0  0  0
M  END
>  <Mol_ID>
2932

>  <Formula>
C12H14O3

>  <MolWeight>
206.23776

>  <Cat>
S5348

>  <Name>
Pherocon (4-(4-Acetoxyphenyl)-2-butanone)

>  <Synonyms>
4-(p-Acetoxyphenyl)-2-butanone, 4--(3-Oxobutyl)phenyl acetate

>  <Target>
Others

>  <Form>
free base

>  <CAS>
3572-06-3

>  <URL>
http://selleckchem.com/products/pherocon-4-4-acetoxyphenyl-2-butanone.html

$$$$
