S5357 Safinamide.cdx
 OpenBabel08302520013D

 41 42  0  0  0  0  0  0  0  0999 V2000
   -7.8412   -3.8273   -1.2941 C   0  0  0  0  0  0  0  0  0  0  0  0
   -8.5229   -4.9769   -1.5961 O   0  0  0  0  0  0  0  0  0  0  0  0
   -8.4798   -2.6363   -1.6416 C   0  0  0  0  0  0  0  0  0  0  0  0
   -6.5844   -3.7817   -0.6907 C   0  0  0  0  0  0  0  0  0  0  0  0
   -7.7140   -6.1544   -1.6594 C   0  0  0  0  0  0  0  0  0  0  0  0
   -7.8393   -1.4091   -1.4482 C   0  0  0  0  0  0  0  0  0  0  0  0
   -5.9446   -2.5594   -0.4960 C   0  0  0  0  0  0  0  0  0  0  0  0
   -8.3941   -7.2805   -2.4009 C   0  0  0  0  0  0  0  0  0  0  0  0
   -6.5564   -1.3618   -0.8855 C   0  0  0  0  0  0  0  0  0  0  0  0
   -7.6539   -8.4440   -2.6693 C   0  0  0  0  0  0  0  0  0  0  0  0
   -9.7251   -7.2123   -2.8363 C   0  0  0  0  0  0  0  0  0  0  0  0
   -5.7962   -0.0653   -0.7484 C   0  0  0  0  0  0  0  0  0  0  0  0
   -8.2337   -9.4952   -3.3682 C   0  0  0  0  0  0  0  0  0  0  0  0
  -10.2977   -8.2762   -3.5376 C   0  0  0  0  0  0  0  0  0  0  0  0
   -6.4510    0.8624    0.1780 N   0  0  0  0  0  0  0  0  0  0  0  0
   -9.5486   -9.4207   -3.8074 C   0  0  0  0  0  0  0  0  0  0  0  0
   -7.5100  -10.5926   -3.6257 F   0  0  0  0  0  0  0  0  0  0  0  0
   -5.6959    2.1291    0.3415 C   0  0  2  0  0  0  0  0  0  0  0  0
   -5.5834    2.8750   -1.0038 C   0  0  0  0  0  0  0  0  0  0  0  0
   -4.3323    1.9235    1.0002 C   0  0  0  0  0  0  0  0  0  0  0  0
   -6.7820    3.2013   -1.5829 N   0  0  0  0  0  0  0  0  0  0  0  0
   -4.5295    3.1450   -1.5669 O   0  0  0  0  0  0  0  0  0  0  0  0
   -9.4687   -2.6642   -2.0921 H   0  0  0  0  0  0  0  0  0  0  0  0
   -6.0659   -4.6786   -0.3702 H   0  0  0  0  0  0  0  0  0  0  0  0
   -6.7811   -5.9400   -2.1981 H   0  0  0  0  0  0  0  0  0  0  0  0
   -7.4965   -6.4931   -0.6392 H   0  0  0  0  0  0  0  0  0  0  0  0
   -8.3397   -0.4960   -1.7594 H   0  0  0  0  0  0  0  0  0  0  0  0
   -4.9514   -2.5506   -0.0521 H   0  0  0  0  0  0  0  0  0  0  0  0
   -6.6209   -8.5362   -2.3454 H   0  0  0  0  0  0  0  0  0  0  0  0
  -10.3255   -6.3253   -2.6379 H   0  0  0  0  0  0  0  0  0  0  0  0
   -4.7891   -0.3022   -0.3912 H   0  0  0  0  0  0  0  0  0  0  0  0
   -5.6878    0.3647   -1.7507 H   0  0  0  0  0  0  0  0  0  0  0  0
  -11.3279   -8.2083   -3.8786 H   0  0  0  0  0  0  0  0  0  0  0  0
   -7.3729    1.0773   -0.1946 H   0  0  0  0  0  0  0  0  0  0  0  0
   -9.9785  -10.2504   -4.3580 H   0  0  0  0  0  0  0  0  0  0  0  0
   -6.2830    2.7741    1.0075 H   0  0  0  0  0  0  0  0  0  0  0  0
   -3.8380    2.8866    1.1664 H   0  0  0  0  0  0  0  0  0  0  0  0
   -4.4388    1.4272    1.9709 H   0  0  0  0  0  0  0  0  0  0  0  0
   -3.6514    1.3281    0.3833 H   0  0  0  0  0  0  0  0  0  0  0  0
   -6.7366    3.7368   -2.4406 H   0  0  0  0  0  0  0  0  0  0  0  0
   -7.6397    3.2238   -1.0504 H   0  0  0  0  0  0  0  0  0  0  0  0
  1  2  1  0  0  0  0
  1  3  2  0  0  0  0
  1  4  1  0  0  0  0
  2  5  1  0  0  0  0
  3  6  1  0  0  0  0
  3 23  1  0  0  0  0
  4  7  2  0  0  0  0
  4 24  1  0  0  0  0
  5  8  1  0  0  0  0
  5 25  1  0  0  0  0
  5 26  1  0  0  0  0
  6  9  2  0  0  0  0
  6 27  1  0  0  0  0
  7  9  1  0  0  0  0
  7 28  1  0  0  0  0
  8 10  2  0  0  0  0
  8 11  1  0  0  0  0
  9 12  1  0  0  0  0
 10 13  1  0  0  0  0
 10 29  1  0  0  0  0
 11 14  2  0  0  0  0
 11 30  1  0  0  0  0
 12 15  1  0  0  0  0
 12 31  1  0  0  0  0
 12 32  1  0  0  0  0
 13 16  2  0  0  0  0
 13 17  1  0  0  0  0
 14 16  1  0  0  0  0
 14 33  1  0  0  0  0
 15 34  1  0  0  0  0
 16 35  1  0  0  0  0
 18 20  1  0  0  0  0
 18 36  1  1  0  0  0
 18 19  1  0  0  0  0
 18 15  1  0  0  0  0
 19 21  1  0  0  0  0
 19 22  2  0  0  0  0
 20 37  1  0  0  0  0
 20 38  1  0  0  0  0
 20 39  1  0  0  0  0
 21 40  1  0  0  0  0
 21 41  1  0  0  0  0
M  END
>  <Mol_ID>
3105

>  <Formula>
C17H19FN2O2

>  <MolWeight>
302.3433632

>  <Cat>
S5357

>  <Name>
Safinamide

>  <Synonyms>
EMD-1195686, PNU-15774E

>  <Target>
MAO

>  <Form>
free base

>  <CAS>
133865-89-1

>  <URL>
http://selleckchem.com/products/safinamide.html

$$$$
