S5364 DY131.cdx
 OpenBabel08302520013D

 44 45  0  0  0  0  0  0  0  0999 V2000
    1.3747   -0.1957    0.0390 C   0  0  0  0  0  0  0  0  0  0  0  0
    2.7286   -0.4452    0.2447 N   0  0  0  0  0  0  0  0  0  0  0  0
    0.4461   -1.2394   -0.1141 C   0  0  0  0  0  0  0  0  0  0  0  0
    0.8444    1.1062    0.0431 C   0  0  0  0  0  0  0  0  0  0  0  0
    3.7692    0.4724   -0.2356 C   0  0  0  0  0  0  0  0  0  0  0  0
    3.1872   -1.7354    0.7857 C   0  0  0  0  0  0  0  0  0  0  0  0
   -0.9314   -1.0123   -0.2068 C   0  0  0  0  0  0  0  0  0  0  0  0
   -0.5372    1.3526   -0.0529 C   0  0  0  0  0  0  0  0  0  0  0  0
    4.1824    0.1441   -1.6637 C   0  0  0  0  0  0  0  0  0  0  0  0
    2.6882   -1.9511    2.2111 C   0  0  0  0  0  0  0  0  0  0  0  0
   -1.4257    0.2864   -0.1634 C   0  0  0  0  0  0  0  0  0  0  0  0
   -2.8847    0.5380   -0.1983 C   0  0  0  0  0  0  0  0  0  0  0  0
   -3.7322   -0.4414   -0.2489 N   0  0  0  0  0  0  0  0  0  0  0  0
   -5.0756   -0.1670   -0.2890 N   0  0  0  0  0  0  0  0  0  0  0  0
   -5.6664    0.9691   -0.8286 C   0  0  0  0  0  0  0  0  0  0  0  0
   -7.1606    1.0125   -0.7642 C   0  0  0  0  0  0  0  0  0  0  0  0
   -5.0757    1.9069   -1.3519 O   0  0  0  0  0  0  0  0  0  0  0  0
   -7.8989    0.3199    0.2083 C   0  0  0  0  0  0  0  0  0  0  0  0
   -7.8328    1.8440   -1.6727 C   0  0  0  0  0  0  0  0  0  0  0  0
   -9.2908    0.4645    0.2701 C   0  0  0  0  0  0  0  0  0  0  0  0
   -9.2194    1.9868   -1.6081 C   0  0  0  0  0  0  0  0  0  0  0  0
   -9.9362    1.3013   -0.6356 C   0  0  0  0  0  0  0  0  0  0  0  0
  -11.2852    1.4914   -0.5947 O   0  0  0  0  0  0  0  0  0  0  0  0
    0.7748   -2.2724   -0.1559 H   0  0  0  0  0  0  0  0  0  0  0  0
    1.4912    1.9669    0.1838 H   0  0  0  0  0  0  0  0  0  0  0  0
    3.4714    1.5229   -0.1770 H   0  0  0  0  0  0  0  0  0  0  0  0
    4.6504    0.3916    0.4136 H   0  0  0  0  0  0  0  0  0  0  0  0
    2.8969   -2.5674    0.1348 H   0  0  0  0  0  0  0  0  0  0  0  0
    4.2835   -1.7603    0.8167 H   0  0  0  0  0  0  0  0  0  0  0  0
   -1.6077   -1.8585   -0.2946 H   0  0  0  0  0  0  0  0  0  0  0  0
   -0.8973    2.3776   -0.0119 H   0  0  0  0  0  0  0  0  0  0  0  0
    3.3658    0.3372   -2.3659 H   0  0  0  0  0  0  0  0  0  0  0  0
    5.0360    0.7638   -1.9595 H   0  0  0  0  0  0  0  0  0  0  0  0
    4.4766   -0.9057   -1.7676 H   0  0  0  0  0  0  0  0  0  0  0  0
    1.5996   -2.0508    2.2570 H   0  0  0  0  0  0  0  0  0  0  0  0
    3.1179   -2.8670    2.6279 H   0  0  0  0  0  0  0  0  0  0  0  0
    2.9711   -1.1129    2.8563 H   0  0  0  0  0  0  0  0  0  0  0  0
   -3.1835    1.5962   -0.1388 H   0  0  0  0  0  0  0  0  0  0  0  0
   -5.6481   -0.9925   -0.1549 H   0  0  0  0  0  0  0  0  0  0  0  0
   -7.4115   -0.3039    0.9521 H   0  0  0  0  0  0  0  0  0  0  0  0
   -7.2744    2.3954   -2.4268 H   0  0  0  0  0  0  0  0  0  0  0  0
   -9.8471   -0.0628    1.0392 H   0  0  0  0  0  0  0  0  0  0  0  0
   -9.7331    2.6446   -2.3036 H   0  0  0  0  0  0  0  0  0  0  0  0
  -11.6544    0.9854    0.1471 H   0  0  0  0  0  0  0  0  0  0  0  0
  1  2  1  0  0  0  0
  1  3  2  0  0  0  0
  1  4  1  0  0  0  0
  2  5  1  0  0  0  0
  2  6  1  0  0  0  0
  3  7  1  0  0  0  0
  3 24  1  0  0  0  0
  4  8  2  0  0  0  0
  4 25  1  0  0  0  0
  5  9  1  0  0  0  0
  5 26  1  0  0  0  0
  5 27  1  0  0  0  0
  6 10  1  0  0  0  0
  6 28  1  0  0  0  0
  6 29  1  0  0  0  0
  7 11  2  0  0  0  0
  7 30  1  0  0  0  0
  8 11  1  0  0  0  0
  8 31  1  0  0  0  0
  9 32  1  0  0  0  0
  9 33  1  0  0  0  0
  9 34  1  0  0  0  0
 10 35  1  0  0  0  0
 10 36  1  0  0  0  0
 10 37  1  0  0  0  0
 11 12  1  0  0  0  0
 12 13  2  0  0  0  0
 12 38  1  0  0  0  0
 13 14  1  0  0  0  0
 14 15  1  0  0  0  0
 14 39  1  0  0  0  0
 15 16  1  0  0  0  0
 15 17  2  0  0  0  0
 16 18  2  0  0  0  0
 16 19  1  0  0  0  0
 18 20  1  0  0  0  0
 18 40  1  0  0  0  0
 19 21  2  0  0  0  0
 19 41  1  0  0  0  0
 20 22  2  0  0  0  0
 20 42  1  0  0  0  0
 21 22  1  0  0  0  0
 21 43  1  0  0  0  0
 22 23  1  0  0  0  0
 23 44  1  0  0  0  0
M  END
>  <Mol_ID>
2986

>  <Formula>
C18H21N3O2

>  <MolWeight>
311.37824

>  <Cat>
S5364

>  <Name>
DY131

>  <Synonyms>
N/A

>  <Target>
Estrogen/progestogen Receptor

>  <Form>
free base

>  <CAS>
95167-41-2

>  <URL>
http://selleckchem.com/products/dy131.html

$$$$
