S5363 Pikamilone.cdx
 OpenBabel08302520013D

 27 27  0  0  0  0  0  0  0  0999 V2000
    0.6238    1.3179   -0.0356 C   0  0  0  0  0  0  0  0  0  0  0  0
    1.3975    2.5812    0.0023 C   0  0  0  0  0  0  0  0  0  0  0  0
   -0.6258    1.2182   -0.6526 C   0  0  0  0  0  0  0  0  0  0  0  0
    1.1649    0.1694    0.5288 C   0  0  0  0  0  0  0  0  0  0  0  0
    0.6576    3.7463    0.0426 N   0  0  0  0  0  0  0  0  0  0  0  0
    2.6221    2.5576    0.0067 O   0  0  0  0  0  0  0  0  0  0  0  0
   -1.2885   -0.0077   -0.6629 C   0  0  0  0  0  0  0  0  0  0  0  0
    0.5344   -1.0343    0.5399 N   0  0  0  0  0  0  0  0  0  0  0  0
    1.2781    5.0571    0.0267 C   0  0  0  0  0  0  0  0  0  0  0  0
   -0.6763   -1.0939   -0.0570 C   0  0  0  0  0  0  0  0  0  0  0  0
    1.4907    5.5519   -1.4011 C   0  0  0  0  0  0  0  0  0  0  0  0
    2.1408    6.9287   -1.4227 C   0  0  0  0  0  0  0  0  0  0  0  0
    2.3159    7.4080   -2.8406 C   0  0  0  0  0  0  0  0  0  0  0  0
    3.4976    7.0549   -3.3889 O   0  0  0  0  0  0  0  0  0  0  0  0
    1.4629    8.0315   -3.4551 O   0  0  0  0  0  0  0  0  0  0  0  0
   -1.0767    2.0681   -1.1545 H   0  0  0  0  0  0  0  0  0  0  0  0
    2.1411    0.1782    1.0065 H   0  0  0  0  0  0  0  0  0  0  0  0
   -0.3466    3.7014    0.1533 H   0  0  0  0  0  0  0  0  0  0  0  0
   -2.2553   -0.1174   -1.1435 H   0  0  0  0  0  0  0  0  0  0  0  0
    0.6118    5.7331    0.5717 H   0  0  0  0  0  0  0  0  0  0  0  0
    2.2319    5.0108    0.5633 H   0  0  0  0  0  0  0  0  0  0  0  0
   -1.1538   -2.0699   -0.0427 H   0  0  0  0  0  0  0  0  0  0  0  0
    2.1103    4.8388   -1.9591 H   0  0  0  0  0  0  0  0  0  0  0  0
    0.5265    5.5888   -1.9254 H   0  0  0  0  0  0  0  0  0  0  0  0
    1.5198    7.6645   -0.8973 H   0  0  0  0  0  0  0  0  0  0  0  0
    3.1105    6.9260   -0.9123 H   0  0  0  0  0  0  0  0  0  0  0  0
    4.0769    6.5349   -2.7994 H   0  0  0  0  0  0  0  0  0  0  0  0
  1  2  1  0  0  0  0
  1  3  2  0  0  0  0
  1  4  1  0  0  0  0
  2  5  1  0  0  0  0
  2  6  2  0  0  0  0
  3  7  1  0  0  0  0
  3 16  1  0  0  0  0
  4  8  2  0  0  0  0
  4 17  1  0  0  0  0
  5  9  1  0  0  0  0
  5 18  1  0  0  0  0
  7 10  2  0  0  0  0
  7 19  1  0  0  0  0
  8 10  1  0  0  0  0
  9 11  1  0  0  0  0
  9 20  1  0  0  0  0
  9 21  1  0  0  0  0
 10 22  1  0  0  0  0
 11 12  1  0  0  0  0
 11 23  1  0  0  0  0
 11 24  1  0  0  0  0
 12 13  1  0  0  0  0
 12 25  1  0  0  0  0
 12 26  1  0  0  0  0
 13 14  1  0  0  0  0
 13 15  2  0  0  0  0
 14 27  1  0  0  0  0
M  END
>  <Mol_ID>
2985

>  <Formula>
C10H12N2O3

>  <MolWeight>
208.21388

>  <Cat>
S5363

>  <Name>
Pikamilone

>  <Synonyms>
N/A

>  <Target>
Others

>  <Form>
free base

>  <CAS>
34562-97-5

>  <URL>
http://selleckchem.com/products/pikamilone.html

$$$$
