S5360 Diflorasone.cdx
 OpenBabel08302520392D

 57 60  0  0  0  0  0  0  0  0999 V2000
    6.1213    3.5071    0.0000 C   0  0  2  0  0  0  0  0  0  0  0  0
    4.8527    4.2274    0.0000 C   0  0  1  0  0  0  0  0  0  0  0  0
    7.2178    4.1821    0.0000 C   0  0  1  0  0  0  0  0  0  0  0  0
    6.1213    2.1114    0.0000 C   0  0  0  0  0  0  0  0  0  0  0  0
    3.6929    3.5388    0.0000 C   0  0  2  0  0  0  0  0  0  0  0  0
    4.8527    5.6231    0.0000 C   0  0  2  0  0  0  0  0  0  0  0  0
    4.8527    2.8319    0.0000 F   0  0  0  0  0  0  0  0  0  0  0  0
    7.2178    5.5912    0.0000 C   0  0  2  0  0  0  0  0  0  0  0  0
    8.5181    3.6791    0.0000 C   0  0  0  0  0  0  0  0  0  0  0  0
    4.9162    1.3775    0.0000 C   0  0  1  0  0  0  0  0  0  0  0  0
    3.6929    2.0980    0.0000 C   0  0  0  0  0  0  0  0  0  0  0  0
    2.4559    4.2591    0.0000 C   0  0  0  0  0  0  0  0  0  0  0  0
    3.6474    4.9341    0.0000 C   0  0  0  0  0  0  0  0  0  0  0  0
    6.0442    6.3570    0.0000 C   0  0  0  0  0  0  0  0  0  0  0  0
    3.6929    6.3570    0.0000 O   0  0  0  0  0  0  0  0  0  0  0  0
    8.5815    6.0127    0.0000 C   0  0  2  0  0  0  0  0  0  0  0  0
    7.2178    7.0002    0.0000 C   0  0  0  0  0  0  0  0  0  0  0  0
    9.4108    4.8210    0.0000 C   0  0  1  0  0  0  0  0  0  0  0  0
    4.9615    0.0000    0.0000 F   0  0  0  0  0  0  0  0  0  0  0  0
    2.4740    1.4092    0.0000 C   0  0  0  0  0  0  0  0  0  0  0  0
    1.2370    3.5524    0.0000 C   0  0  0  0  0  0  0  0  0  0  0  0
    8.9577    7.3583    0.0000 C   0  0  0  0  0  0  0  0  0  0  0  0
    9.8819    6.8282    0.0000 O   0  0  0  0  0  0  0  0  0  0  0  0
   10.8199    4.8074    0.0000 C   0  0  0  0  0  0  0  0  0  0  0  0
    1.2189    2.1296    0.0000 C   0  0  0  0  0  0  0  0  0  0  0  0
   10.3168    7.6890    0.0000 C   0  0  0  0  0  0  0  0  0  0  0  0
    8.0470    8.3596    0.0000 O   0  0  0  0  0  0  0  0  0  0  0  0
    0.0000    1.4546    0.0000 O   0  0  0  0  0  0  0  0  0  0  0  0
   10.6930    9.0212    0.0000 O   0  0  0  0  0  0  0  0  0  0  0  0
    5.1966    2.9688    0.0000 H   0  0  0  0  0  0  0  0  0  0  0  0
    7.3154    3.1166    0.0000 H   0  0  0  0  0  0  0  0  0  0  0  0
    7.0541    1.5873    0.0000 H   0  0  0  0  0  0  0  0  0  0  0  0
    6.1401    1.0416    0.0000 H   0  0  0  0  0  0  0  0  0  0  0  0
    3.9154    5.1070    0.0000 H   0  0  0  0  0  0  0  0  0  0  0  0
    8.8026    2.6476    0.0000 H   0  0  0  0  0  0  0  0  0  0  0  0
    9.5674    3.4694    0.0000 H   0  0  0  0  0  0  0  0  0  0  0  0
    5.8575    0.8688    0.0000 H   0  0  0  0  0  0  0  0  0  0  0  0
    2.4569    5.2911    0.0000 H   0  0  0  0  0  0  0  0  0  0  0  0
    4.5561    5.4990    0.0000 H   0  0  0  0  0  0  0  0  0  0  0  0
    2.7038    5.4386    0.0000 H   0  0  0  0  0  0  0  0  0  0  0  0
    3.6125    6.0035    0.0000 H   0  0  0  0  0  0  0  0  0  0  0  0
    6.0582    7.4269    0.0000 H   0  0  0  0  0  0  0  0  0  0  0  0
    6.9884    6.8604    0.0000 H   0  0  0  0  0  0  0  0  0  0  0  0
    3.7322    7.3262    0.0000 H   0  0  0  0  0  0  0  0  0  0  0  0
    8.1444    7.5352    0.0000 H   0  0  0  0  0  0  0  0  0  0  0  0
    6.2912    7.5352    0.0000 H   0  0  0  0  0  0  0  0  0  0  0  0
    7.2178    8.0702    0.0000 H   0  0  0  0  0  0  0  0  0  0  0  0
    9.8751    3.8570    0.0000 H   0  0  0  0  0  0  0  0  0  0  0  0
    2.4705    0.3772    0.0000 H   0  0  0  0  0  0  0  0  0  0  0  0
    0.3461    4.0733    0.0000 H   0  0  0  0  0  0  0  0  0  0  0  0
   10.7391    6.3742    0.0000 H   0  0  0  0  0  0  0  0  0  0  0  0
   11.3459    3.8756    0.0000 H   0  0  0  0  0  0  0  0  0  0  0  0
   11.3638    5.7288    0.0000 H   0  0  0  0  0  0  0  0  0  0  0  0
   11.8899    4.7971    0.0000 H   0  0  0  0  0  0  0  0  0  0  0  0
   11.0595    6.9187    0.0000 H   0  0  0  0  0  0  0  0  0  0  0  0
   11.3546    7.9495    0.0000 H   0  0  0  0  0  0  0  0  0  0  0  0
   11.6332    9.2597    0.0000 H   0  0  0  0  0  0  0  0  0  0  0  0
  1  2  1  0  0  0  0
  1  3  1  0  0  0  0
  1  4  1  0  0  0  0
  1 30  1  1  0  0  0
  2  5  1  0  0  0  0
  2  6  1  0  0  0  0
  2  7  1  6  0  0  0
  3  8  1  0  0  0  0
  3  9  1  0  0  0  0
  3 31  1  6  0  0  0
  4 10  1  0  0  0  0
  4 32  1  0  0  0  0
  4 33  1  0  0  0  0
  5 11  1  0  0  0  0
  5 12  1  0  0  0  0
  5 13  1  1  0  0  0
  6 14  1  0  0  0  0
  6 15  1  0  0  0  0
  6 34  1  6  0  0  0
  8 16  1  0  0  0  0
  8 17  1  1  0  0  0
  8 14  1  0  0  0  0
  9 18  1  0  0  0  0
  9 35  1  0  0  0  0
  9 36  1  0  0  0  0
 10 19  1  0  0  0  0
 10 11  1  0  0  0  0
 10 37  1  1  0  0  0
 11 20  2  0  0  0  0
 12 21  2  0  0  0  0
 12 38  1  0  0  0  0
 13 39  1  0  0  0  0
 13 40  1  0  0  0  0
 13 41  1  0  0  0  0
 14 42  1  0  0  0  0
 14 43  1  0  0  0  0
 15 44  1  0  0  0  0
 16 22  1  1  0  0  0
 16 23  1  0  0  0  0
 16 18  1  0  0  0  0
 17 45  1  0  0  0  0
 17 46  1  0  0  0  0
 17 47  1  0  0  0  0
 18 24  1  0  0  0  0
 18 48  1  6  0  0  0
 20 25  1  0  0  0  0
 20 49  1  0  0  0  0
 21 25  1  0  0  0  0
 21 50  1  0  0  0  0
 22 26  1  0  0  0  0
 22 27  2  0  0  0  0
 23 51  1  0  0  0  0
 24 52  1  0  0  0  0
 24 53  1  0  0  0  0
 24 54  1  0  0  0  0
 25 28  2  0  0  0  0
 26 29  1  0  0  0  0
 26 55  1  0  0  0  0
 26 56  1  0  0  0  0
 29 57  1  0  0  0  0
M  END
>  <Mol_ID>
3107

>  <Formula>
C22H28F2O5

>  <MolWeight>
410.4515264

>  <Cat>
S5360

>  <Name>
Diflorasone

>  <Synonyms>
N/A

>  <Target>
Immunology & Inflammation related

>  <Form>
free base

>  <CAS>
2557-49-5

>  <URL>
https://www.selleckchem.com/products/diflorasone.html

$$$$
