S5378 Dimethyl phthalate.cdx
 OpenBabel08302520013D

 24 24  0  0  0  0  0  0  0  0999 V2000
    1.3291   -0.1796    0.1242 C   0  0  0  0  0  0  0  0  0  0  0  0
    0.4528   -1.2600   -0.0463 C   0  0  0  0  0  0  0  0  0  0  0  0
    2.7822   -0.3385    0.3450 C   0  0  0  0  0  0  0  0  0  0  0  0
    0.8241    1.1299    0.1389 C   0  0  0  0  0  0  0  0  0  0  0  0
    0.9037   -2.6591   -0.2000 C   0  0  0  0  0  0  0  0  0  0  0  0
   -0.9299   -1.0256   -0.1131 C   0  0  0  0  0  0  0  0  0  0  0  0
    2.9857   -1.3254    1.2484 O   0  0  0  0  0  0  0  0  0  0  0  0
    3.6215    0.4025   -0.1379 O   0  0  0  0  0  0  0  0  0  0  0  0
   -0.5501    1.3557    0.0417 C   0  0  0  0  0  0  0  0  0  0  0  0
    1.9487   -2.6986   -1.0613 O   0  0  0  0  0  0  0  0  0  0  0  0
    0.3222   -3.6104    0.2943 O   0  0  0  0  0  0  0  0  0  0  0  0
   -1.4281    0.2784   -0.0648 C   0  0  0  0  0  0  0  0  0  0  0  0
    2.4395   -4.0060   -1.3650 C   0  0  0  0  0  0  0  0  0  0  0  0
    4.3445   -1.5485    1.6347 C   0  0  0  0  0  0  0  0  0  0  0  0
    1.5014    1.9761    0.2440 H   0  0  0  0  0  0  0  0  0  0  0  0
   -1.6217   -1.8603   -0.2170 H   0  0  0  0  0  0  0  0  0  0  0  0
   -0.9361    2.3725    0.0639 H   0  0  0  0  0  0  0  0  0  0  0  0
   -2.5006    0.4531   -0.1222 H   0  0  0  0  0  0  0  0  0  0  0  0
    3.2283   -4.2683   -0.6555 H   0  0  0  0  0  0  0  0  0  0  0  0
    1.6527   -4.7660   -1.3579 H   0  0  0  0  0  0  0  0  0  0  0  0
    2.8711   -3.9759   -2.3702 H   0  0  0  0  0  0  0  0  0  0  0  0
    4.7471   -2.3830    1.0536 H   0  0  0  0  0  0  0  0  0  0  0  0
    4.9774   -0.6645    1.5109 H   0  0  0  0  0  0  0  0  0  0  0  0
    4.3507   -1.8256    2.6929 H   0  0  0  0  0  0  0  0  0  0  0  0
  1  2  2  0  0  0  0
  1  3  1  0  0  0  0
  1  4  1  0  0  0  0
  2  5  1  0  0  0  0
  2  6  1  0  0  0  0
  3  7  1  0  0  0  0
  3  8  2  0  0  0  0
  4  9  2  0  0  0  0
  4 15  1  0  0  0  0
  5 10  1  0  0  0  0
  5 11  2  0  0  0  0
  6 12  2  0  0  0  0
  6 16  1  0  0  0  0
  7 14  1  0  0  0  0
  9 12  1  0  0  0  0
  9 17  1  0  0  0  0
 10 13  1  0  0  0  0
 12 18  1  0  0  0  0
 13 19  1  0  0  0  0
 13 20  1  0  0  0  0
 13 21  1  0  0  0  0
 14 22  1  0  0  0  0
 14 23  1  0  0  0  0
 14 24  1  0  0  0  0
M  END
>  <Mol_ID>
2992

>  <Formula>
C10H10O4

>  <MolWeight>
194.184

>  <Cat>
S5378

>  <Name>
Dimethyl phthalate

>  <Synonyms>
N/A

>  <Target>
Others

>  <Form>
Phthalates

>  <CAS>
131-11-3

>  <URL>
http://selleckchem.com/products/dimethyl-phthalate.html

$$$$
