S5372 Methyl Aminolevulinate Hydrochloride.cdx
 OpenBabel08302520143D

 21 20  0  0  0  0  0  0  0  0999 V2000
    1.0527   -0.0620   -0.0647 C   0  0  0  0  0  0  0  0  0  0  0  0
    0.1118    1.1191    0.0956 C   0  0  0  0  0  0  0  0  0  0  0  0
    1.7899   -0.5304    1.1890 C   0  0  0  0  0  0  0  0  0  0  0  0
    1.2535   -0.5999   -1.1559 O   0  0  0  0  0  0  0  0  0  0  0  0
   -0.6085    1.4840   -1.2039 C   0  0  0  0  0  0  0  0  0  0  0  0
    3.0609    0.1833    1.3201 N   0  0  0  0  0  0  0  0  0  0  0  0
   -1.5126    2.6761   -0.9994 C   0  0  0  0  0  0  0  0  0  0  0  0
   -2.5567    2.6626   -1.8730 O   0  0  0  0  0  0  0  0  0  0  0  0
   -1.3063    3.5571   -0.1726 O   0  0  0  0  0  0  0  0  0  0  0  0
   -3.4112    3.8143   -1.8218 C   0  0  0  0  0  0  0  0  0  0  0  0
   -0.6253    0.8660    0.8664 H   0  0  0  0  0  0  0  0  0  0  0  0
    0.7018    1.9702    0.4539 H   0  0  0  0  0  0  0  0  0  0  0  0
    1.1631   -0.3610    2.0697 H   0  0  0  0  0  0  0  0  0  0  0  0
    1.9674   -1.6082    1.1098 H   0  0  0  0  0  0  0  0  0  0  0  0
    0.1148    1.7408   -1.9854 H   0  0  0  0  0  0  0  0  0  0  0  0
   -1.2018    0.6316   -1.5538 H   0  0  0  0  0  0  0  0  0  0  0  0
    3.5719   -0.1918    2.1203 H   0  0  0  0  0  0  0  0  0  0  0  0
    3.6404   -0.0295    0.5042 H   0  0  0  0  0  0  0  0  0  0  0  0
   -4.2181    3.6490   -1.1010 H   0  0  0  0  0  0  0  0  0  0  0  0
   -2.8656    4.7312   -1.5735 H   0  0  0  0  0  0  0  0  0  0  0  0
   -3.8542    3.9499   -2.8128 H   0  0  0  0  0  0  0  0  0  0  0  0
  1  2  1  0  0  0  0
  1  3  1  0  0  0  0
  1  4  2  0  0  0  0
  2  5  1  0  0  0  0
  2 11  1  0  0  0  0
  2 12  1  0  0  0  0
  3  6  1  0  0  0  0
  3 13  1  0  0  0  0
  3 14  1  0  0  0  0
  5  7  1  0  0  0  0
  5 15  1  0  0  0  0
  5 16  1  0  0  0  0
  6 17  1  0  0  0  0
  6 18  1  0  0  0  0
  7  8  1  0  0  0  0
  7  9  2  0  0  0  0
  8 10  1  0  0  0  0
 10 19  1  0  0  0  0
 10 20  1  0  0  0  0
 10 21  1  0  0  0  0
M  END
>  <Mol_ID>
3203

>  <Formula>
C6H12ClNO3

>  <MolWeight>
181.61738

>  <Cat>
S5372

>  <Name>
Methyl Aminolevulinate Hydrochloride

>  <Synonyms>
Aminolevulinic acid methyl ester Hydrochloride, Methyl 5-aminolevulinate Hydrochloride

>  <Target>
Others

>  <Form>
free base

>  <CAS>
79416-27-6

>  <URL>
https://www.selleckchem.com/products/methyl-aminolevulinate-hydrochloride.html

$$$$
