S5375 ¦Ã-Decalactone.cdx
 OpenBabel08302520013D

 30 30  0  0  0  0  0  0  0  0999 V2000
    0.9997   -0.0906   -2.4863 C   0  0  3  0  0  0  0  0  0  0  0  0
    1.2399    1.2995   -2.2360 O   0  0  0  0  0  0  0  0  0  0  0  0
   -0.4952   -0.2622   -2.2932 C   0  0  0  0  0  0  0  0  0  0  0  0
    1.8441   -0.9615   -1.5429 C   0  0  0  0  0  0  0  0  0  0  0  0
    0.2065    1.8365   -1.5287 C   0  0  0  0  0  0  0  0  0  0  0  0
   -0.8462    0.7997   -1.2785 C   0  0  0  0  0  0  0  0  0  0  0  0
    3.3519   -0.7270   -1.7272 C   0  0  0  0  0  0  0  0  0  0  0  0
    0.1713    2.9882   -1.1259 O   0  0  0  0  0  0  0  0  0  0  0  0
    4.1933   -1.6083   -0.7933 C   0  0  0  0  0  0  0  0  0  0  0  0
    5.6967   -1.3657   -0.9854 C   0  0  0  0  0  0  0  0  0  0  0  0
    6.5433   -2.2319   -0.0477 C   0  0  0  0  0  0  0  0  0  0  0  0
    8.0338   -1.9874   -0.2422 C   0  0  0  0  0  0  0  0  0  0  0  0
    1.2687   -0.3075   -3.5275 H   0  0  0  0  0  0  0  0  0  0  0  0
   -0.7969   -1.2679   -1.9875 H   0  0  0  0  0  0  0  0  0  0  0  0
   -1.0130   -0.0354   -3.2344 H   0  0  0  0  0  0  0  0  0  0  0  0
    1.5817   -0.7457   -0.5003 H   0  0  0  0  0  0  0  0  0  0  0  0
    1.6141   -2.0181   -1.7276 H   0  0  0  0  0  0  0  0  0  0  0  0
   -0.7504    0.4321   -0.2531 H   0  0  0  0  0  0  0  0  0  0  0  0
   -1.8454    1.2037   -1.4504 H   0  0  0  0  0  0  0  0  0  0  0  0
    3.6264   -0.9334   -2.7688 H   0  0  0  0  0  0  0  0  0  0  0  0
    3.5864    0.3265   -1.5339 H   0  0  0  0  0  0  0  0  0  0  0  0
    3.9205   -1.4000    0.2483 H   0  0  0  0  0  0  0  0  0  0  0  0
    3.9666   -2.6644   -0.9824 H   0  0  0  0  0  0  0  0  0  0  0  0
    5.9718   -1.5798   -2.0252 H   0  0  0  0  0  0  0  0  0  0  0  0
    5.9223   -0.3081   -0.8032 H   0  0  0  0  0  0  0  0  0  0  0  0
    6.2816   -2.0175    0.9950 H   0  0  0  0  0  0  0  0  0  0  0  0
    6.3304   -3.2926   -0.2240 H   0  0  0  0  0  0  0  0  0  0  0  0
    8.2904   -0.9402   -0.0519 H   0  0  0  0  0  0  0  0  0  0  0  0
    8.6147   -2.6071    0.4492 H   0  0  0  0  0  0  0  0  0  0  0  0
    8.3454   -2.2377   -1.2614 H   0  0  0  0  0  0  0  0  0  0  0  0
  1  2  1  0  0  0  0
  1  3  1  0  0  0  0
  1  4  1  0  0  0  0
  1 13  1  0  0  0  0
  2  5  1  0  0  0  0
  3  6  1  0  0  0  0
  3 14  1  0  0  0  0
  3 15  1  0  0  0  0
  4  7  1  0  0  0  0
  4 16  1  0  0  0  0
  4 17  1  0  0  0  0
  5  8  2  0  0  0  0
  5  6  1  0  0  0  0
  6 18  1  0  0  0  0
  6 19  1  0  0  0  0
  7  9  1  0  0  0  0
  7 20  1  0  0  0  0
  7 21  1  0  0  0  0
  9 10  1  0  0  0  0
  9 22  1  0  0  0  0
  9 23  1  0  0  0  0
 10 11  1  0  0  0  0
 10 24  1  0  0  0  0
 10 25  1  0  0  0  0
 11 12  1  0  0  0  0
 11 26  1  0  0  0  0
 11 27  1  0  0  0  0
 12 28  1  0  0  0  0
 12 29  1  0  0  0  0
 12 30  1  0  0  0  0
M  END
>  <Mol_ID>
2989

>  <Formula>
C10H18O2

>  <MolWeight>
170.24872

>  <Cat>
S5375

>  <Name>
¦Ã-Decalactone

>  <Synonyms>
4-Decanolide, 5-Hexyldihydro-2(3H)-furanone

>  <Target>
Others

>  <Form>
free base

>  <CAS>
706-14-9

>  <URL>
http://selleckchem.com/products/decalactone.html

$$$$
