S5373 Pseudolaric Acid B.cdx
 OpenBabel08302520303D

 59 61  0  0  0  0  0  0  0  0999 V2000
    0.4990    7.0231    0.0382 C   0  0  1  0  0  0  0  0  0  0  0  0
    0.3650    6.7211   -1.5355 C   0  0  1  0  0  0  0  0  0  0  0  0
   -0.7457    7.8417   -0.0453 C   0  0  2  0  0  0  0  0  0  0  0  0
    0.5579    5.9936    1.1721 C   0  0  0  0  0  0  0  0  0  0  0  0
    1.4466    8.0933    0.5467 O   0  0  0  0  0  0  0  0  0  0  0  0
   -1.0607    6.9536   -2.3809 C   0  0  0  0  0  0  0  0  0  0  0  0
    0.9194    8.0174   -2.0853 C   0  0  0  0  0  0  0  0  0  0  0  0
    0.7674    5.2961   -1.8386 C   0  0  0  0  0  0  0  0  0  0  0  0
   -2.0038    6.8641   -0.4196 C   0  0  2  0  0  0  0  0  0  0  0  0
   -0.0658    8.9334   -1.2359 C   0  0  0  0  0  0  0  0  0  0  0  0
    1.5686    4.8458    1.1282 C   0  0  0  0  0  0  0  0  0  0  0  0
    2.7949    8.1070    0.5477 C   0  0  0  0  0  0  0  0  0  0  0  0
   -2.1402    7.5252   -1.6425 O   0  0  0  0  0  0  0  0  0  0  0  0
   -1.1633    6.7901   -3.5939 O   0  0  0  0  0  0  0  0  0  0  0  0
    2.1158    4.8947   -1.3541 C   0  0  0  0  0  0  0  0  0  0  0  0
   -2.6124    6.3971    0.8823 C   0  0  0  0  0  0  0  0  0  0  0  0
   -2.8398    5.6867   -1.1588 C   0  0  0  0  0  0  0  0  0  0  0  0
    2.4498    4.6548   -0.0742 C   0  0  0  0  0  0  0  0  0  0  0  0
    3.3430    9.2859    1.2885 C   0  0  0  0  0  0  0  0  0  0  0  0
    3.5141    7.2638    0.0197 O   0  0  0  0  0  0  0  0  0  0  0  0
   -3.4950    6.8250    1.7735 C   0  0  0  0  0  0  0  0  0  0  0  0
    3.8313    4.1819    0.2682 C   0  0  0  0  0  0  0  0  0  0  0  0
   -3.9369    6.0182    2.8882 C   0  0  0  0  0  0  0  0  0  0  0  0
    4.6960    4.3984   -0.7594 O   0  0  0  0  0  0  0  0  0  0  0  0
    4.1159    3.6576    1.3303 O   0  0  0  0  0  0  0  0  0  0  0  0
   -4.6007    4.8286    2.8474 C   0  0  0  0  0  0  0  0  0  0  0  0
    6.0276    3.9810   -0.5194 C   0  0  0  0  0  0  0  0  0  0  0  0
   -5.1014    4.3541    4.1676 C   0  0  0  0  0  0  0  0  0  0  0  0
   -4.9821    4.1037    1.5835 C   0  0  0  0  0  0  0  0  0  0  0  0
   -5.4185    3.0474    4.2390 O   0  0  0  0  0  0  0  0  0  0  0  0
   -5.2428    5.0900    5.1302 O   0  0  0  0  0  0  0  0  0  0  0  0
   -0.9867    8.4836    0.8037 H   0  0  0  0  0  0  0  0  0  0  0  0
   -0.3947    5.5510    1.4093 H   0  0  0  0  0  0  0  0  0  0  0  0
    0.7902    6.5527    2.0954 H   0  0  0  0  0  0  0  0  0  0  0  0
    1.9782    8.1632   -1.8708 H   0  0  0  0  0  0  0  0  0  0  0  0
    0.8105    8.1626   -3.1657 H   0  0  0  0  0  0  0  0  0  0  0  0
    0.6776    5.0561   -2.9034 H   0  0  0  0  0  0  0  0  0  0  0  0
    0.0306    4.6305   -1.3566 H   0  0  0  0  0  0  0  0  0  0  0  0
   -0.8230    9.4224   -1.8602 H   0  0  0  0  0  0  0  0  0  0  0  0
    0.5138    9.7350   -0.7657 H   0  0  0  0  0  0  0  0  0  0  0  0
    1.0151    3.9080    1.2909 H   0  0  0  0  0  0  0  0  0  0  0  0
    2.1875    4.9599    2.0267 H   0  0  0  0  0  0  0  0  0  0  0  0
    2.8506    4.7612   -2.1444 H   0  0  0  0  0  0  0  0  0  0  0  0
   -2.2620    5.3700    1.1257 H   0  0  0  0  0  0  0  0  0  0  0  0
   -2.6142    5.4151   -2.1971 H   0  0  0  0  0  0  0  0  0  0  0  0
   -3.8767    6.0952   -1.2692 H   0  0  0  0  0  0  0  0  0  0  0  0
   -2.9678    4.7211   -0.6610 H   0  0  0  0  0  0  0  0  0  0  0  0
    3.8745    8.9382    2.1816 H   0  0  0  0  0  0  0  0  0  0  0  0
    2.5503    9.9732    1.6056 H   0  0  0  0  0  0  0  0  0  0  0  0
    4.0308    9.8427    0.6424 H   0  0  0  0  0  0  0  0  0  0  0  0
   -3.9127    7.8602    1.6977 H   0  0  0  0  0  0  0  0  0  0  0  0
   -3.7325    6.4703    3.8608 H   0  0  0  0  0  0  0  0  0  0  0  0
    6.3707    4.2405    0.4859 H   0  0  0  0  0  0  0  0  0  0  0  0
    6.0944    2.9041   -0.6871 H   0  0  0  0  0  0  0  0  0  0  0  0
    6.6741    4.4898   -1.2423 H   0  0  0  0  0  0  0  0  0  0  0  0
   -5.5234    4.7652    0.9038 H   0  0  0  0  0  0  0  0  0  0  0  0
   -5.6373    3.2444    1.7564 H   0  0  0  0  0  0  0  0  0  0  0  0
   -4.0930    3.7145    1.0775 H   0  0  0  0  0  0  0  0  0  0  0  0
   -5.1701    2.4831    3.4848 H   0  0  0  0  0  0  0  0  0  0  0  0
  1  2  1  0  0  0  0
  1  3  1  0  0  0  0
  1  4  1  0  0  0  0
  1  5  1  1  0  0  0
  2  6  1  6  0  0  0
  2  7  1  0  0  0  0
  2  8  1  0  0  0  0
  3  9  1  0  0  0  0
  3 10  1  0  0  0  0
  3 32  1  1  0  0  0
  4 11  1  0  0  0  0
  4 33  1  0  0  0  0
  4 34  1  0  0  0  0
  5 12  1  0  0  0  0
  6 13  1  0  0  0  0
  6 14  2  0  0  0  0
  7 10  1  0  0  0  0
  7 35  1  0  0  0  0
  7 36  1  0  0  0  0
  8 15  1  0  0  0  0
  8 37  1  0  0  0  0
  8 38  1  0  0  0  0
  9 13  1  0  0  0  0
  9 17  1  0  0  0  0
  9 16  1  1  0  0  0
 10 39  1  0  0  0  0
 10 40  1  0  0  0  0
 11 18  1  0  0  0  0
 11 41  1  0  0  0  0
 11 42  1  0  0  0  0
 12 19  1  0  0  0  0
 12 20  2  0  0  0  0
 15 18  2  0  0  0  0
 15 43  1  0  0  0  0
 16 21  2  0  0  0  0
 16 44  1  0  0  0  0
 17 45  1  0  0  0  0
 17 46  1  0  0  0  0
 17 47  1  0  0  0  0
 18 22  1  0  0  0  0
 19 48  1  0  0  0  0
 19 49  1  0  0  0  0
 19 50  1  0  0  0  0
 21 23  1  0  0  0  0
 21 51  1  0  0  0  0
 22 24  1  0  0  0  0
 22 25  2  0  0  0  0
 23 26  2  0  0  0  0
 23 52  1  0  0  0  0
 24 27  1  0  0  0  0
 26 28  1  0  0  0  0
 26 29  1  0  0  0  0
 27 53  1  0  0  0  0
 27 54  1  0  0  0  0
 27 55  1  0  0  0  0
 28 30  1  0  0  0  0
 28 31  2  0  0  0  0
 29 56  1  0  0  0  0
 29 57  1  0  0  0  0
 29 58  1  0  0  0  0
 30 59  1  0  0  0  0
M  END
>  <Mol_ID>
3110

>  <Formula>
C23H28O8

>  <MolWeight>
432.46362

>  <Cat>
S5373

>  <Name>
Pseudolaric Acid B

>  <Synonyms>
N/A

>  <Target>
Fungal

>  <Form>
Diterpenoids

>  <CAS>
82508-31-4

>  <URL>
https://www.selleckchem.com/products/pseudolaric-acid-b.html

$$$$
