S5370 10-Hydroxydecanoic acid.cdx
 OpenBabel08302520143D

 33 32  0  0  0  0  0  0  0  0999 V2000
    1.0365    0.1023   -0.0246 C   0  0  0  0  0  0  0  0  0  0  0  0
    0.4997   -1.3309   -0.1140 C   0  0  0  0  0  0  0  0  0  0  0  0
    0.5324    0.9468   -1.2002 C   0  0  0  0  0  0  0  0  0  0  0  0
    1.0019   -2.2576    0.9983 C   0  0  0  0  0  0  0  0  0  0  0  0
    0.9656    2.4147   -1.1470 C   0  0  0  0  0  0  0  0  0  0  0  0
    0.6394   -1.8535    2.4307 C   0  0  0  0  0  0  0  0  0  0  0  0
    2.4772    2.6206   -1.2340 C   0  0  0  0  0  0  0  0  0  0  0  0
   -0.8646   -1.7874    2.6916 C   0  0  0  0  0  0  0  0  0  0  0  0
    2.8415    4.0892   -1.2494 C   0  0  0  0  0  0  0  0  0  0  0  0
   -1.1626   -1.4594    4.1505 C   0  0  0  0  0  0  0  0  0  0  0  0
    4.1779    4.2862   -1.3258 O   0  0  0  0  0  0  0  0  0  0  0  0
    2.0489    5.0165   -1.1949 O   0  0  0  0  0  0  0  0  0  0  0  0
   -2.5675   -1.4045    4.3567 O   0  0  0  0  0  0  0  0  0  0  0  0
    2.1316    0.0720   -0.0241 H   0  0  0  0  0  0  0  0  0  0  0  0
    0.7185    0.5677    0.9142 H   0  0  0  0  0  0  0  0  0  0  0  0
   -0.5961   -1.3191   -0.1241 H   0  0  0  0  0  0  0  0  0  0  0  0
    0.8104   -1.7625   -1.0744 H   0  0  0  0  0  0  0  0  0  0  0  0
    0.8656    0.5028   -2.1461 H   0  0  0  0  0  0  0  0  0  0  0  0
   -0.5647    0.9202   -1.2098 H   0  0  0  0  0  0  0  0  0  0  0  0
    0.6112   -3.2654    0.8080 H   0  0  0  0  0  0  0  0  0  0  0  0
    2.0941   -2.3349    0.9279 H   0  0  0  0  0  0  0  0  0  0  0  0
    0.4851    2.9423   -1.9811 H   0  0  0  0  0  0  0  0  0  0  0  0
    0.5804    2.8785   -0.2303 H   0  0  0  0  0  0  0  0  0  0  0  0
    1.0838   -2.5917    3.1109 H   0  0  0  0  0  0  0  0  0  0  0  0
    1.1032   -0.8914    2.6771 H   0  0  0  0  0  0  0  0  0  0  0  0
    2.9728    2.1664   -0.3699 H   0  0  0  0  0  0  0  0  0  0  0  0
    2.8618    2.1639   -2.1531 H   0  0  0  0  0  0  0  0  0  0  0  0
   -1.3362   -1.0311    2.0543 H   0  0  0  0  0  0  0  0  0  0  0  0
   -1.3385   -2.7421    2.4316 H   0  0  0  0  0  0  0  0  0  0  0  0
   -0.7558   -2.2300    4.8140 H   0  0  0  0  0  0  0  0  0  0  0  0
   -0.7310   -0.4962    4.4396 H   0  0  0  0  0  0  0  0  0  0  0  0
    4.6974    3.4611   -1.3610 H   0  0  0  0  0  0  0  0  0  0  0  0
   -2.9138   -0.6723    3.8183 H   0  0  0  0  0  0  0  0  0  0  0  0
  1  2  1  0  0  0  0
  1  3  1  0  0  0  0
  1 14  1  0  0  0  0
  1 15  1  0  0  0  0
  2  4  1  0  0  0  0
  2 16  1  0  0  0  0
  2 17  1  0  0  0  0
  3  5  1  0  0  0  0
  3 18  1  0  0  0  0
  3 19  1  0  0  0  0
  4  6  1  0  0  0  0
  4 20  1  0  0  0  0
  4 21  1  0  0  0  0
  5  7  1  0  0  0  0
  5 22  1  0  0  0  0
  5 23  1  0  0  0  0
  6  8  1  0  0  0  0
  6 24  1  0  0  0  0
  6 25  1  0  0  0  0
  7  9  1  0  0  0  0
  7 26  1  0  0  0  0
  7 27  1  0  0  0  0
  8 10  1  0  0  0  0
  8 28  1  0  0  0  0
  8 29  1  0  0  0  0
  9 11  1  0  0  0  0
  9 12  2  0  0  0  0
 10 13  1  0  0  0  0
 10 30  1  0  0  0  0
 10 31  1  0  0  0  0
 11 32  1  0  0  0  0
 13 33  1  0  0  0  0
M  END
>  <Mol_ID>
3213

>  <Formula>
C10H20O3

>  <MolWeight>
188.264

>  <Cat>
S5370

>  <Name>
10-Hydroxydecanoic acid

>  <Target>
Others

>  <Form>
free base

>  <CAS>
1679-53-4

>  <URL>
https://www.selleckchem.com/products/10-hydroxydecanoic-acid.html

$$$$
