S5376 Decyl aldehyde.cdx
 OpenBabel08302520013D

 31 30  0  0  0  0  0  0  0  0999 V2000
    1.1867   -0.0571   -0.0494 C   0  0  0  0  0  0  0  0  0  0  0  0
    0.6657    0.5696   -1.3484 C   0  0  0  0  0  0  0  0  0  0  0  0
    0.6791    0.7069    1.1831 C   0  0  0  0  0  0  0  0  0  0  0  0
    1.1469   -0.1262   -2.6289 C   0  0  0  0  0  0  0  0  0  0  0  0
    1.1254    0.1091    2.5243 C   0  0  0  0  0  0  0  0  0  0  0  0
    0.7762   -1.6040   -2.7984 C   0  0  0  0  0  0  0  0  0  0  0  0
    2.6360    0.0773    2.7279 C   0  0  0  0  0  0  0  0  0  0  0  0
   -0.7276   -1.8741   -2.8326 C   0  0  0  0  0  0  0  0  0  0  0  0
    3.0228   -0.4963    4.0745 C   0  0  0  0  0  0  0  0  0  0  0  0
   -1.0155   -3.3559   -3.0490 C   0  0  0  0  0  0  0  0  0  0  0  0
    2.2237   -0.8669    4.9320 O   0  0  0  0  0  0  0  0  0  0  0  0
    2.2815   -0.0483   -0.0694 H   0  0  0  0  0  0  0  0  0  0  0  0
    0.8653   -1.1012    0.0227 H   0  0  0  0  0  0  0  0  0  0  0  0
   -0.4295    0.6075   -1.3348 H   0  0  0  0  0  0  0  0  0  0  0  0
    1.0078    1.6116   -1.3911 H   0  0  0  0  0  0  0  0  0  0  0  0
    0.9969    1.7554    1.1292 H   0  0  0  0  0  0  0  0  0  0  0  0
   -0.4189    0.7110    1.1684 H   0  0  0  0  0  0  0  0  0  0  0  0
    0.7553    0.4327   -3.4884 H   0  0  0  0  0  0  0  0  0  0  0  0
    2.2401   -0.0417   -2.6839 H   0  0  0  0  0  0  0  0  0  0  0  0
    0.6699    0.6987    3.3281 H   0  0  0  0  0  0  0  0  0  0  0  0
    0.7182   -0.9046    2.6231 H   0  0  0  0  0  0  0  0  0  0  0  0
    1.2139   -1.9510   -3.7432 H   0  0  0  0  0  0  0  0  0  0  0  0
    1.2455   -2.2001   -2.0079 H   0  0  0  0  0  0  0  0  0  0  0  0
    3.1234   -0.5468    1.9714 H   0  0  0  0  0  0  0  0  0  0  0  0
    3.0576    1.0861    2.6674 H   0  0  0  0  0  0  0  0  0  0  0  0
   -1.1930   -1.5602   -1.8927 H   0  0  0  0  0  0  0  0  0  0  0  0
   -1.1949   -1.2975   -3.6400 H   0  0  0  0  0  0  0  0  0  0  0  0
    4.1071   -0.5663    4.2563 H   0  0  0  0  0  0  0  0  0  0  0  0
   -0.5813   -3.9587   -2.2463 H   0  0  0  0  0  0  0  0  0  0  0  0
   -2.0957   -3.5365   -3.0622 H   0  0  0  0  0  0  0  0  0  0  0  0
   -0.6027   -3.7016   -4.0017 H   0  0  0  0  0  0  0  0  0  0  0  0
  1  2  1  0  0  0  0
  1  3  1  0  0  0  0
  1 12  1  0  0  0  0
  1 13  1  0  0  0  0
  2  4  1  0  0  0  0
  2 14  1  0  0  0  0
  2 15  1  0  0  0  0
  3  5  1  0  0  0  0
  3 16  1  0  0  0  0
  3 17  1  0  0  0  0
  4  6  1  0  0  0  0
  4 18  1  0  0  0  0
  4 19  1  0  0  0  0
  5  7  1  0  0  0  0
  5 20  1  0  0  0  0
  5 21  1  0  0  0  0
  6  8  1  0  0  0  0
  6 22  1  0  0  0  0
  6 23  1  0  0  0  0
  7  9  1  0  0  0  0
  7 24  1  0  0  0  0
  7 25  1  0  0  0  0
  8 10  1  0  0  0  0
  8 26  1  0  0  0  0
  8 27  1  0  0  0  0
  9 11  2  0  0  0  0
  9 28  1  0  0  0  0
 10 29  1  0  0  0  0
 10 30  1  0  0  0  0
 10 31  1  0  0  0  0
M  END
>  <Mol_ID>
2990

>  <Formula>
C10H20O

>  <MolWeight>
156.2652

>  <Cat>
S5376

>  <Name>
Decyl aldehyde

>  <Synonyms>
Decanal, Capraldehyde, Decanaldehyde

>  <Target>
Others

>  <Form>
free base

>  <CAS>
112-31-2

>  <URL>
http://selleckchem.com/products/decyl-aldehyde.html

$$$$
