S5379 Fenchyl Alcohol.cdx
 OpenBabel08302520013D

 29 30  0  0  0  0  0  0  0  0999 V2000
   -0.0124   -1.1189    0.3230 C   0  0  3  0  0  0  0  0  0  0  0  0
   -1.2544   -0.7765   -0.5520 C   0  0  3  0  0  0  0  0  0  0  0  0
   -0.0231    0.0062    1.3648 C   0  0  0  0  0  0  0  0  0  0  0  0
    1.2597   -0.7673   -0.4856 C   0  0  0  0  0  0  0  0  0  0  0  0
   -1.2867    0.7865   -0.5383 C   0  0  0  0  0  0  0  0  0  0  0  0
   -0.0125    1.1181    0.3053 C   0  0  3  0  0  0  0  0  0  0  0  0
    1.2871    0.7660   -0.4422 C   0  0  0  0  0  0  0  0  0  0  0  0
   -2.4473   -1.3562   -0.0426 O   0  0  0  0  0  0  0  0  0  0  0  0
   -1.2374    1.3512   -1.9674 C   0  0  0  0  0  0  0  0  0  0  0  0
   -2.5406    1.3785    0.1376 C   0  0  0  0  0  0  0  0  0  0  0  0
    0.0110   -2.5194    0.9026 C   0  0  0  0  0  0  0  0  0  0  0  0
   -1.1264   -1.1727   -1.5658 H   0  0  0  0  0  0  0  0  0  0  0  0
    0.8710    0.0141    2.0004 H   0  0  0  0  0  0  0  0  0  0  0  0
   -0.9065    0.0053    2.0078 H   0  0  0  0  0  0  0  0  0  0  0  0
    1.2174   -1.1465   -1.5125 H   0  0  0  0  0  0  0  0  0  0  0  0
    2.1650   -1.1699   -0.0162 H   0  0  0  0  0  0  0  0  0  0  0  0
   -0.0052    2.1325    0.7124 H   0  0  0  0  0  0  0  0  0  0  0  0
    1.3738    1.2166   -1.4334 H   0  0  0  0  0  0  0  0  0  0  0  0
    2.1564    1.1012    0.1374 H   0  0  0  0  0  0  0  0  0  0  0  0
   -2.5067   -1.1631    0.9073 H   0  0  0  0  0  0  0  0  0  0  0  0
   -2.1737    1.1425   -2.4986 H   0  0  0  0  0  0  0  0  0  0  0  0
   -1.0937    2.4369   -1.9544 H   0  0  0  0  0  0  0  0  0  0  0  0
   -0.4364    0.9104   -2.5680 H   0  0  0  0  0  0  0  0  0  0  0  0
   -2.6704    1.0350    1.1677 H   0  0  0  0  0  0  0  0  0  0  0  0
   -2.4809    2.4730    0.1701 H   0  0  0  0  0  0  0  0  0  0  0  0
   -3.4486    1.1140   -0.4160 H   0  0  0  0  0  0  0  0  0  0  0  0
    0.9141   -2.6819    1.5015 H   0  0  0  0  0  0  0  0  0  0  0  0
   -0.8478   -2.7012    1.5560 H   0  0  0  0  0  0  0  0  0  0  0  0
   -0.0025   -3.2705    0.1059 H   0  0  0  0  0  0  0  0  0  0  0  0
  1  2  1  0  0  0  0
  1  3  1  0  0  0  0
  1  4  1  0  0  0  0
  1 11  1  0  0  0  0
  2  5  1  0  0  0  0
  2  8  1  0  0  0  0
  2 12  1  0  0  0  0
  3  6  1  0  0  0  0
  3 13  1  0  0  0  0
  3 14  1  0  0  0  0
  4  7  1  0  0  0  0
  4 15  1  0  0  0  0
  4 16  1  0  0  0  0
  5  6  1  0  0  0  0
  5  9  1  0  0  0  0
  5 10  1  0  0  0  0
  6  7  1  0  0  0  0
  6 17  1  0  0  0  0
  7 18  1  0  0  0  0
  7 19  1  0  0  0  0
  8 20  1  0  0  0  0
  9 21  1  0  0  0  0
  9 22  1  0  0  0  0
  9 23  1  0  0  0  0
 10 24  1  0  0  0  0
 10 25  1  0  0  0  0
 10 26  1  0  0  0  0
 11 27  1  0  0  0  0
 11 28  1  0  0  0  0
 11 29  1  0  0  0  0
M  END
>  <Mol_ID>
2993

>  <Formula>
C10H18O

>  <MolWeight>
154.24932

>  <Cat>
S5379

>  <Name>
Fenchyl Alcohol

>  <Synonyms>
N/A

>  <Target>
Others

>  <Form>
free base

>  <CAS>
1632-73-1

>  <URL>
http://selleckchem.com/products/fenchyl-alcohol.html

$$$$
