S5377 Dibutyl phthalate.cdx
 OpenBabel08302520013D

 42 42  0  0  0  0  0  0  0  0999 V2000
    1.6999   -0.5848    0.4574 C   0  0  0  0  0  0  0  0  0  0  0  0
    0.9741   -1.4626   -0.3555 C   0  0  0  0  0  0  0  0  0  0  0  0
    3.1652   -0.7070    0.6793 C   0  0  0  0  0  0  0  0  0  0  0  0
    1.0742    0.5654    0.9611 C   0  0  0  0  0  0  0  0  0  0  0  0
    1.4048   -2.8601   -0.5879 C   0  0  0  0  0  0  0  0  0  0  0  0
   -0.2875   -1.0859   -0.8341 C   0  0  0  0  0  0  0  0  0  0  0  0
    3.7225   -1.1765   -0.4658 O   0  0  0  0  0  0  0  0  0  0  0  0
    3.7486   -0.2155    1.6262 O   0  0  0  0  0  0  0  0  0  0  0  0
   -0.2159    0.8965    0.5464 C   0  0  0  0  0  0  0  0  0  0  0  0
    1.8415   -3.3294    0.6102 O   0  0  0  0  0  0  0  0  0  0  0  0
    1.1822   -3.4976   -1.5969 O   0  0  0  0  0  0  0  0  0  0  0  0
   -0.8708    0.1057   -0.3966 C   0  0  0  0  0  0  0  0  0  0  0  0
    5.0751   -0.7784   -0.7268 C   0  0  0  0  0  0  0  0  0  0  0  0
    2.0033   -4.7477    0.7545 C   0  0  0  0  0  0  0  0  0  0  0  0
    6.1219   -1.5594    0.0590 C   0  0  0  0  0  0  0  0  0  0  0  0
    0.8615   -5.3164    1.6010 C   0  0  0  0  0  0  0  0  0  0  0  0
    6.0233   -3.0704   -0.1391 C   0  0  0  0  0  0  0  0  0  0  0  0
   -0.4983   -5.2354    0.9032 C   0  0  0  0  0  0  0  0  0  0  0  0
    7.0962   -3.7906    0.6644 C   0  0  0  0  0  0  0  0  0  0  0  0
   -1.6136   -5.7875    1.7790 C   0  0  0  0  0  0  0  0  0  0  0  0
    1.6022    1.2154    1.6549 H   0  0  0  0  0  0  0  0  0  0  0  0
   -0.8291   -1.7303   -1.5242 H   0  0  0  0  0  0  0  0  0  0  0  0
   -0.6960    1.7914    0.9362 H   0  0  0  0  0  0  0  0  0  0  0  0
   -1.8509    0.3998   -0.7662 H   0  0  0  0  0  0  0  0  0  0  0  0
    5.2400   -0.9265   -1.8018 H   0  0  0  0  0  0  0  0  0  0  0  0
    5.1841    0.2986   -0.5448 H   0  0  0  0  0  0  0  0  0  0  0  0
    2.0873   -5.2607   -0.2087 H   0  0  0  0  0  0  0  0  0  0  0  0
    2.9479   -4.8999    1.2890 H   0  0  0  0  0  0  0  0  0  0  0  0
    7.1157   -1.2149   -0.2546 H   0  0  0  0  0  0  0  0  0  0  0  0
    6.0293   -1.3329    1.1272 H   0  0  0  0  0  0  0  0  0  0  0  0
    1.0844   -6.3632    1.8393 H   0  0  0  0  0  0  0  0  0  0  0  0
    0.8056   -4.7675    2.5492 H   0  0  0  0  0  0  0  0  0  0  0  0
    5.0378   -3.4334    0.1726 H   0  0  0  0  0  0  0  0  0  0  0  0
    6.1414   -3.3146   -1.2011 H   0  0  0  0  0  0  0  0  0  0  0  0
   -0.7403   -4.1979    0.6502 H   0  0  0  0  0  0  0  0  0  0  0  0
   -0.4627   -5.8011   -0.0347 H   0  0  0  0  0  0  0  0  0  0  0  0
    6.9310   -3.6576    1.7387 H   0  0  0  0  0  0  0  0  0  0  0  0
    7.0815   -4.8626    0.4481 H   0  0  0  0  0  0  0  0  0  0  0  0
    8.0939   -3.4081    0.4234 H   0  0  0  0  0  0  0  0  0  0  0  0
   -1.7653   -5.1558    2.6603 H   0  0  0  0  0  0  0  0  0  0  0  0
   -2.5544   -5.8167    1.2199 H   0  0  0  0  0  0  0  0  0  0  0  0
   -1.3878   -6.8032    2.1184 H   0  0  0  0  0  0  0  0  0  0  0  0
  1  2  2  0  0  0  0
  1  3  1  0  0  0  0
  1  4  1  0  0  0  0
  2  5  1  0  0  0  0
  2  6  1  0  0  0  0
  3  7  1  0  0  0  0
  3  8  2  0  0  0  0
  4  9  2  0  0  0  0
  4 21  1  0  0  0  0
  5 10  1  0  0  0  0
  5 11  2  0  0  0  0
  6 12  2  0  0  0  0
  6 22  1  0  0  0  0
  7 13  1  0  0  0  0
  9 12  1  0  0  0  0
  9 23  1  0  0  0  0
 10 14  1  0  0  0  0
 12 24  1  0  0  0  0
 13 15  1  0  0  0  0
 13 25  1  0  0  0  0
 13 26  1  0  0  0  0
 14 16  1  0  0  0  0
 14 27  1  0  0  0  0
 14 28  1  0  0  0  0
 15 17  1  0  0  0  0
 15 29  1  0  0  0  0
 15 30  1  0  0  0  0
 16 18  1  0  0  0  0
 16 31  1  0  0  0  0
 16 32  1  0  0  0  0
 17 19  1  0  0  0  0
 17 33  1  0  0  0  0
 17 34  1  0  0  0  0
 18 20  1  0  0  0  0
 18 35  1  0  0  0  0
 18 36  1  0  0  0  0
 19 37  1  0  0  0  0
 19 38  1  0  0  0  0
 19 39  1  0  0  0  0
 20 40  1  0  0  0  0
 20 41  1  0  0  0  0
 20 42  1  0  0  0  0
M  END
>  <Mol_ID>
2991

>  <Formula>
C16H22O4

>  <MolWeight>
278.34348

>  <Cat>
S5377

>  <Name>
Dibutyl phthalate

>  <Synonyms>
N/A

>  <Target>
Others

>  <Form>
free base

>  <CAS>
84-74-2

>  <URL>
http://selleckchem.com/products/dibutyl-phthalate.html

$$$$
