S5380 7-Hydroxyflavone.cdx
 OpenBabel08302520013D

 28 30  0  0  0  0  0  0  0  0999 V2000
    1.8791    1.3613    0.0453 C   0  0  0  0  0  0  0  0  0  0  0  0
    2.3515    0.0508    0.0019 C   0  0  0  0  0  0  0  0  0  0  0  0
    1.4734   -1.0290   -0.0169 C   0  0  0  0  0  0  0  0  0  0  0  0
    0.0995   -0.7956   -0.0060 C   0  0  0  0  0  0  0  0  0  0  0  0
   -0.3833    0.5108    0.0213 C   0  0  0  0  0  0  0  0  0  0  0  0
    0.5019    1.5937    0.0557 C   0  0  0  0  0  0  0  0  0  0  0  0
   -0.7249   -1.8916   -0.0222 O   0  0  0  0  0  0  0  0  0  0  0  0
   -2.0895   -1.6796   -0.0232 C   0  0  0  0  0  0  0  0  0  0  0  0
   -2.6849   -0.4798   -0.0202 C   0  0  0  0  0  0  0  0  0  0  0  0
   -1.8383    0.7255    0.0042 C   0  0  0  0  0  0  0  0  0  0  0  0
    3.6874   -0.2202   -0.0260 O   0  0  0  0  0  0  0  0  0  0  0  0
   -2.3342    1.8452    0.0105 O   0  0  0  0  0  0  0  0  0  0  0  0
   -2.8745   -2.9168   -0.0068 C   0  0  0  0  0  0  0  0  0  0  0  0
   -3.3161   -3.4988   -1.2002 C   0  0  0  0  0  0  0  0  0  0  0  0
   -3.9962   -4.7182   -1.1749 C   0  0  0  0  0  0  0  0  0  0  0  0
   -4.2353   -5.3601    0.0401 C   0  0  0  0  0  0  0  0  0  0  0  0
   -3.8153   -4.7745    1.2335 C   0  0  0  0  0  0  0  0  0  0  0  0
   -3.1438   -3.5516    1.2119 C   0  0  0  0  0  0  0  0  0  0  0  0
    2.5607    2.2063    0.0691 H   0  0  0  0  0  0  0  0  0  0  0  0
    1.8589   -2.0441   -0.0449 H   0  0  0  0  0  0  0  0  0  0  0  0
    0.1206    2.6122    0.0875 H   0  0  0  0  0  0  0  0  0  0  0  0
   -3.7577   -0.3366   -0.0213 H   0  0  0  0  0  0  0  0  0  0  0  0
    4.1799    0.6171   -0.0432 H   0  0  0  0  0  0  0  0  0  0  0  0
   -3.1162   -3.0189   -2.1554 H   0  0  0  0  0  0  0  0  0  0  0  0
   -4.3264   -5.1752   -2.1043 H   0  0  0  0  0  0  0  0  0  0  0  0
   -4.7447   -6.3204    0.0567 H   0  0  0  0  0  0  0  0  0  0  0  0
   -3.9980   -5.2762    2.1802 H   0  0  0  0  0  0  0  0  0  0  0  0
   -2.8149   -3.1064    2.1483 H   0  0  0  0  0  0  0  0  0  0  0  0
  1  2  2  0  0  0  0
  1 19  1  0  0  0  0
  2  3  1  0  0  0  0
  2 11  1  0  0  0  0
  3  4  2  0  0  0  0
  3 20  1  0  0  0  0
  4  5  1  0  0  0  0
  4  7  1  0  0  0  0
  5  6  2  0  0  0  0
  6  1  1  0  0  0  0
  6 21  1  0  0  0  0
  7  8  1  0  0  0  0
  8  9  2  0  0  0  0
  8 13  1  0  0  0  0
  9 10  1  0  0  0  0
  9 22  1  0  0  0  0
 10  5  1  0  0  0  0
 10 12  2  0  0  0  0
 11 23  1  0  0  0  0
 13 14  2  0  0  0  0
 14 15  1  0  0  0  0
 14 24  1  0  0  0  0
 15 16  2  0  0  0  0
 15 25  1  0  0  0  0
 16 17  1  0  0  0  0
 16 26  1  0  0  0  0
 17 18  2  0  0  0  0
 17 27  1  0  0  0  0
 18 13  1  0  0  0  0
 18 28  1  0  0  0  0
M  END
>  <Mol_ID>
2994

>  <Formula>
C15H10O3

>  <MolWeight>
238.2381

>  <Cat>
S5380

>  <Name>
7-Hydroxyflavone

>  <Synonyms>
N/A

>  <Target>
P450 (e.g. CYP17)

>  <Form>
free base

>  <CAS>
6665-86-7

>  <URL>
http://selleckchem.com/products/7-hydroxyflavone.html

$$$$
