S5385 Imidafenacin.cdx
 OpenBabel08302520143D

 45 47  0  0  0  0  0  0  0  0999 V2000
    4.5153    2.0425   -0.8623 N   0  0  0  0  0  0  0  0  0  0  0  0
    0.7856    3.2733   -1.2893 C   0  0  0  0  0  0  0  0  0  0  0  0
    5.0394    1.6225    0.3427 C   0  0  0  0  0  0  0  0  0  0  0  0
    6.0835    0.8389    0.1479 N   0  0  0  0  0  0  0  0  0  0  0  0
    0.7690    4.1908   -0.0033 C   0  0  0  0  0  0  0  0  0  0  0  0
    2.0530    2.3425   -1.1187 C   0  0  0  0  0  0  0  0  0  0  0  0
    6.2397    0.7519   -1.2085 C   0  0  0  0  0  0  0  0  0  0  0  0
    5.2641    1.4659   -1.8557 C   0  0  0  0  0  0  0  0  0  0  0  0
    3.4378    3.0081   -1.0792 C   0  0  0  0  0  0  0  0  0  0  0  0
    0.8946    4.1235   -2.5927 C   0  0  0  0  0  0  0  0  0  0  0  0
   -0.5282    2.4120   -1.3834 C   0  0  0  0  0  0  0  0  0  0  0  0
    1.7115    4.9186    0.3176 O   0  0  0  0  0  0  0  0  0  0  0  0
   -0.3334    4.2394    0.7944 N   0  0  0  0  0  0  0  0  0  0  0  0
    4.5002    1.9980    1.6736 C   0  0  0  0  0  0  0  0  0  0  0  0
   -0.5471    1.0140   -1.2220 C   0  0  0  0  0  0  0  0  0  0  0  0
    1.0339    3.4904   -3.8446 C   0  0  0  0  0  0  0  0  0  0  0  0
   -1.7663    3.0384   -1.6550 C   0  0  0  0  0  0  0  0  0  0  0  0
    0.7380    5.5244   -2.5917 C   0  0  0  0  0  0  0  0  0  0  0  0
   -1.7408    0.2857   -1.2935 C   0  0  0  0  0  0  0  0  0  0  0  0
   -2.9614    2.3117   -1.7083 C   0  0  0  0  0  0  0  0  0  0  0  0
    1.0132    4.2260   -5.0350 C   0  0  0  0  0  0  0  0  0  0  0  0
    0.7208    6.2575   -3.7824 C   0  0  0  0  0  0  0  0  0  0  0  0
    0.8546    5.6081   -5.0042 C   0  0  0  0  0  0  0  0  0  0  0  0
   -2.9491    0.9348   -1.5222 C   0  0  0  0  0  0  0  0  0  0  0  0
    2.0773    1.5968   -1.9256 H   0  0  0  0  0  0  0  0  0  0  0  0
    1.9388    1.7733   -0.1851 H   0  0  0  0  0  0  0  0  0  0  0  0
    7.0531    0.1814   -1.6417 H   0  0  0  0  0  0  0  0  0  0  0  0
    5.0639    1.6281   -2.9045 H   0  0  0  0  0  0  0  0  0  0  0  0
    3.5405    3.7411   -0.2797 H   0  0  0  0  0  0  0  0  0  0  0  0
    3.6550    3.5185   -2.0234 H   0  0  0  0  0  0  0  0  0  0  0  0
   -1.1904    3.7329    0.6213 H   0  0  0  0  0  0  0  0  0  0  0  0
   -0.3128    4.8884    1.5703 H   0  0  0  0  0  0  0  0  0  0  0  0
    4.4225    3.0825    1.7839 H   0  0  0  0  0  0  0  0  0  0  0  0
    3.5139    1.5514    1.8326 H   0  0  0  0  0  0  0  0  0  0  0  0
    5.1624    1.6322    2.4681 H   0  0  0  0  0  0  0  0  0  0  0  0
    0.3595    0.4418   -1.0457 H   0  0  0  0  0  0  0  0  0  0  0  0
    1.1158    2.4077   -3.9131 H   0  0  0  0  0  0  0  0  0  0  0  0
   -1.8197    4.1140   -1.8205 H   0  0  0  0  0  0  0  0  0  0  0  0
    0.6041    6.0835   -1.6679 H   0  0  0  0  0  0  0  0  0  0  0  0
   -1.7210   -0.7954   -1.1721 H   0  0  0  0  0  0  0  0  0  0  0  0
   -3.9045    2.8226   -1.8970 H   0  0  0  0  0  0  0  0  0  0  0  0
    1.1002    3.7152   -5.9910 H   0  0  0  0  0  0  0  0  0  0  0  0
    0.5872    7.3366   -3.7523 H   0  0  0  0  0  0  0  0  0  0  0  0
    0.8243    6.1775   -5.9297 H   0  0  0  0  0  0  0  0  0  0  0  0
   -3.8740    0.3647   -1.5660 H   0  0  0  0  0  0  0  0  0  0  0  0
  2  6  1  0  0  0  0
  3  1  1  0  0  0  0
  4  3  2  0  0  0  0
  4  7  1  0  0  0  0
  5  2  1  0  0  0  0
  6  9  1  0  0  0  0
  6 25  1  0  0  0  0
  6 26  1  0  0  0  0
  7  8  2  0  0  0  0
  7 27  1  0  0  0  0
  8  1  1  0  0  0  0
  8 28  1  0  0  0  0
  9  1  1  0  0  0  0
  9 29  1  0  0  0  0
  9 30  1  0  0  0  0
 10  2  1  0  0  0  0
 11  2  1  0  0  0  0
 12  5  2  0  0  0  0
 13  5  1  0  0  0  0
 13 31  1  0  0  0  0
 13 32  1  0  0  0  0
 14  3  1  0  0  0  0
 14 33  1  0  0  0  0
 14 34  1  0  0  0  0
 14 35  1  0  0  0  0
 15 11  2  0  0  0  0
 15 36  1  0  0  0  0
 16 10  2  0  0  0  0
 16 37  1  0  0  0  0
 17 11  1  0  0  0  0
 17 38  1  0  0  0  0
 18 10  1  0  0  0  0
 18 39  1  0  0  0  0
 19 15  1  0  0  0  0
 19 40  1  0  0  0  0
 20 17  2  0  0  0  0
 20 41  1  0  0  0  0
 21 16  1  0  0  0  0
 21 42  1  0  0  0  0
 22 18  2  0  0  0  0
 22 43  1  0  0  0  0
 23 21  2  0  0  0  0
 23 22  1  0  0  0  0
 23 44  1  0  0  0  0
 24 19  2  0  0  0  0
 24 20  1  0  0  0  0
 24 45  1  0  0  0  0
M  END
>  <Mol_ID>
3204

>  <Formula>
C20H21N3O

>  <MolWeight>
319.40024

>  <Cat>
S5385

>  <Name>
Imidafenacin

>  <Synonyms>
KRP-197, ONO-8025

>  <Target>
AChR

>  <Form>
free base

>  <CAS>
170105-16-5

>  <URL>
https://www.selleckchem.com/products/imidafenacin.html

$$$$
