S5388 Betrixaban.cdx
 OpenBabel08302520013D

 54 56  0  0  0  0  0  0  0  0999 V2000
    1.4312   -0.1332   -0.1804 C   0  0  0  0  0  0  0  0  0  0  0  0
    0.5630   -1.2173   -0.0731 C   0  0  0  0  0  0  0  0  0  0  0  0
   -0.8097   -0.9800    0.0068 C   0  0  0  0  0  0  0  0  0  0  0  0
   -1.3126    0.3244    0.0396 C   0  0  0  0  0  0  0  0  0  0  0  0
   -0.4409    1.4186    0.0116 C   0  0  0  0  0  0  0  0  0  0  0  0
    0.9404    1.1889   -0.1590 C   0  0  0  0  0  0  0  0  0  0  0  0
    0.9215   -2.5367   -0.0795 O   0  0  0  0  0  0  0  0  0  0  0  0
    2.3163   -2.8219   -0.0983 C   0  0  0  0  0  0  0  0  0  0  0  0
   -1.0170    2.7037    0.1641 N   0  0  0  0  0  0  0  0  0  0  0  0
   -0.6180    3.4982    1.2285 C   0  0  0  0  0  0  0  0  0  0  0  0
   -1.1740    4.8692    1.2861 C   0  0  0  0  0  0  0  0  0  0  0  0
    0.1839    3.1496    2.0915 O   0  0  0  0  0  0  0  0  0  0  0  0
   -1.4087    5.4455    2.5388 C   0  0  0  0  0  0  0  0  0  0  0  0
   -1.7292    6.8008    2.6292 C   0  0  0  0  0  0  0  0  0  0  0  0
   -1.7934    7.5910    1.4730 C   0  0  0  0  0  0  0  0  0  0  0  0
   -1.6086    6.9985    0.2178 C   0  0  0  0  0  0  0  0  0  0  0  0
   -1.2949    5.6377    0.1222 C   0  0  0  0  0  0  0  0  0  0  0  0
   -2.0774    9.0605    1.6131 C   0  0  0  0  0  0  0  0  0  0  0  0
   -1.5415   10.0006    0.7405 N   0  0  0  0  0  0  0  0  0  0  0  0
   -2.8605    9.3859    2.5942 N   0  0  0  0  0  0  0  0  0  0  0  0
    1.8951    2.2270   -0.6615 C   0  0  0  0  0  0  0  0  0  0  0  0
    2.0133    3.3965    0.0341 N   0  0  0  0  0  0  0  0  0  0  0  0
    2.7627    4.4930   -0.3940 C   0  0  0  0  0  0  0  0  0  0  0  0
    2.9092    4.8165   -1.7419 C   0  0  0  0  0  0  0  0  0  0  0  0
    3.6781    5.9247   -2.0899 C   0  0  0  0  0  0  0  0  0  0  0  0
    4.3091    6.6487   -1.0872 C   0  0  0  0  0  0  0  0  0  0  0  0
    4.0927    6.2660    0.2253 C   0  0  0  0  0  0  0  0  0  0  0  0
    3.3015    5.2383    0.5915 N   0  0  0  0  0  0  0  0  0  0  0  0
    2.5486    1.9324   -1.6587 O   0  0  0  0  0  0  0  0  0  0  0  0
   -0.1957    9.8850    0.1821 C   0  0  0  0  0  0  0  0  0  0  0  0
   -2.1386   11.3230    0.5766 C   0  0  0  0  0  0  0  0  0  0  0  0
    2.4976   -0.2789   -0.3269 H   0  0  0  0  0  0  0  0  0  0  0  0
   -1.4961   -1.8229    0.0541 H   0  0  0  0  0  0  0  0  0  0  0  0
   -2.3858    0.4659    0.1312 H   0  0  0  0  0  0  0  0  0  0  0  0
    2.7813   -2.4560   -1.0195 H   0  0  0  0  0  0  0  0  0  0  0  0
    2.8151   -2.4126    0.7869 H   0  0  0  0  0  0  0  0  0  0  0  0
    2.4369   -3.9093   -0.0761 H   0  0  0  0  0  0  0  0  0  0  0  0
   -1.9955    2.8092   -0.0808 H   0  0  0  0  0  0  0  0  0  0  0  0
   -1.3077    4.8550    3.4473 H   0  0  0  0  0  0  0  0  0  0  0  0
   -1.8963    7.2509    3.6058 H   0  0  0  0  0  0  0  0  0  0  0  0
   -1.6822    7.5969   -0.6857 H   0  0  0  0  0  0  0  0  0  0  0  0
   -1.0827    5.2078   -0.8533 H   0  0  0  0  0  0  0  0  0  0  0  0
   -2.9767   10.3955    2.6357 H   0  0  0  0  0  0  0  0  0  0  0  0
    1.7719    3.3963    1.0209 H   0  0  0  0  0  0  0  0  0  0  0  0
    2.4185    4.2368   -2.5180 H   0  0  0  0  0  0  0  0  0  0  0  0
    3.7999    6.1997   -3.1345 H   0  0  0  0  0  0  0  0  0  0  0  0
    4.9564    7.4850   -1.3187 H   0  0  0  0  0  0  0  0  0  0  0  0
    4.5840    6.7858    1.0427 H   0  0  0  0  0  0  0  0  0  0  0  0
   -0.2425    9.9576   -0.9102 H   0  0  0  0  0  0  0  0  0  0  0  0
    0.4394   10.6984    0.5509 H   0  0  0  0  0  0  0  0  0  0  0  0
    0.3047    8.9481    0.4402 H   0  0  0  0  0  0  0  0  0  0  0  0
   -3.1754   11.2264    0.2392 H   0  0  0  0  0  0  0  0  0  0  0  0
   -2.1170   11.8864    1.5153 H   0  0  0  0  0  0  0  0  0  0  0  0
   -1.6037   11.9199   -0.1707 H   0  0  0  0  0  0  0  0  0  0  0  0
  1  2  2  0  0  0  0
  1 32  1  0  0  0  0
  2  3  1  0  0  0  0
  2  7  1  0  0  0  0
  3  4  2  0  0  0  0
  3 33  1  0  0  0  0
  4  5  1  0  0  0  0
  4 34  1  0  0  0  0
  5  6  2  0  0  0  0
  5  9  1  0  0  0  0
  6  1  1  0  0  0  0
  6 21  1  0  0  0  0
  7  8  1  0  0  0  0
  8 35  1  0  0  0  0
  8 36  1  0  0  0  0
  8 37  1  0  0  0  0
  9 10  1  0  0  0  0
  9 38  1  0  0  0  0
 10 11  1  0  0  0  0
 10 12  2  0  0  0  0
 11 13  2  0  0  0  0
 13 14  1  0  0  0  0
 13 39  1  0  0  0  0
 14 15  2  0  0  0  0
 14 40  1  0  0  0  0
 15 16  1  0  0  0  0
 15 18  1  0  0  0  0
 16 17  2  0  0  0  0
 16 41  1  0  0  0  0
 17 11  1  0  0  0  0
 17 42  1  0  0  0  0
 18 19  1  0  0  0  0
 18 20  2  0  0  0  0
 19 30  1  0  0  0  0
 19 31  1  0  0  0  0
 20 43  1  0  0  0  0
 21 22  1  0  0  0  0
 21 29  2  0  0  0  0
 22 23  1  0  0  0  0
 22 44  1  0  0  0  0
 23 24  2  0  0  0  0
 24 25  1  0  0  0  0
 24 45  1  0  0  0  0
 25 26  2  0  0  0  0
 25 46  1  0  0  0  0
 26 27  1  0  0  0  0
 26 47  1  0  0  0  0
 27 28  2  0  0  0  0
 27 48  1  0  0  0  0
 28 23  1  0  0  0  0
 30 49  1  0  0  0  0
 30 50  1  0  0  0  0
 30 51  1  0  0  0  0
 31 52  1  0  0  0  0
 31 53  1  0  0  0  0
 31 54  1  0  0  0  0
M  END
>  <Mol_ID>
3111

>  <Formula>
C23H22ClN5O3

>  <MolWeight>
451.90548

>  <Cat>
S5388

>  <Name>
Betrixaban

>  <Synonyms>
PRT054021

>  <Target>
Factor Xa

>  <Form>
free base

>  <CAS>
330942-05-7

>  <URL>
https://www.selleckchem.com/products/betrixaban.html

$$$$
