S5392 Mepivacaine.cdx
 OpenBabel08302520293D

 40 41  0  0  0  0  0  0  0  0999 V2000
   -0.1680   -0.0508    0.5720 N   0  0  0  0  0  0  0  0  0  0  0  0
   -0.2870   -1.2544   -0.3103 C   0  0  3  0  0  0  0  0  0  0  0  0
    1.0696   -1.8374   -0.7466 C   0  0  0  0  0  0  0  0  0  0  0  0
    2.0031   -0.7810   -1.3162 C   0  0  0  0  0  0  0  0  0  0  0  0
    2.1576    0.3452   -0.3095 C   0  0  0  0  0  0  0  0  0  0  0  0
    0.7918    0.9356    0.0246 C   0  0  0  0  0  0  0  0  0  0  0  0
   -1.0576   -2.4163    0.3831 C   0  0  0  0  0  0  0  0  0  0  0  0
   -1.7000   -3.2200   -0.2924 O   0  0  0  0  0  0  0  0  0  0  0  0
   -0.9062   -2.4784    1.7601 N   0  0  0  0  0  0  0  0  0  0  0  0
   -1.4719    0.6296    0.6818 C   0  0  0  0  0  0  0  0  0  0  0  0
   -1.4310   -3.5190    2.5731 C   0  0  0  0  0  0  0  0  0  0  0  0
   -0.9387   -4.8414    2.4722 C   0  0  0  0  0  0  0  0  0  0  0  0
   -1.2748   -5.7774    3.4742 C   0  0  0  0  0  0  0  0  0  0  0  0
   -2.0937   -5.4314    4.5403 C   0  0  0  0  0  0  0  0  0  0  0  0
   -2.6418   -4.1573    4.5949 C   0  0  0  0  0  0  0  0  0  0  0  0
   -2.3349   -3.1989    3.6095 C   0  0  0  0  0  0  0  0  0  0  0  0
   -3.1920   -1.9623    3.5833 C   0  0  0  0  0  0  0  0  0  0  0  0
   -0.0266   -5.3027    1.3721 C   0  0  0  0  0  0  0  0  0  0  0  0
   -0.8536   -0.9794   -1.2114 H   0  0  0  0  0  0  0  0  0  0  0  0
    1.5627   -2.3359    0.0983 H   0  0  0  0  0  0  0  0  0  0  0  0
    0.9053   -2.6124   -1.5065 H   0  0  0  0  0  0  0  0  0  0  0  0
    2.9794   -1.2209   -1.5471 H   0  0  0  0  0  0  0  0  0  0  0  0
    1.5962   -0.3892   -2.2570 H   0  0  0  0  0  0  0  0  0  0  0  0
    2.6422   -0.0269    0.6014 H   0  0  0  0  0  0  0  0  0  0  0  0
    2.8070    1.1243   -0.7242 H   0  0  0  0  0  0  0  0  0  0  0  0
    0.3892    1.4028   -0.8851 H   0  0  0  0  0  0  0  0  0  0  0  0
    0.9385    1.7380    0.7584 H   0  0  0  0  0  0  0  0  0  0  0  0
   -0.7881   -1.5640    2.1809 H   0  0  0  0  0  0  0  0  0  0  0  0
   -1.4059    1.4533    1.4022 H   0  0  0  0  0  0  0  0  0  0  0  0
   -1.8047    1.0413   -0.2792 H   0  0  0  0  0  0  0  0  0  0  0  0
   -2.2529   -0.0435    1.0435 H   0  0  0  0  0  0  0  0  0  0  0  0
   -0.8813   -6.7923    3.4272 H   0  0  0  0  0  0  0  0  0  0  0  0
   -2.3305   -6.1626    5.3095 H   0  0  0  0  0  0  0  0  0  0  0  0
   -3.3414   -3.9194    5.3934 H   0  0  0  0  0  0  0  0  0  0  0  0
   -2.7426   -1.1400    3.0275 H   0  0  0  0  0  0  0  0  0  0  0  0
   -4.1474   -2.2162    3.1060 H   0  0  0  0  0  0  0  0  0  0  0  0
   -3.3993   -1.6038    4.5961 H   0  0  0  0  0  0  0  0  0  0  0  0
   -0.5121   -5.2027    0.3996 H   0  0  0  0  0  0  0  0  0  0  0  0
    0.9138   -4.7454    1.3859 H   0  0  0  0  0  0  0  0  0  0  0  0
    0.2164   -6.3670    1.4770 H   0  0  0  0  0  0  0  0  0  0  0  0
  1  2  1  0  0  0  0
  1  6  1  0  0  0  0
  1 10  1  0  0  0  0
  2  3  1  0  0  0  0
  2  7  1  0  0  0  0
  2 19  1  0  0  0  0
  3  4  1  0  0  0  0
  3 20  1  0  0  0  0
  3 21  1  0  0  0  0
  4  5  1  0  0  0  0
  4 22  1  0  0  0  0
  4 23  1  0  0  0  0
  5  6  1  0  0  0  0
  5 24  1  0  0  0  0
  5 25  1  0  0  0  0
  6 26  1  0  0  0  0
  6 27  1  0  0  0  0
  7  8  2  0  0  0  0
  7  9  1  0  0  0  0
  9 11  1  0  0  0  0
  9 28  1  0  0  0  0
 10 29  1  0  0  0  0
 10 30  1  0  0  0  0
 10 31  1  0  0  0  0
 11 12  2  0  0  0  0
 11 16  1  0  0  0  0
 12 13  1  0  0  0  0
 12 18  1  0  0  0  0
 13 14  2  0  0  0  0
 13 32  1  0  0  0  0
 14 15  1  0  0  0  0
 14 33  1  0  0  0  0
 15 16  2  0  0  0  0
 15 34  1  0  0  0  0
 16 17  1  0  0  0  0
 17 35  1  0  0  0  0
 17 36  1  0  0  0  0
 17 37  1  0  0  0  0
 18 38  1  0  0  0  0
 18 39  1  0  0  0  0
 18 40  1  0  0  0  0
M  END
>  <Mol_ID>
3226

>  <Formula>
C15H22N2O

>  <MolWeight>
246.34798

>  <Cat>
S5392

>  <Name>
Mepivacaine

>  <Synonyms>
Carbocaine

>  <Target>
Others

>  <Form>
free base

>  <CAS>
96-88-8

>  <URL>
https://www.selleckchem.com/products/mepivacaine.html

$$$$
