S5394 Tizoxanide.cdx
 OpenBabel08302520143D

 25 26  0  0  0  0  0  0  0  0999 V2000
    1.1109    0.0025    0.0417 C   0  0  0  0  0  0  0  0  0  0  0  0
    0.3532   -1.2680   -0.1104 C   0  0  0  0  0  0  0  0  0  0  0  0
   -0.9169   -1.3893    0.4689 C   0  0  0  0  0  0  0  0  0  0  0  0
   -1.6165   -2.5910    0.3904 C   0  0  0  0  0  0  0  0  0  0  0  0
   -1.0695   -3.6696   -0.3052 C   0  0  0  0  0  0  0  0  0  0  0  0
    0.1720   -3.5430   -0.9294 C   0  0  0  0  0  0  0  0  0  0  0  0
    0.8860   -2.3455   -0.8335 C   0  0  0  0  0  0  0  0  0  0  0  0
    0.4662    1.0439    0.0891 O   0  0  0  0  0  0  0  0  0  0  0  0
    2.4687   -0.1480    0.2049 N   0  0  0  0  0  0  0  0  0  0  0  0
    4.9230    0.4992    0.6966 S   0  0  0  0  0  0  0  0  0  0  0  0
    3.3174    0.9201    0.2840 C   0  0  0  0  0  0  0  0  0  0  0  0
    3.0846    2.1888    0.0606 N   0  0  0  0  0  0  0  0  0  0  0  0
    4.2626    2.9021    0.2053 C   0  0  0  0  0  0  0  0  0  0  0  0
    5.3508    2.1396    0.5561 C   0  0  0  0  0  0  0  0  0  0  0  0
    6.6887    2.5900    0.7642 N   0  3  0  0  0  0  0  0  0  0  0  0
    6.9173    3.7764    0.4963 O   0  0  0  0  0  0  0  0  0  0  0  0
    7.5181    1.7755    1.1880 O   0  5  0  0  0  0  0  0  0  0  0  0
   -1.5324   -0.3628    1.1337 O   0  0  0  0  0  0  0  0  0  0  0  0
   -2.5919   -2.6816    0.8617 H   0  0  0  0  0  0  0  0  0  0  0  0
   -1.6218   -4.6041   -0.3733 H   0  0  0  0  0  0  0  0  0  0  0  0
    0.5783   -4.3776   -1.4968 H   0  0  0  0  0  0  0  0  0  0  0  0
    1.8371   -2.2608   -1.3522 H   0  0  0  0  0  0  0  0  0  0  0  0
    2.8709   -1.0599    0.3624 H   0  0  0  0  0  0  0  0  0  0  0  0
    4.2585    3.9733    0.0359 H   0  0  0  0  0  0  0  0  0  0  0  0
   -1.0577    0.4694    0.9082 H   0  0  0  0  0  0  0  0  0  0  0  0
  1  2  1  0  0  0  0
  1  8  2  0  0  0  0
  1  9  1  0  0  0  0
  2  3  2  0  0  0  0
  2  7  1  0  0  0  0
  3  4  1  0  0  0  0
  3 18  1  0  0  0  0
  4  5  2  0  0  0  0
  4 19  1  0  0  0  0
  5  6  1  0  0  0  0
  5 20  1  0  0  0  0
  6  7  2  0  0  0  0
  6 21  1  0  0  0  0
  7 22  1  0  0  0  0
  9 11  1  0  0  0  0
  9 23  1  0  0  0  0
 10 11  1  0  0  0  0
 10 14  1  0  0  0  0
 11 12  2  0  0  0  0
 12 13  1  0  0  0  0
 13 14  2  0  0  0  0
 13 24  1  0  0  0  0
 14 15  1  0  0  0  0
 15 16  2  0  0  0  0
 15 17  1  0  0  0  0
 18 25  1  0  0  0  0
M  CHG  2  15   1  17  -1
M  END
>  <Mol_ID>
3121

>  <Formula>
C10H7N3O4S

>  <MolWeight>
265.24528

>  <Cat>
S5394

>  <Name>
Tizoxanide

>  <Synonyms>
Desacetyl-nitazoxanide

>  <Target>
HCV Protease

>  <Form>
free base

>  <CAS>
173903-47-4

>  <URL>
http://selleckchem.com/products/tizoxanide.html

$$$$
