S5390 N-(Hytroxymethy)micotinamide.cdx
 OpenBabel08302520013D

 19 19  0  0  0  0  0  0  0  0999 V2000
    0.6667    1.2957    0.0097 C   0  0  0  0  0  0  0  0  0  0  0  0
    1.3741    2.6052   -0.0001 C   0  0  0  0  0  0  0  0  0  0  0  0
    1.4233    0.1179    0.0081 C   0  0  0  0  0  0  0  0  0  0  0  0
   -0.7154    1.1575    0.0041 C   0  0  0  0  0  0  0  0  0  0  0  0
    0.6150    3.7540   -0.0440 N   0  0  0  0  0  0  0  0  0  0  0  0
    2.6014    2.6333    0.0123 O   0  0  0  0  0  0  0  0  0  0  0  0
    0.7860   -1.1232    0.0052 C   0  0  0  0  0  0  0  0  0  0  0  0
   -1.3658   -0.0361    0.0024 N   0  0  0  0  0  0  0  0  0  0  0  0
    1.2229    5.0423    0.0072 C   0  0  0  0  0  0  0  0  0  0  0  0
   -0.5976   -1.1476    0.0030 C   0  0  0  0  0  0  0  0  0  0  0  0
    0.3257    5.8911   -0.6659 O   0  0  0  0  0  0  0  0  0  0  0  0
    2.5110    0.1618    0.0042 H   0  0  0  0  0  0  0  0  0  0  0  0
   -1.3903    2.0037   -0.0041 H   0  0  0  0  0  0  0  0  0  0  0  0
   -0.3823    3.7539    0.0962 H   0  0  0  0  0  0  0  0  0  0  0  0
    1.3566   -2.0430    0.0015 H   0  0  0  0  0  0  0  0  0  0  0  0
    1.3153    5.3586    1.0498 H   0  0  0  0  0  0  0  0  0  0  0  0
    2.2035    5.0596   -0.4774 H   0  0  0  0  0  0  0  0  0  0  0  0
   -1.1424   -2.0877    0.0013 H   0  0  0  0  0  0  0  0  0  0  0  0
    0.3389    5.5829   -1.5876 H   0  0  0  0  0  0  0  0  0  0  0  0
  1  2  1  0  0  0  0
  1  3  2  0  0  0  0
  1  4  1  0  0  0  0
  2  5  1  0  0  0  0
  2  6  2  0  0  0  0
  3  7  1  0  0  0  0
  3 12  1  0  0  0  0
  4  8  2  0  0  0  0
  4 13  1  0  0  0  0
  5  9  1  0  0  0  0
  5 14  1  0  0  0  0
  7 10  2  0  0  0  0
  7 15  1  0  0  0  0
  8 10  1  0  0  0  0
  9 11  1  0  0  0  0
  9 16  1  0  0  0  0
  9 17  1  0  0  0  0
 10 18  1  0  0  0  0
 11 19  1  0  0  0  0
M  END
>  <Mol_ID>
2997

>  <Formula>
C7H8N2O2

>  <MolWeight>
152.15062

>  <Cat>
S5390

>  <Name>
N-(Hytroxymethy)micotinamide

>  <Synonyms>
Nikomethamide, Bilamid, N-hydroxymethylnicotinamide

>  <Target>
Anti-infection

>  <Form>
free base

>  <CAS>
3569-99-1

>  <URL>
http://selleckchem.com/products/n-hytroxymethy-micotinamide.html

$$$$
