S5395 Phenolphthalein.cdx
 OpenBabel08302520293D

 38 41  0  0  0  0  0  0  0  0999 V2000
    0.7297   -1.8625   -0.0177 C   0  0  0  0  0  0  0  0  0  0  0  0
   -0.4448   -0.9240   -0.0294 C   0  0  0  0  0  0  0  0  0  0  0  0
    0.8659   -2.6478   -1.3434 C   0  0  0  0  0  0  0  0  0  0  0  0
    0.8159   -2.7542    1.2387 C   0  0  0  0  0  0  0  0  0  0  0  0
    1.8464   -0.9245    0.0842 O   0  0  0  0  0  0  0  0  0  0  0  0
    0.0105    0.3789   -0.0730 C   0  0  0  0  0  0  0  0  0  0  0  0
   -1.8107   -1.1704    0.0564 C   0  0  0  0  0  0  0  0  0  0  0  0
    2.0227   -2.5437   -2.1430 C   0  0  0  0  0  0  0  0  0  0  0  0
   -0.1116   -3.5896   -1.7279 C   0  0  0  0  0  0  0  0  0  0  0  0
    1.3786   -4.0479    1.1940 C   0  0  0  0  0  0  0  0  0  0  0  0
    0.3716   -2.2901    2.4947 C   0  0  0  0  0  0  0  0  0  0  0  0
    1.4617    0.3774   -0.0353 C   0  0  0  0  0  0  0  0  0  0  0  0
   -0.8369    1.4748   -0.0657 C   0  0  0  0  0  0  0  0  0  0  0  0
   -2.6916   -0.0840    0.0655 C   0  0  0  0  0  0  0  0  0  0  0  0
    2.2243   -3.3878   -3.2398 C   0  0  0  0  0  0  0  0  0  0  0  0
    0.0902   -4.4317   -2.8245 C   0  0  0  0  0  0  0  0  0  0  0  0
    1.4387   -4.8613    2.3293 C   0  0  0  0  0  0  0  0  0  0  0  0
    0.4314   -3.1022    3.6307 C   0  0  0  0  0  0  0  0  0  0  0  0
    2.1900    1.3474   -0.0697 O   0  0  0  0  0  0  0  0  0  0  0  0
   -2.2093    1.2321   -0.0034 C   0  0  0  0  0  0  0  0  0  0  0  0
    1.2648   -4.3400   -3.5567 C   0  0  0  0  0  0  0  0  0  0  0  0
    0.9578   -4.3817    3.5388 C   0  0  0  0  0  0  0  0  0  0  0  0
    1.4514   -5.2268   -4.5746 O   0  0  0  0  0  0  0  0  0  0  0  0
    0.9946   -5.1409    4.6694 O   0  0  0  0  0  0  0  0  0  0  0  0
   -2.1981   -2.1807    0.1457 H   0  0  0  0  0  0  0  0  0  0  0  0
    2.8077   -1.8293   -1.8982 H   0  0  0  0  0  0  0  0  0  0  0  0
   -1.0180   -3.7233   -1.1432 H   0  0  0  0  0  0  0  0  0  0  0  0
    1.7802   -4.4538    0.2670 H   0  0  0  0  0  0  0  0  0  0  0  0
   -0.0307   -1.2858    2.6110 H   0  0  0  0  0  0  0  0  0  0  0  0
   -0.4439    2.4874   -0.0885 H   0  0  0  0  0  0  0  0  0  0  0  0
   -3.7636   -0.2604    0.1394 H   0  0  0  0  0  0  0  0  0  0  0  0
    3.1427   -3.3004   -3.8123 H   0  0  0  0  0  0  0  0  0  0  0  0
   -0.6536   -5.1800   -3.0845 H   0  0  0  0  0  0  0  0  0  0  0  0
    1.8634   -5.8566    2.2440 H   0  0  0  0  0  0  0  0  0  0  0  0
    0.0711   -2.7317    4.5865 H   0  0  0  0  0  0  0  0  0  0  0  0
   -2.9092    2.0646    0.0098 H   0  0  0  0  0  0  0  0  0  0  0  0
    2.3419   -5.0953   -4.9401 H   0  0  0  0  0  0  0  0  0  0  0  0
    1.4250   -5.9860    4.4598 H   0  0  0  0  0  0  0  0  0  0  0  0
  1  2  1  0  0  0  0
  1  3  1  0  0  0  0
  1  4  1  0  0  0  0
  1  5  1  0  0  0  0
  2  6  2  0  0  0  0
  2  7  1  0  0  0  0
  3  8  2  0  0  0  0
  3  9  1  0  0  0  0
  4 10  2  0  0  0  0
  4 11  1  0  0  0  0
  5 12  1  0  0  0  0
  6 13  1  0  0  0  0
  6 12  1  0  0  0  0
  7 14  2  0  0  0  0
  7 25  1  0  0  0  0
  8 15  1  0  0  0  0
  8 26  1  0  0  0  0
  9 16  2  0  0  0  0
  9 27  1  0  0  0  0
 10 17  1  0  0  0  0
 10 28  1  0  0  0  0
 11 18  2  0  0  0  0
 11 29  1  0  0  0  0
 12 19  2  0  0  0  0
 13 20  2  0  0  0  0
 13 30  1  0  0  0  0
 14 20  1  0  0  0  0
 14 31  1  0  0  0  0
 15 21  2  0  0  0  0
 15 32  1  0  0  0  0
 16 21  1  0  0  0  0
 16 33  1  0  0  0  0
 17 22  2  0  0  0  0
 17 34  1  0  0  0  0
 18 22  1  0  0  0  0
 18 35  1  0  0  0  0
 20 36  1  0  0  0  0
 21 23  1  0  0  0  0
 22 24  1  0  0  0  0
 23 37  1  0  0  0  0
 24 38  1  0  0  0  0
M  END
>  <Mol_ID>
3235

>  <Formula>
C20H14O4

>  <MolWeight>
318.32276

>  <Cat>
S5395

>  <Name>
Phenolphthalein

>  <Synonyms>
Phthalimetten

>  <Target>
Dyes

>  <Form>
free base

>  <CAS>
77-09-8

>  <URL>
https://www.selleckchem.com/products/phenolphthalein.html

$$$$
