S5400 3-chloro-5-hydroxybenzoic Acid.cdx
 OpenBabel08302520143D

 16 16  0  0  0  0  0  0  0  0999 V2000
   -1.2202   -1.2276   -0.0068 C   0  0  0  0  0  0  0  0  0  0  0  0
   -2.0342   -2.4687   -0.0095 C   0  0  0  0  0  0  0  0  0  0  0  0
   -1.8962    0.0012   -0.0117 C   0  0  0  0  0  0  0  0  0  0  0  0
    0.1811   -1.2532    0.0018 C   0  0  0  0  0  0  0  0  0  0  0  0
   -1.1776    1.1982   -0.0027 C   0  0  0  0  0  0  0  0  0  0  0  0
    0.8833   -0.0501    0.0076 C   0  0  0  0  0  0  0  0  0  0  0  0
    0.2154    1.1704    0.0086 C   0  0  0  0  0  0  0  0  0  0  0  0
   -3.2493   -2.5236   -0.0169 O   0  0  0  0  0  0  0  0  0  0  0  0
   -1.2868   -3.5859   -0.0012 O   0  0  0  0  0  0  0  0  0  0  0  0
    2.2471   -0.0175    0.0115 O   0  0  0  0  0  0  0  0  0  0  0  0
   -2.9841    0.0295   -0.0214 H   0  0  0  0  0  0  0  0  0  0  0  0
    0.7098   -2.2011    0.0053 H   0  0  0  0  0  0  0  0  0  0  0  0
   -1.7028    2.1499   -0.0046 H   0  0  0  0  0  0  0  0  0  0  0  0
    0.7811    2.0984    0.0168 H   0  0  0  0  0  0  0  0  0  0  0  0
   -1.9513   -4.3072   -0.0022 H   0  0  0  0  0  0  0  0  0  0  0  0
    2.5871   -0.9269   -0.0160 H   0  0  0  0  0  0  0  0  0  0  0  0
  2  1  1  0  0  0  0
  3  1  2  0  0  0  0
  3 11  1  0  0  0  0
  4  1  1  0  0  0  0
  4 12  1  0  0  0  0
  5  3  1  0  0  0  0
  5  7  2  0  0  0  0
  5 13  1  0  0  0  0
  6  4  2  0  0  0  0
  7  6  1  0  0  0  0
  7 14  1  0  0  0  0
  8  2  2  0  0  0  0
  9  2  1  0  0  0  0
  9 15  1  0  0  0  0
 10  6  1  0  0  0  0
 10 16  1  0  0  0  0
M  END
>  <Mol_ID>
3206

>  <Formula>
C7H5ClO3

>  <MolWeight>
172.5658

>  <Cat>
S5400

>  <Name>
3-chloro-5-hydroxybenzoic Acid

>  <Target>
GPR

>  <Form>
free base

>  <CAS>
53984-36-4

>  <URL>
https://www.selleckchem.com/products/3-chloro-5-hydroxybenzoic-acid.html

$$$$
