S5402 Dasabuvir(ABT-333).cdx
 OpenBabel08302520013D

 62 65  0  0  0  0  0  0  0  0999 V2000
    2.8762    2.1072   -1.4417 C   0  0  0  0  0  0  0  0  0  0  0  0
    2.3771    1.4329   -3.0123 S   0  0  0  0  0  0  0  0  0  0  0  0
    0.6924    1.4324   -2.8623 N   0  0  0  0  0  0  0  0  0  0  0  0
    0.0025    2.6032   -3.2837 C   0  0  0  0  0  0  0  0  0  0  0  0
   -0.3179    2.7876   -4.6280 C   0  0  0  0  0  0  0  0  0  0  0  0
   -0.9484    3.9703   -5.0247 C   0  0  0  0  0  0  0  0  0  0  0  0
   -1.3039    4.9413   -4.0779 C   0  0  0  0  0  0  0  0  0  0  0  0
   -1.0389    4.7068   -2.7224 C   0  0  0  0  0  0  0  0  0  0  0  0
   -0.3288    3.5639   -2.3357 C   0  0  0  0  0  0  0  0  0  0  0  0
   -1.5157    5.6099   -1.7681 C   0  0  0  0  0  0  0  0  0  0  0  0
   -2.2999    6.6990   -2.1603 C   0  0  0  0  0  0  0  0  0  0  0  0
   -2.4815    7.0340   -3.5101 C   0  0  0  0  0  0  0  0  0  0  0  0
   -3.2912    8.2206   -3.9293 C   0  0  0  0  0  0  0  0  0  0  0  0
   -4.0451    8.0914   -5.1205 C   0  0  0  0  0  0  0  0  0  0  0  0
   -4.9822    9.0338   -5.5284 C   0  0  0  0  0  0  0  0  0  0  0  0
   -5.7741    8.8122   -6.6998 N   0  0  0  0  0  0  0  0  0  0  0  0
   -5.1318    8.4588   -7.8998 C   0  0  0  0  0  0  0  0  0  0  0  0
   -3.9175    8.3361   -8.0570 O   0  0  0  0  0  0  0  0  0  0  0  0
   -5.9597    8.2867   -8.9847 N   0  0  0  0  0  0  0  0  0  0  0  0
   -7.3113    8.4780   -9.0082 C   0  0  0  0  0  0  0  0  0  0  0  0
   -7.9755    8.4251  -10.0361 O   0  0  0  0  0  0  0  0  0  0  0  0
   -7.9357    8.7630   -7.7149 C   0  0  0  0  0  0  0  0  0  0  0  0
   -7.1545    8.9322   -6.6464 C   0  0  0  0  0  0  0  0  0  0  0  0
   -5.2063   10.1416   -4.7161 C   0  0  0  0  0  0  0  0  0  0  0  0
   -4.4922   10.3555   -3.5163 C   0  0  0  0  0  0  0  0  0  0  0  0
   -4.9052   11.5376   -2.5965 C   0  0  0  0  0  0  0  0  0  0  0  0
   -3.4730    9.4134   -3.1701 C   0  0  0  0  0  0  0  0  0  0  0  0
   -2.8061    9.6732   -1.9940 O   0  0  0  0  0  0  0  0  0  0  0  0
   -1.9503    6.1328   -4.4558 C   0  0  0  0  0  0  0  0  0  0  0  0
    2.7815    2.3364   -4.0677 O   0  0  0  0  0  0  0  0  0  0  0  0
    2.7636    0.0380   -3.0364 O   0  0  0  0  0  0  0  0  0  0  0  0
   -6.1330   12.3313   -3.1285 C   0  0  0  0  0  0  0  0  0  0  0  0
   -5.3334   11.0024   -1.2104 C   0  0  0  0  0  0  0  0  0  0  0  0
   -3.7694   12.5673   -2.4408 C   0  0  0  0  0  0  0  0  0  0  0  0
   -1.3798    9.5965   -1.9948 C   0  0  0  0  0  0  0  0  0  0  0  0
    2.5003    3.1271   -1.3501 H   0  0  0  0  0  0  0  0  0  0  0  0
    3.9682    2.1193   -1.4143 H   0  0  0  0  0  0  0  0  0  0  0  0
    2.4915    1.4720   -0.6414 H   0  0  0  0  0  0  0  0  0  0  0  0
    0.3261    0.5561   -3.2368 H   0  0  0  0  0  0  0  0  0  0  0  0
   -0.0748    2.0345   -5.3689 H   0  0  0  0  0  0  0  0  0  0  0  0
   -1.1968    4.1032   -6.0774 H   0  0  0  0  0  0  0  0  0  0  0  0
   -0.0786    3.4027   -1.2917 H   0  0  0  0  0  0  0  0  0  0  0  0
   -1.3393    5.4515   -0.7068 H   0  0  0  0  0  0  0  0  0  0  0  0
   -2.7627    7.2916   -1.3780 H   0  0  0  0  0  0  0  0  0  0  0  0
   -3.9790    7.1808   -5.7109 H   0  0  0  0  0  0  0  0  0  0  0  0
   -5.5064    8.1062   -9.8659 H   0  0  0  0  0  0  0  0  0  0  0  0
   -9.0144    8.8277   -7.6782 H   0  0  0  0  0  0  0  0  0  0  0  0
   -7.5958    9.1280   -5.6727 H   0  0  0  0  0  0  0  0  0  0  0  0
   -5.9500   10.8549   -5.0556 H   0  0  0  0  0  0  0  0  0  0  0  0
   -2.0654    6.3274   -5.5216 H   0  0  0  0  0  0  0  0  0  0  0  0
   -7.0086   11.6822   -3.2543 H   0  0  0  0  0  0  0  0  0  0  0  0
   -6.4259   13.1281   -2.4352 H   0  0  0  0  0  0  0  0  0  0  0  0
   -5.9190   12.8123   -4.0907 H   0  0  0  0  0  0  0  0  0  0  0  0
   -4.5221   10.5144   -0.6652 H   0  0  0  0  0  0  0  0  0  0  0  0
   -5.6903   11.8150   -0.5673 H   0  0  0  0  0  0  0  0  0  0  0  0
   -6.1461   10.2725   -1.3087 H   0  0  0  0  0  0  0  0  0  0  0  0
   -2.8773   12.1519   -1.9679 H   0  0  0  0  0  0  0  0  0  0  0  0
   -3.4704   12.9767   -3.4127 H   0  0  0  0  0  0  0  0  0  0  0  0
   -4.0934   13.4091   -1.8153 H   0  0  0  0  0  0  0  0  0  0  0  0
   -1.0698    8.8388   -1.2670 H   0  0  0  0  0  0  0  0  0  0  0  0
   -0.9345    9.3859   -2.9705 H   0  0  0  0  0  0  0  0  0  0  0  0
   -0.9807   10.5445   -1.6215 H   0  0  0  0  0  0  0  0  0  0  0  0
  1  2  1  0  0  0  0
  1 36  1  0  0  0  0
  1 37  1  0  0  0  0
  1 38  1  0  0  0  0
  2  3  1  0  0  0  0
  2 30  2  0  0  0  0
  2 31  2  0  0  0  0
  3  4  1  0  0  0  0
  3 39  1  0  0  0  0
  4  5  2  0  0  0  0
  5  6  1  0  0  0  0
  5 40  1  0  0  0  0
  6  7  2  0  0  0  0
  6 41  1  0  0  0  0
  7  8  1  0  0  0  0
  7 29  1  0  0  0  0
  9  8  2  0  0  0  0
  9  4  1  0  0  0  0
  9 42  1  0  0  0  0
 10  8  1  0  0  0  0
 10 43  1  0  0  0  0
 11 10  2  0  0  0  0
 11 44  1  0  0  0  0
 12 11  1  0  0  0  0
 12 13  1  0  0  0  0
 13 14  2  0  0  0  0
 13 27  1  0  0  0  0
 14 45  1  0  0  0  0
 15 14  1  0  0  0  0
 15 16  1  0  0  0  0
 17 16  1  0  0  0  0
 17 19  1  0  0  0  0
 17 18  2  0  0  0  0
 19 20  1  0  0  0  0
 19 46  1  0  0  0  0
 20 22  1  0  0  0  0
 20 21  2  0  0  0  0
 22 23  2  0  0  0  0
 22 47  1  0  0  0  0
 23 16  1  0  0  0  0
 23 48  1  0  0  0  0
 24 15  2  0  0  0  0
 24 49  1  0  0  0  0
 25 24  1  0  0  0  0
 25 26  1  0  0  0  0
 26 32  1  0  0  0  0
 26 33  1  0  0  0  0
 26 34  1  0  0  0  0
 27 25  2  0  0  0  0
 27 28  1  0  0  0  0
 28 35  1  0  0  0  0
 29 12  2  0  0  0  0
 29 50  1  0  0  0  0
 32 51  1  0  0  0  0
 32 52  1  0  0  0  0
 32 53  1  0  0  0  0
 33 54  1  0  0  0  0
 33 55  1  0  0  0  0
 33 56  1  0  0  0  0
 34 57  1  0  0  0  0
 34 58  1  0  0  0  0
 34 59  1  0  0  0  0
 35 60  1  0  0  0  0
 35 61  1  0  0  0  0
 35 62  1  0  0  0  0
M  END
>  <Mol_ID>
2889

>  <Formula>
C26H27N3O5S

>  <MolWeight>
493.57468

>  <Cat>
S5402

>  <Name>
Dasabuvir (ABT-333)

>  <Synonyms>
N/A

>  <Target>
HCV Protease

>  <Form>
free base

>  <CAS>
1132935-63-7

>  <URL>
http://selleckchem.com/products/dasabuvir-abt-333.html

$$$$
