S5405 Propylparaben.cdx
 OpenBabel08302520143D

 25 25  0  0  0  0  0  0  0  0999 V2000
   -1.8165   -0.0375   -0.5365 C   0  0  0  0  0  0  0  0  0  0  0  0
   -3.2983    0.1171   -0.5691 C   0  0  0  0  0  0  0  0  0  0  0  0
   -1.2760   -1.2889   -0.8723 C   0  0  0  0  0  0  0  0  0  0  0  0
   -0.9565    1.0117   -0.1820 C   0  0  0  0  0  0  0  0  0  0  0  0
   -3.6541    1.3551   -0.1495 O   0  0  0  0  0  0  0  0  0  0  0  0
   -4.0588   -0.7705   -0.9218 O   0  0  0  0  0  0  0  0  0  0  0  0
    0.1074   -1.4934   -0.8391 C   0  0  0  0  0  0  0  0  0  0  0  0
    0.4249    0.8056   -0.1528 C   0  0  0  0  0  0  0  0  0  0  0  0
   -5.0612    1.6391   -0.1268 C   0  0  0  0  0  0  0  0  0  0  0  0
    0.9447   -0.4451   -0.4748 C   0  0  0  0  0  0  0  0  0  0  0  0
   -5.4949    2.3266   -1.4179 C   0  0  0  0  0  0  0  0  0  0  0  0
    2.2966   -0.6026   -0.4156 O   0  0  0  0  0  0  0  0  0  0  0  0
   -4.7166    3.6077   -1.6830 C   0  0  0  0  0  0  0  0  0  0  0  0
   -1.9304   -2.1099   -1.1549 H   0  0  0  0  0  0  0  0  0  0  0  0
   -1.3456    1.9934    0.0747 H   0  0  0  0  0  0  0  0  0  0  0  0
    0.5058   -2.4693   -1.1020 H   0  0  0  0  0  0  0  0  0  0  0  0
    1.0935    1.6154    0.1258 H   0  0  0  0  0  0  0  0  0  0  0  0
   -5.6541    0.7339    0.0484 H   0  0  0  0  0  0  0  0  0  0  0  0
   -5.2393    2.3013    0.7277 H   0  0  0  0  0  0  0  0  0  0  0  0
   -5.3484    1.6494   -2.2676 H   0  0  0  0  0  0  0  0  0  0  0  0
   -6.5643    2.5570   -1.3599 H   0  0  0  0  0  0  0  0  0  0  0  0
    2.5111   -1.5320   -0.6011 H   0  0  0  0  0  0  0  0  0  0  0  0
   -3.6654    3.3929   -1.9008 H   0  0  0  0  0  0  0  0  0  0  0  0
   -5.1367    4.1340   -2.5457 H   0  0  0  0  0  0  0  0  0  0  0  0
   -4.7590    4.2804   -0.8206 H   0  0  0  0  0  0  0  0  0  0  0  0
  1  2  1  0  0  0  0
  1  3  2  0  0  0  0
  1  4  1  0  0  0  0
  2  5  1  0  0  0  0
  2  6  2  0  0  0  0
  3  7  1  0  0  0  0
  3 14  1  0  0  0  0
  4  8  2  0  0  0  0
  4 15  1  0  0  0  0
  5  9  1  0  0  0  0
  7 10  2  0  0  0  0
  7 16  1  0  0  0  0
  8 10  1  0  0  0  0
  8 17  1  0  0  0  0
  9 11  1  0  0  0  0
  9 18  1  0  0  0  0
  9 19  1  0  0  0  0
 10 12  1  0  0  0  0
 11 13  1  0  0  0  0
 11 20  1  0  0  0  0
 11 21  1  0  0  0  0
 12 22  1  0  0  0  0
 13 23  1  0  0  0  0
 13 24  1  0  0  0  0
 13 25  1  0  0  0  0
M  END
>  <Mol_ID>
3114

>  <Formula>
C10H12O3

>  <MolWeight>
180.20048

>  <Cat>
S5405

>  <Name>
Propylparaben

>  <Synonyms>
Propyl 4-hydroxybenzoate, 4-Hydroxybenzoic acid propyl ester, Propyl p-hydroxybenzoate, nipasol

>  <Target>
Anti-infection

>  <Form>
Benzoate esters

>  <CAS>
94-13-3

>  <URL>
https://www.selleckchem.com/products/propylparaben.html

$$$$
