S5414 Diflucortolone valerate.cdx
 OpenBabel08302520392D

 70 73  0  0  0  0  0  0  0  0999 V2000
    6.0605    3.5236    0.0000 C   0  0  2  0  0  0  0  0  0  0  0  0
    4.8033    4.2340    0.0000 C   0  0  1  0  0  0  0  0  0  0  0  0
    7.1712    4.1663    0.0000 C   0  0  1  0  0  0  0  0  0  0  0  0
    6.1112    2.1199    0.0000 C   0  0  0  0  0  0  0  0  0  0  0  0
    3.6307    3.5404    0.0000 C   0  0  2  0  0  0  0  0  0  0  0  0
    4.7752    5.6210    0.0000 C   0  0  2  0  0  0  0  0  0  0  0  0
    4.8203    2.8303    0.0000 F   0  0  0  0  0  0  0  0  0  0  0  0
    7.1995    5.5870    0.0000 C   0  0  2  0  0  0  0  0  0  0  0  0
    8.4565    3.7040    0.0000 C   0  0  0  0  0  0  0  0  0  0  0  0
    4.8709    1.3927    0.0000 C   0  0  1  0  0  0  0  0  0  0  0  0
    3.6307    2.1199    0.0000 C   0  0  0  0  0  0  0  0  0  0  0  0
    2.4243    4.2508    0.0000 C   0  0  0  0  0  0  0  0  0  0  0  0
    3.5856    4.9612    0.0000 C   0  0  0  0  0  0  0  0  0  0  0  0
    5.9816    6.3311    0.0000 C   0  0  0  0  0  0  0  0  0  0  0  0
    3.5688    6.3143    0.0000 O   0  0  0  0  0  0  0  0  0  0  0  0
    8.5074    5.9985    0.0000 C   0  0  2  0  0  0  0  0  0  0  0  0
    7.3516    6.9738    0.0000 C   0  0  0  0  0  0  0  0  0  0  0  0
    9.3474    4.8261    0.0000 C   0  0  2  0  0  0  0  0  0  0  0  0
    4.8709    0.0000    0.0000 F   0  0  0  0  0  0  0  0  0  0  0  0
    2.4411    1.4433    0.0000 C   0  0  0  0  0  0  0  0  0  0  0  0
    1.2234    3.5574    0.0000 C   0  0  0  0  0  0  0  0  0  0  0  0
    9.0991    7.2221    0.0000 C   0  0  0  0  0  0  0  0  0  0  0  0
   10.7398    4.7921    0.0000 C   0  0  0  0  0  0  0  0  0  0  0  0
    1.1896    2.1367    0.0000 C   0  0  0  0  0  0  0  0  0  0  0  0
   10.4918    7.0077    0.0000 C   0  0  0  0  0  0  0  0  0  0  0  0
    8.5411    8.4453    0.0000 O   0  0  0  0  0  0  0  0  0  0  0  0
    0.0000    1.4433    0.0000 O   0  0  0  0  0  0  0  0  0  0  0  0
   11.4164    8.1015    0.0000 O   0  0  0  0  0  0  0  0  0  0  0  0
   12.8033    7.8364    0.0000 C   0  0  0  0  0  0  0  0  0  0  0  0
   13.2654    6.4946    0.0000 C   0  0  0  0  0  0  0  0  0  0  0  0
   13.9252    8.7948    0.0000 O   0  0  0  0  0  0  0  0  0  0  0  0
   12.3409    5.5081    0.0000 C   0  0  0  0  0  0  0  0  0  0  0  0
   12.7186    4.2170    0.0000 C   0  0  0  0  0  0  0  0  0  0  0  0
   11.7434    3.2080    0.0000 C   0  0  0  0  0  0  0  0  0  0  0  0
    5.1462    2.9677    0.0000 H   0  0  0  0  0  0  0  0  0  0  0  0
    7.2670    3.1006    0.0000 H   0  0  0  0  0  0  0  0  0  0  0  0
    7.0491    1.6048    0.0000 H   0  0  0  0  0  0  0  0  0  0  0  0
    6.1262    1.0500    0.0000 H   0  0  0  0  0  0  0  0  0  0  0  0
    3.8546    5.0757    0.0000 H   0  0  0  0  0  0  0  0  0  0  0  0
    8.7494    2.6749    0.0000 H   0  0  0  0  0  0  0  0  0  0  0  0
    9.5058    3.4947    0.0000 H   0  0  0  0  0  0  0  0  0  0  0  0
    5.7993    0.8608    0.0000 H   0  0  0  0  0  0  0  0  0  0  0  0
    2.4287    5.2828    0.0000 H   0  0  0  0  0  0  0  0  0  0  0  0
    4.4948    5.5253    0.0000 H   0  0  0  0  0  0  0  0  0  0  0  0
    2.6424    5.4665    0.0000 H   0  0  0  0  0  0  0  0  0  0  0  0
    3.5517    6.0307    0.0000 H   0  0  0  0  0  0  0  0  0  0  0  0
    5.9904    7.4011    0.0000 H   0  0  0  0  0  0  0  0  0  0  0  0
    6.9170    6.8507    0.0000 H   0  0  0  0  0  0  0  0  0  0  0  0
    3.5669    7.2843    0.0000 H   0  0  0  0  0  0  0  0  0  0  0  0
    7.8078    6.8081    0.0000 H   0  0  0  0  0  0  0  0  0  0  0  0
    8.3311    7.4046    0.0000 H   0  0  0  0  0  0  0  0  0  0  0  0
    6.4888    7.6066    0.0000 H   0  0  0  0  0  0  0  0  0  0  0  0
    7.4683    8.0374    0.0000 H   0  0  0  0  0  0  0  0  0  0  0  0
    9.8009    3.8570    0.0000 H   0  0  0  0  0  0  0  0  0  0  0  0
    2.4469    0.4113    0.0000 H   0  0  0  0  0  0  0  0  0  0  0  0
    0.3359    4.0840    0.0000 H   0  0  0  0  0  0  0  0  0  0  0  0
   11.2520    3.8527    0.0000 H   0  0  0  0  0  0  0  0  0  0  0  0
   11.2973    5.7054    0.0000 H   0  0  0  0  0  0  0  0  0  0  0  0
   11.8095    4.7660    0.0000 H   0  0  0  0  0  0  0  0  0  0  0  0
   10.8669    6.0056    0.0000 H   0  0  0  0  0  0  0  0  0  0  0  0
   11.5460    6.8248    0.0000 H   0  0  0  0  0  0  0  0  0  0  0  0
   14.3117    6.2709    0.0000 H   0  0  0  0  0  0  0  0  0  0  0  0
   13.5853    5.4735    0.0000 H   0  0  0  0  0  0  0  0  0  0  0  0
   11.3001    5.7564    0.0000 H   0  0  0  0  0  0  0  0  0  0  0  0
   11.6036    4.7327    0.0000 H   0  0  0  0  0  0  0  0  0  0  0  0
   13.7575    3.9607    0.0000 H   0  0  0  0  0  0  0  0  0  0  0  0
   13.0146    3.1888    0.0000 H   0  0  0  0  0  0  0  0  0  0  0  0
   10.7053    3.4673    0.0000 H   0  0  0  0  0  0  0  0  0  0  0  0
   12.0379    2.1793    0.0000 H   0  0  0  0  0  0  0  0  0  0  0  0
   10.9998    2.4386    0.0000 H   0  0  0  0  0  0  0  0  0  0  0  0
  1  2  1  0  0  0  0
  1  3  1  0  0  0  0
  1  4  1  0  0  0  0
  1 35  1  1  0  0  0
  2  5  1  0  0  0  0
  2  6  1  0  0  0  0
  2  7  1  6  0  0  0
  3  8  1  0  0  0  0
  3  9  1  0  0  0  0
  3 36  1  6  0  0  0
  4 10  1  0  0  0  0
  4 37  1  0  0  0  0
  4 38  1  0  0  0  0
  5 11  1  0  0  0  0
  5 12  1  0  0  0  0
  5 13  1  1  0  0  0
  6 14  1  0  0  0  0
  6 15  1  0  0  0  0
  6 39  1  6  0  0  0
  8 16  1  0  0  0  0
  8 17  1  1  0  0  0
  8 14  1  0  0  0  0
  9 18  1  0  0  0  0
  9 40  1  0  0  0  0
  9 41  1  0  0  0  0
 10 19  1  0  0  0  0
 10 11  1  0  0  0  0
 10 42  1  1  0  0  0
 11 20  2  0  0  0  0
 12 21  2  0  0  0  0
 12 43  1  0  0  0  0
 13 44  1  0  0  0  0
 13 45  1  0  0  0  0
 13 46  1  0  0  0  0
 14 47  1  0  0  0  0
 14 48  1  0  0  0  0
 15 49  1  0  0  0  0
 16 22  1  0  0  0  0
 16 18  1  0  0  0  0
 16 50  1  6  0  0  0
 17 51  1  0  0  0  0
 17 52  1  0  0  0  0
 17 53  1  0  0  0  0
 18 23  1  0  0  0  0
 18 54  1  1  0  0  0
 20 24  1  0  0  0  0
 20 55  1  0  0  0  0
 21 24  1  0  0  0  0
 21 56  1  0  0  0  0
 22 25  1  0  0  0  0
 22 26  2  0  0  0  0
 23 57  1  0  0  0  0
 23 58  1  0  0  0  0
 23 59  1  0  0  0  0
 24 27  2  0  0  0  0
 25 28  1  0  0  0  0
 25 60  1  0  0  0  0
 25 61  1  0  0  0  0
 28 29  1  0  0  0  0
 29 30  1  0  0  0  0
 29 31  2  0  0  0  0
 30 32  1  0  0  0  0
 30 62  1  0  0  0  0
 30 63  1  0  0  0  0
 32 33  1  0  0  0  0
 32 64  1  0  0  0  0
 32 65  1  0  0  0  0
 33 34  1  0  0  0  0
 33 66  1  0  0  0  0
 33 67  1  0  0  0  0
 34 68  1  0  0  0  0
 34 69  1  0  0  0  0
 34 70  1  0  0  0  0
M  END
>  <Mol_ID>
3117

>  <Formula>
C27H36F2O5

>  <MolWeight>
478.5685464

>  <Cat>
S5414

>  <Name>
Diflucortolone valerate

>  <Synonyms>
Afusona, Diflucortolone 21-valerate

>  <Target>
Others

>  <Form>
free base

>  <CAS>
59198-70-8

>  <URL>
http://selleckchem.com/products/diflucortolone-valerate.html

$$$$
