S5410 Chloramphenicol sodium succinate.cdx
 OpenBabel08302520013D

 42 42  0  0  0  0  0  0  0  0999 V2000
    0.5622   -0.2271   -0.0178 C   0  0  2  0  0  0  0  0  0  0  0  0
    0.2377   -0.3036   -1.5433 C   0  0  1  0  0  0  0  0  0  0  0  0
   -0.2129   -1.2538    0.7170 N   0  0  0  0  0  0  0  0  0  0  0  0
    0.2863    1.1832    0.5582 C   0  0  0  0  0  0  0  0  0  0  0  0
    0.6726   -1.6240   -2.1781 C   0  0  0  0  0  0  0  0  0  0  0  0
   -1.1751   -0.1409   -1.7782 O   0  0  0  0  0  0  0  0  0  0  0  0
    0.1224   -1.8961    1.8706 C   0  0  0  0  0  0  0  0  0  0  0  0
    1.2767    2.1129    0.1003 O   0  0  0  0  0  0  0  0  0  0  0  0
   -0.2503   -2.4962   -2.7834 C   0  0  0  0  0  0  0  0  0  0  0  0
    2.0350   -1.9693   -2.1992 C   0  0  0  0  0  0  0  0  0  0  0  0
    1.3825   -1.4944    2.5847 C   0  0  0  0  0  0  0  0  0  0  0  0
   -0.6284   -2.7633    2.3172 O   0  0  0  0  0  0  0  0  0  0  0  0
    0.8832    3.1479   -0.6805 C   0  0  0  0  0  0  0  0  0  0  0  0
    0.1703   -3.6728   -3.4061 C   0  0  0  0  0  0  0  0  0  0  0  0
    2.4672   -3.1490   -2.8131 C   0  0  0  0  0  0  0  0  0  0  0  0
    2.0477    3.9620   -1.2129 C   0  0  0  0  0  0  0  0  0  0  0  0
   -0.2856    3.4421   -0.8875 O   0  0  0  0  0  0  0  0  0  0  0  0
    1.5331   -3.9895   -3.4265 C   0  0  0  0  0  0  0  0  0  0  0  0
    3.4392    3.3825   -0.9644 C   0  0  0  0  0  0  0  0  0  0  0  0
    1.9826   -5.2020   -4.1195 N   0  3  0  0  0  0  0  0  0  0  0  0
    3.5452    1.9988   -1.5992 C   0  0  0  0  0  0  0  0  0  0  0  0
    1.1216   -5.9096   -4.6659 O   0  0  0  0  0  0  0  0  0  0  0  0
    3.1958   -5.4564   -4.1224 O   0  5  0  0  0  0  0  0  0  0  0  0
    3.2618    1.9457   -2.8266 O   0  0  0  0  0  0  0  0  0  0  0  0
    3.8602    1.0613   -0.8141 O   0  5  0  0  0  0  0  0  0  0  0  0
    1.6249   -0.4411    0.1242 H   0  0  0  0  0  0  0  0  0  0  0  0
    0.7470    0.5047   -2.0793 H   0  0  0  0  0  0  0  0  0  0  0  0
   -1.0272   -1.6519    0.2619 H   0  0  0  0  0  0  0  0  0  0  0  0
   -0.7359    1.5126    0.3449 H   0  0  0  0  0  0  0  0  0  0  0  0
    0.3753    1.1632    1.6491 H   0  0  0  0  0  0  0  0  0  0  0  0
   -1.6062    0.0945   -0.9440 H   0  0  0  0  0  0  0  0  0  0  0  0
   -1.3107   -2.2510   -2.7984 H   0  0  0  0  0  0  0  0  0  0  0  0
    2.7788   -1.2991   -1.7600 H   0  0  0  0  0  0  0  0  0  0  0  0
    1.2383   -0.5335    3.0828 H   0  0  0  0  0  0  0  0  0  0  0  0
    1.6195   -2.2502    3.3405 H   0  0  0  0  0  0  0  0  0  0  0  0
    2.2309   -1.4455    1.8989 H   0  0  0  0  0  0  0  0  0  0  0  0
   -0.5692   -4.3107   -3.8837 H   0  0  0  0  0  0  0  0  0  0  0  0
    3.5309   -3.3738   -2.8205 H   0  0  0  0  0  0  0  0  0  0  0  0
    1.8881    4.0943   -2.2907 H   0  0  0  0  0  0  0  0  0  0  0  0
    1.9929    4.9494   -0.7410 H   0  0  0  0  0  0  0  0  0  0  0  0
    4.1958    4.0355   -1.4165 H   0  0  0  0  0  0  0  0  0  0  0  0
    3.6505    3.3351    0.1100 H   0  0  0  0  0  0  0  0  0  0  0  0
  1  2  1  0  0  0  0
  1  3  1  0  0  0  0
  1  4  1  0  0  0  0
  1 26  1  1  0  0  0
  2  5  1  0  0  0  0
  2  6  1  0  0  0  0
  2 27  1  6  0  0  0
  3  7  1  0  0  0  0
  3 28  1  0  0  0  0
  4  8  1  0  0  0  0
  4 29  1  0  0  0  0
  4 30  1  0  0  0  0
  5  9  2  0  0  0  0
  5 10  1  0  0  0  0
  6 31  1  0  0  0  0
  7 11  1  0  0  0  0
  7 12  2  0  0  0  0
  8 13  1  0  0  0  0
  9 14  1  0  0  0  0
  9 32  1  0  0  0  0
 10 15  2  0  0  0  0
 10 33  1  0  0  0  0
 11 34  1  0  0  0  0
 11 35  1  0  0  0  0
 11 36  1  0  0  0  0
 13 16  1  0  0  0  0
 13 17  2  0  0  0  0
 14 18  2  0  0  0  0
 14 37  1  0  0  0  0
 15 18  1  0  0  0  0
 15 38  1  0  0  0  0
 16 19  1  0  0  0  0
 16 39  1  0  0  0  0
 16 40  1  0  0  0  0
 18 20  1  0  0  0  0
 19 21  1  0  0  0  0
 19 41  1  0  0  0  0
 19 42  1  0  0  0  0
 20 22  2  0  0  0  0
 20 23  1  0  0  0  0
 21 24  2  0  0  0  0
 21 25  1  0  0  0  0
M  CHG  3  20   1  23  -1  25  -1
M  END
>  <Mol_ID>
3001

>  <Formula>
C15H15Cl2N2NaO8

>  <MolWeight>
445.18397

>  <Cat>
S5410

>  <Name>
Chloramphenicol sodium succinate

>  <Synonyms>
N/A

>  <Target>
Antibiotics,Bacterial

>  <Form>
sodium salt

>  <CAS>
982-57-0

>  <URL>
http://selleckchem.com/products/chloramphenicol-sodium-succinate.html

$$$$
