S5412 Loxoprofen sodium.cdx
 OpenBabel08302521383D

 35 36  0  0  0  0  0  0  0  0999 V2000
    1.3542   -0.1972    0.1851 C   0  0  0  0  0  0  0  0  0  0  0  0
    2.8428   -0.4286    0.2106 C   0  0  0  0  0  0  0  0  0  0  0  0
    0.4633   -1.2692    0.0512 C   0  0  0  0  0  0  0  0  0  0  0  0
    0.8393    1.1010    0.2792 C   0  0  0  0  0  0  0  0  0  0  0  0
    3.5500   -0.3809   -1.1457 C   0  0  3  0  0  0  0  0  0  0  0  0
   -0.9126   -1.0437   -0.0334 C   0  0  0  0  0  0  0  0  0  0  0  0
   -0.5347    1.3245    0.1914 C   0  0  0  0  0  0  0  0  0  0  0  0
    3.3868    0.9452   -1.8433 C   0  0  0  0  0  0  0  0  0  0  0  0
    3.0682   -1.3692   -2.2105 C   0  0  0  0  0  0  0  0  0  0  0  0
   -1.4263    0.2576    0.0170 C   0  0  0  0  0  0  0  0  0  0  0  0
    2.5551    0.8533   -3.0953 C   0  0  0  0  0  0  0  0  0  0  0  0
    3.9051    1.9881   -1.4526 O   0  0  0  0  0  0  0  0  0  0  0  0
    2.1352   -0.6083   -3.1407 C   0  0  0  0  0  0  0  0  0  0  0  0
   -2.9171    0.5005   -0.1514 C   0  0  3  0  0  0  0  0  0  0  0  0
   -3.5107    1.2049    1.0883 C   0  0  0  0  0  0  0  0  0  0  0  0
   -3.1911    1.2612   -1.4494 C   0  0  0  0  0  0  0  0  0  0  0  0
   -3.5180    2.4705    1.0673 O   0  0  0  0  0  0  0  0  0  0  0  0
   -3.9618    0.4243    1.9789 O   0  5  0  0  0  0  0  0  0  0  0  0
    3.2953    0.3187    0.8785 H   0  0  0  0  0  0  0  0  0  0  0  0
    3.0422   -1.3970    0.6868 H   0  0  0  0  0  0  0  0  0  0  0  0
    0.8298   -2.2910    0.0058 H   0  0  0  0  0  0  0  0  0  0  0  0
    1.4981    1.9550    0.4225 H   0  0  0  0  0  0  0  0  0  0  0  0
    4.6243   -0.5462   -0.9838 H   0  0  0  0  0  0  0  0  0  0  0  0
   -1.5891   -1.8887   -0.1371 H   0  0  0  0  0  0  0  0  0  0  0  0
   -0.9199    2.3414    0.2661 H   0  0  0  0  0  0  0  0  0  0  0  0
    3.9294   -1.7298   -2.7815 H   0  0  0  0  0  0  0  0  0  0  0  0
    2.5856   -2.2583   -1.7821 H   0  0  0  0  0  0  0  0  0  0  0  0
    1.6872    1.5135   -3.0274 H   0  0  0  0  0  0  0  0  0  0  0  0
    3.1709    1.1195   -3.9592 H   0  0  0  0  0  0  0  0  0  0  0  0
    2.1917   -1.0027   -4.1639 H   0  0  0  0  0  0  0  0  0  0  0  0
    1.0921   -0.7136   -2.8236 H   0  0  0  0  0  0  0  0  0  0  0  0
   -3.4291   -0.4680   -0.2374 H   0  0  0  0  0  0  0  0  0  0  0  0
   -2.8040    0.7074   -2.3127 H   0  0  0  0  0  0  0  0  0  0  0  0
   -4.2668    1.4050   -1.5954 H   0  0  0  0  0  0  0  0  0  0  0  0
   -2.7228    2.2520   -1.4611 H   0  0  0  0  0  0  0  0  0  0  0  0
  1  2  1  0  0  0  0
  1  3  2  0  0  0  0
  1  4  1  0  0  0  0
  2  5  1  0  0  0  0
  2 19  1  0  0  0  0
  2 20  1  0  0  0  0
  3  6  1  0  0  0  0
  3 21  1  0  0  0  0
  4  7  2  0  0  0  0
  4 22  1  0  0  0  0
  5  8  1  0  0  0  0
  5  9  1  0  0  0  0
  5 23  1  0  0  0  0
  6 10  2  0  0  0  0
  6 24  1  0  0  0  0
  7 10  1  0  0  0  0
  7 25  1  0  0  0  0
  8 11  1  0  0  0  0
  8 12  2  0  0  0  0
  9 13  1  0  0  0  0
  9 26  1  0  0  0  0
  9 27  1  0  0  0  0
 10 14  1  0  0  0  0
 11 13  1  0  0  0  0
 11 28  1  0  0  0  0
 11 29  1  0  0  0  0
 13 30  1  0  0  0  0
 13 31  1  0  0  0  0
 14 15  1  0  0  0  0
 14 16  1  0  0  0  0
 14 32  1  0  0  0  0
 15 17  2  0  0  0  0
 15 18  1  0  0  0  0
 16 33  1  0  0  0  0
 16 34  1  0  0  0  0
 16 35  1  0  0  0  0
M  CHG  1  18  -1
M  END
>  <Mol_ID>
7851

>  <Formula>
C15H17NaO3

>  <MolWeight>
268.28345

>  <Cat>
S5412

>  <Name>
Loxoprofen Sodium

>  <Synonyms>
N/A

>  <Target>
Immunology & Inflammation related

>  <Form>
sodium salt

>  <CAS>
80382-23-6

>  <URL>
https://www.selleckchem.com/products/loxoprofen-sodium.html

$$$$
