S5413 Ertugliflozin.cdx
 OpenBabel08302520143D

 55 58  0  0  0  0  0  0  0  0999 V2000
   -0.9551    0.5476   -0.3212 C   0  0  1  0  0  0  0  0  0  0  0  0
   -0.9352    0.0422    1.0556 O   0  0  0  0  0  0  0  0  0  0  0  0
    0.1321   -0.9435    0.9983 C   0  0  1  0  0  0  0  0  0  0  0  0
    1.4241   -0.0891    1.0013 C   0  0  2  0  0  0  0  0  0  0  0  0
    1.5616    0.7329   -0.2691 C   0  0  1  0  0  0  0  0  0  0  0  0
    0.2649    1.5042   -0.5586 C   0  0  1  0  0  0  0  0  0  0  0  0
    0.3849    1.9630   -1.9198 O   0  0  0  0  0  0  0  0  0  0  0  0
    2.6238   -0.8346    1.1963 O   0  0  0  0  0  0  0  0  0  0  0  0
    2.6835    1.6167   -0.1093 O   0  0  0  0  0  0  0  0  0  0  0  0
    0.2213   -1.9506    2.1553 C   0  0  0  0  0  0  0  0  0  0  0  0
   -0.8544   -2.8663    2.2026 O   0  0  0  0  0  0  0  0  0  0  0  0
   -0.6993   -0.5903   -1.1809 O   0  0  0  0  0  0  0  0  0  0  0  0
   -2.2832    1.2008   -0.6909 C   0  0  0  0  0  0  0  0  0  0  0  0
   -2.7116    1.2311   -2.0384 C   0  0  0  0  0  0  0  0  0  0  0  0
   -3.9415    1.7944   -2.4217 C   0  0  0  0  0  0  0  0  0  0  0  0
   -4.7423    2.3761   -1.4336 C   0  0  0  0  0  0  0  0  0  0  0  0
   -4.3208    2.3956   -0.1025 C   0  0  0  0  0  0  0  0  0  0  0  0
   -3.1024    1.8142    0.2673 C   0  0  0  0  0  0  0  0  0  0  0  0
   -4.4185    1.7054   -3.8571 C   0  0  0  0  0  0  0  0  0  0  0  0
   -4.1025    2.8828   -4.7542 C   0  0  0  0  0  0  0  0  0  0  0  0
   -3.3175    2.7066   -5.9035 C   0  0  0  0  0  0  0  0  0  0  0  0
   -3.0789    3.7668   -6.7896 C   0  0  0  0  0  0  0  0  0  0  0  0
   -3.6174    5.0276   -6.5397 C   0  0  0  0  0  0  0  0  0  0  0  0
   -4.4085    5.2087   -5.4038 C   0  0  0  0  0  0  0  0  0  0  0  0
   -4.6531    4.1500   -4.5206 C   0  0  0  0  0  0  0  0  0  0  0  0
   -3.4526    6.1445   -7.3146 O   0  0  0  0  0  0  0  0  0  0  0  0
   -2.6282    6.0144   -8.4727 C   0  0  0  0  0  0  0  0  0  0  0  0
   -2.4841    7.3804   -9.1214 C   0  0  0  0  0  0  0  0  0  0  0  0
   -0.2979   -1.6379   -0.2871 C   0  0  0  0  0  0  0  0  0  0  0  0
    1.3646    0.6134    1.8462 H   0  0  0  0  0  0  0  0  0  0  0  0
    1.8260    0.0763   -1.1100 H   0  0  0  0  0  0  0  0  0  0  0  0
    0.2057    2.3920    0.0791 H   0  0  0  0  0  0  0  0  0  0  0  0
    0.2395    1.1838   -2.4925 H   0  0  0  0  0  0  0  0  0  0  0  0
    3.3416   -0.1718    1.1016 H   0  0  0  0  0  0  0  0  0  0  0  0
    2.5186    2.3830   -0.6926 H   0  0  0  0  0  0  0  0  0  0  0  0
    1.1225   -2.5666    2.0364 H   0  0  0  0  0  0  0  0  0  0  0  0
    0.2906   -1.4524    3.1301 H   0  0  0  0  0  0  0  0  0  0  0  0
   -1.6466   -2.3711    2.4808 H   0  0  0  0  0  0  0  0  0  0  0  0
   -2.0836    0.7836   -2.8063 H   0  0  0  0  0  0  0  0  0  0  0  0
   -5.7100    2.8011   -1.6901 H   0  0  0  0  0  0  0  0  0  0  0  0
   -4.9542    2.8550    0.6539 H   0  0  0  0  0  0  0  0  0  0  0  0
   -2.8056    1.8421    1.3140 H   0  0  0  0  0  0  0  0  0  0  0  0
   -4.0017    0.7889   -4.2978 H   0  0  0  0  0  0  0  0  0  0  0  0
   -5.5042    1.5406   -3.8691 H   0  0  0  0  0  0  0  0  0  0  0  0
   -2.8929    1.7314   -6.1320 H   0  0  0  0  0  0  0  0  0  0  0  0
   -2.4747    3.5685   -7.6683 H   0  0  0  0  0  0  0  0  0  0  0  0
   -4.8466    6.1840   -5.2054 H   0  0  0  0  0  0  0  0  0  0  0  0
   -5.2891    4.3273   -3.6577 H   0  0  0  0  0  0  0  0  0  0  0  0
   -1.6310    5.6524   -8.1971 H   0  0  0  0  0  0  0  0  0  0  0  0
   -3.0943    5.3253   -9.1867 H   0  0  0  0  0  0  0  0  0  0  0  0
   -2.0066    8.0855   -8.4330 H   0  0  0  0  0  0  0  0  0  0  0  0
   -1.8787    7.3155  -10.0307 H   0  0  0  0  0  0  0  0  0  0  0  0
   -3.4635    7.7964   -9.3784 H   0  0  0  0  0  0  0  0  0  0  0  0
   -1.2058   -2.2354   -0.1299 H   0  0  0  0  0  0  0  0  0  0  0  0
    0.4643   -2.2683   -0.7472 H   0  0  0  0  0  0  0  0  0  0  0  0
  1  2  1  0  0  0  0
  1 12  1  0  0  0  0
  1 13  1  6  0  0  0
  2  3  1  0  0  0  0
  3  4  1  0  0  0  0
  3 10  1  1  0  0  0
  3 29  1  0  0  0  0
  4  5  1  0  0  0  0
  4 30  1  1  0  0  0
  4  8  1  0  0  0  0
  5  6  1  0  0  0  0
  5  9  1  0  0  0  0
  5 31  1  6  0  0  0
  6  1  1  0  0  0  0
  6  7  1  0  0  0  0
  6 32  1  1  0  0  0
  7 33  1  0  0  0  0
  8 34  1  0  0  0  0
  9 35  1  0  0  0  0
 10 11  1  0  0  0  0
 10 36  1  0  0  0  0
 10 37  1  0  0  0  0
 11 38  1  0  0  0  0
 12 29  1  0  0  0  0
 13 14  2  0  0  0  0
 14 15  1  0  0  0  0
 14 39  1  0  0  0  0
 15 16  2  0  0  0  0
 15 19  1  0  0  0  0
 16 17  1  0  0  0  0
 16 40  1  0  0  0  0
 17 18  2  0  0  0  0
 17 41  1  0  0  0  0
 18 13  1  0  0  0  0
 18 42  1  0  0  0  0
 19 20  1  0  0  0  0
 19 43  1  0  0  0  0
 19 44  1  0  0  0  0
 20 21  2  0  0  0  0
 21 22  1  0  0  0  0
 21 45  1  0  0  0  0
 22 23  2  0  0  0  0
 22 46  1  0  0  0  0
 23 24  1  0  0  0  0
 23 26  1  0  0  0  0
 24 25  2  0  0  0  0
 24 47  1  0  0  0  0
 25 20  1  0  0  0  0
 25 48  1  0  0  0  0
 26 27  1  0  0  0  0
 27 28  1  0  0  0  0
 27 49  1  0  0  0  0
 27 50  1  0  0  0  0
 28 51  1  0  0  0  0
 28 52  1  0  0  0  0
 28 53  1  0  0  0  0
 29 54  1  0  0  0  0
 29 55  1  0  0  0  0
M  END
>  <Mol_ID>
3116

>  <Formula>
C22H25ClO7

>  <MolWeight>
436.8827

>  <Cat>
S5413

>  <Name>
Ertugliflozin

>  <Synonyms>
MK-8835, PF-04971729

>  <Target>
SGLT

>  <Form>
free base

>  <CAS>
1210344-57-2

>  <URL>
https://www.selleckchem.com/products/ertugliflozin.html

$$$$
