S5419 1,4-Cineole.cdx
 OpenBabel08302520013D

 29 30  0  0  0  0  0  0  0  0999 V2000
    0.0390   -1.0863    0.2588 C   0  0  1  0  0  0  0  0  0  0  0  0
    0.0278   -0.0034    1.2270 O   0  0  0  0  0  0  0  0  0  0  0  0
   -1.2289   -0.7585   -0.5542 C   0  0  0  0  0  0  0  0  0  0  0  0
    1.2799   -0.7284   -0.5776 C   0  0  0  0  0  0  0  0  0  0  0  0
    0.0189   -2.4729    0.9206 C   0  0  0  0  0  0  0  0  0  0  0  0
    0.0076    1.0913    0.2801 C   0  0  2  0  0  0  0  0  0  0  0  0
   -1.2506    0.7694   -0.5296 C   0  0  0  0  0  0  0  0  0  0  0  0
    1.2606    0.8011   -0.5497 C   0  0  0  0  0  0  0  0  0  0  0  0
   -0.0045   -3.6022   -0.1125 C   0  0  0  0  0  0  0  0  0  0  0  0
    1.1780   -2.6867    1.9000 C   0  0  0  0  0  0  0  0  0  0  0  0
   -0.0037    2.4457    0.9505 C   0  0  0  0  0  0  0  0  0  0  0  0
   -2.1304   -1.1408   -0.0613 H   0  0  0  0  0  0  0  0  0  0  0  0
   -1.2001   -1.1614   -1.5714 H   0  0  0  0  0  0  0  0  0  0  0  0
    1.2375   -1.1307   -1.5944 H   0  0  0  0  0  0  0  0  0  0  0  0
    2.2097   -1.0753   -0.1169 H   0  0  0  0  0  0  0  0  0  0  0  0
   -0.8981   -2.5443    1.5195 H   0  0  0  0  0  0  0  0  0  0  0  0
   -1.2398    1.2107   -1.5305 H   0  0  0  0  0  0  0  0  0  0  0  0
   -2.1570    1.1105   -0.0151 H   0  0  0  0  0  0  0  0  0  0  0  0
    1.2242    1.2433   -1.5499 H   0  0  0  0  0  0  0  0  0  0  0  0
    2.1648    1.1656   -0.0478 H   0  0  0  0  0  0  0  0  0  0  0  0
    0.8882   -3.5858   -0.7461 H   0  0  0  0  0  0  0  0  0  0  0  0
   -0.0453   -4.5780    0.3831 H   0  0  0  0  0  0  0  0  0  0  0  0
   -0.8839   -3.5282   -0.7597 H   0  0  0  0  0  0  0  0  0  0  0  0
    1.1900   -1.9126    2.6736 H   0  0  0  0  0  0  0  0  0  0  0  0
    1.0767   -3.6541    2.4045 H   0  0  0  0  0  0  0  0  0  0  0  0
    2.1487   -2.6846    1.3953 H   0  0  0  0  0  0  0  0  0  0  0  0
   -0.8816    2.5548    1.5964 H   0  0  0  0  0  0  0  0  0  0  0  0
    0.8721    2.5694    1.5959 H   0  0  0  0  0  0  0  0  0  0  0  0
   -0.0113    3.2538    0.2121 H   0  0  0  0  0  0  0  0  0  0  0  0
  1  2  1  0  0  0  0
  1  3  1  0  0  0  0
  1  4  1  0  0  0  0
  1  5  1  1  0  0  0
  2  6  1  0  0  0  0
  3  7  1  0  0  0  0
  3 12  1  0  0  0  0
  3 13  1  0  0  0  0
  4  8  1  0  0  0  0
  4 14  1  0  0  0  0
  4 15  1  0  0  0  0
  5  9  1  0  0  0  0
  5 10  1  0  0  0  0
  5 16  1  0  0  0  0
  6 11  1  1  0  0  0
  6  7  1  0  0  0  0
  6  8  1  0  0  0  0
  7 17  1  0  0  0  0
  7 18  1  0  0  0  0
  8 19  1  0  0  0  0
  8 20  1  0  0  0  0
  9 21  1  0  0  0  0
  9 22  1  0  0  0  0
  9 23  1  0  0  0  0
 10 24  1  0  0  0  0
 10 25  1  0  0  0  0
 10 26  1  0  0  0  0
 11 27  1  0  0  0  0
 11 28  1  0  0  0  0
 11 29  1  0  0  0  0
M  END
>  <Mol_ID>
3002

>  <Formula>
C10H18O

>  <MolWeight>
154.24932

>  <Cat>
S5419

>  <Name>
1,4-Cineole

>  <Synonyms>
Isocineole

>  <Target>
TRP Channel

>  <Form>
free base

>  <CAS>
470-67-7

>  <URL>
http://selleckchem.com/products/1-4-cineole.html

$$$$
