S5416 Metyrapone.cdx
 OpenBabel08302520293D

 31 32  0  0  0  0  0  0  0  0999 V2000
    1.1000    1.4199    0.9956 C   0  0  0  0  0  0  0  0  0  0  0  0
    1.1994    2.5062   -0.0333 C   0  0  0  0  0  0  0  0  0  0  0  0
    1.8611    0.2559    0.7984 C   0  0  0  0  0  0  0  0  0  0  0  0
    0.3185    1.4601    2.1394 C   0  0  0  0  0  0  0  0  0  0  0  0
    0.4628    3.8737    0.0747 C   0  0  0  0  0  0  0  0  0  0  0  0
    1.9120    2.2594   -1.0066 O   0  0  0  0  0  0  0  0  0  0  0  0
    1.8139   -0.7888    1.7214 C   0  0  0  0  0  0  0  0  0  0  0  0
    0.2437    0.4537    3.0530 N   0  0  0  0  0  0  0  0  0  0  0  0
    0.8290    4.6191    1.3615 C   0  0  0  0  0  0  0  0  0  0  0  0
    0.9148    4.7216   -1.1513 C   0  0  0  0  0  0  0  0  0  0  0  0
   -1.0562    3.6723   -0.1171 C   0  0  0  0  0  0  0  0  0  0  0  0
    0.9960   -0.6435    2.8251 C   0  0  0  0  0  0  0  0  0  0  0  0
   -0.1260    5.0615    2.2918 C   0  0  0  0  0  0  0  0  0  0  0  0
    2.1651    4.8704    1.6890 C   0  0  0  0  0  0  0  0  0  0  0  0
    0.2690    5.6638    3.4819 C   0  0  0  0  0  0  0  0  0  0  0  0
    2.5781    5.4584    2.8363 N   0  0  0  0  0  0  0  0  0  0  0  0
    1.6223    5.8377    3.7082 C   0  0  0  0  0  0  0  0  0  0  0  0
    2.5037    0.1542   -0.0744 H   0  0  0  0  0  0  0  0  0  0  0  0
   -0.3043    2.3042    2.4005 H   0  0  0  0  0  0  0  0  0  0  0  0
    2.4055   -1.6870    1.5789 H   0  0  0  0  0  0  0  0  0  0  0  0
    0.7111    4.1890   -2.0912 H   0  0  0  0  0  0  0  0  0  0  0  0
    0.3886    5.6805   -1.2011 H   0  0  0  0  0  0  0  0  0  0  0  0
    1.9910    4.9308   -1.1402 H   0  0  0  0  0  0  0  0  0  0  0  0
   -1.2764    3.1334   -1.0452 H   0  0  0  0  0  0  0  0  0  0  0  0
   -1.5179    3.1078    0.6974 H   0  0  0  0  0  0  0  0  0  0  0  0
   -1.5728    4.6399   -0.1731 H   0  0  0  0  0  0  0  0  0  0  0  0
    0.9238   -1.4243    3.5772 H   0  0  0  0  0  0  0  0  0  0  0  0
   -1.1918    4.9333    2.1260 H   0  0  0  0  0  0  0  0  0  0  0  0
    2.9788    4.5902    1.0233 H   0  0  0  0  0  0  0  0  0  0  0  0
   -0.4600    5.9793    4.2199 H   0  0  0  0  0  0  0  0  0  0  0  0
    1.9817    6.2821    4.6324 H   0  0  0  0  0  0  0  0  0  0  0  0
  1  2  1  0  0  0  0
  1  3  2  0  0  0  0
  1  4  1  0  0  0  0
  2  5  1  0  0  0  0
  2  6  2  0  0  0  0
  3  7  1  0  0  0  0
  3 18  1  0  0  0  0
  4  8  2  0  0  0  0
  4 19  1  0  0  0  0
  5  9  1  0  0  0  0
  5 10  1  0  0  0  0
  5 11  1  0  0  0  0
  7 12  2  0  0  0  0
  7 20  1  0  0  0  0
  8 12  1  0  0  0  0
  9 13  2  0  0  0  0
  9 14  1  0  0  0  0
 10 21  1  0  0  0  0
 10 22  1  0  0  0  0
 10 23  1  0  0  0  0
 11 24  1  0  0  0  0
 11 25  1  0  0  0  0
 11 26  1  0  0  0  0
 12 27  1  0  0  0  0
 13 15  1  0  0  0  0
 13 28  1  0  0  0  0
 14 16  2  0  0  0  0
 14 29  1  0  0  0  0
 15 17  2  0  0  0  0
 15 30  1  0  0  0  0
 16 17  1  0  0  0  0
 17 31  1  0  0  0  0
M  END
>  <Mol_ID>
3242

>  <Formula>
C14H14N2O

>  <MolWeight>
226.27376

>  <Cat>
S5416

>  <Name>
Metyrapone

>  <Synonyms>
NSC-25265, SU-4885

>  <Target>
P450 (e.g. CYP17)

>  <Form>
free base

>  <CAS>
54-36-4

>  <URL>
https://www.selleckchem.com/products/metyrapone.html

$$$$
