S5422 Trimethyloctadecylammonium bromide.cdx
 OpenBabel08302520013D

 69 67  0  0  0  0  0  0  0  0999 V2000
    1.9245   -3.0934   -0.2613 C   0  0  0  0  0  0  0  0  0  0  0  0
    1.2119   -2.0474    0.5917 C   0  0  0  0  0  0  0  0  0  0  0  0
    1.4270   -4.5340   -0.1043 C   0  0  0  0  0  0  0  0  0  0  0  0
    1.5000   -2.1752    2.0878 C   0  0  0  0  0  0  0  0  0  0  0  0
   -0.0673   -4.8463   -0.2662 C   0  0  0  0  0  0  0  0  0  0  0  0
    0.7529   -1.1124    2.9017 C   0  0  0  0  0  0  0  0  0  0  0  0
   -0.6773   -4.6936   -1.6682 N   0  3  0  0  0  0  0  0  0  0  0  0
   -0.7736   -1.1899    2.7744 C   0  0  0  0  0  0  0  0  0  0  0  0
    0.0620   -5.4716   -2.7305 C   0  0  0  0  0  0  0  0  0  0  0  0
   -2.1266   -5.2003   -1.5978 C   0  0  0  0  0  0  0  0  0  0  0  0
   -0.7813   -3.2257   -2.0906 C   0  0  0  0  0  0  0  0  0  0  0  0
   -1.3529   -2.5503    3.1757 C   0  0  0  0  0  0  0  0  0  0  0  0
   -1.0826   -2.9151    4.6379 C   0  0  0  0  0  0  0  0  0  0  0  0
   -1.7113   -1.9284    5.6241 C   0  0  0  0  0  0  0  0  0  0  0  0
   -3.2420   -1.8741    5.5222 C   0  0  0  0  0  0  0  0  0  0  0  0
   -3.9197   -3.2060    5.8672 C   0  0  0  0  0  0  0  0  0  0  0  0
   -3.6053   -3.7069    7.2836 C   0  0  0  0  0  0  0  0  0  0  0  0
   -4.0749   -2.7067    8.3365 C   0  0  0  0  0  0  0  0  0  0  0  0
   -3.7074   -3.1363    9.7495 C   0  0  0  0  0  0  0  0  0  0  0  0
   -4.2318   -2.1076   10.7501 C   0  0  0  0  0  0  0  0  0  0  0  0
   -3.9004   -2.5074   12.1821 C   0  0  0  0  0  0  0  0  0  0  0  0
   -4.4480   -1.4929   13.1710 C   0  0  0  0  0  0  0  0  0  0  0  0
   -2.5171   -0.1666   -1.8909 Br  0  5  0  0  0  0  0  0  0  0  0  0
    2.9941   -3.0702   -0.0175 H   0  0  0  0  0  0  0  0  0  0  0  0
    1.8703   -2.7945   -1.3101 H   0  0  0  0  0  0  0  0  0  0  0  0
    1.5300   -1.0506    0.2623 H   0  0  0  0  0  0  0  0  0  0  0  0
    0.1387   -2.1005    0.4084 H   0  0  0  0  0  0  0  0  0  0  0  0
    2.0153   -5.1760   -0.7683 H   0  0  0  0  0  0  0  0  0  0  0  0
    1.6987   -4.8593    0.9085 H   0  0  0  0  0  0  0  0  0  0  0  0
    1.2389   -3.1754    2.4490 H   0  0  0  0  0  0  0  0  0  0  0  0
    2.5757   -2.0601    2.2636 H   0  0  0  0  0  0  0  0  0  0  0  0
   -0.2132   -5.9024   -0.0019 H   0  0  0  0  0  0  0  0  0  0  0  0
   -0.6794   -4.2558    0.4194 H   0  0  0  0  0  0  0  0  0  0  0  0
    1.0437   -1.2030    3.9550 H   0  0  0  0  0  0  0  0  0  0  0  0
    1.0815   -0.1152    2.5866 H   0  0  0  0  0  0  0  0  0  0  0  0
   -1.2209   -0.3925    3.3781 H   0  0  0  0  0  0  0  0  0  0  0  0
   -1.0792   -0.9638    1.7474 H   0  0  0  0  0  0  0  0  0  0  0  0
    0.0115   -6.5353   -2.4806 H   0  0  0  0  0  0  0  0  0  0  0  0
   -0.4179   -5.2859   -3.6968 H   0  0  0  0  0  0  0  0  0  0  0  0
    1.0997   -5.1329   -2.7675 H   0  0  0  0  0  0  0  0  0  0  0  0
   -2.6656   -4.6134   -0.8476 H   0  0  0  0  0  0  0  0  0  0  0  0
   -2.5897   -5.0843   -2.5829 H   0  0  0  0  0  0  0  0  0  0  0  0
   -2.1073   -6.2575   -1.3167 H   0  0  0  0  0  0  0  0  0  0  0  0
   -1.1310   -2.6760   -1.2217 H   0  0  0  0  0  0  0  0  0  0  0  0
    0.1939   -2.8831   -2.4327 H   0  0  0  0  0  0  0  0  0  0  0  0
   -1.4883   -3.1570   -2.9222 H   0  0  0  0  0  0  0  0  0  0  0  0
   -2.4294   -2.5529    2.9741 H   0  0  0  0  0  0  0  0  0  0  0  0
   -0.9496   -3.3406    2.5365 H   0  0  0  0  0  0  0  0  0  0  0  0
   -1.4509   -3.9301    4.8253 H   0  0  0  0  0  0  0  0  0  0  0  0
   -0.0043   -2.9641    4.8240 H   0  0  0  0  0  0  0  0  0  0  0  0
   -1.4047   -2.1949    6.6413 H   0  0  0  0  0  0  0  0  0  0  0  0
   -1.3089   -0.9219    5.4667 H   0  0  0  0  0  0  0  0  0  0  0  0
   -3.6052   -1.0712    6.1647 H   0  0  0  0  0  0  0  0  0  0  0  0
   -3.5451   -1.5735    4.5121 H   0  0  0  0  0  0  0  0  0  0  0  0
   -5.0047   -3.0778    5.7650 H   0  0  0  0  0  0  0  0  0  0  0  0
   -3.6418   -3.9806    5.1412 H   0  0  0  0  0  0  0  0  0  0  0  0
   -4.1086   -4.6684    7.4371 H   0  0  0  0  0  0  0  0  0  0  0  0
   -2.5334   -3.9053    7.3934 H   0  0  0  0  0  0  0  0  0  0  0  0
   -3.6259   -1.7237    8.1619 H   0  0  0  0  0  0  0  0  0  0  0  0
   -5.1614   -2.5834    8.2516 H   0  0  0  0  0  0  0  0  0  0  0  0
   -4.1320   -4.1230    9.9633 H   0  0  0  0  0  0  0  0  0  0  0  0
   -2.6172   -3.2193    9.8386 H   0  0  0  0  0  0  0  0  0  0  0  0
   -3.7965   -1.1240   10.5305 H   0  0  0  0  0  0  0  0  0  0  0  0
   -5.3183   -2.0089   10.6348 H   0  0  0  0  0  0  0  0  0  0  0  0
   -4.3266   -3.4935   12.3988 H   0  0  0  0  0  0  0  0  0  0  0  0
   -2.8141   -2.5866   12.3040 H   0  0  0  0  0  0  0  0  0  0  0  0
   -5.5350   -1.4029   13.0773 H   0  0  0  0  0  0  0  0  0  0  0  0
   -4.2180   -1.8012   14.1947 H   0  0  0  0  0  0  0  0  0  0  0  0
   -4.0064   -0.5053   13.0031 H   0  0  0  0  0  0  0  0  0  0  0  0
  1  2  1  0  0  0  0
  1  3  1  0  0  0  0
  1 24  1  0  0  0  0
  1 25  1  0  0  0  0
  2  4  1  0  0  0  0
  2 26  1  0  0  0  0
  2 27  1  0  0  0  0
  3  5  1  0  0  0  0
  3 28  1  0  0  0  0
  3 29  1  0  0  0  0
  4  6  1  0  0  0  0
  4 30  1  0  0  0  0
  4 31  1  0  0  0  0
  5  7  1  0  0  0  0
  5 32  1  0  0  0  0
  5 33  1  0  0  0  0
  6  8  1  0  0  0  0
  6 34  1  0  0  0  0
  6 35  1  0  0  0  0
  7  9  1  0  0  0  0
  7 10  1  0  0  0  0
  7 11  1  0  0  0  0
  8 12  1  0  0  0  0
  8 36  1  0  0  0  0
  8 37  1  0  0  0  0
  9 38  1  0  0  0  0
  9 39  1  0  0  0  0
  9 40  1  0  0  0  0
 10 41  1  0  0  0  0
 10 42  1  0  0  0  0
 10 43  1  0  0  0  0
 11 44  1  0  0  0  0
 11 45  1  0  0  0  0
 11 46  1  0  0  0  0
 12 13  1  0  0  0  0
 12 47  1  0  0  0  0
 12 48  1  0  0  0  0
 13 14  1  0  0  0  0
 13 49  1  0  0  0  0
 13 50  1  0  0  0  0
 14 15  1  0  0  0  0
 14 51  1  0  0  0  0
 14 52  1  0  0  0  0
 15 16  1  0  0  0  0
 15 53  1  0  0  0  0
 15 54  1  0  0  0  0
 16 17  1  0  0  0  0
 16 55  1  0  0  0  0
 16 56  1  0  0  0  0
 17 18  1  0  0  0  0
 17 57  1  0  0  0  0
 17 58  1  0  0  0  0
 18 19  1  0  0  0  0
 18 59  1  0  0  0  0
 18 60  1  0  0  0  0
 19 20  1  0  0  0  0
 19 61  1  0  0  0  0
 19 62  1  0  0  0  0
 20 21  1  0  0  0  0
 20 63  1  0  0  0  0
 20 64  1  0  0  0  0
 21 22  1  0  0  0  0
 21 65  1  0  0  0  0
 21 66  1  0  0  0  0
 22 67  1  0  0  0  0
 22 68  1  0  0  0  0
 22 69  1  0  0  0  0
M  CHG  2   7   1  23  -1
M  END
>  <Mol_ID>
3003

>  <Formula>
C21H46BrN

>  <MolWeight>
392.50064

>  <Cat>
S5422

>  <Name>
Trimethyloctadecylammonium bromide

>  <Synonyms>
Octadecyltrimethylammonium bromide, OcTMAB, C18TAB

>  <Target>
Dynamin

>  <Form>
bromide

>  <CAS>
1120-02-1

>  <URL>
http://selleckchem.com/products/trimethyloctadecylammonium-bromide.html

$$$$
