S5423 4-Chloro-2-(trifluoroacetyl)aniline hydrochloride.cdx
 OpenBabel08302520013D

 19 19  0  0  0  0  0  0  0  0999 V2000
    0.2424    1.2169   -0.0214 C   0  0  0  0  0  0  0  0  0  0  0  0
    0.9876    2.5069   -0.0690 C   0  0  0  0  0  0  0  0  0  0  0  0
    0.4155    3.7320    0.6265 C   0  0  0  0  0  0  0  0  0  0  0  0
    0.9689    0.0045    0.0055 C   0  0  0  0  0  0  0  0  0  0  0  0
   -1.1601    1.1853   -0.0826 C   0  0  0  0  0  0  0  0  0  0  0  0
    2.0681    2.5325   -0.6756 O   0  0  0  0  0  0  0  0  0  0  0  0
   -0.7600    3.5272    1.2848 F   0  0  0  0  0  0  0  0  0  0  0  0
    1.2737    4.2373    1.5570 F   0  0  0  0  0  0  0  0  0  0  0  0
    0.1758    4.7443   -0.2546 F   0  0  0  0  0  0  0  0  0  0  0  0
    0.2628   -1.2048    0.0729 C   0  0  0  0  0  0  0  0  0  0  0  0
   -1.8419   -0.0337   -0.0558 C   0  0  0  0  0  0  0  0  0  0  0  0
    2.3638   -0.0281    0.2086 N   0  0  0  0  0  0  0  0  0  0  0  0
   -1.1316   -1.2265    0.0233 C   0  0  0  0  0  0  0  0  0  0  0  0
   -1.7512    2.0951   -0.1561 H   0  0  0  0  0  0  0  0  0  0  0  0
    0.8003   -2.1461    0.1618 H   0  0  0  0  0  0  0  0  0  0  0  0
   -2.9290   -0.0518   -0.0910 H   0  0  0  0  0  0  0  0  0  0  0  0
    2.8084   -0.8708   -0.1423 H   0  0  0  0  0  0  0  0  0  0  0  0
    2.8200    0.8108   -0.1692 H   0  0  0  0  0  0  0  0  0  0  0  0
   -1.6599   -2.1766    0.0560 H   0  0  0  0  0  0  0  0  0  0  0  0
  2  1  1  0  0  0  0
  3  2  1  0  0  0  0
  4  1  2  0  0  0  0
  5  1  1  0  0  0  0
  5 14  1  0  0  0  0
  6  2  2  0  0  0  0
  7  3  1  0  0  0  0
  8  3  1  0  0  0  0
  9  3  1  0  0  0  0
 10  4  1  0  0  0  0
 10 15  1  0  0  0  0
 11  5  2  0  0  0  0
 11 16  1  0  0  0  0
 12  4  1  0  0  0  0
 12 17  1  0  0  0  0
 12 18  1  0  0  0  0
 13 10  2  0  0  0  0
 13 11  1  0  0  0  0
 13 19  1  0  0  0  0
M  END
>  <Mol_ID>
3004

>  <Formula>
C8H6Cl2F3NO

>  <MolWeight>
260.0405496

>  <Cat>
S5423

>  <Name>
4-Chloro-2-(trifluoroacetyl)aniline hydrochloride

>  <Synonyms>
N/A

>  <Target>
Reverse Transcriptase

>  <Form>
hydrochloride

>  <CAS>
173676-59-0

>  <URL>
http://selleckchem.com/products/4-chloro-2-trifluoroacetyl-aniline-hydrochloride.html

$$$$
