S5425 Phenylglyoxal hydrate.cdx
 OpenBabel08302520013D

 19 19  0  0  0  0  0  0  0  0999 V2000
    1.3855   -0.1876    0.0851 C   0  0  0  0  0  0  0  0  0  0  0  0
    2.8545   -0.4246    0.1803 C   0  0  0  0  0  0  0  0  0  0  0  0
    0.5247   -1.2915    0.0993 C   0  0  0  0  0  0  0  0  0  0  0  0
    0.8570    1.1072    0.0054 C   0  0  0  0  0  0  0  0  0  0  0  0
    3.8093    0.5703   -0.5062 C   0  0  0  0  0  0  0  0  0  0  0  0
    3.2813   -1.4127    0.7858 O   0  0  0  0  0  0  0  0  0  0  0  0
   -0.8568   -1.1002    0.0281 C   0  0  0  0  0  0  0  0  0  0  0  0
   -0.5262    1.2904   -0.0523 C   0  0  0  0  0  0  0  0  0  0  0  0
    5.1648    0.2154   -0.3118 O   0  0  0  0  0  0  0  0  0  0  0  0
   -1.3814    0.1904   -0.0421 C   0  0  0  0  0  0  0  0  0  0  0  0
    3.5743    0.6214   -1.8941 O   0  0  0  0  0  0  0  0  0  0  0  0
    0.9238   -2.3011    0.1586 H   0  0  0  0  0  0  0  0  0  0  0  0
    1.4942    1.9863    0.0010 H   0  0  0  0  0  0  0  0  0  0  0  0
    3.6756    1.5615   -0.0738 H   0  0  0  0  0  0  0  0  0  0  0  0
   -1.5259   -1.9583    0.0311 H   0  0  0  0  0  0  0  0  0  0  0  0
   -0.9378    2.2955   -0.1024 H   0  0  0  0  0  0  0  0  0  0  0  0
    5.1631   -0.4757    0.3799 H   0  0  0  0  0  0  0  0  0  0  0  0
   -2.4561    0.3387   -0.0875 H   0  0  0  0  0  0  0  0  0  0  0  0
    3.8287   -0.2567   -2.2256 H   0  0  0  0  0  0  0  0  0  0  0  0
  1  2  1  0  0  0  0
  1  3  2  0  0  0  0
  1  4  1  0  0  0  0
  2  5  1  0  0  0  0
  2  6  2  0  0  0  0
  3  7  1  0  0  0  0
  3 12  1  0  0  0  0
  4  8  2  0  0  0  0
  4 13  1  0  0  0  0
  5  9  1  0  0  0  0
  5 11  1  0  0  0  0
  5 14  1  0  0  0  0
  7 10  2  0  0  0  0
  7 15  1  0  0  0  0
  8 10  1  0  0  0  0
  8 16  1  0  0  0  0
  9 17  1  0  0  0  0
 10 18  1  0  0  0  0
 11 19  1  0  0  0  0
M  END
>  <Mol_ID>
3005

>  <Formula>
C8H8O3

>  <MolWeight>
152.14732

>  <Cat>
S5425

>  <Name>
Phenylglyoxal hydrate

>  <Synonyms>
1-Phenylethanedione hydrate

>  <Target>
Dehydrogenase

>  <Form>
free base

>  <CAS>
1075-06-5

>  <URL>
http://selleckchem.com/products/phenylglyoxal-hydrate.html

$$$$
