S5426 Bromopyruvic acid.cdx
 OpenBabel08302520013D

 10  9  0  0  0  0  0  0  0  0999 V2000
    1.0308    0.0227    0.1272 C   0  0  0  0  0  0  0  0  0  0  0  0
    0.1976    1.1328   -0.4856 C   0  0  0  0  0  0  0  0  0  0  0  0
    0.2501   -1.1601    0.6017 C   0  0  0  0  0  0  0  0  0  0  0  0
    2.2224    0.2147    0.3284 O   0  0  0  0  0  0  0  0  0  0  0  0
   -0.0129    2.1401    0.3761 O   0  0  0  0  0  0  0  0  0  0  0  0
   -0.2610    1.0416   -1.6080 O   0  0  0  0  0  0  0  0  0  0  0  0
   -0.0654   -0.8833    2.4988 Br  0  0  0  0  0  0  0  0  0  0  0  0
   -0.7178   -1.2413    0.1035 H   0  0  0  0  0  0  0  0  0  0  0  0
    0.8232   -2.0803    0.4767 H   0  0  0  0  0  0  0  0  0  0  0  0
    0.4999    2.0459    1.2069 H   0  0  0  0  0  0  0  0  0  0  0  0
  1  2  1  0  0  0  0
  1  3  1  0  0  0  0
  1  4  2  0  0  0  0
  2  5  1  0  0  0  0
  2  6  2  0  0  0  0
  3  7  1  0  0  0  0
  3  8  1  0  0  0  0
  3  9  1  0  0  0  0
  5 10  1  0  0  0  0
M  END
>  <Mol_ID>
3006

>  <Formula>
C3H3BrO3

>  <MolWeight>
166.95812

>  <Cat>
S5426

>  <Name>
Bromopyruvic acid

>  <Synonyms>
3-Bromopyruvic acid, 3-Bromopyruvate, Bromopyruvic acid, Hexokinase II Inhibitor II, 3-BP

>  <Target>
Carbohydrate Metabolism

>  <Form>
free base

>  <CAS>
1113-59-3

>  <URL>
http://selleckchem.com/products/bromopyruvic-acid.html

$$$$
