S5432 N-(2-Chloroethyl)dibenzylamine Hydrochloride.cdx
 OpenBabel08302520013D

 36 37  0  0  0  0  0  0  0  0999 V2000
    1.1599   -0.0259   -0.1466 N   0  0  0  0  0  0  0  0  0  0  0  0
    0.6213   -0.4111   -1.4622 C   0  0  0  0  0  0  0  0  0  0  0  0
    0.8050   -0.9779    0.9319 C   0  0  0  0  0  0  0  0  0  0  0  0
    2.5973    0.2635   -0.1945 C   0  0  0  0  0  0  0  0  0  0  0  0
   -0.8884   -0.3456   -1.5825 C   0  0  0  0  0  0  0  0  0  0  0  0
    1.0938   -2.4518    0.7196 C   0  0  0  0  0  0  0  0  0  0  0  0
    2.9310    1.5615   -0.9267 C   0  0  0  0  0  0  0  0  0  0  0  0
   -1.5865    0.8350   -1.2876 C   0  0  0  0  0  0  0  0  0  0  0  0
   -1.5988   -1.4381   -2.1010 C   0  0  0  0  0  0  0  0  0  0  0  0
    2.3994   -2.9517    0.5914 C   0  0  0  0  0  0  0  0  0  0  0  0
    0.0318   -3.3708    0.6952 C   0  0  0  0  0  0  0  0  0  0  0  0
   -2.9603    0.9244   -1.5228 C   0  0  0  0  0  0  0  0  0  0  0  0
   -2.9726   -1.3464   -2.3358 C   0  0  0  0  0  0  0  0  0  0  0  0
    2.6314   -4.3139    0.3833 C   0  0  0  0  0  0  0  0  0  0  0  0
    0.2645   -4.7364    0.5109 C   0  0  0  0  0  0  0  0  0  0  0  0
   -3.6511   -0.1627   -2.0527 C   0  0  0  0  0  0  0  0  0  0  0  0
    1.5639   -5.2059    0.3405 C   0  0  0  0  0  0  0  0  0  0  0  0
    0.9819    0.2785   -2.2338 H   0  0  0  0  0  0  0  0  0  0  0  0
    0.9916   -1.3973   -1.7645 H   0  0  0  0  0  0  0  0  0  0  0  0
    1.2857   -0.6689    1.8717 H   0  0  0  0  0  0  0  0  0  0  0  0
   -0.2664   -0.8533    1.1402 H   0  0  0  0  0  0  0  0  0  0  0  0
    2.9832    0.3777    0.8264 H   0  0  0  0  0  0  0  0  0  0  0  0
    3.1561   -0.5511   -0.6660 H   0  0  0  0  0  0  0  0  0  0  0  0
    2.3795    2.4086   -0.5076 H   0  0  0  0  0  0  0  0  0  0  0  0
    4.0012    1.7742   -0.8276 H   0  0  0  0  0  0  0  0  0  0  0  0
    2.7158    1.5000   -1.9972 H   0  0  0  0  0  0  0  0  0  0  0  0
   -1.0527    1.6971   -0.8930 H   0  0  0  0  0  0  0  0  0  0  0  0
   -1.0798   -2.3610   -2.3498 H   0  0  0  0  0  0  0  0  0  0  0  0
    3.2560   -2.2875    0.6566 H   0  0  0  0  0  0  0  0  0  0  0  0
   -0.9924   -3.0265    0.8281 H   0  0  0  0  0  0  0  0  0  0  0  0
   -3.4884    1.8505   -1.3072 H   0  0  0  0  0  0  0  0  0  0  0  0
   -3.5083   -2.1937   -2.7556 H   0  0  0  0  0  0  0  0  0  0  0  0
    3.6479   -4.6780    0.2605 H   0  0  0  0  0  0  0  0  0  0  0  0
   -0.5699   -5.4328    0.5027 H   0  0  0  0  0  0  0  0  0  0  0  0
   -4.7165   -0.0860   -2.2543 H   0  0  0  0  0  0  0  0  0  0  0  0
    1.7453   -6.2660    0.1859 H   0  0  0  0  0  0  0  0  0  0  0  0
  1  2  1  0  0  0  0
  1  3  1  0  0  0  0
  1  4  1  0  0  0  0
  2  5  1  0  0  0  0
  2 18  1  0  0  0  0
  2 19  1  0  0  0  0
  3  6  1  0  0  0  0
  3 20  1  0  0  0  0
  3 21  1  0  0  0  0
  4  7  1  0  0  0  0
  4 22  1  0  0  0  0
  4 23  1  0  0  0  0
  5  8  2  0  0  0  0
  5  9  1  0  0  0  0
  6 10  2  0  0  0  0
  6 11  1  0  0  0  0
  7 24  1  0  0  0  0
  7 25  1  0  0  0  0
  7 26  1  0  0  0  0
  8 12  1  0  0  0  0
  8 27  1  0  0  0  0
  9 13  2  0  0  0  0
  9 28  1  0  0  0  0
 10 14  1  0  0  0  0
 10 29  1  0  0  0  0
 11 15  2  0  0  0  0
 11 30  1  0  0  0  0
 12 16  2  0  0  0  0
 12 31  1  0  0  0  0
 13 16  1  0  0  0  0
 13 32  1  0  0  0  0
 14 17  2  0  0  0  0
 14 33  1  0  0  0  0
 15 17  1  0  0  0  0
 15 34  1  0  0  0  0
 16 35  1  0  0  0  0
 17 36  1  0  0  0  0
M  END
>  <Mol_ID>
3009

>  <Formula>
C16H19Cl2N

>  <MolWeight>
296.23476

>  <Cat>
S5432

>  <Name>
Dibenamine Hydrochloride

>  <Synonyms>
N-(2-Chloroethyl)dibenzylamine Hydrochloride, Sympatholytin Hydrochloride, Dibenzyl chlorethylamine, Dibenzylchlorethamine

>  <Target>
Adrenergic Receptor

>  <Form>
hydrochloride

>  <CAS>
55-43-6

>  <URL>
http://selleckchem.com/products/dibenamine-hydrochloride.html

$$$$
