S5439 5-Bromoindole.cdx
 OpenBabel08302520013D

 16 17  0  0  0  0  0  0  0  0999 V2000
   -2.1706    0.6442    0.0035 C   0  0  0  0  0  0  0  0  0  0  0  0
   -1.7149   -0.6749    0.0100 C   0  0  0  0  0  0  0  0  0  0  0  0
   -3.5472    0.5959   -0.0036 N   0  0  0  0  0  0  0  0  0  0  0  0
   -1.3042    1.7441    0.0033 C   0  0  0  0  0  0  0  0  0  0  0  0
   -0.3277   -0.9165    0.0162 C   0  0  0  0  0  0  0  0  0  0  0  0
   -2.8624   -1.5150    0.0065 C   0  0  0  0  0  0  0  0  0  0  0  0
   -3.9749   -0.7056   -0.0054 C   0  0  0  0  0  0  0  0  0  0  0  0
    0.0703    1.4840    0.0035 C   0  0  0  0  0  0  0  0  0  0  0  0
    0.5467    0.1746    0.0096 C   0  0  0  0  0  0  0  0  0  0  0  0
    2.4139   -0.1373    0.0046 Br  0  0  0  0  0  0  0  0  0  0  0  0
   -4.1494    1.4075   -0.0107 H   0  0  0  0  0  0  0  0  0  0  0  0
   -1.6774    2.7632    0.0001 H   0  0  0  0  0  0  0  0  0  0  0  0
    0.0473   -1.9349    0.0228 H   0  0  0  0  0  0  0  0  0  0  0  0
   -2.8692   -2.5972    0.0082 H   0  0  0  0  0  0  0  0  0  0  0  0
   -5.0304   -0.9428   -0.0157 H   0  0  0  0  0  0  0  0  0  0  0  0
    0.7655    2.3202   -0.0021 H   0  0  0  0  0  0  0  0  0  0  0  0
  1  2  2  0  0  0  0
  1  3  1  0  0  0  0
  1  4  1  0  0  0  0
  2  5  1  0  0  0  0
  2  6  1  0  0  0  0
  3  7  1  0  0  0  0
  3 11  1  0  0  0  0
  4  8  2  0  0  0  0
  4 12  1  0  0  0  0
  5  9  2  0  0  0  0
  5 13  1  0  0  0  0
  6  7  2  0  0  0  0
  6 14  1  0  0  0  0
  7 15  1  0  0  0  0
  8  9  1  0  0  0  0
  8 16  1  0  0  0  0
  9 10  1  0  0  0  0
M  END
>  <Mol_ID>
3014

>  <Formula>
C8H6BrN

>  <MolWeight>
196.04394

>  <Cat>
S5439

>  <Name>
5-Bromoindole

>  <Synonyms>
N/A

>  <Target>
GSK-3

>  <Form>
free base

>  <CAS>
10075-50-0

>  <URL>
http://selleckchem.com/products/5-bromoindole.html

$$$$
