S5430 Metoprolol.cdx
 OpenBabel08302520013D

 44 44  0  0  0  0  0  0  0  0999 V2000
   -0.1232   -5.4774   -3.2068 C   0  0  0  0  0  0  0  0  0  0  0  0
    0.0310   -4.4406   -2.2464 O   0  0  0  0  0  0  0  0  0  0  0  0
    0.5123   -3.2293   -2.8334 C   0  0  0  0  0  0  0  0  0  0  0  0
    0.7709   -2.2158   -1.7200 C   0  0  0  0  0  0  0  0  0  0  0  0
    1.1440   -0.8505   -2.2378 C   0  0  0  0  0  0  0  0  0  0  0  0
    0.1438    0.0643   -2.5911 C   0  0  0  0  0  0  0  0  0  0  0  0
    0.4768    1.3450   -3.0380 C   0  0  0  0  0  0  0  0  0  0  0  0
    1.8150    1.7364   -3.1316 C   0  0  0  0  0  0  0  0  0  0  0  0
    2.2552    2.9837   -3.4996 O   0  0  0  0  0  0  0  0  0  0  0  0
    1.2715    4.0233   -3.3807 C   0  0  0  0  0  0  0  0  0  0  0  0
    1.9701    5.3885   -3.3616 C   0  0  3  0  0  0  0  0  0  0  0  0
    2.6278    5.6328   -4.6123 O   0  0  0  0  0  0  0  0  0  0  0  0
    0.9523    6.5183   -3.1100 C   0  0  0  0  0  0  0  0  0  0  0  0
    0.1878    6.4161   -1.8592 N   0  0  0  0  0  0  0  0  0  0  0  0
    1.0044    6.4079   -0.6381 C   0  0  0  0  0  0  0  0  0  0  0  0
    1.7842    7.7084   -0.4457 C   0  0  0  0  0  0  0  0  0  0  0  0
    0.0753    6.1643    0.5527 C   0  0  0  0  0  0  0  0  0  0  0  0
    2.8133    0.8101   -2.8286 C   0  0  0  0  0  0  0  0  0  0  0  0
    2.4846   -0.4723   -2.3823 C   0  0  0  0  0  0  0  0  0  0  0  0
   -0.9158   -6.1472   -2.8621 H   0  0  0  0  0  0  0  0  0  0  0  0
    0.8071   -6.0478   -3.2806 H   0  0  0  0  0  0  0  0  0  0  0  0
   -0.3998   -5.0877   -4.1916 H   0  0  0  0  0  0  0  0  0  0  0  0
    1.4320   -3.4241   -3.3973 H   0  0  0  0  0  0  0  0  0  0  0  0
   -0.2507   -2.8502   -3.5235 H   0  0  0  0  0  0  0  0  0  0  0  0
   -0.1189   -2.1354   -1.0798 H   0  0  0  0  0  0  0  0  0  0  0  0
    1.5551   -2.5959   -1.0513 H   0  0  0  0  0  0  0  0  0  0  0  0
   -0.9053   -0.2114   -2.5029 H   0  0  0  0  0  0  0  0  0  0  0  0
   -0.3349    2.0166   -3.2987 H   0  0  0  0  0  0  0  0  0  0  0  0
    0.5966    3.9616   -4.2424 H   0  0  0  0  0  0  0  0  0  0  0  0
    0.7116    3.8987   -2.4466 H   0  0  0  0  0  0  0  0  0  0  0  0
    2.7588    5.4005   -2.6017 H   0  0  0  0  0  0  0  0  0  0  0  0
    3.3042    4.9353   -4.6964 H   0  0  0  0  0  0  0  0  0  0  0  0
    1.4512    7.4921   -3.1821 H   0  0  0  0  0  0  0  0  0  0  0  0
    0.2314    6.5193   -3.9385 H   0  0  0  0  0  0  0  0  0  0  0  0
   -0.4799    7.1873   -1.8176 H   0  0  0  0  0  0  0  0  0  0  0  0
    1.7086    5.5688   -0.6599 H   0  0  0  0  0  0  0  0  0  0  0  0
    1.1237    8.5812   -0.4884 H   0  0  0  0  0  0  0  0  0  0  0  0
    2.2917    7.7165    0.5245 H   0  0  0  0  0  0  0  0  0  0  0  0
    2.5557    7.8271   -1.2136 H   0  0  0  0  0  0  0  0  0  0  0  0
   -0.4578    5.2126    0.4439 H   0  0  0  0  0  0  0  0  0  0  0  0
    0.6495    6.1132    1.4844 H   0  0  0  0  0  0  0  0  0  0  0  0
   -0.6683    6.9617    0.6575 H   0  0  0  0  0  0  0  0  0  0  0  0
    3.8586    1.0947   -2.9176 H   0  0  0  0  0  0  0  0  0  0  0  0
    3.2798   -1.1710   -2.1359 H   0  0  0  0  0  0  0  0  0  0  0  0
  1  2  1  0  0  0  0
  1 20  1  0  0  0  0
  1 21  1  0  0  0  0
  1 22  1  0  0  0  0
  2  3  1  0  0  0  0
  3  4  1  0  0  0  0
  3 23  1  0  0  0  0
  3 24  1  0  0  0  0
  4  5  1  0  0  0  0
  4 25  1  0  0  0  0
  4 26  1  0  0  0  0
  5  6  2  0  0  0  0
  5 19  1  0  0  0  0
  6  7  1  0  0  0  0
  6 27  1  0  0  0  0
  7  8  2  0  0  0  0
  7 28  1  0  0  0  0
  8  9  1  0  0  0  0
  8 18  1  0  0  0  0
  9 10  1  0  0  0  0
 10 11  1  0  0  0  0
 10 29  1  0  0  0  0
 10 30  1  0  0  0  0
 11 12  1  0  0  0  0
 11 13  1  0  0  0  0
 11 31  1  0  0  0  0
 12 32  1  0  0  0  0
 13 14  1  0  0  0  0
 13 33  1  0  0  0  0
 13 34  1  0  0  0  0
 14 15  1  0  0  0  0
 14 35  1  0  0  0  0
 15 16  1  0  0  0  0
 15 17  1  0  0  0  0
 15 36  1  0  0  0  0
 16 37  1  0  0  0  0
 16 38  1  0  0  0  0
 16 39  1  0  0  0  0
 17 40  1  0  0  0  0
 17 41  1  0  0  0  0
 17 42  1  0  0  0  0
 18 19  2  0  0  0  0
 18 43  1  0  0  0  0
 19 44  1  0  0  0  0
M  END
>  <Mol_ID>
3008

>  <Formula>
C15H25NO3

>  <MolWeight>
267.3639

>  <Cat>
S5430

>  <Name>
Metoprolol

>  <Synonyms>
N/A

>  <Target>
Adrenergic Receptor

>  <Form>
free base

>  <CAS>
51384-51-1

>  <URL>
http://selleckchem.com/products/metoprolol.html

$$$$
