S5433 Sodium succinate dibasic.cdx
 OpenBabel08302521383D

 12 11  0  0  0  0  0  0  0  0999 V2000
    1.0868    0.1594   -0.1280 C   0  0  0  0  0  0  0  0  0  0  0  0
    0.1126   -1.0027   -0.3504 C   0  0  0  0  0  0  0  0  0  0  0  0
    1.2868    0.5402    1.0599 O   0  0  0  0  0  0  0  0  0  0  0  0
    1.6057    0.6264   -1.1896 O   0  5  0  0  0  0  0  0  0  0  0  0
   -0.6293   -1.5285    0.8779 C   0  0  0  0  0  0  0  0  0  0  0  0
   -1.6454   -2.6495    0.6338 C   0  0  0  0  0  0  0  0  0  0  0  0
   -1.4517   -3.4013   -0.3646 O   0  0  0  0  0  0  0  0  0  0  0  0
   -2.5777   -2.7234    1.4930 O   0  5  0  0  0  0  0  0  0  0  0  0
   -0.6233   -0.6815   -1.0979 H   0  0  0  0  0  0  0  0  0  0  0  0
    0.6845   -1.8217   -0.8058 H   0  0  0  0  0  0  0  0  0  0  0  0
    0.0992   -1.9100    1.6040 H   0  0  0  0  0  0  0  0  0  0  0  0
   -1.1487   -0.6927    1.3649 H   0  0  0  0  0  0  0  0  0  0  0  0
  1  2  1  0  0  0  0
  1  3  2  0  0  0  0
  1  4  1  0  0  0  0
  2  5  1  0  0  0  0
  2  9  1  0  0  0  0
  2 10  1  0  0  0  0
  5  6  1  0  0  0  0
  5 11  1  0  0  0  0
  5 12  1  0  0  0  0
  6  7  2  0  0  0  0
  6  8  1  0  0  0  0
M  CHG  2   4  -1   8  -1
M  END
>  <Mol_ID>
7830

>  <Formula>
C4H4Na2O4

>  <MolWeight>
162.0517

>  <Cat>
S5433

>  <Name>
Sodium succinate

>  <Synonyms>
Sodium 3-carboxypropanoate, Disodium butanedioate

>  <Target>
Others

>  <Form>
disodium salt

>  <CAS>
150-90-3

>  <URL>
http://selleckchem.com/products/sodium-succinate.html

$$$$
