S5434 3-Methylpyrazole-5-carboxylic acid.cdx
 OpenBabel08302520013D

 15 15  0  0  0  0  0  0  0  0999 V2000
    1.3753    0.7989    0.0081 C   0  0  0  0  0  0  0  0  0  0  0  0
    0.0337    1.2469    0.0036 C   0  0  0  0  0  0  0  0  0  0  0  0
    1.4447   -0.5502    0.0037 N   0  0  0  0  0  0  0  0  0  0  0  0
    2.6002    1.6020    0.0174 C   0  0  0  0  0  0  0  0  0  0  0  0
   -0.7327    0.1038   -0.0022 C   0  0  0  0  0  0  0  0  0  0  0  0
    0.1537   -0.9372   -0.0032 N   0  0  0  0  0  0  0  0  0  0  0  0
    3.7212    0.8285    0.0211 O   0  0  0  0  0  0  0  0  0  0  0  0
    2.6314    2.8243    0.0217 O   0  0  0  0  0  0  0  0  0  0  0  0
   -2.1981   -0.1008   -0.0067 C   0  0  0  0  0  0  0  0  0  0  0  0
   -0.3120    2.2722    0.0055 H   0  0  0  0  0  0  0  0  0  0  0  0
   -0.0532   -1.9317   -0.0076 H   0  0  0  0  0  0  0  0  0  0  0  0
    3.4020   -0.1053    0.0164 H   0  0  0  0  0  0  0  0  0  0  0  0
   -2.5101   -0.6380   -0.9080 H   0  0  0  0  0  0  0  0  0  0  0  0
   -2.5100   -0.6801    0.8682 H   0  0  0  0  0  0  0  0  0  0  0  0
   -2.7269    0.8575    0.0164 H   0  0  0  0  0  0  0  0  0  0  0  0
  1  2  1  0  0  0  0
  1  3  2  0  0  0  0
  1  4  1  0  0  0  0
  2  5  2  0  0  0  0
  2 10  1  0  0  0  0
  3  6  1  0  0  0  0
  4  7  1  0  0  0  0
  4  8  2  0  0  0  0
  5  9  1  0  0  0  0
  5  6  1  0  0  0  0
  6 11  1  0  0  0  0
  7 12  1  0  0  0  0
  9 13  1  0  0  0  0
  9 14  1  0  0  0  0
  9 15  1  0  0  0  0
M  END
>  <Mol_ID>
3010

>  <Formula>
C5H6N2O2

>  <MolWeight>
126.11334

>  <Cat>
S5434

>  <Name>
AS057278

>  <Synonyms>
3-Methylpyrazole-5-carboxylic acid

>  <Target>
Others

>  <Form>
free base

>  <CAS>
402-61-9

>  <URL>
http://selleckchem.com/products/as057278.html

$$$$
