S5431 L-Homoarginine hydrochloride.cdx
 OpenBabel08302521383D

 29 28  0  0  0  0  0  0  0  0999 V2000
    0.9882    0.1359    0.0760 C   0  0  0  0  0  0  0  0  0  0  0  0
    0.5071   -0.1537    1.5065 C   0  0  1  0  0  0  0  0  0  0  0  0
    0.5389    1.5024   -0.4624 C   0  0  0  0  0  0  0  0  0  0  0  0
    1.0026   -1.5487    1.9440 C   0  0  0  0  0  0  0  0  0  0  0  0
    0.9325    0.9107    2.4320 N   0  0  0  0  0  0  0  0  0  0  0  0
    1.0142    1.7792   -1.8930 C   0  0  0  0  0  0  0  0  0  0  0  0
    1.7987   -1.5265    3.0425 O   0  0  0  0  0  0  0  0  0  0  0  0
    0.7218   -2.5874    1.3711 O   0  0  0  0  0  0  0  0  0  0  0  0
    0.5017    0.7762   -2.9304 C   0  0  0  0  0  0  0  0  0  0  0  0
    1.0360    1.1170   -4.2432 N   0  0  0  0  0  0  0  0  0  0  0  0
    0.7090    0.3910   -5.3384 C   0  0  0  0  0  0  0  0  0  0  0  0
    1.2562    0.8884   -6.4664 N   0  0  0  0  0  0  0  0  0  0  0  0
   -0.0240   -0.6614   -5.3268 N   0  0  0  0  0  0  0  0  0  0  0  0
    0.6019   -0.6597   -0.5720 H   0  0  0  0  0  0  0  0  0  0  0  0
    2.0827    0.0704    0.0254 H   0  0  0  0  0  0  0  0  0  0  0  0
   -0.5858   -0.1915    1.5273 H   0  0  0  0  0  0  0  0  0  0  0  0
   -0.5533    1.5899   -0.4177 H   0  0  0  0  0  0  0  0  0  0  0  0
    0.9441    2.2957    0.1783 H   0  0  0  0  0  0  0  0  0  0  0  0
    0.5236    0.8271    3.3579 H   0  0  0  0  0  0  0  0  0  0  0  0
    1.9271    1.1152    2.4198 H   0  0  0  0  0  0  0  0  0  0  0  0
    0.6859    2.7883   -2.1754 H   0  0  0  0  0  0  0  0  0  0  0  0
    2.1116    1.7960   -1.9116 H   0  0  0  0  0  0  0  0  0  0  0  0
    1.9225   -0.6110    3.3509 H   0  0  0  0  0  0  0  0  0  0  0  0
    0.8341   -0.2314   -2.6629 H   0  0  0  0  0  0  0  0  0  0  0  0
   -0.5959    0.7753   -2.9476 H   0  0  0  0  0  0  0  0  0  0  0  0
    1.0943    2.1150   -4.4150 H   0  0  0  0  0  0  0  0  0  0  0  0
    1.3132    0.2290   -7.2269 H   0  0  0  0  0  0  0  0  0  0  0  0
    2.1450    1.3499   -6.3167 H   0  0  0  0  0  0  0  0  0  0  0  0
   -0.1365   -1.0090   -6.2791 H   0  0  0  0  0  0  0  0  0  0  0  0
  1  2  1  0  0  0  0
  1  3  1  0  0  0  0
  1 14  1  0  0  0  0
  1 15  1  0  0  0  0
  2  4  1  0  0  0  0
  2  5  1  0  0  0  0
  2 16  1  6  0  0  0
  3  6  1  0  0  0  0
  3 17  1  0  0  0  0
  3 18  1  0  0  0  0
  4  7  1  0  0  0  0
  4  8  2  0  0  0  0
  5 19  1  0  0  0  0
  5 20  1  0  0  0  0
  6  9  1  0  0  0  0
  6 21  1  0  0  0  0
  6 22  1  0  0  0  0
  7 23  1  0  0  0  0
  9 10  1  0  0  0  0
  9 24  1  0  0  0  0
  9 25  1  0  0  0  0
 10 11  1  0  0  0  0
 10 26  1  0  0  0  0
 11 12  1  0  0  0  0
 11 13  2  0  0  0  0
 12 27  1  0  0  0  0
 12 28  1  0  0  0  0
 13 29  1  0  0  0  0
M  END
>  <Mol_ID>
7829

>  <Formula>
C7H17ClN4O2

>  <MolWeight>
224.68848

>  <Cat>
S5431

>  <Name>
L-Homoarginine hydrochloride

>  <Synonyms>
N/A

>  <Target>
phosphatase

>  <Form>
hydrochloride

>  <CAS>
1483-01-8

>  <URL>
http://selleckchem.com/products/l-homoarginine-hydrochloride.html

$$$$
