S5438 Biphenyl-4-sulfonyl chloride.cdx
 OpenBabel08302520013D

 24 25  0  0  0  0  0  0  0  0999 V2000
    1.3640   -0.2150    0.0869 C   0  0  0  0  0  0  0  0  0  0  0  0
    2.8292   -0.4380    0.1717 C   0  0  0  0  0  0  0  0  0  0  0  0
    0.4501   -1.2876    0.0937 C   0  0  0  0  0  0  0  0  0  0  0  0
    0.8242    1.0810   -0.0132 C   0  0  0  0  0  0  0  0  0  0  0  0
    3.4400   -1.5702   -0.3995 C   0  0  0  0  0  0  0  0  0  0  0  0
    3.6751    0.4825    0.8202 C   0  0  0  0  0  0  0  0  0  0  0  0
   -0.9324   -1.0734   -0.0002 C   0  0  0  0  0  0  0  0  0  0  0  0
   -0.5567    1.2988   -0.0948 C   0  0  0  0  0  0  0  0  0  0  0  0
    4.8238   -1.7714   -0.3304 C   0  0  0  0  0  0  0  0  0  0  0  0
    5.0603    0.2924    0.8794 C   0  0  0  0  0  0  0  0  0  0  0  0
   -1.4394    0.2211   -0.0914 C   0  0  0  0  0  0  0  0  0  0  0  0
    5.6341   -0.8359    0.3044 C   0  0  0  0  0  0  0  0  0  0  0  0
   -3.1867    0.4960   -0.2313 S   0  0  0  0  0  5  0  0  0  0  0  0
   -3.9223   -0.6557    0.4092 O   0  0  0  0  0  0  0  0  0  0  0  0
   -3.5153    1.8787    0.2750 O   0  0  0  0  0  0  0  0  0  0  0  0
    0.7945   -2.3137    0.1882 H   0  0  0  0  0  0  0  0  0  0  0  0
    1.4706    1.9535   -0.0390 H   0  0  0  0  0  0  0  0  0  0  0  0
    2.8401   -2.3103   -0.9248 H   0  0  0  0  0  0  0  0  0  0  0  0
    3.2580    1.3652    1.3000 H   0  0  0  0  0  0  0  0  0  0  0  0
   -1.6172   -1.9182    0.0099 H   0  0  0  0  0  0  0  0  0  0  0  0
   -0.9465    2.3120   -0.1568 H   0  0  0  0  0  0  0  0  0  0  0  0
    5.2626   -2.6574   -0.7804 H   0  0  0  0  0  0  0  0  0  0  0  0
    5.6837    1.0290    1.3783 H   0  0  0  0  0  0  0  0  0  0  0  0
    6.7090   -0.9859    0.3509 H   0  0  0  0  0  0  0  0  0  0  0  0
  1  2  1  0  0  0  0
  1  3  2  0  0  0  0
  1  4  1  0  0  0  0
  2  5  2  0  0  0  0
  2  6  1  0  0  0  0
  3  7  1  0  0  0  0
  3 16  1  0  0  0  0
  4  8  2  0  0  0  0
  4 17  1  0  0  0  0
  5  9  1  0  0  0  0
  5 18  1  0  0  0  0
  6 10  2  0  0  0  0
  6 19  1  0  0  0  0
  7 11  2  0  0  0  0
  7 20  1  0  0  0  0
  8 11  1  0  0  0  0
  8 21  1  0  0  0  0
  9 12  2  0  0  0  0
  9 22  1  0  0  0  0
 10 12  1  0  0  0  0
 10 23  1  0  0  0  0
 11 13  1  0  0  0  0
 12 24  1  0  0  0  0
 13 14  2  0  0  0  0
 13 15  2  0  0  0  0
M  END
>  <Mol_ID>
3013

>  <Formula>
C12H9ClO2S

>  <MolWeight>
252.71666

>  <Cat>
S5438

>  <Name>
Biphenyl-4-sulfonyl chloride

>  <Synonyms>
p-Phenylbenzenesulfonyl chloride, 4-Phenylbenzenesulfonyl chloride, p-Biphenylsulfonyl chloride

>  <Target>
HDAC

>  <Form>
free base

>  <CAS>
1623-93-4

>  <URL>
http://selleckchem.com/products/biphenyl-4-sulfonyl-chloride.html

$$$$
