S5436 2-Hydroxycaprylic acid.cdx
 OpenBabel08302520013D

 27 26  0  0  0  0  0  0  0  0999 V2000
    1.0673   -0.5269    2.0888 C   0  0  3  0  0  0  0  0  0  0  0  0
    0.5342    0.5166    1.0982 C   0  0  0  0  0  0  0  0  0  0  0  0
    0.5323   -1.9285    1.7680 C   0  0  0  0  0  0  0  0  0  0  0  0
    0.6787   -0.2006    3.4369 O   0  0  0  0  0  0  0  0  0  0  0  0
    1.1000    1.9207    1.3631 C   0  0  0  0  0  0  0  0  0  0  0  0
   -0.0196   -2.5146    2.8630 O   0  0  0  0  0  0  0  0  0  0  0  0
    0.5873   -2.4750    0.6753 O   0  0  0  0  0  0  0  0  0  0  0  0
    0.5499    2.9611    0.3781 C   0  0  0  0  0  0  0  0  0  0  0  0
    1.1079    4.3632    0.6597 C   0  0  0  0  0  0  0  0  0  0  0  0
    0.5662    5.4009   -0.3269 C   0  0  0  0  0  0  0  0  0  0  0  0
    1.1142    6.7953   -0.0468 C   0  0  0  0  0  0  0  0  0  0  0  0
    2.1608   -0.5815    2.0678 H   0  0  0  0  0  0  0  0  0  0  0  0
    0.7741    0.2103    0.0729 H   0  0  0  0  0  0  0  0  0  0  0  0
   -0.5605    0.5564    1.1694 H   0  0  0  0  0  0  0  0  0  0  0  0
   -0.1248    0.3522    3.3890 H   0  0  0  0  0  0  0  0  0  0  0  0
    0.8571    2.2327    2.3855 H   0  0  0  0  0  0  0  0  0  0  0  0
    2.1937    1.8888    1.2875 H   0  0  0  0  0  0  0  0  0  0  0  0
    0.1079   -1.9020    3.6261 H   0  0  0  0  0  0  0  0  0  0  0  0
    0.8041    2.6645   -0.6465 H   0  0  0  0  0  0  0  0  0  0  0  0
   -0.5450    2.9847    0.4461 H   0  0  0  0  0  0  0  0  0  0  0  0
    0.8492    4.6630    1.6826 H   0  0  0  0  0  0  0  0  0  0  0  0
    2.2027    4.3399    0.5975 H   0  0  0  0  0  0  0  0  0  0  0  0
    0.8326    5.1146   -1.3504 H   0  0  0  0  0  0  0  0  0  0  0  0
   -0.5279    5.4327   -0.2740 H   0  0  0  0  0  0  0  0  0  0  0  0
    2.2080    6.8058   -0.0866 H   0  0  0  0  0  0  0  0  0  0  0  0
    0.7433    7.5052   -0.7938 H   0  0  0  0  0  0  0  0  0  0  0  0
    0.8015    7.1506    0.9404 H   0  0  0  0  0  0  0  0  0  0  0  0
  1  2  1  0  0  0  0
  1  3  1  0  0  0  0
  1  4  1  0  0  0  0
  1 12  1  0  0  0  0
  2  5  1  0  0  0  0
  2 13  1  0  0  0  0
  2 14  1  0  0  0  0
  3  6  1  0  0  0  0
  3  7  2  0  0  0  0
  4 15  1  0  0  0  0
  5  8  1  0  0  0  0
  5 16  1  0  0  0  0
  5 17  1  0  0  0  0
  6 18  1  0  0  0  0
  8  9  1  0  0  0  0
  8 19  1  0  0  0  0
  8 20  1  0  0  0  0
  9 10  1  0  0  0  0
  9 21  1  0  0  0  0
  9 22  1  0  0  0  0
 10 11  1  0  0  0  0
 10 23  1  0  0  0  0
 10 24  1  0  0  0  0
 11 25  1  0  0  0  0
 11 26  1  0  0  0  0
 11 27  1  0  0  0  0
M  END
>  <Mol_ID>
2935

>  <Formula>
C8H16O3

>  <MolWeight>
160.21084

>  <Cat>
S5436

>  <Name>
2-Hydroxycaprylic acid

>  <Synonyms>
2-hydroxyoctanoic acid

>  <Target>
Others

>  <Form>
free base

>  <CAS>
617-73-2

>  <URL>
http://selleckchem.com/products/2-hydroxycaprylic-acid.html

$$$$
