S5446 2-Chloro-1-(4-fluorobenzyl)benzimidazole.cdx
 OpenBabel08302520013D

 28 30  0  0  0  0  0  0  0  0999 V2000
    0.1968   -0.6811   -0.1891 C   0  0  0  0  0  0  0  0  0  0  0  0
    1.4927   -1.1372   -0.1093 N   0  0  0  0  0  0  0  0  0  0  0  0
    0.3111    0.6940    0.0156 C   0  0  0  0  0  0  0  0  0  0  0  0
   -1.0378   -1.3116   -0.3887 C   0  0  0  0  0  0  0  0  0  0  0  0
    1.9253   -2.5211   -0.0286 C   0  0  0  0  0  0  0  0  0  0  0  0
    2.3092   -0.0542    0.0737 C   0  0  0  0  0  0  0  0  0  0  0  0
    1.6259    1.0648    0.1598 N   0  0  0  0  0  0  0  0  0  0  0  0
   -0.8475    1.4829    0.0620 C   0  0  0  0  0  0  0  0  0  0  0  0
   -2.1819   -0.5056   -0.3452 C   0  0  0  0  0  0  0  0  0  0  0  0
    2.3306   -3.0838   -1.3679 C   0  0  0  0  0  0  0  0  0  0  0  0
   -2.0921    0.8673   -0.1113 C   0  0  0  0  0  0  0  0  0  0  0  0
    3.6449   -2.9281   -1.8401 C   0  0  0  0  0  0  0  0  0  0  0  0
    1.4023   -3.7804   -2.1597 C   0  0  0  0  0  0  0  0  0  0  0  0
    4.0193   -3.4571   -3.0768 C   0  0  0  0  0  0  0  0  0  0  0  0
    1.7795   -4.3075   -3.3958 C   0  0  0  0  0  0  0  0  0  0  0  0
    3.0834   -4.1396   -3.8436 C   0  0  0  0  0  0  0  0  0  0  0  0
    3.4442   -4.6462   -5.0297 F   0  0  0  0  0  0  0  0  0  0  0  0
   -1.1202   -2.3773   -0.5679 H   0  0  0  0  0  0  0  0  0  0  0  0
    2.7630   -2.5698    0.6774 H   0  0  0  0  0  0  0  0  0  0  0  0
    1.1133   -3.1096    0.4150 H   0  0  0  0  0  0  0  0  0  0  0  0
    3.3848   -0.1368    0.1606 H   0  0  0  0  0  0  0  0  0  0  0  0
   -0.7679    2.5485    0.2443 H   0  0  0  0  0  0  0  0  0  0  0  0
   -3.1604   -0.9590   -0.4897 H   0  0  0  0  0  0  0  0  0  0  0  0
   -2.9967    1.4689   -0.0635 H   0  0  0  0  0  0  0  0  0  0  0  0
    4.3884   -2.3980   -1.2485 H   0  0  0  0  0  0  0  0  0  0  0  0
    0.3791   -3.9225   -1.8199 H   0  0  0  0  0  0  0  0  0  0  0  0
    5.0331   -3.3411   -3.4472 H   0  0  0  0  0  0  0  0  0  0  0  0
    1.0662   -4.8464   -4.0112 H   0  0  0  0  0  0  0  0  0  0  0  0
  1  2  1  0  0  0  0
  1  3  1  0  0  0  0
  1  4  2  0  0  0  0
  2  5  1  0  0  0  0
  2  6  1  0  0  0  0
  3  7  1  0  0  0  0
  3  8  2  0  0  0  0
  4  9  1  0  0  0  0
  4 18  1  0  0  0  0
  5 10  1  0  0  0  0
  5 19  1  0  0  0  0
  5 20  1  0  0  0  0
  6  7  2  0  0  0  0
  6 21  1  0  0  0  0
  8 11  1  0  0  0  0
  8 22  1  0  0  0  0
  9 11  2  0  0  0  0
  9 23  1  0  0  0  0
 10 12  2  0  0  0  0
 10 13  1  0  0  0  0
 11 24  1  0  0  0  0
 12 14  1  0  0  0  0
 12 25  1  0  0  0  0
 13 15  2  0  0  0  0
 13 26  1  0  0  0  0
 14 16  2  0  0  0  0
 14 27  1  0  0  0  0
 15 16  1  0  0  0  0
 15 28  1  0  0  0  0
 16 17  1  0  0  0  0
M  END
>  <Mol_ID>
2937

>  <Formula>
C14H10ClFN2

>  <MolWeight>
260.6940032

>  <Cat>
S5446

>  <Name>
2-Chloro-1-(4-fluorobenzyl)benzimidazole

>  <Synonyms>
N/A

>  <Target>
Aldose Reductase

>  <Form>
free base

>  <CAS>
84946-20-3

>  <URL>
http://selleckchem.com/products/2-chloro-1-4-fluorobenzyl-benzimidazole.html

$$$$
