S5449 3-Methoxybenzamide.cdx
 OpenBabel08302520013D

 20 20  0  0  0  0  0  0  0  0999 V2000
    1.4252   -0.1850    0.0581 C   0  0  0  0  0  0  0  0  0  0  0  0
    0.5655   -1.2971    0.0396 C   0  0  0  0  0  0  0  0  0  0  0  0
    0.8804    1.1045    0.0243 C   0  0  0  0  0  0  0  0  0  0  0  0
    2.8910   -0.4545    0.1319 C   0  0  0  0  0  0  0  0  0  0  0  0
   -0.8190   -1.1271    0.0080 C   0  0  0  0  0  0  0  0  0  0  0  0
   -0.5051    1.2765   -0.0093 C   0  0  0  0  0  0  0  0  0  0  0  0
    3.7564    0.6013    0.1503 N   0  0  0  0  0  0  0  0  0  0  0  0
    3.3286   -1.6000    0.1858 O   0  0  0  0  0  0  0  0  0  0  0  0
   -1.3472    0.1647   -0.0132 C   0  0  0  0  0  0  0  0  0  0  0  0
   -1.7502   -2.1290    0.0022 O   0  0  0  0  0  0  0  0  0  0  0  0
   -1.2541   -3.4628    0.0312 C   0  0  0  0  0  0  0  0  0  0  0  0
    1.0077   -2.2892    0.0549 H   0  0  0  0  0  0  0  0  0  0  0  0
    1.5026    1.9915    0.0275 H   0  0  0  0  0  0  0  0  0  0  0  0
   -0.9316    2.2764   -0.0279 H   0  0  0  0  0  0  0  0  0  0  0  0
    4.7396    0.3772    0.2360 H   0  0  0  0  0  0  0  0  0  0  0  0
    3.4948    1.5736    0.1438 H   0  0  0  0  0  0  0  0  0  0  0  0
   -2.4258    0.3042   -0.0329 H   0  0  0  0  0  0  0  0  0  0  0  0
   -0.6886   -3.6895   -0.8788 H   0  0  0  0  0  0  0  0  0  0  0  0
   -0.6517   -3.6434    0.9277 H   0  0  0  0  0  0  0  0  0  0  0  0
   -2.1133   -4.1392    0.0683 H   0  0  0  0  0  0  0  0  0  0  0  0
  1  2  2  0  0  0  0
  1  3  1  0  0  0  0
  1  4  1  0  0  0  0
  2  5  1  0  0  0  0
  2 12  1  0  0  0  0
  3  6  2  0  0  0  0
  3 13  1  0  0  0  0
  4  7  1  0  0  0  0
  4  8  2  0  0  0  0
  5  9  2  0  0  0  0
  5 10  1  0  0  0  0
  6  9  1  0  0  0  0
  6 14  1  0  0  0  0
  7 15  1  0  0  0  0
  7 16  1  0  0  0  0
  9 17  1  0  0  0  0
 10 11  1  0  0  0  0
 11 18  1  0  0  0  0
 11 19  1  0  0  0  0
 11 20  1  0  0  0  0
M  END
>  <Mol_ID>
2939

>  <Formula>
C8H9NO2

>  <MolWeight>
151.16256

>  <Cat>
S5449

>  <Name>
3-Methoxybenzamide

>  <Synonyms>
3-MBA

>  <Target>
Transferase

>  <Form>
free base

>  <CAS>
5813-86-5

>  <URL>
http://selleckchem.com/products/3-methoxybenzamide.html

$$$$
