S5444 4-Bromo-3-hydroxybenzoic acid.cdx
 OpenBabel08302520013D

 16 16  0  0  0  0  0  0  0  0999 V2000
    0.3100   -0.2228   -0.0067 C   0  0  0  0  0  0  0  0  0  0  0  0
    1.0355    0.9725    0.0072 C   0  0  0  0  0  0  0  0  0  0  0  0
    2.4315    0.9510    0.0213 C   0  0  0  0  0  0  0  0  0  0  0  0
    3.1070   -0.2777    0.0199 C   0  0  0  0  0  0  0  0  0  0  0  0
    2.3784   -1.4744    0.0000 C   0  0  0  0  0  0  0  0  0  0  0  0
    0.9817   -1.4467   -0.0126 C   0  0  0  0  0  0  0  0  0  0  0  0
    0.3747    2.1699    0.0076 O   0  0  0  0  0  0  0  0  0  0  0  0
   -1.5860   -0.2333   -0.0156 Br  0  0  0  0  0  0  0  0  0  0  0  0
    4.5877   -0.3614    0.0427 C   0  0  0  0  0  0  0  0  0  0  0  0
    5.2440   -1.3864    0.0426 O   0  0  0  0  0  0  0  0  0  0  0  0
    5.1771    0.8471    0.0691 O   0  0  0  0  0  0  0  0  0  0  0  0
    2.9955    1.8789    0.0354 H   0  0  0  0  0  0  0  0  0  0  0  0
    2.8955   -2.4327   -0.0036 H   0  0  0  0  0  0  0  0  0  0  0  0
    0.4283   -2.3825   -0.0259 H   0  0  0  0  0  0  0  0  0  0  0  0
    1.0158    2.8992   -0.0011 H   0  0  0  0  0  0  0  0  0  0  0  0
    6.1357    0.6379    0.0871 H   0  0  0  0  0  0  0  0  0  0  0  0
  1  8  1  0  0  0  0
  1  2  2  0  0  0  0
  2  7  1  0  0  0  0
  2  3  1  0  0  0  0
  3  4  2  0  0  0  0
  3 12  1  0  0  0  0
  4  9  1  0  0  0  0
  4  5  1  0  0  0  0
  5  6  2  0  0  0  0
  5 13  1  0  0  0  0
  6  1  1  0  0  0  0
  6 14  1  0  0  0  0
  7 15  1  0  0  0  0
  9 10  2  0  0  0  0
  9 11  1  0  0  0  0
 11 16  1  0  0  0  0
M  END
>  <Mol_ID>
3017

>  <Formula>
C7H5BrO3

>  <MolWeight>
217.0168

>  <Cat>
S5444

>  <Name>
4-Bromo-3-hydroxybenzoic acid

>  <Synonyms>
N/A

>  <Target>
Decarboxylase

>  <Form>
free base

>  <CAS>
14348-38-0

>  <URL>
http://selleckchem.com/products/4-bromo-3-hydroxybenzoic-acid.html

$$$$
