S5441 1-Naphthyl phosphate potassium salt.cdx
 OpenBabel08302520013D

 23 24  0  0  0  0  0  0  0  0999 V2000
    0.0888   -0.6753   -0.0199 C   0  0  0  0  0  0  0  0  0  0  0  0
   -0.0018    0.7375   -0.0033 C   0  0  0  0  0  0  0  0  0  0  0  0
    1.3685   -1.2771   -0.0490 C   0  0  0  0  0  0  0  0  0  0  0  0
   -1.1092   -1.4207   -0.0194 C   0  0  0  0  0  0  0  0  0  0  0  0
    1.1727    1.5063   -0.0049 C   0  0  0  0  0  0  0  0  0  0  0  0
   -1.2642    1.3548    0.0097 C   0  0  0  0  0  0  0  0  0  0  0  0
    2.5224   -0.4923   -0.0440 C   0  0  0  0  0  0  0  0  0  0  0  0
    1.4325   -2.6483   -0.0495 O   0  0  0  0  0  0  0  0  0  0  0  0
   -2.3568   -0.7934   -0.0059 C   0  0  0  0  0  0  0  0  0  0  0  0
    2.4253    0.8961   -0.0225 C   0  0  0  0  0  0  0  0  0  0  0  0
   -2.4340    0.5946    0.0080 C   0  0  0  0  0  0  0  0  0  0  0  0
    2.6787   -3.4875   -0.6519 P   0  0  3  0  0  0  0  0  0  0  0  0
    2.1591   -4.9785   -0.3133 O   0  0  0  0  0  0  0  0  0  0  0  0
    2.7936   -3.3579   -2.1433 O   0  0  0  0  0  0  0  0  0  0  0  0
    3.8739   -3.3750    0.2611 O   0  5  0  0  0  0  0  0  0  0  0  0
   -1.0644   -2.5089   -0.0409 H   0  0  0  0  0  0  0  0  0  0  0  0
    1.1213    2.5922    0.0049 H   0  0  0  0  0  0  0  0  0  0  0  0
   -1.3421    2.4391    0.0161 H   0  0  0  0  0  0  0  0  0  0  0  0
    3.5069   -0.9533   -0.0502 H   0  0  0  0  0  0  0  0  0  0  0  0
   -3.2612   -1.3946   -0.0135 H   0  0  0  0  0  0  0  0  0  0  0  0
    3.3308    1.4953   -0.0225 H   0  0  0  0  0  0  0  0  0  0  0  0
   -3.4020    1.0864    0.0112 H   0  0  0  0  0  0  0  0  0  0  0  0
    2.7529   -5.2208    0.4194 H   0  0  0  0  0  0  0  0  0  0  0  0
  1  2  1  0  0  0  0
  1  3  2  0  0  0  0
  1  4  1  0  0  0  0
  2  5  2  0  0  0  0
  2  6  1  0  0  0  0
  3  7  1  0  0  0  0
  3  8  1  0  0  0  0
  4  9  2  0  0  0  0
  4 16  1  0  0  0  0
  5 10  1  0  0  0  0
  5 17  1  0  0  0  0
  6 11  2  0  0  0  0
  6 18  1  0  0  0  0
  7 10  2  0  0  0  0
  7 19  1  0  0  0  0
  8 12  1  0  0  0  0
  9 11  1  0  0  0  0
  9 20  1  0  0  0  0
 10 21  1  0  0  0  0
 11 22  1  0  0  0  0
 12 13  1  0  0  0  0
 12 14  2  0  0  0  0
 12 15  1  0  0  0  0
 13 23  1  0  0  0  0
M  CHG  1  15  -1
M  END
>  <Mol_ID>
3016

>  <Formula>
C10H8KO4P

>  <MolWeight>
262.240181

>  <Cat>
S5441

>  <Name>
1-Naphthyl phosphate potassium salt

>  <Synonyms>
¦Á-Naphthyl acid phosphate monopotassium salt

>  <Target>
phosphatase

>  <Form>
potassium salt

>  <CAS>
100929-85-9

>  <URL>
http://selleckchem.com/products/1-naphthyl-phosphate-potassium-salt.html

$$$$
