S5440 Berberine Sulfate.cdx
 OpenBabel08302520013D

 49 52  0  0  0  0  0  0  0  0999 V2000
   -0.5061    0.3435    0.8099 C   0  0  0  0  0  0  0  0  0  0  0  0
    0.9770    0.3757    0.8792 C   0  0  0  0  0  0  0  0  0  0  0  0
   -1.1259    1.5380    0.6408 N   0  3  0  0  0  0  0  0  0  0  0  0
   -1.3037   -0.8133    0.7450 C   0  0  0  0  0  0  0  0  0  0  0  0
    1.6849    1.5309    0.4196 C   0  0  0  0  0  0  0  0  0  0  0  0
    1.7352   -0.7617    1.2119 C   0  0  0  0  0  0  0  0  0  0  0  0
   -2.4526    1.6083    0.4181 C   0  0  0  0  0  0  0  0  0  0  0  0
   -0.3864    2.8140    0.6904 C   0  0  0  0  0  0  0  0  0  0  0  0
   -2.6832   -0.7388    0.4763 C   0  0  0  0  0  0  0  0  0  0  0  0
    3.0740    1.5295    0.2237 C   0  0  0  0  0  0  0  0  0  0  0  0
    0.9175    2.7276   -0.0519 C   0  0  0  0  0  0  0  0  0  0  0  0
    3.0917   -0.7514    0.9481 C   0  0  0  0  0  0  0  0  0  0  0  0
   -3.3139    0.5158    0.3493 C   0  0  0  0  0  0  0  0  0  0  0  0
   -3.4279   -1.9090    0.2817 C   0  0  0  0  0  0  0  0  0  0  0  0
    3.7385    0.3567    0.4578 C   0  0  0  0  0  0  0  0  0  0  0  0
    3.9256   -1.8251    1.0392 O   0  0  0  0  0  0  0  0  0  0  0  0
   -4.7311    0.5644    0.1400 C   0  0  0  0  0  0  0  0  0  0  0  0
   -4.7982   -1.8638    0.0238 C   0  0  0  0  0  0  0  0  0  0  0  0
    5.0462    0.1166    0.1773 O   0  0  0  0  0  0  0  0  0  0  0  0
    5.0556   -1.3198    0.2986 C   0  0  0  0  0  0  0  0  0  0  0  0
   -5.4638   -0.6407   -0.0074 C   0  0  0  0  0  0  0  0  0  0  0  0
   -5.5428    1.6741    0.0687 O   0  0  0  0  0  0  0  0  0  0  0  0
   -6.8224   -0.5114   -0.1793 O   0  0  0  0  0  0  0  0  0  0  0  0
   -5.0700    3.0001    0.1471 C   0  0  0  0  0  0  0  0  0  0  0  0
   -7.6028   -1.6972   -0.2706 C   0  0  0  0  0  0  0  0  0  0  0  0
    0.6411   -0.8035   -2.3888 S   0  0  0  0  0  0  0  0  0  0  0  0
    0.0989   -1.4027   -3.7710 O   0  0  0  0  0  0  0  0  0  0  0  0
    0.4579   -1.9098   -1.4670 O   0  0  0  0  0  0  0  0  0  0  0  0
   -0.2155    0.3577   -2.1361 O   0  0  0  0  0  0  0  0  0  0  0  0
    2.0177   -0.5001   -2.7250 O   0  5  0  0  0  0  0  0  0  0  0  0
   -0.8290   -1.7924    0.7881 H   0  0  0  0  0  0  0  0  0  0  0  0
    1.2820   -1.6918    1.5365 H   0  0  0  0  0  0  0  0  0  0  0  0
   -2.7851    2.6164    0.2676 H   0  0  0  0  0  0  0  0  0  0  0  0
   -0.9941    3.6083    0.2400 H   0  0  0  0  0  0  0  0  0  0  0  0
   -0.2564    3.0463    1.7532 H   0  0  0  0  0  0  0  0  0  0  0  0
    3.5948    2.3785   -0.2059 H   0  0  0  0  0  0  0  0  0  0  0  0
    0.7470    2.6445   -1.1307 H   0  0  0  0  0  0  0  0  0  0  0  0
    1.4858    3.6481    0.1278 H   0  0  0  0  0  0  0  0  0  0  0  0
   -2.9369   -2.8828    0.2932 H   0  0  0  0  0  0  0  0  0  0  0  0
   -5.3136   -2.8027   -0.1521 H   0  0  0  0  0  0  0  0  0  0  0  0
    5.0563   -1.7639   -0.7070 H   0  0  0  0  0  0  0  0  0  0  0  0
    5.9752   -1.6174    0.8127 H   0  0  0  0  0  0  0  0  0  0  0  0
   -4.5729    3.1850    1.1063 H   0  0  0  0  0  0  0  0  0  0  0  0
   -4.4320    3.2348   -0.7124 H   0  0  0  0  0  0  0  0  0  0  0  0
   -5.9193    3.6843    0.0996 H   0  0  0  0  0  0  0  0  0  0  0  0
   -7.4265   -2.2009   -1.2263 H   0  0  0  0  0  0  0  0  0  0  0  0
   -7.4215   -2.3720    0.5726 H   0  0  0  0  0  0  0  0  0  0  0  0
   -8.6585   -1.4093   -0.2324 H   0  0  0  0  0  0  0  0  0  0  0  0
    0.8634   -1.9103   -4.1014 H   0  0  0  0  0  0  0  0  0  0  0  0
  1  2  1  0  0  0  0
  1  3  1  0  0  0  0
  1  4  2  0  0  0  0
  2  5  2  0  0  0  0
  2  6  1  0  0  0  0
  3  7  2  0  0  0  0
  3  8  1  0  0  0  0
  4  9  1  0  0  0  0
  4 31  1  0  0  0  0
  5 10  1  0  0  0  0
  5 11  1  0  0  0  0
  6 12  2  0  0  0  0
  6 32  1  0  0  0  0
  7 13  1  0  0  0  0
  7 33  1  0  0  0  0
  8 11  1  0  0  0  0
  8 34  1  0  0  0  0
  8 35  1  0  0  0  0
  9 14  2  0  0  0  0
  9 13  1  0  0  0  0
 10 15  2  0  0  0  0
 10 36  1  0  0  0  0
 11 37  1  0  0  0  0
 11 38  1  0  0  0  0
 12 16  1  0  0  0  0
 12 15  1  0  0  0  0
 13 17  2  0  0  0  0
 14 18  1  0  0  0  0
 14 39  1  0  0  0  0
 15 19  1  0  0  0  0
 16 20  1  0  0  0  0
 17 21  1  0  0  0  0
 17 22  1  0  0  0  0
 18 21  2  0  0  0  0
 18 40  1  0  0  0  0
 19 20  1  0  0  0  0
 20 41  1  0  0  0  0
 20 42  1  0  0  0  0
 21 23  1  0  0  0  0
 22 24  1  0  0  0  0
 23 25  1  0  0  0  0
 24 43  1  0  0  0  0
 24 44  1  0  0  0  0
 24 45  1  0  0  0  0
 25 46  1  0  0  0  0
 25 47  1  0  0  0  0
 25 48  1  0  0  0  0
 26 27  1  0  0  0  0
 26 28  2  0  0  0  0
 26 29  2  0  0  0  0
 26 30  1  0  0  0  0
 27 49  1  0  0  0  0
M  CHG  2   3   1  30  -1
M  END
>  <Mol_ID>
3015

>  <Formula>
C20H19NO8S

>  <MolWeight>
433.43176

>  <Cat>
S5440

>  <Name>
Berberine Sulfate

>  <Synonyms>
Umbellatine Sulfate

>  <Target>
Bacterial

>  <Form>
sulfate

>  <CAS>
633-66-9

>  <URL>
http://selleckchem.com/products/berberine-sulfate.html

$$$$
