S5452 Sanguinarine chloride.cdx
 OpenBabel08302520013D

 39 44  0  0  0  0  0  0  0  0999 V2000
    0.5048    0.4755   -0.1866 C   0  0  0  0  0  0  0  0  0  0  0  0
   -0.4835   -0.5626   -0.2252 C   0  0  0  0  0  0  0  0  0  0  0  0
    1.9005    0.1184   -0.2162 C   0  0  0  0  0  0  0  0  0  0  0  0
    0.0593    1.7782   -0.2353 N   0  3  0  0  0  0  0  0  0  0  0  0
   -1.8592   -0.2709   -0.0267 C   0  0  0  0  0  0  0  0  0  0  0  0
   -0.0497   -1.8667   -0.5081 C   0  0  0  0  0  0  0  0  0  0  0  0
    2.2325   -1.1501   -0.7730 C   0  0  0  0  0  0  0  0  0  0  0  0
    2.9910    0.8432    0.3559 C   0  0  0  0  0  0  0  0  0  0  0  0
   -1.2559    2.0688   -0.0871 C   0  0  0  0  0  0  0  0  0  0  0  0
    0.9335    2.8610   -0.7359 C   0  0  0  0  0  0  0  0  0  0  0  0
   -2.2293    1.0829    0.0393 C   0  0  0  0  0  0  0  0  0  0  0  0
   -2.8992   -1.2506    0.0820 C   0  0  0  0  0  0  0  0  0  0  0  0
    1.2558   -2.1209   -0.8995 C   0  0  0  0  0  0  0  0  0  0  0  0
    3.5435   -1.5130   -1.0781 C   0  0  0  0  0  0  0  0  0  0  0  0
    4.2735    0.3255    0.2521 C   0  0  0  0  0  0  0  0  0  0  0  0
   -3.5822    1.3943    0.1726 C   0  0  0  0  0  0  0  0  0  0  0  0
   -4.2458   -0.9070    0.2177 C   0  0  0  0  0  0  0  0  0  0  0  0
    4.5452   -0.7705   -0.5242 C   0  0  0  0  0  0  0  0  0  0  0  0
    5.3786    0.7196    0.9479 O   0  0  0  0  0  0  0  0  0  0  0  0
   -4.5536    0.4285    0.2553 C   0  0  0  0  0  0  0  0  0  0  0  0
   -4.1130    2.6505    0.2205 O   0  0  0  0  0  0  0  0  0  0  0  0
    5.8563   -1.1291   -0.4913 O   0  0  0  0  0  0  0  0  0  0  0  0
    6.2468   -0.4180    0.6968 C   0  0  0  0  0  0  0  0  0  0  0  0
   -5.8041    0.9442    0.3662 O   0  0  0  0  0  0  0  0  0  0  0  0
   -5.5169    2.3531    0.4224 C   0  0  0  0  0  0  0  0  0  0  0  0
   -0.7274   -2.7152   -0.5150 H   0  0  0  0  0  0  0  0  0  0  0  0
    2.8371    1.6905    1.0176 H   0  0  0  0  0  0  0  0  0  0  0  0
   -1.5339    3.1222   -0.1208 H   0  0  0  0  0  0  0  0  0  0  0  0
    1.6036    3.1811    0.0599 H   0  0  0  0  0  0  0  0  0  0  0  0
    1.4711    2.4924   -1.6149 H   0  0  0  0  0  0  0  0  0  0  0  0
    0.3241    3.7136   -1.0530 H   0  0  0  0  0  0  0  0  0  0  0  0
   -2.6754   -2.3170    0.0685 H   0  0  0  0  0  0  0  0  0  0  0  0
    1.5198   -3.1333   -1.2054 H   0  0  0  0  0  0  0  0  0  0  0  0
    3.7879   -2.4301   -1.6038 H   0  0  0  0  0  0  0  0  0  0  0  0
   -5.0220   -1.6638    0.2856 H   0  0  0  0  0  0  0  0  0  0  0  0
    6.1725   -1.1215    1.5400 H   0  0  0  0  0  0  0  0  0  0  0  0
    7.2862   -0.0876    0.6099 H   0  0  0  0  0  0  0  0  0  0  0  0
   -5.8113    2.7291    1.4088 H   0  0  0  0  0  0  0  0  0  0  0  0
   -6.1035    2.8686   -0.3463 H   0  0  0  0  0  0  0  0  0  0  0  0
  1  2  1  0  0  0  0
  1  3  1  0  0  0  0
  1  4  2  0  0  0  0
  2  5  2  0  0  0  0
  2  6  1  0  0  0  0
  3  7  2  0  0  0  0
  3  8  1  0  0  0  0
  4  9  1  0  0  0  0
  4 10  1  0  0  0  0
  5 11  1  0  0  0  0
  5 12  1  0  0  0  0
  6 13  2  0  0  0  0
  6 26  1  0  0  0  0
  7 14  1  0  0  0  0
  7 13  1  0  0  0  0
  8 15  2  0  0  0  0
  8 27  1  0  0  0  0
  9 11  2  0  0  0  0
  9 28  1  0  0  0  0
 10 29  1  0  0  0  0
 10 30  1  0  0  0  0
 10 31  1  0  0  0  0
 11 16  1  0  0  0  0
 12 17  2  0  0  0  0
 12 32  1  0  0  0  0
 13 33  1  0  0  0  0
 14 18  2  0  0  0  0
 14 34  1  0  0  0  0
 15 19  1  0  0  0  0
 15 18  1  0  0  0  0
 16 20  2  0  0  0  0
 16 21  1  0  0  0  0
 17 20  1  0  0  0  0
 17 35  1  0  0  0  0
 18 22  1  0  0  0  0
 19 23  1  0  0  0  0
 20 24  1  0  0  0  0
 21 25  1  0  0  0  0
 22 23  1  0  0  0  0
 23 36  1  0  0  0  0
 23 37  1  0  0  0  0
 24 25  1  0  0  0  0
 25 38  1  0  0  0  0
 25 39  1  0  0  0  0
M  CHG  1   4   1
M  END
>  <Mol_ID>
3020

>  <Formula>
C20H14ClNO4

>  <MolWeight>
367.78246

>  <Cat>
S5452

>  <Name>
Sanguinarine chloride

>  <Synonyms>
N/A

>  <Target>
phosphatase,ROS

>  <Form>
chloride

>  <CAS>
5578-73-4

>  <URL>
http://selleckchem.com/products/sanguinarine-chloride.html

$$$$
