S5456 Isobavachalcone.cdx
 OpenBabel08302520013D

 44 45  0  0  0  0  0  0  0  0999 V2000
    1.2313    1.2001    0.0267 C   0  0  0  0  0  0  0  0  0  0  0  0
    1.2407   -0.2097    0.0141 C   0  0  0  0  0  0  0  0  0  0  0  0
    0.0020    1.8726    0.0072 C   0  0  0  0  0  0  0  0  0  0  0  0
    2.5254    1.9369    0.0235 C   0  0  0  0  0  0  0  0  0  0  0  0
    0.0447   -0.9508   -0.0132 C   0  0  0  0  0  0  0  0  0  0  0  0
    2.4202   -0.9176    0.0348 O   0  0  0  0  0  0  0  0  0  0  0  0
   -1.1929    1.1505   -0.0084 C   0  0  0  0  0  0  0  0  0  0  0  0
    2.5960    3.2884    0.6390 C   0  0  0  0  0  0  0  0  0  0  0  0
    3.5227    1.3817   -0.4363 O   0  0  0  0  0  0  0  0  0  0  0  0
   -1.1661   -0.2446   -0.0192 C   0  0  0  0  0  0  0  0  0  0  0  0
    0.0613   -2.4656   -0.0209 C   0  0  0  0  0  0  0  0  0  0  0  0
    3.7552    3.9665    0.6120 C   0  0  0  0  0  0  0  0  0  0  0  0
   -2.3422   -0.9397   -0.0552 O   0  0  0  0  0  0  0  0  0  0  0  0
    0.0407   -3.0551    1.3678 C   0  0  0  0  0  0  0  0  0  0  0  0
    3.8784    5.2831    1.2362 C   0  0  0  0  0  0  0  0  0  0  0  0
   -0.8872   -3.8937    1.8718 C   0  0  0  0  0  0  0  0  0  0  0  0
    4.2465    5.3957    2.5827 C   0  0  0  0  0  0  0  0  0  0  0  0
    3.6160    6.4385    0.4930 C   0  0  0  0  0  0  0  0  0  0  0  0
   -0.8002   -4.4015    3.2838 C   0  0  0  0  0  0  0  0  0  0  0  0
   -2.0682   -4.3774    1.0782 C   0  0  0  0  0  0  0  0  0  0  0  0
    4.3526    6.6541    3.1820 C   0  0  0  0  0  0  0  0  0  0  0  0
    3.7194    7.6956    1.0921 C   0  0  0  0  0  0  0  0  0  0  0  0
    4.0866    7.7940    2.4294 C   0  0  0  0  0  0  0  0  0  0  0  0
    4.1759    9.0417    2.9713 O   0  0  0  0  0  0  0  0  0  0  0  0
   -0.0532    2.9570   -0.0225 H   0  0  0  0  0  0  0  0  0  0  0  0
    3.1591   -0.2944   -0.1464 H   0  0  0  0  0  0  0  0  0  0  0  0
   -2.1359    1.6898   -0.0255 H   0  0  0  0  0  0  0  0  0  0  0  0
    1.7240    3.6940    1.1329 H   0  0  0  0  0  0  0  0  0  0  0  0
   -0.7701   -2.8322   -0.6339 H   0  0  0  0  0  0  0  0  0  0  0  0
    0.9572   -2.8278   -0.5401 H   0  0  0  0  0  0  0  0  0  0  0  0
    4.6488    3.5683    0.1335 H   0  0  0  0  0  0  0  0  0  0  0  0
   -3.0879   -0.3200    0.0132 H   0  0  0  0  0  0  0  0  0  0  0  0
    0.8812   -2.7584    1.9940 H   0  0  0  0  0  0  0  0  0  0  0  0
    4.4573    4.5056    3.1711 H   0  0  0  0  0  0  0  0  0  0  0  0
    3.3351    6.3702   -0.5551 H   0  0  0  0  0  0  0  0  0  0  0  0
   -1.6844   -4.0904    3.8503 H   0  0  0  0  0  0  0  0  0  0  0  0
   -0.7488   -5.4953    3.2926 H   0  0  0  0  0  0  0  0  0  0  0  0
    0.0820   -4.0217    3.8093 H   0  0  0  0  0  0  0  0  0  0  0  0
   -2.6972   -3.5391    0.7649 H   0  0  0  0  0  0  0  0  0  0  0  0
   -1.7387   -4.9331    0.1942 H   0  0  0  0  0  0  0  0  0  0  0  0
   -2.6972   -5.0509    1.6699 H   0  0  0  0  0  0  0  0  0  0  0  0
    4.6426    6.7233    4.2260 H   0  0  0  0  0  0  0  0  0  0  0  0
    3.5179    8.5944    0.5160 H   0  0  0  0  0  0  0  0  0  0  0  0
    4.4658    8.9605    3.8946 H   0  0  0  0  0  0  0  0  0  0  0  0
  1  2  2  0  0  0  0
  1  3  1  0  0  0  0
  1  4  1  0  0  0  0
  2  5  1  0  0  0  0
  2  6  1  0  0  0  0
  3  7  2  0  0  0  0
  3 25  1  0  0  0  0
  4  8  1  0  0  0  0
  4  9  2  0  0  0  0
  5 10  2  0  0  0  0
  5 11  1  0  0  0  0
  6 26  1  0  0  0  0
  7 10  1  0  0  0  0
  7 27  1  0  0  0  0
  8 12  2  0  0  0  0
  8 28  1  0  0  0  0
 10 13  1  0  0  0  0
 11 14  1  0  0  0  0
 11 29  1  0  0  0  0
 11 30  1  0  0  0  0
 12 15  1  0  0  0  0
 12 31  1  0  0  0  0
 13 32  1  0  0  0  0
 14 16  2  0  0  0  0
 14 33  1  0  0  0  0
 15 17  2  0  0  0  0
 15 18  1  0  0  0  0
 16 19  1  0  0  0  0
 16 20  1  0  0  0  0
 17 21  1  0  0  0  0
 17 34  1  0  0  0  0
 18 22  2  0  0  0  0
 18 35  1  0  0  0  0
 19 36  1  0  0  0  0
 19 37  1  0  0  0  0
 19 38  1  0  0  0  0
 20 39  1  0  0  0  0
 20 40  1  0  0  0  0
 20 41  1  0  0  0  0
 21 23  2  0  0  0  0
 21 42  1  0  0  0  0
 22 23  1  0  0  0  0
 22 43  1  0  0  0  0
 23 24  1  0  0  0  0
 24 44  1  0  0  0  0
M  END
>  <Mol_ID>
3024

>  <Formula>
C20H20O4

>  <MolWeight>
324.3704

>  <Cat>
S5456

>  <Name>
Isobavachalcone

>  <Synonyms>
Corylifolinin

>  <Target>
Bacterial

>  <Form>
free base

>  <CAS>
20784-50-3

>  <URL>
http://selleckchem.com/products/isobavachalcone.html

$$$$
