S5462 5-O-Methylvisammioside.cdx
 OpenBabel08302520013D

 60 63  0  0  0  0  0  0  0  0999 V2000
    0.1194   -0.9380   -0.3820 C   0  0  2  0  0  0  0  0  0  0  0  0
    0.4362   -0.9762   -1.8755 C   0  0  2  0  0  0  0  0  0  0  0  0
    0.4184    0.4596   -2.4192 C   0  0  1  0  0  0  0  0  0  0  0  0
    1.3588    1.3686   -1.6083 C   0  0  2  0  0  0  0  0  0  0  0  0
    1.1131    1.2233   -0.0783 C   0  0  1  0  0  0  0  0  0  0  0  0
    1.0947   -0.1447    0.3023 O   0  0  0  0  0  0  0  0  0  0  0  0
    2.1957    1.8948    0.5752 O   0  0  0  0  0  0  0  0  0  0  0  0
    2.2448    1.9507    2.0163 C   0  0  0  0  0  0  0  0  0  0  0  0
    5.4256    2.4682    5.3433 C   0  0  0  0  0  0  0  0  0  0  0  0
    6.9354    1.5484    3.1203 C   0  0  0  0  0  0  0  0  0  0  0  0
    7.4613    1.4966    4.4390 C   0  0  0  0  0  0  0  0  0  0  0  0
    6.7061    1.9524    5.5325 C   0  0  0  0  0  0  0  0  0  0  0  0
    7.1509    1.9243    6.8333 O   0  0  0  0  0  0  0  0  0  0  0  0
    8.4117    1.4213    7.0934 C   0  0  0  0  0  0  0  0  0  0  0  0
    9.2369    0.9595    6.1495 C   0  0  0  0  0  0  0  0  0  0  0  0
    8.8182    0.9634    4.7358 C   0  0  0  0  0  0  0  0  0  0  0  0
    4.9289    2.5116    4.0578 C   0  0  0  0  0  0  0  0  0  0  0  0
    5.6510    2.0625    2.9573 C   0  0  0  0  0  0  0  0  0  0  0  0
    4.8094    2.2586    1.7489 C   0  0  0  0  0  0  0  0  0  0  0  0
    3.5047    2.8178    2.3482 C   0  0  2  0  0  0  0  0  0  0  0  0
    3.6745    2.9852    3.7771 O   0  0  0  0  0  0  0  0  0  0  0  0
    7.7543    1.0755    2.1416 O   0  0  0  0  0  0  0  0  0  0  0  0
    9.6047    0.5358    3.9037 O   0  0  0  0  0  0  0  0  0  0  0  0
    8.7902    1.4407    8.5416 C   0  0  0  0  0  0  0  0  0  0  0  0
    1.2264    2.7308   -2.0472 O   0  0  0  0  0  0  0  0  0  0  0  0
    0.1628   -2.3403    0.2334 C   0  0  0  0  0  0  0  0  0  0  0  0
   -0.2135   -2.2664    1.6098 O   0  0  0  0  0  0  0  0  0  0  0  0
   -0.4999   -1.8149   -2.5527 O   0  0  0  0  0  0  0  0  0  0  0  0
    0.7624    0.4444   -3.8119 O   0  0  0  0  0  0  0  0  0  0  0  0
    7.3602    1.0613    0.7836 C   0  0  0  0  0  0  0  0  0  0  0  0
    0.9927    2.6375    2.5847 C   0  0  0  0  0  0  0  0  0  0  0  0
    2.3915    0.5551    2.6518 C   0  0  0  0  0  0  0  0  0  0  0  0
   -0.8768   -0.5118   -0.2009 H   0  0  0  0  0  0  0  0  0  0  0  0
    1.4333   -1.4042   -2.0424 H   0  0  0  0  0  0  0  0  0  0  0  0
   -0.6027    0.8579   -2.3892 H   0  0  0  0  0  0  0  0  0  0  0  0
    2.3970    1.0939   -1.8317 H   0  0  0  0  0  0  0  0  0  0  0  0
    0.1698    1.7141    0.1888 H   0  0  0  0  0  0  0  0  0  0  0  0
    4.8321    2.8192    6.1805 H   0  0  0  0  0  0  0  0  0  0  0  0
   10.2247    0.5679    6.3618 H   0  0  0  0  0  0  0  0  0  0  0  0
    4.6427    1.3240    1.2092 H   0  0  0  0  0  0  0  0  0  0  0  0
    5.2479    2.9954    1.0701 H   0  0  0  0  0  0  0  0  0  0  0  0
    3.3468    3.8210    1.9256 H   0  0  0  0  0  0  0  0  0  0  0  0
    8.7401    2.4612    8.9345 H   0  0  0  0  0  0  0  0  0  0  0  0
    8.1073    0.8114    9.1208 H   0  0  0  0  0  0  0  0  0  0  0  0
    9.8078    1.0698    8.7046 H   0  0  0  0  0  0  0  0  0  0  0  0
    0.3343    3.0497   -1.8300 H   0  0  0  0  0  0  0  0  0  0  0  0
   -0.5252   -3.0288   -0.2639 H   0  0  0  0  0  0  0  0  0  0  0  0
    1.1756   -2.7551    0.1922 H   0  0  0  0  0  0  0  0  0  0  0  0
    0.3991   -1.6265    2.0147 H   0  0  0  0  0  0  0  0  0  0  0  0
   -1.0703   -1.2617   -3.1161 H   0  0  0  0  0  0  0  0  0  0  0  0
    1.7219    0.3006   -3.8916 H   0  0  0  0  0  0  0  0  0  0  0  0
    6.5061    0.3942    0.6289 H   0  0  0  0  0  0  0  0  0  0  0  0
    7.1657    2.0727    0.4160 H   0  0  0  0  0  0  0  0  0  0  0  0
    8.1899    0.6592    0.2004 H   0  0  0  0  0  0  0  0  0  0  0  0
    0.0978    2.0236    2.4338 H   0  0  0  0  0  0  0  0  0  0  0  0
    1.0823    2.8193    3.6606 H   0  0  0  0  0  0  0  0  0  0  0  0
    0.8077    3.5926    2.0811 H   0  0  0  0  0  0  0  0  0  0  0  0
    3.0604   -0.0864    2.0683 H   0  0  0  0  0  0  0  0  0  0  0  0
    2.7652    0.6022    3.6785 H   0  0  0  0  0  0  0  0  0  0  0  0
    1.4261    0.0465    2.7115 H   0  0  0  0  0  0  0  0  0  0  0  0
  1  6  1  0  0  0  0
  1 26  1  0  0  0  0
  1  2  1  0  0  0  0
  1 33  1  1  0  0  0
  2  3  1  0  0  0  0
  2 28  1  0  0  0  0
  2 34  1  6  0  0  0
  3  4  1  0  0  0  0
  3 29  1  0  0  0  0
  3 35  1  1  0  0  0
  4  5  1  0  0  0  0
  4 25  1  0  0  0  0
  4 36  1  6  0  0  0
  5  6  1  0  0  0  0
  5  7  1  0  0  0  0
  5 37  1  1  0  0  0
  7  8  1  0  0  0  0
  8 31  1  0  0  0  0
  8 32  1  0  0  0  0
  9 12  2  0  0  0  0
  9 38  1  0  0  0  0
 10 22  1  0  0  0  0
 11 10  2  0  0  0  0
 11 12  1  0  0  0  0
 11 16  1  0  0  0  0
 12 13  1  0  0  0  0
 13 14  1  0  0  0  0
 14 15  2  0  0  0  0
 14 24  1  0  0  0  0
 15 16  1  0  0  0  0
 15 39  1  0  0  0  0
 16 23  2  0  0  0  0
 17  9  1  0  0  0  0
 17 18  2  0  0  0  0
 18 10  1  0  0  0  0
 18 19  1  0  0  0  0
 19 20  1  0  0  0  0
 19 40  1  0  0  0  0
 19 41  1  0  0  0  0
 20  8  1  0  0  0  0
 20 21  1  0  0  0  0
 20 42  1  6  0  0  0
 21 17  1  0  0  0  0
 22 30  1  0  0  0  0
 24 43  1  0  0  0  0
 24 44  1  0  0  0  0
 24 45  1  0  0  0  0
 25 46  1  0  0  0  0
 26 27  1  0  0  0  0
 26 47  1  0  0  0  0
 26 48  1  0  0  0  0
 27 49  1  0  0  0  0
 28 50  1  0  0  0  0
 29 51  1  0  0  0  0
 30 52  1  0  0  0  0
 30 53  1  0  0  0  0
 30 54  1  0  0  0  0
 31 55  1  0  0  0  0
 31 56  1  0  0  0  0
 31 57  1  0  0  0  0
 32 58  1  0  0  0  0
 32 59  1  0  0  0  0
 32 60  1  0  0  0  0
M  END
>  <Mol_ID>
3030

>  <Formula>
C22H28O10

>  <MolWeight>
452.45172

>  <Cat>
S5462

>  <Name>
5-O-Methylvisammioside

>  <Synonyms>
N/A

>  <Target>
Others

>  <Form>
free base

>  <CAS>
84272-85-5

>  <URL>
http://selleckchem.com/products/5-o-methylvisammioside.html

$$$$
