S5464 Psoralidin.cdx
 OpenBabel08302520013D

 41 44  0  0  0  0  0  0  0  0999 V2000
    3.7713    1.5344    0.0128 C   0  0  0  0  0  0  0  0  0  0  0  0
    4.4112    0.2813   -0.0004 C   0  0  0  0  0  0  0  0  0  0  0  0
    3.6789   -0.9001    0.0001 C   0  0  0  0  0  0  0  0  0  0  0  0
    2.3537    1.5797    0.0023 C   0  0  0  0  0  0  0  0  0  0  0  0
    1.6114    0.3991    0.0006 C   0  0  0  0  0  0  0  0  0  0  0  0
    2.2935   -0.8276    0.0020 C   0  0  0  0  0  0  0  0  0  0  0  0
    1.5926   -2.0708    0.0009 O   0  0  0  0  0  0  0  0  0  0  0  0
    0.1831   -2.1626    0.0002 C   0  0  0  0  0  0  0  0  0  0  0  0
    0.1758    0.2833    0.0009 C   0  0  0  0  0  0  0  0  0  0  0  0
   -0.5151   -0.9022    0.0017 C   0  0  0  0  0  0  0  0  0  0  0  0
   -0.6623    1.3510    0.0028 O   0  0  0  0  0  0  0  0  0  0  0  0
   -1.9345    0.8268    0.0013 C   0  0  0  0  0  0  0  0  0  0  0  0
   -1.8874   -0.5692    0.0009 C   0  0  0  0  0  0  0  0  0  0  0  0
   -3.0940   -1.2944   -0.0001 C   0  0  0  0  0  0  0  0  0  0  0  0
   -4.3051   -0.5952   -0.0004 C   0  0  0  0  0  0  0  0  0  0  0  0
   -4.3090    0.7990    0.0001 C   0  0  0  0  0  0  0  0  0  0  0  0
   -3.1291    1.5502    0.0019 C   0  0  0  0  0  0  0  0  0  0  0  0
   -0.3853   -3.2489    0.0000 O   0  0  0  0  0  0  0  0  0  0  0  0
    5.7678    0.1202   -0.0148 O   0  0  0  0  0  0  0  0  0  0  0  0
   -5.4926    1.4848   -0.0015 O   0  0  0  0  0  0  0  0  0  0  0  0
    4.5412    2.8365    0.0130 C   0  0  0  0  0  0  0  0  0  0  0  0
    4.8286    3.3291   -1.3807 C   0  0  0  0  0  0  0  0  0  0  0  0
    4.4341    4.5103   -1.8959 C   0  0  0  0  0  0  0  0  0  0  0  0
    4.7608    4.9023   -3.3107 C   0  0  0  0  0  0  0  0  0  0  0  0
    3.6362    5.5122   -1.1094 C   0  0  0  0  0  0  0  0  0  0  0  0
    4.1830   -1.8612   -0.0043 H   0  0  0  0  0  0  0  0  0  0  0  0
    1.8405    2.5400   -0.0045 H   0  0  0  0  0  0  0  0  0  0  0  0
   -3.0838   -2.3818   -0.0009 H   0  0  0  0  0  0  0  0  0  0  0  0
   -5.2325   -1.1625   -0.0021 H   0  0  0  0  0  0  0  0  0  0  0  0
   -3.1432    2.6325    0.0016 H   0  0  0  0  0  0  0  0  0  0  0  0
    6.2115    0.9752   -0.1173 H   0  0  0  0  0  0  0  0  0  0  0  0
   -6.2245    0.8475   -0.0039 H   0  0  0  0  0  0  0  0  0  0  0  0
    3.9851    3.5723    0.6043 H   0  0  0  0  0  0  0  0  0  0  0  0
    5.4893    2.7203    0.5513 H   0  0  0  0  0  0  0  0  0  0  0  0
    5.4062    2.6522   -2.0103 H   0  0  0  0  0  0  0  0  0  0  0  0
    3.8393    5.0702   -3.8779 H   0  0  0  0  0  0  0  0  0  0  0  0
    5.3499    5.8252   -3.3223 H   0  0  0  0  0  0  0  0  0  0  0  0
    5.3374    4.1321   -3.8336 H   0  0  0  0  0  0  0  0  0  0  0  0
    2.6789    5.0818   -0.7978 H   0  0  0  0  0  0  0  0  0  0  0  0
    4.1921    5.8357   -0.2231 H   0  0  0  0  0  0  0  0  0  0  0  0
    3.4170    6.4054   -1.7025 H   0  0  0  0  0  0  0  0  0  0  0  0
  1  2  2  0  0  0  0
  1  4  1  0  0  0  0
  1 21  1  0  0  0  0
  2  3  1  0  0  0  0
  2 19  1  0  0  0  0
  3  6  2  0  0  0  0
  3 26  1  0  0  0  0
  4 27  1  0  0  0  0
  5  4  2  0  0  0  0
  5  9  1  0  0  0  0
  5  6  1  0  0  0  0
  6  7  1  0  0  0  0
  7  8  1  0  0  0  0
  8 18  2  0  0  0  0
  8 10  1  0  0  0  0
  9 10  2  0  0  0  0
 10 13  1  0  0  0  0
 11  9  1  0  0  0  0
 12 11  1  0  0  0  0
 12 13  2  0  0  0  0
 12 17  1  0  0  0  0
 13 14  1  0  0  0  0
 14 15  2  0  0  0  0
 14 28  1  0  0  0  0
 15 16  1  0  0  0  0
 15 29  1  0  0  0  0
 16 17  2  0  0  0  0
 16 20  1  0  0  0  0
 17 30  1  0  0  0  0
 19 31  1  0  0  0  0
 20 32  1  0  0  0  0
 21 22  1  0  0  0  0
 21 33  1  0  0  0  0
 21 34  1  0  0  0  0
 22 23  2  0  0  0  0
 22 35  1  0  0  0  0
 23 24  1  0  0  0  0
 23 25  1  0  0  0  0
 24 36  1  0  0  0  0
 24 37  1  0  0  0  0
 24 38  1  0  0  0  0
 25 39  1  0  0  0  0
 25 40  1  0  0  0  0
 25 41  1  0  0  0  0
M  END
>  <Mol_ID>
3032

>  <Formula>
C20H16O5

>  <MolWeight>
336.33804

>  <Cat>
S5464

>  <Name>
Psoralidin

>  <Synonyms>
N/A

>  <Target>
Estrogen/progestogen Receptor

>  <Form>
free base

>  <CAS>
18642-23-4

>  <URL>
http://selleckchem.com/products/psoralidin.html

$$$$
