S5467 Asarinin.cdx
 OpenBabel08302520013D

 44 49  0  0  0  0  0  0  0  0999 V2000
    8.5538   -2.0704   -0.7588 C   0  0  0  0  0  0  0  0  0  0  0  0
    7.5618   -2.8132   -0.0170 O   0  0  0  0  0  0  0  0  0  0  0  0
    6.5729   -1.8868    0.0830 C   0  0  0  0  0  0  0  0  0  0  0  0
    5.3366   -2.0646    0.6575 C   0  0  0  0  0  0  0  0  0  0  0  0
    4.4376   -0.9879    0.6246 C   0  0  0  0  0  0  0  0  0  0  0  0
    4.7802    0.2557    0.0330 C   0  0  0  0  0  0  0  0  0  0  0  0
    6.0841    0.4026   -0.4616 C   0  0  0  0  0  0  0  0  0  0  0  0
    6.9361   -0.6809   -0.4569 C   0  0  0  0  0  0  0  0  0  0  0  0
    8.1962   -0.6906   -0.9676 O   0  0  0  0  0  0  0  0  0  0  0  0
    3.7428    1.3688    0.0255 C   0  0  1  0  0  0  0  0  0  0  0  0
    3.9465    2.1737    1.2014 O   0  0  0  0  0  0  0  0  0  0  0  0
    4.7363    3.3006    0.8020 C   0  0  0  0  0  0  0  0  0  0  0  0
    4.3312    3.6385   -0.6270 C   0  0  2  0  0  0  0  0  0  0  0  0
    3.6026    2.3970   -1.1068 C   0  0  1  0  0  0  0  0  0  0  0  0
    4.2036    2.0934   -2.4492 C   0  0  0  0  0  0  0  0  0  0  0  0
    5.5302    2.6187   -2.3922 O   0  0  0  0  0  0  0  0  0  0  0  0
    5.5041    3.8309   -1.5994 C   0  0  1  0  0  0  0  0  0  0  0  0
    5.4562    4.9779   -2.5987 C   0  0  0  0  0  0  0  0  0  0  0  0
    6.1682    4.8334   -3.8205 C   0  0  0  0  0  0  0  0  0  0  0  0
    6.1329    5.8039   -4.8236 C   0  0  0  0  0  0  0  0  0  0  0  0
    5.3934    6.9326   -4.5725 C   0  0  0  0  0  0  0  0  0  0  0  0
    5.2174    7.9719   -5.4277 O   0  0  0  0  0  0  0  0  0  0  0  0
    4.3504    8.8182   -4.6469 C   0  0  0  0  0  0  0  0  0  0  0  0
    4.0806    8.3061   -3.3247 O   0  0  0  0  0  0  0  0  0  0  0  0
    4.7433    7.1169   -3.3730 C   0  0  0  0  0  0  0  0  0  0  0  0
    4.7650    6.1737   -2.3632 C   0  0  0  0  0  0  0  0  0  0  0  0
    9.5043   -2.1046   -0.2156 H   0  0  0  0  0  0  0  0  0  0  0  0
    8.6904   -2.5474   -1.7372 H   0  0  0  0  0  0  0  0  0  0  0  0
    5.0666   -3.0080    1.1178 H   0  0  0  0  0  0  0  0  0  0  0  0
    3.4568   -1.1178    1.0803 H   0  0  0  0  0  0  0  0  0  0  0  0
    6.4662    1.3320   -0.8515 H   0  0  0  0  0  0  0  0  0  0  0  0
    2.7614    0.8879    0.1342 H   0  0  0  0  0  0  0  0  0  0  0  0
    4.5364    4.1267    1.4911 H   0  0  0  0  0  0  0  0  0  0  0  0
    5.7923    3.0314    0.9038 H   0  0  0  0  0  0  0  0  0  0  0  0
    3.6496    4.4929   -0.5973 H   0  0  0  0  0  0  0  0  0  0  0  0
    2.5340    2.6211   -1.2239 H   0  0  0  0  0  0  0  0  0  0  0  0
    4.2195    1.0333   -2.7127 H   0  0  0  0  0  0  0  0  0  0  0  0
    3.6700    2.6294   -3.2442 H   0  0  0  0  0  0  0  0  0  0  0  0
    6.4607    3.9102   -1.0684 H   0  0  0  0  0  0  0  0  0  0  0  0
    6.7447    3.9247   -4.0068 H   0  0  0  0  0  0  0  0  0  0  0  0
    6.6540    5.6644   -5.7623 H   0  0  0  0  0  0  0  0  0  0  0  0
    4.8191    9.8033   -4.5525 H   0  0  0  0  0  0  0  0  0  0  0  0
    3.3982    8.9291   -5.1791 H   0  0  0  0  0  0  0  0  0  0  0  0
    4.2464    6.3799   -1.4356 H   0  0  0  0  0  0  0  0  0  0  0  0
  1  2  1  0  0  0  0
  1  9  1  0  0  0  0
  1 27  1  0  0  0  0
  1 28  1  0  0  0  0
  2  3  1  0  0  0  0
  3  4  2  0  0  0  0
  3  8  1  0  0  0  0
  4  5  1  0  0  0  0
  4 29  1  0  0  0  0
  5  6  2  0  0  0  0
  5 30  1  0  0  0  0
  6  7  1  0  0  0  0
  7  8  2  0  0  0  0
  7 31  1  0  0  0  0
  8  9  1  0  0  0  0
 10 11  1  0  0  0  0
 10 14  1  0  0  0  0
 10 32  1  1  0  0  0
 10  6  1  0  0  0  0
 11 12  1  0  0  0  0
 12 33  1  0  0  0  0
 12 34  1  0  0  0  0
 13 12  1  0  0  0  0
 13 14  1  0  0  0  0
 13 17  1  0  0  0  0
 13 35  1  6  0  0  0
 14 15  1  0  0  0  0
 14 36  1  6  0  0  0
 15 16  1  0  0  0  0
 15 37  1  0  0  0  0
 15 38  1  0  0  0  0
 16 17  1  0  0  0  0
 17 18  1  0  0  0  0
 17 39  1  1  0  0  0
 18 19  2  0  0  0  0
 18 26  1  0  0  0  0
 19 20  1  0  0  0  0
 19 40  1  0  0  0  0
 20 21  2  0  0  0  0
 20 41  1  0  0  0  0
 21 22  1  0  0  0  0
 21 25  1  0  0  0  0
 22 23  1  0  0  0  0
 23 24  1  0  0  0  0
 23 42  1  0  0  0  0
 23 43  1  0  0  0  0
 24 25  1  0  0  0  0
 25 26  2  0  0  0  0
 26 44  1  0  0  0  0
M  END
>  <Mol_ID>
3034

>  <Formula>
C20H18O6

>  <MolWeight>
354.35332

>  <Cat>
S5467

>  <Name>
Asarinin

>  <Synonyms>
Sesamin, Fagarol, Pseudocubebin, Episesamin, Eleutheroside B4

>  <Target>
Others

>  <Form>
free base

>  <CAS>
133-04-0

>  <URL>
http://selleckchem.com/products/asarinin.html

$$$$
