S5473 Pivmecillinam hydrochloride.cdx
 OpenBabel08302520012D

 63 65  0  0  0  0  0  0  0  0999 V2000
    8.1010    2.9000    0.0000 N   0  0  0  0  0  0  0  0  0  0  0  0
    8.1010    4.2831    0.0000 C   0  0  1  0  0  0  0  0  0  0  0  0
    9.4329    2.4474    0.0000 C   0  0  2  0  0  0  0  0  0  0  0  0
    6.7179    2.9000    0.0000 C   0  0  0  0  0  0  0  0  0  0  0  0
    6.7179    4.2831    0.0000 C   0  0  1  0  0  0  0  0  0  0  0  0
    9.4329    4.6720    0.0000 S   0  0  0  0  0  0  0  0  0  0  0  0
   10.3447    3.5181    0.0000 C   0  0  0  0  0  0  0  0  0  0  0  0
    9.8346    1.1091    0.0000 C   0  0  0  0  0  0  0  0  0  0  0  0
    5.8065    1.9631    0.0000 O   0  0  0  0  0  0  0  0  0  0  0  0
    5.6472    5.0735    0.0000 N   0  0  0  0  0  0  0  0  0  0  0  0
   11.3962    4.2831    0.0000 C   0  0  0  0  0  0  0  0  0  0  0  0
   11.3962    2.9000    0.0000 C   0  0  0  0  0  0  0  0  0  0  0  0
   11.2177    0.7202    0.0000 O   0  0  0  0  0  0  0  0  0  0  0  0
    9.0187    0.0000    0.0000 O   0  0  0  0  0  0  0  0  0  0  0  0
    4.5254    4.4551    0.0000 C   0  0  0  0  0  0  0  0  0  0  0  0
   12.2403    1.6489    0.0000 C   0  0  0  0  0  0  0  0  0  0  0  0
    3.3333    5.1563    0.0000 N   0  0  0  0  0  0  0  0  0  0  0  0
   13.5240    1.2379    0.0000 O   0  0  0  0  0  0  0  0  0  0  0  0
    3.3333    6.7561    0.0000 C   0  0  0  0  0  0  0  0  0  0  0  0
    2.1287    4.2831    0.0000 C   0  0  0  0  0  0  0  0  0  0  0  0
   14.5640    2.1751    0.0000 C   0  0  0  0  0  0  0  0  0  0  0  0
    2.0651    7.6867    0.0000 C   0  0  0  0  0  0  0  0  0  0  0  0
    0.6501    4.5955    0.0000 C   0  0  0  0  0  0  0  0  0  0  0  0
   15.9359    1.7571    0.0000 C   0  0  0  0  0  0  0  0  0  0  0  0
   14.2325    3.5727    0.0000 O   0  0  0  0  0  0  0  0  0  0  0  0
    0.6821    7.3359    0.0000 C   0  0  0  0  0  0  0  0  0  0  0  0
    0.0000    5.9338    0.0000 C   0  0  0  0  0  0  0  0  0  0  0  0
   16.9589    2.7129    0.0000 C   0  0  0  0  0  0  0  0  0  0  0  0
   16.2522    0.3933    0.0000 C   0  0  0  0  0  0  0  0  0  0  0  0
   17.2882    1.3948    0.0000 C   0  0  0  0  0  0  0  0  0  0  0  0
    8.9571    3.6412    0.0000 H   0  0  0  0  0  0  0  0  0  0  0  0
    8.6628    1.7045    0.0000 H   0  0  0  0  0  0  0  0  0  0  0  0
    7.0524    5.2995    0.0000 H   0  0  0  0  0  0  0  0  0  0  0  0
   12.3740    3.8485    0.0000 H   0  0  0  0  0  0  0  0  0  0  0  0
   11.2837    5.3472    0.0000 H   0  0  0  0  0  0  0  0  0  0  0  0
   12.2614    4.9126    0.0000 H   0  0  0  0  0  0  0  0  0  0  0  0
   11.3878    1.8300    0.0000 H   0  0  0  0  0  0  0  0  0  0  0  0
   12.3270    3.4277    0.0000 H   0  0  0  0  0  0  0  0  0  0  0  0
   12.3186    2.3578    0.0000 H   0  0  0  0  0  0  0  0  0  0  0  0
    4.5110    3.4232    0.0000 H   0  0  0  0  0  0  0  0  0  0  0  0
   12.0133    2.6946    0.0000 H   0  0  0  0  0  0  0  0  0  0  0  0
   13.0324    2.3683    0.0000 H   0  0  0  0  0  0  0  0  0  0  0  0
    4.2878    7.2396    0.0000 H   0  0  0  0  0  0  0  0  0  0  0  0
    3.4210    7.8225    0.0000 H   0  0  0  0  0  0  0  0  0  0  0  0
    2.3512    3.2365    0.0000 H   0  0  0  0  0  0  0  0  0  0  0  0
    1.3726    3.5260    0.0000 H   0  0  0  0  0  0  0  0  0  0  0  0
    2.2696    8.7370    0.0000 H   0  0  0  0  0  0  0  0  0  0  0  0
    1.2876    8.4218    0.0000 H   0  0  0  0  0  0  0  0  0  0  0  0
   -0.0088    3.7525    0.0000 H   0  0  0  0  0  0  0  0  0  0  0  0
   -0.4139    4.7083    0.0000 H   0  0  0  0  0  0  0  0  0  0  0  0
    0.0066    8.1657    0.0000 H   0  0  0  0  0  0  0  0  0  0  0  0
   -0.3808    7.2129    0.0000 H   0  0  0  0  0  0  0  0  0  0  0  0
   -1.0700    5.9341    0.0000 H   0  0  0  0  0  0  0  0  0  0  0  0
   -0.5673    6.8410    0.0000 H   0  0  0  0  0  0  0  0  0  0  0  0
   17.9824    2.4010    0.0000 H   0  0  0  0  0  0  0  0  0  0  0  0
   16.7172    3.7552    0.0000 H   0  0  0  0  0  0  0  0  0  0  0  0
   17.7407    3.4434    0.0000 H   0  0  0  0  0  0  0  0  0  0  0  0
   15.4704   -0.3372    0.0000 H   0  0  0  0  0  0  0  0  0  0  0  0
   17.2758    0.0815    0.0000 H   0  0  0  0  0  0  0  0  0  0  0  0
   16.4939   -0.6490    0.0000 H   0  0  0  0  0  0  0  0  0  0  0  0
   17.5652    0.3613    0.0000 H   0  0  0  0  0  0  0  0  0  0  0  0
   18.0448    2.1514    0.0000 H   0  0  0  0  0  0  0  0  0  0  0  0
   18.3217    1.1179    0.0000 H   0  0  0  0  0  0  0  0  0  0  0  0
  1  2  1  0  0  0  0
  1  3  1  0  0  0  0
  1  4  1  0  0  0  0
  2  5  1  0  0  0  0
  2  6  1  0  0  0  0
  2 31  1  6  0  0  0
  3  7  1  0  0  0  0
  3  8  1  0  0  0  0
  3 32  1  1  0  0  0
  4  9  2  0  0  0  0
  4  5  1  0  0  0  0
  5 10  1  0  0  0  0
  5 33  1  6  0  0  0
  6  7  1  0  0  0  0
  7 11  1  0  0  0  0
  7 12  1  0  0  0  0
  8 13  1  0  0  0  0
  8 14  2  0  0  0  0
 10 15  2  0  0  0  0
 11 34  1  0  0  0  0
 11 35  1  0  0  0  0
 11 36  1  0  0  0  0
 12 37  1  0  0  0  0
 12 38  1  0  0  0  0
 12 39  1  0  0  0  0
 13 16  1  0  0  0  0
 15 17  1  0  0  0  0
 15 40  1  0  0  0  0
 16 18  1  0  0  0  0
 16 41  1  0  0  0  0
 16 42  1  0  0  0  0
 17 19  1  0  0  0  0
 17 20  1  0  0  0  0
 18 21  1  0  0  0  0
 19 22  1  0  0  0  0
 19 43  1  0  0  0  0
 19 44  1  0  0  0  0
 20 23  1  0  0  0  0
 20 45  1  0  0  0  0
 20 46  1  0  0  0  0
 21 24  1  0  0  0  0
 21 25  2  0  0  0  0
 22 26  1  0  0  0  0
 22 47  1  0  0  0  0
 22 48  1  0  0  0  0
 23 27  1  0  0  0  0
 23 49  1  0  0  0  0
 23 50  1  0  0  0  0
 24 28  1  0  0  0  0
 24 29  1  0  0  0  0
 24 30  1  0  0  0  0
 26 27  1  0  0  0  0
 26 51  1  0  0  0  0
 26 52  1  0  0  0  0
 27 53  1  0  0  0  0
 27 54  1  0  0  0  0
 28 55  1  0  0  0  0
 28 56  1  0  0  0  0
 28 57  1  0  0  0  0
 29 58  1  0  0  0  0
 29 59  1  0  0  0  0
 29 60  1  0  0  0  0
 30 61  1  0  0  0  0
 30 62  1  0  0  0  0
 30 63  1  0  0  0  0
M  END
>  <Mol_ID>
3037

>  <Formula>
C21H34ClN3O5S

>  <MolWeight>
476.02976

>  <Cat>
S5473

>  <Name>
Pivmecillinam hydrochloride

>  <Synonyms>
N/A

>  <Target>
Antibiotics,Bacterial

>  <Form>
hydrochloride

>  <CAS>
32887-03-9

>  <URL>
http://selleckchem.com/products/pivmecillinam-hydrochloride.html

$$$$
