S5478 Dantrolene sodium.cdx
 OpenBabel08302520303D

 32 34  0  0  0  0  0  0  0  0999 V2000
   -0.1245    1.0474   -0.0088 C   0  0  0  0  0  0  0  0  0  0  0  0
   -0.6705    2.4026   -0.0916 C   0  0  0  0  0  0  0  0  0  0  0  0
   -1.0336    0.0281   -0.0079 O   0  0  0  0  0  0  0  0  0  0  0  0
    1.1512    0.5171    0.0234 C   0  0  0  0  0  0  0  0  0  0  0  0
   -2.0568    2.6390   -0.0731 C   0  0  0  0  0  0  0  0  0  0  0  0
    0.1884    3.5043   -0.2395 C   0  0  0  0  0  0  0  0  0  0  0  0
   -0.3439   -1.1557    0.0143 C   0  0  0  0  0  0  0  0  0  0  0  0
    1.0086   -0.8943    0.0334 C   0  0  0  0  0  0  0  0  0  0  0  0
   -2.5758    3.9309   -0.2388 C   0  0  0  0  0  0  0  0  0  0  0  0
   -0.3160    4.7996   -0.4063 C   0  0  0  0  0  0  0  0  0  0  0  0
   -1.1047   -2.3771    0.0067 C   0  0  0  0  0  0  0  0  0  0  0  0
   -1.6998    5.0057   -0.4182 C   0  0  0  0  0  0  0  0  0  0  0  0
   -0.5307   -3.5411   -0.0333 N   0  0  0  0  0  0  0  0  0  0  0  0
   -2.2309    6.3564   -0.6411 N   0  3  0  0  0  0  0  0  0  0  0  0
   -1.4110   -4.6044    0.0344 N   0  0  0  0  0  0  0  0  0  0  0  0
   -3.4616    6.4982   -0.6736 O   0  0  0  0  0  0  0  0  0  0  0  0
   -1.4157    7.2789   -0.7929 O   0  5  0  0  0  0  0  0  0  0  0  0
   -1.0711   -5.8193   -0.6818 C   0  0  0  0  0  0  0  0  0  0  0  0
   -2.5374   -4.8816    0.8093 C   0  0  0  0  0  0  0  0  0  0  0  0
   -2.3075   -6.6611   -0.3818 C   0  0  0  0  0  0  0  0  0  0  0  0
   -3.0879   -6.0461    0.5748 N   0  0  0  0  0  0  0  0  0  0  0  0
   -2.8447   -3.9954    1.6167 O   0  5  0  0  0  0  0  0  0  0  0  0
   -2.5415   -7.7418   -0.9177 O   0  0  0  0  0  0  0  0  0  0  0  0
    2.0767    1.0732    0.0228 H   0  0  0  0  0  0  0  0  0  0  0  0
   -2.7514    1.8083    0.0556 H   0  0  0  0  0  0  0  0  0  0  0  0
    1.2670    3.3637   -0.2472 H   0  0  0  0  0  0  0  0  0  0  0  0
    1.7899   -1.6427    0.0497 H   0  0  0  0  0  0  0  0  0  0  0  0
   -3.6548    4.0694   -0.2379 H   0  0  0  0  0  0  0  0  0  0  0  0
    0.3813    5.6239   -0.5394 H   0  0  0  0  0  0  0  0  0  0  0  0
   -2.2001   -2.2509   -0.0017 H   0  0  0  0  0  0  0  0  0  0  0  0
   -0.9762   -5.6544   -1.7565 H   0  0  0  0  0  0  0  0  0  0  0  0
   -0.1900   -6.3094   -0.2598 H   0  0  0  0  0  0  0  0  0  0  0  0
  1  2  1  0  0  0  0
  1  3  1  0  0  0  0
  1  4  2  0  0  0  0
  2  5  2  0  0  0  0
  2  6  1  0  0  0  0
  3  7  1  0  0  0  0
  4  8  1  0  0  0  0
  4 24  1  0  0  0  0
  5  9  1  0  0  0  0
  5 25  1  0  0  0  0
  6 10  2  0  0  0  0
  6 26  1  0  0  0  0
  7 11  1  0  0  0  0
  7  8  2  0  0  0  0
  8 27  1  0  0  0  0
  9 12  2  0  0  0  0
  9 28  1  0  0  0  0
 10 12  1  0  0  0  0
 10 29  1  0  0  0  0
 11 13  2  0  0  0  0
 11 30  1  0  0  0  0
 12 14  1  0  0  0  0
 13 15  1  0  0  0  0
 14 16  2  0  0  0  0
 14 17  1  0  0  0  0
 15 18  1  0  0  0  0
 15 19  1  0  0  0  0
 18 20  1  0  0  0  0
 18 31  1  0  0  0  0
 18 32  1  0  0  0  0
 19 21  2  0  0  0  0
 19 22  1  0  0  0  0
 20 23  2  0  0  0  0
 20 21  1  0  0  0  0
M  CHG  3  14   1  17  -1  22  -1
M  END
>  <Mol_ID>
3258

>  <Formula>
C14H9N4NaO5

>  <MolWeight>
336.23483

>  <Cat>
S5478

>  <Name>
Dantrolene sodium

>  <Synonyms>
F 440

>  <Target>
ADC Cytotoxin,Calcium Channel

>  <Form>
free base

>  <CAS>
14663-23-1

>  <URL>
https://www.selleckchem.com/products/s5478-dantrolene-sodium.html

$$$$
