S5484 Rimantadine Hydrochloride.cdx
 OpenBabel08302520013D

 34 36  0  0  0  0  0  0  0  0999 V2000
   -0.7828    1.0645    1.2257 C   0  0  0  0  0  0  0  0  0  0  0  0
   -1.5284    0.3272    0.1034 C   0  0  3  0  0  0  0  0  0  0  0  0
    0.7268    0.7988    1.1162 C   0  0  3  0  0  0  0  0  0  0  0  0
   -1.0108    0.8147   -1.2581 C   0  0  0  0  0  0  0  0  0  0  0  0
    1.2338    1.2881   -0.2471 C   0  0  0  0  0  0  0  0  0  0  0  0
    0.4984    0.5476   -1.3726 C   0  0  3  0  0  0  0  0  0  0  0  0
    0.9823   -0.7131    1.2424 C   0  0  0  0  0  0  0  0  0  0  0  0
    0.2416   -1.5096    0.1240 C   0  0  3  0  0  0  0  0  0  0  0  0
   -1.2747   -1.1859    0.2304 C   0  0  0  0  0  0  0  0  0  0  0  0
    0.7542   -0.9648   -1.2424 C   0  0  0  0  0  0  0  0  0  0  0  0
    0.5321   -3.0441    0.2582 C   0  0  3  0  0  0  0  0  0  0  0  0
    0.0636   -3.5854    1.5400 N   0  0  0  0  0  0  0  0  0  0  0  0
   -0.0864   -3.9085   -0.8470 C   0  0  0  0  0  0  0  0  0  0  0  0
   -0.9793    2.1415    1.1600 H   0  0  0  0  0  0  0  0  0  0  0  0
   -1.1527    0.7327    2.2035 H   0  0  0  0  0  0  0  0  0  0  0  0
   -2.6030    0.5253    0.1822 H   0  0  0  0  0  0  0  0  0  0  0  0
    1.2533    1.3296    1.9175 H   0  0  0  0  0  0  0  0  0  0  0  0
   -1.5448    0.3033   -2.0679 H   0  0  0  0  0  0  0  0  0  0  0  0
   -1.2118    1.8873   -1.3722 H   0  0  0  0  0  0  0  0  0  0  0  0
    2.3144    1.1181   -0.3294 H   0  0  0  0  0  0  0  0  0  0  0  0
    1.0734    2.3692   -0.3406 H   0  0  0  0  0  0  0  0  0  0  0  0
    0.8620    0.9011   -2.3436 H   0  0  0  0  0  0  0  0  0  0  0  0
    2.0610   -0.9091    1.1910 H   0  0  0  0  0  0  0  0  0  0  0  0
    0.6502   -1.0345    2.2365 H   0  0  0  0  0  0  0  0  0  0  0  0
   -1.6769   -1.5372    1.1885 H   0  0  0  0  0  0  0  0  0  0  0  0
   -1.8352   -1.7035   -0.5572 H   0  0  0  0  0  0  0  0  0  0  0  0
    0.2526   -1.4693   -2.0758 H   0  0  0  0  0  0  0  0  0  0  0  0
    1.8276   -1.1669   -1.3488 H   0  0  0  0  0  0  0  0  0  0  0  0
    1.6191   -3.1917    0.2182 H   0  0  0  0  0  0  0  0  0  0  0  0
    0.2785   -4.5801    1.5964 H   0  0  0  0  0  0  0  0  0  0  0  0
    0.5657   -3.1478    2.3103 H   0  0  0  0  0  0  0  0  0  0  0  0
    0.3043   -3.6412   -1.8329 H   0  0  0  0  0  0  0  0  0  0  0  0
    0.1570   -4.9672   -0.6947 H   0  0  0  0  0  0  0  0  0  0  0  0
   -1.1777   -3.8274   -0.8743 H   0  0  0  0  0  0  0  0  0  0  0  0
  1  2  1  0  0  0  0
  1  3  1  0  0  0  0
  1 14  1  0  0  0  0
  1 15  1  0  0  0  0
  2  4  1  0  0  0  0
  2  9  1  0  0  0  0
  2 16  1  0  0  0  0
  3  5  1  0  0  0  0
  3  7  1  0  0  0  0
  3 17  1  0  0  0  0
  4  6  1  0  0  0  0
  4 18  1  0  0  0  0
  4 19  1  0  0  0  0
  5  6  1  0  0  0  0
  5 20  1  0  0  0  0
  5 21  1  0  0  0  0
  6 10  1  0  0  0  0
  6 22  1  0  0  0  0
  7  8  1  0  0  0  0
  7 23  1  0  0  0  0
  7 24  1  0  0  0  0
  8  9  1  0  0  0  0
  8 11  1  0  0  0  0
  9 25  1  0  0  0  0
  9 26  1  0  0  0  0
 10  8  1  0  0  0  0
 10 27  1  0  0  0  0
 10 28  1  0  0  0  0
 11 12  1  0  0  0  0
 11 13  1  0  0  0  0
 11 29  1  0  0  0  0
 12 30  1  0  0  0  0
 12 31  1  0  0  0  0
 13 32  1  0  0  0  0
 13 33  1  0  0  0  0
 13 34  1  0  0  0  0
M  END
>  <Mol_ID>
2895

>  <Formula>
C12H22ClN

>  <MolWeight>
215.76278

>  <Cat>
S5484

>  <Name>
Rimantadine Hydrochloride

>  <Synonyms>
N/A

>  <Target>
DNA/RNA Synthesis

>  <Form>
hydrochloride

>  <CAS>
1501-84-4

>  <URL>
http://selleckchem.com/products/rimantadine-hydrochloride.html

$$$$
