S5486 Fluorometholone.cdx
 OpenBabel08302520013D

 56 59  0  0  0  0  0  0  0  0999 V2000
    1.9876   -0.9466   -0.6828 C   0  0  2  0  0  0  0  0  0  0  0  0
    0.5495   -1.4980   -0.4547 C   0  0  2  0  0  0  0  0  0  0  0  0
   -1.2200   -3.9072   -0.1739 C   0  0  2  0  0  0  0  0  0  0  0  0
    2.5787   -0.3295    0.5907 C   0  0  0  0  0  0  0  0  0  0  0  0
    0.4812   -2.3193    0.8770 C   0  0  2  0  0  0  0  0  0  0  0  0
   -2.8295   -4.0608    0.0954 C   0  0  2  0  0  0  0  0  0  0  0  0
   -0.8938   -2.9614    0.9724 C   0  0  2  0  0  0  0  0  0  0  0  0
   -0.0897   -2.1495   -1.7375 C   0  0  2  0  0  0  0  0  0  0  0  0
    1.9384    0.1444   -1.7558 C   0  0  0  0  0  0  0  0  0  0  0  0
   -0.7684   -3.4983   -1.5890 C   0  0  0  0  0  0  0  0  0  0  0  0
    0.6741   -1.3464    2.0569 C   0  0  0  0  0  0  0  0  0  0  0  0
    3.6559    0.5001    0.4866 C   0  0  0  0  0  0  0  0  0  0  0  0
    1.8001   -0.3021    1.8906 C   0  0  2  0  0  0  0  0  0  0  0  0
   -2.6041   -4.6337    1.5373 C   0  0  0  0  0  0  0  0  0  0  0  0
   -1.4251   -3.7751    2.1717 C   0  0  0  0  0  0  0  0  0  0  0  0
    2.6721    1.2587   -1.7370 C   0  0  0  0  0  0  0  0  0  0  0  0
   -3.3852   -2.8976   -0.8612 C   0  0  0  0  0  0  0  0  0  0  0  0
    3.7030    1.4192   -0.6958 C   0  0  0  0  0  0  0  0  0  0  0  0
   -0.2539   -0.3832   -0.2231 F   0  0  0  0  0  0  0  0  0  0  0  0
   -2.8458   -1.8168   -1.0627 O   0  0  0  0  0  0  0  0  0  0  0  0
    4.5752    2.2795   -0.7879 O   0  0  0  0  0  0  0  0  0  0  0  0
   -3.6411   -2.9451    0.9284 O   0  0  0  0  0  0  0  0  0  0  0  0
    2.9452   -2.1092   -1.0859 C   0  0  0  0  0  0  0  0  0  0  0  0
   -0.3980   -5.2666   -0.0169 C   0  0  0  0  0  0  0  0  0  0  0  0
    0.8141   -2.3026   -2.8512 O   0  0  0  0  0  0  0  0  0  0  0  0
    1.2309    1.1106    2.1725 C   0  0  0  0  0  0  0  0  0  0  0  0
   -4.6480   -3.1571   -1.6399 C   0  0  0  0  0  0  0  0  0  0  0  0
    1.2615   -3.0863    0.9120 H   0  0  0  0  0  0  0  0  0  0  0  0
   -1.5548   -2.0874    0.9284 H   0  0  0  0  0  0  0  0  0  0  0  0
   -0.8257   -1.4316   -2.1121 H   0  0  0  0  0  0  0  0  0  0  0  0
    1.2183    0.0404   -2.5666 H   0  0  0  0  0  0  0  0  0  0  0  0
   -0.0657   -4.2425   -1.9972 H   0  0  0  0  0  0  0  0  0  0  0  0
   -1.5818   -3.5970   -2.3195 H   0  0  0  0  0  0  0  0  0  0  0  0
   -0.2746   -0.8161    2.2327 H   0  0  0  0  0  0  0  0  0  0  0  0
    0.8375   -1.9172    2.9793 H   0  0  0  0  0  0  0  0  0  0  0  0
    4.6361    0.0095    0.4747 H   0  0  0  0  0  0  0  0  0  0  0  0
    2.5238   -0.5052    2.6921 H   0  0  0  0  0  0  0  0  0  0  0  0
   -3.4707   -4.6544    2.2139 H   0  0  0  0  0  0  0  0  0  0  0  0
   -2.3380   -5.6955    1.4760 H   0  0  0  0  0  0  0  0  0  0  0  0
   -1.8174   -3.1152    2.9526 H   0  0  0  0  0  0  0  0  0  0  0  0
   -0.6678   -4.4183    2.6325 H   0  0  0  0  0  0  0  0  0  0  0  0
    2.5931    2.0322   -2.4848 H   0  0  0  0  0  0  0  0  0  0  0  0
   -4.5323   -3.3169    1.0933 H   0  0  0  0  0  0  0  0  0  0  0  0
    2.4340   -3.0786   -1.1225 H   0  0  0  0  0  0  0  0  0  0  0  0
    3.7657   -2.2535   -0.3719 H   0  0  0  0  0  0  0  0  0  0  0  0
    3.4002   -1.9464   -2.0689 H   0  0  0  0  0  0  0  0  0  0  0  0
    0.6749   -5.0791   -0.1724 H   0  0  0  0  0  0  0  0  0  0  0  0
   -0.4304   -5.7586    0.9568 H   0  0  0  0  0  0  0  0  0  0  0  0
   -0.7201   -6.0060   -0.7590 H   0  0  0  0  0  0  0  0  0  0  0  0
    0.2774   -2.5287   -3.6319 H   0  0  0  0  0  0  0  0  0  0  0  0
    0.9214    1.1958    3.2205 H   0  0  0  0  0  0  0  0  0  0  0  0
    1.9634    1.9043    1.9903 H   0  0  0  0  0  0  0  0  0  0  0  0
    0.3561    1.3263    1.5478 H   0  0  0  0  0  0  0  0  0  0  0  0
   -5.2527   -3.9330   -1.1771 H   0  0  0  0  0  0  0  0  0  0  0  0
   -4.3750   -3.4191   -2.6656 H   0  0  0  0  0  0  0  0  0  0  0  0
   -5.2204   -2.2207   -1.6521 H   0  0  0  0  0  0  0  0  0  0  0  0
  1 23  1  6  0  0  0
  2  1  1  0  0  0  0
  2 19  1  1  0  0  0
  3 10  1  0  0  0  0
  3 24  1  1  0  0  0
  4  1  1  0  0  0  0
  5  2  1  0  0  0  0
  5 11  1  0  0  0  0
  5 28  1  1  0  0  0
  6  3  1  0  0  0  0
  6 22  1  1  0  0  0
  6 17  1  0  0  0  0
  7  3  1  0  0  0  0
  7  5  1  0  0  0  0
  7 15  1  0  0  0  0
  7 29  1  6  0  0  0
  8  2  1  0  0  0  0
  8 25  1  0  0  0  0
  8 30  1  6  0  0  0
  9  1  1  0  0  0  0
  9 31  1  0  0  0  0
 10  8  1  0  0  0  0
 10 32  1  0  0  0  0
 10 33  1  0  0  0  0
 11 13  1  0  0  0  0
 11 34  1  0  0  0  0
 11 35  1  0  0  0  0
 12  4  2  3  0  0  0
 12 36  1  0  0  0  0
 13  4  1  0  0  0  0
 13 26  1  0  0  0  0
 13 37  1  1  0  0  0
 14  6  1  0  0  0  0
 14 15  1  0  0  0  0
 14 38  1  0  0  0  0
 14 39  1  0  0  0  0
 15 40  1  0  0  0  0
 15 41  1  0  0  0  0
 16  9  2  0  0  0  0
 16 42  1  0  0  0  0
 18 12  1  0  0  0  0
 18 16  1  0  0  0  0
 20 17  2  0  0  0  0
 21 18  2  0  0  0  0
 22 43  1  0  0  0  0
 23 44  1  0  0  0  0
 23 45  1  0  0  0  0
 23 46  1  0  0  0  0
 24 47  1  0  0  0  0
 24 48  1  0  0  0  0
 24 49  1  0  0  0  0
 25 50  1  0  0  0  0
 26 51  1  0  0  0  0
 26 52  1  0  0  0  0
 26 53  1  0  0  0  0
 27 17  1  0  0  0  0
 27 54  1  0  0  0  0
 27 55  1  0  0  0  0
 27 56  1  0  0  0  0
M  END
>  <Mol_ID>
3040

>  <Formula>
C22H29FO4

>  <MolWeight>
376.4616632

>  <Cat>
S5486

>  <Name>
Fluorometholone

>  <Synonyms>
Oxylone

>  <Target>
Glucocorticoid Receptor

>  <Form>
free base

>  <CAS>
426-13-1

>  <URL>
http://selleckchem.com/products/fluorometholone.html

$$$$
