S5481 Molindone hydrochloride.cdx
 OpenBabel08302520013D

 44 46  0  0  0  0  0  0  0  0999 V2000
    0.5011    0.7808    0.0871 C   0  0  0  0  0  0  0  0  0  0  0  0
    0.5819   -0.5902    0.1364 C   0  0  0  0  0  0  0  0  0  0  0  0
    1.8491    1.2650    0.0253 C   0  0  0  0  0  0  0  0  0  0  0  0
   -0.7739    1.4854    0.1041 C   0  0  0  0  0  0  0  0  0  0  0  0
    1.8933   -0.9658    0.1000 N   0  0  0  0  0  0  0  0  0  0  0  0
   -0.5185   -1.5598    0.2080 C   0  0  0  0  0  0  0  0  0  0  0  0
    2.6836    0.1529    0.0389 C   0  0  0  0  0  0  0  0  0  0  0  0
    2.2644    2.7010   -0.0478 C   0  0  0  0  0  0  0  0  0  0  0  0
   -2.0577    0.6333    0.0066 C   0  0  3  0  0  0  0  0  0  0  0  0
   -0.8504    2.7078    0.1805 O   0  0  0  0  0  0  0  0  0  0  0  0
   -1.8969   -0.9014    0.1887 C   0  0  0  0  0  0  0  0  0  0  0  0
    4.1635    0.0345    0.0024 C   0  0  0  0  0  0  0  0  0  0  0  0
    2.4588    3.3109    1.3329 C   0  0  0  0  0  0  0  0  0  0  0  0
   -2.8217    0.9930   -1.2980 C   0  0  0  0  0  0  0  0  0  0  0  0
   -4.0274    0.1935   -1.5826 N   0  0  0  0  0  0  0  0  0  0  0  0
   -4.6772    0.5364   -2.8612 C   0  0  0  0  0  0  0  0  0  0  0  0
   -5.0427    0.0645   -0.5239 C   0  0  0  0  0  0  0  0  0  0  0  0
   -5.7105    1.6657   -2.7521 C   0  0  0  0  0  0  0  0  0  0  0  0
   -6.1990    1.0818   -0.5222 C   0  0  0  0  0  0  0  0  0  0  0  0
   -6.7417    1.3147   -1.8247 O   0  0  0  0  0  0  0  0  0  0  0  0
    2.2336   -1.9201    0.1161 H   0  0  0  0  0  0  0  0  0  0  0  0
   -0.4174   -2.1685    1.1144 H   0  0  0  0  0  0  0  0  0  0  0  0
   -0.4400   -2.2522   -0.6402 H   0  0  0  0  0  0  0  0  0  0  0  0
    3.1915    2.7905   -0.6220 H   0  0  0  0  0  0  0  0  0  0  0  0
    1.5119    3.2750   -0.5950 H   0  0  0  0  0  0  0  0  0  0  0  0
   -2.6678    0.9882    0.8498 H   0  0  0  0  0  0  0  0  0  0  0  0
   -2.4037   -1.1700    1.1264 H   0  0  0  0  0  0  0  0  0  0  0  0
   -2.4668   -1.4336   -0.5802 H   0  0  0  0  0  0  0  0  0  0  0  0
    4.5669    0.5120   -0.8949 H   0  0  0  0  0  0  0  0  0  0  0  0
    4.6062    0.5073    0.8843 H   0  0  0  0  0  0  0  0  0  0  0  0
    4.4815   -1.0166   -0.0074 H   0  0  0  0  0  0  0  0  0  0  0  0
    3.2644    2.8066    1.8772 H   0  0  0  0  0  0  0  0  0  0  0  0
    2.7179    4.3703    1.2431 H   0  0  0  0  0  0  0  0  0  0  0  0
    1.5478    3.2324    1.9356 H   0  0  0  0  0  0  0  0  0  0  0  0
   -3.0577    2.0645   -1.3051 H   0  0  0  0  0  0  0  0  0  0  0  0
   -2.1198    0.8309   -2.1295 H   0  0  0  0  0  0  0  0  0  0  0  0
   -5.2028   -0.3659   -3.2004 H   0  0  0  0  0  0  0  0  0  0  0  0
   -3.9371    0.7683   -3.6351 H   0  0  0  0  0  0  0  0  0  0  0  0
   -5.4954   -0.9242   -0.6779 H   0  0  0  0  0  0  0  0  0  0  0  0
   -4.6042    0.0157    0.4766 H   0  0  0  0  0  0  0  0  0  0  0  0
   -5.2541    2.6171   -2.4558 H   0  0  0  0  0  0  0  0  0  0  0  0
   -6.1911    1.8154   -3.7244 H   0  0  0  0  0  0  0  0  0  0  0  0
   -7.0170    0.6779    0.0867 H   0  0  0  0  0  0  0  0  0  0  0  0
   -5.9002    2.0370   -0.0785 H   0  0  0  0  0  0  0  0  0  0  0  0
  1  2  2  0  0  0  0
  1  3  1  0  0  0  0
  1  4  1  0  0  0  0
  2  5  1  0  0  0  0
  2  6  1  0  0  0  0
  3  7  2  0  0  0  0
  3  8  1  0  0  0  0
  4  9  1  0  0  0  0
  4 10  2  0  0  0  0
  5  7  1  0  0  0  0
  5 21  1  0  0  0  0
  6 11  1  0  0  0  0
  6 22  1  0  0  0  0
  6 23  1  0  0  0  0
  7 12  1  0  0  0  0
  8 13  1  0  0  0  0
  8 24  1  0  0  0  0
  8 25  1  0  0  0  0
  9 14  1  0  0  0  0
  9 11  1  0  0  0  0
  9 26  1  0  0  0  0
 11 27  1  0  0  0  0
 11 28  1  0  0  0  0
 12 29  1  0  0  0  0
 12 30  1  0  0  0  0
 12 31  1  0  0  0  0
 13 32  1  0  0  0  0
 13 33  1  0  0  0  0
 13 34  1  0  0  0  0
 14 15  1  0  0  0  0
 14 35  1  0  0  0  0
 14 36  1  0  0  0  0
 15 16  1  0  0  0  0
 15 17  1  0  0  0  0
 16 18  1  0  0  0  0
 16 37  1  0  0  0  0
 16 38  1  0  0  0  0
 17 19  1  0  0  0  0
 17 39  1  0  0  0  0
 17 40  1  0  0  0  0
 18 20  1  0  0  0  0
 18 41  1  0  0  0  0
 18 42  1  0  0  0  0
 19 20  1  0  0  0  0
 19 43  1  0  0  0  0
 19 44  1  0  0  0  0
M  END
>  <Mol_ID>
2941

>  <Formula>
C16H25ClN2O2

>  <MolWeight>
312.8349

>  <Cat>
S5481

>  <Name>
Molindone hydrochloride

>  <Synonyms>
N/A

>  <Target>
Dopamine Receptor

>  <Form>
hydrochloride

>  <CAS>
15622-65-8

>  <URL>
http://selleckchem.com/products/molindone-hydrochloride.html

$$$$
