S5488 Fluorescein.cdx
 OpenBabel08302520293D

 37 41  0  0  0  0  0  0  0  0999 V2000
   -0.0095    0.3871    0.2986 C   0  0  0  0  0  0  0  0  0  0  0  0
    1.2834   -0.3992    0.2028 C   0  0  0  0  0  0  0  0  0  0  0  0
   -1.2483   -0.4749    0.1457 C   0  0  0  0  0  0  0  0  0  0  0  0
    1.2464   -1.7682   -0.0720 C   0  0  0  0  0  0  0  0  0  0  0  0
    2.5419    0.2171    0.3690 C   0  0  0  0  0  0  0  0  0  0  0  0
   -1.1179   -1.8437   -0.1016 C   0  0  0  0  0  0  0  0  0  0  0  0
   -2.5485    0.0640    0.2530 C   0  0  0  0  0  0  0  0  0  0  0  0
    0.0880   -2.4841   -0.2379 O   0  0  0  0  0  0  0  0  0  0  0  0
    2.4294   -2.5022   -0.2003 C   0  0  0  0  0  0  0  0  0  0  0  0
    3.7248   -0.5137    0.2370 C   0  0  0  0  0  0  0  0  0  0  0  0
   -2.2491   -2.6562   -0.2309 C   0  0  0  0  0  0  0  0  0  0  0  0
   -3.6790   -0.7447    0.1165 C   0  0  0  0  0  0  0  0  0  0  0  0
    3.6568   -1.8696   -0.0516 C   0  0  0  0  0  0  0  0  0  0  0  0
   -3.5180   -2.1023   -0.1205 C   0  0  0  0  0  0  0  0  0  0  0  0
    4.7848   -2.6215   -0.1996 O   0  0  0  0  0  0  0  0  0  0  0  0
   -0.0631    0.9887    1.6229 O   0  0  0  0  0  0  0  0  0  0  0  0
   -0.1506    2.3484    1.5747 C   0  0  0  0  0  0  0  0  0  0  0  0
   -0.1216    2.7274    0.1698 C   0  0  0  0  0  0  0  0  0  0  0  0
   -0.0232    1.5855   -0.6013 C   0  0  0  0  0  0  0  0  0  0  0  0
   -0.1750    3.9974   -0.3758 C   0  0  0  0  0  0  0  0  0  0  0  0
   -0.1151    4.1039   -1.7652 C   0  0  0  0  0  0  0  0  0  0  0  0
   -0.0014    2.9525   -2.5635 C   0  0  0  0  0  0  0  0  0  0  0  0
    0.0432    1.6803   -1.9839 C   0  0  0  0  0  0  0  0  0  0  0  0
   -0.2322    3.1059    2.5215 O   0  0  0  0  0  0  0  0  0  0  0  0
   -4.5912   -2.9317   -0.2523 O   0  0  0  0  0  0  0  0  0  0  0  0
    2.6118    1.2787    0.5980 H   0  0  0  0  0  0  0  0  0  0  0  0
   -2.6948    1.1249    0.4483 H   0  0  0  0  0  0  0  0  0  0  0  0
    2.3922   -3.5664   -0.4172 H   0  0  0  0  0  0  0  0  0  0  0  0
    4.6779   -0.0097    0.3615 H   0  0  0  0  0  0  0  0  0  0  0  0
   -2.1385   -3.7218   -0.4132 H   0  0  0  0  0  0  0  0  0  0  0  0
   -4.6648   -0.2986    0.2011 H   0  0  0  0  0  0  0  0  0  0  0  0
    5.5598   -2.0506   -0.0715 H   0  0  0  0  0  0  0  0  0  0  0  0
   -0.2597    4.8756    0.2573 H   0  0  0  0  0  0  0  0  0  0  0  0
   -0.1539    5.0843   -2.2357 H   0  0  0  0  0  0  0  0  0  0  0  0
    0.0511    3.0533   -3.6462 H   0  0  0  0  0  0  0  0  0  0  0  0
    0.1301    0.7924   -2.6054 H   0  0  0  0  0  0  0  0  0  0  0  0
   -5.4036   -2.4177   -0.1065 H   0  0  0  0  0  0  0  0  0  0  0  0
  1  2  1  0  0  0  0
  1  3  1  0  0  0  0
  1 16  1  0  0  0  0
  2  4  1  0  0  0  0
  2  5  2  0  0  0  0
  3  6  2  0  0  0  0
  3  7  1  0  0  0  0
  4  8  1  0  0  0  0
  4  9  2  0  0  0  0
  5 10  1  0  0  0  0
  5 26  1  0  0  0  0
  6 11  1  0  0  0  0
  6  8  1  0  0  0  0
  7 12  2  0  0  0  0
  7 27  1  0  0  0  0
  9 13  1  0  0  0  0
  9 28  1  0  0  0  0
 10 13  2  0  0  0  0
 10 29  1  0  0  0  0
 11 14  2  0  0  0  0
 11 30  1  0  0  0  0
 12 14  1  0  0  0  0
 12 31  1  0  0  0  0
 13 15  1  0  0  0  0
 14 25  1  0  0  0  0
 15 32  1  0  0  0  0
 16 17  1  0  0  0  0
 17 18  1  0  0  0  0
 17 24  2  0  0  0  0
 18 19  2  0  0  0  0
 18 20  1  0  0  0  0
 19  1  1  0  0  0  0
 20 21  2  0  0  0  0
 20 33  1  0  0  0  0
 21 22  1  0  0  0  0
 21 34  1  0  0  0  0
 22 23  2  0  0  0  0
 22 35  1  0  0  0  0
 23 19  1  0  0  0  0
 23 36  1  0  0  0  0
 25 37  1  0  0  0  0
M  END
>  <Mol_ID>
3246

>  <Formula>
C20H12O5

>  <MolWeight>
332.30628

>  <Cat>
S5488

>  <Name>
Fluorescein

>  <Synonyms>
Solvent Yellow 94, Resorcinolphthalein, Yellow fluorescein

>  <Target>
Dyes

>  <Form>
free base

>  <CAS>
2321-07-5

>  <URL>
https://www.selleckchem.com/products/fluorescein.html

$$$$
