S5480 Clidinium Bromide.cdx
 OpenBabel08302520013D

 53 55  0  0  0  0  0  0  0  0999 V2000
    0.9129    0.0583    0.1488 C   0  0  0  0  0  0  0  0  0  0  0  0
    0.2482    0.9299   -0.9456 C   0  0  0  0  0  0  0  0  0  0  0  0
    0.5579   -1.4406    0.1701 C   0  0  0  0  0  0  0  0  0  0  0  0
    0.5085    0.6869    1.5509 C   0  0  0  0  0  0  0  0  0  0  0  0
    2.3414    0.1280   -0.0107 O   0  0  0  0  0  0  0  0  0  0  0  0
   -1.1538    1.0574   -1.0292 C   0  0  0  0  0  0  0  0  0  0  0  0
    1.0119    1.6260   -1.9050 C   0  0  0  0  0  0  0  0  0  0  0  0
   -0.2893   -2.0558   -0.7654 C   0  0  0  0  0  0  0  0  0  0  0  0
    1.1373   -2.2650    1.1592 C   0  0  0  0  0  0  0  0  0  0  0  0
    1.6008    1.1557    2.2453 O   0  0  0  0  0  0  0  0  0  0  0  0
   -0.6328    0.8126    1.9827 O   0  0  0  0  0  0  0  0  0  0  0  0
   -1.7594    1.8022   -2.0462 C   0  0  0  0  0  0  0  0  0  0  0  0
    0.4063    2.3683   -2.9223 C   0  0  0  0  0  0  0  0  0  0  0  0
   -0.6075   -3.4146   -0.6702 C   0  0  0  0  0  0  0  0  0  0  0  0
    0.8304   -3.6252    1.2461 C   0  0  0  0  0  0  0  0  0  0  0  0
    1.3228    2.1307    3.2635 C   0  0  3  0  0  0  0  0  0  0  0  0
   -0.9801    2.4487   -2.9985 C   0  0  0  0  0  0  0  0  0  0  0  0
   -0.0578   -4.1958    0.3411 C   0  0  0  0  0  0  0  0  0  0  0  0
    1.5425    1.5550    4.6769 C   0  0  3  0  0  0  0  0  0  0  0  0
    2.2868    3.3098    3.0285 C   0  0  0  0  0  0  0  0  0  0  0  0
    2.9971    1.0901    4.8341 C   0  0  0  0  0  0  0  0  0  0  0  0
    1.3015    2.6786    5.6990 C   0  0  0  0  0  0  0  0  0  0  0  0
    3.1717    3.5236    4.2792 N   0  3  3  0  0  0  0  0  0  0  0  0
    3.9665    2.2371    4.5518 C   0  0  0  0  0  0  0  0  0  0  0  0
    2.2725    3.8419    5.4750 C   0  0  0  0  0  0  0  0  0  0  0  0
    4.1322    4.6695    4.0170 C   0  0  0  0  0  0  0  0  0  0  0  0
    3.2509   -1.3401   -3.0221 Br  0  5  0  0  0  0  0  0  0  0  0  0
    2.5481   -0.4167   -0.8157 H   0  0  0  0  0  0  0  0  0  0  0  0
   -1.7960    0.5383   -0.3174 H   0  0  0  0  0  0  0  0  0  0  0  0
    2.0982    1.5599   -1.9087 H   0  0  0  0  0  0  0  0  0  0  0  0
   -0.6921   -1.5048   -1.6116 H   0  0  0  0  0  0  0  0  0  0  0  0
    1.8664   -1.8519    1.8530 H   0  0  0  0  0  0  0  0  0  0  0  0
   -2.8436    1.8485   -2.1115 H   0  0  0  0  0  0  0  0  0  0  0  0
    1.0259    2.8425   -3.6792 H   0  0  0  0  0  0  0  0  0  0  0  0
   -1.2633   -3.8647   -1.4108 H   0  0  0  0  0  0  0  0  0  0  0  0
    1.3031   -4.2429    2.0040 H   0  0  0  0  0  0  0  0  0  0  0  0
    0.2996    2.5168    3.1785 H   0  0  0  0  0  0  0  0  0  0  0  0
   -1.4472    2.9989   -3.8104 H   0  0  0  0  0  0  0  0  0  0  0  0
   -0.2927   -5.2546    0.3973 H   0  0  0  0  0  0  0  0  0  0  0  0
    0.8676    0.7124    4.8614 H   0  0  0  0  0  0  0  0  0  0  0  0
    2.9544    3.1458    2.1757 H   0  0  0  0  0  0  0  0  0  0  0  0
    1.7315    4.2405    2.8731 H   0  0  0  0  0  0  0  0  0  0  0  0
    3.2124    0.2493    4.1661 H   0  0  0  0  0  0  0  0  0  0  0  0
    3.1624    0.7163    5.8528 H   0  0  0  0  0  0  0  0  0  0  0  0
    0.2694    3.0434    5.6302 H   0  0  0  0  0  0  0  0  0  0  0  0
    1.4209    2.2991    6.7216 H   0  0  0  0  0  0  0  0  0  0  0  0
    4.5881    2.0347    3.6731 H   0  0  0  0  0  0  0  0  0  0  0  0
    4.6162    2.4293    5.4143 H   0  0  0  0  0  0  0  0  0  0  0  0
    2.9189    4.0018    6.3456 H   0  0  0  0  0  0  0  0  0  0  0  0
    1.7350    4.7713    5.2520 H   0  0  0  0  0  0  0  0  0  0  0  0
    3.5475    5.5678    3.7966 H   0  0  0  0  0  0  0  0  0  0  0  0
    4.7420    4.8215    4.9122 H   0  0  0  0  0  0  0  0  0  0  0  0
    4.7642    4.4060    3.1640 H   0  0  0  0  0  0  0  0  0  0  0  0
  1  2  1  0  0  0  0
  1  3  1  0  0  0  0
  1  4  1  0  0  0  0
  1  5  1  0  0  0  0
  2  6  2  0  0  0  0
  2  7  1  0  0  0  0
  3  8  2  0  0  0  0
  3  9  1  0  0  0  0
  4 10  1  0  0  0  0
  4 11  2  0  0  0  0
  5 28  1  0  0  0  0
  6 12  1  0  0  0  0
  6 29  1  0  0  0  0
  7 13  2  0  0  0  0
  7 30  1  0  0  0  0
  8 14  1  0  0  0  0
  8 31  1  0  0  0  0
  9 15  2  0  0  0  0
  9 32  1  0  0  0  0
 10 16  1  0  0  0  0
 12 17  2  0  0  0  0
 12 33  1  0  0  0  0
 13 17  1  0  0  0  0
 13 34  1  0  0  0  0
 14 18  2  0  0  0  0
 14 35  1  0  0  0  0
 15 18  1  0  0  0  0
 15 36  1  0  0  0  0
 16 19  1  0  0  0  0
 16 20  1  0  0  0  0
 16 37  1  0  0  0  0
 17 38  1  0  0  0  0
 18 39  1  0  0  0  0
 19 21  1  0  0  0  0
 19 22  1  0  0  0  0
 19 40  1  0  0  0  0
 20 23  1  0  0  0  0
 20 41  1  0  0  0  0
 20 42  1  0  0  0  0
 21 24  1  0  0  0  0
 21 43  1  0  0  0  0
 21 44  1  0  0  0  0
 22 25  1  0  0  0  0
 22 45  1  0  0  0  0
 22 46  1  0  0  0  0
 23 26  1  0  0  0  0
 23 24  1  0  0  0  0
 23 25  1  0  0  0  0
 24 47  1  0  0  0  0
 24 48  1  0  0  0  0
 25 49  1  0  0  0  0
 25 50  1  0  0  0  0
 26 51  1  0  0  0  0
 26 52  1  0  0  0  0
 26 53  1  0  0  0  0
M  CHG  2  23   1  27  -1
M  END
>  <Mol_ID>
3038

>  <Formula>
C22H26BrNO3

>  <MolWeight>
432.35074

>  <Cat>
S5480

>  <Name>
Clidinium Bromide

>  <Synonyms>
Ro 2-3773

>  <Target>
AChR

>  <Form>
bromide

>  <CAS>
3485-62-9

>  <URL>
http://selleckchem.com/products/clidinium-bromide.html

$$$$
