S5482 Prilocaine hydrochloride.cdx
 OpenBabel08302520143D

 36 36  0  0  0  0  0  0  0  0999 V2000
    0.1672    1.2643   -0.0039 C   0  0  0  0  0  0  0  0  0  0  0  0
    0.7864    2.5347    0.0231 N   0  0  0  0  0  0  0  0  0  0  0  0
    0.4697    0.2925    0.9650 C   0  0  0  0  0  0  0  0  0  0  0  0
   -0.7250    0.9538   -1.0345 C   0  0  0  0  0  0  0  0  0  0  0  0
    0.0688    3.7198   -0.1192 C   0  0  0  0  0  0  0  0  0  0  0  0
   -0.1505   -0.9685    0.8773 C   0  0  0  0  0  0  0  0  0  0  0  0
    1.3395    0.5524    2.1690 C   0  0  0  0  0  0  0  0  0  0  0  0
   -1.3135   -0.3089   -1.1259 C   0  0  0  0  0  0  0  0  0  0  0  0
    0.9728    4.9837   -0.0414 C   0  0  3  0  0  0  0  0  0  0  0  0
   -1.1531    3.7809   -0.2361 O   0  0  0  0  0  0  0  0  0  0  0  0
   -1.0316   -1.2708   -0.1589 C   0  0  0  0  0  0  0  0  0  0  0  0
    1.8354    5.0076   -1.2423 N   0  0  0  0  0  0  0  0  0  0  0  0
    0.0929    6.2304    0.0844 C   0  0  0  0  0  0  0  0  0  0  0  0
    2.7733    6.1270   -1.2794 C   0  0  0  0  0  0  0  0  0  0  0  0
    3.6350    6.0330   -2.5411 C   0  0  0  0  0  0  0  0  0  0  0  0
    4.5902    7.2125   -2.6512 C   0  0  0  0  0  0  0  0  0  0  0  0
    1.6776    2.6089    0.4950 H   0  0  0  0  0  0  0  0  0  0  0  0
   -0.9559    1.6900   -1.8064 H   0  0  0  0  0  0  0  0  0  0  0  0
    0.0373   -1.7210    1.6414 H   0  0  0  0  0  0  0  0  0  0  0  0
    0.7419    0.4360    3.0801 H   0  0  0  0  0  0  0  0  0  0  0  0
    2.1678   -0.1620    2.1912 H   0  0  0  0  0  0  0  0  0  0  0  0
    1.7633    1.5554    2.1913 H   0  0  0  0  0  0  0  0  0  0  0  0
   -1.9930   -0.5378   -1.9421 H   0  0  0  0  0  0  0  0  0  0  0  0
    1.5912    4.8942    0.8612 H   0  0  0  0  0  0  0  0  0  0  0  0
   -1.4966   -2.2497   -0.2126 H   0  0  0  0  0  0  0  0  0  0  0  0
    2.3372    4.1255   -1.3255 H   0  0  0  0  0  0  0  0  0  0  0  0
   -0.5689    6.1473    0.9549 H   0  0  0  0  0  0  0  0  0  0  0  0
    0.6838    7.1404    0.2218 H   0  0  0  0  0  0  0  0  0  0  0  0
   -0.5421    6.3621   -0.7989 H   0  0  0  0  0  0  0  0  0  0  0  0
    2.2360    7.0806   -1.3071 H   0  0  0  0  0  0  0  0  0  0  0  0
    3.4154    6.1199   -0.3909 H   0  0  0  0  0  0  0  0  0  0  0  0
    4.2131    5.1016   -2.5380 H   0  0  0  0  0  0  0  0  0  0  0  0
    2.9931    6.0146   -3.4306 H   0  0  0  0  0  0  0  0  0  0  0  0
    5.2873    7.2331   -1.8077 H   0  0  0  0  0  0  0  0  0  0  0  0
    5.1744    7.1422   -3.5743 H   0  0  0  0  0  0  0  0  0  0  0  0
    4.0437    8.1611   -2.6688 H   0  0  0  0  0  0  0  0  0  0  0  0
  1  2  1  0  0  0  0
  1  3  2  0  0  0  0
  1  4  1  0  0  0  0
  2  5  1  0  0  0  0
  2 17  1  0  0  0  0
  3  6  1  0  0  0  0
  3  7  1  0  0  0  0
  4  8  2  0  0  0  0
  4 18  1  0  0  0  0
  5  9  1  0  0  0  0
  5 10  2  0  0  0  0
  6 11  2  0  0  0  0
  6 19  1  0  0  0  0
  7 20  1  0  0  0  0
  7 21  1  0  0  0  0
  7 22  1  0  0  0  0
  8 11  1  0  0  0  0
  8 23  1  0  0  0  0
  9 12  1  0  0  0  0
  9 13  1  0  0  0  0
  9 24  1  0  0  0  0
 11 25  1  0  0  0  0
 12 14  1  0  0  0  0
 12 26  1  0  0  0  0
 13 27  1  0  0  0  0
 13 28  1  0  0  0  0
 13 29  1  0  0  0  0
 14 15  1  0  0  0  0
 14 30  1  0  0  0  0
 14 31  1  0  0  0  0
 15 16  1  0  0  0  0
 15 32  1  0  0  0  0
 15 33  1  0  0  0  0
 16 34  1  0  0  0  0
 16 35  1  0  0  0  0
 16 36  1  0  0  0  0
M  END
>  <Mol_ID>
3119

>  <Formula>
C13H21ClN2O

>  <MolWeight>
256.77164

>  <Cat>
S5482

>  <Name>
Prilocaine hydrochloride

>  <Synonyms>
N/A

>  <Target>
Others

>  <Form>
hydrochloride

>  <CAS>
1786-81-8

>  <URL>
https://www.selleckchem.com/products/prilocaine-hydrochloride.html

$$$$
