S5499 Amantadine.cdx
 OpenBabel08302521403D

 28 30  0  0  0  0  0  0  0  0999 V2000
   -1.5257    0.2795    0.0992 C   0  0  3  0  0  0  0  0  0  0  0  0
   -0.7761    1.0317    1.2217 C   0  0  0  0  0  0  0  0  0  0  0  0
   -0.9912    0.7567   -1.2688 C   0  0  0  0  0  0  0  0  0  0  0  0
   -1.2578   -1.2345    0.2441 C   0  0  0  0  0  0  0  0  0  0  0  0
   -2.9621    0.5369    0.1841 N   0  0  0  0  0  0  0  0  0  0  0  0
    0.7354    0.7560    1.1248 C   0  0  3  0  0  0  0  0  0  0  0  0
    0.5197    0.4800   -1.3722 C   0  0  3  0  0  0  0  0  0  0  0  0
    0.2525   -1.5165    0.1446 C   0  0  3  0  0  0  0  0  0  0  0  0
    1.2500    1.2299   -0.2450 C   0  0  0  0  0  0  0  0  0  0  0  0
    0.9847   -0.7556    1.2633 C   0  0  0  0  0  0  0  0  0  0  0  0
    0.7694   -1.0302   -1.2201 C   0  0  0  0  0  0  0  0  0  0  0  0
   -0.9575    2.1121    1.1478 H   0  0  0  0  0  0  0  0  0  0  0  0
   -1.1441    0.7168    2.2072 H   0  0  0  0  0  0  0  0  0  0  0  0
   -1.5151    0.2435   -2.0862 H   0  0  0  0  0  0  0  0  0  0  0  0
   -1.1768    1.8309   -1.4008 H   0  0  0  0  0  0  0  0  0  0  0  0
   -1.6363   -1.6017    1.2073 H   0  0  0  0  0  0  0  0  0  0  0  0
   -1.7880   -1.7949   -0.5374 H   0  0  0  0  0  0  0  0  0  0  0  0
   -3.3119    0.2490    1.0973 H   0  0  0  0  0  0  0  0  0  0  0  0
   -3.1386    1.5388    0.1171 H   0  0  0  0  0  0  0  0  0  0  0  0
    1.2607    1.2922    1.9232 H   0  0  0  0  0  0  0  0  0  0  0  0
    0.8920    0.8205   -2.3448 H   0  0  0  0  0  0  0  0  0  0  0  0
    0.4352   -2.5918    0.2478 H   0  0  0  0  0  0  0  0  0  0  0  0
    2.3306    1.0559   -0.3192 H   0  0  0  0  0  0  0  0  0  0  0  0
    1.0936    2.3104   -0.3509 H   0  0  0  0  0  0  0  0  0  0  0  0
    2.0606   -0.9631    1.2145 H   0  0  0  0  0  0  0  0  0  0  0  0
    0.6372   -1.1045    2.2435 H   0  0  0  0  0  0  0  0  0  0  0  0
    0.2664   -1.5764   -2.0275 H   0  0  0  0  0  0  0  0  0  0  0  0
    1.8416   -1.2430   -1.3114 H   0  0  0  0  0  0  0  0  0  0  0  0
  1  2  1  0  0  0  0
  1  3  1  0  0  0  0
  1  4  1  0  0  0  0
  1  5  1  0  0  0  0
  2  6  1  0  0  0  0
  2 12  1  0  0  0  0
  2 13  1  0  0  0  0
  3  7  1  0  0  0  0
  3 14  1  0  0  0  0
  3 15  1  0  0  0  0
  4  8  1  0  0  0  0
  4 16  1  0  0  0  0
  4 17  1  0  0  0  0
  5 18  1  0  0  0  0
  5 19  1  0  0  0  0
  6  9  1  0  0  0  0
  6 10  1  0  0  0  0
  6 20  1  0  0  0  0
  7 11  1  0  0  0  0
  7  9  1  0  0  0  0
  7 21  1  0  0  0  0
  8 10  1  0  0  0  0
  8 11  1  0  0  0  0
  8 22  1  0  0  0  0
  9 23  1  0  0  0  0
  9 24  1  0  0  0  0
 10 25  1  0  0  0  0
 10 26  1  0  0  0  0
 11 27  1  0  0  0  0
 11 28  1  0  0  0  0
M  END
>  <Mol_ID>
8259

>  <Formula>
C10H17N

>  <MolWeight>
151.24868

>  <Cat>
S5499

>  <Name>
Amantadine

>  <Synonyms>
1-Adamantanamine, 1-Adamantylamine, 1-Aminoadamantane

>  <Target>
Influenza Virus

>  <Form>
free base

>  <CAS>
768-94-5

>  <URL>
http://selleckchem.com/products/amantadine.html

$$$$
