S5494 Salbutamol.cdx
 OpenBabel08302520143D

 38 38  0  0  0  0  0  0  0  0999 V2000
   -1.7949    0.0319   -0.1427 C   0  0  0  0  0  0  0  0  0  0  0  0
   -1.0900    0.0759   -1.3586 C   0  0  0  0  0  0  0  0  0  0  0  0
   -3.3181    0.1166   -0.1266 C   0  0  3  0  0  0  0  0  0  0  0  0
   -1.0552   -0.1783    1.0348 C   0  0  0  0  0  0  0  0  0  0  0  0
    0.3110   -0.0343   -1.4074 C   0  0  0  0  0  0  0  0  0  0  0  0
   -3.9150    0.7552    1.1612 C   0  0  0  0  0  0  0  0  0  0  0  0
   -3.7711    0.8668   -1.2676 O   0  0  0  0  0  0  0  0  0  0  0  0
    0.3322   -0.3100    1.0001 C   0  0  0  0  0  0  0  0  0  0  0  0
    1.0059   -0.2354   -0.2092 C   0  0  0  0  0  0  0  0  0  0  0  0
    1.0256    0.0405   -2.7261 C   0  0  0  0  0  0  0  0  0  0  0  0
   -5.3807    0.8411    1.1041 N   0  0  0  0  0  0  0  0  0  0  0  0
    2.3662   -0.3505   -0.1682 O   0  0  0  0  0  0  0  0  0  0  0  0
    2.0230    1.0505   -2.6491 O   0  0  0  0  0  0  0  0  0  0  0  0
   -6.0366    1.4572    2.2698 C   0  0  0  0  0  0  0  0  0  0  0  0
   -5.5959    2.9142    2.4866 C   0  0  0  0  0  0  0  0  0  0  0  0
   -7.5482    1.4415    1.9757 C   0  0  0  0  0  0  0  0  0  0  0  0
   -5.7875    0.6403    3.5497 C   0  0  0  0  0  0  0  0  0  0  0  0
   -1.6453    0.1996   -2.2895 H   0  0  0  0  0  0  0  0  0  0  0  0
   -3.7082   -0.9017   -0.2430 H   0  0  0  0  0  0  0  0  0  0  0  0
   -1.5388   -0.2560    2.0050 H   0  0  0  0  0  0  0  0  0  0  0  0
   -3.6240    0.1560    2.0254 H   0  0  0  0  0  0  0  0  0  0  0  0
   -3.4873    1.7580    1.2681 H   0  0  0  0  0  0  0  0  0  0  0  0
   -3.6492    1.8046   -1.0472 H   0  0  0  0  0  0  0  0  0  0  0  0
    0.8892   -0.4730    1.9195 H   0  0  0  0  0  0  0  0  0  0  0  0
    1.5128   -0.9134   -2.9528 H   0  0  0  0  0  0  0  0  0  0  0  0
    0.3487    0.2840   -3.5514 H   0  0  0  0  0  0  0  0  0  0  0  0
   -5.6607    1.3005    0.2365 H   0  0  0  0  0  0  0  0  0  0  0  0
    2.7254   -0.0688   -1.0314 H   0  0  0  0  0  0  0  0  0  0  0  0
    1.5759    1.8515   -2.3086 H   0  0  0  0  0  0  0  0  0  0  0  0
   -5.7311    3.5117    1.5778 H   0  0  0  0  0  0  0  0  0  0  0  0
   -6.1844    3.3861    3.2823 H   0  0  0  0  0  0  0  0  0  0  0  0
   -4.5445    2.9852    2.7852 H   0  0  0  0  0  0  0  0  0  0  0  0
   -7.9151    0.4194    1.8215 H   0  0  0  0  0  0  0  0  0  0  0  0
   -8.1170    1.8723    2.8082 H   0  0  0  0  0  0  0  0  0  0  0  0
   -7.7894    2.0227    1.0777 H   0  0  0  0  0  0  0  0  0  0  0  0
   -6.0704   -0.4100    3.4127 H   0  0  0  0  0  0  0  0  0  0  0  0
   -4.7378    0.6690    3.8604 H   0  0  0  0  0  0  0  0  0  0  0  0
   -6.3777    1.0330    4.3861 H   0  0  0  0  0  0  0  0  0  0  0  0
  1  2  2  0  0  0  0
  1  3  1  0  0  0  0
  1  4  1  0  0  0  0
  2  5  1  0  0  0  0
  2 18  1  0  0  0  0
  3  6  1  0  0  0  0
  3  7  1  0  0  0  0
  3 19  1  0  0  0  0
  4  8  2  0  0  0  0
  4 20  1  0  0  0  0
  5  9  2  0  0  0  0
  5 10  1  0  0  0  0
  6 11  1  0  0  0  0
  6 21  1  0  0  0  0
  6 22  1  0  0  0  0
  7 23  1  0  0  0  0
  8  9  1  0  0  0  0
  8 24  1  0  0  0  0
  9 12  1  0  0  0  0
 10 13  1  0  0  0  0
 10 25  1  0  0  0  0
 10 26  1  0  0  0  0
 11 14  1  0  0  0  0
 11 27  1  0  0  0  0
 12 28  1  0  0  0  0
 13 29  1  0  0  0  0
 14 15  1  0  0  0  0
 14 16  1  0  0  0  0
 14 17  1  0  0  0  0
 15 30  1  0  0  0  0
 15 31  1  0  0  0  0
 15 32  1  0  0  0  0
 16 33  1  0  0  0  0
 16 34  1  0  0  0  0
 16 35  1  0  0  0  0
 17 36  1  0  0  0  0
 17 37  1  0  0  0  0
 17 38  1  0  0  0  0
M  END
>  <Mol_ID>
3125

>  <Formula>
C13H21NO3

>  <MolWeight>
239.31074

>  <Cat>
S5494

>  <Name>
Salbutamol

>  <Synonyms>
Albuterol

>  <Target>
Adrenergic Receptor

>  <Form>
free base

>  <CAS>
18559-94-9

>  <URL>
https://www.selleckchem.com/products/salbutamol.html

$$$$
