S5498 Betahistine mesylate.cdx
 OpenBabel08302520013D

 40 38  0  0  0  0  0  0  0  0999 V2000
   -0.9099    2.0360    0.8781 C   0  0  0  0  0  0  0  0  0  0  0  0
    0.9743    2.2434    1.2343 C   0  0  0  0  0  0  0  0  0  0  0  0
   -1.6139    0.2802    1.0519 N   0  0  0  0  0  0  0  0  0  0  0  0
   -1.7635    3.0799    0.2387 C   0  0  0  0  0  0  0  0  0  0  0  0
    1.9964    0.6588    1.6397 C   0  0  0  0  0  0  0  0  0  0  0  0
   -0.5755   -1.3008    1.2236 C   0  0  0  0  0  0  0  0  0  0  0  0
   -1.1538    4.4814    0.2059 C   0  0  0  0  0  0  0  0  0  0  0  0
    1.3272   -1.1339    1.4396 C   0  0  0  0  0  0  0  0  0  0  0  0
   -2.0413    5.4799   -0.4108 N   0  0  0  0  0  0  0  0  0  0  0  0
   -3.2469    5.7121    0.3795 C   0  0  0  0  0  0  0  0  0  0  0  0
    0.2845    0.3625    0.3877 S   0  0  0  0  0  0  0  0  0  0  0  0
   -1.1736   -0.3081   -0.9985 C   0  0  0  0  0  0  0  0  0  0  0  0
    0.1723   -0.1814    2.4487 O   0  0  0  0  0  0  0  0  0  0  0  0
   -0.0917    0.9820    2.0357 O   0  0  0  0  0  0  0  0  0  0  0  0
    1.4585    0.7013   -0.4289 O   0  0  0  0  0  0  0  0  0  0  0  0
    2.0280   -1.5528   -2.4663 S   0  0  0  0  0  0  0  0  0  0  0  0
    1.6018    0.0892   -3.1002 C   0  0  0  0  0  0  0  0  0  0  0  0
    1.1088   -2.4275   -3.4641 O   0  0  0  0  0  0  0  0  0  0  0  0
    1.4423   -1.8611   -1.1913 O   0  0  0  0  0  0  0  0  0  0  0  0
    3.4086   -1.8521   -2.7541 O   0  0  0  0  0  0  0  0  0  0  0  0
    1.4751    3.1933    1.1371 H   0  0  0  0  0  0  0  0  0  0  0  0
   -1.9577    2.7623   -0.7942 H   0  0  0  0  0  0  0  0  0  0  0  0
   -2.7183    3.0664    0.7682 H   0  0  0  0  0  0  0  0  0  0  0  0
    3.0791    0.7656    1.7407 H   0  0  0  0  0  0  0  0  0  0  0  0
   -1.1420   -2.2247    1.1933 H   0  0  0  0  0  0  0  0  0  0  0  0
   -0.8569    4.8049    1.2098 H   0  0  0  0  0  0  0  0  0  0  0  0
   -0.2360    4.4575   -0.3970 H   0  0  0  0  0  0  0  0  0  0  0  0
    1.9679   -2.0058    1.5429 H   0  0  0  0  0  0  0  0  0  0  0  0
   -1.5346    6.3634   -0.4877 H   0  0  0  0  0  0  0  0  0  0  0  0
   -3.0079    5.9392    1.4233 H   0  0  0  0  0  0  0  0  0  0  0  0
   -3.7957    6.5644   -0.0329 H   0  0  0  0  0  0  0  0  0  0  0  0
   -3.9237    4.8534    0.3414 H   0  0  0  0  0  0  0  0  0  0  0  0
   -0.6319   -0.9276   -1.7108 H   0  0  0  0  0  0  0  0  0  0  0  0
   -2.0223   -0.8884   -0.6383 H   0  0  0  0  0  0  0  0  0  0  0  0
   -1.4741    0.6002   -1.5296 H   0  0  0  0  0  0  0  0  0  0  0  0
   -0.7159    0.1748    2.7404 H   0  0  0  0  0  0  0  0  0  0  0  0
    1.8252    0.1146   -4.1639 H   0  0  0  0  0  0  0  0  0  0  0  0
    0.5458    0.3218   -2.9477 H   0  0  0  0  0  0  0  0  0  0  0  0
    2.2174    0.8464   -2.6064 H   0  0  0  0  0  0  0  0  0  0  0  0
    0.6733   -3.0947   -2.8794 H   0  0  0  0  0  0  0  0  0  0  0  0
  1  2  2  0  0  0  0
  1  3  1  0  0  0  0
  1  4  1  0  0  0  0
  2  5  1  0  0  0  0
  2 21  1  0  0  0  0
  3  6  2  0  0  0  0
  4  7  1  0  0  0  0
  4 22  1  0  0  0  0
  4 23  1  0  0  0  0
  5  8  2  0  0  0  0
  5 24  1  0  0  0  0
  6  8  1  0  0  0  0
  6 25  1  0  0  0  0
  7  9  1  0  0  0  0
  7 26  1  0  0  0  0
  7 27  1  0  0  0  0
  8 28  1  0  0  0  0
  9 10  1  0  0  0  0
  9 29  1  0  0  0  0
 10 30  1  0  0  0  0
 10 31  1  0  0  0  0
 10 32  1  0  0  0  0
 11 12  1  0  0  0  0
 11 13  1  0  0  0  0
 11 14  2  0  0  0  0
 11 15  2  0  0  0  0
 12 33  1  0  0  0  0
 12 34  1  0  0  0  0
 12 35  1  0  0  0  0
 13 36  1  0  0  0  0
 16 17  1  0  0  0  0
 16 18  1  0  0  0  0
 16 19  2  0  0  0  0
 16 20  2  0  0  0  0
 17 37  1  0  0  0  0
 17 38  1  0  0  0  0
 17 39  1  0  0  0  0
 18 40  1  0  0  0  0
M  END
>  <Mol_ID>
2944

>  <Formula>
C10H20N2O6S2

>  <MolWeight>
328.4056

>  <Cat>
S5498

>  <Name>
Betahistine mesylate

>  <Synonyms>
N/A

>  <Target>
Histamine Receptor

>  <Form>
dimethanesulfonate

>  <CAS>
54856-23-4

>  <URL>
http://selleckchem.com/products/betahistine-mesylate.html

$$$$
