S5504 Ropivacaine.cdx
 OpenBabel08302520303D

 46 47  0  0  0  0  0  0  0  0999 V2000
    0.7464    0.9639   -0.2068 C   0  0  2  0  0  0  0  0  0  0  0  0
    1.3381   -0.3761    0.0631 N   0  0  0  0  0  0  0  0  0  0  0  0
    1.7621    2.0850    0.1243 C   0  0  0  0  0  0  0  0  0  0  0  0
   -0.6027    1.1656    0.5014 C   0  0  0  0  0  0  0  0  0  0  0  0
    0.3878   -1.4556   -0.2714 C   0  0  0  0  0  0  0  0  0  0  0  0
    2.6222   -0.5767   -0.6609 C   0  0  0  0  0  0  0  0  0  0  0  0
    2.0556    2.2827    1.4638 N   0  0  0  0  0  0  0  0  0  0  0  0
    2.3114    2.6417   -0.8202 O   0  0  0  0  0  0  0  0  0  0  0  0
   -1.5806    0.0623    0.1016 C   0  0  0  0  0  0  0  0  0  0  0  0
   -0.9682   -1.2960    0.4166 C   0  0  0  0  0  0  0  0  0  0  0  0
    2.5785   -0.5411   -2.2019 C   0  0  0  0  0  0  0  0  0  0  0  0
    2.8723    3.3110    2.0429 C   0  0  0  0  0  0  0  0  0  0  0  0
    3.9589   -0.7424   -2.8121 C   0  0  0  0  0  0  0  0  0  0  0  0
    3.1005    4.5809    1.4560 C   0  0  0  0  0  0  0  0  0  0  0  0
    3.4509    3.0593    3.3218 C   0  0  0  0  0  0  0  0  0  0  0  0
    3.9520    5.5107    2.0962 C   0  0  0  0  0  0  0  0  0  0  0  0
    2.4968    5.0818    0.1715 C   0  0  0  0  0  0  0  0  0  0  0  0
    4.2645    4.0308    3.9411 C   0  0  0  0  0  0  0  0  0  0  0  0
    4.5256    5.2465    3.3262 C   0  0  0  0  0  0  0  0  0  0  0  0
    3.2749    1.7675    4.0846 C   0  0  0  0  0  0  0  0  0  0  0  0
    0.5329    1.0535   -1.2792 H   0  0  0  0  0  0  0  0  0  0  0  0
   -1.0245    2.1399    0.2269 H   0  0  0  0  0  0  0  0  0  0  0  0
   -0.4841    1.1713    1.5925 H   0  0  0  0  0  0  0  0  0  0  0  0
    0.8144   -2.4201    0.0296 H   0  0  0  0  0  0  0  0  0  0  0  0
    0.2045   -1.5037   -1.3511 H   0  0  0  0  0  0  0  0  0  0  0  0
    3.3565    0.1578   -0.3077 H   0  0  0  0  0  0  0  0  0  0  0  0
    3.0359   -1.5427   -0.3449 H   0  0  0  0  0  0  0  0  0  0  0  0
    1.8662    1.4684    2.0365 H   0  0  0  0  0  0  0  0  0  0  0  0
   -2.5332    0.1818    0.6286 H   0  0  0  0  0  0  0  0  0  0  0  0
   -1.7965    0.1293   -0.9715 H   0  0  0  0  0  0  0  0  0  0  0  0
   -0.8531   -1.4099    1.5018 H   0  0  0  0  0  0  0  0  0  0  0  0
   -1.6439   -2.0910    0.0790 H   0  0  0  0  0  0  0  0  0  0  0  0
    1.9266   -1.3330   -2.5832 H   0  0  0  0  0  0  0  0  0  0  0  0
    2.1804    0.4109   -2.5684 H   0  0  0  0  0  0  0  0  0  0  0  0
    4.4774   -1.5903   -2.3547 H   0  0  0  0  0  0  0  0  0  0  0  0
    3.8690   -0.9396   -3.8857 H   0  0  0  0  0  0  0  0  0  0  0  0
    4.5756    0.1527   -2.6852 H   0  0  0  0  0  0  0  0  0  0  0  0
    4.1538    6.4734    1.6296 H   0  0  0  0  0  0  0  0  0  0  0  0
    3.0958    4.7577   -0.6819 H   0  0  0  0  0  0  0  0  0  0  0  0
    1.4502    4.7797    0.0782 H   0  0  0  0  0  0  0  0  0  0  0  0
    2.4890    6.1785    0.1384 H   0  0  0  0  0  0  0  0  0  0  0  0
    4.7142    3.8433    4.9165 H   0  0  0  0  0  0  0  0  0  0  0  0
    5.1625    5.9857    3.8066 H   0  0  0  0  0  0  0  0  0  0  0  0
    2.2227    1.6018    4.3198 H   0  0  0  0  0  0  0  0  0  0  0  0
    3.6754    0.9250    3.5087 H   0  0  0  0  0  0  0  0  0  0  0  0
    3.8154    1.7904    5.0332 H   0  0  0  0  0  0  0  0  0  0  0  0
  1  2  1  0  0  0  0
  1  4  1  0  0  0  0
  1 21  1  6  0  0  0
  1  3  1  0  0  0  0
  2  5  1  0  0  0  0
  2  6  1  0  0  0  0
  3  7  1  0  0  0  0
  3  8  2  0  0  0  0
  4  9  1  0  0  0  0
  4 22  1  0  0  0  0
  4 23  1  0  0  0  0
  5 10  1  0  0  0  0
  5 24  1  0  0  0  0
  5 25  1  0  0  0  0
  6 11  1  0  0  0  0
  6 26  1  0  0  0  0
  6 27  1  0  0  0  0
  7 12  1  0  0  0  0
  7 28  1  0  0  0  0
  9 10  1  0  0  0  0
  9 29  1  0  0  0  0
  9 30  1  0  0  0  0
 10 31  1  0  0  0  0
 10 32  1  0  0  0  0
 11 13  1  0  0  0  0
 11 33  1  0  0  0  0
 11 34  1  0  0  0  0
 12 14  2  0  0  0  0
 12 15  1  0  0  0  0
 13 35  1  0  0  0  0
 13 36  1  0  0  0  0
 13 37  1  0  0  0  0
 14 16  1  0  0  0  0
 14 17  1  0  0  0  0
 15 18  2  0  0  0  0
 15 20  1  0  0  0  0
 16 19  2  0  0  0  0
 16 38  1  0  0  0  0
 17 39  1  0  0  0  0
 17 40  1  0  0  0  0
 17 41  1  0  0  0  0
 18 19  1  0  0  0  0
 18 42  1  0  0  0  0
 19 43  1  0  0  0  0
 20 44  1  0  0  0  0
 20 45  1  0  0  0  0
 20 46  1  0  0  0  0
M  END
>  <Mol_ID>
3260

>  <Formula>
C17H26N2O

>  <MolWeight>
274.40114

>  <Cat>
S5504

>  <Name>
Ropivacaine

>  <Target>
Others

>  <Form>
Amide local anesthetics

>  <CAS>
84057-95-4

>  <URL>
https://www.selleckchem.com/products/ropivacaine.html

$$$$
