S5503 O-Acetyl-L-carnitine hydrochloride.cdx
 OpenBabel08302520303D

 32 31  0  0  0  0  0  0  0  0999 V2000
    1.3583   -0.2129    0.1748 C   0  0  0  0  0  0  0  0  0  0  0  0
    2.9189   -0.3073    0.1661 C   0  0  1  0  0  0  0  0  0  0  0  0
    0.7571    0.9445    1.0518 N   0  3  0  0  0  0  0  0  0  0  0  0
    3.6603   -0.9787    1.3248 C   0  0  0  0  0  0  0  0  0  0  0  0
    3.5020   -0.7354   -1.1016 O   0  0  0  0  0  0  0  0  0  0  0  0
   -0.7234    1.1208    0.6613 C   0  0  0  0  0  0  0  0  0  0  0  0
    0.7766    0.5939    2.5382 C   0  0  0  0  0  0  0  0  0  0  0  0
    1.4717    2.2686    0.8186 C   0  0  0  0  0  0  0  0  0  0  0  0
    3.0333   -2.2397    1.8319 C   0  0  0  0  0  0  0  0  0  0  0  0
    3.0228   -1.8209   -1.7568 C   0  0  0  0  0  0  0  0  0  0  0  0
    3.8817   -3.2841    1.9466 O   0  0  0  0  0  0  0  0  0  0  0  0
    1.8710   -2.2911    2.2062 O   0  0  0  0  0  0  0  0  0  0  0  0
    3.8506   -2.1054   -2.9786 C   0  0  0  0  0  0  0  0  0  0  0  0
    2.0595   -2.4675   -1.3818 O   0  0  0  0  0  0  0  0  0  0  0  0
    1.0316    0.0111   -0.8487 H   0  0  0  0  0  0  0  0  0  0  0  0
    0.8494   -1.1326    0.4669 H   0  0  0  0  0  0  0  0  0  0  0  0
    3.2862    0.7211    0.1813 H   0  0  0  0  0  0  0  0  0  0  0  0
    4.6968   -1.1742    1.0252 H   0  0  0  0  0  0  0  0  0  0  0  0
    3.7143   -0.2976    2.1809 H   0  0  0  0  0  0  0  0  0  0  0  0
   -1.3026    0.3014    1.0969 H   0  0  0  0  0  0  0  0  0  0  0  0
   -1.0760    2.0775    1.0605 H   0  0  0  0  0  0  0  0  0  0  0  0
   -0.8063    1.1182   -0.4286 H   0  0  0  0  0  0  0  0  0  0  0  0
    1.8114    0.5189    2.8716 H   0  0  0  0  0  0  0  0  0  0  0  0
    0.2742    1.4004    3.0824 H   0  0  0  0  0  0  0  0  0  0  0  0
    0.2425   -0.3479    2.6866 H   0  0  0  0  0  0  0  0  0  0  0  0
    2.4278    2.2470    1.3497 H   0  0  0  0  0  0  0  0  0  0  0  0
    1.6208    2.3947   -0.2576 H   0  0  0  0  0  0  0  0  0  0  0  0
    0.8632    3.0827    1.2207 H   0  0  0  0  0  0  0  0  0  0  0  0
    4.8103   -3.1312    1.6845 H   0  0  0  0  0  0  0  0  0  0  0  0
    4.4338   -3.0164   -2.8236 H   0  0  0  0  0  0  0  0  0  0  0  0
    3.2034   -2.2050   -3.8527 H   0  0  0  0  0  0  0  0  0  0  0  0
    4.5444   -1.2796   -3.1713 H   0  0  0  0  0  0  0  0  0  0  0  0
  1  3  1  0  0  0  0
  1 15  1  0  0  0  0
  1 16  1  0  0  0  0
  2  1  1  0  0  0  0
  2  4  1  0  0  0  0
  2  5  1  0  0  0  0
  2 17  1  1  0  0  0
  3  6  1  0  0  0  0
  3  7  1  0  0  0  0
  3  8  1  0  0  0  0
  4  9  1  0  0  0  0
  4 18  1  0  0  0  0
  4 19  1  0  0  0  0
  5 10  1  0  0  0  0
  6 20  1  0  0  0  0
  6 21  1  0  0  0  0
  6 22  1  0  0  0  0
  7 23  1  0  0  0  0
  7 24  1  0  0  0  0
  7 25  1  0  0  0  0
  8 26  1  0  0  0  0
  8 27  1  0  0  0  0
  8 28  1  0  0  0  0
  9 11  1  0  0  0  0
  9 12  2  0  0  0  0
 10 13  1  0  0  0  0
 10 14  2  0  0  0  0
 11 29  1  0  0  0  0
 13 30  1  0  0  0  0
 13 31  1  0  0  0  0
 13 32  1  0  0  0  0
M  CHG  1   3   1
M  END
>  <Mol_ID>
3259

>  <Formula>
C9H18ClNO4

>  <MolWeight>
239.69652

>  <Cat>
S5503

>  <Name>
O-Acetyl-L-carnitine hydrochloride

>  <Synonyms>
Acetyl-L-carnitine, O-acetyl-L-carnitine, O-Acetylcarnitine

>  <Target>
Others

>  <Form>
Salt

>  <CAS>
5080-50-2

>  <URL>
https://www.selleckchem.com/products/o-acetyl-l-carnitine-hydrochloride.html

$$$$
