S5505 2'-deoxyuridine.cdx
 OpenBabel08302520293D

 28 29  0  0  0  0  0  0  0  0999 V2000
    1.1429   -0.8205   -0.4150 C   0  0  2  0  0  0  0  0  0  0  0  0
    2.3828   -1.5679   -0.2541 N   0  0  0  0  0  0  0  0  0  0  0  0
    1.3613    0.5878   -0.1970 O   0  0  0  0  0  0  0  0  0  0  0  0
    0.0195   -1.2374    0.5243 C   0  0  0  0  0  0  0  0  0  0  0  0
    2.4855   -2.7757   -0.9332 C   0  0  0  0  0  0  0  0  0  0  0  0
    3.4302   -1.0728    0.4966 C   0  0  0  0  0  0  0  0  0  0  0  0
    0.1933    1.1377    0.4653 C   0  0  1  0  0  0  0  0  0  0  0  0
   -0.8338    0.0115    0.5488 C   0  0  1  0  0  0  0  0  0  0  0  0
    3.6997   -3.4075   -0.8442 N   0  0  0  0  0  0  0  0  0  0  0  0
    1.5769   -3.2685   -1.5995 O   0  0  0  0  0  0  0  0  0  0  0  0
    4.6201   -1.6750    0.5342 C   0  0  0  0  0  0  0  0  0  0  0  0
    0.6233    1.6370    1.8474 C   0  0  0  0  0  0  0  0  0  0  0  0
   -1.7052    0.0169   -0.5835 O   0  0  0  0  0  0  0  0  0  0  0  0
    4.8147   -2.9004   -0.2511 C   0  0  0  0  0  0  0  0  0  0  0  0
    1.6473    2.6214    1.7247 O   0  0  0  0  0  0  0  0  0  0  0  0
    5.9238   -3.4153   -0.3565 O   0  0  0  0  0  0  0  0  0  0  0  0
    0.8104   -0.9225   -1.4552 H   0  0  0  0  0  0  0  0  0  0  0  0
    0.4130   -1.4440    1.5286 H   0  0  0  0  0  0  0  0  0  0  0  0
   -0.5047   -2.1263    0.1663 H   0  0  0  0  0  0  0  0  0  0  0  0
    3.2681   -0.1473    1.0441 H   0  0  0  0  0  0  0  0  0  0  0  0
   -0.1503    1.9775   -0.1489 H   0  0  0  0  0  0  0  0  0  0  0  0
   -1.4695    0.0725    1.4372 H   0  0  0  0  0  0  0  0  0  0  0  0
    3.8126   -4.2466   -1.3924 H   0  0  0  0  0  0  0  0  0  0  0  0
    5.4679   -1.2867    1.0859 H   0  0  0  0  0  0  0  0  0  0  0  0
   -0.2218    2.0907    2.3751 H   0  0  0  0  0  0  0  0  0  0  0  0
    1.0268    0.8266    2.4614 H   0  0  0  0  0  0  0  0  0  0  0  0
   -1.1957    0.2057   -1.3916 H   0  0  0  0  0  0  0  0  0  0  0  0
    2.3054    2.2592    1.1020 H   0  0  0  0  0  0  0  0  0  0  0  0
  1  3  1  0  0  0  0
  1  4  1  0  0  0  0
  1 17  1  6  0  0  0
  1  2  1  0  0  0  0
  2  5  1  0  0  0  0
  2  6  1  0  0  0  0
  3  7  1  0  0  0  0
  4  8  1  0  0  0  0
  4 18  1  0  0  0  0
  4 19  1  0  0  0  0
  5  9  1  0  0  0  0
  5 10  2  0  0  0  0
  6 11  2  0  0  0  0
  6 20  1  0  0  0  0
  7  8  1  0  0  0  0
  7 21  1  6  0  0  0
  7 12  1  0  0  0  0
  8 13  1  0  0  0  0
  8 22  1  1  0  0  0
  9 14  1  0  0  0  0
  9 23  1  0  0  0  0
 11 14  1  0  0  0  0
 11 24  1  0  0  0  0
 12 15  1  0  0  0  0
 12 25  1  0  0  0  0
 12 26  1  0  0  0  0
 13 27  1  0  0  0  0
 14 16  2  0  0  0  0
 15 28  1  0  0  0  0
M  END
>  <Mol_ID>
3228

>  <Formula>
C9H12N2O5

>  <MolWeight>
228.20198

>  <Cat>
S5505

>  <Name>
2¡¯-deoxyuridine

>  <Synonyms>
dU, 2'-dU

>  <Target>
DNA/RNA Synthesis

>  <Form>
Nucleoside

>  <CAS>
951-78-0

>  <URL>
https://www.selleckchem.com/products/2-deoxyuridine.html

$$$$
