S5501 Hydrocortisone acetate.cdx
 OpenBabel08302520143D

 61 64  0  0  0  0  0  0  0  0999 V2000
    1.1028    0.1833    0.1964 C   0  0  1  0  0  0  0  0  0  0  0  0
    0.3663    1.5286    0.4298 C   0  0  2  0  0  0  0  0  0  0  0  0
    2.6033    0.5423    0.5744 C   0  0  1  0  0  0  0  0  0  0  0  0
    0.3513   -0.8142    1.1159 C   0  0  0  0  0  0  0  0  0  0  0  0
   -0.9904    1.6360   -0.2394 C   0  0  1  0  0  0  0  0  0  0  0  0
    1.4052    2.6090    0.2247 C   0  0  0  0  0  0  0  0  0  0  0  0
    2.5200    2.0035    1.0782 C   0  0  0  0  0  0  0  0  0  0  0  0
   -1.1824   -0.5427    1.2241 C   0  0  1  0  0  0  0  0  0  0  0  0
   -1.8334    0.3459    0.1095 C   0  0  3  0  0  0  0  0  0  0  0  0
   -1.5920    3.0321    0.0569 C   0  0  0  0  0  0  0  0  0  0  0  0
   -1.8463   -1.8013    1.3171 O   0  0  0  0  0  0  0  0  0  0  0  0
   -3.3937    0.5730    0.2554 C   0  0  3  0  0  0  0  0  0  0  0  0
   -3.1017    3.1117    0.1609 C   0  0  0  0  0  0  0  0  0  0  0  0
   -3.6813    1.8941   -0.4706 C   0  0  0  0  0  0  0  0  0  0  0  0
   -4.1544   -0.6565   -0.3693 C   0  0  0  0  0  0  0  0  0  0  0  0
   -3.8460    0.6727    1.7341 C   0  0  0  0  0  0  0  0  0  0  0  0
   -4.1887    1.9818   -1.7170 C   0  0  0  0  0  0  0  0  0  0  0  0
   -5.1387   -0.3233   -1.4823 C   0  0  0  0  0  0  0  0  0  0  0  0
   -4.5507    0.7230   -2.3770 C   0  0  0  0  0  0  0  0  0  0  0  0
   -4.3926    0.5855   -3.5876 O   0  0  0  0  0  0  0  0  0  0  0  0
    3.0854   -0.2829    1.6245 O   0  0  0  0  0  0  0  0  0  0  0  0
    3.6308    0.6173   -0.6014 C   0  0  0  0  0  0  0  0  0  0  0  0
    4.8872   -0.2410   -0.4867 C   0  0  0  0  0  0  0  0  0  0  0  0
    3.4837    1.3899   -1.5547 O   0  0  0  0  0  0  0  0  0  0  0  0
    5.7690   -0.0387   -1.5957 O   0  0  0  0  0  0  0  0  0  0  0  0
    5.3082   -0.5651   -2.7638 C   0  0  0  0  0  0  0  0  0  0  0  0
    6.1818   -0.1648   -3.9114 C   0  0  0  0  0  0  0  0  0  0  0  0
    4.3371   -1.3125   -2.8609 O   0  0  0  0  0  0  0  0  0  0  0  0
    1.0399   -0.3965   -1.2377 C   0  0  0  0  0  0  0  0  0  0  0  0
    0.1379    1.6025    1.5069 H   0  0  0  0  0  0  0  0  0  0  0  0
    0.7425   -0.7463    2.1400 H   0  0  0  0  0  0  0  0  0  0  0  0
    0.5481   -1.8497    0.8098 H   0  0  0  0  0  0  0  0  0  0  0  0
   -0.8438    1.6115   -1.3308 H   0  0  0  0  0  0  0  0  0  0  0  0
    1.1005    3.5895    0.5961 H   0  0  0  0  0  0  0  0  0  0  0  0
    1.6676    2.7156   -0.8320 H   0  0  0  0  0  0  0  0  0  0  0  0
    3.4576    2.5617    0.9923 H   0  0  0  0  0  0  0  0  0  0  0  0
    2.2383    2.0222    2.1406 H   0  0  0  0  0  0  0  0  0  0  0  0
   -1.3417   -0.0458    2.1885 H   0  0  0  0  0  0  0  0  0  0  0  0
   -1.7437   -0.2562   -0.8030 H   0  0  0  0  0  0  0  0  0  0  0  0
   -1.2707    3.7002   -0.7565 H   0  0  0  0  0  0  0  0  0  0  0  0
   -1.1658    3.4702    0.9667 H   0  0  0  0  0  0  0  0  0  0  0  0
   -1.6691   -2.2952    0.4980 H   0  0  0  0  0  0  0  0  0  0  0  0
   -3.4064    3.2056    1.2086 H   0  0  0  0  0  0  0  0  0  0  0  0
   -3.4568    4.0386   -0.3112 H   0  0  0  0  0  0  0  0  0  0  0  0
   -4.6984   -1.2139    0.4036 H   0  0  0  0  0  0  0  0  0  0  0  0
   -3.4426   -1.3829   -0.7779 H   0  0  0  0  0  0  0  0  0  0  0  0
   -4.8966    0.9762    1.8059 H   0  0  0  0  0  0  0  0  0  0  0  0
   -3.7581   -0.2878    2.2546 H   0  0  0  0  0  0  0  0  0  0  0  0
   -3.2489    1.3884    2.3109 H   0  0  0  0  0  0  0  0  0  0  0  0
   -4.2382    2.8929   -2.2879 H   0  0  0  0  0  0  0  0  0  0  0  0
   -6.0781    0.0630   -1.0754 H   0  0  0  0  0  0  0  0  0  0  0  0
   -5.3724   -1.2173   -2.0702 H   0  0  0  0  0  0  0  0  0  0  0  0
    2.9338   -1.2128    1.3756 H   0  0  0  0  0  0  0  0  0  0  0  0
    4.6143   -1.2977   -0.3967 H   0  0  0  0  0  0  0  0  0  0  0  0
    5.4291    0.0629    0.4135 H   0  0  0  0  0  0  0  0  0  0  0  0
    7.0023   -0.8775   -4.0097 H   0  0  0  0  0  0  0  0  0  0  0  0
    6.5744    0.8455   -3.7611 H   0  0  0  0  0  0  0  0  0  0  0  0
    5.5850   -0.1536   -4.8284 H   0  0  0  0  0  0  0  0  0  0  0  0
    1.2088    0.3652   -2.0020 H   0  0  0  0  0  0  0  0  0  0  0  0
    0.0833   -0.8737   -1.4674 H   0  0  0  0  0  0  0  0  0  0  0  0
    1.7873   -1.1887   -1.3604 H   0  0  0  0  0  0  0  0  0  0  0  0
  1  2  1  0  0  0  0
  1  3  1  0  0  0  0
  1  4  1  0  0  0  0
  1 29  1  6  0  0  0
  2  5  1  0  0  0  0
  2  6  1  0  0  0  0
  2 30  1  1  0  0  0
  3 21  1  1  0  0  0
  3 22  1  0  0  0  0
  3  7  1  0  0  0  0
  4  8  1  0  0  0  0
  4 31  1  0  0  0  0
  4 32  1  0  0  0  0
  5  9  1  0  0  0  0
  5 10  1  0  0  0  0
  5 33  1  6  0  0  0
  6  7  1  0  0  0  0
  6 34  1  0  0  0  0
  6 35  1  0  0  0  0
  7 36  1  0  0  0  0
  7 37  1  0  0  0  0
  8 11  1  0  0  0  0
  8 38  1  1  0  0  0
  9  8  1  0  0  0  0
  9 12  1  0  0  0  0
  9 39  1  0  0  0  0
 10 13  1  0  0  0  0
 10 40  1  0  0  0  0
 10 41  1  0  0  0  0
 11 42  1  0  0  0  0
 12 14  1  0  0  0  0
 12 15  1  0  0  0  0
 12 16  1  0  0  0  0
 13 14  1  0  0  0  0
 13 43  1  0  0  0  0
 13 44  1  0  0  0  0
 14 17  2  0  0  0  0
 15 18  1  0  0  0  0
 15 45  1  0  0  0  0
 15 46  1  0  0  0  0
 16 47  1  0  0  0  0
 16 48  1  0  0  0  0
 16 49  1  0  0  0  0
 17 19  1  0  0  0  0
 17 50  1  0  0  0  0
 18 19  1  0  0  0  0
 18 51  1  0  0  0  0
 18 52  1  0  0  0  0
 19 20  2  0  0  0  0
 21 53  1  0  0  0  0
 22 23  1  0  0  0  0
 22 24  2  0  0  0  0
 23 25  1  0  0  0  0
 23 54  1  0  0  0  0
 23 55  1  0  0  0  0
 25 26  1  0  0  0  0
 26 27  1  0  0  0  0
 26 28  2  0  0  0  0
 27 56  1  0  0  0  0
 27 57  1  0  0  0  0
 27 58  1  0  0  0  0
 29 59  1  0  0  0  0
 29 60  1  0  0  0  0
 29 61  1  0  0  0  0
M  END
>  <Mol_ID>
3127

>  <Formula>
C23H32O6

>  <MolWeight>
404.49658

>  <Cat>
S5501

>  <Name>
Hydrocortisone acetate

>  <Synonyms>
Cortisol 21-acetate

>  <Target>
Immunology & Inflammation related

>  <Form>
free base

>  <CAS>
50-03-3

>  <URL>
https://www.selleckchem.com/products/hydrocortisone-acetate.html

$$$$
