S5519 4-Methylsalicylic acid.cdx
 OpenBabel08302520013D

 19 19  0  0  0  0  0  0  0  0999 V2000
   -1.1719   -1.1823   -0.0463 C   0  0  0  0  0  0  0  0  0  0  0  0
   -1.2285    0.2132   -0.0842 C   0  0  0  0  0  0  0  0  0  0  0  0
    0.0778   -1.8090    0.0148 C   0  0  0  0  0  0  0  0  0  0  0  0
   -2.3850   -2.0395   -0.0576 C   0  0  0  0  0  0  0  0  0  0  0  0
   -0.0656    0.9801   -0.0840 C   0  0  0  0  0  0  0  0  0  0  0  0
   -2.4280    0.8691   -0.1291 O   0  0  0  0  0  0  0  0  0  0  0  0
    1.2485   -1.0465    0.0196 C   0  0  0  0  0  0  0  0  0  0  0  0
   -3.4414   -1.4873   -0.6888 O   0  0  0  0  0  0  0  0  0  0  0  0
   -2.4061   -3.1555    0.4319 O   0  0  0  0  0  0  0  0  0  0  0  0
    1.1863    0.3524   -0.0304 C   0  0  0  0  0  0  0  0  0  0  0  0
    2.4397    1.1774   -0.0159 C   0  0  0  0  0  0  0  0  0  0  0  0
    0.1426   -2.8957    0.0522 H   0  0  0  0  0  0  0  0  0  0  0  0
   -0.1320    2.0651   -0.1256 H   0  0  0  0  0  0  0  0  0  0  0  0
   -2.7376    0.9267    0.7979 H   0  0  0  0  0  0  0  0  0  0  0  0
    2.2100   -1.5552    0.0608 H   0  0  0  0  0  0  0  0  0  0  0  0
   -3.2597   -0.5883   -1.0378 H   0  0  0  0  0  0  0  0  0  0  0  0
    2.4883    1.8103   -0.9077 H   0  0  0  0  0  0  0  0  0  0  0  0
    2.4637    1.8098    0.8775 H   0  0  0  0  0  0  0  0  0  0  0  0
    3.3354    0.5467   -0.0045 H   0  0  0  0  0  0  0  0  0  0  0  0
  1  2  2  0  0  0  0
  1  3  1  0  0  0  0
  1  4  1  0  0  0  0
  2  5  1  0  0  0  0
  2  6  1  0  0  0  0
  3  7  2  0  0  0  0
  3 12  1  0  0  0  0
  4  8  1  0  0  0  0
  4  9  2  0  0  0  0
  5 10  2  0  0  0  0
  5 13  1  0  0  0  0
  6 14  1  0  0  0  0
  7 10  1  0  0  0  0
  7 15  1  0  0  0  0
  8 16  1  0  0  0  0
 10 11  1  0  0  0  0
 11 17  1  0  0  0  0
 11 18  1  0  0  0  0
 11 19  1  0  0  0  0
M  END
>  <Mol_ID>
3045

>  <Formula>
C8H8O3

>  <MolWeight>
152.14732

>  <Cat>
S5519

>  <Name>
4-Methylsalicylic acid

>  <Synonyms>
m-Cresotic acid,  2-Hydroxy-4-methylbenzoic acid, m-Cresotinic acid, 2-Hydroxy-p-toluic acid

>  <Target>
Acetyl-CoA carboxylase

>  <Form>
free base

>  <CAS>
50-85-1

>  <URL>
http://selleckchem.com/products/4-methylsalicylic-acid.html

$$$$
