S5518 D-Glucose 6-phosphate disodium salt.cdx
 OpenBabel08302521383D

 27 26  0  0  0  0  0  0  0  0999 V2000
    3.5899    0.3920   -1.1420 C   0  0  1  0  0  0  0  0  0  0  0  0
    2.7209    0.0675   -2.3950 C   0  0  1  0  0  0  0  0  0  0  0  0
    3.2217   -0.4430    0.1108 C   0  0  1  0  0  0  0  0  0  0  0  0
    4.9702    0.1174   -1.4688 O   0  0  0  0  0  0  0  0  0  0  0  0
    3.0561    0.9261   -3.6317 C   0  0  2  0  0  0  0  0  0  0  0  0
    2.9002   -1.3021   -2.8028 O   0  0  0  0  0  0  0  0  0  0  0  0
    1.8446   -0.1138    0.6841 C   0  0  0  0  0  0  0  0  0  0  0  0
    3.3328   -1.8388   -0.2466 O   0  0  0  0  0  0  0  0  0  0  0  0
    2.0180    0.6373   -4.7295 C   0  0  0  0  0  0  0  0  0  0  0  0
    4.3563    0.6470   -4.1440 O   0  0  0  0  0  0  0  0  0  0  0  0
    1.7118   -0.8086    1.9118 O   0  0  0  0  0  0  0  0  0  0  0  0
    2.2932    0.3392   -5.8960 O   0  0  0  0  0  0  0  0  0  0  0  0
    0.2859   -0.5533    2.6751 P   0  0  0  0  0  0  0  0  0  0  0  0
    0.2308    0.9641    2.8274 O   0  0  0  0  0  0  0  0  0  0  0  0
   -0.7218   -1.1274    1.6908 O   0  5  0  0  0  0  0  0  0  0  0  0
    0.4296   -1.3297    3.9723 O   0  5  0  0  0  0  0  0  0  0  0  0
    3.5222    1.4588   -0.9012 H   0  0  0  0  0  0  0  0  0  0  0  0
    1.6636    0.2059   -2.1396 H   0  0  0  0  0  0  0  0  0  0  0  0
    3.9749   -0.2814    0.8942 H   0  0  0  0  0  0  0  0  0  0  0  0
    5.4010   -0.2020   -0.6559 H   0  0  0  0  0  0  0  0  0  0  0  0
    3.0007    1.9910   -3.3878 H   0  0  0  0  0  0  0  0  0  0  0  0
    3.5202   -1.6910   -2.1460 H   0  0  0  0  0  0  0  0  0  0  0  0
    1.7640    0.9643    0.8582 H   0  0  0  0  0  0  0  0  0  0  0  0
    1.0529   -0.4418    0.0040 H   0  0  0  0  0  0  0  0  0  0  0  0
    2.4916   -2.2408    0.0675 H   0  0  0  0  0  0  0  0  0  0  0  0
    0.9724    0.7804   -4.4285 H   0  0  0  0  0  0  0  0  0  0  0  0
    4.3898   -0.3296   -4.1974 H   0  0  0  0  0  0  0  0  0  0  0  0
  1  4  1  0  0  0  0
  1 17  1  1  0  0  0
  1  3  1  0  0  0  0
  1  2  1  0  0  0  0
  2  6  1  0  0  0  0
  2 18  1  1  0  0  0
  3  7  1  0  0  0  0
  3  8  1  0  0  0  0
  3 19  1  1  0  0  0
  4 20  1  0  0  0  0
  5 10  1  0  0  0  0
  5 21  1  1  0  0  0
  5  9  1  0  0  0  0
  5  2  1  0  0  0  0
  6 22  1  0  0  0  0
  7 11  1  0  0  0  0
  7 23  1  0  0  0  0
  7 24  1  0  0  0  0
  8 25  1  0  0  0  0
  9 12  2  0  0  0  0
  9 26  1  0  0  0  0
 10 27  1  0  0  0  0
 11 13  1  0  0  0  0
 13 14  2  0  0  0  0
 13 15  1  0  0  0  0
 13 16  1  0  0  0  0
M  CHG  2  15  -1  16  -1
M  END
>  <Mol_ID>
7833

>  <Formula>
C6H11Na2O9P

>  <MolWeight>
304.099441

>  <Cat>
S5518

>  <Name>
D-Glucose 6-phosphate disodium salt

>  <Synonyms>
N/A

>  <Target>
Others

>  <Form>
disodium salt

>  <CAS>
3671-99-6

>  <URL>
http://selleckchem.com/products/d-glucose-6-phosphate-disodium-salt.html

$$$$
