S5524 Spermine, Tetrahydrochloride.cdx
 OpenBabel08302521383D

 40 39  0  0  0  0  0  0  0  0999 V2000
    0.8246    0.0244   -0.1406 C   0  0  0  0  0  0  0  0  0  0  0  0
    0.3230   -1.4047   -0.3825 C   0  0  0  0  0  0  0  0  0  0  0  0
    0.4739    0.6067    1.2361 C   0  0  0  0  0  0  0  0  0  0  0  0
   -1.1992   -1.5859   -0.3473 C   0  0  0  0  0  0  0  0  0  0  0  0
    0.9691   -0.1710    2.3773 N   0  0  0  0  0  0  0  0  0  0  0  0
   -1.8852   -0.8237   -1.3982 N   0  0  0  0  0  0  0  0  0  0  0  0
    2.4315   -0.1845    2.4492 C   0  0  0  0  0  0  0  0  0  0  0  0
   -3.3332   -1.0408   -1.3258 C   0  0  0  0  0  0  0  0  0  0  0  0
    2.9559   -0.8960    3.7024 C   0  0  0  0  0  0  0  0  0  0  0  0
   -4.1175   -0.2138   -2.3512 C   0  0  0  0  0  0  0  0  0  0  0  0
    2.5446   -2.3663    3.7716 C   0  0  0  0  0  0  0  0  0  0  0  0
   -3.7649   -0.5434   -3.8002 C   0  0  0  0  0  0  0  0  0  0  0  0
    3.1859   -3.0133    4.9177 N   0  0  0  0  0  0  0  0  0  0  0  0
   -4.6185    0.2187   -4.7100 N   0  0  0  0  0  0  0  0  0  0  0  0
    0.4266    0.6916   -0.9148 H   0  0  0  0  0  0  0  0  0  0  0  0
    1.9124    0.0388   -0.2816 H   0  0  0  0  0  0  0  0  0  0  0  0
    0.7023   -1.7457   -1.3545 H   0  0  0  0  0  0  0  0  0  0  0  0
    0.7671   -2.0761    0.3638 H   0  0  0  0  0  0  0  0  0  0  0  0
    0.8459    1.6366    1.2987 H   0  0  0  0  0  0  0  0  0  0  0  0
   -0.6162    0.6781    1.3226 H   0  0  0  0  0  0  0  0  0  0  0  0
   -1.4091   -2.6533   -0.4877 H   0  0  0  0  0  0  0  0  0  0  0  0
   -1.5831   -1.3084    0.6405 H   0  0  0  0  0  0  0  0  0  0  0  0
    0.6026    0.2429    3.2359 H   0  0  0  0  0  0  0  0  0  0  0  0
   -1.6910    0.1708   -1.2874 H   0  0  0  0  0  0  0  0  0  0  0  0
    2.8526   -0.6909    1.5751 H   0  0  0  0  0  0  0  0  0  0  0  0
    2.8136    0.8437    2.4568 H   0  0  0  0  0  0  0  0  0  0  0  0
   -3.5574   -2.1036   -1.4779 H   0  0  0  0  0  0  0  0  0  0  0  0
   -3.6946   -0.7656   -0.3270 H   0  0  0  0  0  0  0  0  0  0  0  0
    4.0512   -0.8236    3.6936 H   0  0  0  0  0  0  0  0  0  0  0  0
    2.6134   -0.3681    4.6025 H   0  0  0  0  0  0  0  0  0  0  0  0
   -5.1869   -0.4015   -2.1859 H   0  0  0  0  0  0  0  0  0  0  0  0
   -3.9553    0.8555   -2.1625 H   0  0  0  0  0  0  0  0  0  0  0  0
    1.4606   -2.4579    3.8766 H   0  0  0  0  0  0  0  0  0  0  0  0
    2.8395   -2.8893    2.8539 H   0  0  0  0  0  0  0  0  0  0  0  0
   -2.7193   -0.2860   -4.0051 H   0  0  0  0  0  0  0  0  0  0  0  0
   -3.8926   -1.6120   -3.9974 H   0  0  0  0  0  0  0  0  0  0  0  0
    2.9095   -3.9945    4.9409 H   0  0  0  0  0  0  0  0  0  0  0  0
    4.1946   -3.0049    4.7946 H   0  0  0  0  0  0  0  0  0  0  0  0
   -4.2788    0.1061   -5.6636 H   0  0  0  0  0  0  0  0  0  0  0  0
   -5.5603   -0.1724   -4.7005 H   0  0  0  0  0  0  0  0  0  0  0  0
  1  2  1  0  0  0  0
  1  3  1  0  0  0  0
  1 15  1  0  0  0  0
  1 16  1  0  0  0  0
  2  4  1  0  0  0  0
  2 17  1  0  0  0  0
  2 18  1  0  0  0  0
  3  5  1  0  0  0  0
  3 19  1  0  0  0  0
  3 20  1  0  0  0  0
  4  6  1  0  0  0  0
  4 21  1  0  0  0  0
  4 22  1  0  0  0  0
  5  7  1  0  0  0  0
  5 23  1  0  0  0  0
  6  8  1  0  0  0  0
  6 24  1  0  0  0  0
  7  9  1  0  0  0  0
  7 25  1  0  0  0  0
  7 26  1  0  0  0  0
  8 10  1  0  0  0  0
  8 27  1  0  0  0  0
  8 28  1  0  0  0  0
  9 11  1  0  0  0  0
  9 29  1  0  0  0  0
  9 30  1  0  0  0  0
 10 12  1  0  0  0  0
 10 31  1  0  0  0  0
 10 32  1  0  0  0  0
 11 13  1  0  0  0  0
 11 33  1  0  0  0  0
 11 34  1  0  0  0  0
 12 14  1  0  0  0  0
 12 35  1  0  0  0  0
 12 36  1  0  0  0  0
 13 37  1  0  0  0  0
 13 38  1  0  0  0  0
 14 39  1  0  0  0  0
 14 40  1  0  0  0  0
M  END
>  <Mol_ID>
7834

>  <Formula>
C10H30Cl4N4

>  <MolWeight>
348.184

>  <Cat>
S5524

>  <Name>
Spermine Tetrahydrochloride

>  <Synonyms>
Gerontine tetrahydrochloride, Neuridine tetrahydrochloride, Musculamine tetrahydrochloride

>  <Target>
Others

>  <Form>
tetrahydrochloride

>  <CAS>
306-67-2

>  <URL>
http://selleckchem.com/products/spermine-tetrahydrochloride.html

$$$$
