S5520 Phenidone.cdx
 OpenBabel08302520013D

 22 23  0  0  0  0  0  0  0  0999 V2000
   -1.4578   -0.6117    0.3731 N   0  0  0  0  0  0  0  0  0  0  0  0
   -2.4739   -1.5479    0.4387 C   0  0  0  0  0  0  0  0  0  0  0  0
   -0.1392   -1.0353    0.4030 N   0  0  0  0  0  0  0  0  0  0  0  0
   -1.5164    0.7173   -0.2046 C   0  0  0  0  0  0  0  0  0  0  0  0
   -2.3578   -2.6640    1.2852 C   0  0  0  0  0  0  0  0  0  0  0  0
   -3.6809   -1.3953   -0.2576 C   0  0  0  0  0  0  0  0  0  0  0  0
    0.7014    0.0181    0.0895 C   0  0  0  0  0  0  0  0  0  0  0  0
   -0.1259    1.2741    0.0966 C   0  0  0  0  0  0  0  0  0  0  0  0
   -3.4061   -3.5728    1.4514 C   0  0  0  0  0  0  0  0  0  0  0  0
   -4.7292   -2.3121   -0.1095 C   0  0  0  0  0  0  0  0  0  0  0  0
    1.9003   -0.0529   -0.1236 O   0  0  0  0  0  0  0  0  0  0  0  0
   -4.5945   -3.3961    0.7534 C   0  0  0  0  0  0  0  0  0  0  0  0
    0.1165   -1.9937    0.1863 H   0  0  0  0  0  0  0  0  0  0  0  0
   -2.2949    1.3351    0.2535 H   0  0  0  0  0  0  0  0  0  0  0  0
   -1.6827    0.6731   -1.2878 H   0  0  0  0  0  0  0  0  0  0  0  0
   -1.4541   -2.8035    1.8747 H   0  0  0  0  0  0  0  0  0  0  0  0
   -3.8260   -0.5582   -0.9353 H   0  0  0  0  0  0  0  0  0  0  0  0
    0.2072    1.9865   -0.6609 H   0  0  0  0  0  0  0  0  0  0  0  0
   -0.0768    1.7245    1.0941 H   0  0  0  0  0  0  0  0  0  0  0  0
   -3.2958   -4.4042    2.1422 H   0  0  0  0  0  0  0  0  0  0  0  0
   -5.6551   -2.1706   -0.6608 H   0  0  0  0  0  0  0  0  0  0  0  0
   -5.4161   -4.0938    0.8884 H   0  0  0  0  0  0  0  0  0  0  0  0
  1  2  1  0  0  0  0
  1  3  1  0  0  0  0
  1  4  1  0  0  0  0
  2  5  2  0  0  0  0
  2  6  1  0  0  0  0
  3  7  1  0  0  0  0
  3 13  1  0  0  0  0
  4  8  1  0  0  0  0
  4 14  1  0  0  0  0
  4 15  1  0  0  0  0
  5  9  1  0  0  0  0
  5 16  1  0  0  0  0
  6 10  2  0  0  0  0
  6 17  1  0  0  0  0
  7 11  2  0  0  0  0
  7  8  1  0  0  0  0
  8 18  1  0  0  0  0
  8 19  1  0  0  0  0
  9 12  2  0  0  0  0
  9 20  1  0  0  0  0
 10 12  1  0  0  0  0
 10 21  1  0  0  0  0
 12 22  1  0  0  0  0
M  END
>  <Mol_ID>
2946

>  <Formula>
C9H10N2O

>  <MolWeight>
162.1885

>  <Cat>
S5520

>  <Name>
Phenidone

>  <Synonyms>
1-phenyl-3-pyrazolidinone

>  <Target>
COX,Lipoxygenase

>  <Form>
free base

>  <CAS>
92-43-3

>  <URL>
http://selleckchem.com/products/phenidone.html

$$$$
