S5529 Galangin.cdx
 OpenBabel08302520013D

 30 32  0  0  0  0  0  0  0  0999 V2000
    0.0676   -0.3419   -0.0137 C   0  0  0  0  0  0  0  0  0  0  0  0
   -0.3064    1.0030   -0.0199 C   0  0  0  0  0  0  0  0  0  0  0  0
    1.5162   -0.6602    0.0061 C   0  0  0  0  0  0  0  0  0  0  0  0
   -0.9377   -1.3225   -0.0191 C   0  0  0  0  0  0  0  0  0  0  0  0
    0.5929    2.0371   -0.0359 O   0  0  0  0  0  0  0  0  0  0  0  0
   -1.6546    1.3694   -0.0166 C   0  0  0  0  0  0  0  0  0  0  0  0
    2.4596    0.5003   -0.0405 C   0  0  0  0  0  0  0  0  0  0  0  0
    1.9445   -1.8071    0.0644 O   0  0  0  0  0  0  0  0  0  0  0  0
   -2.2896   -0.9608   -0.0228 C   0  0  0  0  0  0  0  0  0  0  0  0
   -0.6195   -2.6510   -0.0295 O   0  0  0  0  0  0  0  0  0  0  0  0
    1.9403    1.7406   -0.0664 C   0  0  0  0  0  0  0  0  0  0  0  0
   -2.6340    0.3859   -0.0185 C   0  0  0  0  0  0  0  0  0  0  0  0
    3.8175    0.2239   -0.0477 O   0  0  0  0  0  0  0  0  0  0  0  0
    2.7692    2.9516   -0.1347 C   0  0  0  0  0  0  0  0  0  0  0  0
   -3.9364    0.7881   -0.0221 O   0  0  0  0  0  0  0  0  0  0  0  0
    3.1669    3.4660   -1.3756 C   0  0  0  0  0  0  0  0  0  0  0  0
    3.1367    3.6220    1.0380 C   0  0  0  0  0  0  0  0  0  0  0  0
    3.8956    4.6551   -1.4423 C   0  0  0  0  0  0  0  0  0  0  0  0
    3.8653    4.8108    0.9681 C   0  0  0  0  0  0  0  0  0  0  0  0
    4.2354    5.3317   -0.2714 C   0  0  0  0  0  0  0  0  0  0  0  0
   -1.9391    2.4187   -0.0142 H   0  0  0  0  0  0  0  0  0  0  0  0
   -3.0613   -1.7232   -0.0313 H   0  0  0  0  0  0  0  0  0  0  0  0
   -1.4166   -3.2019   -0.0110 H   0  0  0  0  0  0  0  0  0  0  0  0
    4.3139    1.0581   -0.0188 H   0  0  0  0  0  0  0  0  0  0  0  0
   -4.5167    0.0091   -0.0404 H   0  0  0  0  0  0  0  0  0  0  0  0
    2.8948    2.9562   -2.2977 H   0  0  0  0  0  0  0  0  0  0  0  0
    2.8417    3.2336    2.0106 H   0  0  0  0  0  0  0  0  0  0  0  0
    4.1856    5.0619   -2.4081 H   0  0  0  0  0  0  0  0  0  0  0  0
    4.1311    5.3396    1.8802 H   0  0  0  0  0  0  0  0  0  0  0  0
    4.7825    6.2698   -0.3253 H   0  0  0  0  0  0  0  0  0  0  0  0
  1  2  2  0  0  0  0
  1  3  1  0  0  0  0
  1  4  1  0  0  0  0
  2  5  1  0  0  0  0
  2  6  1  0  0  0  0
  3  7  1  0  0  0  0
  3  8  2  0  0  0  0
  4  9  2  0  0  0  0
  4 10  1  0  0  0  0
  5 11  1  0  0  0  0
  6 12  2  0  0  0  0
  6 21  1  0  0  0  0
  7 13  1  0  0  0  0
  7 11  2  0  0  0  0
  9 12  1  0  0  0  0
  9 22  1  0  0  0  0
 10 23  1  0  0  0  0
 11 14  1  0  0  0  0
 12 15  1  0  0  0  0
 13 24  1  0  0  0  0
 14 16  2  0  0  0  0
 14 17  1  0  0  0  0
 15 25  1  0  0  0  0
 16 18  1  0  0  0  0
 16 26  1  0  0  0  0
 17 19  2  0  0  0  0
 17 27  1  0  0  0  0
 18 20  2  0  0  0  0
 18 28  1  0  0  0  0
 19 20  1  0  0  0  0
 19 29  1  0  0  0  0
 20 30  1  0  0  0  0
M  END
>  <Mol_ID>
3051

>  <Formula>
C15H10O5

>  <MolWeight>
270.2369

>  <Cat>
S5529

>  <Name>
Galangin

>  <Synonyms>
3,5,7-trihydroxyflavone; Norizalpinin

>  <Target>
P450 (e.g. CYP17)

>  <Form>
free base

>  <CAS>
548-83-4

>  <URL>
http://selleckchem.com/products/galangin.html

$$$$
