S5528 Acetophenone.cdx
 OpenBabel08302520013D

 17 17  0  0  0  0  0  0  0  0999 V2000
    1.3908   -0.2168    0.0581 C   0  0  0  0  0  0  0  0  0  0  0  0
    0.5052   -1.3018    0.0539 C   0  0  0  0  0  0  0  0  0  0  0  0
    0.8859    1.0882    0.0289 C   0  0  0  0  0  0  0  0  0  0  0  0
    2.8511   -0.5060    0.1096 C   0  0  0  0  0  0  0  0  0  0  0  0
   -0.8721   -1.0867   -0.0016 C   0  0  0  0  0  0  0  0  0  0  0  0
   -0.4949    1.2993   -0.0237 C   0  0  0  0  0  0  0  0  0  0  0  0
    3.8271    0.4855   -0.4697 C   0  0  0  0  0  0  0  0  0  0  0  0
    3.2439   -1.5586    0.6081 O   0  0  0  0  0  0  0  0  0  0  0  0
   -1.3708    0.2141   -0.0419 C   0  0  0  0  0  0  0  0  0  0  0  0
    0.8878   -2.3203    0.0899 H   0  0  0  0  0  0  0  0  0  0  0  0
    1.5432    1.9520    0.0666 H   0  0  0  0  0  0  0  0  0  0  0  0
   -1.5536   -1.9341   -0.0094 H   0  0  0  0  0  0  0  0  0  0  0  0
   -0.8906    2.3122   -0.0423 H   0  0  0  0  0  0  0  0  0  0  0  0
    4.3766    0.9722    0.3401 H   0  0  0  0  0  0  0  0  0  0  0  0
    4.5254   -0.0562   -1.1152 H   0  0  0  0  0  0  0  0  0  0  0  0
    3.3408    1.2415   -1.0885 H   0  0  0  0  0  0  0  0  0  0  0  0
   -2.4451    0.3815   -0.0812 H   0  0  0  0  0  0  0  0  0  0  0  0
  1  2  2  0  0  0  0
  1  3  1  0  0  0  0
  1  4  1  0  0  0  0
  2  5  1  0  0  0  0
  2 10  1  0  0  0  0
  3  6  2  0  0  0  0
  3 11  1  0  0  0  0
  4  7  1  0  0  0  0
  4  8  2  0  0  0  0
  5  9  2  0  0  0  0
  5 12  1  0  0  0  0
  6  9  1  0  0  0  0
  6 13  1  0  0  0  0
  7 14  1  0  0  0  0
  7 15  1  0  0  0  0
  7 16  1  0  0  0  0
  9 17  1  0  0  0  0
M  END
>  <Mol_ID>
3050

>  <Formula>
C8H8O

>  <MolWeight>
120.14852

>  <Cat>
S5528

>  <Name>
Acetophenone

>  <Synonyms>
Methyl phenyl ketone, Phenylethanone

>  <Target>
Others

>  <Form>
free base

>  <CAS>
98-86-2

>  <URL>
http://selleckchem.com/products/acetophenone.html

$$$$
