S5527 Salmeterol.cdx
 OpenBabel08302520013D

 67 68  0  0  0  0  0  0  0  0999 V2000
   -8.5797    2.2113    1.5947 C   0  0  0  0  0  0  0  0  0  0  0  0
   -7.9247    1.0152    1.9264 C   0  0  0  0  0  0  0  0  0  0  0  0
   -9.6632    2.1358    0.6990 C   0  0  0  0  0  0  0  0  0  0  0  0
   -8.2214    3.5577    2.2194 C   0  0  3  0  0  0  0  0  0  0  0  0
   -8.2688   -0.2194    1.3107 C   0  0  0  0  0  0  0  0  0  0  0  0
  -10.0205    0.9349    0.0887 C   0  0  0  0  0  0  0  0  0  0  0  0
   -6.7692    3.8076    2.7503 C   0  0  0  0  0  0  0  0  0  0  0  0
   -8.5072    4.5992    1.2743 O   0  0  0  0  0  0  0  0  0  0  0  0
   -9.3043   -0.2203    0.3677 C   0  0  0  0  0  0  0  0  0  0  0  0
   -7.5257   -1.4604    1.7344 C   0  0  0  0  0  0  0  0  0  0  0  0
   -5.7424    3.7750    1.6903 N   0  0  0  0  0  0  0  0  0  0  0  0
   -9.6606   -1.3371   -0.3344 O   0  0  0  0  0  0  0  0  0  0  0  0
   -8.0043   -2.6350    1.0770 O   0  0  0  0  0  0  0  0  0  0  0  0
   -4.4157    4.2728    2.1031 C   0  0  0  0  0  0  0  0  0  0  0  0
   -3.7118    3.4512    3.1940 C   0  0  0  0  0  0  0  0  0  0  0  0
   -2.2221    3.7978    3.4177 C   0  0  0  0  0  0  0  0  0  0  0  0
   -1.8650    5.2087    3.9338 C   0  0  0  0  0  0  0  0  0  0  0  0
   -2.5133    5.5435    5.2840 C   0  0  0  0  0  0  0  0  0  0  0  0
   -1.9976    6.8188    5.9736 C   0  0  0  0  0  0  0  0  0  0  0  0
   -2.1354    8.0540    5.2813 O   0  0  0  0  0  0  0  0  0  0  0  0
   -3.4293    8.4496    4.8441 C   0  0  0  0  0  0  0  0  0  0  0  0
   -4.5283    8.5835    5.9080 C   0  0  0  0  0  0  0  0  0  0  0  0
   -4.2983    9.5468    7.0886 C   0  0  0  0  0  0  0  0  0  0  0  0
   -4.2115   11.0308    6.7034 C   0  0  0  0  0  0  0  0  0  0  0  0
   -4.0872   12.0237    7.8507 C   0  0  0  0  0  0  0  0  0  0  0  0
   -3.1677   11.8339    8.8923 C   0  0  0  0  0  0  0  0  0  0  0  0
   -4.7778   13.2480    7.7963 C   0  0  0  0  0  0  0  0  0  0  0  0
   -2.8835   12.8637    9.7969 C   0  0  0  0  0  0  0  0  0  0  0  0
   -4.4969   14.2750    8.7023 C   0  0  0  0  0  0  0  0  0  0  0  0
   -3.5264   14.0942    9.6856 C   0  0  0  0  0  0  0  0  0  0  0  0
   -7.1382    1.0126    2.6731 H   0  0  0  0  0  0  0  0  0  0  0  0
  -10.2338    3.0313    0.4533 H   0  0  0  0  0  0  0  0  0  0  0  0
   -8.9110    3.7049    3.0599 H   0  0  0  0  0  0  0  0  0  0  0  0
  -10.8439    0.9032   -0.6204 H   0  0  0  0  0  0  0  0  0  0  0  0
   -6.7640    4.8179    3.1808 H   0  0  0  0  0  0  0  0  0  0  0  0
   -6.5322    3.0977    3.5476 H   0  0  0  0  0  0  0  0  0  0  0  0
   -7.6778    4.6991    0.7665 H   0  0  0  0  0  0  0  0  0  0  0  0
   -6.4668   -1.3510    1.4813 H   0  0  0  0  0  0  0  0  0  0  0  0
   -7.6193   -1.6177    2.8162 H   0  0  0  0  0  0  0  0  0  0  0  0
   -5.6613    2.8243    1.3253 H   0  0  0  0  0  0  0  0  0  0  0  0
   -8.9445   -1.9940   -0.2047 H   0  0  0  0  0  0  0  0  0  0  0  0
   -8.7353   -2.9750    1.6293 H   0  0  0  0  0  0  0  0  0  0  0  0
   -3.7875    4.2674    1.2041 H   0  0  0  0  0  0  0  0  0  0  0  0
   -4.4969    5.3204    2.4125 H   0  0  0  0  0  0  0  0  0  0  0  0
   -4.2508    3.5393    4.1427 H   0  0  0  0  0  0  0  0  0  0  0  0
   -3.7540    2.3906    2.9105 H   0  0  0  0  0  0  0  0  0  0  0  0
   -1.8183    3.0654    4.1333 H   0  0  0  0  0  0  0  0  0  0  0  0
   -1.6784    3.6282    2.4775 H   0  0  0  0  0  0  0  0  0  0  0  0
   -0.7712    5.2458    4.0471 H   0  0  0  0  0  0  0  0  0  0  0  0
   -2.1231    5.9620    3.1837 H   0  0  0  0  0  0  0  0  0  0  0  0
   -3.5901    5.6215    5.1518 H   0  0  0  0  0  0  0  0  0  0  0  0
   -2.3211    4.7103    5.9715 H   0  0  0  0  0  0  0  0  0  0  0  0
   -2.4736    6.9160    6.9552 H   0  0  0  0  0  0  0  0  0  0  0  0
   -0.9249    6.6992    6.1716 H   0  0  0  0  0  0  0  0  0  0  0  0
   -3.3035    9.4135    4.3378 H   0  0  0  0  0  0  0  0  0  0  0  0
   -3.7590    7.7486    4.0690 H   0  0  0  0  0  0  0  0  0  0  0  0
   -5.4524    8.8792    5.3940 H   0  0  0  0  0  0  0  0  0  0  0  0
   -4.7184    7.5911    6.3322 H   0  0  0  0  0  0  0  0  0  0  0  0
   -5.1488    9.4270    7.7741 H   0  0  0  0  0  0  0  0  0  0  0  0
   -3.4083    9.2330    7.6423 H   0  0  0  0  0  0  0  0  0  0  0  0
   -3.3386   11.1893    6.0590 H   0  0  0  0  0  0  0  0  0  0  0  0
   -5.0952   11.2896    6.1063 H   0  0  0  0  0  0  0  0  0  0  0  0
   -2.6252   10.8978    8.9890 H   0  0  0  0  0  0  0  0  0  0  0  0
   -5.5191   13.4299    7.0214 H   0  0  0  0  0  0  0  0  0  0  0  0
   -2.1351   12.7129   10.5715 H   0  0  0  0  0  0  0  0  0  0  0  0
   -5.0100   15.2313    8.6230 H   0  0  0  0  0  0  0  0  0  0  0  0
   -3.2635   14.9105   10.3544 H   0  0  0  0  0  0  0  0  0  0  0  0
  1  2  2  0  0  0  0
  1  3  1  0  0  0  0
  1  4  1  0  0  0  0
  2  5  1  0  0  0  0
  2 31  1  0  0  0  0
  3  6  2  0  0  0  0
  3 32  1  0  0  0  0
  4  7  1  0  0  0  0
  4  8  1  0  0  0  0
  4 33  1  0  0  0  0
  5  9  2  0  0  0  0
  5 10  1  0  0  0  0
  6  9  1  0  0  0  0
  6 34  1  0  0  0  0
  7 11  1  0  0  0  0
  7 35  1  0  0  0  0
  7 36  1  0  0  0  0
  8 37  1  0  0  0  0
  9 12  1  0  0  0  0
 10 13  1  0  0  0  0
 10 38  1  0  0  0  0
 10 39  1  0  0  0  0
 11 14  1  0  0  0  0
 11 40  1  0  0  0  0
 12 41  1  0  0  0  0
 13 42  1  0  0  0  0
 14 15  1  0  0  0  0
 14 43  1  0  0  0  0
 14 44  1  0  0  0  0
 15 16  1  0  0  0  0
 15 45  1  0  0  0  0
 15 46  1  0  0  0  0
 16 17  1  0  0  0  0
 16 47  1  0  0  0  0
 16 48  1  0  0  0  0
 17 18  1  0  0  0  0
 17 49  1  0  0  0  0
 17 50  1  0  0  0  0
 18 19  1  0  0  0  0
 18 51  1  0  0  0  0
 18 52  1  0  0  0  0
 19 20  1  0  0  0  0
 19 53  1  0  0  0  0
 19 54  1  0  0  0  0
 20 21  1  0  0  0  0
 21 22  1  0  0  0  0
 21 55  1  0  0  0  0
 21 56  1  0  0  0  0
 22 23  1  0  0  0  0
 22 57  1  0  0  0  0
 22 58  1  0  0  0  0
 23 24  1  0  0  0  0
 23 59  1  0  0  0  0
 23 60  1  0  0  0  0
 24 25  1  0  0  0  0
 24 61  1  0  0  0  0
 24 62  1  0  0  0  0
 25 26  2  0  0  0  0
 25 27  1  0  0  0  0
 26 28  1  0  0  0  0
 26 63  1  0  0  0  0
 27 29  2  0  0  0  0
 27 64  1  0  0  0  0
 28 30  2  0  0  0  0
 28 65  1  0  0  0  0
 29 30  1  0  0  0  0
 29 66  1  0  0  0  0
 30 67  1  0  0  0  0
M  END
>  <Mol_ID>
3049

>  <Formula>
C25H37NO4

>  <MolWeight>
415.56558

>  <Cat>
S5527

>  <Name>
Salmeterol

>  <Synonyms>
Astmerole, GR-33343X, SN408D

>  <Target>
Adrenergic Receptor

>  <Form>
free base

>  <CAS>
89365-50-4

>  <URL>
http://selleckchem.com/products/salmeterol.html

$$$$
