S5522 S-Trityl-L-cysteine.cdx
 OpenBabel08302520013D

 47 49  0  0  0  0  0  0  0  0999 V2000
   -2.8665    2.3913   -5.5943 C   0  0  0  0  0  0  0  0  0  0  0  0
   -1.3781    0.4759   -5.9091 N   0  0  0  0  0  0  0  0  0  0  0  0
   -1.9667    1.3681   -4.8780 C   0  0  1  0  0  0  0  0  0  0  0  0
   -0.8928    2.0813   -4.0206 C   0  0  0  0  0  0  0  0  0  0  0  0
    0.1607    0.9427   -3.0432 S   0  0  0  0  0  0  0  0  0  0  0  0
   -3.5376    2.1754   -6.5960 O   0  0  0  0  0  0  0  0  0  0  0  0
   -2.9485    3.5942   -4.9892 O   0  0  0  0  0  0  0  0  0  0  0  0
    1.3270    2.2148   -1.9947 C   0  0  0  0  0  0  0  0  0  0  0  0
   -1.0360    4.3510    1.0654 C   0  0  0  0  0  0  0  0  0  0  0  0
    4.2965   -0.1878    0.2649 C   0  0  0  0  0  0  0  0  0  0  0  0
    3.2732    4.6384   -5.1233 C   0  0  0  0  0  0  0  0  0  0  0  0
   -1.4255    3.0877    0.6379 C   0  0  0  0  0  0  0  0  0  0  0  0
   -0.6999    2.4191   -0.3574 C   0  0  0  0  0  0  0  0  0  0  0  0
    0.4227    3.0063   -0.9751 C   0  0  0  0  0  0  0  0  0  0  0  0
    0.7990    4.2877   -0.5035 C   0  0  0  0  0  0  0  0  0  0  0  0
    0.0799    4.9532    0.4964 C   0  0  0  0  0  0  0  0  0  0  0  0
    3.7599   -0.6767   -0.9192 C   0  0  0  0  0  0  0  0  0  0  0  0
    2.8132    0.0728   -1.6303 C   0  0  0  0  0  0  0  0  0  0  0  0
    2.3667    1.3333   -1.1790 C   0  0  0  0  0  0  0  0  0  0  0  0
    2.9661    1.8161    0.0076 C   0  0  0  0  0  0  0  0  0  0  0  0
    3.9036    1.0603    0.7248 C   0  0  0  0  0  0  0  0  0  0  0  0
    2.0709    5.0543   -4.5654 C   0  0  0  0  0  0  0  0  0  0  0  0
    1.4582    4.2909   -3.5649 C   0  0  0  0  0  0  0  0  0  0  0  0
    2.0365    3.0974   -3.0785 C   0  0  0  0  0  0  0  0  0  0  0  0
    3.2528    2.7034   -3.6732 C   0  0  0  0  0  0  0  0  0  0  0  0
    3.8626    3.4617   -4.6792 C   0  0  0  0  0  0  0  0  0  0  0  0
   -0.9821   -0.3429   -5.4478 H   0  0  0  0  0  0  0  0  0  0  0  0
   -2.1288    0.1420   -6.5169 H   0  0  0  0  0  0  0  0  0  0  0  0
   -2.6288    0.7738   -4.2370 H   0  0  0  0  0  0  0  0  0  0  0  0
   -0.2614    2.6665   -4.6918 H   0  0  0  0  0  0  0  0  0  0  0  0
   -1.3817    2.7561   -3.3132 H   0  0  0  0  0  0  0  0  0  0  0  0
   -3.5435    4.1054   -5.5770 H   0  0  0  0  0  0  0  0  0  0  0  0
   -1.5837    4.8560    1.8584 H   0  0  0  0  0  0  0  0  0  0  0  0
    5.0254   -0.7729    0.8188 H   0  0  0  0  0  0  0  0  0  0  0  0
    3.7441    5.2219   -5.9098 H   0  0  0  0  0  0  0  0  0  0  0  0
   -2.2846    2.6048    1.0957 H   0  0  0  0  0  0  0  0  0  0  0  0
   -1.0207    1.4122   -0.6155 H   0  0  0  0  0  0  0  0  0  0  0  0
    1.6982    4.7746   -0.8818 H   0  0  0  0  0  0  0  0  0  0  0  0
    0.4068    5.9284    0.8423 H   0  0  0  0  0  0  0  0  0  0  0  0
    4.0802   -1.6425   -1.3022 H   0  0  0  0  0  0  0  0  0  0  0  0
    2.4607   -0.3456   -2.5695 H   0  0  0  0  0  0  0  0  0  0  0  0
    2.7175    2.7922    0.4106 H   0  0  0  0  0  0  0  0  0  0  0  0
    4.3299    1.4595    1.6445 H   0  0  0  0  0  0  0  0  0  0  0  0
    1.5980    5.9679   -4.9158 H   0  0  0  0  0  0  0  0  0  0  0  0
    0.5000    4.6409   -3.1850 H   0  0  0  0  0  0  0  0  0  0  0  0
    3.7571    1.7883   -3.3770 H   0  0  0  0  0  0  0  0  0  0  0  0
    4.7963    3.1209   -5.1193 H   0  0  0  0  0  0  0  0  0  0  0  0
  1  3  1  0  0  0  0
  1  6  2  0  0  0  0
  1  7  1  0  0  0  0
  2 27  1  0  0  0  0
  2 28  1  0  0  0  0
  3  2  1  0  0  0  0
  3  4  1  0  0  0  0
  3 29  1  1  0  0  0
  4  5  1  0  0  0  0
  4 30  1  0  0  0  0
  4 31  1  0  0  0  0
  5  8  1  0  0  0  0
  7 32  1  0  0  0  0
  8 14  1  0  0  0  0
  8 19  1  0  0  0  0
  8 24  1  0  0  0  0
  9 12  2  0  0  0  0
  9 16  1  0  0  0  0
  9 33  1  0  0  0  0
 10 17  2  0  0  0  0
 10 21  1  0  0  0  0
 10 34  1  0  0  0  0
 11 22  2  0  0  0  0
 11 26  1  0  0  0  0
 11 35  1  0  0  0  0
 12 13  1  0  0  0  0
 12 36  1  0  0  0  0
 13 14  2  0  0  0  0
 13 37  1  0  0  0  0
 14 15  1  0  0  0  0
 15 16  2  0  0  0  0
 15 38  1  0  0  0  0
 16 39  1  0  0  0  0
 17 18  1  0  0  0  0
 17 40  1  0  0  0  0
 18 19  2  0  0  0  0
 18 41  1  0  0  0  0
 19 20  1  0  0  0  0
 20 21  2  0  0  0  0
 20 42  1  0  0  0  0
 21 43  1  0  0  0  0
 22 23  1  0  0  0  0
 22 44  1  0  0  0  0
 23 24  2  0  0  0  0
 23 45  1  0  0  0  0
 24 25  1  0  0  0  0
 25 26  2  0  0  0  0
 25 46  1  0  0  0  0
 26 47  1  0  0  0  0
M  END
>  <Mol_ID>
3047

>  <Formula>
C22H21NO2S

>  <MolWeight>
363.47264

>  <Cat>
S5522

>  <Name>
H-Cys(Trt)-OH

>  <Synonyms>
L-Cys(Trt)-OH, H-L-Cys(Trt)-OH, S-Tritylcysteine

>  <Target>
Kinesin

>  <Form>
free base

>  <CAS>
2799-07-7

>  <URL>
http://selleckchem.com/products/h-cys-trt-oh.html

$$$$
