S5538 Tropisetron.cdx
 OpenBabel08302520013D

 41 44  0  0  0  0  0  0  0  0999 V2000
   -0.6185   -4.0007   -0.0163 C   0  0  0  0  0  0  0  0  0  0  0  0
   -2.0016   -3.7323   -0.5043 C   0  0  0  0  0  0  0  0  0  0  0  0
   -2.7932   -2.9829    0.3190 O   0  0  0  0  0  0  0  0  0  0  0  0
   -4.1772   -2.5974   -0.0392 C   0  0  2  0  0  0  0  0  0  0  0  0
   -4.4241   -1.7984   -1.3587 C   0  0  0  0  0  0  0  0  0  0  0  0
   -3.9691   -0.3207   -1.2758 C   0  0  1  0  0  0  0  0  0  0  0  0
   -4.7737    0.2577   -0.1913 N   0  0  0  0  0  0  0  0  0  0  0  0
   -5.0150    1.6898   -0.2284 C   0  0  0  0  0  0  0  0  0  0  0  0
   -4.1325   -0.2586    1.0224 C   0  0  1  0  0  0  0  0  0  0  0  0
   -4.6707   -1.7088    1.1292 C   0  0  0  0  0  0  0  0  0  0  0  0
   -2.6278   -0.1797    0.7235 C   0  0  0  0  0  0  0  0  0  0  0  0
   -2.5210   -0.2438   -0.8028 C   0  0  0  0  0  0  0  0  0  0  0  0
   -2.3896   -4.1266   -1.6016 O   0  0  0  0  0  0  0  0  0  0  0  0
    0.3630   -4.5070   -0.8686 C   0  0  0  0  0  0  0  0  0  0  0  0
    1.5413   -4.6553   -0.1997 N   0  0  0  0  0  0  0  0  0  0  0  0
    1.3825   -4.3264    1.1255 C   0  0  0  0  0  0  0  0  0  0  0  0
    0.0425   -3.8842    1.2764 C   0  0  0  0  0  0  0  0  0  0  0  0
   -0.3428   -3.4805    2.5772 C   0  0  0  0  0  0  0  0  0  0  0  0
    0.5770   -3.5667    3.6442 C   0  0  0  0  0  0  0  0  0  0  0  0
    1.8751   -4.0250    3.4496 C   0  0  0  0  0  0  0  0  0  0  0  0
    2.3030   -4.3980    2.1783 C   0  0  0  0  0  0  0  0  0  0  0  0
   -4.7679   -3.5214   -0.0662 H   0  0  0  0  0  0  0  0  0  0  0  0
   -5.5131   -1.7806   -1.5422 H   0  0  0  0  0  0  0  0  0  0  0  0
   -3.9803   -2.2820   -2.2319 H   0  0  0  0  0  0  0  0  0  0  0  0
   -4.1270    0.1780   -2.2394 H   0  0  0  0  0  0  0  0  0  0  0  0
   -6.1017    1.8372   -0.2910 H   0  0  0  0  0  0  0  0  0  0  0  0
   -4.6884    2.2182    0.6744 H   0  0  0  0  0  0  0  0  0  0  0  0
   -4.5821    2.1940   -1.0982 H   0  0  0  0  0  0  0  0  0  0  0  0
   -4.3995    0.2959    1.9284 H   0  0  0  0  0  0  0  0  0  0  0  0
   -5.7713   -1.6674    1.1089 H   0  0  0  0  0  0  0  0  0  0  0  0
   -4.3838   -2.1432    2.0911 H   0  0  0  0  0  0  0  0  0  0  0  0
   -2.2004    0.7662    1.0689 H   0  0  0  0  0  0  0  0  0  0  0  0
   -2.0590   -0.9721    1.2196 H   0  0  0  0  0  0  0  0  0  0  0  0
   -1.9383   -1.1034   -1.1514 H   0  0  0  0  0  0  0  0  0  0  0  0
   -2.0141    0.6480   -1.1812 H   0  0  0  0  0  0  0  0  0  0  0  0
    0.3154   -4.7835   -1.9115 H   0  0  0  0  0  0  0  0  0  0  0  0
    2.4203   -4.9946   -0.5874 H   0  0  0  0  0  0  0  0  0  0  0  0
   -1.3515   -3.1240    2.7621 H   0  0  0  0  0  0  0  0  0  0  0  0
    0.2609   -3.2799    4.6486 H   0  0  0  0  0  0  0  0  0  0  0  0
    2.5545   -4.0972    4.2946 H   0  0  0  0  0  0  0  0  0  0  0  0
    3.3189   -4.7505    2.0258 H   0  0  0  0  0  0  0  0  0  0  0  0
  2  1  1  0  0  0  0
  3  2  1  0  0  0  0
  4  3  1  0  0  0  0
  4 22  1  6  0  0  0
  5  4  1  0  0  0  0
  5 23  1  0  0  0  0
  5 24  1  0  0  0  0
  6  5  1  0  0  0  0
  6  7  1  0  0  0  0
  6 25  1  6  0  0  0
  8  7  1  0  0  0  0
  8 26  1  0  0  0  0
  8 27  1  0  0  0  0
  8 28  1  0  0  0  0
  9  7  1  0  0  0  0
  9 10  1  0  0  0  0
  9 29  1  1  0  0  0
 10  4  1  0  0  0  0
 10 30  1  0  0  0  0
 10 31  1  0  0  0  0
 11  9  1  0  0  0  0
 11 12  1  0  0  0  0
 11 32  1  0  0  0  0
 11 33  1  0  0  0  0
 12  6  1  0  0  0  0
 12 34  1  0  0  0  0
 12 35  1  0  0  0  0
 13  2  2  0  0  0  0
 14  1  2  0  0  0  0
 14 36  1  0  0  0  0
 15 14  1  0  0  0  0
 15 37  1  0  0  0  0
 16 15  1  0  0  0  0
 16 17  2  0  0  0  0
 17  1  1  0  0  0  0
 18 17  1  0  0  0  0
 18 38  1  0  0  0  0
 19 18  2  0  0  0  0
 19 39  1  0  0  0  0
 20 19  1  0  0  0  0
 20 21  2  0  0  0  0
 20 40  1  0  0  0  0
 21 16  1  0  0  0  0
 21 41  1  0  0  0  0
M  END
>  <Mol_ID>
3053

>  <Formula>
C17H20N2O2

>  <MolWeight>
284.3529

>  <Cat>
S5538

>  <Name>
Tropisetron

>  <Synonyms>
ICS 205-930

>  <Target>
5-HT Receptor,AChR

>  <Form>
free base

>  <CAS>
89565-68-4

>  <URL>
http://selleckchem.com/products/tropisetron.html

$$$$
