S5535 Moxifloxacin.cdx
 OpenBabel08302520143D

 53 57  0  0  0  0  0  0  0  0999 V2000
    2.4631   -0.5397   -0.0525 C   0  0  0  0  0  0  0  0  0  0  0  0
    2.5531    0.8760    0.0337 C   0  0  0  0  0  0  0  0  0  0  0  0
    1.2879    1.5541    0.1211 C   0  0  0  0  0  0  0  0  0  0  0  0
    1.2727   -1.2522   -0.0702 C   0  0  0  0  0  0  0  0  0  0  0  0
    0.0724   -0.5725   -0.0036 C   0  0  0  0  0  0  0  0  0  0  0  0
    0.0281    0.8323    0.0750 C   0  0  0  0  0  0  0  0  0  0  0  0
   -1.2764    1.4464    0.0932 N   0  0  0  0  0  0  0  0  0  0  0  0
   -2.4131    0.6599    0.1940 C   0  0  0  0  0  0  0  0  0  0  0  0
   -2.4609   -0.6830    0.1734 C   0  0  0  0  0  0  0  0  0  0  0  0
   -1.1709   -1.3851    0.0239 C   0  0  0  0  0  0  0  0  0  0  0  0
   -1.4590    2.8078   -0.4643 C   0  0  0  0  0  0  0  0  0  0  0  0
   -1.2853    2.9839   -1.9586 C   0  0  0  0  0  0  0  0  0  0  0  0
   -2.6016    3.2929   -1.3244 C   0  0  0  0  0  0  0  0  0  0  0  0
   -3.7602   -1.3734    0.2136 C   0  0  0  0  0  0  0  0  0  0  0  0
   -3.6949   -2.7220    0.1239 O   0  0  0  0  0  0  0  0  0  0  0  0
   -4.8319   -0.7870    0.3129 O   0  0  0  0  0  0  0  0  0  0  0  0
   -1.1452   -2.6146   -0.0618 O   0  0  0  0  0  0  0  0  0  0  0  0
    3.5560   -1.3180   -0.0313 F   0  0  0  0  0  0  0  0  0  0  0  0
    3.8004    1.5188    0.0157 N   0  0  0  0  0  0  0  0  0  0  0  0
    5.0177    0.8595   -0.5299 C   0  0  0  0  0  0  0  0  0  0  0  0
    4.2186    2.4441    1.0940 C   0  0  0  0  0  0  0  0  0  0  0  0
    5.7497    2.5701    0.9408 C   0  0  1  0  0  0  0  0  0  0  0  0
    6.1098    1.1493    0.5281 C   0  0  2  0  0  0  0  0  0  0  0  0
    7.5137    0.9949    0.1436 N   0  0  0  0  0  0  0  0  0  0  0  0
    7.8888    1.8872   -0.9506 C   0  0  0  0  0  0  0  0  0  0  0  0
    7.6058    3.3514   -0.6203 C   0  0  0  0  0  0  0  0  0  0  0  0
    6.1700    3.5885   -0.1422 C   0  0  0  0  0  0  0  0  0  0  0  0
    1.1692    2.8878    0.4557 O   0  0  0  0  0  0  0  0  0  0  0  0
    1.8470    3.8703   -0.3174 C   0  0  0  0  0  0  0  0  0  0  0  0
    1.3130   -2.3378   -0.1225 H   0  0  0  0  0  0  0  0  0  0  0  0
   -3.3399    1.2314    0.2598 H   0  0  0  0  0  0  0  0  0  0  0  0
   -1.0908    3.5695    0.2180 H   0  0  0  0  0  0  0  0  0  0  0  0
   -0.6563    3.7945   -2.2981 H   0  0  0  0  0  0  0  0  0  0  0  0
   -1.2371    2.0943   -2.5779 H   0  0  0  0  0  0  0  0  0  0  0  0
   -3.4378    2.6434   -1.5483 H   0  0  0  0  0  0  0  0  0  0  0  0
   -2.8782    4.3401   -1.2503 H   0  0  0  0  0  0  0  0  0  0  0  0
   -2.7771   -3.0771    0.0358 H   0  0  0  0  0  0  0  0  0  0  0  0
    4.9877   -0.2057   -0.7399 H   0  0  0  0  0  0  0  0  0  0  0  0
    5.2314    1.3338   -1.4936 H   0  0  0  0  0  0  0  0  0  0  0  0
    3.7989    3.4402    1.0184 H   0  0  0  0  0  0  0  0  0  0  0  0
    3.9604    2.0334    2.0765 H   0  0  0  0  0  0  0  0  0  0  0  0
    6.2140    2.8531    1.8928 H   0  0  0  0  0  0  0  0  0  0  0  0
    5.9334    0.4833    1.3857 H   0  0  0  0  0  0  0  0  0  0  0  0
    8.0949    1.2140    0.9552 H   0  0  0  0  0  0  0  0  0  0  0  0
    7.3771    1.5871   -1.8712 H   0  0  0  0  0  0  0  0  0  0  0  0
    8.9583    1.7581   -1.1497 H   0  0  0  0  0  0  0  0  0  0  0  0
    7.7993    3.9605   -1.5115 H   0  0  0  0  0  0  0  0  0  0  0  0
    8.3042    3.6902    0.1540 H   0  0  0  0  0  0  0  0  0  0  0  0
    5.4998    3.5393   -1.0097 H   0  0  0  0  0  0  0  0  0  0  0  0
    6.0758    4.6091    0.2465 H   0  0  0  0  0  0  0  0  0  0  0  0
    2.3079    4.5696    0.3898 H   0  0  0  0  0  0  0  0  0  0  0  0
    2.5968    3.4836   -1.0099 H   0  0  0  0  0  0  0  0  0  0  0  0
    1.1276    4.4712   -0.8780 H   0  0  0  0  0  0  0  0  0  0  0  0
  1  2  2  0  0  0  0
  1 18  1  0  0  0  0
  2  3  1  0  0  0  0
  2 19  1  0  0  0  0
  3 28  1  0  0  0  0
  3  6  2  0  0  0  0
  4  1  1  0  0  0  0
  4 30  1  0  0  0  0
  5  4  2  0  0  0  0
  5  6  1  0  0  0  0
  6  7  1  0  0  0  0
  7  8  1  0  0  0  0
  7 11  1  0  0  0  0
  8  9  2  0  0  0  0
  8 31  1  0  0  0  0
  9 14  1  0  0  0  0
  9 10  1  0  0  0  0
 10  5  1  0  0  0  0
 10 17  2  0  0  0  0
 11 13  1  0  0  0  0
 11 32  1  0  0  0  0
 12 11  1  0  0  0  0
 12 33  1  0  0  0  0
 12 34  1  0  0  0  0
 13 12  1  0  0  0  0
 13 35  1  0  0  0  0
 13 36  1  0  0  0  0
 14 15  1  0  0  0  0
 14 16  2  0  0  0  0
 15 37  1  0  0  0  0
 19 20  1  0  0  0  0
 20 38  1  0  0  0  0
 20 39  1  0  0  0  0
 21 19  1  0  0  0  0
 21 40  1  0  0  0  0
 21 41  1  0  0  0  0
 22 21  1  0  0  0  0
 22 23  1  0  0  0  0
 22 27  1  0  0  0  0
 22 42  1  1  0  0  0
 23 20  1  0  0  0  0
 23 24  1  0  0  0  0
 23 43  1  1  0  0  0
 24 25  1  0  0  0  0
 24 44  1  0  0  0  0
 25 26  1  0  0  0  0
 25 45  1  0  0  0  0
 25 46  1  0  0  0  0
 26 27  1  0  0  0  0
 26 47  1  0  0  0  0
 26 48  1  0  0  0  0
 27 49  1  0  0  0  0
 27 50  1  0  0  0  0
 28 29  1  0  0  0  0
 29 51  1  0  0  0  0
 29 52  1  0  0  0  0
 29 53  1  0  0  0  0
M  END
>  <Mol_ID>
3216

>  <Formula>
C21H24FN3O4

>  <MolWeight>
401.4313632

>  <Cat>
S5535

>  <Name>
Moxifloxacin

>  <Synonyms>
BAY12-8039

>  <Target>
Antibiotics,Bacterial

>  <Form>
free base

>  <CAS>
151096-09-2

>  <URL>
https://www.selleckchem.com/products/moxifloxacin.html

$$$$
