S5530 Geraniol.cdx
 OpenBabel08302520013D

 29 28  0  0  0  0  0  0  0  0999 V2000
    1.0501   -0.1101   -0.0319 C   0  0  0  0  0  0  0  0  0  0  0  0
    0.1973    0.4875    1.0780 C   0  0  0  0  0  0  0  0  0  0  0  0
    1.1201    0.3962   -1.2819 C   0  0  0  0  0  0  0  0  0  0  0  0
    1.8383   -1.3290    0.3771 C   0  0  0  0  0  0  0  0  0  0  0  0
   -0.6288    1.7353    0.7239 C   0  0  0  0  0  0  0  0  0  0  0  0
    1.9774   -0.0825   -2.4102 C   0  0  0  0  0  0  0  0  0  0  0  0
   -1.3776    2.2673    1.9169 C   0  0  0  0  0  0  0  0  0  0  0  0
    1.1289   -0.5124   -3.4633 O   0  0  0  0  0  0  0  0  0  0  0  0
   -1.3064    3.5205    2.4064 C   0  0  0  0  0  0  0  0  0  0  0  0
   -2.0994    3.9276    3.6175 C   0  0  0  0  0  0  0  0  0  0  0  0
   -0.4526    4.5993    1.7980 C   0  0  0  0  0  0  0  0  0  0  0  0
   -0.4858   -0.2924    1.4412 H   0  0  0  0  0  0  0  0  0  0  0  0
    0.8651    0.7366    1.9142 H   0  0  0  0  0  0  0  0  0  0  0  0
    0.5291    1.2684   -1.5485 H   0  0  0  0  0  0  0  0  0  0  0  0
    1.5592   -1.6687    1.3805 H   0  0  0  0  0  0  0  0  0  0  0  0
    1.6489   -2.1642   -0.3056 H   0  0  0  0  0  0  0  0  0  0  0  0
    2.9104   -1.1081    0.3902 H   0  0  0  0  0  0  0  0  0  0  0  0
    0.0329    2.5030    0.3091 H   0  0  0  0  0  0  0  0  0  0  0  0
   -1.3618    1.4846   -0.0525 H   0  0  0  0  0  0  0  0  0  0  0  0
    2.5912    0.7448   -2.7794 H   0  0  0  0  0  0  0  0  0  0  0  0
    2.6434   -0.9032   -2.1384 H   0  0  0  0  0  0  0  0  0  0  0  0
   -2.0395    1.5508    2.4019 H   0  0  0  0  0  0  0  0  0  0  0  0
    0.5148   -1.1594   -3.0754 H   0  0  0  0  0  0  0  0  0  0  0  0
   -1.4299    4.3027    4.3983 H   0  0  0  0  0  0  0  0  0  0  0  0
   -2.8108    4.7177    3.3567 H   0  0  0  0  0  0  0  0  0  0  0  0
   -2.6665    3.0919    4.0406 H   0  0  0  0  0  0  0  0  0  0  0  0
    0.6087    4.3415    1.8738 H   0  0  0  0  0  0  0  0  0  0  0  0
   -0.7127    4.7551    0.7458 H   0  0  0  0  0  0  0  0  0  0  0  0
   -0.5955    5.5568    2.3099 H   0  0  0  0  0  0  0  0  0  0  0  0
  1  2  1  0  0  0  0
  1  3  2  0  0  0  0
  1  4  1  0  0  0  0
  2  5  1  0  0  0  0
  2 12  1  0  0  0  0
  2 13  1  0  0  0  0
  3  6  1  0  0  0  0
  3 14  1  0  0  0  0
  4 15  1  0  0  0  0
  4 16  1  0  0  0  0
  4 17  1  0  0  0  0
  5  7  1  0  0  0  0
  5 18  1  0  0  0  0
  5 19  1  0  0  0  0
  6  8  1  0  0  0  0
  6 20  1  0  0  0  0
  6 21  1  0  0  0  0
  7  9  2  0  0  0  0
  7 22  1  0  0  0  0
  8 23  1  0  0  0  0
  9 10  1  0  0  0  0
  9 11  1  0  0  0  0
 10 24  1  0  0  0  0
 10 25  1  0  0  0  0
 10 26  1  0  0  0  0
 11 27  1  0  0  0  0
 11 28  1  0  0  0  0
 11 29  1  0  0  0  0
M  END
>  <Mol_ID>
3052

>  <Formula>
C10H18O

>  <MolWeight>
154.24932

>  <Cat>
S5530

>  <Name>
Geraniol

>  <Synonyms>
N/A

>  <Target>
Others

>  <Form>
free base

>  <CAS>
106-24-1

>  <URL>
http://selleckchem.com/products/geraniol.html

$$$$
