S5531 Doripenem.cdx
 OpenBabel08302520143D

 51 53  0  0  0  0  0  0  0  0999 V2000
   -0.3490   -0.7359   -0.6519 N   0  0  0  0  0  0  0  0  0  0  0  0
    0.3830    0.5299   -0.9274 C   0  0  1  0  0  0  0  0  0  0  0  0
    0.4852   -1.6140    0.0213 C   0  0  0  0  0  0  0  0  0  0  0  0
   -1.4303   -0.1213   -0.0950 C   0  0  0  0  0  0  0  0  0  0  0  0
   -0.9316    1.2786   -0.5136 C   0  0  2  0  0  0  0  0  0  0  0  0
    1.6719    0.4177   -0.0974 C   0  0  2  0  0  0  0  0  0  0  0  0
    1.7084   -1.0757    0.2071 C   0  0  0  0  0  0  0  0  0  0  0  0
    0.0141   -2.9725    0.4420 C   0  0  0  0  0  0  0  0  0  0  0  0
   -2.3276   -0.6145    0.5493 O   0  0  0  0  0  0  0  0  0  0  0  0
   -1.6933    1.9419   -1.6504 C   0  0  1  0  0  0  0  0  0  0  0  0
    1.5885    1.2878    1.1629 C   0  0  0  0  0  0  0  0  0  0  0  0
    3.1498   -1.7799    0.8355 S   0  0  0  0  0  0  0  0  0  0  0  0
   -1.3284   -3.1214    0.4562 O   0  0  0  0  0  0  0  0  0  0  0  0
    0.7526   -3.9001    0.7426 O   0  0  0  0  0  0  0  0  0  0  0  0
   -2.9505    2.6329   -1.1423 C   0  0  0  0  0  0  0  0  0  0  0  0
   -0.8311    2.9065   -2.2572 O   0  0  0  0  0  0  0  0  0  0  0  0
    3.5541   -3.1368   -0.3312 C   0  0  1  0  0  0  0  0  0  0  0  0
    3.9833   -2.7146   -1.7332 C   0  0  0  0  0  0  0  0  0  0  0  0
    4.7563   -3.9340    0.1737 C   0  0  0  0  0  0  0  0  0  0  0  0
    5.0551   -3.7339   -2.1562 C   0  0  2  0  0  0  0  0  0  0  0  0
    5.2808   -4.6450   -1.0060 N   0  0  0  0  0  0  0  0  0  0  0  0
    6.3724   -3.0568   -2.5995 C   0  0  0  0  0  0  0  0  0  0  0  0
    7.3708   -4.1099   -2.9184 N   0  0  0  0  0  0  0  0  0  0  0  0
    8.8707   -3.5837   -3.4006 S   0  0  0  0  0  0  0  0  0  0  0  0
    8.5057   -3.2175   -4.9835 N   0  0  0  0  0  0  0  0  0  0  0  0
    9.2093   -2.3530   -2.7379 O   0  0  0  0  0  0  0  0  0  0  0  0
    9.7506   -4.7208   -3.4511 O   0  0  0  0  0  0  0  0  0  0  0  0
    0.6148    0.5999   -1.9996 H   0  0  0  0  0  0  0  0  0  0  0  0
   -0.8161    1.9532    0.3414 H   0  0  0  0  0  0  0  0  0  0  0  0
    2.5338    0.7225   -0.7016 H   0  0  0  0  0  0  0  0  0  0  0  0
   -1.9574    1.2146   -2.4257 H   0  0  0  0  0  0  0  0  0  0  0  0
    2.4920    1.2094    1.7745 H   0  0  0  0  0  0  0  0  0  0  0  0
    1.4596    2.3430    0.8934 H   0  0  0  0  0  0  0  0  0  0  0  0
    0.7388    1.0096    1.7995 H   0  0  0  0  0  0  0  0  0  0  0  0
   -1.8443   -2.2880    0.4323 H   0  0  0  0  0  0  0  0  0  0  0  0
   -2.7043    3.4010   -0.3998 H   0  0  0  0  0  0  0  0  0  0  0  0
   -3.4638    3.1446   -1.9637 H   0  0  0  0  0  0  0  0  0  0  0  0
   -3.6415    1.9220   -0.6806 H   0  0  0  0  0  0  0  0  0  0  0  0
   -0.9106    3.7512   -1.7793 H   0  0  0  0  0  0  0  0  0  0  0  0
    2.7087   -3.8203   -0.4279 H   0  0  0  0  0  0  0  0  0  0  0  0
    3.1252   -2.7693   -2.4149 H   0  0  0  0  0  0  0  0  0  0  0  0
    4.3685   -1.6903   -1.7653 H   0  0  0  0  0  0  0  0  0  0  0  0
    5.5489   -3.2907    0.5732 H   0  0  0  0  0  0  0  0  0  0  0  0
    4.4719   -4.6478    0.9546 H   0  0  0  0  0  0  0  0  0  0  0  0
    4.6859   -4.3384   -2.9951 H   0  0  0  0  0  0  0  0  0  0  0  0
    4.7075   -5.4810   -1.1464 H   0  0  0  0  0  0  0  0  0  0  0  0
    6.1925   -2.4287   -3.4775 H   0  0  0  0  0  0  0  0  0  0  0  0
    6.7541   -2.4347   -1.7813 H   0  0  0  0  0  0  0  0  0  0  0  0
    7.4533   -4.7461   -2.1182 H   0  0  0  0  0  0  0  0  0  0  0  0
    9.2566   -2.6450   -5.3697 H   0  0  0  0  0  0  0  0  0  0  0  0
    8.4282   -4.0955   -5.4978 H   0  0  0  0  0  0  0  0  0  0  0  0
  1  3  1  0  0  0  0
  1  4  1  0  0  0  0
  2  1  1  0  0  0  0
  2  5  1  0  0  0  0
  2  6  1  0  0  0  0
  2 28  1  6  0  0  0
  3  7  2  0  0  0  0
  3  8  1  0  0  0  0
  4  9  2  0  0  0  0
  5  4  1  0  0  0  0
  5 29  1  1  0  0  0
  5 10  1  0  0  0  0
  6 11  1  0  0  0  0
  6  7  1  0  0  0  0
  6 30  1  6  0  0  0
  7 12  1  0  0  0  0
  8 13  1  0  0  0  0
  8 14  2  0  0  0  0
 10 15  1  0  0  0  0
 10 16  1  0  0  0  0
 10 31  1  6  0  0  0
 11 32  1  0  0  0  0
 11 33  1  0  0  0  0
 11 34  1  0  0  0  0
 13 35  1  0  0  0  0
 15 36  1  0  0  0  0
 15 37  1  0  0  0  0
 15 38  1  0  0  0  0
 16 39  1  0  0  0  0
 17 12  1  0  0  0  0
 17 18  1  0  0  0  0
 17 19  1  0  0  0  0
 17 40  1  6  0  0  0
 18 20  1  0  0  0  0
 18 41  1  0  0  0  0
 18 42  1  0  0  0  0
 19 21  1  0  0  0  0
 19 43  1  0  0  0  0
 19 44  1  0  0  0  0
 20 21  1  0  0  0  0
 20 45  1  6  0  0  0
 20 22  1  0  0  0  0
 21 46  1  0  0  0  0
 22 23  1  0  0  0  0
 22 47  1  0  0  0  0
 22 48  1  0  0  0  0
 23 24  1  0  0  0  0
 23 49  1  0  0  0  0
 24 25  1  0  0  0  0
 24 26  2  0  0  0  0
 24 27  2  0  0  0  0
 25 50  1  0  0  0  0
 25 51  1  0  0  0  0
M  END
>  <Mol_ID>
3208

>  <Formula>
C15H24N4O6S2

>  <MolWeight>
420.50426

>  <Cat>
S5531

>  <Name>
Doripenem

>  <Synonyms>
S 4661

>  <Target>
Antibiotics

>  <Form>
free base

>  <CAS>
148016-81-3

>  <URL>
https://www.selleckchem.com/products/doripenem.html

$$$$
