S5537 Tizanidine.cdx
 OpenBabel08302520143D

 24 26  0  0  0  0  0  0  0  0999 V2000
   -0.0577   -0.6581    0.0522 C   0  0  0  0  0  0  0  0  0  0  0  0
   -1.2181   -1.4951    0.0972 C   0  0  0  0  0  0  0  0  0  0  0  0
   -0.1795    0.8434   -0.0553 C   0  0  0  0  0  0  0  0  0  0  0  0
    1.2273   -1.0606    0.0998 N   0  0  0  0  0  0  0  0  0  0  0  0
   -1.2545   -2.9006    0.2423 N   0  0  0  0  0  0  0  0  0  0  0  0
   -2.4460   -0.7902    0.0134 C   0  0  0  0  0  0  0  0  0  0  0  0
   -1.4414    1.4730   -0.1059 C   0  0  0  0  0  0  0  0  0  0  0  0
    1.0050    1.4748   -0.0928 N   0  0  0  0  0  0  0  0  0  0  0  0
    2.1688    0.2973   -0.0244 S   0  0  0  0  0  0  0  0  0  0  0  0
   -0.3193   -3.6929    0.8224 C   0  0  0  0  0  0  0  0  0  0  0  0
   -2.5562    0.6201   -0.0691 C   0  0  0  0  0  0  0  0  0  0  0  0
    0.3877   -3.2181    1.8894 N   0  0  0  0  0  0  0  0  0  0  0  0
   -0.1000   -4.9316    0.4659 N   0  0  0  0  0  0  0  0  0  0  0  0
    1.4825   -4.1327    2.1122 C   0  0  0  0  0  0  0  0  0  0  0  0
    0.9571   -5.3874    1.4155 C   0  0  0  0  0  0  0  0  0  0  0  0
   -1.7522   -3.3705   -0.5042 H   0  0  0  0  0  0  0  0  0  0  0  0
   -3.3735   -1.3652    0.0526 H   0  0  0  0  0  0  0  0  0  0  0  0
   -1.5388    2.5504   -0.1617 H   0  0  0  0  0  0  0  0  0  0  0  0
   -3.5528    1.0623   -0.0978 H   0  0  0  0  0  0  0  0  0  0  0  0
    0.6763   -2.2514    1.7897 H   0  0  0  0  0  0  0  0  0  0  0  0
    1.6863   -4.2850    3.1740 H   0  0  0  0  0  0  0  0  0  0  0  0
    2.3865   -3.7601    1.6179 H   0  0  0  0  0  0  0  0  0  0  0  0
    1.7573   -5.9092    0.8818 H   0  0  0  0  0  0  0  0  0  0  0  0
    0.5080   -6.0779    2.1382 H   0  0  0  0  0  0  0  0  0  0  0  0
  1  2  1  0  0  0  0
  1  3  1  0  0  0  0
  1  4  2  0  0  0  0
  2  5  1  0  0  0  0
  2  6  2  0  0  0  0
  3  7  1  0  0  0  0
  3  8  2  0  0  0  0
  4  9  1  0  0  0  0
  5 10  1  0  0  0  0
  5 16  1  0  0  0  0
  6 11  1  0  0  0  0
  6 17  1  0  0  0  0
  7 11  2  0  0  0  0
  7 18  1  0  0  0  0
  8  9  1  0  0  0  0
 10 12  1  0  0  0  0
 10 13  2  0  0  0  0
 11 19  1  0  0  0  0
 12 14  1  0  0  0  0
 12 20  1  0  0  0  0
 13 15  1  0  0  0  0
 14 15  1  0  0  0  0
 14 21  1  0  0  0  0
 14 22  1  0  0  0  0
 15 23  1  0  0  0  0
 15 24  1  0  0  0  0
M  END
>  <Mol_ID>
3128

>  <Formula>
C9H8ClN5S

>  <MolWeight>
253.71132

>  <Cat>
S5537

>  <Name>
Tizanidine

>  <Synonyms>
N/A

>  <Target>
Adrenergic Receptor

>  <Form>
¦Á2-adrenergic agonists

>  <CAS>
51322-75-9

>  <URL>
http://selleckchem.com/products/tizanidine.html

$$$$
