S5549 DL-Arginine.cdx
 OpenBabel08302521383D

 26 25  0  0  0  0  0  0  0  0999 V2000
    1.2212   -2.4144   -0.6554 C   0  0  0  0  0  0  0  0  0  0  0  0
    1.1021   -0.1152    0.2277 N   0  0  0  0  0  0  0  0  0  0  0  0
    0.3008   -1.2158   -0.3810 C   0  0  3  0  0  0  0  0  0  0  0  0
   -0.4676   -0.7622   -1.6336 C   0  0  0  0  0  0  0  0  0  0  0  0
    0.3377   -0.1075   -2.7702 C   0  0  0  0  0  0  0  0  0  0  0  0
    1.3284   -1.0452   -3.4566 C   0  0  0  0  0  0  0  0  0  0  0  0
    2.0233   -0.3774   -4.5343 N   0  0  0  0  0  0  0  0  0  0  0  0
    1.6719   -0.2930   -5.8288 C   0  0  0  0  0  0  0  0  0  0  0  0
    2.3443    0.3762   -6.6957 N   0  0  0  0  0  0  0  0  0  0  0  0
    0.5701   -0.9497   -6.2265 N   0  0  0  0  0  0  0  0  0  0  0  0
    0.8586   -3.4987   -1.0801 O   0  0  0  0  0  0  0  0  0  0  0  0
    2.5248   -2.0980   -0.4271 O   0  0  0  0  0  0  0  0  0  0  0  0
    0.5049    0.7172    0.2735 H   0  0  0  0  0  0  0  0  0  0  0  0
    1.2553   -0.3512    1.2163 H   0  0  0  0  0  0  0  0  0  0  0  0
   -0.4207   -1.5488    0.3756 H   0  0  0  0  0  0  0  0  0  0  0  0
   -1.0206   -1.6165   -2.0448 H   0  0  0  0  0  0  0  0  0  0  0  0
   -1.2294   -0.0367   -1.3151 H   0  0  0  0  0  0  0  0  0  0  0  0
   -0.3804    0.2534   -3.5193 H   0  0  0  0  0  0  0  0  0  0  0  0
    0.8549    0.7859   -2.4005 H   0  0  0  0  0  0  0  0  0  0  0  0
    2.1025   -1.3520   -2.7545 H   0  0  0  0  0  0  0  0  0  0  0  0
    0.8301   -1.9593   -3.7952 H   0  0  0  0  0  0  0  0  0  0  0  0
    2.8016    0.1960   -4.2378 H   0  0  0  0  0  0  0  0  0  0  0  0
    3.1571    0.7968   -6.2372 H   0  0  0  0  0  0  0  0  0  0  0  0
    0.5289   -1.9049   -5.9007 H   0  0  0  0  0  0  0  0  0  0  0  0
    0.5190   -0.9225   -7.2402 H   0  0  0  0  0  0  0  0  0  0  0  0
    2.5368   -1.1374   -0.1879 H   0  0  0  0  0  0  0  0  0  0  0  0
  1  3  1  0  0  0  0
  1 11  2  0  0  0  0
  1 12  1  0  0  0  0
  2  3  1  0  0  0  0
  2 13  1  0  0  0  0
  2 14  1  0  0  0  0
  3  4  1  0  0  0  0
  3 15  1  0  0  0  0
  4  5  1  0  0  0  0
  4 16  1  0  0  0  0
  4 17  1  0  0  0  0
  5  6  1  0  0  0  0
  5 18  1  0  0  0  0
  5 19  1  0  0  0  0
  6  7  1  0  0  0  0
  6 20  1  0  0  0  0
  6 21  1  0  0  0  0
  7  8  1  0  0  0  0
  7 22  1  0  0  0  0
  8  9  2  0  0  0  0
  8 10  1  0  0  0  0
  9 23  1  0  0  0  0
 10 24  1  0  0  0  0
 10 25  1  0  0  0  0
 12 26  1  0  0  0  0
M  END
>  <Mol_ID>
7836

>  <Formula>
C6H14N4O2

>  <MolWeight>
174.20096

>  <Cat>
S5549

>  <Name>
DL-Arginine

>  <Synonyms>
N/A

>  <Target>
Others

>  <Form>
free base

>  <CAS>
7200-25-1

>  <URL>
http://selleckchem.com/products/dl-arginine.html

$$$$
