S5541 Dimetridazole.cdx
 OpenBabel08302520013D

 17 17  0  0  0  0  0  0  0  0999 V2000
    0.9194    1.2254   -0.0234 C   0  0  0  0  0  0  0  0  0  0  0  0
   -0.3725    0.7611   -0.0078 N   0  0  0  0  0  0  0  0  0  0  0  0
    1.7245    0.1131   -0.0096 C   0  0  0  0  0  0  0  0  0  0  0  0
    1.3504    2.5825   -0.0520 N   0  3  0  0  0  0  0  0  0  0  0  0
   -0.2898   -0.6267   -0.0072 C   0  0  0  0  0  0  0  0  0  0  0  0
   -1.6284    1.4735    0.0146 C   0  0  0  0  0  0  0  0  0  0  0  0
    0.9674   -1.0250    0.0000 N   0  0  0  0  0  0  0  0  0  0  0  0
    0.4956    3.4713   -0.0794 O   0  0  0  0  0  0  0  0  0  0  0  0
    2.5733    2.7693   -0.0515 O   0  5  0  0  0  0  0  0  0  0  0  0
   -1.4582   -1.5499   -0.0174 C   0  0  0  0  0  0  0  0  0  0  0  0
    2.8073    0.0690   -0.0104 H   0  0  0  0  0  0  0  0  0  0  0  0
   -2.2006    1.1855   -0.8718 H   0  0  0  0  0  0  0  0  0  0  0  0
   -2.1651    1.1867    0.9236 H   0  0  0  0  0  0  0  0  0  0  0  0
   -1.5067    2.5513    0.0132 H   0  0  0  0  0  0  0  0  0  0  0  0
   -1.4225   -2.1797   -0.9119 H   0  0  0  0  0  0  0  0  0  0  0  0
   -1.4233   -2.2023    0.8608 H   0  0  0  0  0  0  0  0  0  0  0  0
   -2.4198   -1.0318   -0.0117 H   0  0  0  0  0  0  0  0  0  0  0  0
  1  2  1  0  0  0  0
  1  3  2  0  0  0  0
  1  4  1  0  0  0  0
  2  5  1  0  0  0  0
  2  6  1  0  0  0  0
  3  7  1  0  0  0  0
  3 11  1  0  0  0  0
  4  8  2  0  0  0  0
  4  9  1  0  0  0  0
  5 10  1  0  0  0  0
  5  7  2  0  0  0  0
  6 12  1  0  0  0  0
  6 13  1  0  0  0  0
  6 14  1  0  0  0  0
 10 15  1  0  0  0  0
 10 16  1  0  0  0  0
 10 17  1  0  0  0  0
M  CHG  2   4   1   9  -1
M  END
>  <Mol_ID>
3054

>  <Formula>
C5H7N3O2

>  <MolWeight>
141.12798

>  <Cat>
S5541

>  <Name>
Dimetridazole

>  <Synonyms>
N/A

>  <Target>
Antineoplastic and Immunosuppressive Antibiotics,Fungal

>  <Form>
free base

>  <CAS>
551-92-8

>  <URL>
http://selleckchem.com/products/dimetridazole.html

$$$$
