S5545 DL-Serine.cdx
 OpenBabel08302521383D

 14 13  0  0  0  0  0  0  0  0999 V2000
    1.0027    0.0154   -0.1128 C   0  0  3  0  0  0  0  0  0  0  0  0
    0.4634   -0.4731   -1.4615 C   0  0  0  0  0  0  0  0  0  0  0  0
    0.5190   -0.9456    0.9826 C   0  0  0  0  0  0  0  0  0  0  0  0
    0.6178    1.4136    0.2038 N   0  0  0  0  0  0  0  0  0  0  0  0
   -0.3241    0.4229   -2.1024 O   0  0  0  0  0  0  0  0  0  0  0  0
    0.7064   -1.5719   -1.9313 O   0  0  0  0  0  0  0  0  0  0  0  0
    0.9594   -0.5399    2.2792 O   0  0  0  0  0  0  0  0  0  0  0  0
    2.0942    0.0040   -0.1699 H   0  0  0  0  0  0  0  0  0  0  0  0
   -0.5761   -1.0040    1.0040 H   0  0  0  0  0  0  0  0  0  0  0  0
    0.8998   -1.9558    0.8045 H   0  0  0  0  0  0  0  0  0  0  0  0
    0.9563    2.0962   -0.4710 H   0  0  0  0  0  0  0  0  0  0  0  0
   -0.3647    1.5214    0.4462 H   0  0  0  0  0  0  0  0  0  0  0  0
   -0.4302    1.2361   -1.5778 H   0  0  0  0  0  0  0  0  0  0  0  0
    1.5787    0.2026    2.1630 H   0  0  0  0  0  0  0  0  0  0  0  0
  1  2  1  0  0  0  0
  1  3  1  0  0  0  0
  1  4  1  0  0  0  0
  1  8  1  0  0  0  0
  2  5  1  0  0  0  0
  2  6  2  0  0  0  0
  3  7  1  0  0  0  0
  3  9  1  0  0  0  0
  3 10  1  0  0  0  0
  4 11  1  0  0  0  0
  4 12  1  0  0  0  0
  5 13  1  0  0  0  0
  7 14  1  0  0  0  0
M  END
>  <Mol_ID>
7835

>  <Formula>
C3H7NO3

>  <MolWeight>
105.09258

>  <Cat>
S5545

>  <Name>
DL-Serine

>  <Synonyms>
N/A

>  <Target>
PKM

>  <Form>
salt

>  <CAS>
302-84-1

>  <URL>
http://selleckchem.com/products/dl-serine.html

$$$$
