S5546 Sulfacetamide.cdx
 OpenBabel08302520303D

 24 24  0  0  0  0  0  0  0  0999 V2000
   -1.9210   -0.0168   -0.0259 C   0  0  0  0  0  0  0  0  0  0  0  0
   -3.6944   -0.0258    0.0453 S   0  0  0  0  0  0  0  0  0  0  0  0
   -1.2304    1.1968   -0.0586 C   0  0  0  0  0  0  0  0  0  0  0  0
   -1.2213   -1.2242   -0.0080 C   0  0  0  0  0  0  0  0  0  0  0  0
   -4.1459   -0.0811   -1.5530 N   0  0  0  0  0  0  0  0  0  0  0  0
   -4.1385   -1.2232    0.7205 O   0  0  0  0  0  0  0  0  0  0  0  0
   -4.1161    1.2829    0.5051 O   0  0  0  0  0  0  0  0  0  0  0  0
    0.1676    1.1932   -0.0889 C   0  0  0  0  0  0  0  0  0  0  0  0
    0.1754   -1.2138   -0.0476 C   0  0  0  0  0  0  0  0  0  0  0  0
   -3.8868   -1.1346   -2.4366 C   0  0  0  0  0  0  0  0  0  0  0  0
    0.8832   -0.0079   -0.0372 C   0  0  0  0  0  0  0  0  0  0  0  0
   -4.3614   -0.9073   -3.8451 C   0  0  0  0  0  0  0  0  0  0  0  0
   -3.3080   -2.1613   -2.1136 O   0  0  0  0  0  0  0  0  0  0  0  0
    2.2728   -0.0073   -0.2027 N   0  0  0  0  0  0  0  0  0  0  0  0
   -1.7632    2.1449   -0.0665 H   0  0  0  0  0  0  0  0  0  0  0  0
   -1.7522   -2.1745    0.0100 H   0  0  0  0  0  0  0  0  0  0  0  0
   -4.6249    0.7607   -1.8535 H   0  0  0  0  0  0  0  0  0  0  0  0
    0.6982    2.1406   -0.1477 H   0  0  0  0  0  0  0  0  0  0  0  0
    0.7068   -2.1617   -0.0823 H   0  0  0  0  0  0  0  0  0  0  0  0
   -3.5172   -1.0393   -4.5280 H   0  0  0  0  0  0  0  0  0  0  0  0
   -5.1414   -1.6348   -4.0838 H   0  0  0  0  0  0  0  0  0  0  0  0
   -4.7616    0.1009   -3.9787 H   0  0  0  0  0  0  0  0  0  0  0  0
    2.7254   -0.8481    0.1437 H   0  0  0  0  0  0  0  0  0  0  0  0
    2.7265    0.8362    0.1341 H   0  0  0  0  0  0  0  0  0  0  0  0
  1  2  1  0  0  0  0
  1  3  2  0  0  0  0
  1  4  1  0  0  0  0
  2  5  1  0  0  0  0
  2  6  2  0  0  0  0
  2  7  2  0  0  0  0
  3  8  1  0  0  0  0
  3 15  1  0  0  0  0
  4  9  2  0  0  0  0
  4 16  1  0  0  0  0
  5 10  1  0  0  0  0
  5 17  1  0  0  0  0
  8 11  2  0  0  0  0
  8 18  1  0  0  0  0
  9 11  1  0  0  0  0
  9 19  1  0  0  0  0
 10 12  1  0  0  0  0
 10 13  2  0  0  0  0
 11 14  1  0  0  0  0
 12 20  1  0  0  0  0
 12 21  1  0  0  0  0
 12 22  1  0  0  0  0
 14 23  1  0  0  0  0
 14 24  1  0  0  0  0
M  END
>  <Mol_ID>
3249

>  <Formula>
C8H10N2O3S

>  <MolWeight>
214.2416

>  <Cat>
S5546

>  <Name>
Sulfacetamide

>  <Synonyms>
Acetosulfamine

>  <Target>
Bacterial

>  <Form>
free base

>  <CAS>
144-80-9

>  <URL>
https://www.selleckchem.com/products/sulfacetamide.html

$$$$
