S5548 7-Hydroxy-4-chromone.cdx
 OpenBabel08302520293D

 18 19  0  0  0  0  0  0  0  0999 V2000
   -0.3888    0.5079    0.0279 C   0  0  0  0  0  0  0  0  0  0  0  0
    0.0955   -0.8005    0.0015 C   0  0  0  0  0  0  0  0  0  0  0  0
   -1.8461    0.7252    0.0096 C   0  0  0  0  0  0  0  0  0  0  0  0
    0.4957    1.5914    0.0602 C   0  0  0  0  0  0  0  0  0  0  0  0
    1.4694   -1.0327   -0.0171 C   0  0  0  0  0  0  0  0  0  0  0  0
   -0.7285   -1.9002   -0.0088 O   0  0  0  0  0  0  0  0  0  0  0  0
   -2.6854   -0.4859   -0.0019 C   0  0  0  0  0  0  0  0  0  0  0  0
   -2.3451    1.8412   -0.0026 O   0  0  0  0  0  0  0  0  0  0  0  0
    1.8731    1.3591    0.0466 C   0  0  0  0  0  0  0  0  0  0  0  0
    2.3460    0.0487   -0.0007 C   0  0  0  0  0  0  0  0  0  0  0  0
   -2.0852   -1.6785   -0.0042 C   0  0  0  0  0  0  0  0  0  0  0  0
    3.6818   -0.2224   -0.0346 O   0  0  0  0  0  0  0  0  0  0  0  0
    0.1135    2.6095    0.0928 H   0  0  0  0  0  0  0  0  0  0  0  0
    1.8564   -2.0468   -0.0489 H   0  0  0  0  0  0  0  0  0  0  0  0
   -3.7593   -0.3597   -0.0076 H   0  0  0  0  0  0  0  0  0  0  0  0
    2.5543    2.2045    0.0696 H   0  0  0  0  0  0  0  0  0  0  0  0
   -2.6219   -2.6184   -0.0062 H   0  0  0  0  0  0  0  0  0  0  0  0
    4.1747    0.6148   -0.0465 H   0  0  0  0  0  0  0  0  0  0  0  0
  1  2  2  0  0  0  0
  1  3  1  0  0  0  0
  1  4  1  0  0  0  0
  2  5  1  0  0  0  0
  2  6  1  0  0  0  0
  3  7  1  0  0  0  0
  3  8  2  0  0  0  0
  4  9  2  0  0  0  0
  4 13  1  0  0  0  0
  5 10  2  0  0  0  0
  5 14  1  0  0  0  0
  6 11  1  0  0  0  0
  7 11  2  0  0  0  0
  7 15  1  0  0  0  0
  9 10  1  0  0  0  0
  9 16  1  0  0  0  0
 10 12  1  0  0  0  0
 11 17  1  0  0  0  0
 12 18  1  0  0  0  0
M  END
>  <Mol_ID>
3217

>  <Formula>
C9H6O3

>  <MolWeight>
162.14214

>  <Cat>
S5548

>  <Name>
7-Hydroxy-4-chromone

>  <Synonyms>
7-Hydroxy-4-benzopyrone

>  <Target>
Src

>  <Form>
free base

>  <CAS>
59887-89-7

>  <URL>
https://www.selleckchem.com/products/7-hydroxy-4-chromone.html

$$$$
