S5557 Aklomide.cdx
 OpenBabel08302520013D

 18 18  0  0  0  0  0  0  0  0999 V2000
    1.3589   -0.2427    0.0851 C   0  0  0  0  0  0  0  0  0  0  0  0
    0.4590   -1.3142    0.0195 C   0  0  0  0  0  0  0  0  0  0  0  0
    0.8942    1.0802    0.0720 C   0  0  0  0  0  0  0  0  0  0  0  0
    2.8019   -0.5078    0.1562 N   0  3  0  0  0  0  0  0  0  0  0  0
   -0.9124   -1.0548   -0.0607 C   0  0  0  0  0  0  0  0  0  0  0  0
   -0.4808    1.3317   -0.0045 C   0  0  0  0  0  0  0  0  0  0  0  0
    3.1716   -1.6902    0.1739 O   0  0  0  0  0  0  0  0  0  0  0  0
    3.5638    0.4686    0.1976 O   0  5  0  0  0  0  0  0  0  0  0  0
   -1.3882    0.2648   -0.0651 C   0  0  0  0  0  0  0  0  0  0  0  0
   -2.8555    0.4801   -0.1717 C   0  0  0  0  0  0  0  0  0  0  0  0
   -3.3611    1.6506    0.3192 N   0  0  0  0  0  0  0  0  0  0  0  0
   -3.5918   -0.3716   -0.6516 O   0  0  0  0  0  0  0  0  0  0  0  0
    0.8030   -2.3468    0.0226 H   0  0  0  0  0  0  0  0  0  0  0  0
    1.5855    1.9206    0.1090 H   0  0  0  0  0  0  0  0  0  0  0  0
   -1.6140   -1.8863   -0.1214 H   0  0  0  0  0  0  0  0  0  0  0  0
   -0.8234    2.3622   -0.0482 H   0  0  0  0  0  0  0  0  0  0  0  0
   -4.3707    1.7313    0.3262 H   0  0  0  0  0  0  0  0  0  0  0  0
   -2.8400    2.2670    0.9251 H   0  0  0  0  0  0  0  0  0  0  0  0
  1  2  2  0  0  0  0
  1  3  1  0  0  0  0
  1  4  1  0  0  0  0
  2  5  1  0  0  0  0
  2 13  1  0  0  0  0
  3  6  2  0  0  0  0
  3 14  1  0  0  0  0
  4  7  2  0  0  0  0
  4  8  1  0  0  0  0
  5  9  2  0  0  0  0
  5 15  1  0  0  0  0
  6  9  1  0  0  0  0
  6 16  1  0  0  0  0
  9 10  1  0  0  0  0
 10 11  1  0  0  0  0
 10 12  2  0  0  0  0
 11 17  1  0  0  0  0
 11 18  1  0  0  0  0
M  CHG  2   4   1   8  -1
M  END
>  <Mol_ID>
3063

>  <Formula>
C7H5ClN2O3

>  <MolWeight>
200.5792

>  <Cat>
S5557

>  <Name>
Aklomide

>  <Synonyms>
2-Chloro-4-nitrobenzamide

>  <Target>
Parasite

>  <Form>
free base

>  <CAS>
3011-89-0

>  <URL>
http://selleckchem.com/products/aklomide.html

$$$$
