S5552 Amenamevir.cdx
 OpenBabel08302520013D

 60 63  0  0  0  0  0  0  0  0999 V2000
   -3.8895    2.6854   -3.2393 N   0  0  0  0  0  0  0  0  0  0  0  0
   -4.9884    1.8305   -3.1950 O   0  0  0  0  0  0  0  0  0  0  0  0
   -5.4698    1.8965   -1.9305 C   0  0  0  0  0  0  0  0  0  0  0  0
   -4.7981    2.7005   -1.1467 N   0  0  0  0  0  0  0  0  0  0  0  0
   -3.8201    3.1856   -1.9922 C   0  0  0  0  0  0  0  0  0  0  0  0
   -2.8369    4.1838   -1.5730 C   0  0  0  0  0  0  0  0  0  0  0  0
   -1.8942    5.6566    0.1318 C   0  0  0  0  0  0  0  0  0  0  0  0
   -2.8088    4.6614   -0.2565 C   0  0  0  0  0  0  0  0  0  0  0  0
   -1.9194    4.7141   -2.4891 C   0  0  0  0  0  0  0  0  0  0  0  0
   -1.0105    5.7056   -2.1030 C   0  0  0  0  0  0  0  0  0  0  0  0
   -0.9907    6.1920   -0.7920 C   0  0  0  0  0  0  0  0  0  0  0  0
   -0.0499    7.2096   -0.5065 N   0  0  0  0  0  0  0  0  0  0  0  0
    0.2953    7.7180    0.7213 C   0  0  0  0  0  0  0  0  0  0  0  0
    1.3191    8.8824    0.7280 C   0  0  0  0  0  0  0  0  0  0  0  0
    2.1140    9.4085   -0.4340 N   0  0  0  0  0  0  0  0  0  0  0  0
    2.8668    8.4991   -1.1714 C   0  0  0  0  0  0  0  0  0  0  0  0
    3.9379    8.9829   -2.1669 C   0  0  0  0  0  0  0  0  0  0  0  0
    5.2035    8.1021   -2.1013 C   0  0  0  0  0  0  0  0  0  0  0  0
    3.4030    9.1064   -3.6054 C   0  0  0  0  0  0  0  0  0  0  0  0
    3.1715    7.8027   -4.3629 C   0  0  0  0  0  0  0  0  0  0  0  0
    4.5912    6.7412   -4.3967 S   0  0  0  0  0  0  0  0  0  0  0  0
    5.0805    6.6993   -2.6916 C   0  0  0  0  0  0  0  0  0  0  0  0
   -0.1823    7.3480    1.7967 O   0  0  0  0  0  0  0  0  0  0  0  0
    2.5934    7.2960   -1.1367 O   0  0  0  0  0  0  0  0  0  0  0  0
    2.5626   10.7613   -0.1861 C   0  0  0  0  0  0  0  0  0  0  0  0
    1.8219   11.8198   -0.7511 C   0  0  0  0  0  0  0  0  0  0  0  0
    1.8513   13.0899   -0.1468 C   0  0  0  0  0  0  0  0  0  0  0  0
    2.6110   13.3188    0.9935 C   0  0  0  0  0  0  0  0  0  0  0  0
    3.4494   12.3169    1.4682 C   0  0  0  0  0  0  0  0  0  0  0  0
    3.4704   11.0464    0.8632 C   0  0  0  0  0  0  0  0  0  0  0  0
    1.1249   11.6929   -2.0750 C   0  0  0  0  0  0  0  0  0  0  0  0
    4.1394    5.4105   -4.7671 O   0  0  0  0  0  0  0  0  0  0  0  0
    5.6326    7.4069   -5.1514 O   0  0  0  0  0  0  0  0  0  0  0  0
    4.5358   10.0799    1.3024 C   0  0  0  0  0  0  0  0  0  0  0  0
   -6.3414    1.2985   -1.7102 H   0  0  0  0  0  0  0  0  0  0  0  0
   -1.9253    5.9949    1.1641 H   0  0  0  0  0  0  0  0  0  0  0  0
   -3.5023    4.2646    0.4856 H   0  0  0  0  0  0  0  0  0  0  0  0
   -1.9007    4.3607   -3.5170 H   0  0  0  0  0  0  0  0  0  0  0  0
   -0.3168    6.0820   -2.8474 H   0  0  0  0  0  0  0  0  0  0  0  0
    0.5844    7.4497   -1.2579 H   0  0  0  0  0  0  0  0  0  0  0  0
    0.7080    9.7278    1.0802 H   0  0  0  0  0  0  0  0  0  0  0  0
    2.0310    8.6305    1.5215 H   0  0  0  0  0  0  0  0  0  0  0  0
    4.2520    9.9867   -1.8649 H   0  0  0  0  0  0  0  0  0  0  0  0
    6.0062    8.6302   -2.6328 H   0  0  0  0  0  0  0  0  0  0  0  0
    5.5306    8.0074   -1.0597 H   0  0  0  0  0  0  0  0  0  0  0  0
    4.1217    9.7088   -4.1769 H   0  0  0  0  0  0  0  0  0  0  0  0
    2.4628    9.6654   -3.6091 H   0  0  0  0  0  0  0  0  0  0  0  0
    2.9341    8.0219   -5.4109 H   0  0  0  0  0  0  0  0  0  0  0  0
    2.3381    7.2352   -3.9410 H   0  0  0  0  0  0  0  0  0  0  0  0
    4.3629    6.0789   -2.1536 H   0  0  0  0  0  0  0  0  0  0  0  0
    6.0484    6.1902   -2.6531 H   0  0  0  0  0  0  0  0  0  0  0  0
    1.2686   13.9096   -0.5629 H   0  0  0  0  0  0  0  0  0  0  0  0
    2.5914   14.2921    1.4795 H   0  0  0  0  0  0  0  0  0  0  0  0
    4.0946   12.5365    2.3174 H   0  0  0  0  0  0  0  0  0  0  0  0
    0.2383   12.3316   -2.1212 H   0  0  0  0  0  0  0  0  0  0  0  0
    1.8217   12.0147   -2.8596 H   0  0  0  0  0  0  0  0  0  0  0  0
    0.8101   10.6697   -2.2879 H   0  0  0  0  0  0  0  0  0  0  0  0
    5.2093   10.5377    2.0362 H   0  0  0  0  0  0  0  0  0  0  0  0
    4.1255    9.1729    1.7450 H   0  0  0  0  0  0  0  0  0  0  0  0
    5.1600    9.8228    0.4414 H   0  0  0  0  0  0  0  0  0  0  0  0
  1  2  1  0  0  0  0
  1  5  2  0  0  0  0
  2  3  1  0  0  0  0
  3  4  2  0  0  0  0
  3 35  1  0  0  0  0
  4  5  1  0  0  0  0
  5  6  1  0  0  0  0
  6  9  2  0  0  0  0
  7  8  2  0  0  0  0
  7 11  1  0  0  0  0
  7 36  1  0  0  0  0
  8  6  1  0  0  0  0
  8 37  1  0  0  0  0
  9 10  1  0  0  0  0
  9 38  1  0  0  0  0
 10 11  2  0  0  0  0
 10 39  1  0  0  0  0
 11 12  1  0  0  0  0
 12 13  1  0  0  0  0
 12 40  1  0  0  0  0
 13 14  1  0  0  0  0
 13 23  2  0  0  0  0
 14 41  1  0  0  0  0
 14 42  1  0  0  0  0
 15 14  1  0  0  0  0
 15 16  1  0  0  0  0
 15 25  1  0  0  0  0
 16 17  1  0  0  0  0
 16 24  2  0  0  0  0
 17 19  1  0  0  0  0
 17 43  1  0  0  0  0
 18 17  1  0  0  0  0
 18 22  1  0  0  0  0
 18 44  1  0  0  0  0
 18 45  1  0  0  0  0
 19 20  1  0  0  0  0
 19 46  1  0  0  0  0
 19 47  1  0  0  0  0
 20 21  1  0  0  0  0
 20 48  1  0  0  0  0
 20 49  1  0  0  0  0
 21 22  1  0  0  0  0
 21 32  2  0  0  0  0
 21 33  2  0  0  0  0
 22 50  1  0  0  0  0
 22 51  1  0  0  0  0
 25 26  2  0  0  0  0
 25 30  1  0  0  0  0
 26 27  1  0  0  0  0
 26 31  1  0  0  0  0
 27 28  2  0  0  0  0
 27 52  1  0  0  0  0
 28 29  1  0  0  0  0
 28 53  1  0  0  0  0
 29 30  2  0  0  0  0
 29 54  1  0  0  0  0
 30 34  1  0  0  0  0
 31 55  1  0  0  0  0
 31 56  1  0  0  0  0
 31 57  1  0  0  0  0
 34 58  1  0  0  0  0
 34 59  1  0  0  0  0
 34 60  1  0  0  0  0
M  END
>  <Mol_ID>
3058

>  <Formula>
C24H26N4O5S

>  <MolWeight>
482.55204

>  <Cat>
S5552

>  <Name>
Amenamevir

>  <Synonyms>
ASP2151

>  <Target>
DNA/RNA Synthesis

>  <Form>
free base

>  <CAS>
841301-32-4

>  <URL>
http://selleckchem.com/products/amenamevir.html

$$$$
