S5555 Pamabrom.cdx
 OpenBabel08302520013D

 38 38  0  0  0  0  0  0  0  0999 V2000
   -0.6084    0.9197    0.6355 C   0  0  0  0  0  0  0  0  0  0  0  0
   -0.6694   -0.8356    0.3610 C   0  0  0  0  0  0  0  0  0  0  0  0
    1.0679    1.8706    0.5661 C   0  0  0  0  0  0  0  0  0  0  0  0
   -1.9608    1.1429    0.6592 N   0  0  0  0  0  0  0  0  0  0  0  0
    0.9331   -1.7531    0.1332 N   0  0  0  0  0  0  0  0  0  0  0  0
   -1.9547   -1.2112    0.3716 N   0  0  0  0  0  0  0  0  0  0  0  0
    2.4017    0.9858   -0.4006 N   0  0  0  0  0  0  0  0  0  0  0  0
    1.2375    2.9953    1.0328 O   0  0  0  0  0  0  0  0  0  0  0  0
   -2.6400   -0.0682    0.4415 C   0  0  0  0  0  0  0  0  0  0  0  0
    2.4770   -0.9065   -0.6242 C   0  0  0  0  0  0  0  0  0  0  0  0
    0.9557   -3.2026    0.2062 C   0  0  0  0  0  0  0  0  0  0  0  0
    3.6811    1.6825   -0.4832 C   0  0  0  0  0  0  0  0  0  0  0  0
   -4.5040   -0.0595    0.1418 Br  0  0  0  0  0  0  0  0  0  0  0  0
    3.4932   -1.5001   -0.9803 O   0  0  0  0  0  0  0  0  0  0  0  0
    0.9442    0.0600   -0.0377 C   0  0  0  0  0  0  0  0  0  0  0  0
    0.3317    1.4100   -1.3806 C   0  0  0  0  0  0  0  0  0  0  0  0
    0.5313   -0.8870   -1.7262 C   0  0  0  0  0  0  0  0  0  0  0  0
    0.6418   -0.2496    1.9495 C   0  0  0  0  0  0  0  0  0  0  0  0
    2.3268   -0.0827    1.2974 N   0  0  0  0  0  0  0  0  0  0  0  0
    1.1375    1.6134   -2.5485 O   0  0  0  0  0  0  0  0  0  0  0  0
   -2.4143    2.0456    0.6551 H   0  0  0  0  0  0  0  0  0  0  0  0
    0.5162   -3.5071    1.1589 H   0  0  0  0  0  0  0  0  0  0  0  0
    0.3684   -3.6276   -0.6110 H   0  0  0  0  0  0  0  0  0  0  0  0
    1.9871   -3.5541    0.1392 H   0  0  0  0  0  0  0  0  0  0  0  0
    3.6617    2.3557   -1.3416 H   0  0  0  0  0  0  0  0  0  0  0  0
    3.8225    2.2854    0.4182 H   0  0  0  0  0  0  0  0  0  0  0  0
    4.4963    0.9646   -0.5896 H   0  0  0  0  0  0  0  0  0  0  0  0
   -0.6546    1.0938   -1.7568 H   0  0  0  0  0  0  0  0  0  0  0  0
    0.0850    2.4384   -1.0606 H   0  0  0  0  0  0  0  0  0  0  0  0
    0.7543   -1.9583   -1.8595 H   0  0  0  0  0  0  0  0  0  0  0  0
   -0.5405   -0.8087   -1.9694 H   0  0  0  0  0  0  0  0  0  0  0  0
    1.1204   -0.4819   -2.5534 H   0  0  0  0  0  0  0  0  0  0  0  0
    1.0594   -1.2137    2.3490 H   0  0  0  0  0  0  0  0  0  0  0  0
    0.9305    0.6175    2.6027 H   0  0  0  0  0  0  0  0  0  0  0  0
   -0.3911   -0.3741    2.3535 H   0  0  0  0  0  0  0  0  0  0  0  0
    3.2480   -0.4102    0.9838 H   0  0  0  0  0  0  0  0  0  0  0  0
    2.5637    0.8615    1.6162 H   0  0  0  0  0  0  0  0  0  0  0  0
    2.0580    1.4352   -2.3089 H   0  0  0  0  0  0  0  0  0  0  0  0
  1  2  2  0  0  0  0
  1  3  1  0  0  0  0
  1  4  1  0  0  0  0
  2  6  1  0  0  0  0
  2  5  1  0  0  0  0
  3  7  1  0  0  0  0
  3  8  2  0  0  0  0
  4  9  1  0  0  0  0
  4 21  1  0  0  0  0
  5 10  1  0  0  0  0
  5 11  1  0  0  0  0
  6  9  2  0  0  0  0
  7 12  1  0  0  0  0
  7 10  1  0  0  0  0
  9 13  1  0  0  0  0
 10 14  2  0  0  0  0
 11 22  1  0  0  0  0
 11 23  1  0  0  0  0
 11 24  1  0  0  0  0
 12 25  1  0  0  0  0
 12 26  1  0  0  0  0
 12 27  1  0  0  0  0
 15 16  1  0  0  0  0
 15 17  1  0  0  0  0
 15 18  1  0  0  0  0
 15 19  1  0  0  0  0
 16 20  1  0  0  0  0
 16 28  1  0  0  0  0
 16 29  1  0  0  0  0
 17 30  1  0  0  0  0
 17 31  1  0  0  0  0
 17 32  1  0  0  0  0
 18 33  1  0  0  0  0
 18 34  1  0  0  0  0
 18 35  1  0  0  0  0
 19 36  1  0  0  0  0
 19 37  1  0  0  0  0
 20 38  1  0  0  0  0
M  END
>  <Mol_ID>
3061

>  <Formula>
C11H18BrN5O3

>  <MolWeight>
348.19632

>  <Cat>
S5555

>  <Name>
Pamabrom

>  <Synonyms>
N/A

>  <Target>
Others

>  <Form>
salt

>  <CAS>
606-04-2

>  <URL>
http://selleckchem.com/products/pamabrom.html

$$$$
