S5559 Tetrahydropalmatine.cdx
 OpenBabel08302520143D

 51 54  0  0  0  0  0  0  0  0999 V2000
   -2.5876    0.6671   -0.0257 N   0  0  3  0  0  0  0  0  0  0  0  0
   -0.0922    0.9053   -0.2380 C   0  0  0  0  0  0  0  0  0  0  0  0
   -2.5762   -0.3469   -1.0712 C   0  0  3  0  0  0  0  0  0  0  0  0
   -3.5290   -0.0315   -2.2176 C   0  0  0  0  0  0  0  0  0  0  0  0
   -1.4531    1.5877   -0.1632 C   0  0  0  0  0  0  0  0  0  0  0  0
   -0.0493   -0.4176   -0.7415 C   0  0  0  0  0  0  0  0  0  0  0  0
   -1.2604   -1.0762   -1.3364 C   0  0  0  0  0  0  0  0  0  0  0  0
    1.1394    1.5163    0.1023 C   0  0  0  0  0  0  0  0  0  0  0  0
   -4.8489   -0.1166   -1.7580 C   0  0  0  0  0  0  0  0  0  0  0  0
   -3.2615   -0.1098   -3.5778 C   0  0  0  0  0  0  0  0  0  0  0  0
   -4.1960   -0.7757   -4.3623 C   0  0  0  0  0  0  0  0  0  0  0  0
   -5.6734   -0.9784   -2.4515 C   0  0  0  0  0  0  0  0  0  0  0  0
   -5.2484   -1.4275   -3.7063 C   0  0  0  0  0  0  0  0  0  0  0  0
   -3.9032    1.3492    0.0576 C   0  0  0  0  0  0  0  0  0  0  0  0
    2.3369    0.7512    0.0409 C   0  0  0  0  0  0  0  0  0  0  0  0
   -5.1055    0.4439   -0.3763 C   0  0  0  0  0  0  0  0  0  0  0  0
    1.1322   -1.1672   -0.7344 C   0  0  0  0  0  0  0  0  0  0  0  0
    2.3156   -0.5975   -0.3111 C   0  0  0  0  0  0  0  0  0  0  0  0
    1.3702    2.8577    0.3869 O   0  0  0  0  0  0  0  0  0  0  0  0
   -4.0186   -0.9599   -5.7059 O   0  0  0  0  0  0  0  0  0  0  0  0
   -5.7656   -2.5811   -4.2443 O   0  0  0  0  0  0  0  0  0  0  0  0
    3.5022    1.4053    0.3781 O   0  0  0  0  0  0  0  0  0  0  0  0
    0.3695    3.6070    1.0452 C   0  0  0  0  0  0  0  0  0  0  0  0
   -5.5508   -3.6835   -3.3427 C   0  0  0  0  0  0  0  0  0  0  0  0
   -3.8607    0.2814   -6.4041 C   0  0  0  0  0  0  0  0  0  0  0  0
    4.7013    0.8488   -0.1735 C   0  0  0  0  0  0  0  0  0  0  0  0
   -3.1127   -1.1844   -0.5889 H   0  0  0  0  0  0  0  0  0  0  0  0
   -1.5682    2.2437   -1.0336 H   0  0  0  0  0  0  0  0  0  0  0  0
   -1.5113    2.1772    0.7502 H   0  0  0  0  0  0  0  0  0  0  0  0
   -1.3332   -2.0669   -0.8588 H   0  0  0  0  0  0  0  0  0  0  0  0
   -1.0926   -1.2590   -2.4028 H   0  0  0  0  0  0  0  0  0  0  0  0
   -2.3108    0.2080   -3.9914 H   0  0  0  0  0  0  0  0  0  0  0  0
   -6.5528   -1.4004   -1.9778 H   0  0  0  0  0  0  0  0  0  0  0  0
   -4.0641    1.6954    1.0847 H   0  0  0  0  0  0  0  0  0  0  0  0
   -3.9024    2.2426   -0.5840 H   0  0  0  0  0  0  0  0  0  0  0  0
   -5.2326   -0.3753    0.3387 H   0  0  0  0  0  0  0  0  0  0  0  0
   -6.0205    1.0471   -0.3936 H   0  0  0  0  0  0  0  0  0  0  0  0
    1.1293   -2.2044   -1.0650 H   0  0  0  0  0  0  0  0  0  0  0  0
    3.2066   -1.2127   -0.2915 H   0  0  0  0  0  0  0  0  0  0  0  0
   -0.4091    3.9300    0.3481 H   0  0  0  0  0  0  0  0  0  0  0  0
   -0.0334    3.0803    1.9199 H   0  0  0  0  0  0  0  0  0  0  0  0
    0.8533    4.5129    1.4173 H   0  0  0  0  0  0  0  0  0  0  0  0
   -4.6642   -3.5640   -2.7011 H   0  0  0  0  0  0  0  0  0  0  0  0
   -6.4380   -3.8179   -2.7146 H   0  0  0  0  0  0  0  0  0  0  0  0
   -5.4011   -4.5983   -3.9251 H   0  0  0  0  0  0  0  0  0  0  0  0
   -4.3968    1.1172   -5.9349 H   0  0  0  0  0  0  0  0  0  0  0  0
   -2.7970    0.5225   -6.4948 H   0  0  0  0  0  0  0  0  0  0  0  0
   -4.2667    0.1613   -7.4148 H   0  0  0  0  0  0  0  0  0  0  0  0
    5.0012   -0.0478    0.3769 H   0  0  0  0  0  0  0  0  0  0  0  0
    4.5954    0.6405   -1.2450 H   0  0  0  0  0  0  0  0  0  0  0  0
    5.4937    1.5923   -0.0571 H   0  0  0  0  0  0  0  0  0  0  0  0
  2  5  1  0  0  0  0
  3  1  1  0  0  0  0
  3 27  1  0  0  0  0
  4  3  1  0  0  0  0
  5  1  1  0  0  0  0
  5 28  1  0  0  0  0
  5 29  1  0  0  0  0
  6  7  1  0  0  0  0
  6  2  2  0  0  0  0
  7  3  1  0  0  0  0
  7 30  1  0  0  0  0
  7 31  1  0  0  0  0
  8  2  1  0  0  0  0
  9  4  2  0  0  0  0
 10  4  1  0  0  0  0
 10 32  1  0  0  0  0
 11 10  2  0  0  0  0
 12  9  1  0  0  0  0
 12 33  1  0  0  0  0
 13 11  1  0  0  0  0
 13 12  2  0  0  0  0
 14  1  1  0  0  0  0
 14 34  1  0  0  0  0
 14 35  1  0  0  0  0
 15  8  2  0  0  0  0
 15 18  1  0  0  0  0
 16 14  1  0  0  0  0
 16  9  1  0  0  0  0
 16 36  1  0  0  0  0
 16 37  1  0  0  0  0
 17  6  1  0  0  0  0
 17 38  1  0  0  0  0
 18 17  2  0  0  0  0
 18 39  1  0  0  0  0
 19  8  1  0  0  0  0
 20 11  1  0  0  0  0
 21 13  1  0  0  0  0
 22 15  1  0  0  0  0
 23 19  1  0  0  0  0
 23 40  1  0  0  0  0
 23 41  1  0  0  0  0
 23 42  1  0  0  0  0
 24 21  1  0  0  0  0
 24 43  1  0  0  0  0
 24 44  1  0  0  0  0
 24 45  1  0  0  0  0
 25 20  1  0  0  0  0
 25 46  1  0  0  0  0
 25 47  1  0  0  0  0
 25 48  1  0  0  0  0
 26 22  1  0  0  0  0
 26 49  1  0  0  0  0
 26 50  1  0  0  0  0
 26 51  1  0  0  0  0
M  END
>  <Mol_ID>
3131

>  <Formula>
C21H25NO4

>  <MolWeight>
355.4275

>  <Cat>
S5559

>  <Name>
Tetrahydropalmatine

>  <Synonyms>
Rotundine

>  <Target>
Dopamine Receptor

>  <Form>
free base

>  <CAS>
2934-97-6

>  <URL>
http://selleckchem.com/products/tetrahydropalmatine.html

$$$$
