S5558 D-Pantothenate Sodium.cdx
 OpenBabel08302520013D

 31 30  0  0  0  0  0  0  0  0999 V2000
    0.8987    0.0253    0.0508 C   0  0  2  0  0  0  0  0  0  0  0  0
    0.3241   -0.8291   -1.1139 C   0  0  0  0  0  0  0  0  0  0  0  0
    0.5406   -0.4398    1.4811 C   0  0  0  0  0  0  0  0  0  0  0  0
    0.4403    1.3842   -0.0847 O   0  0  0  0  0  0  0  0  0  0  0  0
    0.7600   -0.1609   -2.4463 C   0  0  0  0  0  0  0  0  0  0  0  0
    0.8565   -2.2701   -1.0538 C   0  0  0  0  0  0  0  0  0  0  0  0
   -1.2167   -0.8794   -1.0676 C   0  0  0  0  0  0  0  0  0  0  0  0
    1.4129   -1.3371    2.0387 N   0  0  0  0  0  0  0  0  0  0  0  0
   -0.4176    0.0582    2.0758 O   0  0  0  0  0  0  0  0  0  0  0  0
    0.3347   -0.8864   -3.5981 O   0  0  0  0  0  0  0  0  0  0  0  0
    1.2464   -1.9141    3.3586 C   0  0  0  0  0  0  0  0  0  0  0  0
    0.5214   -3.2465    3.3231 C   0  0  0  0  0  0  0  0  0  0  0  0
    1.3004   -4.3199    2.5623 C   0  0  0  0  0  0  0  0  0  0  0  0
    2.0703   -3.9039    1.6452 O   0  0  0  0  0  0  0  0  0  0  0  0
    1.0644   -5.5055    2.9281 O   0  5  0  0  0  0  0  0  0  0  0  0
    1.9927    0.0657   -0.0218 H   0  0  0  0  0  0  0  0  0  0  0  0
   -0.3775    1.4267    0.4532 H   0  0  0  0  0  0  0  0  0  0  0  0
    0.3343    0.8445   -2.5385 H   0  0  0  0  0  0  0  0  0  0  0  0
    1.8501   -0.0583   -2.4982 H   0  0  0  0  0  0  0  0  0  0  0  0
    0.4950   -2.7867   -0.1606 H   0  0  0  0  0  0  0  0  0  0  0  0
    0.5195   -2.8686   -1.9063 H   0  0  0  0  0  0  0  0  0  0  0  0
    1.9518   -2.2856   -1.0468 H   0  0  0  0  0  0  0  0  0  0  0  0
   -1.5733   -1.3331   -0.1366 H   0  0  0  0  0  0  0  0  0  0  0  0
   -1.6539    0.1214   -1.1408 H   0  0  0  0  0  0  0  0  0  0  0  0
   -1.6205   -1.4761   -1.8930 H   0  0  0  0  0  0  0  0  0  0  0  0
    1.9471   -1.9625    1.4284 H   0  0  0  0  0  0  0  0  0  0  0  0
    0.8520   -1.7091   -3.6284 H   0  0  0  0  0  0  0  0  0  0  0  0
    2.2531   -2.0408    3.7734 H   0  0  0  0  0  0  0  0  0  0  0  0
    0.7052   -1.2076    3.9951 H   0  0  0  0  0  0  0  0  0  0  0  0
    0.3684   -3.5914    4.3533 H   0  0  0  0  0  0  0  0  0  0  0  0
   -0.4658   -3.1393    2.8594 H   0  0  0  0  0  0  0  0  0  0  0  0
  1  2  1  0  0  0  0
  1  3  1  0  0  0  0
  1  4  1  0  0  0  0
  1 16  1  6  0  0  0
  2  5  1  0  0  0  0
  2  6  1  0  0  0  0
  2  7  1  0  0  0  0
  3  8  1  0  0  0  0
  3  9  2  0  0  0  0
  4 17  1  0  0  0  0
  5 10  1  0  0  0  0
  5 18  1  0  0  0  0
  5 19  1  0  0  0  0
  6 20  1  0  0  0  0
  6 21  1  0  0  0  0
  6 22  1  0  0  0  0
  7 23  1  0  0  0  0
  7 24  1  0  0  0  0
  7 25  1  0  0  0  0
  8 11  1  0  0  0  0
  8 26  1  0  0  0  0
 10 27  1  0  0  0  0
 11 12  1  0  0  0  0
 11 28  1  0  0  0  0
 11 29  1  0  0  0  0
 12 13  1  0  0  0  0
 12 30  1  0  0  0  0
 12 31  1  0  0  0  0
 13 14  2  0  0  0  0
 13 15  1  0  0  0  0
M  CHG  1  15  -1
M  END
>  <Mol_ID>
3064

>  <Formula>
C9H16NNaO5

>  <MolWeight>
241.21681

>  <Cat>
S5558

>  <Name>
D-Pantothenate Sodium

>  <Synonyms>
N/A

>  <Target>
Vitamin

>  <Form>
sodium salt

>  <CAS>
867-81-2

>  <URL>
http://selleckchem.com/products/d-pantothenate-sodium.html

$$$$
