S5551 6-Paradol.cdx
 OpenBabel08302520013D

 46 46  0  0  0  0  0  0  0  0999 V2000
    1.3862    0.5554    0.1170 C   0  0  0  0  0  0  0  0  0  0  0  0
    0.4697    0.8636   -1.0640 C   0  0  0  0  0  0  0  0  0  0  0  0
    0.9754    0.1887   -2.3215 C   0  0  0  0  0  0  0  0  0  0  0  0
   -0.0437   -0.1863   -3.3799 C   0  0  0  0  0  0  0  0  0  0  0  0
   -0.8327    1.0073   -3.9122 C   0  0  0  0  0  0  0  0  0  0  0  0
    0.0556    2.0653   -4.5758 C   0  0  0  0  0  0  0  0  0  0  0  0
   -0.7701    3.2436   -5.1044 C   0  0  0  0  0  0  0  0  0  0  0  0
    0.1225    4.3097   -5.7483 C   0  0  0  0  0  0  0  0  0  0  0  0
   -0.6935    5.4879   -6.2846 C   0  0  0  0  0  0  0  0  0  0  0  0
    0.1971    6.5426   -6.9249 C   0  0  0  0  0  0  0  0  0  0  0  0
    0.9003    1.2042    1.3880 C   0  0  0  0  0  0  0  0  0  0  0  0
    1.3401    2.4953    1.7306 C   0  0  0  0  0  0  0  0  0  0  0  0
    0.8800    3.1134    2.8937 C   0  0  0  0  0  0  0  0  0  0  0  0
   -0.0205    2.4220    3.7113 C   0  0  0  0  0  0  0  0  0  0  0  0
   -0.4648    1.1460    3.3906 C   0  0  0  0  0  0  0  0  0  0  0  0
   -0.0068    0.5371    2.2238 C   0  0  0  0  0  0  0  0  0  0  0  0
    1.2240    4.3662    3.3331 O   0  0  0  0  0  0  0  0  0  0  0  0
    2.1236    5.1012    2.5102 C   0  0  0  0  0  0  0  0  0  0  0  0
   -0.4908    2.9990    4.8601 O   0  0  0  0  0  0  0  0  0  0  0  0
    2.1734   -0.0440   -2.4984 O   0  0  0  0  0  0  0  0  0  0  0  0
    2.4092    0.8932   -0.0925 H   0  0  0  0  0  0  0  0  0  0  0  0
    1.4602   -0.5304    0.2635 H   0  0  0  0  0  0  0  0  0  0  0  0
   -0.5453    0.5072   -0.8533 H   0  0  0  0  0  0  0  0  0  0  0  0
    0.4168    1.9418   -1.2523 H   0  0  0  0  0  0  0  0  0  0  0  0
    0.4804   -0.6900   -4.1994 H   0  0  0  0  0  0  0  0  0  0  0  0
   -0.7239   -0.9228   -2.9367 H   0  0  0  0  0  0  0  0  0  0  0  0
   -1.5622    0.6372   -4.6439 H   0  0  0  0  0  0  0  0  0  0  0  0
   -1.4064    1.4665   -3.0997 H   0  0  0  0  0  0  0  0  0  0  0  0
    0.7907    2.4408   -3.8547 H   0  0  0  0  0  0  0  0  0  0  0  0
    0.6162    1.6084   -5.4003 H   0  0  0  0  0  0  0  0  0  0  0  0
   -1.4990    2.8806   -5.8390 H   0  0  0  0  0  0  0  0  0  0  0  0
   -1.3375    3.6918   -4.2794 H   0  0  0  0  0  0  0  0  0  0  0  0
    0.8472    4.6744   -5.0101 H   0  0  0  0  0  0  0  0  0  0  0  0
    0.6955    3.8597   -6.5680 H   0  0  0  0  0  0  0  0  0  0  0  0
   -1.4168    5.1325   -7.0276 H   0  0  0  0  0  0  0  0  0  0  0  0
   -1.2646    5.9486   -5.4702 H   0  0  0  0  0  0  0  0  0  0  0  0
    0.7652    6.1232   -7.7618 H   0  0  0  0  0  0  0  0  0  0  0  0
   -0.4084    7.3700   -7.3087 H   0  0  0  0  0  0  0  0  0  0  0  0
    0.9073    6.9521   -6.1991 H   0  0  0  0  0  0  0  0  0  0  0  0
    2.0459    2.9904    1.0709 H   0  0  0  0  0  0  0  0  0  0  0  0
   -1.1617    0.6317    4.0455 H   0  0  0  0  0  0  0  0  0  0  0  0
   -0.3570   -0.4618    1.9741 H   0  0  0  0  0  0  0  0  0  0  0  0
    3.1003    4.6088    2.4596 H   0  0  0  0  0  0  0  0  0  0  0  0
    1.7072    5.2593    1.5095 H   0  0  0  0  0  0  0  0  0  0  0  0
    2.2680    6.0846    2.9673 H   0  0  0  0  0  0  0  0  0  0  0  0
   -0.0562    3.8736    4.8956 H   0  0  0  0  0  0  0  0  0  0  0  0
  1  2  1  0  0  0  0
  1 11  1  0  0  0  0
  1 21  1  0  0  0  0
  1 22  1  0  0  0  0
  2  3  1  0  0  0  0
  2 23  1  0  0  0  0
  2 24  1  0  0  0  0
  3  4  1  0  0  0  0
  3 20  2  0  0  0  0
  4  5  1  0  0  0  0
  4 25  1  0  0  0  0
  4 26  1  0  0  0  0
  5  6  1  0  0  0  0
  5 27  1  0  0  0  0
  5 28  1  0  0  0  0
  6  7  1  0  0  0  0
  6 29  1  0  0  0  0
  6 30  1  0  0  0  0
  7  8  1  0  0  0  0
  7 31  1  0  0  0  0
  7 32  1  0  0  0  0
  8  9  1  0  0  0  0
  8 33  1  0  0  0  0
  8 34  1  0  0  0  0
  9 10  1  0  0  0  0
  9 35  1  0  0  0  0
  9 36  1  0  0  0  0
 10 37  1  0  0  0  0
 10 38  1  0  0  0  0
 10 39  1  0  0  0  0
 11 12  2  0  0  0  0
 11 16  1  0  0  0  0
 12 13  1  0  0  0  0
 12 40  1  0  0  0  0
 13 14  2  0  0  0  0
 13 17  1  0  0  0  0
 14 15  1  0  0  0  0
 14 19  1  0  0  0  0
 15 16  2  0  0  0  0
 15 41  1  0  0  0  0
 16 42  1  0  0  0  0
 17 18  1  0  0  0  0
 18 43  1  0  0  0  0
 18 44  1  0  0  0  0
 18 45  1  0  0  0  0
 19 46  1  0  0  0  0
M  END
>  <Mol_ID>
3057

>  <Formula>
C17H26O3

>  <MolWeight>
278.38654

>  <Cat>
S5551

>  <Name>
6-Paradol

>  <Synonyms>
N/A

>  <Target>
COX

>  <Form>
free base

>  <CAS>
27113-22-0

>  <URL>
http://selleckchem.com/products/6-paradol.html

$$$$
