S5567 Trimethadione.cdx
 OpenBabel08302520013D

 19 19  0  0  0  0  0  0  0  0999 V2000
   -0.7244   -1.0011   -0.2839 C   0  0  0  0  0  0  0  0  0  0  0  0
    0.7632   -0.9948   -0.0188 C   0  0  0  0  0  0  0  0  0  0  0  0
   -1.0838    0.3687   -0.0520 O   0  0  0  0  0  0  0  0  0  0  0  0
   -1.0122   -1.3275   -1.7449 C   0  0  0  0  0  0  0  0  0  0  0  0
   -1.4699   -1.9144    0.6732 C   0  0  0  0  0  0  0  0  0  0  0  0
    1.1394    0.3034    0.0573 N   0  0  0  0  0  0  0  0  0  0  0  0
    1.4796   -1.9794    0.0741 O   0  0  0  0  0  0  0  0  0  0  0  0
    0.0564    1.1110    0.0289 C   0  0  0  0  0  0  0  0  0  0  0  0
    2.4909    0.7745    0.2265 C   0  0  0  0  0  0  0  0  0  0  0  0
    0.0587    2.3312    0.0825 O   0  0  0  0  0  0  0  0  0  0  0  0
   -0.6913   -2.3428   -2.0016 H   0  0  0  0  0  0  0  0  0  0  0  0
   -2.0813   -1.2296   -1.9602 H   0  0  0  0  0  0  0  0  0  0  0  0
   -0.4934   -0.6309   -2.4143 H   0  0  0  0  0  0  0  0  0  0  0  0
   -1.2212   -1.6824    1.7148 H   0  0  0  0  0  0  0  0  0  0  0  0
   -2.5535   -1.7876    0.5714 H   0  0  0  0  0  0  0  0  0  0  0  0
   -1.2239   -2.9675    0.4967 H   0  0  0  0  0  0  0  0  0  0  0  0
    2.7760    1.3364   -0.6682 H   0  0  0  0  0  0  0  0  0  0  0  0
    2.5336    1.4511    1.0859 H   0  0  0  0  0  0  0  0  0  0  0  0
    3.1818   -0.0596    0.3727 H   0  0  0  0  0  0  0  0  0  0  0  0
  1  2  1  0  0  0  0
  1  3  1  0  0  0  0
  1  4  1  0  0  0  0
  1  5  1  0  0  0  0
  2  6  1  0  0  0  0
  2  7  2  0  0  0  0
  3  8  1  0  0  0  0
  4 11  1  0  0  0  0
  4 12  1  0  0  0  0
  4 13  1  0  0  0  0
  5 14  1  0  0  0  0
  5 15  1  0  0  0  0
  5 16  1  0  0  0  0
  6  9  1  0  0  0  0
  6  8  1  0  0  0  0
  8 10  2  0  0  0  0
  9 17  1  0  0  0  0
  9 18  1  0  0  0  0
  9 19  1  0  0  0  0
M  END
>  <Mol_ID>
3067

>  <Formula>
C6H9NO3

>  <MolWeight>
143.14056

>  <Cat>
S5567

>  <Name>
Trimethadione

>  <Synonyms>
N/A

>  <Target>
Calcium Channel

>  <Form>
oxazolidinedione

>  <CAS>
127-48-0

>  <URL>
http://selleckchem.com/products/trimethadione.html

$$$$
