S5564 Xylazine.cdx
 OpenBabel08302520293D

 31 32  0  0  0  0  0  0  0  0999 V2000
    1.7987    2.1416   -1.0241 S   0  0  0  0  0  0  0  0  0  0  0  0
    0.4851    3.2688   -0.7908 C   0  0  0  0  0  0  0  0  0  0  0  0
    0.5513    4.5201   -1.0559 N   0  0  0  0  0  0  0  0  0  0  0  0
    1.6480    5.2391   -1.6643 C   0  0  0  0  0  0  0  0  0  0  0  0
    2.6941    4.3621   -2.3144 C   0  0  0  0  0  0  0  0  0  0  0  0
    3.1507    3.2864   -1.3568 C   0  0  0  0  0  0  0  0  0  0  0  0
   -0.6297    2.6644   -0.2771 N   0  0  0  0  0  0  0  0  0  0  0  0
   -1.9838    3.0113   -0.5027 C   0  0  0  0  0  0  0  0  0  0  0  0
   -2.4694    3.5731   -1.7126 C   0  0  0  0  0  0  0  0  0  0  0  0
   -3.8360    3.8915   -1.8326 C   0  0  0  0  0  0  0  0  0  0  0  0
   -4.7301    3.6356   -0.8020 C   0  0  0  0  0  0  0  0  0  0  0  0
   -4.2704    3.0751    0.3810 C   0  0  0  0  0  0  0  0  0  0  0  0
   -2.9096    2.7687    0.5488 C   0  0  0  0  0  0  0  0  0  0  0  0
   -2.4646    2.2319    1.8853 C   0  0  0  0  0  0  0  0  0  0  0  0
   -1.6199    3.8573   -2.9248 C   0  0  0  0  0  0  0  0  0  0  0  0
    2.1060    5.8941   -0.9175 H   0  0  0  0  0  0  0  0  0  0  0  0
    1.2309    5.8995   -2.4354 H   0  0  0  0  0  0  0  0  0  0  0  0
    3.5483    4.9885   -2.5995 H   0  0  0  0  0  0  0  0  0  0  0  0
    2.3080    3.9232   -3.2433 H   0  0  0  0  0  0  0  0  0  0  0  0
    3.9839    2.7263   -1.7916 H   0  0  0  0  0  0  0  0  0  0  0  0
    3.4957    3.7192   -0.4122 H   0  0  0  0  0  0  0  0  0  0  0  0
   -0.4989    1.7110    0.0291 H   0  0  0  0  0  0  0  0  0  0  0  0
   -4.2122    4.3395   -2.7500 H   0  0  0  0  0  0  0  0  0  0  0  0
   -5.7812    3.8808   -0.9215 H   0  0  0  0  0  0  0  0  0  0  0  0
   -4.9801    2.8925    1.1841 H   0  0  0  0  0  0  0  0  0  0  0  0
   -2.0215    1.2377    1.7756 H   0  0  0  0  0  0  0  0  0  0  0  0
   -1.7389    2.9125    2.3425 H   0  0  0  0  0  0  0  0  0  0  0  0
   -3.3065    2.1404    2.5810 H   0  0  0  0  0  0  0  0  0  0  0  0
   -1.0493    4.7780   -2.7921 H   0  0  0  0  0  0  0  0  0  0  0  0
   -0.9603    3.0158   -3.1550 H   0  0  0  0  0  0  0  0  0  0  0  0
   -2.2375    4.0194   -3.8158 H   0  0  0  0  0  0  0  0  0  0  0  0
  1  2  1  0  0  0  0
  1  6  1  0  0  0  0
  2  3  2  0  0  0  0
  2  7  1  0  0  0  0
  3  4  1  0  0  0  0
  4  5  1  0  0  0  0
  4 16  1  0  0  0  0
  4 17  1  0  0  0  0
  5  6  1  0  0  0  0
  5 18  1  0  0  0  0
  5 19  1  0  0  0  0
  6 20  1  0  0  0  0
  6 21  1  0  0  0  0
  7  8  1  0  0  0  0
  7 22  1  0  0  0  0
  8  9  2  0  0  0  0
  8 13  1  0  0  0  0
  9 10  1  0  0  0  0
  9 15  1  0  0  0  0
 10 11  2  0  0  0  0
 10 23  1  0  0  0  0
 11 12  1  0  0  0  0
 11 24  1  0  0  0  0
 12 13  2  0  0  0  0
 12 25  1  0  0  0  0
 13 14  1  0  0  0  0
 14 26  1  0  0  0  0
 14 27  1  0  0  0  0
 14 28  1  0  0  0  0
 15 29  1  0  0  0  0
 15 30  1  0  0  0  0
 15 31  1  0  0  0  0
M  END
>  <Mol_ID>
3218

>  <Formula>
C12H16N2S

>  <MolWeight>
220.33384

>  <Cat>
S5564

>  <Name>
Xylazine

>  <Target>
Adrenergic Receptor

>  <Form>
free base

>  <CAS>
7361-61-7

>  <URL>
https://www.selleckchem.com/products/xylazine.html

$$$$
