S5572 Azetidine-2-carboxylic acid.cdx
 OpenBabel08302521383D

 14 14  0  0  0  0  0  0  0  0999 V2000
    0.3143    0.9794   -0.0457 N   0  0  0  0  0  0  0  0  0  0  0  0
   -1.0327    0.3468    0.1092 C   0  0  3  0  0  0  0  0  0  0  0  0
   -0.3624   -1.0134   -0.1679 C   0  0  0  0  0  0  0  0  0  0  0  0
    0.9486   -0.3245    0.2265 C   0  0  0  0  0  0  0  0  0  0  0  0
   -1.7029    0.5531    1.5201 C   0  0  0  0  0  0  0  0  0  0  0  0
   -2.7767    0.1179    1.9227 O   0  0  0  0  0  0  0  0  0  0  0  0
   -0.9707    1.3198    2.3740 O   0  0  0  0  0  0  0  0  0  0  0  0
    0.4993    1.6818    0.6756 H   0  0  0  0  0  0  0  0  0  0  0  0
   -1.7248    0.6474   -0.6872 H   0  0  0  0  0  0  0  0  0  0  0  0
   -0.6674   -1.8479    0.4690 H   0  0  0  0  0  0  0  0  0  0  0  0
   -0.4096   -1.3264   -1.2173 H   0  0  0  0  0  0  0  0  0  0  0  0
    1.8096   -0.5542   -0.4073 H   0  0  0  0  0  0  0  0  0  0  0  0
    1.2326   -0.4658    1.2754 H   0  0  0  0  0  0  0  0  0  0  0  0
   -1.5261    1.3455    3.1821 H   0  0  0  0  0  0  0  0  0  0  0  0
  1  2  1  0  0  0  0
  1  4  1  0  0  0  0
  1  8  1  0  0  0  0
  2  3  1  0  0  0  0
  2  5  1  0  0  0  0
  2  9  1  0  0  0  0
  3  4  1  0  0  0  0
  3 10  1  0  0  0  0
  3 11  1  0  0  0  0
  4 12  1  0  0  0  0
  4 13  1  0  0  0  0
  5  6  2  0  0  0  0
  5  7  1  0  0  0  0
  7 14  1  0  0  0  0
M  END
>  <Mol_ID>
7838

>  <Formula>
C4H7NO2

>  <MolWeight>
101.10388

>  <Cat>
S5572

>  <Name>
Azetidine-2-carboxylic acid

>  <Synonyms>
N/A

>  <Target>
Others

>  <Form>
free base

>  <CAS>
2517-04-6

>  <URL>
http://selleckchem.com/products/azetidine-2-carboxylic-acid.html

$$$$
