S5571 L-Asparagine.cdx
 OpenBabel08302521383D

 17 16  0  0  0  0  0  0  0  0999 V2000
    0.9106   -0.0616    0.0303 C   0  0  0  0  0  0  0  0  0  0  0  0
   -0.7014   -0.2629   -1.8022 N   0  0  0  0  0  0  0  0  0  0  0  0
    0.1539    0.7131   -1.0534 C   0  0  1  0  0  0  0  0  0  0  0  0
   -0.6788    1.7907   -0.3590 C   0  0  0  0  0  0  0  0  0  0  0  0
   -1.3738    2.7005   -1.3422 C   0  0  0  0  0  0  0  0  0  0  0  0
   -1.2846    2.5963   -2.5604 O   0  0  0  0  0  0  0  0  0  0  0  0
   -2.1519    3.6619   -0.7728 N   0  0  0  0  0  0  0  0  0  0  0  0
    1.9018    0.3361    0.6201 O   0  0  0  0  0  0  0  0  0  0  0  0
    0.2957   -1.2437    0.3043 O   0  0  0  0  0  0  0  0  0  0  0  0
   -1.2429    0.2966   -2.4798 H   0  0  0  0  0  0  0  0  0  0  0  0
   -0.0781   -0.8070   -2.4119 H   0  0  0  0  0  0  0  0  0  0  0  0
    0.8828    1.1416   -1.7503 H   0  0  0  0  0  0  0  0  0  0  0  0
   -1.4337    1.3353    0.2951 H   0  0  0  0  0  0  0  0  0  0  0  0
   -0.0328    2.4125    0.2729 H   0  0  0  0  0  0  0  0  0  0  0  0
   -2.3320    3.7136    0.2212 H   0  0  0  0  0  0  0  0  0  0  0  0
   -2.6791    4.2685   -1.3886 H   0  0  0  0  0  0  0  0  0  0  0  0
   -0.4667   -1.3049   -0.3265 H   0  0  0  0  0  0  0  0  0  0  0  0
  1  3  1  0  0  0  0
  1  8  2  0  0  0  0
  1  9  1  0  0  0  0
  2 10  1  0  0  0  0
  2 11  1  0  0  0  0
  3  2  1  0  0  0  0
  3  4  1  0  0  0  0
  3 12  1  6  0  0  0
  4  5  1  0  0  0  0
  4 13  1  0  0  0  0
  4 14  1  0  0  0  0
  5  6  2  0  0  0  0
  5  7  1  0  0  0  0
  7 15  1  0  0  0  0
  7 16  1  0  0  0  0
  9 17  1  0  0  0  0
M  END
>  <Mol_ID>
7837

>  <Formula>
C4H8N2O3

>  <MolWeight>
132.11792

>  <Cat>
S5571

>  <Name>
L-Asparagine

>  <Synonyms>
2-Aminosuccinamic acid, alpha-aminosuccinamic acid

>  <Target>
Others

>  <Form>
free base

>  <CAS>
70-47-3

>  <URL>
http://selleckchem.com/products/l-asparagine.html

$$$$
