S5576 Benzyl acetate.cdx
 OpenBabel08302520013D

 21 21  0  0  0  0  0  0  0  0999 V2000
    1.3171   -0.2298    0.1074 C   0  0  0  0  0  0  0  0  0  0  0  0
    2.8019   -0.4968    0.0920 C   0  0  0  0  0  0  0  0  0  0  0  0
    0.4019   -1.2907    0.1749 C   0  0  0  0  0  0  0  0  0  0  0  0
    0.8300    1.0826    0.0422 C   0  0  0  0  0  0  0  0  0  0  0  0
    3.4217    0.0617   -1.0782 O   0  0  0  0  0  0  0  0  0  0  0  0
   -0.9717   -1.0428    0.1443 C   0  0  0  0  0  0  0  0  0  0  0  0
   -0.5437    1.3276    0.0127 C   0  0  0  0  0  0  0  0  0  0  0  0
    3.3588   -0.7087   -2.1962 C   0  0  0  0  0  0  0  0  0  0  0  0
   -1.4444    0.2645    0.0541 C   0  0  0  0  0  0  0  0  0  0  0  0
    4.0970   -0.0638   -3.3297 C   0  0  0  0  0  0  0  0  0  0  0  0
    2.8328   -1.8117   -2.2741 O   0  0  0  0  0  0  0  0  0  0  0  0
    3.2557   -0.0108    0.9635 H   0  0  0  0  0  0  0  0  0  0  0  0
    3.0340   -1.5654    0.1816 H   0  0  0  0  0  0  0  0  0  0  0  0
    0.7535   -2.3178    0.2323 H   0  0  0  0  0  0  0  0  0  0  0  0
    1.5228    1.9210    0.0015 H   0  0  0  0  0  0  0  0  0  0  0  0
   -1.6737   -1.8736    0.1779 H   0  0  0  0  0  0  0  0  0  0  0  0
   -0.9116    2.3480   -0.0526 H   0  0  0  0  0  0  0  0  0  0  0  0
   -2.5126    0.4548    0.0133 H   0  0  0  0  0  0  0  0  0  0  0  0
    5.0994   -0.4910   -3.4000 H   0  0  0  0  0  0  0  0  0  0  0  0
    3.5491   -0.2397   -4.2626 H   0  0  0  0  0  0  0  0  0  0  0  0
    4.1686    1.0181   -3.1868 H   0  0  0  0  0  0  0  0  0  0  0  0
  1  2  1  0  0  0  0
  1  3  2  0  0  0  0
  1  4  1  0  0  0  0
  2  5  1  0  0  0  0
  2 12  1  0  0  0  0
  2 13  1  0  0  0  0
  3  6  1  0  0  0  0
  3 14  1  0  0  0  0
  4  7  2  0  0  0  0
  4 15  1  0  0  0  0
  5  8  1  0  0  0  0
  6  9  2  0  0  0  0
  6 16  1  0  0  0  0
  7  9  1  0  0  0  0
  7 17  1  0  0  0  0
  8 10  1  0  0  0  0
  8 11  2  0  0  0  0
  9 18  1  0  0  0  0
 10 19  1  0  0  0  0
 10 20  1  0  0  0  0
 10 21  1  0  0  0  0
M  END
>  <Mol_ID>
3072

>  <Formula>
C9H10O2

>  <MolWeight>
150.1745

>  <Cat>
S5576

>  <Name>
Benzyl acetate

>  <Synonyms>
Acetic acid benzyl ester, Benzyl ethanoate, Phenylmethyl acetate

>  <Target>
Others

>  <Form>
free base

>  <CAS>
140-11-4

>  <URL>
http://selleckchem.com/products/benzyl-acetate.html

$$$$
