S5575 2-Benzoxazolinone.cdx
 OpenBabel08302520013D

 15 16  0  0  0  0  0  0  0  0999 V2000
    0.2739    0.7267    0.0076 C   0  0  0  0  0  0  0  0  0  0  0  0
    0.2195   -0.6509    0.0060 C   0  0  0  0  0  0  0  0  0  0  0  0
   -1.0211    1.1587    0.0065 N   0  0  0  0  0  0  0  0  0  0  0  0
    1.4577    1.4273    0.0036 C   0  0  0  0  0  0  0  0  0  0  0  0
   -1.0791   -1.1331    0.0067 O   0  0  0  0  0  0  0  0  0  0  0  0
    1.3653   -1.4161   -0.0050 C   0  0  0  0  0  0  0  0  0  0  0  0
   -1.8330    0.0479   -0.0004 C   0  0  0  0  0  0  0  0  0  0  0  0
    2.6348    0.6710   -0.0058 C   0  0  0  0  0  0  0  0  0  0  0  0
    2.5893   -0.7388   -0.0124 C   0  0  0  0  0  0  0  0  0  0  0  0
   -3.0549    0.0758   -0.0111 O   0  0  0  0  0  0  0  0  0  0  0  0
   -1.3643    2.1038    0.0002 H   0  0  0  0  0  0  0  0  0  0  0  0
    1.4889    2.5100    0.0037 H   0  0  0  0  0  0  0  0  0  0  0  0
    1.3194   -2.4989   -0.0113 H   0  0  0  0  0  0  0  0  0  0  0  0
    3.6007    1.1722   -0.0100 H   0  0  0  0  0  0  0  0  0  0  0  0
    3.5184   -1.3052   -0.0268 H   0  0  0  0  0  0  0  0  0  0  0  0
  1  2  2  0  0  0  0
  1  3  1  0  0  0  0
  1  4  1  0  0  0  0
  2  5  1  0  0  0  0
  2  6  1  0  0  0  0
  3  7  1  0  0  0  0
  3 11  1  0  0  0  0
  4  8  2  0  0  0  0
  4 12  1  0  0  0  0
  5  7  1  0  0  0  0
  6  9  2  0  0  0  0
  6 13  1  0  0  0  0
  7 10  2  0  0  0  0
  8  9  1  0  0  0  0
  8 14  1  0  0  0  0
  9 15  1  0  0  0  0
M  END
>  <Mol_ID>
3071

>  <Formula>
C7H5NO2

>  <MolWeight>
135.1201

>  <Cat>
S5575

>  <Name>
2-Benzoxazolinone

>  <Synonyms>
2-Hydroxybenzoxazole

>  <Target>
Others

>  <Form>
free base

>  <CAS>
59-49-4

>  <URL>
http://selleckchem.com/products/2-benzoxazolinone.html

$$$$
