S5577 6-Biopterin.cdx
 OpenBabel08302521393D

 28 29  0  0  0  0  0  0  0  0999 V2000
    4.6634   -3.3425    3.4866 C   0  0  0  0  0  0  0  0  0  0  0  0
    4.8912   -1.9725    3.5535 C   0  0  0  0  0  0  0  0  0  0  0  0
    4.3773   -3.9483    2.3138 N   0  0  0  0  0  0  0  0  0  0  0  0
    4.7226   -4.1102    4.6398 N   0  0  0  0  0  0  0  0  0  0  0  0
    4.8353   -1.1487    2.4706 N   0  0  0  0  0  0  0  0  0  0  0  0
    5.1506   -1.4036    4.9096 C   0  0  0  0  0  0  0  0  0  0  0  0
    4.3142   -3.1291    1.2306 C   0  0  0  0  0  0  0  0  0  0  0  0
    4.9027   -3.4995    5.8300 C   0  0  0  0  0  0  0  0  0  0  0  0
    4.5313   -1.7527    1.2924 C   0  0  0  0  0  0  0  0  0  0  0  0
    5.1096   -2.2382    6.0181 N   0  0  0  0  0  0  0  0  0  0  0  0
    5.3813   -0.2031    5.0177 O   0  0  0  0  0  0  0  0  0  0  0  0
    4.8435   -4.3479    6.8847 N   0  0  0  0  0  0  0  0  0  0  0  0
    4.3511   -0.8652    0.0801 C   0  0  2  0  0  0  0  0  0  0  0  0
    2.9211   -0.2874   -0.0430 C   0  0  2  0  0  0  0  0  0  0  0  0
    4.6683   -1.5845   -1.1236 O   0  0  0  0  0  0  0  0  0  0  0  0
    2.4299    0.4588    1.1906 C   0  0  0  0  0  0  0  0  0  0  0  0
    2.0171   -1.3555   -0.3749 O   0  0  0  0  0  0  0  0  0  0  0  0
    4.4383   -5.0710    4.5444 H   0  0  0  0  0  0  0  0  0  0  0  0
    4.0659   -3.6219    0.2953 H   0  0  0  0  0  0  0  0  0  0  0  0
    5.3184   -5.2329    6.7588 H   0  0  0  0  0  0  0  0  0  0  0  0
    5.1445   -3.8874    7.7413 H   0  0  0  0  0  0  0  0  0  0  0  0
    5.0685   -0.0393    0.1532 H   0  0  0  0  0  0  0  0  0  0  0  0
    2.9019    0.3923   -0.9033 H   0  0  0  0  0  0  0  0  0  0  0  0
    3.8085   -1.8916   -1.4746 H   0  0  0  0  0  0  0  0  0  0  0  0
    2.2211   -0.2251    2.0199 H   0  0  0  0  0  0  0  0  0  0  0  0
    3.1552    1.2107    1.5161 H   0  0  0  0  0  0  0  0  0  0  0  0
    1.4845    0.9673    0.9723 H   0  0  0  0  0  0  0  0  0  0  0  0
    1.1124   -0.9953   -0.3243 H   0  0  0  0  0  0  0  0  0  0  0  0
  1  2  1  0  0  0  0
  1  3  2  0  0  0  0
  1  4  1  0  0  0  0
  2  5  2  0  0  0  0
  2  6  1  0  0  0  0
  3  7  1  0  0  0  0
  4 18  1  0  0  0  0
  5  9  1  0  0  0  0
  6 10  1  0  0  0  0
  6 11  2  0  0  0  0
  7  9  2  0  0  0  0
  7 19  1  0  0  0  0
  8 12  1  0  0  0  0
  8 10  2  0  0  0  0
  8  4  1  0  0  0  0
 12 20  1  0  0  0  0
 12 21  1  0  0  0  0
 13 15  1  0  0  0  0
 13 22  1  1  0  0  0
 13 14  1  0  0  0  0
 13  9  1  0  0  0  0
 14 23  1  6  0  0  0
 14 17  1  0  0  0  0
 14 16  1  0  0  0  0
 15 24  1  0  0  0  0
 16 25  1  0  0  0  0
 16 26  1  0  0  0  0
 16 27  1  0  0  0  0
 17 28  1  0  0  0  0
M  END
>  <Mol_ID>
8017

>  <Formula>
C9H11N5O3

>  <MolWeight>
237.21534

>  <Cat>
S5577

>  <Name>
6-Biopterin

>  <Synonyms>
L-Biopterin, L-Erythro-Biopterin

>  <Target>
NOS

>  <Form>
free base

>  <CAS>
22150-76-1

>  <URL>
https://www.selleckchem.com/products/6-biopterin.html

$$$$
