S5579 Chelidonic acid.cdx
 OpenBabel08302520013D

 17 17  0  0  0  0  0  0  0  0999 V2000
    0.9662   -0.0097   -0.0990 C   0  0  0  0  0  0  0  0  0  0  0  0
    0.3183   -1.1247   -0.8359 C   0  0  0  0  0  0  0  0  0  0  0  0
    0.7569   -2.3687   -0.6109 C   0  0  0  0  0  0  0  0  0  0  0  0
    0.1206   -3.4805   -1.3331 C   0  0  0  0  0  0  0  0  0  0  0  0
    0.4809   -4.6374   -1.1688 O   0  0  0  0  0  0  0  0  0  0  0  0
   -0.9689   -3.1458   -2.2611 C   0  0  0  0  0  0  0  0  0  0  0  0
   -1.3191   -1.8613   -2.4017 C   0  0  0  0  0  0  0  0  0  0  0  0
   -0.7079   -0.8210   -1.7165 O   0  0  0  0  0  0  0  0  0  0  0  0
   -2.4205   -1.5486   -3.3394 C   0  0  0  0  0  0  0  0  0  0  0  0
    1.8870   -0.1461    0.6885 O   0  0  0  0  0  0  0  0  0  0  0  0
    0.4170    1.1868   -0.3990 O   0  0  0  0  0  0  0  0  0  0  0  0
   -3.0532   -2.3424   -4.0099 O   0  0  0  0  0  0  0  0  0  0  0  0
   -2.6759   -0.2286   -3.3836 O   0  0  0  0  0  0  0  0  0  0  0  0
    1.5585   -2.6146    0.0777 H   0  0  0  0  0  0  0  0  0  0  0  0
   -1.4408   -3.9658   -2.7908 H   0  0  0  0  0  0  0  0  0  0  0  0
   -0.3209    1.1261   -1.0383 H   0  0  0  0  0  0  0  0  0  0  0  0
   -3.4128   -0.1528   -4.0271 H   0  0  0  0  0  0  0  0  0  0  0  0
  1  2  1  0  0  0  0
  1 10  2  0  0  0  0
  1 11  1  0  0  0  0
  2  3  2  0  0  0  0
  2  8  1  0  0  0  0
  3  4  1  0  0  0  0
  3 14  1  0  0  0  0
  4  5  2  0  0  0  0
  4  6  1  0  0  0  0
  6  7  2  0  0  0  0
  6 15  1  0  0  0  0
  7  8  1  0  0  0  0
  7  9  1  0  0  0  0
  9 12  2  0  0  0  0
  9 13  1  0  0  0  0
 11 16  1  0  0  0  0
 13 17  1  0  0  0  0
M  END
>  <Mol_ID>
3073

>  <Formula>
C7H4O6

>  <MolWeight>
184.10306

>  <Cat>
S5579

>  <Name>
Chelidonic acid

>  <Synonyms>
Jerva acid, Jervaic acid, ¦Ã-Pyrone-2,6-dicarboxylic acid

>  <Target>
Caspase,Decarboxylase,Immunology & Inflammation related,Interleukins,NF-¦ÊB

>  <Form>
free base

>  <CAS>
99-32-1

>  <URL>
http://selleckchem.com/products/chelidonic-acid.html

$$$$
