S5581 Olmesartan.cdx
 OpenBabel08302520143D

 59 62  0  0  0  0  0  0  0  0999 V2000
   -0.1851   -1.1789   -0.0206 N   0  0  0  0  0  0  0  0  0  0  0  0
    1.1272   -0.7337    0.1210 C   0  0  0  0  0  0  0  0  0  0  0  0
   -0.9946   -0.0594   -0.1159 C   0  0  0  0  0  0  0  0  0  0  0  0
   -0.6486   -2.5664   -0.0526 C   0  0  0  0  0  0  0  0  0  0  0  0
    1.0402    0.6466    0.0211 C   0  0  0  0  0  0  0  0  0  0  0  0
    2.3333   -1.5113    0.2411 C   0  0  0  0  0  0  0  0  0  0  0  0
   -0.2662    1.0326   -0.1015 N   0  0  0  0  0  0  0  0  0  0  0  0
   -2.4820   -0.0337   -0.2460 C   0  0  0  0  0  0  0  0  0  0  0  0
   -0.1275   -3.3475   -1.2302 C   0  0  0  0  0  0  0  0  0  0  0  0
    2.1294    1.6990    0.0284 C   0  0  0  0  0  0  0  0  0  0  0  0
    2.2463   -2.4221    1.2504 O   0  0  0  0  0  0  0  0  0  0  0  0
    3.3252   -1.4282   -0.4596 O   0  0  0  0  0  0  0  0  0  0  0  0
   -3.1668    0.0688    1.1166 C   0  0  0  0  0  0  0  0  0  0  0  0
    1.0187   -4.1387   -1.1111 C   0  0  0  0  0  0  0  0  0  0  0  0
   -0.7778   -3.3257   -2.4666 C   0  0  0  0  0  0  0  0  0  0  0  0
    2.5972    1.9844   -1.4053 C   0  0  0  0  0  0  0  0  0  0  0  0
    1.6289    2.9986    0.6726 C   0  0  0  0  0  0  0  0  0  0  0  0
    3.2486    1.2776    0.8194 O   0  0  0  0  0  0  0  0  0  0  0  0
   -4.6730    0.2225    0.9664 C   0  0  0  0  0  0  0  0  0  0  0  0
    1.4987   -4.8872   -2.1874 C   0  0  0  0  0  0  0  0  0  0  0  0
   -0.2852   -4.0749   -3.5487 C   0  0  0  0  0  0  0  0  0  0  0  0
    0.8403   -4.9092   -3.4260 C   0  0  0  0  0  0  0  0  0  0  0  0
    1.3297   -5.8119   -4.5090 C   0  0  0  0  0  0  0  0  0  0  0  0
    0.4942   -6.6075   -5.3400 C   0  0  0  0  0  0  0  0  0  0  0  0
    2.7308   -5.9318   -4.6970 C   0  0  0  0  0  0  0  0  0  0  0  0
   -0.9668   -6.6195   -5.2290 C   0  0  0  0  0  0  0  0  0  0  0  0
    1.0822   -7.4617   -6.3026 C   0  0  0  0  0  0  0  0  0  0  0  0
    3.2916   -6.8021   -5.6333 C   0  0  0  0  0  0  0  0  0  0  0  0
   -1.8228   -6.6387   -6.2987 N   0  0  0  0  0  0  0  0  0  0  0  0
   -1.7178   -6.5787   -4.1441 N   0  0  0  0  0  0  0  0  0  0  0  0
    2.4655   -7.5633   -6.4427 C   0  0  0  0  0  0  0  0  0  0  0  0
   -3.0930   -6.5385   -5.8881 N   0  0  0  0  0  0  0  0  0  0  0  0
   -3.0219   -6.5025   -4.5671 N   0  0  0  0  0  0  0  0  0  0  0  0
   -0.3583   -3.0322    0.8951 H   0  0  0  0  0  0  0  0  0  0  0  0
   -1.7423   -2.5795   -0.0586 H   0  0  0  0  0  0  0  0  0  0  0  0
   -2.7470    0.8481   -0.8450 H   0  0  0  0  0  0  0  0  0  0  0  0
   -2.8512   -0.8982   -0.8042 H   0  0  0  0  0  0  0  0  0  0  0  0
    1.4637   -2.2878    1.8124 H   0  0  0  0  0  0  0  0  0  0  0  0
   -2.9497   -0.8218    1.7181 H   0  0  0  0  0  0  0  0  0  0  0  0
   -2.7769    0.9297    1.6744 H   0  0  0  0  0  0  0  0  0  0  0  0
    1.5642   -4.2122   -0.1746 H   0  0  0  0  0  0  0  0  0  0  0  0
   -1.6956   -2.7568   -2.6023 H   0  0  0  0  0  0  0  0  0  0  0  0
    1.7788    2.3756   -2.0221 H   0  0  0  0  0  0  0  0  0  0  0  0
    3.4151    2.7131   -1.4200 H   0  0  0  0  0  0  0  0  0  0  0  0
    2.9769    1.0772   -1.8904 H   0  0  0  0  0  0  0  0  0  0  0  0
    1.2794    2.8131    1.6956 H   0  0  0  0  0  0  0  0  0  0  0  0
    2.4338    3.7378    0.7457 H   0  0  0  0  0  0  0  0  0  0  0  0
    0.8035    3.4444    0.1068 H   0  0  0  0  0  0  0  0  0  0  0  0
    3.9918    1.8700    0.6133 H   0  0  0  0  0  0  0  0  0  0  0  0
   -5.1038   -0.6309    0.4333 H   0  0  0  0  0  0  0  0  0  0  0  0
   -5.1503    0.2866    1.9494 H   0  0  0  0  0  0  0  0  0  0  0  0
   -4.9201    1.1340    0.4118 H   0  0  0  0  0  0  0  0  0  0  0  0
    2.3952   -5.4820   -2.0224 H   0  0  0  0  0  0  0  0  0  0  0  0
   -0.8401   -4.0289   -4.4830 H   0  0  0  0  0  0  0  0  0  0  0  0
    3.4174   -5.3416   -4.0895 H   0  0  0  0  0  0  0  0  0  0  0  0
    0.4660   -8.0985   -6.9344 H   0  0  0  0  0  0  0  0  0  0  0  0
    4.3726   -6.8869   -5.7161 H   0  0  0  0  0  0  0  0  0  0  0  0
   -1.6192   -6.6874   -7.2877 H   0  0  0  0  0  0  0  0  0  0  0  0
    2.8958   -8.2464   -7.1707 H   0  0  0  0  0  0  0  0  0  0  0  0
  1  2  1  0  0  0  0
  1  3  1  0  0  0  0
  1  4  1  0  0  0  0
  2  5  2  0  0  0  0
  2  6  1  0  0  0  0
  3  7  2  0  0  0  0
  3  8  1  0  0  0  0
  4  9  1  0  0  0  0
  4 34  1  0  0  0  0
  4 35  1  0  0  0  0
  5 10  1  0  0  0  0
  5  7  1  0  0  0  0
  6 11  1  0  0  0  0
  6 12  2  0  0  0  0
  8 13  1  0  0  0  0
  8 36  1  0  0  0  0
  8 37  1  0  0  0  0
  9 14  2  0  0  0  0
  9 15  1  0  0  0  0
 10 16  1  0  0  0  0
 10 17  1  0  0  0  0
 10 18  1  0  0  0  0
 11 38  1  0  0  0  0
 13 19  1  0  0  0  0
 13 39  1  0  0  0  0
 13 40  1  0  0  0  0
 14 20  1  0  0  0  0
 14 41  1  0  0  0  0
 15 21  2  0  0  0  0
 15 42  1  0  0  0  0
 16 43  1  0  0  0  0
 16 44  1  0  0  0  0
 16 45  1  0  0  0  0
 17 46  1  0  0  0  0
 17 47  1  0  0  0  0
 17 48  1  0  0  0  0
 18 49  1  0  0  0  0
 19 50  1  0  0  0  0
 19 51  1  0  0  0  0
 19 52  1  0  0  0  0
 20 22  2  0  0  0  0
 20 53  1  0  0  0  0
 21 22  1  0  0  0  0
 21 54  1  0  0  0  0
 22 23  1  0  0  0  0
 23 24  1  0  0  0  0
 23 25  2  0  0  0  0
 24 26  1  0  0  0  0
 24 27  2  0  0  0  0
 25 28  1  0  0  0  0
 25 55  1  0  0  0  0
 26 29  1  0  0  0  0
 26 30  2  0  0  0  0
 27 31  1  0  0  0  0
 27 56  1  0  0  0  0
 28 31  2  0  0  0  0
 28 57  1  0  0  0  0
 29 32  1  0  0  0  0
 29 58  1  0  0  0  0
 30 33  1  0  0  0  0
 31 59  1  0  0  0  0
 32 33  2  0  0  0  0
M  END
>  <Mol_ID>
3209

>  <Formula>
C24H26N6O3

>  <MolWeight>
446.50164

>  <Cat>
S5581

>  <Name>
Olmesartan

>  <Synonyms>
RNH-6270

>  <Target>
Angiotensin Receptor

>  <Form>
free base

>  <CAS>
144689-24-7

>  <URL>
https://www.selleckchem.com/products/olmesartan.html

$$$$
