S5586 3-Hydroxycinnamic acid.cdx
 OpenBabel08302520013D

 20 20  0  0  0  0  0  0  0  0999 V2000
   -1.3132   -1.1423    0.0144 C   0  0  0  0  0  0  0  0  0  0  0  0
    0.0878   -1.2255    0.0050 C   0  0  0  0  0  0  0  0  0  0  0  0
   -1.9114    0.1272   -0.0046 C   0  0  0  0  0  0  0  0  0  0  0  0
   -2.1010   -2.3866   -0.0081 C   0  0  0  0  0  0  0  0  0  0  0  0
    0.8570   -0.0616    0.0085 C   0  0  0  0  0  0  0  0  0  0  0  0
   -1.1300    1.2865    0.0007 C   0  0  0  0  0  0  0  0  0  0  0  0
   -3.3207   -2.5213    0.5382 C   0  0  0  0  0  0  0  0  0  0  0  0
    0.2586    1.1910    0.0106 C   0  0  0  0  0  0  0  0  0  0  0  0
    2.2206   -0.1076    0.0092 O   0  0  0  0  0  0  0  0  0  0  0  0
   -4.0140   -3.8242    0.4724 C   0  0  0  0  0  0  0  0  0  0  0  0
   -5.2241   -3.7833    1.0636 O   0  0  0  0  0  0  0  0  0  0  0  0
   -3.5599   -4.8268   -0.0504 O   0  0  0  0  0  0  0  0  0  0  0  0
    0.5720   -2.1981    0.0031 H   0  0  0  0  0  0  0  0  0  0  0  0
   -2.9919    0.2370   -0.0363 H   0  0  0  0  0  0  0  0  0  0  0  0
   -1.6254   -3.2417   -0.4888 H   0  0  0  0  0  0  0  0  0  0  0  0
   -1.6050    2.2642   -0.0092 H   0  0  0  0  0  0  0  0  0  0  0  0
   -3.8109   -1.7019    1.0435 H   0  0  0  0  0  0  0  0  0  0  0  0
    0.8718    2.0877    0.0125 H   0  0  0  0  0  0  0  0  0  0  0  0
    2.5040   -1.0364   -0.0090 H   0  0  0  0  0  0  0  0  0  0  0  0
   -5.4785   -2.9274    1.4518 H   0  0  0  0  0  0  0  0  0  0  0  0
  1  2  2  0  0  0  0
  1  3  1  0  0  0  0
  1  4  1  0  0  0  0
  2  5  1  0  0  0  0
  2 13  1  0  0  0  0
  3  6  2  0  0  0  0
  3 14  1  0  0  0  0
  4  7  2  0  0  0  0
  4 15  1  0  0  0  0
  5  8  2  0  0  0  0
  5  9  1  0  0  0  0
  6  8  1  0  0  0  0
  6 16  1  0  0  0  0
  7 10  1  0  0  0  0
  7 17  1  0  0  0  0
  8 18  1  0  0  0  0
  9 19  1  0  0  0  0
 10 11  1  0  0  0  0
 10 12  2  0  0  0  0
 11 20  1  0  0  0  0
M  END
>  <Mol_ID>
3078

>  <Formula>
C9H8O3

>  <MolWeight>
164.15802

>  <Cat>
S5586

>  <Name>
3-Hydroxycinnamic acid

>  <Synonyms>
meta-Coumaric acid, m-Coumaric acid, m-Coumarate

>  <Target>
Others

>  <Form>
free base

>  <CAS>
14755-02-3

>  <URL>
http://selleckchem.com/products/3-hydroxycinnamic-acid.html

$$$$
