S5585 Citronellal.cdx
 OpenBabel08302520013D

 29 28  0  0  0  0  0  0  0  0999 V2000
    1.1176   -0.0499    0.0470 C   0  0  3  0  0  0  0  0  0  0  0  0
    0.6290   -0.7363   -1.2481 C   0  0  0  0  0  0  0  0  0  0  0  0
    0.4486    1.3258    0.2319 C   0  0  0  0  0  0  0  0  0  0  0  0
    2.6371    0.1489    0.0369 C   0  0  0  0  0  0  0  0  0  0  0  0
    1.2113   -2.1390   -1.4878 C   0  0  0  0  0  0  0  0  0  0  0  0
   -1.0495    1.2750    0.4178 C   0  0  0  0  0  0  0  0  0  0  0  0
    0.6511   -2.7144   -2.7621 C   0  0  0  0  0  0  0  0  0  0  0  0
   -1.6595    0.3124    0.8775 O   0  0  0  0  0  0  0  0  0  0  0  0
    1.3459   -3.1383   -3.8368 C   0  0  0  0  0  0  0  0  0  0  0  0
    0.6345   -3.5737   -5.0893 C   0  0  0  0  0  0  0  0  0  0  0  0
    2.8472   -3.1949   -3.8906 C   0  0  0  0  0  0  0  0  0  0  0  0
    0.8578   -0.6904    0.9012 H   0  0  0  0  0  0  0  0  0  0  0  0
   -0.4630   -0.8190   -1.2187 H   0  0  0  0  0  0  0  0  0  0  0  0
    0.8657   -0.0932   -2.1071 H   0  0  0  0  0  0  0  0  0  0  0  0
    0.8563    1.8426    1.1105 H   0  0  0  0  0  0  0  0  0  0  0  0
    0.6492    1.9594   -0.6388 H   0  0  0  0  0  0  0  0  0  0  0  0
    2.9704    0.6521    0.9508 H   0  0  0  0  0  0  0  0  0  0  0  0
    3.1701   -0.8039   -0.0160 H   0  0  0  0  0  0  0  0  0  0  0  0
    2.9454    0.7616   -0.8175 H   0  0  0  0  0  0  0  0  0  0  0  0
    2.3024   -2.0938   -1.5359 H   0  0  0  0  0  0  0  0  0  0  0  0
    0.9505   -2.7977   -0.6514 H   0  0  0  0  0  0  0  0  0  0  0  0
   -1.5811    2.2103    0.1723 H   0  0  0  0  0  0  0  0  0  0  0  0
   -0.4379   -2.7568   -2.7983 H   0  0  0  0  0  0  0  0  0  0  0  0
    1.0099   -3.0091   -5.9502 H   0  0  0  0  0  0  0  0  0  0  0  0
    0.7956   -4.6405   -5.2731 H   0  0  0  0  0  0  0  0  0  0  0  0
   -0.4450   -3.3963   -5.0332 H   0  0  0  0  0  0  0  0  0  0  0  0
    3.2802   -2.1929   -3.8132 H   0  0  0  0  0  0  0  0  0  0  0  0
    3.2404   -3.8234   -3.0845 H   0  0  0  0  0  0  0  0  0  0  0  0
    3.1941   -3.6311   -4.8337 H   0  0  0  0  0  0  0  0  0  0  0  0
  1  2  1  0  0  0  0
  1  3  1  0  0  0  0
  1  4  1  0  0  0  0
  1 12  1  0  0  0  0
  2  5  1  0  0  0  0
  2 13  1  0  0  0  0
  2 14  1  0  0  0  0
  3  6  1  0  0  0  0
  3 15  1  0  0  0  0
  3 16  1  0  0  0  0
  4 17  1  0  0  0  0
  4 18  1  0  0  0  0
  4 19  1  0  0  0  0
  5  7  1  0  0  0  0
  5 20  1  0  0  0  0
  5 21  1  0  0  0  0
  6  8  2  0  0  0  0
  6 22  1  0  0  0  0
  7  9  2  0  0  0  0
  7 23  1  0  0  0  0
  9 10  1  0  0  0  0
  9 11  1  0  0  0  0
 10 24  1  0  0  0  0
 10 25  1  0  0  0  0
 10 26  1  0  0  0  0
 11 27  1  0  0  0  0
 11 28  1  0  0  0  0
 11 29  1  0  0  0  0
M  END
>  <Mol_ID>
3077

>  <Formula>
C10H18O

>  <MolWeight>
154.24932

>  <Cat>
S5585

>  <Name>
Citronellal

>  <Synonyms>
Rhodinal; 2,3-Dihydrocitral

>  <Target>
Others

>  <Form>
free base

>  <CAS>
106-23-0

>  <URL>
https://www.selleckchem.com/products/citronellal-rhodinal.html

$$$$
