S5588 Creatine.cdx
 OpenBabel08302521383D

 18 17  0  0  0  0  0  0  0  0999 V2000
    0.8968    0.0233    0.1289 N   0  0  0  0  0  0  0  0  0  0  0  0
    0.2029   -1.2031    0.5824 C   0  0  0  0  0  0  0  0  0  0  0  0
    0.2069    0.9923   -0.5273 C   0  0  0  0  0  0  0  0  0  0  0  0
    2.3538   -0.0520    0.0872 C   0  0  0  0  0  0  0  0  0  0  0  0
    0.0169   -2.2528   -0.5074 C   0  0  0  0  0  0  0  0  0  0  0  0
    0.7712    2.2142   -0.5385 N   0  0  0  0  0  0  0  0  0  0  0  0
   -0.9023    0.7343   -1.1268 N   0  0  0  0  0  0  0  0  0  0  0  0
   -0.3955   -1.7716   -1.7013 O   0  0  0  0  0  0  0  0  0  0  0  0
    0.1730   -3.4543   -0.3125 O   0  0  0  0  0  0  0  0  0  0  0  0
    0.7751   -1.6598    1.3990 H   0  0  0  0  0  0  0  0  0  0  0  0
   -0.7832   -0.9543    0.9913 H   0  0  0  0  0  0  0  0  0  0  0  0
    2.7288   -1.0151    0.4509 H   0  0  0  0  0  0  0  0  0  0  0  0
    2.7204    0.0787   -0.9368 H   0  0  0  0  0  0  0  0  0  0  0  0
    2.7910    0.7283    0.7191 H   0  0  0  0  0  0  0  0  0  0  0  0
    0.1543    2.9815   -0.7729 H   0  0  0  0  0  0  0  0  0  0  0  0
    1.3029    2.4201    0.2976 H   0  0  0  0  0  0  0  0  0  0  0  0
   -1.2481    1.5934   -1.5673 H   0  0  0  0  0  0  0  0  0  0  0  0
   -0.5767   -0.7952   -1.6283 H   0  0  0  0  0  0  0  0  0  0  0  0
  1  2  1  0  0  0  0
  1  3  1  0  0  0  0
  1  4  1  0  0  0  0
  2  5  1  0  0  0  0
  2 10  1  0  0  0  0
  2 11  1  0  0  0  0
  3  6  1  0  0  0  0
  3  7  2  0  0  0  0
  4 12  1  0  0  0  0
  4 13  1  0  0  0  0
  4 14  1  0  0  0  0
  5  8  1  0  0  0  0
  5  9  2  0  0  0  0
  6 15  1  0  0  0  0
  6 16  1  0  0  0  0
  7 17  1  0  0  0  0
  8 18  1  0  0  0  0
M  END
>  <Mol_ID>
7840

>  <Formula>
C4H9N3O2

>  <MolWeight>
131.13316

>  <Cat>
S5588

>  <Name>
Creatine

>  <Synonyms>
Methylguanidoacetic acid

>  <Target>
IFN,JAK

>  <Form>
free base

>  <CAS>
57-00-1

>  <URL>
http://selleckchem.com/products/creatine.html

$$$$
