S5595 3-Carene.cdx
 OpenBabel08302520013D

 26 27  0  0  0  0  0  0  0  0999 V2000
    0.6762   -0.7915    0.2011 C   0  0  3  0  0  0  0  0  0  0  0  0
    0.7770    0.6299   -0.3838 C   0  0  3  0  0  0  0  0  0  0  0  0
    2.0045   -0.2374   -0.2284 C   0  0  0  0  0  0  0  0  0  0  0  0
   -0.5239   -1.4207   -0.4365 C   0  0  0  0  0  0  0  0  0  0  0  0
   -0.2391    1.4055    0.4013 C   0  0  0  0  0  0  0  0  0  0  0  0
    3.0072    0.1485    0.8199 C   0  0  0  0  0  0  0  0  0  0  0  0
    2.6166   -0.8098   -1.4832 C   0  0  0  0  0  0  0  0  0  0  0  0
   -1.7346   -0.4980   -0.2958 C   0  0  0  0  0  0  0  0  0  0  0  0
   -1.6242    0.7930    0.1137 C   0  0  0  0  0  0  0  0  0  0  0  0
   -2.8011    1.7162    0.1953 C   0  0  0  0  0  0  0  0  0  0  0  0
    0.5933   -0.9228    1.2821 H   0  0  0  0  0  0  0  0  0  0  0  0
    0.5601    0.8208   -1.4377 H   0  0  0  0  0  0  0  0  0  0  0  0
   -0.3531   -1.6444   -1.4945 H   0  0  0  0  0  0  0  0  0  0  0  0
   -0.7424   -2.3680    0.0710 H   0  0  0  0  0  0  0  0  0  0  0  0
   -0.2171    2.4493    0.0707 H   0  0  0  0  0  0  0  0  0  0  0  0
   -0.0397    1.3963    1.4797 H   0  0  0  0  0  0  0  0  0  0  0  0
    3.5933   -0.7264    1.1254 H   0  0  0  0  0  0  0  0  0  0  0  0
    3.6995    0.8994    0.4234 H   0  0  0  0  0  0  0  0  0  0  0  0
    2.5345    0.5664    1.7144 H   0  0  0  0  0  0  0  0  0  0  0  0
    1.8620   -1.0515   -2.2401 H   0  0  0  0  0  0  0  0  0  0  0  0
    3.3097   -0.0892   -1.9290 H   0  0  0  0  0  0  0  0  0  0  0  0
    3.1670   -1.7283   -1.2564 H   0  0  0  0  0  0  0  0  0  0  0  0
   -2.7020   -0.9201   -0.5543 H   0  0  0  0  0  0  0  0  0  0  0  0
   -2.9132    2.1116    1.2075 H   0  0  0  0  0  0  0  0  0  0  0  0
   -2.6661    2.5558   -0.4970 H   0  0  0  0  0  0  0  0  0  0  0  0
   -3.7346    1.2134   -0.0803 H   0  0  0  0  0  0  0  0  0  0  0  0
  1  2  1  0  0  0  0
  1  3  1  0  0  0  0
  1  4  1  0  0  0  0
  1 11  1  0  0  0  0
  2  5  1  0  0  0  0
  2  3  1  0  0  0  0
  2 12  1  0  0  0  0
  3  6  1  0  0  0  0
  3  7  1  0  0  0  0
  4  8  1  0  0  0  0
  4 13  1  0  0  0  0
  4 14  1  0  0  0  0
  5  9  1  0  0  0  0
  5 15  1  0  0  0  0
  5 16  1  0  0  0  0
  6 17  1  0  0  0  0
  6 18  1  0  0  0  0
  6 19  1  0  0  0  0
  7 20  1  0  0  0  0
  7 21  1  0  0  0  0
  7 22  1  0  0  0  0
  8  9  2  0  0  0  0
  8 23  1  0  0  0  0
  9 10  1  0  0  0  0
 10 24  1  0  0  0  0
 10 25  1  0  0  0  0
 10 26  1  0  0  0  0
M  END
>  <Mol_ID>
3080

>  <Formula>
C10H16

>  <MolWeight>
136.23404

>  <Cat>
S5595

>  <Name>
3-Carene

>  <Synonyms>
Carene, Delta-3-Carene

>  <Target>
COX,phosphatase

>  <Form>
free base

>  <CAS>
13466-78-9

>  <URL>
http://selleckchem.com/products/3-carene.html

$$$$
