S5597 (1R)-(-)-Menthyl acetate.cdx
 OpenBabel08302520013D

 36 36  0  0  0  0  0  0  0  0999 V2000
    5.0254    0.2259   -0.0384 C   0  0  0  0  0  0  0  0  0  0  0  0
    6.4531    0.2277    0.4541 C   0  0  0  0  0  0  0  0  0  0  0  0
    4.4408    1.2406   -0.4267 O   0  0  0  0  0  0  0  0  0  0  0  0
    4.4847   -1.0081    0.0014 O   0  0  0  0  0  0  0  0  0  0  0  0
    3.0954   -1.2105   -0.4107 C   0  0  1  0  0  0  0  0  0  0  0  0
    2.9780   -1.3049   -1.9676 C   0  0  1  0  0  0  0  0  0  0  0  0
    3.7812   -2.5349   -2.4399 C   0  0  0  0  0  0  0  0  0  0  0  0
    3.3915   -3.8475   -1.7598 C   0  0  0  0  0  0  0  0  0  0  0  0
    3.3780   -3.7780   -0.2277 C   0  0  2  0  0  0  0  0  0  0  0  0
    2.6667   -2.5144    0.2934 C   0  0  0  0  0  0  0  0  0  0  0  0
    4.7949   -3.9274    0.3425 C   0  0  0  0  0  0  0  0  0  0  0  0
    1.4999   -1.2343   -2.5057 C   0  0  0  0  0  0  0  0  0  0  0  0
    0.8669    0.1347   -2.1943 C   0  0  0  0  0  0  0  0  0  0  0  0
    1.3281   -1.4650   -4.0220 C   0  0  0  0  0  0  0  0  0  0  0  0
    7.1155    0.5818   -0.3407 H   0  0  0  0  0  0  0  0  0  0  0  0
    6.5431    0.8746    1.3294 H   0  0  0  0  0  0  0  0  0  0  0  0
    6.7842   -0.7776    0.7415 H   0  0  0  0  0  0  0  0  0  0  0  0
    2.4910   -0.3911   -0.0091 H   0  0  0  0  0  0  0  0  0  0  0  0
    3.4999   -0.4360   -2.3901 H   0  0  0  0  0  0  0  0  0  0  0  0
    4.8427   -2.3468   -2.2330 H   0  0  0  0  0  0  0  0  0  0  0  0
    3.7198   -2.6517   -3.5264 H   0  0  0  0  0  0  0  0  0  0  0  0
    4.0876   -4.6304   -2.0849 H   0  0  0  0  0  0  0  0  0  0  0  0
    2.3997   -4.1593   -2.1162 H   0  0  0  0  0  0  0  0  0  0  0  0
    2.8163   -4.6471    0.1411 H   0  0  0  0  0  0  0  0  0  0  0  0
    1.5820   -2.6537    0.2021 H   0  0  0  0  0  0  0  0  0  0  0  0
    2.8728   -2.4194    1.3690 H   0  0  0  0  0  0  0  0  0  0  0  0
    5.4817   -3.1624   -0.0271 H   0  0  0  0  0  0  0  0  0  0  0  0
    4.7826   -3.8761    1.4363 H   0  0  0  0  0  0  0  0  0  0  0  0
    5.2201   -4.8975    0.0621 H   0  0  0  0  0  0  0  0  0  0  0  0
    0.8994   -2.0024   -2.0047 H   0  0  0  0  0  0  0  0  0  0  0  0
    1.4290    0.9494   -2.6661 H   0  0  0  0  0  0  0  0  0  0  0  0
   -0.1626    0.1859   -2.5679 H   0  0  0  0  0  0  0  0  0  0  0  0
    0.8224    0.3256   -1.1209 H   0  0  0  0  0  0  0  0  0  0  0  0
    1.6322   -2.4699   -4.3270 H   0  0  0  0  0  0  0  0  0  0  0  0
    0.2689   -1.3690   -4.3009 H   0  0  0  0  0  0  0  0  0  0  0  0
    1.8804   -0.7326   -4.6202 H   0  0  0  0  0  0  0  0  0  0  0  0
  1  2  1  0  0  0  0
  1  3  2  0  0  0  0
  1  4  1  0  0  0  0
  2 15  1  0  0  0  0
  2 16  1  0  0  0  0
  2 17  1  0  0  0  0
  5  6  1  0  0  0  0
  5 10  1  0  0  0  0
  5 18  1  1  0  0  0
  5  4  1  0  0  0  0
  6  7  1  0  0  0  0
  6 19  1  6  0  0  0
  6 12  1  0  0  0  0
  7  8  1  0  0  0  0
  7 20  1  0  0  0  0
  7 21  1  0  0  0  0
  8  9  1  0  0  0  0
  8 22  1  0  0  0  0
  8 23  1  0  0  0  0
  9 10  1  0  0  0  0
  9 24  1  1  0  0  0
  9 11  1  0  0  0  0
 10 25  1  0  0  0  0
 10 26  1  0  0  0  0
 11 27  1  0  0  0  0
 11 28  1  0  0  0  0
 11 29  1  0  0  0  0
 12 13  1  0  0  0  0
 12 14  1  0  0  0  0
 12 30  1  0  0  0  0
 13 31  1  0  0  0  0
 13 32  1  0  0  0  0
 13 33  1  0  0  0  0
 14 34  1  0  0  0  0
 14 35  1  0  0  0  0
 14 36  1  0  0  0  0
M  END
>  <Mol_ID>
3082

>  <Formula>
C12H22O2

>  <MolWeight>
198.30188

>  <Cat>
S5597

>  <Name>
(1R)-(-)-Menthyl acetate

>  <Synonyms>
N/A

>  <Target>
Others

>  <Form>
free base

>  <CAS>
2623-23-6

>  <URL>
https://www.selleckchem.com/products/1r-menthyl-acetate.html

$$$$
