S5596 (1S)-(-)-¦Á-Pinene.cdx
 OpenBabel08302520013D

 26 27  0  0  0  0  0  0  0  0999 V2000
   -0.5307   -1.0692    0.0575 C   0  0  1  0  0  0  0  0  0  0  0  0
   -0.9746   -0.0460    1.1973 C   0  0  0  0  0  0  0  0  0  0  0  0
   -1.0847   -0.0030   -0.9568 C   0  0  0  0  0  0  0  0  0  0  0  0
    0.9671   -1.1912   -0.0839 C   0  0  0  0  0  0  0  0  0  0  0  0
   -0.5936    1.0405    0.0989 C   0  0  2  0  0  0  0  0  0  0  0  0
   -2.4679   -0.0899    1.5751 C   0  0  0  0  0  0  0  0  0  0  0  0
   -0.1700   -0.0376    2.5053 C   0  0  0  0  0  0  0  0  0  0  0  0
    1.6449   -0.0278   -0.1684 C   0  0  0  0  0  0  0  0  0  0  0  0
    1.5851   -2.5496   -0.0808 C   0  0  0  0  0  0  0  0  0  0  0  0
    0.9172    1.3000   -0.0813 C   0  0  0  0  0  0  0  0  0  0  0  0
   -1.0493   -2.0322    0.0457 H   0  0  0  0  0  0  0  0  0  0  0  0
   -0.6110    0.0382   -1.9443 H   0  0  0  0  0  0  0  0  0  0  0  0
   -2.1658   -0.0336   -1.1303 H   0  0  0  0  0  0  0  0  0  0  0  0
   -1.1728    1.9693    0.1365 H   0  0  0  0  0  0  0  0  0  0  0  0
   -2.6924   -0.9986    2.1447 H   0  0  0  0  0  0  0  0  0  0  0  0
   -2.7293    0.7727    2.1987 H   0  0  0  0  0  0  0  0  0  0  0  0
   -3.1391   -0.0775    0.7127 H   0  0  0  0  0  0  0  0  0  0  0  0
    0.9092   -0.1079    2.3644 H   0  0  0  0  0  0  0  0  0  0  0  0
   -0.3599    0.8869    3.0631 H   0  0  0  0  0  0  0  0  0  0  0  0
   -0.4601   -0.8811    3.1423 H   0  0  0  0  0  0  0  0  0  0  0  0
    2.7268   -0.0101   -0.2562 H   0  0  0  0  0  0  0  0  0  0  0  0
    1.2754   -3.1034    0.8123 H   0  0  0  0  0  0  0  0  0  0  0  0
    1.2732   -3.1133   -0.9653 H   0  0  0  0  0  0  0  0  0  0  0  0
    2.6785   -2.4960   -0.0781 H   0  0  0  0  0  0  0  0  0  0  0  0
    1.3035    1.8800    0.7626 H   0  0  0  0  0  0  0  0  0  0  0  0
    1.0949    1.8749   -0.9965 H   0  0  0  0  0  0  0  0  0  0  0  0
  1  2  1  0  0  0  0
  1  3  1  0  0  0  0
  1  4  1  0  0  0  0
  1 11  1  1  0  0  0
  2  5  1  0  0  0  0
  2  6  1  0  0  0  0
  2  7  1  0  0  0  0
  3 12  1  0  0  0  0
  3 13  1  0  0  0  0
  4  8  2  0  0  0  0
  4  9  1  0  0  0  0
  5  3  1  0  0  0  0
  5 10  1  0  0  0  0
  5 14  1  1  0  0  0
  6 15  1  0  0  0  0
  6 16  1  0  0  0  0
  6 17  1  0  0  0  0
  7 18  1  0  0  0  0
  7 19  1  0  0  0  0
  7 20  1  0  0  0  0
  8 10  1  0  0  0  0
  8 21  1  0  0  0  0
  9 22  1  0  0  0  0
  9 23  1  0  0  0  0
  9 24  1  0  0  0  0
 10 25  1  0  0  0  0
 10 26  1  0  0  0  0
M  END
>  <Mol_ID>
3081

>  <Formula>
C10H16

>  <MolWeight>
136.23404

>  <Cat>
S5596

>  <Name>
(1S)-(-)-¦Á-Pinene

>  <Synonyms>
N/A

>  <Target>
GABA Receptor

>  <Form>
free base

>  <CAS>
7785-26-4

>  <URL>
http://selleckchem.com/products/1s-alpha-pinene.html

$$$$
