S5594 ¦Á-Terpineol.cdx
 OpenBabel08302520013D

 29 29  0  0  0  0  0  0  0  0999 V2000
    0.9880    0.0722    0.1085 C   0  0  0  0  0  0  0  0  0  0  0  0
    2.5470    0.0515    0.0474 C   0  0  1  0  0  0  0  0  0  0  0  0
    0.4247   -1.1855    0.7864 C   0  0  0  0  0  0  0  0  0  0  0  0
    0.4550    1.3060    0.8512 C   0  0  0  0  0  0  0  0  0  0  0  0
    0.4762    0.1149   -1.2260 O   0  0  0  0  0  0  0  0  0  0  0  0
    3.0910   -1.1563   -0.7430 C   0  0  0  0  0  0  0  0  0  0  0  0
    3.1235    1.3519   -0.5645 C   0  0  0  0  0  0  0  0  0  0  0  0
    4.6205   -1.2050   -0.7570 C   0  0  0  0  0  0  0  0  0  0  0  0
    4.5844    1.2805   -0.9099 C   0  0  0  0  0  0  0  0  0  0  0  0
    5.2751    0.1310   -0.9859 C   0  0  0  0  0  0  0  0  0  0  0  0
    6.7401    0.0939   -1.3140 C   0  0  0  0  0  0  0  0  0  0  0  0
    2.9235   -0.0266    1.0777 H   0  0  0  0  0  0  0  0  0  0  0  0
    0.8179   -1.3045    1.8017 H   0  0  0  0  0  0  0  0  0  0  0  0
   -0.6694   -1.1383    0.8465 H   0  0  0  0  0  0  0  0  0  0  0  0
    0.6432   -2.0909    0.2127 H   0  0  0  0  0  0  0  0  0  0  0  0
    0.7136    2.2346    0.3318 H   0  0  0  0  0  0  0  0  0  0  0  0
   -0.6406    1.2907    0.8939 H   0  0  0  0  0  0  0  0  0  0  0  0
    0.8382    1.3543    1.8762 H   0  0  0  0  0  0  0  0  0  0  0  0
   -0.4935    0.1023   -1.1817 H   0  0  0  0  0  0  0  0  0  0  0  0
    2.7356   -2.0987   -0.3149 H   0  0  0  0  0  0  0  0  0  0  0  0
    2.7243   -1.1196   -1.7767 H   0  0  0  0  0  0  0  0  0  0  0  0
    2.9941    2.1709    0.1519 H   0  0  0  0  0  0  0  0  0  0  0  0
    2.5776    1.6296   -1.4738 H   0  0  0  0  0  0  0  0  0  0  0  0
    4.9319   -1.9088   -1.5383 H   0  0  0  0  0  0  0  0  0  0  0  0
    4.9801   -1.6072    0.1986 H   0  0  0  0  0  0  0  0  0  0  0  0
    5.0783    2.2285   -1.1050 H   0  0  0  0  0  0  0  0  0  0  0  0
    7.2972   -0.3757   -0.4974 H   0  0  0  0  0  0  0  0  0  0  0  0
    6.9085   -0.4838   -2.2285 H   0  0  0  0  0  0  0  0  0  0  0  0
    7.1520    1.0963   -1.4699 H   0  0  0  0  0  0  0  0  0  0  0  0
  1  3  1  0  0  0  0
  1  4  1  0  0  0  0
  1  5  1  0  0  0  0
  2  1  1  0  0  0  0
  2  6  1  0  0  0  0
  2  7  1  0  0  0  0
  2 12  1  1  0  0  0
  3 13  1  0  0  0  0
  3 14  1  0  0  0  0
  3 15  1  0  0  0  0
  4 16  1  0  0  0  0
  4 17  1  0  0  0  0
  4 18  1  0  0  0  0
  5 19  1  0  0  0  0
  6  8  1  0  0  0  0
  6 20  1  0  0  0  0
  6 21  1  0  0  0  0
  7  9  1  0  0  0  0
  7 22  1  0  0  0  0
  7 23  1  0  0  0  0
  8 10  1  0  0  0  0
  8 24  1  0  0  0  0
  8 25  1  0  0  0  0
  9 10  2  0  0  0  0
  9 26  1  0  0  0  0
 10 11  1  0  0  0  0
 11 27  1  0  0  0  0
 11 28  1  0  0  0  0
 11 29  1  0  0  0  0
M  END
>  <Mol_ID>
3079

>  <Formula>
C10H18O

>  <MolWeight>
154.24932

>  <Cat>
S5594

>  <Name>
¦Á-Terpineol

>  <Synonyms>
N/A

>  <Target>
Prostaglandin Receptor

>  <Form>
free base

>  <CAS>
10482-56-1

>  <URL>
http://selleckchem.com/products/alpha-terpineol.html

$$$$
