S5606 Sulfamide.cdx
 OpenBabel08302520303D

  9  8  0  0  0  0  0  0  0  0999 V2000
    0.9697    0.0131    0.1325 S   0  0  0  0  0  0  0  0  0  0  0  0
    0.3157    1.3284   -0.6439 N   0  0  0  0  0  0  0  0  0  0  0  0
    0.3910   -1.1234   -0.9110 N   0  0  0  0  0  0  0  0  0  0  0  0
    0.2608   -0.1065    1.3762 O   0  0  0  0  0  0  0  0  0  0  0  0
    2.3955    0.1043    0.0036 O   0  0  0  0  0  0  0  0  0  0  0  0
   -0.6475    1.4586   -0.3334 H   0  0  0  0  0  0  0  0  0  0  0  0
    0.8714    2.1522   -0.4026 H   0  0  0  0  0  0  0  0  0  0  0  0
   -0.6147   -1.2521   -0.8653 H   0  0  0  0  0  0  0  0  0  0  0  0
    0.7998   -1.0397   -1.8382 H   0  0  0  0  0  0  0  0  0  0  0  0
  1  2  1  0  0  0  0
  1  3  1  0  0  0  0
  1  4  2  0  0  0  0
  1  5  2  0  0  0  0
  2  6  1  0  0  0  0
  2  7  1  0  0  0  0
  3  8  1  0  0  0  0
  3  9  1  0  0  0  0
M  END
>  <Mol_ID>
3254

>  <Formula>
H4N2O2S

>  <MolWeight>
96.10896

>  <Cat>
S5606

>  <Name>
Sulfamide

>  <Synonyms>
Sulfuric diamide

>  <Target>
Others

>  <Form>
free base

>  <CAS>
7803-58-9

>  <URL>
https://www.selleckchem.com/products/sulfamide.html

$$$$
