S5605 Tos-Arg-OMe.HCl.cdx
 OpenBabel08302520303D

 45 45  0  0  0  0  0  0  0  0999 V2000
    1.6198    1.7944    1.2787 S   0  0  0  0  0  0  0  0  0  0  0  0
   -1.0903    0.1197    2.1543 O   0  0  0  0  0  0  0  0  0  0  0  0
    2.9013    1.8617    0.6102 O   0  0  0  0  0  0  0  0  0  0  0  0
    1.4399    0.9642    2.4434 O   0  0  0  0  0  0  0  0  0  0  0  0
   -2.5620    1.8721    2.0575 O   0  0  0  0  0  0  0  0  0  0  0  0
    0.4977    1.2670    0.1070 N   0  0  0  0  0  0  0  0  0  0  0  0
   -1.9631   -0.2957   -3.6494 N   0  0  0  0  0  0  0  0  0  0  0  0
   -2.2099   -2.3620   -4.4716 N   0  0  0  0  0  0  0  0  0  0  0  0
   -3.6079   -0.6970   -5.2509 N   0  0  0  0  0  0  0  0  0  0  0  0
   -0.9522    1.6029    0.2805 C   0  0  1  0  0  0  0  0  0  0  0  0
   -1.7527    0.9755   -0.8805 C   0  0  0  0  0  0  0  0  0  0  0  0
   -1.4801    1.6558   -2.2355 C   0  0  0  0  0  0  0  0  0  0  0  0
   -2.3274    1.0806   -3.3788 C   0  0  0  0  0  0  0  0  0  0  0  0
   -1.6224    1.2353    1.5953 C   0  0  0  0  0  0  0  0  0  0  0  0
    1.1208    3.4423    1.6763 C   0  0  0  0  0  0  0  0  0  0  0  0
    0.7228    3.7618    2.9762 C   0  0  0  0  0  0  0  0  0  0  0  0
    1.1105    4.4034    0.6637 C   0  0  0  0  0  0  0  0  0  0  0  0
    0.2278    6.0212    2.2414 C   0  0  0  0  0  0  0  0  0  0  0  0
    0.2778    5.0544    3.2561 C   0  0  0  0  0  0  0  0  0  0  0  0
    0.6508    5.6877    0.9468 C   0  0  0  0  0  0  0  0  0  0  0  0
   -0.2851    7.4050    2.5156 C   0  0  0  0  0  0  0  0  0  0  0  0
   -1.4818   -0.1528    3.5067 C   0  0  0  0  0  0  0  0  0  0  0  0
   -2.6470   -1.0881   -4.4983 C   0  0  0  0  0  0  0  0  0  0  0  0
    0.6225    0.2530    0.0482 H   0  0  0  0  0  0  0  0  0  0  0  0
   -1.3010   -0.7302   -3.0275 H   0  0  0  0  0  0  0  0  0  0  0  0
   -2.5039   -2.9367   -5.2499 H   0  0  0  0  0  0  0  0  0  0  0  0
   -1.2207   -2.4667   -4.2920 H   0  0  0  0  0  0  0  0  0  0  0  0
   -3.9699   -1.4872   -5.7862 H   0  0  0  0  0  0  0  0  0  0  0  0
   -1.0449    2.6911    0.1934 H   0  0  0  0  0  0  0  0  0  0  0  0
   -1.5242   -0.0952   -0.9431 H   0  0  0  0  0  0  0  0  0  0  0  0
   -2.8269    1.0510   -0.6686 H   0  0  0  0  0  0  0  0  0  0  0  0
   -1.7056    2.7263   -2.1487 H   0  0  0  0  0  0  0  0  0  0  0  0
   -0.4177    1.5717   -2.4926 H   0  0  0  0  0  0  0  0  0  0  0  0
   -3.3921    1.1618   -3.1290 H   0  0  0  0  0  0  0  0  0  0  0  0
   -2.1539    1.6755   -4.2832 H   0  0  0  0  0  0  0  0  0  0  0  0
    0.7517    3.0197    3.7727 H   0  0  0  0  0  0  0  0  0  0  0  0
    1.4326    4.1484   -0.3432 H   0  0  0  0  0  0  0  0  0  0  0  0
   -0.0370    5.3019    4.2689 H   0  0  0  0  0  0  0  0  0  0  0  0
    0.6178    6.4297    0.1520 H   0  0  0  0  0  0  0  0  0  0  0  0
    0.4763    8.1477    2.2552 H   0  0  0  0  0  0  0  0  0  0  0  0
   -1.1867    7.5901    1.9221 H   0  0  0  0  0  0  0  0  0  0  0  0
   -0.5402    7.5396    3.5719 H   0  0  0  0  0  0  0  0  0  0  0  0
   -2.2247    0.5454    3.9045 H   0  0  0  0  0  0  0  0  0  0  0  0
   -1.8864   -1.1666    3.5542 H   0  0  0  0  0  0  0  0  0  0  0  0
   -0.5920   -0.1022    4.1421 H   0  0  0  0  0  0  0  0  0  0  0  0
  1  3  2  0  0  0  0
  1  4  2  0  0  0  0
  1  6  1  0  0  0  0
  1 15  1  0  0  0  0
  2 14  1  0  0  0  0
  2 22  1  0  0  0  0
  5 14  2  0  0  0  0
  6 24  1  0  0  0  0
  7 13  1  0  0  0  0
  7 23  1  0  0  0  0
  7 25  1  0  0  0  0
  8 23  1  0  0  0  0
  8 26  1  0  0  0  0
  8 27  1  0  0  0  0
  9 23  2  0  0  0  0
  9 28  1  0  0  0  0
 10  6  1  0  0  0  0
 10 11  1  0  0  0  0
 10 14  1  0  0  0  0
 10 29  1  6  0  0  0
 11 12  1  0  0  0  0
 11 30  1  0  0  0  0
 11 31  1  0  0  0  0
 12 13  1  0  0  0  0
 12 32  1  0  0  0  0
 12 33  1  0  0  0  0
 13 34  1  0  0  0  0
 13 35  1  0  0  0  0
 15 16  2  0  0  0  0
 15 17  1  0  0  0  0
 16 19  1  0  0  0  0
 16 36  1  0  0  0  0
 17 20  2  0  0  0  0
 17 37  1  0  0  0  0
 18 19  2  0  0  0  0
 18 20  1  0  0  0  0
 18 21  1  0  0  0  0
 19 38  1  0  0  0  0
 20 39  1  0  0  0  0
 21 40  1  0  0  0  0
 21 41  1  0  0  0  0
 21 42  1  0  0  0  0
 22 43  1  0  0  0  0
 22 44  1  0  0  0  0
 22 45  1  0  0  0  0
M  END
>  <Mol_ID>
3253

>  <Formula>
C14H23ClN4O4S

>  <MolWeight>
378.87482

>  <Cat>
S5605

>  <Name>
Tos-Arg-OMe HCl

>  <Target>
Others

>  <Form>
free base

>  <CAS>
1784-03-8

>  <URL>
https://www.selleckchem.com/products/tos-arg-ome-hcl.html

$$$$
