S5610 Indole-3-acetamide.cdx
 OpenBabel08302520303D

 23 24  0  0  0  0  0  0  0  0999 V2000
   -0.2348   -0.7483   -0.0384 C   0  0  0  0  0  0  0  0  0  0  0  0
   -0.2451    0.6462   -0.0438 C   0  0  0  0  0  0  0  0  0  0  0  0
   -1.5987   -1.1868   -0.0218 C   0  0  0  0  0  0  0  0  0  0  0  0
    1.0084   -1.4128   -0.0237 C   0  0  0  0  0  0  0  0  0  0  0  0
   -1.5616    1.0426   -0.0549 N   0  0  0  0  0  0  0  0  0  0  0  0
    0.9277    1.4120   -0.0368 C   0  0  0  0  0  0  0  0  0  0  0  0
   -2.3844   -0.0511   -0.0424 C   0  0  0  0  0  0  0  0  0  0  0  0
   -2.0802   -2.6047    0.0296 C   0  0  0  0  0  0  0  0  0  0  0  0
    2.1903   -0.6635   -0.0145 C   0  0  0  0  0  0  0  0  0  0  0  0
    2.1470    0.7277   -0.0219 C   0  0  0  0  0  0  0  0  0  0  0  0
   -2.2777   -3.1307    1.4419 C   0  0  0  0  0  0  0  0  0  0  0  0
   -1.3837   -2.7404    2.3967 N   0  0  0  0  0  0  0  0  0  0  0  0
   -3.1508   -3.9501    1.7241 O   0  0  0  0  0  0  0  0  0  0  0  0
    1.0567   -2.4987   -0.0143 H   0  0  0  0  0  0  0  0  0  0  0  0
   -1.8710    2.0044   -0.0614 H   0  0  0  0  0  0  0  0  0  0  0  0
    0.8982    2.4959   -0.0418 H   0  0  0  0  0  0  0  0  0  0  0  0
   -3.4609    0.0699   -0.0391 H   0  0  0  0  0  0  0  0  0  0  0  0
   -3.0418   -2.6759   -0.4932 H   0  0  0  0  0  0  0  0  0  0  0  0
   -1.3783   -3.2705   -0.4850 H   0  0  0  0  0  0  0  0  0  0  0  0
    3.1499   -1.1751   -0.0024 H   0  0  0  0  0  0  0  0  0  0  0  0
    3.0760    1.2934   -0.0170 H   0  0  0  0  0  0  0  0  0  0  0  0
   -1.5571   -3.0421    3.3445 H   0  0  0  0  0  0  0  0  0  0  0  0
   -0.7658   -1.9511    2.2554 H   0  0  0  0  0  0  0  0  0  0  0  0
  1  2  2  0  0  0  0
  1  3  1  0  0  0  0
  1  4  1  0  0  0  0
  2  5  1  0  0  0  0
  2  6  1  0  0  0  0
  3  7  2  0  0  0  0
  3  8  1  0  0  0  0
  4  9  2  0  0  0  0
  4 14  1  0  0  0  0
  5  7  1  0  0  0  0
  5 15  1  0  0  0  0
  6 10  2  0  0  0  0
  6 16  1  0  0  0  0
  7 17  1  0  0  0  0
  8 11  1  0  0  0  0
  8 18  1  0  0  0  0
  8 19  1  0  0  0  0
  9 10  1  0  0  0  0
  9 20  1  0  0  0  0
 10 21  1  0  0  0  0
 11 12  1  0  0  0  0
 11 13  2  0  0  0  0
 12 22  1  0  0  0  0
 12 23  1  0  0  0  0
M  END
>  <Mol_ID>
3257

>  <Formula>
C10H10N2O

>  <MolWeight>
174.1992

>  <Cat>
S5610

>  <Name>
Indole-3-acetamide

>  <Synonyms>
3-Indolylacetamide

>  <Target>
Others

>  <Form>
free base

>  <CAS>
879-37-8

>  <URL>
https://www.selleckchem.com/products/indole-3-acetamide.html

$$$$
