S5618 Hippuric acid.cdx
 OpenBabel08302520013D

 22 22  0  0  0  0  0  0  0  0999 V2000
    1.4410   -0.1990    0.0876 C   0  0  0  0  0  0  0  0  0  0  0  0
    2.8930   -0.4420    0.2599 C   0  0  0  0  0  0  0  0  0  0  0  0
    0.5728   -1.2959    0.0657 C   0  0  0  0  0  0  0  0  0  0  0  0
    0.9273    1.1028    0.0353 C   0  0  0  0  0  0  0  0  0  0  0  0
    3.7535    0.3944   -0.4075 N   0  0  0  0  0  0  0  0  0  0  0  0
    3.3085   -1.3097    1.0215 O   0  0  0  0  0  0  0  0  0  0  0  0
   -0.8059   -1.0910   -0.0144 C   0  0  0  0  0  0  0  0  0  0  0  0
   -0.4529    1.3017   -0.0357 C   0  0  0  0  0  0  0  0  0  0  0  0
    5.1984    0.2564   -0.2855 C   0  0  0  0  0  0  0  0  0  0  0  0
   -1.3171    0.2065   -0.0591 C   0  0  0  0  0  0  0  0  0  0  0  0
    5.7288    0.9207    0.9798 C   0  0  0  0  0  0  0  0  0  0  0  0
    5.1581    0.4628    2.1190 O   0  0  0  0  0  0  0  0  0  0  0  0
    6.6330    1.7457    0.9856 O   0  0  0  0  0  0  0  0  0  0  0  0
    0.9657   -2.3088    0.1202 H   0  0  0  0  0  0  0  0  0  0  0  0
    1.5809    1.9684    0.0973 H   0  0  0  0  0  0  0  0  0  0  0  0
    3.3945    1.1201   -1.0149 H   0  0  0  0  0  0  0  0  0  0  0  0
   -1.4827   -1.9422   -0.0251 H   0  0  0  0  0  0  0  0  0  0  0  0
   -0.8578    2.3111   -0.0499 H   0  0  0  0  0  0  0  0  0  0  0  0
    5.4793   -0.8021   -0.2645 H   0  0  0  0  0  0  0  0  0  0  0  0
    5.6549    0.7275   -1.1602 H   0  0  0  0  0  0  0  0  0  0  0  0
   -2.3927    0.3649   -0.0968 H   0  0  0  0  0  0  0  0  0  0  0  0
    4.5126   -0.2658    1.9459 H   0  0  0  0  0  0  0  0  0  0  0  0
  1  2  1  0  0  0  0
  1  3  2  0  0  0  0
  1  4  1  0  0  0  0
  2  5  1  0  0  0  0
  2  6  2  0  0  0  0
  3  7  1  0  0  0  0
  3 14  1  0  0  0  0
  4  8  2  0  0  0  0
  4 15  1  0  0  0  0
  5  9  1  0  0  0  0
  5 16  1  0  0  0  0
  7 10  2  0  0  0  0
  7 17  1  0  0  0  0
  8 10  1  0  0  0  0
  8 18  1  0  0  0  0
  9 11  1  0  0  0  0
  9 19  1  0  0  0  0
  9 20  1  0  0  0  0
 10 21  1  0  0  0  0
 11 12  1  0  0  0  0
 11 13  2  0  0  0  0
 12 22  1  0  0  0  0
M  END
>  <Mol_ID>
3085

>  <Formula>
C9H9NO3

>  <MolWeight>
179.17266

>  <Cat>
S5618

>  <Name>
Hippuric acid

>  <Synonyms>
2-Benzamidoacetic acid, Benzoylglycine

>  <Target>
Others

>  <Form>
free base

>  <CAS>
495-69-2

>  <URL>
http://selleckchem.com/products/hippuric-acid.html

$$$$
