S5617 Myristic Acid.cdx
 OpenBabel08302521213D

 44 43  0  0  0  0  0  0  0  0999 V2000
    1.0914   -0.0817    0.1707 C   0  0  0  0  0  0  0  0  0  0  0  0
    0.5974    1.0482   -0.7413 C   0  0  0  0  0  0  0  0  0  0  0  0
    0.5856    0.0858    1.6109 C   0  0  0  0  0  0  0  0  0  0  0  0
    1.0809    0.9361   -2.1944 C   0  0  0  0  0  0  0  0  0  0  0  0
    1.0391   -1.0266    2.5713 C   0  0  0  0  0  0  0  0  0  0  0  0
    0.6713   -0.3311   -2.9559 C   0  0  0  0  0  0  0  0  0  0  0  0
    2.5582   -1.1273    2.7288 C   0  0  0  0  0  0  0  0  0  0  0  0
   -0.8426   -0.5101   -3.0946 C   0  0  0  0  0  0  0  0  0  0  0  0
    2.9716   -2.2267    3.7116 C   0  0  0  0  0  0  0  0  0  0  0  0
   -1.1874   -1.7782   -3.8857 C   0  0  0  0  0  0  0  0  0  0  0  0
    4.4780   -2.3227    3.8315 C   0  0  0  0  0  0  0  0  0  0  0  0
   -2.7023   -1.9613   -4.0139 C   0  0  0  0  0  0  0  0  0  0  0  0
    4.8678   -3.3068    4.6752 O   0  0  0  0  0  0  0  0  0  0  0  0
    5.2789   -1.6121    3.2517 O   0  0  0  0  0  0  0  0  0  0  0  0
   -3.0616   -3.2237   -4.7997 C   0  0  0  0  0  0  0  0  0  0  0  0
   -4.5696   -3.3929   -4.9174 C   0  0  0  0  0  0  0  0  0  0  0  0
    2.1861   -0.0837    0.1541 H   0  0  0  0  0  0  0  0  0  0  0  0
    0.7531   -1.0506   -0.2104 H   0  0  0  0  0  0  0  0  0  0  0  0
   -0.4961    1.1051   -0.7149 H   0  0  0  0  0  0  0  0  0  0  0  0
    0.9635    2.0037   -0.3428 H   0  0  0  0  0  0  0  0  0  0  0  0
    0.9036    1.0581    2.0066 H   0  0  0  0  0  0  0  0  0  0  0  0
   -0.5121    0.0959    1.6004 H   0  0  0  0  0  0  0  0  0  0  0  0
    0.7148    1.8110   -2.7470 H   0  0  0  0  0  0  0  0  0  0  0  0
    2.1762    1.0045   -2.2079 H   0  0  0  0  0  0  0  0  0  0  0  0
    0.5915   -0.8313    3.5544 H   0  0  0  0  0  0  0  0  0  0  0  0
    0.6368   -1.9877    2.2290 H   0  0  0  0  0  0  0  0  0  0  0  0
    1.1118   -0.2770   -3.9601 H   0  0  0  0  0  0  0  0  0  0  0  0
    1.1111   -1.2131   -2.4774 H   0  0  0  0  0  0  0  0  0  0  0  0
    3.0237   -1.3374    1.7592 H   0  0  0  0  0  0  0  0  0  0  0  0
    2.9553   -0.1631    3.0698 H   0  0  0  0  0  0  0  0  0  0  0  0
   -1.3059   -0.5712   -2.1038 H   0  0  0  0  0  0  0  0  0  0  0  0
   -1.2690    0.3644   -3.6009 H   0  0  0  0  0  0  0  0  0  0  0  0
    2.5591   -2.0177    4.7049 H   0  0  0  0  0  0  0  0  0  0  0  0
    2.5947   -3.1944    3.3626 H   0  0  0  0  0  0  0  0  0  0  0  0
   -0.7380   -1.7235   -4.8848 H   0  0  0  0  0  0  0  0  0  0  0  0
   -0.7543   -2.6519   -3.3837 H   0  0  0  0  0  0  0  0  0  0  0  0
   -3.1499   -2.0152   -3.0141 H   0  0  0  0  0  0  0  0  0  0  0  0
   -3.1345   -1.0863   -4.5145 H   0  0  0  0  0  0  0  0  0  0  0  0
    4.1283   -3.8017    5.0751 H   0  0  0  0  0  0  0  0  0  0  0  0
   -2.6269   -3.1746   -5.8048 H   0  0  0  0  0  0  0  0  0  0  0  0
   -2.6391   -4.1066   -4.3060 H   0  0  0  0  0  0  0  0  0  0  0  0
   -5.0249   -2.5274   -5.4096 H   0  0  0  0  0  0  0  0  0  0  0  0
   -4.8089   -4.2831   -5.5077 H   0  0  0  0  0  0  0  0  0  0  0  0
   -5.0293   -3.5072   -3.9304 H   0  0  0  0  0  0  0  0  0  0  0  0
  1  2  1  0  0  0  0
  1  3  1  0  0  0  0
  1 17  1  0  0  0  0
  1 18  1  0  0  0  0
  2  4  1  0  0  0  0
  2 19  1  0  0  0  0
  2 20  1  0  0  0  0
  3  5  1  0  0  0  0
  3 21  1  0  0  0  0
  3 22  1  0  0  0  0
  4  6  1  0  0  0  0
  4 23  1  0  0  0  0
  4 24  1  0  0  0  0
  5  7  1  0  0  0  0
  5 25  1  0  0  0  0
  5 26  1  0  0  0  0
  6  8  1  0  0  0  0
  6 27  1  0  0  0  0
  6 28  1  0  0  0  0
  7  9  1  0  0  0  0
  7 29  1  0  0  0  0
  7 30  1  0  0  0  0
  8 10  1  0  0  0  0
  8 31  1  0  0  0  0
  8 32  1  0  0  0  0
  9 11  1  0  0  0  0
  9 33  1  0  0  0  0
  9 34  1  0  0  0  0
 10 12  1  0  0  0  0
 10 35  1  0  0  0  0
 10 36  1  0  0  0  0
 11 13  1  0  0  0  0
 11 14  2  0  0  0  0
 12 15  1  0  0  0  0
 12 37  1  0  0  0  0
 12 38  1  0  0  0  0
 13 39  1  0  0  0  0
 15 16  1  0  0  0  0
 15 40  1  0  0  0  0
 15 41  1  0  0  0  0
 16 42  1  0  0  0  0
 16 43  1  0  0  0  0
 16 44  1  0  0  0  0
M  END
>  <Mol_ID>
4555

>  <Formula>
C14H28O2

>  <MolWeight>
228.37092

>  <Cat>
S5617

>  <Name>
Myristic Acid

>  <Synonyms>
Tetradecanoic acid

>  <Target>
Src

>  <Form>
free base

>  <CAS>
544-63-8

>  <URL>
https://www.selleckchem.com/products/myristic-acid.html

$$$$
