S5614 (+)-Longifolene.cdx
 OpenBabel08302520013D

 39 41  0  0  0  0  0  0  0  0999 V2000
    0.3947   -1.6261   -0.9057 C   0  0  0  0  0  0  0  0  0  0  0  0
    1.8091   -1.2058   -0.5532 C   0  0  0  0  0  0  0  0  0  0  0  0
   -1.9963    2.4718   -0.1804 C   0  0  0  0  0  0  0  0  0  0  0  0
   -2.1123    1.0078    0.2471 C   0  0  0  0  0  0  0  0  0  0  0  0
   -0.8335    2.8887   -1.0737 C   0  0  0  0  0  0  0  0  0  0  0  0
    0.5326    0.1181    1.2116 C   0  0  0  0  0  0  0  0  0  0  0  0
    0.9734    0.0865    2.4694 C   0  0  0  0  0  0  0  0  0  0  0  0
   -0.9234   -0.0247    0.5708 C   0  0  1  0  0  0  0  0  0  0  0  0
   -1.6341   -1.1798    1.3179 C   0  0  0  0  0  0  0  0  0  0  0  0
    0.7273    0.8725   -0.9303 C   0  0  2  0  0  0  0  0  0  0  0  0
   -0.3695   -0.2686   -0.8482 C   0  0  1  0  0  0  0  0  0  0  0  0
    1.5881    0.1738    0.0808 C   0  0  2  0  0  0  0  0  0  0  0  0
    0.5391    2.8836    0.9967 C   0  0  0  0  0  0  0  0  0  0  0  0
    0.5029    2.4163   -0.5063 C   0  0  0  0  0  0  0  0  0  0  0  0
    1.6806    3.2183   -1.1201 C   0  0  0  0  0  0  0  0  0  0  0  0
    0.3252   -2.1072   -1.8820 H   0  0  0  0  0  0  0  0  0  0  0  0
    0.0287   -2.3524   -0.1713 H   0  0  0  0  0  0  0  0  0  0  0  0
    2.3099   -1.9173    0.1081 H   0  0  0  0  0  0  0  0  0  0  0  0
    2.3963   -1.1257   -1.4789 H   0  0  0  0  0  0  0  0  0  0  0  0
   -2.0140    3.0926    0.7239 H   0  0  0  0  0  0  0  0  0  0  0  0
   -2.9234    2.7558   -0.6996 H   0  0  0  0  0  0  0  0  0  0  0  0
   -2.8545    0.9827    1.0523 H   0  0  0  0  0  0  0  0  0  0  0  0
   -2.6683    0.5447   -0.5888 H   0  0  0  0  0  0  0  0  0  0  0  0
   -0.9771    2.5349   -2.1003 H   0  0  0  0  0  0  0  0  0  0  0  0
   -0.8438    3.9880   -1.1332 H   0  0  0  0  0  0  0  0  0  0  0  0
    2.0334    0.1836    2.6780 H   0  0  0  0  0  0  0  0  0  0  0  0
    0.2889    0.0530    3.3044 H   0  0  0  0  0  0  0  0  0  0  0  0
   -2.2588   -1.7611    0.6374 H   0  0  0  0  0  0  0  0  0  0  0  0
   -2.2801   -0.7752    2.1142 H   0  0  0  0  0  0  0  0  0  0  0  0
   -0.9425   -1.8582    1.8324 H   0  0  0  0  0  0  0  0  0  0  0  0
    1.1413    0.8483   -1.9456 H   0  0  0  0  0  0  0  0  0  0  0  0
   -1.0973   -0.2271   -1.6509 H   0  0  0  0  0  0  0  0  0  0  0  0
    2.5234    0.6873    0.3175 H   0  0  0  0  0  0  0  0  0  0  0  0
    1.5295    2.7754    1.4494 H   0  0  0  0  0  0  0  0  0  0  0  0
    0.2791    3.9513    1.0671 H   0  0  0  0  0  0  0  0  0  0  0  0
   -0.1888    2.3952    1.6524 H   0  0  0  0  0  0  0  0  0  0  0  0
    1.8045    3.0174   -2.1861 H   0  0  0  0  0  0  0  0  0  0  0  0
    1.5396    4.2989   -0.9975 H   0  0  0  0  0  0  0  0  0  0  0  0
    2.6219    2.9585   -0.6146 H   0  0  0  0  0  0  0  0  0  0  0  0
  1  2  1  0  0  0  0
  1 16  1  0  0  0  0
  1 17  1  0  0  0  0
  2 18  1  0  0  0  0
  2 19  1  0  0  0  0
  3  4  1  0  0  0  0
  3 20  1  0  0  0  0
  3 21  1  0  0  0  0
  4 22  1  0  0  0  0
  4 23  1  0  0  0  0
  5  3  1  0  0  0  0
  5 24  1  0  0  0  0
  5 25  1  0  0  0  0
  6  7  2  0  0  0  0
  7 26  1  0  0  0  0
  7 27  1  0  0  0  0
  8 11  1  0  0  0  0
  8  4  1  0  0  0  0
  8  6  1  0  0  0  0
  8  9  1  1  0  0  0
  9 28  1  0  0  0  0
  9 29  1  0  0  0  0
  9 30  1  0  0  0  0
 10 14  1  0  0  0  0
 10 12  1  0  0  0  0
 10 31  1  6  0  0  0
 11 10  1  0  0  0  0
 11  1  1  0  0  0  0
 11 32  1  6  0  0  0
 12  2  1  0  0  0  0
 12  6  1  0  0  0  0
 12 33  1  1  0  0  0
 13 34  1  0  0  0  0
 13 35  1  0  0  0  0
 13 36  1  0  0  0  0
 14  5  1  0  0  0  0
 14 13  1  0  0  0  0
 14 15  1  0  0  0  0
 15 37  1  0  0  0  0
 15 38  1  0  0  0  0
 15 39  1  0  0  0  0
M  END
>  <Mol_ID>
3084

>  <Formula>
C15H24

>  <MolWeight>
204.35106

>  <Cat>
S5614

>  <Name>
(+)-Longifolene

>  <Synonyms>
N/A

>  <Target>
Others

>  <Form>
free base

>  <CAS>
475-20-7

>  <URL>
http://selleckchem.com/products/longifolene.html

$$$$
