S5628 L-Valine.cdx
 OpenBabel08302521383D

 19 18  0  0  0  0  0  0  0  0999 V2000
    1.0169   -0.1780    0.0765 C   0  0  0  0  0  0  0  0  0  0  0  0
   -0.5470   -0.6277   -1.7648 N   0  0  0  0  0  0  0  0  0  0  0  0
    0.2765    0.4454   -1.1336 C   0  0  1  0  0  0  0  0  0  0  0  0
   -0.5959    1.6433   -0.6825 C   0  0  0  0  0  0  0  0  0  0  0  0
    0.2609    2.7435   -0.0413 C   0  0  0  0  0  0  0  0  0  0  0  0
   -1.3881    2.2620   -1.8425 C   0  0  0  0  0  0  0  0  0  0  0  0
    2.1026    0.2238    0.4981 O   0  0  0  0  0  0  0  0  0  0  0  0
    0.3580   -1.2027    0.6592 O   0  0  0  0  0  0  0  0  0  0  0  0
   -0.9458   -0.2646   -2.6344 H   0  0  0  0  0  0  0  0  0  0  0  0
    0.0800   -1.3819   -2.0597 H   0  0  0  0  0  0  0  0  0  0  0  0
    1.0254    0.7886   -1.8653 H   0  0  0  0  0  0  0  0  0  0  0  0
   -1.3139    1.2969    0.0723 H   0  0  0  0  0  0  0  0  0  0  0  0
    1.0036    3.1293   -0.7479 H   0  0  0  0  0  0  0  0  0  0  0  0
   -0.3641    3.5815    0.2849 H   0  0  0  0  0  0  0  0  0  0  0  0
    0.7909    2.3790    0.8431 H   0  0  0  0  0  0  0  0  0  0  0  0
   -2.0966    1.5500   -2.2763 H   0  0  0  0  0  0  0  0  0  0  0  0
   -1.9724    3.1216   -1.4959 H   0  0  0  0  0  0  0  0  0  0  0  0
   -0.7194    2.6084   -2.6382 H   0  0  0  0  0  0  0  0  0  0  0  0
   -0.4880   -1.3932    0.1924 H   0  0  0  0  0  0  0  0  0  0  0  0
  1  3  1  0  0  0  0
  1  7  2  0  0  0  0
  1  8  1  0  0  0  0
  2  9  1  0  0  0  0
  2 10  1  0  0  0  0
  3  2  1  0  0  0  0
  3  4  1  0  0  0  0
  3 11  1  6  0  0  0
  4  5  1  0  0  0  0
  4  6  1  0  0  0  0
  4 12  1  0  0  0  0
  5 13  1  0  0  0  0
  5 14  1  0  0  0  0
  5 15  1  0  0  0  0
  6 16  1  0  0  0  0
  6 17  1  0  0  0  0
  6 18  1  0  0  0  0
  8 19  1  0  0  0  0
M  END
>  <Mol_ID>
7841

>  <Formula>
C5H11NO2

>  <MolWeight>
117.14634

>  <Cat>
S5628

>  <Name>
L-Valine

>  <Synonyms>
N/A

>  <Target>
Others

>  <Form>
free base

>  <CAS>
72-18-4

>  <URL>
http://selleckchem.com/products/l-valine.html

$$$$
