S5621 Cilastatin.cdx
 OpenBabel08302520143D

 50 50  0  0  0  0  0  0  0  0999 V2000
  -11.1680    2.8673    2.2998 C   0  0  1  0  0  0  0  0  0  0  0  0
  -11.5518    1.4676    1.8087 C   0  0  0  0  0  0  0  0  0  0  0  0
  -11.7547    2.6768    0.9230 C   0  0  0  0  0  0  0  0  0  0  0  0
  -11.9420    3.6265    3.3277 C   0  0  0  0  0  0  0  0  0  0  0  0
  -12.7990    0.7613    2.2824 C   0  0  0  0  0  0  0  0  0  0  0  0
  -10.4413    0.5214    1.4137 C   0  0  0  0  0  0  0  0  0  0  0  0
  -11.1722    4.1190    4.3573 N   0  0  0  0  0  0  0  0  0  0  0  0
  -13.1518    3.7746    3.2335 O   0  0  0  0  0  0  0  0  0  0  0  0
  -11.5386    4.8881    5.4539 C   0  0  0  0  0  0  0  0  0  0  0  0
  -10.5915    5.2830    6.3303 C   0  0  0  0  0  0  0  0  0  0  0  0
  -12.9287    5.3648    5.8260 C   0  0  0  0  0  0  0  0  0  0  0  0
   -9.0914    5.1171    6.2525 C   0  0  0  0  0  0  0  0  0  0  0  0
  -13.9746    4.6759    5.3407 O   0  0  0  0  0  0  0  0  0  0  0  0
  -13.1105    6.2909    6.6104 O   0  0  0  0  0  0  0  0  0  0  0  0
   -8.4086    6.2653    7.0092 C   0  0  0  0  0  0  0  0  0  0  0  0
   -6.8781    6.2058    7.0238 C   0  0  0  0  0  0  0  0  0  0  0  0
   -6.1692    6.3193    5.6729 C   0  0  0  0  0  0  0  0  0  0  0  0
   -6.6020    7.8057    4.6955 S   0  0  0  0  0  0  0  0  0  0  0  0
   -5.9113    9.1095    5.7882 C   0  0  0  0  0  0  0  0  0  0  0  0
   -6.0738   10.5168    5.1900 C   0  0  2  0  0  0  0  0  0  0  0  0
   -5.4572   11.5610    6.1330 C   0  0  0  0  0  0  0  0  0  0  0  0
   -7.4852   10.9198    4.9100 N   0  0  0  0  0  0  0  0  0  0  0  0
   -6.0266   12.7822    5.9490 O   0  0  0  0  0  0  0  0  0  0  0  0
   -4.5565   11.3557    6.9305 O   0  0  0  0  0  0  0  0  0  0  0  0
  -10.1008    3.0865    2.3073 H   0  0  0  0  0  0  0  0  0  0  0  0
  -11.1009    2.8159    0.0684 H   0  0  0  0  0  0  0  0  0  0  0  0
  -12.7689    3.0217    0.7419 H   0  0  0  0  0  0  0  0  0  0  0  0
  -13.5078    1.4195    2.7881 H   0  0  0  0  0  0  0  0  0  0  0  0
  -13.3183    0.3126    1.4281 H   0  0  0  0  0  0  0  0  0  0  0  0
  -12.5465   -0.0430    2.9818 H   0  0  0  0  0  0  0  0  0  0  0  0
  -10.6422    0.0934    0.4258 H   0  0  0  0  0  0  0  0  0  0  0  0
   -9.4692    1.0235    1.3747 H   0  0  0  0  0  0  0  0  0  0  0  0
  -10.3561   -0.3028    2.1302 H   0  0  0  0  0  0  0  0  0  0  0  0
  -10.1939    3.8797    4.2999 H   0  0  0  0  0  0  0  0  0  0  0  0
  -10.9195    5.8295    7.2173 H   0  0  0  0  0  0  0  0  0  0  0  0
   -8.8116    4.1586    6.7051 H   0  0  0  0  0  0  0  0  0  0  0  0
   -8.7571    5.1171    5.2117 H   0  0  0  0  0  0  0  0  0  0  0  0
  -13.7677    4.1342    4.5475 H   0  0  0  0  0  0  0  0  0  0  0  0
   -8.7470    7.2283    6.6088 H   0  0  0  0  0  0  0  0  0  0  0  0
   -8.7433    6.2427    8.0555 H   0  0  0  0  0  0  0  0  0  0  0  0
   -6.5158    7.0026    7.6843 H   0  0  0  0  0  0  0  0  0  0  0  0
   -6.5666    5.2682    7.5007 H   0  0  0  0  0  0  0  0  0  0  0  0
   -5.0843    6.3119    5.8290 H   0  0  0  0  0  0  0  0  0  0  0  0
   -6.3964    5.4397    5.0608 H   0  0  0  0  0  0  0  0  0  0  0  0
   -6.4100    9.0590    6.7611 H   0  0  0  0  0  0  0  0  0  0  0  0
   -4.8471    8.8972    5.9394 H   0  0  0  0  0  0  0  0  0  0  0  0
   -5.5154   10.5901    4.2479 H   0  0  0  0  0  0  0  0  0  0  0  0
   -7.8586   10.2351    4.2417 H   0  0  0  0  0  0  0  0  0  0  0  0
   -8.0445   10.7494    5.7544 H   0  0  0  0  0  0  0  0  0  0  0  0
   -6.7596   12.6584    5.2963 H   0  0  0  0  0  0  0  0  0  0  0  0
  1  2  1  0  0  0  0
  1  3  1  0  0  0  0
  1  4  1  0  0  0  0
  1 25  1  1  0  0  0
  2  5  1  0  0  0  0
  2  6  1  0  0  0  0
  2  3  1  0  0  0  0
  3 26  1  0  0  0  0
  3 27  1  0  0  0  0
  4  7  1  0  0  0  0
  4  8  2  0  0  0  0
  5 28  1  0  0  0  0
  5 29  1  0  0  0  0
  5 30  1  0  0  0  0
  6 31  1  0  0  0  0
  6 32  1  0  0  0  0
  6 33  1  0  0  0  0
  7  9  1  0  0  0  0
  7 34  1  0  0  0  0
  9 10  2  0  0  0  0
  9 11  1  0  0  0  0
 10 12  1  0  0  0  0
 10 35  1  0  0  0  0
 11 13  1  0  0  0  0
 11 14  2  0  0  0  0
 12 15  1  0  0  0  0
 12 36  1  0  0  0  0
 12 37  1  0  0  0  0
 13 38  1  0  0  0  0
 15 16  1  0  0  0  0
 15 39  1  0  0  0  0
 15 40  1  0  0  0  0
 16 17  1  0  0  0  0
 16 41  1  0  0  0  0
 16 42  1  0  0  0  0
 17 18  1  0  0  0  0
 17 43  1  0  0  0  0
 17 44  1  0  0  0  0
 18 19  1  0  0  0  0
 19 45  1  0  0  0  0
 19 46  1  0  0  0  0
 20 22  1  0  0  0  0
 20 47  1  6  0  0  0
 20 21  1  0  0  0  0
 20 19  1  0  0  0  0
 21 23  1  0  0  0  0
 21 24  2  0  0  0  0
 22 48  1  0  0  0  0
 22 49  1  0  0  0  0
 23 50  1  0  0  0  0
M  END
>  <Mol_ID>
3134

>  <Formula>
C16H26N2O5S

>  <MolWeight>
358.45304

>  <Cat>
S5621

>  <Name>
Cilastatin

>  <Synonyms>
MK0791

>  <Target>
Others

>  <Form>
free base

>  <CAS>
82009-34-5

>  <URL>
http://selleckchem.com/products/cilastatin.html

$$$$
