S5625 Ammonium lactate.cdx
 OpenBabel08302520303D

 16 14  0  0  0  0  0  0  0  0999 V2000
    2.7057    0.8991    0.3043 N   0  3  0  0  0  0  0  0  0  0  0  0
    0.3397   -0.3888    0.0391 C   0  0  0  0  0  0  0  0  0  0  0  0
   -0.5737   -0.8151    1.1969 C   0  0  3  0  0  0  0  0  0  0  0  0
   -1.3247    0.3281    1.6565 O   0  0  0  0  0  0  0  0  0  0  0  0
   -1.5159   -1.9419    0.8583 C   0  0  0  0  0  0  0  0  0  0  0  0
    0.2748    0.8474   -0.2830 O   0  0  0  0  0  0  0  0  0  0  0  0
    1.3441   -1.1157   -0.2304 O   0  5  0  0  0  0  0  0  0  0  0  0
    1.8469    1.3178   -0.1220 H   0  0  0  0  0  0  0  0  0  0  0  0
    2.5781   -0.0941   -0.0108 H   0  0  0  0  0  0  0  0  0  0  0  0
    2.5715    0.9161    1.3101 H   0  0  0  0  0  0  0  0  0  0  0  0
    3.5616    1.3096   -0.0582 H   0  0  0  0  0  0  0  0  0  0  0  0
    0.0839   -1.1159    2.0205 H   0  0  0  0  0  0  0  0  0  0  0  0
   -1.1301    1.0242    0.9855 H   0  0  0  0  0  0  0  0  0  0  0  0
   -0.9750   -2.8178    0.4873 H   0  0  0  0  0  0  0  0  0  0  0  0
   -2.0822   -2.2319    1.7492 H   0  0  0  0  0  0  0  0  0  0  0  0
   -2.2445   -1.6367    0.1019 H   0  0  0  0  0  0  0  0  0  0  0  0
  1  8  1  0  0  0  0
  1  9  1  0  0  0  0
  1 10  1  0  0  0  0
  1 11  1  0  0  0  0
  2  3  1  0  0  0  0
  2  6  2  0  0  0  0
  2  7  1  0  0  0  0
  3  4  1  0  0  0  0
  3  5  1  0  0  0  0
  3 12  1  0  0  0  0
  4 13  1  0  0  0  0
  5 14  1  0  0  0  0
  5 15  1  0  0  0  0
  5 16  1  0  0  0  0
M  CHG  2   1   1   7  -1
M  END
>  <Mol_ID>
3270

>  <Formula>
C3H9NO3

>  <MolWeight>
107.10846

>  <Cat>
S5625

>  <Name>
Ammonium lactate

>  <Synonyms>
Lac-hydrin

>  <Target>
Bacterial

>  <Form>
free base

>  <CAS>
515-98-0

>  <URL>
https://www.selleckchem.com/products/ammonium-iactate.html

$$$$
