S5620 NSI-189.cdx
 OpenBabel08302520143D

 57 59  0  0  0  0  0  0  0  0999 V2000
    1.2415    0.1309   -0.0085 C   0  0  0  0  0  0  0  0  0  0  0  0
    0.4650   -0.7558   -0.3733 O   0  0  0  0  0  0  0  0  0  0  0  0
    0.7646    1.2981    0.6128 N   0  0  0  0  0  0  0  0  0  0  0  0
   -0.6910    1.4377    0.7536 C   0  0  0  0  0  0  0  0  0  0  0  0
   -1.1378    2.9115    0.8768 C   0  0  0  0  0  0  0  0  0  0  0  0
   -0.3586    3.7587    1.8142 N   0  0  0  0  0  0  0  0  0  0  0  0
    1.0796    3.5600    1.5683 C   0  0  0  0  0  0  0  0  0  0  0  0
    1.5082    2.0838    1.6076 C   0  0  0  0  0  0  0  0  0  0  0  0
   -0.6842    3.5241    3.2318 C   0  0  0  0  0  0  0  0  0  0  0  0
   -2.1044    3.9094    3.5677 C   0  0  0  0  0  0  0  0  0  0  0  0
   -2.9790    2.9654    4.1227 C   0  0  0  0  0  0  0  0  0  0  0  0
   -4.3229    3.2824    4.3122 C   0  0  0  0  0  0  0  0  0  0  0  0
   -4.7973    4.5459    3.9628 C   0  0  0  0  0  0  0  0  0  0  0  0
   -3.9233    5.5088    3.4614 C   0  0  0  0  0  0  0  0  0  0  0  0
   -2.5790    5.1958    3.2740 C   0  0  0  0  0  0  0  0  0  0  0  0
    3.2738   -1.3670   -0.1106 C   0  0  0  0  0  0  0  0  0  0  0  0
    2.7119   -0.0802   -0.1880 C   0  0  0  0  0  0  0  0  0  0  0  0
    3.5746    1.0104   -0.3587 C   0  0  0  0  0  0  0  0  0  0  0  0
    4.9432    0.8401   -0.2094 C   0  0  0  0  0  0  0  0  0  0  0  0
    5.4096   -0.4389    0.0038 C   0  0  0  0  0  0  0  0  0  0  0  0
    4.6158   -1.5309    0.0145 N   0  0  0  0  0  0  0  0  0  0  0  0
    2.5003   -2.5136   -0.3273 N   0  0  0  0  0  0  0  0  0  0  0  0
    3.0498   -3.7723    0.1416 C   0  0  0  0  0  0  0  0  0  0  0  0
    2.1121   -4.9316   -0.2147 C   0  0  0  0  0  0  0  0  0  0  0  0
    1.9166   -5.1831   -1.7240 C   0  0  0  0  0  0  0  0  0  0  0  0
    3.2251   -5.5148   -2.4423 C   0  0  0  0  0  0  0  0  0  0  0  0
    0.9192   -6.3281   -1.9295 C   0  0  0  0  0  0  0  0  0  0  0  0
   -1.1968    0.9808   -0.1051 H   0  0  0  0  0  0  0  0  0  0  0  0
   -0.9861    0.8733    1.6467 H   0  0  0  0  0  0  0  0  0  0  0  0
   -1.0420    3.3724   -0.1153 H   0  0  0  0  0  0  0  0  0  0  0  0
   -2.2109    2.9475    1.0984 H   0  0  0  0  0  0  0  0  0  0  0  0
    1.3153    3.9752    0.5788 H   0  0  0  0  0  0  0  0  0  0  0  0
    1.6725    4.1420    2.2833 H   0  0  0  0  0  0  0  0  0  0  0  0
    1.3032    1.6332    2.5850 H   0  0  0  0  0  0  0  0  0  0  0  0
    2.5860    2.0255    1.4996 H   0  0  0  0  0  0  0  0  0  0  0  0
   -0.5037    2.4819    3.5196 H   0  0  0  0  0  0  0  0  0  0  0  0
   -0.0308    4.1386    3.8662 H   0  0  0  0  0  0  0  0  0  0  0  0
   -2.6245    1.9714    4.3825 H   0  0  0  0  0  0  0  0  0  0  0  0
   -5.0040    2.5360    4.7116 H   0  0  0  0  0  0  0  0  0  0  0  0
   -5.8529    4.7783    4.0739 H   0  0  0  0  0  0  0  0  0  0  0  0
   -4.2909    6.4951    3.1930 H   0  0  0  0  0  0  0  0  0  0  0  0
   -1.9047    5.9405    2.8551 H   0  0  0  0  0  0  0  0  0  0  0  0
    3.1802    2.0037   -0.5526 H   0  0  0  0  0  0  0  0  0  0  0  0
    5.6194    1.6868   -0.2287 H   0  0  0  0  0  0  0  0  0  0  0  0
    6.4662   -0.6335    0.1611 H   0  0  0  0  0  0  0  0  0  0  0  0
    1.5172   -2.3519   -0.1000 H   0  0  0  0  0  0  0  0  0  0  0  0
    4.0448   -3.9633   -0.2754 H   0  0  0  0  0  0  0  0  0  0  0  0
    3.1524   -3.7350    1.2332 H   0  0  0  0  0  0  0  0  0  0  0  0
    2.5028   -5.8439    0.2547 H   0  0  0  0  0  0  0  0  0  0  0  0
    1.1311   -4.7432    0.2418 H   0  0  0  0  0  0  0  0  0  0  0  0
    1.4904   -4.2838   -2.1852 H   0  0  0  0  0  0  0  0  0  0  0  0
    3.7227   -6.3764   -1.9850 H   0  0  0  0  0  0  0  0  0  0  0  0
    3.0363   -5.7559   -3.4946 H   0  0  0  0  0  0  0  0  0  0  0  0
    3.9178   -4.6684   -2.4218 H   0  0  0  0  0  0  0  0  0  0  0  0
   -0.0406   -6.0994   -1.4551 H   0  0  0  0  0  0  0  0  0  0  0  0
    0.7319   -6.4958   -2.9956 H   0  0  0  0  0  0  0  0  0  0  0  0
    1.2951   -7.2640   -1.5016 H   0  0  0  0  0  0  0  0  0  0  0  0
  1  2  2  0  0  0  0
  1  3  1  0  0  0  0
  1 17  1  0  0  0  0
  3  4  1  0  0  0  0
  3  8  1  0  0  0  0
  4  5  1  0  0  0  0
  4 28  1  0  0  0  0
  4 29  1  0  0  0  0
  5  6  1  0  0  0  0
  5 30  1  0  0  0  0
  5 31  1  0  0  0  0
  6  7  1  0  0  0  0
  6  9  1  0  0  0  0
  7  8  1  0  0  0  0
  7 32  1  0  0  0  0
  7 33  1  0  0  0  0
  8 34  1  0  0  0  0
  8 35  1  0  0  0  0
  9 10  1  0  0  0  0
  9 36  1  0  0  0  0
  9 37  1  0  0  0  0
 10 11  2  0  0  0  0
 10 15  1  0  0  0  0
 11 12  1  0  0  0  0
 11 38  1  0  0  0  0
 12 13  2  0  0  0  0
 12 39  1  0  0  0  0
 13 14  1  0  0  0  0
 13 40  1  0  0  0  0
 14 15  2  0  0  0  0
 14 41  1  0  0  0  0
 15 42  1  0  0  0  0
 16 17  2  0  0  0  0
 16 21  1  0  0  0  0
 16 22  1  0  0  0  0
 17 18  1  0  0  0  0
 18 19  2  0  0  0  0
 18 43  1  0  0  0  0
 19 20  1  0  0  0  0
 19 44  1  0  0  0  0
 20 21  2  0  0  0  0
 20 45  1  0  0  0  0
 22 23  1  0  0  0  0
 22 46  1  0  0  0  0
 23 24  1  0  0  0  0
 23 47  1  0  0  0  0
 23 48  1  0  0  0  0
 24 25  1  0  0  0  0
 24 49  1  0  0  0  0
 24 50  1  0  0  0  0
 25 26  1  0  0  0  0
 25 27  1  0  0  0  0
 25 51  1  0  0  0  0
 26 52  1  0  0  0  0
 26 53  1  0  0  0  0
 26 54  1  0  0  0  0
 27 55  1  0  0  0  0
 27 56  1  0  0  0  0
 27 57  1  0  0  0  0
M  END
>  <Mol_ID>
3133

>  <Formula>
C22H30N4O

>  <MolWeight>
366.4998

>  <Cat>
S5620

>  <Name>
NSI-189

>  <Synonyms>
N/A

>  <Target>
Others

>  <Form>
free base

>  <CAS>
1270138-40-3

>  <URL>
http://selleckchem.com/products/nsi-189.html

$$$$
