S5629 L-Proline.cdx
 OpenBabel08302521383D

 17 17  0  0  0  0  0  0  0  0999 V2000
   -0.8576   -0.9263   -0.2125 C   0  0  2  0  0  0  0  0  0  0  0  0
   -1.9257   -1.7997    0.4463 C   0  0  0  0  0  0  0  0  0  0  0  0
    0.5421   -1.1628    0.3086 C   0  0  0  0  0  0  0  0  0  0  0  0
   -1.1187    0.5137    0.1024 N   0  0  0  0  0  0  0  0  0  0  0  0
   -3.1220   -1.1537    0.4948 O   0  0  0  0  0  0  0  0  0  0  0  0
   -1.7611   -2.9340    0.8618 O   0  0  0  0  0  0  0  0  0  0  0  0
    1.2580    0.1070   -0.1054 C   0  0  0  0  0  0  0  0  0  0  0  0
    0.1886    1.1883   -0.0513 C   0  0  0  0  0  0  0  0  0  0  0  0
   -0.9140   -1.0762   -1.2972 H   0  0  0  0  0  0  0  0  0  0  0  0
    0.5524   -1.2739    1.3990 H   0  0  0  0  0  0  0  0  0  0  0  0
    1.0056   -2.0551   -0.1256 H   0  0  0  0  0  0  0  0  0  0  0  0
   -1.3367    0.5717    1.1048 H   0  0  0  0  0  0  0  0  0  0  0  0
   -3.0017   -0.2599    0.0966 H   0  0  0  0  0  0  0  0  0  0  0  0
    2.1117    0.3251    0.5455 H   0  0  0  0  0  0  0  0  0  0  0  0
    1.6310    0.0048   -1.1311 H   0  0  0  0  0  0  0  0  0  0  0  0
    0.3557    1.8528    0.8041 H   0  0  0  0  0  0  0  0  0  0  0  0
    0.2036    1.8041   -0.9560 H   0  0  0  0  0  0  0  0  0  0  0  0
  1  3  1  0  0  0  0
  1  4  1  0  0  0  0
  1  9  1  6  0  0  0
  1  2  1  0  0  0  0
  2  5  1  0  0  0  0
  2  6  2  0  0  0  0
  3  7  1  0  0  0  0
  3 10  1  0  0  0  0
  3 11  1  0  0  0  0
  4  8  1  0  0  0  0
  4 12  1  0  0  0  0
  5 13  1  0  0  0  0
  7  8  1  0  0  0  0
  7 14  1  0  0  0  0
  7 15  1  0  0  0  0
  8 16  1  0  0  0  0
  8 17  1  0  0  0  0
M  END
>  <Mol_ID>
7842

>  <Formula>
C5H9NO2

>  <MolWeight>
115.13046

>  <Cat>
S5629

>  <Name>
L-Proline

>  <Synonyms>
N/A

>  <Target>
Others

>  <Form>
free base

>  <CAS>
147-85-3

>  <URL>
http://selleckchem.com/products/l-proline.html

$$$$
