S5622 Prohydrojasmon.cdx
 OpenBabel08302520143D

 44 44  0  0  0  0  0  0  0  0999 V2000
   -1.6237   -0.6812   -0.0099 C   0  0  1  0  0  0  0  0  0  0  0  0
    0.6660    0.0338    0.1232 C   0  0  0  0  0  0  0  0  0  0  0  0
   -0.1780   -1.2270    0.1316 C   0  0  2  0  0  0  0  0  0  0  0  0
   -4.0039   -0.8075    0.8735 C   0  0  0  0  0  0  0  0  0  0  0  0
   -2.5884   -1.3302    1.0044 C   0  0  0  0  0  0  0  0  0  0  0  0
   -1.5508    0.8398    0.2030 C   0  0  0  0  0  0  0  0  0  0  0  0
   -0.1290    1.2832   -0.0754 C   0  0  0  0  0  0  0  0  0  0  0  0
    1.8843    0.0473    0.2584 O   0  0  0  0  0  0  0  0  0  0  0  0
   -4.5095   -0.4343   -0.1737 O   0  0  0  0  0  0  0  0  0  0  0  0
   -4.6368   -0.8238    2.0851 O   0  0  0  0  0  0  0  0  0  0  0  0
    0.1753   -2.1935   -1.0149 C   0  0  0  0  0  0  0  0  0  0  0  0
   -5.9821   -0.3189    2.0481 C   0  0  0  0  0  0  0  0  0  0  0  0
    1.6014   -2.7609   -0.9457 C   0  0  0  0  0  0  0  0  0  0  0  0
   -6.5790   -0.3819    3.4509 C   0  0  0  0  0  0  0  0  0  0  0  0
    3.3280   -4.2612   -2.0273 C   0  0  0  0  0  0  0  0  0  0  0  0
    1.8898   -3.7387   -2.0912 C   0  0  0  0  0  0  0  0  0  0  0  0
    3.6341   -5.2149   -3.1718 C   0  0  0  0  0  0  0  0  0  0  0  0
   -8.0111    0.1284    3.4759 C   0  0  0  0  0  0  0  0  0  0  0  0
   -1.9973   -0.8689   -1.0257 H   0  0  0  0  0  0  0  0  0  0  0  0
   -0.0375   -1.7117    1.1034 H   0  0  0  0  0  0  0  0  0  0  0  0
   -2.6185   -2.4168    0.8637 H   0  0  0  0  0  0  0  0  0  0  0  0
   -2.2314   -1.1301    2.0228 H   0  0  0  0  0  0  0  0  0  0  0  0
   -2.2481    1.3616   -0.4621 H   0  0  0  0  0  0  0  0  0  0  0  0
   -1.8255    1.1151    1.2262 H   0  0  0  0  0  0  0  0  0  0  0  0
    0.1877    2.0485    0.6379 H   0  0  0  0  0  0  0  0  0  0  0  0
   -0.0013    1.6407   -1.1003 H   0  0  0  0  0  0  0  0  0  0  0  0
   -0.5357   -3.0298   -0.9977 H   0  0  0  0  0  0  0  0  0  0  0  0
    0.0467   -1.6876   -1.9808 H   0  0  0  0  0  0  0  0  0  0  0  0
   -5.9692    0.7203    1.6979 H   0  0  0  0  0  0  0  0  0  0  0  0
   -6.5806   -0.9292    1.3614 H   0  0  0  0  0  0  0  0  0  0  0  0
    2.3316   -1.9487   -1.0098 H   0  0  0  0  0  0  0  0  0  0  0  0
    1.7535   -3.2625    0.0170 H   0  0  0  0  0  0  0  0  0  0  0  0
   -6.5467   -1.4135    3.8206 H   0  0  0  0  0  0  0  0  0  0  0  0
   -5.9641    0.2067    4.1421 H   0  0  0  0  0  0  0  0  0  0  0  0
    4.0327   -3.4220   -2.0660 H   0  0  0  0  0  0  0  0  0  0  0  0
    3.4937   -4.7787   -1.0753 H   0  0  0  0  0  0  0  0  0  0  0  0
    1.1888   -4.5804   -2.0461 H   0  0  0  0  0  0  0  0  0  0  0  0
    1.7302   -3.2339   -3.0521 H   0  0  0  0  0  0  0  0  0  0  0  0
    2.9611   -6.0776   -3.1557 H   0  0  0  0  0  0  0  0  0  0  0  0
    3.5296   -4.7140   -4.1397 H   0  0  0  0  0  0  0  0  0  0  0  0
    4.6619   -5.5848   -3.0924 H   0  0  0  0  0  0  0  0  0  0  0  0
   -8.0619    1.1736    3.1535 H   0  0  0  0  0  0  0  0  0  0  0  0
   -8.6511   -0.4651    2.8146 H   0  0  0  0  0  0  0  0  0  0  0  0
   -8.4220    0.0665    4.4887 H   0  0  0  0  0  0  0  0  0  0  0  0
  1 19  1  6  0  0  0
  1  5  1  0  0  0  0
  2  3  1  0  0  0  0
  2  7  1  0  0  0  0
  3  1  1  0  0  0  0
  3 11  1  0  0  0  0
  3 20  1  1  0  0  0
  4  5  1  0  0  0  0
  5 21  1  0  0  0  0
  5 22  1  0  0  0  0
  6  1  1  0  0  0  0
  6 23  1  0  0  0  0
  6 24  1  0  0  0  0
  7  6  1  0  0  0  0
  7 25  1  0  0  0  0
  7 26  1  0  0  0  0
  8  2  2  0  0  0  0
  9  4  2  0  0  0  0
 10  4  1  0  0  0  0
 11 27  1  0  0  0  0
 11 28  1  0  0  0  0
 12 10  1  0  0  0  0
 12 29  1  0  0  0  0
 12 30  1  0  0  0  0
 13 11  1  0  0  0  0
 13 31  1  0  0  0  0
 13 32  1  0  0  0  0
 14 12  1  0  0  0  0
 14 33  1  0  0  0  0
 14 34  1  0  0  0  0
 15 16  1  0  0  0  0
 15 35  1  0  0  0  0
 15 36  1  0  0  0  0
 16 13  1  0  0  0  0
 16 37  1  0  0  0  0
 16 38  1  0  0  0  0
 17 15  1  0  0  0  0
 17 39  1  0  0  0  0
 17 40  1  0  0  0  0
 17 41  1  0  0  0  0
 18 14  1  0  0  0  0
 18 42  1  0  0  0  0
 18 43  1  0  0  0  0
 18 44  1  0  0  0  0
M  END
>  <Mol_ID>
3135

>  <Formula>
C15H26O3

>  <MolWeight>
254.36514

>  <Cat>
S5622

>  <Name>
Prohydrojasmon

>  <Synonyms>
Propyl dihydrojasmonate

>  <Target>
Others

>  <Form>
free base

>  <CAS>
158474-72-7

>  <URL>
https://www.selleckchem.com/products/prohydrojasmon.html

$$$$
