S5635 L-cysteine.cdx
 OpenBabel08302521383D

 14 13  0  0  0  0  0  0  0  0999 V2000
    0.9125   -0.1217    0.0383 C   0  0  0  0  0  0  0  0  0  0  0  0
   -0.6756    0.0472   -1.8222 N   0  0  0  0  0  0  0  0  0  0  0  0
    0.1809    0.8481   -0.8940 C   0  0  1  0  0  0  0  0  0  0  0  0
   -0.6399    1.8030   -0.0190 C   0  0  0  0  0  0  0  0  0  0  0  0
   -1.5248    3.0528   -1.0121 S   0  0  0  0  0  0  0  0  0  0  0  0
    1.9455    0.1269    0.6335 O   0  0  0  0  0  0  0  0  0  0  0  0
    0.2398   -1.2990    0.1533 O   0  0  0  0  0  0  0  0  0  0  0  0
   -1.2126    0.7184   -2.3837 H   0  0  0  0  0  0  0  0  0  0  0  0
   -0.0610   -0.4169   -2.4986 H   0  0  0  0  0  0  0  0  0  0  0  0
    0.9308    1.3843   -1.4843 H   0  0  0  0  0  0  0  0  0  0  0  0
   -1.3859    1.2455    0.5620 H   0  0  0  0  0  0  0  0  0  0  0  0
    0.0023    2.3228    0.6996 H   0  0  0  0  0  0  0  0  0  0  0  0
   -0.4453    3.7717   -1.3561 H   0  0  0  0  0  0  0  0  0  0  0  0
   -0.5399   -1.2408   -0.4539 H   0  0  0  0  0  0  0  0  0  0  0  0
  1  3  1  0  0  0  0
  1  6  2  0  0  0  0
  1  7  1  0  0  0  0
  2  8  1  0  0  0  0
  2  9  1  0  0  0  0
  3  2  1  0  0  0  0
  3  4  1  0  0  0  0
  3 10  1  6  0  0  0
  4  5  1  0  0  0  0
  4 11  1  0  0  0  0
  4 12  1  0  0  0  0
  5 13  1  0  0  0  0
  7 14  1  0  0  0  0
M  END
>  <Mol_ID>
7848

>  <Formula>
C3H7NO2S

>  <MolWeight>
121.15818

>  <Cat>
S5635

>  <Name>
L-cysteine

>  <Synonyms>
N/A

>  <Target>
Others

>  <Form>
free base

>  <CAS>
52-90-4

>  <URL>
http://selleckchem.com/products/l-cysteine.html

$$$$
