S5631 L-Alanine.cdx
 OpenBabel08302521383D

 13 12  0  0  0  0  0  0  0  0999 V2000
    0.9064   -0.0350    0.0955 C   0  0  2  0  0  0  0  0  0  0  0  0
    0.3413   -1.4122   -0.2946 C   0  0  0  0  0  0  0  0  0  0  0  0
    0.4159    0.3949    1.4711 C   0  0  0  0  0  0  0  0  0  0  0  0
    0.5011    0.9838   -0.8958 N   0  0  0  0  0  0  0  0  0  0  0  0
    0.7580   -2.4218    0.5043 O   0  0  0  0  0  0  0  0  0  0  0  0
   -0.3916   -1.6073   -1.2552 O   0  0  0  0  0  0  0  0  0  0  0  0
    2.0000   -0.1012    0.0804 H   0  0  0  0  0  0  0  0  0  0  0  0
    0.7868    1.3933    1.7280 H   0  0  0  0  0  0  0  0  0  0  0  0
   -0.6791    0.4125    1.5185 H   0  0  0  0  0  0  0  0  0  0  0  0
    0.7643   -0.2934    2.2478 H   0  0  0  0  0  0  0  0  0  0  0  0
    0.7786    0.6497   -1.8234 H   0  0  0  0  0  0  0  0  0  0  0  0
   -0.5220    0.9845   -0.9482 H   0  0  0  0  0  0  0  0  0  0  0  0
    1.3683   -2.1489    1.2151 H   0  0  0  0  0  0  0  0  0  0  0  0
  1  2  1  0  0  0  0
  1  3  1  0  0  0  0
  1  4  1  0  0  0  0
  1  7  1  1  0  0  0
  2  5  1  0  0  0  0
  2  6  2  0  0  0  0
  3  8  1  0  0  0  0
  3  9  1  0  0  0  0
  3 10  1  0  0  0  0
  4 11  1  0  0  0  0
  4 12  1  0  0  0  0
  5 13  1  0  0  0  0
M  END
>  <Mol_ID>
7844

>  <Formula>
C3H7NO2

>  <MolWeight>
89.09318

>  <Cat>
S5631

>  <Name>
L-Alanine

>  <Synonyms>
N/A

>  <Target>
Others

>  <Form>
free base

>  <CAS>
56-41-7

>  <URL>
http://selleckchem.com/products/l-alanine.html

$$$$
