S5634 L-arginine.cdx
 OpenBabel08302521383D

 26 25  0  0  0  0  0  0  0  0999 V2000
    0.9261   -0.2210   -0.0936 C   0  0  0  0  0  0  0  0  0  0  0  0
    0.4722    0.9438   -0.9839 C   0  0  0  0  0  0  0  0  0  0  0  0
    2.4344   -0.3339    0.1809 C   0  0  1  0  0  0  0  0  0  0  0  0
    0.8961    0.8269   -2.4436 C   0  0  0  0  0  0  0  0  0  0  0  0
    2.6674   -1.4130    1.2652 C   0  0  0  0  0  0  0  0  0  0  0  0
    3.2527   -0.7216   -1.0033 N   0  0  0  0  0  0  0  0  0  0  0  0
    0.3479    1.9226   -3.2268 N   0  0  0  0  0  0  0  0  0  0  0  0
    3.4902   -2.3946    0.8088 O   0  0  0  0  0  0  0  0  0  0  0  0
    2.1782   -1.4100    2.3810 O   0  0  0  0  0  0  0  0  0  0  0  0
    0.6746    2.0337   -4.5350 C   0  0  0  0  0  0  0  0  0  0  0  0
    0.0353    3.0664   -5.1137 N   0  0  0  0  0  0  0  0  0  0  0  0
    1.5009    1.2713   -5.1520 N   0  0  0  0  0  0  0  0  0  0  0  0
    0.5470   -1.1676   -0.5005 H   0  0  0  0  0  0  0  0  0  0  0  0
    0.4149   -0.0962    0.8717 H   0  0  0  0  0  0  0  0  0  0  0  0
   -0.6251    0.9841   -0.9434 H   0  0  0  0  0  0  0  0  0  0  0  0
    0.8259    1.8931   -0.5638 H   0  0  0  0  0  0  0  0  0  0  0  0
    2.8314    0.6051    0.5834 H   0  0  0  0  0  0  0  0  0  0  0  0
    1.9842    0.8838   -2.5187 H   0  0  0  0  0  0  0  0  0  0  0  0
    0.5648   -0.1335   -2.8559 H   0  0  0  0  0  0  0  0  0  0  0  0
    3.7378    0.1149   -1.3462 H   0  0  0  0  0  0  0  0  0  0  0  0
    2.6460   -1.0096   -1.7751 H   0  0  0  0  0  0  0  0  0  0  0  0
   -0.6393    2.0845   -3.0633 H   0  0  0  0  0  0  0  0  0  0  0  0
    3.7419   -2.1100   -0.1071 H   0  0  0  0  0  0  0  0  0  0  0  0
    0.4271    3.3608   -6.0000 H   0  0  0  0  0  0  0  0  0  0  0  0
   -0.0549    3.8561   -4.4854 H   0  0  0  0  0  0  0  0  0  0  0  0
    1.5550    1.5464   -6.1338 H   0  0  0  0  0  0  0  0  0  0  0  0
  1  2  1  0  0  0  0
  1  3  1  0  0  0  0
  1 13  1  0  0  0  0
  1 14  1  0  0  0  0
  2  4  1  0  0  0  0
  2 15  1  0  0  0  0
  2 16  1  0  0  0  0
  3  5  1  0  0  0  0
  3  6  1  0  0  0  0
  3 17  1  1  0  0  0
  4  7  1  0  0  0  0
  4 18  1  0  0  0  0
  4 19  1  0  0  0  0
  5  8  1  0  0  0  0
  5  9  2  0  0  0  0
  6 20  1  0  0  0  0
  6 21  1  0  0  0  0
  7 10  1  0  0  0  0
  7 22  1  0  0  0  0
  8 23  1  0  0  0  0
 10 11  1  0  0  0  0
 10 12  2  0  0  0  0
 11 24  1  0  0  0  0
 11 25  1  0  0  0  0
 12 26  1  0  0  0  0
M  END
>  <Mol_ID>
7847

>  <Formula>
C6H14N4O2

>  <MolWeight>
174.20096

>  <Cat>
S5634

>  <Name>
L-arginine

>  <Synonyms>
N/A

>  <Target>
Others

>  <Form>
free base

>  <CAS>
74-79-3

>  <URL>
http://selleckchem.com/products/l-arginine.html

$$$$
