S5633 L-methionine.cdx
 OpenBabel08302521383D

 20 19  0  0  0  0  0  0  0  0999 V2000
    0.8396   -0.2142   -0.0126 C   0  0  2  0  0  0  0  0  0  0  0  0
    2.3644   -0.3654   -0.1438 C   0  0  0  0  0  0  0  0  0  0  0  0
    0.4687    0.3976    1.3448 C   0  0  0  0  0  0  0  0  0  0  0  0
    0.1948   -1.5440   -0.1274 N   0  0  0  0  0  0  0  0  0  0  0  0
    2.9744    0.7155   -0.6822 O   0  0  0  0  0  0  0  0  0  0  0  0
    2.9846   -1.3594    0.2084 O   0  0  0  0  0  0  0  0  0  0  0  0
    0.9539    1.8324    1.5758 C   0  0  0  0  0  0  0  0  0  0  0  0
    0.5219    2.9880    0.2300 S   0  0  0  0  0  0  0  0  0  0  0  0
   -1.2652    3.1329    0.5151 C   0  0  0  0  0  0  0  0  0  0  0  0
    0.4652    0.3759   -0.8545 H   0  0  0  0  0  0  0  0  0  0  0  0
   -0.6202    0.3626    1.4723 H   0  0  0  0  0  0  0  0  0  0  0  0
    0.8808   -0.2224    2.1524 H   0  0  0  0  0  0  0  0  0  0  0  0
    0.5153   -1.9837   -0.9940 H   0  0  0  0  0  0  0  0  0  0  0  0
    0.5835   -2.1455    0.6053 H   0  0  0  0  0  0  0  0  0  0  0  0
    2.3668    1.4511   -0.9096 H   0  0  0  0  0  0  0  0  0  0  0  0
    0.5553    2.2182    2.5206 H   0  0  0  0  0  0  0  0  0  0  0  0
    2.0450    1.8412    1.6731 H   0  0  0  0  0  0  0  0  0  0  0  0
   -1.7135    2.1762    0.7907 H   0  0  0  0  0  0  0  0  0  0  0  0
   -1.4613    3.8656    1.3021 H   0  0  0  0  0  0  0  0  0  0  0  0
   -1.7427    3.4753   -0.4067 H   0  0  0  0  0  0  0  0  0  0  0  0
  1  2  1  0  0  0  0
  1  3  1  0  0  0  0
  1  4  1  0  0  0  0
  1 10  1  6  0  0  0
  2  5  1  0  0  0  0
  2  6  2  0  0  0  0
  3  7  1  0  0  0  0
  3 11  1  0  0  0  0
  3 12  1  0  0  0  0
  4 13  1  0  0  0  0
  4 14  1  0  0  0  0
  5 15  1  0  0  0  0
  7  8  1  0  0  0  0
  7 16  1  0  0  0  0
  7 17  1  0  0  0  0
  8  9  1  0  0  0  0
  9 18  1  0  0  0  0
  9 19  1  0  0  0  0
  9 20  1  0  0  0  0
M  END
>  <Mol_ID>
7846

>  <Formula>
C5H11NO2S

>  <MolWeight>
149.21134

>  <Cat>
S5633

>  <Name>
L-methionine

>  <Synonyms>
N/A

>  <Target>
Others

>  <Form>
free base

>  <CAS>
63-68-3

>  <URL>
http://selleckchem.com/products/l-methionine.html

$$$$
