S5630 L-lysine.cdx
 OpenBabel08302521383D

 24 23  0  0  0  0  0  0  0  0999 V2000
    1.0766   -1.0283    2.2397 C   0  0  0  0  0  0  0  0  0  0  0  0
    1.0960    0.2687    0.1375 N   0  0  0  0  0  0  0  0  0  0  0  0
    0.2283   -0.5262    1.0577 C   0  0  1  0  0  0  0  0  0  0  0  0
   -0.5244   -1.6561    0.3389 C   0  0  0  0  0  0  0  0  0  0  0  0
    0.3004   -2.6486   -0.4990 C   0  0  0  0  0  0  0  0  0  0  0  0
    1.2217   -3.5534    0.3242 C   0  0  0  0  0  0  0  0  0  0  0  0
    2.0145   -4.5556   -0.5148 C   0  0  0  0  0  0  0  0  0  0  0  0
    1.1522   -5.5255   -1.1783 N   0  0  0  0  0  0  0  0  0  0  0  0
    0.6429   -1.5862    3.2326 O   0  0  0  0  0  0  0  0  0  0  0  0
    2.3980   -0.7881    2.0289 O   0  0  0  0  0  0  0  0  0  0  0  0
    0.5515    0.4651   -0.7083 H   0  0  0  0  0  0  0  0  0  0  0  0
    1.2318    1.1935    0.5618 H   0  0  0  0  0  0  0  0  0  0  0  0
   -0.5067    0.1672    1.4833 H   0  0  0  0  0  0  0  0  0  0  0  0
   -1.1149   -2.2206    1.0728 H   0  0  0  0  0  0  0  0  0  0  0  0
   -1.2531   -1.1907   -0.3384 H   0  0  0  0  0  0  0  0  0  0  0  0
   -0.4130   -3.2768   -1.0478 H   0  0  0  0  0  0  0  0  0  0  0  0
    0.8805   -2.1110   -1.2573 H   0  0  0  0  0  0  0  0  0  0  0  0
    1.9615   -2.9484    0.8496 H   0  0  0  0  0  0  0  0  0  0  0  0
    0.6374   -4.0820    1.0875 H   0  0  0  0  0  0  0  0  0  0  0  0
    2.6096   -4.0246   -1.2656 H   0  0  0  0  0  0  0  0  0  0  0  0
    2.7148   -5.0887    0.1386 H   0  0  0  0  0  0  0  0  0  0  0  0
    1.7348   -6.2192   -1.6461 H   0  0  0  0  0  0  0  0  0  0  0  0
    0.6178   -6.0367   -0.4768 H   0  0  0  0  0  0  0  0  0  0  0  0
    2.4586   -0.4027    1.1188 H   0  0  0  0  0  0  0  0  0  0  0  0
  1  3  1  0  0  0  0
  1  9  2  0  0  0  0
  1 10  1  0  0  0  0
  2 11  1  0  0  0  0
  2 12  1  0  0  0  0
  3  2  1  0  0  0  0
  3  4  1  0  0  0  0
  3 13  1  1  0  0  0
  4  5  1  0  0  0  0
  4 14  1  0  0  0  0
  4 15  1  0  0  0  0
  5  6  1  0  0  0  0
  5 16  1  0  0  0  0
  5 17  1  0  0  0  0
  6  7  1  0  0  0  0
  6 18  1  0  0  0  0
  6 19  1  0  0  0  0
  7  8  1  0  0  0  0
  7 20  1  0  0  0  0
  7 21  1  0  0  0  0
  8 22  1  0  0  0  0
  8 23  1  0  0  0  0
 10 24  1  0  0  0  0
M  END
>  <Mol_ID>
7843

>  <Formula>
C6H14N2O2

>  <MolWeight>
146.18756

>  <Cat>
S5630

>  <Name>
L-lysine

>  <Synonyms>
N/A

>  <Target>
Others

>  <Form>
free base

>  <CAS>
56-87-1

>  <URL>
http://selleckchem.com/products/l-lysine.html

$$$$
