S5632 L-aspartic Acid.cdx
 OpenBabel08302521383D

 16 15  0  0  0  0  0  0  0  0999 V2000
    0.9402   -0.1419   -0.0321 C   0  0  1  0  0  0  0  0  0  0  0  0
    0.2479    1.1432   -0.4717 C   0  0  0  0  0  0  0  0  0  0  0  0
    0.4767   -0.5121    1.3803 C   0  0  0  0  0  0  0  0  0  0  0  0
    0.7062   -1.2266   -1.0292 N   0  0  0  0  0  0  0  0  0  0  0  0
    0.8235    1.7525   -1.7267 C   0  0  0  0  0  0  0  0  0  0  0  0
   -0.4419   -1.5042    1.4296 O   0  0  0  0  0  0  0  0  0  0  0  0
    0.8581    0.0620    2.3887 O   0  0  0  0  0  0  0  0  0  0  0  0
    1.2431    0.8564   -2.6522 O   0  0  0  0  0  0  0  0  0  0  0  0
    0.8377    2.9547   -1.9411 O   0  0  0  0  0  0  0  0  0  0  0  0
    2.0259    0.0056    0.0213 H   0  0  0  0  0  0  0  0  0  0  0  0
   -0.8260    0.9844   -0.6255 H   0  0  0  0  0  0  0  0  0  0  0  0
    0.3534    1.8960    0.3201 H   0  0  0  0  0  0  0  0  0  0  0  0
    1.1133   -2.1043   -0.6884 H   0  0  0  0  0  0  0  0  0  0  0  0
   -0.2794   -1.3668   -1.2495 H   0  0  0  0  0  0  0  0  0  0  0  0
   -0.6728   -1.8601    0.5555 H   0  0  0  0  0  0  0  0  0  0  0  0
    1.1678   -0.0806   -2.3478 H   0  0  0  0  0  0  0  0  0  0  0  0
  1  4  1  0  0  0  0
  1 10  1  1  0  0  0
  1  3  1  0  0  0  0
  1  2  1  0  0  0  0
  2  5  1  0  0  0  0
  2 11  1  0  0  0  0
  2 12  1  0  0  0  0
  3  6  1  0  0  0  0
  3  7  2  0  0  0  0
  4 13  1  0  0  0  0
  4 14  1  0  0  0  0
  5  8  1  0  0  0  0
  5  9  2  0  0  0  0
  6 15  1  0  0  0  0
  8 16  1  0  0  0  0
M  END
>  <Mol_ID>
7845

>  <Formula>
C4H7NO4

>  <MolWeight>
133.10268

>  <Cat>
S5632

>  <Name>
L-aspartic Acid

>  <Synonyms>
N/A

>  <Target>
Others

>  <Form>
free base

>  <CAS>
56-84-8

>  <URL>
http://selleckchem.com/products/l-aspartic-acid.html

$$$$
