S5636 Methyl furan-2-carboxylate.cdx
 OpenBabel08302520013D

 15 15  0  0  0  0  0  0  0  0999 V2000
   -1.0620    0.1353   -0.0142 O   0  0  0  0  0  0  0  0  0  0  0  0
   -0.1867    1.1923   -0.0083 C   0  0  0  0  0  0  0  0  0  0  0  0
    1.1079    0.7045    0.0034 C   0  0  0  0  0  0  0  0  0  0  0  0
    1.0155   -0.7100    0.0038 C   0  0  0  0  0  0  0  0  0  0  0  0
   -0.3264   -1.0035   -0.0067 C   0  0  0  0  0  0  0  0  0  0  0  0
   -0.6912    2.5452   -0.0148 C   0  0  0  0  0  0  0  0  0  0  0  0
   -0.0048    3.5609   -0.0100 O   0  0  0  0  0  0  0  0  0  0  0  0
   -2.0559    2.5352   -0.0288 O   0  0  0  0  0  0  0  0  0  0  0  0
   -2.6638    3.8236   -0.0390 C   0  0  0  0  0  0  0  0  0  0  0  0
    2.0078    1.3061    0.0101 H   0  0  0  0  0  0  0  0  0  0  0  0
    1.8243   -1.4268    0.0109 H   0  0  0  0  0  0  0  0  0  0  0  0
   -0.8941   -1.9237   -0.0104 H   0  0  0  0  0  0  0  0  0  0  0  0
   -2.3960    4.3818    0.8631 H   0  0  0  0  0  0  0  0  0  0  0  0
   -2.3788    4.3754   -0.9397 H   0  0  0  0  0  0  0  0  0  0  0  0
   -3.7483    3.6822   -0.0488 H   0  0  0  0  0  0  0  0  0  0  0  0
  1  2  1  0  0  0  0
  1  5  1  0  0  0  0
  2  3  2  0  0  0  0
  2  6  1  0  0  0  0
  3  4  1  0  0  0  0
  3 10  1  0  0  0  0
  4  5  2  0  0  0  0
  4 11  1  0  0  0  0
  5 12  1  0  0  0  0
  6  7  2  0  0  0  0
  6  8  1  0  0  0  0
  8  9  1  0  0  0  0
  9 13  1  0  0  0  0
  9 14  1  0  0  0  0
  9 15  1  0  0  0  0
M  END
>  <Mol_ID>
3086

>  <Formula>
C6H6O3

>  <MolWeight>
126.11004

>  <Cat>
S5636

>  <Name>
Methyl furan-2-carboxylate

>  <Synonyms>
Methyl pyromucate, Methyl 2-furoate

>  <Target>
Others

>  <Form>
free base

>  <CAS>
611-13-2

>  <URL>
http://selleckchem.com/products/methyl-furan-2-carboxylate.html

$$$$
