S5648 Iguratimod.cdx
 OpenBabel08302520143D

 40 42  0  0  0  0  0  0  0  0999 V2000
   -0.0012    0.4171   -0.0735 C   0  0  0  0  0  0  0  0  0  0  0  0
    0.3973   -0.9152   -0.0174 C   0  0  0  0  0  0  0  0  0  0  0  0
    0.9557    1.4329   -0.1461 C   0  0  0  0  0  0  0  0  0  0  0  0
   -1.4435    0.7313   -0.0587 C   0  0  0  0  0  0  0  0  0  0  0  0
    1.7526   -1.2476   -0.0537 C   0  0  0  0  0  0  0  0  0  0  0  0
   -0.4967   -1.9546    0.0324 O   0  0  0  0  0  0  0  0  0  0  0  0
    2.3221    1.1139   -0.1120 C   0  0  0  0  0  0  0  0  0  0  0  0
   -2.3791   -0.4273   -0.0161 C   0  0  0  0  0  0  0  0  0  0  0  0
   -1.8647    1.8851   -0.0800 O   0  0  0  0  0  0  0  0  0  0  0  0
    2.7146   -0.2390   -0.1394 C   0  0  0  0  0  0  0  0  0  0  0  0
   -1.8376   -1.6515    0.0171 C   0  0  0  0  0  0  0  0  0  0  0  0
    3.3237    2.0646   -0.1442 O   0  0  0  0  0  0  0  0  0  0  0  0
   -3.7238   -0.1264   -0.0133 N   0  0  0  0  0  0  0  0  0  0  0  0
    4.0877   -0.6158   -0.3261 N   0  0  0  0  0  0  0  0  0  0  0  0
    3.1202    3.3082    0.4193 C   0  0  0  0  0  0  0  0  0  0  0  0
   -4.7814   -1.0040    0.0073 C   0  0  0  0  0  0  0  0  0  0  0  0
    5.0329   -0.9613    1.0247 S   0  0  0  0  0  0  0  0  0  0  0  0
    2.3130    3.5592    1.5340 C   0  0  0  0  0  0  0  0  0  0  0  0
    3.8235    4.3650   -0.1647 C   0  0  0  0  0  0  0  0  0  0  0  0
   -4.7415   -2.2272    0.0153 O   0  0  0  0  0  0  0  0  0  0  0  0
    4.8859   -2.7356    1.1486 C   0  0  0  0  0  0  0  0  0  0  0  0
    6.3952   -0.6777    0.6217 O   0  0  0  0  0  0  0  0  0  0  0  0
    4.4499   -0.3596    2.2012 O   0  0  0  0  0  0  0  0  0  0  0  0
    2.1201    4.8679    1.9838 C   0  0  0  0  0  0  0  0  0  0  0  0
    3.6612    5.6691    0.3106 C   0  0  0  0  0  0  0  0  0  0  0  0
    2.7909    5.9230    1.3695 C   0  0  0  0  0  0  0  0  0  0  0  0
    0.6235    2.4653   -0.2290 H   0  0  0  0  0  0  0  0  0  0  0  0
    2.0411   -2.2936   -0.0650 H   0  0  0  0  0  0  0  0  0  0  0  0
   -2.4057   -2.5717    0.0458 H   0  0  0  0  0  0  0  0  0  0  0  0
   -3.9368    0.8707   -0.0264 H   0  0  0  0  0  0  0  0  0  0  0  0
    4.6099    0.0467   -0.9085 H   0  0  0  0  0  0  0  0  0  0  0  0
   -5.7436   -0.4640    0.0132 H   0  0  0  0  0  0  0  0  0  0  0  0
    1.8083    2.7528    2.0580 H   0  0  0  0  0  0  0  0  0  0  0  0
    4.4988    4.1771   -0.9951 H   0  0  0  0  0  0  0  0  0  0  0  0
    5.2613   -3.1958    0.2325 H   0  0  0  0  0  0  0  0  0  0  0  0
    5.4913   -3.0624    1.9981 H   0  0  0  0  0  0  0  0  0  0  0  0
    3.8437   -3.0000    1.3271 H   0  0  0  0  0  0  0  0  0  0  0  0
    1.4473    5.0613    2.8157 H   0  0  0  0  0  0  0  0  0  0  0  0
    4.2097    6.4878   -0.1481 H   0  0  0  0  0  0  0  0  0  0  0  0
    2.6455    6.9400    1.7252 H   0  0  0  0  0  0  0  0  0  0  0  0
  1  2  1  0  0  0  0
  1  3  2  0  0  0  0
  1  4  1  0  0  0  0
  2  5  2  0  0  0  0
  2  6  1  0  0  0  0
  3  7  1  0  0  0  0
  3 27  1  0  0  0  0
  4  8  1  0  0  0  0
  4  9  2  0  0  0  0
  5 10  1  0  0  0  0
  5 28  1  0  0  0  0
  6 11  1  0  0  0  0
  7 12  1  0  0  0  0
  7 10  2  0  0  0  0
  8 13  1  0  0  0  0
  8 11  2  0  0  0  0
 10 14  1  0  0  0  0
 11 29  1  0  0  0  0
 12 15  1  0  0  0  0
 13 16  1  0  0  0  0
 13 30  1  0  0  0  0
 14 17  1  0  0  0  0
 14 31  1  0  0  0  0
 15 18  2  0  0  0  0
 15 19  1  0  0  0  0
 16 20  2  0  0  0  0
 16 32  1  0  0  0  0
 17 21  1  0  0  0  0
 17 22  2  0  0  0  0
 17 23  2  0  0  0  0
 18 24  1  0  0  0  0
 18 33  1  0  0  0  0
 19 25  2  0  0  0  0
 19 34  1  0  0  0  0
 21 35  1  0  0  0  0
 21 36  1  0  0  0  0
 21 37  1  0  0  0  0
 24 26  2  0  0  0  0
 24 38  1  0  0  0  0
 25 26  1  0  0  0  0
 25 39  1  0  0  0  0
 26 40  1  0  0  0  0
M  END
>  <Mol_ID>
3123

>  <Formula>
C17H14N2O6S

>  <MolWeight>
374.36786

>  <Cat>
S5648

>  <Name>
Iguratimod

>  <Synonyms>
T-614

>  <Target>
Immunology & Inflammation related

>  <Form>
free base

>  <CAS>
123663-49-0

>  <URL>
http://selleckchem.com/products/iguratimod.html

$$$$
