S5657 Ertapenem sodium.cdx
 OpenBabel08302520303D

 57 60  0  0  0  0  0  0  0  0999 V2000
    2.2526   -2.0955    4.6193 N   0  0  0  0  0  0  0  0  0  0  0  0
    2.4726   -2.1551    3.2453 C   0  0  0  0  0  0  0  0  0  0  0  0
    1.6952   -3.1343    5.3076 C   0  0  0  0  0  0  0  0  0  0  0  0
    3.7855   -2.2768    2.9731 C   0  0  0  0  0  0  0  0  0  0  0  0
    3.5428   -2.1386    5.3452 C   0  0  1  0  0  0  0  0  0  0  0  0
    2.8379   -3.1272    6.3412 C   0  0  1  0  0  0  0  0  0  0  0  0
    4.5827   -2.4723    4.2626 C   0  0  1  0  0  0  0  0  0  0  0  0
    1.2561   -2.1060    2.2501 C   0  0  0  0  0  0  0  0  0  0  0  0
    5.6992    2.6675    0.7352 C   0  0  0  0  0  0  0  0  0  0  0  0
    4.6086   -2.3552    1.4510 S   0  0  0  0  0  0  0  0  0  0  0  0
    5.4002    0.7763   -0.8589 N   0  0  0  0  0  0  0  0  0  0  0  0
    4.8054    1.4974    0.2942 C   0  0  1  0  0  0  0  0  0  0  0  0
    5.6784    3.7497   -0.1393 N   0  0  0  0  0  0  0  0  0  0  0  0
    6.1190    7.3288    3.2620 C   0  0  0  0  0  0  0  0  0  0  0  0
    0.7478   -3.8707    5.1335 O   0  0  0  0  0  0  0  0  0  0  0  0
    6.1894    6.8691    1.8535 C   0  0  0  0  0  0  0  0  0  0  0  0
    4.6546    0.4441    1.3855 C   0  0  0  0  0  0  0  0  0  0  0  0
    4.1823   -0.7802    0.6243 C   0  0  1  0  0  0  0  0  0  0  0  0
    2.4584   -2.5682    7.7068 C   0  0  2  0  0  0  0  0  0  0  0  0
    0.2732   -1.4163    2.6533 O   0  5  0  0  0  0  0  0  0  0  0  0
    5.9751    5.0930    0.2017 C   0  0  0  0  0  0  0  0  0  0  0  0
    6.1289    5.5071    1.5284 C   0  0  0  0  0  0  0  0  0  0  0  0
    6.3741    2.6265    1.7637 O   0  0  0  0  0  0  0  0  0  0  0  0
    1.4057   -2.7135    1.1516 O   0  0  0  0  0  0  0  0  0  0  0  0
    6.2613    8.4730    3.6494 O   0  0  0  0  0  0  0  0  0  0  0  0
    4.9044   -0.6269   -0.7307 C   0  0  0  0  0  0  0  0  0  0  0  0
    5.7664    6.3364    4.0993 O   0  0  0  0  0  0  0  0  0  0  0  0
    5.1152   -3.8933    4.4212 C   0  0  0  0  0  0  0  0  0  0  0  0
    3.6446   -2.4865    8.5054 O   0  0  0  0  0  0  0  0  0  0  0  0
    6.2076    7.8268    0.8368 C   0  0  0  0  0  0  0  0  0  0  0  0
    6.1194    7.4219   -0.4951 C   0  0  0  0  0  0  0  0  0  0  0  0
    5.9813    6.0627   -0.8093 C   0  0  0  0  0  0  0  0  0  0  0  0
    1.4503   -3.4591    8.4264 C   0  0  0  0  0  0  0  0  0  0  0  0
    3.7610   -1.1591    5.7949 H   0  0  0  0  0  0  0  0  0  0  0  0
    3.3201   -4.1085    6.4283 H   0  0  0  0  0  0  0  0  0  0  0  0
    5.4062   -1.7533    4.3057 H   0  0  0  0  0  0  0  0  0  0  0  0
    6.4119    0.7358   -0.7092 H   0  0  0  0  0  0  0  0  0  0  0  0
    3.8246    1.8947    0.0043 H   0  0  0  0  0  0  0  0  0  0  0  0
    5.3655    3.5538   -1.0845 H   0  0  0  0  0  0  0  0  0  0  0  0
    5.6136    0.2577    1.8851 H   0  0  0  0  0  0  0  0  0  0  0  0
    3.9330    0.7601    2.1459 H   0  0  0  0  0  0  0  0  0  0  0  0
    3.1017   -0.7194    0.4532 H   0  0  0  0  0  0  0  0  0  0  0  0
    2.0505   -1.5557    7.6138 H   0  0  0  0  0  0  0  0  0  0  0  0
    6.1307    4.7866    2.3394 H   0  0  0  0  0  0  0  0  0  0  0  0
    5.7669   -1.2973   -0.8289 H   0  0  0  0  0  0  0  0  0  0  0  0
    4.2248   -0.8507   -1.5606 H   0  0  0  0  0  0  0  0  0  0  0  0
    5.6246    6.7641    4.9664 H   0  0  0  0  0  0  0  0  0  0  0  0
    5.9062   -4.1061    3.6953 H   0  0  0  0  0  0  0  0  0  0  0  0
    5.5347   -4.0348    5.4223 H   0  0  0  0  0  0  0  0  0  0  0  0
    4.3282   -4.6448    4.2810 H   0  0  0  0  0  0  0  0  0  0  0  0
    3.3692   -2.2485    9.4078 H   0  0  0  0  0  0  0  0  0  0  0  0
    6.2550    8.8870    1.0816 H   0  0  0  0  0  0  0  0  0  0  0  0
    6.1141    8.1687   -1.2869 H   0  0  0  0  0  0  0  0  0  0  0  0
    5.8616    5.7776   -1.8514 H   0  0  0  0  0  0  0  0  0  0  0  0
    1.9319   -4.3442    8.8563 H   0  0  0  0  0  0  0  0  0  0  0  0
    1.0030   -2.9105    9.2635 H   0  0  0  0  0  0  0  0  0  0  0  0
    0.6361   -3.7870    7.7750 H   0  0  0  0  0  0  0  0  0  0  0  0
  2  1  1  0  0  0  0
  3  1  1  0  0  0  0
  4  2  2  0  0  0  0
  5  1  1  0  0  0  0
  5 34  1  1  0  0  0
  6  3  1  0  0  0  0
  6  5  1  0  0  0  0
  6 35  1  1  0  0  0
  6 19  1  0  0  0  0
  7  4  1  0  0  0  0
  7  5  1  0  0  0  0
  7 28  1  0  0  0  0
  7 36  1  1  0  0  0
  8  2  1  0  0  0  0
 10  4  1  0  0  0  0
 11 26  1  0  0  0  0
 11 12  1  0  0  0  0
 11 37  1  0  0  0  0
 12 17  1  0  0  0  0
 12 38  1  6  0  0  0
 12  9  1  0  0  0  0
 13  9  1  0  0  0  0
 13 39  1  0  0  0  0
 14 16  1  0  0  0  0
 15  3  2  0  0  0  0
 16 22  2  0  0  0  0
 17 18  1  0  0  0  0
 17 40  1  0  0  0  0
 17 41  1  0  0  0  0
 18 42  1  6  0  0  0
 18 10  1  0  0  0  0
 19 43  1  6  0  0  0
 19 33  1  0  0  0  0
 19 29  1  0  0  0  0
 20  8  1  0  0  0  0
 21 13  1  0  0  0  0
 22 21  1  0  0  0  0
 22 44  1  0  0  0  0
 23  9  2  0  0  0  0
 24  8  2  0  0  0  0
 25 14  2  0  0  0  0
 26 18  1  0  0  0  0
 26 45  1  0  0  0  0
 26 46  1  0  0  0  0
 27 14  1  0  0  0  0
 27 47  1  0  0  0  0
 28 48  1  0  0  0  0
 28 49  1  0  0  0  0
 28 50  1  0  0  0  0
 29 51  1  0  0  0  0
 30 16  1  0  0  0  0
 30 31  2  0  0  0  0
 30 52  1  0  0  0  0
 31 32  1  0  0  0  0
 31 53  1  0  0  0  0
 32 21  2  0  0  0  0
 32 54  1  0  0  0  0
 33 55  1  0  0  0  0
 33 56  1  0  0  0  0
 33 57  1  0  0  0  0
M  CHG  1  20  -1
M  END
>  <Mol_ID>
3295

>  <Formula>
C22H24N3NaO7S

>  <MolWeight>
497.49663

>  <Cat>
S5657

>  <Name>
Ertapenem sodium

>  <Synonyms>
MK826

>  <Target>
Antibiotics

>  <Form>
sodium salt

>  <CAS>
153773-82-1

>  <URL>
http://selleckchem.com/products/ertapenem-sodium.html

$$$$
