S5651 Dexrazoxane.cdx
 OpenBabel08302520143D

 35 36  0  0  0  0  0  0  0  0999 V2000
   -0.2492    1.9875    0.6220 N   0  0  0  0  0  0  0  0  0  0  0  0
    0.0377    1.4734    1.9873 C   0  0  0  0  0  0  0  0  0  0  0  0
   -0.2682    3.4844    0.6628 C   0  0  0  0  0  0  0  0  0  0  0  0
   -1.5192    1.5493   -0.0106 C   0  0  0  0  0  0  0  0  0  0  0  0
    0.0974   -0.0529    2.4167 C   0  0  1  0  0  0  0  0  0  0  0  0
   -1.4689    4.0299    1.4433 C   0  0  0  0  0  0  0  0  0  0  0  0
   -2.7833    2.1457    0.6163 C   0  0  0  0  0  0  0  0  0  0  0  0
    1.1328   -0.9688    1.8806 N   0  0  0  0  0  0  0  0  0  0  0  0
    0.0894   -0.0406    3.9621 C   0  0  0  0  0  0  0  0  0  0  0  0
   -2.6341    3.2986    1.3491 N   0  0  0  0  0  0  0  0  0  0  0  0
   -1.4337    5.0723    2.0909 O   0  0  0  0  0  0  0  0  0  0  0  0
   -3.9041    1.6799    0.4211 O   0  0  0  0  0  0  0  0  0  0  0  0
    0.9529   -2.3863    2.2857 C   0  0  0  0  0  0  0  0  0  0  0  0
    2.5527   -0.5766    1.9036 C   0  0  0  0  0  0  0  0  0  0  0  0
    1.6870   -2.7765    3.5740 C   0  0  0  0  0  0  0  0  0  0  0  0
    3.3553   -1.0503    3.1249 C   0  0  0  0  0  0  0  0  0  0  0  0
    2.8302   -2.0773    3.8691 N   0  0  0  0  0  0  0  0  0  0  0  0
    1.3231   -3.7100    4.2899 O   0  0  0  0  0  0  0  0  0  0  0  0
    4.4615   -0.5950    3.4003 O   0  0  0  0  0  0  0  0  0  0  0  0
    0.9963    1.9127    2.2880 H   0  0  0  0  0  0  0  0  0  0  0  0
   -0.7102    1.9210    2.6532 H   0  0  0  0  0  0  0  0  0  0  0  0
   -0.3170    3.8979   -0.3525 H   0  0  0  0  0  0  0  0  0  0  0  0
    0.6526    3.8619    1.1231 H   0  0  0  0  0  0  0  0  0  0  0  0
   -1.5153    1.8865   -1.0576 H   0  0  0  0  0  0  0  0  0  0  0  0
   -1.5986    0.4597   -0.0277 H   0  0  0  0  0  0  0  0  0  0  0  0
   -0.8663   -0.4715    2.0978 H   0  0  0  0  0  0  0  0  0  0  0  0
   -0.7474    0.5593    4.3362 H   0  0  0  0  0  0  0  0  0  0  0  0
   -0.0483   -1.0348    4.3889 H   0  0  0  0  0  0  0  0  0  0  0  0
    1.0133    0.3938    4.3579 H   0  0  0  0  0  0  0  0  0  0  0  0
   -3.4531    3.6833    1.7846 H   0  0  0  0  0  0  0  0  0  0  0  0
    1.3279   -3.0447    1.4974 H   0  0  0  0  0  0  0  0  0  0  0  0
   -0.1092   -2.6167    2.4255 H   0  0  0  0  0  0  0  0  0  0  0  0
    3.0439   -1.0404    1.0376 H   0  0  0  0  0  0  0  0  0  0  0  0
    2.6831    0.5009    1.8072 H   0  0  0  0  0  0  0  0  0  0  0  0
    3.3627   -2.3862    4.6660 H   0  0  0  0  0  0  0  0  0  0  0  0
  1  2  1  0  0  0  0
  1  3  1  0  0  0  0
  1  4  1  0  0  0  0
  2  5  1  0  0  0  0
  2 20  1  0  0  0  0
  2 21  1  0  0  0  0
  3  6  1  0  0  0  0
  3 22  1  0  0  0  0
  3 23  1  0  0  0  0
  4  7  1  0  0  0  0
  4 24  1  0  0  0  0
  4 25  1  0  0  0  0
  5  8  1  0  0  0  0
  5  9  1  0  0  0  0
  5 26  1  6  0  0  0
  6 10  1  0  0  0  0
  6 11  2  0  0  0  0
  7 12  2  0  0  0  0
  7 10  1  0  0  0  0
  8 13  1  0  0  0  0
  8 14  1  0  0  0  0
  9 27  1  0  0  0  0
  9 28  1  0  0  0  0
  9 29  1  0  0  0  0
 10 30  1  0  0  0  0
 13 15  1  0  0  0  0
 13 31  1  0  0  0  0
 13 32  1  0  0  0  0
 14 16  1  0  0  0  0
 14 33  1  0  0  0  0
 14 34  1  0  0  0  0
 15 17  1  0  0  0  0
 15 18  2  0  0  0  0
 16 19  2  0  0  0  0
 16 17  1  0  0  0  0
 17 35  1  0  0  0  0
M  END
>  <Mol_ID>
3124

>  <Formula>
C11H16N4O4

>  <MolWeight>
268.26914

>  <Cat>
S5651

>  <Name>
Dexrazoxane

>  <Synonyms>
ICRF-187

>  <Target>
Others

>  <Form>
free base

>  <CAS>
24584-09-6

>  <URL>
http://selleckchem.com/products/dexrazoxane.html

$$$$
