S5654 Indacaterol.cdx
 OpenBabel08302520303D

 57 60  0  0  0  0  0  0  0  0999 V2000
    1.4914    6.9380   -1.0458 N   0  0  0  0  0  0  0  0  0  0  0  0
    2.6396    7.3172   -1.6741 C   0  0  0  0  0  0  0  0  0  0  0  0
    3.5787    6.2298   -2.0335 C   0  0  0  0  0  0  0  0  0  0  0  0
    3.3052    4.9474   -1.7555 C   0  0  0  0  0  0  0  0  0  0  0  0
    2.0509    4.5647   -1.0827 C   0  0  0  0  0  0  0  0  0  0  0  0
    1.6934    3.2281   -0.7802 C   0  0  0  0  0  0  0  0  0  0  0  0
    0.4541    3.0011   -0.1375 C   0  0  0  0  0  0  0  0  0  0  0  0
   -0.4078    4.0454    0.2008 C   0  0  0  0  0  0  0  0  0  0  0  0
   -0.0494    5.3450   -0.1082 C   0  0  0  0  0  0  0  0  0  0  0  0
    1.1665    5.6070   -0.7405 C   0  0  0  0  0  0  0  0  0  0  0  0
    2.9035    8.4819   -1.9437 O   0  0  0  0  0  0  0  0  0  0  0  0
   -0.8777    6.3896    0.1957 O   0  0  0  0  0  0  0  0  0  0  0  0
    2.5926    2.0609   -1.1661 C   0  0  2  0  0  0  0  0  0  0  0  0
    2.0554    0.6179   -0.9454 C   0  0  0  0  0  0  0  0  0  0  0  0
    3.8562    2.1613   -0.4957 O   0  0  0  0  0  0  0  0  0  0  0  0
    1.8667    0.2563    0.4753 N   0  0  0  0  0  0  0  0  0  0  0  0
    1.1854   -1.4540    2.1720 C   0  0  0  0  0  0  0  0  0  0  0  0
    1.3568   -1.1309    0.6514 C   0  0  0  0  0  0  0  0  0  0  0  0
    2.3695   -2.2004    0.1821 C   0  0  0  0  0  0  0  0  0  0  0  0
    3.2729   -2.2383    1.3735 C   0  0  0  0  0  0  0  0  0  0  0  0
    4.6255   -2.4975    1.3961 C   0  0  0  0  0  0  0  0  0  0  0  0
    5.3179   -2.4518    2.6173 C   0  0  0  0  0  0  0  0  0  0  0  0
    4.5807   -2.2297    3.8200 C   0  0  0  0  0  0  0  0  0  0  0  0
    3.2038   -1.9194    3.7590 C   0  0  0  0  0  0  0  0  0  0  0  0
    2.5800   -1.8833    2.5282 C   0  0  0  0  0  0  0  0  0  0  0  0
    5.2164   -2.3111    5.1932 C   0  0  0  0  0  0  0  0  0  0  0  0
    5.6563   -0.9606    5.7346 C   0  0  0  0  0  0  0  0  0  0  0  0
    6.8277   -2.6143    2.6380 C   0  0  0  0  0  0  0  0  0  0  0  0
    7.5176   -2.7304    1.2779 C   0  0  0  0  0  0  0  0  0  0  0  0
    0.8298    7.6604   -0.7887 H   0  0  0  0  0  0  0  0  0  0  0  0
    4.4949    6.5335   -2.5246 H   0  0  0  0  0  0  0  0  0  0  0  0
    4.0238    4.1814   -2.0219 H   0  0  0  0  0  0  0  0  0  0  0  0
    0.1262    1.9961    0.1132 H   0  0  0  0  0  0  0  0  0  0  0  0
   -1.3468    3.8161    0.6948 H   0  0  0  0  0  0  0  0  0  0  0  0
   -1.6805    6.0368    0.6142 H   0  0  0  0  0  0  0  0  0  0  0  0
    2.7914    2.1444   -2.2428 H   0  0  0  0  0  0  0  0  0  0  0  0
    1.1175    0.4857   -1.4961 H   0  0  0  0  0  0  0  0  0  0  0  0
    2.8050   -0.0465   -1.3879 H   0  0  0  0  0  0  0  0  0  0  0  0
    3.6534    2.3330    0.4402 H   0  0  0  0  0  0  0  0  0  0  0  0
    2.7732    0.3247    0.9479 H   0  0  0  0  0  0  0  0  0  0  0  0
    0.8462   -0.5889    2.7498 H   0  0  0  0  0  0  0  0  0  0  0  0
    0.4902   -2.2894    2.3148 H   0  0  0  0  0  0  0  0  0  0  0  0
    0.3950   -1.2194    0.1345 H   0  0  0  0  0  0  0  0  0  0  0  0
    1.8785   -3.1726    0.0601 H   0  0  0  0  0  0  0  0  0  0  0  0
    2.9006   -1.9643   -0.7403 H   0  0  0  0  0  0  0  0  0  0  0  0
    5.1255   -2.6859    0.4525 H   0  0  0  0  0  0  0  0  0  0  0  0
    2.6443   -1.6929    4.6626 H   0  0  0  0  0  0  0  0  0  0  0  0
    4.4928   -2.7572    5.8888 H   0  0  0  0  0  0  0  0  0  0  0  0
    6.0633   -3.0048    5.1853 H   0  0  0  0  0  0  0  0  0  0  0  0
    4.8129   -0.2670    5.8104 H   0  0  0  0  0  0  0  0  0  0  0  0
    6.0814   -1.0820    6.7374 H   0  0  0  0  0  0  0  0  0  0  0  0
    6.4174   -0.5011    5.0971 H   0  0  0  0  0  0  0  0  0  0  0  0
    7.2569   -1.7415    3.1449 H   0  0  0  0  0  0  0  0  0  0  0  0
    7.0786   -3.5065    3.2210 H   0  0  0  0  0  0  0  0  0  0  0  0
    7.3324   -1.8447    0.6588 H   0  0  0  0  0  0  0  0  0  0  0  0
    8.5997   -2.8272    1.4042 H   0  0  0  0  0  0  0  0  0  0  0  0
    7.1687   -3.6124    0.7293 H   0  0  0  0  0  0  0  0  0  0  0  0
  1  2  1  0  0  0  0
  1 10  1  0  0  0  0
  1 30  1  0  0  0  0
  2  3  1  0  0  0  0
  2 11  2  0  0  0  0
  3  4  2  0  0  0  0
  3 31  1  0  0  0  0
  4  5  1  0  0  0  0
  4 32  1  0  0  0  0
  5  6  1  0  0  0  0
  5 10  2  0  0  0  0
  6  7  2  0  0  0  0
  7  8  1  0  0  0  0
  7 33  1  0  0  0  0
  8  9  2  0  0  0  0
  8 34  1  0  0  0  0
  9 10  1  0  0  0  0
  9 12  1  0  0  0  0
 12 35  1  0  0  0  0
 13 15  1  0  0  0  0
 13 36  1  6  0  0  0
 13 14  1  0  0  0  0
 13  6  1  0  0  0  0
 14 16  1  0  0  0  0
 14 37  1  0  0  0  0
 14 38  1  0  0  0  0
 15 39  1  0  0  0  0
 16 18  1  0  0  0  0
 16 40  1  0  0  0  0
 17 18  1  0  0  0  0
 17 25  1  0  0  0  0
 17 41  1  0  0  0  0
 17 42  1  0  0  0  0
 18 19  1  0  0  0  0
 18 43  1  0  0  0  0
 19 20  1  0  0  0  0
 19 44  1  0  0  0  0
 19 45  1  0  0  0  0
 20 21  2  0  0  0  0
 20 25  1  0  0  0  0
 21 22  1  0  0  0  0
 21 46  1  0  0  0  0
 22 23  2  0  0  0  0
 22 28  1  0  0  0  0
 23 24  1  0  0  0  0
 23 26  1  0  0  0  0
 24 25  2  0  0  0  0
 24 47  1  0  0  0  0
 26 27  1  0  0  0  0
 26 48  1  0  0  0  0
 26 49  1  0  0  0  0
 27 50  1  0  0  0  0
 27 51  1  0  0  0  0
 27 52  1  0  0  0  0
 28 29  1  0  0  0  0
 28 53  1  0  0  0  0
 28 54  1  0  0  0  0
 29 55  1  0  0  0  0
 29 56  1  0  0  0  0
 29 57  1  0  0  0  0
M  END
>  <Mol_ID>
3293

>  <Formula>
C24H28N2O3

>  <MolWeight>
392.49072

>  <Cat>
S5654

>  <Name>
Indacaterol

>  <Synonyms>
N/A

>  <Target>
Adrenergic Receptor

>  <Form>
free base

>  <CAS>
312753-06-3

>  <URL>
http://selleckchem.com/products/indacaterol.html

$$$$
