S5655 Venlafaxine.cdx
 OpenBabel08302520303D

 47 48  0  0  0  0  0  0  0  0999 V2000
    0.6732   -0.1986   -0.3084 C   0  0  0  0  0  0  0  0  0  0  0  0
    0.8792   -0.0467   -1.8765 C   0  0  3  0  0  0  0  0  0  0  0  0
   -0.1315    0.9148    0.3937 C   0  0  0  0  0  0  0  0  0  0  0  0
    1.9463   -0.4951    0.5136 C   0  0  0  0  0  0  0  0  0  0  0  0
   -0.1064   -1.4200   -0.1281 O   0  0  0  0  0  0  0  0  0  0  0  0
   -0.4976    0.0190   -2.5916 C   0  0  0  0  0  0  0  0  0  0  0  0
    1.7842    1.0907   -2.4405 C   0  0  0  0  0  0  0  0  0  0  0  0
    0.6742    2.1612    0.7187 C   0  0  0  0  0  0  0  0  0  0  0  0
    2.7387    0.7038    1.0273 C   0  0  0  0  0  0  0  0  0  0  0  0
   -1.1657    1.2352   -2.8070 C   0  0  0  0  0  0  0  0  0  0  0  0
   -1.1541   -1.1641   -2.9650 C   0  0  0  0  0  0  0  0  0  0  0  0
    3.2164    1.1269   -2.1012 N   0  0  0  0  0  0  0  0  0  0  0  0
    1.8824    1.8332    1.5837 C   0  0  0  0  0  0  0  0  0  0  0  0
   -2.4693    1.2677   -3.3069 C   0  0  0  0  0  0  0  0  0  0  0  0
   -2.4657   -1.1296   -3.4525 C   0  0  0  0  0  0  0  0  0  0  0  0
    3.9506   -0.0402   -2.5712 C   0  0  0  0  0  0  0  0  0  0  0  0
    3.8167    2.3561   -2.6425 C   0  0  0  0  0  0  0  0  0  0  0  0
   -3.1403    0.0832   -3.5966 C   0  0  0  0  0  0  0  0  0  0  0  0
   -4.4420   -0.0100   -4.0074 O   0  0  0  0  0  0  0  0  0  0  0  0
   -5.2031    1.1931   -3.9597 C   0  0  0  0  0  0  0  0  0  0  0  0
    1.3246   -0.9917   -2.2209 H   0  0  0  0  0  0  0  0  0  0  0  0
   -1.0289    1.1840   -0.1714 H   0  0  0  0  0  0  0  0  0  0  0  0
   -0.5320    0.5120    1.3364 H   0  0  0  0  0  0  0  0  0  0  0  0
    1.6454   -1.0693    1.4043 H   0  0  0  0  0  0  0  0  0  0  0  0
    2.6031   -1.1831   -0.0306 H   0  0  0  0  0  0  0  0  0  0  0  0
   -1.0184   -1.2302   -0.4133 H   0  0  0  0  0  0  0  0  0  0  0  0
    1.7008    1.0676   -3.5370 H   0  0  0  0  0  0  0  0  0  0  0  0
    1.3622    2.0511   -2.1394 H   0  0  0  0  0  0  0  0  0  0  0  0
    0.9900    2.6727   -0.1937 H   0  0  0  0  0  0  0  0  0  0  0  0
    0.0334    2.8702    1.2561 H   0  0  0  0  0  0  0  0  0  0  0  0
    3.3896    1.1013    0.2517 H   0  0  0  0  0  0  0  0  0  0  0  0
    3.4219    0.3603    1.8145 H   0  0  0  0  0  0  0  0  0  0  0  0
   -0.7080    2.1859   -2.5491 H   0  0  0  0  0  0  0  0  0  0  0  0
   -0.6688   -2.1301   -2.8282 H   0  0  0  0  0  0  0  0  0  0  0  0
    2.4990    2.7313    1.6987 H   0  0  0  0  0  0  0  0  0  0  0  0
    1.5375    1.5585    2.5868 H   0  0  0  0  0  0  0  0  0  0  0  0
   -2.9390    2.2362   -3.4332 H   0  0  0  0  0  0  0  0  0  0  0  0
   -2.9746   -2.0605   -3.6925 H   0  0  0  0  0  0  0  0  0  0  0  0
    3.8957   -0.1597   -3.6558 H   0  0  0  0  0  0  0  0  0  0  0  0
    5.0056    0.0388   -2.2840 H   0  0  0  0  0  0  0  0  0  0  0  0
    3.5827   -0.9559   -2.1010 H   0  0  0  0  0  0  0  0  0  0  0  0
    3.6176    2.4791   -3.7140 H   0  0  0  0  0  0  0  0  0  0  0  0
    3.4221    3.2330   -2.1161 H   0  0  0  0  0  0  0  0  0  0  0  0
    4.9028    2.3687   -2.4949 H   0  0  0  0  0  0  0  0  0  0  0  0
   -5.1620    1.6612   -2.9696 H   0  0  0  0  0  0  0  0  0  0  0  0
   -4.8700    1.8889   -4.7367 H   0  0  0  0  0  0  0  0  0  0  0  0
   -6.2482    0.9406   -4.1591 H   0  0  0  0  0  0  0  0  0  0  0  0
  1  2  1  0  0  0  0
  1  3  1  0  0  0  0
  1  4  1  0  0  0  0
  1  5  1  0  0  0  0
  2  6  1  0  0  0  0
  2  7  1  0  0  0  0
  2 21  1  0  0  0  0
  3  8  1  0  0  0  0
  3 22  1  0  0  0  0
  3 23  1  0  0  0  0
  4  9  1  0  0  0  0
  4 24  1  0  0  0  0
  4 25  1  0  0  0  0
  5 26  1  0  0  0  0
  6 10  2  0  0  0  0
  6 11  1  0  0  0  0
  7 12  1  0  0  0  0
  7 27  1  0  0  0  0
  7 28  1  0  0  0  0
  8 13  1  0  0  0  0
  8 29  1  0  0  0  0
  8 30  1  0  0  0  0
  9 13  1  0  0  0  0
  9 31  1  0  0  0  0
  9 32  1  0  0  0  0
 10 14  1  0  0  0  0
 10 33  1  0  0  0  0
 11 15  2  0  0  0  0
 11 34  1  0  0  0  0
 12 16  1  0  0  0  0
 12 17  1  0  0  0  0
 13 35  1  0  0  0  0
 13 36  1  0  0  0  0
 14 18  2  0  0  0  0
 14 37  1  0  0  0  0
 15 18  1  0  0  0  0
 15 38  1  0  0  0  0
 16 39  1  0  0  0  0
 16 40  1  0  0  0  0
 16 41  1  0  0  0  0
 17 42  1  0  0  0  0
 17 43  1  0  0  0  0
 17 44  1  0  0  0  0
 18 19  1  0  0  0  0
 19 20  1  0  0  0  0
 20 45  1  0  0  0  0
 20 46  1  0  0  0  0
 20 47  1  0  0  0  0
M  END
>  <Mol_ID>
3294

>  <Formula>
C17H27NO2

>  <MolWeight>
277.40178

>  <Cat>
S5655

>  <Name>
Venlafaxine

>  <Synonyms>
Wy 45030

>  <Target>
Serotonin Transporter

>  <Form>
Phenethylamine

>  <CAS>
93413-69-5

>  <URL>
http://selleckchem.com/products/venlafaxine.html

$$$$
