S5663 Minaprine dihydrochloride.cdx
 OpenBabel08302520303D

 44 46  0  0  0  0  0  0  0  0999 V2000
   -0.7772    1.2411    0.0465 C   0  0  0  0  0  0  0  0  0  0  0  0
   -1.5101    2.5194    0.0276 C   0  0  0  0  0  0  0  0  0  0  0  0
   -1.4040   -0.0002   -0.0096 C   0  0  0  0  0  0  0  0  0  0  0  0
    0.5665    1.3060    0.1051 N   0  0  0  0  0  0  0  0  0  0  0  0
   -2.7754    2.6521    0.6286 C   0  0  0  0  0  0  0  0  0  0  0  0
   -0.9713    3.6557   -0.6044 C   0  0  0  0  0  0  0  0  0  0  0  0
   -0.6411   -1.1760   -0.0103 C   0  0  0  0  0  0  0  0  0  0  0  0
    1.3225    0.1469    0.1130 N   0  0  0  0  0  0  0  0  0  0  0  0
   -3.4852    3.8552    0.5757 C   0  0  0  0  0  0  0  0  0  0  0  0
   -1.6777    4.8600   -0.6586 C   0  0  0  0  0  0  0  0  0  0  0  0
    0.7504   -1.0750    0.0714 C   0  0  0  0  0  0  0  0  0  0  0  0
   -1.3489   -2.4995   -0.0624 C   0  0  0  0  0  0  0  0  0  0  0  0
   -2.9374    4.9580   -0.0748 C   0  0  0  0  0  0  0  0  0  0  0  0
    1.5502   -2.2307   -0.0159 N   0  0  0  0  0  0  0  0  0  0  0  0
    2.8575   -2.1178    0.6558 C   0  0  0  0  0  0  0  0  0  0  0  0
    2.7160   -2.6244    2.1178 C   0  0  0  0  0  0  0  0  0  0  0  0
    1.9738   -3.9032    2.1528 N   0  0  0  0  0  0  0  0  0  0  0  0
    2.7905   -5.0496    1.6964 C   0  0  0  0  0  0  0  0  0  0  0  0
    1.4607   -4.2250    3.4982 C   0  0  0  0  0  0  0  0  0  0  0  0
    1.9234   -6.3190    1.6485 C   0  0  0  0  0  0  0  0  0  0  0  0
    0.5779   -5.4800    3.3977 C   0  0  0  0  0  0  0  0  0  0  0  0
    1.3346   -6.6048    2.9261 O   0  0  0  0  0  0  0  0  0  0  0  0
   -2.4841   -0.0562   -0.0832 H   0  0  0  0  0  0  0  0  0  0  0  0
   -3.2266    1.8169    1.1610 H   0  0  0  0  0  0  0  0  0  0  0  0
    0.0116    3.6023   -1.0739 H   0  0  0  0  0  0  0  0  0  0  0  0
   -4.4636    3.9302    1.0426 H   0  0  0  0  0  0  0  0  0  0  0  0
   -1.2418    5.7214   -1.1590 H   0  0  0  0  0  0  0  0  0  0  0  0
   -1.0337   -3.0728   -0.9392 H   0  0  0  0  0  0  0  0  0  0  0  0
   -1.1436   -3.0742    0.8470 H   0  0  0  0  0  0  0  0  0  0  0  0
   -2.4357   -2.3721   -0.1241 H   0  0  0  0  0  0  0  0  0  0  0  0
   -3.4884    5.8935   -0.1183 H   0  0  0  0  0  0  0  0  0  0  0  0
    1.0696   -3.0164    0.4272 H   0  0  0  0  0  0  0  0  0  0  0  0
    3.5618   -2.7597    0.1153 H   0  0  0  0  0  0  0  0  0  0  0  0
    3.2884   -1.1114    0.6325 H   0  0  0  0  0  0  0  0  0  0  0  0
    3.6954   -2.6985    2.6035 H   0  0  0  0  0  0  0  0  0  0  0  0
    2.1372   -1.8678    2.6642 H   0  0  0  0  0  0  0  0  0  0  0  0
    3.6348   -5.2076    2.3810 H   0  0  0  0  0  0  0  0  0  0  0  0
    3.1982   -4.8751    0.6964 H   0  0  0  0  0  0  0  0  0  0  0  0
    2.2908   -4.4095    4.1936 H   0  0  0  0  0  0  0  0  0  0  0  0
    0.8606   -3.3992    3.8933 H   0  0  0  0  0  0  0  0  0  0  0  0
    1.1288   -6.2191    0.8986 H   0  0  0  0  0  0  0  0  0  0  0  0
    2.5391   -7.1791    1.3674 H   0  0  0  0  0  0  0  0  0  0  0  0
    0.1741   -5.7385    4.3801 H   0  0  0  0  0  0  0  0  0  0  0  0
   -0.2723   -5.3084    2.7230 H   0  0  0  0  0  0  0  0  0  0  0  0
  1  2  1  0  0  0  0
  1  3  2  0  0  0  0
  1  4  1  0  0  0  0
  2  5  2  0  0  0  0
  2  6  1  0  0  0  0
  3  7  1  0  0  0  0
  3 23  1  0  0  0  0
  4  8  2  0  0  0  0
  5  9  1  0  0  0  0
  5 24  1  0  0  0  0
  6 10  2  0  0  0  0
  6 25  1  0  0  0  0
  7 11  2  0  0  0  0
  7 12  1  0  0  0  0
  8 11  1  0  0  0  0
  9 13  2  0  0  0  0
  9 26  1  0  0  0  0
 10 13  1  0  0  0  0
 10 27  1  0  0  0  0
 11 14  1  0  0  0  0
 12 28  1  0  0  0  0
 12 29  1  0  0  0  0
 12 30  1  0  0  0  0
 13 31  1  0  0  0  0
 14 15  1  0  0  0  0
 14 32  1  0  0  0  0
 15 16  1  0  0  0  0
 15 33  1  0  0  0  0
 15 34  1  0  0  0  0
 16 17  1  0  0  0  0
 16 35  1  0  0  0  0
 16 36  1  0  0  0  0
 17 18  1  0  0  0  0
 17 19  1  0  0  0  0
 18 20  1  0  0  0  0
 18 37  1  0  0  0  0
 18 38  1  0  0  0  0
 19 21  1  0  0  0  0
 19 39  1  0  0  0  0
 19 40  1  0  0  0  0
 20 22  1  0  0  0  0
 20 41  1  0  0  0  0
 20 42  1  0  0  0  0
 21 22  1  0  0  0  0
 21 43  1  0  0  0  0
 21 44  1  0  0  0  0
M  END
>  <Mol_ID>
3268

>  <Formula>
C17H24Cl2N4O

>  <MolWeight>
371.30466

>  <Cat>
S5663

>  <Name>
Minaprine dihydrochloride

>  <Target>
MAO

>  <Form>
free base

>  <CAS>
25905-77-5

>  <URL>
https://www.selleckchem.com/products/minaprine-dihydrochloride.html

$$$$
