S5664 Orphenadrine Hydrochloride.cdx
 OpenBabel08302520303D

 43 44  0  0  0  0  0  0  0  0999 V2000
    2.8370   -0.1864   -0.4683 C   0  0  3  0  0  0  0  0  0  0  0  0
    1.3283    0.0205   -0.2702 C   0  0  0  0  0  0  0  0  0  0  0  0
    3.7816   -0.6083    0.6637 C   0  0  0  0  0  0  0  0  0  0  0  0
    3.1651   -0.9999   -1.6108 O   0  0  0  0  0  0  0  0  0  0  0  0
    0.3615   -0.9535    0.0575 C   0  0  0  0  0  0  0  0  0  0  0  0
    0.8238    1.3145   -0.5886 C   0  0  0  0  0  0  0  0  0  0  0  0
    3.4559   -0.6926    2.0142 C   0  0  0  0  0  0  0  0  0  0  0  0
    5.1399   -0.7936    0.3281 C   0  0  0  0  0  0  0  0  0  0  0  0
    2.8043   -0.5169   -2.9057 C   0  0  0  0  0  0  0  0  0  0  0  0
   -1.0213   -0.6203    0.0610 C   0  0  0  0  0  0  0  0  0  0  0  0
    0.6724   -2.3776    0.4194 C   0  0  0  0  0  0  0  0  0  0  0  0
   -0.5399    1.6234   -0.6093 C   0  0  0  0  0  0  0  0  0  0  0  0
    4.4587   -0.9178    2.9835 C   0  0  0  0  0  0  0  0  0  0  0  0
    6.1418   -0.9932    1.2841 C   0  0  0  0  0  0  0  0  0  0  0  0
    3.2641    0.9053   -3.3339 C   0  0  0  0  0  0  0  0  0  0  0  0
   -1.4697    0.6500   -0.2818 C   0  0  0  0  0  0  0  0  0  0  0  0
    5.7997   -1.0469    2.6217 C   0  0  0  0  0  0  0  0  0  0  0  0
    4.5464    1.1410   -4.0347 N   0  0  0  0  0  0  0  0  0  0  0  0
    4.6634    2.5765   -4.3348 C   0  0  0  0  0  0  0  0  0  0  0  0
    5.7608    0.6793   -3.3747 C   0  0  0  0  0  0  0  0  0  0  0  0
    3.2385    0.8128   -0.6667 H   0  0  0  0  0  0  0  0  0  0  0  0
    1.5131    2.1108   -0.8630 H   0  0  0  0  0  0  0  0  0  0  0  0
    2.4356   -0.5722    2.3579 H   0  0  0  0  0  0  0  0  0  0  0  0
    5.4428   -0.7630   -0.7053 H   0  0  0  0  0  0  0  0  0  0  0  0
    3.1615   -1.2550   -3.6329 H   0  0  0  0  0  0  0  0  0  0  0  0
    1.7097   -0.5532   -2.9660 H   0  0  0  0  0  0  0  0  0  0  0  0
   -1.7667   -1.3759    0.3151 H   0  0  0  0  0  0  0  0  0  0  0  0
    0.3865   -2.5606    1.4622 H   0  0  0  0  0  0  0  0  0  0  0  0
    0.0946   -3.0582   -0.2178 H   0  0  0  0  0  0  0  0  0  0  0  0
    1.7199   -2.6206    0.2984 H   0  0  0  0  0  0  0  0  0  0  0  0
   -0.8707    2.6179   -0.8966 H   0  0  0  0  0  0  0  0  0  0  0  0
    4.1942   -0.9769    4.0394 H   0  0  0  0  0  0  0  0  0  0  0  0
    7.1775   -1.0946    0.9667 H   0  0  0  0  0  0  0  0  0  0  0  0
    2.5064    1.2023   -4.0718 H   0  0  0  0  0  0  0  0  0  0  0  0
    3.1721    1.6056   -2.5032 H   0  0  0  0  0  0  0  0  0  0  0  0
   -2.5334    0.8766   -0.3045 H   0  0  0  0  0  0  0  0  0  0  0  0
    6.5718   -1.1841    3.3736 H   0  0  0  0  0  0  0  0  0  0  0  0
    4.6052    3.1863   -3.4231 H   0  0  0  0  0  0  0  0  0  0  0  0
    5.6096    2.8097   -4.8356 H   0  0  0  0  0  0  0  0  0  0  0  0
    3.8603    2.8913   -5.0088 H   0  0  0  0  0  0  0  0  0  0  0  0
    5.5710    0.0470   -2.5152 H   0  0  0  0  0  0  0  0  0  0  0  0
    6.3474    0.0878   -4.0878 H   0  0  0  0  0  0  0  0  0  0  0  0
    6.4146    1.4974   -3.0411 H   0  0  0  0  0  0  0  0  0  0  0  0
  1  2  1  0  0  0  0
  1  3  1  0  0  0  0
  1  4  1  0  0  0  0
  1 21  1  0  0  0  0
  2  5  2  0  0  0  0
  2  6  1  0  0  0  0
  3  7  2  0  0  0  0
  3  8  1  0  0  0  0
  4  9  1  0  0  0  0
  5 10  1  0  0  0  0
  5 11  1  0  0  0  0
  6 12  2  0  0  0  0
  6 22  1  0  0  0  0
  7 13  1  0  0  0  0
  7 23  1  0  0  0  0
  8 14  2  0  0  0  0
  8 24  1  0  0  0  0
  9 15  1  0  0  0  0
  9 25  1  0  0  0  0
  9 26  1  0  0  0  0
 10 16  2  0  0  0  0
 10 27  1  0  0  0  0
 11 28  1  0  0  0  0
 11 29  1  0  0  0  0
 11 30  1  0  0  0  0
 12 16  1  0  0  0  0
 12 31  1  0  0  0  0
 13 17  2  0  0  0  0
 13 32  1  0  0  0  0
 14 17  1  0  0  0  0
 14 33  1  0  0  0  0
 15 18  1  0  0  0  0
 15 34  1  0  0  0  0
 15 35  1  0  0  0  0
 16 36  1  0  0  0  0
 17 37  1  0  0  0  0
 18 19  1  0  0  0  0
 18 20  1  0  0  0  0
 19 38  1  0  0  0  0
 19 39  1  0  0  0  0
 19 40  1  0  0  0  0
 20 41  1  0  0  0  0
 20 42  1  0  0  0  0
 20 43  1  0  0  0  0
M  END
>  <Mol_ID>
3274

>  <Formula>
C18H24ClNO

>  <MolWeight>
305.84226

>  <Cat>
S5664

>  <Name>
Orphenadrine Hydrochloride

>  <Target>
NMDAR

>  <Form>
free base

>  <CAS>
341-69-5

>  <URL>
https://www.selleckchem.com/products/orphenadrine-hydrochloride.html

$$$$
