S5661 Tiaprofenic acid.cdx
 OpenBabel08302520303D

 30 31  0  0  0  0  0  0  0  0999 V2000
    0.1567    1.2717   -0.0331 C   0  0  0  0  0  0  0  0  0  0  0  0
   -1.0390    0.0484   -0.0509 S   0  0  0  0  0  0  0  0  0  0  0  0
   -0.2527    2.6702   -0.0728 C   0  0  0  0  0  0  0  0  0  0  0  0
    1.4272    0.7262   -0.0032 C   0  0  0  0  0  0  0  0  0  0  0  0
    0.1286   -1.2088   -0.0013 C   0  0  0  0  0  0  0  0  0  0  0  0
    0.6145    3.6906    0.5867 C   0  0  0  0  0  0  0  0  0  0  0  0
   -1.2696    3.0664   -0.6374 O   0  0  0  0  0  0  0  0  0  0  0  0
    1.4103   -0.6960    0.0201 C   0  0  0  0  0  0  0  0  0  0  0  0
   -0.3228   -2.6531   -0.0253 C   0  0  3  0  0  0  0  0  0  0  0  0
    1.3034    3.4105    1.7754 C   0  0  0  0  0  0  0  0  0  0  0  0
    0.7104    4.9655    0.0150 C   0  0  0  0  0  0  0  0  0  0  0  0
   -0.2876   -3.2098   -1.4491 C   0  0  0  0  0  0  0  0  0  0  0  0
    0.5314   -3.5101    0.9142 C   0  0  0  0  0  0  0  0  0  0  0  0
    2.1103    4.3852    2.3634 C   0  0  0  0  0  0  0  0  0  0  0  0
    1.5153    5.9385    0.6095 C   0  0  0  0  0  0  0  0  0  0  0  0
   -0.6824   -2.3507   -2.4201 O   0  0  0  0  0  0  0  0  0  0  0  0
    0.0020   -4.3690   -1.7199 O   0  0  0  0  0  0  0  0  0  0  0  0
    2.2178    5.6464    1.7788 C   0  0  0  0  0  0  0  0  0  0  0  0
    2.3364    1.3154   -0.0082 H   0  0  0  0  0  0  0  0  0  0  0  0
    2.3054   -1.3088    0.0411 H   0  0  0  0  0  0  0  0  0  0  0  0
   -1.3647   -2.7281    0.3125 H   0  0  0  0  0  0  0  0  0  0  0  0
    1.2135    2.4434    2.2641 H   0  0  0  0  0  0  0  0  0  0  0  0
    0.1608    5.2034   -0.8940 H   0  0  0  0  0  0  0  0  0  0  0  0
    0.5175   -3.1104    1.9343 H   0  0  0  0  0  0  0  0  0  0  0  0
    0.1611   -4.5403    0.9512 H   0  0  0  0  0  0  0  0  0  0  0  0
    1.5762   -3.5565    0.5847 H   0  0  0  0  0  0  0  0  0  0  0  0
    2.6485    4.1645    3.2824 H   0  0  0  0  0  0  0  0  0  0  0  0
    1.5917    6.9267    0.1623 H   0  0  0  0  0  0  0  0  0  0  0  0
   -0.9130   -1.4545   -2.1020 H   0  0  0  0  0  0  0  0  0  0  0  0
    2.8426    6.4071    2.2413 H   0  0  0  0  0  0  0  0  0  0  0  0
  1  2  1  0  0  0  0
  1  3  1  0  0  0  0
  1  4  2  0  0  0  0
  2  5  1  0  0  0  0
  3  6  1  0  0  0  0
  3  7  2  0  0  0  0
  4  8  1  0  0  0  0
  4 19  1  0  0  0  0
  5  9  1  0  0  0  0
  5  8  2  0  0  0  0
  6 10  2  0  0  0  0
  6 11  1  0  0  0  0
  8 20  1  0  0  0  0
  9 12  1  0  0  0  0
  9 13  1  0  0  0  0
  9 21  1  0  0  0  0
 10 14  1  0  0  0  0
 10 22  1  0  0  0  0
 11 15  2  0  0  0  0
 11 23  1  0  0  0  0
 12 16  1  0  0  0  0
 12 17  2  0  0  0  0
 13 24  1  0  0  0  0
 13 25  1  0  0  0  0
 13 26  1  0  0  0  0
 14 18  2  0  0  0  0
 14 27  1  0  0  0  0
 15 18  1  0  0  0  0
 15 28  1  0  0  0  0
 16 29  1  0  0  0  0
 18 30  1  0  0  0  0
M  END
>  <Mol_ID>
3297

>  <Formula>
C14H12O3S

>  <MolWeight>
260.30828

>  <Cat>
S5661

>  <Name>
Tiaprofenic acid

>  <Synonyms>
Tiaprofensaeure, Acido tiaprofenico

>  <Target>
Immunology & Inflammation related

>  <Form>
free base

>  <CAS>
33005-95-7

>  <URL>
http://selleckchem.com/products/tiaprofenic-acid.html

$$$$
