S5662 Ranitidine.cdx
 OpenBabel08302520303D

 43 43  0  0  0  0  0  0  0  0999 V2000
    0.2312    0.9745   -0.7718 C   0  0  0  0  0  0  0  0  0  0  0  0
   -0.6275   -0.0604   -1.0036 O   0  0  0  0  0  0  0  0  0  0  0  0
    0.9913    0.7140    0.3499 C   0  0  0  0  0  0  0  0  0  0  0  0
    0.2263    2.0863   -1.7681 C   0  0  0  0  0  0  0  0  0  0  0  0
   -0.3789   -1.0107   -0.0559 C   0  0  0  0  0  0  0  0  0  0  0  0
    0.6093   -0.5711    0.8019 C   0  0  0  0  0  0  0  0  0  0  0  0
    1.5483    2.2733   -2.4008 N   0  0  0  0  0  0  0  0  0  0  0  0
   -1.1504   -2.2717   -0.1762 C   0  0  0  0  0  0  0  0  0  0  0  0
    1.9452    1.0924   -3.1749 C   0  0  0  0  0  0  0  0  0  0  0  0
    1.5261    3.4472   -3.2758 C   0  0  0  0  0  0  0  0  0  0  0  0
   -2.1714   -2.6359    1.2858 S   0  0  0  0  0  0  0  0  0  0  0  0
   -3.2176   -1.1300    1.3440 C   0  0  0  0  0  0  0  0  0  0  0  0
   -4.1731   -0.9656    0.1531 C   0  0  0  0  0  0  0  0  0  0  0  0
   -5.0839   -2.0942    0.0808 N   0  0  0  0  0  0  0  0  0  0  0  0
   -6.2922   -2.2587   -0.5917 C   0  0  0  0  0  0  0  0  0  0  0  0
   -6.7630   -3.5297   -0.6187 C   0  0  0  0  0  0  0  0  0  0  0  0
   -6.9945   -1.2174   -1.1626 N   0  0  0  0  0  0  0  0  0  0  0  0
   -8.0314   -3.9047   -1.1949 N   0  3  0  0  0  0  0  0  0  0  0  0
   -6.7901    0.2042   -1.1871 C   0  0  0  0  0  0  0  0  0  0  0  0
   -8.4757   -5.0038   -0.8366 O   0  0  0  0  0  0  0  0  0  0  0  0
   -8.5864   -3.1519   -2.0092 O   0  5  0  0  0  0  0  0  0  0  0  0
    1.7659    1.3555    0.7475 H   0  0  0  0  0  0  0  0  0  0  0  0
   -0.5485    1.9118   -2.5261 H   0  0  0  0  0  0  0  0  0  0  0  0
   -0.0517    3.0036   -1.2317 H   0  0  0  0  0  0  0  0  0  0  0  0
    1.0224   -1.1237    1.6344 H   0  0  0  0  0  0  0  0  0  0  0  0
   -1.7888   -2.2648   -1.0647 H   0  0  0  0  0  0  0  0  0  0  0  0
   -0.4497   -3.1038   -0.3024 H   0  0  0  0  0  0  0  0  0  0  0  0
    1.2327    0.8665   -3.9758 H   0  0  0  0  0  0  0  0  0  0  0  0
    2.9317    1.2463   -3.6249 H   0  0  0  0  0  0  0  0  0  0  0  0
    2.0423    0.2060   -2.5387 H   0  0  0  0  0  0  0  0  0  0  0  0
    0.7864    3.3524   -4.0794 H   0  0  0  0  0  0  0  0  0  0  0  0
    1.3006    4.3526   -2.7021 H   0  0  0  0  0  0  0  0  0  0  0  0
    2.5098    3.6043   -3.7331 H   0  0  0  0  0  0  0  0  0  0  0  0
   -3.8098   -1.2137    2.2645 H   0  0  0  0  0  0  0  0  0  0  0  0
   -2.5853   -0.2461    1.4599 H   0  0  0  0  0  0  0  0  0  0  0  0
   -4.7066   -0.0350    0.3289 H   0  0  0  0  0  0  0  0  0  0  0  0
   -3.6247   -0.8607   -0.7888 H   0  0  0  0  0  0  0  0  0  0  0  0
   -4.6199   -2.9651    0.3389 H   0  0  0  0  0  0  0  0  0  0  0  0
   -6.2943   -4.3901   -0.1692 H   0  0  0  0  0  0  0  0  0  0  0  0
   -7.8016   -1.5137   -1.7214 H   0  0  0  0  0  0  0  0  0  0  0  0
   -6.0319    0.4749   -1.9269 H   0  0  0  0  0  0  0  0  0  0  0  0
   -7.7267    0.6950   -1.4738 H   0  0  0  0  0  0  0  0  0  0  0  0
   -6.5302    0.6058   -0.2064 H   0  0  0  0  0  0  0  0  0  0  0  0
  1  2  1  0  0  0  0
  1  3  2  0  0  0  0
  1  4  1  0  0  0  0
  2  5  1  0  0  0  0
  3  6  1  0  0  0  0
  3 22  1  0  0  0  0
  4  7  1  0  0  0  0
  4 23  1  0  0  0  0
  4 24  1  0  0  0  0
  5  8  1  0  0  0  0
  5  6  2  0  0  0  0
  6 25  1  0  0  0  0
  7  9  1  0  0  0  0
  7 10  1  0  0  0  0
  8 11  1  0  0  0  0
  8 26  1  0  0  0  0
  8 27  1  0  0  0  0
  9 28  1  0  0  0  0
  9 29  1  0  0  0  0
  9 30  1  0  0  0  0
 10 31  1  0  0  0  0
 10 32  1  0  0  0  0
 10 33  1  0  0  0  0
 11 12  1  0  0  0  0
 12 13  1  0  0  0  0
 12 34  1  0  0  0  0
 12 35  1  0  0  0  0
 13 14  1  0  0  0  0
 13 36  1  0  0  0  0
 13 37  1  0  0  0  0
 14 15  1  0  0  0  0
 14 38  1  0  0  0  0
 15 16  2  0  0  0  0
 15 17  1  0  0  0  0
 16 18  1  0  0  0  0
 16 39  1  0  0  0  0
 17 19  1  0  0  0  0
 17 40  1  0  0  0  0
 18 20  2  0  0  0  0
 18 21  1  0  0  0  0
 19 41  1  0  0  0  0
 19 42  1  0  0  0  0
 19 43  1  0  0  0  0
M  CHG  2  18   1  21  -1
M  END
>  <Mol_ID>
3273

>  <Formula>
C13H22N4O3S

>  <MolWeight>
314.40378

>  <Cat>
S5662

>  <Name>
Ranitidine

>  <Synonyms>
AH-19065

>  <Target>
Histamine Receptor

>  <Form>
free base

>  <CAS>
66357-35-5

>  <URL>
https://www.selleckchem.com/products/ranitidine.html

$$$$
