S5678 trans-Zeatin-riboside.cdx
 OpenBabel08302520303D

 46 48  0  0  0  0  0  0  0  0999 V2000
   -5.3628    2.3236   -3.6969 O   0  0  0  0  0  0  0  0  0  0  0  0
   -5.0938    0.9275   -3.7056 C   0  0  0  0  0  0  0  0  0  0  0  0
   -3.8996    0.5819   -2.8084 C   0  0  2  0  0  0  0  0  0  0  0  0
   -4.0145    1.1253   -1.3897 C   0  0  1  0  0  0  0  0  0  0  0  0
   -3.2576    0.3141   -0.4639 O   0  0  0  0  0  0  0  0  0  0  0  0
   -3.3535    2.4930   -1.4736 C   0  0  1  0  0  0  0  0  0  0  0  0
   -2.8695    2.9048   -0.1952 O   0  0  0  0  0  0  0  0  0  0  0  0
   -2.2458    2.2411   -2.4974 C   0  0  1  0  0  0  0  0  0  0  0  0
   -2.6810    1.1469   -3.3531 O   0  0  0  0  0  0  0  0  0  0  0  0
   -1.9352    3.4006   -3.3121 N   0  0  0  0  0  0  0  0  0  0  0  0
   -2.5402    3.7660   -4.4861 C   0  0  0  0  0  0  0  0  0  0  0  0
   -2.0509    4.8863   -4.9651 N   0  0  0  0  0  0  0  0  0  0  0  0
   -1.0353    5.2348   -4.0875 C   0  0  0  0  0  0  0  0  0  0  0  0
   -0.0865    6.2716   -4.1059 C   0  0  0  0  0  0  0  0  0  0  0  0
   -0.0576    7.2022   -5.1202 N   0  0  0  0  0  0  0  0  0  0  0  0
    0.8179    6.3154   -3.0952 N   0  0  0  0  0  0  0  0  0  0  0  0
    0.7446    5.3846   -2.1187 C   0  0  0  0  0  0  0  0  0  0  0  0
   -0.0980    4.3419   -2.0194 N   0  0  0  0  0  0  0  0  0  0  0  0
   -0.9590    4.3244   -3.0509 C   0  0  0  0  0  0  0  0  0  0  0  0
    1.1343    7.9312   -5.4541 C   0  0  0  0  0  0  0  0  0  0  0  0
    1.3796    7.6787   -6.9191 C   0  0  0  0  0  0  0  0  0  0  0  0
    2.4227    7.0144   -7.4656 C   0  0  0  0  0  0  0  0  0  0  0  0
    2.4937    6.7394   -8.9433 C   0  0  0  0  0  0  0  0  0  0  0  0
    3.5492    6.4448   -6.6423 C   0  0  0  0  0  0  0  0  0  0  0  0
    3.6331    7.3871   -9.4881 O   0  0  0  0  0  0  0  0  0  0  0  0
   -6.0902    2.4843   -4.3262 H   0  0  0  0  0  0  0  0  0  0  0  0
   -5.9924    0.4121   -3.3530 H   0  0  0  0  0  0  0  0  0  0  0  0
   -4.8906    0.6288   -4.7398 H   0  0  0  0  0  0  0  0  0  0  0  0
   -3.7705   -0.5078   -2.8097 H   0  0  0  0  0  0  0  0  0  0  0  0
   -5.0387    1.1654   -1.0085 H   0  0  0  0  0  0  0  0  0  0  0  0
   -2.5520   -0.1482   -0.9546 H   0  0  0  0  0  0  0  0  0  0  0  0
   -4.0569    3.2532   -1.8256 H   0  0  0  0  0  0  0  0  0  0  0  0
   -2.7486    2.0857    0.3279 H   0  0  0  0  0  0  0  0  0  0  0  0
   -1.3152    1.9170   -2.0145 H   0  0  0  0  0  0  0  0  0  0  0  0
   -3.3263    3.1795   -4.9415 H   0  0  0  0  0  0  0  0  0  0  0  0
   -0.9611    7.5450   -5.4172 H   0  0  0  0  0  0  0  0  0  0  0  0
    1.4622    5.5021   -1.3115 H   0  0  0  0  0  0  0  0  0  0  0  0
    0.9726    9.0015   -5.2918 H   0  0  0  0  0  0  0  0  0  0  0  0
    1.9977    7.6392   -4.8484 H   0  0  0  0  0  0  0  0  0  0  0  0
    0.5930    8.0462   -7.5763 H   0  0  0  0  0  0  0  0  0  0  0  0
    2.5806    5.6660   -9.1352 H   0  0  0  0  0  0  0  0  0  0  0  0
    1.6093    7.1017   -9.4771 H   0  0  0  0  0  0  0  0  0  0  0  0
    4.0657    7.2382   -6.0914 H   0  0  0  0  0  0  0  0  0  0  0  0
    3.1733    5.6997   -5.9342 H   0  0  0  0  0  0  0  0  0  0  0  0
    4.2963    5.9503   -7.2716 H   0  0  0  0  0  0  0  0  0  0  0  0
    3.5992    8.3079   -9.1815 H   0  0  0  0  0  0  0  0  0  0  0  0
  1  2  1  0  0  0  0
  1 26  1  0  0  0  0
  2 27  1  0  0  0  0
  2 28  1  0  0  0  0
  3  2  1  0  0  0  0
  3  4  1  0  0  0  0
  3  9  1  0  0  0  0
  3 29  1  1  0  0  0
  4  5  1  0  0  0  0
  4  6  1  0  0  0  0
  4 30  1  1  0  0  0
  5 31  1  0  0  0  0
  6  7  1  0  0  0  0
  6  8  1  0  0  0  0
  6 32  1  6  0  0  0
  7 33  1  0  0  0  0
  8  9  1  0  0  0  0
  8 34  1  1  0  0  0
  8 10  1  0  0  0  0
 10 11  1  0  0  0  0
 10 19  1  0  0  0  0
 11 12  2  0  0  0  0
 11 35  1  0  0  0  0
 12 13  1  0  0  0  0
 13 14  2  0  0  0  0
 13 19  1  0  0  0  0
 14 15  1  0  0  0  0
 14 16  1  0  0  0  0
 15 20  1  0  0  0  0
 15 36  1  0  0  0  0
 16 17  2  0  0  0  0
 17 18  1  0  0  0  0
 17 37  1  0  0  0  0
 18 19  2  0  0  0  0
 20 21  1  0  0  0  0
 20 38  1  0  0  0  0
 20 39  1  0  0  0  0
 21 22  2  0  0  0  0
 21 40  1  0  0  0  0
 22 23  1  0  0  0  0
 22 24  1  0  0  0  0
 23 25  1  0  0  0  0
 23 41  1  0  0  0  0
 23 42  1  0  0  0  0
 24 43  1  0  0  0  0
 24 44  1  0  0  0  0
 24 45  1  0  0  0  0
 25 46  1  0  0  0  0
M  END
>  <Mol_ID>
3298

>  <Formula>
C15H21N5O5

>  <MolWeight>
351.35774

>  <Cat>
S5678

>  <Name>
trans-Zeatin-riboside

>  <Synonyms>
N/A

>  <Target>
Adenosine Receptor

>  <Form>
Cytokinin nucleoside

>  <CAS>
6025-53-2

>  <URL>
http://selleckchem.com/products/trans-zeatin-riboside.html

$$$$
