S5676 Zearalenone.cdx
 OpenBabel08302520303D

 45 46  0  0  0  0  0  0  0  0999 V2000
    1.8516   -0.6270   -0.0786 C   0  0  0  0  0  0  0  0  0  0  0  0
    1.8128    0.7818    0.1075 C   0  0  0  0  0  0  0  0  0  0  0  0
    3.1021   -1.2655   -0.1581 C   0  0  0  0  0  0  0  0  0  0  0  0
    0.6083   -1.4009   -0.2678 C   0  0  0  0  0  0  0  0  0  0  0  0
    3.0053    1.5193    0.1227 C   0  0  0  0  0  0  0  0  0  0  0  0
    0.5343    1.4332    0.4858 C   0  0  0  0  0  0  0  0  0  0  0  0
    4.2722   -0.5145   -0.0879 C   0  0  0  0  0  0  0  0  0  0  0  0
    0.3968   -2.7133   -0.0793 C   0  0  0  0  0  0  0  0  0  0  0  0
    4.2327    0.8694    0.0154 C   0  0  0  0  0  0  0  0  0  0  0  0
    2.9801    2.8770    0.2741 O   0  0  0  0  0  0  0  0  0  0  0  0
    0.2363    2.5293   -0.2663 O   0  0  0  0  0  0  0  0  0  0  0  0
   -0.1942    0.9467    1.3395 O   0  0  0  0  0  0  0  0  0  0  0  0
    5.4969   -1.1144   -0.1146 O   0  0  0  0  0  0  0  0  0  0  0  0
   -0.9641   -3.3607   -0.2023 C   0  0  0  0  0  0  0  0  0  0  0  0
   -1.0504    3.1280    0.0458 C   0  0  2  0  0  0  0  0  0  0  0  0
   -2.0866   -2.6052    0.5283 C   0  0  0  0  0  0  0  0  0  0  0  0
   -2.1571    2.2805   -0.6202 C   0  0  0  0  0  0  0  0  0  0  0  0
   -1.0470    4.5802   -0.4432 C   0  0  0  0  0  0  0  0  0  0  0  0
   -2.9009   -1.6955   -0.3964 C   0  0  0  0  0  0  0  0  0  0  0  0
   -3.1610    1.7118    0.3923 C   0  0  0  0  0  0  0  0  0  0  0  0
   -3.7749   -0.7322    0.3852 C   0  0  0  0  0  0  0  0  0  0  0  0
   -4.0423    0.6293   -0.2297 C   0  0  0  0  0  0  0  0  0  0  0  0
   -4.2862   -1.0472    1.4652 O   0  0  0  0  0  0  0  0  0  0  0  0
    3.1606   -2.3426   -0.2748 H   0  0  0  0  0  0  0  0  0  0  0  0
   -0.2309   -0.7922   -0.5839 H   0  0  0  0  0  0  0  0  0  0  0  0
    1.1982   -3.3718    0.2375 H   0  0  0  0  0  0  0  0  0  0  0  0
    5.1686    1.4192    0.0536 H   0  0  0  0  0  0  0  0  0  0  0  0
    3.8749    3.2318    0.1337 H   0  0  0  0  0  0  0  0  0  0  0  0
    5.3782   -2.0779   -0.0612 H   0  0  0  0  0  0  0  0  0  0  0  0
   -0.8839   -4.3579    0.2497 H   0  0  0  0  0  0  0  0  0  0  0  0
   -1.2059   -3.5245   -1.2590 H   0  0  0  0  0  0  0  0  0  0  0  0
   -1.1656    3.1623    1.1373 H   0  0  0  0  0  0  0  0  0  0  0  0
   -1.6767   -2.0298    1.3690 H   0  0  0  0  0  0  0  0  0  0  0  0
   -2.7693   -3.3391    0.9750 H   0  0  0  0  0  0  0  0  0  0  0  0
   -2.7239    2.8716   -1.3495 H   0  0  0  0  0  0  0  0  0  0  0  0
   -1.7029    1.4558   -1.1832 H   0  0  0  0  0  0  0  0  0  0  0  0
   -1.6850    4.7348   -1.3195 H   0  0  0  0  0  0  0  0  0  0  0  0
   -1.4466    5.2360    0.3410 H   0  0  0  0  0  0  0  0  0  0  0  0
   -0.0420    4.9318   -0.6948 H   0  0  0  0  0  0  0  0  0  0  0  0
   -3.5551   -2.2952   -1.0384 H   0  0  0  0  0  0  0  0  0  0  0  0
   -2.2490   -1.1133   -1.0488 H   0  0  0  0  0  0  0  0  0  0  0  0
   -3.7949    2.5353    0.7434 H   0  0  0  0  0  0  0  0  0  0  0  0
   -2.6449    1.3213    1.2762 H   0  0  0  0  0  0  0  0  0  0  0  0
   -3.9223    0.5635   -1.3169 H   0  0  0  0  0  0  0  0  0  0  0  0
   -5.1016    0.8582   -0.0501 H   0  0  0  0  0  0  0  0  0  0  0  0
  1  2  1  0  0  0  0
  1  3  2  0  0  0  0
  1  4  1  0  0  0  0
  2  5  2  0  0  0  0
  2  6  1  0  0  0  0
  3  7  1  0  0  0  0
  3 24  1  0  0  0  0
  4  8  2  0  0  0  0
  4 25  1  0  0  0  0
  5  9  1  0  0  0  0
  5 10  1  0  0  0  0
  6 11  1  0  0  0  0
  6 12  2  0  0  0  0
  7 13  1  0  0  0  0
  7  9  2  0  0  0  0
  8 14  1  0  0  0  0
  8 26  1  0  0  0  0
  9 27  1  0  0  0  0
 10 28  1  0  0  0  0
 11 15  1  0  0  0  0
 13 29  1  0  0  0  0
 14 16  1  0  0  0  0
 14 30  1  0  0  0  0
 14 31  1  0  0  0  0
 15 17  1  0  0  0  0
 15 32  1  1  0  0  0
 15 18  1  0  0  0  0
 16 19  1  0  0  0  0
 16 33  1  0  0  0  0
 16 34  1  0  0  0  0
 17 20  1  0  0  0  0
 17 35  1  0  0  0  0
 17 36  1  0  0  0  0
 18 37  1  0  0  0  0
 18 38  1  0  0  0  0
 18 39  1  0  0  0  0
 19 21  1  0  0  0  0
 19 40  1  0  0  0  0
 19 41  1  0  0  0  0
 20 22  1  0  0  0  0
 20 42  1  0  0  0  0
 20 43  1  0  0  0  0
 21 23  2  0  0  0  0
 21 22  1  0  0  0  0
 22 44  1  0  0  0  0
 22 45  1  0  0  0  0
M  END
>  <Mol_ID>
3289

>  <Formula>
C18H22O5

>  <MolWeight>
318.36428

>  <Cat>
S5676

>  <Name>
Zearalenone

>  <Synonyms>
F2 toxin, RAL

>  <Target>
Estrogen/progestogen Receptor

>  <Form>
free base

>  <CAS>
17924-92-4

>  <URL>
https://www.selleckchem.com/products/zearalenone.html

$$$$
