S5700 Phthalylsulfathiazole.cdx
 OpenBabel08302520293D

 40 42  0  0  0  0  0  0  0  0999 V2000
    1.4906   -0.1945    0.0028 C   0  0  0  0  0  0  0  0  0  0  0  0
    0.9074    0.5137    1.0602 C   0  0  0  0  0  0  0  0  0  0  0  0
    2.9387   -0.4871   -0.1323 C   0  0  0  0  0  0  0  0  0  0  0  0
    0.6608   -0.7375   -0.9972 C   0  0  0  0  0  0  0  0  0  0  0  0
   -0.4745    0.7768    1.0343 C   0  0  0  0  0  0  0  0  0  0  0  0
    1.6369    1.0187    2.2433 C   0  0  0  0  0  0  0  0  0  0  0  0
    3.8359    0.4981    0.2457 N   0  0  0  0  0  0  0  0  0  0  0  0
    3.2240   -1.6171   -0.5152 O   0  0  0  0  0  0  0  0  0  0  0  0
   -0.7154   -0.5116   -0.9890 C   0  0  0  0  0  0  0  0  0  0  0  0
   -1.2797    0.2697    0.0127 C   0  0  0  0  0  0  0  0  0  0  0  0
    2.5700    0.1910    2.7492 O   0  0  0  0  0  0  0  0  0  0  0  0
    1.3900    2.1074    2.7331 O   0  0  0  0  0  0  0  0  0  0  0  0
    5.2423    0.3453    0.2686 C   0  0  0  0  0  0  0  0  0  0  0  0
    5.9040   -0.6627   -0.4371 C   0  0  0  0  0  0  0  0  0  0  0  0
    5.9913    1.2331    1.0548 C   0  0  0  0  0  0  0  0  0  0  0  0
    7.2846   -0.8192   -0.3312 C   0  0  0  0  0  0  0  0  0  0  0  0
    7.3779    1.0735    1.1784 C   0  0  0  0  0  0  0  0  0  0  0  0
    8.0171    0.0447    0.4809 C   0  0  0  0  0  0  0  0  0  0  0  0
    9.7477   -0.2686    0.6998 S   0  0  0  0  0  0  0  0  0  0  0  0
   10.4646    0.6336   -0.5305 N   0  0  0  0  0  0  0  0  0  0  0  0
   10.1570    0.3744    1.9340 O   0  0  0  0  0  0  0  0  0  0  0  0
    9.9917   -1.6811    0.5065 O   0  0  0  0  0  0  0  0  0  0  0  0
   10.6834   -0.1348   -1.6928 C   0  0  0  0  0  0  0  0  0  0  0  0
    9.7453   -0.2510   -2.5997 N   0  0  0  0  0  0  0  0  0  0  0  0
   12.1990   -0.8269   -2.0683 S   0  0  0  0  0  0  0  0  0  0  0  0
   10.2420   -0.9673   -3.6729 C   0  0  0  0  0  0  0  0  0  0  0  0
   11.5393   -1.4163   -3.5389 C   0  0  0  0  0  0  0  0  0  0  0  0
    1.0901   -1.3493   -1.7914 H   0  0  0  0  0  0  0  0  0  0  0  0
   -0.9336    1.3701    1.8250 H   0  0  0  0  0  0  0  0  0  0  0  0
    3.4894    1.3539    0.6657 H   0  0  0  0  0  0  0  0  0  0  0  0
   -1.3417   -0.9420   -1.7678 H   0  0  0  0  0  0  0  0  0  0  0  0
   -2.3488    0.4713    0.0095 H   0  0  0  0  0  0  0  0  0  0  0  0
    2.6867   -0.6866    2.3331 H   0  0  0  0  0  0  0  0  0  0  0  0
    5.3729   -1.3453   -1.0933 H   0  0  0  0  0  0  0  0  0  0  0  0
    5.5043    2.0235    1.6232 H   0  0  0  0  0  0  0  0  0  0  0  0
    7.7727   -1.6214   -0.8804 H   0  0  0  0  0  0  0  0  0  0  0  0
    7.9420    1.7345    1.8331 H   0  0  0  0  0  0  0  0  0  0  0  0
   11.3130    1.0309   -0.1365 H   0  0  0  0  0  0  0  0  0  0  0  0
    9.6087   -1.1400   -4.5354 H   0  0  0  0  0  0  0  0  0  0  0  0
   12.1216   -2.0154   -4.2241 H   0  0  0  0  0  0  0  0  0  0  0  0
  1  2  2  0  0  0  0
  1  3  1  0  0  0  0
  1  4  1  0  0  0  0
  2  5  1  0  0  0  0
  2  6  1  0  0  0  0
  3  7  1  0  0  0  0
  3  8  2  0  0  0  0
  4  9  2  0  0  0  0
  4 28  1  0  0  0  0
  5 10  2  0  0  0  0
  5 29  1  0  0  0  0
  6 11  1  0  0  0  0
  6 12  2  0  0  0  0
  7 13  1  0  0  0  0
  7 30  1  0  0  0  0
  9 10  1  0  0  0  0
  9 31  1  0  0  0  0
 10 32  1  0  0  0  0
 11 33  1  0  0  0  0
 13 14  2  0  0  0  0
 13 15  1  0  0  0  0
 14 16  1  0  0  0  0
 14 34  1  0  0  0  0
 15 17  2  0  0  0  0
 15 35  1  0  0  0  0
 16 18  2  0  0  0  0
 16 36  1  0  0  0  0
 17 18  1  0  0  0  0
 17 37  1  0  0  0  0
 18 19  1  0  0  0  0
 19 20  1  0  0  0  0
 19 21  2  0  0  0  0
 19 22  2  0  0  0  0
 20 23  1  0  0  0  0
 20 38  1  0  0  0  0
 23 24  2  0  0  0  0
 23 25  1  0  0  0  0
 24 26  1  0  0  0  0
 25 27  1  0  0  0  0
 26 27  2  0  0  0  0
 26 39  1  0  0  0  0
 27 40  1  0  0  0  0
M  END
>  <Mol_ID>
3231

>  <Formula>
C17H13N3O5S2

>  <MolWeight>
403.43222

>  <Cat>
S5700

>  <Name>
Phthalylsulfathiazole

>  <Synonyms>
Sulfathalidine

>  <Target>
Anti-infection

>  <Form>
free base

>  <CAS>
85-73-4

>  <URL>
https://www.selleckchem.com/products/phthalylsulfathiazole.html

$$$$
