S5704 Myclobutanil.cdx
 OpenBabel08302520303D

 37 38  0  0  0  0  0  0  0  0999 V2000
    1.0659   -0.0138    0.0739 C   0  0  3  0  0  0  0  0  0  0  0  0
    0.5578    0.3883   -1.3311 C   0  0  0  0  0  0  0  0  0  0  0  0
    0.5854   -1.4024    0.5975 C   0  0  0  0  0  0  0  0  0  0  0  0
    0.5510    1.1118    1.0576 C   0  0  0  0  0  0  0  0  0  0  0  0
    2.5859   -0.0138    0.0739 C   0  0  0  0  0  0  0  0  0  0  0  0
   -0.6444   -0.0961   -1.8715 C   0  0  0  0  0  0  0  0  0  0  0  0
    1.2710    1.3445   -2.0936 C   0  0  0  0  0  0  0  0  0  0  0  0
    0.8759   -2.6528   -0.0744 N   0  0  0  0  0  0  0  0  0  0  0  0
    0.9055    0.9469    2.5491 C   0  0  0  0  0  0  0  0  0  0  0  0
    3.8469   -0.0138    0.0739 N   0  0  0  0  0  0  0  0  0  0  0  0
   -1.0999    0.3356   -3.1204 C   0  0  0  0  0  0  0  0  0  0  0  0
    0.8168    1.7725   -3.3417 C   0  0  0  0  0  0  0  0  0  0  0  0
    1.6024   -2.9591   -1.1790 C   0  0  0  0  0  0  0  0  0  0  0  0
    0.3932   -3.7813    0.4968 N   0  0  0  0  0  0  0  0  0  0  0  0
    0.3284    2.0381    3.4639 C   0  0  0  0  0  0  0  0  0  0  0  0
   -0.3711    1.2682   -3.8557 C   0  0  0  0  0  0  0  0  0  0  0  0
    1.6213   -4.2659   -1.3479 N   0  0  0  0  0  0  0  0  0  0  0  0
    0.8842   -4.7305   -0.3006 C   0  0  0  0  0  0  0  0  0  0  0  0
    0.8113    3.4464    3.1574 C   0  0  0  0  0  0  0  0  0  0  0  0
    1.0017   -1.5623    1.6003 H   0  0  0  0  0  0  0  0  0  0  0  0
   -0.5066   -1.3859    0.7112 H   0  0  0  0  0  0  0  0  0  0  0  0
    0.9338    2.0840    0.7205 H   0  0  0  0  0  0  0  0  0  0  0  0
   -0.5440    1.1711    0.9799 H   0  0  0  0  0  0  0  0  0  0  0  0
   -1.2674   -0.8155   -1.3413 H   0  0  0  0  0  0  0  0  0  0  0  0
    2.1977    1.7879   -1.7274 H   0  0  0  0  0  0  0  0  0  0  0  0
    0.5090   -0.0031    2.9229 H   0  0  0  0  0  0  0  0  0  0  0  0
    1.9931    0.9131    2.6757 H   0  0  0  0  0  0  0  0  0  0  0  0
   -2.0348   -0.0499   -3.5210 H   0  0  0  0  0  0  0  0  0  0  0  0
    1.3903    2.5048   -3.9057 H   0  0  0  0  0  0  0  0  0  0  0  0
    2.0969   -2.2439   -1.8195 H   0  0  0  0  0  0  0  0  0  0  0  0
   -0.7672    2.0162    3.4270 H   0  0  0  0  0  0  0  0  0  0  0  0
    0.6089    1.7975    4.4973 H   0  0  0  0  0  0  0  0  0  0  0  0
   -0.7308    1.6078   -4.8231 H   0  0  0  0  0  0  0  0  0  0  0  0
    0.7016   -5.7823   -0.1124 H   0  0  0  0  0  0  0  0  0  0  0  0
    0.3717    3.8241    2.2297 H   0  0  0  0  0  0  0  0  0  0  0  0
    0.5127    4.1268    3.9629 H   0  0  0  0  0  0  0  0  0  0  0  0
    1.9013    3.4849    3.0715 H   0  0  0  0  0  0  0  0  0  0  0  0
  1  2  1  0  0  0  0
  1  3  1  0  0  0  0
  1  4  1  0  0  0  0
  1  5  1  0  0  0  0
  2  6  2  0  0  0  0
  2  7  1  0  0  0  0
  3  8  1  0  0  0  0
  3 20  1  0  0  0  0
  3 21  1  0  0  0  0
  4  9  1  0  0  0  0
  4 22  1  0  0  0  0
  4 23  1  0  0  0  0
  5 10  3  0  0  0  0
  6 11  1  0  0  0  0
  6 24  1  0  0  0  0
  7 12  2  0  0  0  0
  7 25  1  0  0  0  0
  8 13  1  0  0  0  0
  8 14  1  0  0  0  0
  9 15  1  0  0  0  0
  9 26  1  0  0  0  0
  9 27  1  0  0  0  0
 11 16  2  0  0  0  0
 11 28  1  0  0  0  0
 12 16  1  0  0  0  0
 12 29  1  0  0  0  0
 13 17  2  0  0  0  0
 13 30  1  0  0  0  0
 14 18  2  0  0  0  0
 15 19  1  0  0  0  0
 15 31  1  0  0  0  0
 15 32  1  0  0  0  0
 16 33  1  0  0  0  0
 17 18  1  0  0  0  0
 18 34  1  0  0  0  0
 19 35  1  0  0  0  0
 19 36  1  0  0  0  0
 19 37  1  0  0  0  0
M  END
>  <Mol_ID>
3266

>  <Formula>
C15H17ClN4

>  <MolWeight>
288.77528

>  <Cat>
S5704

>  <Name>
Myclobutanil

>  <Target>
Fungal

>  <Form>
free base

>  <CAS>
88671-89-0

>  <URL>
https://www.selleckchem.com/products/myclobutanil.html

$$$$
