S5709 Norgestrel.cdx
 OpenBabel08302520402D

 51 54  0  0  0  0  0  0  0  0999 V2000
    7.3179    4.1962    0.0000 C   0  0  1  0  0  0  0  0  0  0  0  0
    7.3179    2.7685    0.0000 C   0  0  2  0  0  0  0  0  0  0  0  0
    8.6629    4.6275    0.0000 C   0  0  1  0  0  0  0  0  0  0  0  0
    6.1100    4.8902    0.0000 C   0  0  0  0  0  0  0  0  0  0  0  0
    7.2746    5.5844    0.0000 C   0  0  0  0  0  0  0  0  0  0  0  0
    6.1100    2.0745    0.0000 C   0  0  1  0  0  0  0  0  0  0  0  0
    8.6629    2.3372    0.0000 C   0  0  0  0  0  0  0  0  0  0  0  0
    9.4865    3.4628    0.0000 C   0  0  0  0  0  0  0  0  0  0  0  0
    9.1884    6.0195    0.0000 C   0  0  0  0  0  0  0  0  0  0  0  0
    4.8941    4.1962    0.0000 C   0  0  0  0  0  0  0  0  0  0  0  0
    6.0864    6.2196    0.0000 C   0  0  0  0  0  0  0  0  0  0  0  0
    4.8941    2.8157    0.0000 C   0  0  2  0  0  0  0  0  0  0  0  0
    6.1100    0.6940    0.0000 C   0  0  0  0  0  0  0  0  0  0  0  0
    9.7021    7.4078    0.0000 C   0  0  0  0  0  0  0  0  0  0  0  0
    3.6825    2.1176    0.0000 C   0  0  2  0  0  0  0  0  0  0  0  0
    4.8941    0.0000    0.0000 C   0  0  0  0  0  0  0  0  0  0  0  0
    3.6825    0.6940    0.0000 C   0  0  0  0  0  0  0  0  0  0  0  0
    2.4707    2.8157    0.0000 C   0  0  0  0  0  0  0  0  0  0  0  0
    2.4707    0.0000    0.0000 C   0  0  0  0  0  0  0  0  0  0  0  0
    1.2549    2.0745    0.0000 C   0  0  0  0  0  0  0  0  0  0  0  0
    1.2549    0.7293    0.0000 C   0  0  0  0  0  0  0  0  0  0  0  0
    0.0000    0.0431    0.0000 O   0  0  0  0  0  0  0  0  0  0  0  0
    9.8266    4.6433    0.0000 O   0  0  0  0  0  0  0  0  0  0  0  0
    8.1823    3.3991    0.0000 H   0  0  0  0  0  0  0  0  0  0  0  0
    6.1115    5.9602    0.0000 H   0  0  0  0  0  0  0  0  0  0  0  0
    5.1851    5.4281    0.0000 H   0  0  0  0  0  0  0  0  0  0  0  0
    8.1837    6.1487    0.0000 H   0  0  0  0  0  0  0  0  0  0  0  0
    7.2401    6.6538    0.0000 H   0  0  0  0  0  0  0  0  0  0  0  0
    7.0361    1.5385    0.0000 H   0  0  0  0  0  0  0  0  0  0  0  0
    8.9938    1.3196    0.0000 H   0  0  0  0  0  0  0  0  0  0  0  0
    9.7195    2.1682    0.0000 H   0  0  0  0  0  0  0  0  0  0  0  0
   10.5565    3.4541    0.0000 H   0  0  0  0  0  0  0  0  0  0  0  0
    9.9668    2.5067    0.0000 H   0  0  0  0  0  0  0  0  0  0  0  0
    3.9688    4.7335    0.0000 H   0  0  0  0  0  0  0  0  0  0  0  0
    3.9668    3.6623    0.0000 H   0  0  0  0  0  0  0  0  0  0  0  0
    6.0515    7.2890    0.0000 H   0  0  0  0  0  0  0  0  0  0  0  0
    5.1777    5.6546    0.0000 H   0  0  0  0  0  0  0  0  0  0  0  0
    5.1428    6.7241    0.0000 H   0  0  0  0  0  0  0  0  0  0  0  0
    5.8271    3.3396    0.0000 H   0  0  0  0  0  0  0  0  0  0  0  0
    7.0353    0.1567    0.0000 H   0  0  0  0  0  0  0  0  0  0  0  0
    6.1060   -0.3760    0.0000 H   0  0  0  0  0  0  0  0  0  0  0  0
   10.0470    8.3400    0.0000 H   0  0  0  0  0  0  0  0  0  0  0  0
    3.6825    3.1876    0.0000 H   0  0  0  0  0  0  0  0  0  0  0  0
    4.8933   -1.0700    0.0000 H   0  0  0  0  0  0  0  0  0  0  0  0
    3.9682   -0.5362    0.0000 H   0  0  0  0  0  0  0  0  0  0  0  0
    2.4574    3.8856    0.0000 H   0  0  0  0  0  0  0  0  0  0  0  0
    1.5345    3.3338    0.0000 H   0  0  0  0  0  0  0  0  0  0  0  0
    2.4603   -1.0319    0.0000 H   0  0  0  0  0  0  0  0  0  0  0  0
    0.3219    2.5984    0.0000 H   0  0  0  0  0  0  0  0  0  0  0  0
    0.3315    1.5340    0.0000 H   0  0  0  0  0  0  0  0  0  0  0  0
   10.3230    3.8099    0.0000 H   0  0  0  0  0  0  0  0  0  0  0  0
  1  2  1  0  0  0  0
  1  3  1  0  0  0  0
  1  4  1  0  0  0  0
  1  5  1  1  0  0  0
  2  6  1  0  0  0  0
  2  7  1  0  0  0  0
  2 24  1  6  0  0  0
  3  8  1  0  0  0  0
  3  9  1  6  0  0  0
  3 23  1  0  0  0  0
  4 10  1  0  0  0  0
  4 25  1  0  0  0  0
  4 26  1  0  0  0  0
  5 11  1  0  0  0  0
  5 27  1  0  0  0  0
  5 28  1  0  0  0  0
  6 12  1  0  0  0  0
  6 13  1  0  0  0  0
  6 29  1  1  0  0  0
  7  8  1  0  0  0  0
  7 30  1  0  0  0  0
  7 31  1  0  0  0  0
  8 32  1  0  0  0  0
  8 33  1  0  0  0  0
  9 14  3  0  0  0  0
 10 34  1  0  0  0  0
 10 35  1  0  0  0  0
 11 36  1  0  0  0  0
 11 37  1  0  0  0  0
 11 38  1  0  0  0  0
 12 10  1  0  0  0  0
 12 15  1  0  0  0  0
 12 39  1  6  0  0  0
 13 16  1  0  0  0  0
 13 40  1  0  0  0  0
 13 41  1  0  0  0  0
 14 42  1  0  0  0  0
 15 17  1  0  0  0  0
 15 18  1  0  0  0  0
 15 43  1  1  0  0  0
 16 17  1  0  0  0  0
 16 44  1  0  0  0  0
 16 45  1  0  0  0  0
 17 19  2  0  0  0  0
 18 20  1  0  0  0  0
 18 46  1  0  0  0  0
 18 47  1  0  0  0  0
 19 21  1  0  0  0  0
 19 48  1  0  0  0  0
 20 21  1  0  0  0  0
 20 49  1  0  0  0  0
 20 50  1  0  0  0  0
 21 22  2  0  0  0  0
 23 51  1  0  0  0  0
M  END
>  <Mol_ID>
3300

>  <Formula>
C21H28O2

>  <MolWeight>
312.44582

>  <Cat>
S5709

>  <Name>
Norgestrel

>  <Synonyms>
WY-3707, SH-70850, SH-850, FH 122-A

>  <Target>
ROS

>  <Form>
free base

>  <CAS>
6533-00-2

>  <URL>
http://selleckchem.com/products/norgestrel.html

$$$$
