S5705 Raceanisodamine.cdx
 OpenBabel08302520303D

 45 47  0  0  0  0  0  0  0  0999 V2000
   -1.6451    0.9863    0.8670 C   0  0  3  0  0  0  0  0  0  0  0  0
   -1.0370    1.2032    2.1777 O   0  0  0  0  0  0  0  0  0  0  0  0
   -1.4518    1.6734    3.3664 C   0  0  0  0  0  0  0  0  0  0  0  0
   -0.1484    2.1045    4.1266 C   0  0  3  0  0  0  0  0  0  0  0  0
   -2.5979    1.7859    3.7462 O   0  0  0  0  0  0  0  0  0  0  0  0
    0.1527    3.5520    3.7590 C   0  0  0  0  0  0  0  0  0  0  0  0
   -0.1448    1.7655    5.6255 C   0  0  0  0  0  0  0  0  0  0  0  0
   -0.5240    4.6171    4.3401 C   0  0  0  0  0  0  0  0  0  0  0  0
    1.0656    3.8018    2.7230 C   0  0  0  0  0  0  0  0  0  0  0  0
    1.0626    2.1867    6.2763 O   0  0  0  0  0  0  0  0  0  0  0  0
   -0.3331    5.9056    3.8603 C   0  0  0  0  0  0  0  0  0  0  0  0
    1.2549    5.0910    2.2384 C   0  0  0  0  0  0  0  0  0  0  0  0
    0.5405    6.1464    2.7961 C   0  0  0  0  0  0  0  0  0  0  0  0
   -0.4056    1.2815    0.0645 C   0  0  0  0  0  0  0  0  0  0  0  0
    0.6850    0.2125    0.4976 C   0  0  3  0  0  0  0  0  0  0  0  0
    1.1641   -0.3613   -0.8331 C   0  0  0  0  0  0  0  0  0  0  0  0
    0.0611   -1.4142   -1.1216 C   0  0  3  0  0  0  0  0  0  0  0  0
   -0.8292   -1.4610    0.1604 C   0  0  3  0  0  0  0  0  0  0  0  0
   -2.0291   -0.4620    0.3855 C   0  0  0  0  0  0  0  0  0  0  0  0
   -0.6847   -1.1677   -2.2965 O   0  0  0  0  0  0  0  0  0  0  0  0
    0.2315   -1.0855    1.0728 N   0  0  0  0  0  0  0  0  0  0  0  0
   -0.0999   -1.3499    2.4451 C   0  0  0  0  0  0  0  0  0  0  0  0
   -2.4637    1.6983    0.7132 H   0  0  0  0  0  0  0  0  0  0  0  0
    0.6782    1.4913    3.7255 H   0  0  0  0  0  0  0  0  0  0  0  0
   -0.9965    2.1788    6.1703 H   0  0  0  0  0  0  0  0  0  0  0  0
   -0.1773    0.6751    5.7469 H   0  0  0  0  0  0  0  0  0  0  0  0
   -1.2456    4.4613    5.1482 H   0  0  0  0  0  0  0  0  0  0  0  0
    1.6287    2.9905    2.2720 H   0  0  0  0  0  0  0  0  0  0  0  0
    0.9498    3.1209    6.5302 H   0  0  0  0  0  0  0  0  0  0  0  0
   -0.8799    6.7405    4.2910 H   0  0  0  0  0  0  0  0  0  0  0  0
    1.9348    5.2683    1.4081 H   0  0  0  0  0  0  0  0  0  0  0  0
    0.6648    7.1539    2.4034 H   0  0  0  0  0  0  0  0  0  0  0  0
   -0.6539    1.2542   -1.0050 H   0  0  0  0  0  0  0  0  0  0  0  0
   -0.0270    2.2912    0.2618 H   0  0  0  0  0  0  0  0  0  0  0  0
    1.4903    0.6758    1.0749 H   0  0  0  0  0  0  0  0  0  0  0  0
    1.2822    0.3906   -1.6210 H   0  0  0  0  0  0  0  0  0  0  0  0
    2.1411   -0.8418   -0.6885 H   0  0  0  0  0  0  0  0  0  0  0  0
    0.5797   -2.3787   -1.2391 H   0  0  0  0  0  0  0  0  0  0  0  0
   -1.1887   -2.4896    0.2803 H   0  0  0  0  0  0  0  0  0  0  0  0
   -2.7204   -0.9006    1.1119 H   0  0  0  0  0  0  0  0  0  0  0  0
   -2.5659   -0.3775   -0.5697 H   0  0  0  0  0  0  0  0  0  0  0  0
   -0.2382   -0.4759   -2.8092 H   0  0  0  0  0  0  0  0  0  0  0  0
   -0.3987   -2.4049    2.5503 H   0  0  0  0  0  0  0  0  0  0  0  0
    0.7518   -1.2007    3.1136 H   0  0  0  0  0  0  0  0  0  0  0  0
   -0.9688   -0.8335    2.8722 H   0  0  0  0  0  0  0  0  0  0  0  0
  1  2  1  0  0  0  0
  1 14  1  0  0  0  0
  1 23  1  0  0  0  0
  2  3  1  0  0  0  0
  3  4  1  0  0  0  0
  3  5  2  0  0  0  0
  4  6  1  0  0  0  0
  4  7  1  0  0  0  0
  4 24  1  0  0  0  0
  6  8  2  0  0  0  0
  6  9  1  0  0  0  0
  7 10  1  0  0  0  0
  7 25  1  0  0  0  0
  7 26  1  0  0  0  0
  8 11  1  0  0  0  0
  8 27  1  0  0  0  0
  9 12  2  0  0  0  0
  9 28  1  0  0  0  0
 10 29  1  0  0  0  0
 11 13  2  0  0  0  0
 11 30  1  0  0  0  0
 12 13  1  0  0  0  0
 12 31  1  0  0  0  0
 13 32  1  0  0  0  0
 14 15  1  0  0  0  0
 14 33  1  0  0  0  0
 14 34  1  0  0  0  0
 15 16  1  0  0  0  0
 15 21  1  0  0  0  0
 15 35  1  0  0  0  0
 16 17  1  0  0  0  0
 16 36  1  0  0  0  0
 16 37  1  0  0  0  0
 17 18  1  0  0  0  0
 17 20  1  0  0  0  0
 17 38  1  0  0  0  0
 18 19  1  0  0  0  0
 18 39  1  0  0  0  0
 19  1  1  0  0  0  0
 19 40  1  0  0  0  0
 19 41  1  0  0  0  0
 20 42  1  0  0  0  0
 21 18  1  0  0  0  0
 21 22  1  0  0  0  0
 22 43  1  0  0  0  0
 22 44  1  0  0  0  0
 22 45  1  0  0  0  0
M  END
>  <Mol_ID>
3299

>  <Formula>
C17H23NO4

>  <MolWeight>
305.36882

>  <Cat>
S5705

>  <Name>
Raceanisodamine

>  <Synonyms>
7¦Â-Hydroxyhyoscyamine

>  <Target>
Others

>  <Form>
free base

>  <CAS>
17659-49-3

>  <URL>
http://selleckchem.com/products/raceanisodamine.html

$$$$
