S5710 Ambroxol.cdx
 OpenBabel08302520303D

 36 37  0  0  0  0  0  0  0  0999 V2000
    3.1379   -5.5181    1.3941 C   0  0  0  0  0  0  0  0  0  0  0  0
    3.9856   -4.4855    0.9369 C   0  0  0  0  0  0  0  0  0  0  0  0
    3.6648   -6.8132    1.5666 C   0  0  0  0  0  0  0  0  0  0  0  0
    1.6623   -5.3014    1.6856 C   0  0  0  0  0  0  0  0  0  0  0  0
    5.3463   -4.7738    0.7063 C   0  0  0  0  0  0  0  0  0  0  0  0
    3.4246   -3.2643    0.5042 N   0  0  0  0  0  0  0  0  0  0  0  0
    5.0149   -7.0692    1.3330 C   0  0  0  0  0  0  0  0  0  0  0  0
    1.4152   -4.0556    2.4304 N   0  0  0  0  0  0  0  0  0  0  0  0
    5.8664   -6.0507    0.9260 C   0  0  0  0  0  0  0  0  0  0  0  0
    6.5485   -3.4127    0.1382 Br  0  0  0  0  0  0  0  0  0  0  0  0
    5.6873   -8.8215    1.5618 Br  0  0  0  0  0  0  0  0  0  0  0  0
   -0.0057   -3.8344    2.7186 C   0  0  1  0  0  0  0  0  0  0  0  0
   -0.5675   -4.8034    3.7735 C   0  0  0  0  0  0  0  0  0  0  0  0
   -0.1803   -2.3901    3.2195 C   0  0  0  0  0  0  0  0  0  0  0  0
   -2.0386   -4.5156    4.0657 C   0  0  0  0  0  0  0  0  0  0  0  0
   -1.6570   -2.0819    3.4578 C   0  0  0  0  0  0  0  0  0  0  0  0
   -2.2900   -3.0622    4.4473 C   0  0  1  0  0  0  0  0  0  0  0  0
   -3.6903   -2.8225    4.5187 O   0  0  0  0  0  0  0  0  0  0  0  0
    3.0112   -7.6272    1.8748 H   0  0  0  0  0  0  0  0  0  0  0  0
    1.1166   -5.3023    0.7338 H   0  0  0  0  0  0  0  0  0  0  0  0
    1.3050   -6.1494    2.2780 H   0  0  0  0  0  0  0  0  0  0  0  0
    4.0884   -2.4964    0.5034 H   0  0  0  0  0  0  0  0  0  0  0  0
    2.5663   -3.0473    1.0204 H   0  0  0  0  0  0  0  0  0  0  0  0
    1.9535   -4.0779    3.2970 H   0  0  0  0  0  0  0  0  0  0  0  0
    6.9217   -6.2496    0.7625 H   0  0  0  0  0  0  0  0  0  0  0  0
   -0.5771   -3.9369    1.7870 H   0  0  0  0  0  0  0  0  0  0  0  0
    0.0118   -4.7244    4.7028 H   0  0  0  0  0  0  0  0  0  0  0  0
   -0.4863   -5.8419    3.4358 H   0  0  0  0  0  0  0  0  0  0  0  0
    0.3769   -2.2399    4.1549 H   0  0  0  0  0  0  0  0  0  0  0  0
    0.2238   -1.6777    2.4904 H   0  0  0  0  0  0  0  0  0  0  0  0
   -2.3912   -5.1694    4.8722 H   0  0  0  0  0  0  0  0  0  0  0  0
   -2.6434   -4.7771    3.1887 H   0  0  0  0  0  0  0  0  0  0  0  0
   -2.1982   -2.1161    2.5022 H   0  0  0  0  0  0  0  0  0  0  0  0
   -1.7740   -1.0547    3.8253 H   0  0  0  0  0  0  0  0  0  0  0  0
   -1.8754   -2.8717    5.4473 H   0  0  0  0  0  0  0  0  0  0  0  0
   -4.0640   -2.9446    3.6276 H   0  0  0  0  0  0  0  0  0  0  0  0
  1  2  2  0  0  0  0
  1  3  1  0  0  0  0
  1  4  1  0  0  0  0
  2  5  1  0  0  0  0
  2  6  1  0  0  0  0
  3  7  2  0  0  0  0
  3 19  1  0  0  0  0
  4  8  1  0  0  0  0
  4 20  1  0  0  0  0
  4 21  1  0  0  0  0
  5  9  2  0  0  0  0
  5 10  1  0  0  0  0
  6 22  1  0  0  0  0
  6 23  1  0  0  0  0
  7 11  1  0  0  0  0
  7  9  1  0  0  0  0
  8 24  1  0  0  0  0
  9 25  1  0  0  0  0
 12 13  1  0  0  0  0
 12 14  1  0  0  0  0
 12 26  1  6  0  0  0
 12  8  1  0  0  0  0
 13 15  1  0  0  0  0
 13 27  1  0  0  0  0
 13 28  1  0  0  0  0
 14 16  1  0  0  0  0
 14 29  1  0  0  0  0
 14 30  1  0  0  0  0
 15 17  1  0  0  0  0
 15 31  1  0  0  0  0
 15 32  1  0  0  0  0
 16 17  1  0  0  0  0
 16 33  1  0  0  0  0
 16 34  1  0  0  0  0
 17 18  1  0  0  0  0
 17 35  1  1  0  0  0
 18 36  1  0  0  0  0
M  END
>  <Mol_ID>
3267

>  <Formula>
C13H18Br2N2O

>  <MolWeight>
378.10282

>  <Cat>
S5710

>  <Name>
Ambroxol

>  <Target>
Sodium Channel

>  <Form>
Expectorant

>  <CAS>
18683-91-5

>  <URL>
https://www.selleckchem.com/products/ambroxol.html

$$$$
