S5711 Deracoxib.cdx
 OpenBabel08302520303D

 41 43  0  0  0  0  0  0  0  0999 V2000
   -0.6968   -0.5488    0.8679 C   0  0  0  0  0  0  0  0  0  0  0  0
    0.6374   -0.9701    0.6103 O   0  0  0  0  0  0  0  0  0  0  0  0
    0.7935   -2.2683    0.2115 C   0  0  0  0  0  0  0  0  0  0  0  0
   -0.1716   -3.0915   -0.3689 C   0  0  0  0  0  0  0  0  0  0  0  0
   -1.4074   -2.6423   -0.6310 F   0  0  0  0  0  0  0  0  0  0  0  0
    0.1170   -4.4161   -0.7056 C   0  0  0  0  0  0  0  0  0  0  0  0
    1.3915   -4.9482   -0.4838 C   0  0  0  0  0  0  0  0  0  0  0  0
    2.3805   -4.0928    0.0264 C   0  0  0  0  0  0  0  0  0  0  0  0
    2.0778   -2.7779    0.3933 C   0  0  0  0  0  0  0  0  0  0  0  0
    1.6720   -6.3568   -0.8032 C   0  0  0  0  0  0  0  0  0  0  0  0
    1.1568   -7.1232   -1.8367 C   0  0  0  0  0  0  0  0  0  0  0  0
    1.8536   -8.3492   -1.8108 C   0  0  0  0  0  0  0  0  0  0  0  0
    2.7852   -8.3510   -0.8480 N   0  0  0  0  0  0  0  0  0  0  0  0
    2.5616   -7.2109   -0.1412 N   0  0  0  0  0  0  0  0  0  0  0  0
    3.1991   -7.0382    1.1198 C   0  0  0  0  0  0  0  0  0  0  0  0
    2.5522   -6.3380    2.1518 C   0  0  0  0  0  0  0  0  0  0  0  0
    3.2207   -6.0812    3.3470 C   0  0  0  0  0  0  0  0  0  0  0  0
    4.5289   -6.5379    3.5172 C   0  0  0  0  0  0  0  0  0  0  0  0
    5.1667   -7.2773    2.5149 C   0  0  0  0  0  0  0  0  0  0  0  0
    4.4908   -7.5479    1.3200 C   0  0  0  0  0  0  0  0  0  0  0  0
    5.3764   -6.1761    5.0261 S   0  0  0  0  0  0  0  0  0  0  0  0
    5.6539   -7.7073    5.6546 N   0  0  0  0  0  0  0  0  0  0  0  0
    6.6691   -5.6187    4.7084 O   0  0  0  0  0  0  0  0  0  0  0  0
    4.4605   -5.5454    5.9490 O   0  0  0  0  0  0  0  0  0  0  0  0
    1.6421   -9.5116   -2.7300 C   0  0  0  0  0  0  0  0  0  0  0  0
    0.3644   -9.9793   -2.6321 F   0  0  0  0  0  0  0  0  0  0  0  0
    1.8015   -9.1434   -4.0325 F   0  0  0  0  0  0  0  0  0  0  0  0
   -0.6474    0.4436    1.3264 H   0  0  0  0  0  0  0  0  0  0  0  0
   -1.1944   -1.2193    1.5770 H   0  0  0  0  0  0  0  0  0  0  0  0
   -1.2675   -0.4509   -0.0599 H   0  0  0  0  0  0  0  0  0  0  0  0
   -0.6784   -5.0162   -1.1390 H   0  0  0  0  0  0  0  0  0  0  0  0
    3.4027   -4.4363    0.1715 H   0  0  0  0  0  0  0  0  0  0  0  0
    2.8507   -2.1524    0.8351 H   0  0  0  0  0  0  0  0  0  0  0  0
    0.4034   -6.8247   -2.5546 H   0  0  0  0  0  0  0  0  0  0  0  0
    1.5257   -5.9976    2.0498 H   0  0  0  0  0  0  0  0  0  0  0  0
    2.7184   -5.5144    4.1287 H   0  0  0  0  0  0  0  0  0  0  0  0
    6.1870   -7.6297    2.6515 H   0  0  0  0  0  0  0  0  0  0  0  0
    4.9974   -8.1074    0.5346 H   0  0  0  0  0  0  0  0  0  0  0  0
    6.6492   -7.8154    5.8544 H   0  0  0  0  0  0  0  0  0  0  0  0
    5.0519   -7.8643    6.4627 H   0  0  0  0  0  0  0  0  0  0  0  0
    2.3248  -10.3399   -2.5192 H   0  0  0  0  0  0  0  0  0  0  0  0
  1  2  1  0  0  0  0
  1 28  1  0  0  0  0
  1 29  1  0  0  0  0
  1 30  1  0  0  0  0
  2  3  1  0  0  0  0
  3  4  2  0  0  0  0
  3  9  1  0  0  0  0
  4  5  1  0  0  0  0
  4  6  1  0  0  0  0
  6  7  2  0  0  0  0
  6 31  1  0  0  0  0
  7  8  1  0  0  0  0
  7 10  1  0  0  0  0
  8  9  2  0  0  0  0
  8 32  1  0  0  0  0
  9 33  1  0  0  0  0
 10 11  2  0  0  0  0
 10 14  1  0  0  0  0
 11 12  1  0  0  0  0
 11 34  1  0  0  0  0
 12 13  2  0  0  0  0
 12 25  1  0  0  0  0
 13 14  1  0  0  0  0
 14 15  1  0  0  0  0
 15 16  2  0  0  0  0
 15 20  1  0  0  0  0
 16 17  1  0  0  0  0
 16 35  1  0  0  0  0
 17 18  2  0  0  0  0
 17 36  1  0  0  0  0
 18 19  1  0  0  0  0
 18 21  1  0  0  0  0
 19 20  2  0  0  0  0
 19 37  1  0  0  0  0
 20 38  1  0  0  0  0
 21 22  1  0  0  0  0
 21 23  2  0  0  0  0
 21 24  2  0  0  0  0
 22 39  1  0  0  0  0
 22 40  1  0  0  0  0
 25 26  1  0  0  0  0
 25 27  1  0  0  0  0
 25 41  1  0  0  0  0
M  END
>  <Mol_ID>
3301

>  <Formula>
C17H14F3N3O3S

>  <MolWeight>
397.3715696

>  <Cat>
S5711

>  <Name>
Deracoxib

>  <Synonyms>
SC-046

>  <Target>
COX

>  <Form>
free base

>  <CAS>
169590-41-4

>  <URL>
http://selleckchem.com/products/deracoxib.html

$$$$
