S5714 lurasidone.cdx
 OpenBabel08302520303D

 71 77  0  0  0  0  0  0  0  0999 V2000
   -0.3526    1.2251    3.9762 C   0  0  0  0  0  0  0  0  0  0  0  0
    0.8302    2.1773    4.0691 C   0  0  0  0  0  0  0  0  0  0  0  0
    1.5104    2.4269    2.7253 C   0  0  0  0  0  0  0  0  0  0  0  0
    1.7741    1.1267    1.9625 C   0  0  2  0  0  0  0  0  0  0  0  0
    0.4189    0.3844    1.6995 C   0  0  1  0  0  0  0  0  0  0  0  0
   -0.7586    0.9106    2.5440 C   0  0  0  0  0  0  0  0  0  0  0  0
   -0.0101    0.4374    0.2078 C   0  0  0  0  0  0  0  0  0  0  0  0
    0.9657   -0.1641   -0.6535 N   0  0  0  0  0  0  0  0  0  0  0  0
    1.1797   -1.6049   -0.6467 C   0  0  0  0  0  0  0  0  0  0  0  0
    2.6675   -1.9617   -0.6055 C   0  0  0  0  0  0  0  0  0  0  0  0
    3.4052   -1.2046   -1.6314 N   0  0  0  0  0  0  0  0  0  0  0  0
    3.2740    0.2384   -1.4814 C   0  0  0  0  0  0  0  0  0  0  0  0
    1.7903    0.6465   -1.5351 C   0  0  0  0  0  0  0  0  0  0  0  0
    3.6462   -1.8432   -2.8138 C   0  0  0  0  0  0  0  0  0  0  0  0
    2.9940   -2.9553   -3.1529 N   0  0  0  0  0  0  0  0  0  0  0  0
    4.0063   -3.9099   -4.0320 S   0  0  0  0  0  0  0  0  0  0  0  0
    5.2846   -2.7699   -4.1143 C   0  0  0  0  0  0  0  0  0  0  0  0
    6.5985   -2.9424   -4.5633 C   0  0  0  0  0  0  0  0  0  0  0  0
    7.4261   -1.8214   -4.6182 C   0  0  0  0  0  0  0  0  0  0  0  0
    6.9389   -0.5628   -4.2994 C   0  0  0  0  0  0  0  0  0  0  0  0
    5.6491   -0.4166   -3.7861 C   0  0  0  0  0  0  0  0  0  0  0  0
    4.8217   -1.5534   -3.6151 C   0  0  0  0  0  0  0  0  0  0  0  0
    2.7735    0.1760    2.6761 C   0  0  0  0  0  0  0  0  0  0  0  0
    4.1691    0.6107    2.7354 N   0  0  0  0  0  0  0  0  0  0  0  0
    4.6547    1.4219    3.7220 C   0  0  0  0  0  0  0  0  0  0  0  0
    4.0145    2.0592    4.5456 O   0  0  0  0  0  0  0  0  0  0  0  0
    6.1549    1.3550    3.7347 C   0  0  2  0  0  0  0  0  0  0  0  0
    6.9014    2.6495    3.3854 C   0  0  1  0  0  0  0  0  0  0  0  0
    8.3992    2.3515    3.5960 C   0  0  0  0  0  0  0  0  0  0  0  0
    8.7501    1.4587    2.3906 C   0  0  0  0  0  0  0  0  0  0  0  0
    7.3931    1.2995    1.6754 C   0  0  2  0  0  0  0  0  0  0  0  0
    6.8100    2.7006    1.8566 C   0  0  0  0  0  0  0  0  0  0  0  0
    6.5089    0.4234    2.5792 C   0  0  2  0  0  0  0  0  0  0  0  0
    5.1832   -0.0025    2.0365 C   0  0  0  0  0  0  0  0  0  0  0  0
    5.0769   -0.8305    1.1421 O   0  0  0  0  0  0  0  0  0  0  0  0
   -1.2098    1.6491    4.5146 H   0  0  0  0  0  0  0  0  0  0  0  0
   -0.1050    0.2829    4.4938 H   0  0  0  0  0  0  0  0  0  0  0  0
    1.5473    1.7692    4.7907 H   0  0  0  0  0  0  0  0  0  0  0  0
    0.5085    3.1374    4.4880 H   0  0  0  0  0  0  0  0  0  0  0  0
    2.4331    2.9994    2.8565 H   0  0  0  0  0  0  0  0  0  0  0  0
    0.8623    3.0681    2.1120 H   0  0  0  0  0  0  0  0  0  0  0  0
    2.2377    1.4181    1.0166 H   0  0  0  0  0  0  0  0  0  0  0  0
    0.5372   -0.6759    1.9697 H   0  0  0  0  0  0  0  0  0  0  0  0
   -1.5656    0.1672    2.5482 H   0  0  0  0  0  0  0  0  0  0  0  0
   -1.1810    1.8147    2.0885 H   0  0  0  0  0  0  0  0  0  0  0  0
   -0.9701   -0.0762    0.0767 H   0  0  0  0  0  0  0  0  0  0  0  0
   -0.1923    1.4803   -0.0808 H   0  0  0  0  0  0  0  0  0  0  0  0
    0.6921   -2.0816    0.2119 H   0  0  0  0  0  0  0  0  0  0  0  0
    0.7227   -2.0409   -1.5440 H   0  0  0  0  0  0  0  0  0  0  0  0
    3.0715   -1.7105    0.3740 H   0  0  0  0  0  0  0  0  0  0  0  0
    2.8199   -3.0443   -0.6893 H   0  0  0  0  0  0  0  0  0  0  0  0
    3.6873    0.5299   -0.5064 H   0  0  0  0  0  0  0  0  0  0  0  0
    3.8326    0.8201   -2.2096 H   0  0  0  0  0  0  0  0  0  0  0  0
    1.4319    0.5456   -2.5671 H   0  0  0  0  0  0  0  0  0  0  0  0
    1.7223    1.7110   -1.2810 H   0  0  0  0  0  0  0  0  0  0  0  0
    6.9709   -3.9283   -4.8161 H   0  0  0  0  0  0  0  0  0  0  0  0
    8.4617   -1.9354   -4.9253 H   0  0  0  0  0  0  0  0  0  0  0  0
    7.5741    0.3127   -4.4006 H   0  0  0  0  0  0  0  0  0  0  0  0
    5.3115    0.5740   -3.5121 H   0  0  0  0  0  0  0  0  0  0  0  0
    2.7599   -0.7933    2.1785 H   0  0  0  0  0  0  0  0  0  0  0  0
    2.4464   -0.0189    3.7002 H   0  0  0  0  0  0  0  0  0  0  0  0
    6.4677    0.9340    4.7018 H   0  0  0  0  0  0  0  0  0  0  0  0
    6.5360    3.5358    3.9001 H   0  0  0  0  0  0  0  0  0  0  0  0
    8.9953    3.2715    3.5822 H   0  0  0  0  0  0  0  0  0  0  0  0
    8.5881    1.8389    4.5466 H   0  0  0  0  0  0  0  0  0  0  0  0
    9.1755    0.4991    2.7003 H   0  0  0  0  0  0  0  0  0  0  0  0
    9.4797    1.9641    1.7469 H   0  0  0  0  0  0  0  0  0  0  0  0
    7.4694    0.9599    0.6390 H   0  0  0  0  0  0  0  0  0  0  0  0
    7.4400    3.4851    1.4216 H   0  0  0  0  0  0  0  0  0  0  0  0
    5.7901    2.8067    1.4731 H   0  0  0  0  0  0  0  0  0  0  0  0
    7.0330   -0.4739    2.9290 H   0  0  0  0  0  0  0  0  0  0  0  0
  1  2  1  0  0  0  0
  1  6  1  0  0  0  0
  1 36  1  0  0  0  0
  1 37  1  0  0  0  0
  2  3  1  0  0  0  0
  2 38  1  0  0  0  0
  2 39  1  0  0  0  0
  3  4  1  0  0  0  0
  3 40  1  0  0  0  0
  3 41  1  0  0  0  0
  4  5  1  0  0  0  0
  4 23  1  0  0  0  0
  4 42  1  6  0  0  0
  5  6  1  0  0  0  0
  5  7  1  0  0  0  0
  5 43  1  1  0  0  0
  6 44  1  0  0  0  0
  6 45  1  0  0  0  0
  7  8  1  0  0  0  0
  7 46  1  0  0  0  0
  7 47  1  0  0  0  0
  8  9  1  0  0  0  0
  8 13  1  0  0  0  0
  9 10  1  0  0  0  0
  9 48  1  0  0  0  0
  9 49  1  0  0  0  0
 10 11  1  0  0  0  0
 10 50  1  0  0  0  0
 10 51  1  0  0  0  0
 11 12  1  0  0  0  0
 11 14  1  0  0  0  0
 12 13  1  0  0  0  0
 12 52  1  0  0  0  0
 12 53  1  0  0  0  0
 13 54  1  0  0  0  0
 13 55  1  0  0  0  0
 14 15  2  0  0  0  0
 14 22  1  0  0  0  0
 15 16  1  0  0  0  0
 16 17  1  0  0  0  0
 17 18  2  0  0  0  0
 17 22  1  0  0  0  0
 18 19  1  0  0  0  0
 18 56  1  0  0  0  0
 19 20  2  0  0  0  0
 19 57  1  0  0  0  0
 20 21  1  0  0  0  0
 20 58  1  0  0  0  0
 21 22  2  0  0  0  0
 21 59  1  0  0  0  0
 23 24  1  0  0  0  0
 23 60  1  0  0  0  0
 23 61  1  0  0  0  0
 24 25  1  0  0  0  0
 24 34  1  0  0  0  0
 25 26  2  0  0  0  0
 27 25  1  0  0  0  0
 27 28  1  0  0  0  0
 27 33  1  0  0  0  0
 27 62  1  1  0  0  0
 28 29  1  0  0  0  0
 28 32  1  0  0  0  0
 28 63  1  1  0  0  0
 29 30  1  0  0  0  0
 29 64  1  0  0  0  0
 29 65  1  0  0  0  0
 30 66  1  0  0  0  0
 30 67  1  0  0  0  0
 31 30  1  0  0  0  0
 31 32  1  0  0  0  0
 31 33  1  0  0  0  0
 31 68  1  6  0  0  0
 32 69  1  0  0  0  0
 32 70  1  0  0  0  0
 33 34  1  0  0  0  0
 33 71  1  1  0  0  0
 34 35  2  0  0  0  0
M  END
>  <Mol_ID>
3302

>  <Formula>
C28H36N4O2S

>  <MolWeight>
492.67604

>  <Cat>
S5714

>  <Name>
lurasidone

>  <Synonyms>
SM-13496

>  <Target>
5-HT Receptor,Dopamine Receptor

>  <Form>
free base

>  <CAS>
367514-87-2

>  <URL>
http://selleckchem.com/products/lurasidone.html

$$$$
