S5725 Pempidine.cdx
 OpenBabel08302520303D

 32 32  0  0  0  0  0  0  0  0999 V2000
   -0.0001    0.7770    0.3280 N   0  0  0  0  0  0  0  0  0  0  0  0
   -1.2796    0.0788    0.0092 C   0  0  0  0  0  0  0  0  0  0  0  0
    1.2801    0.0769    0.0120 C   0  0  0  0  0  0  0  0  0  0  0  0
    0.0080    2.2033   -0.0141 C   0  0  0  0  0  0  0  0  0  0  0  0
   -1.2316   -1.4110    0.4388 C   0  0  0  0  0  0  0  0  0  0  0  0
   -2.4363    0.6996    0.8435 C   0  0  0  0  0  0  0  0  0  0  0  0
   -1.7062    0.1738   -1.4725 C   0  0  0  0  0  0  0  0  0  0  0  0
    1.2297   -1.4087    0.4539 C   0  0  0  0  0  0  0  0  0  0  0  0
    2.4370    0.7114    0.8323 C   0  0  0  0  0  0  0  0  0  0  0  0
    1.7046    0.1499   -1.4730 C   0  0  0  0  0  0  0  0  0  0  0  0
    0.0028   -2.1406   -0.0562 C   0  0  0  0  0  0  0  0  0  0  0  0
    0.8188    2.7325    0.4935 H   0  0  0  0  0  0  0  0  0  0  0  0
    0.1030    2.3799   -1.0898 H   0  0  0  0  0  0  0  0  0  0  0  0
   -0.8936    2.7199    0.3241 H   0  0  0  0  0  0  0  0  0  0  0  0
   -1.2554   -1.4813    1.5361 H   0  0  0  0  0  0  0  0  0  0  0  0
   -2.1258   -1.9420    0.0819 H   0  0  0  0  0  0  0  0  0  0  0  0
   -3.3519    0.1040    0.7443 H   0  0  0  0  0  0  0  0  0  0  0  0
   -2.1839    0.7335    1.9102 H   0  0  0  0  0  0  0  0  0  0  0  0
   -2.6947    1.7129    0.5220 H   0  0  0  0  0  0  0  0  0  0  0  0
   -1.0370   -0.3632   -2.1457 H   0  0  0  0  0  0  0  0  0  0  0  0
   -2.7009   -0.2667   -1.6160 H   0  0  0  0  0  0  0  0  0  0  0  0
   -1.7722    1.2111   -1.8167 H   0  0  0  0  0  0  0  0  0  0  0  0
    1.2381   -1.4679    1.5514 H   0  0  0  0  0  0  0  0  0  0  0  0
    2.1292   -1.9403    0.1155 H   0  0  0  0  0  0  0  0  0  0  0  0
    3.3553    0.1185    0.7357 H   0  0  0  0  0  0  0  0  0  0  0  0
    2.6867    1.7218    0.4893 H   0  0  0  0  0  0  0  0  0  0  0  0
    2.1898    0.7625    1.8973 H   0  0  0  0  0  0  0  0  0  0  0  0
    1.8358    1.1812   -1.8155 H   0  0  0  0  0  0  0  0  0  0  0  0
    2.6705   -0.3507   -1.6215 H   0  0  0  0  0  0  0  0  0  0  0  0
    1.0008   -0.3417   -2.1447 H   0  0  0  0  0  0  0  0  0  0  0  0
    0.0017   -3.1672    0.3284 H   0  0  0  0  0  0  0  0  0  0  0  0
    0.0095   -2.2128   -1.1474 H   0  0  0  0  0  0  0  0  0  0  0  0
  1  2  1  0  0  0  0
  1  3  1  0  0  0  0
  1  4  1  0  0  0  0
  2  5  1  0  0  0  0
  2  6  1  0  0  0  0
  2  7  1  0  0  0  0
  3  8  1  0  0  0  0
  3  9  1  0  0  0  0
  3 10  1  0  0  0  0
  4 12  1  0  0  0  0
  4 13  1  0  0  0  0
  4 14  1  0  0  0  0
  5 11  1  0  0  0  0
  5 15  1  0  0  0  0
  5 16  1  0  0  0  0
  6 17  1  0  0  0  0
  6 18  1  0  0  0  0
  6 19  1  0  0  0  0
  7 20  1  0  0  0  0
  7 21  1  0  0  0  0
  7 22  1  0  0  0  0
  8 11  1  0  0  0  0
  8 23  1  0  0  0  0
  8 24  1  0  0  0  0
  9 25  1  0  0  0  0
  9 26  1  0  0  0  0
  9 27  1  0  0  0  0
 10 28  1  0  0  0  0
 10 29  1  0  0  0  0
 10 30  1  0  0  0  0
 11 31  1  0  0  0  0
 11 32  1  0  0  0  0
M  END
>  <Mol_ID>
3280

>  <Formula>
C10H21N

>  <MolWeight>
155.28044

>  <Cat>
S5725

>  <Name>
Pempidine

>  <Synonyms>
Pyrilene; Perolysen; 1,2,2,6,6-Pentamethylpiperidine

>  <Target>
Others

>  <Form>
free base

>  <CAS>
79-55-0

>  <URL>
https://www.selleckchem.com/products/pempidine.html

$$$$
