S5729 Fosfosal.cdx
 OpenBabel08302520303D

 21 21  0  0  0  0  0  0  0  0999 V2000
    1.5079   -0.0698    0.1476 C   0  0  0  0  0  0  0  0  0  0  0  0
    0.6928   -1.2052   -0.0108 C   0  0  0  0  0  0  0  0  0  0  0  0
    0.9037    1.1997    0.1728 C   0  0  0  0  0  0  0  0  0  0  0  0
    2.9962   -0.0837    0.3039 C   0  0  0  0  0  0  0  0  0  0  0  0
    1.2701   -2.4436   -0.1106 O   0  0  0  0  0  0  0  0  0  0  0  0
   -0.6938   -1.0472   -0.1377 C   0  0  0  0  0  0  0  0  0  0  0  0
   -0.4795    1.3441    0.0508 C   0  0  0  0  0  0  0  0  0  0  0  0
    3.5800   -1.2948    0.3724 O   0  0  0  0  0  0  0  0  0  0  0  0
    3.6477    0.9468    0.3905 O   0  0  0  0  0  0  0  0  0  0  0  0
    0.5717   -3.8222    0.3314 P   0  0  0  0  0  0  0  0  0  0  0  0
   -1.2761    0.2180   -0.1001 C   0  0  0  0  0  0  0  0  0  0  0  0
    1.6304   -4.9310   -0.1143 O   0  0  0  0  0  0  0  0  0  0  0  0
    0.6841   -3.8502    1.9216 O   0  0  0  0  0  0  0  0  0  0  0  0
   -0.7915   -4.1300   -0.1848 O   0  0  0  0  0  0  0  0  0  0  0  0
    1.5133    2.0965    0.2819 H   0  0  0  0  0  0  0  0  0  0  0  0
   -1.3586   -1.8899   -0.3056 H   0  0  0  0  0  0  0  0  0  0  0  0
   -0.9279    2.3347    0.0625 H   0  0  0  0  0  0  0  0  0  0  0  0
    2.9684   -2.0492    0.2769 H   0  0  0  0  0  0  0  0  0  0  0  0
   -2.3539    0.3206   -0.2074 H   0  0  0  0  0  0  0  0  0  0  0  0
    1.3557   -5.3578   -0.9475 H   0  0  0  0  0  0  0  0  0  0  0  0
   -0.0753   -3.4288    2.3628 H   0  0  0  0  0  0  0  0  0  0  0  0
  1  2  2  0  0  0  0
  1  3  1  0  0  0  0
  1  4  1  0  0  0  0
  2  5  1  0  0  0  0
  2  6  1  0  0  0  0
  3  7  2  0  0  0  0
  3 15  1  0  0  0  0
  4  8  1  0  0  0  0
  4  9  2  0  0  0  0
  5 10  1  0  0  0  0
  6 11  2  0  0  0  0
  6 16  1  0  0  0  0
  7 11  1  0  0  0  0
  7 17  1  0  0  0  0
  8 18  1  0  0  0  0
 10 12  1  0  0  0  0
 10 13  1  0  0  0  0
 10 14  2  0  0  0  0
 11 19  1  0  0  0  0
 12 20  1  0  0  0  0
 13 21  1  0  0  0  0
M  END
>  <Mol_ID>
3281

>  <Formula>
C7H7O6P

>  <MolWeight>
218.100641

>  <Cat>
S5729

>  <Name>
Fosfosal

>  <Synonyms>
2-phosphonoxy benzoic acid

>  <Target>
Immunology & Inflammation related

>  <Form>
free base

>  <CAS>
6064-83-1

>  <URL>
https://www.selleckchem.com/products/fosfosal.html

$$$$
