S5728 Delapril Hydrochloride.cdx
 OpenBabel08302520303D

 65 67  0  0  0  0  0  0  0  0999 V2000
    2.5885    0.3948   -0.2719 C   0  0  0  0  0  0  0  0  0  0  0  0
    2.7813    0.3367   -1.7670 N   0  0  0  0  0  0  0  0  0  0  0  0
    1.9058   -0.8768    0.2984 C   0  0  0  0  0  0  0  0  0  0  0  0
    3.8721    0.5827    0.5855 C   0  0  0  0  0  0  0  0  0  0  0  0
    3.9081   -0.2882   -2.3354 C   0  0  0  0  0  0  0  0  0  0  0  0
    1.5761    0.6544   -2.5669 C   0  0  0  0  0  0  0  0  0  0  0  0
    3.0858   -1.6666    0.7649 C   0  0  0  0  0  0  0  0  0  0  0  0
    4.1978   -0.8395    0.9498 C   0  0  0  0  0  0  0  0  0  0  0  0
    4.0949   -0.3013   -3.8730 C   0  0  1  0  0  0  0  0  0  0  0  0
    4.8416   -0.7060   -1.6488 O   0  0  0  0  0  0  0  0  0  0  0  0
    1.5577    2.0940   -3.0681 C   0  0  0  0  0  0  0  0  0  0  0  0
    3.1751   -3.0399    0.9377 C   0  0  0  0  0  0  0  0  0  0  0  0
    5.4394   -1.3694    1.2606 C   0  0  0  0  0  0  0  0  0  0  0  0
    4.7787    0.9514   -4.2102 N   0  0  0  0  0  0  0  0  0  0  0  0
    4.9377   -1.5365   -4.2293 C   0  0  0  0  0  0  0  0  0  0  0  0
    2.5740    2.8470   -2.5851 O   0  0  0  0  0  0  0  0  0  0  0  0
    0.7041    2.5438   -3.8179 O   0  0  0  0  0  0  0  0  0  0  0  0
    4.4271   -3.5826    1.2362 C   0  0  0  0  0  0  0  0  0  0  0  0
    5.5521   -2.7560    1.3843 C   0  0  0  0  0  0  0  0  0  0  0  0
    5.1658    1.1536   -5.6222 C   0  0  1  0  0  0  0  0  0  0  0  0
    3.9224    1.2652   -6.5197 C   0  0  0  0  0  0  0  0  0  0  0  0
    6.0576    2.4209   -5.7154 C   0  0  0  0  0  0  0  0  0  0  0  0
    4.2656    1.3854   -8.0073 C   0  0  0  0  0  0  0  0  0  0  0  0
    5.8311    3.2784   -4.6747 O   0  0  0  0  0  0  0  0  0  0  0  0
    6.8514    2.6269   -6.6262 O   0  0  0  0  0  0  0  0  0  0  0  0
    3.0622    1.4463   -8.9222 C   0  0  0  0  0  0  0  0  0  0  0  0
    6.6583    4.4504   -4.6175 C   0  0  0  0  0  0  0  0  0  0  0  0
    2.0525    2.4007   -8.7312 C   0  0  0  0  0  0  0  0  0  0  0  0
    3.0027    0.6244  -10.0573 C   0  0  0  0  0  0  0  0  0  0  0  0
    7.9726    4.1485   -3.9180 C   0  0  0  0  0  0  0  0  0  0  0  0
    1.0314    2.5550   -9.6714 C   0  0  0  0  0  0  0  0  0  0  0  0
    1.9831    0.7829  -10.9988 C   0  0  0  0  0  0  0  0  0  0  0  0
    1.0063    1.7582  -10.8132 C   0  0  0  0  0  0  0  0  0  0  0  0
    1.9422    1.2679   -0.1087 H   0  0  0  0  0  0  0  0  0  0  0  0
    1.2805   -0.6216    1.1618 H   0  0  0  0  0  0  0  0  0  0  0  0
    1.3112   -1.4099   -0.4472 H   0  0  0  0  0  0  0  0  0  0  0  0
    4.6721    1.0939    0.0431 H   0  0  0  0  0  0  0  0  0  0  0  0
    3.6459    1.1384    1.5018 H   0  0  0  0  0  0  0  0  0  0  0  0
    1.4917   -0.0156   -3.4223 H   0  0  0  0  0  0  0  0  0  0  0  0
    0.6883    0.5044   -1.9432 H   0  0  0  0  0  0  0  0  0  0  0  0
    3.1392   -0.3931   -4.3822 H   0  0  0  0  0  0  0  0  0  0  0  0
    2.3166   -3.6842    0.7895 H   0  0  0  0  0  0  0  0  0  0  0  0
    6.3202   -0.7377    1.3088 H   0  0  0  0  0  0  0  0  0  0  0  0
    4.2671    1.7748   -3.8933 H   0  0  0  0  0  0  0  0  0  0  0  0
    4.4881   -2.4435   -3.8066 H   0  0  0  0  0  0  0  0  0  0  0  0
    5.0123   -1.6805   -5.3108 H   0  0  0  0  0  0  0  0  0  0  0  0
    5.9560   -1.4642   -3.8265 H   0  0  0  0  0  0  0  0  0  0  0  0
    3.1373    2.3207   -1.9774 H   0  0  0  0  0  0  0  0  0  0  0  0
    4.5409   -4.6606    1.3183 H   0  0  0  0  0  0  0  0  0  0  0  0
    6.5284   -3.2012    1.5568 H   0  0  0  0  0  0  0  0  0  0  0  0
    5.8098    0.3263   -5.9412 H   0  0  0  0  0  0  0  0  0  0  0  0
    3.2963    0.3721   -6.4012 H   0  0  0  0  0  0  0  0  0  0  0  0
    3.3164    2.1187   -6.1936 H   0  0  0  0  0  0  0  0  0  0  0  0
    4.8515    2.2912   -8.1950 H   0  0  0  0  0  0  0  0  0  0  0  0
    4.8982    0.5341   -8.2892 H   0  0  0  0  0  0  0  0  0  0  0  0
    6.8229    4.8693   -5.6161 H   0  0  0  0  0  0  0  0  0  0  0  0
    6.1063    5.1991   -4.0398 H   0  0  0  0  0  0  0  0  0  0  0  0
    2.0652    3.0597   -7.8662 H   0  0  0  0  0  0  0  0  0  0  0  0
    3.7684   -0.1275  -10.2348 H   0  0  0  0  0  0  0  0  0  0  0  0
    8.5554    3.4075   -4.4740 H   0  0  0  0  0  0  0  0  0  0  0  0
    8.5737    5.0573   -3.8158 H   0  0  0  0  0  0  0  0  0  0  0  0
    7.7953    3.7323   -2.9207 H   0  0  0  0  0  0  0  0  0  0  0  0
    0.2701    3.3166   -9.5230 H   0  0  0  0  0  0  0  0  0  0  0  0
    1.9657    0.1609  -11.8899 H   0  0  0  0  0  0  0  0  0  0  0  0
    0.2329    1.9050  -11.5622 H   0  0  0  0  0  0  0  0  0  0  0  0
  1  2  1  0  0  0  0
  1  3  1  0  0  0  0
  1  4  1  0  0  0  0
  1 34  1  0  0  0  0
  2  5  1  0  0  0  0
  2  6  1  0  0  0  0
  3  7  1  0  0  0  0
  3 35  1  0  0  0  0
  3 36  1  0  0  0  0
  4  8  1  0  0  0  0
  4 37  1  0  0  0  0
  4 38  1  0  0  0  0
  5  9  1  0  0  0  0
  5 10  2  0  0  0  0
  6 11  1  0  0  0  0
  6 39  1  0  0  0  0
  6 40  1  0  0  0  0
  7 12  1  0  0  0  0
  7  8  2  0  0  0  0
  8 13  1  0  0  0  0
  9 14  1  0  0  0  0
  9 15  1  0  0  0  0
  9 41  1  6  0  0  0
 11 16  1  0  0  0  0
 11 17  2  0  0  0  0
 12 18  2  0  0  0  0
 12 42  1  0  0  0  0
 13 19  2  0  0  0  0
 13 43  1  0  0  0  0
 14 20  1  0  0  0  0
 14 44  1  0  0  0  0
 15 45  1  0  0  0  0
 15 46  1  0  0  0  0
 15 47  1  0  0  0  0
 16 48  1  0  0  0  0
 18 19  1  0  0  0  0
 18 49  1  0  0  0  0
 19 50  1  0  0  0  0
 20 21  1  0  0  0  0
 20 22  1  0  0  0  0
 20 51  1  6  0  0  0
 21 23  1  0  0  0  0
 21 52  1  0  0  0  0
 21 53  1  0  0  0  0
 22 24  1  0  0  0  0
 22 25  2  0  0  0  0
 23 26  1  0  0  0  0
 23 54  1  0  0  0  0
 23 55  1  0  0  0  0
 24 27  1  0  0  0  0
 26 28  2  0  0  0  0
 26 29  1  0  0  0  0
 27 30  1  0  0  0  0
 27 56  1  0  0  0  0
 27 57  1  0  0  0  0
 28 31  1  0  0  0  0
 28 58  1  0  0  0  0
 29 32  2  0  0  0  0
 29 59  1  0  0  0  0
 30 60  1  0  0  0  0
 30 61  1  0  0  0  0
 30 62  1  0  0  0  0
 31 33  2  0  0  0  0
 31 63  1  0  0  0  0
 32 33  1  0  0  0  0
 32 64  1  0  0  0  0
 33 65  1  0  0  0  0
M  END
>  <Mol_ID>
3290

>  <Formula>
C26H33ClN2O5

>  <MolWeight>
489.00362

>  <Cat>
S5728

>  <Name>
Delapril Hydrochloride

>  <Synonyms>
Alindapril Hydrochloride

>  <Target>
ACE,RAAS

>  <Form>
hydrochloride

>  <CAS>
83435-67-0

>  <URL>
https://www.selleckchem.com/products/delapril-hydrochloride.html

$$$$
