S5724 Dichlorophene.cdx
 OpenBabel08302520303D

 27 28  0  0  0  0  0  0  0  0999 V2000
    0.8313    0.0321   -0.1314 C   0  0  0  0  0  0  0  0  0  0  0  0
    1.6399    1.5010   -2.0586 C   0  0  0  0  0  0  0  0  0  0  0  0
    0.6851    1.2019   -1.0786 C   0  0  0  0  0  0  0  0  0  0  0  0
   -0.4283    2.0540   -0.9591 C   0  0  0  0  0  0  0  0  0  0  0  0
   -0.5477    3.1939   -1.7597 C   0  0  0  0  0  0  0  0  0  0  0  0
    0.4409    3.4959   -2.6921 C   0  0  0  0  0  0  0  0  0  0  0  0
    1.5333    2.6459   -2.8459 C   0  0  0  0  0  0  0  0  0  0  0  0
    2.7178    0.6977   -2.3001 O   0  0  0  0  0  0  0  0  0  0  0  0
    0.4004   -2.4356    0.2726 C   0  0  0  0  0  0  0  0  0  0  0  0
    0.3058   -1.3172   -0.5762 C   0  0  0  0  0  0  0  0  0  0  0  0
   -0.3346   -1.4997   -1.8136 C   0  0  0  0  0  0  0  0  0  0  0  0
   -0.8804   -2.7364   -2.1749 C   0  0  0  0  0  0  0  0  0  0  0  0
   -0.8028   -3.8158   -1.2999 C   0  0  0  0  0  0  0  0  0  0  0  0
   -0.1584   -3.6652   -0.0772 C   0  0  0  0  0  0  0  0  0  0  0  0
    1.0268   -2.4041    1.4871 O   0  0  0  0  0  0  0  0  0  0  0  0
    0.3313    0.2944    0.8115 H   0  0  0  0  0  0  0  0  0  0  0  0
    1.8958   -0.0663    0.1165 H   0  0  0  0  0  0  0  0  0  0  0  0
   -1.2066    1.8409   -0.2279 H   0  0  0  0  0  0  0  0  0  0  0  0
   -1.4072    3.8497   -1.6462 H   0  0  0  0  0  0  0  0  0  0  0  0
    0.3591    4.3925   -3.3028 H   0  0  0  0  0  0  0  0  0  0  0  0
    2.2987    2.8709   -3.5829 H   0  0  0  0  0  0  0  0  0  0  0  0
    2.4864   -0.2132   -2.0521 H   0  0  0  0  0  0  0  0  0  0  0  0
   -0.4405   -0.6764   -2.5212 H   0  0  0  0  0  0  0  0  0  0  0  0
   -1.3776   -2.8493   -3.1330 H   0  0  0  0  0  0  0  0  0  0  0  0
   -1.2432   -4.7716   -1.5699 H   0  0  0  0  0  0  0  0  0  0  0  0
   -0.0896   -4.5055    0.6087 H   0  0  0  0  0  0  0  0  0  0  0  0
    1.5965   -1.6235    1.5513 H   0  0  0  0  0  0  0  0  0  0  0  0
  1  3  1  0  0  0  0
  1 10  1  0  0  0  0
  1 16  1  0  0  0  0
  1 17  1  0  0  0  0
  2  3  2  0  0  0  0
  2  7  1  0  0  0  0
  2  8  1  0  0  0  0
  3  4  1  0  0  0  0
  4  5  2  0  0  0  0
  4 18  1  0  0  0  0
  5  6  1  0  0  0  0
  5 19  1  0  0  0  0
  6  7  2  0  0  0  0
  6 20  1  0  0  0  0
  7 21  1  0  0  0  0
  8 22  1  0  0  0  0
  9 10  2  0  0  0  0
  9 14  1  0  0  0  0
  9 15  1  0  0  0  0
 10 11  1  0  0  0  0
 11 12  2  0  0  0  0
 11 23  1  0  0  0  0
 12 13  1  0  0  0  0
 12 24  1  0  0  0  0
 13 14  2  0  0  0  0
 13 25  1  0  0  0  0
 14 26  1  0  0  0  0
 15 27  1  0  0  0  0
M  END
>  <Mol_ID>
3275

>  <Formula>
C13H10Cl2O2

>  <MolWeight>
269.1233

>  <Cat>
S5724

>  <Name>
Dichlorophen

>  <Synonyms>
Dichlorophene, Bis(5-chloro-2-hydroxyphenyl)methane

>  <Target>
Fungal

>  <Form>
free base

>  <CAS>
97-23-4

>  <URL>
https://www.selleckchem.com/products/dichlorophene.html

$$$$
