S5723 Carvedilol EP IMpurity E.cdx
 OpenBabel08302520303D

 25 25  0  0  0  0  0  0  0  0999 V2000
    1.3356   -0.2138    0.1995 C   0  0  0  0  0  0  0  0  0  0  0  0
    0.5283   -1.3444    0.0018 C   0  0  0  0  0  0  0  0  0  0  0  0
    0.7710    1.0596   -0.0003 C   0  0  0  0  0  0  0  0  0  0  0  0
    2.6365   -0.3819    0.6286 O   0  0  0  0  0  0  0  0  0  0  0  0
   -0.8430   -1.1730   -0.2589 C   0  0  0  0  0  0  0  0  0  0  0  0
    0.8834   -2.6606    0.1141 O   0  0  0  0  0  0  0  0  0  0  0  0
   -0.5905    1.2154   -0.2694 C   0  0  0  0  0  0  0  0  0  0  0  0
    3.2177    0.7695    1.2563 C   0  0  0  0  0  0  0  0  0  0  0  0
   -1.4031    0.0974   -0.3751 C   0  0  0  0  0  0  0  0  0  0  0  0
    2.1872   -3.0379   -0.3087 C   0  0  0  0  0  0  0  0  0  0  0  0
    4.4738    0.3927    2.0495 C   0  0  0  0  0  0  0  0  0  0  0  0
    4.2038   -0.5525    3.1355 N   0  0  0  0  0  0  0  0  0  0  0  0
    1.3641    1.9651    0.0687 H   0  0  0  0  0  0  0  0  0  0  0  0
   -1.4802   -2.0479   -0.3643 H   0  0  0  0  0  0  0  0  0  0  0  0
   -1.0131    2.2125   -0.3699 H   0  0  0  0  0  0  0  0  0  0  0  0
    3.5052    1.4925    0.4841 H   0  0  0  0  0  0  0  0  0  0  0  0
    2.5022    1.2333    1.9503 H   0  0  0  0  0  0  0  0  0  0  0  0
   -2.4694    0.2106   -0.5509 H   0  0  0  0  0  0  0  0  0  0  0  0
    2.7191   -2.2831   -0.8935 H   0  0  0  0  0  0  0  0  0  0  0  0
    2.7691   -3.3276    0.5705 H   0  0  0  0  0  0  0  0  0  0  0  0
    2.0866   -3.9242   -0.9461 H   0  0  0  0  0  0  0  0  0  0  0  0
    5.2213   -0.0477    1.3823 H   0  0  0  0  0  0  0  0  0  0  0  0
    4.9028    1.3045    2.4784 H   0  0  0  0  0  0  0  0  0  0  0  0
    3.9080   -1.4369    2.7161 H   0  0  0  0  0  0  0  0  0  0  0  0
    3.3910   -0.2370    3.6656 H   0  0  0  0  0  0  0  0  0  0  0  0
  1  2  2  0  0  0  0
  1  3  1  0  0  0  0
  1  4  1  0  0  0  0
  2  5  1  0  0  0  0
  2  6  1  0  0  0  0
  3  7  2  0  0  0  0
  3 13  1  0  0  0  0
  4  8  1  0  0  0  0
  5  9  2  0  0  0  0
  5 14  1  0  0  0  0
  6 10  1  0  0  0  0
  7  9  1  0  0  0  0
  7 15  1  0  0  0  0
  8 11  1  0  0  0  0
  8 16  1  0  0  0  0
  8 17  1  0  0  0  0
  9 18  1  0  0  0  0
 10 19  1  0  0  0  0
 10 20  1  0  0  0  0
 10 21  1  0  0  0  0
 11 12  1  0  0  0  0
 11 22  1  0  0  0  0
 11 23  1  0  0  0  0
 12 24  1  0  0  0  0
 12 25  1  0  0  0  0
M  END
>  <Mol_ID>
3279

>  <Formula>
C9H14ClNO2

>  <MolWeight>
203.66596

>  <Cat>
S5723

>  <Name>
Carvedilol EP IMpurity E

>  <Synonyms>
Carvedilol USP E, Carvedilol Impurity E

>  <Target>
Adrenergic Receptor

>  <Form>
free base

>  <CAS>
64464-07-9

>  <URL>
https://www.selleckchem.com/products/carvedilol-ep-impurity-e.html

$$$$
