S5732 Sebacic acid.cdx
 OpenBabel08302520303D

 32 31  0  0  0  0  0  0  0  0999 V2000
    0.8335   -2.1931    2.7110 C   0  0  0  0  0  0  0  0  0  0  0  0
    0.0671   -2.3182    1.4132 C   0  0  0  0  0  0  0  0  0  0  0  0
    1.6723   -3.2359    2.9162 O   0  0  0  0  0  0  0  0  0  0  0  0
    0.7303   -1.2758    3.5084 O   0  0  0  0  0  0  0  0  0  0  0  0
   -0.8495   -1.1158    1.1817 C   0  0  0  0  0  0  0  0  0  0  0  0
   -1.6106   -1.2230   -0.1409 C   0  0  0  0  0  0  0  0  0  0  0  0
   -2.5410   -0.0230   -0.3475 C   0  0  0  0  0  0  0  0  0  0  0  0
   -3.3184   -0.1408   -1.6610 C   0  0  0  0  0  0  0  0  0  0  0  0
   -4.2709    1.0404   -1.8661 C   0  0  0  0  0  0  0  0  0  0  0  0
   -5.0331    0.9870   -3.1952 C   0  0  0  0  0  0  0  0  0  0  0  0
   -5.9538   -0.2276   -3.3267 C   0  0  0  0  0  0  0  0  0  0  0  0
   -6.7194   -0.2209   -4.6302 C   0  0  0  0  0  0  0  0  0  0  0  0
   -7.5272   -1.3010   -4.7528 O   0  0  0  0  0  0  0  0  0  0  0  0
   -6.6377    0.6330   -5.4962 O   0  0  0  0  0  0  0  0  0  0  0  0
    0.7897   -2.3968    0.5938 H   0  0  0  0  0  0  0  0  0  0  0  0
   -0.5290   -3.2366    1.4556 H   0  0  0  0  0  0  0  0  0  0  0  0
    1.6573   -3.9017    2.2031 H   0  0  0  0  0  0  0  0  0  0  0  0
   -1.5633   -1.0368    2.0112 H   0  0  0  0  0  0  0  0  0  0  0  0
   -0.2548   -0.1939    1.1888 H   0  0  0  0  0  0  0  0  0  0  0  0
   -0.8975   -1.2823   -0.9722 H   0  0  0  0  0  0  0  0  0  0  0  0
   -2.1979   -2.1492   -0.1520 H   0  0  0  0  0  0  0  0  0  0  0  0
   -3.2468    0.0404    0.4898 H   0  0  0  0  0  0  0  0  0  0  0  0
   -1.9540    0.9033   -0.3469 H   0  0  0  0  0  0  0  0  0  0  0  0
   -2.6152   -0.1939   -2.5013 H   0  0  0  0  0  0  0  0  0  0  0  0
   -3.8833   -1.0791   -1.6489 H   0  0  0  0  0  0  0  0  0  0  0  0
   -4.9868    1.0893   -1.0369 H   0  0  0  0  0  0  0  0  0  0  0  0
   -3.6946    1.9745   -1.8400 H   0  0  0  0  0  0  0  0  0  0  0  0
   -5.6316    1.9027   -3.2871 H   0  0  0  0  0  0  0  0  0  0  0  0
   -4.3194    1.0029   -4.0282 H   0  0  0  0  0  0  0  0  0  0  0  0
   -5.3691   -1.1511   -3.2973 H   0  0  0  0  0  0  0  0  0  0  0  0
   -6.6783   -0.2311   -2.5035 H   0  0  0  0  0  0  0  0  0  0  0  0
   -7.4952   -1.9060   -3.9880 H   0  0  0  0  0  0  0  0  0  0  0  0
  1  2  1  0  0  0  0
  1  3  1  0  0  0  0
  1  4  2  0  0  0  0
  2  5  1  0  0  0  0
  2 15  1  0  0  0  0
  2 16  1  0  0  0  0
  3 17  1  0  0  0  0
  5  6  1  0  0  0  0
  5 18  1  0  0  0  0
  5 19  1  0  0  0  0
  6  7  1  0  0  0  0
  6 20  1  0  0  0  0
  6 21  1  0  0  0  0
  7  8  1  0  0  0  0
  7 22  1  0  0  0  0
  7 23  1  0  0  0  0
  8  9  1  0  0  0  0
  8 24  1  0  0  0  0
  8 25  1  0  0  0  0
  9 10  1  0  0  0  0
  9 26  1  0  0  0  0
  9 27  1  0  0  0  0
 10 11  1  0  0  0  0
 10 28  1  0  0  0  0
 10 29  1  0  0  0  0
 11 12  1  0  0  0  0
 11 30  1  0  0  0  0
 11 31  1  0  0  0  0
 12 13  1  0  0  0  0
 12 14  2  0  0  0  0
 13 32  1  0  0  0  0
M  END
>  <Mol_ID>
3277

>  <Formula>
C10H18O4

>  <MolWeight>
202.24752

>  <Cat>
S5732

>  <Name>
Sebacic acid

>  <Synonyms>
1,8-Octanedicarboxylic acid

>  <Target>
Others

>  <Form>
free base

>  <CAS>
111-20-6

>  <URL>
https://www.selleckchem.com/products/sebacic-acid.html

$$$$
