S6K-18
 OpenBabel08302521283D

 43 45  0  0  0  0  0  0  0  0999 V2000
   -0.5685    0.1371    0.7556 S   0  0  0  0  0  0  0  0  0  0  0  0
    2.8281   -2.8121    0.2573 O   0  0  0  0  0  0  0  0  0  0  0  0
    3.6229   -1.3503   -1.2669 O   0  0  0  0  0  0  0  0  0  0  0  0
   -1.3917   -4.1666   -0.1180 O   0  0  0  0  0  0  0  0  0  0  0  0
   -0.1035   -2.4338    0.1163 N   0  0  0  0  0  0  0  0  0  0  0  0
   -2.2966   -2.3655    1.0005 N   0  0  0  0  0  0  0  0  0  0  0  0
   -6.6175   -5.2593    2.8592 N   0  0  0  0  0  0  0  0  0  0  0  0
   -6.6996   -6.3036    2.0134 N   0  0  0  0  0  0  0  0  0  0  0  0
    0.3157    2.8128    0.2526 C   0  0  0  0  0  0  0  0  0  0  0  0
    0.6000    1.3064    0.2852 C   0  0  0  0  0  0  0  0  0  0  0  0
    1.1825    3.5365    1.3002 C   0  0  0  0  0  0  0  0  0  0  0  0
    0.6609    3.3561   -1.1528 C   0  0  0  0  0  0  0  0  0  0  0  0
   -1.1602    3.1591    0.5314 C   0  0  0  0  0  0  0  0  0  0  0  0
    1.7797    0.6723   -0.0647 C   0  0  0  0  0  0  0  0  0  0  0  0
    1.6876   -0.7584   -0.0517 C   0  0  0  0  0  0  0  0  0  0  0  0
    0.3969   -1.1574    0.2547 C   0  0  0  0  0  0  0  0  0  0  0  0
    2.7852   -1.6416   -0.4264 C   0  0  0  0  0  0  0  0  0  0  0  0
   -3.5230   -2.9663    1.3954 C   0  0  0  0  0  0  0  0  0  0  0  0
   -1.3148   -3.0150    0.3104 C   0  0  0  0  0  0  0  0  0  0  0  0
   -5.0940   -4.8183    1.3521 C   0  0  0  0  0  0  0  0  0  0  0  0
   -5.6828   -4.3207    2.5051 C   0  0  0  0  0  0  0  0  0  0  0  0
   -4.0342   -4.1100    0.7619 C   0  0  0  0  0  0  0  0  0  0  0  0
   -4.1985   -2.4413    2.5050 C   0  0  0  0  0  0  0  0  0  0  0  0
   -5.2937   -3.1090    3.0853 C   0  0  0  0  0  0  0  0  0  0  0  0
   -5.7729   -6.0279    1.0919 C   0  0  0  0  0  0  0  0  0  0  0  0
    2.2312   -2.8228    1.0312 H   0  0  0  0  0  0  0  0  0  0  0  0
    0.4892   -3.0947   -0.3818 H   0  0  0  0  0  0  0  0  0  0  0  0
   -2.0206   -1.5159    1.4717 H   0  0  0  0  0  0  0  0  0  0  0  0
   -7.2158   -5.2619    3.6767 H   0  0  0  0  0  0  0  0  0  0  0  0
    2.2531    3.4186    1.0980 H   0  0  0  0  0  0  0  0  0  0  0  0
    0.9680    4.6121    1.3101 H   0  0  0  0  0  0  0  0  0  0  0  0
    0.9916    3.1519    2.3088 H   0  0  0  0  0  0  0  0  0  0  0  0
   -0.0001    2.9232   -1.9134 H   0  0  0  0  0  0  0  0  0  0  0  0
    0.5528    4.4456   -1.1954 H   0  0  0  0  0  0  0  0  0  0  0  0
    1.6906    3.1217   -1.4462 H   0  0  0  0  0  0  0  0  0  0  0  0
   -1.8329    2.6515   -0.1700 H   0  0  0  0  0  0  0  0  0  0  0  0
   -1.4552    2.8782    1.5490 H   0  0  0  0  0  0  0  0  0  0  0  0
   -1.3379    4.2355    0.4275 H   0  0  0  0  0  0  0  0  0  0  0  0
    2.6771    1.2008   -0.3721 H   0  0  0  0  0  0  0  0  0  0  0  0
   -3.6028   -4.5033   -0.1513 H   0  0  0  0  0  0  0  0  0  0  0  0
   -3.8490   -1.5283    2.9817 H   0  0  0  0  0  0  0  0  0  0  0  0
   -5.7803   -2.7223    3.9749 H   0  0  0  0  0  0  0  0  0  0  0  0
   -5.6062   -6.7268    0.2820 H   0  0  0  0  0  0  0  0  0  0  0  0
  1 10  1  0  0  0  0
  1 16  1  0  0  0  0
  2 17  1  0  0  0  0
  2 26  1  0  0  0  0
  3 17  2  0  0  0  0
  4 19  2  0  0  0  0
  5 16  1  0  0  0  0
  5 19  1  0  0  0  0
  5 27  1  0  0  0  0
  6 18  1  0  0  0  0
  6 19  1  0  0  0  0
  6 28  1  0  0  0  0
  7  8  1  0  0  0  0
  7 21  1  0  0  0  0
  7 29  1  0  0  0  0
  8 25  2  0  0  0  0
  9 10  1  0  0  0  0
  9 11  1  0  0  0  0
  9 12  1  0  0  0  0
  9 13  1  0  0  0  0
 10 14  2  0  0  0  0
 11 30  1  0  0  0  0
 11 31  1  0  0  0  0
 11 32  1  0  0  0  0
 12 33  1  0  0  0  0
 12 34  1  0  0  0  0
 12 35  1  0  0  0  0
 13 36  1  0  0  0  0
 13 37  1  0  0  0  0
 13 38  1  0  0  0  0
 14 15  1  0  0  0  0
 14 39  1  0  0  0  0
 15 16  2  0  0  0  0
 15 17  1  0  0  0  0
 18 22  2  0  0  0  0
 18 23  1  0  0  0  0
 20 21  2  0  0  0  0
 20 22  1  0  0  0  0
 20 25  1  0  0  0  0
 21 24  1  0  0  0  0
 22 40  1  0  0  0  0
 23 24  2  0  0  0  0
 23 41  1  0  0  0  0
 24 42  1  0  0  0  0
 25 43  1  0  0  0  0
M  END
>  <Mol_ID>
5376

>  <Formula>
C17H18N4O3S

>  <MolWeight>
358.41482

>  <Cat>
S0385

>  <Name>
S6K-18

>  <Synonyms>
N/A

>  <Target>
S6 Kinase

>  <Form>
Free Base

>  <CAS>
1265789-88-5

>  <URL>
https://www.selleckchem.com/products/s6k-18.html

$$$$
