S7668-Picropodophyllin (PPP).cdx
 OpenBabel08302519583D

 52 56  0  0  0  0  0  0  0  0999 V2000
    2.3989   -0.6441    0.1027 C   0  0  0  0  0  0  0  0  0  0  0  0
    2.3127    0.7220    0.1321 C   0  0  0  0  0  0  0  0  0  0  0  0
    1.1020    1.3685    0.0516 C   0  0  0  0  0  0  0  0  0  0  0  0
   -0.0678    0.6012   -0.1503 C   0  0  0  0  0  0  0  0  0  0  0  0
    0.0199   -0.8133   -0.1483 C   0  0  0  0  0  0  0  0  0  0  0  0
    1.2787   -1.4372   -0.0002 C   0  0  0  0  0  0  0  0  0  0  0  0
    3.6876   -1.0794    0.1483 O   0  0  0  0  0  0  0  0  0  0  0  0
    4.3894    0.1775    0.0231 C   0  0  0  0  0  0  0  0  0  0  0  0
    3.5304    1.3207    0.2059 O   0  0  0  0  0  0  0  0  0  0  0  0
   -1.4045    1.3227   -0.3358 C   0  0  2  0  0  0  0  0  0  0  0  0
   -2.5411    0.4242   -0.8597 C   0  0  1  0  0  0  0  0  0  0  0  0
   -2.5299   -0.9909   -0.3086 C   0  0  1  0  0  0  0  0  0  0  0  0
   -1.1846   -1.6875   -0.4002 C   0  0  1  0  0  0  0  0  0  0  0  0
   -3.8334    0.9083   -0.2536 C   0  0  0  0  0  0  0  0  0  0  0  0
   -4.0687    0.2340    0.9188 O   0  0  0  0  0  0  0  0  0  0  0  0
   -3.0839   -0.7926    1.0824 C   0  0  0  0  0  0  0  0  0  0  0  0
   -1.2634    2.5699   -1.2059 C   0  0  0  0  0  0  0  0  0  0  0  0
   -1.0876   -2.2100   -1.7293 O   0  0  0  0  0  0  0  0  0  0  0  0
   -0.8002    2.4960   -2.5261 C   0  0  0  0  0  0  0  0  0  0  0  0
   -0.5418    3.6559   -3.2727 C   0  0  0  0  0  0  0  0  0  0  0  0
   -0.7606    4.9292   -2.6926 C   0  0  0  0  0  0  0  0  0  0  0  0
   -1.2496    5.0043   -1.3693 C   0  0  0  0  0  0  0  0  0  0  0  0
   -1.5028    3.8296   -0.6501 C   0  0  0  0  0  0  0  0  0  0  0  0
   -1.5118    6.1191   -0.6094 O   0  0  0  0  0  0  0  0  0  0  0  0
   -1.2770    7.4038   -1.1636 C   0  0  0  0  0  0  0  0  0  0  0  0
   -0.5243    6.1318   -3.3036 O   0  0  0  0  0  0  0  0  0  0  0  0
   -0.0123    6.2032   -4.6207 C   0  0  0  0  0  0  0  0  0  0  0  0
   -0.0540    3.6078   -4.5511 O   0  0  0  0  0  0  0  0  0  0  0  0
    0.2032    2.3518   -5.1593 C   0  0  0  0  0  0  0  0  0  0  0  0
   -4.5453    1.7906   -0.6893 O   0  0  0  0  0  0  0  0  0  0  0  0
    1.0774    2.4517    0.0885 H   0  0  0  0  0  0  0  0  0  0  0  0
    1.3809   -2.5183   -0.0152 H   0  0  0  0  0  0  0  0  0  0  0  0
    5.1973    0.2147    0.7607 H   0  0  0  0  0  0  0  0  0  0  0  0
    4.8269    0.2309   -0.9824 H   0  0  0  0  0  0  0  0  0  0  0  0
   -1.6662    1.6597    0.6792 H   0  0  0  0  0  0  0  0  0  0  0  0
   -2.6189    0.3954   -1.9514 H   0  0  0  0  0  0  0  0  0  0  0  0
   -3.2726   -1.5757   -0.8744 H   0  0  0  0  0  0  0  0  0  0  0  0
   -1.1686   -2.5415    0.2876 H   0  0  0  0  0  0  0  0  0  0  0  0
   -2.3408   -0.4650    1.8169 H   0  0  0  0  0  0  0  0  0  0  0  0
   -3.5753   -1.6954    1.4561 H   0  0  0  0  0  0  0  0  0  0  0  0
   -0.1624   -2.1529   -2.0245 H   0  0  0  0  0  0  0  0  0  0  0  0
   -0.6061    1.5119   -2.9425 H   0  0  0  0  0  0  0  0  0  0  0  0
   -1.8608    3.9174    0.3758 H   0  0  0  0  0  0  0  0  0  0  0  0
   -0.2126    7.5555   -1.3717 H   0  0  0  0  0  0  0  0  0  0  0  0
   -1.9035    7.5769   -2.0440 H   0  0  0  0  0  0  0  0  0  0  0  0
   -1.5665    8.1490   -0.4166 H   0  0  0  0  0  0  0  0  0  0  0  0
    0.9979    5.7866   -4.6752 H   0  0  0  0  0  0  0  0  0  0  0  0
   -0.6973    5.7458   -5.3398 H   0  0  0  0  0  0  0  0  0  0  0  0
    0.0629    7.2626   -4.8833 H   0  0  0  0  0  0  0  0  0  0  0  0
    0.9878    1.8074   -4.6244 H   0  0  0  0  0  0  0  0  0  0  0  0
   -0.7115    1.7585   -5.2472 H   0  0  0  0  0  0  0  0  0  0  0  0
    0.5694    2.5496   -6.1722 H   0  0  0  0  0  0  0  0  0  0  0  0
  1  2  1  0  0  0  0
  1  7  1  0  0  0  0
  2  3  2  0  0  0  0
  3  4  1  0  0  0  0
  3 31  1  0  0  0  0
  4  5  2  0  0  0  0
  4 10  1  0  0  0  0
  5  6  1  0  0  0  0
  6  1  2  0  0  0  0
  6 32  1  0  0  0  0
  7  8  1  0  0  0  0
  8  9  1  0  0  0  0
  8 33  1  0  0  0  0
  8 34  1  0  0  0  0
  9  2  1  0  0  0  0
 10 11  1  0  0  0  0
 10 35  1  1  0  0  0
 10 17  1  0  0  0  0
 11 12  1  0  0  0  0
 11 14  1  0  0  0  0
 11 36  1  6  0  0  0
 12 13  1  0  0  0  0
 12 16  1  0  0  0  0
 12 37  1  6  0  0  0
 13  5  1  0  0  0  0
 13 38  1  1  0  0  0
 13 18  1  0  0  0  0
 14 15  1  0  0  0  0
 14 30  2  0  0  0  0
 15 16  1  0  0  0  0
 16 39  1  0  0  0  0
 16 40  1  0  0  0  0
 17 19  2  0  0  0  0
 18 41  1  0  0  0  0
 19 20  1  0  0  0  0
 19 42  1  0  0  0  0
 20 21  2  0  0  0  0
 20 28  1  0  0  0  0
 21 22  1  0  0  0  0
 21 26  1  0  0  0  0
 22 23  2  0  0  0  0
 22 24  1  0  0  0  0
 23 17  1  0  0  0  0
 23 43  1  0  0  0  0
 24 25  1  0  0  0  0
 25 44  1  0  0  0  0
 25 45  1  0  0  0  0
 25 46  1  0  0  0  0
 26 27  1  0  0  0  0
 27 47  1  0  0  0  0
 27 48  1  0  0  0  0
 27 49  1  0  0  0  0
 28 29  1  0  0  0  0
 29 50  1  0  0  0  0
 29 51  1  0  0  0  0
 29 52  1  0  0  0  0
M  END
>  <Mol_ID>
2511

>  <Formula>
C22H22O8

>  <MolWeight>
414.40528

>  <Cat>
S7668

>  <Name>
Picropodophyllin (PPP)

>  <Synonyms>
AXL1717

>  <Target>
Apoptosis related,IGF-1R

>  <Form>
free base

>  <CAS>
477-47-4

>  <URL>
http://selleckchem.com/products/picropodophyllin-ppp.html

$$$$
