S8275-eFT-508.cdx
 OpenBabel08302520433D

 45 48  0  0  0  0  0  0  0  0999 V2000
    3.4601    0.5159    0.0077 C   0  0  0  0  0  0  0  0  0  0  0  0
    2.7495    1.6546   -0.0890 C   0  0  0  0  0  0  0  0  0  0  0  0
    1.2290    1.5375   -0.1110 C   0  0  0  0  0  0  0  0  0  0  0  0
    0.7191    0.2572   -0.0233 N   0  0  0  0  0  0  0  0  0  0  0  0
    1.5155   -0.8723    0.0550 C   0  0  0  0  0  0  0  0  0  0  0  0
    2.8530   -0.8003    0.0667 C   0  0  0  0  0  0  0  0  0  0  0  0
   -0.7056   -0.1239   -0.0101 C   0  0  0  0  0  0  0  0  0  0  0  0
   -0.6432   -1.5766    0.0428 N   0  0  0  0  0  0  0  0  0  0  0  0
    0.6380   -2.0709    0.0971 C   0  0  0  0  0  0  0  0  0  0  0  0
   -1.4312    0.3988    1.2476 C   0  0  0  0  0  0  0  0  0  0  0  0
   -2.9208    0.0398    1.2566 C   0  0  0  0  0  0  0  0  0  0  0  0
   -3.6181    0.5025   -0.0183 C   0  0  0  0  0  0  0  0  0  0  0  0
   -2.9325   -0.0478   -1.2648 C   0  0  0  0  0  0  0  0  0  0  0  0
   -1.4425    0.3076   -1.2947 C   0  0  0  0  0  0  0  0  0  0  0  0
    3.2838    2.9254   -0.2508 N   0  0  0  0  0  0  0  0  0  0  0  0
    4.4672    3.3931    0.3631 C   0  0  0  0  0  0  0  0  0  0  0  0
    4.9395    2.8043    1.4738 N   0  0  0  0  0  0  0  0  0  0  0  0
    6.0804    3.2967    1.9782 C   0  0  0  0  0  0  0  0  0  0  0  0
    6.8002    4.3049    1.4703 N   0  0  0  0  0  0  0  0  0  0  0  0
    6.3135    4.8614    0.3598 C   0  0  0  0  0  0  0  0  0  0  0  0
    5.1405    4.4442   -0.2325 C   0  0  0  0  0  0  0  0  0  0  0  0
    7.0921    5.8524   -0.2336 N   0  0  0  0  0  0  0  0  0  0  0  0
    0.5443    2.5568   -0.2054 O   0  0  0  0  0  0  0  0  0  0  0  0
    0.9483   -3.2428    0.1617 O   0  0  0  0  0  0  0  0  0  0  0  0
    3.8122   -1.9508    0.1008 C   0  0  0  0  0  0  0  0  0  0  0  0
    4.5459    0.5622    0.0089 H   0  0  0  0  0  0  0  0  0  0  0  0
   -1.4375   -2.1997    0.0647 H   0  0  0  0  0  0  0  0  0  0  0  0
   -1.3381    1.4896    1.3113 H   0  0  0  0  0  0  0  0  0  0  0  0
   -0.9639   -0.0049    2.1553 H   0  0  0  0  0  0  0  0  0  0  0  0
   -3.4043    0.4981    2.1270 H   0  0  0  0  0  0  0  0  0  0  0  0
   -3.0441   -1.0446    1.3673 H   0  0  0  0  0  0  0  0  0  0  0  0
   -4.6667    0.1835   -0.0024 H   0  0  0  0  0  0  0  0  0  0  0  0
   -3.6189    1.5987   -0.0559 H   0  0  0  0  0  0  0  0  0  0  0  0
   -3.0583   -1.1369   -1.3006 H   0  0  0  0  0  0  0  0  0  0  0  0
   -3.4230    0.3521   -2.1596 H   0  0  0  0  0  0  0  0  0  0  0  0
   -1.3545    1.3910   -1.4370 H   0  0  0  0  0  0  0  0  0  0  0  0
   -0.9818   -0.1582   -2.1752 H   0  0  0  0  0  0  0  0  0  0  0  0
    2.5646    3.6426   -0.3233 H   0  0  0  0  0  0  0  0  0  0  0  0
    6.4587    2.8316    2.8819 H   0  0  0  0  0  0  0  0  0  0  0  0
    4.7940    4.8831   -1.1574 H   0  0  0  0  0  0  0  0  0  0  0  0
    6.5632    6.6864   -0.4584 H   0  0  0  0  0  0  0  0  0  0  0  0
    7.8761    6.0471    0.3843 H   0  0  0  0  0  0  0  0  0  0  0  0
    4.4547   -1.9282   -0.7871 H   0  0  0  0  0  0  0  0  0  0  0  0
    4.4522   -1.8876    0.9874 H   0  0  0  0  0  0  0  0  0  0  0  0
    3.3236   -2.9259    0.1182 H   0  0  0  0  0  0  0  0  0  0  0  0
  1  2  2  0  0  0  0
  1 26  1  0  0  0  0
  2  3  1  0  0  0  0
  2 15  1  0  0  0  0
  3  4  1  0  0  0  0
  3 23  2  0  0  0  0
  4  5  1  0  0  0  0
  4  7  1  0  0  0  0
  5  6  2  0  0  0  0
  6  1  1  0  0  0  0
  6 25  1  0  0  0  0
  7  8  1  0  0  0  0
  7 10  1  0  0  0  0
  8  9  1  0  0  0  0
  8 27  1  0  0  0  0
  9  5  1  0  0  0  0
  9 24  2  0  0  0  0
 10 11  1  0  0  0  0
 10 28  1  0  0  0  0
 10 29  1  0  0  0  0
 11 12  1  0  0  0  0
 11 30  1  0  0  0  0
 11 31  1  0  0  0  0
 12 13  1  0  0  0  0
 12 32  1  0  0  0  0
 12 33  1  0  0  0  0
 13 14  1  0  0  0  0
 13 34  1  0  0  0  0
 13 35  1  0  0  0  0
 14  7  1  0  0  0  0
 14 36  1  0  0  0  0
 14 37  1  0  0  0  0
 15 16  1  0  0  0  0
 15 38  1  0  0  0  0
 16 17  2  0  0  0  0
 17 18  1  0  0  0  0
 18 19  2  0  0  0  0
 18 39  1  0  0  0  0
 19 20  1  0  0  0  0
 20 21  2  0  0  0  0
 20 22  1  0  0  0  0
 21 16  1  0  0  0  0
 21 40  1  0  0  0  0
 22 41  1  0  0  0  0
 22 42  1  0  0  0  0
 25 43  1  0  0  0  0
 25 44  1  0  0  0  0
 25 45  1  0  0  0  0
M  END
>  <Mol_ID>
4105

>  <Formula>
C17H20N6O2

>  <MolWeight>
340.3797

>  <Cat>
S8275

>  <Name>
Tomivosertib (eFT-508)

>  <Synonyms>
N/A

>  <Target>
eIF,MNK,PD-1/PD-L1

>  <Form>
free base

>  <CAS>
1849590-01-7

>  <URL>
http://selleckchem.com/products/eft-508.html

$$$$
