S8291 Atractylenolide I.cdx
 OpenBabel08302520433D

 35 37  0  0  0  0  0  0  0  0999 V2000
    2.8293    6.1795    2.7544 C   0  0  0  0  0  0  0  0  0  0  0  0
    3.2895    5.6308    3.9824 C   0  0  0  0  0  0  0  0  0  0  0  0
    2.5844    7.7701    4.2224 C   0  0  0  0  0  0  0  0  0  0  0  0
    3.2704    6.6053    4.8945 C   0  0  0  0  0  0  0  0  0  0  0  0
    2.4278    7.4843    2.8954 O   0  0  0  0  0  0  0  0  0  0  0  0
    3.0031    4.0174    1.5346 C   0  0  2  0  0  0  0  0  0  0  0  0
    2.7616    5.5112    1.5970 C   0  0  0  0  0  0  0  0  0  0  0  0
    3.8959    3.4768    2.6981 C   0  0  1  0  0  0  0  0  0  0  0  0
    3.7872    4.2127    4.0670 C   0  0  0  0  0  0  0  0  0  0  0  0
    3.7562    1.9476    2.6232 C   0  0  0  0  0  0  0  0  0  0  0  0
    2.2702    8.7880    4.8048 O   0  0  0  0  0  0  0  0  0  0  0  0
    2.9819    1.1745    3.4004 C   0  0  0  0  0  0  0  0  0  0  0  0
    3.6879    3.6018    0.1912 C   0  0  0  0  0  0  0  0  0  0  0  0
    3.7457    6.6844    6.2842 C   0  0  0  0  0  0  0  0  0  0  0  0
    1.5557    3.4360    1.6057 C   0  0  0  0  0  0  0  0  0  0  0  0
    4.2300    1.3357    1.3140 C   0  0  0  0  0  0  0  0  0  0  0  0
    4.6539    2.3956    0.2956 C   0  0  0  0  0  0  0  0  0  0  0  0
    2.3823    6.0103    0.7186 H   0  0  0  0  0  0  0  0  0  0  0  0
    4.9443    3.6956    2.4237 H   0  0  0  0  0  0  0  0  0  0  0  0
    4.7999    4.2582    4.4854 H   0  0  0  0  0  0  0  0  0  0  0  0
    3.1956    3.6502    4.7801 H   0  0  0  0  0  0  0  0  0  0  0  0
    2.8967    0.1056    3.2116 H   0  0  0  0  0  0  0  0  0  0  0  0
    2.3046    1.5914    4.1438 H   0  0  0  0  0  0  0  0  0  0  0  0
    2.9228    3.3815   -0.5642 H   0  0  0  0  0  0  0  0  0  0  0  0
    4.2721    4.4417   -0.2053 H   0  0  0  0  0  0  0  0  0  0  0  0
    3.8187    5.7016    6.7427 H   0  0  0  0  0  0  0  0  0  0  0  0
    4.7316    7.1554    6.3114 H   0  0  0  0  0  0  0  0  0  0  0  0
    3.0735    7.3023    6.9108 H   0  0  0  0  0  0  0  0  0  0  0  0
    1.1998    3.3967    2.6430 H   0  0  0  0  0  0  0  0  0  0  0  0
    0.8343    4.0542    1.0516 H   0  0  0  0  0  0  0  0  0  0  0  0
    1.4880    2.4305    1.1842 H   0  0  0  0  0  0  0  0  0  0  0  0
    5.0375    0.6142    1.4837 H   0  0  0  0  0  0  0  0  0  0  0  0
    3.3891    0.7827    0.8693 H   0  0  0  0  0  0  0  0  0  0  0  0
    4.7787    1.9351   -0.6897 H   0  0  0  0  0  0  0  0  0  0  0  0
    5.6538    2.7609    0.5752 H   0  0  0  0  0  0  0  0  0  0  0  0
  2  1  1  0  0  0  0
  3  5  1  0  0  0  0
  3  4  1  0  0  0  0
  4  2  2  0  0  0  0
  5  1  1  0  0  0  0
  6  7  1  0  0  0  0
  6 15  1  1  0  0  0
  7  1  2  0  0  0  0
  7 18  1  0  0  0  0
  8  6  1  0  0  0  0
  8  9  1  0  0  0  0
  8 19  1  6  0  0  0
  9  2  1  0  0  0  0
  9 20  1  0  0  0  0
  9 21  1  0  0  0  0
 10  8  1  0  0  0  0
 11  3  2  0  0  0  0
 12 22  1  0  0  0  0
 12 23  1  0  0  0  0
 12 10  2  0  0  0  0
 13  6  1  0  0  0  0
 13 24  1  0  0  0  0
 13 25  1  0  0  0  0
 14 26  1  0  0  0  0
 14 27  1  0  0  0  0
 14 28  1  0  0  0  0
 14  4  1  0  0  0  0
 15 29  1  0  0  0  0
 15 30  1  0  0  0  0
 15 31  1  0  0  0  0
 16 10  1  0  0  0  0
 16 17  1  0  0  0  0
 16 32  1  0  0  0  0
 16 33  1  0  0  0  0
 17 13  1  0  0  0  0
 17 34  1  0  0  0  0
 17 35  1  0  0  0  0
M  END
>  <Mol_ID>
4111

>  <Formula>
C15H18O2

>  <MolWeight>
230.30222

>  <Cat>
S8291

>  <Name>
Atractylenolide I

>  <Synonyms>
N/A

>  <Target>
Immunology & Inflammation related

>  <Form>
free base

>  <CAS>
73069-13-3

>  <URL>
http://selleckchem.com/products/atractylenolide-i.html

$$$$
