S9001 Malic acid.cdx
 OpenBabel08302521043D

 15 14  0  0  0  0  0  0  0  0999 V2000
    1.0138    0.2758    0.0097 C   0  0  0  0  0  0  0  0  0  0  0  0
    0.3049   -0.7876    0.8505 C   0  0  3  0  0  0  0  0  0  0  0  0
   -0.4891   -0.1944    1.8787 O   0  0  0  0  0  0  0  0  0  0  0  0
   -0.5440   -1.6977   -0.0281 C   0  0  0  0  0  0  0  0  0  0  0  0
   -1.5766   -0.9183   -0.7943 C   0  0  0  0  0  0  0  0  0  0  0  0
    2.0981    0.1126   -0.5279 O   0  0  0  0  0  0  0  0  0  0  0  0
    0.3097    1.4282   -0.0814 O   0  0  0  0  0  0  0  0  0  0  0  0
   -2.0047    0.1928   -0.5224 O   0  0  0  0  0  0  0  0  0  0  0  0
   -2.0232   -1.5811   -1.8758 O   0  0  0  0  0  0  0  0  0  0  0  0
    1.0779   -1.3805    1.3553 H   0  0  0  0  0  0  0  0  0  0  0  0
    0.1132    0.3116    2.4527 H   0  0  0  0  0  0  0  0  0  0  0  0
    0.1013   -2.2146   -0.7480 H   0  0  0  0  0  0  0  0  0  0  0  0
   -1.0720   -2.4380    0.5819 H   0  0  0  0  0  0  0  0  0  0  0  0
   -0.6091    1.3048    0.2681 H   0  0  0  0  0  0  0  0  0  0  0  0
   -2.6643   -0.9699   -2.2979 H   0  0  0  0  0  0  0  0  0  0  0  0
  1  2  1  0  0  0  0
  1  6  2  0  0  0  0
  1  7  1  0  0  0  0
  2  3  1  0  0  0  0
  2  4  1  0  0  0  0
  2 10  1  0  0  0  0
  3 11  1  0  0  0  0
  4  5  1  0  0  0  0
  4 12  1  0  0  0  0
  4 13  1  0  0  0  0
  5  8  2  0  0  0  0
  5  9  1  0  0  0  0
  7 14  1  0  0  0  0
  9 15  1  0  0  0  0
M  END
>  <Mol_ID>
4291

>  <Formula>
C4H6O5

>  <MolWeight>
134.08744

>  <Cat>
S9001

>  <Name>
Malic acid

>  <Synonyms>
Hydroxybutanedioic acid, 2-Hydroxysuccinic acid

>  <Target>
Others

>  <Form>
free base

>  <CAS>
6915-15-7

>  <URL>
https://www.selleckchem.com/products/malic-acid.html

$$$$
