S9003 (R)-(-)-Mandelic acid.cdx
 OpenBabel08302521043D

 19 19  0  0  0  0  0  0  0  0999 V2000
    3.5306    0.0818   -0.9569 C   0  0  0  0  0  0  0  0  0  0  0  0
    2.7241   -0.4974    0.1835 C   0  0  2  0  0  0  0  0  0  0  0  0
    3.4066    1.4492   -1.2585 C   0  0  0  0  0  0  0  0  0  0  0  0
    4.3617   -0.7077   -1.7669 C   0  0  0  0  0  0  0  0  0  0  0  0
    3.3850   -1.6525    0.9538 C   0  0  0  0  0  0  0  0  0  0  0  0
    1.4538   -0.9698   -0.3051 O   0  0  0  0  0  0  0  0  0  0  0  0
    4.1298    2.0208   -2.3088 C   0  0  0  0  0  0  0  0  0  0  0  0
    5.0872   -0.1339   -2.8142 C   0  0  0  0  0  0  0  0  0  0  0  0
    2.4471   -2.5401    1.3953 O   0  0  0  0  0  0  0  0  0  0  0  0
    4.5744   -1.7869    1.1922 O   0  0  0  0  0  0  0  0  0  0  0  0
    4.9727    1.2275   -3.0834 C   0  0  0  0  0  0  0  0  0  0  0  0
    2.5147    0.2777    0.9304 H   0  0  0  0  0  0  0  0  0  0  0  0
    2.7524    2.0873   -0.6662 H   0  0  0  0  0  0  0  0  0  0  0  0
    4.4839   -1.7720   -1.5759 H   0  0  0  0  0  0  0  0  0  0  0  0
    1.5647   -1.1271   -1.2624 H   0  0  0  0  0  0  0  0  0  0  0  0
    4.0367    3.0818   -2.5192 H   0  0  0  0  0  0  0  0  0  0  0  0
    5.7489   -0.7519   -3.4164 H   0  0  0  0  0  0  0  0  0  0  0  0
    1.5678   -2.2481    1.0557 H   0  0  0  0  0  0  0  0  0  0  0  0
    5.5446    1.6722   -3.8932 H   0  0  0  0  0  0  0  0  0  0  0  0
  1  3  2  0  0  0  0
  1  4  1  0  0  0  0
  2  6  1  0  0  0  0
  2 12  1  1  0  0  0
  2  5  1  0  0  0  0
  2  1  1  0  0  0  0
  3  7  1  0  0  0  0
  3 13  1  0  0  0  0
  4  8  2  0  0  0  0
  4 14  1  0  0  0  0
  5  9  1  0  0  0  0
  5 10  2  0  0  0  0
  6 15  1  0  0  0  0
  7 11  2  0  0  0  0
  7 16  1  0  0  0  0
  8 11  1  0  0  0  0
  8 17  1  0  0  0  0
  9 18  1  0  0  0  0
 11 19  1  0  0  0  0
M  END
>  <Mol_ID>
4325

>  <Formula>
C8H8O3

>  <MolWeight>
152.14732

>  <Cat>
S9003

>  <Name>
(R)-(-)-Mandelic acid

>  <Synonyms>
(R)-a-Hydroxy-benzeneacetic acid; (R)-2-Hydroxy-2-phenylacetic acid; (R)-2-Phenylglycolic acid

>  <Target>
Others

>  <Form>
free base

>  <CAS>
611-71-2

>  <URL>
https://www.selleckchem.com/products/mandelic-acid.html

$$$$
