S9007 2'-Deoxyguanosine monohydrate.cdx
 OpenBabel08302521043D

 32 34  0  0  0  0  0  0  0  0999 V2000
    0.9923   -1.0823    0.0275 O   0  0  0  0  0  0  0  0  0  0  0  0
    0.4632   -0.4742    1.1990 C   0  0  0  0  0  0  0  0  0  0  0  0
   -1.0679   -0.5636    1.2450 C   0  0  2  0  0  0  0  0  0  0  0  0
   -1.6159   -1.9838    1.1723 C   0  0  1  0  0  0  0  0  0  0  0  0
   -2.8991   -2.0501    1.8109 O   0  0  0  0  0  0  0  0  0  0  0  0
   -1.7941   -2.2281   -0.3062 C   0  0  0  0  0  0  0  0  0  0  0  0
   -2.1608   -0.8458   -0.8267 C   0  0  1  0  0  0  0  0  0  0  0  0
   -1.6409    0.1317    0.1132 O   0  0  0  0  0  0  0  0  0  0  0  0
   -1.6993   -0.5539   -2.1700 N   0  0  0  0  0  0  0  0  0  0  0  0
   -0.8579    0.4638   -2.5475 C   0  0  0  0  0  0  0  0  0  0  0  0
   -0.6790    0.5103   -3.8527 N   0  0  0  0  0  0  0  0  0  0  0  0
   -1.4356   -0.5265   -4.3318 C   0  0  0  0  0  0  0  0  0  0  0  0
   -1.6326   -0.9918   -5.6859 C   0  0  0  0  0  0  0  0  0  0  0  0
   -1.1362   -0.5032   -6.6960 O   0  0  0  0  0  0  0  0  0  0  0  0
   -2.4674   -2.0979   -5.7439 N   0  0  0  0  0  0  0  0  0  0  0  0
   -3.0432   -2.7039   -4.6460 C   0  0  0  0  0  0  0  0  0  0  0  0
   -3.8051   -3.7951   -4.9078 N   0  0  0  0  0  0  0  0  0  0  0  0
   -2.8913   -2.2819   -3.4165 N   0  0  0  0  0  0  0  0  0  0  0  0
   -2.0775   -1.2019   -3.3166 C   0  0  0  0  0  0  0  0  0  0  0  0
    1.8978   -0.7433   -0.0924 H   0  0  0  0  0  0  0  0  0  0  0  0
    0.9009   -0.9740    2.0696 H   0  0  0  0  0  0  0  0  0  0  0  0
    0.7730    0.5760    1.2012 H   0  0  0  0  0  0  0  0  0  0  0  0
   -1.4176   -0.0490    2.1472 H   0  0  0  0  0  0  0  0  0  0  0  0
   -0.9767   -2.7257    1.6581 H   0  0  0  0  0  0  0  0  0  0  0  0
   -3.3885   -1.2304    1.6158 H   0  0  0  0  0  0  0  0  0  0  0  0
   -0.8615   -2.5861   -0.7549 H   0  0  0  0  0  0  0  0  0  0  0  0
   -2.5760   -2.9600   -0.5331 H   0  0  0  0  0  0  0  0  0  0  0  0
   -3.2494   -0.7107   -0.8357 H   0  0  0  0  0  0  0  0  0  0  0  0
   -0.4105    1.1400   -1.8310 H   0  0  0  0  0  0  0  0  0  0  0  0
   -2.5970   -2.4819   -6.6638 H   0  0  0  0  0  0  0  0  0  0  0  0
   -4.3896   -4.0753   -4.1273 H   0  0  0  0  0  0  0  0  0  0  0  0
   -4.2685   -3.8503   -5.8047 H   0  0  0  0  0  0  0  0  0  0  0  0
  1  2  1  0  0  0  0
  1 20  1  0  0  0  0
  2 21  1  0  0  0  0
  2 22  1  0  0  0  0
  3  2  1  0  0  0  0
  3  4  1  0  0  0  0
  3  8  1  0  0  0  0
  3 23  1  1  0  0  0
  4  5  1  0  0  0  0
  4  6  1  0  0  0  0
  4 24  1  1  0  0  0
  5 25  1  0  0  0  0
  6 26  1  0  0  0  0
  6 27  1  0  0  0  0
  7  6  1  0  0  0  0
  7  8  1  0  0  0  0
  7 28  1  1  0  0  0
  7  9  1  0  0  0  0
  9 10  1  0  0  0  0
  9 19  1  0  0  0  0
 10 11  2  0  0  0  0
 10 29  1  0  0  0  0
 11 12  1  0  0  0  0
 12 13  1  0  0  0  0
 12 19  2  0  0  0  0
 13 14  2  0  0  0  0
 13 15  1  0  0  0  0
 15 16  1  0  0  0  0
 15 30  1  0  0  0  0
 16 17  1  0  0  0  0
 16 18  2  0  0  0  0
 17 31  1  0  0  0  0
 17 32  1  0  0  0  0
 18 19  1  0  0  0  0
M  END
>  <Mol_ID>
4327

>  <Formula>
C10H13N5O4

>  <MolWeight>
267.24132

>  <Cat>
S9007

>  <Name>
2'-Deoxyguanosine monohydrate

>  <Synonyms>
2'-Deoxy-D-guanosine

>  <Target>
Others

>  <Form>
free base

>  <CAS>
961-07-9

>  <URL>
https://www.selleckchem.com/products/2-deoxyguanosine-monohydrate.html

$$$$
