S9002 L-Fucose.cdx
 OpenBabel08302521043D

 23 22  0  0  0  0  0  0  0  0999 V2000
    1.3822   -1.8983    2.1493 C   0  0  2  0  0  0  0  0  0  0  0  0
    0.4275   -2.6579    1.1944 C   0  0  1  0  0  0  0  0  0  0  0  0
    1.5501   -0.4000    1.8440 C   0  0  1  0  0  0  0  0  0  0  0  0
    2.6555   -2.5804    2.1261 O   0  0  0  0  0  0  0  0  0  0  0  0
    0.8048   -2.5313   -0.2976 C   0  0  2  0  0  0  0  0  0  0  0  0
    0.4620   -4.0516    1.5523 O   0  0  0  0  0  0  0  0  0  0  0  0
    0.2069    0.3043    1.9330 C   0  0  0  0  0  0  0  0  0  0  0  0
    2.4536    0.2000    2.7749 O   0  0  0  0  0  0  0  0  0  0  0  0
   -0.1153   -3.3345   -1.2092 C   0  0  0  0  0  0  0  0  0  0  0  0
    2.1519   -2.9693   -0.4959 O   0  0  0  0  0  0  0  0  0  0  0  0
   -0.1957    0.8576    2.9530 O   0  0  0  0  0  0  0  0  0  0  0  0
    1.0207   -2.0263    3.1783 H   0  0  0  0  0  0  0  0  0  0  0  0
   -0.6018   -2.3122    1.3395 H   0  0  0  0  0  0  0  0  0  0  0  0
    1.9803   -0.2297    0.8533 H   0  0  0  0  0  0  0  0  0  0  0  0
    3.0464   -2.4189    1.2425 H   0  0  0  0  0  0  0  0  0  0  0  0
    0.7587   -1.4819   -0.6042 H   0  0  0  0  0  0  0  0  0  0  0  0
    1.3471   -4.2056    1.9454 H   0  0  0  0  0  0  0  0  0  0  0  0
   -0.4216    0.2550    1.0278 H   0  0  0  0  0  0  0  0  0  0  0  0
    1.9639    0.3194    3.6121 H   0  0  0  0  0  0  0  0  0  0  0  0
   -1.1626   -3.0574   -1.0570 H   0  0  0  0  0  0  0  0  0  0  0  0
    0.1436   -3.1502   -2.2576 H   0  0  0  0  0  0  0  0  0  0  0  0
   -0.0057   -4.4119   -1.0470 H   0  0  0  0  0  0  0  0  0  0  0  0
    2.1481   -3.9369   -0.3518 H   0  0  0  0  0  0  0  0  0  0  0  0
  1  2  1  0  0  0  0
  1  3  1  0  0  0  0
  1  4  1  0  0  0  0
  1 12  1  1  0  0  0
  2  6  1  0  0  0  0
  2 13  1  1  0  0  0
  3  7  1  0  0  0  0
  3  8  1  0  0  0  0
  3 14  1  6  0  0  0
  4 15  1  0  0  0  0
  5 10  1  0  0  0  0
  5 16  1  6  0  0  0
  5  9  1  0  0  0  0
  5  2  1  0  0  0  0
  6 17  1  0  0  0  0
  7 11  2  0  0  0  0
  7 18  1  0  0  0  0
  8 19  1  0  0  0  0
  9 20  1  0  0  0  0
  9 21  1  0  0  0  0
  9 22  1  0  0  0  0
 10 23  1  0  0  0  0
M  END
>  <Mol_ID>
4324

>  <Formula>
C6H12O5

>  <MolWeight>
164.15648

>  <Cat>
S9002

>  <Name>
L-Fucose

>  <Synonyms>
6-Deoxy-L-Galactose, L-fucopyranose

>  <Target>
Others

>  <Form>
free base

>  <CAS>
2438-80-4

>  <URL>
https://www.selleckchem.com/products/l-fucose.html

$$$$
