S9006 Perillartine.cdx
 OpenBabel08302521043D

 27 27  0  0  0  0  0  0  0  0999 V2000
   -0.3095    1.3988    0.2375 C   0  0  3  0  0  0  0  0  0  0  0  0
   -1.3361    0.3978   -0.3208 C   0  0  0  0  0  0  0  0  0  0  0  0
    1.1343    0.9838   -0.1211 C   0  0  0  0  0  0  0  0  0  0  0  0
   -0.6110    2.8254   -0.2068 C   0  0  0  0  0  0  0  0  0  0  0  0
   -1.0566   -1.0334    0.1504 C   0  0  0  0  0  0  0  0  0  0  0  0
    1.3844   -0.4953   -0.0324 C   0  0  0  0  0  0  0  0  0  0  0  0
   -0.6143    3.1413   -1.6793 C   0  0  0  0  0  0  0  0  0  0  0  0
   -0.8726    3.7994    0.6806 C   0  0  0  0  0  0  0  0  0  0  0  0
    0.3985   -1.3969    0.0975 C   0  0  0  0  0  0  0  0  0  0  0  0
    0.7720   -2.8335    0.1632 C   0  0  0  0  0  0  0  0  0  0  0  0
   -0.0972   -3.7867    0.2664 N   0  0  0  0  0  0  0  0  0  0  0  0
    0.5743   -5.0149    0.2928 O   0  0  0  0  0  0  0  0  0  0  0  0
   -0.3909    1.3520    1.3344 H   0  0  0  0  0  0  0  0  0  0  0  0
   -2.3506    0.6835   -0.0159 H   0  0  0  0  0  0  0  0  0  0  0  0
   -1.3251    0.4101   -1.4178 H   0  0  0  0  0  0  0  0  0  0  0  0
    1.3988    1.2996   -1.1372 H   0  0  0  0  0  0  0  0  0  0  0  0
    1.8285    1.4997    0.5543 H   0  0  0  0  0  0  0  0  0  0  0  0
   -1.4111   -1.1542    1.1816 H   0  0  0  0  0  0  0  0  0  0  0  0
   -1.6450   -1.7153   -0.4752 H   0  0  0  0  0  0  0  0  0  0  0  0
    2.4253   -0.8062   -0.0897 H   0  0  0  0  0  0  0  0  0  0  0  0
   -1.6050    3.4841   -1.9949 H   0  0  0  0  0  0  0  0  0  0  0  0
    0.1220    3.9182   -1.9064 H   0  0  0  0  0  0  0  0  0  0  0  0
   -0.3620    2.2698   -2.2913 H   0  0  0  0  0  0  0  0  0  0  0  0
   -0.8805    3.6145    1.7502 H   0  0  0  0  0  0  0  0  0  0  0  0
   -1.0879    4.8135    0.3571 H   0  0  0  0  0  0  0  0  0  0  0  0
    1.8536   -3.0573    0.1148 H   0  0  0  0  0  0  0  0  0  0  0  0
   -0.1612   -5.6520    0.3595 H   0  0  0  0  0  0  0  0  0  0  0  0
  1  2  1  0  0  0  0
  1  3  1  0  0  0  0
  1  4  1  0  0  0  0
  1 13  1  0  0  0  0
  2  5  1  0  0  0  0
  2 14  1  0  0  0  0
  2 15  1  0  0  0  0
  3  6  1  0  0  0  0
  3 16  1  0  0  0  0
  3 17  1  0  0  0  0
  4  7  1  0  0  0  0
  4  8  2  0  0  0  0
  5  9  1  0  0  0  0
  5 18  1  0  0  0  0
  5 19  1  0  0  0  0
  6  9  2  0  0  0  0
  6 20  1  0  0  0  0
  7 21  1  0  0  0  0
  7 22  1  0  0  0  0
  7 23  1  0  0  0  0
  8 24  1  0  0  0  0
  8 25  1  0  0  0  0
  9 10  1  0  0  0  0
 10 11  2  0  0  0  0
 10 26  1  0  0  0  0
 11 12  1  0  0  0  0
 12 27  1  0  0  0  0
M  END
>  <Mol_ID>
4326

>  <Formula>
C10H15NO

>  <MolWeight>
165.2322

>  <Cat>
S9006

>  <Name>
Perillartine

>  <Synonyms>
Perilla sugar, Peryllartine

>  <Target>
Taste Receptor

>  <Form>
free base

>  <CAS>
30950-27-7

>  <URL>
https://www.selleckchem.com/products/perillartine.html

$$$$
