S9013 Paulownin.cdx
 OpenBabel08302521213D

 45 50  0  0  0  0  0  0  0  0999 V2000
   -2.0238    0.0216    0.0075 O   0  0  0  0  0  0  0  0  0  0  0  0
    1.8716   -0.4716    1.0017 O   0  0  0  0  0  0  0  0  0  0  0  0
    0.7309    2.2472   -0.6904 O   0  0  0  0  0  0  0  0  0  0  0  0
   -4.4483    2.2060   -4.1478 O   0  0  0  0  0  0  0  0  0  0  0  0
    2.0154   -4.2377   -3.9275 O   0  0  0  0  0  0  0  0  0  0  0  0
   -2.6519    2.3780   -5.7580 O   0  0  0  0  0  0  0  0  0  0  0  0
    4.3691   -3.7424   -4.0908 O   0  0  0  0  0  0  0  0  0  0  0  0
    0.2215    1.0172   -0.1252 C   0  0  2  0  0  0  0  0  0  0  0  0
    0.2216   -0.4232   -0.6685 C   0  0  1  0  0  0  0  0  0  0  0  0
   -1.3311    1.2271   -0.2920 C   0  0  1  0  0  0  0  0  0  0  0  0
    1.3206   -1.2571   -0.0451 C   0  0  1  0  0  0  0  0  0  0  0  0
    1.3411    0.8535    0.9146 C   0  0  0  0  0  0  0  0  0  0  0  0
   -1.0866   -1.0278   -0.1223 C   0  0  0  0  0  0  0  0  0  0  0  0
   -1.6867    1.5506   -1.7993 C   0  0  0  0  0  0  0  0  0  0  0  0
    2.2234   -1.8575   -1.1067 C   0  0  0  0  0  0  0  0  0  0  0  0
   -3.0142    1.7417   -2.2227 C   0  0  0  0  0  0  0  0  0  0  0  0
    1.6391   -2.7710   -2.0212 C   0  0  0  0  0  0  0  0  0  0  0  0
   -0.6726    1.6649   -2.8150 C   0  0  0  0  0  0  0  0  0  0  0  0
    3.5943   -1.5783   -1.2069 C   0  0  0  0  0  0  0  0  0  0  0  0
   -3.2366    2.0015   -3.5843 C   0  0  0  0  0  0  0  0  0  0  0  0
    2.4300   -3.3490   -2.9875 C   0  0  0  0  0  0  0  0  0  0  0  0
   -0.9116    1.9633   -4.1507 C   0  0  0  0  0  0  0  0  0  0  0  0
    4.3769   -2.1897   -2.2004 C   0  0  0  0  0  0  0  0  0  0  0  0
   -2.2245    2.1126   -4.5016 C   0  0  0  0  0  0  0  0  0  0  0  0
    3.7686   -3.0655   -3.0759 C   0  0  0  0  0  0  0  0  0  0  0  0
   -4.0671    2.4675   -5.5293 C   0  0  0  0  0  0  0  0  0  0  0  0
    3.2508   -4.4785   -4.6325 C   0  0  0  0  0  0  0  0  0  0  0  0
    0.3947    2.9866   -0.1295 H   0  0  0  0  0  0  0  0  0  0  0  0
    0.2208   -0.4726   -1.7572 H   0  0  0  0  0  0  0  0  0  0  0  0
   -1.7215    2.0302    0.3403 H   0  0  0  0  0  0  0  0  0  0  0  0
    0.9405   -2.1426    0.4814 H   0  0  0  0  0  0  0  0  0  0  0  0
    1.1933    1.3258    1.8868 H   0  0  0  0  0  0  0  0  0  0  0  0
    2.2269    1.3811    0.5068 H   0  0  0  0  0  0  0  0  0  0  0  0
   -0.9854   -1.4623    0.8804 H   0  0  0  0  0  0  0  0  0  0  0  0
   -1.4753   -1.8158   -0.7777 H   0  0  0  0  0  0  0  0  0  0  0  0
   -3.8391    1.6548   -1.5287 H   0  0  0  0  0  0  0  0  0  0  0  0
    0.5841   -3.0256   -1.9791 H   0  0  0  0  0  0  0  0  0  0  0  0
    0.3839    1.5104   -2.6067 H   0  0  0  0  0  0  0  0  0  0  0  0
    4.0606   -0.8914   -0.5038 H   0  0  0  0  0  0  0  0  0  0  0  0
   -0.1043    2.0344   -4.8717 H   0  0  0  0  0  0  0  0  0  0  0  0
    5.4371   -1.9786   -2.2804 H   0  0  0  0  0  0  0  0  0  0  0  0
   -4.5711    1.7456   -6.1831 H   0  0  0  0  0  0  0  0  0  0  0  0
   -4.3872    3.4770   -5.8014 H   0  0  0  0  0  0  0  0  0  0  0  0
    3.4763   -5.5511   -4.5890 H   0  0  0  0  0  0  0  0  0  0  0  0
    3.1163   -4.1938   -5.6827 H   0  0  0  0  0  0  0  0  0  0  0  0
  1 10  1  0  0  0  0
  1 13  1  0  0  0  0
  2 11  1  0  0  0  0
  2 12  1  0  0  0  0
  3 28  1  0  0  0  0
  4 20  1  0  0  0  0
  4 26  1  0  0  0  0
  5 21  1  0  0  0  0
  5 27  1  0  0  0  0
  6 24  1  0  0  0  0
  6 26  1  0  0  0  0
  7 25  1  0  0  0  0
  7 27  1  0  0  0  0
  8  3  1  6  0  0  0
  8  9  1  0  0  0  0
  8 10  1  0  0  0  0
  8 12  1  0  0  0  0
  9 11  1  0  0  0  0
  9 13  1  0  0  0  0
  9 29  1  6  0  0  0
 10 30  1  1  0  0  0
 10 14  1  0  0  0  0
 11 15  1  0  0  0  0
 11 31  1  1  0  0  0
 12 32  1  0  0  0  0
 12 33  1  0  0  0  0
 13 34  1  0  0  0  0
 13 35  1  0  0  0  0
 14 16  1  0  0  0  0
 14 18  2  0  0  0  0
 15 17  1  0  0  0  0
 15 19  2  0  0  0  0
 16 20  2  0  0  0  0
 16 36  1  0  0  0  0
 17 21  2  0  0  0  0
 17 37  1  0  0  0  0
 18 22  1  0  0  0  0
 18 38  1  0  0  0  0
 19 23  1  0  0  0  0
 19 39  1  0  0  0  0
 20 24  1  0  0  0  0
 21 25  1  0  0  0  0
 22 24  2  0  0  0  0
 22 40  1  0  0  0  0
 23 25  2  0  0  0  0
 23 41  1  0  0  0  0
 26 42  1  0  0  0  0
 26 43  1  0  0  0  0
 27 44  1  0  0  0  0
 27 45  1  0  0  0  0
M  END
>  <Mol_ID>
4568

>  <Formula>
C20H18O7

>  <MolWeight>
370.35272

>  <Cat>
S9013

>  <Name>
Paulownin

>  <Target>
Immunology & Inflammation related

>  <Form>
free base

>  <CAS>
13040-46-5

>  <URL>
https://www.selleckchem.com/products/paulownin.html

$$$$
