S9017 Columbianadin.cdx
 OpenBabel08302521213D

 44 46  0  0  0  0  0  0  0  0999 V2000
    0.4979   -3.4215   -0.7801 C   0  0  0  0  0  0  0  0  0  0  0  0
    0.0443   -3.0783   -2.0322 C   0  0  0  0  0  0  0  0  0  0  0  0
    2.3529   -2.9939    0.4510 O   0  0  0  0  0  0  0  0  0  0  0  0
    1.8640   -3.5509   -0.6871 C   0  0  0  0  0  0  0  0  0  0  0  0
   -1.1422   -2.3416   -2.1290 O   0  0  0  0  0  0  0  0  0  0  0  0
    2.0603   -0.4102    3.0348 C   0  0  0  0  0  0  0  0  0  0  0  0
    1.1842   -2.6052    1.2344 C   0  0  1  0  0  0  0  0  0  0  0  0
   -0.0325   -3.3349    0.6185 C   0  0  0  0  0  0  0  0  0  0  0  0
    2.5830   -1.6612    3.0255 O   0  0  0  0  0  0  0  0  0  0  0  0
    1.7181   -2.8114    2.6855 C   0  0  0  0  0  0  0  0  0  0  0  0
   -1.1308   -1.2667   -3.0109 C   0  0  0  0  0  0  0  0  0  0  0  0
    0.6855   -2.3255   -4.2926 C   0  0  0  0  0  0  0  0  0  0  0  0
    0.9329   -3.1615   -3.1330 C   0  0  0  0  0  0  0  0  0  0  0  0
    3.1059    0.6683    2.9492 C   0  0  0  0  0  0  0  0  0  0  0  0
   -0.2106   -1.3464   -4.1626 C   0  0  0  0  0  0  0  0  0  0  0  0
    0.8593   -0.1558    3.0076 O   0  0  0  0  0  0  0  0  0  0  0  0
    2.7254   -3.8218   -1.7299 C   0  0  0  0  0  0  0  0  0  0  0  0
   -1.8844   -0.3089   -2.8869 O   0  0  0  0  0  0  0  0  0  0  0  0
    2.2073   -3.6991   -2.9933 C   0  0  0  0  0  0  0  0  0  0  0  0
    4.4582    0.5453    2.8957 C   0  0  0  0  0  0  0  0  0  0  0  0
    0.6765   -3.0588    3.7736 C   0  0  0  0  0  0  0  0  0  0  0  0
    2.7211   -3.9994    2.7289 C   0  0  0  0  0  0  0  0  0  0  0  0
    2.5173    2.0613    2.9047 C   0  0  0  0  0  0  0  0  0  0  0  0
    5.3115   -0.6722    2.8379 C   0  0  0  0  0  0  0  0  0  0  0  0
    0.9992   -1.5397    1.0418 H   0  0  0  0  0  0  0  0  0  0  0  0
   -0.9765   -2.7855    0.7033 H   0  0  0  0  0  0  0  0  0  0  0  0
   -0.1710   -4.3408    1.0397 H   0  0  0  0  0  0  0  0  0  0  0  0
    1.3906   -2.3443   -5.1191 H   0  0  0  0  0  0  0  0  0  0  0  0
   -0.2766   -0.5421   -4.8844 H   0  0  0  0  0  0  0  0  0  0  0  0
    3.7774   -3.9537   -1.5408 H   0  0  0  0  0  0  0  0  0  0  0  0
    2.8949   -3.7615   -3.8317 H   0  0  0  0  0  0  0  0  0  0  0  0
    5.0436    1.4697    2.8518 H   0  0  0  0  0  0  0  0  0  0  0  0
    0.3342   -4.1009    3.7645 H   0  0  0  0  0  0  0  0  0  0  0  0
    1.1114   -2.8597    4.7616 H   0  0  0  0  0  0  0  0  0  0  0  0
   -0.2009   -2.4178    3.6678 H   0  0  0  0  0  0  0  0  0  0  0  0
    2.2896   -4.9136    2.3059 H   0  0  0  0  0  0  0  0  0  0  0  0
    3.6437   -3.7643    2.1790 H   0  0  0  0  0  0  0  0  0  0  0  0
    3.0504   -4.2030    3.7517 H   0  0  0  0  0  0  0  0  0  0  0  0
    2.0260    2.2309    1.9409 H   0  0  0  0  0  0  0  0  0  0  0  0
    1.7899    2.2019    3.7090 H   0  0  0  0  0  0  0  0  0  0  0  0
    3.2803    2.8423    3.0237 H   0  0  0  0  0  0  0  0  0  0  0  0
    5.3790   -1.1516    3.8174 H   0  0  0  0  0  0  0  0  0  0  0  0
    4.9702   -1.3838    2.0817 H   0  0  0  0  0  0  0  0  0  0  0  0
    6.3308   -0.3778    2.5507 H   0  0  0  0  0  0  0  0  0  0  0  0
  2  1  1  0  0  0  0
  3  4  1  0  0  0  0
  4  1  2  0  0  0  0
  5  2  1  0  0  0  0
  6  9  1  0  0  0  0
  7  3  1  0  0  0  0
  7  8  1  0  0  0  0
  7 25  1  6  0  0  0
  7 10  1  0  0  0  0
  8  1  1  0  0  0  0
  8 26  1  0  0  0  0
  8 27  1  0  0  0  0
  9 10  1  0  0  0  0
 11  5  1  0  0  0  0
 11 15  1  0  0  0  0
 12 13  1  0  0  0  0
 12 28  1  0  0  0  0
 13  2  2  0  0  0  0
 13 19  1  0  0  0  0
 14  6  1  0  0  0  0
 15 12  2  0  0  0  0
 15 29  1  0  0  0  0
 16  6  2  0  0  0  0
 17  4  1  0  0  0  0
 17 30  1  0  0  0  0
 18 11  2  0  0  0  0
 19 17  2  0  0  0  0
 19 31  1  0  0  0  0
 20 14  2  0  0  0  0
 20 32  1  0  0  0  0
 21 10  1  0  0  0  0
 21 33  1  0  0  0  0
 21 34  1  0  0  0  0
 21 35  1  0  0  0  0
 22 10  1  0  0  0  0
 22 36  1  0  0  0  0
 22 37  1  0  0  0  0
 22 38  1  0  0  0  0
 23 14  1  0  0  0  0
 23 39  1  0  0  0  0
 23 40  1  0  0  0  0
 23 41  1  0  0  0  0
 24 20  1  0  0  0  0
 24 42  1  0  0  0  0
 24 43  1  0  0  0  0
 24 44  1  0  0  0  0
M  END
>  <Mol_ID>
4569

>  <Formula>
C19H20O5

>  <MolWeight>
328.3591

>  <Cat>
S9017

>  <Name>
Columbianadin

>  <Synonyms>
Zosimin, 2-Butenoic acid

>  <Target>
Calcium Channel

>  <Form>
free base

>  <CAS>
5058-13-9

>  <URL>
https://www.selleckchem.com/products/columbianadin.html

$$$$
