S9032 Sanguinarine.cdx
 OpenBabel08302521213D

 39 44  0  0  0  0  0  0  0  0999 V2000
    0.0225   -2.0537   -0.3849 C   0  0  0  0  0  0  0  0  0  0  0  0
    1.3319   -2.1860   -0.8007 C   0  0  0  0  0  0  0  0  0  0  0  0
    2.1895   -1.1088   -0.7375 C   0  0  0  0  0  0  0  0  0  0  0  0
    1.7072    0.1861   -0.3291 C   0  0  0  0  0  0  0  0  0  0  0  0
    0.2689    0.3618   -0.2815 C   0  0  0  0  0  0  0  0  0  0  0  0
   -0.4106    1.5546   -0.4236 N   0  3  0  0  0  0  0  0  0  0  0  0
   -1.7817    1.6112   -0.3252 C   0  0  0  0  0  0  0  0  0  0  0  0
   -2.5365    0.5095    0.1230 C   0  0  0  0  0  0  0  0  0  0  0  0
   -3.9223    0.4723    0.3435 C   0  0  0  0  0  0  0  0  0  0  0  0
   -4.5261   -0.5550    1.0498 C   0  0  0  0  0  0  0  0  0  0  0  0
   -3.8408   -1.6573    1.4607 C   0  0  0  0  0  0  0  0  0  0  0  0
   -2.5306   -1.7577    1.0176 C   0  0  0  0  0  0  0  0  0  0  0  0
   -1.8583   -0.6899    0.3466 C   0  0  0  0  0  0  0  0  0  0  0  0
   -0.5294   -0.7985   -0.0995 C   0  0  0  0  0  0  0  0  0  0  0  0
   -5.8723   -0.4078    1.1621 O   0  0  0  0  0  0  0  0  0  0  0  0
   -6.0604    0.4678    0.0438 C   0  0  0  0  0  0  0  0  0  0  0  0
   -4.8839    1.3076   -0.1642 O   0  0  0  0  0  0  0  0  0  0  0  0
    5.1270    1.3118    0.6646 O   0  0  0  0  0  0  0  0  0  0  0  0
    6.1350    0.2698    0.5498 C   0  0  0  0  0  0  0  0  0  0  0  0
    5.7858   -0.7064   -0.4462 O   0  0  0  0  0  0  0  0  0  0  0  0
    4.4492   -0.4828   -0.5140 C   0  0  0  0  0  0  0  0  0  0  0  0
    4.0637    0.6927    0.0722 C   0  0  0  0  0  0  0  0  0  0  0  0
    3.5321   -1.3879   -0.9566 C   0  0  0  0  0  0  0  0  0  0  0  0
    2.7287    1.0893    0.1175 C   0  0  0  0  0  0  0  0  0  0  0  0
    0.2883    2.7746   -0.9131 C   0  0  0  0  0  0  0  0  0  0  0  0
   -0.5726   -2.9635   -0.3338 H   0  0  0  0  0  0  0  0  0  0  0  0
    1.7011   -3.1864   -1.0379 H   0  0  0  0  0  0  0  0  0  0  0  0
   -2.2601    2.5654   -0.5485 H   0  0  0  0  0  0  0  0  0  0  0  0
   -4.3264   -2.4589    2.0024 H   0  0  0  0  0  0  0  0  0  0  0  0
   -2.0135   -2.6879    1.2431 H   0  0  0  0  0  0  0  0  0  0  0  0
   -6.2185   -0.1739   -0.8399 H   0  0  0  0  0  0  0  0  0  0  0  0
   -6.9548    1.0797    0.1873 H   0  0  0  0  0  0  0  0  0  0  0  0
    6.2241   -0.2565    1.5121 H   0  0  0  0  0  0  0  0  0  0  0  0
    7.1051    0.7114    0.3036 H   0  0  0  0  0  0  0  0  0  0  0  0
    3.8738   -2.3486   -1.3318 H   0  0  0  0  0  0  0  0  0  0  0  0
    2.5007    2.0090    0.6465 H   0  0  0  0  0  0  0  0  0  0  0  0
    0.8867    3.1750   -0.0959 H   0  0  0  0  0  0  0  0  0  0  0  0
    0.8991    2.5051   -1.7807 H   0  0  0  0  0  0  0  0  0  0  0  0
   -0.4357    3.5334   -1.2198 H   0  0  0  0  0  0  0  0  0  0  0  0
  1  2  2  0  0  0  0
  1 14  1  0  0  0  0
  1 26  1  0  0  0  0
  2  3  1  0  0  0  0
  2 27  1  0  0  0  0
  3  4  2  0  0  0  0
  3 23  1  0  0  0  0
  4  5  1  0  0  0  0
  4 24  1  0  0  0  0
  5  6  1  0  0  0  0
  5 14  2  0  0  0  0
  6  7  2  0  0  0  0
  6 25  1  0  0  0  0
  7  8  1  0  0  0  0
  7 28  1  0  0  0  0
  8  9  1  0  0  0  0
  8 13  2  0  0  0  0
  9 10  2  0  0  0  0
  9 17  1  0  0  0  0
 10 11  1  0  0  0  0
 10 15  1  0  0  0  0
 11 12  2  0  0  0  0
 11 29  1  0  0  0  0
 12 13  1  0  0  0  0
 12 30  1  0  0  0  0
 13 14  1  0  0  0  0
 15 16  1  0  0  0  0
 16 17  1  0  0  0  0
 16 31  1  0  0  0  0
 16 32  1  0  0  0  0
 18 19  1  0  0  0  0
 18 22  1  0  0  0  0
 19 20  1  0  0  0  0
 19 33  1  0  0  0  0
 19 34  1  0  0  0  0
 20 21  1  0  0  0  0
 21 22  1  0  0  0  0
 21 23  2  0  0  0  0
 22 24  2  0  0  0  0
 23 35  1  0  0  0  0
 24 36  1  0  0  0  0
 25 37  1  0  0  0  0
 25 38  1  0  0  0  0
 25 39  1  0  0  0  0
M  CHG  1   6   1
M  END
>  <Mol_ID>
4561

>  <Formula>
C20H14NO4+

>  <MolWeight>
332.32946

>  <Cat>
S9032

>  <Name>
Sanguinarine

>  <Synonyms>
Pseudochelerythrine, Sanguinarin, Sanguinarium

>  <Target>
Immunology & Inflammation related

>  <Form>
free base

>  <CAS>
2447-54-3

>  <URL>
https://www.selleckchem.com/products/sanguinarine.html

$$$$
