S9038 Calycosin.cdx
 OpenBabel08302521213D

 33 35  0  0  0  0  0  0  0  0999 V2000
   -2.7055   -0.4775   -0.0175 C   0  0  0  0  0  0  0  0  0  0  0  0
   -4.1700   -0.4025   -0.0242 C   0  0  0  0  0  0  0  0  0  0  0  0
   -1.8533    0.7392    0.0050 C   0  0  0  0  0  0  0  0  0  0  0  0
   -2.0919   -1.6696   -0.0251 C   0  0  0  0  0  0  0  0  0  0  0  0
   -4.8829   -0.3836    1.1802 C   0  0  0  0  0  0  0  0  0  0  0  0
   -4.8706   -0.3816   -1.2330 C   0  0  0  0  0  0  0  0  0  0  0  0
   -0.3954    0.5146    0.0130 C   0  0  0  0  0  0  0  0  0  0  0  0
   -2.3193    1.8719    0.0199 O   0  0  0  0  0  0  0  0  0  0  0  0
   -0.7354   -1.8902   -0.0226 O   0  0  0  0  0  0  0  0  0  0  0  0
   -6.2847   -0.3469    1.1776 C   0  0  0  0  0  0  0  0  0  0  0  0
   -6.2672   -0.3465   -1.2297 C   0  0  0  0  0  0  0  0  0  0  0  0
    0.0882   -0.7928   -0.0079 C   0  0  0  0  0  0  0  0  0  0  0  0
    0.4931    1.5962    0.0390 C   0  0  0  0  0  0  0  0  0  0  0  0
   -6.9921   -0.3320   -0.0297 C   0  0  0  0  0  0  0  0  0  0  0  0
   -6.9297   -0.3332    2.3840 O   0  0  0  0  0  0  0  0  0  0  0  0
    1.4626   -1.0271   -0.0141 C   0  0  0  0  0  0  0  0  0  0  0  0
    1.8703    1.3628    0.0344 C   0  0  0  0  0  0  0  0  0  0  0  0
   -8.3455   -0.3042   -0.2269 O   0  0  0  0  0  0  0  0  0  0  0  0
    2.3413    0.0520    0.0030 C   0  0  0  0  0  0  0  0  0  0  0  0
   -9.1896   -0.2830    0.9144 C   0  0  0  0  0  0  0  0  0  0  0  0
    3.6771   -0.2201   -0.0137 O   0  0  0  0  0  0  0  0  0  0  0  0
   -2.6162   -2.6180   -0.0366 H   0  0  0  0  0  0  0  0  0  0  0  0
   -4.3363   -0.3966    2.1192 H   0  0  0  0  0  0  0  0  0  0  0  0
   -4.3412   -0.3878   -2.1825 H   0  0  0  0  0  0  0  0  0  0  0  0
   -6.8025   -0.3275   -2.1765 H   0  0  0  0  0  0  0  0  0  0  0  0
    0.1143    2.6162    0.0613 H   0  0  0  0  0  0  0  0  0  0  0  0
   -6.2747   -0.2506    3.0961 H   0  0  0  0  0  0  0  0  0  0  0  0
    1.8484   -2.0422   -0.0354 H   0  0  0  0  0  0  0  0  0  0  0  0
    2.5523    2.2077    0.0542 H   0  0  0  0  0  0  0  0  0  0  0  0
   -9.0758   -1.1943    1.5102 H   0  0  0  0  0  0  0  0  0  0  0  0
   -9.0326    0.6220    1.5097 H   0  0  0  0  0  0  0  0  0  0  0  0
  -10.2248   -0.2585    0.5590 H   0  0  0  0  0  0  0  0  0  0  0  0
    4.1705    0.6168   -0.0342 H   0  0  0  0  0  0  0  0  0  0  0  0
  1  2  1  0  0  0  0
  1  3  1  0  0  0  0
  1  4  2  0  0  0  0
  2  5  2  0  0  0  0
  2  6  1  0  0  0  0
  3  7  1  0  0  0  0
  3  8  2  0  0  0  0
  4  9  1  0  0  0  0
  4 22  1  0  0  0  0
  5 10  1  0  0  0  0
  5 23  1  0  0  0  0
  6 11  2  0  0  0  0
  6 24  1  0  0  0  0
  7 12  2  0  0  0  0
  7 13  1  0  0  0  0
  9 12  1  0  0  0  0
 10 14  2  0  0  0  0
 10 15  1  0  0  0  0
 11 14  1  0  0  0  0
 11 25  1  0  0  0  0
 12 16  1  0  0  0  0
 13 17  2  0  0  0  0
 13 26  1  0  0  0  0
 14 18  1  0  0  0  0
 15 27  1  0  0  0  0
 16 19  2  0  0  0  0
 16 28  1  0  0  0  0
 17 19  1  0  0  0  0
 17 29  1  0  0  0  0
 18 20  1  0  0  0  0
 19 21  1  0  0  0  0
 20 30  1  0  0  0  0
 20 31  1  0  0  0  0
 20 32  1  0  0  0  0
 21 33  1  0  0  0  0
M  END
>  <Mol_ID>
4558

>  <Formula>
C16H12O5

>  <MolWeight>
284.26348

>  <Cat>
S9038

>  <Name>
Calycosin

>  <Synonyms>
3'-Hydroxyformononetin

>  <Target>
Immunology & Inflammation related

>  <Form>
free base

>  <CAS>
20575-57-9

>  <URL>
https://www.selleckchem.com/products/calycosin.html

$$$$
