S9045 Triptophenolide.cdx
 OpenBabel08302521043D

 47 50  0  0  0  0  0  0  0  0999 V2000
    1.6954    1.5515   -0.4613 C   0  0  1  0  0  0  0  0  0  0  0  0
    1.4173    2.1259    0.9713 C   0  0  2  0  0  0  0  0  0  0  0  0
    0.1911    1.6051   -0.9224 C   0  0  0  0  0  0  0  0  0  0  0  0
    2.6026    2.3285   -1.4480 C   0  0  0  0  0  0  0  0  0  0  0  0
    2.5683    0.2439   -0.1942 C   0  0  0  0  0  0  0  0  0  0  0  0
    2.5710    2.9994    1.3950 C   0  0  0  0  0  0  0  0  0  0  0  0
    0.6659    0.9264    1.7902 C   0  0  0  0  0  0  0  0  0  0  0  0
   -0.7195    0.7739   -0.2433 C   0  0  0  0  0  0  0  0  0  0  0  0
   -0.3648    2.8031   -1.4506 C   0  0  0  0  0  0  0  0  0  0  0  0
    3.8832    2.8938   -0.8004 C   0  0  0  0  0  0  0  0  0  0  0  0
    3.5933    3.3138    0.5940 C   0  0  0  0  0  0  0  0  0  0  0  0
    2.4883    4.0058    2.4682 C   0  0  0  0  0  0  0  0  0  0  0  0
   -0.1000   -0.0839    0.8242 C   0  0  0  0  0  0  0  0  0  0  0  0
   -2.1038    1.0288   -0.2691 C   0  0  0  0  0  0  0  0  0  0  0  0
   -1.7475    3.0714   -1.4319 C   0  0  0  0  0  0  0  0  0  0  0  0
    4.2928    4.4593    1.1908 C   0  0  0  0  0  0  0  0  0  0  0  0
    3.6441    4.8111    2.3096 O   0  0  0  0  0  0  0  0  0  0  0  0
   -2.6530    2.1426   -0.9116 C   0  0  0  0  0  0  0  0  0  0  0  0
   -2.9222    0.2803    0.5333 O   0  0  0  0  0  0  0  0  0  0  0  0
    5.2975    4.9810    0.7232 O   0  0  0  0  0  0  0  0  0  0  0  0
   -4.1596    2.3414   -1.0004 C   0  0  0  0  0  0  0  0  0  0  0  0
   -4.5901    2.6341   -2.4428 C   0  0  0  0  0  0  0  0  0  0  0  0
   -4.7310    3.3809   -0.0329 C   0  0  0  0  0  0  0  0  0  0  0  0
    0.6181    2.8872    0.9438 H   0  0  0  0  0  0  0  0  0  0  0  0
    2.8882    1.6463   -2.2655 H   0  0  0  0  0  0  0  0  0  0  0  0
    2.1133    3.1511   -1.9631 H   0  0  0  0  0  0  0  0  0  0  0  0
    3.6439    0.4660   -0.1756 H   0  0  0  0  0  0  0  0  0  0  0  0
    2.4164   -0.5374   -0.9368 H   0  0  0  0  0  0  0  0  0  0  0  0
    2.4655   -0.2042    0.8009 H   0  0  0  0  0  0  0  0  0  0  0  0
    1.3385    0.3636    2.4455 H   0  0  0  0  0  0  0  0  0  0  0  0
   -0.1021    1.3711    2.4378 H   0  0  0  0  0  0  0  0  0  0  0  0
    0.2614    3.6477   -1.7306 H   0  0  0  0  0  0  0  0  0  0  0  0
    4.6862    2.1486   -0.8222 H   0  0  0  0  0  0  0  0  0  0  0  0
    4.2174    3.7232   -1.4139 H   0  0  0  0  0  0  0  0  0  0  0  0
    2.4926    3.5693    3.4775 H   0  0  0  0  0  0  0  0  0  0  0  0
    1.6007    4.6482    2.3555 H   0  0  0  0  0  0  0  0  0  0  0  0
   -0.8301   -0.7094    1.3480 H   0  0  0  0  0  0  0  0  0  0  0  0
    0.5426   -0.8203    0.3257 H   0  0  0  0  0  0  0  0  0  0  0  0
   -2.0948    4.0455   -1.7809 H   0  0  0  0  0  0  0  0  0  0  0  0
   -2.7875    0.6419    1.4274 H   0  0  0  0  0  0  0  0  0  0  0  0
   -4.6435    1.3914   -0.7417 H   0  0  0  0  0  0  0  0  0  0  0  0
   -4.4175    1.7512   -3.0688 H   0  0  0  0  0  0  0  0  0  0  0  0
   -5.6554    2.8776   -2.4962 H   0  0  0  0  0  0  0  0  0  0  0  0
   -4.0384    3.4669   -2.8902 H   0  0  0  0  0  0  0  0  0  0  0  0
   -5.8293    3.3546   -0.0663 H   0  0  0  0  0  0  0  0  0  0  0  0
   -4.4343    3.1718    1.0003 H   0  0  0  0  0  0  0  0  0  0  0  0
   -4.4191    4.3998   -0.2808 H   0  0  0  0  0  0  0  0  0  0  0  0
  1  2  1  0  0  0  0
  1  3  1  0  0  0  0
  1  4  1  0  0  0  0
  1  5  1  1  0  0  0
  2  6  1  0  0  0  0
  2  7  1  0  0  0  0
  2 24  1  6  0  0  0
  3  8  2  0  0  0  0
  3  9  1  0  0  0  0
  4 10  1  0  0  0  0
  4 25  1  0  0  0  0
  4 26  1  0  0  0  0
  5 27  1  0  0  0  0
  5 28  1  0  0  0  0
  5 29  1  0  0  0  0
  6 11  2  0  0  0  0
  6 12  1  0  0  0  0
  7 13  1  0  0  0  0
  7 30  1  0  0  0  0
  7 31  1  0  0  0  0
  8 14  1  0  0  0  0
  8 13  1  0  0  0  0
  9 15  2  0  0  0  0
  9 32  1  0  0  0  0
 10 11  1  0  0  0  0
 10 33  1  0  0  0  0
 10 34  1  0  0  0  0
 11 16  1  0  0  0  0
 12 17  1  0  0  0  0
 12 35  1  0  0  0  0
 12 36  1  0  0  0  0
 13 37  1  0  0  0  0
 13 38  1  0  0  0  0
 14 18  2  0  0  0  0
 14 19  1  0  0  0  0
 15 18  1  0  0  0  0
 15 39  1  0  0  0  0
 16 17  1  0  0  0  0
 16 20  2  0  0  0  0
 18 21  1  0  0  0  0
 19 40  1  0  0  0  0
 21 22  1  0  0  0  0
 21 23  1  0  0  0  0
 21 41  1  0  0  0  0
 22 42  1  0  0  0  0
 22 43  1  0  0  0  0
 22 44  1  0  0  0  0
 23 45  1  0  0  0  0
 23 46  1  0  0  0  0
 23 47  1  0  0  0  0
M  END
>  <Mol_ID>
4338

>  <Formula>
C20H24O3

>  <MolWeight>
312.40276

>  <Cat>
S9045

>  <Name>
Triptophenolide

>  <Synonyms>
Hypolide

>  <Target>
Androgen Receptor

>  <Form>
free base

>  <CAS>
74285-86-2

>  <URL>
https://www.selleckchem.com/products/triptophenolide.html

$$$$
