S9043 6-Shogaol.cdx
 OpenBabel08302521043D

 44 44  0  0  0  0  0  0  0  0999 V2000
   -1.1113   -3.4203   -0.3129 C   0  0  0  0  0  0  0  0  0  0  0  0
    0.2086   -3.3271    0.1719 C   0  0  0  0  0  0  0  0  0  0  0  0
   -1.4870   -4.5408   -1.0699 C   0  0  0  0  0  0  0  0  0  0  0  0
   -2.1119   -2.3230   -0.0367 C   0  0  0  0  0  0  0  0  0  0  0  0
    1.1449   -4.3217   -0.1248 C   0  0  0  0  0  0  0  0  0  0  0  0
   -0.5556   -5.5330   -1.3721 C   0  0  0  0  0  0  0  0  0  0  0  0
   -2.9054   -2.5506    1.2434 C   0  0  0  0  0  0  0  0  0  0  0  0
    0.7446   -5.4098   -0.9076 C   0  0  0  0  0  0  0  0  0  0  0  0
    2.4565   -4.3531    0.2718 O   0  0  0  0  0  0  0  0  0  0  0  0
   -3.8375   -1.3914    1.5166 C   0  0  0  0  0  0  0  0  0  0  0  0
    1.6460   -6.3848   -1.2426 O   0  0  0  0  0  0  0  0  0  0  0  0
    2.9010   -3.2889    1.1046 C   0  0  0  0  0  0  0  0  0  0  0  0
   -5.0137   -1.2104    0.6080 C   0  0  0  0  0  0  0  0  0  0  0  0
   -3.6488   -0.6258    2.4608 O   0  0  0  0  0  0  0  0  0  0  0  0
   -5.7172   -0.0646    0.6262 C   0  0  0  0  0  0  0  0  0  0  0  0
   -6.9426    0.1993   -0.2030 C   0  0  0  0  0  0  0  0  0  0  0  0
   -6.7836    1.3546   -1.1983 C   0  0  0  0  0  0  0  0  0  0  0  0
   -5.7053    1.1545   -2.2689 C   0  0  0  0  0  0  0  0  0  0  0  0
   -5.9524   -0.0634   -3.1596 C   0  0  0  0  0  0  0  0  0  0  0  0
   -4.8687   -0.2078   -4.2158 C   0  0  0  0  0  0  0  0  0  0  0  0
    0.4817   -2.4611    0.7662 H   0  0  0  0  0  0  0  0  0  0  0  0
   -2.5039   -4.6398   -1.4463 H   0  0  0  0  0  0  0  0  0  0  0  0
   -1.5900   -1.3584    0.0075 H   0  0  0  0  0  0  0  0  0  0  0  0
   -2.7915   -2.2416   -0.8952 H   0  0  0  0  0  0  0  0  0  0  0  0
   -0.8403   -6.3918   -1.9748 H   0  0  0  0  0  0  0  0  0  0  0  0
   -3.4860   -3.4789    1.2096 H   0  0  0  0  0  0  0  0  0  0  0  0
   -2.2254   -2.6394    2.1014 H   0  0  0  0  0  0  0  0  0  0  0  0
    2.4900   -6.0921   -0.8479 H   0  0  0  0  0  0  0  0  0  0  0  0
    2.8984   -2.3399    0.5580 H   0  0  0  0  0  0  0  0  0  0  0  0
    2.3054   -3.2217    2.0206 H   0  0  0  0  0  0  0  0  0  0  0  0
    3.9331   -3.5045    1.3970 H   0  0  0  0  0  0  0  0  0  0  0  0
   -5.2645   -2.0301   -0.0540 H   0  0  0  0  0  0  0  0  0  0  0  0
   -5.4213    0.7341    1.3057 H   0  0  0  0  0  0  0  0  0  0  0  0
   -7.2673   -0.7074   -0.7248 H   0  0  0  0  0  0  0  0  0  0  0  0
   -7.7578    0.4536    0.4869 H   0  0  0  0  0  0  0  0  0  0  0  0
   -7.7487    1.5211   -1.6941 H   0  0  0  0  0  0  0  0  0  0  0  0
   -6.5591    2.2779   -0.6488 H   0  0  0  0  0  0  0  0  0  0  0  0
   -5.6766    2.0546   -2.8968 H   0  0  0  0  0  0  0  0  0  0  0  0
   -4.7197    1.0774   -1.7954 H   0  0  0  0  0  0  0  0  0  0  0  0
   -5.9712   -0.9800   -2.5607 H   0  0  0  0  0  0  0  0  0  0  0  0
   -6.9280    0.0259   -3.6505 H   0  0  0  0  0  0  0  0  0  0  0  0
   -3.8839   -0.3249   -3.7522 H   0  0  0  0  0  0  0  0  0  0  0  0
   -5.0592   -1.0895   -4.8354 H   0  0  0  0  0  0  0  0  0  0  0  0
   -4.8392    0.6689   -4.8711 H   0  0  0  0  0  0  0  0  0  0  0  0
  1  2  2  0  0  0  0
  1  3  1  0  0  0  0
  1  4  1  0  0  0  0
  2  5  1  0  0  0  0
  2 21  1  0  0  0  0
  3  6  2  0  0  0  0
  3 22  1  0  0  0  0
  4  7  1  0  0  0  0
  4 23  1  0  0  0  0
  4 24  1  0  0  0  0
  5  8  2  0  0  0  0
  5  9  1  0  0  0  0
  6  8  1  0  0  0  0
  6 25  1  0  0  0  0
  7 10  1  0  0  0  0
  7 26  1  0  0  0  0
  7 27  1  0  0  0  0
  8 11  1  0  0  0  0
  9 12  1  0  0  0  0
 10 13  1  0  0  0  0
 10 14  2  0  0  0  0
 11 28  1  0  0  0  0
 12 29  1  0  0  0  0
 12 30  1  0  0  0  0
 12 31  1  0  0  0  0
 13 15  2  0  0  0  0
 13 32  1  0  0  0  0
 15 16  1  0  0  0  0
 15 33  1  0  0  0  0
 16 17  1  0  0  0  0
 16 34  1  0  0  0  0
 16 35  1  0  0  0  0
 17 18  1  0  0  0  0
 17 36  1  0  0  0  0
 17 37  1  0  0  0  0
 18 19  1  0  0  0  0
 18 38  1  0  0  0  0
 18 39  1  0  0  0  0
 19 20  1  0  0  0  0
 19 40  1  0  0  0  0
 19 41  1  0  0  0  0
 20 42  1  0  0  0  0
 20 43  1  0  0  0  0
 20 44  1  0  0  0  0
M  END
>  <Mol_ID>
4337

>  <Formula>
C17H24O3

>  <MolWeight>
276.37066

>  <Cat>
S9043

>  <Name>
6-Shogaol

>  <Synonyms>
FS42771

>  <Target>
Immunology & Inflammation related

>  <Form>
free base

>  <CAS>
555-66-8

>  <URL>
https://www.selleckchem.com/products/6-shogaol.html

$$$$
