S9046 Berberine.cdx
 OpenBabel08302521213D

 43 47  0  0  0  0  0  0  0  0999 V2000
   -0.5072    0.1318    0.0267 C   0  0  0  0  0  0  0  0  0  0  0  0
    0.9682    0.1199    0.0095 C   0  0  0  0  0  0  0  0  0  0  0  0
   -1.1041    1.3433    0.1442 N   0  3  0  0  0  0  0  0  0  0  0  0
   -1.3279   -0.9992   -0.0895 C   0  0  0  0  0  0  0  0  0  0  0  0
    1.6930    1.3302   -0.2004 C   0  0  0  0  0  0  0  0  0  0  0  0
    1.7058   -1.0664    0.1772 C   0  0  0  0  0  0  0  0  0  0  0  0
   -2.4479    1.4600    0.1352 C   0  0  0  0  0  0  0  0  0  0  0  0
   -0.3254    2.5850    0.3959 C   0  0  0  0  0  0  0  0  0  0  0  0
   -2.7262   -0.8848   -0.0691 C   0  0  0  0  0  0  0  0  0  0  0  0
    3.0952    1.3537   -0.2572 C   0  0  0  0  0  0  0  0  0  0  0  0
    0.9380    2.6064   -0.4271 C   0  0  0  0  0  0  0  0  0  0  0  0
    3.0828   -1.0125    0.1010 C   0  0  0  0  0  0  0  0  0  0  0  0
   -3.3343    0.3846    0.0343 C   0  0  0  0  0  0  0  0  0  0  0  0
   -3.5116   -2.0402   -0.1558 C   0  0  0  0  0  0  0  0  0  0  0  0
    3.7564    0.1616   -0.1089 C   0  0  0  0  0  0  0  0  0  0  0  0
    3.9173   -2.0789    0.2067 O   0  0  0  0  0  0  0  0  0  0  0  0
   -4.7604    0.4646    0.0443 C   0  0  0  0  0  0  0  0  0  0  0  0
   -4.9003   -1.9632   -0.1358 C   0  0  0  0  0  0  0  0  0  0  0  0
    5.1019   -0.0123   -0.1579 O   0  0  0  0  0  0  0  0  0  0  0  0
    5.1943   -1.4482   -0.0379 C   0  0  0  0  0  0  0  0  0  0  0  0
   -5.5328   -0.7253   -0.0380 C   0  0  0  0  0  0  0  0  0  0  0  0
   -5.5483    1.5843    0.1347 O   0  0  0  0  0  0  0  0  0  0  0  0
   -6.8980   -0.5651   -0.0123 O   0  0  0  0  0  0  0  0  0  0  0  0
   -5.0440    2.9035    0.2093 C   0  0  0  0  0  0  0  0  0  0  0  0
   -7.7045   -1.7428   -0.0647 C   0  0  0  0  0  0  0  0  0  0  0  0
   -0.8833   -1.9866   -0.2036 H   0  0  0  0  0  0  0  0  0  0  0  0
    1.2439   -2.0315    0.3570 H   0  0  0  0  0  0  0  0  0  0  0  0
   -2.7688    2.4775    0.2353 H   0  0  0  0  0  0  0  0  0  0  0  0
   -0.9388    3.4536    0.1308 H   0  0  0  0  0  0  0  0  0  0  0  0
   -0.1339    2.6069    1.4751 H   0  0  0  0  0  0  0  0  0  0  0  0
    3.6525    2.2713   -0.4236 H   0  0  0  0  0  0  0  0  0  0  0  0
    0.7052    2.6979   -1.4942 H   0  0  0  0  0  0  0  0  0  0  0  0
    1.5352    3.4775   -0.1334 H   0  0  0  0  0  0  0  0  0  0  0  0
   -3.0566   -3.0276   -0.2312 H   0  0  0  0  0  0  0  0  0  0  0  0
   -5.4604   -2.8913   -0.1975 H   0  0  0  0  0  0  0  0  0  0  0  0
    5.6057   -1.8483   -0.9716 H   0  0  0  0  0  0  0  0  0  0  0  0
    5.8702   -1.6917    0.7877 H   0  0  0  0  0  0  0  0  0  0  0  0
   -4.4749    3.0466    1.1339 H   0  0  0  0  0  0  0  0  0  0  0  0
   -4.4687    3.1546   -0.6881 H   0  0  0  0  0  0  0  0  0  0  0  0
   -5.8812    3.6043    0.2504 H   0  0  0  0  0  0  0  0  0  0  0  0
   -7.5535   -2.2793   -1.0101 H   0  0  0  0  0  0  0  0  0  0  0  0
   -7.5164   -2.3945    0.7926 H   0  0  0  0  0  0  0  0  0  0  0  0
   -8.7543   -1.4357   -0.0255 H   0  0  0  0  0  0  0  0  0  0  0  0
  1  2  1  0  0  0  0
  1  3  1  0  0  0  0
  1  4  2  0  0  0  0
  2  5  2  0  0  0  0
  2  6  1  0  0  0  0
  3  7  2  0  0  0  0
  3  8  1  0  0  0  0
  4  9  1  0  0  0  0
  4 26  1  0  0  0  0
  5 10  1  0  0  0  0
  5 11  1  0  0  0  0
  6 12  2  0  0  0  0
  6 27  1  0  0  0  0
  7 13  1  0  0  0  0
  7 28  1  0  0  0  0
  8 11  1  0  0  0  0
  8 29  1  0  0  0  0
  8 30  1  0  0  0  0
  9 14  2  0  0  0  0
  9 13  1  0  0  0  0
 10 15  2  0  0  0  0
 10 31  1  0  0  0  0
 11 32  1  0  0  0  0
 11 33  1  0  0  0  0
 12 16  1  0  0  0  0
 12 15  1  0  0  0  0
 13 17  2  0  0  0  0
 14 18  1  0  0  0  0
 14 34  1  0  0  0  0
 15 19  1  0  0  0  0
 16 20  1  0  0  0  0
 17 21  1  0  0  0  0
 17 22  1  0  0  0  0
 18 21  2  0  0  0  0
 18 35  1  0  0  0  0
 19 20  1  0  0  0  0
 20 36  1  0  0  0  0
 20 37  1  0  0  0  0
 21 23  1  0  0  0  0
 22 24  1  0  0  0  0
 23 25  1  0  0  0  0
 24 38  1  0  0  0  0
 24 39  1  0  0  0  0
 24 40  1  0  0  0  0
 25 41  1  0  0  0  0
 25 42  1  0  0  0  0
 25 43  1  0  0  0  0
M  CHG  1   3   1
M  END
>  <Mol_ID>
4556

>  <Formula>
C20H18NO4+

>  <MolWeight>
336.36122

>  <Cat>
S9046

>  <Name>
Berberine

>  <Synonyms>
Umbellatine

>  <Target>
Bacterial

>  <Form>
free base

>  <CAS>
2086-83-1

>  <URL>
https://www.selleckchem.com/products/berberine.html

$$$$
