S9053 Irisflorentin.cdx
 OpenBabel08302521043D

 46 49  0  0  0  0  0  0  0  0999 V2000
   -0.8944    0.4624    0.0402 C   0  0  0  0  0  0  0  0  0  0  0  0
    0.2309    1.3209    0.0398 C   0  0  0  0  0  0  0  0  0  0  0  0
   -0.6739   -0.9486    0.0432 C   0  0  0  0  0  0  0  0  0  0  0  0
   -2.3311    0.8765    0.0330 C   0  0  0  0  0  0  0  0  0  0  0  0
    1.4903    0.7020    0.0342 C   0  0  0  0  0  0  0  0  0  0  0  0
    0.3809    2.6740    0.0460 O   0  0  0  0  0  0  0  0  0  0  0  0
    0.6024   -1.5143    0.0235 C   0  0  0  0  0  0  0  0  0  0  0  0
   -1.6806   -1.8898    0.0728 O   0  0  0  0  0  0  0  0  0  0  0  0
   -3.3673   -0.1865   -0.0128 C   0  0  0  0  0  0  0  0  0  0  0  0
   -2.7199    2.0342    0.0662 O   0  0  0  0  0  0  0  0  0  0  0  0
    1.6718   -0.6583    0.0220 C   0  0  0  0  0  0  0  0  0  0  0  0
    2.6946    1.3579    0.0409 O   0  0  0  0  0  0  0  0  0  0  0  0
   -0.6949    3.5857    0.0569 C   0  0  0  0  0  0  0  0  0  0  0  0
   -2.9726   -1.4596    0.0227 C   0  0  0  0  0  0  0  0  0  0  0  0
   -4.7947    0.1489   -0.0889 C   0  0  0  0  0  0  0  0  0  0  0  0
    2.9792   -1.0267    0.0130 O   0  0  0  0  0  0  0  0  0  0  0  0
    3.6218    0.2597    0.0887 C   0  0  0  0  0  0  0  0  0  0  0  0
   -5.5486    0.3019    1.0772 C   0  0  0  0  0  0  0  0  0  0  0  0
   -5.4088    0.3342   -1.3253 C   0  0  0  0  0  0  0  0  0  0  0  0
   -6.9167    0.6142    1.0226 C   0  0  0  0  0  0  0  0  0  0  0  0
   -6.7652    0.6733   -1.4077 C   0  0  0  0  0  0  0  0  0  0  0  0
   -7.5471    0.7830   -0.2342 C   0  0  0  0  0  0  0  0  0  0  0  0
   -7.6737    0.7593    2.1568 O   0  0  0  0  0  0  0  0  0  0  0  0
   -7.1917    0.8070   -2.7086 O   0  0  0  0  0  0  0  0  0  0  0  0
   -8.8839    1.0107   -0.4425 O   0  0  0  0  0  0  0  0  0  0  0  0
   -7.0518    0.6051    3.4250 C   0  0  0  0  0  0  0  0  0  0  0  0
   -8.2468    1.7294   -2.9545 C   0  0  0  0  0  0  0  0  0  0  0  0
   -9.7818    1.0994    0.6515 C   0  0  0  0  0  0  0  0  0  0  0  0
    0.7513   -2.5886    0.0116 H   0  0  0  0  0  0  0  0  0  0  0  0
   -1.2701    3.5203   -0.8705 H   0  0  0  0  0  0  0  0  0  0  0  0
   -1.2887    3.4803    0.9681 H   0  0  0  0  0  0  0  0  0  0  0  0
   -0.2755    4.5962    0.0881 H   0  0  0  0  0  0  0  0  0  0  0  0
   -3.6520   -2.3024    0.0078 H   0  0  0  0  0  0  0  0  0  0  0  0
    4.3273    0.3543   -0.7450 H   0  0  0  0  0  0  0  0  0  0  0  0
    4.1831    0.3146    1.0294 H   0  0  0  0  0  0  0  0  0  0  0  0
   -5.0393    0.1734    2.0269 H   0  0  0  0  0  0  0  0  0  0  0  0
   -4.8335    0.2319   -2.2435 H   0  0  0  0  0  0  0  0  0  0  0  0
   -6.7106   -0.4251    3.5699 H   0  0  0  0  0  0  0  0  0  0  0  0
   -6.2343    1.3207    3.5588 H   0  0  0  0  0  0  0  0  0  0  0  0
   -7.8037    0.8180    4.1908 H   0  0  0  0  0  0  0  0  0  0  0  0
   -9.2179    1.2579   -2.7802 H   0  0  0  0  0  0  0  0  0  0  0  0
   -8.1348    2.6545   -2.3785 H   0  0  0  0  0  0  0  0  0  0  0  0
   -8.2122    1.9977   -4.0156 H   0  0  0  0  0  0  0  0  0  0  0  0
   -9.8034    0.1717    1.2324 H   0  0  0  0  0  0  0  0  0  0  0  0
   -9.5632    1.9751    1.2706 H   0  0  0  0  0  0  0  0  0  0  0  0
  -10.7868    1.2402    0.2427 H   0  0  0  0  0  0  0  0  0  0  0  0
  1  2  2  0  0  0  0
  1  3  1  0  0  0  0
  1  4  1  0  0  0  0
  2  5  1  0  0  0  0
  2  6  1  0  0  0  0
  3  7  2  0  0  0  0
  3  8  1  0  0  0  0
  4  9  1  0  0  0  0
  4 10  2  0  0  0  0
  5 11  2  0  0  0  0
  5 12  1  0  0  0  0
  6 13  1  0  0  0  0
  7 11  1  0  0  0  0
  7 29  1  0  0  0  0
  8 14  1  0  0  0  0
  9 15  1  0  0  0  0
  9 14  2  0  0  0  0
 11 16  1  0  0  0  0
 12 17  1  0  0  0  0
 13 30  1  0  0  0  0
 13 31  1  0  0  0  0
 13 32  1  0  0  0  0
 14 33  1  0  0  0  0
 15 18  2  0  0  0  0
 15 19  1  0  0  0  0
 16 17  1  0  0  0  0
 17 34  1  0  0  0  0
 17 35  1  0  0  0  0
 18 20  1  0  0  0  0
 18 36  1  0  0  0  0
 19 21  2  0  0  0  0
 19 37  1  0  0  0  0
 20 22  2  0  0  0  0
 20 23  1  0  0  0  0
 21 24  1  0  0  0  0
 21 22  1  0  0  0  0
 22 25  1  0  0  0  0
 23 26  1  0  0  0  0
 24 27  1  0  0  0  0
 25 28  1  0  0  0  0
 26 38  1  0  0  0  0
 26 39  1  0  0  0  0
 26 40  1  0  0  0  0
 27 41  1  0  0  0  0
 27 42  1  0  0  0  0
 27 43  1  0  0  0  0
 28 44  1  0  0  0  0
 28 45  1  0  0  0  0
 28 46  1  0  0  0  0
M  END
>  <Mol_ID>
4344

>  <Formula>
C20H18O8

>  <MolWeight>
386.35212

>  <Cat>
S9053

>  <Name>
Irisflorentin

>  <Synonyms>
FI73921

>  <Target>
Immunology & Inflammation related

>  <Form>
free base

>  <CAS>
41743-73-1

>  <URL>
https://www.selleckchem.com/products/irisflorentin.html

$$$$
