S9056 Tuberostemonine.cdx
 OpenBabel08302521043D

 60 64  0  0  0  0  0  0  0  0999 V2000
   -3.7068   -0.8398    0.8710 C   0  0  0  0  0  0  0  0  0  0  0  0
   -3.3113    0.4378    0.6439 O   0  0  0  0  0  0  0  0  0  0  0  0
   -2.5292   -1.5997    1.4421 C   0  0  2  0  0  0  0  0  0  0  0  0
   -1.3798   -0.9588    0.6458 C   0  0  3  0  0  0  0  0  0  0  0  0
   -1.9010    0.4618    0.4265 C   0  0  3  0  0  0  0  0  0  0  0  0
   -1.1642    1.6332    1.1545 C   0  0  3  0  0  0  0  0  0  0  0  0
    0.1103   -1.0512    1.1189 C   0  0  3  0  0  0  0  0  0  0  0  0
    1.5867   -1.1786   -0.8560 C   0  0  3  0  0  0  0  0  0  0  0  0
    0.9331   -2.0537    0.2366 C   0  0  0  0  0  0  0  0  0  0  0  0
    0.3084    1.6112    0.6223 C   0  0  3  0  0  0  0  0  0  0  0  0
    1.0147    0.2602    1.0129 C   0  0  3  0  0  0  0  0  0  0  0  0
    2.0279   -0.1069    0.0204 N   0  0  3  0  0  0  0  0  0  0  0  0
    1.2277    2.8262    0.8919 C   0  0  0  0  0  0  0  0  0  0  0  0
    3.3189    0.4827   -0.2015 C   0  0  0  0  0  0  0  0  0  0  0  0
    2.5403    2.8566    0.0813 C   0  0  0  0  0  0  0  0  0  0  0  0
    3.5581    1.8072    0.5066 C   0  0  0  0  0  0  0  0  0  0  0  0
   -4.8436   -1.2455    0.6902 O   0  0  0  0  0  0  0  0  0  0  0  0
   -2.7567   -3.0965    1.2606 C   0  0  0  0  0  0  0  0  0  0  0  0
   -2.0664    2.8791    0.8919 C   0  0  0  0  0  0  0  0  0  0  0  0
   -1.6529    4.2738    1.3133 C   0  0  0  0  0  0  0  0  0  0  0  0
    0.5374   -0.6616   -1.8343 C   0  0  3  0  0  0  0  0  0  0  0  0
   -0.2117   -1.6826   -2.4640 O   0  0  0  0  0  0  0  0  0  0  0  0
   -1.2480   -1.0054   -3.0436 C   0  0  0  0  0  0  0  0  0  0  0  0
   -0.7887    0.3971   -3.3905 C   0  0  3  0  0  0  0  0  0  0  0  0
    0.6749    0.4066   -2.8934 C   0  0  0  0  0  0  0  0  0  0  0  0
   -0.9462    0.6166   -4.8708 C   0  0  0  0  0  0  0  0  0  0  0  0
   -2.3686   -1.4608   -3.1778 O   0  0  0  0  0  0  0  0  0  0  0  0
   -2.4808   -1.3479    2.5053 H   0  0  0  0  0  0  0  0  0  0  0  0
   -1.4538   -1.4855   -0.3134 H   0  0  0  0  0  0  0  0  0  0  0  0
   -1.8335    0.6893   -0.6421 H   0  0  0  0  0  0  0  0  0  0  0  0
   -1.1594    1.4531    2.2366 H   0  0  0  0  0  0  0  0  0  0  0  0
    0.1242   -1.4274    2.1496 H   0  0  0  0  0  0  0  0  0  0  0  0
    2.4029   -1.7165   -1.3561 H   0  0  0  0  0  0  0  0  0  0  0  0
    0.3410   -2.8761   -0.1759 H   0  0  0  0  0  0  0  0  0  0  0  0
    1.7243   -2.5130    0.8534 H   0  0  0  0  0  0  0  0  0  0  0  0
    0.1915    1.6553   -0.4607 H   0  0  0  0  0  0  0  0  0  0  0  0
    1.4921    0.3824    1.9960 H   0  0  0  0  0  0  0  0  0  0  0  0
    0.7145    3.7343    0.5853 H   0  0  0  0  0  0  0  0  0  0  0  0
    1.4475    2.9239    1.9607 H   0  0  0  0  0  0  0  0  0  0  0  0
    3.4623    0.6378   -1.2816 H   0  0  0  0  0  0  0  0  0  0  0  0
    4.1095   -0.2174    0.0990 H   0  0  0  0  0  0  0  0  0  0  0  0
    2.3287    2.7602   -0.9927 H   0  0  0  0  0  0  0  0  0  0  0  0
    3.0016    3.8424    0.2020 H   0  0  0  0  0  0  0  0  0  0  0  0
    4.5636    2.1570    0.2344 H   0  0  0  0  0  0  0  0  0  0  0  0
    3.5621    1.6815    1.5947 H   0  0  0  0  0  0  0  0  0  0  0  0
   -1.9745   -3.6793    1.7547 H   0  0  0  0  0  0  0  0  0  0  0  0
   -3.7175   -3.3922    1.7019 H   0  0  0  0  0  0  0  0  0  0  0  0
   -2.7989   -3.3898    0.2056 H   0  0  0  0  0  0  0  0  0  0  0  0
   -2.3457    2.9198   -0.1697 H   0  0  0  0  0  0  0  0  0  0  0  0
   -3.0053    2.6923    1.4331 H   0  0  0  0  0  0  0  0  0  0  0  0
   -1.0039    4.7445    0.5718 H   0  0  0  0  0  0  0  0  0  0  0  0
   -2.5470    4.9094    1.3584 H   0  0  0  0  0  0  0  0  0  0  0  0
   -1.1815    4.2887    2.2984 H   0  0  0  0  0  0  0  0  0  0  0  0
   -0.1639   -0.1912   -1.1773 H   0  0  0  0  0  0  0  0  0  0  0  0
   -1.4013    1.1088   -2.8168 H   0  0  0  0  0  0  0  0  0  0  0  0
    0.9307    1.3929   -2.4719 H   0  0  0  0  0  0  0  0  0  0  0  0
    1.3807    0.1583   -3.6587 H   0  0  0  0  0  0  0  0  0  0  0  0
   -1.9619    0.3679   -5.1849 H   0  0  0  0  0  0  0  0  0  0  0  0
   -0.7369    1.6560   -5.1322 H   0  0  0  0  0  0  0  0  0  0  0  0
   -0.2571   -0.0334   -5.4193 H   0  0  0  0  0  0  0  0  0  0  0  0
  1 17  2  0  0  0  0
  1  2  1  0  0  0  0
  1  3  1  0  0  0  0
  3 28  1  1  0  0  0
  3 18  1  0  0  0  0
  4  3  1  0  0  0  0
  4  5  1  0  0  0  0
  4  7  1  0  0  0  0
  4 29  1  0  0  0  0
  5  2  1  0  0  0  0
  5  6  1  0  0  0  0
  5 30  1  0  0  0  0
  6 19  1  0  0  0  0
  6 10  1  0  0  0  0
  6 31  1  0  0  0  0
  7  9  1  0  0  0  0
  7 11  1  0  0  0  0
  7 32  1  0  0  0  0
  8  9  1  0  0  0  0
  8 21  1  0  0  0  0
  8 33  1  0  0  0  0
  9 34  1  0  0  0  0
  9 35  1  0  0  0  0
 10 11  1  0  0  0  0
 10 13  1  0  0  0  0
 10 36  1  0  0  0  0
 11 12  1  0  0  0  0
 11 37  1  0  0  0  0
 12  8  1  0  0  0  0
 12 14  1  0  0  0  0
 13 15  1  0  0  0  0
 13 38  1  0  0  0  0
 13 39  1  0  0  0  0
 14 16  1  0  0  0  0
 14 40  1  0  0  0  0
 14 41  1  0  0  0  0
 15 16  1  0  0  0  0
 15 42  1  0  0  0  0
 15 43  1  0  0  0  0
 16 44  1  0  0  0  0
 16 45  1  0  0  0  0
 18 46  1  0  0  0  0
 18 47  1  0  0  0  0
 18 48  1  0  0  0  0
 19 20  1  0  0  0  0
 19 49  1  0  0  0  0
 19 50  1  0  0  0  0
 20 51  1  0  0  0  0
 20 52  1  0  0  0  0
 20 53  1  0  0  0  0
 21 22  1  0  0  0  0
 21 25  1  0  0  0  0
 21 54  1  0  0  0  0
 22 23  1  0  0  0  0
 23 24  1  0  0  0  0
 23 27  2  0  0  0  0
 24 25  1  0  0  0  0
 24 26  1  0  0  0  0
 24 55  1  0  0  0  0
 25 56  1  0  0  0  0
 25 57  1  0  0  0  0
 26 58  1  0  0  0  0
 26 59  1  0  0  0  0
 26 60  1  0  0  0  0
M  END
>  <Mol_ID>
4346

>  <Formula>
C22H33NO4

>  <MolWeight>
375.50172

>  <Cat>
S9056

>  <Name>
Tuberostemonine

>  <Synonyms>
FT73792

>  <Target>
Others

>  <Form>
free base

>  <CAS>
6879-01-2

>  <URL>
https://www.selleckchem.com/products/tuberostemonine.html

$$$$
