S9052 Auraptene.cdx
 OpenBabel08302521043D

 44 45  0  0  0  0  0  0  0  0999 V2000
    5.4949   -0.0507    3.1331 C   0  0  0  0  0  0  0  0  0  0  0  0
    5.4412    1.3385    3.0932 C   0  0  0  0  0  0  0  0  0  0  0  0
    4.9685   -0.7694    2.0595 C   0  0  0  0  0  0  0  0  0  0  0  0
    6.0732   -0.6955    4.3010 C   0  0  0  0  0  0  0  0  0  0  0  0
    4.8600    2.0277    2.0335 C   0  0  0  0  0  0  0  0  0  0  0  0
    5.9635    2.1227    4.1405 O   0  0  0  0  0  0  0  0  0  0  0  0
    4.3716   -0.0880    0.9896 C   0  0  0  0  0  0  0  0  0  0  0  0
    6.5426    0.0600    5.3017 C   0  0  0  0  0  0  0  0  0  0  0  0
    4.2992    1.3114    0.9809 C   0  0  0  0  0  0  0  0  0  0  0  0
    6.5195    1.5296    5.2637 C   0  0  0  0  0  0  0  0  0  0  0  0
    3.6524    1.8634   -0.0897 O   0  0  0  0  0  0  0  0  0  0  0  0
    6.9747    2.1905    6.1935 O   0  0  0  0  0  0  0  0  0  0  0  0
    3.4838    3.2872   -0.0689 C   0  0  0  0  0  0  0  0  0  0  0  0
    2.6499    3.6445   -1.2600 C   0  0  0  0  0  0  0  0  0  0  0  0
    1.5015    4.3544   -1.2834 C   0  0  0  0  0  0  0  0  0  0  0  0
    0.6793    4.5609   -2.5484 C   0  0  0  0  0  0  0  0  0  0  0  0
    0.9213    4.9839   -0.0423 C   0  0  0  0  0  0  0  0  0  0  0  0
    1.2207    3.8935   -3.8247 C   0  0  0  0  0  0  0  0  0  0  0  0
    0.3130    4.1071   -5.0035 C   0  0  0  0  0  0  0  0  0  0  0  0
    0.6531    4.6743   -6.1769 C   0  0  0  0  0  0  0  0  0  0  0  0
   -0.3665    4.8691   -7.2639 C   0  0  0  0  0  0  0  0  0  0  0  0
    2.0418    5.1586   -6.4908 C   0  0  0  0  0  0  0  0  0  0  0  0
    5.0010   -1.8562    2.0449 H   0  0  0  0  0  0  0  0  0  0  0  0
    6.0972   -1.7783    4.3562 H   0  0  0  0  0  0  0  0  0  0  0  0
    4.8535    3.1111    2.0705 H   0  0  0  0  0  0  0  0  0  0  0  0
    3.9488   -0.6521    0.1630 H   0  0  0  0  0  0  0  0  0  0  0  0
    6.9657   -0.3770    6.1989 H   0  0  0  0  0  0  0  0  0  0  0  0
    2.9979    3.5999    0.8608 H   0  0  0  0  0  0  0  0  0  0  0  0
    4.4609    3.7726   -0.1686 H   0  0  0  0  0  0  0  0  0  0  0  0
    3.0525    3.2307   -2.1801 H   0  0  0  0  0  0  0  0  0  0  0  0
   -0.3318    4.1765   -2.3538 H   0  0  0  0  0  0  0  0  0  0  0  0
    0.5780    5.6404   -2.7257 H   0  0  0  0  0  0  0  0  0  0  0  0
    0.5298    4.2170    0.6339 H   0  0  0  0  0  0  0  0  0  0  0  0
    1.6757    5.5774    0.4867 H   0  0  0  0  0  0  0  0  0  0  0  0
    0.0979    5.6653   -0.2839 H   0  0  0  0  0  0  0  0  0  0  0  0
    2.2251    4.2789   -4.0317 H   0  0  0  0  0  0  0  0  0  0  0  0
    1.3145    2.8118   -3.6675 H   0  0  0  0  0  0  0  0  0  0  0  0
   -0.7063    3.7476   -4.8675 H   0  0  0  0  0  0  0  0  0  0  0  0
   -0.4331    5.9299   -7.5263 H   0  0  0  0  0  0  0  0  0  0  0  0
   -0.0872    4.3024   -8.1572 H   0  0  0  0  0  0  0  0  0  0  0  0
   -1.3654    4.5429   -6.9557 H   0  0  0  0  0  0  0  0  0  0  0  0
    2.3451    5.9486   -5.7963 H   0  0  0  0  0  0  0  0  0  0  0  0
    2.7617    4.3349   -6.4375 H   0  0  0  0  0  0  0  0  0  0  0  0
    2.0996    5.5728   -7.5031 H   0  0  0  0  0  0  0  0  0  0  0  0
  1  2  1  0  0  0  0
  1  3  2  0  0  0  0
  1  4  1  0  0  0  0
  2  5  2  0  0  0  0
  2  6  1  0  0  0  0
  3  7  1  0  0  0  0
  3 23  1  0  0  0  0
  4  8  2  0  0  0  0
  4 24  1  0  0  0  0
  5  9  1  0  0  0  0
  5 25  1  0  0  0  0
  6 10  1  0  0  0  0
  7  9  2  0  0  0  0
  7 26  1  0  0  0  0
  8 10  1  0  0  0  0
  8 27  1  0  0  0  0
  9 11  1  0  0  0  0
 10 12  2  0  0  0  0
 11 13  1  0  0  0  0
 13 14  1  0  0  0  0
 13 28  1  0  0  0  0
 13 29  1  0  0  0  0
 14 15  2  0  0  0  0
 14 30  1  0  0  0  0
 15 16  1  0  0  0  0
 15 17  1  0  0  0  0
 16 18  1  0  0  0  0
 16 31  1  0  0  0  0
 16 32  1  0  0  0  0
 17 33  1  0  0  0  0
 17 34  1  0  0  0  0
 17 35  1  0  0  0  0
 18 19  1  0  0  0  0
 18 36  1  0  0  0  0
 18 37  1  0  0  0  0
 19 20  2  0  0  0  0
 19 38  1  0  0  0  0
 20 21  1  0  0  0  0
 20 22  1  0  0  0  0
 21 39  1  0  0  0  0
 21 40  1  0  0  0  0
 21 41  1  0  0  0  0
 22 42  1  0  0  0  0
 22 43  1  0  0  0  0
 22 44  1  0  0  0  0
M  END
>  <Mol_ID>
4343

>  <Formula>
C19H22O3

>  <MolWeight>
298.37618

>  <Cat>
S9052

>  <Name>
Auraptene

>  <Synonyms>
7-geranyloxycoumarin

>  <Target>
Immunology & Inflammation related,Interleukins,MMP

>  <Form>
free base

>  <CAS>
495-02-3

>  <URL>
https://www.selleckchem.com/products/auraptene.html

$$$$
