S9069 Jatrorrhizine chloride.cdx
 OpenBabel08302521043D

 45 48  0  0  0  0  0  0  0  0999 V2000
    0.4159   -0.1052   -0.0461 C   0  0  0  0  0  0  0  0  0  0  0  0
    1.8630   -0.4085   -0.0102 C   0  0  0  0  0  0  0  0  0  0  0  0
    0.0783    1.2014   -0.2484 N   0  3  0  0  0  0  0  0  0  0  0  0
   -0.6120   -1.0375    0.1091 C   0  0  0  0  0  0  0  0  0  0  0  0
    2.7869    0.6174    0.2509 C   0  0  0  0  0  0  0  0  0  0  0  0
    2.3914   -1.6932   -0.2294 C   0  0  0  0  0  0  0  0  0  0  0  0
   -1.2155    1.5892   -0.3107 C   0  0  0  0  0  0  0  0  0  0  0  0
    1.1197    2.2476   -0.4470 C   0  0  0  0  0  0  0  0  0  0  0  0
   -1.9556   -0.6344    0.0943 C   0  0  0  0  0  0  0  0  0  0  0  0
    2.2793    2.0064    0.4951 C   0  0  0  0  0  0  0  0  0  0  0  0
    4.1594    0.3573    0.2961 C   0  0  0  0  0  0  0  0  0  0  0  0
    3.7780   -1.9732   -0.1955 C   0  0  0  0  0  0  0  0  0  0  0  0
   -2.2892    0.7221   -0.1041 C   0  0  0  0  0  0  0  0  0  0  0  0
   -2.9725   -1.5784    0.2426 C   0  0  0  0  0  0  0  0  0  0  0  0
    4.6584   -0.9256    0.0666 C   0  0  0  0  0  0  0  0  0  0  0  0
    4.0198   -3.2904   -0.4548 O   0  0  0  0  0  0  0  0  0  0  0  0
   -3.6642    1.1218   -0.1307 C   0  0  0  0  0  0  0  0  0  0  0  0
   -4.3102   -1.1852    0.2178 C   0  0  0  0  0  0  0  0  0  0  0  0
    6.0181   -0.9719    0.1147 O   0  0  0  0  0  0  0  0  0  0  0  0
    5.3364   -3.8099   -0.4674 C   0  0  0  0  0  0  0  0  0  0  0  0
   -4.6724    0.1542    0.0364 C   0  0  0  0  0  0  0  0  0  0  0  0
   -4.0298    2.3864   -0.5275 O   0  0  0  0  0  0  0  0  0  0  0  0
   -6.0306    0.3027    0.0209 O   0  0  0  0  0  0  0  0  0  0  0  0
   -3.6276    3.4843    0.2907 C   0  0  0  0  0  0  0  0  0  0  0  0
   -6.6037    1.5986   -0.0067 C   0  0  0  0  0  0  0  0  0  0  0  0
   -0.3771   -2.0901    0.2618 H   0  0  0  0  0  0  0  0  0  0  0  0
    1.7301   -2.5296   -0.4570 H   0  0  0  0  0  0  0  0  0  0  0  0
   -1.3663    2.6331   -0.5433 H   0  0  0  0  0  0  0  0  0  0  0  0
    0.6766    3.2290   -0.2371 H   0  0  0  0  0  0  0  0  0  0  0  0
    1.4014    2.1952   -1.5002 H   0  0  0  0  0  0  0  0  0  0  0  0
    1.9655    2.0934    1.5428 H   0  0  0  0  0  0  0  0  0  0  0  0
    3.0584    2.7523    0.3078 H   0  0  0  0  0  0  0  0  0  0  0  0
    4.8668    1.1599    0.5061 H   0  0  0  0  0  0  0  0  0  0  0  0
   -2.7514   -2.6398    0.3582 H   0  0  0  0  0  0  0  0  0  0  0  0
   -5.0879   -1.9409    0.3188 H   0  0  0  0  0  0  0  0  0  0  0  0
    6.3462   -1.8753    0.1863 H   0  0  0  0  0  0  0  0  0  0  0  0
    5.9446   -3.3314   -1.2410 H   0  0  0  0  0  0  0  0  0  0  0  0
    5.7949   -3.7358    0.5235 H   0  0  0  0  0  0  0  0  0  0  0  0
    5.2747   -4.8746   -0.7112 H   0  0  0  0  0  0  0  0  0  0  0  0
   -3.2963    3.1916    1.2915 H   0  0  0  0  0  0  0  0  0  0  0  0
   -2.8342    4.0365   -0.2250 H   0  0  0  0  0  0  0  0  0  0  0  0
   -4.4682    4.1789    0.3810 H   0  0  0  0  0  0  0  0  0  0  0  0
   -6.2605    2.2072    0.8349 H   0  0  0  0  0  0  0  0  0  0  0  0
   -6.4237    2.0851   -0.9687 H   0  0  0  0  0  0  0  0  0  0  0  0
   -7.6877    1.4804    0.0977 H   0  0  0  0  0  0  0  0  0  0  0  0
  1  2  1  0  0  0  0
  1  3  1  0  0  0  0
  1  4  2  0  0  0  0
  2  5  2  0  0  0  0
  2  6  1  0  0  0  0
  3  7  2  0  0  0  0
  3  8  1  0  0  0  0
  4  9  1  0  0  0  0
  4 26  1  0  0  0  0
  5 10  1  0  0  0  0
  5 11  1  0  0  0  0
  6 12  2  0  0  0  0
  6 27  1  0  0  0  0
  7 13  1  0  0  0  0
  7 28  1  0  0  0  0
  8 10  1  0  0  0  0
  8 29  1  0  0  0  0
  8 30  1  0  0  0  0
  9 14  2  0  0  0  0
  9 13  1  0  0  0  0
 10 31  1  0  0  0  0
 10 32  1  0  0  0  0
 11 15  2  0  0  0  0
 11 33  1  0  0  0  0
 12 16  1  0  0  0  0
 12 15  1  0  0  0  0
 13 17  2  0  0  0  0
 14 18  1  0  0  0  0
 14 34  1  0  0  0  0
 15 19  1  0  0  0  0
 16 20  1  0  0  0  0
 17 21  1  0  0  0  0
 17 22  1  0  0  0  0
 18 21  2  0  0  0  0
 18 35  1  0  0  0  0
 19 36  1  0  0  0  0
 20 37  1  0  0  0  0
 20 38  1  0  0  0  0
 20 39  1  0  0  0  0
 21 23  1  0  0  0  0
 22 24  1  0  0  0  0
 23 25  1  0  0  0  0
 24 40  1  0  0  0  0
 24 41  1  0  0  0  0
 24 42  1  0  0  0  0
 25 43  1  0  0  0  0
 25 44  1  0  0  0  0
 25 45  1  0  0  0  0
M  CHG  1   3   1
M  END
>  <Mol_ID>
4357

>  <Formula>
C20H20ClNO4

>  <MolWeight>
373.8301

>  <Cat>
S9069

>  <Name>
Jatrorrhizine chloride

>  <Synonyms>
Neprotine chloride, Yatrorhizine chloride

>  <Target>
AChR

>  <Form>
Chloride salt

>  <CAS>
6681-15-8

>  <URL>
https://www.selleckchem.com/products/jatrorrhizine-chloride.html

$$$$
