S9062 4-Hydroxyisoleucine.cdx
 OpenBabel08302521383D

 23 22  0  0  0  0  0  0  0  0999 V2000
    1.0582   -1.8265   -1.7190 C   0  0  0  0  0  0  0  0  0  0  0  0
    1.1519   -3.6903   -0.1311 N   0  0  0  0  0  0  0  0  0  0  0  0
    0.2266   -2.7437   -0.8090 C   0  0  1  0  0  0  0  0  0  0  0  0
   -0.6495   -1.8850    0.1459 C   0  0  2  0  0  0  0  0  0  0  0  0
    0.1583   -0.8458    0.9709 C   0  0  3  0  0  0  0  0  0  0  0  0
   -0.7041    0.0631    1.8412 C   0  0  0  0  0  0  0  0  0  0  0  0
   -1.5327   -2.7890    1.0185 C   0  0  0  0  0  0  0  0  0  0  0  0
    0.6355   -1.2590   -2.7144 O   0  0  0  0  0  0  0  0  0  0  0  0
    2.3271   -1.6845   -1.2528 O   0  0  0  0  0  0  0  0  0  0  0  0
    1.1377   -1.4734    1.7918 O   0  0  0  0  0  0  0  0  0  0  0  0
    0.6046   -4.3486    0.4246 H   0  0  0  0  0  0  0  0  0  0  0  0
    1.6033   -4.2682   -0.8483 H   0  0  0  0  0  0  0  0  0  0  0  0
   -0.4199   -3.3422   -1.4640 H   0  0  0  0  0  0  0  0  0  0  0  0
   -1.3330   -1.3048   -0.4912 H   0  0  0  0  0  0  0  0  0  0  0  0
    0.7040   -0.1923    0.2827 H   0  0  0  0  0  0  0  0  0  0  0  0
   -1.2019   -0.4907    2.6430 H   0  0  0  0  0  0  0  0  0  0  0  0
   -0.0747    0.8119    2.3357 H   0  0  0  0  0  0  0  0  0  0  0  0
   -1.4574    0.5851    1.2442 H   0  0  0  0  0  0  0  0  0  0  0  0
   -2.2618   -2.2044    1.5869 H   0  0  0  0  0  0  0  0  0  0  0  0
   -2.1028   -3.4857    0.3931 H   0  0  0  0  0  0  0  0  0  0  0  0
   -0.9464   -3.3770    1.7309 H   0  0  0  0  0  0  0  0  0  0  0  0
    2.3749   -2.1970   -0.4046 H   0  0  0  0  0  0  0  0  0  0  0  0
    0.6811   -1.9392    2.5127 H   0  0  0  0  0  0  0  0  0  0  0  0
  1  3  1  0  0  0  0
  1  8  2  0  0  0  0
  1  9  1  0  0  0  0
  2 11  1  0  0  0  0
  2 12  1  0  0  0  0
  3  2  1  0  0  0  0
  3 13  1  6  0  0  0
  4  7  1  0  0  0  0
  4 14  1  6  0  0  0
  4  5  1  0  0  0  0
  4  3  1  0  0  0  0
  5  6  1  0  0  0  0
  5 10  1  0  0  0  0
  5 15  1  0  0  0  0
  6 16  1  0  0  0  0
  6 17  1  0  0  0  0
  6 18  1  0  0  0  0
  7 19  1  0  0  0  0
  7 20  1  0  0  0  0
  7 21  1  0  0  0  0
  9 22  1  0  0  0  0
 10 23  1  0  0  0  0
M  END
>  <Mol_ID>
7870

>  <Formula>
C6H13NO3

>  <MolWeight>
147.17232

>  <Cat>
S9062

>  <Name>
4-Hydroxyisoleucine

>  <Synonyms>
(2S, 3R)-2-Amino-4-hydroxy-3-methylpentanoic acid

>  <Target>
Others

>  <Form>
free base

>  <CAS>
781658-23-9

>  <URL>
https://www.selleckchem.com/products/4-hydroxyisoleucine.html

$$$$
