S9065 Songorine.cdx
 OpenBabel08302521043D

 57 62  0  0  0  0  0  0  0  0999 V2000
    0.0394    0.4873   -0.6884 C   0  0  2  0  0  0  0  0  0  0  0  0
   -0.0329   -0.4121    0.5897 C   0  0  3  0  0  0  0  0  0  0  0  0
   -1.3370   -0.7739   -0.1695 C   0  0  3  0  0  0  0  0  0  0  0  0
   -2.4030    0.2366    0.4206 C   0  0  3  0  0  0  0  0  0  0  0  0
   -2.4284    1.3414   -0.6391 C   0  0  0  0  0  0  0  0  0  0  0  0
   -1.0020    1.5503   -1.0343 N   0  0  0  0  0  0  0  0  0  0  0  0
   -3.4321   -0.7916    0.7633 C   0  0  0  0  0  0  0  0  0  0  0  0
   -2.5357   -1.8440    1.5328 C   0  0  0  0  0  0  0  0  0  0  0  0
   -0.8711   -1.4152    1.7331 C   0  0  3  0  0  0  0  0  0  0  0  0
   -0.8896   -1.7791   -1.1607 C   0  0  0  0  0  0  0  0  0  0  0  0
   -0.1889   -2.6644    1.9479 O   0  0  0  0  0  0  0  0  0  0  0  0
   -2.1762    1.0474    1.7567 C   0  0  0  0  0  0  0  0  0  0  0  0
   -0.5236    2.9218   -0.8164 C   0  0  0  0  0  0  0  0  0  0  0  0
    0.0971    3.4001   -2.1204 C   0  0  0  0  0  0  0  0  0  0  0  0
    1.5469   -1.0232    0.3380 C   0  0  3  0  0  0  0  0  0  0  0  0
    1.6297   -1.7870   -0.9559 C   0  0  3  0  0  0  0  0  0  0  0  0
    3.2494   -1.7922   -1.3596 C   0  0  0  0  0  0  0  0  0  0  0  0
    3.0299   -1.1135   -2.6322 C   0  0  3  0  0  0  0  0  0  0  0  0
    2.8655    0.3123   -1.8282 C   0  0  0  0  0  0  0  0  0  0  0  0
    2.6302    0.2139   -0.1002 C   0  0  0  0  0  0  0  0  0  0  0  0
    2.0098   -2.2826   -3.0304 C   0  0  0  0  0  0  0  0  0  0  0  0
    1.4709   -3.0565   -1.7451 C   0  0  3  0  0  0  0  0  0  0  0  0
    1.4075   -2.4260   -4.2227 C   0  0  0  0  0  0  0  0  0  0  0  0
    2.2510   -4.1222   -1.2377 O   0  0  0  0  0  0  0  0  0  0  0  0
    3.0205    1.3952   -2.3987 O   0  0  0  0  0  0  0  0  0  0  0  0
    0.3288   -0.8865   -1.5824 C   0  0  3  0  0  0  0  0  0  0  0  0
    0.9050    1.1041   -0.7808 H   0  0  0  0  0  0  0  0  0  0  0  0
   -1.7624   -0.4520   -1.1389 H   0  0  0  0  0  0  0  0  0  0  0  0
   -2.9933    1.0441   -1.5312 H   0  0  0  0  0  0  0  0  0  0  0  0
   -2.9172    2.2579   -0.2918 H   0  0  0  0  0  0  0  0  0  0  0  0
   -4.2537   -0.4059    1.3767 H   0  0  0  0  0  0  0  0  0  0  0  0
   -3.8829   -1.2327   -0.1367 H   0  0  0  0  0  0  0  0  0  0  0  0
   -2.9772   -2.0696    2.5097 H   0  0  0  0  0  0  0  0  0  0  0  0
   -2.5795   -2.7910    0.9713 H   0  0  0  0  0  0  0  0  0  0  0  0
   -0.8104   -0.8978    2.6956 H   0  0  0  0  0  0  0  0  0  0  0  0
   -0.6757   -2.7059   -0.6173 H   0  0  0  0  0  0  0  0  0  0  0  0
   -1.5561   -2.0491   -1.9919 H   0  0  0  0  0  0  0  0  0  0  0  0
   -0.7657   -3.2170    2.5075 H   0  0  0  0  0  0  0  0  0  0  0  0
   -1.1613    1.4341    1.8687 H   0  0  0  0  0  0  0  0  0  0  0  0
   -2.8605    1.9030    1.8075 H   0  0  0  0  0  0  0  0  0  0  0  0
   -2.4199    0.4743    2.6594 H   0  0  0  0  0  0  0  0  0  0  0  0
   -1.3353    3.6096   -0.5578 H   0  0  0  0  0  0  0  0  0  0  0  0
    0.1973    2.9904    0.0115 H   0  0  0  0  0  0  0  0  0  0  0  0
   -0.5696    3.1920   -2.9646 H   0  0  0  0  0  0  0  0  0  0  0  0
    0.2830    4.4766   -2.0923 H   0  0  0  0  0  0  0  0  0  0  0  0
    1.0471    2.8998   -2.3159 H   0  0  0  0  0  0  0  0  0  0  0  0
    1.9456   -1.5202    1.2270 H   0  0  0  0  0  0  0  0  0  0  0  0
    3.7654   -2.7504   -1.5411 H   0  0  0  0  0  0  0  0  0  0  0  0
    4.0003   -1.3771   -0.6871 H   0  0  0  0  0  0  0  0  0  0  0  0
    3.9104   -1.0915   -3.2801 H   0  0  0  0  0  0  0  0  0  0  0  0
    2.3610    1.1926    0.3101 H   0  0  0  0  0  0  0  0  0  0  0  0
    3.6139    0.0458    0.3620 H   0  0  0  0  0  0  0  0  0  0  0  0
    0.4815   -3.4882   -1.9443 H   0  0  0  0  0  0  0  0  0  0  0  0
    0.5951   -3.1421   -4.3398 H   0  0  0  0  0  0  0  0  0  0  0  0
    1.6217   -1.7747   -5.0604 H   0  0  0  0  0  0  0  0  0  0  0  0
    2.3283   -4.0104   -0.2735 H   0  0  0  0  0  0  0  0  0  0  0  0
    0.3269   -0.6309   -2.6425 H   0  0  0  0  0  0  0  0  0  0  0  0
  1  6  1  0  0  0  0
  1 27  1  1  0  0  0
  2  9  1  0  0  0  0
  2  1  1  0  0  0  0
  2  3  1  0  0  0  0
  2 15  1  0  0  0  0
  3 10  1  0  0  0  0
  3 28  1  0  0  0  0
  4  5  1  0  0  0  0
  4  7  1  0  0  0  0
  4  3  1  0  0  0  0
  4 12  1  0  0  0  0
  5 29  1  0  0  0  0
  5 30  1  0  0  0  0
  6 13  1  0  0  0  0
  6  5  1  0  0  0  0
  7  8  1  0  0  0  0
  7 31  1  0  0  0  0
  7 32  1  0  0  0  0
  8  9  1  0  0  0  0
  8 33  1  0  0  0  0
  8 34  1  0  0  0  0
  9 11  1  0  0  0  0
  9 35  1  0  0  0  0
 10 36  1  0  0  0  0
 10 37  1  0  0  0  0
 11 38  1  0  0  0  0
 12 39  1  0  0  0  0
 12 40  1  0  0  0  0
 12 41  1  0  0  0  0
 13 14  1  0  0  0  0
 13 42  1  0  0  0  0
 13 43  1  0  0  0  0
 14 44  1  0  0  0  0
 14 45  1  0  0  0  0
 14 46  1  0  0  0  0
 15 20  1  0  0  0  0
 15 47  1  0  0  0  0
 16 15  1  0  0  0  0
 16 17  1  0  0  0  0
 16 26  1  0  0  0  0
 16 22  1  0  0  0  0
 17 18  1  0  0  0  0
 17 48  1  0  0  0  0
 17 49  1  0  0  0  0
 18 19  1  0  0  0  0
 18 21  1  0  0  0  0
 18 50  1  0  0  0  0
 19 20  1  0  0  0  0
 19 25  2  0  0  0  0
 20 51  1  0  0  0  0
 20 52  1  0  0  0  0
 21 22  1  0  0  0  0
 21 23  2  0  0  0  0
 22 24  1  0  0  0  0
 22 53  1  0  0  0  0
 23 54  1  0  0  0  0
 23 55  1  0  0  0  0
 24 56  1  0  0  0  0
 26 10  1  0  0  0  0
 26  1  1  0  0  0  0
 26 57  1  0  0  0  0
M  END
>  <Mol_ID>
4354

>  <Formula>
C22H31NO3

>  <MolWeight>
357.48644

>  <Cat>
S9065

>  <Name>
Songorine

>  <Synonyms>
FS145273

>  <Target>
ADC Cytotoxin,GABA Receptor

>  <Form>
free base

>  <CAS>
509-24-0

>  <URL>
https://www.selleckchem.com/products/songorine.html

$$$$
