S9078 Epigoitrin.cdx
 OpenBabel08302521043D

 15 15  0  0  0  0  0  0  0  0999 V2000
   -1.9242    0.7683   -0.0583 C   0  0  1  0  0  0  0  0  0  0  0  0
   -0.5216    1.0997    0.0022 O   0  0  0  0  0  0  0  0  0  0  0  0
   -1.9641   -0.7422    0.1543 C   0  0  0  0  0  0  0  0  0  0  0  0
   -2.7194    1.5491    0.9536 C   0  0  0  0  0  0  0  0  0  0  0  0
    0.1854   -0.0527   -0.1160 C   0  0  0  0  0  0  0  0  0  0  0  0
   -0.6332   -1.1402   -0.1695 N   0  0  0  0  0  0  0  0  0  0  0  0
   -2.2253    2.4503    1.8170 C   0  0  0  0  0  0  0  0  0  0  0  0
    1.8283   -0.0389   -0.1394 S   0  0  0  0  0  0  0  0  0  0  0  0
   -2.2756    1.0234   -1.0656 H   0  0  0  0  0  0  0  0  0  0  0  0
   -2.6813   -1.2474   -0.4978 H   0  0  0  0  0  0  0  0  0  0  0  0
   -2.1574   -1.0250    1.1946 H   0  0  0  0  0  0  0  0  0  0  0  0
   -3.7921    1.3691    0.9603 H   0  0  0  0  0  0  0  0  0  0  0  0
   -0.2595   -2.0780   -0.0911 H   0  0  0  0  0  0  0  0  0  0  0  0
   -2.8720    2.9758    2.5116 H   0  0  0  0  0  0  0  0  0  0  0  0
   -1.1658    2.6886    1.8459 H   0  0  0  0  0  0  0  0  0  0  0  0
  1  2  1  0  0  0  0
  1  3  1  0  0  0  0
  1  9  1  6  0  0  0
  1  4  1  0  0  0  0
  2  5  1  0  0  0  0
  3  6  1  0  0  0  0
  3 10  1  0  0  0  0
  3 11  1  0  0  0  0
  4  7  2  0  0  0  0
  4 12  1  0  0  0  0
  5  8  2  0  0  0  0
  5  6  1  0  0  0  0
  6 13  1  0  0  0  0
  7 14  1  0  0  0  0
  7 15  1  0  0  0  0
M  END
>  <Mol_ID>
4364

>  <Formula>
C5H7NOS

>  <MolWeight>
129.18018

>  <Cat>
S9078

>  <Name>
Epigoitrin

>  <Synonyms>
Goitrin, BA-51-090278

>  <Target>
Antiviral

>  <Form>
free base

>  <CAS>
1072-93-1

>  <URL>
https://www.selleckchem.com/products/epigoitrin.html

$$$$
