S9071 Nootkatone.cdx
 OpenBabel08302521043D

 38 39  0  0  0  0  0  0  0  0999 V2000
    0.0763   -0.4122   -0.4913 C   0  0  1  0  0  0  0  0  0  0  0  0
    0.1881    0.8888    0.3098 C   0  0  0  0  0  0  0  0  0  0  0  0
    1.0999   -1.4358    0.0839 C   0  0  0  0  0  0  0  0  0  0  0  0
   -1.3600   -1.0403   -0.3498 C   0  0  1  0  0  0  0  0  0  0  0  0
    0.4005   -0.0877   -1.9674 C   0  0  0  0  0  0  0  0  0  0  0  0
   -0.8750    1.5694    0.7644 C   0  0  0  0  0  0  0  0  0  0  0  0
    1.5858    1.4386    0.5248 C   0  0  0  0  0  0  0  0  0  0  0  0
    2.5417   -0.9014    0.1616 C   0  0  1  0  0  0  0  0  0  0  0  0
   -2.4754    0.0002   -0.4836 C   0  0  0  0  0  0  0  0  0  0  0  0
   -1.6380   -2.2002   -1.3177 C   0  0  0  0  0  0  0  0  0  0  0  0
   -2.2617    1.1584    0.4529 C   0  0  0  0  0  0  0  0  0  0  0  0
    2.5982    0.3898    0.9920 C   0  0  0  0  0  0  0  0  0  0  0  0
    3.5089   -1.9593    0.6795 C   0  0  0  0  0  0  0  0  0  0  0  0
   -3.1989    1.8243    0.8916 O   0  0  0  0  0  0  0  0  0  0  0  0
    3.2785   -2.5590    2.0416 C   0  0  0  0  0  0  0  0  0  0  0  0
    4.5465   -2.3810   -0.0680 C   0  0  0  0  0  0  0  0  0  0  0  0
    1.0945   -2.3529   -0.5160 H   0  0  0  0  0  0  0  0  0  0  0  0
    0.7778   -1.7284    1.0950 H   0  0  0  0  0  0  0  0  0  0  0  0
   -1.4436   -1.4538    0.6670 H   0  0  0  0  0  0  0  0  0  0  0  0
    0.4659   -0.9947   -2.5757 H   0  0  0  0  0  0  0  0  0  0  0  0
   -0.3596    0.5664   -2.4077 H   0  0  0  0  0  0  0  0  0  0  0  0
    1.3583    0.4299   -2.0834 H   0  0  0  0  0  0  0  0  0  0  0  0
   -0.7842    2.4957    1.3256 H   0  0  0  0  0  0  0  0  0  0  0  0
    1.9359    1.8814   -0.4150 H   0  0  0  0  0  0  0  0  0  0  0  0
    1.5750    2.2554    1.2571 H   0  0  0  0  0  0  0  0  0  0  0  0
    2.8526   -0.6444   -0.8595 H   0  0  0  0  0  0  0  0  0  0  0  0
   -3.4350   -0.4646   -0.2262 H   0  0  0  0  0  0  0  0  0  0  0  0
   -2.5530    0.3868   -1.5073 H   0  0  0  0  0  0  0  0  0  0  0  0
   -0.9319   -3.0238   -1.1765 H   0  0  0  0  0  0  0  0  0  0  0  0
   -2.6442   -2.6046   -1.1558 H   0  0  0  0  0  0  0  0  0  0  0  0
   -1.5892   -1.8803   -2.3636 H   0  0  0  0  0  0  0  0  0  0  0  0
    3.6052    0.8217    0.9273 H   0  0  0  0  0  0  0  0  0  0  0  0
    2.4173    0.1838    2.0519 H   0  0  0  0  0  0  0  0  0  0  0  0
    2.6870   -3.4763    1.9559 H   0  0  0  0  0  0  0  0  0  0  0  0
    4.2277   -2.8022    2.5324 H   0  0  0  0  0  0  0  0  0  0  0  0
    2.7454   -1.8762    2.7066 H   0  0  0  0  0  0  0  0  0  0  0  0
    4.7352   -1.9866   -1.0605 H   0  0  0  0  0  0  0  0  0  0  0  0
    5.2280   -3.1460    0.2913 H   0  0  0  0  0  0  0  0  0  0  0  0
  1  2  1  0  0  0  0
  1  3  1  0  0  0  0
  1  4  1  0  0  0  0
  1  5  1  6  0  0  0
  2  6  2  0  0  0  0
  2  7  1  0  0  0  0
  3  8  1  0  0  0  0
  3 17  1  0  0  0  0
  3 18  1  0  0  0  0
  4  9  1  0  0  0  0
  4 19  1  1  0  0  0
  4 10  1  0  0  0  0
  5 20  1  0  0  0  0
  5 21  1  0  0  0  0
  5 22  1  0  0  0  0
  6 11  1  0  0  0  0
  6 23  1  0  0  0  0
  7 12  1  0  0  0  0
  7 24  1  0  0  0  0
  7 25  1  0  0  0  0
  8 12  1  0  0  0  0
  8 26  1  6  0  0  0
  8 13  1  0  0  0  0
  9 11  1  0  0  0  0
  9 27  1  0  0  0  0
  9 28  1  0  0  0  0
 10 29  1  0  0  0  0
 10 30  1  0  0  0  0
 10 31  1  0  0  0  0
 11 14  2  0  0  0  0
 12 32  1  0  0  0  0
 12 33  1  0  0  0  0
 13 15  1  0  0  0  0
 13 16  2  0  0  0  0
 15 34  1  0  0  0  0
 15 35  1  0  0  0  0
 15 36  1  0  0  0  0
 16 37  1  0  0  0  0
 16 38  1  0  0  0  0
M  END
>  <Mol_ID>
4359

>  <Formula>
C15H22O

>  <MolWeight>
218.33458

>  <Cat>
S9071

>  <Name>
Nootkatone

>  <Target>
Immunology & Inflammation related

>  <Form>
free base

>  <CAS>
4674-50-4

>  <URL>
https://www.selleckchem.com/products/nootkatone.html

$$$$
