S9072 Sweroside.cdx
 OpenBabel08302521043D

 47 49  0  0  0  0  0  0  0  0999 V2000
   -8.0489   -0.8549   -1.0040 C   0  0  0  0  0  0  0  0  0  0  0  0
   -7.1745    3.4330   -0.6951 C   0  0  1  0  0  0  0  0  0  0  0  0
   -8.3632    4.4087   -0.8914 C   0  0  1  0  0  0  0  0  0  0  0  0
   -8.2312    5.6104    0.0623 C   0  0  2  0  0  0  0  0  0  0  0  0
   -7.0495    3.1026    0.6805 O   0  0  0  0  0  0  0  0  0  0  0  0
   -6.3731    1.3059   -1.5164 C   0  0  2  0  0  0  0  0  0  0  0  0
   -7.6404   -0.5664   -2.2499 C   0  0  0  0  0  0  0  0  0  0  0  0
   -7.4469   -0.1806    0.1849 C   0  0  2  0  0  0  0  0  0  0  0  0
   -7.9538    5.1581    1.5043 C   0  0  1  0  0  0  0  0  0  0  0  0
   -7.4474    2.2520   -1.4400 O   0  0  0  0  0  0  0  0  0  0  0  0
   -9.0947   -1.8825   -0.8286 C   0  0  0  0  0  0  0  0  0  0  0  0
   -6.7519    4.2159    1.5218 C   0  0  1  0  0  0  0  0  0  0  0  0
   -6.6903    0.3730   -2.5786 O   0  0  0  0  0  0  0  0  0  0  0  0
   -6.1257    0.5394   -0.1861 C   0  0  1  0  0  0  0  0  0  0  0  0
   -9.2094   -2.4176    0.4118 O   0  0  0  0  0  0  0  0  0  0  0  0
   -4.8944   -0.3516   -0.2559 C   0  0  0  0  0  0  0  0  0  0  0  0
   -9.7966   -2.2679   -1.7527 O   0  0  0  0  0  0  0  0  0  0  0  0
   -8.4655    4.8523   -2.2542 O   0  0  0  0  0  0  0  0  0  0  0  0
   -9.4245    6.4053    0.0483 O   0  0  0  0  0  0  0  0  0  0  0  0
   -3.8527   -0.2258    0.5781 C   0  0  0  0  0  0  0  0  0  0  0  0
   -7.7642    6.3061    2.3367 O   0  0  0  0  0  0  0  0  0  0  0  0
   -8.6634   -1.7981    1.5883 C   0  0  0  0  0  0  0  0  0  0  0  0
   -7.3177   -1.1497    1.3474 C   0  0  0  0  0  0  0  0  0  0  0  0
   -6.4645    3.6850    2.9320 C   0  0  0  0  0  0  0  0  0  0  0  0
   -5.2719    2.8960    2.9119 O   0  0  0  0  0  0  0  0  0  0  0  0
   -6.2468    3.8830   -1.0725 H   0  0  0  0  0  0  0  0  0  0  0  0
   -9.3028    3.8843   -0.6774 H   0  0  0  0  0  0  0  0  0  0  0  0
   -7.4310    6.2759   -0.2849 H   0  0  0  0  0  0  0  0  0  0  0  0
   -5.4626    1.8282   -1.8353 H   0  0  0  0  0  0  0  0  0  0  0  0
   -8.0098   -1.0579   -3.1434 H   0  0  0  0  0  0  0  0  0  0  0  0
   -8.1651    0.5963    0.4928 H   0  0  0  0  0  0  0  0  0  0  0  0
   -8.8436    4.6374    1.8819 H   0  0  0  0  0  0  0  0  0  0  0  0
   -5.8460    4.7142    1.1515 H   0  0  0  0  0  0  0  0  0  0  0  0
   -5.9187    1.2477    0.6172 H   0  0  0  0  0  0  0  0  0  0  0  0
   -4.8754   -1.1242   -1.0235 H   0  0  0  0  0  0  0  0  0  0  0  0
   -7.6351    5.2752   -2.5205 H   0  0  0  0  0  0  0  0  0  0  0  0
   -9.4465    6.9032    0.8879 H   0  0  0  0  0  0  0  0  0  0  0  0
   -3.8338    0.5323    1.3589 H   0  0  0  0  0  0  0  0  0  0  0  0
   -2.9950   -0.8850    0.5004 H   0  0  0  0  0  0  0  0  0  0  0  0
   -6.9422    6.7566    2.0757 H   0  0  0  0  0  0  0  0  0  0  0  0
   -9.3988   -1.0755    1.9586 H   0  0  0  0  0  0  0  0  0  0  0  0
   -8.5617   -2.5798    2.3478 H   0  0  0  0  0  0  0  0  0  0  0  0
   -6.9869   -0.6249    2.2516 H   0  0  0  0  0  0  0  0  0  0  0  0
   -6.5825   -1.9313    1.1239 H   0  0  0  0  0  0  0  0  0  0  0  0
   -6.3074    4.5026    3.6410 H   0  0  0  0  0  0  0  0  0  0  0  0
   -7.2821    3.0459    3.2814 H   0  0  0  0  0  0  0  0  0  0  0  0
   -5.1921    2.4835    3.7900 H   0  0  0  0  0  0  0  0  0  0  0  0
  2 26  1  6  0  0  0
  2 10  1  0  0  0  0
  3  2  1  0  0  0  0
  3 18  1  0  0  0  0
  3 27  1  1  0  0  0
  4  3  1  0  0  0  0
  4 28  1  6  0  0  0
  4 19  1  0  0  0  0
  5  2  1  0  0  0  0
  6 14  1  0  0  0  0
  6 13  1  0  0  0  0
  6 29  1  6  0  0  0
  6 10  1  0  0  0  0
  7  1  2  0  0  0  0
  7 30  1  0  0  0  0
  8  1  1  0  0  0  0
  8 23  1  0  0  0  0
  8 31  1  1  0  0  0
  9  4  1  0  0  0  0
  9 12  1  0  0  0  0
  9 21  1  0  0  0  0
  9 32  1  1  0  0  0
 11  1  1  0  0  0  0
 12  5  1  0  0  0  0
 12 33  1  6  0  0  0
 12 24  1  0  0  0  0
 13  7  1  0  0  0  0
 14  8  1  0  0  0  0
 14 16  1  0  0  0  0
 14 34  1  1  0  0  0
 15 11  1  0  0  0  0
 16 35  1  0  0  0  0
 17 11  2  0  0  0  0
 18 36  1  0  0  0  0
 19 37  1  0  0  0  0
 20 16  2  0  0  0  0
 20 38  1  0  0  0  0
 20 39  1  0  0  0  0
 21 40  1  0  0  0  0
 22 15  1  0  0  0  0
 22 41  1  0  0  0  0
 22 42  1  0  0  0  0
 23 22  1  0  0  0  0
 23 43  1  0  0  0  0
 23 44  1  0  0  0  0
 24 45  1  0  0  0  0
 24 46  1  0  0  0  0
 25 24  1  0  0  0  0
 25 47  1  0  0  0  0
M  END
>  <Mol_ID>
4360

>  <Formula>
C16H22O9

>  <MolWeight>
358.34048

>  <Cat>
S9072

>  <Name>
Sweroside

>  <Synonyms>
FS73846

>  <Target>
Fungal,Immunology & Inflammation related

>  <Form>
free base

>  <CAS>
14215-86-2

>  <URL>
https://www.selleckchem.com/products/sweroside.html

$$$$
