S9070 Isoxanthohumol.cdx
 OpenBabel08302521043D

 48 50  0  0  0  0  0  0  0  0999 V2000
   -0.1050    0.6099    0.0145 C   0  0  0  0  0  0  0  0  0  0  0  0
   -0.0618   -0.8114   -0.1051 C   0  0  0  0  0  0  0  0  0  0  0  0
    1.0912    1.3564    0.0829 C   0  0  0  0  0  0  0  0  0  0  0  0
   -1.2940    1.3325    0.1083 O   0  0  0  0  0  0  0  0  0  0  0  0
    1.1662   -1.4887   -0.1289 C   0  0  0  0  0  0  0  0  0  0  0  0
   -1.3870   -1.4625   -0.2063 C   0  0  0  0  0  0  0  0  0  0  0  0
    2.3048    0.6626    0.0221 C   0  0  0  0  0  0  0  0  0  0  0  0
    1.0959    2.8666    0.1696 C   0  0  0  0  0  0  0  0  0  0  0  0
   -2.4651    0.6026   -0.3030 C   0  0  1  0  0  0  0  0  0  0  0  0
    2.3406   -0.7247   -0.0716 C   0  0  0  0  0  0  0  0  0  0  0  0
    1.4835   -2.8154   -0.1645 O   0  0  0  0  0  0  0  0  0  0  0  0
   -2.4966   -0.7159    0.4447 C   0  0  0  0  0  0  0  0  0  0  0  0
   -1.6173   -2.4447   -0.8991 O   0  0  0  0  0  0  0  0  0  0  0  0
    3.4801    1.3615    0.0627 O   0  0  0  0  0  0  0  0  0  0  0  0
    1.1045    3.5252   -1.1874 C   0  0  0  0  0  0  0  0  0  0  0  0
   -3.7697    1.3549   -0.0775 C   0  0  0  0  0  0  0  0  0  0  0  0
    0.5042   -3.8335   -0.0878 C   0  0  0  0  0  0  0  0  0  0  0  0
    0.1953    4.4026   -1.6527 C   0  0  0  0  0  0  0  0  0  0  0  0
   -4.6156    1.5952   -1.1770 C   0  0  0  0  0  0  0  0  0  0  0  0
   -4.2346    1.6860    1.2052 C   0  0  0  0  0  0  0  0  0  0  0  0
    0.3190    5.0138   -3.0205 C   0  0  0  0  0  0  0  0  0  0  0  0
   -0.9958    4.8410   -0.8482 C   0  0  0  0  0  0  0  0  0  0  0  0
   -5.8955    2.1232   -0.9978 C   0  0  0  0  0  0  0  0  0  0  0  0
   -5.5223    2.2083    1.3852 C   0  0  0  0  0  0  0  0  0  0  0  0
   -6.3441    2.4158    0.2815 C   0  0  0  0  0  0  0  0  0  0  0  0
   -7.6131    2.8963    0.4118 O   0  0  0  0  0  0  0  0  0  0  0  0
    0.2597    3.2021    0.7918 H   0  0  0  0  0  0  0  0  0  0  0  0
    1.9871    3.2057    0.7151 H   0  0  0  0  0  0  0  0  0  0  0  0
   -2.3684    0.4382   -1.3866 H   0  0  0  0  0  0  0  0  0  0  0  0
    3.2966   -1.2449   -0.0935 H   0  0  0  0  0  0  0  0  0  0  0  0
   -2.2869   -0.6182    1.5172 H   0  0  0  0  0  0  0  0  0  0  0  0
   -3.4370   -1.2640    0.3198 H   0  0  0  0  0  0  0  0  0  0  0  0
    4.2249    0.7419   -0.0169 H   0  0  0  0  0  0  0  0  0  0  0  0
    1.9560    3.2607   -1.8168 H   0  0  0  0  0  0  0  0  0  0  0  0
   -0.2120   -3.6628    0.7206 H   0  0  0  0  0  0  0  0  0  0  0  0
    0.0339   -3.9763   -1.0634 H   0  0  0  0  0  0  0  0  0  0  0  0
    1.0200   -4.7714    0.1402 H   0  0  0  0  0  0  0  0  0  0  0  0
   -4.2995    1.3370   -2.1863 H   0  0  0  0  0  0  0  0  0  0  0  0
   -3.6140    1.5023    2.0794 H   0  0  0  0  0  0  0  0  0  0  0  0
   -0.5550    4.7578   -3.6284 H   0  0  0  0  0  0  0  0  0  0  0  0
    0.3828    6.1041   -2.9438 H   0  0  0  0  0  0  0  0  0  0  0  0
    1.2094    4.6649   -3.5538 H   0  0  0  0  0  0  0  0  0  0  0  0
   -1.5933    3.9804   -0.5335 H   0  0  0  0  0  0  0  0  0  0  0  0
   -0.6746    5.4003    0.0367 H   0  0  0  0  0  0  0  0  0  0  0  0
   -1.6527    5.4933   -1.4320 H   0  0  0  0  0  0  0  0  0  0  0  0
   -6.5476    2.2812   -1.8526 H   0  0  0  0  0  0  0  0  0  0  0  0
   -5.8729    2.4251    2.3897 H   0  0  0  0  0  0  0  0  0  0  0  0
   -7.7982    3.0413    1.3537 H   0  0  0  0  0  0  0  0  0  0  0  0
  1  2  1  0  0  0  0
  1  3  2  0  0  0  0
  1  4  1  0  0  0  0
  2  5  2  0  0  0  0
  2  6  1  0  0  0  0
  3  7  1  0  0  0  0
  3  8  1  0  0  0  0
  4  9  1  0  0  0  0
  5 10  1  0  0  0  0
  5 11  1  0  0  0  0
  6 12  1  0  0  0  0
  6 13  2  0  0  0  0
  7 14  1  0  0  0  0
  7 10  2  0  0  0  0
  8 15  1  0  0  0  0
  8 27  1  0  0  0  0
  8 28  1  0  0  0  0
  9 12  1  0  0  0  0
  9 29  1  6  0  0  0
  9 16  1  0  0  0  0
 10 30  1  0  0  0  0
 11 17  1  0  0  0  0
 12 31  1  0  0  0  0
 12 32  1  0  0  0  0
 14 33  1  0  0  0  0
 15 18  2  0  0  0  0
 15 34  1  0  0  0  0
 16 19  2  0  0  0  0
 16 20  1  0  0  0  0
 17 35  1  0  0  0  0
 17 36  1  0  0  0  0
 17 37  1  0  0  0  0
 18 21  1  0  0  0  0
 18 22  1  0  0  0  0
 19 23  1  0  0  0  0
 19 38  1  0  0  0  0
 20 24  2  0  0  0  0
 20 39  1  0  0  0  0
 21 40  1  0  0  0  0
 21 41  1  0  0  0  0
 21 42  1  0  0  0  0
 22 43  1  0  0  0  0
 22 44  1  0  0  0  0
 22 45  1  0  0  0  0
 23 25  2  0  0  0  0
 23 46  1  0  0  0  0
 24 25  1  0  0  0  0
 24 47  1  0  0  0  0
 25 26  1  0  0  0  0
 26 48  1  0  0  0  0
M  END
>  <Mol_ID>
4358

>  <Formula>
C21H22O5

>  <MolWeight>
354.39638

>  <Cat>
S9070

>  <Name>
Isoxanthohumol

>  <Synonyms>
FI45719

>  <Target>
HSV

>  <Form>
free base

>  <CAS>
70872-29-6

>  <URL>
https://www.selleckchem.com/products/isoxanthohumol.html

$$$$
