S9086 Dihydrocapsaicin.cdx
 OpenBabel08302521043D

 51 51  0  0  0  0  0  0  0  0999 V2000
   -1.9478    0.1614    1.3962 C   0  0  0  0  0  0  0  0  0  0  0  0
   -0.8102   -0.5661    1.7877 C   0  0  0  0  0  0  0  0  0  0  0  0
   -1.8199    1.4945    0.9857 C   0  0  0  0  0  0  0  0  0  0  0  0
   -3.3035   -0.4629    1.5034 C   0  0  0  0  0  0  0  0  0  0  0  0
    0.4481    0.0227    1.7442 C   0  0  0  0  0  0  0  0  0  0  0  0
   -0.5658    2.0921    0.9481 C   0  0  0  0  0  0  0  0  0  0  0  0
   -3.3940   -1.7146    0.7935 N   0  0  0  0  0  0  0  0  0  0  0  0
    0.5515    1.3536    1.3226 C   0  0  0  0  0  0  0  0  0  0  0  0
    1.6284   -0.5817    2.0948 O   0  0  0  0  0  0  0  0  0  0  0  0
   -4.2869   -2.7182    1.0310 C   0  0  0  0  0  0  0  0  0  0  0  0
    1.7712    1.9690    1.2753 O   0  0  0  0  0  0  0  0  0  0  0  0
    1.5366   -1.9393    2.5226 C   0  0  0  0  0  0  0  0  0  0  0  0
   -5.1812   -2.6356    2.2531 C   0  0  0  0  0  0  0  0  0  0  0  0
   -4.3272   -3.6823    0.2645 O   0  0  0  0  0  0  0  0  0  0  0  0
   -6.1900   -1.4867    2.2338 C   0  0  0  0  0  0  0  0  0  0  0  0
   -7.0988   -1.5204    1.0085 C   0  0  0  0  0  0  0  0  0  0  0  0
   -7.9768   -0.2705    0.9418 C   0  0  0  0  0  0  0  0  0  0  0  0
   -8.9557   -0.3738   -0.2250 C   0  0  0  0  0  0  0  0  0  0  0  0
   -9.8871    0.8373   -0.2961 C   0  0  0  0  0  0  0  0  0  0  0  0
  -10.8921    0.7501   -1.4600 C   0  0  0  0  0  0  0  0  0  0  0  0
  -11.8229   -0.4581   -1.3346 C   0  0  0  0  0  0  0  0  0  0  0  0
  -11.7225    2.0329   -1.5327 C   0  0  0  0  0  0  0  0  0  0  0  0
   -0.9464   -1.5893    2.1265 H   0  0  0  0  0  0  0  0  0  0  0  0
   -2.6961    2.0756    0.7065 H   0  0  0  0  0  0  0  0  0  0  0  0
   -3.5252   -0.6106    2.5647 H   0  0  0  0  0  0  0  0  0  0  0  0
   -4.0620    0.1995    1.0735 H   0  0  0  0  0  0  0  0  0  0  0  0
   -0.4585    3.1253    0.6358 H   0  0  0  0  0  0  0  0  0  0  0  0
   -2.8915   -1.8079   -0.0829 H   0  0  0  0  0  0  0  0  0  0  0  0
    2.4060    1.2855    1.5674 H   0  0  0  0  0  0  0  0  0  0  0  0
    0.9673   -2.0179    3.4550 H   0  0  0  0  0  0  0  0  0  0  0  0
    1.1066   -2.5744    1.7411 H   0  0  0  0  0  0  0  0  0  0  0  0
    2.5515   -2.2959    2.7187 H   0  0  0  0  0  0  0  0  0  0  0  0
   -5.7177   -3.5883    2.3390 H   0  0  0  0  0  0  0  0  0  0  0  0
   -4.5418   -2.5638    3.1407 H   0  0  0  0  0  0  0  0  0  0  0  0
   -6.7984   -1.5412    3.1445 H   0  0  0  0  0  0  0  0  0  0  0  0
   -5.6954   -0.5150    2.2806 H   0  0  0  0  0  0  0  0  0  0  0  0
   -6.5079   -1.5836    0.0891 H   0  0  0  0  0  0  0  0  0  0  0  0
   -7.7249   -2.4207    1.0554 H   0  0  0  0  0  0  0  0  0  0  0  0
   -8.5285   -0.1526    1.8819 H   0  0  0  0  0  0  0  0  0  0  0  0
   -7.3460    0.6191    0.8209 H   0  0  0  0  0  0  0  0  0  0  0  0
   -8.4005   -0.4656   -1.1665 H   0  0  0  0  0  0  0  0  0  0  0  0
   -9.5388   -1.2917   -0.0998 H   0  0  0  0  0  0  0  0  0  0  0  0
  -10.4274    0.9402    0.6535 H   0  0  0  0  0  0  0  0  0  0  0  0
   -9.2802    1.7447   -0.4123 H   0  0  0  0  0  0  0  0  0  0  0  0
  -10.3335    0.6564   -2.3999 H   0  0  0  0  0  0  0  0  0  0  0  0
  -12.3496   -0.4543   -0.3744 H   0  0  0  0  0  0  0  0  0  0  0  0
  -12.5717   -0.4576   -2.1335 H   0  0  0  0  0  0  0  0  0  0  0  0
  -11.2711   -1.3993   -1.4173 H   0  0  0  0  0  0  0  0  0  0  0  0
  -11.0797    2.9053   -1.6896 H   0  0  0  0  0  0  0  0  0  0  0  0
  -12.4330    1.9888   -2.3651 H   0  0  0  0  0  0  0  0  0  0  0  0
  -12.2917    2.1909   -0.6102 H   0  0  0  0  0  0  0  0  0  0  0  0
  1  2  2  0  0  0  0
  1  3  1  0  0  0  0
  1  4  1  0  0  0  0
  2  5  1  0  0  0  0
  2 23  1  0  0  0  0
  3  6  2  0  0  0  0
  3 24  1  0  0  0  0
  4  7  1  0  0  0  0
  4 25  1  0  0  0  0
  4 26  1  0  0  0  0
  5  8  2  0  0  0  0
  5  9  1  0  0  0  0
  6  8  1  0  0  0  0
  6 27  1  0  0  0  0
  7 10  1  0  0  0  0
  7 28  1  0  0  0  0
  8 11  1  0  0  0  0
  9 12  1  0  0  0  0
 10 13  1  0  0  0  0
 10 14  2  0  0  0  0
 11 29  1  0  0  0  0
 12 30  1  0  0  0  0
 12 31  1  0  0  0  0
 12 32  1  0  0  0  0
 13 15  1  0  0  0  0
 13 33  1  0  0  0  0
 13 34  1  0  0  0  0
 15 16  1  0  0  0  0
 15 35  1  0  0  0  0
 15 36  1  0  0  0  0
 16 17  1  0  0  0  0
 16 37  1  0  0  0  0
 16 38  1  0  0  0  0
 17 18  1  0  0  0  0
 17 39  1  0  0  0  0
 17 40  1  0  0  0  0
 18 19  1  0  0  0  0
 18 41  1  0  0  0  0
 18 42  1  0  0  0  0
 19 20  1  0  0  0  0
 19 43  1  0  0  0  0
 19 44  1  0  0  0  0
 20 21  1  0  0  0  0
 20 22  1  0  0  0  0
 20 45  1  0  0  0  0
 21 46  1  0  0  0  0
 21 47  1  0  0  0  0
 21 48  1  0  0  0  0
 22 49  1  0  0  0  0
 22 50  1  0  0  0  0
 22 51  1  0  0  0  0
M  END
>  <Mol_ID>
4370

>  <Formula>
C18H29NO3

>  <MolWeight>
307.42776

>  <Cat>
S9086

>  <Name>
Dihydrocapsaicin

>  <Synonyms>
6,7-Dihydrocapsaicin, 8-Methyl-N-vanillylnonanamide, CCRIS1589

>  <Target>
TRP Channel

>  <Form>
free base

>  <CAS>
19408-84-5

>  <URL>
https://www.selleckchem.com/products/dihydrocapsaicin.html

$$$$
