S9080 Anhydroicaritin.cdx
 OpenBabel08302521043D

 47 49  0  0  0  0  0  0  0  0999 V2000
   -2.2834    0.3183   -0.9136 C   0  0  0  0  0  0  0  0  0  0  0  0
   -1.8786   -1.0147   -0.8866 C   0  0  0  0  0  0  0  0  0  0  0  0
   -0.6205   -1.3464   -0.3951 C   0  0  0  0  0  0  0  0  0  0  0  0
    0.2807   -0.3361   -0.0593 C   0  0  0  0  0  0  0  0  0  0  0  0
   -0.1361    1.0006   -0.0826 C   0  0  0  0  0  0  0  0  0  0  0  0
   -1.4645    1.3388   -0.4097 C   0  0  0  0  0  0  0  0  0  0  0  0
    1.6789   -0.6072    0.3251 C   0  0  0  0  0  0  0  0  0  0  0  0
    2.6198    0.5352    0.1375 C   0  0  0  0  0  0  0  0  0  0  0  0
    2.0965    1.7790    0.1383 C   0  0  0  0  0  0  0  0  0  0  0  0
    0.7289    2.0242    0.2384 O   0  0  0  0  0  0  0  0  0  0  0  0
    2.0699   -1.6961    0.7401 O   0  0  0  0  0  0  0  0  0  0  0  0
   -0.2897   -2.6642   -0.2827 O   0  0  0  0  0  0  0  0  0  0  0  0
    3.9560    0.2215   -0.0209 O   0  0  0  0  0  0  0  0  0  0  0  0
    2.9033    3.0189    0.0513 C   0  0  0  0  0  0  0  0  0  0  0  0
    2.4213    4.1152   -0.6787 C   0  0  0  0  0  0  0  0  0  0  0  0
    3.1410    5.3178   -0.7436 C   0  0  0  0  0  0  0  0  0  0  0  0
    4.3690    5.4342   -0.0970 C   0  0  0  0  0  0  0  0  0  0  0  0
    4.8665    4.3448    0.6155 C   0  0  0  0  0  0  0  0  0  0  0  0
    4.1302    3.1603    0.7147 C   0  0  0  0  0  0  0  0  0  0  0  0
    5.1720    6.5402   -0.0836 O   0  0  0  0  0  0  0  0  0  0  0  0
    4.6245    7.7374   -0.6205 C   0  0  0  0  0  0  0  0  0  0  0  0
   -3.5303    0.5440   -1.4240 O   0  0  0  0  0  0  0  0  0  0  0  0
   -2.0295    2.6953   -0.0457 C   0  0  0  0  0  0  0  0  0  0  0  0
   -2.0214    3.7556   -1.1088 C   0  0  0  0  0  0  0  0  0  0  0  0
   -1.5699    5.0214   -0.9791 C   0  0  0  0  0  0  0  0  0  0  0  0
   -1.8599    6.0491   -2.0425 C   0  0  0  0  0  0  0  0  0  0  0  0
   -0.8134    5.5577    0.2081 C   0  0  0  0  0  0  0  0  0  0  0  0
   -2.5562   -1.7843   -1.2454 H   0  0  0  0  0  0  0  0  0  0  0  0
   -1.0987   -3.1979   -0.2139 H   0  0  0  0  0  0  0  0  0  0  0  0
    4.4128    0.9705   -0.4369 H   0  0  0  0  0  0  0  0  0  0  0  0
    1.4698    4.0513   -1.2024 H   0  0  0  0  0  0  0  0  0  0  0  0
    2.7088    6.1395   -1.3049 H   0  0  0  0  0  0  0  0  0  0  0  0
    5.8287    4.4229    1.1162 H   0  0  0  0  0  0  0  0  0  0  0  0
    4.5335    2.3582    1.3307 H   0  0  0  0  0  0  0  0  0  0  0  0
    4.4422    7.6395   -1.6953 H   0  0  0  0  0  0  0  0  0  0  0  0
    3.7127    8.0288   -0.0881 H   0  0  0  0  0  0  0  0  0  0  0  0
    5.3613    8.5341   -0.4793 H   0  0  0  0  0  0  0  0  0  0  0  0
   -3.6281    1.4861   -1.6358 H   0  0  0  0  0  0  0  0  0  0  0  0
   -3.0803    2.5469    0.2433 H   0  0  0  0  0  0  0  0  0  0  0  0
   -1.5633    3.0357    0.8847 H   0  0  0  0  0  0  0  0  0  0  0  0
   -2.5594    3.5015   -2.0203 H   0  0  0  0  0  0  0  0  0  0  0  0
   -2.5730    6.7862   -1.6558 H   0  0  0  0  0  0  0  0  0  0  0  0
   -0.9465    6.5730   -2.3396 H   0  0  0  0  0  0  0  0  0  0  0  0
   -2.2963    5.6038   -2.9422 H   0  0  0  0  0  0  0  0  0  0  0  0
   -1.4852    6.0960    0.8830 H   0  0  0  0  0  0  0  0  0  0  0  0
   -0.3006    4.7747    0.7722 H   0  0  0  0  0  0  0  0  0  0  0  0
   -0.0356    6.2557   -0.1232 H   0  0  0  0  0  0  0  0  0  0  0  0
  1  2  2  0  0  0  0
  1 22  1  0  0  0  0
  2  3  1  0  0  0  0
  2 28  1  0  0  0  0
  3  4  2  0  0  0  0
  3 12  1  0  0  0  0
  4  5  1  0  0  0  0
  4  7  1  0  0  0  0
  5  6  2  0  0  0  0
  6  1  1  0  0  0  0
  6 23  1  0  0  0  0
  7  8  1  0  0  0  0
  7 11  2  0  0  0  0
  8  9  2  0  0  0  0
  8 13  1  0  0  0  0
  9 10  1  0  0  0  0
  9 14  1  0  0  0  0
 10  5  1  0  0  0  0
 12 29  1  0  0  0  0
 13 30  1  0  0  0  0
 14 15  2  0  0  0  0
 15 16  1  0  0  0  0
 15 31  1  0  0  0  0
 16 17  2  0  0  0  0
 16 32  1  0  0  0  0
 17 18  1  0  0  0  0
 17 20  1  0  0  0  0
 18 19  2  0  0  0  0
 18 33  1  0  0  0  0
 19 14  1  0  0  0  0
 19 34  1  0  0  0  0
 20 21  1  0  0  0  0
 21 35  1  0  0  0  0
 21 36  1  0  0  0  0
 21 37  1  0  0  0  0
 22 38  1  0  0  0  0
 23 39  1  0  0  0  0
 23 40  1  0  0  0  0
 24 23  1  0  0  0  0
 24 25  2  0  0  0  0
 24 41  1  0  0  0  0
 25 26  1  0  0  0  0
 25 27  1  0  0  0  0
 26 42  1  0  0  0  0
 26 43  1  0  0  0  0
 26 44  1  0  0  0  0
 27 45  1  0  0  0  0
 27 46  1  0  0  0  0
 27 47  1  0  0  0  0
M  END
>  <Mol_ID>
4365

>  <Formula>
C21H20O6

>  <MolWeight>
368.3799

>  <Cat>
S9080

>  <Name>
Anhydroicaritin

>  <Synonyms>
Cycloicaritin

>  <Target>
Others

>  <Form>
free base

>  <CAS>
118525-40-9

>  <URL>
https://www.selleckchem.com/products/anhydroicaritin.html

$$$$
