S9085 Corynoline.cdx
 OpenBabel08302521043D

 48 53  0  0  0  0  0  0  0  0999 V2000
    0.1988   -1.7955   -0.8913 C   0  0  0  0  0  0  0  0  0  0  0  0
    1.5830   -1.6263   -0.9178 C   0  0  0  0  0  0  0  0  0  0  0  0
   -0.6622   -0.7241   -0.5161 C   0  0  0  0  0  0  0  0  0  0  0  0
   -0.1389    0.5713   -0.3546 C   0  0  0  0  0  0  0  0  0  0  0  0
   -1.0223    1.7174    0.0256 C   0  0  0  0  0  0  0  0  0  0  0  0
   -2.4292    1.4393   -0.2731 N   0  0  0  0  0  0  0  0  0  0  0  0
   -2.0185   -1.0378    0.1756 C   0  0  2  0  0  0  0  0  0  0  0  0
   -2.9752    0.2445    0.4379 C   0  0  1  0  0  0  0  0  0  0  0  0
   -2.5329   -1.7617    2.6290 C   0  0  0  0  0  0  0  0  0  0  0  0
   -1.5487   -1.7843    1.4945 C   0  0  2  0  0  0  0  0  0  0  0  0
   -2.8608   -0.3328    2.9341 C   0  0  0  0  0  0  0  0  0  0  0  0
   -3.3857    0.4644    1.8978 C   0  0  0  0  0  0  0  0  0  0  0  0
   -4.2064    1.5300    2.2749 C   0  0  0  0  0  0  0  0  0  0  0  0
   -2.6412    0.2253    4.1986 C   0  0  0  0  0  0  0  0  0  0  0  0
   -3.1153    1.4944    4.4050 C   0  0  0  0  0  0  0  0  0  0  0  0
   -3.9640    2.0882    3.5000 C   0  0  0  0  0  0  0  0  0  0  0  0
   -4.3512    3.3316    3.8867 O   0  0  0  0  0  0  0  0  0  0  0  0
   -3.3312    3.5701    4.8763 C   0  0  0  0  0  0  0  0  0  0  0  0
   -2.8187    2.3369    5.4309 O   0  0  0  0  0  0  0  0  0  0  0  0
    1.2406    0.6925   -0.3655 C   0  0  0  0  0  0  0  0  0  0  0  0
    2.0712   -0.3801   -0.6043 C   0  0  0  0  0  0  0  0  0  0  0  0
    3.3847   -0.0808   -0.4104 O   0  0  0  0  0  0  0  0  0  0  0  0
    3.2734    1.2603    0.1017 C   0  0  0  0  0  0  0  0  0  0  0  0
    1.9445    1.8089   -0.0182 O   0  0  0  0  0  0  0  0  0  0  0  0
   -2.8503   -1.9786   -0.7322 C   0  0  0  0  0  0  0  0  0  0  0  0
   -0.3241   -1.2529    2.0721 O   0  0  0  0  0  0  0  0  0  0  0  0
   -3.2047    2.6719   -0.2402 C   0  0  0  0  0  0  0  0  0  0  0  0
   -0.1837   -2.8083   -0.9929 H   0  0  0  0  0  0  0  0  0  0  0  0
    2.2466   -2.4708   -1.0622 H   0  0  0  0  0  0  0  0  0  0  0  0
   -0.6985    2.5811   -0.5711 H   0  0  0  0  0  0  0  0  0  0  0  0
   -0.8808    1.9686    1.0830 H   0  0  0  0  0  0  0  0  0  0  0  0
   -3.9355    0.0384   -0.0622 H   0  0  0  0  0  0  0  0  0  0  0  0
   -2.1036   -2.2466    3.5146 H   0  0  0  0  0  0  0  0  0  0  0  0
   -3.4491   -2.3031    2.3681 H   0  0  0  0  0  0  0  0  0  0  0  0
   -1.3100   -2.8263    1.2575 H   0  0  0  0  0  0  0  0  0  0  0  0
   -4.8581    2.0424    1.5799 H   0  0  0  0  0  0  0  0  0  0  0  0
   -2.0526   -0.2855    4.9531 H   0  0  0  0  0  0  0  0  0  0  0  0
   -2.5095    4.1120    4.3838 H   0  0  0  0  0  0  0  0  0  0  0  0
   -3.7307    4.1972    5.6767 H   0  0  0  0  0  0  0  0  0  0  0  0
    3.5556    1.2592    1.1631 H   0  0  0  0  0  0  0  0  0  0  0  0
    3.9736    1.9001   -0.4450 H   0  0  0  0  0  0  0  0  0  0  0  0
   -3.0388   -1.5023   -1.7042 H   0  0  0  0  0  0  0  0  0  0  0  0
   -2.3585   -2.9341   -0.9316 H   0  0  0  0  0  0  0  0  0  0  0  0
   -3.8214   -2.2085   -0.2797 H   0  0  0  0  0  0  0  0  0  0  0  0
   -0.4248   -0.2954    2.1432 H   0  0  0  0  0  0  0  0  0  0  0  0
   -3.1053    3.2086    0.7068 H   0  0  0  0  0  0  0  0  0  0  0  0
   -2.8590    3.3646   -1.0146 H   0  0  0  0  0  0  0  0  0  0  0  0
   -4.2614    2.4889   -0.4563 H   0  0  0  0  0  0  0  0  0  0  0  0
  1  2  2  0  0  0  0
  1 28  1  0  0  0  0
  2 21  1  0  0  0  0
  2 29  1  0  0  0  0
  3  1  1  0  0  0  0
  3  7  1  0  0  0  0
  3  4  2  0  0  0  0
  4  5  1  0  0  0  0
  5  6  1  0  0  0  0
  5 30  1  0  0  0  0
  5 31  1  0  0  0  0
  6 27  1  0  0  0  0
  7  8  1  0  0  0  0
  7 10  1  0  0  0  0
  7 25  1  6  0  0  0
  8  6  1  0  0  0  0
  8 12  1  0  0  0  0
  8 32  1  6  0  0  0
  9 10  1  0  0  0  0
  9 33  1  0  0  0  0
  9 34  1  0  0  0  0
 10 35  1  6  0  0  0
 10 26  1  0  0  0  0
 11  9  1  0  0  0  0
 11 14  2  0  0  0  0
 11 12  1  0  0  0  0
 12 13  2  0  0  0  0
 13 16  1  0  0  0  0
 13 36  1  0  0  0  0
 14 37  1  0  0  0  0
 15 14  1  0  0  0  0
 15 16  2  0  0  0  0
 16 17  1  0  0  0  0
 17 18  1  0  0  0  0
 18 19  1  0  0  0  0
 18 38  1  0  0  0  0
 18 39  1  0  0  0  0
 19 15  1  0  0  0  0
 20  4  1  0  0  0  0
 20 21  2  0  0  0  0
 21 22  1  0  0  0  0
 22 23  1  0  0  0  0
 23 24  1  0  0  0  0
 23 40  1  0  0  0  0
 23 41  1  0  0  0  0
 24 20  1  0  0  0  0
 25 42  1  0  0  0  0
 25 43  1  0  0  0  0
 25 44  1  0  0  0  0
 26 45  1  0  0  0  0
 27 46  1  0  0  0  0
 27 47  1  0  0  0  0
 27 48  1  0  0  0  0
M  END
>  <Mol_ID>
4369

>  <Formula>
C21H21NO5

>  <MolWeight>
367.39514

>  <Cat>
S9085

>  <Name>
Corynoline

>  <Target>
Immunology & Inflammation related

>  <Form>
free base

>  <CAS>
18797-79-0

>  <URL>
https://www.selleckchem.com/products/corynoline.html

$$$$
