S9089 Magnoflorine.cdx
 OpenBabel08302521043D

 49 52  0  0  0  0  0  0  0  0999 V2000
   -1.0134   -0.1215   -0.1212 C   0  0  0  0  0  0  0  0  0  0  0  0
    0.0799   -1.0306   -0.0233 C   0  0  0  0  0  0  0  0  0  0  0  0
   -0.7297    1.3696   -0.2339 C   0  0  1  0  0  0  0  0  0  0  0  0
    1.4856   -0.5025   -0.1154 C   0  0  0  0  0  0  0  0  0  0  0  0
   -1.9325    2.2723    0.2346 N   0  3  0  0  0  0  0  0  0  0  0  0
    1.7137    0.8640    0.1731 C   0  0  0  0  0  0  0  0  0  0  0  0
   -2.3536   -0.5873   -0.1230 C   0  0  0  0  0  0  0  0  0  0  0  0
    0.5555    1.7519    0.5289 C   0  0  0  0  0  0  0  0  0  0  0  0
   -0.2562   -2.3754    0.2369 C   0  0  0  0  0  0  0  0  0  0  0  0
    2.6320   -1.2427   -0.4783 C   0  0  0  0  0  0  0  0  0  0  0  0
   -1.5829   -2.8479    0.2208 C   0  0  0  0  0  0  0  0  0  0  0  0
   -2.6203   -1.9526    0.0309 C   0  0  0  0  0  0  0  0  0  0  0  0
   -3.1849    1.7890   -0.5103 C   0  0  0  0  0  0  0  0  0  0  0  0
    3.9374   -0.7110   -0.4092 C   0  0  0  0  0  0  0  0  0  0  0  0
   -3.5331    0.3451   -0.1772 C   0  0  0  0  0  0  0  0  0  0  0  0
    3.0096    1.4107    0.2080 C   0  0  0  0  0  0  0  0  0  0  0  0
    4.1187    0.6210   -0.0583 C   0  0  0  0  0  0  0  0  0  0  0  0
    0.7041   -3.2814    0.6121 O   0  0  0  0  0  0  0  0  0  0  0  0
    2.5194   -2.5129   -0.9859 O   0  0  0  0  0  0  0  0  0  0  0  0
   -1.7256   -4.1968    0.4423 O   0  0  0  0  0  0  0  0  0  0  0  0
   -2.1449    2.2070    1.7491 C   0  0  0  0  0  0  0  0  0  0  0  0
   -1.7087    3.7294   -0.1658 C   0  0  0  0  0  0  0  0  0  0  0  0
    4.9449   -1.5979   -0.6994 O   0  0  0  0  0  0  0  0  0  0  0  0
   -3.0546   -4.7098    0.4442 C   0  0  0  0  0  0  0  0  0  0  0  0
    6.2777   -1.0964   -0.6328 C   0  0  0  0  0  0  0  0  0  0  0  0
   -0.6008    1.5914   -1.3034 H   0  0  0  0  0  0  0  0  0  0  0  0
    0.4284    1.6692    1.6129 H   0  0  0  0  0  0  0  0  0  0  0  0
    0.8245    2.7890    0.2981 H   0  0  0  0  0  0  0  0  0  0  0  0
   -3.6558   -2.2852    0.0407 H   0  0  0  0  0  0  0  0  0  0  0  0
   -4.0140    2.4541   -0.2428 H   0  0  0  0  0  0  0  0  0  0  0  0
   -2.9831    1.9005   -1.5834 H   0  0  0  0  0  0  0  0  0  0  0  0
   -4.0402    0.3117    0.7959 H   0  0  0  0  0  0  0  0  0  0  0  0
   -4.2532   -0.0181   -0.9222 H   0  0  0  0  0  0  0  0  0  0  0  0
    3.1649    2.4583    0.4623 H   0  0  0  0  0  0  0  0  0  0  0  0
    5.1018    1.0756    0.0001 H   0  0  0  0  0  0  0  0  0  0  0  0
    0.2926   -4.1644    0.5202 H   0  0  0  0  0  0  0  0  0  0  0  0
    3.4117   -2.9002   -0.9173 H   0  0  0  0  0  0  0  0  0  0  0  0
   -1.3255    2.7343    2.2445 H   0  0  0  0  0  0  0  0  0  0  0  0
   -3.0901    2.7054    1.9844 H   0  0  0  0  0  0  0  0  0  0  0  0
   -2.1720    1.1652    2.0752 H   0  0  0  0  0  0  0  0  0  0  0  0
   -1.5821    3.7779   -1.2510 H   0  0  0  0  0  0  0  0  0  0  0  0
   -2.5861    4.3064    0.1427 H   0  0  0  0  0  0  0  0  0  0  0  0
   -0.8246    4.1145    0.3458 H   0  0  0  0  0  0  0  0  0  0  0  0
   -3.6335   -4.2889    1.2726 H   0  0  0  0  0  0  0  0  0  0  0  0
   -3.5512   -4.5314   -0.5152 H   0  0  0  0  0  0  0  0  0  0  0  0
   -2.9968   -5.7920    0.5924 H   0  0  0  0  0  0  0  0  0  0  0  0
    6.4378   -0.3221   -1.3909 H   0  0  0  0  0  0  0  0  0  0  0  0
    6.5160   -0.7237    0.3697 H   0  0  0  0  0  0  0  0  0  0  0  0
    6.9605   -1.9236   -0.8486 H   0  0  0  0  0  0  0  0  0  0  0  0
  2  1  1  0  0  0  0
  3  1  1  0  0  0  0
  3  8  1  0  0  0  0
  3 26  1  6  0  0  0
  4  2  1  0  0  0  0
  5  3  1  0  0  0  0
  6  4  2  0  0  0  0
  6  8  1  0  0  0  0
  7  1  2  0  0  0  0
  8 27  1  0  0  0  0
  8 28  1  0  0  0  0
  9  2  2  0  0  0  0
 10  4  1  0  0  0  0
 11  9  1  0  0  0  0
 11 12  2  0  0  0  0
 12  7  1  0  0  0  0
 12 29  1  0  0  0  0
 13  5  1  0  0  0  0
 13 15  1  0  0  0  0
 13 30  1  0  0  0  0
 13 31  1  0  0  0  0
 14 10  2  0  0  0  0
 15  7  1  0  0  0  0
 15 32  1  0  0  0  0
 15 33  1  0  0  0  0
 16  6  1  0  0  0  0
 16 34  1  0  0  0  0
 17 14  1  0  0  0  0
 17 16  2  0  0  0  0
 17 35  1  0  0  0  0
 18  9  1  0  0  0  0
 18 36  1  0  0  0  0
 19 10  1  0  0  0  0
 19 37  1  0  0  0  0
 20 11  1  0  0  0  0
 21  5  1  0  0  0  0
 21 38  1  0  0  0  0
 21 39  1  0  0  0  0
 21 40  1  0  0  0  0
 22  5  1  0  0  0  0
 22 41  1  0  0  0  0
 22 42  1  0  0  0  0
 22 43  1  0  0  0  0
 23 14  1  0  0  0  0
 24 20  1  0  0  0  0
 24 44  1  0  0  0  0
 24 45  1  0  0  0  0
 24 46  1  0  0  0  0
 25 23  1  0  0  0  0
 25 47  1  0  0  0  0
 25 48  1  0  0  0  0
 25 49  1  0  0  0  0
M  CHG  1   5   1
M  END
>  <Mol_ID>
4373

>  <Formula>
C20H24NO4+

>  <MolWeight>
342.40886

>  <Cat>
S9089

>  <Name>
Magnoflorine

>  <Synonyms>
Escholin, Thalictrin

>  <Target>
Tyrosinase

>  <Form>
free base

>  <CAS>
2141-09-5

>  <URL>
https://www.selleckchem.com/products/magnoflorine.html

$$$$
