S9092 Norisoboldine.cdx
 OpenBabel08302521193D

 42 45  0  0  0  0  0  0  0  0999 V2000
    1.4828   -0.4004   -0.0580 C   0  0  0  0  0  0  0  0  0  0  0  0
    0.0972   -0.9702   -0.0114 C   0  0  0  0  0  0  0  0  0  0  0  0
   -1.0085   -0.0748   -0.0770 C   0  0  0  0  0  0  0  0  0  0  0  0
    1.6727    0.9684    0.2123 C   0  0  0  0  0  0  0  0  0  0  0  0
   -0.7529    1.4171   -0.2499 C   0  0  2  0  0  0  0  0  0  0  0  0
   -0.2137   -2.3347    0.1403 C   0  0  0  0  0  0  0  0  0  0  0  0
   -2.3399   -0.5453   -0.0396 C   0  0  0  0  0  0  0  0  0  0  0  0
    2.6428   -1.1391   -0.3639 C   0  0  0  0  0  0  0  0  0  0  0  0
   -1.5404   -2.8094    0.1983 C   0  0  0  0  0  0  0  0  0  0  0  0
    0.4896    1.8399    0.5451 C   0  0  0  0  0  0  0  0  0  0  0  0
   -2.5948   -1.9114    0.1066 C   0  0  0  0  0  0  0  0  0  0  0  0
    2.9566    1.5280    0.2334 C   0  0  0  0  0  0  0  0  0  0  0  0
    3.9470   -0.5895   -0.3541 C   0  0  0  0  0  0  0  0  0  0  0  0
   -1.8843    2.2640    0.1825 N   0  0  0  0  0  0  0  0  0  0  0  0
    4.0881    0.7609   -0.0464 C   0  0  0  0  0  0  0  0  0  0  0  0
    0.7775   -3.2806    0.2783 O   0  0  0  0  0  0  0  0  0  0  0  0
   -1.6697   -4.1697    0.3611 O   0  0  0  0  0  0  0  0  0  0  0  0
   -3.1210    1.8364   -0.4656 C   0  0  0  0  0  0  0  0  0  0  0  0
    5.2417    1.4851    0.0299 O   0  0  0  0  0  0  0  0  0  0  0  0
    4.8867   -1.5347   -0.6552 O   0  0  0  0  0  0  0  0  0  0  0  0
   -3.5056    0.4130   -0.0631 C   0  0  0  0  0  0  0  0  0  0  0  0
   -3.0015   -4.6748    0.4263 C   0  0  0  0  0  0  0  0  0  0  0  0
    6.2641   -1.2243   -0.6929 C   0  0  0  0  0  0  0  0  0  0  0  0
   -0.5714    1.5918   -1.3204 H   0  0  0  0  0  0  0  0  0  0  0  0
    2.5590   -2.1920   -0.6254 H   0  0  0  0  0  0  0  0  0  0  0  0
    0.3108    1.7701    1.6259 H   0  0  0  0  0  0  0  0  0  0  0  0
    0.7223    2.8888    0.3162 H   0  0  0  0  0  0  0  0  0  0  0  0
   -3.6279   -2.2363    0.1654 H   0  0  0  0  0  0  0  0  0  0  0  0
    3.0847    2.5820    0.4721 H   0  0  0  0  0  0  0  0  0  0  0  0
   -1.6842    3.2297   -0.0733 H   0  0  0  0  0  0  0  0  0  0  0  0
    0.3092   -4.1320    0.3813 H   0  0  0  0  0  0  0  0  0  0  0  0
   -3.9311    2.5144   -0.1736 H   0  0  0  0  0  0  0  0  0  0  0  0
   -3.0229    1.9140   -1.5552 H   0  0  0  0  0  0  0  0  0  0  0  0
    5.9944    0.9636   -0.2598 H   0  0  0  0  0  0  0  0  0  0  0  0
   -3.9492    0.4266    0.9406 H   0  0  0  0  0  0  0  0  0  0  0  0
   -4.2681    0.0451   -0.7603 H   0  0  0  0  0  0  0  0  0  0  0  0
   -3.5353   -4.2660    1.2912 H   0  0  0  0  0  0  0  0  0  0  0  0
   -3.5428   -4.4731   -0.5042 H   0  0  0  0  0  0  0  0  0  0  0  0
   -2.9454   -5.7585    0.5515 H   0  0  0  0  0  0  0  0  0  0  0  0
    6.4821   -0.5346   -1.5146 H   0  0  0  0  0  0  0  0  0  0  0  0
    6.6169   -0.8450    0.2712 H   0  0  0  0  0  0  0  0  0  0  0  0
    6.8141   -2.1488   -0.8927 H   0  0  0  0  0  0  0  0  0  0  0  0
  2  1  1  0  0  0  0
  3  2  1  0  0  0  0
  4  1  2  0  0  0  0
  5  3  1  0  0  0  0
  5 10  1  0  0  0  0
  5 24  1  6  0  0  0
  6  2  2  0  0  0  0
  7  3  2  0  0  0  0
  8  1  1  0  0  0  0
  8 25  1  0  0  0  0
  9  6  1  0  0  0  0
 10  4  1  0  0  0  0
 10 26  1  0  0  0  0
 10 27  1  0  0  0  0
 11  7  1  0  0  0  0
 11  9  2  0  0  0  0
 11 28  1  0  0  0  0
 12  4  1  0  0  0  0
 12 29  1  0  0  0  0
 13  8  2  0  0  0  0
 14  5  1  0  0  0  0
 14 30  1  0  0  0  0
 15 12  2  0  0  0  0
 15 13  1  0  0  0  0
 16  6  1  0  0  0  0
 16 31  1  0  0  0  0
 17  9  1  0  0  0  0
 18 14  1  0  0  0  0
 18 21  1  0  0  0  0
 18 32  1  0  0  0  0
 18 33  1  0  0  0  0
 19 15  1  0  0  0  0
 19 34  1  0  0  0  0
 20 13  1  0  0  0  0
 21  7  1  0  0  0  0
 21 35  1  0  0  0  0
 21 36  1  0  0  0  0
 22 17  1  0  0  0  0
 22 37  1  0  0  0  0
 22 38  1  0  0  0  0
 22 39  1  0  0  0  0
 23 20  1  0  0  0  0
 23 40  1  0  0  0  0
 23 41  1  0  0  0  0
 23 42  1  0  0  0  0
M  END
>  <Mol_ID>
4376

>  <Formula>
C18H19NO4

>  <MolWeight>
313.34776

>  <Cat>
S9092

>  <Name>
Norisoboldine

>  <Synonyms>
Laurelliptine

>  <Target>
AhR

>  <Form>
free base

>  <CAS>
23599-69-1

>  <URL>
https://www.selleckchem.com/products/norisoboldine.html

$$$$
