S9094 Pogostone.cdx
 OpenBabel08302521193D

 32 32  0  0  0  0  0  0  0  0999 V2000
   -0.1030   -3.1241   -1.2830 C   0  0  0  0  0  0  0  0  0  0  0  0
    1.3506   -3.3178   -1.0043 C   0  0  0  0  0  0  0  0  0  0  0  0
   -0.5405   -3.2972   -2.5495 C   0  0  0  0  0  0  0  0  0  0  0  0
    0.3340   -3.7344   -3.6010 C   0  0  0  0  0  0  0  0  0  0  0  0
    2.1408   -3.7451   -2.0439 O   0  0  0  0  0  0  0  0  0  0  0  0
    1.6207   -3.9591   -3.3353 C   0  0  0  0  0  0  0  0  0  0  0  0
   -1.0177   -2.7241   -0.1592 C   0  0  0  0  0  0  0  0  0  0  0  0
    1.8567   -3.1387    0.0962 O   0  0  0  0  0  0  0  0  0  0  0  0
   -0.5733   -2.1466    0.8362 O   0  0  0  0  0  0  0  0  0  0  0  0
   -1.8400   -3.0846   -2.9412 O   0  0  0  0  0  0  0  0  0  0  0  0
   -2.5113   -2.9950   -0.2277 C   0  0  0  0  0  0  0  0  0  0  0  0
   -2.8543   -4.4781   -0.3707 C   0  0  0  0  0  0  0  0  0  0  0  0
    2.6204   -4.4499   -4.3283 C   0  0  0  0  0  0  0  0  0  0  0  0
   -4.3677   -4.7420   -0.4631 C   0  0  0  0  0  0  0  0  0  0  0  0
   -5.0161   -4.0366   -1.6569 C   0  0  0  0  0  0  0  0  0  0  0  0
   -4.6243   -6.2476   -0.5588 C   0  0  0  0  0  0  0  0  0  0  0  0
   -0.0528   -3.9008   -4.6019 H   0  0  0  0  0  0  0  0  0  0  0  0
   -1.9619   -3.3240   -3.8756 H   0  0  0  0  0  0  0  0  0  0  0  0
   -2.9572   -2.6256    0.7048 H   0  0  0  0  0  0  0  0  0  0  0  0
   -2.9355   -2.3679   -1.0148 H   0  0  0  0  0  0  0  0  0  0  0  0
   -2.3615   -4.9180   -1.2447 H   0  0  0  0  0  0  0  0  0  0  0  0
   -2.4436   -5.0158    0.4943 H   0  0  0  0  0  0  0  0  0  0  0  0
    3.4398   -3.7317   -4.4272 H   0  0  0  0  0  0  0  0  0  0  0  0
    3.0347   -5.4091   -4.0022 H   0  0  0  0  0  0  0  0  0  0  0  0
    2.1742   -4.5948   -5.3181 H   0  0  0  0  0  0  0  0  0  0  0  0
   -4.8435   -4.3730    0.4541 H   0  0  0  0  0  0  0  0  0  0  0  0
   -4.5373   -4.3269   -2.5982 H   0  0  0  0  0  0  0  0  0  0  0  0
   -6.0794   -4.2883   -1.7257 H   0  0  0  0  0  0  0  0  0  0  0  0
   -4.9538   -2.9483   -1.5641 H   0  0  0  0  0  0  0  0  0  0  0  0
   -4.1714   -6.6703   -1.4629 H   0  0  0  0  0  0  0  0  0  0  0  0
   -4.2048   -6.7708    0.3066 H   0  0  0  0  0  0  0  0  0  0  0  0
   -5.6984   -6.4578   -0.5895 H   0  0  0  0  0  0  0  0  0  0  0  0
  2  1  1  0  0  0  0
  3  1  2  0  0  0  0
  4  3  1  0  0  0  0
  4 17  1  0  0  0  0
  5  2  1  0  0  0  0
  5  6  1  0  0  0  0
  6  4  2  0  0  0  0
  7  1  1  0  0  0  0
  8  2  2  0  0  0  0
  9  7  2  0  0  0  0
 10  3  1  0  0  0  0
 10 18  1  0  0  0  0
 11  7  1  0  0  0  0
 11 19  1  0  0  0  0
 11 20  1  0  0  0  0
 12 11  1  0  0  0  0
 12 21  1  0  0  0  0
 12 22  1  0  0  0  0
 13  6  1  0  0  0  0
 13 23  1  0  0  0  0
 13 24  1  0  0  0  0
 13 25  1  0  0  0  0
 14 12  1  0  0  0  0
 14 26  1  0  0  0  0
 15 14  1  0  0  0  0
 15 27  1  0  0  0  0
 15 28  1  0  0  0  0
 15 29  1  0  0  0  0
 16 14  1  0  0  0  0
 16 30  1  0  0  0  0
 16 31  1  0  0  0  0
 16 32  1  0  0  0  0
M  END
>  <Mol_ID>
4378

>  <Formula>
C12H16O4

>  <MolWeight>
224.25304

>  <Cat>
S9094

>  <Name>
Pogostone

>  <Target>
Anti-infection

>  <Form>
free base

>  <CAS>
23800-56-8

>  <URL>
https://www.selleckchem.com/products/pogostone.html

$$$$
