S9098 Dehydrodiisoeugenol.cdx
 OpenBabel08302521193D

 46 48  0  0  0  0  0  0  0  0999 V2000
    2.2874   -0.3746    0.2166 C   0  0  0  0  0  0  0  0  0  0  0  0
    1.9702    0.9897    0.0536 C   0  0  0  0  0  0  0  0  0  0  0  0
    0.6424    1.4278   -0.0998 C   0  0  0  0  0  0  0  0  0  0  0  0
    1.2565   -1.3152    0.2372 C   0  0  0  0  0  0  0  0  0  0  0  0
   -0.0498   -0.8816    0.0503 C   0  0  0  0  0  0  0  0  0  0  0  0
   -0.3517    0.4579   -0.1282 C   0  0  0  0  0  0  0  0  0  0  0  0
   -1.6826    0.6713   -0.4200 O   0  0  0  0  0  0  0  0  0  0  0  0
   -2.3336   -0.6080   -0.1646 C   0  0  3  0  0  0  0  0  0  0  0  0
   -1.2502   -1.7237   -0.1659 C   0  0  3  0  0  0  0  0  0  0  0  0
   -1.0663   -2.5102   -1.4701 C   0  0  0  0  0  0  0  0  0  0  0  0
   -3.4592   -0.9306   -1.1386 C   0  0  0  0  0  0  0  0  0  0  0  0
   -4.3903   -1.9355   -0.7961 C   0  0  0  0  0  0  0  0  0  0  0  0
   -5.2130   -2.5119   -1.7690 C   0  0  0  0  0  0  0  0  0  0  0  0
   -5.1350   -2.0315   -3.0828 C   0  0  0  0  0  0  0  0  0  0  0  0
   -4.2877   -0.9754   -3.4174 C   0  0  0  0  0  0  0  0  0  0  0  0
   -3.4533   -0.4237   -2.4453 C   0  0  0  0  0  0  0  0  0  0  0  0
   -6.0594   -3.5689   -1.5633 O   0  0  0  0  0  0  0  0  0  0  0  0
   -6.1138   -4.1388   -0.2644 C   0  0  0  0  0  0  0  0  0  0  0  0
   -5.8784   -2.6383   -4.0613 O   0  0  0  0  0  0  0  0  0  0  0  0
    0.2604    2.7319   -0.2522 O   0  0  0  0  0  0  0  0  0  0  0  0
    1.2934    3.7101   -0.1849 C   0  0  0  0  0  0  0  0  0  0  0  0
    3.6700   -0.8732    0.2277 C   0  0  0  0  0  0  0  0  0  0  0  0
    4.7406   -0.1909    0.6656 C   0  0  0  0  0  0  0  0  0  0  0  0
    6.1334   -0.7259    0.6019 C   0  0  0  0  0  0  0  0  0  0  0  0
    2.7882    1.7003    0.0039 H   0  0  0  0  0  0  0  0  0  0  0  0
    1.4753   -2.3784    0.3344 H   0  0  0  0  0  0  0  0  0  0  0  0
   -2.7693   -0.5134    0.8415 H   0  0  0  0  0  0  0  0  0  0  0  0
   -1.4179   -2.4158    0.6670 H   0  0  0  0  0  0  0  0  0  0  0  0
   -0.1541   -3.1165   -1.4440 H   0  0  0  0  0  0  0  0  0  0  0  0
   -1.8996   -3.1969   -1.6428 H   0  0  0  0  0  0  0  0  0  0  0  0
   -0.9765   -1.8449   -2.3370 H   0  0  0  0  0  0  0  0  0  0  0  0
   -4.3967   -2.3044    0.2249 H   0  0  0  0  0  0  0  0  0  0  0  0
   -4.2317   -0.6016   -4.4349 H   0  0  0  0  0  0  0  0  0  0  0  0
   -2.7423    0.3498   -2.7309 H   0  0  0  0  0  0  0  0  0  0  0  0
   -5.1206   -4.4072    0.1107 H   0  0  0  0  0  0  0  0  0  0  0  0
   -6.6297   -3.4658    0.4272 H   0  0  0  0  0  0  0  0  0  0  0  0
   -6.6930   -5.0652   -0.3307 H   0  0  0  0  0  0  0  0  0  0  0  0
   -5.5662   -2.3307   -4.9262 H   0  0  0  0  0  0  0  0  0  0  0  0
    1.8634    3.6367    0.7490 H   0  0  0  0  0  0  0  0  0  0  0  0
    1.9557    3.6312   -1.0540 H   0  0  0  0  0  0  0  0  0  0  0  0
    0.8299    4.7005   -0.2058 H   0  0  0  0  0  0  0  0  0  0  0  0
    3.8137   -1.8756   -0.1791 H   0  0  0  0  0  0  0  0  0  0  0  0
    4.6306    0.7997    1.0960 H   0  0  0  0  0  0  0  0  0  0  0  0
    6.7524   -0.0619   -0.0076 H   0  0  0  0  0  0  0  0  0  0  0  0
    6.5617   -0.7734    1.6073 H   0  0  0  0  0  0  0  0  0  0  0  0
    6.1758   -1.7287    0.1634 H   0  0  0  0  0  0  0  0  0  0  0  0
  1  4  2  0  0  0  0
  1 22  1  0  0  0  0
  1  2  1  0  0  0  0
  2  3  2  0  0  0  0
  2 25  1  0  0  0  0
  3  6  1  0  0  0  0
  3 20  1  0  0  0  0
  4 26  1  0  0  0  0
  5  4  1  0  0  0  0
  5  6  2  0  0  0  0
  6  7  1  0  0  0  0
  7  8  1  0  0  0  0
  8 11  1  0  0  0  0
  8  9  1  0  0  0  0
  8 27  1  0  0  0  0
  9  5  1  0  0  0  0
  9 10  1  0  0  0  0
  9 28  1  0  0  0  0
 10 29  1  0  0  0  0
 10 30  1  0  0  0  0
 10 31  1  0  0  0  0
 11 16  1  0  0  0  0
 11 12  2  0  0  0  0
 12 13  1  0  0  0  0
 12 32  1  0  0  0  0
 13 14  2  0  0  0  0
 13 17  1  0  0  0  0
 14 15  1  0  0  0  0
 14 19  1  0  0  0  0
 15 16  2  0  0  0  0
 15 33  1  0  0  0  0
 16 34  1  0  0  0  0
 17 18  1  0  0  0  0
 18 35  1  0  0  0  0
 18 36  1  0  0  0  0
 18 37  1  0  0  0  0
 19 38  1  0  0  0  0
 20 21  1  0  0  0  0
 21 39  1  0  0  0  0
 21 40  1  0  0  0  0
 21 41  1  0  0  0  0
 22 23  2  0  0  0  0
 22 42  1  0  0  0  0
 23 24  1  0  0  0  0
 23 43  1  0  0  0  0
 24 44  1  0  0  0  0
 24 45  1  0  0  0  0
 24 46  1  0  0  0  0
M  END
>  <Mol_ID>
4381

>  <Formula>
C20H22O4

>  <MolWeight>
326.38628

>  <Cat>
S9098

>  <Name>
Dehydrodiisoeugenol

>  <Target>
Immunology & Inflammation related

>  <Form>
free base

>  <CAS>
2680-81-1

>  <URL>
https://www.selleckchem.com/products/dehydrodiisoeugenol.html

$$$$
