S9102 Magnolin.cdx
 OpenBabel08302521193D

 58 61  0  0  0  0  0  0  0  0999 V2000
    0.0418    0.7673   -0.6002 C   0  0  1  0  0  0  0  0  0  0  0  0
   -0.0105   -0.7472   -0.6842 C   0  0  1  0  0  0  0  0  0  0  0  0
   -1.1692    1.1727    0.2379 C   0  0  1  0  0  0  0  0  0  0  0  0
    1.3292   -1.2257   -0.1379 C   0  0  2  0  0  0  0  0  0  0  0  0
   -1.8384    2.4715   -0.1696 C   0  0  0  0  0  0  0  0  0  0  0  0
   -2.0536    0.0396    0.1557 O   0  0  0  0  0  0  0  0  0  0  0  0
    1.7730   -0.1451    0.7115 O   0  0  0  0  0  0  0  0  0  0  0  0
   -3.1110    4.9494   -0.7451 C   0  0  0  0  0  0  0  0  0  0  0  0
    2.3705   -1.5473   -1.2022 C   0  0  0  0  0  0  0  0  0  0  0  0
    1.3355    1.0837    0.1148 C   0  0  0  0  0  0  0  0  0  0  0  0
   -1.1947   -1.1075    0.1977 C   0  0  0  0  0  0  0  0  0  0  0  0
   -3.8530    3.8689   -0.2139 C   0  0  0  0  0  0  0  0  0  0  0  0
   -1.7243    4.7799   -0.9441 C   0  0  0  0  0  0  0  0  0  0  0  0
   -3.2067    2.6511    0.0609 C   0  0  0  0  0  0  0  0  0  0  0  0
   -1.1110    3.5541   -0.6619 C   0  0  0  0  0  0  0  0  0  0  0  0
    3.6122   -0.8883   -1.2376 C   0  0  0  0  0  0  0  0  0  0  0  0
    4.6003   -1.1912   -2.1868 C   0  0  0  0  0  0  0  0  0  0  0  0
    4.3352   -2.1773   -3.1450 C   0  0  0  0  0  0  0  0  0  0  0  0
    2.1421   -2.5564   -2.1419 C   0  0  0  0  0  0  0  0  0  0  0  0
    3.1149   -2.8650   -3.0979 C   0  0  0  0  0  0  0  0  0  0  0  0
   -3.6068    6.1699   -1.1224 O   0  0  0  0  0  0  0  0  0  0  0  0
   -0.8377    5.6991   -1.4561 O   0  0  0  0  0  0  0  0  0  0  0  0
   -5.1896    4.0493    0.0375 O   0  0  0  0  0  0  0  0  0  0  0  0
    5.8063   -0.5417   -2.2059 O   0  0  0  0  0  0  0  0  0  0  0  0
    5.1771   -2.6350   -4.1252 O   0  0  0  0  0  0  0  0  0  0  0  0
   -4.9895    6.4535   -1.0018 C   0  0  0  0  0  0  0  0  0  0  0  0
   -1.0674    7.0661   -1.1396 C   0  0  0  0  0  0  0  0  0  0  0  0
   -5.9366    2.9524    0.5490 C   0  0  0  0  0  0  0  0  0  0  0  0
    6.2749   -0.0452   -0.9548 C   0  0  0  0  0  0  0  0  0  0  0  0
    6.1052   -1.7027   -4.6652 C   0  0  0  0  0  0  0  0  0  0  0  0
    0.0224    1.2098   -1.6025 H   0  0  0  0  0  0  0  0  0  0  0  0
   -0.2179   -1.0828   -1.7065 H   0  0  0  0  0  0  0  0  0  0  0  0
   -0.9019    1.2770    1.2991 H   0  0  0  0  0  0  0  0  0  0  0  0
    1.2250   -2.1172    0.4917 H   0  0  0  0  0  0  0  0  0  0  0  0
    2.0933    1.4263   -0.5974 H   0  0  0  0  0  0  0  0  0  0  0  0
    1.2497    1.8503    0.8906 H   0  0  0  0  0  0  0  0  0  0  0  0
   -0.9120   -1.2907    1.2411 H   0  0  0  0  0  0  0  0  0  0  0  0
   -1.7380   -1.9828   -0.1692 H   0  0  0  0  0  0  0  0  0  0  0  0
   -3.7546    1.8057    0.4684 H   0  0  0  0  0  0  0  0  0  0  0  0
   -0.0392    3.4768   -0.8292 H   0  0  0  0  0  0  0  0  0  0  0  0
    3.8045   -0.1174   -0.4983 H   0  0  0  0  0  0  0  0  0  0  0  0
    1.2111   -3.1190   -2.1408 H   0  0  0  0  0  0  0  0  0  0  0  0
    2.9221   -3.6544   -3.8213 H   0  0  0  0  0  0  0  0  0  0  0  0
   -5.5972    5.7579   -1.5880 H   0  0  0  0  0  0  0  0  0  0  0  0
   -5.2915    6.4900    0.0497 H   0  0  0  0  0  0  0  0  0  0  0  0
   -5.1576    7.4512   -1.4190 H   0  0  0  0  0  0  0  0  0  0  0  0
   -1.7688    7.5155   -1.8483 H   0  0  0  0  0  0  0  0  0  0  0  0
   -1.3928    7.2043   -0.1030 H   0  0  0  0  0  0  0  0  0  0  0  0
   -0.1155    7.5959   -1.2570 H   0  0  0  0  0  0  0  0  0  0  0  0
   -5.9637    2.1269   -0.1700 H   0  0  0  0  0  0  0  0  0  0  0  0
   -5.5489    2.6249    1.5198 H   0  0  0  0  0  0  0  0  0  0  0  0
   -6.9642    3.2929    0.7048 H   0  0  0  0  0  0  0  0  0  0  0  0
    5.7320    0.8602   -0.6625 H   0  0  0  0  0  0  0  0  0  0  0  0
    6.2159   -0.8103   -0.1726 H   0  0  0  0  0  0  0  0  0  0  0  0
    7.3261    0.2303   -1.0759 H   0  0  0  0  0  0  0  0  0  0  0  0
    5.6189   -0.7608   -4.9382 H   0  0  0  0  0  0  0  0  0  0  0  0
    6.9508   -1.5434   -3.9900 H   0  0  0  0  0  0  0  0  0  0  0  0
    6.5154   -2.1415   -5.5805 H   0  0  0  0  0  0  0  0  0  0  0  0
  1 10  1  0  0  0  0
  1 31  1  6  0  0  0
  2  1  1  0  0  0  0
  2 11  1  0  0  0  0
  2 32  1  6  0  0  0
  3  1  1  0  0  0  0
  3  5  1  0  0  0  0
  3 33  1  1  0  0  0
  4  2  1  0  0  0  0
  4  7  1  0  0  0  0
  4 34  1  1  0  0  0
  4  9  1  0  0  0  0
  6  3  1  0  0  0  0
  6 11  1  0  0  0  0
  7 10  1  0  0  0  0
  8 13  2  0  0  0  0
 10 35  1  0  0  0  0
 10 36  1  0  0  0  0
 11 37  1  0  0  0  0
 11 38  1  0  0  0  0
 12  8  1  0  0  0  0
 12 14  2  0  0  0  0
 13 15  1  0  0  0  0
 14  5  1  0  0  0  0
 14 39  1  0  0  0  0
 15  5  2  0  0  0  0
 15 40  1  0  0  0  0
 16  9  2  0  0  0  0
 16 41  1  0  0  0  0
 17 16  1  0  0  0  0
 17 18  2  0  0  0  0
 18 20  1  0  0  0  0
 19  9  1  0  0  0  0
 19 42  1  0  0  0  0
 20 19  2  0  0  0  0
 20 43  1  0  0  0  0
 21  8  1  0  0  0  0
 22 13  1  0  0  0  0
 23 12  1  0  0  0  0
 24 17  1  0  0  0  0
 25 18  1  0  0  0  0
 26 21  1  0  0  0  0
 26 44  1  0  0  0  0
 26 45  1  0  0  0  0
 26 46  1  0  0  0  0
 27 22  1  0  0  0  0
 27 47  1  0  0  0  0
 27 48  1  0  0  0  0
 27 49  1  0  0  0  0
 28 23  1  0  0  0  0
 28 50  1  0  0  0  0
 28 51  1  0  0  0  0
 28 52  1  0  0  0  0
 29 24  1  0  0  0  0
 29 53  1  0  0  0  0
 29 54  1  0  0  0  0
 29 55  1  0  0  0  0
 30 25  1  0  0  0  0
 30 56  1  0  0  0  0
 30 57  1  0  0  0  0
 30 58  1  0  0  0  0
M  END
>  <Mol_ID>
4385

>  <Formula>
C23H28O7

>  <MolWeight>
416.46422

>  <Cat>
S9102

>  <Name>
Magnolin

>  <Target>
ERK

>  <Form>
free Base

>  <CAS>
31008-18-1

>  <URL>
https://www.selleckchem.com/products/magnolin.html

$$$$
