S9100 Fraxinellone.cdx
 OpenBabel08302521193D

 33 35  0  0  0  0  0  0  0  0999 V2000
    0.3340   -1.1406   -0.0985 C   0  0  1  0  0  0  0  0  0  0  0  0
   -0.8160   -1.7547    0.7071 C   0  0  2  0  0  0  0  0  0  0  0  0
   -0.1180    0.2903   -0.0750 C   0  0  0  0  0  0  0  0  0  0  0  0
    1.7067   -1.2952    0.5756 C   0  0  0  0  0  0  0  0  0  0  0  0
    0.3716   -1.6181   -1.5679 C   0  0  0  0  0  0  0  0  0  0  0  0
   -0.9983   -3.2330    0.5495 C   0  0  0  0  0  0  0  0  0  0  0  0
   -1.9790   -1.0155    0.2923 O   0  0  0  0  0  0  0  0  0  0  0  0
   -1.6061    0.2550   -0.0447 C   0  0  0  0  0  0  0  0  0  0  0  0
    0.7061    1.3524    0.0049 C   0  0  0  0  0  0  0  0  0  0  0  0
    2.7100   -0.2856    0.0139 C   0  0  0  0  0  0  0  0  0  0  0  0
   -1.8331   -3.9254   -0.3793 C   0  0  0  0  0  0  0  0  0  0  0  0
   -0.3868   -4.2258    1.2924 C   0  0  0  0  0  0  0  0  0  0  0  0
   -2.3724    1.1627   -0.2984 O   0  0  0  0  0  0  0  0  0  0  0  0
    2.2076    1.1619    0.1103 C   0  0  0  0  0  0  0  0  0  0  0  0
    0.2692    2.7914    0.0521 C   0  0  0  0  0  0  0  0  0  0  0  0
   -1.6538   -5.2690   -0.1466 C   0  0  0  0  0  0  0  0  0  0  0  0
   -0.7750   -5.4567    0.8693 O   0  0  0  0  0  0  0  0  0  0  0  0
   -0.6970   -1.5525    1.7824 H   0  0  0  0  0  0  0  0  0  0  0  0
    1.6216   -1.1329    1.6589 H   0  0  0  0  0  0  0  0  0  0  0  0
    2.0913   -2.3131    0.4427 H   0  0  0  0  0  0  0  0  0  0  0  0
    1.0463   -1.0088   -2.1790 H   0  0  0  0  0  0  0  0  0  0  0  0
    0.7149   -2.6556   -1.6386 H   0  0  0  0  0  0  0  0  0  0  0  0
   -0.6152   -1.5612   -2.0435 H   0  0  0  0  0  0  0  0  0  0  0  0
    3.6636   -0.3751    0.5476 H   0  0  0  0  0  0  0  0  0  0  0  0
    2.9294   -0.5239   -1.0334 H   0  0  0  0  0  0  0  0  0  0  0  0
   -2.4825   -3.4920   -1.1290 H   0  0  0  0  0  0  0  0  0  0  0  0
    0.3158   -4.2207    2.1134 H   0  0  0  0  0  0  0  0  0  0  0  0
    2.7097    1.7566   -0.6629 H   0  0  0  0  0  0  0  0  0  0  0  0
    2.5282    1.5698    1.0780 H   0  0  0  0  0  0  0  0  0  0  0  0
    0.5903    3.2506    0.9929 H   0  0  0  0  0  0  0  0  0  0  0  0
    0.7274    3.3467   -0.7737 H   0  0  0  0  0  0  0  0  0  0  0  0
   -0.8097    2.9295   -0.0271 H   0  0  0  0  0  0  0  0  0  0  0  0
   -2.0570   -6.1680   -0.5902 H   0  0  0  0  0  0  0  0  0  0  0  0
  1  2  1  0  0  0  0
  1  3  1  0  0  0  0
  1  4  1  0  0  0  0
  1  5  1  6  0  0  0
  2  7  1  0  0  0  0
  2 18  1  1  0  0  0
  2  6  1  0  0  0  0
  3  8  1  0  0  0  0
  3  9  2  0  0  0  0
  4 10  1  0  0  0  0
  4 19  1  0  0  0  0
  4 20  1  0  0  0  0
  5 21  1  0  0  0  0
  5 22  1  0  0  0  0
  5 23  1  0  0  0  0
  6 11  1  0  0  0  0
  6 12  2  0  0  0  0
  7  8  1  0  0  0  0
  8 13  2  0  0  0  0
  9 14  1  0  0  0  0
  9 15  1  0  0  0  0
 10 14  1  0  0  0  0
 10 24  1  0  0  0  0
 10 25  1  0  0  0  0
 11 16  2  0  0  0  0
 11 26  1  0  0  0  0
 12 17  1  0  0  0  0
 12 27  1  0  0  0  0
 14 28  1  0  0  0  0
 14 29  1  0  0  0  0
 15 30  1  0  0  0  0
 15 31  1  0  0  0  0
 15 32  1  0  0  0  0
 16 17  1  0  0  0  0
 16 33  1  0  0  0  0
M  END
>  <Mol_ID>
4383

>  <Formula>
C14H16O3

>  <MolWeight>
232.27504

>  <Cat>
S9100

>  <Name>
Fraxinellone

>  <Target>
Immunology & Inflammation related

>  <Form>
free base

>  <CAS>
28808-62-0

>  <URL>
https://www.selleckchem.com/products/fraxinellone.html

$$$$
