S9113 Ononin.cdx
 OpenBabel08302521193D

 53 56  0  0  0  0  0  0  0  0999 V2000
    9.8258    2.0349   -0.9478 C   0  0  0  0  0  0  0  0  0  0  0  0
    8.6445    2.4510   -1.5465 C   0  0  0  0  0  0  0  0  0  0  0  0
   11.0425    2.8491   -1.1299 C   0  0  0  0  0  0  0  0  0  0  0  0
    9.8493    0.8641   -0.1755 C   0  0  0  0  0  0  0  0  0  0  0  0
    7.4837    1.7030   -1.3886 C   0  0  0  0  0  0  0  0  0  0  0  0
    8.5349    3.6058   -2.2698 O   0  0  0  0  0  0  0  0  0  0  0  0
   10.8838    4.0818   -1.9465 C   0  0  0  0  0  0  0  0  0  0  0  0
   12.1092    2.5179   -0.6288 O   0  0  0  0  0  0  0  0  0  0  0  0
    8.6675    0.1509    0.0307 C   0  0  0  0  0  0  0  0  0  0  0  0
    7.4721    0.5911   -0.5437 C   0  0  0  0  0  0  0  0  0  0  0  0
    9.6653    4.3651   -2.4294 C   0  0  0  0  0  0  0  0  0  0  0  0
   12.0213    4.9306   -2.2983 C   0  0  0  0  0  0  0  0  0  0  0  0
    6.3400   -0.0942   -0.1840 O   0  0  0  0  0  0  0  0  0  0  0  0
   12.3408    6.0702   -1.5529 C   0  0  0  0  0  0  0  0  0  0  0  0
   12.7873    4.6076   -3.4219 C   0  0  0  0  0  0  0  0  0  0  0  0
    5.1112    0.6579   -0.2391 C   0  0  2  0  0  0  0  0  0  0  0  0
   13.4273    6.8722   -1.9216 C   0  0  0  0  0  0  0  0  0  0  0  0
   13.8647    5.4118   -3.7870 C   0  0  0  0  0  0  0  0  0  0  0  0
    5.2741    1.9917    0.2587 O   0  0  0  0  0  0  0  0  0  0  0  0
    4.0470   -0.0772    0.6121 C   0  0  1  0  0  0  0  0  0  0  0  0
   14.1947    6.5442   -3.0409 C   0  0  0  0  0  0  0  0  0  0  0  0
    4.0923    2.7770    0.0818 C   0  0  1  0  0  0  0  0  0  0  0  0
    2.7509    0.7582    0.6822 C   0  0  2  0  0  0  0  0  0  0  0  0
    3.7331   -1.3860    0.1079 O   0  0  0  0  0  0  0  0  0  0  0  0
   15.2715    7.2396   -3.5156 O   0  0  0  0  0  0  0  0  0  0  0  0
    3.0149    2.2380    1.0160 C   0  0  2  0  0  0  0  0  0  0  0  0
    4.4412    4.2393    0.3667 C   0  0  0  0  0  0  0  0  0  0  0  0
    1.8193    0.2364    1.6417 O   0  0  0  0  0  0  0  0  0  0  0  0
   15.6941    8.3644   -2.7574 C   0  0  0  0  0  0  0  0  0  0  0  0
    1.8294    3.0210    0.8778 O   0  0  0  0  0  0  0  0  0  0  0  0
    5.4248    4.6848   -0.5723 O   0  0  0  0  0  0  0  0  0  0  0  0
   10.7750    0.5338    0.2916 H   0  0  0  0  0  0  0  0  0  0  0  0
    6.5861    2.0507   -1.8905 H   0  0  0  0  0  0  0  0  0  0  0  0
    8.6724   -0.7305    0.6681 H   0  0  0  0  0  0  0  0  0  0  0  0
    9.4423    5.2346   -3.0390 H   0  0  0  0  0  0  0  0  0  0  0  0
   11.7538    6.3396   -0.6773 H   0  0  0  0  0  0  0  0  0  0  0  0
   12.5544    3.7265   -4.0162 H   0  0  0  0  0  0  0  0  0  0  0  0
    4.7914    0.6740   -1.2904 H   0  0  0  0  0  0  0  0  0  0  0  0
   13.6493    7.7421   -1.3131 H   0  0  0  0  0  0  0  0  0  0  0  0
   14.4577    5.1517   -4.6584 H   0  0  0  0  0  0  0  0  0  0  0  0
    4.4352   -0.2358    1.6250 H   0  0  0  0  0  0  0  0  0  0  0  0
    3.7713    2.7117   -0.9673 H   0  0  0  0  0  0  0  0  0  0  0  0
    2.2282    0.6904   -0.2796 H   0  0  0  0  0  0  0  0  0  0  0  0
    4.0461   -1.4671   -0.8086 H   0  0  0  0  0  0  0  0  0  0  0  0
    3.3434    2.3109    2.0610 H   0  0  0  0  0  0  0  0  0  0  0  0
    3.5668    4.8870    0.2635 H   0  0  0  0  0  0  0  0  0  0  0  0
    4.8635    4.3637    1.3687 H   0  0  0  0  0  0  0  0  0  0  0  0
    2.3128   -0.0240    2.4406 H   0  0  0  0  0  0  0  0  0  0  0  0
   14.9076    9.1239   -2.7054 H   0  0  0  0  0  0  0  0  0  0  0  0
   16.0220    8.0628   -1.7571 H   0  0  0  0  0  0  0  0  0  0  0  0
   16.5515    8.8095   -3.2711 H   0  0  0  0  0  0  0  0  0  0  0  0
    1.0860    2.4167    0.6942 H   0  0  0  0  0  0  0  0  0  0  0  0
    6.2098    4.1254   -0.4243 H   0  0  0  0  0  0  0  0  0  0  0  0
  1  2  2  0  0  0  0
  1  3  1  0  0  0  0
  1  4  1  0  0  0  0
  2  5  1  0  0  0  0
  2  6  1  0  0  0  0
  3  7  1  0  0  0  0
  3  8  2  0  0  0  0
  4  9  2  0  0  0  0
  4 32  1  0  0  0  0
  5 10  2  0  0  0  0
  5 33  1  0  0  0  0
  6 11  1  0  0  0  0
  7 12  1  0  0  0  0
  7 11  2  0  0  0  0
  9 10  1  0  0  0  0
  9 34  1  0  0  0  0
 10 13  1  0  0  0  0
 11 35  1  0  0  0  0
 12 14  2  0  0  0  0
 12 15  1  0  0  0  0
 14 17  1  0  0  0  0
 14 36  1  0  0  0  0
 15 18  2  0  0  0  0
 15 37  1  0  0  0  0
 16 19  1  0  0  0  0
 16 20  1  0  0  0  0
 16 38  1  6  0  0  0
 16 13  1  0  0  0  0
 17 21  2  0  0  0  0
 17 39  1  0  0  0  0
 18 21  1  0  0  0  0
 18 40  1  0  0  0  0
 19 22  1  0  0  0  0
 20 23  1  0  0  0  0
 20 24  1  0  0  0  0
 20 41  1  1  0  0  0
 21 25  1  0  0  0  0
 22 26  1  0  0  0  0
 22 27  1  0  0  0  0
 22 42  1  6  0  0  0
 23 28  1  0  0  0  0
 23 26  1  0  0  0  0
 23 43  1  6  0  0  0
 24 44  1  0  0  0  0
 25 29  1  0  0  0  0
 26 30  1  0  0  0  0
 26 45  1  1  0  0  0
 27 31  1  0  0  0  0
 27 46  1  0  0  0  0
 27 47  1  0  0  0  0
 28 48  1  0  0  0  0
 29 49  1  0  0  0  0
 29 50  1  0  0  0  0
 29 51  1  0  0  0  0
 30 52  1  0  0  0  0
 31 53  1  0  0  0  0
M  END
>  <Mol_ID>
4394

>  <Formula>
C22H22O9

>  <MolWeight>
430.40468

>  <Cat>
S9113

>  <Name>
Ononin

>  <Synonyms>
Formononetin glucoside, Formononetin 7-O-glucoside

>  <Target>
Anti-infection,Immunology & Inflammation related

>  <Form>
free base

>  <CAS>
486-62-4

>  <URL>
https://www.selleckchem.com/products/ononin.html

$$$$
