S9111 Isorhamnetin.cdx
 OpenBabel08302521193D

 35 37  0  0  0  0  0  0  0  0999 V2000
    0.0728   -0.3214    0.0274 C   0  0  0  0  0  0  0  0  0  0  0  0
   -0.3006    1.0238    0.0236 C   0  0  0  0  0  0  0  0  0  0  0  0
    1.5194   -0.6422    0.0593 C   0  0  0  0  0  0  0  0  0  0  0  0
   -0.9256   -1.3096    0.0034 C   0  0  0  0  0  0  0  0  0  0  0  0
    0.6023    2.0607    0.0167 O   0  0  0  0  0  0  0  0  0  0  0  0
   -1.6532    1.3817    0.0162 C   0  0  0  0  0  0  0  0  0  0  0  0
    2.4628    0.5141   -0.0032 C   0  0  0  0  0  0  0  0  0  0  0  0
    1.9472   -1.7876    0.1376 O   0  0  0  0  0  0  0  0  0  0  0  0
   -2.2791   -0.9554   -0.0146 C   0  0  0  0  0  0  0  0  0  0  0  0
   -0.5993   -2.6354   -0.0134 O   0  0  0  0  0  0  0  0  0  0  0  0
    1.9500    1.7589   -0.0335 C   0  0  0  0  0  0  0  0  0  0  0  0
   -2.6285    0.3893   -0.0044 C   0  0  0  0  0  0  0  0  0  0  0  0
    3.8186    0.2250   -0.0300 O   0  0  0  0  0  0  0  0  0  0  0  0
    2.8154    2.9452   -0.1519 C   0  0  0  0  0  0  0  0  0  0  0  0
   -3.9348    0.7794   -0.0206 O   0  0  0  0  0  0  0  0  0  0  0  0
    3.3240    3.5769    0.9967 C   0  0  0  0  0  0  0  0  0  0  0  0
    3.2004    3.3964   -1.4235 C   0  0  0  0  0  0  0  0  0  0  0  0
    4.2221    4.6410    0.8720 C   0  0  0  0  0  0  0  0  0  0  0  0
    4.0959    4.4577   -1.5518 C   0  0  0  0  0  0  0  0  0  0  0  0
    4.5978    5.0634   -0.4083 C   0  0  0  0  0  0  0  0  0  0  0  0
    4.8088    5.3330    1.8999 O   0  0  0  0  0  0  0  0  0  0  0  0
    5.4879    6.0917   -0.5632 O   0  0  0  0  0  0  0  0  0  0  0  0
    4.4658    4.9311    3.2208 C   0  0  0  0  0  0  0  0  0  0  0  0
   -1.9456    2.4276    0.0211 H   0  0  0  0  0  0  0  0  0  0  0  0
   -3.0456   -1.7225   -0.0364 H   0  0  0  0  0  0  0  0  0  0  0  0
   -1.3915   -3.1937   -0.0215 H   0  0  0  0  0  0  0  0  0  0  0  0
    4.3304    1.0493   -0.0050 H   0  0  0  0  0  0  0  0  0  0  0  0
   -4.5069   -0.0019   -0.0578 H   0  0  0  0  0  0  0  0  0  0  0  0
    3.0141    3.2119    1.9706 H   0  0  0  0  0  0  0  0  0  0  0  0
    2.8166    2.9166   -2.3218 H   0  0  0  0  0  0  0  0  0  0  0  0
    4.4074    4.8049   -2.5327 H   0  0  0  0  0  0  0  0  0  0  0  0
    5.7119    6.3770    0.3441 H   0  0  0  0  0  0  0  0  0  0  0  0
    3.3971    5.0749    3.4100 H   0  0  0  0  0  0  0  0  0  0  0  0
    4.7670    3.8953    3.4083 H   0  0  0  0  0  0  0  0  0  0  0  0
    5.0175    5.5694    3.9177 H   0  0  0  0  0  0  0  0  0  0  0  0
  1  2  2  0  0  0  0
  1  3  1  0  0  0  0
  1  4  1  0  0  0  0
  2  5  1  0  0  0  0
  2  6  1  0  0  0  0
  3  7  1  0  0  0  0
  3  8  2  0  0  0  0
  4  9  2  0  0  0  0
  4 10  1  0  0  0  0
  5 11  1  0  0  0  0
  6 12  2  0  0  0  0
  6 24  1  0  0  0  0
  7 13  1  0  0  0  0
  7 11  2  0  0  0  0
  9 12  1  0  0  0  0
  9 25  1  0  0  0  0
 10 26  1  0  0  0  0
 11 14  1  0  0  0  0
 12 15  1  0  0  0  0
 13 27  1  0  0  0  0
 14 16  2  0  0  0  0
 14 17  1  0  0  0  0
 15 28  1  0  0  0  0
 16 18  1  0  0  0  0
 16 29  1  0  0  0  0
 17 19  2  0  0  0  0
 17 30  1  0  0  0  0
 18 20  2  0  0  0  0
 18 21  1  0  0  0  0
 19 20  1  0  0  0  0
 19 31  1  0  0  0  0
 20 22  1  0  0  0  0
 21 23  1  0  0  0  0
 22 32  1  0  0  0  0
 23 33  1  0  0  0  0
 23 34  1  0  0  0  0
 23 35  1  0  0  0  0
M  END
>  <Mol_ID>
4392

>  <Formula>
C16H12O7

>  <MolWeight>
316.26228

>  <Cat>
S9111

>  <Name>
Isorhamnetin

>  <Synonyms>
3-methylquercetin, 3'-Methoxyquercetin, Isorhamnetol

>  <Target>
Tyrosinase

>  <Form>
free base

>  <CAS>
480-19-3

>  <URL>
https://www.selleckchem.com/products/isorhamnetin.html

$$$$
