S9110 Morin.cdx
 OpenBabel08302521193D

 32 34  0  0  0  0  0  0  0  0999 V2000
    0.0706   -0.3298    0.0010 C   0  0  0  0  0  0  0  0  0  0  0  0
   -0.3068    1.0149    0.0114 C   0  0  0  0  0  0  0  0  0  0  0  0
    1.5173   -0.6456    0.0125 C   0  0  0  0  0  0  0  0  0  0  0  0
   -0.9264   -1.3203   -0.0158 C   0  0  0  0  0  0  0  0  0  0  0  0
    0.5940    2.0528    0.0130 O   0  0  0  0  0  0  0  0  0  0  0  0
   -1.6590    1.3681    0.0137 C   0  0  0  0  0  0  0  0  0  0  0  0
    2.4586    0.5137   -0.0446 C   0  0  0  0  0  0  0  0  0  0  0  0
    1.9494   -1.7910    0.0767 O   0  0  0  0  0  0  0  0  0  0  0  0
   -2.2794   -0.9710   -0.0219 C   0  0  0  0  0  0  0  0  0  0  0  0
   -0.5954   -2.6450   -0.0373 O   0  0  0  0  0  0  0  0  0  0  0  0
    1.9426    1.7563   -0.0507 C   0  0  0  0  0  0  0  0  0  0  0  0
   -2.6318    0.3739   -0.0069 C   0  0  0  0  0  0  0  0  0  0  0  0
    3.8139    0.2286   -0.0762 O   0  0  0  0  0  0  0  0  0  0  0  0
    2.8032    2.9499   -0.1214 C   0  0  0  0  0  0  0  0  0  0  0  0
   -3.9387    0.7623   -0.0173 O   0  0  0  0  0  0  0  0  0  0  0  0
    3.3103    3.5833    1.0228 C   0  0  0  0  0  0  0  0  0  0  0  0
    3.1962    3.4292   -1.3831 C   0  0  0  0  0  0  0  0  0  0  0  0
    4.1825    4.6660    0.9131 C   0  0  0  0  0  0  0  0  0  0  0  0
    3.0157    3.1761    2.2949 O   0  0  0  0  0  0  0  0  0  0  0  0
    4.0782    4.5100   -1.4959 C   0  0  0  0  0  0  0  0  0  0  0  0
    4.5632    5.1195   -0.3440 C   0  0  0  0  0  0  0  0  0  0  0  0
    5.4304    6.1698   -0.4058 O   0  0  0  0  0  0  0  0  0  0  0  0
   -1.9562    2.4136    0.0250 H   0  0  0  0  0  0  0  0  0  0  0  0
   -3.0454   -1.7392   -0.0402 H   0  0  0  0  0  0  0  0  0  0  0  0
   -1.3850   -3.2070   -0.0200 H   0  0  0  0  0  0  0  0  0  0  0  0
    4.3278    1.0491   -0.0004 H   0  0  0  0  0  0  0  0  0  0  0  0
   -4.5113   -0.0218   -0.0651 H   0  0  0  0  0  0  0  0  0  0  0  0
    2.8280    2.9541   -2.2911 H   0  0  0  0  0  0  0  0  0  0  0  0
    4.5705    5.1484    1.8059 H   0  0  0  0  0  0  0  0  0  0  0  0
    2.3618    2.4582    2.2686 H   0  0  0  0  0  0  0  0  0  0  0  0
    4.3783    4.8534   -2.4816 H   0  0  0  0  0  0  0  0  0  0  0  0
    5.6023    6.3879   -1.3365 H   0  0  0  0  0  0  0  0  0  0  0  0
  1  2  2  0  0  0  0
  1  3  1  0  0  0  0
  1  4  1  0  0  0  0
  2  5  1  0  0  0  0
  2  6  1  0  0  0  0
  3  7  1  0  0  0  0
  3  8  2  0  0  0  0
  4  9  2  0  0  0  0
  4 10  1  0  0  0  0
  5 11  1  0  0  0  0
  6 12  2  0  0  0  0
  6 23  1  0  0  0  0
  7 13  1  0  0  0  0
  7 11  2  0  0  0  0
  9 12  1  0  0  0  0
  9 24  1  0  0  0  0
 10 25  1  0  0  0  0
 11 14  1  0  0  0  0
 12 15  1  0  0  0  0
 13 26  1  0  0  0  0
 14 16  2  0  0  0  0
 14 17  1  0  0  0  0
 15 27  1  0  0  0  0
 16 18  1  0  0  0  0
 16 19  1  0  0  0  0
 17 20  2  0  0  0  0
 17 28  1  0  0  0  0
 18 21  2  0  0  0  0
 18 29  1  0  0  0  0
 19 30  1  0  0  0  0
 20 21  1  0  0  0  0
 20 31  1  0  0  0  0
 21 22  1  0  0  0  0
 22 32  1  0  0  0  0
M  END
>  <Mol_ID>
4391

>  <Formula>
C15H10O7

>  <MolWeight>
302.2357

>  <Cat>
S9110

>  <Name>
Morin

>  <Synonyms>
Al-Morin, Aurantica, Calico Yellow, Toxylon pomiferum

>  <Target>
Others

>  <Form>
free base

>  <CAS>
480-16-0

>  <URL>
https://www.selleckchem.com/products/morin.html

$$$$
