S9121 Irigenin.cdx
 OpenBabel08302521193D

 42 44  0  0  0  0  0  0  0  0999 V2000
   -2.1666   -1.8967    0.0275 C   0  0  0  0  0  0  0  0  0  0  0  0
   -2.7438   -0.6914   -0.0212 C   0  0  0  0  0  0  0  0  0  0  0  0
   -1.8609    0.5124   -0.0187 C   0  0  0  0  0  0  0  0  0  0  0  0
   -0.3950    0.2489    0.0052 C   0  0  0  0  0  0  0  0  0  0  0  0
    0.0327   -1.0741    0.0583 C   0  0  0  0  0  0  0  0  0  0  0  0
   -0.8220   -2.1483    0.0934 O   0  0  0  0  0  0  0  0  0  0  0  0
    0.5810    1.2580   -0.0308 C   0  0  0  0  0  0  0  0  0  0  0  0
    1.9750    0.9733   -0.0318 C   0  0  0  0  0  0  0  0  0  0  0  0
    2.3625   -0.3674    0.0403 C   0  0  0  0  0  0  0  0  0  0  0  0
    1.3951   -1.3784    0.0791 C   0  0  0  0  0  0  0  0  0  0  0  0
   -2.3421    1.6358   -0.0505 O   0  0  0  0  0  0  0  0  0  0  0  0
    2.7243    2.1158   -0.0601 O   0  0  0  0  0  0  0  0  0  0  0  0
    4.1377    2.0759   -0.0494 C   0  0  0  0  0  0  0  0  0  0  0  0
   -4.2056   -0.5905   -0.1512 C   0  0  0  0  0  0  0  0  0  0  0  0
   -5.0409   -0.5334    0.9561 C   0  0  0  0  0  0  0  0  0  0  0  0
   -6.4126   -0.3656    0.7616 C   0  0  0  0  0  0  0  0  0  0  0  0
   -7.0081   -0.2577   -0.5202 C   0  0  0  0  0  0  0  0  0  0  0  0
   -6.1714   -0.3699   -1.6358 C   0  0  0  0  0  0  0  0  0  0  0  0
   -4.7840   -0.5405   -1.4236 C   0  0  0  0  0  0  0  0  0  0  0  0
   -6.3963   -0.2771   -2.9763 O   0  0  0  0  0  0  0  0  0  0  0  0
   -7.6821   -0.2137   -3.5388 C   0  0  0  0  0  0  0  0  0  0  0  0
   -8.3030    0.1945   -0.4857 O   0  0  0  0  0  0  0  0  0  0  0  0
   -9.3139   -0.6307   -1.0444 C   0  0  0  0  0  0  0  0  0  0  0  0
   -7.1821   -0.2675    1.8953 O   0  0  0  0  0  0  0  0  0  0  0  0
    3.6379   -0.8528    0.0767 O   0  0  0  0  0  0  0  0  0  0  0  0
    0.2112    2.5818   -0.0742 O   0  0  0  0  0  0  0  0  0  0  0  0
   -2.7157   -2.8306    0.0115 H   0  0  0  0  0  0  0  0  0  0  0  0
    1.7099   -2.4201    0.1259 H   0  0  0  0  0  0  0  0  0  0  0  0
    4.5144    1.5886    0.8538 H   0  0  0  0  0  0  0  0  0  0  0  0
    4.5207    1.6134   -0.9643 H   0  0  0  0  0  0  0  0  0  0  0  0
    4.5005    3.1094   -0.0416 H   0  0  0  0  0  0  0  0  0  0  0  0
   -4.6374   -0.5670    1.9642 H   0  0  0  0  0  0  0  0  0  0  0  0
   -4.1352   -0.5808   -2.2988 H   0  0  0  0  0  0  0  0  0  0  0  0
   -8.2289   -1.1477   -3.3777 H   0  0  0  0  0  0  0  0  0  0  0  0
   -8.2196    0.6715   -3.2024 H   0  0  0  0  0  0  0  0  0  0  0  0
   -7.5563   -0.1205   -4.6242 H   0  0  0  0  0  0  0  0  0  0  0  0
   -9.7442   -0.1078   -1.9070 H   0  0  0  0  0  0  0  0  0  0  0  0
   -8.9755   -1.6304   -1.3247 H   0  0  0  0  0  0  0  0  0  0  0  0
  -10.1330   -0.7248   -0.3239 H   0  0  0  0  0  0  0  0  0  0  0  0
   -8.0765   -0.0380    1.5841 H   0  0  0  0  0  0  0  0  0  0  0  0
    4.2735   -0.1906   -0.2188 H   0  0  0  0  0  0  0  0  0  0  0  0
    1.0365    3.1010   -0.0624 H   0  0  0  0  0  0  0  0  0  0  0  0
  1  2  2  0  0  0  0
  1  6  1  0  0  0  0
  1 27  1  0  0  0  0
  2  3  1  0  0  0  0
  2 14  1  0  0  0  0
  3  4  1  0  0  0  0
  3 11  2  0  0  0  0
  4  5  2  0  0  0  0
  4  7  1  0  0  0  0
  5  6  1  0  0  0  0
  5 10  1  0  0  0  0
  7  8  2  0  0  0  0
  7 26  1  0  0  0  0
  8  9  1  0  0  0  0
  8 12  1  0  0  0  0
  9 10  2  0  0  0  0
  9 25  1  0  0  0  0
 10 28  1  0  0  0  0
 12 13  1  0  0  0  0
 13 29  1  0  0  0  0
 13 30  1  0  0  0  0
 13 31  1  0  0  0  0
 14 15  2  0  0  0  0
 14 19  1  0  0  0  0
 15 16  1  0  0  0  0
 15 32  1  0  0  0  0
 16 17  2  0  0  0  0
 16 24  1  0  0  0  0
 17 18  1  0  0  0  0
 17 22  1  0  0  0  0
 18 19  2  0  0  0  0
 18 20  1  0  0  0  0
 19 33  1  0  0  0  0
 20 21  1  0  0  0  0
 21 34  1  0  0  0  0
 21 35  1  0  0  0  0
 21 36  1  0  0  0  0
 22 23  1  0  0  0  0
 23 37  1  0  0  0  0
 23 38  1  0  0  0  0
 23 39  1  0  0  0  0
 24 40  1  0  0  0  0
 25 41  1  0  0  0  0
 26 42  1  0  0  0  0
M  END
>  <Mol_ID>
4400

>  <Formula>
C18H16O8

>  <MolWeight>
360.31484

>  <Cat>
S9121

>  <Name>
Irigenin

>  <Target>
Others

>  <Form>
free base

>  <CAS>
548-76-5

>  <URL>
https://www.selleckchem.com/products/irigenin.html

$$$$
