S9122 Tectorigenin.cdx
 OpenBabel08302521193D

 34 36  0  0  0  0  0  0  0  0999 V2000
   -0.3868    0.2687   -0.0024 C   0  0  0  0  0  0  0  0  0  0  0  0
    0.0302   -1.0598    0.0355 C   0  0  0  0  0  0  0  0  0  0  0  0
   -1.8448    0.5432   -0.0195 C   0  0  0  0  0  0  0  0  0  0  0  0
    0.5912    1.2722   -0.0223 C   0  0  0  0  0  0  0  0  0  0  0  0
    1.3897   -1.3701    0.0615 C   0  0  0  0  0  0  0  0  0  0  0  0
   -0.8331   -2.1254    0.0488 O   0  0  0  0  0  0  0  0  0  0  0  0
   -2.7373   -0.6468   -0.0735 C   0  0  0  0  0  0  0  0  0  0  0  0
   -2.3171    1.6716    0.0103 O   0  0  0  0  0  0  0  0  0  0  0  0
    1.9771    0.9776   -0.0095 C   0  0  0  0  0  0  0  0  0  0  0  0
    0.2263    2.5975   -0.0562 O   0  0  0  0  0  0  0  0  0  0  0  0
    2.3620   -0.3637    0.0396 C   0  0  0  0  0  0  0  0  0  0  0  0
   -2.1755   -1.8597   -0.0356 C   0  0  0  0  0  0  0  0  0  0  0  0
   -4.1950   -0.5137   -0.1933 C   0  0  0  0  0  0  0  0  0  0  0  0
    2.7362    2.1186   -0.0356 O   0  0  0  0  0  0  0  0  0  0  0  0
    3.6336   -0.8558    0.0836 O   0  0  0  0  0  0  0  0  0  0  0  0
   -5.0053   -0.4697    0.9493 C   0  0  0  0  0  0  0  0  0  0  0  0
   -4.7877   -0.4355   -1.4605 C   0  0  0  0  0  0  0  0  0  0  0  0
    4.1486    2.0712   -0.0241 C   0  0  0  0  0  0  0  0  0  0  0  0
   -6.3915   -0.3372    0.8265 C   0  0  0  0  0  0  0  0  0  0  0  0
   -6.1719   -0.3063   -1.5826 C   0  0  0  0  0  0  0  0  0  0  0  0
   -6.9616   -0.2538   -0.4404 C   0  0  0  0  0  0  0  0  0  0  0  0
   -8.3076   -0.1130   -0.6064 O   0  0  0  0  0  0  0  0  0  0  0  0
    1.6995   -2.4132    0.0935 H   0  0  0  0  0  0  0  0  0  0  0  0
    1.0532    3.1141   -0.0385 H   0  0  0  0  0  0  0  0  0  0  0  0
   -2.7355   -2.7865   -0.0716 H   0  0  0  0  0  0  0  0  0  0  0  0
    4.2759   -0.1963   -0.1994 H   0  0  0  0  0  0  0  0  0  0  0  0
   -4.5608   -0.5215    1.9408 H   0  0  0  0  0  0  0  0  0  0  0  0
   -4.1754   -0.4586   -2.3589 H   0  0  0  0  0  0  0  0  0  0  0  0
    4.5229    1.5915    0.8850 H   0  0  0  0  0  0  0  0  0  0  0  0
    4.5313    1.5971   -0.9330 H   0  0  0  0  0  0  0  0  0  0  0  0
    4.5165    3.1022   -0.0271 H   0  0  0  0  0  0  0  0  0  0  0  0
   -7.0023   -0.2943    1.7226 H   0  0  0  0  0  0  0  0  0  0  0  0
   -6.6298   -0.2334   -2.5648 H   0  0  0  0  0  0  0  0  0  0  0  0
   -8.7162   -0.0016    0.2673 H   0  0  0  0  0  0  0  0  0  0  0  0
  1  2  2  0  0  0  0
  1  3  1  0  0  0  0
  1  4  1  0  0  0  0
  2  5  1  0  0  0  0
  2  6  1  0  0  0  0
  3  7  1  0  0  0  0
  3  8  2  0  0  0  0
  4  9  2  0  0  0  0
  4 10  1  0  0  0  0
  5 11  2  0  0  0  0
  5 23  1  0  0  0  0
  6 12  1  0  0  0  0
  7 13  1  0  0  0  0
  7 12  2  0  0  0  0
  9 14  1  0  0  0  0
  9 11  1  0  0  0  0
 10 24  1  0  0  0  0
 11 15  1  0  0  0  0
 12 25  1  0  0  0  0
 13 16  2  0  0  0  0
 13 17  1  0  0  0  0
 14 18  1  0  0  0  0
 15 26  1  0  0  0  0
 16 19  1  0  0  0  0
 16 27  1  0  0  0  0
 17 20  2  0  0  0  0
 17 28  1  0  0  0  0
 18 29  1  0  0  0  0
 18 30  1  0  0  0  0
 18 31  1  0  0  0  0
 19 21  2  0  0  0  0
 19 32  1  0  0  0  0
 20 21  1  0  0  0  0
 20 33  1  0  0  0  0
 21 22  1  0  0  0  0
 22 34  1  0  0  0  0
M  END
>  <Mol_ID>
4401

>  <Formula>
C16H12O6

>  <MolWeight>
300.26288

>  <Cat>
S9122

>  <Name>
Tectorigenin

>  <Target>
Bacterial,Estrogen/progestogen Receptor

>  <Form>
free base

>  <CAS>
548-77-6

>  <URL>
https://www.selleckchem.com/products/tectorigenin.html

$$$$
