S9139 5-Methyl-7-methoxyisoflavone.cdx
 OpenBabel08302521193D

 34 36  0  0  0  0  0  0  0  0999 V2000
    0.0119   -0.6030   -0.0077 C   0  0  0  0  0  0  0  0  0  0  0  0
    0.0174    0.7971   -0.0012 C   0  0  0  0  0  0  0  0  0  0  0  0
    1.2116   -1.3200   -0.0032 C   0  0  0  0  0  0  0  0  0  0  0  0
   -1.1390   -1.3533   -0.0212 O   0  0  0  0  0  0  0  0  0  0  0  0
   -1.2930    1.4945    0.0008 C   0  0  0  0  0  0  0  0  0  0  0  0
    1.2469    1.4866    0.0096 C   0  0  0  0  0  0  0  0  0  0  0  0
    2.4341   -0.6493    0.0047 C   0  0  0  0  0  0  0  0  0  0  0  0
   -2.3380   -0.6873   -0.0248 C   0  0  0  0  0  0  0  0  0  0  0  0
   -2.5057    0.6409   -0.0175 C   0  0  0  0  0  0  0  0  0  0  0  0
   -1.3874    2.7168    0.0180 O   0  0  0  0  0  0  0  0  0  0  0  0
    2.4445    0.7468    0.0100 C   0  0  0  0  0  0  0  0  0  0  0  0
    1.3414    2.9884    0.0168 C   0  0  0  0  0  0  0  0  0  0  0  0
    3.5419   -1.4520    0.0068 O   0  0  0  0  0  0  0  0  0  0  0  0
   -3.8538    1.2165    0.0004 C   0  0  0  0  0  0  0  0  0  0  0  0
    4.8056   -0.7942    0.0071 C   0  0  0  0  0  0  0  0  0  0  0  0
   -4.4400    1.5901    1.2163 C   0  0  0  0  0  0  0  0  0  0  0  0
   -4.5745    1.3787   -1.1892 C   0  0  0  0  0  0  0  0  0  0  0  0
   -5.7406    2.0958    1.2441 C   0  0  0  0  0  0  0  0  0  0  0  0
   -5.8765    1.8821   -1.1582 C   0  0  0  0  0  0  0  0  0  0  0  0
   -6.4612    2.2321    0.0585 C   0  0  0  0  0  0  0  0  0  0  0  0
    1.1938   -2.4072   -0.0058 H   0  0  0  0  0  0  0  0  0  0  0  0
   -3.1564   -1.3973   -0.0268 H   0  0  0  0  0  0  0  0  0  0  0  0
    3.3833    1.2930    0.0153 H   0  0  0  0  0  0  0  0  0  0  0  0
    0.8725    3.4051   -0.8799 H   0  0  0  0  0  0  0  0  0  0  0  0
    0.8732    3.3951    0.9181 H   0  0  0  0  0  0  0  0  0  0  0  0
    2.3838    3.3258    0.0181 H   0  0  0  0  0  0  0  0  0  0  0  0
    4.9332   -0.1863   -0.8954 H   0  0  0  0  0  0  0  0  0  0  0  0
    4.9339   -0.1891    0.9113 H   0  0  0  0  0  0  0  0  0  0  0  0
    5.5874   -1.5591    0.0055 H   0  0  0  0  0  0  0  0  0  0  0  0
   -3.8853    1.4952    2.1469 H   0  0  0  0  0  0  0  0  0  0  0  0
   -4.1250    1.1228   -2.1458 H   0  0  0  0  0  0  0  0  0  0  0  0
   -6.1896    2.3848    2.1907 H   0  0  0  0  0  0  0  0  0  0  0  0
   -6.4337    2.0033   -2.0835 H   0  0  0  0  0  0  0  0  0  0  0  0
   -7.4767    2.6190    0.0821 H   0  0  0  0  0  0  0  0  0  0  0  0
  1  2  1  0  0  0  0
  1  3  2  0  0  0  0
  1  4  1  0  0  0  0
  2  5  1  0  0  0  0
  2  6  2  0  0  0  0
  3  7  1  0  0  0  0
  3 21  1  0  0  0  0
  4  8  1  0  0  0  0
  5  9  1  0  0  0  0
  5 10  2  0  0  0  0
  6 11  1  0  0  0  0
  6 12  1  0  0  0  0
  7 13  1  0  0  0  0
  7 11  2  0  0  0  0
  8  9  2  0  0  0  0
  8 22  1  0  0  0  0
  9 14  1  0  0  0  0
 11 23  1  0  0  0  0
 12 24  1  0  0  0  0
 12 25  1  0  0  0  0
 12 26  1  0  0  0  0
 13 15  1  0  0  0  0
 14 16  2  0  0  0  0
 14 17  1  0  0  0  0
 15 27  1  0  0  0  0
 15 28  1  0  0  0  0
 15 29  1  0  0  0  0
 16 18  1  0  0  0  0
 16 30  1  0  0  0  0
 17 19  2  0  0  0  0
 17 31  1  0  0  0  0
 18 20  2  0  0  0  0
 18 32  1  0  0  0  0
 19 20  1  0  0  0  0
 19 33  1  0  0  0  0
 20 34  1  0  0  0  0
M  END
>  <Mol_ID>
4415

>  <Formula>
C17H14O3

>  <MolWeight>
266.29126

>  <Cat>
S9139

>  <Name>
5-Methyl-7-methoxyisoflavone

>  <Target>
Others

>  <Form>
free base

>  <CAS>
82517-12-2

>  <URL>
https://www.selleckchem.com/products/5-methyl-7-methoxyisoflavone.html

$$$$
