S9137 Erianin.cdx
 OpenBabel08302521193D

 45 46  0  0  0  0  0  0  0  0999 V2000
    1.4560   -0.3325    0.0380 C   0  0  0  0  0  0  0  0  0  0  0  0
    0.5258   -1.3710    0.2706 C   0  0  0  0  0  0  0  0  0  0  0  0
    0.9832    0.9851   -0.1094 C   0  0  0  0  0  0  0  0  0  0  0  0
   -7.2552    0.1082    1.0202 C   0  0  0  0  0  0  0  0  0  0  0  0
   -0.8529   -1.1100    0.1971 C   0  0  0  0  0  0  0  0  0  0  0  0
   -0.4018    1.2251   -0.1135 C   0  0  0  0  0  0  0  0  0  0  0  0
   -7.7441    1.3952    0.7818 C   0  0  0  0  0  0  0  0  0  0  0  0
   -1.3317    0.1864    0.0006 C   0  0  0  0  0  0  0  0  0  0  0  0
   -5.8780   -0.1104    1.1885 C   0  0  0  0  0  0  0  0  0  0  0  0
   -6.8313    2.4524    0.6912 C   0  0  0  0  0  0  0  0  0  0  0  0
   -4.9677    0.9553    1.1168 C   0  0  0  0  0  0  0  0  0  0  0  0
    2.8092   -0.5661    0.0618 O   0  0  0  0  0  0  0  0  0  0  0  0
    1.0357   -2.6121    0.5734 O   0  0  0  0  0  0  0  0  0  0  0  0
    1.6981    2.1454   -0.2736 O   0  0  0  0  0  0  0  0  0  0  0  0
   -8.0982   -0.9680    1.0622 O   0  0  0  0  0  0  0  0  0  0  0  0
   -2.8133    0.4584   -0.0895 C   0  0  0  0  0  0  0  0  0  0  0  0
   -5.4601    2.2395    0.8611 C   0  0  0  0  0  0  0  0  0  0  0  0
   -3.4793    0.7202    1.2665 C   0  0  0  0  0  0  0  0  0  0  0  0
   -9.0441    1.7728    0.5730 O   0  0  0  0  0  0  0  0  0  0  0  0
    3.2749   -1.5850   -0.8266 C   0  0  0  0  0  0  0  0  0  0  0  0
    0.1610   -3.5376    1.2071 C   0  0  0  0  0  0  0  0  0  0  0  0
    3.1161    2.1011   -0.2654 C   0  0  0  0  0  0  0  0  0  0  0  0
  -10.0501    0.9739    1.1798 C   0  0  0  0  0  0  0  0  0  0  0  0
   -1.5728   -1.9177    0.2868 H   0  0  0  0  0  0  0  0  0  0  0  0
   -0.7472    2.2525   -0.2232 H   0  0  0  0  0  0  0  0  0  0  0  0
   -5.5026   -1.1135    1.3721 H   0  0  0  0  0  0  0  0  0  0  0  0
   -7.1953    3.4537    0.4895 H   0  0  0  0  0  0  0  0  0  0  0  0
   -7.5740   -1.7818    1.1251 H   0  0  0  0  0  0  0  0  0  0  0  0
   -2.9776    1.3111   -0.7613 H   0  0  0  0  0  0  0  0  0  0  0  0
   -3.2943   -0.3960   -0.5831 H   0  0  0  0  0  0  0  0  0  0  0  0
   -4.7830    3.0876    0.7900 H   0  0  0  0  0  0  0  0  0  0  0  0
   -3.3132   -0.1241    1.9481 H   0  0  0  0  0  0  0  0  0  0  0  0
   -3.0229    1.5899    1.7575 H   0  0  0  0  0  0  0  0  0  0  0  0
    2.4992   -2.2166   -1.2699 H   0  0  0  0  0  0  0  0  0  0  0  0
    3.8257   -1.1126   -1.6465 H   0  0  0  0  0  0  0  0  0  0  0  0
    3.9760   -2.2206   -0.2748 H   0  0  0  0  0  0  0  0  0  0  0  0
   -0.5081   -3.0608    1.9315 H   0  0  0  0  0  0  0  0  0  0  0  0
   -0.4091   -4.0889    0.4527 H   0  0  0  0  0  0  0  0  0  0  0  0
    0.7758   -4.2533    1.7607 H   0  0  0  0  0  0  0  0  0  0  0  0
    3.5011    1.7490    0.6964 H   0  0  0  0  0  0  0  0  0  0  0  0
    3.5016    1.5178   -1.1050 H   0  0  0  0  0  0  0  0  0  0  0  0
    3.4745    3.1285   -0.3985 H   0  0  0  0  0  0  0  0  0  0  0  0
  -10.2381    0.0672    0.5983 H   0  0  0  0  0  0  0  0  0  0  0  0
   -9.8151    0.7465    2.2247 H   0  0  0  0  0  0  0  0  0  0  0  0
  -10.9775    1.5563    1.1724 H   0  0  0  0  0  0  0  0  0  0  0  0
  2  1  2  0  0  0  0
  3  1  1  0  0  0  0
  4  9  2  0  0  0  0
  5  2  1  0  0  0  0
  5 24  1  0  0  0  0
  6  3  2  0  0  0  0
  6 25  1  0  0  0  0
  7  4  1  0  0  0  0
  7 10  2  0  0  0  0
  8  5  2  0  0  0  0
  8  6  1  0  0  0  0
  9 11  1  0  0  0  0
  9 26  1  0  0  0  0
 10 17  1  0  0  0  0
 10 27  1  0  0  0  0
 11 18  1  0  0  0  0
 12  1  1  0  0  0  0
 13  2  1  0  0  0  0
 14  3  1  0  0  0  0
 15  4  1  0  0  0  0
 15 28  1  0  0  0  0
 16  8  1  0  0  0  0
 16 29  1  0  0  0  0
 16 30  1  0  0  0  0
 17 11  2  0  0  0  0
 17 31  1  0  0  0  0
 18 16  1  0  0  0  0
 18 32  1  0  0  0  0
 18 33  1  0  0  0  0
 19  7  1  0  0  0  0
 20 12  1  0  0  0  0
 20 34  1  0  0  0  0
 20 35  1  0  0  0  0
 20 36  1  0  0  0  0
 21 13  1  0  0  0  0
 21 37  1  0  0  0  0
 21 38  1  0  0  0  0
 21 39  1  0  0  0  0
 22 14  1  0  0  0  0
 22 40  1  0  0  0  0
 22 41  1  0  0  0  0
 22 42  1  0  0  0  0
 23 19  1  0  0  0  0
 23 43  1  0  0  0  0
 23 44  1  0  0  0  0
 23 45  1  0  0  0  0
M  END
>  <Mol_ID>
4413

>  <Formula>
C18H22O5

>  <MolWeight>
318.36428

>  <Cat>
S9137

>  <Name>
Erianin

>  <Target>
IDO/TDO

>  <Form>
free base

>  <CAS>
95041-90-0

>  <URL>
https://www.selleckchem.com/products/erianin.html

$$$$
