S9146 Anwuligan.cdx
 OpenBabel08302521193D

 48 50  0  0  0  0  0  0  0  0999 V2000
    4.2472    1.8604   -5.8965 C   0  0  0  0  0  0  0  0  0  0  0  0
    5.9309   -4.0194   -0.5561 C   0  0  0  0  0  0  0  0  0  0  0  0
    3.2126    1.0855   -6.3584 C   0  0  0  0  0  0  0  0  0  0  0  0
    5.1943    2.0831   -6.8465 O   0  0  0  0  0  0  0  0  0  0  0  0
    3.3796    0.7136   -7.6550 O   0  0  0  0  0  0  0  0  0  0  0  0
    4.6473    1.3356   -7.9520 C   0  0  0  0  0  0  0  0  0  0  0  0
    7.0817   -3.9122    0.2249 C   0  0  0  0  0  0  0  0  0  0  0  0
    4.2769    2.3378   -4.6032 C   0  0  0  0  0  0  0  0  0  0  0  0
    5.0730   -2.9209   -0.6776 C   0  0  0  0  0  0  0  0  0  0  0  0
    3.2188    2.0037   -3.7395 C   0  0  0  0  0  0  0  0  0  0  0  0
    5.3872   -1.6998   -0.0490 C   0  0  0  0  0  0  0  0  0  0  0  0
    4.3959   -0.5512   -0.0404 C   0  0  0  0  0  0  0  0  0  0  0  0
    3.2292    2.5178   -2.3167 C   0  0  0  0  0  0  0  0  0  0  0  0
    4.4105    0.4055   -1.2628 C   0  0  1  0  0  0  0  0  0  0  0  0
    3.2574    1.4688   -1.1692 C   0  0  2  0  0  0  0  0  0  0  0  0
    2.1422    0.7602   -5.5577 C   0  0  0  0  0  0  0  0  0  0  0  0
    7.4442   -2.7022    0.7985 C   0  0  0  0  0  0  0  0  0  0  0  0
    2.1452    1.2339   -4.2407 C   0  0  0  0  0  0  0  0  0  0  0  0
    6.6038   -1.5965    0.6518 C   0  0  0  0  0  0  0  0  0  0  0  0
    5.6994   -5.2522   -1.1147 O   0  0  0  0  0  0  0  0  0  0  0  0
    7.8745   -5.0030    0.4502 O   0  0  0  0  0  0  0  0  0  0  0  0
    5.7810    1.0943   -1.3596 C   0  0  0  0  0  0  0  0  0  0  0  0
    1.8676    0.8369   -0.9776 C   0  0  0  0  0  0  0  0  0  0  0  0
    5.1611   -5.1886   -2.4336 C   0  0  0  0  0  0  0  0  0  0  0  0
    4.5136    2.0135   -8.8027 H   0  0  0  0  0  0  0  0  0  0  0  0
    5.3633    0.5547   -8.2333 H   0  0  0  0  0  0  0  0  0  0  0  0
    5.1063    2.9561   -4.2756 H   0  0  0  0  0  0  0  0  0  0  0  0
    4.1367   -3.0129   -1.2187 H   0  0  0  0  0  0  0  0  0  0  0  0
    4.5541    0.0346    0.8779 H   0  0  0  0  0  0  0  0  0  0  0  0
    3.3972   -0.9989    0.0765 H   0  0  0  0  0  0  0  0  0  0  0  0
    4.0879    3.1894   -2.1845 H   0  0  0  0  0  0  0  0  0  0  0  0
    2.3577    3.1757   -2.1930 H   0  0  0  0  0  0  0  0  0  0  0  0
    4.2640   -0.1934   -2.1708 H   0  0  0  0  0  0  0  0  0  0  0  0
    3.4380    2.0543   -0.2551 H   0  0  0  0  0  0  0  0  0  0  0  0
    1.3217    0.1622   -5.9371 H   0  0  0  0  0  0  0  0  0  0  0  0
    8.3610   -2.6275    1.3741 H   0  0  0  0  0  0  0  0  0  0  0  0
    1.2897    1.0023   -3.6125 H   0  0  0  0  0  0  0  0  0  0  0  0
    6.8901   -0.6562    1.1184 H   0  0  0  0  0  0  0  0  0  0  0  0
    7.3827   -5.7572    0.0697 H   0  0  0  0  0  0  0  0  0  0  0  0
    6.5823    0.3642   -1.5034 H   0  0  0  0  0  0  0  0  0  0  0  0
    5.8404    1.7825   -2.2049 H   0  0  0  0  0  0  0  0  0  0  0  0
    5.9974    1.6630   -0.4487 H   0  0  0  0  0  0  0  0  0  0  0  0
    1.0667    1.5068   -1.3096 H   0  0  0  0  0  0  0  0  0  0  0  0
    1.7693   -0.1079   -1.5213 H   0  0  0  0  0  0  0  0  0  0  0  0
    1.6803    0.6373    0.0829 H   0  0  0  0  0  0  0  0  0  0  0  0
    4.0718   -5.1092   -2.3924 H   0  0  0  0  0  0  0  0  0  0  0  0
    5.5909   -4.3681   -3.0196 H   0  0  0  0  0  0  0  0  0  0  0  0
    5.4158   -6.1242   -2.9413 H   0  0  0  0  0  0  0  0  0  0  0  0
  2  9  2  0  0  0  0
  2  7  1  0  0  0  0
  3  1  2  0  0  0  0
  4  1  1  0  0  0  0
  5  3  1  0  0  0  0
  6  4  1  0  0  0  0
  6  5  1  0  0  0  0
  6 25  1  0  0  0  0
  6 26  1  0  0  0  0
  7 17  2  0  0  0  0
  8  1  1  0  0  0  0
  8 27  1  0  0  0  0
  9 11  1  0  0  0  0
  9 28  1  0  0  0  0
 10  8  2  0  0  0  0
 11 12  1  0  0  0  0
 12 29  1  0  0  0  0
 12 30  1  0  0  0  0
 13 10  1  0  0  0  0
 13 31  1  0  0  0  0
 13 32  1  0  0  0  0
 14 22  1  0  0  0  0
 14 33  1  6  0  0  0
 14 15  1  0  0  0  0
 14 12  1  0  0  0  0
 15 34  1  1  0  0  0
 15 23  1  0  0  0  0
 15 13  1  0  0  0  0
 16  3  1  0  0  0  0
 16 35  1  0  0  0  0
 17 19  1  0  0  0  0
 17 36  1  0  0  0  0
 18 10  1  0  0  0  0
 18 16  2  0  0  0  0
 18 37  1  0  0  0  0
 19 11  2  0  0  0  0
 19 38  1  0  0  0  0
 20  2  1  0  0  0  0
 21  7  1  0  0  0  0
 21 39  1  0  0  0  0
 22 40  1  0  0  0  0
 22 41  1  0  0  0  0
 22 42  1  0  0  0  0
 23 43  1  0  0  0  0
 23 44  1  0  0  0  0
 23 45  1  0  0  0  0
 24 20  1  0  0  0  0
 24 46  1  0  0  0  0
 24 47  1  0  0  0  0
 24 48  1  0  0  0  0
M  END
>  <Mol_ID>
4420

>  <Formula>
C20H24O4

>  <MolWeight>
328.40216

>  <Cat>
S9146

>  <Name>
Anwuligan

>  <Synonyms>
Macelignan

>  <Target>
Immunology & Inflammation related

>  <Form>
free base

>  <CAS>
107534-93-0

>  <URL>
https://www.selleckchem.com/products/anwuligan.html

$$$$
