S9148 Peiminine.cdx
 OpenBabel08302521193D

 74 79  0  0  0  0  0  0  0  0999 V2000
    2.2432    1.8543    0.1073 C   0  0  1  0  0  0  0  0  0  0  0  0
    2.3015    0.3981    0.5971 C   0  0  2  0  0  0  0  0  0  0  0  0
    3.6357    2.3808   -0.2395 C   0  0  2  0  0  0  0  0  0  0  0  0
    1.1198    1.9096   -0.8849 C   0  0  0  0  0  0  0  0  0  0  0  0
    0.8516   -0.1038    0.4367 C   0  0  1  0  0  0  0  0  0  0  0  0
    2.9513    0.4128    1.9899 C   0  0  0  0  0  0  0  0  0  0  0  0
    4.2635    2.5305    1.1758 C   0  0  1  0  0  0  0  0  0  0  0  0
    3.5509    3.7610   -0.8958 C   0  0  0  0  0  0  0  0  0  0  0  0
    0.0863    1.1553   -0.0537 C   0  0  2  0  0  0  0  0  0  0  0  0
    0.7272   -1.2534   -0.5995 C   0  0  0  0  0  0  0  0  0  0  0  0
    4.3042    1.1627    1.9023 C   0  0  0  0  0  0  0  0  0  0  0  0
    5.4412    3.4929    1.2968 C   0  0  0  0  0  0  0  0  0  0  0  0
    4.9280    4.3953   -1.0940 C   0  0  0  0  0  0  0  0  0  0  0  0
   -1.1767    0.9246   -0.8584 C   0  0  1  0  0  0  0  0  0  0  0  0
   -0.6978   -1.4397   -1.1712 C   0  0  0  0  0  0  0  0  0  0  0  0
    5.3111    0.7409    2.4568 O   0  0  0  0  0  0  0  0  0  0  0  0
    5.9720    4.0564   -0.0193 C   0  0  2  0  0  0  0  0  0  0  0  0
   -1.6811   -0.4723   -0.4916 C   0  0  2  0  0  0  0  0  0  0  0  0
   -2.1921    2.0482   -0.6448 C   0  0  0  0  0  0  0  0  0  0  0  0
    6.9114    3.1317   -0.5589 O   0  0  0  0  0  0  0  0  0  0  0  0
   -3.1781   -0.5968   -0.7796 C   0  0  2  0  0  0  0  0  0  0  0  0
   -3.1303    1.7167    0.4211 N   0  0  3  0  0  0  0  0  0  0  0  0
   -3.9327    0.4977    0.1026 C   0  0  1  0  0  0  0  0  0  0  0  0
   -3.6539   -2.0142   -0.4111 C   0  0  0  0  0  0  0  0  0  0  0  0
   -3.4225   -0.3773   -2.1705 O   0  0  0  0  0  0  0  0  0  0  0  0
   -3.9163    2.9108    0.7629 C   0  0  0  0  0  0  0  0  0  0  0  0
   -5.2903    0.8874   -0.5007 C   0  0  0  0  0  0  0  0  0  0  0  0
   -5.2570    2.5818    1.4149 C   0  0  2  0  0  0  0  0  0  0  0  0
   -6.1206    1.7508    0.4543 C   0  0  0  0  0  0  0  0  0  0  0  0
   -5.9731    3.8655    1.8335 C   0  0  0  0  0  0  0  0  0  0  0  0
    4.3619    1.4005   -1.1987 C   0  0  0  0  0  0  0  0  0  0  0  0
    1.8605    2.4784    0.9348 H   0  0  0  0  0  0  0  0  0  0  0  0
    2.9356   -0.2391   -0.0279 H   0  0  0  0  0  0  0  0  0  0  0  0
    1.3574    1.4021   -1.8241 H   0  0  0  0  0  0  0  0  0  0  0  0
    0.7961    2.9322   -1.1022 H   0  0  0  0  0  0  0  0  0  0  0  0
    0.4516   -0.4518    1.3979 H   0  0  0  0  0  0  0  0  0  0  0  0
    3.1157   -0.6028    2.3627 H   0  0  0  0  0  0  0  0  0  0  0  0
    2.3258    0.9425    2.7191 H   0  0  0  0  0  0  0  0  0  0  0  0
    3.5227    3.0497    1.8086 H   0  0  0  0  0  0  0  0  0  0  0  0
    2.9443    4.4272   -0.2718 H   0  0  0  0  0  0  0  0  0  0  0  0
    3.0419    3.6994   -1.8679 H   0  0  0  0  0  0  0  0  0  0  0  0
   -0.1674    1.7352    0.8482 H   0  0  0  0  0  0  0  0  0  0  0  0
    1.0536   -2.1904   -0.1331 H   0  0  0  0  0  0  0  0  0  0  0  0
    1.4141   -1.0860   -1.4409 H   0  0  0  0  0  0  0  0  0  0  0  0
    5.0819    4.3568    1.8763 H   0  0  0  0  0  0  0  0  0  0  0  0
    6.2439    3.0471    1.8853 H   0  0  0  0  0  0  0  0  0  0  0  0
    4.7788    5.4814   -1.1407 H   0  0  0  0  0  0  0  0  0  0  0  0
    5.3082    4.1076   -2.0836 H   0  0  0  0  0  0  0  0  0  0  0  0
   -0.9372    0.9542   -1.9303 H   0  0  0  0  0  0  0  0  0  0  0  0
   -0.6623   -1.2422   -2.2520 H   0  0  0  0  0  0  0  0  0  0  0  0
   -1.0069   -2.4844   -1.0706 H   0  0  0  0  0  0  0  0  0  0  0  0
    6.5377    4.9725    0.1951 H   0  0  0  0  0  0  0  0  0  0  0  0
   -1.5914   -0.6307    0.5928 H   0  0  0  0  0  0  0  0  0  0  0  0
   -2.7265    2.2535   -1.5803 H   0  0  0  0  0  0  0  0  0  0  0  0
   -1.6558    2.9767   -0.3978 H   0  0  0  0  0  0  0  0  0  0  0  0
    7.5705    2.9523    0.1345 H   0  0  0  0  0  0  0  0  0  0  0  0
   -4.1154    0.0311    1.0809 H   0  0  0  0  0  0  0  0  0  0  0  0
   -4.6673   -2.0112   -0.0008 H   0  0  0  0  0  0  0  0  0  0  0  0
   -3.0109   -2.4658    0.3550 H   0  0  0  0  0  0  0  0  0  0  0  0
   -3.6547   -2.6784   -1.2817 H   0  0  0  0  0  0  0  0  0  0  0  0
   -2.9129   -1.0366   -2.6716 H   0  0  0  0  0  0  0  0  0  0  0  0
   -3.3159    3.5336    1.4402 H   0  0  0  0  0  0  0  0  0  0  0  0
   -4.1083    3.5189   -0.1325 H   0  0  0  0  0  0  0  0  0  0  0  0
   -5.1290    1.4495   -1.4296 H   0  0  0  0  0  0  0  0  0  0  0  0
   -5.8678   -0.0028   -0.7766 H   0  0  0  0  0  0  0  0  0  0  0  0
   -5.0720    1.9918    2.3224 H   0  0  0  0  0  0  0  0  0  0  0  0
   -6.7821    1.1087    1.0464 H   0  0  0  0  0  0  0  0  0  0  0  0
   -6.7746    2.3958   -0.1454 H   0  0  0  0  0  0  0  0  0  0  0  0
   -6.9474    3.6438    2.2771 H   0  0  0  0  0  0  0  0  0  0  0  0
   -6.1308    4.5306    0.9760 H   0  0  0  0  0  0  0  0  0  0  0  0
   -5.3803    4.4137    2.5743 H   0  0  0  0  0  0  0  0  0  0  0  0
    5.1526    1.8675   -1.7844 H   0  0  0  0  0  0  0  0  0  0  0  0
    3.6600    0.9883   -1.9340 H   0  0  0  0  0  0  0  0  0  0  0  0
    4.8209    0.5571   -0.6730 H   0  0  0  0  0  0  0  0  0  0  0  0
  1  2  1  0  0  0  0
  1  3  1  0  0  0  0
  1  4  1  0  0  0  0
  1 32  1  1  0  0  0
  2  5  1  0  0  0  0
  2  6  1  0  0  0  0
  2 33  1  6  0  0  0
  3  7  1  0  0  0  0
  3  8  1  0  0  0  0
  3 31  1  6  0  0  0
  4 34  1  0  0  0  0
  4 35  1  0  0  0  0
  5 10  1  0  0  0  0
  5  9  1  0  0  0  0
  5 36  1  1  0  0  0
  6 11  1  0  0  0  0
  6 37  1  0  0  0  0
  6 38  1  0  0  0  0
  7 12  1  0  0  0  0
  7 11  1  0  0  0  0
  7 39  1  1  0  0  0
  8 13  1  0  0  0  0
  8 40  1  0  0  0  0
  8 41  1  0  0  0  0
  9  4  1  0  0  0  0
  9 14  1  0  0  0  0
  9 42  1  1  0  0  0
 10 15  1  0  0  0  0
 10 43  1  0  0  0  0
 10 44  1  0  0  0  0
 11 16  2  0  0  0  0
 12 17  1  0  0  0  0
 12 45  1  0  0  0  0
 12 46  1  0  0  0  0
 13 17  1  0  0  0  0
 13 47  1  0  0  0  0
 13 48  1  0  0  0  0
 14 18  1  0  0  0  0
 14 19  1  0  0  0  0
 14 49  1  6  0  0  0
 15 50  1  0  0  0  0
 15 51  1  0  0  0  0
 17 20  1  0  0  0  0
 17 52  1  1  0  0  0
 18 15  1  0  0  0  0
 18 21  1  0  0  0  0
 18 53  1  1  0  0  0
 19 22  1  0  0  0  0
 19 54  1  0  0  0  0
 19 55  1  0  0  0  0
 20 56  1  0  0  0  0
 21 23  1  0  0  0  0
 21 24  1  0  0  0  0
 21 25  1  6  0  0  0
 22 26  1  0  0  0  0
 22 23  1  0  0  0  0
 23 27  1  0  0  0  0
 23 57  1  1  0  0  0
 24 58  1  0  0  0  0
 24 59  1  0  0  0  0
 24 60  1  0  0  0  0
 25 61  1  0  0  0  0
 26 28  1  0  0  0  0
 26 62  1  0  0  0  0
 26 63  1  0  0  0  0
 27 29  1  0  0  0  0
 27 64  1  0  0  0  0
 27 65  1  0  0  0  0
 28 30  1  0  0  0  0
 28 29  1  0  0  0  0
 28 66  1  1  0  0  0
 29 67  1  0  0  0  0
 29 68  1  0  0  0  0
 30 69  1  0  0  0  0
 30 70  1  0  0  0  0
 30 71  1  0  0  0  0
 31 72  1  0  0  0  0
 31 73  1  0  0  0  0
 31 74  1  0  0  0  0
M  END
>  <Mol_ID>
4421

>  <Formula>
C27H43NO3

>  <MolWeight>
429.63522

>  <Cat>
S9148

>  <Name>
Peiminine

>  <Synonyms>
Verticinone, Zhebeinone, Raddeanine

>  <Target>
Immunology & Inflammation related

>  <Form>
free base

>  <CAS>
18059-10-4

>  <URL>
https://www.selleckchem.com/products/peiminine.html

$$$$
