S9152 Epiberberine.cdx
 OpenBabel08302521193D

 43 47  0  0  0  0  0  0  0  0999 V2000
    1.9258   -0.4216    0.0549 C   0  0  0  0  0  0  0  0  0  0  0  0
    2.8921    0.5508    0.3056 C   0  0  0  0  0  0  0  0  0  0  0  0
    2.4913    1.9701    0.5883 C   0  0  0  0  0  0  0  0  0  0  0  0
    1.2498    2.2675   -0.2117 C   0  0  0  0  0  0  0  0  0  0  0  0
    0.2085    1.2620    0.1087 N   0  3  0  0  0  0  0  0  0  0  0  0
   -1.0500    1.7144    0.2513 C   0  0  0  0  0  0  0  0  0  0  0  0
   -2.1197    0.8409    0.2160 C   0  0  0  0  0  0  0  0  0  0  0  0
   -1.9138   -0.5426    0.1503 C   0  0  0  0  0  0  0  0  0  0  0  0
   -0.5798   -0.9934    0.1487 C   0  0  0  0  0  0  0  0  0  0  0  0
    0.4904   -0.0700    0.1022 C   0  0  0  0  0  0  0  0  0  0  0  0
   -5.6011    1.2210   -0.3806 O   0  0  0  0  0  0  0  0  0  0  0  0
   -5.0334    2.5335   -0.5808 C   0  0  0  0  0  0  0  0  0  0  0  0
   -3.7297    2.6551    0.0211 O   0  0  0  0  0  0  0  0  0  0  0  0
   -3.4011    1.3337    0.1057 C   0  0  0  0  0  0  0  0  0  0  0  0
   -4.4755    0.5101   -0.1021 C   0  0  0  0  0  0  0  0  0  0  0  0
   -3.0441   -1.3935    0.0283 C   0  0  0  0  0  0  0  0  0  0  0  0
   -4.3355   -0.8616   -0.1130 C   0  0  0  0  0  0  0  0  0  0  0  0
    4.2514    0.2150    0.3115 C   0  0  0  0  0  0  0  0  0  0  0  0
    4.7287   -1.0883    0.0330 C   0  0  0  0  0  0  0  0  0  0  0  0
    3.7840   -2.0675   -0.2630 C   0  0  0  0  0  0  0  0  0  0  0  0
    2.4039   -1.7066   -0.2391 C   0  0  0  0  0  0  0  0  0  0  0  0
    6.0800   -1.0096    0.0939 O   0  0  0  0  0  0  0  0  0  0  0  0
    6.9807   -2.0793    0.0055 C   0  0  0  0  0  0  0  0  0  0  0  0
    3.8353   -3.3723   -0.6354 O   0  0  0  0  0  0  0  0  0  0  0  0
    4.9718   -4.1970   -0.5820 C   0  0  0  0  0  0  0  0  0  0  0  0
    2.2998    2.0848    1.6615 H   0  0  0  0  0  0  0  0  0  0  0  0
    3.2763    2.6732    0.2948 H   0  0  0  0  0  0  0  0  0  0  0  0
    0.8762    3.2674    0.0084 H   0  0  0  0  0  0  0  0  0  0  0  0
    1.4114    2.1872   -1.2968 H   0  0  0  0  0  0  0  0  0  0  0  0
   -1.1962    2.7890    0.2975 H   0  0  0  0  0  0  0  0  0  0  0  0
   -0.3886   -2.0626    0.1293 H   0  0  0  0  0  0  0  0  0  0  0  0
   -4.9089    2.7080   -1.6591 H   0  0  0  0  0  0  0  0  0  0  0  0
   -5.6952    3.3020   -0.1726 H   0  0  0  0  0  0  0  0  0  0  0  0
   -2.9209   -2.4746   -0.0293 H   0  0  0  0  0  0  0  0  0  0  0  0
   -5.1958   -1.5044   -0.2863 H   0  0  0  0  0  0  0  0  0  0  0  0
    4.9841    0.9932    0.5306 H   0  0  0  0  0  0  0  0  0  0  0  0
    1.6949   -2.4998   -0.4883 H   0  0  0  0  0  0  0  0  0  0  0  0
    6.8047   -2.8200    0.7847 H   0  0  0  0  0  0  0  0  0  0  0  0
    7.0026   -2.4828   -1.0054 H   0  0  0  0  0  0  0  0  0  0  0  0
    7.9806   -1.6735    0.1932 H   0  0  0  0  0  0  0  0  0  0  0  0
    5.6748   -3.9366   -1.3721 H   0  0  0  0  0  0  0  0  0  0  0  0
    5.4064   -4.2227    0.4168 H   0  0  0  0  0  0  0  0  0  0  0  0
    4.6435   -5.2198   -0.7979 H   0  0  0  0  0  0  0  0  0  0  0  0
  1  2  2  0  0  0  0
  1 10  1  0  0  0  0
  1 21  1  0  0  0  0
  2  3  1  0  0  0  0
  2 18  1  0  0  0  0
  3  4  1  0  0  0  0
  3 26  1  0  0  0  0
  3 27  1  0  0  0  0
  4  5  1  0  0  0  0
  4 28  1  0  0  0  0
  4 29  1  0  0  0  0
  5  6  2  0  0  0  0
  5 10  1  0  0  0  0
  6  7  1  0  0  0  0
  6 30  1  0  0  0  0
  7  8  2  0  0  0  0
  7 14  1  0  0  0  0
  8  9  1  0  0  0  0
  8 16  1  0  0  0  0
  9 10  2  0  0  0  0
  9 31  1  0  0  0  0
 11 12  1  0  0  0  0
 11 15  1  0  0  0  0
 12 13  1  0  0  0  0
 12 32  1  0  0  0  0
 12 33  1  0  0  0  0
 13 14  1  0  0  0  0
 14 15  2  0  0  0  0
 15 17  1  0  0  0  0
 16 17  2  0  0  0  0
 16 34  1  0  0  0  0
 17 35  1  0  0  0  0
 18 19  2  0  0  0  0
 18 36  1  0  0  0  0
 19 20  1  0  0  0  0
 19 22  1  0  0  0  0
 20 21  2  0  0  0  0
 20 24  1  0  0  0  0
 21 37  1  0  0  0  0
 22 23  1  0  0  0  0
 23 38  1  0  0  0  0
 23 39  1  0  0  0  0
 23 40  1  0  0  0  0
 24 25  1  0  0  0  0
 25 41  1  0  0  0  0
 25 42  1  0  0  0  0
 25 43  1  0  0  0  0
M  CHG  1   5   1
M  END
>  <Mol_ID>
4425

>  <Formula>
C20H18NO4+

>  <MolWeight>
336.36122

>  <Cat>
S9152

>  <Name>
Epiberberine

>  <Target>
Others

>  <Form>
free base

>  <CAS>
6873-09-2

>  <URL>
https://www.selleckchem.com/products/epiberberine.html

$$$$
