S9154 Chelidonine.cdx
 OpenBabel08302521193D

 45 50  0  0  0  0  0  0  0  0999 V2000
   -2.7908    0.1498    0.8943 C   0  0  1  0  0  0  0  0  0  0  0  0
   -1.9017   -1.0767    0.2902 C   0  0  1  0  0  0  0  0  0  0  0  0
   -2.7142    0.2889    2.4264 C   0  0  0  0  0  0  0  0  0  0  0  0
   -2.4502    1.3515    0.0912 N   0  0  0  0  0  0  0  0  0  0  0  0
   -0.6850   -0.6787   -0.5481 C   0  0  0  0  0  0  0  0  0  0  0  0
   -1.3529   -2.1195    1.3368 C   0  0  2  0  0  0  0  0  0  0  0  0
   -2.1563   -0.7910    3.1359 C   0  0  0  0  0  0  0  0  0  0  0  0
   -3.1794    1.3489    3.2050 C   0  0  0  0  0  0  0  0  0  0  0  0
   -1.0322    1.7150    0.1834 C   0  0  0  0  0  0  0  0  0  0  0  0
   -3.3247    2.5107    0.1954 C   0  0  0  0  0  0  0  0  0  0  0  0
   -0.1626    0.6058   -0.3267 C   0  0  0  0  0  0  0  0  0  0  0  0
    0.1052   -1.7106   -1.1204 C   0  0  0  0  0  0  0  0  0  0  0  0
   -2.2245   -2.1666    2.5443 C   0  0  0  0  0  0  0  0  0  0  0  0
   -0.0220   -1.9203    1.8634 O   0  0  0  0  0  0  0  0  0  0  0  0
   -1.5527   -0.6160    4.3732 C   0  0  0  0  0  0  0  0  0  0  0  0
   -2.7950    1.4114    4.5351 C   0  0  0  0  0  0  0  0  0  0  0  0
    1.2101    0.7182   -0.4171 C   0  0  0  0  0  0  0  0  0  0  0  0
    1.4864   -1.5539   -1.2003 C   0  0  0  0  0  0  0  0  0  0  0  0
   -1.8892    0.5126    5.0457 C   0  0  0  0  0  0  0  0  0  0  0  0
   -3.2622    2.2342    5.5110 O   0  0  0  0  0  0  0  0  0  0  0  0
    2.0059   -0.3451   -0.7881 C   0  0  0  0  0  0  0  0  0  0  0  0
    1.9525    1.7881    0.0015 O   0  0  0  0  0  0  0  0  0  0  0  0
   -1.5687    0.7661    6.3449 O   0  0  0  0  0  0  0  0  0  0  0  0
   -2.7246    1.5513    6.6712 C   0  0  0  0  0  0  0  0  0  0  0  0
    3.3303   -0.0905   -0.5963 O   0  0  0  0  0  0  0  0  0  0  0  0
    3.2587    1.1934    0.0538 C   0  0  0  0  0  0  0  0  0  0  0  0
   -3.8327   -0.1173    0.6821 H   0  0  0  0  0  0  0  0  0  0  0  0
   -2.5896   -1.6124   -0.3825 H   0  0  0  0  0  0  0  0  0  0  0  0
   -1.3221   -3.1130    0.8711 H   0  0  0  0  0  0  0  0  0  0  0  0
   -3.8894    2.0871    2.8220 H   0  0  0  0  0  0  0  0  0  0  0  0
   -0.8401    2.5932   -0.4437 H   0  0  0  0  0  0  0  0  0  0  0  0
   -0.7537    1.9710    1.2116 H   0  0  0  0  0  0  0  0  0  0  0  0
   -3.1731    3.0874    1.1090 H   0  0  0  0  0  0  0  0  0  0  0  0
   -3.1284    3.1991   -0.6385 H   0  0  0  0  0  0  0  0  0  0  0  0
   -4.3798    2.2293    0.1117 H   0  0  0  0  0  0  0  0  0  0  0  0
   -0.3219   -2.6986   -1.2900 H   0  0  0  0  0  0  0  0  0  0  0  0
   -1.8798   -2.9145    3.2645 H   0  0  0  0  0  0  0  0  0  0  0  0
   -3.2624   -2.4200    2.2934 H   0  0  0  0  0  0  0  0  0  0  0  0
    0.4524   -1.2511    1.3477 H   0  0  0  0  0  0  0  0  0  0  0  0
   -0.9245   -1.3757    4.8205 H   0  0  0  0  0  0  0  0  0  0  0  0
    2.1276   -2.3935   -1.4435 H   0  0  0  0  0  0  0  0  0  0  0  0
   -3.4709    0.8637    7.0786 H   0  0  0  0  0  0  0  0  0  0  0  0
   -2.4585    2.2857    7.4367 H   0  0  0  0  0  0  0  0  0  0  0  0
    3.5432    1.0765    1.1074 H   0  0  0  0  0  0  0  0  0  0  0  0
    3.9720    1.8691   -0.4305 H   0  0  0  0  0  0  0  0  0  0  0  0
  1  2  1  0  0  0  0
  1  3  1  0  0  0  0
  1  4  1  0  0  0  0
  1 27  1  6  0  0  0
  2  5  1  0  0  0  0
  2  6  1  0  0  0  0
  2 28  1  6  0  0  0
  3  7  2  0  0  0  0
  3  8  1  0  0  0  0
  4  9  1  0  0  0  0
  4 10  1  0  0  0  0
  5 11  2  0  0  0  0
  5 12  1  0  0  0  0
  6 13  1  0  0  0  0
  6 29  1  6  0  0  0
  6 14  1  0  0  0  0
  7 15  1  0  0  0  0
  7 13  1  0  0  0  0
  8 16  2  0  0  0  0
  8 30  1  0  0  0  0
  9 11  1  0  0  0  0
  9 31  1  0  0  0  0
  9 32  1  0  0  0  0
 10 33  1  0  0  0  0
 10 34  1  0  0  0  0
 10 35  1  0  0  0  0
 11 17  1  0  0  0  0
 12 18  2  0  0  0  0
 12 36  1  0  0  0  0
 13 37  1  0  0  0  0
 13 38  1  0  0  0  0
 14 39  1  0  0  0  0
 15 19  2  0  0  0  0
 15 40  1  0  0  0  0
 16 20  1  0  0  0  0
 16 19  1  0  0  0  0
 17 21  2  0  0  0  0
 17 22  1  0  0  0  0
 18 21  1  0  0  0  0
 18 41  1  0  0  0  0
 19 23  1  0  0  0  0
 20 24  1  0  0  0  0
 21 25  1  0  0  0  0
 22 26  1  0  0  0  0
 23 24  1  0  0  0  0
 24 42  1  0  0  0  0
 24 43  1  0  0  0  0
 25 26  1  0  0  0  0
 26 44  1  0  0  0  0
 26 45  1  0  0  0  0
M  END
>  <Mol_ID>
4427

>  <Formula>
C20H19NO5

>  <MolWeight>
353.36856

>  <Cat>
S9154

>  <Name>
Chelidonine

>  <Synonyms>
Stylophorin, Helidonine

>  <Target>
AChR

>  <Form>
free base

>  <CAS>
476-32-4

>  <URL>
https://www.selleckchem.com/products/chelidonine.html

$$$$
