S9151 Praeruptorin E.cdx
 OpenBabel08302521193D

 59 61  0  0  0  0  0  0  0  0999 V2000
   -2.7301   -0.8198   -0.2909 O   0  0  0  0  0  0  0  0  0  0  0  0
   -0.8860   -2.2628   -0.4261 C   0  0  0  0  0  0  0  0  0  0  0  0
    0.4882   -2.5237   -0.4293 C   0  0  0  0  0  0  0  0  0  0  0  0
    1.3867   -1.4621   -0.3426 C   0  0  0  0  0  0  0  0  0  0  0  0
    0.8824   -0.1615   -0.2885 C   0  0  0  0  0  0  0  0  0  0  0  0
    1.7762    0.9350   -0.2384 O   0  0  0  0  0  0  0  0  0  0  0  0
    3.1499    0.7658   -0.1624 C   0  0  0  0  0  0  0  0  0  0  0  0
    3.6428   -0.6200   -0.1568 C   0  0  0  0  0  0  0  0  0  0  0  0
    2.8249   -1.6723   -0.2579 C   0  0  0  0  0  0  0  0  0  0  0  0
    3.9267    1.7096   -0.0875 O   0  0  0  0  0  0  0  0  0  0  0  0
   -0.4967    0.1200   -0.2578 C   0  0  0  0  0  0  0  0  0  0  0  0
   -1.3740   -0.9533   -0.3189 C   0  0  0  0  0  0  0  0  0  0  0  0
   -3.3107    0.4461    0.0947 C   0  0  0  0  0  0  0  0  0  0  0  0
   -2.5048    1.6972   -0.3534 C   0  0  2  0  0  0  0  0  0  0  0  0
   -0.9913    1.5255   -0.0856 C   0  0  1  0  0  0  0  0  0  0  0  0
   -4.6790    0.4245   -0.6133 C   0  0  0  0  0  0  0  0  0  0  0  0
   -3.5662    0.4302    1.6104 C   0  0  0  0  0  0  0  0  0  0  0  0
   -0.6668    1.8827    1.2810 O   0  0  0  0  0  0  0  0  0  0  0  0
   -2.9383    2.8920    0.3716 O   0  0  0  0  0  0  0  0  0  0  0  0
    0.0280    3.0377    1.4369 C   0  0  0  0  0  0  0  0  0  0  0  0
    0.3476    3.3415    2.8846 C   0  0  0  0  0  0  0  0  0  0  0  0
    0.4912    2.1481    3.8393 C   0  0  0  0  0  0  0  0  0  0  0  0
    1.6507    1.2351    3.4433 C   0  0  0  0  0  0  0  0  0  0  0  0
    0.7163    2.6622    5.2655 C   0  0  0  0  0  0  0  0  0  0  0  0
   -3.8880    3.7268   -0.1122 C   0  0  0  0  0  0  0  0  0  0  0  0
   -4.1282    4.8406    0.8721 C   0  0  0  0  0  0  0  0  0  0  0  0
   -3.1301    5.0801    1.9734 C   0  0  0  0  0  0  0  0  0  0  0  0
   -5.1932    5.6703    0.8382 C   0  0  0  0  0  0  0  0  0  0  0  0
   -6.3895    5.6797   -0.0527 C   0  0  0  0  0  0  0  0  0  0  0  0
   -4.4660    3.5861   -1.1761 O   0  0  0  0  0  0  0  0  0  0  0  0
    0.3014    3.8174    0.5319 O   0  0  0  0  0  0  0  0  0  0  0  0
   -1.5877   -3.0937   -0.4867 H   0  0  0  0  0  0  0  0  0  0  0  0
    0.8363   -3.5507   -0.4846 H   0  0  0  0  0  0  0  0  0  0  0  0
    4.7159   -0.7322   -0.0618 H   0  0  0  0  0  0  0  0  0  0  0  0
    3.2172   -2.6833   -0.2430 H   0  0  0  0  0  0  0  0  0  0  0  0
   -2.6305    1.8386   -1.4363 H   0  0  0  0  0  0  0  0  0  0  0  0
   -0.4609    2.1603   -0.8062 H   0  0  0  0  0  0  0  0  0  0  0  0
   -4.5484    0.3437   -1.6999 H   0  0  0  0  0  0  0  0  0  0  0  0
   -5.2562   -0.4601   -0.3161 H   0  0  0  0  0  0  0  0  0  0  0  0
   -5.2842    1.3059   -0.3948 H   0  0  0  0  0  0  0  0  0  0  0  0
   -4.1843   -0.4288    1.8943 H   0  0  0  0  0  0  0  0  0  0  0  0
   -2.6329    0.3384    2.1737 H   0  0  0  0  0  0  0  0  0  0  0  0
   -4.0845    1.3357    1.9438 H   0  0  0  0  0  0  0  0  0  0  0  0
    1.2803    3.9190    2.8897 H   0  0  0  0  0  0  0  0  0  0  0  0
   -0.4482    4.0008    3.2486 H   0  0  0  0  0  0  0  0  0  0  0  0
   -0.4340    1.5586    3.8334 H   0  0  0  0  0  0  0  0  0  0  0  0
    2.5941    1.7886    3.3912 H   0  0  0  0  0  0  0  0  0  0  0  0
    1.7724    0.4243    4.1694 H   0  0  0  0  0  0  0  0  0  0  0  0
    1.4740    0.7729    2.4708 H   0  0  0  0  0  0  0  0  0  0  0  0
   -0.1215    3.2862    5.5942 H   0  0  0  0  0  0  0  0  0  0  0  0
    0.8107    1.8302    5.9712 H   0  0  0  0  0  0  0  0  0  0  0  0
    1.6304    3.2635    5.3298 H   0  0  0  0  0  0  0  0  0  0  0  0
   -2.6665    6.0664    1.8622 H   0  0  0  0  0  0  0  0  0  0  0  0
   -3.6295    5.0415    2.9491 H   0  0  0  0  0  0  0  0  0  0  0  0
   -2.3280    4.3474    2.0066 H   0  0  0  0  0  0  0  0  0  0  0  0
   -5.2275    6.4647    1.5864 H   0  0  0  0  0  0  0  0  0  0  0  0
   -7.2719    5.9253    0.5511 H   0  0  0  0  0  0  0  0  0  0  0  0
   -6.2880    6.4577   -0.8147 H   0  0  0  0  0  0  0  0  0  0  0  0
   -6.5853    4.7186   -0.5283 H   0  0  0  0  0  0  0  0  0  0  0  0
  1 13  1  0  0  0  0
  2  3  2  0  0  0  0
  2 32  1  0  0  0  0
  3  4  1  0  0  0  0
  3 33  1  0  0  0  0
  4  9  1  0  0  0  0
  4  5  2  0  0  0  0
  5  6  1  0  0  0  0
  5 11  1  0  0  0  0
  6  7  1  0  0  0  0
  7  8  1  0  0  0  0
  7 10  2  0  0  0  0
  8  9  2  0  0  0  0
  8 34  1  0  0  0  0
  9 35  1  0  0  0  0
 11 12  2  0  0  0  0
 11 15  1  0  0  0  0
 12  2  1  0  0  0  0
 12  1  1  0  0  0  0
 13 14  1  0  0  0  0
 13 16  1  0  0  0  0
 13 17  1  0  0  0  0
 14 15  1  0  0  0  0
 14 36  1  6  0  0  0
 14 19  1  0  0  0  0
 15 37  1  6  0  0  0
 15 18  1  0  0  0  0
 16 38  1  0  0  0  0
 16 39  1  0  0  0  0
 16 40  1  0  0  0  0
 17 41  1  0  0  0  0
 17 42  1  0  0  0  0
 17 43  1  0  0  0  0
 18 20  1  0  0  0  0
 19 25  1  0  0  0  0
 20 21  1  0  0  0  0
 20 31  2  0  0  0  0
 21 22  1  0  0  0  0
 21 44  1  0  0  0  0
 21 45  1  0  0  0  0
 22 23  1  0  0  0  0
 22 24  1  0  0  0  0
 22 46  1  0  0  0  0
 23 47  1  0  0  0  0
 23 48  1  0  0  0  0
 23 49  1  0  0  0  0
 24 50  1  0  0  0  0
 24 51  1  0  0  0  0
 24 52  1  0  0  0  0
 25 26  1  0  0  0  0
 25 30  2  0  0  0  0
 26 27  1  0  0  0  0
 26 28  2  0  0  0  0
 27 53  1  0  0  0  0
 27 54  1  0  0  0  0
 27 55  1  0  0  0  0
 28 29  1  0  0  0  0
 28 56  1  0  0  0  0
 29 57  1  0  0  0  0
 29 58  1  0  0  0  0
 29 59  1  0  0  0  0
M  END
>  <Mol_ID>
4424

>  <Formula>
C24H28O7

>  <MolWeight>
428.47492

>  <Cat>
S9151

>  <Name>
Praeruptorin E

>  <Target>
Calcium Channel

>  <Form>
free base

>  <CAS>
78478-28-1

>  <URL>
https://www.selleckchem.com/products/praeruptorin-e.html

$$$$
