S9164 Curdione.cdx
 OpenBabel08302521192D

 41 41  0  0  0  0  0  0  0  0999 V2000
    0.0000    2.8486    0.0000 C   0  0  0  0  0  0  0  0  0  0  0  0
    0.0000    1.4515    0.0000 C   0  0  0  0  0  0  0  0  0  0  0  0
    1.2034    0.7567    0.0000 C   0  0  0  0  0  0  0  0  0  0  0  0
    1.2034    3.5511    0.0000 C   0  0  1  0  0  0  0  0  0  0  0  0
    2.4144    2.8486    0.0000 C   0  0  0  0  0  0  0  0  0  0  0  0
    2.4085    1.4515    0.0000 C   0  0  0  0  0  0  0  0  0  0  0  0
    3.6089    0.7515    0.0000 C   0  0  0  0  0  0  0  0  0  0  0  0
    4.8227    1.4411    0.0000 C   0  0  0  0  0  0  0  0  0  0  0  0
    4.8289    2.8383    0.0000 C   0  0  1  0  0  0  0  0  0  0  0  0
    3.6208    3.5459    0.0000 C   0  0  0  0  0  0  0  0  0  0  0  0
    6.0751    0.7180    0.0000 O   0  0  0  0  0  0  0  0  0  0  0  0
    2.4007    4.3075    0.0000 O   0  0  0  0  0  0  0  0  0  0  0  0
    1.1888    5.0100    0.0000 C   0  0  0  0  0  0  0  0  0  0  0  0
    6.0829    3.5742    0.0000 C   0  0  0  0  0  0  0  0  0  0  0  0
    2.4007    0.0000    0.0000 C   0  0  0  0  0  0  0  0  0  0  0  0
    7.3414    2.8486    0.0000 C   0  0  0  0  0  0  0  0  0  0  0  0
    6.0751    5.0332    0.0000 C   0  0  0  0  0  0  0  0  0  0  0  0
   -0.9279    3.3814    0.0000 H   0  0  0  0  0  0  0  0  0  0  0  0
   -0.0038    3.9186    0.0000 H   0  0  0  0  0  0  0  0  0  0  0  0
   -0.9266    0.9165    0.0000 H   0  0  0  0  0  0  0  0  0  0  0  0
   -0.0000    0.3815    0.0000 H   0  0  0  0  0  0  0  0  0  0  0  0
    1.2031   -0.2753    0.0000 H   0  0  0  0  0  0  0  0  0  0  0  0
    0.2728    4.0792    0.0000 H   0  0  0  0  0  0  0  0  0  0  0  0
    3.6029   -0.3185    0.0000 H   0  0  0  0  0  0  0  0  0  0  0  0
    4.5322    0.2107    0.0000 H   0  0  0  0  0  0  0  0  0  0  0  0
    5.7563    2.3045    0.0000 H   0  0  0  0  0  0  0  0  0  0  0  0
    3.6239    4.6159    0.0000 H   0  0  0  0  0  0  0  0  0  0  0  0
    4.5499    4.0767    0.0000 H   0  0  0  0  0  0  0  0  0  0  0  0
    2.1100    5.5542    0.0000 H   0  0  0  0  0  0  0  0  0  0  0  0
    0.2568    5.5357    0.0000 H   0  0  0  0  0  0  0  0  0  0  0  0
    1.1781    6.0799    0.0000 H   0  0  0  0  0  0  0  0  0  0  0  0
    7.0080    4.1119    0.0000 H   0  0  0  0  0  0  0  0  0  0  0  0
    1.4712   -0.5300    0.0000 H   0  0  0  0  0  0  0  0  0  0  0  0
    3.3245   -0.5400    0.0000 H   0  0  0  0  0  0  0  0  0  0  0  0
    2.3950   -1.0700    0.0000 H   0  0  0  0  0  0  0  0  0  0  0  0
    7.3420    1.7786    0.0000 H   0  0  0  0  0  0  0  0  0  0  0  0
    8.2677    3.3841    0.0000 H   0  0  0  0  0  0  0  0  0  0  0  0
    8.2684    2.3141    0.0000 H   0  0  0  0  0  0  0  0  0  0  0  0
    6.9989    5.5731    0.0000 H   0  0  0  0  0  0  0  0  0  0  0  0
    5.1456    5.5632    0.0000 H   0  0  0  0  0  0  0  0  0  0  0  0
    6.0694    6.1032    0.0000 H   0  0  0  0  0  0  0  0  0  0  0  0
  1  2  1  0  0  0  0
  1  4  1  0  0  0  0
  1 18  1  0  0  0  0
  1 19  1  0  0  0  0
  2  3  1  0  0  0  0
  2 20  1  0  0  0  0
  2 21  1  0  0  0  0
  3  6  2  0  0  0  0
  3 22  1  0  0  0  0
  4 13  1  0  0  0  0
  4 23  1  1  0  0  0
  5 12  2  0  0  0  0
  5  4  1  0  0  0  0
  5 10  1  0  0  0  0
  6  7  1  0  0  0  0
  6 15  1  0  0  0  0
  7  8  1  0  0  0  0
  7 24  1  0  0  0  0
  7 25  1  0  0  0  0
  8  9  1  0  0  0  0
  8 11  2  0  0  0  0
  9 10  1  0  0  0  0
  9 14  1  0  0  0  0
  9 26  1  6  0  0  0
 10 27  1  0  0  0  0
 10 28  1  0  0  0  0
 13 29  1  0  0  0  0
 13 30  1  0  0  0  0
 13 31  1  0  0  0  0
 14 16  1  0  0  0  0
 14 17  1  0  0  0  0
 14 32  1  0  0  0  0
 15 33  1  0  0  0  0
 15 34  1  0  0  0  0
 15 35  1  0  0  0  0
 16 36  1  0  0  0  0
 16 37  1  0  0  0  0
 16 38  1  0  0  0  0
 17 39  1  0  0  0  0
 17 40  1  0  0  0  0
 17 41  1  0  0  0  0
M  END
>  <Mol_ID>
4433

>  <Formula>
C15H24O2

>  <MolWeight>
236.34986

>  <Cat>
S9164

>  <Name>
Curdione

>  <Target>
Others

>  <Form>
free base

>  <CAS>
13657-68-6

>  <URL>
https://www.selleckchem.com/products/curdione.html

$$$$
