S9167 Columbin.cdx
 OpenBabel08302521193D

 48 52  0  0  0  0  0  0  0  0999 V2000
   -0.7720   -0.4564    0.0101 C   0  0  3  0  0  0  0  0  0  0  0  0
   -1.4167    1.4054    0.1107 C   0  0  3  0  0  0  0  0  0  0  0  0
    0.5948   -0.9162    0.5079 C   0  0  3  0  0  0  0  0  0  0  0  0
   -2.0505   -1.5808   -0.6571 C   0  0  3  0  0  0  0  0  0  0  0  0
   -2.9895    1.3905   -0.5922 C   0  0  3  0  0  0  0  0  0  0  0  0
   -0.2470    2.2233   -0.3988 C   0  0  0  0  0  0  0  0  0  0  0  0
   -1.8156    2.4980    1.3069 C   0  0  0  0  0  0  0  0  0  0  0  0
    1.4017    0.4988    0.3000 C   0  0  3  0  0  0  0  0  0  0  0  0
    1.5405   -1.7875   -0.4483 C   0  0  0  0  0  0  0  0  0  0  0  0
    0.3117   -2.0623    1.5850 C   0  0  0  0  0  0  0  0  0  0  0  0
   -2.8416   -0.9918   -2.1022 O   0  0  0  0  0  0  0  0  0  0  0  0
   -2.7744   -0.5933   -0.1307 C   0  0  0  0  0  0  0  0  0  0  0  0
   -2.9285    0.6256   -2.2448 C   0  0  0  0  0  0  0  0  0  0  0  0
   -3.4720    0.3389    0.3985 C   0  0  0  0  0  0  0  0  0  0  0  0
   -3.9135    2.4062   -0.4101 O   0  0  0  0  0  0  0  0  0  0  0  0
    0.8212    1.8448    0.6529 C   0  0  0  0  0  0  0  0  0  0  0  0
    2.9125    0.5856    0.4394 C   0  0  0  0  0  0  0  0  0  0  0  0
    2.8861   -1.5989    0.2829 C   0  0  3  0  0  0  0  0  0  0  0  0
   -2.4011    1.1765   -3.2064 O   0  0  0  0  0  0  0  0  0  0  0  0
    3.5108   -0.4239   -0.2016 O   0  0  0  0  0  0  0  0  0  0  0  0
    3.5373    1.5075    0.9270 O   0  0  0  0  0  0  0  0  0  0  0  0
    3.8516   -2.6444    0.5012 C   0  0  0  0  0  0  0  0  0  0  0  0
    4.7828   -2.8389    1.5288 C   0  0  0  0  0  0  0  0  0  0  0  0
    4.1166   -3.5735   -0.4775 C   0  0  0  0  0  0  0  0  0  0  0  0
    5.5380   -3.9105    1.1182 C   0  0  0  0  0  0  0  0  0  0  0  0
    5.1462   -4.3571   -0.1049 O   0  0  0  0  0  0  0  0  0  0  0  0
   -0.3694   -0.4551   -1.0147 H   0  0  0  0  0  0  0  0  0  0  0  0
   -2.6689   -2.3241   -0.1075 H   0  0  0  0  0  0  0  0  0  0  0  0
    0.0131    2.0422   -1.4456 H   0  0  0  0  0  0  0  0  0  0  0  0
   -0.3899    3.3124   -0.3466 H   0  0  0  0  0  0  0  0  0  0  0  0
   -1.0391    2.8910    1.9741 H   0  0  0  0  0  0  0  0  0  0  0  0
   -2.0715    3.4351    0.7456 H   0  0  0  0  0  0  0  0  0  0  0  0
   -2.7336    2.3429    1.8771 H   0  0  0  0  0  0  0  0  0  0  0  0
    1.3764    0.5863   -0.8036 H   0  0  0  0  0  0  0  0  0  0  0  0
    1.5608   -1.3685   -1.4657 H   0  0  0  0  0  0  0  0  0  0  0  0
    1.2419   -2.8340   -0.5662 H   0  0  0  0  0  0  0  0  0  0  0  0
    1.1765   -2.4577    2.1371 H   0  0  0  0  0  0  0  0  0  0  0  0
   -0.5106   -1.9021    2.2845 H   0  0  0  0  0  0  0  0  0  0  0  0
   -0.0282   -2.9774    1.0371 H   0  0  0  0  0  0  0  0  0  0  0  0
   -2.0976   -0.1041   -0.9198 H   0  0  0  0  0  0  0  0  0  0  0  0
   -3.5041    0.2566    1.4920 H   0  0  0  0  0  0  0  0  0  0  0  0
   -4.7670    1.9219   -0.4329 H   0  0  0  0  0  0  0  0  0  0  0  0
    1.5434    2.6690    0.6853 H   0  0  0  0  0  0  0  0  0  0  0  0
    0.4560    1.7444    1.6742 H   0  0  0  0  0  0  0  0  0  0  0  0
    2.6460   -1.3815    1.3281 H   0  0  0  0  0  0  0  0  0  0  0  0
    4.9068   -2.2549    2.4282 H   0  0  0  0  0  0  0  0  0  0  0  0
    3.6900   -3.7437   -1.4611 H   0  0  0  0  0  0  0  0  0  0  0  0
    6.3705   -4.4399    1.5423 H   0  0  0  0  0  0  0  0  0  0  0  0
  1  2  1  0  0  0  0
  1  3  1  0  0  0  0
  1  4  1  0  0  0  0
  1 27  1  0  0  0  0
  2  5  1  0  0  0  0
  2  6  1  0  0  0  0
  2  7  1  0  0  0  0
  3  8  1  0  0  0  0
  3  9  1  0  0  0  0
  3 10  1  0  0  0  0
  4 11  1  0  0  0  0
  4 12  1  0  0  0  0
  4 28  1  0  0  0  0
  5 13  1  0  0  0  0
  5 14  1  0  0  0  0
  5 15  1  0  0  0  0
  6 16  1  0  0  0  0
  6 29  1  0  0  0  0
  6 30  1  0  0  0  0
  7 31  1  0  0  0  0
  7 32  1  0  0  0  0
  7 33  1  0  0  0  0
  8 17  1  0  0  0  0
  8 16  1  0  0  0  0
  8 34  1  0  0  0  0
  9 18  1  0  0  0  0
  9 35  1  0  0  0  0
  9 36  1  0  0  0  0
 10 37  1  0  0  0  0
 10 38  1  0  0  0  0
 10 39  1  0  0  0  0
 11 13  1  0  0  0  0
 12 14  2  0  0  0  0
 12 40  1  0  0  0  0
 13 19  2  0  0  0  0
 14 41  1  0  0  0  0
 15 42  1  0  0  0  0
 16 43  1  0  0  0  0
 16 44  1  0  0  0  0
 17 20  1  0  0  0  0
 17 21  2  0  0  0  0
 18 22  1  0  0  0  0
 18 20  1  0  0  0  0
 18 45  1  0  0  0  0
 22 23  1  0  0  0  0
 22 24  2  0  0  0  0
 23 25  2  0  0  0  0
 23 46  1  0  0  0  0
 24 26  1  0  0  0  0
 24 47  1  0  0  0  0
 25 26  1  0  0  0  0
 25 48  1  0  0  0  0
M  END
>  <Mol_ID>
4435

>  <Formula>
C20H22O6

>  <MolWeight>
358.38508

>  <Cat>
S9167

>  <Name>
Columbin

>  <Target>
Immunology & Inflammation related

>  <Form>
free base

>  <CAS>
546-97-4

>  <URL>
https://www.selleckchem.com/products/columbin.html

$$$$
