S9162 Rubimaillin.cdx
 OpenBabel08302521193D

 37 39  0  0  0  0  0  0  0  0999 V2000
    0.8147   -1.5599    0.2087 C   0  0  0  0  0  0  0  0  0  0  0  0
    1.3500   -1.1843   -0.9763 C   0  0  0  0  0  0  0  0  0  0  0  0
   -0.3423   -0.8830    0.5550 C   0  0  0  0  0  0  0  0  0  0  0  0
    1.8639   -1.9685    1.0663 O   0  0  0  0  0  0  0  0  0  0  0  0
    1.7113    0.1433   -0.9035 C   0  0  0  0  0  0  0  0  0  0  0  0
    1.6272   -2.5125   -1.6286 C   0  0  0  0  0  0  0  0  0  0  0  0
   -0.3999    0.4815    0.2222 C   0  0  0  0  0  0  0  0  0  0  0  0
   -1.5510   -1.5771    0.7299 C   0  0  0  0  0  0  0  0  0  0  0  0
    2.8797   -2.8395    0.3761 C   0  0  0  0  0  0  0  0  0  0  0  0
    0.7678    1.0264   -0.3096 C   0  0  0  0  0  0  0  0  0  0  0  0
    3.0862    0.6727   -0.9660 C   0  0  0  0  0  0  0  0  0  0  0  0
    2.1745   -3.4545   -0.8107 C   0  0  0  0  0  0  0  0  0  0  0  0
   -1.6227    1.1779    0.2646 C   0  0  0  0  0  0  0  0  0  0  0  0
   -2.7781   -0.9140    0.5971 C   0  0  0  0  0  0  0  0  0  0  0  0
    4.1447   -2.2572   -0.3786 C   0  0  0  0  0  0  0  0  0  0  0  0
    3.5251   -3.6202    1.5269 C   0  0  0  0  0  0  0  0  0  0  0  0
    0.9594    2.3834   -0.3209 O   0  0  0  0  0  0  0  0  0  0  0  0
    3.3811    1.2314    0.2538 O   0  0  0  0  0  0  0  0  0  0  0  0
    3.8096    0.5746   -1.9238 O   0  0  0  0  0  0  0  0  0  0  0  0
   -2.8117    0.4652    0.3988 C   0  0  0  0  0  0  0  0  0  0  0  0
    4.5895    2.0244    0.3821 C   0  0  0  0  0  0  0  0  0  0  0  0
    1.0601   -2.7804   -2.5132 H   0  0  0  0  0  0  0  0  0  0  0  0
   -1.5501   -2.6644    0.7801 H   0  0  0  0  0  0  0  0  0  0  0  0
    2.1897   -4.5165   -1.0168 H   0  0  0  0  0  0  0  0  0  0  0  0
   -1.6779    2.2327    0.0045 H   0  0  0  0  0  0  0  0  0  0  0  0
   -3.7049   -1.4833    0.5752 H   0  0  0  0  0  0  0  0  0  0  0  0
    4.5640   -1.3621    0.0631 H   0  0  0  0  0  0  0  0  0  0  0  0
    4.9317   -3.0327   -0.4243 H   0  0  0  0  0  0  0  0  0  0  0  0
    3.9941   -2.0641   -1.4559 H   0  0  0  0  0  0  0  0  0  0  0  0
    2.8036   -4.0119    2.2443 H   0  0  0  0  0  0  0  0  0  0  0  0
    4.1948   -4.4188    1.1918 H   0  0  0  0  0  0  0  0  0  0  0  0
    4.1492   -2.9074    2.0958 H   0  0  0  0  0  0  0  0  0  0  0  0
    0.4775    2.7542    0.4409 H   0  0  0  0  0  0  0  0  0  0  0  0
   -3.7648    0.9737    0.2645 H   0  0  0  0  0  0  0  0  0  0  0  0
    5.4000    1.4121    0.7886 H   0  0  0  0  0  0  0  0  0  0  0  0
    4.8878    2.5100   -0.5486 H   0  0  0  0  0  0  0  0  0  0  0  0
    4.3847    2.8167    1.1193 H   0  0  0  0  0  0  0  0  0  0  0  0
  1  2  2  0  0  0  0
  1  3  1  0  0  0  0
  1  4  1  0  0  0  0
  2  5  1  0  0  0  0
  2  6  1  0  0  0  0
  3  7  2  0  0  0  0
  3  8  1  0  0  0  0
  4  9  1  0  0  0  0
  5 10  2  0  0  0  0
  5 11  1  0  0  0  0
  6 12  2  0  0  0  0
  6 22  1  0  0  0  0
  7 13  1  0  0  0  0
  7 10  1  0  0  0  0
  8 14  2  0  0  0  0
  8 23  1  0  0  0  0
  9 15  1  0  0  0  0
  9 16  1  0  0  0  0
  9 12  1  0  0  0  0
 10 17  1  0  0  0  0
 11 18  1  0  0  0  0
 11 19  2  0  0  0  0
 12 24  1  0  0  0  0
 13 20  2  0  0  0  0
 13 25  1  0  0  0  0
 14 20  1  0  0  0  0
 14 26  1  0  0  0  0
 15 27  1  0  0  0  0
 15 28  1  0  0  0  0
 15 29  1  0  0  0  0
 16 30  1  0  0  0  0
 16 31  1  0  0  0  0
 16 32  1  0  0  0  0
 17 33  1  0  0  0  0
 18 21  1  0  0  0  0
 20 34  1  0  0  0  0
 21 35  1  0  0  0  0
 21 36  1  0  0  0  0
 21 37  1  0  0  0  0
M  END
>  <Mol_ID>
4431

>  <Formula>
C17H16O4

>  <MolWeight>
284.30654

>  <Cat>
S9162

>  <Name>
Rubimaillin

>  <Synonyms>
Mollugin

>  <Target>
Acyltransferase

>  <Form>
free base

>  <CAS>
55481-88-4

>  <URL>
https://www.selleckchem.com/products/rubimaillin.html

$$$$
