S9168 Periplogenin.cdx
 OpenBabel08302521203D

 62 66  0  0  0  0  0  0  0  0999 V2000
   -0.2664    3.3091    0.6977 C   0  0  1  0  0  0  0  0  0  0  0  0
    1.2543    3.4382    0.9423 C   0  0  2  0  0  0  0  0  0  0  0  0
   -0.7574    2.0615   -0.0753 C   0  0  1  0  0  0  0  0  0  0  0  0
   -1.1017    3.4062    1.9745 C   0  0  0  0  0  0  0  0  0  0  0  0
    2.0945    3.0849   -0.3475 C   0  0  1  0  0  0  0  0  0  0  0  0
    1.8502    2.5897    2.0896 C   0  0  0  0  0  0  0  0  0  0  0  0
    1.5267    4.7893    1.3679 O   0  0  0  0  0  0  0  0  0  0  0  0
   -2.2325    2.2825   -0.6092 C   0  0  2  0  0  0  0  0  0  0  0  0
    0.2043    1.5831   -1.1766 C   0  0  0  0  0  0  0  0  0  0  0  0
   -2.5238    3.7739    1.5888 C   0  0  0  0  0  0  0  0  0  0  0  0
    2.9528    1.8769    0.1658 C   0  0  2  0  0  0  0  0  0  0  0  0
    1.2325    2.6342   -1.5446 C   0  0  0  0  0  0  0  0  0  0  0  0
    2.8975    4.3124   -0.8283 C   0  0  0  0  0  0  0  0  0  0  0  0
    3.2710    2.2483    1.6073 C   0  0  0  0  0  0  0  0  0  0  0  0
   -3.1859    2.8560    0.5312 C   0  0  2  0  0  0  0  0  0  0  0  0
   -2.7393    0.8819   -1.1091 C   0  0  0  0  0  0  0  0  0  0  0  0
   -2.2284    3.2387   -1.8373 C   0  0  0  0  0  0  0  0  0  0  0  0
    3.9691    1.2490   -0.7347 C   0  0  0  0  0  0  0  0  0  0  0  0
   -3.9216    1.6975    1.2353 C   0  0  0  0  0  0  0  0  0  0  0  0
   -4.2384    3.6657   -0.0619 O   0  0  0  0  0  0  0  0  0  0  0  0
   -4.2497    0.7433   -1.1209 C   0  0  0  0  0  0  0  0  0  0  0  0
    3.9038   -0.0379   -1.0876 C   0  0  0  0  0  0  0  0  0  0  0  0
    5.0393    1.9186   -1.5037 C   0  0  0  0  0  0  0  0  0  0  0  0
   -4.8507    0.9500    0.2682 C   0  0  2  0  0  0  0  0  0  0  0  0
    4.8312   -0.2424   -2.1865 C   0  0  0  0  0  0  0  0  0  0  0  0
    5.5158    0.9075   -2.4013 O   0  0  0  0  0  0  0  0  0  0  0  0
   -6.0677    1.6819    0.1142 O   0  0  0  0  0  0  0  0  0  0  0  0
    4.9191   -1.2708   -2.8327 O   0  0  0  0  0  0  0  0  0  0  0  0
   -0.5174    4.1887    0.0881 H   0  0  0  0  0  0  0  0  0  0  0  0
   -0.8017    1.2340    0.6506 H   0  0  0  0  0  0  0  0  0  0  0  0
   -1.0880    2.4600    2.5298 H   0  0  0  0  0  0  0  0  0  0  0  0
   -0.7039    4.1722    2.6506 H   0  0  0  0  0  0  0  0  0  0  0  0
    1.8796    3.1184    3.0490 H   0  0  0  0  0  0  0  0  0  0  0  0
    1.2784    1.6649    2.2310 H   0  0  0  0  0  0  0  0  0  0  0  0
    0.8035    5.3778    1.0943 H   0  0  0  0  0  0  0  0  0  0  0  0
    0.6889    0.6586   -0.8449 H   0  0  0  0  0  0  0  0  0  0  0  0
   -0.3088    1.2704   -2.0894 H   0  0  0  0  0  0  0  0  0  0  0  0
   -3.1382    3.8133    2.4970 H   0  0  0  0  0  0  0  0  0  0  0  0
   -2.5105    4.8102    1.2249 H   0  0  0  0  0  0  0  0  0  0  0  0
    2.2530    1.0458    0.3113 H   0  0  0  0  0  0  0  0  0  0  0  0
    0.7178    3.4997   -1.9803 H   0  0  0  0  0  0  0  0  0  0  0  0
    1.8727    2.2379   -2.3428 H   0  0  0  0  0  0  0  0  0  0  0  0
    3.7126    4.5763   -0.1506 H   0  0  0  0  0  0  0  0  0  0  0  0
    3.3100    4.1715   -1.8299 H   0  0  0  0  0  0  0  0  0  0  0  0
    2.2400    5.1881   -0.9255 H   0  0  0  0  0  0  0  0  0  0  0  0
    3.9396    3.1092    1.6828 H   0  0  0  0  0  0  0  0  0  0  0  0
    3.6973    1.4184    2.1828 H   0  0  0  0  0  0  0  0  0  0  0  0
   -2.3341    0.0838   -0.4696 H   0  0  0  0  0  0  0  0  0  0  0  0
   -2.3657    0.6685   -2.1177 H   0  0  0  0  0  0  0  0  0  0  0  0
   -3.2284    3.3375   -2.2731 H   0  0  0  0  0  0  0  0  0  0  0  0
   -1.8817    4.2420   -1.5756 H   0  0  0  0  0  0  0  0  0  0  0  0
   -1.5934    2.8765   -2.6500 H   0  0  0  0  0  0  0  0  0  0  0  0
   -3.1926    1.0064    1.6744 H   0  0  0  0  0  0  0  0  0  0  0  0
   -4.5392    2.0902    2.0554 H   0  0  0  0  0  0  0  0  0  0  0  0
   -3.8510    4.5029   -0.3533 H   0  0  0  0  0  0  0  0  0  0  0  0
   -4.5148   -0.2598   -1.4777 H   0  0  0  0  0  0  0  0  0  0  0  0
   -4.6804    1.4371   -1.8541 H   0  0  0  0  0  0  0  0  0  0  0  0
    3.2148   -0.7988   -0.7513 H   0  0  0  0  0  0  0  0  0  0  0  0
    4.6853    2.7443   -2.1193 H   0  0  0  0  0  0  0  0  0  0  0  0
    5.8666    2.2504   -0.8746 H   0  0  0  0  0  0  0  0  0  0  0  0
   -5.1189   -0.0167    0.7079 H   0  0  0  0  0  0  0  0  0  0  0  0
   -5.7885    2.5971   -0.1102 H   0  0  0  0  0  0  0  0  0  0  0  0
  1  2  1  0  0  0  0
  1  3  1  0  0  0  0
  1  4  1  0  0  0  0
  1 29  1  6  0  0  0
  2  5  1  0  0  0  0
  2  6  1  0  0  0  0
  2  7  1  1  0  0  0
  3  8  1  0  0  0  0
  3  9  1  0  0  0  0
  3 30  1  1  0  0  0
  4 10  1  0  0  0  0
  4 31  1  0  0  0  0
  4 32  1  0  0  0  0
  5 11  1  0  0  0  0
  5 12  1  0  0  0  0
  5 13  1  6  0  0  0
  6 14  1  0  0  0  0
  6 33  1  0  0  0  0
  6 34  1  0  0  0  0
  7 35  1  0  0  0  0
  8 15  1  0  0  0  0
  8 16  1  0  0  0  0
  8 17  1  6  0  0  0
  9 12  1  0  0  0  0
  9 36  1  0  0  0  0
  9 37  1  0  0  0  0
 10 15  1  0  0  0  0
 10 38  1  0  0  0  0
 10 39  1  0  0  0  0
 11 18  1  0  0  0  0
 11 14  1  0  0  0  0
 11 40  1  1  0  0  0
 12 41  1  0  0  0  0
 12 42  1  0  0  0  0
 13 43  1  0  0  0  0
 13 44  1  0  0  0  0
 13 45  1  0  0  0  0
 14 46  1  0  0  0  0
 14 47  1  0  0  0  0
 15 19  1  0  0  0  0
 15 20  1  6  0  0  0
 16 21  1  0  0  0  0
 16 48  1  0  0  0  0
 16 49  1  0  0  0  0
 17 50  1  0  0  0  0
 17 51  1  0  0  0  0
 17 52  1  0  0  0  0
 18 22  2  0  0  0  0
 18 23  1  0  0  0  0
 19 24  1  0  0  0  0
 19 53  1  0  0  0  0
 19 54  1  0  0  0  0
 20 55  1  0  0  0  0
 21 24  1  0  0  0  0
 21 56  1  0  0  0  0
 21 57  1  0  0  0  0
 22 25  1  0  0  0  0
 22 58  1  0  0  0  0
 23 26  1  0  0  0  0
 23 59  1  0  0  0  0
 23 60  1  0  0  0  0
 24 27  1  0  0  0  0
 24 61  1  1  0  0  0
 25 28  2  0  0  0  0
 25 26  1  0  0  0  0
 27 62  1  0  0  0  0
M  END
>  <Mol_ID>
4436

>  <Formula>
C23H34O5

>  <MolWeight>
390.51306

>  <Cat>
S9168

>  <Name>
Periplogenin

>  <Synonyms>
Desoxostrophanthidin, 5-beta-Hydroxydigitoxigenin

>  <Target>
Others

>  <Form>
free base

>  <CAS>
514-39-6

>  <URL>
https://www.selleckchem.com/products/periplogenin.html

$$$$
