S9166 Griffonilide.cdx
 OpenBabel08302521193D

 20 21  0  0  0  0  0  0  0  0999 V2000
    6.3010   -0.8313   -1.4608 C   0  0  0  0  0  0  0  0  0  0  0  0
    6.5036    0.6196   -1.2360 C   0  0  2  0  0  0  0  0  0  0  0  0
    5.5341    0.9399   -0.2364 O   0  0  0  0  0  0  0  0  0  0  0  0
    4.9379   -0.2143    0.1820 C   0  0  0  0  0  0  0  0  0  0  0  0
    6.2920    1.4031   -2.5373 C   0  0  2  0  0  0  0  0  0  0  0  0
    5.4419   -1.3479   -0.5919 C   0  0  0  0  0  0  0  0  0  0  0  0
    6.9087   -1.4610   -2.5938 C   0  0  0  0  0  0  0  0  0  0  0  0
    7.3001   -0.7061   -3.6322 C   0  0  0  0  0  0  0  0  0  0  0  0
    7.1264    0.7870   -3.6946 C   0  0  1  0  0  0  0  0  0  0  0  0
    4.0778   -0.2982    1.0394 O   0  0  0  0  0  0  0  0  0  0  0  0
    6.6648    2.7877   -2.3918 O   0  0  0  0  0  0  0  0  0  0  0  0
    6.5011    1.0897   -4.9419 O   0  0  0  0  0  0  0  0  0  0  0  0
    7.4925    0.8324   -0.8119 H   0  0  0  0  0  0  0  0  0  0  0  0
    5.2265    1.4193   -2.7988 H   0  0  0  0  0  0  0  0  0  0  0  0
    5.0477   -2.3461   -0.5206 H   0  0  0  0  0  0  0  0  0  0  0  0
    6.9945   -2.5437   -2.6286 H   0  0  0  0  0  0  0  0  0  0  0  0
    7.7423   -1.1811   -4.5047 H   0  0  0  0  0  0  0  0  0  0  0  0
    8.1195    1.2504   -3.7266 H   0  0  0  0  0  0  0  0  0  0  0  0
    7.5587    2.8312   -2.0128 H   0  0  0  0  0  0  0  0  0  0  0  0
    6.1940    2.0137   -4.8833 H   0  0  0  0  0  0  0  0  0  0  0  0
  2  1  1  0  0  0  0
  2  3  1  0  0  0  0
  2 13  1  1  0  0  0
  3  4  1  0  0  0  0
  4  6  1  0  0  0  0
  5  2  1  0  0  0  0
  5 11  1  0  0  0  0
  5 14  1  6  0  0  0
  6  1  2  0  0  0  0
  6 15  1  0  0  0  0
  7  1  1  0  0  0  0
  7 16  1  0  0  0  0
  8  7  2  0  0  0  0
  8  9  1  0  0  0  0
  8 17  1  0  0  0  0
  9  5  1  0  0  0  0
  9 18  1  1  0  0  0
  9 12  1  0  0  0  0
 10  4  2  0  0  0  0
 11 19  1  0  0  0  0
 12 20  1  0  0  0  0
M  END
>  <Mol_ID>
4434

>  <Formula>
C8H8O4

>  <MolWeight>
168.14672

>  <Cat>
S9166

>  <Name>
Griffonilide

>  <Target>
Others

>  <Form>
free base

>  <CAS>
61371-55-9

>  <URL>
https://www.selleckchem.com/products/griffonilide.html

$$$$
