S9163 Rhapontigenin.cdx
 OpenBabel08302521193D

 33 34  0  0  0  0  0  0  0  0999 V2000
   -0.1046    1.7950    0.0023 C   0  0  0  0  0  0  0  0  0  0  0  0
    0.9544    1.1281   -0.6345 C   0  0  0  0  0  0  0  0  0  0  0  0
   -0.0912    3.2669    0.0276 C   0  0  0  0  0  0  0  0  0  0  0  0
   -1.1022    1.0379    0.6332 C   0  0  0  0  0  0  0  0  0  0  0  0
    0.9911   -0.2654   -0.6565 C   0  0  0  0  0  0  0  0  0  0  0  0
   -1.1881    4.0431    0.0235 C   0  0  0  0  0  0  0  0  0  0  0  0
   -1.0464   -0.3554    0.5967 C   0  0  0  0  0  0  0  0  0  0  0  0
   -0.0065   -1.0132   -0.0469 C   0  0  0  0  0  0  0  0  0  0  0  0
    2.0049   -0.9389   -1.2728 O   0  0  0  0  0  0  0  0  0  0  0  0
   -1.1570    5.5160    0.0099 C   0  0  0  0  0  0  0  0  0  0  0  0
   -2.0062   -1.1185    1.1953 O   0  0  0  0  0  0  0  0  0  0  0  0
   -0.1447    6.2372   -0.6373 C   0  0  0  0  0  0  0  0  0  0  0  0
   -2.2059    6.2246    0.6007 C   0  0  0  0  0  0  0  0  0  0  0  0
   -0.1626    7.6390   -0.6675 C   0  0  0  0  0  0  0  0  0  0  0  0
   -2.2222    7.6235    0.5697 C   0  0  0  0  0  0  0  0  0  0  0  0
   -1.2024    8.3482   -0.0589 C   0  0  0  0  0  0  0  0  0  0  0  0
    0.8587    8.2803   -1.3140 O   0  0  0  0  0  0  0  0  0  0  0  0
   -1.3857    9.7016    0.0130 O   0  0  0  0  0  0  0  0  0  0  0  0
   -0.4113   10.5429   -0.5869 C   0  0  0  0  0  0  0  0  0  0  0  0
    1.7414    1.7002   -1.1172 H   0  0  0  0  0  0  0  0  0  0  0  0
    0.9003    3.7132    0.0337 H   0  0  0  0  0  0  0  0  0  0  0  0
   -1.9114    1.5333    1.1599 H   0  0  0  0  0  0  0  0  0  0  0  0
   -2.1820    3.6023    0.0209 H   0  0  0  0  0  0  0  0  0  0  0  0
    0.0289   -2.0978   -0.0679 H   0  0  0  0  0  0  0  0  0  0  0  0
    2.6285   -0.2966   -1.6484 H   0  0  0  0  0  0  0  0  0  0  0  0
   -2.6644   -0.5326    1.6029 H   0  0  0  0  0  0  0  0  0  0  0  0
    0.6577    5.7019   -1.1357 H   0  0  0  0  0  0  0  0  0  0  0  0
   -3.0208    5.7027    1.0976 H   0  0  0  0  0  0  0  0  0  0  0  0
   -3.0448    8.1584    1.0395 H   0  0  0  0  0  0  0  0  0  0  0  0
    1.4691    7.6218   -1.6828 H   0  0  0  0  0  0  0  0  0  0  0  0
    0.5701   10.4132   -0.1201 H   0  0  0  0  0  0  0  0  0  0  0  0
   -0.3752   10.3970   -1.6712 H   0  0  0  0  0  0  0  0  0  0  0  0
   -0.7166   11.5791   -0.4107 H   0  0  0  0  0  0  0  0  0  0  0  0
  1  2  2  0  0  0  0
  1  3  1  0  0  0  0
  1  4  1  0  0  0  0
  2  5  1  0  0  0  0
  2 20  1  0  0  0  0
  3  6  2  0  0  0  0
  3 21  1  0  0  0  0
  4  7  2  0  0  0  0
  4 22  1  0  0  0  0
  5  8  2  0  0  0  0
  5  9  1  0  0  0  0
  6 10  1  0  0  0  0
  6 23  1  0  0  0  0
  7 11  1  0  0  0  0
  7  8  1  0  0  0  0
  8 24  1  0  0  0  0
  9 25  1  0  0  0  0
 10 12  2  0  0  0  0
 10 13  1  0  0  0  0
 11 26  1  0  0  0  0
 12 14  1  0  0  0  0
 12 27  1  0  0  0  0
 13 15  2  0  0  0  0
 13 28  1  0  0  0  0
 14 16  2  0  0  0  0
 14 17  1  0  0  0  0
 15 16  1  0  0  0  0
 15 29  1  0  0  0  0
 16 18  1  0  0  0  0
 17 30  1  0  0  0  0
 18 19  1  0  0  0  0
 19 31  1  0  0  0  0
 19 32  1  0  0  0  0
 19 33  1  0  0  0  0
M  END
>  <Mol_ID>
4432

>  <Formula>
C15H14O4

>  <MolWeight>
258.26926

>  <Cat>
S9163

>  <Name>
Rhapontigenin

>  <Synonyms>
Protigenin

>  <Target>
P450 (e.g. CYP17)

>  <Form>
free base

>  <CAS>
500-65-2

>  <URL>
https://www.selleckchem.com/products/rhapontigenin.html

$$$$
