S9178 Sinapine thiocyanate.cdx
 OpenBabel08302521193D

 49 48  0  0  0  0  0  0  0  0999 V2000
   -1.4519   -0.8026    0.8247 C   0  0  0  0  0  0  0  0  0  0  0  0
   -2.1529   -0.3242    2.1085 C   0  0  0  0  0  0  0  0  0  0  0  0
   -1.7310    1.0540    2.6556 N   0  3  0  0  0  0  0  0  0  0  0  0
   -1.8995    2.1572    1.6276 C   0  0  0  0  0  0  0  0  0  0  0  0
   -2.5966    1.3657    3.8701 C   0  0  0  0  0  0  0  0  0  0  0  0
   -0.2669    1.0225    3.1091 C   0  0  0  0  0  0  0  0  0  0  0  0
   -0.0431   -1.0458    0.8638 O   0  0  0  0  0  0  0  0  0  0  0  0
    0.3792   -2.0573    1.6651 C   0  0  0  0  0  0  0  0  0  0  0  0
    1.4713   -2.7599    0.9618 C   0  0  0  0  0  0  0  0  0  0  0  0
    1.9544   -3.9263    1.4188 C   0  0  0  0  0  0  0  0  0  0  0  0
   -0.1903   -2.4360    2.6756 O   0  0  0  0  0  0  0  0  0  0  0  0
    2.9044   -4.7691    0.6659 C   0  0  0  0  0  0  0  0  0  0  0  0
    3.8121   -4.2285   -0.2602 C   0  0  0  0  0  0  0  0  0  0  0  0
    4.6633   -5.0586   -0.9899 C   0  0  0  0  0  0  0  0  0  0  0  0
    4.6226   -6.4405   -0.7650 C   0  0  0  0  0  0  0  0  0  0  0  0
    3.7497   -7.0069    0.1705 C   0  0  0  0  0  0  0  0  0  0  0  0
    2.8926   -6.1611    0.8817 C   0  0  0  0  0  0  0  0  0  0  0  0
    5.5642   -4.6482   -1.9424 O   0  0  0  0  0  0  0  0  0  0  0  0
    5.4696   -7.2484   -1.4874 O   0  0  0  0  0  0  0  0  0  0  0  0
    3.2057    0.6168    2.0405 S   0  5  0  0  0  0  0  0  0  0  0  0
    4.0884   -0.0018    0.6448 C   0  0  0  0  0  0  0  0  0  0  0  0
    4.6271   -0.4295   -0.2854 N   0  0  0  0  0  0  0  0  0  0  0  0
    3.8073   -8.3705    0.3020 O   0  0  0  0  0  0  0  0  0  0  0  0
    2.9429   -8.9757    1.2524 C   0  0  0  0  0  0  0  0  0  0  0  0
    5.6295   -3.2446   -2.1878 C   0  0  0  0  0  0  0  0  0  0  0  0
   -1.9297   -1.7336    0.4941 H   0  0  0  0  0  0  0  0  0  0  0  0
   -1.6201   -0.0865    0.0142 H   0  0  0  0  0  0  0  0  0  0  0  0
   -3.2247   -0.2377    1.8868 H   0  0  0  0  0  0  0  0  0  0  0  0
   -2.0469   -1.0347    2.9319 H   0  0  0  0  0  0  0  0  0  0  0  0
   -2.9381    2.1504    1.2827 H   0  0  0  0  0  0  0  0  0  0  0  0
   -1.6679    3.1145    2.1052 H   0  0  0  0  0  0  0  0  0  0  0  0
   -1.2148    1.9828    0.7944 H   0  0  0  0  0  0  0  0  0  0  0  0
   -2.4521    0.5782    4.6158 H   0  0  0  0  0  0  0  0  0  0  0  0
   -2.2982    2.3365    4.2765 H   0  0  0  0  0  0  0  0  0  0  0  0
   -3.6430    1.3985    3.5493 H   0  0  0  0  0  0  0  0  0  0  0  0
   -0.1345    0.1765    3.7883 H   0  0  0  0  0  0  0  0  0  0  0  0
    0.3484    0.9393    2.2192 H   0  0  0  0  0  0  0  0  0  0  0  0
   -0.0509    1.9634    3.6242 H   0  0  0  0  0  0  0  0  0  0  0  0
    1.7777   -2.3288    0.0165 H   0  0  0  0  0  0  0  0  0  0  0  0
    1.6024   -4.3268    2.3673 H   0  0  0  0  0  0  0  0  0  0  0  0
    3.8468   -3.1545   -0.3983 H   0  0  0  0  0  0  0  0  0  0  0  0
    2.1906   -6.5664    1.6029 H   0  0  0  0  0  0  0  0  0  0  0  0
    5.9888   -6.6346   -2.0401 H   0  0  0  0  0  0  0  0  0  0  0  0
    3.1360   -8.6036    2.2625 H   0  0  0  0  0  0  0  0  0  0  0  0
    1.8945   -8.8405    0.9715 H   0  0  0  0  0  0  0  0  0  0  0  0
    3.1496  -10.0518    1.2516 H   0  0  0  0  0  0  0  0  0  0  0  0
    4.6742   -2.8690   -2.5714 H   0  0  0  0  0  0  0  0  0  0  0  0
    5.9451   -2.7065   -1.2893 H   0  0  0  0  0  0  0  0  0  0  0  0
    6.3864   -3.0762   -2.9597 H   0  0  0  0  0  0  0  0  0  0  0  0
  1  7  1  0  0  0  0
  1  2  1  0  0  0  0
  1 26  1  0  0  0  0
  1 27  1  0  0  0  0
  2  3  1  0  0  0  0
  2 28  1  0  0  0  0
  2 29  1  0  0  0  0
  3  4  1  0  0  0  0
  3  5  1  0  0  0  0
  3  6  1  0  0  0  0
  4 30  1  0  0  0  0
  4 31  1  0  0  0  0
  4 32  1  0  0  0  0
  5 33  1  0  0  0  0
  5 34  1  0  0  0  0
  5 35  1  0  0  0  0
  6 36  1  0  0  0  0
  6 37  1  0  0  0  0
  6 38  1  0  0  0  0
  7  8  1  0  0  0  0
  8  9  1  0  0  0  0
  8 11  2  0  0  0  0
  9 10  2  0  0  0  0
  9 39  1  0  0  0  0
 10 12  1  0  0  0  0
 10 40  1  0  0  0  0
 12 13  2  0  0  0  0
 13 14  1  0  0  0  0
 13 41  1  0  0  0  0
 14 15  2  0  0  0  0
 14 18  1  0  0  0  0
 15 16  1  0  0  0  0
 15 19  1  0  0  0  0
 16 17  2  0  0  0  0
 16 23  1  0  0  0  0
 17 12  1  0  0  0  0
 17 42  1  0  0  0  0
 18 25  1  0  0  0  0
 19 43  1  0  0  0  0
 20 21  1  0  0  0  0
 21 22  3  0  0  0  0
 23 24  1  0  0  0  0
 24 44  1  0  0  0  0
 24 45  1  0  0  0  0
 24 46  1  0  0  0  0
 25 47  1  0  0  0  0
 25 48  1  0  0  0  0
 25 49  1  0  0  0  0
M  CHG  2   3   1  20  -1
M  END
>  <Mol_ID>
4443

>  <Formula>
C17H24N2O5S

>  <MolWeight>
368.44786

>  <Cat>
S9178

>  <Name>
Sinapine thiocyanate

>  <Target>
Others

>  <Form>
free base

>  <CAS>
7431-77-8

>  <URL>
https://www.selleckchem.com/products/sinapine-thiocyanate.html

$$$$
