S9174 Xanthotoxol.cdx
 OpenBabel08302521193D

 21 23  0  0  0  0  0  0  0  0999 V2000
   -0.8738   -0.6872    0.0838 C   0  0  0  0  0  0  0  0  0  0  0  0
   -0.9281    0.7069    0.1339 C   0  0  0  0  0  0  0  0  0  0  0  0
    0.3322   -1.3909    0.0619 C   0  0  0  0  0  0  0  0  0  0  0  0
   -2.0604   -1.4536    0.0188 O   0  0  0  0  0  0  0  0  0  0  0  0
    0.2611    1.4534    0.1667 C   0  0  0  0  0  0  0  0  0  0  0  0
   -2.2287    1.3598    0.1177 C   0  0  0  0  0  0  0  0  0  0  0  0
    1.4920   -0.6205    0.0513 C   0  0  0  0  0  0  0  0  0  0  0  0
    0.3681   -2.7591    0.0230 O   0  0  0  0  0  0  0  0  0  0  0  0
   -3.3056   -0.8474   -0.0711 C   0  0  0  0  0  0  0  0  0  0  0  0
    1.4938    0.7729    0.1028 C   0  0  0  0  0  0  0  0  0  0  0  0
   -3.3378    0.6228    0.0066 C   0  0  0  0  0  0  0  0  0  0  0  0
    2.7741   -1.0830   -0.0200 O   0  0  0  0  0  0  0  0  0  0  0  0
   -4.3381   -1.4935   -0.1991 O   0  0  0  0  0  0  0  0  0  0  0  0
    2.8609    1.1624    0.0614 C   0  0  0  0  0  0  0  0  0  0  0  0
    3.5922    0.0006   -0.0279 C   0  0  0  0  0  0  0  0  0  0  0  0
    0.2426    2.5383    0.2099 H   0  0  0  0  0  0  0  0  0  0  0  0
   -2.2792    2.4421    0.1739 H   0  0  0  0  0  0  0  0  0  0  0  0
   -0.5537   -3.0716    0.0607 H   0  0  0  0  0  0  0  0  0  0  0  0
   -4.3215    1.0745   -0.0355 H   0  0  0  0  0  0  0  0  0  0  0  0
    3.2614    2.1659    0.0755 H   0  0  0  0  0  0  0  0  0  0  0  0
    4.6491   -0.2155   -0.1037 H   0  0  0  0  0  0  0  0  0  0  0  0
  1  2  1  0  0  0  0
  1  3  2  0  0  0  0
  1  4  1  0  0  0  0
  2  5  2  0  0  0  0
  2  6  1  0  0  0  0
  3  7  1  0  0  0  0
  3  8  1  0  0  0  0
  4  9  1  0  0  0  0
  5 10  1  0  0  0  0
  5 16  1  0  0  0  0
  6 11  2  0  0  0  0
  6 17  1  0  0  0  0
  7 12  1  0  0  0  0
  7 10  2  0  0  0  0
  8 18  1  0  0  0  0
  9 13  2  0  0  0  0
  9 11  1  0  0  0  0
 10 14  1  0  0  0  0
 11 19  1  0  0  0  0
 12 15  1  0  0  0  0
 14 15  2  0  0  0  0
 14 20  1  0  0  0  0
 15 21  1  0  0  0  0
M  END
>  <Mol_ID>
4441

>  <Formula>
C11H6O4

>  <MolWeight>
202.16294

>  <Cat>
S9174

>  <Name>
Xanthotoxol

>  <Synonyms>
8-Hydroxypsoralen, 8-Hydroxypsoralene, 8-Hydroxyfuranocoumarin, Psoralen

>  <Target>
5-HT Receptor,Immunology & Inflammation related

>  <Form>
free base

>  <CAS>
2009-24-7

>  <URL>
https://www.selleckchem.com/products/xanthotoxol.html

$$$$
