S9188 Magnoflorinechloride.cdx
 OpenBabel08302521203D

 49 52  0  0  0  0  0  0  0  0999 V2000
   -1.0143   -0.1211   -0.0988 C   0  0  0  0  0  0  0  0  0  0  0  0
    0.0806   -1.0261    0.0080 C   0  0  0  0  0  0  0  0  0  0  0  0
   -0.7217    1.3716   -0.1989 C   0  0  2  0  0  0  0  0  0  0  0  0
   -2.3492   -0.5915   -0.1140 C   0  0  0  0  0  0  0  0  0  0  0  0
    1.4817   -0.4967   -0.0863 C   0  0  0  0  0  0  0  0  0  0  0  0
   -0.2516   -2.3706    0.2693 C   0  0  0  0  0  0  0  0  0  0  0  0
    0.5507    1.7450    0.5943 C   0  0  0  0  0  0  0  0  0  0  0  0
   -1.9328    2.2792    0.2325 N   0  3  0  0  0  0  0  0  0  0  0  0
   -2.6138   -1.9603    0.0320 C   0  0  0  0  0  0  0  0  0  0  0  0
   -3.5271    0.3462   -0.1868 C   0  0  0  0  0  0  0  0  0  0  0  0
    1.7120    0.8629    0.2292 C   0  0  0  0  0  0  0  0  0  0  0  0
    2.6162   -1.2277   -0.4962 C   0  0  0  0  0  0  0  0  0  0  0  0
   -1.5738   -2.8502    0.2381 C   0  0  0  0  0  0  0  0  0  0  0  0
    0.7120   -3.2654    0.6674 O   0  0  0  0  0  0  0  0  0  0  0  0
   -3.1654    1.7831   -0.5387 C   0  0  0  0  0  0  0  0  0  0  0  0
   -2.1823    2.2368    1.7415 C   0  0  0  0  0  0  0  0  0  0  0  0
   -1.6990    3.7317   -0.1779 C   0  0  0  0  0  0  0  0  0  0  0  0
    3.0115    1.4041    0.2563 C   0  0  0  0  0  0  0  0  0  0  0  0
    3.9251   -0.7018   -0.4418 C   0  0  0  0  0  0  0  0  0  0  0  0
    2.4837   -2.4825   -1.0443 O   0  0  0  0  0  0  0  0  0  0  0  0
   -1.7098   -4.1969    0.4702 O   0  0  0  0  0  0  0  0  0  0  0  0
    4.1159    0.6183   -0.0582 C   0  0  0  0  0  0  0  0  0  0  0  0
    4.9215   -1.5796   -0.7961 O   0  0  0  0  0  0  0  0  0  0  0  0
   -3.0299   -4.7305    0.4488 C   0  0  0  0  0  0  0  0  0  0  0  0
    6.2629   -1.1204   -0.6532 C   0  0  0  0  0  0  0  0  0  0  0  0
   -0.5632    1.5916   -1.2651 H   0  0  0  0  0  0  0  0  0  0  0  0
    0.4031    1.6440    1.6752 H   0  0  0  0  0  0  0  0  0  0  0  0
    0.8200    2.7857    0.3851 H   0  0  0  0  0  0  0  0  0  0  0  0
   -3.6473   -2.2973    0.0238 H   0  0  0  0  0  0  0  0  0  0  0  0
   -4.0393    0.3282    0.7836 H   0  0  0  0  0  0  0  0  0  0  0  0
   -4.2426   -0.0222   -0.9318 H   0  0  0  0  0  0  0  0  0  0  0  0
    0.2902   -4.1454    0.6441 H   0  0  0  0  0  0  0  0  0  0  0  0
   -4.0007    2.4557   -0.3082 H   0  0  0  0  0  0  0  0  0  0  0  0
   -2.9319    1.8744   -1.6070 H   0  0  0  0  0  0  0  0  0  0  0  0
   -1.3877    2.7942    2.2457 H   0  0  0  0  0  0  0  0  0  0  0  0
   -3.1451    2.7151    1.9434 H   0  0  0  0  0  0  0  0  0  0  0  0
   -2.1896    1.2006    2.0866 H   0  0  0  0  0  0  0  0  0  0  0  0
   -1.5124    3.7667   -1.2551 H   0  0  0  0  0  0  0  0  0  0  0  0
   -2.5963    4.3070    0.0728 H   0  0  0  0  0  0  0  0  0  0  0  0
   -0.8470    4.1316    0.3765 H   0  0  0  0  0  0  0  0  0  0  0  0
    3.1744    2.4447    0.5288 H   0  0  0  0  0  0  0  0  0  0  0  0
    3.3892   -2.8473   -1.0817 H   0  0  0  0  0  0  0  0  0  0  0  0
    5.1008    1.0707   -0.0151 H   0  0  0  0  0  0  0  0  0  0  0  0
   -3.6329   -4.3126    1.2620 H   0  0  0  0  0  0  0  0  0  0  0  0
   -3.5095   -4.5663   -0.5226 H   0  0  0  0  0  0  0  0  0  0  0  0
   -2.9587   -5.8105    0.6059 H   0  0  0  0  0  0  0  0  0  0  0  0
    6.4737   -0.3154   -1.3661 H   0  0  0  0  0  0  0  0  0  0  0  0
    6.4730   -0.8034    0.3737 H   0  0  0  0  0  0  0  0  0  0  0  0
    6.9310   -1.9551   -0.8853 H   0  0  0  0  0  0  0  0  0  0  0  0
  1  2  1  0  0  0  0
  1  3  1  0  0  0  0
  1  4  2  0  0  0  0
  2  5  1  0  0  0  0
  2  6  2  0  0  0  0
  3  7  1  0  0  0  0
  3  8  1  0  0  0  0
  3 26  1  6  0  0  0
  4  9  1  0  0  0  0
  4 10  1  0  0  0  0
  5 11  2  0  0  0  0
  5 12  1  0  0  0  0
  6 13  1  0  0  0  0
  6 14  1  0  0  0  0
  7 11  1  0  0  0  0
  7 27  1  0  0  0  0
  7 28  1  0  0  0  0
  8 15  1  0  0  0  0
  8 16  1  0  0  0  0
  8 17  1  0  0  0  0
  9 13  2  0  0  0  0
  9 29  1  0  0  0  0
 10 15  1  0  0  0  0
 10 30  1  0  0  0  0
 10 31  1  0  0  0  0
 11 18  1  0  0  0  0
 12 19  2  0  0  0  0
 12 20  1  0  0  0  0
 13 21  1  0  0  0  0
 14 32  1  0  0  0  0
 15 33  1  0  0  0  0
 15 34  1  0  0  0  0
 16 35  1  0  0  0  0
 16 36  1  0  0  0  0
 16 37  1  0  0  0  0
 17 38  1  0  0  0  0
 17 39  1  0  0  0  0
 17 40  1  0  0  0  0
 18 22  2  0  0  0  0
 18 41  1  0  0  0  0
 19 23  1  0  0  0  0
 19 22  1  0  0  0  0
 20 42  1  0  0  0  0
 21 24  1  0  0  0  0
 22 43  1  0  0  0  0
 23 25  1  0  0  0  0
 24 44  1  0  0  0  0
 24 45  1  0  0  0  0
 24 46  1  0  0  0  0
 25 47  1  0  0  0  0
 25 48  1  0  0  0  0
 25 49  1  0  0  0  0
M  CHG  1   8   1
M  END
>  <Mol_ID>
4452

>  <Formula>
C20H24ClNO4

>  <MolWeight>
377.86186

>  <Cat>
S9188

>  <Name>
Magnoflorine chloride

>  <Synonyms>
Escholine chloride, Thalictrine chloride, Corytuberine methochloride

>  <Target>
Others

>  <Form>
free base

>  <CAS>
6681-18-1

>  <URL>
https://www.selleckchem.com/products/magnoflorinechloride.html

$$$$
