S9185 Nitidine Chloride.cdx
 OpenBabel08302521203D

 44 48  0  0  0  0  0  0  0  0999 V2000
   -0.4391   -0.6794   -0.1251 C   0  0  0  0  0  0  0  0  0  0  0  0
    0.5103    0.3955   -0.1617 C   0  0  0  0  0  0  0  0  0  0  0  0
   -1.8105   -0.4255    0.1189 C   0  0  0  0  0  0  0  0  0  0  0  0
    0.0204   -1.9637   -0.4424 C   0  0  0  0  0  0  0  0  0  0  0  0
    1.9074    0.0792   -0.2159 C   0  0  0  0  0  0  0  0  0  0  0  0
    0.0101    1.6748   -0.1862 N   0  3  0  0  0  0  0  0  0  0  0  0
   -2.2579    0.8957    0.1392 C   0  0  0  0  0  0  0  0  0  0  0  0
   -2.7737   -1.4360    0.3005 C   0  0  0  0  0  0  0  0  0  0  0  0
    1.3088   -2.1715   -0.9053 C   0  0  0  0  0  0  0  0  0  0  0  0
    2.2524   -1.1709   -0.7971 C   0  0  0  0  0  0  0  0  0  0  0  0
    2.9870    0.8201    0.3500 C   0  0  0  0  0  0  0  0  0  0  0  0
   -1.3185    1.9143   -0.0334 C   0  0  0  0  0  0  0  0  0  0  0  0
    0.8333    2.7856   -0.7232 C   0  0  0  0  0  0  0  0  0  0  0  0
   -3.6371    1.1620    0.2445 C   0  0  0  0  0  0  0  0  0  0  0  0
   -4.1469   -1.1868    0.4063 C   0  0  0  0  0  0  0  0  0  0  0  0
    3.5552   -1.4943   -1.1532 C   0  0  0  0  0  0  0  0  0  0  0  0
    4.2713    0.3211    0.2176 C   0  0  0  0  0  0  0  0  0  0  0  0
   -4.5920    0.1329    0.3383 C   0  0  0  0  0  0  0  0  0  0  0  0
   -4.8430   -2.3573    0.4770 O   0  0  0  0  0  0  0  0  0  0  0  0
    4.5519   -0.7498   -0.5926 C   0  0  0  0  0  0  0  0  0  0  0  0
    5.3708    0.6775    0.9454 O   0  0  0  0  0  0  0  0  0  0  0  0
   -5.9359    0.3856    0.3605 O   0  0  0  0  0  0  0  0  0  0  0  0
   -6.1973   -2.3796    0.8887 C   0  0  0  0  0  0  0  0  0  0  0  0
    5.8627   -1.1042   -0.5667 O   0  0  0  0  0  0  0  0  0  0  0  0
    6.2209   -0.4675    0.6730 C   0  0  0  0  0  0  0  0  0  0  0  0
   -6.3689    1.5941   -0.2636 C   0  0  0  0  0  0  0  0  0  0  0  0
   -0.6291   -2.8349   -0.4332 H   0  0  0  0  0  0  0  0  0  0  0  0
   -2.4792   -2.4832    0.3616 H   0  0  0  0  0  0  0  0  0  0  0  0
    1.5969   -3.1720   -1.2252 H   0  0  0  0  0  0  0  0  0  0  0  0
    2.8224    1.6494    1.0331 H   0  0  0  0  0  0  0  0  0  0  0  0
   -1.6388    2.9516   -0.1163 H   0  0  0  0  0  0  0  0  0  0  0  0
    1.5222    3.1211    0.0502 H   0  0  0  0  0  0  0  0  0  0  0  0
    1.3500    2.4343   -1.6226 H   0  0  0  0  0  0  0  0  0  0  0  0
    0.1903    3.6213   -1.0161 H   0  0  0  0  0  0  0  0  0  0  0  0
   -3.9655    2.1985    0.2232 H   0  0  0  0  0  0  0  0  0  0  0  0
    3.8096   -2.4008   -1.6959 H   0  0  0  0  0  0  0  0  0  0  0  0
   -6.2896   -2.1171    1.9458 H   0  0  0  0  0  0  0  0  0  0  0  0
   -6.8416   -1.7724    0.2491 H   0  0  0  0  0  0  0  0  0  0  0  0
   -6.5392   -3.4154    0.7776 H   0  0  0  0  0  0  0  0  0  0  0  0
    6.0988   -1.2152    1.4694 H   0  0  0  0  0  0  0  0  0  0  0  0
    7.2723   -0.1587    0.6441 H   0  0  0  0  0  0  0  0  0  0  0  0
   -6.1722    2.4526    0.3869 H   0  0  0  0  0  0  0  0  0  0  0  0
   -5.9012    1.7349   -1.2457 H   0  0  0  0  0  0  0  0  0  0  0  0
   -7.4498    1.5330   -0.4169 H   0  0  0  0  0  0  0  0  0  0  0  0
  1  2  1  0  0  0  0
  1  3  1  0  0  0  0
  1  4  2  0  0  0  0
  2  5  2  0  0  0  0
  2  6  1  0  0  0  0
  3  7  2  0  0  0  0
  3  8  1  0  0  0  0
  4  9  1  0  0  0  0
  4 27  1  0  0  0  0
  5 10  1  0  0  0  0
  5 11  1  0  0  0  0
  6 12  2  0  0  0  0
  6 13  1  0  0  0  0
  7 14  1  0  0  0  0
  7 12  1  0  0  0  0
  8 15  2  0  0  0  0
  8 28  1  0  0  0  0
  9 10  2  0  0  0  0
  9 29  1  0  0  0  0
 10 16  1  0  0  0  0
 11 17  2  0  0  0  0
 11 30  1  0  0  0  0
 12 31  1  0  0  0  0
 13 32  1  0  0  0  0
 13 33  1  0  0  0  0
 13 34  1  0  0  0  0
 14 18  2  0  0  0  0
 14 35  1  0  0  0  0
 15 19  1  0  0  0  0
 15 18  1  0  0  0  0
 16 20  2  0  0  0  0
 16 36  1  0  0  0  0
 17 21  1  0  0  0  0
 17 20  1  0  0  0  0
 18 22  1  0  0  0  0
 19 23  1  0  0  0  0
 20 24  1  0  0  0  0
 21 25  1  0  0  0  0
 22 26  1  0  0  0  0
 23 37  1  0  0  0  0
 23 38  1  0  0  0  0
 23 39  1  0  0  0  0
 24 25  1  0  0  0  0
 25 40  1  0  0  0  0
 25 41  1  0  0  0  0
 26 42  1  0  0  0  0
 26 43  1  0  0  0  0
 26 44  1  0  0  0  0
M  CHG  1   6   1
M  END
>  <Mol_ID>
4450

>  <Formula>
C21H18ClNO4

>  <MolWeight>
383.82492

>  <Cat>
S9185

>  <Name>
Nitidine Chloride

>  <Target>
Anti-infection

>  <Form>
free base

>  <CAS>
13063-04-2

>  <URL>
https://www.selleckchem.com/products/nitidine-chloride.html

$$$$
