S9182 Crebanine.cdx
 OpenBabel08302521202D

 46 50  0  0  0  0  0  0  0  0999 V2000
    6.0836    4.8489    0.0000 C   0  0  0  0  0  0  0  0  0  0  0  0
    7.3018    4.1522    0.0000 C   0  0  0  0  0  0  0  0  0  0  0  0
    4.8693    4.1522    0.0000 C   0  0  0  0  0  0  0  0  0  0  0  0
    6.0836    6.2302    0.0000 C   0  0  0  0  0  0  0  0  0  0  0  0
    7.3018    2.7707    0.0000 C   0  0  1  0  0  0  0  0  0  0  0  0
    8.5242    4.8489    0.0000 C   0  0  0  0  0  0  0  0  0  0  0  0
    4.8693    2.7707    0.0000 C   0  0  0  0  0  0  0  0  0  0  0  0
    3.6550    4.8489    0.0000 C   0  0  0  0  0  0  0  0  0  0  0  0
    7.3018    6.9473    0.0000 C   0  0  0  0  0  0  0  0  0  0  0  0
    5.0364    7.1102    0.0000 O   0  0  0  0  0  0  0  0  0  0  0  0
    6.0836    2.0741    0.0000 C   0  0  0  0  0  0  0  0  0  0  0  0
    8.5242    2.0741    0.0000 N   0  0  0  0  0  0  0  0  0  0  0  0
    8.5242    6.2302    0.0000 C   0  0  0  0  0  0  0  0  0  0  0  0
    9.7385    4.1522    0.0000 C   0  0  0  0  0  0  0  0  0  0  0  0
    3.6550    2.0741    0.0000 C   0  0  0  0  0  0  0  0  0  0  0  0
    2.4368    4.1522    0.0000 C   0  0  0  0  0  0  0  0  0  0  0  0
    6.9678    8.3288    0.0000 O   0  0  0  0  0  0  0  0  0  0  0  0
    5.5864    8.4387    0.0000 C   0  0  0  0  0  0  0  0  0  0  0  0
    9.7385    2.7707    0.0000 C   0  0  0  0  0  0  0  0  0  0  0  0
    8.5242    0.6927    0.0000 C   0  0  0  0  0  0  0  0  0  0  0  0
    2.4368    2.7707    0.0000 C   0  0  0  0  0  0  0  0  0  0  0  0
    3.6550    0.6927    0.0000 O   0  0  0  0  0  0  0  0  0  0  0  0
    1.2143    2.0741    0.0000 O   0  0  0  0  0  0  0  0  0  0  0  0
    2.4530    0.0000    0.0000 C   0  0  0  0  0  0  0  0  0  0  0  0
    0.0000    2.7912    0.0000 C   0  0  0  0  0  0  0  0  0  0  0  0
    6.3763    3.3076    0.0000 H   0  0  0  0  0  0  0  0  0  0  0  0
    3.6557    5.8809    0.0000 H   0  0  0  0  0  0  0  0  0  0  0  0
    6.0829    1.0041    0.0000 H   0  0  0  0  0  0  0  0  0  0  0  0
    5.1575    1.5381    0.0000 H   0  0  0  0  0  0  0  0  0  0  0  0
    9.4197    6.7431    0.0000 H   0  0  0  0  0  0  0  0  0  0  0  0
   10.6644    4.6885    0.0000 H   0  0  0  0  0  0  0  0  0  0  0  0
   10.6655    3.6178    0.0000 H   0  0  0  0  0  0  0  0  0  0  0  0
    1.5441    4.6700    0.0000 H   0  0  0  0  0  0  0  0  0  0  0  0
    5.0276    9.3512    0.0000 H   0  0  0  0  0  0  0  0  0  0  0  0
    6.1460    9.3507    0.0000 H   0  0  0  0  0  0  0  0  0  0  0  0
   10.6644    2.2344    0.0000 H   0  0  0  0  0  0  0  0  0  0  0  0
   10.6655    3.3051    0.0000 H   0  0  0  0  0  0  0  0  0  0  0  0
    7.5976    0.1577    0.0000 H   0  0  0  0  0  0  0  0  0  0  0  0
    9.4508    0.1577    0.0000 H   0  0  0  0  0  0  0  0  0  0  0  0
    8.5242   -0.3773    0.0000 H   0  0  0  0  0  0  0  0  0  0  0  0
    1.5268    0.5357    0.0000 H   0  0  0  0  0  0  0  0  0  0  0  0
    2.4521   -1.0700    0.0000 H   0  0  0  0  0  0  0  0  0  0  0  0
    1.5259   -0.5343    0.0000 H   0  0  0  0  0  0  0  0  0  0  0  0
    0.0105    3.8611    0.0000 H   0  0  0  0  0  0  0  0  0  0  0  0
   -0.9319    2.2653    0.0000 H   0  0  0  0  0  0  0  0  0  0  0  0
   -0.9213    3.3353    0.0000 H   0  0  0  0  0  0  0  0  0  0  0  0
  1  2  2  0  0  0  0
  1  3  1  0  0  0  0
  1  4  1  0  0  0  0
  2  5  1  0  0  0  0
  2  6  1  0  0  0  0
  3  7  1  0  0  0  0
  3  8  2  0  0  0  0
  4  9  2  0  0  0  0
  4 10  1  0  0  0  0
  5 11  1  0  0  0  0
  5 12  1  0  0  0  0
  5 26  1  1  0  0  0
  6 13  2  0  0  0  0
  6 14  1  0  0  0  0
  7 15  2  0  0  0  0
  7 11  1  0  0  0  0
  8 16  1  0  0  0  0
  8 27  1  0  0  0  0
  9 17  1  0  0  0  0
  9 13  1  0  0  0  0
 10 18  1  0  0  0  0
 11 28  1  0  0  0  0
 11 29  1  0  0  0  0
 12 19  1  0  0  0  0
 12 20  1  0  0  0  0
 13 30  1  0  0  0  0
 14 19  1  0  0  0  0
 14 31  1  0  0  0  0
 14 32  1  0  0  0  0
 15 21  1  0  0  0  0
 15 22  1  0  0  0  0
 16 21  2  0  0  0  0
 16 33  1  0  0  0  0
 17 18  1  0  0  0  0
 18 34  1  0  0  0  0
 18 35  1  0  0  0  0
 19 36  1  0  0  0  0
 19 37  1  0  0  0  0
 20 38  1  0  0  0  0
 20 39  1  0  0  0  0
 20 40  1  0  0  0  0
 21 23  1  0  0  0  0
 22 24  1  0  0  0  0
 23 25  1  0  0  0  0
 24 41  1  0  0  0  0
 24 42  1  0  0  0  0
 24 43  1  0  0  0  0
 25 44  1  0  0  0  0
 25 45  1  0  0  0  0
 25 46  1  0  0  0  0
M  END
>  <Mol_ID>
4447

>  <Formula>
C20H21NO4

>  <MolWeight>
339.38504

>  <Cat>
S9182

>  <Name>
Crebanine

>  <Target>
Apoptosis related

>  <Form>
free base

>  <CAS>
25127-29-1

>  <URL>
https://www.selleckchem.com/products/crebanine.html

$$$$
