S9183 Ruscogenin.cdx
 OpenBabel08302521203D

 73 78  0  0  0  0  0  0  0  0999 V2000
   -3.1570   -5.9796    1.8320 C   0  0  3  0  0  0  0  0  0  0  0  0
   -3.2330   -4.4444    2.0302 C   0  0  3  0  0  0  0  0  0  0  0  0
   -2.7400   -6.2785    0.3792 C   0  0  3  0  0  0  0  0  0  0  0  0
   -3.5509   -7.4212    2.3373 C   0  0  3  0  0  0  0  0  0  0  0  0
   -3.2637   -4.0934    0.5335 C   0  0  3  0  0  0  0  0  0  0  0  0
   -1.8139   -3.8418    2.6398 C   0  0  0  0  0  0  0  0  0  0  0  0
   -4.2619   -4.0087    3.0235 C   0  0  0  0  0  0  0  0  0  0  0  0
   -2.4986   -7.6426    0.3511 O   0  0  0  0  0  0  0  0  0  0  0  0
   -3.6410   -5.3127   -0.3769 C   0  0  0  0  0  0  0  0  0  0  0  0
   -2.2543   -8.0253    1.7328 C   0  0  3  0  0  0  0  0  0  0  0  0
   -4.3214   -8.6477    2.8070 C   0  0  0  0  0  0  0  0  0  0  0  0
   -2.7853   -2.8336   -0.0706 C   0  0  3  0  0  0  0  0  0  0  0  0
   -1.5458   -2.3280    2.3581 C   0  0  0  0  0  0  0  0  0  0  0  0
   -1.2293   -7.4479    2.8099 C   0  0  0  0  0  0  0  0  0  0  0  0
   -1.8317   -9.3680    1.6532 O   0  0  0  0  0  0  0  0  0  0  0  0
   -1.4665   -2.1516    0.8376 C   0  0  3  0  0  0  0  0  0  0  0  0
   -3.3408   -1.9841   -1.1805 C   0  0  0  0  0  0  0  0  0  0  0  0
   -0.0016   -7.0208    2.0776 C   0  0  0  0  0  0  0  0  0  0  0  0
   -0.3762   -9.5522    1.6865 C   0  0  0  0  0  0  0  0  0  0  0  0
   -0.4569   -0.8230   -0.0013 C   0  0  3  0  0  0  0  0  0  0  0  0
   -2.1316   -1.1386   -1.2521 C   0  0  0  0  0  0  0  0  0  0  0  0
    0.6555   -8.3440    1.8201 C   0  0  3  0  0  0  0  0  0  0  0  0
   -0.9380   -1.7900   -0.9216 C   0  0  0  0  0  0  0  0  0  0  0  0
    0.2776   -0.6024   -1.7534 C   0  0  3  0  0  0  0  0  0  0  0  0
   -1.0092    0.3957    0.7651 C   0  0  0  0  0  0  0  0  0  0  0  0
    1.5799   -8.5325    3.0395 C   0  0  0  0  0  0  0  0  0  0  0  0
    0.6328   -2.5201   -0.5071 C   0  0  0  0  0  0  0  0  0  0  0  0
    0.4650   -2.1532   -2.7126 C   0  0  0  0  0  0  0  0  0  0  0  0
   -0.3967    0.2945   -2.6569 O   0  0  0  0  0  0  0  0  0  0  0  0
    0.8979   -3.2654   -1.7574 C   0  0  3  0  0  0  0  0  0  0  0  0
    2.2577   -3.6334   -1.8582 O   0  0  0  0  0  0  0  0  0  0  0  0
   -2.2037   -5.8772    2.2471 H   0  0  0  0  0  0  0  0  0  0  0  0
   -1.7307   -5.9612    0.0995 H   0  0  0  0  0  0  0  0  0  0  0  0
   -4.4517   -7.2368    1.7192 H   0  0  0  0  0  0  0  0  0  0  0  0
   -2.1949   -4.3491    0.5000 H   0  0  0  0  0  0  0  0  0  0  0  0
   -1.7133   -4.0745    3.7055 H   0  0  0  0  0  0  0  0  0  0  0  0
   -0.9606   -4.3909    2.1917 H   0  0  0  0  0  0  0  0  0  0  0  0
   -4.2584   -2.9213    3.1431 H   0  0  0  0  0  0  0  0  0  0  0  0
   -5.2596   -4.3597    2.7804 H   0  0  0  0  0  0  0  0  0  0  0  0
   -3.9757   -4.4321    3.9980 H   0  0  0  0  0  0  0  0  0  0  0  0
   -4.7124   -5.5191   -0.3770 H   0  0  0  0  0  0  0  0  0  0  0  0
   -3.3089   -5.1972   -1.4197 H   0  0  0  0  0  0  0  0  0  0  0  0
   -5.0011   -8.4904    3.6390 H   0  0  0  0  0  0  0  0  0  0  0  0
   -4.8530   -9.1177    1.9576 H   0  0  0  0  0  0  0  0  0  0  0  0
   -3.6321   -9.4404    3.1352 H   0  0  0  0  0  0  0  0  0  0  0  0
   -2.2072   -3.4077   -0.8528 H   0  0  0  0  0  0  0  0  0  0  0  0
   -2.2886   -1.6963    2.8362 H   0  0  0  0  0  0  0  0  0  0  0  0
   -0.5577   -2.0944    2.7852 H   0  0  0  0  0  0  0  0  0  0  0  0
   -1.5463   -6.6734    3.5300 H   0  0  0  0  0  0  0  0  0  0  0  0
   -1.0643   -8.2260    3.5654 H   0  0  0  0  0  0  0  0  0  0  0  0
   -0.8418   -3.0398    0.7710 H   0  0  0  0  0  0  0  0  0  0  0  0
   -4.2556   -1.4362   -0.9569 H   0  0  0  0  0  0  0  0  0  0  0  0
   -3.4413   -2.4908   -2.1537 H   0  0  0  0  0  0  0  0  0  0  0  0
    0.5836   -6.3184    2.6856 H   0  0  0  0  0  0  0  0  0  0  0  0
   -0.1840   -6.4831    1.1459 H   0  0  0  0  0  0  0  0  0  0  0  0
   -0.2452  -10.1750    2.5768 H   0  0  0  0  0  0  0  0  0  0  0  0
   -0.0919  -10.1706    0.8326 H   0  0  0  0  0  0  0  0  0  0  0  0
   -2.3251   -0.0580   -1.2731 H   0  0  0  0  0  0  0  0  0  0  0  0
    1.2730   -8.2663    0.9184 H   0  0  0  0  0  0  0  0  0  0  0  0
    1.2957   -0.2129   -1.6389 H   0  0  0  0  0  0  0  0  0  0  0  0
   -0.5379    1.3470    0.5229 H   0  0  0  0  0  0  0  0  0  0  0  0
   -2.1018    0.4970    0.7410 H   0  0  0  0  0  0  0  0  0  0  0  0
   -0.7938    0.2315    1.8356 H   0  0  0  0  0  0  0  0  0  0  0  0
    2.1469   -9.4568    2.9738 H   0  0  0  0  0  0  0  0  0  0  0  0
    2.2779   -7.6891    3.1326 H   0  0  0  0  0  0  0  0  0  0  0  0
    1.0025   -8.5464    3.9743 H   0  0  0  0  0  0  0  0  0  0  0  0
    1.4743   -1.8020   -0.3649 H   0  0  0  0  0  0  0  0  0  0  0  0
    0.7833   -3.1336    0.3862 H   0  0  0  0  0  0  0  0  0  0  0  0
    1.0724   -2.0394   -3.6074 H   0  0  0  0  0  0  0  0  0  0  0  0
   -0.5354   -2.4604   -3.0903 H   0  0  0  0  0  0  0  0  0  0  0  0
   -0.8248   -0.2800   -3.3258 H   0  0  0  0  0  0  0  0  0  0  0  0
    0.2861   -4.1819   -1.7537 H   0  0  0  0  0  0  0  0  0  0  0  0
    2.7030   -3.0031   -2.4456 H   0  0  0  0  0  0  0  0  0  0  0  0
  1  2  1  0  0  0  0
  1  3  1  0  0  0  0
  1  4  1  0  0  0  0
  1 32  1  0  0  0  0
  2  5  1  0  0  0  0
  2  6  1  0  0  0  0
  2  7  1  0  0  0  0
  3  8  1  0  0  0  0
  3  9  1  0  0  0  0
  3 33  1  0  0  0  0
  4 10  1  0  0  0  0
  4 11  1  0  0  0  0
  4 34  1  0  0  0  0
  5 12  1  0  0  0  0
  5  9  1  0  0  0  0
  5 35  1  0  0  0  0
  6 13  1  0  0  0  0
  6 36  1  0  0  0  0
  6 37  1  0  0  0  0
  7 38  1  0  0  0  0
  7 39  1  0  0  0  0
  7 40  1  0  0  0  0
  8 10  1  0  0  0  0
  9 41  1  0  0  0  0
  9 42  1  0  0  0  0
 10 14  1  0  0  0  0
 10 15  1  0  0  0  0
 11 43  1  0  0  0  0
 11 44  1  0  0  0  0
 11 45  1  0  0  0  0
 12 16  1  0  0  0  0
 12 17  1  0  0  0  0
 12 46  1  0  0  0  0
 13 47  1  0  0  0  0
 13 48  1  0  0  0  0
 14 18  1  0  0  0  0
 14 49  1  0  0  0  0
 14 50  1  0  0  0  0
 15 19  1  0  0  0  0
 16 13  1  0  0  0  0
 16 20  1  0  0  0  0
 16 51  1  0  0  0  0
 17 21  1  0  0  0  0
 17 52  1  0  0  0  0
 17 53  1  0  0  0  0
 18 22  1  0  0  0  0
 18 54  1  0  0  0  0
 18 55  1  0  0  0  0
 19 22  1  0  0  0  0
 19 56  1  0  0  0  0
 19 57  1  0  0  0  0
 20 23  1  0  0  0  0
 20 24  1  0  0  0  0
 20 25  1  0  0  0  0
 21 23  2  3  0  0  0
 21 58  1  0  0  0  0
 22 26  1  0  0  0  0
 22 59  1  0  0  0  0
 23 27  1  0  0  0  0
 24 28  1  0  0  0  0
 24 29  1  0  0  0  0
 24 60  1  0  0  0  0
 25 61  1  0  0  0  0
 25 62  1  0  0  0  0
 25 63  1  0  0  0  0
 26 64  1  0  0  0  0
 26 65  1  0  0  0  0
 26 66  1  0  0  0  0
 27 30  1  0  0  0  0
 27 67  1  0  0  0  0
 27 68  1  0  0  0  0
 28 30  1  0  0  0  0
 28 69  1  0  0  0  0
 28 70  1  0  0  0  0
 29 71  1  0  0  0  0
 30 31  1  0  0  0  0
 30 72  1  0  0  0  0
 31 73  1  0  0  0  0
M  END
>  <Mol_ID>
4448

>  <Formula>
C27H42O4

>  <MolWeight>
430.61998

>  <Cat>
S9183

>  <Name>
Ruscogenin

>  <Target>
Immunology & Inflammation related

>  <Form>
free base

>  <CAS>
472-11-7

>  <URL>
https://www.selleckchem.com/products/ruscogenin.html

$$$$
