S9194 Toddalolactone.cdx
 OpenBabel08302521203D

 42 43  0  0  0  0  0  0  0  0999 V2000
    3.7276   -4.1469    0.8979 C   0  0  0  0  0  0  0  0  0  0  0  0
    3.3616   -5.2397    1.7135 C   0  0  0  0  0  0  0  0  0  0  0  0
    3.4943   -6.5302    1.2208 C   0  0  0  0  0  0  0  0  0  0  0  0
    4.1956   -4.3656   -0.4426 C   0  0  0  0  0  0  0  0  0  0  0  0
    4.3154   -5.6857   -0.9468 C   0  0  0  0  0  0  0  0  0  0  0  0
    3.9660   -6.7303   -0.0756 C   0  0  0  0  0  0  0  0  0  0  0  0
    4.0657   -8.0963   -0.4454 O   0  0  0  0  0  0  0  0  0  0  0  0
    4.5067   -8.4965   -1.6887 C   0  0  0  0  0  0  0  0  0  0  0  0
    4.8471   -7.4085   -2.6183 C   0  0  0  0  0  0  0  0  0  0  0  0
    4.7578   -6.1209   -2.2773 C   0  0  0  0  0  0  0  0  0  0  0  0
    4.6108   -9.6730   -2.0201 O   0  0  0  0  0  0  0  0  0  0  0  0
    3.6529   -2.7249    1.4766 C   0  0  0  0  0  0  0  0  0  0  0  0
    2.3175   -1.9876    1.2083 C   0  0  2  0  0  0  0  0  0  0  0  0
    2.2934   -0.5109    1.7219 C   0  0  0  0  0  0  0  0  0  0  0  0
    1.2351   -2.6795    1.8672 O   0  0  0  0  0  0  0  0  0  0  0  0
    2.4405   -0.5156    3.1518 O   0  0  0  0  0  0  0  0  0  0  0  0
    3.4191    0.3528    1.1531 C   0  0  0  0  0  0  0  0  0  0  0  0
    0.9490    0.1666    1.4072 C   0  0  0  0  0  0  0  0  0  0  0  0
    4.4688   -3.1756   -1.0691 O   0  0  0  0  0  0  0  0  0  0  0  0
    5.0454   -3.1023   -2.3555 C   0  0  0  0  0  0  0  0  0  0  0  0
    2.8915   -4.9442    2.9682 O   0  0  0  0  0  0  0  0  0  0  0  0
    2.5294   -6.0440    3.7993 C   0  0  0  0  0  0  0  0  0  0  0  0
    3.2461   -7.4068    1.8079 H   0  0  0  0  0  0  0  0  0  0  0  0
    5.1726   -7.7243   -3.6010 H   0  0  0  0  0  0  0  0  0  0  0  0
    5.0217   -5.4103   -3.0410 H   0  0  0  0  0  0  0  0  0  0  0  0
    3.8389   -2.7713    2.5578 H   0  0  0  0  0  0  0  0  0  0  0  0
    4.4977   -2.1524    1.0800 H   0  0  0  0  0  0  0  0  0  0  0  0
    2.0982   -1.9988    0.1345 H   0  0  0  0  0  0  0  0  0  0  0  0
    1.6236   -3.1822    2.6090 H   0  0  0  0  0  0  0  0  0  0  0  0
    1.6499   -0.9693    3.4993 H   0  0  0  0  0  0  0  0  0  0  0  0
    3.3758    0.4031    0.0603 H   0  0  0  0  0  0  0  0  0  0  0  0
    3.3564    1.3767    1.5479 H   0  0  0  0  0  0  0  0  0  0  0  0
    4.4051   -0.0109    1.4534 H   0  0  0  0  0  0  0  0  0  0  0  0
    0.7681    0.2167    0.3286 H   0  0  0  0  0  0  0  0  0  0  0  0
    0.1087   -0.3586    1.8770 H   0  0  0  0  0  0  0  0  0  0  0  0
    0.9259    1.1866    1.8084 H   0  0  0  0  0  0  0  0  0  0  0  0
    6.0096   -3.6183   -2.3958 H   0  0  0  0  0  0  0  0  0  0  0  0
    4.3405   -3.4533   -3.1143 H   0  0  0  0  0  0  0  0  0  0  0  0
    5.2410   -2.0481   -2.5750 H   0  0  0  0  0  0  0  0  0  0  0  0
    1.7006   -6.6119    3.3608 H   0  0  0  0  0  0  0  0  0  0  0  0
    3.3902   -6.6913    3.9995 H   0  0  0  0  0  0  0  0  0  0  0  0
    2.1862   -5.6430    4.7575 H   0  0  0  0  0  0  0  0  0  0  0  0
  1 12  1  0  0  0  0
  1  2  2  0  0  0  0
  1  4  1  0  0  0  0
  2  3  1  0  0  0  0
  2 21  1  0  0  0  0
  3  6  2  0  0  0  0
  3 23  1  0  0  0  0
  4 19  1  0  0  0  0
  5  4  2  0  0  0  0
  5  6  1  0  0  0  0
  5 10  1  0  0  0  0
  6  7  1  0  0  0  0
  7  8  1  0  0  0  0
  8 11  2  0  0  0  0
  8  9  1  0  0  0  0
  9 10  2  0  0  0  0
  9 24  1  0  0  0  0
 10 25  1  0  0  0  0
 12 26  1  0  0  0  0
 12 27  1  0  0  0  0
 13 15  1  0  0  0  0
 13 28  1  6  0  0  0
 13 14  1  0  0  0  0
 13 12  1  0  0  0  0
 14 16  1  0  0  0  0
 14 17  1  0  0  0  0
 14 18  1  0  0  0  0
 15 29  1  0  0  0  0
 16 30  1  0  0  0  0
 17 31  1  0  0  0  0
 17 32  1  0  0  0  0
 17 33  1  0  0  0  0
 18 34  1  0  0  0  0
 18 35  1  0  0  0  0
 18 36  1  0  0  0  0
 19 20  1  0  0  0  0
 20 37  1  0  0  0  0
 20 38  1  0  0  0  0
 20 39  1  0  0  0  0
 21 22  1  0  0  0  0
 22 40  1  0  0  0  0
 22 41  1  0  0  0  0
 22 42  1  0  0  0  0
M  END
>  <Mol_ID>
4456

>  <Formula>
C16H20O6

>  <MolWeight>
308.3264

>  <Cat>
S9194

>  <Name>
Toddalolactone

>  <Target>
PAI-1

>  <Form>
Toddalolactone

>  <CAS>
483-90-9

>  <URL>
https://www.selleckchem.com/products/toddalolactone.html

$$$$
