S9206 Hydroprotopine.cdx
 OpenBabel08302521203D

 46 51  0  0  0  0  0  0  0  0999 V2000
    0.2619   -1.3757    0.5039 C   0  0  0  0  0  0  0  0  0  0  0  0
   -0.3118   -0.1547    0.7601 C   0  0  0  0  0  0  0  0  0  0  0  0
    0.4379    1.0407    0.8897 C   0  0  0  0  0  0  0  0  0  0  0  0
    1.7724    1.0497    0.4146 C   0  0  0  0  0  0  0  0  0  0  0  0
    2.2702   -0.2625    0.0759 C   0  0  0  0  0  0  0  0  0  0  0  0
    1.6007   -1.4823    0.3045 C   0  0  0  0  0  0  0  0  0  0  0  0
    2.5274    2.2517   -0.3922 C   0  0  3  0  0  0  0  0  0  0  0  0
    2.0761    1.9887   -1.8478 N   0  3  3  0  0  0  0  0  0  0  0  0
    2.5592    0.5082   -2.2059 C   0  0  0  0  0  0  0  0  0  0  0  0
    3.2453   -0.2986   -1.0634 C   0  0  0  0  0  0  0  0  0  0  0  0
    2.4725    3.8013   -0.2080 C   0  0  0  0  0  0  0  0  0  0  0  0
    1.1671    4.4561   -0.5164 C   0  0  0  0  0  0  0  0  0  0  0  0
    0.1336    3.6098   -0.9271 C   0  0  0  0  0  0  0  0  0  0  0  0
    0.4474    2.3520   -1.7786 C   0  0  0  0  0  0  0  0  0  0  0  0
    0.9898    5.7884   -0.0560 C   0  0  0  0  0  0  0  0  0  0  0  0
   -0.2514    6.2059    0.3650 C   0  0  0  0  0  0  0  0  0  0  0  0
   -1.2140    5.2216    0.3249 C   0  0  0  0  0  0  0  0  0  0  0  0
   -1.0539    3.9786   -0.3217 C   0  0  0  0  0  0  0  0  0  0  0  0
   -0.6292   -2.3711    0.2472 O   0  0  0  0  0  0  0  0  0  0  0  0
   -1.8331   -1.6017    0.1070 C   0  0  0  0  0  0  0  0  0  0  0  0
   -1.6808   -0.2464    0.6257 O   0  0  0  0  0  0  0  0  0  0  0  0
   -2.3335    5.2326    1.1231 O   0  0  0  0  0  0  0  0  0  0  0  0
   -2.5796    3.8213    1.2012 C   0  0  0  0  0  0  0  0  0  0  0  0
   -2.0760    3.1321    0.0211 O   0  0  0  0  0  0  0  0  0  0  0  0
    2.6069    2.8359   -2.9961 C   0  0  0  0  0  0  0  0  0  0  0  0
    3.9285    2.0305   -0.1853 O   0  0  0  0  0  0  0  0  0  0  0  0
   -0.1073    1.9457    1.1149 H   0  0  0  0  0  0  0  0  0  0  0  0
    2.0209   -2.4341   -0.0108 H   0  0  0  0  0  0  0  0  0  0  0  0
    3.3282    0.6000   -2.9805 H   0  0  0  0  0  0  0  0  0  0  0  0
    1.6935   -0.0112   -2.6215 H   0  0  0  0  0  0  0  0  0  0  0  0
    4.2397    0.0432   -0.7563 H   0  0  0  0  0  0  0  0  0  0  0  0
    3.4307   -1.3236   -1.4022 H   0  0  0  0  0  0  0  0  0  0  0  0
    2.7929    4.0625    0.8066 H   0  0  0  0  0  0  0  0  0  0  0  0
    3.2100    4.2822   -0.8734 H   0  0  0  0  0  0  0  0  0  0  0  0
    0.1581    2.5480   -2.8143 H   0  0  0  0  0  0  0  0  0  0  0  0
   -0.0722    1.4460   -1.4654 H   0  0  0  0  0  0  0  0  0  0  0  0
    1.8387    6.4428    0.1254 H   0  0  0  0  0  0  0  0  0  0  0  0
   -0.4335    7.1427    0.8581 H   0  0  0  0  0  0  0  0  0  0  0  0
   -2.0997   -1.5599   -0.9649 H   0  0  0  0  0  0  0  0  0  0  0  0
   -2.6433   -2.1219    0.6284 H   0  0  0  0  0  0  0  0  0  0  0  0
   -2.0624    3.4265    2.0953 H   0  0  0  0  0  0  0  0  0  0  0  0
   -3.6489    3.6372    1.3240 H   0  0  0  0  0  0  0  0  0  0  0  0
    3.6985    2.8137   -2.9911 H   0  0  0  0  0  0  0  0  0  0  0  0
    2.2260    2.3797   -3.9211 H   0  0  0  0  0  0  0  0  0  0  0  0
    2.2259    3.8560   -2.9425 H   0  0  0  0  0  0  0  0  0  0  0  0
    4.4558    2.7144   -0.6258 H   0  0  0  0  0  0  0  0  0  0  0  0
  1  2  1  0  0  0  0
  1 19  1  0  0  0  0
  2  3  2  0  0  0  0
  3  4  1  0  0  0  0
  3 27  1  0  0  0  0
  4  5  2  0  0  0  0
  4  7  1  0  0  0  0
  5  6  1  0  0  0  0
  6  1  2  0  0  0  0
  6 28  1  0  0  0  0
  7 11  1  0  0  0  0
  7  8  1  0  0  0  0
  7 26  1  0  0  0  0
  8  9  1  0  0  0  0
  8 25  1  0  0  0  0
  9 10  1  0  0  0  0
  9 29  1  0  0  0  0
  9 30  1  0  0  0  0
 10  5  1  0  0  0  0
 10 31  1  0  0  0  0
 10 32  1  0  0  0  0
 11 12  1  0  0  0  0
 11 33  1  0  0  0  0
 11 34  1  0  0  0  0
 12 13  2  0  0  0  0
 12 15  1  0  0  0  0
 13 14  1  0  0  0  0
 14  8  1  0  0  0  0
 14 35  1  0  0  0  0
 14 36  1  0  0  0  0
 15 16  2  0  0  0  0
 15 37  1  0  0  0  0
 16 17  1  0  0  0  0
 16 38  1  0  0  0  0
 17 18  2  0  0  0  0
 17 22  1  0  0  0  0
 18 13  1  0  0  0  0
 19 20  1  0  0  0  0
 20 21  1  0  0  0  0
 20 39  1  0  0  0  0
 20 40  1  0  0  0  0
 21  2  1  0  0  0  0
 22 23  1  0  0  0  0
 23 24  1  0  0  0  0
 23 41  1  0  0  0  0
 23 42  1  0  0  0  0
 24 18  1  0  0  0  0
 25 43  1  0  0  0  0
 25 44  1  0  0  0  0
 25 45  1  0  0  0  0
 26 46  1  0  0  0  0
M  CHG  1   8   1
M  END
>  <Mol_ID>
4462

>  <Formula>
C20H20NO5+

>  <MolWeight>
354.3765

>  <Cat>
S9206

>  <Name>
Hydroprotopine

>  <Synonyms>
W1171

>  <Target>
Others

>  <Form>
free base

>  <CAS>
128397-41-1

>  <URL>
https://www.selleckchem.com/products/hydroprotopine.html

$$$$
