S9219 Huperzine B.cdx
 OpenBabel08302521302D

 39 42  0  0  0  0  0  0  0  0999 V2000
    3.6253    0.7236    0.0000 C   0  0  0  0  0  0  0  0  0  0  0  0
    4.8276    0.0242    0.0000 C   0  0  0  0  0  0  0  0  0  0  0  0
    6.0459    0.7236    0.0000 C   0  0  0  0  0  0  0  0  0  0  0  0
    6.0459    2.1220    0.0000 N   0  0  0  0  0  0  0  0  0  0  0  0
    3.6253    2.1220    0.0000 C   0  0  0  0  0  0  0  0  0  0  0  0
    4.8276    2.8208    0.0000 C   0  0  0  0  0  0  0  0  0  0  0  0
    4.8204    4.2072    0.0000 C   0  0  0  0  0  0  0  0  0  0  0  0
    3.6141    4.9054    0.0000 C   0  0  1  0  0  0  0  0  0  0  0  0
    2.4159    2.8007    0.0000 C   0  0  1  0  0  0  0  0  0  0  0  0
    2.4178    4.2009    0.0000 C   0  0  2  0  0  0  0  0  0  0  0  0
    1.2152    4.9030    0.0000 C   0  0  0  0  0  0  0  0  0  0  0  0
    0.0019    4.2045    0.0000 C   0  0  0  0  0  0  0  0  0  0  0  0
    0.0000    2.8041    0.0000 C   0  0  0  0  0  0  0  0  0  0  0  0
    1.2111    2.1025    0.0000 N   0  0  0  0  0  0  0  0  0  0  0  0
    3.6739    3.5446    0.0000 C   0  0  0  0  0  0  0  0  0  0  0  0
    3.6009    6.3653    0.0000 C   0  0  0  0  0  0  0  0  0  0  0  0
    7.2916    0.0000    0.0000 O   0  0  0  0  0  0  0  0  0  0  0  0
    4.8610    5.6420    0.0000 C   0  0  0  0  0  0  0  0  0  0  0  0
    6.2675    6.0239    0.0000 C   0  0  0  0  0  0  0  0  0  0  0  0
    2.7307    0.2091    0.0000 H   0  0  0  0  0  0  0  0  0  0  0  0
    4.8246   -1.0078    0.0000 H   0  0  0  0  0  0  0  0  0  0  0  0
    6.8978    2.6155    0.0000 H   0  0  0  0  0  0  0  0  0  0  0  0
    5.7459    4.7441    0.0000 H   0  0  0  0  0  0  0  0  0  0  0  0
    4.8199    5.2772    0.0000 H   0  0  0  0  0  0  0  0  0  0  0  0
    4.5386    5.4441    0.0000 H   0  0  0  0  0  0  0  0  0  0  0  0
    2.4158    5.2709    0.0000 H   0  0  0  0  0  0  0  0  0  0  0  0
    1.2184    5.9730    0.0000 H   0  0  0  0  0  0  0  0  0  0  0  0
    0.2897    5.4400    0.0000 H   0  0  0  0  0  0  0  0  0  0  0  0
   -0.9241    4.7407    0.0000 H   0  0  0  0  0  0  0  0  0  0  0  0
   -0.9255    3.6707    0.0000 H   0  0  0  0  0  0  0  0  0  0  0  0
   -0.9274    2.2704    0.0000 H   0  0  0  0  0  0  0  0  0  0  0  0
   -0.0015    1.7341    0.0000 H   0  0  0  0  0  0  0  0  0  0  0  0
    1.2112    1.0825    0.0000 H   0  0  0  0  0  0  0  0  0  0  0  0
    4.4377    2.7952    0.0000 H   0  0  0  0  0  0  0  0  0  0  0  0
    4.7334    3.6938    0.0000 H   0  0  0  0  0  0  0  0  0  0  0  0
    3.0797    7.2560    0.0000 H   0  0  0  0  0  0  0  0  0  0  0  0
    7.0266    5.2698    0.0000 H   0  0  0  0  0  0  0  0  0  0  0  0
    6.5410    7.0584    0.0000 H   0  0  0  0  0  0  0  0  0  0  0  0
    7.3001    6.3043    0.0000 H   0  0  0  0  0  0  0  0  0  0  0  0
  1  2  2  0  0  0  0
  1 20  1  0  0  0  0
  2  3  1  0  0  0  0
  2 21  1  0  0  0  0
  3  4  1  0  0  0  0
  3 17  2  0  0  0  0
  4  6  1  0  0  0  0
  4 22  1  0  0  0  0
  5  6  2  0  0  0  0
  5  1  1  0  0  0  0
  6  7  1  0  0  0  0
  7 23  1  0  0  0  0
  7 24  1  0  0  0  0
  8 16  1  0  0  0  0
  8  7  1  0  0  0  0
  8 10  1  0  0  0  0
  8 25  1  6  0  0  0
  9  5  1  6  0  0  0
  9 14  1  0  0  0  0
  9 15  1  0  0  0  0
  9 10  1  0  0  0  0
 10 11  1  0  0  0  0
 10 26  1  1  0  0  0
 11 12  1  0  0  0  0
 11 27  1  0  0  0  0
 11 28  1  0  0  0  0
 12 13  1  0  0  0  0
 12 29  1  0  0  0  0
 12 30  1  0  0  0  0
 13 14  1  0  0  0  0
 13 31  1  0  0  0  0
 13 32  1  0  0  0  0
 14 33  1  0  0  0  0
 15 18  1  0  0  0  0
 15 34  1  0  0  0  0
 15 35  1  0  0  0  0
 16 18  2  0  0  0  0
 16 36  1  0  0  0  0
 18 19  1  0  0  0  0
 19 37  1  0  0  0  0
 19 38  1  0  0  0  0
 19 39  1  0  0  0  0
M  END
>  <Mol_ID>
4467

>  <Formula>
C16H20N2O

>  <MolWeight>
256.3428

>  <Cat>
S9219

>  <Name>
Huperzine B

>  <Target>
AChR

>  <Form>
free base

>  <CAS>
103548-82-9

>  <URL>
https://www.selleckchem.com/products/huperzine-b.html

$$$$
