S9212 Melamine.cdx
 OpenBabel08302521203D

 15 15  0  0  0  0  0  0  0  0999 V2000
   -0.6377    1.1083   -0.1114 C   0  0  0  0  0  0  0  0  0  0  0  0
   -1.3507   -0.0013   -0.0329 N   0  0  0  0  0  0  0  0  0  0  0  0
    0.6804    1.1752   -0.0337 N   0  0  0  0  0  0  0  0  0  0  0  0
   -1.3267    2.2997   -0.2472 N   0  0  0  0  0  0  0  0  0  0  0  0
   -0.6422   -1.1070    0.1155 C   0  0  0  0  0  0  0  0  0  0  0  0
    1.2862    0.0095    0.1128 C   0  0  0  0  0  0  0  0  0  0  0  0
    0.6786   -1.1642    0.1622 N   0  0  0  0  0  0  0  0  0  0  0  0
   -1.3361   -2.2979    0.2049 N   0  0  0  0  0  0  0  0  0  0  0  0
    2.6656    0.0178    0.1931 N   0  0  0  0  0  0  0  0  0  0  0  0
   -0.7715    3.0590    0.1231 H   0  0  0  0  0  0  0  0  0  0  0  0
   -2.2630    2.1969    0.1201 H   0  0  0  0  0  0  0  0  0  0  0  0
   -0.7595   -3.0723   -0.0912 H   0  0  0  0  0  0  0  0  0  0  0  0
   -2.2518   -2.2088   -0.2115 H   0  0  0  0  0  0  0  0  0  0  0  0
    3.0395    0.8591   -0.2234 H   0  0  0  0  0  0  0  0  0  0  0  0
    3.0458   -0.8658   -0.1153 H   0  0  0  0  0  0  0  0  0  0  0  0
  1  2  2  0  0  0  0
  1  3  1  0  0  0  0
  1  4  1  0  0  0  0
  2  5  1  0  0  0  0
  3  6  2  0  0  0  0
  4 10  1  0  0  0  0
  4 11  1  0  0  0  0
  5  7  2  0  0  0  0
  5  8  1  0  0  0  0
  6  9  1  0  0  0  0
  6  7  1  0  0  0  0
  8 12  1  0  0  0  0
  8 13  1  0  0  0  0
  9 14  1  0  0  0  0
  9 15  1  0  0  0  0
M  END
>  <Mol_ID>
4464

>  <Formula>
C3H6N6

>  <MolWeight>
126.11994

>  <Cat>
S9212

>  <Name>
Melamine

>  <Synonyms>
Cyanuramide, Cyanurotriamide

>  <Target>
Others

>  <Form>
free base

>  <CAS>
108-78-1

>  <URL>
https://www.selleckchem.com/products/melamine.html

$$$$
