S9225 Santalol.cdx
 OpenBabel08302521203D

 40 41  0  0  0  0  0  0  0  0999 V2000
   -1.2932   -0.7164   -0.5334 C   0  0  1  0  0  0  0  0  0  0  0  0
   -0.0391   -1.0378    0.3538 C   0  0  3  0  0  0  0  0  0  0  0  0
   -1.1362    0.8058   -0.6084 C   0  0  0  0  0  0  0  0  0  0  0  0
   -1.2827   -1.4005   -1.9276 C   0  0  0  0  0  0  0  0  0  0  0  0
   -2.5965   -1.0734    0.2173 C   0  0  0  0  0  0  0  0  0  0  0  0
   -0.0273    0.1308    1.3496 C   0  0  0  0  0  0  0  0  0  0  0  0
    1.2924   -0.7686   -0.3869 C   0  0  0  0  0  0  0  0  0  0  0  0
    0.0564    1.1896    0.2520 C   0  0  3  0  0  0  0  0  0  0  0  0
   -1.9297    1.6729   -1.2490 C   0  0  0  0  0  0  0  0  0  0  0  0
   -1.2399   -2.9332   -1.8510 C   0  0  0  0  0  0  0  0  0  0  0  0
    1.3269    0.7662   -0.4993 C   0  0  0  0  0  0  0  0  0  0  0  0
   -1.1404   -3.5846   -3.2063 C   0  0  0  0  0  0  0  0  0  0  0  0
   -2.0588   -4.3894   -3.7799 C   0  0  0  0  0  0  0  0  0  0  0  0
   -1.7879   -5.0727   -5.0960 C   0  0  0  0  0  0  0  0  0  0  0  0
   -3.4041   -4.6696   -3.1692 C   0  0  0  0  0  0  0  0  0  0  0  0
   -1.8077   -6.4778   -4.8993 O   0  0  0  0  0  0  0  0  0  0  0  0
   -0.0707   -2.0243    0.8231 H   0  0  0  0  0  0  0  0  0  0  0  0
   -2.1828   -1.1028   -2.4841 H   0  0  0  0  0  0  0  0  0  0  0  0
   -0.4438   -1.0336   -2.5317 H   0  0  0  0  0  0  0  0  0  0  0  0
   -3.4432   -1.1567   -0.4741 H   0  0  0  0  0  0  0  0  0  0  0  0
   -2.5019   -2.0303    0.7419 H   0  0  0  0  0  0  0  0  0  0  0  0
   -2.8766   -0.3181    0.9605 H   0  0  0  0  0  0  0  0  0  0  0  0
    0.8501    0.1232    2.0067 H   0  0  0  0  0  0  0  0  0  0  0  0
   -0.9267    0.2006    1.9689 H   0  0  0  0  0  0  0  0  0  0  0  0
    1.3736   -1.2613   -1.3581 H   0  0  0  0  0  0  0  0  0  0  0  0
    2.1385   -1.1115    0.2211 H   0  0  0  0  0  0  0  0  0  0  0  0
    0.0591    2.2234    0.6031 H   0  0  0  0  0  0  0  0  0  0  0  0
   -1.7444    2.7418   -1.2065 H   0  0  0  0  0  0  0  0  0  0  0  0
   -2.7877    1.3370   -1.8219 H   0  0  0  0  0  0  0  0  0  0  0  0
   -0.3627   -3.2523   -1.2760 H   0  0  0  0  0  0  0  0  0  0  0  0
   -2.1133   -3.3024   -1.3042 H   0  0  0  0  0  0  0  0  0  0  0  0
    1.3350    1.1008   -1.5421 H   0  0  0  0  0  0  0  0  0  0  0  0
    2.2236    1.1591   -0.0069 H   0  0  0  0  0  0  0  0  0  0  0  0
   -0.1935   -3.4176   -3.7203 H   0  0  0  0  0  0  0  0  0  0  0  0
   -2.5512   -4.8111   -5.8354 H   0  0  0  0  0  0  0  0  0  0  0  0
   -0.8110   -4.8057   -5.5117 H   0  0  0  0  0  0  0  0  0  0  0  0
   -3.2988   -5.2826   -2.2685 H   0  0  0  0  0  0  0  0  0  0  0  0
   -3.9180   -3.7365   -2.9146 H   0  0  0  0  0  0  0  0  0  0  0  0
   -4.0547   -5.2109   -3.8644 H   0  0  0  0  0  0  0  0  0  0  0  0
   -1.2450   -6.6594   -4.1254 H   0  0  0  0  0  0  0  0  0  0  0  0
  1  2  1  0  0  0  0
  1  3  1  0  0  0  0
  1  5  1  1  0  0  0
  1  4  1  0  0  0  0
  2  6  1  0  0  0  0
  2  7  1  0  0  0  0
  2 17  1  0  0  0  0
  3  8  1  0  0  0  0
  3  9  2  0  0  0  0
  4 10  1  0  0  0  0
  4 18  1  0  0  0  0
  4 19  1  0  0  0  0
  5 20  1  0  0  0  0
  5 21  1  0  0  0  0
  5 22  1  0  0  0  0
  6  8  1  0  0  0  0
  6 23  1  0  0  0  0
  6 24  1  0  0  0  0
  7 11  1  0  0  0  0
  7 25  1  0  0  0  0
  7 26  1  0  0  0  0
  8 11  1  0  0  0  0
  8 27  1  0  0  0  0
  9 28  1  0  0  0  0
  9 29  1  0  0  0  0
 10 12  1  0  0  0  0
 10 30  1  0  0  0  0
 10 31  1  0  0  0  0
 11 32  1  0  0  0  0
 11 33  1  0  0  0  0
 12 13  2  0  0  0  0
 12 34  1  0  0  0  0
 13 14  1  0  0  0  0
 13 15  1  0  0  0  0
 14 16  1  0  0  0  0
 14 35  1  0  0  0  0
 14 36  1  0  0  0  0
 15 37  1  0  0  0  0
 15 38  1  0  0  0  0
 15 39  1  0  0  0  0
 16 40  1  0  0  0  0
M  END
>  <Mol_ID>
4475

>  <Formula>
C15H24O

>  <MolWeight>
220.35046

>  <Cat>
S9225

>  <Name>
Santalol

>  <Target>
Immunology & Inflammation related

>  <Form>
free base

>  <CAS>
11031-45-1

>  <URL>
https://www.selleckchem.com/products/santalol.html

$$$$
