S9223 Talatisamine.cdx
 OpenBabel08302521203D

 69 74  0  0  0  0  0  0  0  0999 V2000
   -0.2707   -0.3874    0.7133 C   0  0  3  0  0  0  0  0  0  0  0  0
    0.7816   -1.2923    1.5387 C   0  0  3  0  0  0  0  0  0  0  0  0
    0.6379   -0.5946   -0.5443 C   0  0  3  0  0  0  0  0  0  0  0  0
   -0.4731    1.2984    0.5823 C   0  0  3  0  0  0  0  0  0  0  0  0
   -1.7089   -1.0527    0.6191 C   0  0  3  0  0  0  0  0  0  0  0  0
    0.5823   -2.8434    1.0805 C   0  0  3  0  0  0  0  0  0  0  0  0
    2.3015   -0.8452    1.1423 C   0  0  0  0  0  0  0  0  0  0  0  0
    1.9002    0.1270    0.0824 C   0  0  3  0  0  0  0  0  0  0  0  0
    0.9263   -1.8772   -1.1906 N   0  0  0  0  0  0  0  0  0  0  0  0
    0.4066    1.8203   -0.6350 C   0  0  3  0  0  0  0  0  0  0  0  0
   -0.2182    2.7366    1.4732 C   0  0  0  0  0  0  0  0  0  0  0  0
   -1.8228   -2.3332    1.4309 C   0  0  0  0  0  0  0  0  0  0  0  0
   -2.7717   -0.2026    1.0751 O   0  0  0  0  0  0  0  0  0  0  0  0
    1.2080   -3.0395   -0.3406 C   0  0  0  0  0  0  0  0  0  0  0  0
   -0.8746   -3.3074    0.8448 C   0  0  0  0  0  0  0  0  0  0  0  0
    1.1478   -3.6622    2.2719 C   0  0  0  0  0  0  0  0  0  0  0  0
    2.0070    1.4342   -0.7182 C   0  0  3  0  0  0  0  0  0  0  0  0
    0.1467   -1.9105   -2.4386 C   0  0  0  0  0  0  0  0  0  0  0  0
   -0.3311    3.1035   -0.9445 C   0  0  3  0  0  0  0  0  0  0  0  0
    0.2980    3.8976    0.1871 C   0  0  3  0  0  0  0  0  0  0  0  0
   -4.0479   -0.6121    0.5625 C   0  0  0  0  0  0  0  0  0  0  0  0
    0.8049   -5.0485    2.2703 O   0  0  0  0  0  0  0  0  0  0  0  0
    2.7692    2.6914   -0.0754 C   0  0  0  0  0  0  0  0  0  0  0  0
    2.5503    1.1285   -1.9849 O   0  0  0  0  0  0  0  0  0  0  0  0
   -0.1814   -3.1584   -3.2098 C   0  0  0  0  0  0  0  0  0  0  0  0
   -0.2602    3.4908   -2.2679 O   0  0  0  0  0  0  0  0  0  0  0  0
    1.9082    4.0131   -0.2845 C   0  0  3  0  0  0  0  0  0  0  0  0
    0.4732   -5.4956    3.5889 C   0  0  0  0  0  0  0  0  0  0  0  0
    1.9608    4.5507   -1.6448 O   0  0  0  0  0  0  0  0  0  0  0  0
    2.7086    3.8774   -2.6718 C   0  0  0  0  0  0  0  0  0  0  0  0
    0.6264   -1.1501    2.6137 H   0  0  0  0  0  0  0  0  0  0  0  0
    0.2184   -0.0198   -1.3684 H   0  0  0  0  0  0  0  0  0  0  0  0
   -1.5171    1.3909    0.2831 H   0  0  0  0  0  0  0  0  0  0  0  0
   -1.8959   -1.2540   -0.4420 H   0  0  0  0  0  0  0  0  0  0  0  0
    2.8279   -0.4306    2.0116 H   0  0  0  0  0  0  0  0  0  0  0  0
    2.9564   -1.6267    0.7499 H   0  0  0  0  0  0  0  0  0  0  0  0
    1.6752    0.7354    0.9840 H   0  0  0  0  0  0  0  0  0  0  0  0
    0.9377    2.1310    0.2140 H   0  0  0  0  0  0  0  0  0  0  0  0
    0.5587    2.6532    2.2398 H   0  0  0  0  0  0  0  0  0  0  0  0
   -1.1720    3.0825    1.8859 H   0  0  0  0  0  0  0  0  0  0  0  0
   -2.8214   -2.7749    1.3734 H   0  0  0  0  0  0  0  0  0  0  0  0
   -1.6364   -2.1570    2.4945 H   0  0  0  0  0  0  0  0  0  0  0  0
    0.8675   -3.9653   -0.8163 H   0  0  0  0  0  0  0  0  0  0  0  0
    2.2916   -3.1827   -0.2728 H   0  0  0  0  0  0  0  0  0  0  0  0
   -1.1183   -3.3926   -0.2280 H   0  0  0  0  0  0  0  0  0  0  0  0
   -1.0772   -4.3167    1.2110 H   0  0  0  0  0  0  0  0  0  0  0  0
    2.2324   -3.5741    2.3489 H   0  0  0  0  0  0  0  0  0  0  0  0
    0.7214   -3.2138    3.1832 H   0  0  0  0  0  0  0  0  0  0  0  0
   -0.8342   -1.4464   -2.2625 H   0  0  0  0  0  0  0  0  0  0  0  0
    0.6625   -1.2265   -3.1331 H   0  0  0  0  0  0  0  0  0  0  0  0
   -1.4123    3.0389   -0.7534 H   0  0  0  0  0  0  0  0  0  0  0  0
   -0.1461    4.8876    0.3431 H   0  0  0  0  0  0  0  0  0  0  0  0
   -4.3669   -1.5683    0.9923 H   0  0  0  0  0  0  0  0  0  0  0  0
   -4.7897    0.1324    0.8465 H   0  0  0  0  0  0  0  0  0  0  0  0
   -4.0267   -0.6934   -0.5302 H   0  0  0  0  0  0  0  0  0  0  0  0
    3.7864    2.7972   -0.4580 H   0  0  0  0  0  0  0  0  0  0  0  0
    2.8647    2.5670    1.0134 H   0  0  0  0  0  0  0  0  0  0  0  0
    3.4673    0.8688   -1.8266 H   0  0  0  0  0  0  0  0  0  0  0  0
   -0.7949   -3.8401   -2.6183 H   0  0  0  0  0  0  0  0  0  0  0  0
   -0.7868   -2.8534   -4.0780 H   0  0  0  0  0  0  0  0  0  0  0  0
    0.7106   -3.6582   -3.5858 H   0  0  0  0  0  0  0  0  0  0  0  0
    0.3992    4.2088   -2.3201 H   0  0  0  0  0  0  0  0  0  0  0  0
    2.3567    4.8064    0.3231 H   0  0  0  0  0  0  0  0  0  0  0  0
    1.2961   -5.2898    4.2820 H   0  0  0  0  0  0  0  0  0  0  0  0
   -0.4395   -4.9997    3.9448 H   0  0  0  0  0  0  0  0  0  0  0  0
    0.2883   -6.5715    3.5664 H   0  0  0  0  0  0  0  0  0  0  0  0
    2.8716    4.5803   -3.4948 H   0  0  0  0  0  0  0  0  0  0  0  0
    3.6931    3.5442   -2.3424 H   0  0  0  0  0  0  0  0  0  0  0  0
    2.1408    3.0527   -3.1170 H   0  0  0  0  0  0  0  0  0  0  0  0
  1  2  1  0  0  0  0
  1  3  1  0  0  0  0
  1  4  1  0  0  0  0
  1  5  1  0  0  0  0
  2  6  1  0  0  0  0
  2  7  1  0  0  0  0
  2 31  1  0  0  0  0
  3  8  1  0  0  0  0
  3  9  1  0  0  0  0
  3 32  1  0  0  0  0
  4 11  1  0  0  0  0
  4 33  1  0  0  0  0
  5 12  1  0  0  0  0
  5 13  1  0  0  0  0
  5 34  1  0  0  0  0
  6 14  1  0  0  0  0
  6 15  1  0  0  0  0
  6 16  1  0  0  0  0
  7 35  1  0  0  0  0
  7 36  1  0  0  0  0
  8  7  1  0  0  0  0
  8 17  1  0  0  0  0
  8 37  1  0  0  0  0
  9 18  1  0  0  0  0
  9 14  1  0  0  0  0
 10  4  1  0  0  0  0
 10 19  1  0  0  0  0
 10 17  1  0  0  0  0
 10 38  1  0  0  0  0
 11 39  1  0  0  0  0
 11 40  1  0  0  0  0
 12 15  1  0  0  0  0
 12 41  1  0  0  0  0
 12 42  1  0  0  0  0
 13 21  1  0  0  0  0
 14 43  1  0  0  0  0
 14 44  1  0  0  0  0
 15 45  1  0  0  0  0
 15 46  1  0  0  0  0
 16 22  1  0  0  0  0
 16 47  1  0  0  0  0
 16 48  1  0  0  0  0
 17 23  1  0  0  0  0
 17 24  1  0  0  0  0
 18 25  1  0  0  0  0
 18 49  1  0  0  0  0
 18 50  1  0  0  0  0
 19 26  1  0  0  0  0
 19 20  1  0  0  0  0
 19 51  1  0  0  0  0
 20 11  1  0  0  0  0
 20 27  1  0  0  0  0
 20 52  1  0  0  0  0
 21 53  1  0  0  0  0
 21 54  1  0  0  0  0
 21 55  1  0  0  0  0
 22 28  1  0  0  0  0
 23 27  1  0  0  0  0
 23 56  1  0  0  0  0
 23 57  1  0  0  0  0
 24 58  1  0  0  0  0
 25 59  1  0  0  0  0
 25 60  1  0  0  0  0
 25 61  1  0  0  0  0
 26 62  1  0  0  0  0
 27 29  1  0  0  0  0
 27 63  1  0  0  0  0
 28 64  1  0  0  0  0
 28 65  1  0  0  0  0
 28 66  1  0  0  0  0
 29 30  1  0  0  0  0
 30 67  1  0  0  0  0
 30 68  1  0  0  0  0
 30 69  1  0  0  0  0
M  END
>  <Mol_ID>
4471

>  <Formula>
C24H39NO5

>  <MolWeight>
421.57016

>  <Cat>
S9223

>  <Name>
Talatisamine

>  <Target>
ADC Cytotoxin,Potassium Channel

>  <Form>
free base

>  <CAS>
20501-56-8

>  <URL>
https://www.selleckchem.com/products/talatisamine.html

$$$$
