S9228 Schisandrin C.cdx
 OpenBabel08302521203D

 52 56  0  0  0  0  0  0  0  0999 V2000
    0.6811   -0.7430    0.1722 C   0  0  0  0  0  0  0  0  0  0  0  0
   -0.7948   -0.6031    0.0317 C   0  0  0  0  0  0  0  0  0  0  0  0
    1.4469   -1.7648   -0.4801 C   0  0  0  0  0  0  0  0  0  0  0  0
    1.4326    0.2844    0.8578 C   0  0  0  0  0  0  0  0  0  0  0  0
   -1.7388   -1.2241    0.8818 C   0  0  0  0  0  0  0  0  0  0  0  0
   -1.3160    0.1997   -1.0259 C   0  0  0  0  0  0  0  0  0  0  0  0
    2.8314   -1.6755   -0.4616 C   0  0  0  0  0  0  0  0  0  0  0  0
    1.0343   -2.8397   -1.2209 O   0  0  0  0  0  0  0  0  0  0  0  0
    2.8434    0.2753    0.9042 C   0  0  0  0  0  0  0  0  0  0  0  0
    0.7830    1.5204    1.4403 C   0  0  0  0  0  0  0  0  0  0  0  0
   -3.0828   -1.0116    0.5731 C   0  0  0  0  0  0  0  0  0  0  0  0
   -1.3284   -1.9230    1.9830 O   0  0  0  0  0  0  0  0  0  0  0  0
   -2.6261    0.0441   -1.4992 C   0  0  0  0  0  0  0  0  0  0  0  0
   -0.6232    1.4599   -1.4955 C   0  0  0  0  0  0  0  0  0  0  0  0
    3.5144   -0.6850    0.2040 C   0  0  0  0  0  0  0  0  0  0  0  0
    3.7107   -2.4938   -1.1325 O   0  0  0  0  0  0  0  0  0  0  0  0
   -0.3314   -3.1332   -1.4228 C   0  0  0  0  0  0  0  0  0  0  0  0
    0.6442    2.6943    0.4392 C   0  0  3  0  0  0  0  0  0  0  0  0
   -3.5012   -0.5786   -0.6590 C   0  0  0  0  0  0  0  0  0  0  0  0
   -4.1576   -0.9903    1.4404 O   0  0  0  0  0  0  0  0  0  0  0  0
   -2.1838   -3.0158    2.3420 C   0  0  0  0  0  0  0  0  0  0  0  0
   -0.6164    2.6266   -0.4590 C   0  0  3  0  0  0  0  0  0  0  0  0
    4.8609   -0.7373    0.0293 O   0  0  0  0  0  0  0  0  0  0  0  0
    4.9563   -1.8059   -0.9285 C   0  0  0  0  0  0  0  0  0  0  0  0
    1.8903    2.9672   -0.4212 C   0  0  0  0  0  0  0  0  0  0  0  0
   -4.8511   -0.4352   -0.7599 O   0  0  0  0  0  0  0  0  0  0  0  0
   -5.0689   -0.1984    0.6373 C   0  0  0  0  0  0  0  0  0  0  0  0
   -1.8893    2.7806    0.3985 C   0  0  0  0  0  0  0  0  0  0  0  0
    3.4038    1.0612    1.4026 H   0  0  0  0  0  0  0  0  0  0  0  0
    1.4051    1.8656    2.2772 H   0  0  0  0  0  0  0  0  0  0  0  0
   -0.1693    1.2671    1.9151 H   0  0  0  0  0  0  0  0  0  0  0  0
   -3.0195    0.5956   -2.3457 H   0  0  0  0  0  0  0  0  0  0  0  0
   -1.1629    1.8318   -2.3754 H   0  0  0  0  0  0  0  0  0  0  0  0
    0.3795    1.2125   -1.8765 H   0  0  0  0  0  0  0  0  0  0  0  0
   -0.8220   -3.4072   -0.4864 H   0  0  0  0  0  0  0  0  0  0  0  0
   -0.8361   -2.3254   -1.9522 H   0  0  0  0  0  0  0  0  0  0  0  0
   -0.3847   -4.0066   -2.0781 H   0  0  0  0  0  0  0  0  0  0  0  0
    0.5273    3.5931    1.0634 H   0  0  0  0  0  0  0  0  0  0  0  0
   -2.6216   -2.8261    3.3276 H   0  0  0  0  0  0  0  0  0  0  0  0
   -2.9910   -3.2267    1.6288 H   0  0  0  0  0  0  0  0  0  0  0  0
   -1.5770   -3.9240    2.3962 H   0  0  0  0  0  0  0  0  0  0  0  0
   -0.5827    3.5412   -1.0685 H   0  0  0  0  0  0  0  0  0  0  0  0
    5.2867   -1.3903   -1.8892 H   0  0  0  0  0  0  0  0  0  0  0  0
    5.7093   -2.5226   -0.5820 H   0  0  0  0  0  0  0  0  0  0  0  0
    1.7466    3.8710   -1.0234 H   0  0  0  0  0  0  0  0  0  0  0  0
    2.7754    3.1259    0.2001 H   0  0  0  0  0  0  0  0  0  0  0  0
    2.1100    2.1545   -1.1205 H   0  0  0  0  0  0  0  0  0  0  0  0
   -4.8982    0.8778    0.8101 H   0  0  0  0  0  0  0  0  0  0  0  0
   -6.1035   -0.4265    0.9024 H   0  0  0  0  0  0  0  0  0  0  0  0
   -1.8004    3.6568    1.0542 H   0  0  0  0  0  0  0  0  0  0  0  0
   -2.7736    2.9354   -0.2261 H   0  0  0  0  0  0  0  0  0  0  0  0
   -2.0784    1.9245    1.0514 H   0  0  0  0  0  0  0  0  0  0  0  0
  1  2  1  0  0  0  0
  1  3  2  0  0  0  0
  1  4  1  0  0  0  0
  2  5  2  0  0  0  0
  2  6  1  0  0  0  0
  3  7  1  0  0  0  0
  3  8  1  0  0  0  0
  4  9  2  0  0  0  0
  4 10  1  0  0  0  0
  5 11  1  0  0  0  0
  5 12  1  0  0  0  0
  6 13  2  0  0  0  0
  6 14  1  0  0  0  0
  7 15  2  0  0  0  0
  7 16  1  0  0  0  0
  8 17  1  0  0  0  0
  9 15  1  0  0  0  0
  9 29  1  0  0  0  0
 10 18  1  0  0  0  0
 10 30  1  0  0  0  0
 10 31  1  0  0  0  0
 11 19  2  0  0  0  0
 11 20  1  0  0  0  0
 12 21  1  0  0  0  0
 13 19  1  0  0  0  0
 13 32  1  0  0  0  0
 14 22  1  0  0  0  0
 14 33  1  0  0  0  0
 14 34  1  0  0  0  0
 15 23  1  0  0  0  0
 16 24  1  0  0  0  0
 17 35  1  0  0  0  0
 17 36  1  0  0  0  0
 17 37  1  0  0  0  0
 18 25  1  0  0  0  0
 18 22  1  0  0  0  0
 18 38  1  0  0  0  0
 19 26  1  0  0  0  0
 20 27  1  0  0  0  0
 21 39  1  0  0  0  0
 21 40  1  0  0  0  0
 21 41  1  0  0  0  0
 22 28  1  0  0  0  0
 22 42  1  0  0  0  0
 23 24  1  0  0  0  0
 24 43  1  0  0  0  0
 24 44  1  0  0  0  0
 25 45  1  0  0  0  0
 25 46  1  0  0  0  0
 25 47  1  0  0  0  0
 26 27  1  0  0  0  0
 27 48  1  0  0  0  0
 27 49  1  0  0  0  0
 28 50  1  0  0  0  0
 28 51  1  0  0  0  0
 28 52  1  0  0  0  0
M  END
>  <Mol_ID>
4478

>  <Formula>
C22H24O6

>  <MolWeight>
384.42236

>  <Cat>
S9228

>  <Name>
Schisandrin C

>  <Target>
Immunology & Inflammation related

>  <Form>
free base

>  <CAS>
61301-33-5

>  <URL>
https://www.selleckchem.com/products/schisandrin-c.html

$$$$
