S9229 Linderane.cdx
 OpenBabel08302521203D

 35 38  0  0  0  0  0  0  0  0999 V2000
    0.7027    0.7839   -1.7358 C   0  0  1  0  0  0  0  0  0  0  0  0
    0.0469   -0.3214   -1.0665 C   0  0  2  0  0  0  0  0  0  0  0  0
    0.6554    0.7891   -0.3298 O   0  0  0  0  0  0  0  0  0  0  0  0
    0.8809   -1.4749   -0.8385 C   0  0  2  0  0  0  0  0  0  0  0  0
    0.9957   -1.5035    0.6788 C   0  0  0  0  0  0  0  0  0  0  0  0
    1.8774    0.1001   -2.2833 C   0  0  0  0  0  0  0  0  0  0  0  0
    0.0202   -1.0272    1.6054 C   0  0  0  0  0  0  0  0  0  0  0  0
    2.0581   -1.1431   -1.6375 O   0  0  0  0  0  0  0  0  0  0  0  0
    0.5212   -1.2137    2.8729 O   0  0  0  0  0  0  0  0  0  0  0  0
    2.2135   -1.5799    1.4403 C   0  0  0  0  0  0  0  0  0  0  0  0
    1.8339   -1.5137    2.7620 C   0  0  0  0  0  0  0  0  0  0  0  0
   -1.2432   -0.0980    1.6311 C   0  0  0  0  0  0  0  0  0  0  0  0
    2.5879    0.5220   -3.1790 O   0  0  0  0  0  0  0  0  0  0  0  0
   -2.2396    0.3058    0.4971 C   0  0  0  0  0  0  0  0  0  0  0  0
   -0.2043    1.9019   -2.1633 C   0  0  0  0  0  0  0  0  0  0  0  0
   -2.2020    1.2913   -0.4610 C   0  0  0  0  0  0  0  0  0  0  0  0
   -1.1631    2.3307   -0.9345 C   0  0  0  0  0  0  0  0  0  0  0  0
    3.6095   -1.5282    0.9331 C   0  0  0  0  0  0  0  0  0  0  0  0
   -3.5533   -0.4581    0.5530 C   0  0  0  0  0  0  0  0  0  0  0  0
   -0.9729   -0.5391   -1.3337 H   0  0  0  0  0  0  0  0  0  0  0  0
    0.4478   -2.4053   -1.2156 H   0  0  0  0  0  0  0  0  0  0  0  0
    2.3844   -1.5225    3.6923 H   0  0  0  0  0  0  0  0  0  0  0  0
   -1.8616   -0.5248    2.4380 H   0  0  0  0  0  0  0  0  0  0  0  0
   -0.8841    0.8508    2.0577 H   0  0  0  0  0  0  0  0  0  0  0  0
    0.3993    2.7688   -2.4500 H   0  0  0  0  0  0  0  0  0  0  0  0
   -0.8141    1.6001   -3.0207 H   0  0  0  0  0  0  0  0  0  0  0  0
   -3.0941    1.3739   -1.0897 H   0  0  0  0  0  0  0  0  0  0  0  0
   -1.7101    3.2271   -1.2500 H   0  0  0  0  0  0  0  0  0  0  0  0
   -0.5621    2.6600   -0.0757 H   0  0  0  0  0  0  0  0  0  0  0  0
    3.8900   -0.4769    0.7799 H   0  0  0  0  0  0  0  0  0  0  0  0
    3.7274   -2.0485   -0.0208 H   0  0  0  0  0  0  0  0  0  0  0  0
    4.3145   -1.9582    1.6485 H   0  0  0  0  0  0  0  0  0  0  0  0
   -4.3520    0.2038    0.9085 H   0  0  0  0  0  0  0  0  0  0  0  0
   -3.8285   -0.8350   -0.4380 H   0  0  0  0  0  0  0  0  0  0  0  0
   -3.5127   -1.3212    1.2255 H   0  0  0  0  0  0  0  0  0  0  0  0
  1  3  1  1  0  0  0
  1 15  1  0  0  0  0
  2  1  1  0  0  0  0
  2  3  1  0  0  0  0
  2 20  1  6  0  0  0
  4  2  1  0  0  0  0
  4  5  1  0  0  0  0
  4  8  1  0  0  0  0
  4 21  1  6  0  0  0
  6  1  1  0  0  0  0
  7  5  2  0  0  0  0
  7 12  1  0  0  0  0
  8  6  1  0  0  0  0
  9  7  1  0  0  0  0
 10  5  1  0  0  0  0
 11  9  1  0  0  0  0
 11 10  2  0  0  0  0
 11 22  1  0  0  0  0
 12 14  1  0  0  0  0
 12 23  1  0  0  0  0
 12 24  1  0  0  0  0
 13  6  2  0  0  0  0
 14 16  2  0  0  0  0
 14 19  1  0  0  0  0
 15 25  1  0  0  0  0
 15 26  1  0  0  0  0
 16 17  1  0  0  0  0
 16 27  1  0  0  0  0
 17 15  1  0  0  0  0
 17 28  1  0  0  0  0
 17 29  1  0  0  0  0
 18 30  1  0  0  0  0
 18 31  1  0  0  0  0
 18 32  1  0  0  0  0
 18 10  1  0  0  0  0
 19 33  1  0  0  0  0
 19 34  1  0  0  0  0
 19 35  1  0  0  0  0
M  END
>  <Mol_ID>
4479

>  <Formula>
C15H16O4

>  <MolWeight>
260.28514

>  <Cat>
S9229

>  <Name>
Linderane

>  <Target>
PDE

>  <Form>
free base

>  <CAS>
13476-25-0

>  <URL>
https://www.selleckchem.com/products/linderane.html

$$$$
