S9239 Isocorynoxeine.cdx
 OpenBabel08302521203D

 54 57  0  0  0  0  0  0  0  0999 V2000
    2.6986   -4.2891   -2.3598 N   0  0  0  0  0  0  0  0  0  0  0  0
    3.6484   -2.9358    1.4086 C   0  0  0  0  0  0  0  0  0  0  0  0
    4.2569   -2.2808    0.3180 C   0  0  0  0  0  0  0  0  0  0  0  0
    4.0259   -2.7038   -0.9911 C   0  0  0  0  0  0  0  0  0  0  0  0
    2.7108   -3.9575    1.2100 C   0  0  0  0  0  0  0  0  0  0  0  0
   -1.2073   -5.5182   -0.4425 C   0  0  0  0  0  0  0  0  0  0  0  0
    0.2482   -5.9451   -0.0904 C   0  0  0  0  0  0  0  0  0  0  0  0
    1.1296   -4.8624   -0.6905 C   0  0  2  0  0  0  0  0  0  0  0  0
   -1.0789   -4.3199   -1.2869 N   0  0  3  0  0  0  0  0  0  0  0  0
    0.1523   -3.6774   -0.8405 C   0  0  1  0  0  0  0  0  0  0  0  0
   -1.8376   -1.8699   -1.3079 C   0  0  1  0  0  0  0  0  0  0  0  0
   -2.2237   -3.3969   -1.3181 C   0  0  0  0  0  0  0  0  0  0  0  0
   -0.8772   -1.5481   -0.1053 C   0  0  2  0  0  0  0  0  0  0  0  0
   -0.1607   -2.8096    0.3911 C   0  0  0  0  0  0  0  0  0  0  0  0
   -3.3941    0.1816    1.8675 O   0  0  0  0  0  0  0  0  0  0  0  0
   -2.8339   -0.9985    1.4955 C   0  0  0  0  0  0  0  0  0  0  0  0
   -1.4361   -0.7621    1.0602 C   0  0  0  0  0  0  0  0  0  0  0  0
    1.6345   -5.1701   -2.1380 C   0  0  0  0  0  0  0  0  0  0  0  0
    2.3898   -4.2762   -0.0970 C   0  0  0  0  0  0  0  0  0  0  0  0
    3.1182   -3.7235   -1.1626 C   0  0  0  0  0  0  0  0  0  0  0  0
   -1.1955   -1.3086   -2.5857 C   0  0  0  0  0  0  0  0  0  0  0  0
   -4.7867    0.0989    2.1537 C   0  0  0  0  0  0  0  0  0  0  0  0
    1.1910   -5.9569   -2.9561 O   0  0  0  0  0  0  0  0  0  0  0  0
   -3.3922   -2.0792    1.4355 O   0  0  0  0  0  0  0  0  0  0  0  0
   -0.8503   -1.9618   -3.7040 C   0  0  0  0  0  0  0  0  0  0  0  0
   -0.7221    0.1484    1.7502 C   0  0  0  0  0  0  0  0  0  0  0  0
    0.5671    0.4888    1.4401 O   0  0  0  0  0  0  0  0  0  0  0  0
    0.8640    1.8312    1.8135 C   0  0  0  0  0  0  0  0  0  0  0  0
    3.1332   -4.1703   -3.2610 H   0  0  0  0  0  0  0  0  0  0  0  0
    3.8536   -2.5864    2.4185 H   0  0  0  0  0  0  0  0  0  0  0  0
    4.8977   -1.4204    0.4999 H   0  0  0  0  0  0  0  0  0  0  0  0
    4.4719   -2.1899   -1.8346 H   0  0  0  0  0  0  0  0  0  0  0  0
    2.1636   -4.3716    2.0502 H   0  0  0  0  0  0  0  0  0  0  0  0
   -1.7469   -5.3117    0.4912 H   0  0  0  0  0  0  0  0  0  0  0  0
   -1.7429   -6.3184   -0.9632 H   0  0  0  0  0  0  0  0  0  0  0  0
    0.3640   -6.0025    0.9979 H   0  0  0  0  0  0  0  0  0  0  0  0
    0.4669   -6.9350   -0.5054 H   0  0  0  0  0  0  0  0  0  0  0  0
    0.5277   -3.0193   -1.6300 H   0  0  0  0  0  0  0  0  0  0  0  0
   -2.7683   -1.3007   -1.1979 H   0  0  0  0  0  0  0  0  0  0  0  0
   -2.8855   -3.5863   -0.4666 H   0  0  0  0  0  0  0  0  0  0  0  0
   -2.8182   -3.6146   -2.2135 H   0  0  0  0  0  0  0  0  0  0  0  0
   -0.0695   -0.9190   -0.5137 H   0  0  0  0  0  0  0  0  0  0  0  0
   -0.7631   -3.3492    1.1344 H   0  0  0  0  0  0  0  0  0  0  0  0
    0.7366   -2.4860    0.9194 H   0  0  0  0  0  0  0  0  0  0  0  0
   -0.9409   -0.2486   -2.5397 H   0  0  0  0  0  0  0  0  0  0  0  0
   -5.3308   -0.3380    1.3110 H   0  0  0  0  0  0  0  0  0  0  0  0
   -5.1508    1.1186    2.3061 H   0  0  0  0  0  0  0  0  0  0  0  0
   -4.9556   -0.4749    3.0698 H   0  0  0  0  0  0  0  0  0  0  0  0
   -0.3323   -1.4453   -4.5073 H   0  0  0  0  0  0  0  0  0  0  0  0
   -1.0242   -3.0254   -3.8371 H   0  0  0  0  0  0  0  0  0  0  0  0
   -1.1089    0.6718    2.6169 H   0  0  0  0  0  0  0  0  0  0  0  0
    1.7170    2.1682    1.2197 H   0  0  0  0  0  0  0  0  0  0  0  0
    0.0191    2.5030    1.6158 H   0  0  0  0  0  0  0  0  0  0  0  0
    1.1383    1.8709    2.8719 H   0  0  0  0  0  0  0  0  0  0  0  0
  1 18  1  0  0  0  0
  1 29  1  0  0  0  0
  2  3  1  0  0  0  0
  2 30  1  0  0  0  0
  3  4  2  0  0  0  0
  3 31  1  0  0  0  0
  4 20  1  0  0  0  0
  4 32  1  0  0  0  0
  5  2  2  0  0  0  0
  5 33  1  0  0  0  0
  6  7  1  0  0  0  0
  6 34  1  0  0  0  0
  6 35  1  0  0  0  0
  7 36  1  0  0  0  0
  7 37  1  0  0  0  0
  8  7  1  0  0  0  0
  8 10  1  0  0  0  0
  8 18  1  6  0  0  0
  8 19  1  0  0  0  0
  9 10  1  0  0  0  0
  9  6  1  0  0  0  0
  9 12  1  0  0  0  0
 10 14  1  0  0  0  0
 10 38  1  6  0  0  0
 11 12  1  0  0  0  0
 11 39  1  1  0  0  0
 11 21  1  0  0  0  0
 12 40  1  0  0  0  0
 12 41  1  0  0  0  0
 13 11  1  0  0  0  0
 13 14  1  0  0  0  0
 13 42  1  6  0  0  0
 13 17  1  0  0  0  0
 14 43  1  0  0  0  0
 14 44  1  0  0  0  0
 15 16  1  0  0  0  0
 15 22  1  0  0  0  0
 16 17  1  0  0  0  0
 16 24  2  0  0  0  0
 17 26  2  0  0  0  0
 18 23  2  0  0  0  0
 19 20  2  0  0  0  0
 19  5  1  0  0  0  0
 20  1  1  0  0  0  0
 21 25  2  0  0  0  0
 21 45  1  0  0  0  0
 22 46  1  0  0  0  0
 22 47  1  0  0  0  0
 22 48  1  0  0  0  0
 25 49  1  0  0  0  0
 25 50  1  0  0  0  0
 26 27  1  0  0  0  0
 26 51  1  0  0  0  0
 27 28  1  0  0  0  0
 28 52  1  0  0  0  0
 28 53  1  0  0  0  0
 28 54  1  0  0  0  0
M  END
>  <Mol_ID>
4486

>  <Formula>
C22H26N2O4

>  <MolWeight>
382.45284

>  <Cat>
S9239

>  <Name>
Isocorynoxeine

>  <Synonyms>
7-Isocorynoxeine

>  <Target>
5-HT Receptor

>  <Form>
free base

>  <CAS>
51014-29-0

>  <URL>
https://www.selleckchem.com/products/isocorynoxeine.html

$$$$
