S9231 Schisanhenol.cdx
 OpenBabel08302521203D

 59 61  0  0  0  0  0  0  0  0999 V2000
   -1.4883    0.2964   -0.6673 C   0  0  0  0  0  0  0  0  0  0  0  0
   -0.7315   -0.7133   -0.0436 C   0  0  0  0  0  0  0  0  0  0  0  0
    0.7433   -0.7141   -0.1702 C   0  0  0  0  0  0  0  0  0  0  0  0
    1.5122    0.2371    0.5244 C   0  0  0  0  0  0  0  0  0  0  0  0
    0.9059    1.4142    1.2661 C   0  0  0  0  0  0  0  0  0  0  0  0
    0.6875    2.6806    0.4030 C   0  0  3  0  0  0  0  0  0  0  0  0
   -0.6347    2.7156   -0.4131 C   0  0  3  0  0  0  0  0  0  0  0  0
   -0.8666    1.5036   -1.3476 C   0  0  0  0  0  0  0  0  0  0  0  0
   -1.4099   -1.7418    0.6747 C   0  0  0  0  0  0  0  0  0  0  0  0
   -2.8241   -1.7526    0.7382 C   0  0  0  0  0  0  0  0  0  0  0  0
   -3.5623   -0.7597    0.0648 C   0  0  0  0  0  0  0  0  0  0  0  0
   -2.8912    0.2312   -0.6469 C   0  0  0  0  0  0  0  0  0  0  0  0
    2.9109    0.1262    0.5000 C   0  0  0  0  0  0  0  0  0  0  0  0
    3.5724   -0.8642   -0.2359 C   0  0  0  0  0  0  0  0  0  0  0  0
    2.8240   -1.8007   -0.9639 C   0  0  0  0  0  0  0  0  0  0  0  0
    1.4155   -1.7073   -0.9334 C   0  0  0  0  0  0  0  0  0  0  0  0
    1.8864    3.0082   -0.5009 C   0  0  0  0  0  0  0  0  0  0  0  0
   -1.8302    3.0190    0.5061 C   0  0  0  0  0  0  0  0  0  0  0  0
    3.5024   -2.7344   -1.7044 O   0  0  0  0  0  0  0  0  0  0  0  0
    2.9783   -4.0588   -1.7077 C   0  0  0  0  0  0  0  0  0  0  0  0
    4.9307   -0.7485   -0.1073 O   0  0  0  0  0  0  0  0  0  0  0  0
    5.7712   -1.6534   -0.8028 C   0  0  0  0  0  0  0  0  0  0  0  0
   -4.9338   -0.8160    0.1635 O   0  0  0  0  0  0  0  0  0  0  0  0
   -5.6762    0.2310   -0.4567 C   0  0  0  0  0  0  0  0  0  0  0  0
   -3.5860   -2.7237    1.3460 O   0  0  0  0  0  0  0  0  0  0  0  0
   -3.0682   -3.3262    2.5236 C   0  0  0  0  0  0  0  0  0  0  0  0
   -0.7424   -2.8496    1.1532 O   0  0  0  0  0  0  0  0  0  0  0  0
    0.3549   -2.6198    2.0416 C   0  0  0  0  0  0  0  0  0  0  0  0
    0.6786   -2.6199   -1.6544 O   0  0  0  0  0  0  0  0  0  0  0  0
    1.5872    1.6793    2.0884 H   0  0  0  0  0  0  0  0  0  0  0  0
   -0.0189    1.1161    1.7812 H   0  0  0  0  0  0  0  0  0  0  0  0
    0.6262    3.5160    1.1159 H   0  0  0  0  0  0  0  0  0  0  0  0
   -0.5590    3.5879   -1.0791 H   0  0  0  0  0  0  0  0  0  0  0  0
   -1.5404    1.8234   -2.1562 H   0  0  0  0  0  0  0  0  0  0  0  0
    0.0526    1.2235   -1.8757 H   0  0  0  0  0  0  0  0  0  0  0  0
   -3.4388    1.0047   -1.1761 H   0  0  0  0  0  0  0  0  0  0  0  0
    3.5137    0.8460    1.0531 H   0  0  0  0  0  0  0  0  0  0  0  0
    1.7397    3.9695   -1.0046 H   0  0  0  0  0  0  0  0  0  0  0  0
    2.8052    3.0873    0.0890 H   0  0  0  0  0  0  0  0  0  0  0  0
    2.0385    2.2554   -1.2801 H   0  0  0  0  0  0  0  0  0  0  0  0
   -1.6730    3.9599    1.0446 H   0  0  0  0  0  0  0  0  0  0  0  0
   -2.7514    3.1316   -0.0751 H   0  0  0  0  0  0  0  0  0  0  0  0
   -1.9877    2.2398    1.2580 H   0  0  0  0  0  0  0  0  0  0  0  0
    2.6183   -4.3676   -0.7200 H   0  0  0  0  0  0  0  0  0  0  0  0
    2.2065   -4.1744   -2.4734 H   0  0  0  0  0  0  0  0  0  0  0  0
    3.7949   -4.7325   -1.9873 H   0  0  0  0  0  0  0  0  0  0  0  0
    5.6483   -2.6737   -0.4274 H   0  0  0  0  0  0  0  0  0  0  0  0
    5.6294   -1.5839   -1.8869 H   0  0  0  0  0  0  0  0  0  0  0  0
    6.8048   -1.3552   -0.5978 H   0  0  0  0  0  0  0  0  0  0  0  0
   -5.3831    1.2186   -0.0797 H   0  0  0  0  0  0  0  0  0  0  0  0
   -5.5792    0.1862   -1.5477 H   0  0  0  0  0  0  0  0  0  0  0  0
   -6.7350    0.0954   -0.2134 H   0  0  0  0  0  0  0  0  0  0  0  0
   -2.3409   -4.1047    2.2795 H   0  0  0  0  0  0  0  0  0  0  0  0
   -2.6527   -2.5871    3.2169 H   0  0  0  0  0  0  0  0  0  0  0  0
   -3.8968   -3.8297    3.0314 H   0  0  0  0  0  0  0  0  0  0  0  0
    1.3008   -2.6481    1.4991 H   0  0  0  0  0  0  0  0  0  0  0  0
    0.2581   -1.6950    2.6192 H   0  0  0  0  0  0  0  0  0  0  0  0
    0.4019   -3.4603    2.7422 H   0  0  0  0  0  0  0  0  0  0  0  0
   -0.2019   -2.7107   -1.2499 H   0  0  0  0  0  0  0  0  0  0  0  0
  1  2  2  0  0  0  0
  1  8  1  0  0  0  0
  1 12  1  0  0  0  0
  2  3  1  0  0  0  0
  2  9  1  0  0  0  0
  3  4  2  0  0  0  0
  3 16  1  0  0  0  0
  4  5  1  0  0  0  0
  4 13  1  0  0  0  0
  5  6  1  0  0  0  0
  5 30  1  0  0  0  0
  5 31  1  0  0  0  0
  6  7  1  0  0  0  0
  6 17  1  0  0  0  0
  6 32  1  0  0  0  0
  7  8  1  0  0  0  0
  7 18  1  0  0  0  0
  7 33  1  0  0  0  0
  8 34  1  0  0  0  0
  8 35  1  0  0  0  0
  9 10  2  0  0  0  0
  9 27  1  0  0  0  0
 10 11  1  0  0  0  0
 10 25  1  0  0  0  0
 11 12  2  0  0  0  0
 11 23  1  0  0  0  0
 12 36  1  0  0  0  0
 13 14  2  0  0  0  0
 13 37  1  0  0  0  0
 14 15  1  0  0  0  0
 14 21  1  0  0  0  0
 15 16  2  0  0  0  0
 15 19  1  0  0  0  0
 16 29  1  0  0  0  0
 17 38  1  0  0  0  0
 17 39  1  0  0  0  0
 17 40  1  0  0  0  0
 18 41  1  0  0  0  0
 18 42  1  0  0  0  0
 18 43  1  0  0  0  0
 19 20  1  0  0  0  0
 20 44  1  0  0  0  0
 20 45  1  0  0  0  0
 20 46  1  0  0  0  0
 21 22  1  0  0  0  0
 22 47  1  0  0  0  0
 22 48  1  0  0  0  0
 22 49  1  0  0  0  0
 23 24  1  0  0  0  0
 24 50  1  0  0  0  0
 24 51  1  0  0  0  0
 24 52  1  0  0  0  0
 25 26  1  0  0  0  0
 26 53  1  0  0  0  0
 26 54  1  0  0  0  0
 26 55  1  0  0  0  0
 27 28  1  0  0  0  0
 28 56  1  0  0  0  0
 28 57  1  0  0  0  0
 28 58  1  0  0  0  0
 29 59  1  0  0  0  0
M  END
>  <Mol_ID>
4481

>  <Formula>
C23H30O6

>  <MolWeight>
402.4807

>  <Cat>
S9231

>  <Name>
Schisanhenol

>  <Synonyms>
Gomisin K3

>  <Target>
Transferase

>  <Form>
free base

>  <CAS>
69363-14-0

>  <URL>
https://www.selleckchem.com/products/schisanhenol.html

$$$$
