S9236 ¦Á-Cyperone.cdx
 OpenBabel08302521203D

 38 39  0  0  0  0  0  0  0  0999 V2000
    0.2043    0.8723    0.1338 C   0  0  0  0  0  0  0  0  0  0  0  0
   -0.8502    1.6907    0.3669 C   0  0  0  0  0  0  0  0  0  0  0  0
    0.0341   -0.5323   -0.4476 C   0  0  2  0  0  0  0  0  0  0  0  0
    1.6527    1.3472    0.2589 C   0  0  0  0  0  0  0  0  0  0  0  0
   -2.2581    1.1915    0.1920 C   0  0  0  0  0  0  0  0  0  0  0  0
    2.6747    0.2868    0.7475 C   0  0  2  0  0  0  0  0  0  0  0  0
    4.1277    0.7315    0.5509 C   0  0  0  0  0  0  0  0  0  0  0  0
   -1.3833   -1.0996   -0.2111 C   0  0  0  0  0  0  0  0  0  0  0  0
    1.0164   -1.5341    0.1994 C   0  0  0  0  0  0  0  0  0  0  0  0
   -2.4803   -0.1079   -0.5340 C   0  0  0  0  0  0  0  0  0  0  0  0
   -3.2191    1.8616    0.5745 O   0  0  0  0  0  0  0  0  0  0  0  0
    2.4694   -1.0948    0.1197 C   0  0  0  0  0  0  0  0  0  0  0  0
    4.9743    0.8263    1.5893 C   0  0  0  0  0  0  0  0  0  0  0  0
   -0.7309    3.1591    0.6753 C   0  0  0  0  0  0  0  0  0  0  0  0
    0.2933   -0.4130   -1.9691 C   0  0  0  0  0  0  0  0  0  0  0  0
    4.6102    1.0202   -0.8499 C   0  0  0  0  0  0  0  0  0  0  0  0
    1.9446    1.7350   -0.7219 H   0  0  0  0  0  0  0  0  0  0  0  0
    1.7207    2.1938    0.9527 H   0  0  0  0  0  0  0  0  0  0  0  0
    2.4943    0.1663    1.8275 H   0  0  0  0  0  0  0  0  0  0  0  0
   -1.4929   -1.4012    0.8395 H   0  0  0  0  0  0  0  0  0  0  0  0
   -1.5320   -2.0079   -0.8083 H   0  0  0  0  0  0  0  0  0  0  0  0
    0.9192   -2.5160   -0.2821 H   0  0  0  0  0  0  0  0  0  0  0  0
    0.7584   -1.6830    1.2572 H   0  0  0  0  0  0  0  0  0  0  0  0
   -3.4423   -0.5270   -0.2165 H   0  0  0  0  0  0  0  0  0  0  0  0
   -2.5440    0.0990   -1.6066 H   0  0  0  0  0  0  0  0  0  0  0  0
    2.7937   -1.1179   -0.9252 H   0  0  0  0  0  0  0  0  0  0  0  0
    3.0916   -1.8337    0.6430 H   0  0  0  0  0  0  0  0  0  0  0  0
    6.0137    1.1147    1.4501 H   0  0  0  0  0  0  0  0  0  0  0  0
    4.6673    0.6014    2.6062 H   0  0  0  0  0  0  0  0  0  0  0  0
   -0.0686    3.3505    1.5220 H   0  0  0  0  0  0  0  0  0  0  0  0
   -0.3405    3.6772   -0.2095 H   0  0  0  0  0  0  0  0  0  0  0  0
   -1.6908    3.6284    0.9099 H   0  0  0  0  0  0  0  0  0  0  0  0
    0.1545   -1.3728   -2.4732 H   0  0  0  0  0  0  0  0  0  0  0  0
   -0.3830    0.3137   -2.4358 H   0  0  0  0  0  0  0  0  0  0  0  0
    1.3091   -0.0671   -2.1931 H   0  0  0  0  0  0  0  0  0  0  0  0
    4.4786    0.1497   -1.5010 H   0  0  0  0  0  0  0  0  0  0  0  0
    4.0708    1.8643   -1.2840 H   0  0  0  0  0  0  0  0  0  0  0  0
    5.6755    1.2704   -0.8719 H   0  0  0  0  0  0  0  0  0  0  0  0
  2  1  2  0  0  0  0
  3  1  1  0  0  0  0
  3 15  1  6  0  0  0
  4  1  1  0  0  0  0
  4 17  1  0  0  0  0
  4 18  1  0  0  0  0
  5  2  1  0  0  0  0
  6  4  1  0  0  0  0
  6  7  1  0  0  0  0
  6 19  1  1  0  0  0
  8  3  1  0  0  0  0
  8 20  1  0  0  0  0
  8 21  1  0  0  0  0
  9  3  1  0  0  0  0
  9 22  1  0  0  0  0
  9 23  1  0  0  0  0
 10  5  1  0  0  0  0
 10  8  1  0  0  0  0
 10 24  1  0  0  0  0
 10 25  1  0  0  0  0
 11  5  2  0  0  0  0
 12  6  1  0  0  0  0
 12  9  1  0  0  0  0
 12 26  1  0  0  0  0
 12 27  1  0  0  0  0
 13  7  2  0  0  0  0
 13 28  1  0  0  0  0
 13 29  1  0  0  0  0
 14  2  1  0  0  0  0
 14 30  1  0  0  0  0
 14 31  1  0  0  0  0
 14 32  1  0  0  0  0
 15 33  1  0  0  0  0
 15 34  1  0  0  0  0
 15 35  1  0  0  0  0
 16  7  1  0  0  0  0
 16 36  1  0  0  0  0
 16 37  1  0  0  0  0
 16 38  1  0  0  0  0
M  END
>  <Mol_ID>
4484

>  <Formula>
C15H22O

>  <MolWeight>
218.33458

>  <Cat>
S9236

>  <Name>
¦Á-Cyperone

>  <Target>
COX,Interleukins

>  <Form>
free base

>  <CAS>
473-08-5

>  <URL>
https://www.selleckchem.com/products/alpha-cyperone.html

$$$$
