S9249 Securinine.cdx
 OpenBabel08302521203D

 31 34  0  0  0  0  0  0  0  0999 V2000
   -1.0288   -1.4981   -1.6395 C   0  0  2  0  0  0  0  0  0  0  0  0
   -0.0276   -2.2803   -0.8627 C   0  0  0  0  0  0  0  0  0  0  0  0
   -3.0592   -0.8770   -0.5368 N   0  0  3  0  0  0  0  0  0  0  0  0
   -1.6668   -0.3870   -0.7232 C   0  0  2  0  0  0  0  0  0  0  0  0
   -2.1226   -2.5443   -1.8991 C   0  0  0  0  0  0  0  0  0  0  0  0
   -0.3692   -1.0688   -2.8028 O   0  0  0  0  0  0  0  0  0  0  0  0
   -2.8667   -2.3645   -0.5790 C   0  0  1  0  0  0  0  0  0  0  0  0
    0.9069   -1.5410   -2.7518 C   0  0  0  0  0  0  0  0  0  0  0  0
    1.1388   -2.2859   -1.5001 C   0  0  0  0  0  0  0  0  0  0  0  0
   -0.5415   -2.9181    0.3366 C   0  0  0  0  0  0  0  0  0  0  0  0
   -1.8982   -2.8922    0.5248 C   0  0  0  0  0  0  0  0  0  0  0  0
    1.7383   -1.3963   -3.6297 O   0  0  0  0  0  0  0  0  0  0  0  0
   -3.9551   -0.3904   -1.6320 C   0  0  0  0  0  0  0  0  0  0  0  0
   -1.4728    1.1057   -1.0010 C   0  0  0  0  0  0  0  0  0  0  0  0
   -3.5171    0.9081   -2.3394 C   0  0  0  0  0  0  0  0  0  0  0  0
   -2.7634    1.8087   -1.3896 C   0  0  0  0  0  0  0  0  0  0  0  0
   -1.2150   -0.4627    0.2778 H   0  0  0  0  0  0  0  0  0  0  0  0
   -1.7496   -3.5742   -2.0168 H   0  0  0  0  0  0  0  0  0  0  0  0
   -2.6914   -2.3587   -2.8104 H   0  0  0  0  0  0  0  0  0  0  0  0
   -3.8134   -2.9113   -0.5274 H   0  0  0  0  0  0  0  0  0  0  0  0
    2.0597   -2.7791   -1.2729 H   0  0  0  0  0  0  0  0  0  0  0  0
    0.1431   -3.3356    1.0604 H   0  0  0  0  0  0  0  0  0  0  0  0
   -2.3255   -3.2824    1.4374 H   0  0  0  0  0  0  0  0  0  0  0  0
   -4.1159   -1.1224   -2.4313 H   0  0  0  0  0  0  0  0  0  0  0  0
   -4.9504   -0.2450   -1.2044 H   0  0  0  0  0  0  0  0  0  0  0  0
   -1.1107    1.5971   -0.0842 H   0  0  0  0  0  0  0  0  0  0  0  0
   -0.6983    1.2683   -1.7545 H   0  0  0  0  0  0  0  0  0  0  0  0
   -4.3911    1.4279   -2.7445 H   0  0  0  0  0  0  0  0  0  0  0  0
   -2.8649    0.6743   -3.1928 H   0  0  0  0  0  0  0  0  0  0  0  0
   -3.3762    2.0069   -0.5005 H   0  0  0  0  0  0  0  0  0  0  0  0
   -2.5389    2.7803   -1.8436 H   0  0  0  0  0  0  0  0  0  0  0  0
  1  5  1  0  0  0  0
  1  6  1  6  0  0  0
  2  1  1  0  0  0  0
  3  4  1  0  0  0  0
  4 14  1  0  0  0  0
  4  1  1  0  0  0  0
  4 17  1  1  0  0  0
  5 18  1  0  0  0  0
  5 19  1  0  0  0  0
  7 11  1  0  0  0  0
  7  3  1  0  0  0  0
  7  5  1  0  0  0  0
  7 20  1  1  0  0  0
  8  6  1  0  0  0  0
  9  2  2  0  0  0  0
  9  8  1  0  0  0  0
  9 21  1  0  0  0  0
 10  2  1  0  0  0  0
 10 22  1  0  0  0  0
 11 10  2  0  0  0  0
 11 23  1  0  0  0  0
 12  8  2  0  0  0  0
 13  3  1  0  0  0  0
 13 24  1  0  0  0  0
 13 25  1  0  0  0  0
 14 26  1  0  0  0  0
 14 27  1  0  0  0  0
 15 13  1  0  0  0  0
 15 28  1  0  0  0  0
 15 29  1  0  0  0  0
 16 14  1  0  0  0  0
 16 15  1  0  0  0  0
 16 30  1  0  0  0  0
 16 31  1  0  0  0  0
M  END
>  <Mol_ID>
4493

>  <Formula>
C13H15NO2

>  <MolWeight>
217.2637

>  <Cat>
S9249

>  <Name>
Securinine

>  <Target>
GABA Receptor

>  <Form>
free base

>  <CAS>
5610-40-2

>  <URL>
https://www.selleckchem.com/products/securinine.html

$$$$
