S9245 Phellodendrine chloride.cdx
 OpenBabel08302521203D

 49 52  0  0  0  0  0  0  0  0999 V2000
    0.3785   -0.1366    0.6212 C   0  0  1  0  0  0  0  0  0  0  0  0
    1.8817   -0.4299    0.5310 C   0  0  0  0  0  0  0  0  0  0  0  0
    0.0295    1.1669   -0.1669 N   0  3  3  0  0  0  0  0  0  0  0  0
   -0.5585   -1.2811    0.1280 C   0  0  0  0  0  0  0  0  0  0  0  0
    2.8017    0.6103    0.2433 C   0  0  0  0  0  0  0  0  0  0  0  0
    2.3895   -1.7290    0.6737 C   0  0  0  0  0  0  0  0  0  0  0  0
   -1.4351    1.5625    0.0717 C   0  0  0  0  0  0  0  0  0  0  0  0
    0.9101    2.2889    0.3998 C   0  0  0  0  0  0  0  0  0  0  0  0
    0.2724    0.9771   -1.6755 C   0  0  0  0  0  0  0  0  0  0  0  0
   -2.0165   -0.8990    0.0528 C   0  0  0  0  0  0  0  0  0  0  0  0
    2.3784    2.0512    0.0865 C   0  0  0  0  0  0  0  0  0  0  0  0
    4.1488    0.3207   -0.0447 C   0  0  0  0  0  0  0  0  0  0  0  0
    3.7329   -1.9897    0.3913 C   0  0  0  0  0  0  0  0  0  0  0  0
   -2.4307    0.4387    0.0693 C   0  0  0  0  0  0  0  0  0  0  0  0
   -3.0006   -1.8869   -0.0980 C   0  0  0  0  0  0  0  0  0  0  0  0
    4.6172   -0.9844   -0.0005 C   0  0  0  0  0  0  0  0  0  0  0  0
    4.1560   -3.2875    0.4738 O   0  0  0  0  0  0  0  0  0  0  0  0
   -3.8145    0.7339    0.0970 C   0  0  0  0  0  0  0  0  0  0  0  0
   -4.3664   -1.5846   -0.1311 C   0  0  0  0  0  0  0  0  0  0  0  0
    5.8860   -1.3861   -0.3228 O   0  0  0  0  0  0  0  0  0  0  0  0
   -4.8017   -0.2613    0.0001 C   0  0  0  0  0  0  0  0  0  0  0  0
   -5.1454   -2.6846   -0.3340 O   0  0  0  0  0  0  0  0  0  0  0  0
    6.7902   -0.3671   -0.7486 C   0  0  0  0  0  0  0  0  0  0  0  0
   -6.0589    0.2625    0.0342 O   0  0  0  0  0  0  0  0  0  0  0  0
   -7.2029   -0.5673   -0.0358 C   0  0  0  0  0  0  0  0  0  0  0  0
    0.1420    0.0797    1.6739 H   0  0  0  0  0  0  0  0  0  0  0  0
   -0.2404   -1.6382   -0.8606 H   0  0  0  0  0  0  0  0  0  0  0  0
   -0.4695   -2.1369    0.8094 H   0  0  0  0  0  0  0  0  0  0  0  0
    1.7627   -2.5700    0.9588 H   0  0  0  0  0  0  0  0  0  0  0  0
   -1.6873    2.2759   -0.7238 H   0  0  0  0  0  0  0  0  0  0  0  0
   -1.4858    2.0839    1.0350 H   0  0  0  0  0  0  0  0  0  0  0  0
    0.5667    3.2381   -0.0250 H   0  0  0  0  0  0  0  0  0  0  0  0
    0.7478    2.3138    1.4865 H   0  0  0  0  0  0  0  0  0  0  0  0
    1.3135    0.7016   -1.8609 H   0  0  0  0  0  0  0  0  0  0  0  0
   -0.3679    0.1807   -2.0558 H   0  0  0  0  0  0  0  0  0  0  0  0
    0.0509    1.9198   -2.1780 H   0  0  0  0  0  0  0  0  0  0  0  0
    2.5725    2.3554   -0.9500 H   0  0  0  0  0  0  0  0  0  0  0  0
    2.9968    2.6954    0.7233 H   0  0  0  0  0  0  0  0  0  0  0  0
    4.7983    1.1382   -0.3443 H   0  0  0  0  0  0  0  0  0  0  0  0
   -2.7015   -2.9349   -0.1871 H   0  0  0  0  0  0  0  0  0  0  0  0
    5.1014   -3.2750    0.2206 H   0  0  0  0  0  0  0  0  0  0  0  0
   -4.1397    1.7714    0.1650 H   0  0  0  0  0  0  0  0  0  0  0  0
   -6.0664   -2.5317   -0.0699 H   0  0  0  0  0  0  0  0  0  0  0  0
    6.4733    0.0647   -1.7051 H   0  0  0  0  0  0  0  0  0  0  0  0
    6.9001    0.4111    0.0144 H   0  0  0  0  0  0  0  0  0  0  0  0
    7.7728   -0.8241   -0.8946 H   0  0  0  0  0  0  0  0  0  0  0  0
   -7.2729   -1.0491   -1.0155 H   0  0  0  0  0  0  0  0  0  0  0  0
   -7.2229   -1.2893    0.7850 H   0  0  0  0  0  0  0  0  0  0  0  0
   -8.0875    0.0655    0.0845 H   0  0  0  0  0  0  0  0  0  0  0  0
  1  2  1  0  0  0  0
  1  3  1  0  0  0  0
  1  4  1  0  0  0  0
  1 26  1  1  0  0  0
  2  5  2  0  0  0  0
  2  6  1  0  0  0  0
  3  7  1  0  0  0  0
  3  8  1  0  0  0  0
  3  9  1  0  0  0  0
  4 10  1  0  0  0  0
  4 27  1  0  0  0  0
  4 28  1  0  0  0  0
  5 11  1  0  0  0  0
  5 12  1  0  0  0  0
  6 13  2  0  0  0  0
  6 29  1  0  0  0  0
  7 14  1  0  0  0  0
  7 30  1  0  0  0  0
  7 31  1  0  0  0  0
  8 11  1  0  0  0  0
  8 32  1  0  0  0  0
  8 33  1  0  0  0  0
  9 34  1  0  0  0  0
  9 35  1  0  0  0  0
  9 36  1  0  0  0  0
 10 15  2  0  0  0  0
 10 14  1  0  0  0  0
 11 37  1  0  0  0  0
 11 38  1  0  0  0  0
 12 16  2  0  0  0  0
 12 39  1  0  0  0  0
 13 17  1  0  0  0  0
 13 16  1  0  0  0  0
 14 18  2  0  0  0  0
 15 19  1  0  0  0  0
 15 40  1  0  0  0  0
 16 20  1  0  0  0  0
 17 41  1  0  0  0  0
 18 21  1  0  0  0  0
 18 42  1  0  0  0  0
 19 22  1  0  0  0  0
 19 21  2  0  0  0  0
 20 23  1  0  0  0  0
 21 24  1  0  0  0  0
 22 43  1  0  0  0  0
 23 44  1  0  0  0  0
 23 45  1  0  0  0  0
 23 46  1  0  0  0  0
 24 25  1  0  0  0  0
 25 47  1  0  0  0  0
 25 48  1  0  0  0  0
 25 49  1  0  0  0  0
M  CHG  1   3   1
M  END
>  <Mol_ID>
4491

>  <Formula>
C20H24ClNO4

>  <MolWeight>
377.86186

>  <Cat>
S9245

>  <Name>
Phellodendrine chloride

>  <Target>
Immunology & Inflammation related

>  <Form>
free base

>  <CAS>
104112-82-5

>  <URL>
https://www.selleckchem.com/products/phellodendrine-chloride.html

$$$$
