S9240 Isofraxidin.cdx
 OpenBabel08302521203D

 26 27  0  0  0  0  0  0  0  0999 V2000
   -0.0811    0.3933    0.0799 C   0  0  0  0  0  0  0  0  0  0  0  0
   -0.1001   -1.0009    0.0163 C   0  0  0  0  0  0  0  0  0  0  0  0
   -1.2546    1.1644    0.1130 C   0  0  0  0  0  0  0  0  0  0  0  0
    1.1608    1.0805    0.0750 O   0  0  0  0  0  0  0  0  0  0  0  0
   -1.3317   -1.6542   -0.0242 C   0  0  0  0  0  0  0  0  0  0  0  0
    1.1587   -1.7284   -0.0249 C   0  0  0  0  0  0  0  0  0  0  0  0
   -2.4834    0.4852    0.0799 C   0  0  0  0  0  0  0  0  0  0  0  0
   -1.0396    2.5151    0.1261 O   0  0  0  0  0  0  0  0  0  0  0  0
    2.3753    0.4155    0.0153 C   0  0  0  0  0  0  0  0  0  0  0  0
   -2.5252   -0.9223    0.0128 C   0  0  0  0  0  0  0  0  0  0  0  0
    2.3138   -1.0558   -0.0242 C   0  0  0  0  0  0  0  0  0  0  0  0
   -3.6563    1.1882    0.0377 O   0  0  0  0  0  0  0  0  0  0  0  0
   -2.1483    3.3977    0.1004 C   0  0  0  0  0  0  0  0  0  0  0  0
    3.4516    0.9986   -0.0063 O   0  0  0  0  0  0  0  0  0  0  0  0
   -3.6607   -1.6762   -0.1491 O   0  0  0  0  0  0  0  0  0  0  0  0
   -4.7515   -1.3925    0.7243 C   0  0  0  0  0  0  0  0  0  0  0  0
   -1.3788   -2.7387   -0.0987 H   0  0  0  0  0  0  0  0  0  0  0  0
    1.1455   -2.8116   -0.0551 H   0  0  0  0  0  0  0  0  0  0  0  0
    3.2707   -1.5609   -0.0542 H   0  0  0  0  0  0  0  0  0  0  0  0
   -4.2069    0.7460   -0.6291 H   0  0  0  0  0  0  0  0  0  0  0  0
   -2.7636    3.2509   -0.7929 H   0  0  0  0  0  0  0  0  0  0  0  0
   -2.7322    3.3206    1.0224 H   0  0  0  0  0  0  0  0  0  0  0  0
   -1.7537    4.4171    0.0461 H   0  0  0  0  0  0  0  0  0  0  0  0
   -4.4279   -1.1171    1.7325 H   0  0  0  0  0  0  0  0  0  0  0  0
   -5.3981   -0.6236    0.2929 H   0  0  0  0  0  0  0  0  0  0  0  0
   -5.3589   -2.3011    0.7964 H   0  0  0  0  0  0  0  0  0  0  0  0
  1  2  1  0  0  0  0
  1  3  2  0  0  0  0
  1  4  1  0  0  0  0
  2  5  2  0  0  0  0
  2  6  1  0  0  0  0
  3  7  1  0  0  0  0
  3  8  1  0  0  0  0
  4  9  1  0  0  0  0
  5 10  1  0  0  0  0
  5 17  1  0  0  0  0
  6 11  2  0  0  0  0
  6 18  1  0  0  0  0
  7 12  1  0  0  0  0
  7 10  2  0  0  0  0
  8 13  1  0  0  0  0
  9 14  2  0  0  0  0
  9 11  1  0  0  0  0
 10 15  1  0  0  0  0
 11 19  1  0  0  0  0
 12 20  1  0  0  0  0
 13 21  1  0  0  0  0
 13 22  1  0  0  0  0
 13 23  1  0  0  0  0
 15 16  1  0  0  0  0
 16 24  1  0  0  0  0
 16 25  1  0  0  0  0
 16 26  1  0  0  0  0
M  END
>  <Mol_ID>
4487

>  <Formula>
C11H10O5

>  <MolWeight>
222.1941

>  <Cat>
S9240

>  <Name>
Isofraxidin

>  <Synonyms>
6,8-Dimethoxyumbelliferone

>  <Target>
Immunology & Inflammation related

>  <Form>
free base

>  <CAS>
486-21-5

>  <URL>
https://www.selleckchem.com/products/isofraxidin.html

$$$$
