S9254 Skimmin.cdx
 OpenBabel08302521203D

 39 41  0  0  0  0  0  0  0  0999 V2000
    8.0974    4.4638   -1.8280 C   0  0  0  0  0  0  0  0  0  0  0  0
    7.4190    3.2488   -1.7692 C   0  0  0  0  0  0  0  0  0  0  0  0
    7.3940    5.6370   -1.5668 C   0  0  0  0  0  0  0  0  0  0  0  0
    9.5148    4.4603   -2.1585 C   0  0  0  0  0  0  0  0  0  0  0  0
    6.0650    3.1765   -1.4472 C   0  0  0  0  0  0  0  0  0  0  0  0
    8.0829    2.0307   -2.0204 O   0  0  0  0  0  0  0  0  0  0  0  0
    6.0339    5.5806   -1.2251 C   0  0  0  0  0  0  0  0  0  0  0  0
   10.1353    3.2981   -2.3836 C   0  0  0  0  0  0  0  0  0  0  0  0
    5.3770    4.3502   -1.1405 C   0  0  0  0  0  0  0  0  0  0  0  0
    9.4387    2.0012   -2.3122 C   0  0  0  0  0  0  0  0  0  0  0  0
    4.0589    4.3971   -0.7644 O   0  0  0  0  0  0  0  0  0  0  0  0
   10.0462    0.9529   -2.5016 O   0  0  0  0  0  0  0  0  0  0  0  0
    3.6444    3.3092    0.0714 C   0  0  2  0  0  0  0  0  0  0  0  0
    3.0012    2.2944   -0.7088 O   0  0  0  0  0  0  0  0  0  0  0  0
    2.6620    3.8238    1.1483 C   0  0  1  0  0  0  0  0  0  0  0  0
    2.7097    1.1232    0.0714 C   0  0  1  0  0  0  0  0  0  0  0  0
    2.3120    2.6329    2.0606 C   0  0  2  0  0  0  0  0  0  0  0  0
    3.2094    4.8987    1.9239 O   0  0  0  0  0  0  0  0  0  0  0  0
    1.7685    1.4479    1.2407 C   0  0  2  0  0  0  0  0  0  0  0  0
    2.0883    0.0736   -0.8579 C   0  0  0  0  0  0  0  0  0  0  0  0
    1.3797    2.9941    3.0845 O   0  0  0  0  0  0  0  0  0  0  0  0
    1.5955    0.2863    2.0563 O   0  0  0  0  0  0  0  0  0  0  0  0
    2.9869   -0.2050   -1.9324 O   0  0  0  0  0  0  0  0  0  0  0  0
    7.8892    6.6062   -1.6098 H   0  0  0  0  0  0  0  0  0  0  0  0
   10.0487    5.4014   -2.2160 H   0  0  0  0  0  0  0  0  0  0  0  0
    5.5741    2.2091   -1.4414 H   0  0  0  0  0  0  0  0  0  0  0  0
    5.4944    6.4993   -1.0105 H   0  0  0  0  0  0  0  0  0  0  0  0
   11.1903    3.2498   -2.6289 H   0  0  0  0  0  0  0  0  0  0  0  0
    4.5153    2.8876    0.5945 H   0  0  0  0  0  0  0  0  0  0  0  0
    1.7513    4.2169    0.6808 H   0  0  0  0  0  0  0  0  0  0  0  0
    3.6613    0.7191    0.4411 H   0  0  0  0  0  0  0  0  0  0  0  0
    3.2115    2.3207    2.6056 H   0  0  0  0  0  0  0  0  0  0  0  0
    4.0746    4.6299    2.2758 H   0  0  0  0  0  0  0  0  0  0  0  0
    0.7752    1.7159    0.8615 H   0  0  0  0  0  0  0  0  0  0  0  0
    1.8921   -0.8633   -0.3286 H   0  0  0  0  0  0  0  0  0  0  0  0
    1.1519    0.4334   -1.2973 H   0  0  0  0  0  0  0  0  0  0  0  0
    0.6164    3.4341    2.6704 H   0  0  0  0  0  0  0  0  0  0  0  0
    2.2450    0.3061    2.7817 H   0  0  0  0  0  0  0  0  0  0  0  0
    3.1624    0.6541   -2.3611 H   0  0  0  0  0  0  0  0  0  0  0  0
  1  2  1  0  0  0  0
  1  3  2  0  0  0  0
  1  4  1  0  0  0  0
  2  5  2  0  0  0  0
  2  6  1  0  0  0  0
  3  7  1  0  0  0  0
  3 24  1  0  0  0  0
  4  8  2  0  0  0  0
  4 25  1  0  0  0  0
  5  9  1  0  0  0  0
  5 26  1  0  0  0  0
  6 10  1  0  0  0  0
  7  9  2  0  0  0  0
  7 27  1  0  0  0  0
  8 10  1  0  0  0  0
  8 28  1  0  0  0  0
  9 11  1  0  0  0  0
 10 12  2  0  0  0  0
 13 14  1  0  0  0  0
 13 15  1  0  0  0  0
 13 29  1  1  0  0  0
 13 11  1  0  0  0  0
 14 16  1  0  0  0  0
 15 17  1  0  0  0  0
 15 18  1  0  0  0  0
 15 30  1  6  0  0  0
 16 19  1  0  0  0  0
 16 20  1  0  0  0  0
 16 31  1  1  0  0  0
 17 21  1  0  0  0  0
 17 19  1  0  0  0  0
 17 32  1  1  0  0  0
 18 33  1  0  0  0  0
 19 22  1  0  0  0  0
 19 34  1  6  0  0  0
 20 23  1  0  0  0  0
 20 35  1  0  0  0  0
 20 36  1  0  0  0  0
 21 37  1  0  0  0  0
 22 38  1  0  0  0  0
 23 39  1  0  0  0  0
M  END
>  <Mol_ID>
4498

>  <Formula>
C15H16O8

>  <MolWeight>
324.28274

>  <Cat>
S9254

>  <Name>
Skimmin

>  <Target>
Immunology & Inflammation related

>  <Form>
free base

>  <CAS>
93-39-0

>  <URL>
https://www.selleckchem.com/products/skimmin.html

$$$$
