S9256 Isobavachin.cdx
 OpenBabel08302521203D

 44 46  0  0  0  0  0  0  0  0999 V2000
   -2.3214    0.6534   -0.3136 C   0  0  2  0  0  0  0  0  0  0  0  0
   -2.4711   -0.6940    0.3775 C   0  0  0  0  0  0  0  0  0  0  0  0
   -1.2499   -1.4997    0.0441 C   0  0  0  0  0  0  0  0  0  0  0  0
    0.0244   -0.7537   -0.0176 C   0  0  0  0  0  0  0  0  0  0  0  0
    0.0010    0.6435    0.0700 C   0  0  0  0  0  0  0  0  0  0  0  0
   -1.1707    1.3510    0.1862 O   0  0  0  0  0  0  0  0  0  0  0  0
    1.2055    1.3697    0.0869 C   0  0  0  0  0  0  0  0  0  0  0  0
    2.4125    0.6558   -0.0068 C   0  0  0  0  0  0  0  0  0  0  0  0
    2.4333   -0.7366   -0.1087 C   0  0  0  0  0  0  0  0  0  0  0  0
    1.2345   -1.4447   -0.1172 C   0  0  0  0  0  0  0  0  0  0  0  0
   -1.2805   -2.7163   -0.1073 O   0  0  0  0  0  0  0  0  0  0  0  0
    1.2046    2.8826    0.1586 C   0  0  0  0  0  0  0  0  0  0  0  0
    1.1221    3.5213   -1.2056 C   0  0  0  0  0  0  0  0  0  0  0  0
    0.1748    4.3762   -1.6398 C   0  0  0  0  0  0  0  0  0  0  0  0
    0.2155    4.9442   -3.0315 C   0  0  0  0  0  0  0  0  0  0  0  0
   -0.9748    4.8314   -0.7857 C   0  0  0  0  0  0  0  0  0  0  0  0
   -3.5315    1.5427   -0.0917 C   0  0  0  0  0  0  0  0  0  0  0  0
   -3.9118    1.9496    1.1980 C   0  0  0  0  0  0  0  0  0  0  0  0
   -5.0221    2.7751    1.3858 C   0  0  0  0  0  0  0  0  0  0  0  0
   -5.7541    3.2057    0.2874 C   0  0  0  0  0  0  0  0  0  0  0  0
   -5.3957    2.8226   -0.9999 C   0  0  0  0  0  0  0  0  0  0  0  0
   -4.2868    1.9924   -1.1877 C   0  0  0  0  0  0  0  0  0  0  0  0
   -6.8264    4.0163    0.5157 O   0  0  0  0  0  0  0  0  0  0  0  0
    3.5931    1.3463    0.0021 O   0  0  0  0  0  0  0  0  0  0  0  0
   -2.1848    0.5095   -1.3956 H   0  0  0  0  0  0  0  0  0  0  0  0
   -2.5190   -0.6070    1.4691 H   0  0  0  0  0  0  0  0  0  0  0  0
   -3.3624   -1.2213    0.0214 H   0  0  0  0  0  0  0  0  0  0  0  0
    3.3691   -1.2836   -0.1770 H   0  0  0  0  0  0  0  0  0  0  0  0
    1.2442   -2.5313   -0.1807 H   0  0  0  0  0  0  0  0  0  0  0  0
    0.3965    3.2145    0.8199 H   0  0  0  0  0  0  0  0  0  0  0  0
    2.1203    3.2342    0.6503 H   0  0  0  0  0  0  0  0  0  0  0  0
    1.9362    3.2511   -1.8781 H   0  0  0  0  0  0  0  0  0  0  0  0
   -0.6860    4.6564   -3.5830 H   0  0  0  0  0  0  0  0  0  0  0  0
    0.2670    6.0371   -2.9939 H   0  0  0  0  0  0  0  0  0  0  0  0
    1.0809    4.5894   -3.6009 H   0  0  0  0  0  0  0  0  0  0  0  0
   -1.5812    3.9816   -0.4615 H   0  0  0  0  0  0  0  0  0  0  0  0
   -0.6116    5.3727    0.0936 H   0  0  0  0  0  0  0  0  0  0  0  0
   -1.6353    5.5083   -1.3367 H   0  0  0  0  0  0  0  0  0  0  0  0
   -3.3380    1.6360    2.0674 H   0  0  0  0  0  0  0  0  0  0  0  0
   -5.3100    3.0860    2.3861 H   0  0  0  0  0  0  0  0  0  0  0  0
   -5.9589    3.1597   -1.8645 H   0  0  0  0  0  0  0  0  0  0  0  0
   -4.0121    1.7056   -2.2009 H   0  0  0  0  0  0  0  0  0  0  0  0
   -7.2283    4.2464   -0.3377 H   0  0  0  0  0  0  0  0  0  0  0  0
    4.3332    0.7173   -0.0189 H   0  0  0  0  0  0  0  0  0  0  0  0
  1  2  1  0  0  0  0
  1  6  1  0  0  0  0
  1 25  1  6  0  0  0
  1 17  1  0  0  0  0
  2  3  1  0  0  0  0
  2 26  1  0  0  0  0
  2 27  1  0  0  0  0
  3  4  1  0  0  0  0
  3 11  2  0  0  0  0
  4  5  2  0  0  0  0
  4 10  1  0  0  0  0
  5  6  1  0  0  0  0
  5  7  1  0  0  0  0
  7  8  2  0  0  0  0
  7 12  1  0  0  0  0
  8  9  1  0  0  0  0
  8 24  1  0  0  0  0
  9 10  2  0  0  0  0
  9 28  1  0  0  0  0
 10 29  1  0  0  0  0
 12 13  1  0  0  0  0
 12 30  1  0  0  0  0
 12 31  1  0  0  0  0
 13 14  2  0  0  0  0
 13 32  1  0  0  0  0
 14 15  1  0  0  0  0
 14 16  1  0  0  0  0
 15 33  1  0  0  0  0
 15 34  1  0  0  0  0
 15 35  1  0  0  0  0
 16 36  1  0  0  0  0
 16 37  1  0  0  0  0
 16 38  1  0  0  0  0
 17 18  2  0  0  0  0
 17 22  1  0  0  0  0
 18 19  1  0  0  0  0
 18 39  1  0  0  0  0
 19 20  2  0  0  0  0
 19 40  1  0  0  0  0
 20 21  1  0  0  0  0
 20 23  1  0  0  0  0
 21 22  2  0  0  0  0
 21 41  1  0  0  0  0
 22 42  1  0  0  0  0
 23 43  1  0  0  0  0
 24 44  1  0  0  0  0
M  END
>  <Mol_ID>
4500

>  <Formula>
C20H20O4

>  <MolWeight>
324.3704

>  <Cat>
S9256

>  <Name>
Isobavachin

>  <Target>
Others

>  <Form>
free base

>  <CAS>
31524-62-6

>  <URL>
https://www.selleckchem.com/products/isobavachin.html

$$$$
