S9252 Corydaline.cdx
 OpenBabel08302521203D

 54 57  0  0  0  0  0  0  0  0999 V2000
   -0.3816    0.0198   -0.3168 C   0  0  2  0  0  0  0  0  0  0  0  0
   -1.8740    0.3302   -0.1909 C   0  0  0  0  0  0  0  0  0  0  0  0
   -0.0324   -1.3120    0.2182 N   0  0  3  0  0  0  0  0  0  0  0  0
    0.5213    1.0435    0.4340 C   0  0  2  0  0  0  0  0  0  0  0  0
   -2.7851   -0.6728    0.1828 C   0  0  0  0  0  0  0  0  0  0  0  0
   -2.3824    1.6037   -0.4808 C   0  0  0  0  0  0  0  0  0  0  0  0
    1.3347   -1.6963   -0.1295 C   0  0  0  0  0  0  0  0  0  0  0  0
   -0.9755   -2.3440   -0.2108 C   0  0  0  0  0  0  0  0  0  0  0  0
    1.9924    0.7126    0.1933 C   0  0  0  0  0  0  0  0  0  0  0  0
    0.2505    1.0693    1.9504 C   0  0  0  0  0  0  0  0  0  0  0  0
   -4.1386   -0.3649    0.3575 C   0  0  0  0  0  0  0  0  0  0  0  0
   -2.3159   -2.0745    0.4556 C   0  0  0  0  0  0  0  0  0  0  0  0
   -3.7430    1.9177   -0.3121 C   0  0  0  0  0  0  0  0  0  0  0  0
    2.3923   -0.6234   -0.0463 C   0  0  0  0  0  0  0  0  0  0  0  0
    2.9461    1.7327    0.2668 C   0  0  0  0  0  0  0  0  0  0  0  0
   -4.6324    0.9253    0.1317 C   0  0  0  0  0  0  0  0  0  0  0  0
   -4.0066    3.2291   -0.6182 O   0  0  0  0  0  0  0  0  0  0  0  0
    3.7666   -0.9163   -0.2001 C   0  0  0  0  0  0  0  0  0  0  0  0
    4.2986    1.4436    0.1123 C   0  0  0  0  0  0  0  0  0  0  0  0
   -5.9502    1.2453    0.3149 O   0  0  0  0  0  0  0  0  0  0  0  0
   -5.3172    3.7277   -0.4021 C   0  0  0  0  0  0  0  0  0  0  0  0
    4.7200    0.1282   -0.1053 C   0  0  0  0  0  0  0  0  0  0  0  0
    4.3133   -2.1745   -0.3259 O   0  0  0  0  0  0  0  0  0  0  0  0
   -6.8023    0.2528    0.8728 C   0  0  0  0  0  0  0  0  0  0  0  0
    6.0401   -0.2348   -0.2457 O   0  0  0  0  0  0  0  0  0  0  0  0
    3.6523   -3.1605   -1.1133 C   0  0  0  0  0  0  0  0  0  0  0  0
    7.0156    0.7927   -0.1289 C   0  0  0  0  0  0  0  0  0  0  0  0
   -0.1556    0.0520   -1.3951 H   0  0  0  0  0  0  0  0  0  0  0  0
    0.3386    2.0472    0.0328 H   0  0  0  0  0  0  0  0  0  0  0  0
   -1.7181    2.3899   -0.8344 H   0  0  0  0  0  0  0  0  0  0  0  0
    1.3327   -2.0752   -1.1567 H   0  0  0  0  0  0  0  0  0  0  0  0
    1.6081   -2.4867    0.5770 H   0  0  0  0  0  0  0  0  0  0  0  0
   -1.0732   -2.3592   -1.3063 H   0  0  0  0  0  0  0  0  0  0  0  0
   -0.6275   -3.3366    0.0978 H   0  0  0  0  0  0  0  0  0  0  0  0
    0.4269    0.0921    2.4141 H   0  0  0  0  0  0  0  0  0  0  0  0
    0.9034    1.7863    2.4584 H   0  0  0  0  0  0  0  0  0  0  0  0
   -0.7835    1.3575    2.1633 H   0  0  0  0  0  0  0  0  0  0  0  0
   -4.7880   -1.1717    0.6799 H   0  0  0  0  0  0  0  0  0  0  0  0
   -3.0484   -2.8031    0.0800 H   0  0  0  0  0  0  0  0  0  0  0  0
   -2.2276   -2.2092    1.5413 H   0  0  0  0  0  0  0  0  0  0  0  0
    2.6419    2.7591    0.4616 H   0  0  0  0  0  0  0  0  0  0  0  0
    4.9995    2.2676    0.1887 H   0  0  0  0  0  0  0  0  0  0  0  0
   -6.0386    3.2427   -1.0669 H   0  0  0  0  0  0  0  0  0  0  0  0
   -5.6057    3.6493    0.6511 H   0  0  0  0  0  0  0  0  0  0  0  0
   -5.3121    4.7925   -0.6553 H   0  0  0  0  0  0  0  0  0  0  0  0
   -6.9137   -0.5967    0.1901 H   0  0  0  0  0  0  0  0  0  0  0  0
   -6.4494   -0.0703    1.8587 H   0  0  0  0  0  0  0  0  0  0  0  0
   -7.7901    0.7004    1.0063 H   0  0  0  0  0  0  0  0  0  0  0  0
    2.8829   -3.6696   -0.5301 H   0  0  0  0  0  0  0  0  0  0  0  0
    3.2539   -2.7473   -2.0425 H   0  0  0  0  0  0  0  0  0  0  0  0
    4.3822   -3.9316   -1.3710 H   0  0  0  0  0  0  0  0  0  0  0  0
    6.9006    1.5373   -0.9250 H   0  0  0  0  0  0  0  0  0  0  0  0
    6.9823    1.2636    0.8596 H   0  0  0  0  0  0  0  0  0  0  0  0
    8.0031    0.3368   -0.2435 H   0  0  0  0  0  0  0  0  0  0  0  0
  1  2  1  0  0  0  0
  1  3  1  0  0  0  0
  1  4  1  0  0  0  0
  1 28  1  6  0  0  0
  2  5  2  0  0  0  0
  2  6  1  0  0  0  0
  3  7  1  0  0  0  0
  3  8  1  0  0  0  0
  4  9  1  0  0  0  0
  4 29  1  6  0  0  0
  4 10  1  0  0  0  0
  5 11  1  0  0  0  0
  5 12  1  0  0  0  0
  6 13  2  0  0  0  0
  6 30  1  0  0  0  0
  7 14  1  0  0  0  0
  7 31  1  0  0  0  0
  7 32  1  0  0  0  0
  8 12  1  0  0  0  0
  8 33  1  0  0  0  0
  8 34  1  0  0  0  0
  9 15  2  0  0  0  0
  9 14  1  0  0  0  0
 10 35  1  0  0  0  0
 10 36  1  0  0  0  0
 10 37  1  0  0  0  0
 11 16  2  0  0  0  0
 11 38  1  0  0  0  0
 12 39  1  0  0  0  0
 12 40  1  0  0  0  0
 13 17  1  0  0  0  0
 13 16  1  0  0  0  0
 14 18  2  0  0  0  0
 15 19  1  0  0  0  0
 15 41  1  0  0  0  0
 16 20  1  0  0  0  0
 17 21  1  0  0  0  0
 18 22  1  0  0  0  0
 18 23  1  0  0  0  0
 19 22  2  0  0  0  0
 19 42  1  0  0  0  0
 20 24  1  0  0  0  0
 21 43  1  0  0  0  0
 21 44  1  0  0  0  0
 21 45  1  0  0  0  0
 22 25  1  0  0  0  0
 23 26  1  0  0  0  0
 24 46  1  0  0  0  0
 24 47  1  0  0  0  0
 24 48  1  0  0  0  0
 25 27  1  0  0  0  0
 26 49  1  0  0  0  0
 26 50  1  0  0  0  0
 26 51  1  0  0  0  0
 27 52  1  0  0  0  0
 27 53  1  0  0  0  0
 27 54  1  0  0  0  0
M  END
>  <Mol_ID>
4496

>  <Formula>
C22H27NO4

>  <MolWeight>
369.45408

>  <Cat>
S9252

>  <Name>
Corydaline

>  <Target>
AChR

>  <Form>
free base

>  <CAS>
518-69-4

>  <URL>
https://www.selleckchem.com/products/corydaline.html

$$$$
