S9250 Isosilybin.cdx
 OpenBabel08302521203D

 57 61  0  0  0  0  0  0  0  0999 V2000
   -8.2543    3.0722   -1.0956 C   0  0  3  0  0  0  0  0  0  0  0  0
   -9.2303    4.1599   -0.6754 C   0  0  0  0  0  0  0  0  0  0  0  0
   -6.8503    3.6366   -1.3891 C   0  0  3  0  0  0  0  0  0  0  0  0
   -8.2274    2.1052   -0.0308 O   0  0  0  0  0  0  0  0  0  0  0  0
  -10.3677    4.4351   -1.4627 C   0  0  0  0  0  0  0  0  0  0  0  0
   -8.9904    4.9410    0.4695 C   0  0  0  0  0  0  0  0  0  0  0  0
   -5.9370    2.5764   -1.7453 O   0  0  0  0  0  0  0  0  0  0  0  0
   -6.8409    4.6077   -2.5763 C   0  0  0  0  0  0  0  0  0  0  0  0
   -7.1144    1.3116   -0.0421 C   0  0  0  0  0  0  0  0  0  0  0  0
  -11.2075    5.5005   -1.1457 C   0  0  0  0  0  0  0  0  0  0  0  0
   -9.8365    5.9992    0.8009 C   0  0  0  0  0  0  0  0  0  0  0  0
   -6.0078    1.5419   -0.8546 C   0  0  0  0  0  0  0  0  0  0  0  0
   -5.5381    5.1796   -2.7290 O   0  0  0  0  0  0  0  0  0  0  0  0
   -7.0998    0.2421    0.8485 C   0  0  0  0  0  0  0  0  0  0  0  0
  -10.9249    6.2754   -0.0144 C   0  0  0  0  0  0  0  0  0  0  0  0
  -12.3104    5.9029   -1.8564 O   0  0  0  0  0  0  0  0  0  0  0  0
   -4.8884    0.7119   -0.7756 C   0  0  0  0  0  0  0  0  0  0  0  0
   -5.9700   -0.5782    0.9496 C   0  0  0  0  0  0  0  0  0  0  0  0
  -11.7196    7.3409    0.3134 O   0  0  0  0  0  0  0  0  0  0  0  0
  -12.6136    5.1601   -3.0322 C   0  0  0  0  0  0  0  0  0  0  0  0
   -4.8376   -0.3406    0.1558 C   0  0  0  0  0  0  0  0  0  0  0  0
   -3.5479   -1.1434    0.2931 C   0  0  1  0  0  0  0  0  0  0  0  0
   -3.3661   -1.6401    1.6332 O   0  0  0  0  0  0  0  0  0  0  0  0
   -3.3459   -2.1835   -0.8179 C   0  0  2  0  0  0  0  0  0  0  0  0
   -3.6373   -2.9569    1.8697 C   0  0  0  0  0  0  0  0  0  0  0  0
   -4.1397   -3.4195   -0.4872 C   0  0  0  0  0  0  0  0  0  0  0  0
   -1.9642   -2.5502   -0.9206 O   0  0  0  0  0  0  0  0  0  0  0  0
   -4.0650   -3.8664    0.9063 C   0  0  0  0  0  0  0  0  0  0  0  0
   -3.4649   -3.3866    3.1859 C   0  0  0  0  0  0  0  0  0  0  0  0
   -4.7012   -4.1127   -1.3331 O   0  0  0  0  0  0  0  0  0  0  0  0
   -4.3312   -5.1957    1.2541 C   0  0  0  0  0  0  0  0  0  0  0  0
   -3.7019   -4.7182    3.5181 C   0  0  0  0  0  0  0  0  0  0  0  0
   -4.1382   -5.6296    2.5618 C   0  0  0  0  0  0  0  0  0  0  0  0
   -4.7587   -6.1310    0.3505 O   0  0  0  0  0  0  0  0  0  0  0  0
   -3.4854   -5.0965    4.8099 O   0  0  0  0  0  0  0  0  0  0  0  0
   -8.6352    2.5480   -1.9824 H   0  0  0  0  0  0  0  0  0  0  0  0
   -6.4191    4.1376   -0.5109 H   0  0  0  0  0  0  0  0  0  0  0  0
  -10.5622    3.8079   -2.3264 H   0  0  0  0  0  0  0  0  0  0  0  0
   -8.1349    4.7372    1.1103 H   0  0  0  0  0  0  0  0  0  0  0  0
   -7.0787    4.0864   -3.5094 H   0  0  0  0  0  0  0  0  0  0  0  0
   -7.5424    5.4342   -2.4454 H   0  0  0  0  0  0  0  0  0  0  0  0
   -9.6419    6.6105    1.6769 H   0  0  0  0  0  0  0  0  0  0  0  0
   -4.8952    4.4680   -2.5490 H   0  0  0  0  0  0  0  0  0  0  0  0
   -7.9619    0.0564    1.4846 H   0  0  0  0  0  0  0  0  0  0  0  0
   -4.0327    0.9255   -1.4135 H   0  0  0  0  0  0  0  0  0  0  0  0
   -5.9846   -1.3812    1.6828 H   0  0  0  0  0  0  0  0  0  0  0  0
  -12.4006    7.3712   -0.3856 H   0  0  0  0  0  0  0  0  0  0  0  0
  -11.7631    5.1299   -3.7211 H   0  0  0  0  0  0  0  0  0  0  0  0
  -12.9539    4.1547   -2.7762 H   0  0  0  0  0  0  0  0  0  0  0  0
  -13.4323    5.6748   -3.5493 H   0  0  0  0  0  0  0  0  0  0  0  0
   -2.7319   -0.4137    0.1936 H   0  0  0  0  0  0  0  0  0  0  0  0
   -3.6588   -1.7927   -1.7917 H   0  0  0  0  0  0  0  0  0  0  0  0
   -1.9019   -3.2626   -1.5837 H   0  0  0  0  0  0  0  0  0  0  0  0
   -3.1310   -2.6892    3.9501 H   0  0  0  0  0  0  0  0  0  0  0  0
   -4.3219   -6.6700    2.8100 H   0  0  0  0  0  0  0  0  0  0  0  0
   -4.9228   -5.6789   -0.5078 H   0  0  0  0  0  0  0  0  0  0  0  0
   -3.6244   -6.0558    4.8838 H   0  0  0  0  0  0  0  0  0  0  0  0
  1  2  1  0  0  0  0
  1  3  1  0  0  0  0
  1  4  1  0  0  0  0
  1 36  1  0  0  0  0
  2  5  2  0  0  0  0
  2  6  1  0  0  0  0
  3  7  1  0  0  0  0
  3  8  1  0  0  0  0
  3 37  1  0  0  0  0
  4  9  1  0  0  0  0
  5 10  1  0  0  0  0
  5 38  1  0  0  0  0
  6 11  2  0  0  0  0
  6 39  1  0  0  0  0
  7 12  1  0  0  0  0
  8 13  1  0  0  0  0
  8 40  1  0  0  0  0
  8 41  1  0  0  0  0
  9 14  1  0  0  0  0
  9 12  2  0  0  0  0
 10 15  2  0  0  0  0
 10 16  1  0  0  0  0
 11 15  1  0  0  0  0
 11 42  1  0  0  0  0
 12 17  1  0  0  0  0
 13 43  1  0  0  0  0
 14 18  2  0  0  0  0
 14 44  1  0  0  0  0
 15 19  1  0  0  0  0
 16 20  1  0  0  0  0
 17 21  2  0  0  0  0
 17 45  1  0  0  0  0
 18 21  1  0  0  0  0
 18 46  1  0  0  0  0
 19 47  1  0  0  0  0
 20 48  1  0  0  0  0
 20 49  1  0  0  0  0
 20 50  1  0  0  0  0
 22 23  1  0  0  0  0
 22 24  1  0  0  0  0
 22 51  1  6  0  0  0
 22 21  1  0  0  0  0
 23 25  1  0  0  0  0
 24 26  1  0  0  0  0
 24 52  1  6  0  0  0
 24 27  1  0  0  0  0
 25 28  2  0  0  0  0
 25 29  1  0  0  0  0
 26 30  2  0  0  0  0
 26 28  1  0  0  0  0
 27 53  1  0  0  0  0
 28 31  1  0  0  0  0
 29 32  2  0  0  0  0
 29 54  1  0  0  0  0
 31 33  2  0  0  0  0
 31 34  1  0  0  0  0
 32 35  1  0  0  0  0
 32 33  1  0  0  0  0
 33 55  1  0  0  0  0
 34 56  1  0  0  0  0
 35 57  1  0  0  0  0
M  END
>  <Mol_ID>
4494

>  <Formula>
C25H22O10

>  <MolWeight>
482.43618

>  <Cat>
S9250

>  <Name>
Isosilybin

>  <Synonyms>
Silymarin, Isosilybinin, Q-100795

>  <Target>
P450 (e.g. CYP17)

>  <Form>
free base

>  <CAS>
72581-71-6

>  <URL>
https://www.selleckchem.com/products/isosilybin.html

$$$$
