S9255 Isoscopoletin.cdx
 OpenBabel08302521203D

 22 23  0  0  0  0  0  0  0  0999 V2000
    0.0791   -0.6161   -0.0116 C   0  0  0  0  0  0  0  0  0  0  0  0
   -0.0154    0.7666    0.0290 C   0  0  0  0  0  0  0  0  0  0  0  0
    1.3160   -1.2573   -0.0404 C   0  0  0  0  0  0  0  0  0  0  0  0
   -1.0763   -1.4198   -0.0519 O   0  0  0  0  0  0  0  0  0  0  0  0
    1.1594    1.5121    0.0518 C   0  0  0  0  0  0  0  0  0  0  0  0
   -1.3241    1.3923    0.0080 C   0  0  0  0  0  0  0  0  0  0  0  0
    2.5097   -0.5129   -0.0484 C   0  0  0  0  0  0  0  0  0  0  0  0
   -2.3395   -0.8482   -0.1242 C   0  0  0  0  0  0  0  0  0  0  0  0
    2.4136    0.8850    0.0045 C   0  0  0  0  0  0  0  0  0  0  0  0
   -2.4146    0.6244   -0.0826 C   0  0  0  0  0  0  0  0  0  0  0  0
    3.5993   -1.3308   -0.1187 O   0  0  0  0  0  0  0  0  0  0  0  0
   -3.3618   -1.5215   -0.2139 O   0  0  0  0  0  0  0  0  0  0  0  0
    3.4408    1.7825    0.0100 O   0  0  0  0  0  0  0  0  0  0  0  0
    4.9119   -0.8110   -0.1564 C   0  0  0  0  0  0  0  0  0  0  0  0
    1.3553   -2.3429   -0.0750 H   0  0  0  0  0  0  0  0  0  0  0  0
    1.1185    2.5990    0.0846 H   0  0  0  0  0  0  0  0  0  0  0  0
   -1.3969    2.4735    0.0392 H   0  0  0  0  0  0  0  0  0  0  0  0
   -3.4086    1.0480   -0.1324 H   0  0  0  0  0  0  0  0  0  0  0  0
    4.2853    1.3527   -0.1491 H   0  0  0  0  0  0  0  0  0  0  0  0
    5.0660   -0.1896   -1.0439 H   0  0  0  0  0  0  0  0  0  0  0  0
    5.1473   -0.2786    0.7700 H   0  0  0  0  0  0  0  0  0  0  0  0
    5.6059   -1.6533   -0.2365 H   0  0  0  0  0  0  0  0  0  0  0  0
  1  2  1  0  0  0  0
  1  3  2  0  0  0  0
  1  4  1  0  0  0  0
  2  5  2  0  0  0  0
  2  6  1  0  0  0  0
  3  7  1  0  0  0  0
  3 15  1  0  0  0  0
  4  8  1  0  0  0  0
  5  9  1  0  0  0  0
  5 16  1  0  0  0  0
  6 10  2  0  0  0  0
  6 17  1  0  0  0  0
  7 11  1  0  0  0  0
  7  9  2  0  0  0  0
  8 12  2  0  0  0  0
  8 10  1  0  0  0  0
  9 13  1  0  0  0  0
 10 18  1  0  0  0  0
 11 14  1  0  0  0  0
 13 19  1  0  0  0  0
 14 20  1  0  0  0  0
 14 21  1  0  0  0  0
 14 22  1  0  0  0  0
M  END
>  <Mol_ID>
4499

>  <Formula>
C10H8O4

>  <MolWeight>
192.16812

>  <Cat>
S9255

>  <Name>
Isoscopoletin

>  <Synonyms>
7-Methoxyesculetin

>  <Target>
Others

>  <Form>
free base

>  <CAS>
776-86-3

>  <URL>
https://www.selleckchem.com/products/isoscopoletin.html

$$$$
