S9258 (+)-Isocorynoline.cdx
 OpenBabel08302521203D

 48 51  0  0  0  0  0  0  0  0999 V2000
    0.0879   -0.9593   -0.0113 C   0  0  0  0  0  0  0  0  0  0  0  0
   -1.0140   -0.0561   -0.1069 C   0  0  0  0  0  0  0  0  0  0  0  0
    1.4636   -0.4034   -0.1837 C   0  0  0  0  0  0  0  0  0  0  0  0
   -0.2109   -2.3055    0.3326 C   0  0  0  0  0  0  0  0  0  0  0  0
   -0.7384    1.4465   -0.2750 C   0  0  2  0  0  0  0  0  0  0  0  0
   -2.3389   -0.5231   -0.0417 C   0  0  0  0  0  0  0  0  0  0  0  0
    1.6872    0.9349    0.2068 C   0  0  0  0  0  0  0  0  0  0  0  0
    2.5774   -1.0994   -0.6773 C   0  0  0  0  0  0  0  0  0  0  0  0
   -1.5453   -2.7794    0.3561 C   0  0  0  0  0  0  0  0  0  0  0  0
    0.7452   -3.2408    0.6874 O   0  0  0  0  0  0  0  0  0  0  0  0
    0.5057    1.7964    0.5821 C   0  0  0  0  0  0  0  0  0  0  0  0
   -1.8984    2.3055    0.1071 N   0  0  0  0  0  0  0  0  0  0  0  0
   -2.5934   -1.8819    0.1557 C   0  0  0  0  0  0  0  0  0  0  0  0
   -3.5036    0.4292   -0.0732 C   0  0  0  0  0  0  0  0  0  0  0  0
    2.9819    1.4715    0.2759 C   0  0  0  0  0  0  0  0  0  0  0  0
    3.8935   -0.5979   -0.5593 C   0  0  0  0  0  0  0  0  0  0  0  0
    2.4311   -2.3410   -1.2502 O   0  0  0  0  0  0  0  0  0  0  0  0
   -1.7326   -4.1165    0.6155 O   0  0  0  0  0  0  0  0  0  0  0  0
    1.5943   -2.8431    1.7654 C   0  0  0  0  0  0  0  0  0  0  0  0
   -3.1205    1.8256   -0.5569 C   0  0  0  0  0  0  0  0  0  0  0  0
   -1.6896    3.7110   -0.2553 C   0  0  0  0  0  0  0  0  0  0  0  0
    4.0862    0.6910   -0.0868 C   0  0  0  0  0  0  0  0  0  0  0  0
    4.8877   -1.4718   -0.9285 O   0  0  0  0  0  0  0  0  0  0  0  0
   -3.0645   -4.6115    0.5553 C   0  0  0  0  0  0  0  0  0  0  0  0
    6.2270   -1.0443   -0.7026 C   0  0  0  0  0  0  0  0  0  0  0  0
   -0.5101    1.6023   -1.3407 H   0  0  0  0  0  0  0  0  0  0  0  0
    0.2988    1.6583    1.6511 H   0  0  0  0  0  0  0  0  0  0  0  0
    0.7871    2.8441    0.4293 H   0  0  0  0  0  0  0  0  0  0  0  0
   -3.6284   -2.2067    0.2059 H   0  0  0  0  0  0  0  0  0  0  0  0
   -3.9140    0.4966    0.9436 H   0  0  0  0  0  0  0  0  0  0  0  0
   -4.2915    0.0332   -0.7253 H   0  0  0  0  0  0  0  0  0  0  0  0
    3.1422    2.4877    0.6157 H   0  0  0  0  0  0  0  0  0  0  0  0
    3.3303   -2.7086   -1.3297 H   0  0  0  0  0  0  0  0  0  0  0  0
    2.6003   -2.6424    1.3870 H   0  0  0  0  0  0  0  0  0  0  0  0
    1.2267   -1.9709    2.3223 H   0  0  0  0  0  0  0  0  0  0  0  0
    1.6883   -3.6797    2.4583 H   0  0  0  0  0  0  0  0  0  0  0  0
   -3.9619    2.4914   -0.3289 H   0  0  0  0  0  0  0  0  0  0  0  0
   -2.9966    1.8251   -1.6476 H   0  0  0  0  0  0  0  0  0  0  0  0
   -1.5270    3.8403   -1.3308 H   0  0  0  0  0  0  0  0  0  0  0  0
   -2.5603    4.3101    0.0342 H   0  0  0  0  0  0  0  0  0  0  0  0
   -0.8448    4.1498    0.2820 H   0  0  0  0  0  0  0  0  0  0  0  0
    5.0743    1.1309    0.0158 H   0  0  0  0  0  0  0  0  0  0  0  0
   -3.6712   -4.1993    1.3691 H   0  0  0  0  0  0  0  0  0  0  0  0
   -3.5276   -4.4133   -0.4180 H   0  0  0  0  0  0  0  0  0  0  0  0
   -3.0317   -5.6971    0.6861 H   0  0  0  0  0  0  0  0  0  0  0  0
    6.4864   -0.2278   -1.3838 H   0  0  0  0  0  0  0  0  0  0  0  0
    6.3936   -0.7571    0.3414 H   0  0  0  0  0  0  0  0  0  0  0  0
    6.8895   -1.8873   -0.9188 H   0  0  0  0  0  0  0  0  0  0  0  0
  1  2  1  0  0  0  0
  1  3  1  0  0  0  0
  1  4  2  0  0  0  0
  2  5  1  0  0  0  0
  2  6  2  0  0  0  0
  3  7  2  0  0  0  0
  3  8  1  0  0  0  0
  4  9  1  0  0  0  0
  4 10  1  0  0  0  0
  5 11  1  0  0  0  0
  5 12  1  0  0  0  0
  5 26  1  6  0  0  0
  6 13  1  0  0  0  0
  6 14  1  0  0  0  0
  7 15  1  0  0  0  0
  7 11  1  0  0  0  0
  8 16  2  0  0  0  0
  8 17  1  0  0  0  0
  9 18  1  0  0  0  0
  9 13  2  0  0  0  0
 10 19  1  0  0  0  0
 11 27  1  0  0  0  0
 11 28  1  0  0  0  0
 12 20  1  0  0  0  0
 12 21  1  0  0  0  0
 13 29  1  0  0  0  0
 14 20  1  0  0  0  0
 14 30  1  0  0  0  0
 14 31  1  0  0  0  0
 15 22  2  0  0  0  0
 15 32  1  0  0  0  0
 16 23  1  0  0  0  0
 16 22  1  0  0  0  0
 17 33  1  0  0  0  0
 18 24  1  0  0  0  0
 19 34  1  0  0  0  0
 19 35  1  0  0  0  0
 19 36  1  0  0  0  0
 20 37  1  0  0  0  0
 20 38  1  0  0  0  0
 21 39  1  0  0  0  0
 21 40  1  0  0  0  0
 21 41  1  0  0  0  0
 22 42  1  0  0  0  0
 23 25  1  0  0  0  0
 24 43  1  0  0  0  0
 24 44  1  0  0  0  0
 24 45  1  0  0  0  0
 25 46  1  0  0  0  0
 25 47  1  0  0  0  0
 25 48  1  0  0  0  0
M  END
>  <Mol_ID>
4501

>  <Formula>
C20H23NO4

>  <MolWeight>
341.40092

>  <Cat>
S9258

>  <Name>
(+)-Isocorynoline

>  <Target>
5-HT Receptor

>  <Form>
free base

>  <CAS>
475-67-2

>  <URL>
https://www.selleckchem.com/products/isocorynoline.html

$$$$
