S9253 Coixol.cdx
 OpenBabel08302521203D

 19 20  0  0  0  0  0  0  0  0999 V2000
    0.2756    0.7330    0.0042 C   0  0  0  0  0  0  0  0  0  0  0  0
    0.2478   -0.6436   -0.0009 C   0  0  0  0  0  0  0  0  0  0  0  0
   -1.0246    1.1429    0.0114 N   0  0  0  0  0  0  0  0  0  0  0  0
    1.4422    1.4571    0.0011 C   0  0  0  0  0  0  0  0  0  0  0  0
    1.4107   -1.3823   -0.0107 C   0  0  0  0  0  0  0  0  0  0  0  0
   -1.0428   -1.1485    0.0035 O   0  0  0  0  0  0  0  0  0  0  0  0
   -1.8168    0.0191    0.0104 C   0  0  0  0  0  0  0  0  0  0  0  0
    2.6369    0.7267   -0.0089 C   0  0  0  0  0  0  0  0  0  0  0  0
    2.6270   -0.6852   -0.0158 C   0  0  0  0  0  0  0  0  0  0  0  0
   -3.0396    0.0293    0.0139 O   0  0  0  0  0  0  0  0  0  0  0  0
    3.7394   -1.4845   -0.0284 O   0  0  0  0  0  0  0  0  0  0  0  0
    5.0019   -0.8290   -0.0349 C   0  0  0  0  0  0  0  0  0  0  0  0
   -1.3835    2.0828    0.0146 H   0  0  0  0  0  0  0  0  0  0  0  0
    1.4475    2.5403    0.0055 H   0  0  0  0  0  0  0  0  0  0  0  0
    1.3861   -2.4664   -0.0152 H   0  0  0  0  0  0  0  0  0  0  0  0
    3.5687    1.2847   -0.0118 H   0  0  0  0  0  0  0  0  0  0  0  0
    5.1210   -0.2109   -0.9311 H   0  0  0  0  0  0  0  0  0  0  0  0
    5.1417   -0.2367    0.8756 H   0  0  0  0  0  0  0  0  0  0  0  0
    5.7807   -1.5972   -0.0554 H   0  0  0  0  0  0  0  0  0  0  0  0
  1  2  2  0  0  0  0
  1  3  1  0  0  0  0
  1  4  1  0  0  0  0
  2  5  1  0  0  0  0
  2  6  1  0  0  0  0
  3  7  1  0  0  0  0
  3 13  1  0  0  0  0
  4  8  2  0  0  0  0
  4 14  1  0  0  0  0
  5  9  2  0  0  0  0
  5 15  1  0  0  0  0
  6  7  1  0  0  0  0
  7 10  2  0  0  0  0
  8  9  1  0  0  0  0
  8 16  1  0  0  0  0
  9 11  1  0  0  0  0
 11 12  1  0  0  0  0
 12 17  1  0  0  0  0
 12 18  1  0  0  0  0
 12 19  1  0  0  0  0
M  END
>  <Mol_ID>
4497

>  <Formula>
C8H7NO3

>  <MolWeight>
165.14608

>  <Cat>
S9253

>  <Name>
Coixol

>  <Synonyms>
6-methoxybenzoxazolone, MBOA

>  <Target>
Others

>  <Form>
free base

>  <CAS>
532-91-2

>  <URL>
https://www.selleckchem.com/products/coixol.html

$$$$
