S9260 Nodakenin.cdx
 OpenBabel08302521203D

 53 56  0  0  0  0  0  0  0  0999 V2000
    0.7376    5.1490    5.0215 C   0  0  1  0  0  0  0  0  0  0  0  0
   -0.4512    5.9078    5.6698 C   0  0  1  0  0  0  0  0  0  0  0  0
   -0.0930    7.0029    6.6702 C   0  0  2  0  0  0  0  0  0  0  0  0
    1.8359    4.9638    5.8915 O   0  0  0  0  0  0  0  0  0  0  0  0
    1.0943    6.6416    7.5610 C   0  0  1  0  0  0  0  0  0  0  0  0
    1.2162    1.4673    2.0988 O   0  0  0  0  0  0  0  0  0  0  0  0
    0.1994    0.6028    1.7461 C   0  0  0  0  0  0  0  0  0  0  0  0
    2.2433    6.0520    6.7233 C   0  0  1  0  0  0  0  0  0  0  0  0
   -1.0113   -1.3444    2.1728 C   0  0  0  0  0  0  0  0  0  0  0  0
   -1.0398   -2.7199    2.5096 O   0  0  0  0  0  0  0  0  0  0  0  0
    0.5493    2.7626    2.4639 C   0  0  1  0  0  0  0  0  0  0  0  0
   -0.9504    1.3116    1.4491 C   0  0  0  0  0  0  0  0  0  0  0  0
    0.1340    3.8934    4.7021 O   0  0  0  0  0  0  0  0  0  0  0  0
    0.2211   -0.7532    1.9826 C   0  0  0  0  0  0  0  0  0  0  0  0
    0.7712    2.7723    4.0734 C   0  0  0  0  0  0  0  0  0  0  0  0
   -2.2070   -0.5983    2.1478 C   0  0  0  0  0  0  0  0  0  0  0  0
   -2.2150   -3.3464    2.8976 C   0  0  0  0  0  0  0  0  0  0  0  0
   -3.3846   -1.1813    2.7805 C   0  0  0  0  0  0  0  0  0  0  0  0
   -0.5071    2.7417    1.2949 C   0  0  0  0  0  0  0  0  0  0  0  0
   -2.1862    0.7368    1.7024 C   0  0  0  0  0  0  0  0  0  0  0  0
   -3.3822   -2.4714    3.1499 C   0  0  0  0  0  0  0  0  0  0  0  0
   -2.2962   -4.5582    3.0666 O   0  0  0  0  0  0  0  0  0  0  0  0
   -1.3068    6.4493    4.6321 O   0  0  0  0  0  0  0  0  0  0  0  0
   -1.2655    7.2392    7.4784 O   0  0  0  0  0  0  0  0  0  0  0  0
    1.4818    7.8467    8.2566 O   0  0  0  0  0  0  0  0  0  0  0  0
    3.3508    5.4929    7.6444 C   0  0  0  0  0  0  0  0  0  0  0  0
    2.2244    2.5268    4.4931 C   0  0  0  0  0  0  0  0  0  0  0  0
   -0.0625    1.5998    4.7130 C   0  0  0  0  0  0  0  0  0  0  0  0
    2.8567    4.3918    8.4059 O   0  0  0  0  0  0  0  0  0  0  0  0
    1.0584    5.6353    4.0927 H   0  0  0  0  0  0  0  0  0  0  0  0
   -1.0836    5.1780    6.1932 H   0  0  0  0  0  0  0  0  0  0  0  0
    0.0960    7.9517    6.1556 H   0  0  0  0  0  0  0  0  0  0  0  0
    0.7687    5.9311    8.3290 H   0  0  0  0  0  0  0  0  0  0  0  0
    2.6923    6.8388    6.1003 H   0  0  0  0  0  0  0  0  0  0  0  0
   -0.4531    2.8526    2.9209 H   0  0  0  0  0  0  0  0  0  0  0  0
    1.1444   -1.2896    2.1698 H   0  0  0  0  0  0  0  0  0  0  0  0
   -4.2070   -0.5288    3.0510 H   0  0  0  0  0  0  0  0  0  0  0  0
   -1.3136    3.4859    1.3395 H   0  0  0  0  0  0  0  0  0  0  0  0
   -0.0107    2.8553    0.3209 H   0  0  0  0  0  0  0  0  0  0  0  0
   -3.0830    1.3470    1.7162 H   0  0  0  0  0  0  0  0  0  0  0  0
   -4.2003   -2.9148    3.6851 H   0  0  0  0  0  0  0  0  0  0  0  0
   -1.0088    7.3490    4.4233 H   0  0  0  0  0  0  0  0  0  0  0  0
   -1.2200    8.1473    7.8206 H   0  0  0  0  0  0  0  0  0  0  0  0
    2.3657    8.1318    7.9726 H   0  0  0  0  0  0  0  0  0  0  0  0
    4.1910    5.1327    7.0413 H   0  0  0  0  0  0  0  0  0  0  0  0
    3.7168    6.2484    8.3459 H   0  0  0  0  0  0  0  0  0  0  0  0
    2.3125    2.5049    5.5859 H   0  0  0  0  0  0  0  0  0  0  0  0
    2.5925    1.5580    4.1347 H   0  0  0  0  0  0  0  0  0  0  0  0
    2.8924    3.3044    4.1172 H   0  0  0  0  0  0  0  0  0  0  0  0
   -0.0515    1.6623    5.8064 H   0  0  0  0  0  0  0  0  0  0  0  0
   -1.1226    1.6759    4.4361 H   0  0  0  0  0  0  0  0  0  0  0  0
    0.3006    0.6119    4.4294 H   0  0  0  0  0  0  0  0  0  0  0  0
    3.6211    3.9057    8.7576 H   0  0  0  0  0  0  0  0  0  0  0  0
  1 13  1  0  0  0  0
  1 30  1  6  0  0  0
  2  1  1  0  0  0  0
  2 23  1  0  0  0  0
  2 31  1  1  0  0  0
  3  2  1  0  0  0  0
  3 24  1  0  0  0  0
  3  5  1  0  0  0  0
  3 32  1  6  0  0  0
  4  1  1  0  0  0  0
  5  8  1  0  0  0  0
  5 25  1  0  0  0  0
  5 33  1  1  0  0  0
  6 11  1  0  0  0  0
  7  6  1  0  0  0  0
  7 12  2  0  0  0  0
  8  4  1  0  0  0  0
  8 26  1  0  0  0  0
  8 34  1  6  0  0  0
  9 14  2  0  0  0  0
  9 16  1  0  0  0  0
 10  9  1  0  0  0  0
 11 35  1  1  0  0  0
 11 15  1  0  0  0  0
 12 19  1  0  0  0  0
 14  7  1  0  0  0  0
 14 36  1  0  0  0  0
 15 13  1  0  0  0  0
 16 20  2  0  0  0  0
 17 10  1  0  0  0  0
 17 21  1  0  0  0  0
 18 16  1  0  0  0  0
 18 37  1  0  0  0  0
 19 11  1  0  0  0  0
 19 38  1  0  0  0  0
 19 39  1  0  0  0  0
 20 12  1  0  0  0  0
 20 40  1  0  0  0  0
 21 18  2  0  0  0  0
 21 41  1  0  0  0  0
 22 17  2  0  0  0  0
 23 42  1  0  0  0  0
 24 43  1  0  0  0  0
 25 44  1  0  0  0  0
 26 45  1  0  0  0  0
 26 46  1  0  0  0  0
 27 15  1  0  0  0  0
 27 47  1  0  0  0  0
 27 48  1  0  0  0  0
 27 49  1  0  0  0  0
 28 15  1  0  0  0  0
 28 50  1  0  0  0  0
 28 51  1  0  0  0  0
 28 52  1  0  0  0  0
 29 26  1  0  0  0  0
 29 53  1  0  0  0  0
M  END
>  <Mol_ID>
4503

>  <Formula>
C20H24O9

>  <MolWeight>
408.39916

>  <Cat>
S9260

>  <Name>
Nodakenin

>  <Synonyms>
(+)-Marmesinin

>  <Target>
AChR

>  <Form>
free base

>  <CAS>
495-31-8

>  <URL>
https://www.selleckchem.com/products/nodakenin.html

$$$$
