S9263 3-n-Butylphathlide.cdx
 OpenBabel08302521203D

 28 29  0  0  0  0  0  0  0  0999 V2000
   -0.4364   -0.8803   -0.0315 C   0  0  0  0  0  0  0  0  0  0  0  0
   -0.0128    0.4346   -0.0292 C   0  0  0  0  0  0  0  0  0  0  0  0
    0.7469   -1.7756   -0.0146 C   0  0  3  0  0  0  0  0  0  0  0  0
   -1.7900   -1.1755   -0.0130 C   0  0  0  0  0  0  0  0  0  0  0  0
    1.4425    0.4597   -0.0164 C   0  0  0  0  0  0  0  0  0  0  0  0
   -0.8901    1.5051   -0.0261 C   0  0  0  0  0  0  0  0  0  0  0  0
    1.8556   -0.8426    0.0095 O   0  0  0  0  0  0  0  0  0  0  0  0
    0.8645   -2.6791   -1.2473 C   0  0  0  0  0  0  0  0  0  0  0  0
   -2.7005   -0.1147   -0.0072 C   0  0  0  0  0  0  0  0  0  0  0  0
    2.1512    1.4466   -0.0183 O   0  0  0  0  0  0  0  0  0  0  0  0
   -2.2555    1.2201   -0.0156 C   0  0  0  0  0  0  0  0  0  0  0  0
    2.1014   -3.5868   -1.1723 C   0  0  0  0  0  0  0  0  0  0  0  0
    2.2250   -4.5027   -2.3936 C   0  0  0  0  0  0  0  0  0  0  0  0
    3.4578   -5.3938   -2.3096 C   0  0  0  0  0  0  0  0  0  0  0  0
    0.7724   -2.3535    0.9169 H   0  0  0  0  0  0  0  0  0  0  0  0
   -2.1425   -2.2031    0.0021 H   0  0  0  0  0  0  0  0  0  0  0  0
   -0.5252    2.5284   -0.0252 H   0  0  0  0  0  0  0  0  0  0  0  0
   -0.0376   -3.2950   -1.3477 H   0  0  0  0  0  0  0  0  0  0  0  0
    0.9380   -2.0606   -2.1516 H   0  0  0  0  0  0  0  0  0  0  0  0
   -3.7691   -0.3203    0.0118 H   0  0  0  0  0  0  0  0  0  0  0  0
   -2.9799    2.0312   -0.0081 H   0  0  0  0  0  0  0  0  0  0  0  0
    3.0048   -2.9711   -1.0910 H   0  0  0  0  0  0  0  0  0  0  0  0
    2.0449   -4.2002   -0.2651 H   0  0  0  0  0  0  0  0  0  0  0  0
    1.3347   -5.1366   -2.4756 H   0  0  0  0  0  0  0  0  0  0  0  0
    2.2813   -3.9017   -3.3086 H   0  0  0  0  0  0  0  0  0  0  0  0
    3.4165   -6.0417   -1.4281 H   0  0  0  0  0  0  0  0  0  0  0  0
    3.5246   -6.0348   -3.1952 H   0  0  0  0  0  0  0  0  0  0  0  0
    4.3754   -4.7989   -2.2554 H   0  0  0  0  0  0  0  0  0  0  0  0
  1  2  2  0  0  0  0
  1  3  1  0  0  0  0
  1  4  1  0  0  0  0
  2  5  1  0  0  0  0
  2  6  1  0  0  0  0
  3  7  1  0  0  0  0
  3  8  1  0  0  0  0
  3 15  1  0  0  0  0
  4  9  2  0  0  0  0
  4 16  1  0  0  0  0
  5 10  2  0  0  0  0
  5  7  1  0  0  0  0
  6 11  2  0  0  0  0
  6 17  1  0  0  0  0
  8 12  1  0  0  0  0
  8 18  1  0  0  0  0
  8 19  1  0  0  0  0
  9 11  1  0  0  0  0
  9 20  1  0  0  0  0
 11 21  1  0  0  0  0
 12 13  1  0  0  0  0
 12 22  1  0  0  0  0
 12 23  1  0  0  0  0
 13 14  1  0  0  0  0
 13 24  1  0  0  0  0
 13 25  1  0  0  0  0
 14 26  1  0  0  0  0
 14 27  1  0  0  0  0
 14 28  1  0  0  0  0
M  END
>  <Mol_ID>
4504

>  <Formula>
C12H14O2

>  <MolWeight>
190.23836

>  <Cat>
S9263

>  <Name>
3-n-Butylphathlide

>  <Target>
Others

>  <Form>
free base

>  <CAS>
6066-49-5

>  <URL>
https://www.selleckchem.com/products/3-n-butylphathlide.html

$$$$
