S9277 Alisol A.cdx
 OpenBabel08302521212D

 85 88  0  0  0  0  0  0  0  0999 V2000
    7.3046    5.5099    0.0000 C   0  0  0  0  0  0  0  0  0  0  0  0
    6.0841    3.3742    0.0000 C   0  0  2  0  0  0  0  0  0  0  0  0
    7.3046    4.0562    0.0000 C   0  0  1  0  0  0  0  0  0  0  0  0
    3.6433    3.3742    0.0000 C   0  0  2  0  0  0  0  0  0  0  0  0
    4.8637    4.0742    0.0000 C   0  0  3  0  0  0  0  0  0  0  0  0
    8.6866    5.8869    0.0000 C   0  0  0  0  0  0  0  0  0  0  0  0
    3.6433    1.9563    0.0000 C   0  0  3  0  0  0  0  0  0  0  0  0
    2.4229    1.2564    0.0000 C   0  0  0  0  0  0  0  0  0  0  0  0
    6.0841    6.2098    0.0000 C   0  0  0  0  0  0  0  0  0  0  0  0
    4.8637    5.5099    0.0000 C   0  0  3  0  0  0  0  0  0  0  0  0
    6.0841    1.9563    0.0000 C   0  0  0  0  0  0  0  0  0  0  0  0
    8.6686    3.6433    0.0000 C   0  0  0  0  0  0  0  0  0  0  0  0
    2.4229    4.0742    0.0000 C   0  0  0  0  0  0  0  0  0  0  0  0
    1.2024    1.9563    0.0000 C   0  0  0  0  0  0  0  0  0  0  0  0
    9.4403    4.7741    0.0000 C   0  0  0  0  0  0  0  0  0  0  0  0
    9.2250    7.1611    0.0000 C   0  0  3  0  0  0  0  0  0  0  0  0
   12.8325    6.3714    0.0000 C   0  0  3  0  0  0  0  0  0  0  0  0
    4.8637    1.2564    0.0000 C   0  0  0  0  0  0  0  0  0  0  0  0
   11.4504    6.2098    0.0000 C   0  0  3  0  0  0  0  0  0  0  0  0
   10.6069    7.3226    0.0000 C   0  0  0  0  0  0  0  0  0  0  0  0
   13.6940    5.2587    0.0000 C   0  0  0  0  0  0  0  0  0  0  0  0
    1.2024    3.3742    0.0000 C   0  0  0  0  0  0  0  0  0  0  0  0
    0.0000    1.2564    0.0000 O   0  0  0  0  0  0  0  0  0  0  0  0
    6.0841    4.7741    0.0000 C   0  0  0  0  0  0  0  0  0  0  0  0
    3.6433    4.7741    0.0000 C   0  0  0  0  0  0  0  0  0  0  0  0
    3.6791    6.2098    0.0000 O   0  0  0  0  0  0  0  0  0  0  0  0
    7.3046    2.6563    0.0000 C   0  0  0  0  0  0  0  0  0  0  0  0
   13.3529    7.6457    0.0000 O   0  0  0  0  0  0  0  0  0  0  0  0
   10.9120    4.9357    0.0000 O   0  0  0  0  0  0  0  0  0  0  0  0
   13.1556    3.9664    0.0000 O   0  0  0  0  0  0  0  0  0  0  0  0
    1.7768    0.0180    0.0000 C   0  0  0  0  0  0  0  0  0  0  0  0
    3.0331    0.0000    0.0000 C   0  0  0  0  0  0  0  0  0  0  0  0
    8.3815    8.2739    0.0000 C   0  0  0  0  0  0  0  0  0  0  0  0
   14.9144    5.9227    0.0000 C   0  0  0  0  0  0  0  0  0  0  0  0
   14.6839    4.2688    0.0000 C   0  0  0  0  0  0  0  0  0  0  0  0
    4.8637    3.0042    0.0000 H   0  0  0  0  0  0  0  0  0  0  0  0
    4.5692    2.4926    0.0000 H   0  0  0  0  0  0  0  0  0  0  0  0
    6.0841    7.2798    0.0000 H   0  0  0  0  0  0  0  0  0  0  0  0
    5.1582    6.7461    0.0000 H   0  0  0  0  0  0  0  0  0  0  0  0
    5.7896    4.9736    0.0000 H   0  0  0  0  0  0  0  0  0  0  0  0
    7.0100    1.4200    0.0000 H   0  0  0  0  0  0  0  0  0  0  0  0
    6.0818    0.8863    0.0000 H   0  0  0  0  0  0  0  0  0  0  0  0
    9.0244    2.6342    0.0000 H   0  0  0  0  0  0  0  0  0  0  0  0
    9.7296    3.5047    0.0000 H   0  0  0  0  0  0  0  0  0  0  0  0
    2.4229    5.1442    0.0000 H   0  0  0  0  0  0  0  0  0  0  0  0
    1.4970    4.6105    0.0000 H   0  0  0  0  0  0  0  0  0  0  0  0
   10.5103    4.7722    0.0000 H   0  0  0  0  0  0  0  0  0  0  0  0
    9.9392    3.8275    0.0000 H   0  0  0  0  0  0  0  0  0  0  0  0
    8.1633    7.0283    0.0000 H   0  0  0  0  0  0  0  0  0  0  0  0
   12.1852    7.2234    0.0000 H   0  0  0  0  0  0  0  0  0  0  0  0
    4.8637    0.1864    0.0000 H   0  0  0  0  0  0  0  0  0  0  0  0
    5.7896    0.7201    0.0000 H   0  0  0  0  0  0  0  0  0  0  0  0
   11.8699    7.1941    0.0000 H   0  0  0  0  0  0  0  0  0  0  0  0
   11.0265    8.3069    0.0000 H   0  0  0  0  0  0  0  0  0  0  0  0
    9.9661    8.1795    0.0000 H   0  0  0  0  0  0  0  0  0  0  0  0
    0.2765    3.9105    0.0000 H   0  0  0  0  0  0  0  0  0  0  0  0
    1.2047    4.4442    0.0000 H   0  0  0  0  0  0  0  0  0  0  0  0
    7.0107    5.3091    0.0000 H   0  0  0  0  0  0  0  0  0  0  0  0
    5.1575    5.3091    0.0000 H   0  0  0  0  0  0  0  0  0  0  0  0
    6.0841    5.8441    0.0000 H   0  0  0  0  0  0  0  0  0  0  0  0
    4.5699    5.3091    0.0000 H   0  0  0  0  0  0  0  0  0  0  0  0
    2.7167    5.3091    0.0000 H   0  0  0  0  0  0  0  0  0  0  0  0
    3.6433    5.8441    0.0000 H   0  0  0  0  0  0  0  0  0  0  0  0
    3.6889    7.1798    0.0000 H   0  0  0  0  0  0  0  0  0  0  0  0
    6.3780    2.1213    0.0000 H   0  0  0  0  0  0  0  0  0  0  0  0
    8.2312    2.1213    0.0000 H   0  0  0  0  0  0  0  0  0  0  0  0
    7.3046    1.5863    0.0000 H   0  0  0  0  0  0  0  0  0  0  0  0
   14.3140    7.7771    0.0000 H   0  0  0  0  0  0  0  0  0  0  0  0
    9.9494    4.8159    0.0000 H   0  0  0  0  0  0  0  0  0  0  0  0
   12.1936    3.8418    0.0000 H   0  0  0  0  0  0  0  0  0  0  0  0
    0.7078   -0.0277    0.0000 H   0  0  0  0  0  0  0  0  0  0  0  0
    2.3509   -0.8850    0.0000 H   0  0  0  0  0  0  0  0  0  0  0  0
    1.2819   -0.9307    0.0000 H   0  0  0  0  0  0  0  0  0  0  0  0
    2.4333   -0.8861    0.0000 H   0  0  0  0  0  0  0  0  0  0  0  0
    4.1004   -0.0764    0.0000 H   0  0  0  0  0  0  0  0  0  0  0  0
    3.5006   -0.9625    0.0000 H   0  0  0  0  0  0  0  0  0  0  0  0
    8.7968    9.2600    0.0000 H   0  0  0  0  0  0  0  0  0  0  0  0
    7.3198    8.1405    0.0000 H   0  0  0  0  0  0  0  0  0  0  0  0
    7.7351    9.1266    0.0000 H   0  0  0  0  0  0  0  0  0  0  0  0
   15.8272    5.3644    0.0000 H   0  0  0  0  0  0  0  0  0  0  0  0
   14.9415    6.9924    0.0000 H   0  0  0  0  0  0  0  0  0  0  0  0
   15.8543    6.4341    0.0000 H   0  0  0  0  0  0  0  0  0  0  0  0
   14.4070    3.2353    0.0000 H   0  0  0  0  0  0  0  0  0  0  0  0
   15.7174    4.5457    0.0000 H   0  0  0  0  0  0  0  0  0  0  0  0
   15.4405    3.5122    0.0000 H   0  0  0  0  0  0  0  0  0  0  0  0
  2  3  1  0  0  0  0
  2 24  1  6  0  0  0
  3  1  1  0  0  0  0
  3 27  1  1  0  0  0
  4  5  1  0  0  0  0
  4 25  1  1  0  0  0
  5  2  1  0  0  0  0
  5 10  1  0  0  0  0
  5 36  1  0  0  0  0
  6  1  2  0  0  0  0
  7  4  1  0  0  0  0
  7 18  1  0  0  0  0
  7 37  1  0  0  0  0
  8  7  1  0  0  0  0
  8 14  1  0  0  0  0
  9  1  1  0  0  0  0
  9 38  1  0  0  0  0
  9 39  1  0  0  0  0
 10  9  1  0  0  0  0
 10 26  1  0  0  0  0
 10 40  1  0  0  0  0
 11  2  1  0  0  0  0
 11 41  1  0  0  0  0
 11 42  1  0  0  0  0
 12  3  1  0  0  0  0
 12 43  1  0  0  0  0
 12 44  1  0  0  0  0
 13  4  1  0  0  0  0
 13 45  1  0  0  0  0
 13 46  1  0  0  0  0
 14 22  1  0  0  0  0
 15  6  1  0  0  0  0
 15 12  1  0  0  0  0
 15 47  1  0  0  0  0
 15 48  1  0  0  0  0
 16  6  1  0  0  0  0
 16 33  1  0  0  0  0
 16 49  1  0  0  0  0
 17 19  1  0  0  0  0
 17 28  1  0  0  0  0
 17 50  1  0  0  0  0
 18 11  1  0  0  0  0
 18 51  1  0  0  0  0
 18 52  1  0  0  0  0
 19 20  1  0  0  0  0
 19 29  1  0  0  0  0
 19 53  1  0  0  0  0
 20 16  1  0  0  0  0
 20 54  1  0  0  0  0
 20 55  1  0  0  0  0
 21 17  1  0  0  0  0
 21 35  1  0  0  0  0
 22 13  1  0  0  0  0
 22 56  1  0  0  0  0
 22 57  1  0  0  0  0
 23 14  2  0  0  0  0
 24 58  1  0  0  0  0
 24 59  1  0  0  0  0
 24 60  1  0  0  0  0
 25 61  1  0  0  0  0
 25 62  1  0  0  0  0
 25 63  1  0  0  0  0
 26 64  1  0  0  0  0
 27 65  1  0  0  0  0
 27 66  1  0  0  0  0
 27 67  1  0  0  0  0
 28 68  1  0  0  0  0
 29 69  1  0  0  0  0
 30 21  1  0  0  0  0
 30 70  1  0  0  0  0
 31  8  1  0  0  0  0
 31 71  1  0  0  0  0
 31 72  1  0  0  0  0
 31 73  1  0  0  0  0
 32  8  1  0  0  0  0
 32 74  1  0  0  0  0
 32 75  1  0  0  0  0
 32 76  1  0  0  0  0
 33 77  1  0  0  0  0
 33 78  1  0  0  0  0
 33 79  1  0  0  0  0
 34 21  1  0  0  0  0
 34 80  1  0  0  0  0
 34 81  1  0  0  0  0
 34 82  1  0  0  0  0
 35 83  1  0  0  0  0
 35 84  1  0  0  0  0
 35 85  1  0  0  0  0
M  END
>  <Mol_ID>
4513

>  <Formula>
C30H50O5

>  <MolWeight>
490.715

>  <Cat>
S9277

>  <Name>
Alisol A

>  <Target>
Others

>  <Form>
free base

>  <CAS>
19885-10-0

>  <URL>
https://www.selleckchem.com/products/alisol-a.html

$$$$
