S9275 Isoguanosine.cdx
 OpenBabel08302521213D

 33 35  0  0  0  0  0  0  0  0999 V2000
    1.6783    0.0347   -0.7036 C   0  0  0  0  0  0  0  0  0  0  0  0
    1.4851    1.0885    0.1402 N   0  0  0  0  0  0  0  0  0  0  0  0
    1.1928   -1.0633   -0.0619 C   0  0  0  0  0  0  0  0  0  0  0  0
    2.2372   -0.0316   -1.9453 N   0  0  0  0  0  0  0  0  0  0  0  0
    2.0154    2.4302   -0.0225 C   0  0  2  0  0  0  0  0  0  0  0  0
    0.8357    0.5736    1.2404 C   0  0  0  0  0  0  0  0  0  0  0  0
    0.6409   -0.7313    1.1458 N   0  0  0  0  0  0  0  0  0  0  0  0
    1.3140   -2.3348   -0.7276 C   0  0  0  0  0  0  0  0  0  0  0  0
    2.2901   -1.2773   -2.5654 C   0  0  0  0  0  0  0  0  0  0  0  0
    1.6615    3.2671    1.1029 O   0  0  0  0  0  0  0  0  0  0  0  0
    1.5523    3.1386   -1.2938 C   0  0  1  0  0  0  0  0  0  0  0  0
    1.8240   -2.4193   -1.9131 N   0  0  0  0  0  0  0  0  0  0  0  0
    0.8418   -3.3825    0.0018 N   0  0  0  0  0  0  0  0  0  0  0  0
    2.7610   -1.3346   -3.7003 O   0  0  0  0  0  0  0  0  0  0  0  0
    1.2388    4.5606    0.6101 C   0  0  1  0  0  0  0  0  0  0  0  0
    1.6140    4.5974   -0.8694 C   0  0  1  0  0  0  0  0  0  0  0  0
    2.4153    2.8790   -2.4083 O   0  0  0  0  0  0  0  0  0  0  0  0
   -0.2614    4.7477    0.8562 C   0  0  0  0  0  0  0  0  0  0  0  0
    2.9656    5.0601   -1.0584 O   0  0  0  0  0  0  0  0  0  0  0  0
   -1.0135    3.8169    0.0860 O   0  0  0  0  0  0  0  0  0  0  0  0
    2.5537    0.7801   -2.4672 H   0  0  0  0  0  0  0  0  0  0  0  0
    3.1071    2.3190   -0.0104 H   0  0  0  0  0  0  0  0  0  0  0  0
    0.5471    1.1905    2.0822 H   0  0  0  0  0  0  0  0  0  0  0  0
    0.5361    2.8440   -1.5744 H   0  0  0  0  0  0  0  0  0  0  0  0
    0.1916   -3.1331    0.7419 H   0  0  0  0  0  0  0  0  0  0  0  0
    0.5912   -4.1958   -0.5435 H   0  0  0  0  0  0  0  0  0  0  0  0
    1.7880    5.3151    1.1840 H   0  0  0  0  0  0  0  0  0  0  0  0
    0.9726    5.2461   -1.4732 H   0  0  0  0  0  0  0  0  0  0  0  0
    3.0046    3.6619   -2.4776 H   0  0  0  0  0  0  0  0  0  0  0  0
   -0.4994    4.5817    1.9120 H   0  0  0  0  0  0  0  0  0  0  0  0
   -0.5693    5.7639    0.5852 H   0  0  0  0  0  0  0  0  0  0  0  0
    3.4788    4.8899   -0.2455 H   0  0  0  0  0  0  0  0  0  0  0  0
   -1.6374    4.3164   -0.4705 H   0  0  0  0  0  0  0  0  0  0  0  0
  1  2  1  0  0  0  0
  1  3  2  0  0  0  0
  1  4  1  0  0  0  0
  2  6  1  0  0  0  0
  3  7  1  0  0  0  0
  3  8  1  0  0  0  0
  4  9  1  0  0  0  0
  4 21  1  0  0  0  0
  5  2  1  0  0  0  0
  5 10  1  0  0  0  0
  5 11  1  0  0  0  0
  5 22  1  6  0  0  0
  6  7  2  0  0  0  0
  6 23  1  0  0  0  0
  8 12  2  0  0  0  0
  8 13  1  0  0  0  0
  9 14  2  0  0  0  0
  9 12  1  0  0  0  0
 10 15  1  0  0  0  0
 11 16  1  0  0  0  0
 11 17  1  0  0  0  0
 11 24  1  6  0  0  0
 13 25  1  0  0  0  0
 13 26  1  0  0  0  0
 15 16  1  0  0  0  0
 15 27  1  1  0  0  0
 15 18  1  0  0  0  0
 16 19  1  0  0  0  0
 16 28  1  6  0  0  0
 17 29  1  0  0  0  0
 18 20  1  0  0  0  0
 18 30  1  0  0  0  0
 18 31  1  0  0  0  0
 19 32  1  0  0  0  0
 20 33  1  0  0  0  0
M  END
>  <Mol_ID>
4510

>  <Formula>
C10H13N5O5

>  <MolWeight>
283.24072

>  <Cat>
S9275

>  <Name>
Isoguanosine

>  <Synonyms>
Crotonoside

>  <Target>
FLT3,HDAC

>  <Form>
free base

>  <CAS>
1818-71-9

>  <URL>
https://www.selleckchem.com/products/isoguanosine.html

$$$$
