S9270 Dracohodin perochlorate.cdx
 OpenBabel08302521203D

 43 41  0  0  0  0  0  0  0  0999 V2000
    0.6057    0.1405   -4.0881 O   0  5  0  0  0  0  0  0  0  0  0  0
   -1.8334   -0.3548    2.6132 O   0  5  0  0  0  0  0  0  0  0  0  0
    2.5406    2.3593    3.1459 O   0  5  0  0  0  0  0  0  0  0  0  0
    3.5732   -2.4902    1.9468 O   0  5  0  0  0  0  0  0  0  0  0  0
   -1.1397   -1.2907   -0.6498 O   0  3  0  0  0  0  0  0  0  0  0  0
   -0.0504   -0.6406   -0.5726 C   0  0  0  0  0  0  0  0  0  0  0  0
    0.0189    0.7648   -0.5449 C   0  0  0  0  0  0  0  0  0  0  0  0
    1.2792    1.4362   -0.5393 C   0  0  0  0  0  0  0  0  0  0  0  0
    2.4665    0.6731   -0.5310 C   0  0  0  0  0  0  0  0  0  0  0  0
    2.3477   -0.7274   -0.5566 C   0  0  0  0  0  0  0  0  0  0  0  0
    1.1217   -1.3835   -0.6022 C   0  0  0  0  0  0  0  0  0  0  0  0
   -2.1945   -0.7109   -0.2752 C   0  0  0  0  0  0  0  0  0  0  0  0
   -1.1932    1.4434   -0.4847 C   0  0  0  0  0  0  0  0  0  0  0  0
   -2.3220    0.6807   -0.3263 C   0  0  0  0  0  0  0  0  0  0  0  0
   -3.3875   -1.5880   -0.0699 C   0  0  0  0  0  0  0  0  0  0  0  0
    1.1282    2.8005   -0.5382 O   0  0  0  0  0  0  0  0  0  0  0  0
    3.4641   -1.5223   -0.5147 O   0  0  0  0  0  0  0  0  0  0  0  0
    3.8531    1.2454   -0.4267 C   0  0  0  0  0  0  0  0  0  0  0  0
   -4.4252   -1.2175    0.8138 C   0  0  0  0  0  0  0  0  0  0  0  0
   -3.5155   -2.8300   -0.7150 C   0  0  0  0  0  0  0  0  0  0  0  0
    2.2280    3.6761   -0.4281 C   0  0  0  0  0  0  0  0  0  0  0  0
   -5.5229   -2.0457    1.0595 C   0  0  0  0  0  0  0  0  0  0  0  0
   -4.6202   -3.6622   -0.4773 C   0  0  0  0  0  0  0  0  0  0  0  0
   -5.6187   -3.2722    0.4149 C   0  0  0  0  0  0  0  0  0  0  0  0
    1.3738    0.1805   -3.5437 H   0  0  0  0  0  0  0  0  0  0  0  0
   -0.9005   -0.2368    2.7205 H   0  0  0  0  0  0  0  0  0  0  0  0
    2.2500    1.5113    2.8363 H   0  0  0  0  0  0  0  0  0  0  0  0
    3.0597   -1.8066    2.3564 H   0  0  0  0  0  0  0  0  0  0  0  0
    1.0721   -2.4604   -0.6315 H   0  0  0  0  0  0  0  0  0  0  0  0
   -1.2424    2.5223   -0.4319 H   0  0  0  0  0  0  0  0  0  0  0  0
   -3.2733    1.1609   -0.1452 H   0  0  0  0  0  0  0  0  0  0  0  0
    3.5204   -1.8508    0.4433 H   0  0  0  0  0  0  0  0  0  0  0  0
    4.0474    1.9549   -1.2336 H   0  0  0  0  0  0  0  0  0  0  0  0
    4.0048    1.7117    0.5497 H   0  0  0  0  0  0  0  0  0  0  0  0
    4.6362    0.4867   -0.5193 H   0  0  0  0  0  0  0  0  0  0  0  0
   -4.3345   -0.2980    1.3949 H   0  0  0  0  0  0  0  0  0  0  0  0
   -2.7297   -3.1616   -1.3940 H   0  0  0  0  0  0  0  0  0  0  0  0
    2.8530    3.4764    0.4413 H   0  0  0  0  0  0  0  0  0  0  0  0
    2.7954    3.6883   -1.3623 H   0  0  0  0  0  0  0  0  0  0  0  0
    1.8287    4.6874   -0.2937 H   0  0  0  0  0  0  0  0  0  0  0  0
   -6.2646   -1.7403    1.7920 H   0  0  0  0  0  0  0  0  0  0  0  0
   -4.6812   -4.6294   -0.9676 H   0  0  0  0  0  0  0  0  0  0  0  0
   -6.4501   -3.9344    0.6354 H   0  0  0  0  0  0  0  0  0  0  0  0
  1 25  1  0  0  0  0
  2 26  1  0  0  0  0
  3 27  1  0  0  0  0
  4 28  1  0  0  0  0
  6  5  2  0  0  0  0
  7  6  1  0  0  0  0
  8  7  1  0  0  0  0
  9  8  2  0  0  0  0
  9 10  1  0  0  0  0
 10 11  2  0  0  0  0
 11  6  1  0  0  0  0
 11 29  1  0  0  0  0
 12  5  1  0  0  0  0
 13  7  2  0  0  0  0
 13 30  1  0  0  0  0
 14 12  2  0  0  0  0
 14 13  1  0  0  0  0
 14 31  1  0  0  0  0
 15 12  1  0  0  0  0
 16  8  1  0  0  0  0
 17 10  1  0  0  0  0
 17 32  1  0  0  0  0
 18  9  1  0  0  0  0
 18 33  1  0  0  0  0
 18 34  1  0  0  0  0
 18 35  1  0  0  0  0
 19 15  2  0  0  0  0
 19 36  1  0  0  0  0
 20 15  1  0  0  0  0
 20 37  1  0  0  0  0
 21 16  1  0  0  0  0
 21 38  1  0  0  0  0
 21 39  1  0  0  0  0
 21 40  1  0  0  0  0
 22 19  1  0  0  0  0
 22 41  1  0  0  0  0
 23 20  2  0  0  0  0
 23 42  1  0  0  0  0
 24 22  2  0  0  0  0
 24 23  1  0  0  0  0
 24 43  1  0  0  0  0
M  CHG  5   1  -1   2  -1   3  -1   4  -1   5   1
M  END
>  <Mol_ID>
4507

>  <Formula>
C17H15ClO7

>  <MolWeight>
366.7498

>  <Cat>
S9270

>  <Name>
Dracohodin perochlorate

>  <Target>
Others

>  <Form>
free base

>  <CAS>
125536-25-6

>  <URL>
https://www.selleckchem.com/products/dracohodin-perochlorate.html

$$$$
