S9288 Casticin.cdx
 OpenBabel08302521213D

 45 47  0  0  0  0  0  0  0  0999 V2000
    0.0418    0.3095    0.0460 C   0  0  0  0  0  0  0  0  0  0  0  0
   -0.1056   -1.0703   -0.0051 C   0  0  0  0  0  0  0  0  0  0  0  0
   -1.1898    1.1356   -0.0180 C   0  0  0  0  0  0  0  0  0  0  0  0
    1.3394    0.8765    0.1097 C   0  0  0  0  0  0  0  0  0  0  0  0
   -1.3206   -1.6981   -0.0330 O   0  0  0  0  0  0  0  0  0  0  0  0
    1.0222   -1.8816   -0.0239 C   0  0  0  0  0  0  0  0  0  0  0  0
   -2.5094    0.4129    0.0117 C   0  0  0  0  0  0  0  0  0  0  0  0
   -1.1218    2.3465   -0.1395 O   0  0  0  0  0  0  0  0  0  0  0  0
    2.4937    0.0686    0.0385 C   0  0  0  0  0  0  0  0  0  0  0  0
    1.4198    2.2230    0.3457 O   0  0  0  0  0  0  0  0  0  0  0  0
   -2.4662   -0.9311    0.0009 C   0  0  0  0  0  0  0  0  0  0  0  0
    2.3151   -1.3329   -0.0191 C   0  0  0  0  0  0  0  0  0  0  0  0
   -3.7379    1.0638    0.0267 O   0  0  0  0  0  0  0  0  0  0  0  0
    3.7914    0.4857    0.0478 O   0  0  0  0  0  0  0  0  0  0  0  0
   -3.6972   -1.7445    0.0127 C   0  0  0  0  0  0  0  0  0  0  0  0
    3.2745   -2.3177   -0.0563 O   0  0  0  0  0  0  0  0  0  0  0  0
   -3.7519    2.4872   -0.0053 C   0  0  0  0  0  0  0  0  0  0  0  0
    4.1962    1.8384    0.0672 C   0  0  0  0  0  0  0  0  0  0  0  0
   -4.3065   -2.0889    1.2240 C   0  0  0  0  0  0  0  0  0  0  0  0
   -4.2663   -2.1838   -1.1842 C   0  0  0  0  0  0  0  0  0  0  0  0
    4.6502   -1.9688   -0.0504 C   0  0  0  0  0  0  0  0  0  0  0  0
   -5.4573   -2.8903    1.2400 C   0  0  0  0  0  0  0  0  0  0  0  0
   -5.4179   -2.9788   -1.1627 C   0  0  0  0  0  0  0  0  0  0  0  0
   -6.0217   -3.3499    0.0420 C   0  0  0  0  0  0  0  0  0  0  0  0
   -6.0088   -3.2049    2.4560 O   0  0  0  0  0  0  0  0  0  0  0  0
   -7.1216   -4.1434   -0.1300 O   0  0  0  0  0  0  0  0  0  0  0  0
   -7.7948   -4.6238    1.0243 C   0  0  0  0  0  0  0  0  0  0  0  0
    0.9026   -2.9648   -0.0481 H   0  0  0  0  0  0  0  0  0  0  0  0
    2.0480    2.6321   -0.2628 H   0  0  0  0  0  0  0  0  0  0  0  0
   -3.2807    2.9033    0.8889 H   0  0  0  0  0  0  0  0  0  0  0  0
   -3.2945    2.8665   -0.9261 H   0  0  0  0  0  0  0  0  0  0  0  0
   -4.7925    2.8145   -0.0084 H   0  0  0  0  0  0  0  0  0  0  0  0
    3.8851    2.3590   -0.8431 H   0  0  0  0  0  0  0  0  0  0  0  0
    3.8605    2.3432    0.9768 H   0  0  0  0  0  0  0  0  0  0  0  0
    5.2911    1.8523    0.0725 H   0  0  0  0  0  0  0  0  0  0  0  0
   -3.8770   -1.7268    2.1549 H   0  0  0  0  0  0  0  0  0  0  0  0
   -3.8234   -1.9141   -2.1412 H   0  0  0  0  0  0  0  0  0  0  0  0
    4.9185   -1.4018   -0.9487 H   0  0  0  0  0  0  0  0  0  0  0  0
    4.9279   -1.4426    0.8697 H   0  0  0  0  0  0  0  0  0  0  0  0
    5.2290   -2.8948   -0.0724 H   0  0  0  0  0  0  0  0  0  0  0  0
   -5.8506   -3.3147   -2.1029 H   0  0  0  0  0  0  0  0  0  0  0  0
   -5.4673   -2.8120    3.1608 H   0  0  0  0  0  0  0  0  0  0  0  0
   -7.1374   -5.2431    1.6428 H   0  0  0  0  0  0  0  0  0  0  0  0
   -8.2414   -3.8016    1.5920 H   0  0  0  0  0  0  0  0  0  0  0  0
   -8.6157   -5.2655    0.6876 H   0  0  0  0  0  0  0  0  0  0  0  0
  1  2  2  0  0  0  0
  1  3  1  0  0  0  0
  1  4  1  0  0  0  0
  2  5  1  0  0  0  0
  2  6  1  0  0  0  0
  3  7  1  0  0  0  0
  3  8  2  0  0  0  0
  4  9  2  0  0  0  0
  4 10  1  0  0  0  0
  5 11  1  0  0  0  0
  6 12  2  0  0  0  0
  6 28  1  0  0  0  0
  7 13  1  0  0  0  0
  7 11  2  0  0  0  0
  9 14  1  0  0  0  0
  9 12  1  0  0  0  0
 10 29  1  0  0  0  0
 11 15  1  0  0  0  0
 12 16  1  0  0  0  0
 13 17  1  0  0  0  0
 14 18  1  0  0  0  0
 15 19  2  0  0  0  0
 15 20  1  0  0  0  0
 16 21  1  0  0  0  0
 17 30  1  0  0  0  0
 17 31  1  0  0  0  0
 17 32  1  0  0  0  0
 18 33  1  0  0  0  0
 18 34  1  0  0  0  0
 18 35  1  0  0  0  0
 19 22  1  0  0  0  0
 19 36  1  0  0  0  0
 20 23  2  0  0  0  0
 20 37  1  0  0  0  0
 21 38  1  0  0  0  0
 21 39  1  0  0  0  0
 21 40  1  0  0  0  0
 22 24  2  0  0  0  0
 22 25  1  0  0  0  0
 23 24  1  0  0  0  0
 23 41  1  0  0  0  0
 24 26  1  0  0  0  0
 25 42  1  0  0  0  0
 26 27  1  0  0  0  0
 27 43  1  0  0  0  0
 27 44  1  0  0  0  0
 27 45  1  0  0  0  0
M  END
>  <Mol_ID>
4523

>  <Formula>
C19H18O8

>  <MolWeight>
374.34142

>  <Cat>
S9288

>  <Name>
Casticin

>  <Synonyms>
Vitexicarpin

>  <Target>
Immunology & Inflammation related

>  <Form>
free base

>  <CAS>
479-91-4

>  <URL>
https://www.selleckchem.com/products/casticin.html

$$$$
