S9281 Peimine.cdx
 OpenBabel08302521213D

 76 81  0  0  0  0  0  0  0  0999 V2000
    0.7054   -2.9288    0.4664 C   0  0  1  0  0  0  0  0  0  0  0  0
    1.9277   -3.6800    1.0024 C   0  0  2  0  0  0  0  0  0  0  0  0
    1.1005   -1.5657   -0.1202 C   0  0  2  0  0  0  0  0  0  0  0  0
    0.0460   -3.9418   -0.4502 C   0  0  0  0  0  0  0  0  0  0  0  0
    1.3983   -5.0798    1.3068 C   0  0  1  0  0  0  0  0  0  0  0  0
    2.5142   -2.9304    2.1848 C   0  0  0  0  0  0  0  0  0  0  0  0
    1.7160   -0.7623    1.0741 C   0  0  1  0  0  0  0  0  0  0  0  0
   -0.1777   -0.8444   -0.6161 C   0  0  0  0  0  0  0  0  0  0  0  0
    2.0968   -1.7076   -1.3043 C   0  0  0  0  0  0  0  0  0  0  0  0
    0.1526   -5.2171    0.3736 C   0  0  2  0  0  0  0  0  0  0  0  0
    2.4903   -6.1690    1.1325 C   0  0  0  0  0  0  0  0  0  0  0  0
    2.8924   -1.4996    1.7741 C   0  0  1  0  0  0  0  0  0  0  0  0
    2.0557    0.6639    0.6388 C   0  0  0  0  0  0  0  0  0  0  0  0
    0.0486    0.6331   -0.9395 C   0  0  0  0  0  0  0  0  0  0  0  0
    0.2309   -6.4997   -0.4371 C   0  0  1  0  0  0  0  0  0  0  0  0
    1.9594   -7.6010    0.8825 C   0  0  0  0  0  0  0  0  0  0  0  0
    3.2632   -0.8175    2.9693 O   0  0  0  0  0  0  0  0  0  0  0  0
    0.7862    1.3826    0.1716 C   0  0  2  0  0  0  0  0  0  0  0  0
    0.4507   -7.5717    0.6417 C   0  0  2  0  0  0  0  0  0  0  0  0
   -0.9418   -6.7697   -1.3602 C   0  0  0  0  0  0  0  0  0  0  0  0
    1.1229    2.6880   -0.2794 O   0  0  0  0  0  0  0  0  0  0  0  0
   -0.3038   -8.8786    0.3531 C   0  0  2  0  0  0  0  0  0  0  0  0
   -2.1037   -7.2560   -0.6333 N   0  0  3  0  0  0  0  0  0  0  0  0
   -1.8346   -8.5453    0.0633 C   0  0  1  0  0  0  0  0  0  0  0  0
   -0.1792   -9.8013    1.5929 C   0  0  0  0  0  0  0  0  0  0  0  0
    0.2948   -9.5391   -0.7769 O   0  0  0  0  0  0  0  0  0  0  0  0
   -3.2424   -7.2570   -1.5593 C   0  0  0  0  0  0  0  0  0  0  0  0
   -2.5235   -9.7178   -0.6612 C   0  0  0  0  0  0  0  0  0  0  0  0
   -4.4411   -8.0913   -1.1143 C   0  0  2  0  0  0  0  0  0  0  0  0
   -4.0369   -9.5261   -0.7440 C   0  0  0  0  0  0  0  0  0  0  0  0
   -5.4989   -8.0791   -2.2252 C   0  0  0  0  0  0  0  0  0  0  0  0
    0.0111   -2.7559    1.3014 H   0  0  0  0  0  0  0  0  0  0  0  0
    2.6933   -3.7583    0.2205 H   0  0  0  0  0  0  0  0  0  0  0  0
   -1.0017   -3.6850   -0.6476 H   0  0  0  0  0  0  0  0  0  0  0  0
    0.5504   -4.0555   -1.4116 H   0  0  0  0  0  0  0  0  0  0  0  0
    1.0404   -5.1313    2.3445 H   0  0  0  0  0  0  0  0  0  0  0  0
    3.3919   -3.4547    2.5824 H   0  0  0  0  0  0  0  0  0  0  0  0
    1.7929   -2.8974    3.0131 H   0  0  0  0  0  0  0  0  0  0  0  0
    0.9379   -0.6594    1.8462 H   0  0  0  0  0  0  0  0  0  0  0  0
   -0.5775   -1.3466   -1.5070 H   0  0  0  0  0  0  0  0  0  0  0  0
   -0.9605   -0.9114    0.1507 H   0  0  0  0  0  0  0  0  0  0  0  0
    2.1160   -0.8261   -1.9453 H   0  0  0  0  0  0  0  0  0  0  0  0
    3.1237   -1.8721   -0.9654 H   0  0  0  0  0  0  0  0  0  0  0  0
    1.8436   -2.5491   -1.9579 H   0  0  0  0  0  0  0  0  0  0  0  0
   -0.7397   -5.2486    1.0192 H   0  0  0  0  0  0  0  0  0  0  0  0
    3.1442   -5.9044    0.2902 H   0  0  0  0  0  0  0  0  0  0  0  0
    3.1417   -6.1711    2.0148 H   0  0  0  0  0  0  0  0  0  0  0  0
    3.7746   -1.5348    1.1260 H   0  0  0  0  0  0  0  0  0  0  0  0
    2.8133    0.6647   -0.1565 H   0  0  0  0  0  0  0  0  0  0  0  0
    2.5001    1.2335    1.4635 H   0  0  0  0  0  0  0  0  0  0  0  0
   -0.9212    1.1168   -1.1192 H   0  0  0  0  0  0  0  0  0  0  0  0
    0.5915    0.7354   -1.8873 H   0  0  0  0  0  0  0  0  0  0  0  0
    1.1025   -6.4372   -1.1054 H   0  0  0  0  0  0  0  0  0  0  0  0
    2.2215   -8.2517    1.7210 H   0  0  0  0  0  0  0  0  0  0  0  0
    2.4789   -8.0068    0.0033 H   0  0  0  0  0  0  0  0  0  0  0  0
    3.8147   -0.0572    2.7211 H   0  0  0  0  0  0  0  0  0  0  0  0
    0.1123    1.4978    1.0278 H   0  0  0  0  0  0  0  0  0  0  0  0
    0.0009   -7.2226    1.5870 H   0  0  0  0  0  0  0  0  0  0  0  0
   -0.6430   -7.4922   -2.1298 H   0  0  0  0  0  0  0  0  0  0  0  0
   -1.1878   -5.8456   -1.9015 H   0  0  0  0  0  0  0  0  0  0  0  0
    1.6782    2.5971   -1.0719 H   0  0  0  0  0  0  0  0  0  0  0  0
   -2.3199   -8.4268    1.0397 H   0  0  0  0  0  0  0  0  0  0  0  0
    0.0547   -9.2334    2.5031 H   0  0  0  0  0  0  0  0  0  0  0  0
    0.6009  -10.5581    1.4648 H   0  0  0  0  0  0  0  0  0  0  0  0
   -1.1160  -10.3262    1.8067 H   0  0  0  0  0  0  0  0  0  0  0  0
    1.1974   -9.7782   -0.5262 H   0  0  0  0  0  0  0  0  0  0  0  0
   -2.9303   -7.5998   -2.5562 H   0  0  0  0  0  0  0  0  0  0  0  0
   -3.5710   -6.2149   -1.6790 H   0  0  0  0  0  0  0  0  0  0  0  0
   -2.1176   -9.8178   -1.6767 H   0  0  0  0  0  0  0  0  0  0  0  0
   -2.3151  -10.6668   -0.1514 H   0  0  0  0  0  0  0  0  0  0  0  0
   -4.8765   -7.6109   -0.2281 H   0  0  0  0  0  0  0  0  0  0  0  0
   -4.4391  -10.2589   -1.4518 H   0  0  0  0  0  0  0  0  0  0  0  0
   -4.4808   -9.7713    0.2283 H   0  0  0  0  0  0  0  0  0  0  0  0
   -5.3043   -8.8539   -2.9753 H   0  0  0  0  0  0  0  0  0  0  0  0
   -6.4969   -8.2488   -1.8113 H   0  0  0  0  0  0  0  0  0  0  0  0
   -5.5156   -7.1179   -2.7521 H   0  0  0  0  0  0  0  0  0  0  0  0
  1  2  1  0  0  0  0
  1  3  1  0  0  0  0
  1  4  1  0  0  0  0
  1 32  1  1  0  0  0
  2  5  1  0  0  0  0
  2  6  1  0  0  0  0
  2 33  1  6  0  0  0
  3  7  1  0  0  0  0
  3  8  1  0  0  0  0
  3  9  1  6  0  0  0
  4 34  1  0  0  0  0
  4 35  1  0  0  0  0
  5 11  1  0  0  0  0
  5 10  1  0  0  0  0
  5 36  1  1  0  0  0
  6 12  1  0  0  0  0
  6 37  1  0  0  0  0
  6 38  1  0  0  0  0
  7 13  1  0  0  0  0
  7 12  1  0  0  0  0
  7 39  1  1  0  0  0
  8 14  1  0  0  0  0
  8 40  1  0  0  0  0
  8 41  1  0  0  0  0
  9 42  1  0  0  0  0
  9 43  1  0  0  0  0
  9 44  1  0  0  0  0
 10  4  1  0  0  0  0
 10 15  1  0  0  0  0
 10 45  1  1  0  0  0
 11 16  1  0  0  0  0
 11 46  1  0  0  0  0
 11 47  1  0  0  0  0
 12 17  1  0  0  0  0
 12 48  1  6  0  0  0
 13 18  1  0  0  0  0
 13 49  1  0  0  0  0
 13 50  1  0  0  0  0
 14 18  1  0  0  0  0
 14 51  1  0  0  0  0
 14 52  1  0  0  0  0
 15 19  1  0  0  0  0
 15 20  1  0  0  0  0
 15 53  1  6  0  0  0
 16 54  1  0  0  0  0
 16 55  1  0  0  0  0
 17 56  1  0  0  0  0
 18 21  1  0  0  0  0
 18 57  1  1  0  0  0
 19 16  1  0  0  0  0
 19 22  1  0  0  0  0
 19 58  1  1  0  0  0
 20 23  1  0  0  0  0
 20 59  1  0  0  0  0
 20 60  1  0  0  0  0
 21 61  1  0  0  0  0
 22 24  1  0  0  0  0
 22 25  1  0  0  0  0
 22 26  1  6  0  0  0
 23 27  1  0  0  0  0
 23 24  1  0  0  0  0
 24 28  1  0  0  0  0
 24 62  1  1  0  0  0
 25 63  1  0  0  0  0
 25 64  1  0  0  0  0
 25 65  1  0  0  0  0
 26 66  1  0  0  0  0
 27 29  1  0  0  0  0
 27 67  1  0  0  0  0
 27 68  1  0  0  0  0
 28 30  1  0  0  0  0
 28 69  1  0  0  0  0
 28 70  1  0  0  0  0
 29 31  1  0  0  0  0
 29 30  1  0  0  0  0
 29 71  1  1  0  0  0
 30 72  1  0  0  0  0
 30 73  1  0  0  0  0
 31 74  1  0  0  0  0
 31 75  1  0  0  0  0
 31 76  1  0  0  0  0
M  END
>  <Mol_ID>
4516

>  <Formula>
C27H45NO3

>  <MolWeight>
431.6511

>  <Cat>
S9281

>  <Name>
Peimine

>  <Synonyms>
Verticine, Wanpeinine A

>  <Target>
Immunology & Inflammation related

>  <Form>
free base

>  <CAS>
23496-41-5

>  <URL>
https://www.selleckchem.com/products/peimine.html

$$$$
