S9286 Neobavaisoflavone.cdx
 OpenBabel08302521213D

 42 44  0  0  0  0  0  0  0  0999 V2000
   -2.7198   -0.4734   -0.0051 C   0  0  0  0  0  0  0  0  0  0  0  0
   -4.1839   -0.3923   -0.0525 C   0  0  0  0  0  0  0  0  0  0  0  0
   -1.8918    0.5874    0.6272 C   0  0  0  0  0  0  0  0  0  0  0  0
   -2.0782   -1.5105   -0.5670 C   0  0  0  0  0  0  0  0  0  0  0  0
   -4.9709   -0.9602    0.9606 C   0  0  0  0  0  0  0  0  0  0  0  0
   -4.8132    0.2411   -1.1273 C   0  0  0  0  0  0  0  0  0  0  0  0
   -0.4293    0.3964    0.5739 C   0  0  0  0  0  0  0  0  0  0  0  0
   -2.3792    1.5764    1.1627 O   0  0  0  0  0  0  0  0  0  0  0  0
   -0.7169   -1.6961   -0.6247 O   0  0  0  0  0  0  0  0  0  0  0  0
   -6.3802   -0.8906    0.9252 C   0  0  0  0  0  0  0  0  0  0  0  0
   -6.2055    0.3052   -1.1846 C   0  0  0  0  0  0  0  0  0  0  0  0
    0.0836   -0.7335   -0.0616 C   0  0  0  0  0  0  0  0  0  0  0  0
    0.4346    1.3389    1.1452 C   0  0  0  0  0  0  0  0  0  0  0  0
   -6.9794   -0.2547   -0.1685 C   0  0  0  0  0  0  0  0  0  0  0  0
   -7.1579   -1.5289    2.0535 C   0  0  0  0  0  0  0  0  0  0  0  0
    1.4635   -0.9202   -0.1428 C   0  0  0  0  0  0  0  0  0  0  0  0
    1.8164    1.1504    1.0690 C   0  0  0  0  0  0  0  0  0  0  0  0
   -8.3306   -0.1288   -0.3299 O   0  0  0  0  0  0  0  0  0  0  0  0
   -7.4547   -2.9854    1.8038 C   0  0  0  0  0  0  0  0  0  0  0  0
    2.3175    0.0245    0.4197 C   0  0  0  0  0  0  0  0  0  0  0  0
   -7.0684   -4.0195    2.5776 C   0  0  0  0  0  0  0  0  0  0  0  0
    3.6598   -0.1916    0.3134 O   0  0  0  0  0  0  0  0  0  0  0  0
   -7.4277   -5.4379    2.2298 C   0  0  0  0  0  0  0  0  0  0  0  0
   -6.2559   -3.8444    3.8304 C   0  0  0  0  0  0  0  0  0  0  0  0
   -2.5825   -2.3327   -1.0600 H   0  0  0  0  0  0  0  0  0  0  0  0
   -4.4830   -1.4580    1.7978 H   0  0  0  0  0  0  0  0  0  0  0  0
   -4.2285    0.6951   -1.9239 H   0  0  0  0  0  0  0  0  0  0  0  0
   -6.6908    0.8016   -2.0212 H   0  0  0  0  0  0  0  0  0  0  0  0
    0.0325    2.2164    1.6468 H   0  0  0  0  0  0  0  0  0  0  0  0
   -6.5979   -1.3833    2.9862 H   0  0  0  0  0  0  0  0  0  0  0  0
   -8.1009   -0.9991    2.2233 H   0  0  0  0  0  0  0  0  0  0  0  0
    1.8726   -1.7924   -0.6437 H   0  0  0  0  0  0  0  0  0  0  0  0
    2.4789    1.8869    1.5152 H   0  0  0  0  0  0  0  0  0  0  0  0
   -8.7904   -0.4177    0.4714 H   0  0  0  0  0  0  0  0  0  0  0  0
   -8.0446   -3.1900    0.9116 H   0  0  0  0  0  0  0  0  0  0  0  0
    4.1334    0.5541    0.7198 H   0  0  0  0  0  0  0  0  0  0  0  0
   -6.5199   -6.0345    2.0866 H   0  0  0  0  0  0  0  0  0  0  0  0
   -8.0156   -5.8891    3.0363 H   0  0  0  0  0  0  0  0  0  0  0  0
   -8.0183   -5.5048    1.3101 H   0  0  0  0  0  0  0  0  0  0  0  0
   -5.2925   -3.3769    3.6032 H   0  0  0  0  0  0  0  0  0  0  0  0
   -6.7949   -3.2282    4.5567 H   0  0  0  0  0  0  0  0  0  0  0  0
   -6.0468   -4.8065    4.3100 H   0  0  0  0  0  0  0  0  0  0  0  0
  1  2  1  0  0  0  0
  1  3  1  0  0  0  0
  1  4  2  0  0  0  0
  2  5  2  0  0  0  0
  2  6  1  0  0  0  0
  3  7  1  0  0  0  0
  3  8  2  0  0  0  0
  4  9  1  0  0  0  0
  4 25  1  0  0  0  0
  5 10  1  0  0  0  0
  5 26  1  0  0  0  0
  6 11  2  0  0  0  0
  6 27  1  0  0  0  0
  7 12  2  0  0  0  0
  7 13  1  0  0  0  0
  9 12  1  0  0  0  0
 10 14  2  0  0  0  0
 10 15  1  0  0  0  0
 11 14  1  0  0  0  0
 11 28  1  0  0  0  0
 12 16  1  0  0  0  0
 13 17  2  0  0  0  0
 13 29  1  0  0  0  0
 14 18  1  0  0  0  0
 15 19  1  0  0  0  0
 15 30  1  0  0  0  0
 15 31  1  0  0  0  0
 16 20  2  0  0  0  0
 16 32  1  0  0  0  0
 17 20  1  0  0  0  0
 17 33  1  0  0  0  0
 18 34  1  0  0  0  0
 19 21  2  0  0  0  0
 19 35  1  0  0  0  0
 20 22  1  0  0  0  0
 21 23  1  0  0  0  0
 21 24  1  0  0  0  0
 22 36  1  0  0  0  0
 23 37  1  0  0  0  0
 23 38  1  0  0  0  0
 23 39  1  0  0  0  0
 24 40  1  0  0  0  0
 24 41  1  0  0  0  0
 24 42  1  0  0  0  0
M  END
>  <Mol_ID>
4521

>  <Formula>
C20H18O4

>  <MolWeight>
322.35452

>  <Cat>
S9286

>  <Name>
Neobavaisoflavone

>  <Target>
DNA/RNA Synthesis

>  <Form>
free base

>  <CAS>
41060-15-5

>  <URL>
https://www.selleckchem.com/products/neobavaisoflavone.html

$$$$
