S9284 Aloesin.cdx
 OpenBabel08302521213D

 50 52  0  0  0  0  0  0  0  0999 V2000
    1.1225   -1.3253   -0.4584 C   0  0  0  0  0  0  0  0  0  0  0  0
   -0.0236   -0.5298   -0.6580 C   0  0  0  0  0  0  0  0  0  0  0  0
    0.8888   -2.5970    0.3319 C   0  0  2  0  0  0  0  0  0  0  0  0
    2.3743   -0.6966   -0.4601 C   0  0  0  0  0  0  0  0  0  0  0  0
    0.0545    0.8699   -0.5889 C   0  0  0  0  0  0  0  0  0  0  0  0
   -1.2199   -1.2029   -0.7626 O   0  0  0  0  0  0  0  0  0  0  0  0
    1.6731   -2.4008    1.5095 O   0  0  0  0  0  0  0  0  0  0  0  0
    1.0537   -4.0452   -0.1146 C   0  0  1  0  0  0  0  0  0  0  0  0
    2.4669    0.6970   -0.4300 C   0  0  0  0  0  0  0  0  0  0  0  0
    3.5016   -1.4568   -0.3281 O   0  0  0  0  0  0  0  0  0  0  0  0
   -1.2348    1.6059   -0.5200 C   0  0  0  0  0  0  0  0  0  0  0  0
    1.3070    1.4925   -0.4230 C   0  0  0  0  0  0  0  0  0  0  0  0
   -2.3853   -0.5399   -0.4498 C   0  0  0  0  0  0  0  0  0  0  0  0
    1.0724   -2.9865    2.6518 C   0  0  1  0  0  0  0  0  0  0  0  0
    0.4980   -4.8972    1.0796 C   0  0  2  0  0  0  0  0  0  0  0  0
    0.2599   -4.3034   -1.2809 O   0  0  0  0  0  0  0  0  0  0  0  0
   -2.4506    0.7886   -0.3231 C   0  0  0  0  0  0  0  0  0  0  0  0
   -1.3298    2.8194   -0.5546 O   0  0  0  0  0  0  0  0  0  0  0  0
    1.4457    2.9662   -0.1411 C   0  0  0  0  0  0  0  0  0  0  0  0
   -3.5535   -1.4478   -0.2123 C   0  0  0  0  0  0  0  0  0  0  0  0
    1.0791   -4.5064    2.4752 C   0  0  2  0  0  0  0  0  0  0  0  0
    1.8891   -2.4319    3.8129 C   0  0  0  0  0  0  0  0  0  0  0  0
    0.6494   -6.2926    0.7897 O   0  0  0  0  0  0  0  0  0  0  0  0
   -4.2869   -1.7053   -1.5131 C   0  0  0  0  0  0  0  0  0  0  0  0
    0.3295   -5.1240    3.5237 O   0  0  0  0  0  0  0  0  0  0  0  0
    1.9374   -0.9999    3.6667 O   0  0  0  0  0  0  0  0  0  0  0  0
   -3.8340   -2.8664   -2.3585 C   0  0  0  0  0  0  0  0  0  0  0  0
   -5.1918   -0.9598   -1.8910 O   0  0  0  0  0  0  0  0  0  0  0  0
   -0.1610   -2.5420    0.6451 H   0  0  0  0  0  0  0  0  0  0  0  0
    2.0941   -4.3210   -0.3234 H   0  0  0  0  0  0  0  0  0  0  0  0
    3.4392    1.1726   -0.3079 H   0  0  0  0  0  0  0  0  0  0  0  0
    4.2616   -0.8745   -0.1583 H   0  0  0  0  0  0  0  0  0  0  0  0
    0.0479   -2.6028    2.7556 H   0  0  0  0  0  0  0  0  0  0  0  0
   -0.5915   -4.7578    1.1155 H   0  0  0  0  0  0  0  0  0  0  0  0
   -0.1729   -5.1691   -1.1504 H   0  0  0  0  0  0  0  0  0  0  0  0
   -3.3630    1.3215   -0.0828 H   0  0  0  0  0  0  0  0  0  0  0  0
    1.0328    3.5617   -0.9587 H   0  0  0  0  0  0  0  0  0  0  0  0
    0.9434    3.2185    0.8002 H   0  0  0  0  0  0  0  0  0  0  0  0
    2.4961    3.2571   -0.0253 H   0  0  0  0  0  0  0  0  0  0  0  0
   -3.2346   -2.4003    0.2285 H   0  0  0  0  0  0  0  0  0  0  0  0
   -4.2643   -1.0092    0.5012 H   0  0  0  0  0  0  0  0  0  0  0  0
    2.1020   -4.8919    2.5463 H   0  0  0  0  0  0  0  0  0  0  0  0
    1.4456   -2.6640    4.7809 H   0  0  0  0  0  0  0  0  0  0  0  0
    2.9243   -2.7823    3.7775 H   0  0  0  0  0  0  0  0  0  0  0  0
    1.4710   -6.6076    1.2079 H   0  0  0  0  0  0  0  0  0  0  0  0
   -0.5972   -4.8284    3.4648 H   0  0  0  0  0  0  0  0  0  0  0  0
    2.1301   -0.8526    2.7183 H   0  0  0  0  0  0  0  0  0  0  0  0
   -4.7001   -3.4880   -2.6007 H   0  0  0  0  0  0  0  0  0  0  0  0
   -3.3712   -2.4891   -3.2733 H   0  0  0  0  0  0  0  0  0  0  0  0
   -3.1084   -3.4822   -1.8215 H   0  0  0  0  0  0  0  0  0  0  0  0
  1  2  1  0  0  0  0
  1  4  2  0  0  0  0
  2  5  2  0  0  0  0
  2  6  1  0  0  0  0
  3  1  1  0  0  0  0
  3  7  1  0  0  0  0
  3  8  1  0  0  0  0
  3 29  1  1  0  0  0
  4  9  1  0  0  0  0
  4 10  1  0  0  0  0
  5 11  1  0  0  0  0
  5 12  1  0  0  0  0
  6 13  1  0  0  0  0
  7 14  1  0  0  0  0
  8 15  1  0  0  0  0
  8 16  1  0  0  0  0
  8 30  1  6  0  0  0
  9 12  2  0  0  0  0
  9 31  1  0  0  0  0
 10 32  1  0  0  0  0
 11 17  1  0  0  0  0
 11 18  2  0  0  0  0
 12 19  1  0  0  0  0
 13 20  1  0  0  0  0
 13 17  2  0  0  0  0
 14 21  1  0  0  0  0
 14 22  1  0  0  0  0
 14 33  1  1  0  0  0
 15 23  1  0  0  0  0
 15 21  1  0  0  0  0
 15 34  1  1  0  0  0
 16 35  1  0  0  0  0
 17 36  1  0  0  0  0
 19 37  1  0  0  0  0
 19 38  1  0  0  0  0
 19 39  1  0  0  0  0
 20 24  1  0  0  0  0
 20 40  1  0  0  0  0
 20 41  1  0  0  0  0
 21 25  1  0  0  0  0
 21 42  1  1  0  0  0
 22 26  1  0  0  0  0
 22 43  1  0  0  0  0
 22 44  1  0  0  0  0
 23 45  1  0  0  0  0
 24 27  1  0  0  0  0
 24 28  2  0  0  0  0
 25 46  1  0  0  0  0
 26 47  1  0  0  0  0
 27 48  1  0  0  0  0
 27 49  1  0  0  0  0
 27 50  1  0  0  0  0
M  END
>  <Mol_ID>
4519

>  <Formula>
C19H22O9

>  <MolWeight>
394.37258

>  <Cat>
S9284

>  <Name>
Aloesin

>  <Synonyms>
Aloe resin B

>  <Target>
Tyrosinase

>  <Form>
free base

>  <CAS>
30861-27-9

>  <URL>
https://www.selleckchem.com/products/aloesin.html

$$$$
