S9283 Aristolone.cdx
 OpenBabel08302521213D

 38 40  0  0  0  0  0  0  0  0999 V2000
    1.0891   -0.6305   -0.3881 C   0  0  2  0  0  0  0  0  0  0  0  0
    0.6567    0.7991   -0.1739 C   0  0  1  0  0  0  0  0  0  0  0  0
   -0.7862    1.1654   -0.2008 C   0  0  0  0  0  0  0  0  0  0  0  0
   -1.7473    0.1519   -0.7005 C   0  0  0  0  0  0  0  0  0  0  0  0
   -1.3732   -1.0867   -1.0589 C   0  0  0  0  0  0  0  0  0  0  0  0
   -2.3697   -2.0969   -1.5876 C   0  0  0  0  0  0  0  0  0  0  0  0
   -2.4626   -3.3267   -0.7002 C   0  0  0  0  0  0  0  0  0  0  0  0
   -1.2951   -3.5138    0.2625 C   0  0  0  0  0  0  0  0  0  0  0  0
    0.0820   -2.9242   -0.1364 C   0  0  2  0  0  0  0  0  0  0  0  0
    0.0612   -1.5967   -0.9797 C   0  0  2  0  0  0  0  0  0  0  0  0
    1.2435    0.0101    0.9945 C   0  0  0  0  0  0  0  0  0  0  0  0
   -1.1675    2.2706    0.1651 O   0  0  0  0  0  0  0  0  0  0  0  0
    0.5303   -1.7195   -2.4734 C   0  0  0  0  0  0  0  0  0  0  0  0
    1.0365   -3.9988   -0.6578 C   0  0  0  0  0  0  0  0  0  0  0  0
    0.3570   -0.2518    2.1769 C   0  0  0  0  0  0  0  0  0  0  0  0
    2.6830    0.2919    1.3898 C   0  0  0  0  0  0  0  0  0  0  0  0
    2.0486   -0.7977   -0.8805 H   0  0  0  0  0  0  0  0  0  0  0  0
    1.2854    1.5635   -0.6196 H   0  0  0  0  0  0  0  0  0  0  0  0
   -2.7783    0.4801   -0.7563 H   0  0  0  0  0  0  0  0  0  0  0  0
   -3.3637   -1.6593   -1.7329 H   0  0  0  0  0  0  0  0  0  0  0  0
   -2.0779   -2.4319   -2.5884 H   0  0  0  0  0  0  0  0  0  0  0  0
   -2.5770   -4.2200   -1.3268 H   0  0  0  0  0  0  0  0  0  0  0  0
   -3.3892   -3.2687   -0.1116 H   0  0  0  0  0  0  0  0  0  0  0  0
   -1.2084   -4.5786    0.5136 H   0  0  0  0  0  0  0  0  0  0  0  0
   -1.5904   -3.0313    1.2056 H   0  0  0  0  0  0  0  0  0  0  0  0
    0.5154   -2.6691    0.8409 H   0  0  0  0  0  0  0  0  0  0  0  0
    0.7756   -0.7204   -2.8706 H   0  0  0  0  0  0  0  0  0  0  0  0
    1.4469   -2.3070   -2.5786 H   0  0  0  0  0  0  0  0  0  0  0  0
   -0.2030   -2.1367   -3.1650 H   0  0  0  0  0  0  0  0  0  0  0  0
    2.0698   -3.6365   -0.6029 H   0  0  0  0  0  0  0  0  0  0  0  0
    0.9850   -4.9021   -0.0405 H   0  0  0  0  0  0  0  0  0  0  0  0
    0.8156   -4.2885   -1.6876 H   0  0  0  0  0  0  0  0  0  0  0  0
    0.7177   -1.1195    2.7507 H   0  0  0  0  0  0  0  0  0  0  0  0
    0.3955    0.6146    2.8532 H   0  0  0  0  0  0  0  0  0  0  0  0
   -0.6899   -0.4229    1.9328 H   0  0  0  0  0  0  0  0  0  0  0  0
    3.3750    0.1694    0.5472 H   0  0  0  0  0  0  0  0  0  0  0  0
    2.7898    1.3150    1.7603 H   0  0  0  0  0  0  0  0  0  0  0  0
    3.0107   -0.4008    2.1729 H   0  0  0  0  0  0  0  0  0  0  0  0
  1  2  1  0  0  0  0
  1 10  1  0  0  0  0
  1 11  1  0  0  0  0
  1 17  1  6  0  0  0
  2  3  1  0  0  0  0
  2 11  1  0  0  0  0
  2 18  1  6  0  0  0
  3  4  1  0  0  0  0
  3 12  2  0  0  0  0
  4  5  2  0  0  0  0
  4 19  1  0  0  0  0
  5  6  1  0  0  0  0
  5 10  1  0  0  0  0
  6  7  1  0  0  0  0
  6 20  1  0  0  0  0
  6 21  1  0  0  0  0
  7  8  1  0  0  0  0
  7 22  1  0  0  0  0
  7 23  1  0  0  0  0
  8  9  1  0  0  0  0
  8 24  1  0  0  0  0
  8 25  1  0  0  0  0
  9 10  1  0  0  0  0
  9 14  1  0  0  0  0
  9 26  1  1  0  0  0
 10 13  1  6  0  0  0
 11 15  1  0  0  0  0
 11 16  1  0  0  0  0
 13 27  1  0  0  0  0
 13 28  1  0  0  0  0
 13 29  1  0  0  0  0
 14 30  1  0  0  0  0
 14 31  1  0  0  0  0
 14 32  1  0  0  0  0
 15 33  1  0  0  0  0
 15 34  1  0  0  0  0
 15 35  1  0  0  0  0
 16 36  1  0  0  0  0
 16 37  1  0  0  0  0
 16 38  1  0  0  0  0
M  END
>  <Mol_ID>
4518

>  <Formula>
C15H22O

>  <MolWeight>
218.33458

>  <Cat>
S9283

>  <Name>
Aristolone

>  <Target>
Others

>  <Form>
free base

>  <CAS>
25274-27-5

>  <URL>
https://www.selleckchem.com/products/aristolone.html

$$$$
