S9291 Isopimpinellin.cdx
 OpenBabel08302521213D

 28 30  0  0  0  0  0  0  0  0999 V2000
   -0.6560   -0.4101   -0.0004 C   0  0  0  0  0  0  0  0  0  0  0  0
   -0.5762    1.0114    0.0083 C   0  0  0  0  0  0  0  0  0  0  0  0
    0.4562   -1.2749   -0.0080 C   0  0  0  0  0  0  0  0  0  0  0  0
   -1.9379   -1.0340   -0.0073 O   0  0  0  0  0  0  0  0  0  0  0  0
    0.7047    1.6279   -0.0066 C   0  0  0  0  0  0  0  0  0  0  0  0
   -1.8657    1.7180    0.0419 C   0  0  0  0  0  0  0  0  0  0  0  0
    1.6781   -0.6072   -0.0089 C   0  0  0  0  0  0  0  0  0  0  0  0
    0.5007   -2.6347   -0.0135 O   0  0  0  0  0  0  0  0  0  0  0  0
   -3.1422   -0.3666   -0.0051 C   0  0  0  0  0  0  0  0  0  0  0  0
    1.8362    0.7708   -0.0103 C   0  0  0  0  0  0  0  0  0  0  0  0
    1.0597    2.9397   -0.0179 O   0  0  0  0  0  0  0  0  0  0  0  0
   -3.0430    1.0873    0.0321 C   0  0  0  0  0  0  0  0  0  0  0  0
    2.9034   -1.2178   -0.0098 O   0  0  0  0  0  0  0  0  0  0  0  0
   -0.7060   -3.3810   -0.0054 C   0  0  0  0  0  0  0  0  0  0  0  0
   -4.2239   -0.9378   -0.0238 O   0  0  0  0  0  0  0  0  0  0  0  0
    3.2486    0.9926   -0.0150 C   0  0  0  0  0  0  0  0  0  0  0  0
    0.1332    4.0022   -0.0338 C   0  0  0  0  0  0  0  0  0  0  0  0
    3.8447   -0.2436   -0.0127 C   0  0  0  0  0  0  0  0  0  0  0  0
   -1.9128    2.7914    0.0877 H   0  0  0  0  0  0  0  0  0  0  0  0
   -3.9830    1.6253    0.0580 H   0  0  0  0  0  0  0  0  0  0  0  0
   -1.2798   -3.1956    0.9084 H   0  0  0  0  0  0  0  0  0  0  0  0
   -1.2952   -3.1904   -0.9080 H   0  0  0  0  0  0  0  0  0  0  0  0
   -0.4420   -4.4421   -0.0114 H   0  0  0  0  0  0  0  0  0  0  0  0
    3.7565    1.9465   -0.0186 H   0  0  0  0  0  0  0  0  0  0  0  0
   -0.5040    3.9628   -0.9219 H   0  0  0  0  0  0  0  0  0  0  0  0
   -0.4348    4.0362    0.9004 H   0  0  0  0  0  0  0  0  0  0  0  0
    0.6980    4.9378   -0.0940 H   0  0  0  0  0  0  0  0  0  0  0  0
    4.8710   -0.5846   -0.0114 H   0  0  0  0  0  0  0  0  0  0  0  0
  1  2  1  0  0  0  0
  1  3  2  0  0  0  0
  1  4  1  0  0  0  0
  2  5  2  0  0  0  0
  2  6  1  0  0  0  0
  3  7  1  0  0  0  0
  3  8  1  0  0  0  0
  4  9  1  0  0  0  0
  5 10  1  0  0  0  0
  5 11  1  0  0  0  0
  6 12  2  0  0  0  0
  6 19  1  0  0  0  0
  7 13  1  0  0  0  0
  7 10  2  0  0  0  0
  8 14  1  0  0  0  0
  9 15  2  0  0  0  0
  9 12  1  0  0  0  0
 10 16  1  0  0  0  0
 11 17  1  0  0  0  0
 12 20  1  0  0  0  0
 13 18  1  0  0  0  0
 14 21  1  0  0  0  0
 14 22  1  0  0  0  0
 14 23  1  0  0  0  0
 16 18  2  0  0  0  0
 16 24  1  0  0  0  0
 17 25  1  0  0  0  0
 17 26  1  0  0  0  0
 17 27  1  0  0  0  0
 18 28  1  0  0  0  0
M  END
>  <Mol_ID>
4525

>  <Formula>
C13H10O5

>  <MolWeight>
246.2155

>  <Cat>
S9291

>  <Name>
Isopimpinellin

>  <Synonyms>
5,8-Dimethoxypsoralen

>  <Target>
Others

>  <Form>
free base

>  <CAS>
482-27-9

>  <URL>
https://www.selleckchem.com/products/isopimpinellin.html

$$$$
