S9298 Corylin.cdx
 OpenBabel08302521213D

 40 43  0  0  0  0  0  0  0  0999 V2000
    2.2643   -1.4545   -0.3375 C   0  0  0  0  0  0  0  0  0  0  0  0
    1.6713   -2.5113   -1.0244 C   0  0  0  0  0  0  0  0  0  0  0  0
    0.2794   -2.5644   -1.1305 C   0  0  0  0  0  0  0  0  0  0  0  0
   -0.5030   -1.5587   -0.5485 C   0  0  0  0  0  0  0  0  0  0  0  0
    0.1030   -0.4992    0.1253 C   0  0  0  0  0  0  0  0  0  0  0  0
    1.4926   -0.4463    0.2338 C   0  0  0  0  0  0  0  0  0  0  0  0
   -1.9748   -1.6060   -0.6328 C   0  0  0  0  0  0  0  0  0  0  0  0
   -2.7077   -0.4764   -0.0013 C   0  0  0  0  0  0  0  0  0  0  0  0
   -1.9831    0.4751    0.6027 C   0  0  0  0  0  0  0  0  0  0  0  0
   -0.6123    0.5191    0.7036 O   0  0  0  0  0  0  0  0  0  0  0  0
   -4.1743   -0.3968   -0.0176 C   0  0  0  0  0  0  0  0  0  0  0  0
   -2.5448   -2.5341   -1.1927 O   0  0  0  0  0  0  0  0  0  0  0  0
   -4.9208   -0.9802    1.0140 C   0  0  0  0  0  0  0  0  0  0  0  0
   -6.3154   -0.9186    0.9952 C   0  0  0  0  0  0  0  0  0  0  0  0
   -6.9684   -0.2838   -0.0591 C   0  0  0  0  0  0  0  0  0  0  0  0
   -6.2366    0.3348   -1.0781 C   0  0  0  0  0  0  0  0  0  0  0  0
   -4.8376    0.2756   -1.0551 C   0  0  0  0  0  0  0  0  0  0  0  0
    3.6185   -1.3703   -0.1993 O   0  0  0  0  0  0  0  0  0  0  0  0
   -8.3378   -0.2801   -0.0202 O   0  0  0  0  0  0  0  0  0  0  0  0
   -9.0125   -0.0707   -1.2820 C   0  0  0  0  0  0  0  0  0  0  0  0
   -8.2693    0.8558   -2.2216 C   0  0  0  0  0  0  0  0  0  0  0  0
   -6.9480    1.0482   -2.1313 C   0  0  0  0  0  0  0  0  0  0  0  0
   -9.2172   -1.4398   -1.9461 C   0  0  0  0  0  0  0  0  0  0  0  0
  -10.3787    0.5319   -0.9310 C   0  0  0  0  0  0  0  0  0  0  0  0
    2.2692   -3.2959   -1.4792 H   0  0  0  0  0  0  0  0  0  0  0  0
   -0.1943   -3.3870   -1.6630 H   0  0  0  0  0  0  0  0  0  0  0  0
    1.9728    0.3717    0.7621 H   0  0  0  0  0  0  0  0  0  0  0  0
   -2.4134    1.3385    1.0978 H   0  0  0  0  0  0  0  0  0  0  0  0
   -4.4252   -1.4974    1.8325 H   0  0  0  0  0  0  0  0  0  0  0  0
   -6.8942   -1.3788    1.7910 H   0  0  0  0  0  0  0  0  0  0  0  0
   -4.2632    0.7390   -1.8538 H   0  0  0  0  0  0  0  0  0  0  0  0
    4.0277   -2.1482   -0.6140 H   0  0  0  0  0  0  0  0  0  0  0  0
   -8.8301    1.3431   -3.0139 H   0  0  0  0  0  0  0  0  0  0  0  0
   -6.4064    1.6878   -2.8173 H   0  0  0  0  0  0  0  0  0  0  0  0
   -8.2565   -1.9204   -2.1678 H   0  0  0  0  0  0  0  0  0  0  0  0
   -9.7515   -2.1216   -1.2745 H   0  0  0  0  0  0  0  0  0  0  0  0
   -9.7805   -1.3600   -2.8820 H   0  0  0  0  0  0  0  0  0  0  0  0
  -10.9249   -0.1202   -0.2387 H   0  0  0  0  0  0  0  0  0  0  0  0
  -10.2652    1.4960   -0.4216 H   0  0  0  0  0  0  0  0  0  0  0  0
  -11.0012    0.6826   -1.8202 H   0  0  0  0  0  0  0  0  0  0  0  0
  1  2  2  0  0  0  0
  1 18  1  0  0  0  0
  2  3  1  0  0  0  0
  2 25  1  0  0  0  0
  3  4  2  0  0  0  0
  3 26  1  0  0  0  0
  4  5  1  0  0  0  0
  4  7  1  0  0  0  0
  5  6  2  0  0  0  0
  6  1  1  0  0  0  0
  6 27  1  0  0  0  0
  7  8  1  0  0  0  0
  7 12  2  0  0  0  0
  8  9  2  0  0  0  0
  8 11  1  0  0  0  0
  9 10  1  0  0  0  0
  9 28  1  0  0  0  0
 10  5  1  0  0  0  0
 11 13  2  0  0  0  0
 13 14  1  0  0  0  0
 13 29  1  0  0  0  0
 14 15  2  0  0  0  0
 14 30  1  0  0  0  0
 15 16  1  0  0  0  0
 15 19  1  0  0  0  0
 16 17  2  0  0  0  0
 17 11  1  0  0  0  0
 17 31  1  0  0  0  0
 18 32  1  0  0  0  0
 19 20  1  0  0  0  0
 20 21  1  0  0  0  0
 20 23  1  0  0  0  0
 20 24  1  0  0  0  0
 21 22  2  0  0  0  0
 21 33  1  0  0  0  0
 22 16  1  0  0  0  0
 22 34  1  0  0  0  0
 23 35  1  0  0  0  0
 23 36  1  0  0  0  0
 23 37  1  0  0  0  0
 24 38  1  0  0  0  0
 24 39  1  0  0  0  0
 24 40  1  0  0  0  0
M  END
>  <Mol_ID>
4531

>  <Formula>
C20H16O4

>  <MolWeight>
320.33864

>  <Cat>
S9298

>  <Name>
Corylin

>  <Target>
Immunology & Inflammation related

>  <Form>
free base

>  <CAS>
53947-92-5

>  <URL>
https://www.selleckchem.com/products/corylin.html

$$$$
