S9294 Gelsemine.cdx
 OpenBabel08302521213D

 46 51  0  0  0  0  0  0  0  0999 V2000
    3.2364    1.2665    0.2430 C   0  0  0  0  0  0  0  0  0  0  0  0
    2.1862    2.1814    0.4631 C   0  0  0  0  0  0  0  0  0  0  0  0
    0.8076    1.8086    0.3920 C   0  0  0  0  0  0  0  0  0  0  0  0
    0.4699    0.5068    0.0945 C   0  0  0  0  0  0  0  0  0  0  0  0
    1.5477   -0.3427   -0.1897 C   0  0  0  0  0  0  0  0  0  0  0  0
    2.9091   -0.0213   -0.0904 C   0  0  0  0  0  0  0  0  0  0  0  0
    1.1654   -1.4868   -0.8301 N   0  0  0  0  0  0  0  0  0  0  0  0
   -0.1535   -1.4399   -1.1161 C   0  0  0  0  0  0  0  0  0  0  0  0
   -0.8884   -0.1251   -0.4125 C   0  0  1  0  0  0  0  0  0  0  0  0
   -2.1378   -1.2275    0.3194 C   0  0  3  0  0  0  0  0  0  0  0  0
   -3.7717   -1.5031   -0.6361 C   0  0  3  0  0  0  0  0  0  0  0  0
   -4.5146    0.0613   -0.4643 C   0  0  3  0  0  0  0  0  0  0  0  0
   -4.2673    1.4529   -1.3325 C   0  0  0  0  0  0  0  0  0  0  0  0
   -2.6771    1.9765   -1.3359 O   0  0  0  0  0  0  0  0  0  0  0  0
   -1.5859    0.9126   -1.4765 C   0  0  3  0  0  0  0  0  0  0  0  0
   -3.0272   -0.7083    1.3248 C   0  0  3  0  0  0  0  0  0  0  0  0
   -4.0095   -2.6754    0.2418 N   0  0  0  0  0  0  0  0  0  0  0  0
   -3.6923   -2.1367    1.5458 C   0  0  0  0  0  0  0  0  0  0  0  0
   -3.1919    0.0438    2.6008 C   0  0  0  0  0  0  0  0  0  0  0  0
   -2.3449    0.8227    3.2737 C   0  0  0  0  0  0  0  0  0  0  0  0
   -3.2967   -3.7634   -0.4486 C   0  0  0  0  0  0  0  0  0  0  0  0
   -0.6538   -2.4024   -1.6849 O   0  0  0  0  0  0  0  0  0  0  0  0
   -2.5763   -0.0556   -1.6470 C   0  0  0  0  0  0  0  0  0  0  0  0
   -3.2681    0.2675    0.1337 C   0  0  3  0  0  0  0  0  0  0  0  0
    4.2797    1.5739    0.2685 H   0  0  0  0  0  0  0  0  0  0  0  0
    2.4724    3.2218    0.6364 H   0  0  0  0  0  0  0  0  0  0  0  0
    0.0680    2.6011    0.4777 H   0  0  0  0  0  0  0  0  0  0  0  0
    3.6813   -0.7477   -0.3777 H   0  0  0  0  0  0  0  0  0  0  0  0
    1.7784   -2.1960   -1.1978 H   0  0  0  0  0  0  0  0  0  0  0  0
   -1.6010   -2.1276    0.6186 H   0  0  0  0  0  0  0  0  0  0  0  0
   -4.8183   -1.7964   -0.8298 H   0  0  0  0  0  0  0  0  0  0  0  0
   -5.3894    0.0859    0.1878 H   0  0  0  0  0  0  0  0  0  0  0  0
   -4.5999    1.3884   -2.3803 H   0  0  0  0  0  0  0  0  0  0  0  0
   -4.8009    2.2878   -0.8680 H   0  0  0  0  0  0  0  0  0  0  0  0
   -0.9770    1.1280   -2.3840 H   0  0  0  0  0  0  0  0  0  0  0  0
   -3.0129   -2.8023    2.1067 H   0  0  0  0  0  0  0  0  0  0  0  0
   -4.6186   -2.0805    2.1224 H   0  0  0  0  0  0  0  0  0  0  0  0
   -4.2143   -0.0135    3.0169 H   0  0  0  0  0  0  0  0  0  0  0  0
   -2.6974    1.3318    4.1674 H   0  0  0  0  0  0  0  0  0  0  0  0
   -1.3374    1.0066    2.9353 H   0  0  0  0  0  0  0  0  0  0  0  0
   -4.0165   -4.2754   -1.1044 H   0  0  0  0  0  0  0  0  0  0  0  0
   -2.5531   -3.4071   -1.1710 H   0  0  0  0  0  0  0  0  0  0  0  0
   -2.8135   -4.5062    0.1860 H   0  0  0  0  0  0  0  0  0  0  0  0
   -2.2370   -1.0548   -1.9335 H   0  0  0  0  0  0  0  0  0  0  0  0
   -3.2326    0.1057   -2.5120 H   0  0  0  0  0  0  0  0  0  0  0  0
   -3.0782    1.2890    0.5221 H   0  0  0  0  0  0  0  0  0  0  0  0
  1  6  2  0  0  0  0
  1 25  1  0  0  0  0
  2  1  1  0  0  0  0
  2 26  1  0  0  0  0
  3  2  2  0  0  0  0
  3 27  1  0  0  0  0
  4  3  1  0  0  0  0
  5  4  2  0  0  0  0
  5  7  1  0  0  0  0
  6  5  1  0  0  0  0
  6 28  1  0  0  0  0
  7 29  1  0  0  0  0
  8  7  1  0  0  0  0
  8 22  2  0  0  0  0
  9  8  1  6  0  0  0
  9  4  1  0  0  0  0
  9 15  1  0  0  0  0
 10  9  1  0  0  0  0
 10 11  1  0  0  0  0
 10 16  1  0  0  0  0
 10 30  1  0  0  0  0
 11 12  1  0  0  0  0
 11 17  1  0  0  0  0
 11 31  1  0  0  0  0
 12 13  1  0  0  0  0
 12 24  1  0  0  0  0
 12 32  1  0  0  0  0
 13 33  1  0  0  0  0
 13 34  1  0  0  0  0
 14 13  1  0  0  0  0
 15 14  1  0  0  0  0
 15 23  1  0  0  0  0
 15 35  1  0  0  0  0
 16 19  1  0  0  0  0
 16 24  1  0  0  0  0
 17 18  1  0  0  0  0
 17 21  1  0  0  0  0
 18 16  1  0  0  0  0
 18 36  1  0  0  0  0
 18 37  1  0  0  0  0
 19 20  2  0  0  0  0
 19 38  1  0  0  0  0
 20 39  1  0  0  0  0
 20 40  1  0  0  0  0
 21 41  1  0  0  0  0
 21 42  1  0  0  0  0
 21 43  1  0  0  0  0
 23 44  1  0  0  0  0
 23 45  1  0  0  0  0
 24 23  1  0  0  0  0
 24 46  1  0  0  0  0
M  END
>  <Mol_ID>
4528

>  <Formula>
C20H22N2O2

>  <MolWeight>
322.40088

>  <Cat>
S9294

>  <Name>
Gelsemine

>  <Target>
GlyR

>  <Form>
free base

>  <CAS>
509-15-9

>  <URL>
https://www.selleckchem.com/products/gelsemine.html

$$$$
