S9297 Kirenol.cdx
 OpenBabel08302521213D

 58 60  0  0  0  0  0  0  0  0999 V2000
    0.8828    1.8216   -0.3902 C   0  0  1  0  0  0  0  0  0  0  0  0
   -0.6079    2.2254   -0.3831 C   0  0  1  0  0  0  0  0  0  0  0  0
    1.6926    3.1573   -0.3132 C   0  0  1  0  0  0  0  0  0  0  0  0
    1.1368    1.0930    0.9735 C   0  0  0  0  0  0  0  0  0  0  0  0
    1.2029    0.8879   -1.5596 C   0  0  0  0  0  0  0  0  0  0  0  0
   -1.0468    3.4560   -1.1685 C   0  0  0  0  0  0  0  0  0  0  0  0
   -1.7016    1.1901   -0.4666 C   0  0  0  0  0  0  0  0  0  0  0  0
    3.2397    2.9911   -0.0899 C   0  0  1  0  0  0  0  0  0  0  0  0
    1.2453    4.2876   -1.3027 C   0  0  0  0  0  0  0  0  0  0  0  0
    2.5925    0.8452    1.3372 C   0  0  1  0  0  0  0  0  0  0  0  0
   -2.2260    4.0325   -0.8197 C   0  0  0  0  0  0  0  0  0  0  0  0
   -0.0269    4.0053   -2.1060 C   0  0  0  0  0  0  0  0  0  0  0  0
   -3.0212    1.8579   -0.0194 C   0  0  0  0  0  0  0  0  0  0  0  0
    3.6258    1.6007    0.5098 C   0  0  0  0  0  0  0  0  0  0  0  0
    4.0309    3.1828   -1.4073 C   0  0  0  0  0  0  0  0  0  0  0  0
    3.6748    4.0905    0.9160 C   0  0  0  0  0  0  0  0  0  0  0  0
    2.7691    1.1524    2.7227 O   0  0  0  0  0  0  0  0  0  0  0  0
   -2.9567    3.3963    0.3791 C   0  0  2  0  0  0  0  0  0  0  0  0
    5.4114    2.8795   -1.2567 O   0  0  0  0  0  0  0  0  0  0  0  0
   -4.4107    3.8449    0.7476 C   0  0  2  0  0  0  0  0  0  0  0  0
   -4.8734    3.1503    2.0648 C   0  0  0  0  0  0  0  0  0  0  0  0
   -5.3654    3.5207   -0.2676 O   0  0  0  0  0  0  0  0  0  0  0  0
   -6.1802    3.5773    2.4201 O   0  0  0  0  0  0  0  0  0  0  0  0
   -2.1137    3.8452    1.6285 C   0  0  0  0  0  0  0  0  0  0  0  0
   -0.6636    2.5293    0.6507 H   0  0  0  0  0  0  0  0  0  0  0  0
    1.3462    3.5778    0.6500 H   0  0  0  0  0  0  0  0  0  0  0  0
    0.5894    0.1428    1.0114 H   0  0  0  0  0  0  0  0  0  0  0  0
    0.6980    1.6791    1.7919 H   0  0  0  0  0  0  0  0  0  0  0  0
    0.7644    1.2201   -2.4963 H   0  0  0  0  0  0  0  0  0  0  0  0
    2.2744    0.7613   -1.7233 H   0  0  0  0  0  0  0  0  0  0  0  0
    0.8049   -0.1195   -1.3599 H   0  0  0  0  0  0  0  0  0  0  0  0
   -1.8023    0.7946   -1.4875 H   0  0  0  0  0  0  0  0  0  0  0  0
   -1.4983    0.3284    0.1824 H   0  0  0  0  0  0  0  0  0  0  0  0
    1.0540    5.1867   -0.6957 H   0  0  0  0  0  0  0  0  0  0  0  0
    2.0220    4.5862   -2.0050 H   0  0  0  0  0  0  0  0  0  0  0  0
    2.7957   -0.2273    1.2422 H   0  0  0  0  0  0  0  0  0  0  0  0
   -2.5647    4.9677   -1.2549 H   0  0  0  0  0  0  0  0  0  0  0  0
    0.1817    3.2931   -2.9102 H   0  0  0  0  0  0  0  0  0  0  0  0
   -0.3731    4.9248   -2.5922 H   0  0  0  0  0  0  0  0  0  0  0  0
   -3.7116    1.7566   -0.8727 H   0  0  0  0  0  0  0  0  0  0  0  0
   -3.4493    1.2495    0.7812 H   0  0  0  0  0  0  0  0  0  0  0  0
    4.5574    1.7003    1.0986 H   0  0  0  0  0  0  0  0  0  0  0  0
    3.8950    0.9312   -0.3242 H   0  0  0  0  0  0  0  0  0  0  0  0
    3.9724    4.2057   -1.7815 H   0  0  0  0  0  0  0  0  0  0  0  0
    3.6373    2.5202   -2.1863 H   0  0  0  0  0  0  0  0  0  0  0  0
    3.3734    5.0861    0.5701 H   0  0  0  0  0  0  0  0  0  0  0  0
    4.7583    4.1046    1.0676 H   0  0  0  0  0  0  0  0  0  0  0  0
    3.2146    3.9317    1.8984 H   0  0  0  0  0  0  0  0  0  0  0  0
    2.1601    0.5846    3.2260 H   0  0  0  0  0  0  0  0  0  0  0  0
    5.8177    3.6156   -0.7685 H   0  0  0  0  0  0  0  0  0  0  0  0
   -4.4621    4.9337    0.8871 H   0  0  0  0  0  0  0  0  0  0  0  0
   -4.2224    3.3699    2.9102 H   0  0  0  0  0  0  0  0  0  0  0  0
   -4.9191    2.0642    1.9559 H   0  0  0  0  0  0  0  0  0  0  0  0
   -5.0666    3.9710   -1.0768 H   0  0  0  0  0  0  0  0  0  0  0  0
   -6.7194    3.4266    1.6108 H   0  0  0  0  0  0  0  0  0  0  0  0
   -2.5671    4.7099    2.1317 H   0  0  0  0  0  0  0  0  0  0  0  0
   -1.1130    4.2403    1.3872 H   0  0  0  0  0  0  0  0  0  0  0  0
   -2.0003    3.0369    2.3507 H   0  0  0  0  0  0  0  0  0  0  0  0
  1  2  1  0  0  0  0
  1  3  1  0  0  0  0
  1  4  1  0  0  0  0
  1  5  1  6  0  0  0
  2  6  1  0  0  0  0
  2  7  1  0  0  0  0
  2 25  1  1  0  0  0
  3  8  1  0  0  0  0
  3  9  1  0  0  0  0
  3 26  1  1  0  0  0
  4 10  1  0  0  0  0
  4 27  1  0  0  0  0
  4 28  1  0  0  0  0
  5 29  1  0  0  0  0
  5 30  1  0  0  0  0
  5 31  1  0  0  0  0
  6 11  2  0  0  0  0
  6 12  1  0  0  0  0
  7 13  1  0  0  0  0
  7 32  1  0  0  0  0
  7 33  1  0  0  0  0
  8 14  1  0  0  0  0
  8 15  1  6  0  0  0
  8 16  1  0  0  0  0
  9 12  1  0  0  0  0
  9 34  1  0  0  0  0
  9 35  1  0  0  0  0
 10 17  1  0  0  0  0
 10 14  1  0  0  0  0
 10 36  1  6  0  0  0
 11 18  1  0  0  0  0
 11 37  1  0  0  0  0
 12 38  1  0  0  0  0
 12 39  1  0  0  0  0
 13 18  1  0  0  0  0
 13 40  1  0  0  0  0
 13 41  1  0  0  0  0
 14 42  1  0  0  0  0
 14 43  1  0  0  0  0
 15 19  1  0  0  0  0
 15 44  1  0  0  0  0
 15 45  1  0  0  0  0
 16 46  1  0  0  0  0
 16 47  1  0  0  0  0
 16 48  1  0  0  0  0
 17 49  1  0  0  0  0
 18 20  1  0  0  0  0
 18 24  1  1  0  0  0
 19 50  1  0  0  0  0
 20 21  1  0  0  0  0
 20 22  1  0  0  0  0
 20 51  1  1  0  0  0
 21 23  1  0  0  0  0
 21 52  1  0  0  0  0
 21 53  1  0  0  0  0
 22 54  1  0  0  0  0
 23 55  1  0  0  0  0
 24 56  1  0  0  0  0
 24 57  1  0  0  0  0
 24 58  1  0  0  0  0
M  END
>  <Mol_ID>
4530

>  <Formula>
C20H34O4

>  <MolWeight>
338.48156

>  <Cat>
S9297

>  <Name>
Kirenol

>  <Target>
Immunology & Inflammation related

>  <Form>
free base

>  <CAS>
52659-56-0

>  <URL>
https://www.selleckchem.com/products/kirenol.html

$$$$
