S9309 Micheliolide.cdx
 OpenBabel08302521213D

 38 40  0  0  0  0  0  0  0  0999 V2000
   -1.4526    1.6692   -0.2548 O   0  0  0  0  0  0  0  0  0  0  0  0
    2.3103    2.8904   -2.1886 O   0  0  0  0  0  0  0  0  0  0  0  0
   -3.6520    0.9650    0.0534 O   0  0  0  0  0  0  0  0  0  0  0  0
    1.1021    1.6142   -0.5372 C   0  0  2  0  0  0  0  0  0  0  0  0
    1.6740    3.0388   -0.8825 C   0  0  1  0  0  0  0  0  0  0  0  0
   -0.2027    1.0787    0.1188 C   0  0  2  0  0  0  0  0  0  0  0  0
    2.2131    1.1425    0.4152 C   0  0  0  0  0  0  0  0  0  0  0  0
   -0.4022   -0.4001   -0.3088 C   0  0  1  0  0  0  0  0  0  0  0  0
    2.8459    3.3251    0.0934 C   0  0  0  0  0  0  0  0  0  0  0  0
    2.6715    2.3281    1.2060 C   0  0  0  0  0  0  0  0  0  0  0  0
    0.6177   -1.4530    0.1747 C   0  0  0  0  0  0  0  0  0  0  0  0
    2.6979   -0.1076    0.4502 C   0  0  0  0  0  0  0  0  0  0  0  0
    2.0351   -1.2045   -0.3413 C   0  0  0  0  0  0  0  0  0  0  0  0
   -1.8187   -0.6050    0.0876 C   0  0  0  0  0  0  0  0  0  0  0  0
   -2.4645    0.7355   -0.0199 C   0  0  0  0  0  0  0  0  0  0  0  0
    3.8643   -0.5456    1.2888 C   0  0  0  0  0  0  0  0  0  0  0  0
   -2.4426   -1.7435    0.4454 C   0  0  0  0  0  0  0  0  0  0  0  0
    0.8390    4.2972   -1.0412 C   0  0  0  0  0  0  0  0  0  0  0  0
    2.9178    2.1293   -2.1330 H   0  0  0  0  0  0  0  0  0  0  0  0
    1.1612    1.0765   -1.4924 H   0  0  0  0  0  0  0  0  0  0  0  0
   -0.1449    1.1614    1.2156 H   0  0  0  0  0  0  0  0  0  0  0  0
   -0.4041   -0.4489   -1.4166 H   0  0  0  0  0  0  0  0  0  0  0  0
    2.8538    4.3471    0.4871 H   0  0  0  0  0  0  0  0  0  0  0  0
    3.8200    3.1677   -0.3922 H   0  0  0  0  0  0  0  0  0  0  0  0
    1.8835    2.6511    1.8978 H   0  0  0  0  0  0  0  0  0  0  0  0
    3.5899    2.1959    1.7775 H   0  0  0  0  0  0  0  0  0  0  0  0
    0.6068   -1.5226    1.2709 H   0  0  0  0  0  0  0  0  0  0  0  0
    0.3067   -2.4395   -0.1988 H   0  0  0  0  0  0  0  0  0  0  0  0
    2.0281   -0.9618   -1.4114 H   0  0  0  0  0  0  0  0  0  0  0  0
    2.6134   -2.1289   -0.2544 H   0  0  0  0  0  0  0  0  0  0  0  0
    3.5660   -1.3623    1.9515 H   0  0  0  0  0  0  0  0  0  0  0  0
    4.6682   -0.8964    0.6350 H   0  0  0  0  0  0  0  0  0  0  0  0
    4.2754    0.2478    1.9142 H   0  0  0  0  0  0  0  0  0  0  0  0
   -1.9067   -2.6965    0.4764 H   0  0  0  0  0  0  0  0  0  0  0  0
   -3.5013   -1.7757    0.6910 H   0  0  0  0  0  0  0  0  0  0  0  0
   -0.0032    4.1658   -1.7223 H   0  0  0  0  0  0  0  0  0  0  0  0
    0.4986    4.7098   -0.0881 H   0  0  0  0  0  0  0  0  0  0  0  0
    1.4706    5.0743   -1.5090 H   0  0  0  0  0  0  0  0  0  0  0  0
  1 15  1  0  0  0  0
  2 19  1  0  0  0  0
  3 15  2  0  0  0  0
  4  5  1  0  0  0  0
  4  6  1  0  0  0  0
  4  7  1  0  0  0  0
  4 20  1  6  0  0  0
  5  9  1  0  0  0  0
  5 18  1  0  0  0  0
  5  2  1  6  0  0  0
  6  1  1  0  0  0  0
  6  8  1  0  0  0  0
  6 21  1  1  0  0  0
  7 10  1  0  0  0  0
  7 12  2  0  0  0  0
  8 11  1  0  0  0  0
  8 14  1  0  0  0  0
  8 22  1  6  0  0  0
  9 10  1  0  0  0  0
  9 23  1  0  0  0  0
  9 24  1  0  0  0  0
 10 25  1  0  0  0  0
 10 26  1  0  0  0  0
 11 13  1  0  0  0  0
 11 27  1  0  0  0  0
 11 28  1  0  0  0  0
 12 13  1  0  0  0  0
 12 16  1  0  0  0  0
 13 29  1  0  0  0  0
 13 30  1  0  0  0  0
 14 15  1  0  0  0  0
 14 17  2  0  0  0  0
 16 31  1  0  0  0  0
 16 32  1  0  0  0  0
 16 33  1  0  0  0  0
 17 34  1  0  0  0  0
 17 35  1  0  0  0  0
 18 36  1  0  0  0  0
 18 37  1  0  0  0  0
 18 38  1  0  0  0  0
M  END
>  <Mol_ID>
4537

>  <Formula>
C15H20O3

>  <MolWeight>
248.3175

>  <Cat>
S9309

>  <Name>
Micheliolide

>  <Target>
Immunology & Inflammation related

>  <Form>
free base

>  <CAS>
68370-47-8

>  <URL>
https://www.selleckchem.com/products/micheliolide.html

$$$$
