S9311 Germacrone.cdx
 OpenBabel08302521213D

 38 38  0  0  0  0  0  0  0  0999 V2000
    2.2886   -4.2474   -0.4801 C   0  0  0  0  0  0  0  0  0  0  0  0
    0.8246   -4.1693   -0.8263 C   0  0  0  0  0  0  0  0  0  0  0  0
    2.5392   -4.4235    1.0039 C   0  0  0  0  0  0  0  0  0  0  0  0
    3.2296   -4.2100   -1.4482 C   0  0  0  0  0  0  0  0  0  0  0  0
    0.0789   -2.8107   -0.8227 C   0  0  0  0  0  0  0  0  0  0  0  0
    0.2152   -5.2220   -1.0318 O   0  0  0  0  0  0  0  0  0  0  0  0
    2.3926   -3.1108    1.7066 C   0  0  0  0  0  0  0  0  0  0  0  0
    4.7074   -4.1030   -1.1578 C   0  0  0  0  0  0  0  0  0  0  0  0
    2.9348   -4.2686   -2.9277 C   0  0  0  0  0  0  0  0  0  0  0  0
    0.8905   -1.5288   -0.8347 C   0  0  0  0  0  0  0  0  0  0  0  0
    1.3430   -2.7507    2.4658 C   0  0  0  0  0  0  0  0  0  0  0  0
    1.0103   -0.6458    0.1838 C   0  0  0  0  0  0  0  0  0  0  0  0
    1.1051   -1.2780    2.7014 C   0  0  0  0  0  0  0  0  0  0  0  0
    0.2903   -3.7100    2.9473 C   0  0  0  0  0  0  0  0  0  0  0  0
    0.3216   -0.6446    1.5336 C   0  0  0  0  0  0  0  0  0  0  0  0
    1.5469   -1.1988   -2.1507 C   0  0  0  0  0  0  0  0  0  0  0  0
    1.8497   -5.1804    1.3913 H   0  0  0  0  0  0  0  0  0  0  0  0
    3.5361   -4.8317    1.2066 H   0  0  0  0  0  0  0  0  0  0  0  0
   -0.6074   -2.8280    0.0297 H   0  0  0  0  0  0  0  0  0  0  0  0
   -0.5582   -2.8089   -1.7187 H   0  0  0  0  0  0  0  0  0  0  0  0
    3.1113   -2.3513    1.4014 H   0  0  0  0  0  0  0  0  0  0  0  0
    5.2295   -5.0008   -1.4991 H   0  0  0  0  0  0  0  0  0  0  0  0
    5.1207   -3.2339   -1.6820 H   0  0  0  0  0  0  0  0  0  0  0  0
    4.9386   -3.9615   -0.1015 H   0  0  0  0  0  0  0  0  0  0  0  0
    1.9581   -4.7099   -3.1478 H   0  0  0  0  0  0  0  0  0  0  0  0
    2.9849   -3.2751   -3.3764 H   0  0  0  0  0  0  0  0  0  0  0  0
    3.6808   -4.8906   -3.4374 H   0  0  0  0  0  0  0  0  0  0  0  0
    1.6545    0.2208    0.0254 H   0  0  0  0  0  0  0  0  0  0  0  0
    2.0581   -0.7527    2.8463 H   0  0  0  0  0  0  0  0  0  0  0  0
    0.5438   -1.1359    3.6332 H   0  0  0  0  0  0  0  0  0  0  0  0
   -0.3418   -4.0490    2.1220 H   0  0  0  0  0  0  0  0  0  0  0  0
    0.7533   -4.5828    3.4210 H   0  0  0  0  0  0  0  0  0  0  0  0
   -0.3580   -3.2510    3.7003 H   0  0  0  0  0  0  0  0  0  0  0  0
    0.1392    0.4075    1.7914 H   0  0  0  0  0  0  0  0  0  0  0  0
   -0.6711   -1.0995    1.4543 H   0  0  0  0  0  0  0  0  0  0  0  0
    1.2111   -0.2229   -2.5172 H   0  0  0  0  0  0  0  0  0  0  0  0
    2.6368   -1.1866   -2.0534 H   0  0  0  0  0  0  0  0  0  0  0  0
    1.2752   -1.9253   -2.9229 H   0  0  0  0  0  0  0  0  0  0  0  0
  1  2  1  0  0  0  0
  1  3  1  0  0  0  0
  1  4  2  0  0  0  0
  2  5  1  0  0  0  0
  2  6  2  0  0  0  0
  3  7  1  0  0  0  0
  3 17  1  0  0  0  0
  3 18  1  0  0  0  0
  4  8  1  0  0  0  0
  4  9  1  0  0  0  0
  5 10  1  0  0  0  0
  5 19  1  0  0  0  0
  5 20  1  0  0  0  0
  7 11  2  0  0  0  0
  7 21  1  0  0  0  0
  8 22  1  0  0  0  0
  8 23  1  0  0  0  0
  8 24  1  0  0  0  0
  9 25  1  0  0  0  0
  9 26  1  0  0  0  0
  9 27  1  0  0  0  0
 10 12  2  0  0  0  0
 10 16  1  0  0  0  0
 11 13  1  0  0  0  0
 11 14  1  0  0  0  0
 12 15  1  0  0  0  0
 12 28  1  0  0  0  0
 13 15  1  0  0  0  0
 13 29  1  0  0  0  0
 13 30  1  0  0  0  0
 14 31  1  0  0  0  0
 14 32  1  0  0  0  0
 14 33  1  0  0  0  0
 15 34  1  0  0  0  0
 15 35  1  0  0  0  0
 16 36  1  0  0  0  0
 16 37  1  0  0  0  0
 16 38  1  0  0  0  0
M  END
>  <Mol_ID>
4539

>  <Formula>
C15H22O

>  <MolWeight>
218.33458

>  <Cat>
S9311

>  <Name>
Germacrone

>  <Target>
Immunology & Inflammation related

>  <Form>
free base

>  <CAS>
6902-91-6

>  <URL>
https://www.selleckchem.com/products/germacrone.html

$$$$
