S9315 Praeruptorin A.cdx
 OpenBabel08302521213D

 50 52  0  0  0  0  0  0  0  0999 V2000
   -0.2866   -0.0922   -0.1744 C   0  0  0  0  0  0  0  0  0  0  0  0
   -0.8154    1.3084   -0.2688 C   0  0  1  0  0  0  0  0  0  0  0  0
    1.1055   -0.3426   -0.1178 C   0  0  0  0  0  0  0  0  0  0  0  0
   -1.1569   -1.1702   -0.0798 C   0  0  0  0  0  0  0  0  0  0  0  0
   -2.3479    1.4479   -0.4439 C   0  0  2  0  0  0  0  0  0  0  0  0
   -0.3260    2.1687    0.8093 O   0  0  0  0  0  0  0  0  0  0  0  0
    1.6367   -1.6216    0.0567 C   0  0  0  0  0  0  0  0  0  0  0  0
    1.9883    0.7642   -0.2210 O   0  0  0  0  0  0  0  0  0  0  0  0
   -2.5157   -1.0810   -0.1470 O   0  0  0  0  0  0  0  0  0  0  0  0
   -0.6317   -2.4633    0.0803 C   0  0  0  0  0  0  0  0  0  0  0  0
   -3.1846    0.1922   -0.0577 C   0  0  0  0  0  0  0  0  0  0  0  0
   -2.6765    1.8925   -1.8114 O   0  0  0  0  0  0  0  0  0  0  0  0
   -0.3419    1.7498    2.0985 C   0  0  0  0  0  0  0  0  0  0  0  0
    0.7525   -2.6929    0.1549 C   0  0  0  0  0  0  0  0  0  0  0  0
    3.0815   -1.7932    0.1584 C   0  0  0  0  0  0  0  0  0  0  0  0
    3.3670    0.6356   -0.1031 C   0  0  0  0  0  0  0  0  0  0  0  0
   -4.4498    0.0572   -0.9401 C   0  0  0  0  0  0  0  0  0  0  0  0
   -3.7529    0.3629    1.3702 C   0  0  0  0  0  0  0  0  0  0  0  0
   -2.5607    3.2446   -1.9746 C   0  0  0  0  0  0  0  0  0  0  0  0
    0.3139    2.7389    3.0110 C   0  0  0  0  0  0  0  0  0  0  0  0
   -0.7912    0.6882    2.5066 O   0  0  0  0  0  0  0  0  0  0  0  0
    3.8869   -0.7272    0.0895 C   0  0  0  0  0  0  0  0  0  0  0  0
    4.1239    1.5967   -0.1604 O   0  0  0  0  0  0  0  0  0  0  0  0
   -3.1335    3.7587   -3.2495 C   0  0  0  0  0  0  0  0  0  0  0  0
   -2.0809    3.9888   -1.1342 O   0  0  0  0  0  0  0  0  0  0  0  0
   -2.6174    4.8626   -3.8348 C   0  0  0  0  0  0  0  0  0  0  0  0
   -4.3967    3.1577   -3.7925 C   0  0  0  0  0  0  0  0  0  0  0  0
   -1.3990    5.6482   -3.4531 C   0  0  0  0  0  0  0  0  0  0  0  0
   -0.3478    1.7274   -1.1703 H   0  0  0  0  0  0  0  0  0  0  0  0
   -2.6932    2.2537    0.2167 H   0  0  0  0  0  0  0  0  0  0  0  0
   -1.3102   -3.3092    0.1733 H   0  0  0  0  0  0  0  0  0  0  0  0
    1.1183   -3.7076    0.3033 H   0  0  0  0  0  0  0  0  0  0  0  0
    3.4950   -2.7869    0.3057 H   0  0  0  0  0  0  0  0  0  0  0  0
   -4.2019   -0.1846   -1.9780 H   0  0  0  0  0  0  0  0  0  0  0  0
   -5.0883   -0.7624   -0.5836 H   0  0  0  0  0  0  0  0  0  0  0  0
   -5.0512    0.9740   -0.9199 H   0  0  0  0  0  0  0  0  0  0  0  0
   -4.3971   -0.4788    1.6480 H   0  0  0  0  0  0  0  0  0  0  0  0
   -2.9812    0.4113    2.1317 H   0  0  0  0  0  0  0  0  0  0  0  0
   -4.3531    1.2795    1.4436 H   0  0  0  0  0  0  0  0  0  0  0  0
   -0.3769    2.9910    3.8204 H   0  0  0  0  0  0  0  0  0  0  0  0
    1.2230    2.2904    3.4214 H   0  0  0  0  0  0  0  0  0  0  0  0
    0.5797    3.6570    2.4824 H   0  0  0  0  0  0  0  0  0  0  0  0
    4.9644   -0.8120    0.1742 H   0  0  0  0  0  0  0  0  0  0  0  0
   -3.1437    5.2810   -4.6937 H   0  0  0  0  0  0  0  0  0  0  0  0
   -4.5630    2.1302   -3.4616 H   0  0  0  0  0  0  0  0  0  0  0  0
   -5.2585    3.7579   -3.4750 H   0  0  0  0  0  0  0  0  0  0  0  0
   -4.3885    3.1469   -4.8899 H   0  0  0  0  0  0  0  0  0  0  0  0
   -0.7764    5.8000   -4.3406 H   0  0  0  0  0  0  0  0  0  0  0  0
   -1.6914    6.6321   -3.0723 H   0  0  0  0  0  0  0  0  0  0  0  0
   -0.7688    5.1605   -2.7075 H   0  0  0  0  0  0  0  0  0  0  0  0
  1  2  1  0  0  0  0
  1  3  1  0  0  0  0
  1  4  2  0  0  0  0
  2  5  1  0  0  0  0
  2 29  1  6  0  0  0
  2  6  1  0  0  0  0
  3  7  2  0  0  0  0
  3  8  1  0  0  0  0
  4  9  1  0  0  0  0
  4 10  1  0  0  0  0
  5 11  1  0  0  0  0
  5 12  1  0  0  0  0
  5 30  1  1  0  0  0
  6 13  1  0  0  0  0
  7 14  1  0  0  0  0
  7 15  1  0  0  0  0
  8 16  1  0  0  0  0
  9 11  1  0  0  0  0
 10 14  2  0  0  0  0
 10 31  1  0  0  0  0
 11 17  1  0  0  0  0
 11 18  1  0  0  0  0
 12 19  1  0  0  0  0
 13 20  1  0  0  0  0
 13 21  2  0  0  0  0
 14 32  1  0  0  0  0
 15 22  2  0  0  0  0
 15 33  1  0  0  0  0
 16 23  2  0  0  0  0
 16 22  1  0  0  0  0
 17 34  1  0  0  0  0
 17 35  1  0  0  0  0
 17 36  1  0  0  0  0
 18 37  1  0  0  0  0
 18 38  1  0  0  0  0
 18 39  1  0  0  0  0
 19 24  1  0  0  0  0
 19 25  2  0  0  0  0
 20 40  1  0  0  0  0
 20 41  1  0  0  0  0
 20 42  1  0  0  0  0
 22 43  1  0  0  0  0
 24 26  2  0  0  0  0
 24 27  1  0  0  0  0
 26 28  1  0  0  0  0
 26 44  1  0  0  0  0
 27 45  1  0  0  0  0
 27 46  1  0  0  0  0
 27 47  1  0  0  0  0
 28 48  1  0  0  0  0
 28 49  1  0  0  0  0
 28 50  1  0  0  0  0
M  END
>  <Mol_ID>
4543

>  <Formula>
C21H22O7

>  <MolWeight>
386.39518

>  <Cat>
S9315

>  <Name>
Praeruptorin A

>  <Target>
Akt,Calcium Channel,p38 MAPK

>  <Form>
free base

>  <CAS>
73069-25-7

>  <URL>
https://www.selleckchem.com/products/praeruptorin-a-1.html

$$$$
