S9310 Isorhychophylline.cdx
 OpenBabel08302521212D

 56 59  0  0  0  0  0  0  0  0999 V2000
    3.6615    3.9951    0.0000 N   0  0  0  0  0  0  0  0  0  0  0  0
    7.2930    7.5419    0.0000 C   0  0  0  0  0  0  0  0  0  0  0  0
    4.8578    7.5485    0.0000 C   0  0  0  0  0  0  0  0  0  0  0  0
    4.8578    6.1265    0.0000 C   0  0  2  0  0  0  0  0  0  0  0  0
    0.0020    6.1053    0.0000 C   0  0  0  0  0  0  0  0  0  0  0  0
    0.0000    4.7007    0.0000 C   0  0  0  0  0  0  0  0  0  0  0  0
    1.2138    3.9995    0.0000 C   0  0  0  0  0  0  0  0  0  0  0  0
    1.2107    6.8062    0.0000 C   0  0  0  0  0  0  0  0  0  0  0  0
    4.8644    4.7098    0.0000 C   0  0  0  0  0  0  0  0  0  0  0  0
    2.4254    6.1116    0.0000 C   0  0  0  0  0  0  0  0  0  0  0  0
    2.4303    4.7013    0.0000 C   0  0  0  0  0  0  0  0  0  0  0  0
    7.2980    6.1318    0.0000 N   0  0  3  0  0  0  0  0  0  0  0  0
    6.0928    5.4191    0.0000 C   0  0  1  0  0  0  0  0  0  0  0  0
    6.1073    4.0271    0.0000 C   0  0  0  0  0  0  0  0  0  0  0  0
    7.3242    3.3369    0.0000 C   0  0  1  0  0  0  0  0  0  0  0  0
    8.5293    4.0494    0.0000 C   0  0  2  0  0  0  0  0  0  0  0  0
    8.5176    5.4522    0.0000 C   0  0  0  0  0  0  0  0  0  0  0  0
    7.3126    2.0021    0.0000 C   0  0  0  0  0  0  0  0  0  0  0  0
    9.6755    3.3886    0.0000 C   0  0  0  0  0  0  0  0  0  0  0  0
    4.8506    3.2967    0.0000 O   0  0  0  0  0  0  0  0  0  0  0  0
    8.4658    1.3370    0.0000 C   0  0  0  0  0  0  0  0  0  0  0  0
   10.8286    4.0606    0.0000 C   0  0  0  0  0  0  0  0  0  0  0  0
    6.1524    1.3370    0.0000 C   0  0  0  0  0  0  0  0  0  0  0  0
    4.9921    2.0092    0.0000 O   0  0  0  0  0  0  0  0  0  0  0  0
    3.8319    1.3440    0.0000 C   0  0  0  0  0  0  0  0  0  0  0  0
    9.6188    2.0092    0.0000 O   0  0  0  0  0  0  0  0  0  0  0  0
   10.7719    1.3440    0.0000 C   0  0  0  0  0  0  0  0  0  0  0  0
    6.1453    0.0000    0.0000 O   0  0  0  0  0  0  0  0  0  0  0  0
    3.6690    3.0106    0.0000 H   0  0  0  0  0  0  0  0  0  0  0  0
    8.0493    8.2988    0.0000 H   0  0  0  0  0  0  0  0  0  0  0  0
    8.2824    7.1344    0.0000 H   0  0  0  0  0  0  0  0  0  0  0  0
    4.1022    8.3061    0.0000 H   0  0  0  0  0  0  0  0  0  0  0  0
    3.8690    7.1397    0.0000 H   0  0  0  0  0  0  0  0  0  0  0  0
   -0.8919    6.6211    0.0000 H   0  0  0  0  0  0  0  0  0  0  0  0
   -0.8942    4.1855    0.0000 H   0  0  0  0  0  0  0  0  0  0  0  0
    1.2135    2.9675    0.0000 H   0  0  0  0  0  0  0  0  0  0  0  0
    1.2076    7.8382    0.0000 H   0  0  0  0  0  0  0  0  0  0  0  0
    5.1699    4.8777    0.0000 H   0  0  0  0  0  0  0  0  0  0  0  0
    5.1855    3.4837    0.0000 H   0  0  0  0  0  0  0  0  0  0  0  0
    6.1162    2.9571    0.0000 H   0  0  0  0  0  0  0  0  0  0  0  0
    6.3973    2.8024    0.0000 H   0  0  0  0  0  0  0  0  0  0  0  0
    8.5352    2.9794    0.0000 H   0  0  0  0  0  0  0  0  0  0  0  0
    9.4379    5.9981    0.0000 H   0  0  0  0  0  0  0  0  0  0  0  0
    9.4496    4.9265    0.0000 H   0  0  0  0  0  0  0  0  0  0  0  0
    9.6780    2.3186    0.0000 H   0  0  0  0  0  0  0  0  0  0  0  0
   10.6039    2.8566    0.0000 H   0  0  0  0  0  0  0  0  0  0  0  0
    8.4682    0.3050    0.0000 H   0  0  0  0  0  0  0  0  0  0  0  0
   11.7574    3.5294    0.0000 H   0  0  0  0  0  0  0  0  0  0  0  0
   10.8243    5.1306    0.0000 H   0  0  0  0  0  0  0  0  0  0  0  0
   11.7531    4.5994    0.0000 H   0  0  0  0  0  0  0  0  0  0  0  0
    2.9069    1.8818    0.0000 H   0  0  0  0  0  0  0  0  0  0  0  0
    3.8287    0.2740    0.0000 H   0  0  0  0  0  0  0  0  0  0  0  0
    2.9036    0.8118    0.0000 H   0  0  0  0  0  0  0  0  0  0  0  0
   10.7723    0.2740    0.0000 H   0  0  0  0  0  0  0  0  0  0  0  0
   11.6984    1.8793    0.0000 H   0  0  0  0  0  0  0  0  0  0  0  0
   11.6987    0.8093    0.0000 H   0  0  0  0  0  0  0  0  0  0  0  0
  1  9  1  0  0  0  0
  1 29  1  0  0  0  0
  2  3  1  0  0  0  0
  2 30  1  0  0  0  0
  2 31  1  0  0  0  0
  3 32  1  0  0  0  0
  3 33  1  0  0  0  0
  4  9  1  6  0  0  0
  4 13  1  0  0  0  0
  4 10  1  0  0  0  0
  4  3  1  0  0  0  0
  5  6  2  0  0  0  0
  5 34  1  0  0  0  0
  6  7  1  0  0  0  0
  6 35  1  0  0  0  0
  7 11  2  0  0  0  0
  7 36  1  0  0  0  0
  8  5  1  0  0  0  0
  8 37  1  0  0  0  0
  9 20  2  0  0  0  0
 10  8  2  0  0  0  0
 10 11  1  0  0  0  0
 11  1  1  0  0  0  0
 12 17  1  0  0  0  0
 12 13  1  0  0  0  0
 12  2  1  0  0  0  0
 13 14  1  0  0  0  0
 13 38  1  6  0  0  0
 14 15  1  0  0  0  0
 14 39  1  0  0  0  0
 14 40  1  0  0  0  0
 15 16  1  0  0  0  0
 15 18  1  0  0  0  0
 15 41  1  6  0  0  0
 16 17  1  0  0  0  0
 16 19  1  0  0  0  0
 16 42  1  1  0  0  0
 17 43  1  0  0  0  0
 17 44  1  0  0  0  0
 18 21  2  0  0  0  0
 18 23  1  0  0  0  0
 19 22  1  0  0  0  0
 19 45  1  0  0  0  0
 19 46  1  0  0  0  0
 21 26  1  0  0  0  0
 21 47  1  0  0  0  0
 22 48  1  0  0  0  0
 22 49  1  0  0  0  0
 22 50  1  0  0  0  0
 23 24  1  0  0  0  0
 23 28  2  0  0  0  0
 24 25  1  0  0  0  0
 25 51  1  0  0  0  0
 25 52  1  0  0  0  0
 25 53  1  0  0  0  0
 26 27  1  0  0  0  0
 27 54  1  0  0  0  0
 27 55  1  0  0  0  0
 27 56  1  0  0  0  0
M  END
>  <Mol_ID>
4538

>  <Formula>
C22H28N2O4

>  <MolWeight>
384.46872

>  <Cat>
S9310

>  <Name>
Isorhychophylline

>  <Synonyms>
IsoRhy, 7-Isorhyncophylline

>  <Target>
Autophagy

>  <Form>
free base

>  <CAS>
6859-01-4

>  <URL>
https://www.selleckchem.com/products/isorhychophylline.html

$$$$
