S9314 Atractylenolide II.cdx
 OpenBabel08302521213D

 37 39  0  0  0  0  0  0  0  0999 V2000
    1.9073    0.1762    0.4889 C   0  0  0  0  0  0  0  0  0  0  0  0
    3.6585    0.4082   -0.8820 C   0  0  0  0  0  0  0  0  0  0  0  0
    2.9664   -0.5001    0.0381 C   0  0  0  0  0  0  0  0  0  0  0  0
    1.8355    1.5382   -0.0879 C   0  0  1  0  0  0  0  0  0  0  0  0
    2.9747    1.5909   -0.9526 O   0  0  0  0  0  0  0  0  0  0  0  0
   -0.7447    1.1788   -0.1765 C   0  0  1  0  0  0  0  0  0  0  0  0
   -0.4206   -0.3117    0.2085 C   0  0  1  0  0  0  0  0  0  0  0  0
    0.7356   -0.3652    1.2255 C   0  0  0  0  0  0  0  0  0  0  0  0
    0.5306    1.7545   -0.8890 C   0  0  0  0  0  0  0  0  0  0  0  0
   -1.5937   -1.2037    0.5432 C   0  0  0  0  0  0  0  0  0  0  0  0
    4.6630    0.1358   -1.5127 O   0  0  0  0  0  0  0  0  0  0  0  0
   -1.4350   -2.5237    0.7482 C   0  0  0  0  0  0  0  0  0  0  0  0
   -1.9672    1.2417   -1.1392 C   0  0  0  0  0  0  0  0  0  0  0  0
    3.2883   -1.9379    0.1851 C   0  0  0  0  0  0  0  0  0  0  0  0
   -1.0499    2.0822    1.0476 C   0  0  0  0  0  0  0  0  0  0  0  0
   -2.9556   -0.6033    0.3523 C   0  0  0  0  0  0  0  0  0  0  0  0
   -2.9811    0.0947   -1.0022 C   0  0  0  0  0  0  0  0  0  0  0  0
    1.9525    2.3045    0.6844 H   0  0  0  0  0  0  0  0  0  0  0  0
   -0.0468   -0.7629   -0.7282 H   0  0  0  0  0  0  0  0  0  0  0  0
    0.9310   -1.3811    1.5794 H   0  0  0  0  0  0  0  0  0  0  0  0
    0.5356    0.2257    2.1254 H   0  0  0  0  0  0  0  0  0  0  0  0
    0.6411    1.2850   -1.8773 H   0  0  0  0  0  0  0  0  0  0  0  0
    0.4071    2.8260   -1.0968 H   0  0  0  0  0  0  0  0  0  0  0  0
   -2.2829   -3.1927    0.8617 H   0  0  0  0  0  0  0  0  0  0  0  0
   -0.4535   -2.9910    0.7378 H   0  0  0  0  0  0  0  0  0  0  0  0
   -1.6323    1.2633   -2.1838 H   0  0  0  0  0  0  0  0  0  0  0  0
   -2.5042    2.1886   -0.9963 H   0  0  0  0  0  0  0  0  0  0  0  0
    2.3790   -2.5413    0.2570 H   0  0  0  0  0  0  0  0  0  0  0  0
    3.8784   -2.1078    1.0886 H   0  0  0  0  0  0  0  0  0  0  0  0
    3.8464   -2.3173   -0.6766 H   0  0  0  0  0  0  0  0  0  0  0  0
   -1.8515    1.6826    1.6721 H   0  0  0  0  0  0  0  0  0  0  0  0
   -1.3563    3.0843    0.7221 H   0  0  0  0  0  0  0  0  0  0  0  0
   -0.1797    2.2311    1.6935 H   0  0  0  0  0  0  0  0  0  0  0  0
   -3.1909    0.0893    1.1649 H   0  0  0  0  0  0  0  0  0  0  0  0
   -3.7314   -1.3780    0.3713 H   0  0  0  0  0  0  0  0  0  0  0  0
   -2.7657   -0.6479   -1.7840 H   0  0  0  0  0  0  0  0  0  0  0  0
   -3.9901    0.4669   -1.2114 H   0  0  0  0  0  0  0  0  0  0  0  0
  2  3  1  0  0  0  0
  2  5  1  0  0  0  0
  3  1  2  0  0  0  0
  4  1  1  0  0  0  0
  4  9  1  0  0  0  0
  4 18  1  1  0  0  0
  5  4  1  0  0  0  0
  6  7  1  0  0  0  0
  6 15  1  1  0  0  0
  7  8  1  0  0  0  0
  7 19  1  6  0  0  0
  8  1  1  0  0  0  0
  8 20  1  0  0  0  0
  8 21  1  0  0  0  0
  9  6  1  0  0  0  0
  9 22  1  0  0  0  0
  9 23  1  0  0  0  0
 10  7  1  0  0  0  0
 11  2  2  0  0  0  0
 12 10  2  0  0  0  0
 12 24  1  0  0  0  0
 12 25  1  0  0  0  0
 13  6  1  0  0  0  0
 13 17  1  0  0  0  0
 13 26  1  0  0  0  0
 13 27  1  0  0  0  0
 14  3  1  0  0  0  0
 14 28  1  0  0  0  0
 14 29  1  0  0  0  0
 14 30  1  0  0  0  0
 15 31  1  0  0  0  0
 15 32  1  0  0  0  0
 15 33  1  0  0  0  0
 16 10  1  0  0  0  0
 16 34  1  0  0  0  0
 16 35  1  0  0  0  0
 17 16  1  0  0  0  0
 17 36  1  0  0  0  0
 17 37  1  0  0  0  0
M  END
>  <Mol_ID>
4542

>  <Formula>
C15H20O2

>  <MolWeight>
232.3181

>  <Cat>
S9314

>  <Name>
Atractylenolide II

>  <Synonyms>
Asterolide, 2-Atractylenolide

>  <Target>
Others

>  <Form>
free base

>  <CAS>
73069-14-4

>  <URL>
https://www.selleckchem.com/products/atractylenolide-ii.html

$$$$
