S9329 Orcinol.cdx
 OpenBabel08302520433D

 17 17  0  0  0  0  0  0  0  0999 V2000
   -0.6507   -1.3325   -0.0034 C   0  0  0  0  0  0  0  0  0  0  0  0
    0.7460   -1.2189   -0.0244 C   0  0  0  0  0  0  0  0  0  0  0  0
   -1.4296   -0.1674    0.0150 C   0  0  0  0  0  0  0  0  0  0  0  0
   -1.3210   -2.6741    0.0057 C   0  0  0  0  0  0  0  0  0  0  0  0
    1.3381    0.0436   -0.0260 C   0  0  0  0  0  0  0  0  0  0  0  0
   -0.8185    1.0830    0.0086 C   0  0  0  0  0  0  0  0  0  0  0  0
    0.5664    1.2001   -0.0109 C   0  0  0  0  0  0  0  0  0  0  0  0
    2.6948    0.1900   -0.0398 O   0  0  0  0  0  0  0  0  0  0  0  0
   -1.6241    2.1836    0.0230 O   0  0  0  0  0  0  0  0  0  0  0  0
    1.3589   -2.1153   -0.0405 H   0  0  0  0  0  0  0  0  0  0  0  0
   -2.5151   -0.2292    0.0334 H   0  0  0  0  0  0  0  0  0  0  0  0
   -1.9131   -2.7927    0.9189 H   0  0  0  0  0  0  0  0  0  0  0  0
   -1.9775   -2.7738   -0.8647 H   0  0  0  0  0  0  0  0  0  0  0  0
   -0.5906   -3.4890   -0.0300 H   0  0  0  0  0  0  0  0  0  0  0  0
    1.0558    2.1675   -0.0128 H   0  0  0  0  0  0  0  0  0  0  0  0
    3.1010   -0.6921   -0.0221 H   0  0  0  0  0  0  0  0  0  0  0  0
   -1.0609    2.9748    0.0015 H   0  0  0  0  0  0  0  0  0  0  0  0
  1  2  2  0  0  0  0
  1  3  1  0  0  0  0
  1  4  1  0  0  0  0
  2  5  1  0  0  0  0
  2 10  1  0  0  0  0
  3  6  2  0  0  0  0
  3 11  1  0  0  0  0
  4 12  1  0  0  0  0
  4 13  1  0  0  0  0
  4 14  1  0  0  0  0
  5  7  2  0  0  0  0
  5  8  1  0  0  0  0
  6  9  1  0  0  0  0
  6  7  1  0  0  0  0
  7 15  1  0  0  0  0
  8 16  1  0  0  0  0
  9 17  1  0  0  0  0
M  END
>  <Mol_ID>
4222

>  <Formula>
C7H8O2

>  <MolWeight>
124.13722

>  <Cat>
S9329

>  <Name>
Orcinol

>  <Synonyms>
5-Methylresorcinol; 3,5-ToluenediolOrcin; 5-Methyl-1,3-benzenediol; 3,5-Dihydroxytoluene

>  <Target>
Others

>  <Form>
free base

>  <CAS>
504-15-4

>  <URL>
https://www.selleckchem.com/products/orcinol.html

$$$$
