S9327 Carboprost.cdx
 OpenBabel08302521213D

 62 62  0  0  0  0  0  0  0  0999 V2000
   -9.2708    1.8308    1.1034 C   0  0  0  0  0  0  0  0  0  0  0  0
   -7.9970    1.1466    1.5289 C   0  0  0  0  0  0  0  0  0  0  0  0
   -6.8154    1.6757    0.7184 C   0  0  0  0  0  0  0  0  0  0  0  0
   -5.4719    1.0241    1.0644 C   0  0  0  0  0  0  0  0  0  0  0  0
   -5.4959   -0.4727    0.9545 C   0  0  0  0  0  0  0  0  0  0  0  0
   -5.1716   -1.2482   -0.0926 C   0  0  0  0  0  0  0  0  0  0  0  0
   -4.6733   -0.8414   -1.4599 C   0  0  0  0  0  0  0  0  0  0  0  0
   -9.7268    2.8254    1.6456 O   0  0  0  0  0  0  0  0  0  0  0  0
   -9.8574    1.2509    0.0322 O   0  0  0  0  0  0  0  0  0  0  0  0
   -3.7017   -1.8781   -2.0707 C   0  0  2  0  0  0  0  0  0  0  0  0
   -3.2034   -1.4931   -3.5010 C   0  0  2  0  0  0  0  0  0  0  0  0
   -3.0705   -2.8513   -4.2517 C   0  0  1  0  0  0  0  0  0  0  0  0
   -3.2941   -3.9398   -3.2070 C   0  0  0  0  0  0  0  0  0  0  0  0
   -4.2866   -3.2894   -2.2568 C   0  0  2  0  0  0  0  0  0  0  0  0
   -1.9062   -0.7073   -3.6016 C   0  0  0  0  0  0  0  0  0  0  0  0
   -1.2201   -0.1498   -2.5892 C   0  0  0  0  0  0  0  0  0  0  0  0
    0.0927    0.5928   -2.6297 C   0  0  1  0  0  0  0  0  0  0  0  0
    1.1128   -0.0557   -1.6509 C   0  0  0  0  0  0  0  0  0  0  0  0
    1.4364   -1.5335   -1.9180 C   0  0  0  0  0  0  0  0  0  0  0  0
    2.4944   -2.1147   -0.9672 C   0  0  0  0  0  0  0  0  0  0  0  0
    2.0787   -2.1074    0.5062 C   0  0  0  0  0  0  0  0  0  0  0  0
    3.1309   -2.7607    1.3915 C   0  0  0  0  0  0  0  0  0  0  0  0
    0.7124    0.8027   -4.0164 C   0  0  0  0  0  0  0  0  0  0  0  0
   -0.2180    1.8878   -2.0957 O   0  0  0  0  0  0  0  0  0  0  0  0
   -5.5718   -3.2441   -2.8723 O   0  0  0  0  0  0  0  0  0  0  0  0
   -4.0854   -2.9542   -5.2556 O   0  0  0  0  0  0  0  0  0  0  0  0
   -7.8541    1.3294    2.6001 H   0  0  0  0  0  0  0  0  0  0  0  0
   -8.1305    0.0650    1.4163 H   0  0  0  0  0  0  0  0  0  0  0  0
   -7.0162    1.5461   -0.3522 H   0  0  0  0  0  0  0  0  0  0  0  0
   -6.7296    2.7579    0.8821 H   0  0  0  0  0  0  0  0  0  0  0  0
   -4.6880    1.4516    0.4303 H   0  0  0  0  0  0  0  0  0  0  0  0
   -5.1992    1.2850    2.0954 H   0  0  0  0  0  0  0  0  0  0  0  0
   -5.8395   -0.9832    1.8555 H   0  0  0  0  0  0  0  0  0  0  0  0
   -5.3168   -2.3167    0.0546 H   0  0  0  0  0  0  0  0  0  0  0  0
   -5.5406   -0.7171   -2.1188 H   0  0  0  0  0  0  0  0  0  0  0  0
   -4.1718    0.1314   -1.4059 H   0  0  0  0  0  0  0  0  0  0  0  0
   -9.3709    0.4778   -0.3126 H   0  0  0  0  0  0  0  0  0  0  0  0
   -2.8412   -1.9887   -1.3975 H   0  0  0  0  0  0  0  0  0  0  0  0
   -3.9724   -0.8881   -4.0019 H   0  0  0  0  0  0  0  0  0  0  0  0
   -2.1091   -2.9876   -4.7572 H   0  0  0  0  0  0  0  0  0  0  0  0
   -3.6877   -4.8614   -3.6468 H   0  0  0  0  0  0  0  0  0  0  0  0
   -2.3572   -4.1554   -2.6798 H   0  0  0  0  0  0  0  0  0  0  0  0
   -4.3643   -3.8399   -1.3149 H   0  0  0  0  0  0  0  0  0  0  0  0
   -1.5257   -0.6013   -4.6179 H   0  0  0  0  0  0  0  0  0  0  0  0
   -1.6259   -0.2142   -1.5822 H   0  0  0  0  0  0  0  0  0  0  0  0
    2.0433    0.5284   -1.6615 H   0  0  0  0  0  0  0  0  0  0  0  0
    0.7232    0.0527   -0.6304 H   0  0  0  0  0  0  0  0  0  0  0  0
    0.5261   -2.1394   -1.8397 H   0  0  0  0  0  0  0  0  0  0  0  0
    1.8065   -1.6485   -2.9432 H   0  0  0  0  0  0  0  0  0  0  0  0
    2.6936   -3.1501   -1.2730 H   0  0  0  0  0  0  0  0  0  0  0  0
    3.4354   -1.5653   -1.0881 H   0  0  0  0  0  0  0  0  0  0  0  0
    1.9289   -1.0806    0.8551 H   0  0  0  0  0  0  0  0  0  0  0  0
    1.1272   -2.6374    0.6284 H   0  0  0  0  0  0  0  0  0  0  0  0
    4.0897   -2.2382    1.3128 H   0  0  0  0  0  0  0  0  0  0  0  0
    2.8150   -2.7301    2.4393 H   0  0  0  0  0  0  0  0  0  0  0  0
    3.2855   -3.8085    1.1151 H   0  0  0  0  0  0  0  0  0  0  0  0
    0.0607    1.4204   -4.6456 H   0  0  0  0  0  0  0  0  0  0  0  0
    1.6578    1.3540   -3.9364 H   0  0  0  0  0  0  0  0  0  0  0  0
    0.9147   -0.1376   -4.5365 H   0  0  0  0  0  0  0  0  0  0  0  0
    0.4998    2.4966   -2.3347 H   0  0  0  0  0  0  0  0  0  0  0  0
   -5.8967   -4.1628   -2.9202 H   0  0  0  0  0  0  0  0  0  0  0  0
   -4.9438   -2.8729   -4.7910 H   0  0  0  0  0  0  0  0  0  0  0  0
  1  2  1  0  0  0  0
  1  8  2  0  0  0  0
  1  9  1  0  0  0  0
  2  3  1  0  0  0  0
  2 27  1  0  0  0  0
  2 28  1  0  0  0  0
  3  4  1  0  0  0  0
  3 29  1  0  0  0  0
  3 30  1  0  0  0  0
  4  5  1  0  0  0  0
  4 31  1  0  0  0  0
  4 32  1  0  0  0  0
  5  6  2  0  0  0  0
  5 33  1  0  0  0  0
  6  7  1  0  0  0  0
  6 34  1  0  0  0  0
  7 35  1  0  0  0  0
  7 36  1  0  0  0  0
  9 37  1  0  0  0  0
 10 11  1  0  0  0  0
 10 14  1  0  0  0  0
 10  7  1  0  0  0  0
 10 38  1  1  0  0  0
 11 12  1  0  0  0  0
 11 39  1  6  0  0  0
 11 15  1  0  0  0  0
 12 13  1  0  0  0  0
 12 26  1  0  0  0  0
 12 40  1  6  0  0  0
 13 14  1  0  0  0  0
 13 41  1  0  0  0  0
 13 42  1  0  0  0  0
 14 43  1  1  0  0  0
 14 25  1  0  0  0  0
 15 16  2  0  0  0  0
 15 44  1  0  0  0  0
 16 45  1  0  0  0  0
 17 16  1  6  0  0  0
 17 18  1  0  0  0  0
 17 23  1  0  0  0  0
 17 24  1  0  0  0  0
 18 19  1  0  0  0  0
 18 46  1  0  0  0  0
 18 47  1  0  0  0  0
 19 20  1  0  0  0  0
 19 48  1  0  0  0  0
 19 49  1  0  0  0  0
 20 21  1  0  0  0  0
 20 50  1  0  0  0  0
 20 51  1  0  0  0  0
 21 22  1  0  0  0  0
 21 52  1  0  0  0  0
 21 53  1  0  0  0  0
 22 54  1  0  0  0  0
 22 55  1  0  0  0  0
 22 56  1  0  0  0  0
 23 57  1  0  0  0  0
 23 58  1  0  0  0  0
 23 59  1  0  0  0  0
 24 60  1  0  0  0  0
 25 61  1  0  0  0  0
 26 62  1  0  0  0  0
M  END
>  <Mol_ID>
4554

>  <Formula>
C21H36O5

>  <MolWeight>
368.50754

>  <Cat>
S9327

>  <Name>
Carboprost

>  <Target>
Prostaglandin Receptor

>  <Form>
free base

>  <CAS>
35700-23-3

>  <URL>
https://www.selleckchem.com/products/carboprost.html

$$$$
