S9324 Alnustone.cdx
 OpenBabel08302521213D

 38 39  0  0  0  0  0  0  0  0999 V2000
    1.4050   -1.4419    0.8316 C   0  0  0  0  0  0  0  0  0  0  0  0
    0.6341   -0.1666    1.1589 C   0  0  0  0  0  0  0  0  0  0  0  0
    1.1195    0.4389    2.4624 C   0  0  0  0  0  0  0  0  0  0  0  0
    0.1198    1.2161    3.2497 C   0  0  0  0  0  0  0  0  0  0  0  0
    0.5223    2.0707    4.2013 C   0  0  0  0  0  0  0  0  0  0  0  0
   -0.4056    2.8199    5.0215 C   0  0  0  0  0  0  0  0  0  0  0  0
   -0.0075    3.6783    5.9750 C   0  0  0  0  0  0  0  0  0  0  0  0
    2.2833    0.3380    2.8440 O   0  0  0  0  0  0  0  0  0  0  0  0
   -0.9136    4.3954    6.8879 C   0  0  0  0  0  0  0  0  0  0  0  0
   -2.1378    3.8541    7.3058 C   0  0  0  0  0  0  0  0  0  0  0  0
   -2.9380    4.5281    8.2334 C   0  0  0  0  0  0  0  0  0  0  0  0
   -2.5195    5.7427    8.7652 C   0  0  0  0  0  0  0  0  0  0  0  0
   -1.3027    6.2914    8.3649 C   0  0  0  0  0  0  0  0  0  0  0  0
   -0.5035    5.6193    7.4341 C   0  0  0  0  0  0  0  0  0  0  0  0
    0.9676   -2.0674   -0.4699 C   0  0  0  0  0  0  0  0  0  0  0  0
    1.5675   -1.6852   -1.6776 C   0  0  0  0  0  0  0  0  0  0  0  0
    1.2064   -2.3060   -2.8749 C   0  0  0  0  0  0  0  0  0  0  0  0
    0.2358   -3.3059   -2.8779 C   0  0  0  0  0  0  0  0  0  0  0  0
   -0.3880   -3.6725   -1.6868 C   0  0  0  0  0  0  0  0  0  0  0  0
   -0.0283   -3.0528   -0.4884 C   0  0  0  0  0  0  0  0  0  0  0  0
    1.2829   -2.1705    1.6439 H   0  0  0  0  0  0  0  0  0  0  0  0
    2.4831   -1.2405    0.7836 H   0  0  0  0  0  0  0  0  0  0  0  0
    0.7697    0.5854    0.3729 H   0  0  0  0  0  0  0  0  0  0  0  0
   -0.4367   -0.3888    1.2318 H   0  0  0  0  0  0  0  0  0  0  0  0
   -0.9257    1.0602    3.0150 H   0  0  0  0  0  0  0  0  0  0  0  0
    1.5865    2.2038    4.3965 H   0  0  0  0  0  0  0  0  0  0  0  0
   -1.4648    2.6422    4.8516 H   0  0  0  0  0  0  0  0  0  0  0  0
    1.0532    3.8720    6.1252 H   0  0  0  0  0  0  0  0  0  0  0  0
   -2.4775    2.8912    6.9331 H   0  0  0  0  0  0  0  0  0  0  0  0
   -3.8816    4.0898    8.5507 H   0  0  0  0  0  0  0  0  0  0  0  0
   -3.1358    6.2585    9.4966 H   0  0  0  0  0  0  0  0  0  0  0  0
   -0.9694    7.2369    8.7824 H   0  0  0  0  0  0  0  0  0  0  0  0
    0.4462    6.0628    7.1439 H   0  0  0  0  0  0  0  0  0  0  0  0
    2.3357   -0.9150   -1.6902 H   0  0  0  0  0  0  0  0  0  0  0  0
    1.6922   -2.0183   -3.8037 H   0  0  0  0  0  0  0  0  0  0  0  0
   -0.0309   -3.8023   -3.8073 H   0  0  0  0  0  0  0  0  0  0  0  0
   -1.1461   -4.4514   -1.6893 H   0  0  0  0  0  0  0  0  0  0  0  0
   -0.5163   -3.3598    0.4336 H   0  0  0  0  0  0  0  0  0  0  0  0
  1  2  1  0  0  0  0
  1 15  1  0  0  0  0
  1 21  1  0  0  0  0
  1 22  1  0  0  0  0
  2  3  1  0  0  0  0
  2 23  1  0  0  0  0
  2 24  1  0  0  0  0
  3  4  1  0  0  0  0
  3  8  2  0  0  0  0
  4  5  2  0  0  0  0
  4 25  1  0  0  0  0
  5  6  1  0  0  0  0
  5 26  1  0  0  0  0
  6  7  2  0  0  0  0
  6 27  1  0  0  0  0
  7  9  1  0  0  0  0
  7 28  1  0  0  0  0
  9 10  2  0  0  0  0
  9 14  1  0  0  0  0
 10 11  1  0  0  0  0
 10 29  1  0  0  0  0
 11 12  2  0  0  0  0
 11 30  1  0  0  0  0
 12 13  1  0  0  0  0
 12 31  1  0  0  0  0
 13 14  2  0  0  0  0
 13 32  1  0  0  0  0
 14 33  1  0  0  0  0
 15 16  2  0  0  0  0
 15 20  1  0  0  0  0
 16 17  1  0  0  0  0
 16 34  1  0  0  0  0
 17 18  2  0  0  0  0
 17 35  1  0  0  0  0
 18 19  1  0  0  0  0
 18 36  1  0  0  0  0
 19 20  2  0  0  0  0
 19 37  1  0  0  0  0
 20 38  1  0  0  0  0
M  END
>  <Mol_ID>
4550

>  <Formula>
C19H18O

>  <MolWeight>
262.34562

>  <Cat>
S9324

>  <Name>
Alnustone

>  <Target>
Immunology & Inflammation related

>  <Form>
free base

>  <CAS>
33457-62-4

>  <URL>
https://www.selleckchem.com/products/alnustone.html

$$$$
