S9320 Efetaal.cdx
 OpenBabel08302521213D

 32 32  0  0  0  0  0  0  0  0999 V2000
    1.2836    0.0664    0.7219 C   0  0  0  0  0  0  0  0  0  0  0  0
    2.5477   -0.7369    0.4804 C   0  0  0  0  0  0  0  0  0  0  0  0
    0.4812    0.5489   -0.3212 C   0  0  0  0  0  0  0  0  0  0  0  0
    0.8720    0.3003    2.0431 C   0  0  0  0  0  0  0  0  0  0  0  0
    3.3912   -0.3713   -0.7478 C   0  0  0  0  0  0  0  0  0  0  0  0
   -0.6614    1.3081   -0.0461 C   0  0  0  0  0  0  0  0  0  0  0  0
   -0.2657    1.0658    2.3183 C   0  0  0  0  0  0  0  0  0  0  0  0
    3.7329    1.0048   -0.8655 O   0  0  0  0  0  0  0  0  0  0  0  0
   -1.0239    1.5812    1.2692 C   0  0  0  0  0  0  0  0  0  0  0  0
    4.6290    1.5313    0.1155 C   0  0  3  0  0  0  0  0  0  0  0  0
    5.8892    0.8518    0.1158 O   0  0  0  0  0  0  0  0  0  0  0  0
    4.7987    3.0078   -0.2608 C   0  0  0  0  0  0  0  0  0  0  0  0
    6.7290    1.2436    1.2057 C   0  0  0  0  0  0  0  0  0  0  0  0
    7.9926    0.4023    1.2247 C   0  0  0  0  0  0  0  0  0  0  0  0
    3.1870   -0.6472    1.3644 H   0  0  0  0  0  0  0  0  0  0  0  0
    2.2616   -1.7947    0.4059 H   0  0  0  0  0  0  0  0  0  0  0  0
    0.7351    0.3516   -1.3588 H   0  0  0  0  0  0  0  0  0  0  0  0
    1.4404   -0.1071    2.8740 H   0  0  0  0  0  0  0  0  0  0  0  0
    4.3020   -0.9808   -0.7724 H   0  0  0  0  0  0  0  0  0  0  0  0
    2.8342   -0.6287   -1.6577 H   0  0  0  0  0  0  0  0  0  0  0  0
   -1.2632    1.6940   -0.8645 H   0  0  0  0  0  0  0  0  0  0  0  0
   -0.5573    1.2530    3.3446 H   0  0  0  0  0  0  0  0  0  0  0  0
   -1.9009    2.1889    1.4811 H   0  0  0  0  0  0  0  0  0  0  0  0
    4.1686    1.4536    1.1062 H   0  0  0  0  0  0  0  0  0  0  0  0
    3.9601    3.5899    0.1412 H   0  0  0  0  0  0  0  0  0  0  0  0
    5.7222    3.4593    0.0970 H   0  0  0  0  0  0  0  0  0  0  0  0
    4.7760    3.1369   -1.3482 H   0  0  0  0  0  0  0  0  0  0  0  0
    7.0306    2.2882    1.0935 H   0  0  0  0  0  0  0  0  0  0  0  0
    6.1945    1.1307    2.1554 H   0  0  0  0  0  0  0  0  0  0  0  0
    8.4940    0.4298    0.2527 H   0  0  0  0  0  0  0  0  0  0  0  0
    8.6837    0.7770    1.9867 H   0  0  0  0  0  0  0  0  0  0  0  0
    7.7601   -0.6421    1.4468 H   0  0  0  0  0  0  0  0  0  0  0  0
  1  2  1  0  0  0  0
  1  3  2  0  0  0  0
  1  4  1  0  0  0  0
  2  5  1  0  0  0  0
  2 15  1  0  0  0  0
  2 16  1  0  0  0  0
  3  6  1  0  0  0  0
  3 17  1  0  0  0  0
  4  7  2  0  0  0  0
  4 18  1  0  0  0  0
  5  8  1  0  0  0  0
  5 19  1  0  0  0  0
  5 20  1  0  0  0  0
  6  9  2  0  0  0  0
  6 21  1  0  0  0  0
  7  9  1  0  0  0  0
  7 22  1  0  0  0  0
  8 10  1  0  0  0  0
  9 23  1  0  0  0  0
 10 11  1  0  0  0  0
 10 12  1  0  0  0  0
 10 24  1  0  0  0  0
 11 13  1  0  0  0  0
 12 25  1  0  0  0  0
 12 26  1  0  0  0  0
 12 27  1  0  0  0  0
 13 14  1  0  0  0  0
 13 28  1  0  0  0  0
 13 29  1  0  0  0  0
 14 30  1  0  0  0  0
 14 31  1  0  0  0  0
 14 32  1  0  0  0  0
M  END
>  <Mol_ID>
4547

>  <Formula>
C12H18O2

>  <MolWeight>
194.27012

>  <Cat>
S9320

>  <Name>
Efetaal

>  <Target>
Others

>  <Form>
free base

>  <CAS>
2556-10-7

>  <URL>
https://www.selleckchem.com/products/efetaal.html

$$$$
