S9328 5,6,7-Trimethoxyflavone.cdx
 OpenBabel08302521213D

 39 41  0  0  0  0  0  0  0  0999 V2000
    0.3539   -0.7705    0.0148 C   0  0  0  0  0  0  0  0  0  0  0  0
   -0.1097    0.5611    0.0468 C   0  0  0  0  0  0  0  0  0  0  0  0
   -0.4554   -1.8876   -0.0124 O   0  0  0  0  0  0  0  0  0  0  0  0
    1.7144   -1.0671    0.0001 C   0  0  0  0  0  0  0  0  0  0  0  0
    0.8482    1.6141    0.0227 C   0  0  0  0  0  0  0  0  0  0  0  0
   -1.5993    0.6949    0.1163 C   0  0  0  0  0  0  0  0  0  0  0  0
   -1.8110   -1.7044   -0.0550 C   0  0  0  0  0  0  0  0  0  0  0  0
    2.6707   -0.0568   -0.0055 C   0  0  0  0  0  0  0  0  0  0  0  0
    2.2501    1.2893   -0.0004 C   0  0  0  0  0  0  0  0  0  0  0  0
    0.6423    2.9594    0.0171 O   0  0  0  0  0  0  0  0  0  0  0  0
   -2.4135   -0.5202    0.0042 C   0  0  0  0  0  0  0  0  0  0  0  0
   -2.2328    1.7281    0.2703 O   0  0  0  0  0  0  0  0  0  0  0  0
   -2.6271   -2.9093   -0.2140 C   0  0  0  0  0  0  0  0  0  0  0  0
    3.9447   -0.5688   -0.0200 O   0  0  0  0  0  0  0  0  0  0  0  0
    3.2837    2.1958   -0.0276 O   0  0  0  0  0  0  0  0  0  0  0  0
   -0.5903    3.6375   -0.0061 C   0  0  0  0  0  0  0  0  0  0  0  0
   -2.9354   -3.3629   -1.5036 C   0  0  0  0  0  0  0  0  0  0  0  0
   -3.1889   -3.5522    0.8946 C   0  0  0  0  0  0  0  0  0  0  0  0
    3.0925    3.6005   -0.0428 C   0  0  0  0  0  0  0  0  0  0  0  0
   -3.7916   -4.4497   -1.6812 C   0  0  0  0  0  0  0  0  0  0  0  0
   -4.0438   -4.6420    0.7141 C   0  0  0  0  0  0  0  0  0  0  0  0
   -4.3434   -5.0893   -0.5728 C   0  0  0  0  0  0  0  0  0  0  0  0
    5.0657    0.3032   -0.0244 C   0  0  0  0  0  0  0  0  0  0  0  0
    2.0386   -2.1073   -0.0101 H   0  0  0  0  0  0  0  0  0  0  0  0
   -3.4889   -0.3941   -0.0258 H   0  0  0  0  0  0  0  0  0  0  0  0
   -1.1755    3.3759   -0.8910 H   0  0  0  0  0  0  0  0  0  0  0  0
   -1.1130    3.5182    0.9457 H   0  0  0  0  0  0  0  0  0  0  0  0
   -0.3698    4.7066   -0.0911 H   0  0  0  0  0  0  0  0  0  0  0  0
   -2.5260   -2.8574   -2.3753 H   0  0  0  0  0  0  0  0  0  0  0  0
   -2.9813   -3.1988    1.9025 H   0  0  0  0  0  0  0  0  0  0  0  0
    2.5739    3.9231   -0.9501 H   0  0  0  0  0  0  0  0  0  0  0  0
    2.6036    3.9463    0.8728 H   0  0  0  0  0  0  0  0  0  0  0  0
    4.0831    4.0653   -0.0653 H   0  0  0  0  0  0  0  0  0  0  0  0
   -4.0354   -4.7885   -2.6847 H   0  0  0  0  0  0  0  0  0  0  0  0
   -4.4850   -5.1358    1.5762 H   0  0  0  0  0  0  0  0  0  0  0  0
   -5.0136   -5.9340   -0.7125 H   0  0  0  0  0  0  0  0  0  0  0  0
    5.0970    0.9065   -0.9375 H   0  0  0  0  0  0  0  0  0  0  0  0
    5.0995    0.9172    0.8816 H   0  0  0  0  0  0  0  0  0  0  0  0
    5.9686   -0.3157   -0.0218 H   0  0  0  0  0  0  0  0  0  0  0  0
  1  2  2  0  0  0  0
  1  3  1  0  0  0  0
  1  4  1  0  0  0  0
  2  5  1  0  0  0  0
  2  6  1  0  0  0  0
  3  7  1  0  0  0  0
  4  8  2  0  0  0  0
  4 24  1  0  0  0  0
  5  9  2  0  0  0  0
  5 10  1  0  0  0  0
  6 11  1  0  0  0  0
  6 12  2  0  0  0  0
  7 13  1  0  0  0  0
  7 11  2  0  0  0  0
  8 14  1  0  0  0  0
  8  9  1  0  0  0  0
  9 15  1  0  0  0  0
 10 16  1  0  0  0  0
 11 25  1  0  0  0  0
 13 17  2  0  0  0  0
 13 18  1  0  0  0  0
 14 23  1  0  0  0  0
 15 19  1  0  0  0  0
 16 26  1  0  0  0  0
 16 27  1  0  0  0  0
 16 28  1  0  0  0  0
 17 20  1  0  0  0  0
 17 29  1  0  0  0  0
 18 21  2  0  0  0  0
 18 30  1  0  0  0  0
 19 31  1  0  0  0  0
 19 32  1  0  0  0  0
 19 33  1  0  0  0  0
 20 22  2  0  0  0  0
 20 34  1  0  0  0  0
 21 22  1  0  0  0  0
 21 35  1  0  0  0  0
 22 36  1  0  0  0  0
 23 37  1  0  0  0  0
 23 38  1  0  0  0  0
 23 39  1  0  0  0  0
M  END
>  <Mol_ID>
4576

>  <Formula>
C18H16O5

>  <MolWeight>
312.31664

>  <Cat>
S9328

>  <Name>
5,6,7-Trimethoxyflavone

>  <Synonyms>
Baicalein Trimethyl Ether

>  <Target>
Antiviral,Bacterial

>  <Form>
free base

>  <CAS>
973-67-1

>  <URL>
https://www.selleckchem.com/products/trimethoxyflavone.html

$$$$
