S9326 Scopolamine.cdx
 OpenBabel08302521213D

 43 46  0  0  0  0  0  0  0  0999 V2000
    0.3016    0.1099   -0.8626 C   0  0  0  0  0  0  0  0  0  0  0  0
    0.5457    0.8082    0.5018 C   0  0  2  0  0  0  0  0  0  0  0  0
    1.6264    0.1432    1.3871 C   0  0  0  0  0  0  0  0  0  0  0  0
    2.7608   -0.5064    0.5591 C   0  0  1  0  0  0  0  0  0  0  0  0
    2.4122   -1.9588    0.3380 C   0  0  1  0  0  0  0  0  0  0  0  0
    1.6244   -1.9977   -0.9076 C   0  0  1  0  0  0  0  0  0  0  0  0
    1.5578   -0.5768   -1.4188 C   0  0  2  0  0  0  0  0  0  0  0  0
    2.9102   -2.6230   -0.8319 O   0  0  0  0  0  0  0  0  0  0  0  0
    2.6894    0.1314   -0.7784 N   0  0  0  0  0  0  0  0  0  0  0  0
   -0.6920    0.8796    1.2353 O   0  0  0  0  0  0  0  0  0  0  0  0
   -1.5701    1.8265    0.7907 C   0  0  0  0  0  0  0  0  0  0  0  0
   -2.9057    1.7044    1.5021 C   0  0  2  0  0  0  0  0  0  0  0  0
   -1.3383    2.6339   -0.1026 O   0  0  0  0  0  0  0  0  0  0  0  0
   -3.9825    2.3731    0.6354 C   0  0  0  0  0  0  0  0  0  0  0  0
   -2.8259    2.2634    2.9098 C   0  0  0  0  0  0  0  0  0  0  0  0
   -4.1184    1.6856   -0.6134 O   0  0  0  0  0  0  0  0  0  0  0  0
   -2.5200    3.6129    3.1464 C   0  0  0  0  0  0  0  0  0  0  0  0
   -2.3404    4.0806    4.4493 C   0  0  0  0  0  0  0  0  0  0  0  0
   -2.4711    3.2109    5.5301 C   0  0  0  0  0  0  0  0  0  0  0  0
   -2.8057    1.8770    5.3106 C   0  0  0  0  0  0  0  0  0  0  0  0
   -2.9860    1.4061    4.0090 C   0  0  0  0  0  0  0  0  0  0  0  0
    3.9224    0.0690   -1.5466 C   0  0  0  0  0  0  0  0  0  0  0  0
   -0.5400   -0.5914   -0.7883 H   0  0  0  0  0  0  0  0  0  0  0  0
   -0.0178    0.8824   -1.5734 H   0  0  0  0  0  0  0  0  0  0  0  0
    0.8985    1.8329    0.3108 H   0  0  0  0  0  0  0  0  0  0  0  0
    1.1632   -0.5820    2.0694 H   0  0  0  0  0  0  0  0  0  0  0  0
    2.0513    0.9254    2.0305 H   0  0  0  0  0  0  0  0  0  0  0  0
    3.7287   -0.3873    1.0559 H   0  0  0  0  0  0  0  0  0  0  0  0
    2.1535   -2.5445    1.2038 H   0  0  0  0  0  0  0  0  0  0  0  0
    0.7362   -2.6040   -0.9960 H   0  0  0  0  0  0  0  0  0  0  0  0
    1.5697   -0.5401   -2.5133 H   0  0  0  0  0  0  0  0  0  0  0  0
   -3.1398    0.6304    1.5317 H   0  0  0  0  0  0  0  0  0  0  0  0
   -4.9560    2.3324    1.1319 H   0  0  0  0  0  0  0  0  0  0  0  0
   -3.7645    3.4256    0.4205 H   0  0  0  0  0  0  0  0  0  0  0  0
   -3.3527    1.9479   -1.1617 H   0  0  0  0  0  0  0  0  0  0  0  0
   -2.3879    4.3089    2.3200 H   0  0  0  0  0  0  0  0  0  0  0  0
   -2.0804    5.1224    4.6212 H   0  0  0  0  0  0  0  0  0  0  0  0
   -2.3061    3.5709    6.5421 H   0  0  0  0  0  0  0  0  0  0  0  0
   -2.9118    1.1978    6.1530 H   0  0  0  0  0  0  0  0  0  0  0  0
   -3.2317    0.3566    3.8600 H   0  0  0  0  0  0  0  0  0  0  0  0
    3.7922    0.6188   -2.4865 H   0  0  0  0  0  0  0  0  0  0  0  0
    4.2605   -0.9390   -1.7986 H   0  0  0  0  0  0  0  0  0  0  0  0
    4.7294    0.5727   -1.0043 H   0  0  0  0  0  0  0  0  0  0  0  0
  1  2  1  0  0  0  0
  1 23  1  0  0  0  0
  1 24  1  0  0  0  0
  2  3  1  0  0  0  0
  2 10  1  0  0  0  0
  2 25  1  6  0  0  0
  3 26  1  0  0  0  0
  3 27  1  0  0  0  0
  4  3  1  0  0  0  0
  4  5  1  0  0  0  0
  4  9  1  0  0  0  0
  4 28  1  1  0  0  0
  5  6  1  0  0  0  0
  5  8  1  0  0  0  0
  5 29  1  1  0  0  0
  6  7  1  0  0  0  0
  6  8  1  0  0  0  0
  6 30  1  6  0  0  0
  7  1  1  0  0  0  0
  7  9  1  0  0  0  0
  7 31  1  6  0  0  0
  9 22  1  0  0  0  0
 10 11  1  0  0  0  0
 11 12  1  0  0  0  0
 11 13  2  0  0  0  0
 12 14  1  0  0  0  0
 12 15  1  0  0  0  0
 12 32  1  1  0  0  0
 14 16  1  0  0  0  0
 14 33  1  0  0  0  0
 14 34  1  0  0  0  0
 15 17  2  0  0  0  0
 15 21  1  0  0  0  0
 16 35  1  0  0  0  0
 17 18  1  0  0  0  0
 17 36  1  0  0  0  0
 18 19  2  0  0  0  0
 18 37  1  0  0  0  0
 19 20  1  0  0  0  0
 19 38  1  0  0  0  0
 20 21  2  0  0  0  0
 20 39  1  0  0  0  0
 21 40  1  0  0  0  0
 22 41  1  0  0  0  0
 22 42  1  0  0  0  0
 22 43  1  0  0  0  0
M  END
>  <Mol_ID>
4551

>  <Formula>
C17H21NO4

>  <MolWeight>
303.35294

>  <Cat>
S9326

>  <Name>
Scopolamine

>  <Synonyms>
Skopolamin

>  <Target>
AChR

>  <Form>
free base

>  <CAS>
51-34-3

>  <URL>
https://www.selleckchem.com/products/scopolamine.html

$$$$
