S9331 7-Hydroxy-4-methyl-8-nitrocoumarin.cdx
 OpenBabel08302521213D

 23 24  0  0  0  0  0  0  0  0999 V2000
    0.1807   -0.5844   -0.0114 C   0  0  0  0  0  0  0  0  0  0  0  0
    0.0640    0.8126    0.0114 C   0  0  0  0  0  0  0  0  0  0  0  0
    1.4384   -1.2008   -0.0244 C   0  0  0  0  0  0  0  0  0  0  0  0
   -0.9700   -1.4007   -0.0030 O   0  0  0  0  0  0  0  0  0  0  0  0
   -1.2804    1.4126   -0.0028 C   0  0  0  0  0  0  0  0  0  0  0  0
    1.2514    1.5623    0.0424 C   0  0  0  0  0  0  0  0  0  0  0  0
    2.6069   -0.4428   -0.0060 C   0  0  0  0  0  0  0  0  0  0  0  0
    1.5246   -2.6423   -0.0643 N   0  3  0  0  0  0  0  0  0  0  0  0
   -2.2458   -0.8715   -0.0015 C   0  0  0  0  0  0  0  0  0  0  0  0
   -2.3421    0.5938   -0.0113 C   0  0  0  0  0  0  0  0  0  0  0  0
   -1.5134    2.8985   -0.0219 C   0  0  0  0  0  0  0  0  0  0  0  0
    2.5110    0.9442    0.0364 C   0  0  0  0  0  0  0  0  0  0  0  0
    3.8340   -1.0348   -0.0496 O   0  0  0  0  0  0  0  0  0  0  0  0
    1.0935   -3.2043   -1.0814 O   0  0  0  0  0  0  0  0  0  0  0  0
    2.0043   -3.2106    0.9269 O   0  5  0  0  0  0  0  0  0  0  0  0
   -3.2543   -1.5671    0.0113 O   0  0  0  0  0  0  0  0  0  0  0  0
    1.2386    2.6484    0.0710 H   0  0  0  0  0  0  0  0  0  0  0  0
   -3.3581    0.9754   -0.0248 H   0  0  0  0  0  0  0  0  0  0  0  0
   -2.0765    3.1800   -0.9185 H   0  0  0  0  0  0  0  0  0  0  0  0
   -2.0930    3.2008    0.8576 H   0  0  0  0  0  0  0  0  0  0  0  0
   -0.6045    3.5005   -0.0227 H   0  0  0  0  0  0  0  0  0  0  0  0
    3.4006    1.5689    0.0559 H   0  0  0  0  0  0  0  0  0  0  0  0
    4.5358   -0.3662    0.0306 H   0  0  0  0  0  0  0  0  0  0  0  0
  1  2  1  0  0  0  0
  1  3  2  0  0  0  0
  1  4  1  0  0  0  0
  2  5  1  0  0  0  0
  2  6  2  0  0  0  0
  3  7  1  0  0  0  0
  3  8  1  0  0  0  0
  4  9  1  0  0  0  0
  5 10  2  0  0  0  0
  5 11  1  0  0  0  0
  6 12  1  0  0  0  0
  6 17  1  0  0  0  0
  7 13  1  0  0  0  0
  7 12  2  0  0  0  0
  8 14  2  0  0  0  0
  8 15  1  0  0  0  0
  9 16  2  0  0  0  0
  9 10  1  0  0  0  0
 10 18  1  0  0  0  0
 11 19  1  0  0  0  0
 11 20  1  0  0  0  0
 11 21  1  0  0  0  0
 12 22  1  0  0  0  0
 13 23  1  0  0  0  0
M  CHG  2   8   1  15  -1
M  END
>  <Mol_ID>
4589

>  <Formula>
C10H7NO5

>  <MolWeight>
221.16628

>  <Cat>
S9331

>  <Name>
7-Hydroxy-4-methyl-8-nitrocoumarin

>  <Target>
Casein Kinase

>  <Form>
free base

>  <CAS>
19037-69-5

>  <URL>
https://www.selleckchem.com/products/7-hydroxy-4-methyl-8-nitrocoumarin.html

$$$$
