S9330 6-Hydroxy-4-methylcoumarin.cdx
 OpenBabel08302520433D

 21 22  0  0  0  0  0  0  0  0999 V2000
   -0.0545    0.6321    0.0350 C   0  0  0  0  0  0  0  0  0  0  0  0
   -0.0221   -0.7647    0.0371 C   0  0  0  0  0  0  0  0  0  0  0  0
    1.1287    1.3949    0.0533 O   0  0  0  0  0  0  0  0  0  0  0  0
   -1.2520    1.3494   -0.0044 C   0  0  0  0  0  0  0  0  0  0  0  0
    1.2816   -1.4425    0.0148 C   0  0  0  0  0  0  0  0  0  0  0  0
   -1.2464   -1.4432    0.0271 C   0  0  0  0  0  0  0  0  0  0  0  0
    2.3697    0.7842    0.0214 C   0  0  0  0  0  0  0  0  0  0  0  0
   -2.4604    0.6590   -0.0487 C   0  0  0  0  0  0  0  0  0  0  0  0
    2.3898   -0.6860   -0.0023 C   0  0  0  0  0  0  0  0  0  0  0  0
    1.3498   -2.9396   -0.0299 C   0  0  0  0  0  0  0  0  0  0  0  0
   -2.4459   -0.7321   -0.0253 C   0  0  0  0  0  0  0  0  0  0  0  0
    3.4167    1.4237    0.0083 O   0  0  0  0  0  0  0  0  0  0  0  0
   -3.6029   -1.4535   -0.0661 O   0  0  0  0  0  0  0  0  0  0  0  0
   -1.2382    2.4357   -0.0152 H   0  0  0  0  0  0  0  0  0  0  0  0
   -1.2944   -2.5282    0.0433 H   0  0  0  0  0  0  0  0  0  0  0  0
   -3.3911    1.2146   -0.1041 H   0  0  0  0  0  0  0  0  0  0  0  0
    3.3812   -1.1232   -0.0430 H   0  0  0  0  0  0  0  0  0  0  0  0
    0.9095   -3.3751    0.8742 H   0  0  0  0  0  0  0  0  0  0  0  0
    0.8174   -3.3277   -0.9056 H   0  0  0  0  0  0  0  0  0  0  0  0
    2.3825   -3.2989   -0.0933 H   0  0  0  0  0  0  0  0  0  0  0  0
   -4.3535   -0.8396   -0.1268 H   0  0  0  0  0  0  0  0  0  0  0  0
  1  2  2  0  0  0  0
  1  3  1  0  0  0  0
  1  4  1  0  0  0  0
  2  5  1  0  0  0  0
  2  6  1  0  0  0  0
  3  7  1  0  0  0  0
  4  8  2  0  0  0  0
  4 14  1  0  0  0  0
  5  9  2  0  0  0  0
  5 10  1  0  0  0  0
  6 11  2  0  0  0  0
  6 15  1  0  0  0  0
  7 12  2  0  0  0  0
  7  9  1  0  0  0  0
  8 11  1  0  0  0  0
  8 16  1  0  0  0  0
  9 17  1  0  0  0  0
 10 18  1  0  0  0  0
 10 19  1  0  0  0  0
 10 20  1  0  0  0  0
 11 13  1  0  0  0  0
 13 21  1  0  0  0  0
M  END
>  <Mol_ID>
4223

>  <Formula>
C10H8O3

>  <MolWeight>
176.16872

>  <Cat>
S9330

>  <Name>
6-Hydroxy-4-methylcoumarin

>  <Target>
Others

>  <Form>
free base

>  <CAS>
2373-31-1

>  <URL>
https://www.selleckchem.com/products/6-hydroxy-4-methylcoumarin.html

$$$$
