S9337 Ethyl vanillin acetate.cdx
 OpenBabel08302520433D

 27 27  0  0  0  0  0  0  0  0999 V2000
    1.3931   -0.3039    0.6785 C   0  0  0  0  0  0  0  0  0  0  0  0
    0.6053   -1.2865    0.0488 C   0  0  0  0  0  0  0  0  0  0  0  0
    0.8792    0.9993    0.7538 C   0  0  0  0  0  0  0  0  0  0  0  0
    2.6119   -0.6531    1.2206 O   0  0  0  0  0  0  0  0  0  0  0  0
   -0.7427   -1.0311   -0.2418 C   0  0  0  0  0  0  0  0  0  0  0  0
    1.1606   -2.5435   -0.2843 O   0  0  0  0  0  0  0  0  0  0  0  0
   -0.4363    1.2712    0.3687 C   0  0  0  0  0  0  0  0  0  0  0  0
    3.0357    0.2187    2.2889 C   0  0  0  0  0  0  0  0  0  0  0  0
   -1.2677    0.2500   -0.0807 C   0  0  0  0  0  0  0  0  0  0  0  0
    0.8475   -3.0453   -1.5572 C   0  0  0  0  0  0  0  0  0  0  0  0
   -0.9610    2.6474    0.4556 C   0  0  0  0  0  0  0  0  0  0  0  0
    4.0246   -0.4733    3.2066 C   0  0  0  0  0  0  0  0  0  0  0  0
    1.4856   -4.3845   -1.7736 C   0  0  0  0  0  0  0  0  0  0  0  0
    0.1479   -2.5084   -2.4097 O   0  0  0  0  0  0  0  0  0  0  0  0
   -0.2754    3.5795    0.8580 O   0  0  0  0  0  0  0  0  0  0  0  0
    1.4868    1.8249    1.1153 H   0  0  0  0  0  0  0  0  0  0  0  0
   -1.3877   -1.8162   -0.6268 H   0  0  0  0  0  0  0  0  0  0  0  0
    3.5095    1.1064    1.8564 H   0  0  0  0  0  0  0  0  0  0  0  0
    2.1854    0.5254    2.9139 H   0  0  0  0  0  0  0  0  0  0  0  0
   -2.3038    0.4370   -0.3455 H   0  0  0  0  0  0  0  0  0  0  0  0
   -2.0049    2.7982    0.1350 H   0  0  0  0  0  0  0  0  0  0  0  0
    4.8718   -0.8774    2.6472 H   0  0  0  0  0  0  0  0  0  0  0  0
    4.4027    0.2299    3.9541 H   0  0  0  0  0  0  0  0  0  0  0  0
    3.5461   -1.3023    3.7365 H   0  0  0  0  0  0  0  0  0  0  0  0
    1.1693   -5.0876   -1.0007 H   0  0  0  0  0  0  0  0  0  0  0  0
    1.1526   -4.7801   -2.7417 H   0  0  0  0  0  0  0  0  0  0  0  0
    2.5711   -4.2830   -1.8036 H   0  0  0  0  0  0  0  0  0  0  0  0
  1  2  2  0  0  0  0
  1  3  1  0  0  0  0
  1  4  1  0  0  0  0
  2  5  1  0  0  0  0
  2  6  1  0  0  0  0
  3  7  2  0  0  0  0
  3 16  1  0  0  0  0
  4  8  1  0  0  0  0
  5  9  2  0  0  0  0
  5 17  1  0  0  0  0
  6 10  1  0  0  0  0
  7 11  1  0  0  0  0
  7  9  1  0  0  0  0
  8 12  1  0  0  0  0
  8 18  1  0  0  0  0
  8 19  1  0  0  0  0
  9 20  1  0  0  0  0
 10 13  1  0  0  0  0
 10 14  2  0  0  0  0
 11 15  2  0  0  0  0
 11 21  1  0  0  0  0
 12 22  1  0  0  0  0
 12 23  1  0  0  0  0
 12 24  1  0  0  0  0
 13 25  1  0  0  0  0
 13 26  1  0  0  0  0
 13 27  1  0  0  0  0
M  END
>  <Mol_ID>
4225

>  <Formula>
C11H12O4

>  <MolWeight>
208.21058

>  <Cat>
S9337

>  <Name>
Ethyl vanillin acetate

>  <Target>
Others

>  <Form>
free base

>  <CAS>
72207-94-4

>  <URL>
https://www.selleckchem.com/products/ethyl-vanillin-acetate.html

$$$$
