S9339 S-(-)-Cotinine.cdx
 OpenBabel08302521213D

 25 26  0  0  0  0  0  0  0  0999 V2000
    1.0586    1.1415   -0.0618 C   0  0  1  0  0  0  0  0  0  0  0  0
    1.4354    2.1500   -1.1224 C   0  0  0  0  0  0  0  0  0  0  0  0
   -0.3052    0.6616   -0.1574 N   0  0  0  0  0  0  0  0  0  0  0  0
    1.9055   -0.1349   -0.1216 C   0  0  0  0  0  0  0  0  0  0  0  0
    1.3868    1.8538   -2.4906 C   0  0  0  0  0  0  0  0  0  0  0  0
    1.8806    3.4242   -0.7781 C   0  0  0  0  0  0  0  0  0  0  0  0
   -0.4131   -0.6933    0.1103 C   0  0  0  0  0  0  0  0  0  0  0  0
   -1.4429    1.5501   -0.0366 C   0  0  0  0  0  0  0  0  0  0  0  0
    0.9642   -1.2719    0.2564 C   0  0  0  0  0  0  0  0  0  0  0  0
    1.8122    2.7925   -3.4293 C   0  0  0  0  0  0  0  0  0  0  0  0
    2.2940    4.3599   -1.6689 N   0  0  0  0  0  0  0  0  0  0  0  0
   -1.4479   -1.3278    0.2517 O   0  0  0  0  0  0  0  0  0  0  0  0
    2.2595    4.0185   -2.9719 C   0  0  0  0  0  0  0  0  0  0  0  0
    1.1647    1.5849    0.9376 H   0  0  0  0  0  0  0  0  0  0  0  0
    2.7616   -0.0829    0.5608 H   0  0  0  0  0  0  0  0  0  0  0  0
    2.3177   -0.3281   -1.1185 H   0  0  0  0  0  0  0  0  0  0  0  0
    1.0259    0.8861   -2.8326 H   0  0  0  0  0  0  0  0  0  0  0  0
    1.9287    3.7515    0.2570 H   0  0  0  0  0  0  0  0  0  0  0  0
   -1.3295    2.1456    0.8742 H   0  0  0  0  0  0  0  0  0  0  0  0
   -1.4887    2.2061   -0.9074 H   0  0  0  0  0  0  0  0  0  0  0  0
   -2.3733    0.9795    0.0358 H   0  0  0  0  0  0  0  0  0  0  0  0
    1.1088   -1.5871    1.2937 H   0  0  0  0  0  0  0  0  0  0  0  0
    1.0851   -2.1289   -0.4134 H   0  0  0  0  0  0  0  0  0  0  0  0
    1.7992    2.5686   -4.4900 H   0  0  0  0  0  0  0  0  0  0  0  0
    2.6131    4.7807   -3.6641 H   0  0  0  0  0  0  0  0  0  0  0  0
  1  3  1  0  0  0  0
  1  4  1  0  0  0  0
  1 14  1  1  0  0  0
  1  2  1  0  0  0  0
  2  5  2  0  0  0  0
  2  6  1  0  0  0  0
  3  7  1  0  0  0  0
  3  8  1  0  0  0  0
  4  9  1  0  0  0  0
  4 15  1  0  0  0  0
  4 16  1  0  0  0  0
  5 10  1  0  0  0  0
  5 17  1  0  0  0  0
  6 11  2  0  0  0  0
  6 18  1  0  0  0  0
  7 12  2  0  0  0  0
  7  9  1  0  0  0  0
  8 19  1  0  0  0  0
  8 20  1  0  0  0  0
  8 21  1  0  0  0  0
  9 22  1  0  0  0  0
  9 23  1  0  0  0  0
 10 13  2  0  0  0  0
 10 24  1  0  0  0  0
 11 13  1  0  0  0  0
 13 25  1  0  0  0  0
M  END
>  <Mol_ID>
4577

>  <Formula>
C10H12N2O

>  <MolWeight>
176.21508

>  <Cat>
S9339

>  <Name>
S-(-)-Cotinine

>  <Target>
Others

>  <Form>
free base

>  <CAS>
486-56-6

>  <URL>
https://www.selleckchem.com/products/s-cotinine.html

$$$$
