S9341 3,4-Dimethoxycinnamic acid.cdx
 OpenBabel08302521213D

 27 27  0  0  0  0  0  0  0  0999 V2000
   -0.1756    1.3356   -0.5865 C   0  0  0  0  0  0  0  0  0  0  0  0
   -0.9746    0.4216   -1.4191 C   0  0  0  0  0  0  0  0  0  0  0  0
   -1.0733   -0.8817   -1.1093 C   0  0  0  0  0  0  0  0  0  0  0  0
   -1.7822   -1.8405   -1.9677 C   0  0  0  0  0  0  0  0  0  0  0  0
   -1.3512   -3.1741   -2.0048 C   0  0  0  0  0  0  0  0  0  0  0  0
   -1.9724   -4.1254   -2.8318 C   0  0  0  0  0  0  0  0  0  0  0  0
   -3.0554   -3.7270   -3.6341 C   0  0  0  0  0  0  0  0  0  0  0  0
   -3.5071   -2.4006   -3.5675 C   0  0  0  0  0  0  0  0  0  0  0  0
   -2.8832   -1.4706   -2.7403 C   0  0  0  0  0  0  0  0  0  0  0  0
    0.4379    0.9969    0.4110 O   0  0  0  0  0  0  0  0  0  0  0  0
   -0.1844    2.5905   -1.0610 O   0  0  0  0  0  0  0  0  0  0  0  0
   -3.7804   -4.4744   -4.5274 O   0  0  0  0  0  0  0  0  0  0  0  0
   -3.4393   -5.8412   -4.7009 C   0  0  0  0  0  0  0  0  0  0  0  0
   -1.5689   -5.4334   -2.8833 O   0  0  0  0  0  0  0  0  0  0  0  0
   -0.4760   -5.8400   -2.0726 C   0  0  0  0  0  0  0  0  0  0  0  0
   -1.4414    0.8281   -2.3044 H   0  0  0  0  0  0  0  0  0  0  0  0
   -0.5784   -1.2839   -0.2255 H   0  0  0  0  0  0  0  0  0  0  0  0
   -0.5089   -3.4538   -1.3787 H   0  0  0  0  0  0  0  0  0  0  0  0
   -4.3618   -2.0906   -4.1658 H   0  0  0  0  0  0  0  0  0  0  0  0
   -3.2761   -0.4593   -2.7111 H   0  0  0  0  0  0  0  0  0  0  0  0
   -0.7112    2.7340   -1.8698 H   0  0  0  0  0  0  0  0  0  0  0  0
   -2.3874   -5.9696   -4.9755 H   0  0  0  0  0  0  0  0  0  0  0  0
   -3.7101   -6.4214   -3.8129 H   0  0  0  0  0  0  0  0  0  0  0  0
   -4.0246   -6.2287   -5.5404 H   0  0  0  0  0  0  0  0  0  0  0  0
    0.4414   -5.3122   -2.3535 H   0  0  0  0  0  0  0  0  0  0  0  0
   -0.7062   -5.7077   -1.0109 H   0  0  0  0  0  0  0  0  0  0  0  0
   -0.3110   -6.9078   -2.2458 H   0  0  0  0  0  0  0  0  0  0  0  0
  1  2  1  0  0  0  0
  1 10  2  0  0  0  0
  1 11  1  0  0  0  0
  2  3  2  0  0  0  0
  2 16  1  0  0  0  0
  3  4  1  0  0  0  0
  3 17  1  0  0  0  0
  4  5  2  0  0  0  0
  4  9  1  0  0  0  0
  5  6  1  0  0  0  0
  5 18  1  0  0  0  0
  6  7  2  0  0  0  0
  6 14  1  0  0  0  0
  7  8  1  0  0  0  0
  7 12  1  0  0  0  0
  8  9  2  0  0  0  0
  8 19  1  0  0  0  0
  9 20  1  0  0  0  0
 11 21  1  0  0  0  0
 12 13  1  0  0  0  0
 13 22  1  0  0  0  0
 13 23  1  0  0  0  0
 13 24  1  0  0  0  0
 14 15  1  0  0  0  0
 15 25  1  0  0  0  0
 15 26  1  0  0  0  0
 15 27  1  0  0  0  0
M  END
>  <Mol_ID>
4578

>  <Formula>
C11H12O4

>  <MolWeight>
208.21058

>  <Cat>
S9341

>  <Name>
3,4-Dimethoxycinnamic acid

>  <Synonyms>
Caffeic acid dimethyl ether

>  <Target>
Anti-infection

>  <Form>
free base

>  <CAS>
2316-26-9

>  <URL>
https://www.selleckchem.com/products/3-4-dimethoxycinnamic-acid.html

$$$$
