S9343 Sequoyitol.cdx
 OpenBabel08302520433D

 27 27  0  0  0  0  0  0  0  0999 V2000
    0.7491    1.2418   -0.1473 C   0  0  1  0  0  0  0  0  0  0  0  0
    1.5087   -0.0540    0.2250 C   0  0  1  0  0  0  0  0  0  0  0  0
   -0.7431    1.2215    0.2584 C   0  0  2  0  0  0  0  0  0  0  0  0
    1.4136    2.4406    0.2929 O   0  0  0  0  0  0  0  0  0  0  0  0
    0.7556   -1.2906   -0.3042 C   0  0  2  0  0  0  0  0  0  0  0  0
    2.8417   -0.0043   -0.3133 O   0  0  0  0  0  0  0  0  0  0  0  0
   -1.4569   -0.0724   -0.1836 C   0  0  1  0  0  0  0  0  0  0  0  0
   -1.4367    2.3477   -0.3138 O   0  0  0  0  0  0  0  0  0  0  0  0
    1.5997    2.5709    1.6967 C   0  0  0  0  0  0  0  0  0  0  0  0
   -0.6808   -1.3220    0.2394 C   0  0  2  0  0  0  0  0  0  0  0  0
    1.4687   -2.4817    0.0405 O   0  0  0  0  0  0  0  0  0  0  0  0
   -2.7469   -0.1346    0.4520 O   0  0  0  0  0  0  0  0  0  0  0  0
   -0.6840   -1.4005    1.6718 O   0  0  0  0  0  0  0  0  0  0  0  0
    0.7890    1.3314   -1.2424 H   0  0  0  0  0  0  0  0  0  0  0  0
    1.6363   -0.1434    1.3079 H   0  0  0  0  0  0  0  0  0  0  0  0
   -0.8565    1.3393    1.3421 H   0  0  0  0  0  0  0  0  0  0  0  0
    0.7357   -1.2637   -1.4008 H   0  0  0  0  0  0  0  0  0  0  0  0
    2.7932    0.0175   -1.2819 H   0  0  0  0  0  0  0  0  0  0  0  0
   -1.6223   -0.0590   -1.2684 H   0  0  0  0  0  0  0  0  0  0  0  0
   -1.0910    2.5163   -1.2068 H   0  0  0  0  0  0  0  0  0  0  0  0
    0.6459    2.5798    2.2294 H   0  0  0  0  0  0  0  0  0  0  0  0
    2.2455    1.7826    2.0911 H   0  0  0  0  0  0  0  0  0  0  0  0
    2.0941    3.5287    1.8832 H   0  0  0  0  0  0  0  0  0  0  0  0
   -1.1986   -2.2238   -0.1055 H   0  0  0  0  0  0  0  0  0  0  0  0
    0.8710   -3.2452   -0.0444 H   0  0  0  0  0  0  0  0  0  0  0  0
   -3.1945   -0.9495    0.1645 H   0  0  0  0  0  0  0  0  0  0  0  0
   -1.5343   -1.0203    1.9781 H   0  0  0  0  0  0  0  0  0  0  0  0
  1  2  1  0  0  0  0
  1  3  1  0  0  0  0
  1  4  1  0  0  0  0
  1 14  1  6  0  0  0
  2  5  1  0  0  0  0
  2  6  1  0  0  0  0
  2 15  1  1  0  0  0
  3  7  1  0  0  0  0
  3 16  1  1  0  0  0
  3  8  1  0  0  0  0
  4  9  1  0  0  0  0
  5 10  1  0  0  0  0
  5 17  1  6  0  0  0
  5 11  1  0  0  0  0
  6 18  1  0  0  0  0
  7 10  1  0  0  0  0
  7 19  1  6  0  0  0
  7 12  1  0  0  0  0
  8 20  1  0  0  0  0
  9 21  1  0  0  0  0
  9 22  1  0  0  0  0
  9 23  1  0  0  0  0
 10 24  1  6  0  0  0
 10 13  1  0  0  0  0
 11 25  1  0  0  0  0
 12 26  1  0  0  0  0
 13 27  1  0  0  0  0
M  END
>  <Mol_ID>
4227

>  <Formula>
C7H14O6

>  <MolWeight>
194.18246

>  <Cat>
S9343

>  <Name>
Sequoyitol

>  <Target>
Others

>  <Form>
free base

>  <CAS>
523-92-2

>  <URL>
https://www.selleckchem.com/products/sequoyitol.html

$$$$
