S9344 DL-Methionine.cdx
 OpenBabel08302521383D

 20 19  0  0  0  0  0  0  0  0999 V2000
    0.9542   -0.0661   -0.2395 C   0  0  3  0  0  0  0  0  0  0  0  0
    2.4737   -0.0241   -0.4666 C   0  0  0  0  0  0  0  0  0  0  0  0
    0.5848   -1.1199    0.8142 C   0  0  0  0  0  0  0  0  0  0  0  0
    0.2734   -0.4153   -1.5102 N   0  0  0  0  0  0  0  0  0  0  0  0
    3.1131    0.8969    0.2963 O   0  0  0  0  0  0  0  0  0  0  0  0
    3.0674   -0.7435   -1.2555 O   0  0  0  0  0  0  0  0  0  0  0  0
    1.0777   -0.8427    2.2373 C   0  0  0  0  0  0  0  0  0  0  0  0
    0.6414    0.8132    2.8694 S   0  0  0  0  0  0  0  0  0  0  0  0
   -1.1564    0.6218    3.0503 C   0  0  0  0  0  0  0  0  0  0  0  0
    0.6014    0.9332    0.0278 H   0  0  0  0  0  0  0  0  0  0  0  0
   -0.5044   -1.2464    0.8327 H   0  0  0  0  0  0  0  0  0  0  0  0
    0.9889   -2.0962    0.5116 H   0  0  0  0  0  0  0  0  0  0  0  0
    0.6391    0.1914   -2.2482 H   0  0  0  0  0  0  0  0  0  0  0  0
    0.5854   -1.3502   -1.7894 H   0  0  0  0  0  0  0  0  0  0  0  0
    2.5245    1.4070    0.8916 H   0  0  0  0  0  0  0  0  0  0  0  0
    0.6885   -1.6026    2.9243 H   0  0  0  0  0  0  0  0  0  0  0  0
    2.1697   -0.9242    2.2709 H   0  0  0  0  0  0  0  0  0  0  0  0
   -1.5839   -0.0201    2.2782 H   0  0  0  0  0  0  0  0  0  0  0  0
   -1.3970    0.2107    4.0342 H   0  0  0  0  0  0  0  0  0  0  0  0
   -1.6221    1.6070    2.9626 H   0  0  0  0  0  0  0  0  0  0  0  0
  1  2  1  0  0  0  0
  1  3  1  0  0  0  0
  1  4  1  0  0  0  0
  1 10  1  0  0  0  0
  2  5  1  0  0  0  0
  2  6  2  0  0  0  0
  3  7  1  0  0  0  0
  3 11  1  0  0  0  0
  3 12  1  0  0  0  0
  4 13  1  0  0  0  0
  4 14  1  0  0  0  0
  5 15  1  0  0  0  0
  7  8  1  0  0  0  0
  7 16  1  0  0  0  0
  7 17  1  0  0  0  0
  8  9  1  0  0  0  0
  9 18  1  0  0  0  0
  9 19  1  0  0  0  0
  9 20  1  0  0  0  0
M  END
>  <Mol_ID>
7877

>  <Formula>
C5H11NO2S

>  <MolWeight>
149.21134

>  <Cat>
S9344

>  <Name>
DL-Methionine

>  <Target>
Antiviral

>  <Form>
free base

>  <CAS>
59-51-8

>  <URL>
https://www.selleckchem.com/products/dl-methionine.html

$$$$
