S9340 Bz-RS-ISer(3-Ph)-Ome.cdx
 OpenBabel08302520433D

 39 40  0  0  0  0  0  0  0  0999 V2000
    3.0818   -0.3435   -1.7529 N   0  0  0  0  0  0  0  0  0  0  0  0
    0.6041   -1.0367   -2.0034 C   0  0  2  0  0  0  0  0  0  0  0  0
    2.1075   -1.2719   -2.3419 C   0  0  2  0  0  0  0  0  0  0  0  0
    3.2989    0.8505   -2.4290 C   0  0  0  0  0  0  0  0  0  0  0  0
   -0.0250    0.1859   -2.6751 C   0  0  0  0  0  0  0  0  0  0  0  0
    2.4624    1.3135   -3.2052 O   0  0  0  0  0  0  0  0  0  0  0  0
    4.6476    1.4768   -2.3918 C   0  0  0  0  0  0  0  0  0  0  0  0
    2.3769   -2.7506   -2.0202 C   0  0  0  0  0  0  0  0  0  0  0  0
   -0.5161    1.1234   -2.0701 O   0  0  0  0  0  0  0  0  0  0  0  0
    0.3843   -1.0617   -0.5824 O   0  0  0  0  0  0  0  0  0  0  0  0
   -0.1282   -0.0114   -4.0261 O   0  0  0  0  0  0  0  0  0  0  0  0
    5.5269    1.4363   -1.3113 C   0  0  0  0  0  0  0  0  0  0  0  0
    5.0607    2.0824   -3.5940 C   0  0  0  0  0  0  0  0  0  0  0  0
    2.3801   -3.6704   -3.0830 C   0  0  0  0  0  0  0  0  0  0  0  0
    2.2700   -3.2404   -0.7070 C   0  0  0  0  0  0  0  0  0  0  0  0
   -0.7654    1.0776   -4.6953 C   0  0  0  0  0  0  0  0  0  0  0  0
    6.8293    1.9450   -1.4668 C   0  0  0  0  0  0  0  0  0  0  0  0
    1.9842   -4.5889   -0.4811 C   0  0  0  0  0  0  0  0  0  0  0  0
    2.1105   -5.0194   -2.8507 C   0  0  0  0  0  0  0  0  0  0  0  0
    6.3553    2.5706   -3.7527 C   0  0  0  0  0  0  0  0  0  0  0  0
    1.8668   -5.4687   -1.5552 C   0  0  0  0  0  0  0  0  0  0  0  0
    7.2465    2.4852   -2.6916 C   0  0  0  0  0  0  0  0  0  0  0  0
    3.7917   -0.7181   -1.1375 H   0  0  0  0  0  0  0  0  0  0  0  0
    0.0264   -1.8869   -2.4039 H   0  0  0  0  0  0  0  0  0  0  0  0
    2.2273   -1.1612   -3.4294 H   0  0  0  0  0  0  0  0  0  0  0  0
   -0.3728   -1.6545   -0.4355 H   0  0  0  0  0  0  0  0  0  0  0  0
    5.2278    1.0305   -0.3501 H   0  0  0  0  0  0  0  0  0  0  0  0
    4.3695    2.1508   -4.4349 H   0  0  0  0  0  0  0  0  0  0  0  0
    2.4906   -3.3278   -4.1101 H   0  0  0  0  0  0  0  0  0  0  0  0
    2.2677   -2.5556    0.1400 H   0  0  0  0  0  0  0  0  0  0  0  0
   -1.7237    1.3286   -4.2280 H   0  0  0  0  0  0  0  0  0  0  0  0
   -0.1013    1.9468   -4.7066 H   0  0  0  0  0  0  0  0  0  0  0  0
   -0.9654    0.7763   -5.7271 H   0  0  0  0  0  0  0  0  0  0  0  0
    7.5282    1.9198   -0.6365 H   0  0  0  0  0  0  0  0  0  0  0  0
    1.7879   -4.9394    0.5296 H   0  0  0  0  0  0  0  0  0  0  0  0
    2.0293   -5.7073   -3.6887 H   0  0  0  0  0  0  0  0  0  0  0  0
    6.6641    2.9962   -4.7044 H   0  0  0  0  0  0  0  0  0  0  0  0
    1.5694   -6.5003   -1.3849 H   0  0  0  0  0  0  0  0  0  0  0  0
    8.2652    2.8481   -2.8101 H   0  0  0  0  0  0  0  0  0  0  0  0
  1 23  1  0  0  0  0
  2 24  1  6  0  0  0
  2 10  1  0  0  0  0
  2  3  1  0  0  0  0
  3 25  1  6  0  0  0
  3  8  1  0  0  0  0
  3  1  1  0  0  0  0
  4  1  1  0  0  0  0
  5  2  1  0  0  0  0
  6  4  2  0  0  0  0
  7  4  1  0  0  0  0
  9  5  2  0  0  0  0
 10 26  1  0  0  0  0
 11  5  1  0  0  0  0
 12  7  2  0  0  0  0
 12 27  1  0  0  0  0
 13  7  1  0  0  0  0
 13 28  1  0  0  0  0
 14  8  2  0  0  0  0
 14 29  1  0  0  0  0
 15  8  1  0  0  0  0
 15 30  1  0  0  0  0
 16 11  1  0  0  0  0
 16 31  1  0  0  0  0
 16 32  1  0  0  0  0
 16 33  1  0  0  0  0
 17 12  1  0  0  0  0
 17 22  2  0  0  0  0
 17 34  1  0  0  0  0
 18 15  2  0  0  0  0
 18 35  1  0  0  0  0
 19 14  1  0  0  0  0
 19 21  2  0  0  0  0
 19 36  1  0  0  0  0
 20 13  2  0  0  0  0
 20 37  1  0  0  0  0
 21 18  1  0  0  0  0
 21 38  1  0  0  0  0
 22 20  1  0  0  0  0
 22 39  1  0  0  0  0
M  END
>  <Mol_ID>
4226

>  <Formula>
C17H17NO4

>  <MolWeight>
299.32118

>  <Cat>
S9340

>  <Name>
Bz-RS-ISer(3-Ph)-Ome

>  <Target>
Others

>  <Form>
free base

>  <CAS>
32981-85-4

>  <URL>
https://www.selleckchem.com/products/bz-rs-iser-3-ph-ome.html

$$$$
