S9357 Phenylacetaldehyde.cdx
 OpenBabel08302521213D

 17 17  0  0  0  0  0  0  0  0999 V2000
    1.3781   -0.2296    0.0754 C   0  0  0  0  0  0  0  0  0  0  0  0
    0.4879   -1.3116    0.0258 C   0  0  0  0  0  0  0  0  0  0  0  0
    0.8637    1.0744    0.0459 C   0  0  0  0  0  0  0  0  0  0  0  0
    2.8663   -0.4549    0.1581 C   0  0  0  0  0  0  0  0  0  0  0  0
   -0.8902   -1.0910   -0.0231 C   0  0  0  0  0  0  0  0  0  0  0  0
   -0.5142    1.2920   -0.0002 C   0  0  0  0  0  0  0  0  0  0  0  0
    3.5122   -0.5621   -1.1955 C   0  0  0  0  0  0  0  0  0  0  0  0
   -1.3909    0.2096   -0.0300 C   0  0  0  0  0  0  0  0  0  0  0  0
    4.4141    0.1826   -1.5805 O   0  0  0  0  0  0  0  0  0  0  0  0
    0.8568   -2.3346    0.0398 H   0  0  0  0  0  0  0  0  0  0  0  0
    1.5339    1.9321    0.0718 H   0  0  0  0  0  0  0  0  0  0  0  0
    3.3385    0.3607    0.7159 H   0  0  0  0  0  0  0  0  0  0  0  0
    3.0776   -1.3784    0.7108 H   0  0  0  0  0  0  0  0  0  0  0  0
   -1.5758   -1.9344   -0.0471 H   0  0  0  0  0  0  0  0  0  0  0  0
   -0.9037    2.3069   -0.0063 H   0  0  0  0  0  0  0  0  0  0  0  0
    3.1640   -1.3968   -1.8307 H   0  0  0  0  0  0  0  0  0  0  0  0
   -2.4642    0.3801   -0.0565 H   0  0  0  0  0  0  0  0  0  0  0  0
  1  2  2  0  0  0  0
  1  3  1  0  0  0  0
  1  4  1  0  0  0  0
  2  5  1  0  0  0  0
  2 10  1  0  0  0  0
  3  6  2  0  0  0  0
  3 11  1  0  0  0  0
  4  7  1  0  0  0  0
  4 12  1  0  0  0  0
  4 13  1  0  0  0  0
  5  8  2  0  0  0  0
  5 14  1  0  0  0  0
  6  8  1  0  0  0  0
  6 15  1  0  0  0  0
  7  9  2  0  0  0  0
  7 16  1  0  0  0  0
  8 17  1  0  0  0  0
M  END
>  <Mol_ID>
4575

>  <Formula>
C8H8O

>  <MolWeight>
120.14852

>  <Cat>
S9357

>  <Name>
Phenylacetaldehyde

>  <Synonyms>
Hyacinthin, Phenylethanal

>  <Target>
Others

>  <Form>
free base

>  <CAS>
122-78-1

>  <URL>
https://www.selleckchem.com/products/phenylacetaldehyde.html

$$$$
