S9353 L-serine.cdx
 OpenBabel08302521383D

 14 13  0  0  0  0  0  0  0  0999 V2000
    0.8876    0.0320   -0.0973 C   0  0  2  0  0  0  0  0  0  0  0  0
    0.3493    1.1876   -0.9441 C   0  0  0  0  0  0  0  0  0  0  0  0
    0.4072   -1.2926   -0.7101 C   0  0  0  0  0  0  0  0  0  0  0  0
    0.5052    0.1217    1.3338 N   0  0  0  0  0  0  0  0  0  0  0  0
   -0.4223    2.0636   -0.2616 O   0  0  0  0  0  0  0  0  0  0  0  0
    0.5826    1.3237   -2.1387 O   0  0  0  0  0  0  0  0  0  0  0  0
    0.8492   -2.4265    0.0401 O   0  0  0  0  0  0  0  0  0  0  0  0
    1.9835    0.0795   -0.1229 H   0  0  0  0  0  0  0  0  0  0  0  0
   -0.6869   -1.3308   -0.7586 H   0  0  0  0  0  0  0  0  0  0  0  0
    0.7865   -1.4043   -1.7322 H   0  0  0  0  0  0  0  0  0  0  0  0
    0.8534    0.9507    1.8036 H   0  0  0  0  0  0  0  0  0  0  0  0
   -0.4769   -0.0749    1.5046 H   0  0  0  0  0  0  0  0  0  0  0  0
   -0.5185    1.7901    0.6707 H   0  0  0  0  0  0  0  0  0  0  0  0
    1.5040   -2.1147    0.6893 H   0  0  0  0  0  0  0  0  0  0  0  0
  1  2  1  0  0  0  0
  1  3  1  0  0  0  0
  1  4  1  0  0  0  0
  1  8  1  6  0  0  0
  2  5  1  0  0  0  0
  2  6  2  0  0  0  0
  3  7  1  0  0  0  0
  3  9  1  0  0  0  0
  3 10  1  0  0  0  0
  4 11  1  0  0  0  0
  4 12  1  0  0  0  0
  5 13  1  0  0  0  0
  7 14  1  0  0  0  0
M  END
>  <Mol_ID>
7878

>  <Formula>
C3H7NO3

>  <MolWeight>
105.09258

>  <Cat>
S9353

>  <Name>
L-serine

>  <Target>
Others

>  <Form>
free base

>  <CAS>
56-45-1

>  <URL>
https://www.selleckchem.com/products/l-serine.html

$$$$
