S9366 5'-Adenylic acid.cdx
 OpenBabel08302520433D

 37 39  0  0  0  0  0  0  0  0999 V2000
    0.8326   -0.1925   -0.1173 C   0  0  0  0  0  0  0  0  0  0  0  0
    2.3653   -0.2962   -0.1151 C   0  0  2  0  0  0  0  0  0  0  0  0
    3.0294    0.1484   -1.4177 C   0  0  1  0  0  0  0  0  0  0  0  0
    4.3366    0.7104   -1.2153 O   0  0  0  0  0  0  0  0  0  0  0  0
    3.2010   -1.1561   -2.1741 C   0  0  1  0  0  0  0  0  0  0  0  0
    4.2512   -1.0925   -3.1331 O   0  0  0  0  0  0  0  0  0  0  0  0
    3.4748   -2.1625   -1.0525 C   0  0  1  0  0  0  0  0  0  0  0  0
    2.7355   -1.6847    0.0871 O   0  0  0  0  0  0  0  0  0  0  0  0
    3.1116   -3.5384   -1.3328 N   0  0  0  0  0  0  0  0  0  0  0  0
    2.4943   -4.0147   -2.4615 C   0  0  0  0  0  0  0  0  0  0  0  0
    2.4981   -5.3270   -2.5288 N   0  0  0  0  0  0  0  0  0  0  0  0
    3.1496   -5.7278   -1.3868 C   0  0  0  0  0  0  0  0  0  0  0  0
    3.5210   -7.0002   -0.9240 C   0  0  0  0  0  0  0  0  0  0  0  0
    3.3173   -8.1572   -1.6667 N   0  0  0  0  0  0  0  0  0  0  0  0
    4.1126   -7.0992    0.2856 N   0  0  0  0  0  0  0  0  0  0  0  0
    4.3603   -5.9572    0.9662 C   0  0  0  0  0  0  0  0  0  0  0  0
    4.1185   -4.6810    0.5926 N   0  0  0  0  0  0  0  0  0  0  0  0
    3.4967   -4.6392   -0.5993 C   0  0  0  0  0  0  0  0  0  0  0  0
   -0.9156   -0.0348    1.8467 P   0  0  0  0  0  0  0  0  0  0  0  0
   -1.0763   -0.3584    3.2939 O   0  0  0  0  0  0  0  0  0  0  0  0
    0.3793   -0.6423    1.1515 O   0  0  0  0  0  0  0  0  0  0  0  0
   -0.8724    1.5443    1.6185 O   0  0  0  0  0  0  0  0  0  0  0  0
   -2.1859   -0.5001    1.0077 O   0  0  0  0  0  0  0  0  0  0  0  0
    0.5295    0.8445   -0.2951 H   0  0  0  0  0  0  0  0  0  0  0  0
    0.3904   -0.8303   -0.8886 H   0  0  0  0  0  0  0  0  0  0  0  0
    2.7588    0.2645    0.7409 H   0  0  0  0  0  0  0  0  0  0  0  0
    2.4507    0.8838   -1.9840 H   0  0  0  0  0  0  0  0  0  0  0  0
    4.6501    0.4960   -0.3206 H   0  0  0  0  0  0  0  0  0  0  0  0
    2.2652   -1.3669   -2.6952 H   0  0  0  0  0  0  0  0  0  0  0  0
    4.8560   -0.3804   -2.8330 H   0  0  0  0  0  0  0  0  0  0  0  0
    4.5396   -2.1687   -0.7857 H   0  0  0  0  0  0  0  0  0  0  0  0
    2.0821   -3.3790   -3.2331 H   0  0  0  0  0  0  0  0  0  0  0  0
    2.6045   -8.0661   -2.3784 H   0  0  0  0  0  0  0  0  0  0  0  0
    3.3492   -8.9988   -1.1098 H   0  0  0  0  0  0  0  0  0  0  0  0
    4.8190   -6.0886    1.9431 H   0  0  0  0  0  0  0  0  0  0  0  0
   -0.9541    1.9962    2.4773 H   0  0  0  0  0  0  0  0  0  0  0  0
   -2.8907   -0.8045    1.6130 H   0  0  0  0  0  0  0  0  0  0  0  0
  1 21  1  0  0  0  0
  1 24  1  0  0  0  0
  1 25  1  0  0  0  0
  2  1  1  0  0  0  0
  2  3  1  0  0  0  0
  2  8  1  0  0  0  0
  2 26  1  1  0  0  0
  3  4  1  0  0  0  0
  3  5  1  0  0  0  0
  3 27  1  6  0  0  0
  4 28  1  0  0  0  0
  5  6  1  0  0  0  0
  5  7  1  0  0  0  0
  5 29  1  6  0  0  0
  6 30  1  0  0  0  0
  7  8  1  0  0  0  0
  7 31  1  1  0  0  0
  7  9  1  0  0  0  0
  9 10  1  0  0  0  0
  9 18  1  0  0  0  0
 10 11  2  0  0  0  0
 10 32  1  0  0  0  0
 11 12  1  0  0  0  0
 12 13  2  0  0  0  0
 12 18  1  0  0  0  0
 13 14  1  0  0  0  0
 13 15  1  0  0  0  0
 14 33  1  0  0  0  0
 14 34  1  0  0  0  0
 15 16  2  0  0  0  0
 16 17  1  0  0  0  0
 16 35  1  0  0  0  0
 17 18  2  0  0  0  0
 19 20  2  0  0  0  0
 19 21  1  0  0  0  0
 19 22  1  0  0  0  0
 19 23  1  0  0  0  0
 22 36  1  0  0  0  0
 23 37  1  0  0  0  0
M  END
>  <Mol_ID>
4235

>  <Formula>
C10H14N5O7P

>  <MolWeight>
347.221221

>  <Cat>
S9366

>  <Name>
5'-Adenylic acid

>  <Synonyms>
AMP, Adenosine monophosphate

>  <Target>
Others

>  <Form>
free base

>  <CAS>
61-19-8

>  <URL>
https://www.selleckchem.com/products/5-adenylic-acid.html

$$$$
