S9360 4-Hydroxyquinazoline.cdx
 OpenBabel08302520433D

 17 18  0  0  0  0  0  0  0  0999 V2000
   -0.4605    0.8810   -0.0070 C   0  0  0  0  0  0  0  0  0  0  0  0
   -0.0835   -0.4660   -0.0174 C   0  0  0  0  0  0  0  0  0  0  0  0
    0.4770    1.9296   -0.0098 N   0  0  0  0  0  0  0  0  0  0  0  0
   -1.8214    1.1917    0.0081 C   0  0  0  0  0  0  0  0  0  0  0  0
    1.3599   -0.7666   -0.0116 C   0  0  0  0  0  0  0  0  0  0  0  0
   -1.0351   -1.4903   -0.0240 C   0  0  0  0  0  0  0  0  0  0  0  0
    1.7252    1.6090   -0.0076 C   0  0  0  0  0  0  0  0  0  0  0  0
   -2.7830    0.1761    0.0112 C   0  0  0  0  0  0  0  0  0  0  0  0
    2.1894    0.3258   -0.0030 N   0  0  0  0  0  0  0  0  0  0  0  0
    1.7918   -1.9128   -0.0106 O   0  0  0  0  0  0  0  0  0  0  0  0
   -2.3904   -1.1633   -0.0081 C   0  0  0  0  0  0  0  0  0  0  0  0
   -2.1321    2.2333    0.0196 H   0  0  0  0  0  0  0  0  0  0  0  0
   -0.7230   -2.5318   -0.0388 H   0  0  0  0  0  0  0  0  0  0  0  0
    2.5182    2.3733   -0.0099 H   0  0  0  0  0  0  0  0  0  0  0  0
   -3.8396    0.4332    0.0283 H   0  0  0  0  0  0  0  0  0  0  0  0
    3.1804    0.1337    0.0060 H   0  0  0  0  0  0  0  0  0  0  0  0
   -3.1405   -1.9507   -0.0082 H   0  0  0  0  0  0  0  0  0  0  0  0
  1  2  2  0  0  0  0
  1  3  1  0  0  0  0
  1  4  1  0  0  0  0
  2  5  1  0  0  0  0
  2  6  1  0  0  0  0
  3  7  2  0  0  0  0
  4  8  2  0  0  0  0
  4 12  1  0  0  0  0
  5  9  1  0  0  0  0
  5 10  2  0  0  0  0
  6 11  2  0  0  0  0
  6 13  1  0  0  0  0
  7  9  1  0  0  0  0
  7 14  1  0  0  0  0
  8 11  1  0  0  0  0
  8 15  1  0  0  0  0
  9 16  1  0  0  0  0
 11 17  1  0  0  0  0
M  END
>  <Mol_ID>
4231

>  <Formula>
C8H6N2O

>  <MolWeight>
146.14604

>  <Cat>
S9360

>  <Name>
4-Hydroxyquinazoline

>  <Synonyms>
Quinazolin-4-ol, 4-Quinazolinol

>  <Target>
PARP

>  <Form>
free base

>  <CAS>
491-36-1

>  <URL>
https://www.selleckchem.com/products/4-hydroxyquinazoline-.html

$$$$
