S9361 Coumarin-3-carboxylic acid.cdx
 OpenBabel08302520433D

 20 21  0  0  0  0  0  0  0  0999 V2000
    0.5765   -0.8239   -0.0081 C   0  0  0  0  0  0  0  0  0  0  0  0
    0.3200    0.5430   -0.0458 C   0  0  0  0  0  0  0  0  0  0  0  0
   -0.5441   -1.7493   -0.0564 C   0  0  0  0  0  0  0  0  0  0  0  0
    1.9014   -1.2598    0.0571 C   0  0  0  0  0  0  0  0  0  0  0  0
   -0.9984    1.0276   -0.0808 O   0  0  0  0  0  0  0  0  0  0  0  0
    1.3481    1.4820   -0.0406 C   0  0  0  0  0  0  0  0  0  0  0  0
   -1.8061   -1.2898   -0.0927 C   0  0  0  0  0  0  0  0  0  0  0  0
    2.9445   -0.3275    0.0731 C   0  0  0  0  0  0  0  0  0  0  0  0
   -2.0770    0.1573   -0.0631 C   0  0  0  0  0  0  0  0  0  0  0  0
    2.6680    1.0409    0.0179 C   0  0  0  0  0  0  0  0  0  0  0  0
   -2.8967   -2.2920   -0.1672 C   0  0  0  0  0  0  0  0  0  0  0  0
   -3.2359    0.5702   -0.0351 O   0  0  0  0  0  0  0  0  0  0  0  0
   -4.1493   -1.7881   -0.1775 O   0  0  0  0  0  0  0  0  0  0  0  0
   -2.6925   -3.4968   -0.2232 O   0  0  0  0  0  0  0  0  0  0  0  0
   -0.3233   -2.8138   -0.0771 H   0  0  0  0  0  0  0  0  0  0  0  0
    2.1391   -2.3205    0.0958 H   0  0  0  0  0  0  0  0  0  0  0  0
    1.1244    2.5443   -0.0809 H   0  0  0  0  0  0  0  0  0  0  0  0
    3.9758   -0.6686    0.1256 H   0  0  0  0  0  0  0  0  0  0  0  0
    3.4825    1.7612    0.0228 H   0  0  0  0  0  0  0  0  0  0  0  0
   -4.2121   -0.8039   -0.1215 H   0  0  0  0  0  0  0  0  0  0  0  0
  1  2  2  0  0  0  0
  1  3  1  0  0  0  0
  1  4  1  0  0  0  0
  2  5  1  0  0  0  0
  2  6  1  0  0  0  0
  3  7  2  0  0  0  0
  3 15  1  0  0  0  0
  4  8  2  0  0  0  0
  4 16  1  0  0  0  0
  5  9  1  0  0  0  0
  6 10  2  0  0  0  0
  6 17  1  0  0  0  0
  7 11  1  0  0  0  0
  7  9  1  0  0  0  0
  8 10  1  0  0  0  0
  8 18  1  0  0  0  0
  9 12  2  0  0  0  0
 10 19  1  0  0  0  0
 11 13  1  0  0  0  0
 11 14  2  0  0  0  0
 13 20  1  0  0  0  0
M  END
>  <Mol_ID>
4232

>  <Formula>
C10H6O4

>  <MolWeight>
190.15224

>  <Cat>
S9361

>  <Name>
Coumarin-3-carboxylic acid

>  <Target>
Others

>  <Form>
free base

>  <CAS>
531-81-7

>  <URL>
https://www.selleckchem.com/products/coumarin-3-carboxylic-acid.html

$$$$
