S9364 6-Hydroxycoumarin.cdx
 OpenBabel08302520433D

 18 19  0  0  0  0  0  0  0  0999 V2000
   -0.0271   -0.7547    0.0725 C   0  0  0  0  0  0  0  0  0  0  0  0
   -0.0550    0.6391    0.0524 C   0  0  0  0  0  0  0  0  0  0  0  0
   -1.2352   -1.4532    0.0549 C   0  0  0  0  0  0  0  0  0  0  0  0
    1.2563   -1.4343    0.0641 C   0  0  0  0  0  0  0  0  0  0  0  0
    1.1382    1.3888    0.0602 O   0  0  0  0  0  0  0  0  0  0  0  0
   -1.2538    1.3481   -0.0044 C   0  0  0  0  0  0  0  0  0  0  0  0
   -2.4359   -0.7486   -0.0180 C   0  0  0  0  0  0  0  0  0  0  0  0
    2.3820   -0.7115    0.0164 C   0  0  0  0  0  0  0  0  0  0  0  0
    2.3755    0.7614    0.0097 C   0  0  0  0  0  0  0  0  0  0  0  0
   -2.4569    0.6448   -0.0556 C   0  0  0  0  0  0  0  0  0  0  0  0
   -3.5897   -1.4748   -0.0648 O   0  0  0  0  0  0  0  0  0  0  0  0
    3.4273    1.3906   -0.0338 O   0  0  0  0  0  0  0  0  0  0  0  0
   -1.2558   -2.5384    0.0783 H   0  0  0  0  0  0  0  0  0  0  0  0
    1.2837   -2.5170    0.0657 H   0  0  0  0  0  0  0  0  0  0  0  0
   -1.2476    2.4341   -0.0274 H   0  0  0  0  0  0  0  0  0  0  0  0
    3.3572   -1.1784   -0.0254 H   0  0  0  0  0  0  0  0  0  0  0  0
   -3.3902    1.1935   -0.1322 H   0  0  0  0  0  0  0  0  0  0  0  0
   -4.3436   -0.8634   -0.1104 H   0  0  0  0  0  0  0  0  0  0  0  0
  1  2  1  0  0  0  0
  1  3  2  0  0  0  0
  1  4  1  0  0  0  0
  2  5  1  0  0  0  0
  2  6  2  0  0  0  0
  3  7  1  0  0  0  0
  3 13  1  0  0  0  0
  4  8  2  0  0  0  0
  4 14  1  0  0  0  0
  5  9  1  0  0  0  0
  6 10  1  0  0  0  0
  6 15  1  0  0  0  0
  7 11  1  0  0  0  0
  7 10  2  0  0  0  0
  8  9  1  0  0  0  0
  8 16  1  0  0  0  0
  9 12  2  0  0  0  0
 10 17  1  0  0  0  0
 11 18  1  0  0  0  0
M  END
>  <Mol_ID>
4234

>  <Formula>
C9H6O3

>  <MolWeight>
162.14214

>  <Cat>
S9364

>  <Name>
6-Hydroxycoumarin

>  <Target>
Others

>  <Form>
free base

>  <CAS>
6093-68-1

>  <URL>
https://www.selleckchem.com/products/6-hydroxycoumarin.html

$$$$
