S9362 1-Naphthaleneacetic acid.cdx
 OpenBabel08302520433D

 24 25  0  0  0  0  0  0  0  0999 V2000
    1.2054   -1.4318    0.0560 C   0  0  0  0  0  0  0  0  0  0  0  0
    2.4134   -0.7116    0.0354 C   0  0  0  0  0  0  0  0  0  0  0  0
    2.4135    0.6779    0.0042 C   0  0  0  0  0  0  0  0  0  0  0  0
    1.2065    1.3698   -0.0035 C   0  0  0  0  0  0  0  0  0  0  0  0
   -0.0168    0.6847   -0.0005 C   0  0  0  0  0  0  0  0  0  0  0  0
   -1.2228    1.4053   -0.0098 C   0  0  0  0  0  0  0  0  0  0  0  0
   -2.4519    0.7495   -0.0207 C   0  0  0  0  0  0  0  0  0  0  0  0
   -2.4905   -0.6377   -0.0344 C   0  0  0  0  0  0  0  0  0  0  0  0
   -1.2998   -1.3690   -0.0215 C   0  0  0  0  0  0  0  0  0  0  0  0
   -0.0356   -0.7343    0.0106 C   0  0  0  0  0  0  0  0  0  0  0  0
    1.3092   -3.5935   -1.2483 C   0  0  0  0  0  0  0  0  0  0  0  0
    1.2885   -2.9435    0.1110 C   0  0  0  0  0  0  0  0  0  0  0  0
    1.8063   -3.1644   -2.2765 O   0  0  0  0  0  0  0  0  0  0  0  0
    0.7589   -4.8267   -1.2330 O   0  0  0  0  0  0  0  0  0  0  0  0
    3.3669   -1.2363    0.0382 H   0  0  0  0  0  0  0  0  0  0  0  0
    3.3536    1.2225   -0.0144 H   0  0  0  0  0  0  0  0  0  0  0  0
    1.2285    2.4585   -0.0207 H   0  0  0  0  0  0  0  0  0  0  0  0
   -1.2125    2.4934   -0.0080 H   0  0  0  0  0  0  0  0  0  0  0  0
   -3.3752    1.3225   -0.0238 H   0  0  0  0  0  0  0  0  0  0  0  0
   -3.4455   -1.1560   -0.0541 H   0  0  0  0  0  0  0  0  0  0  0  0
   -1.3827   -2.4524   -0.0424 H   0  0  0  0  0  0  0  0  0  0  0  0
    2.1982   -3.2515    0.6417 H   0  0  0  0  0  0  0  0  0  0  0  0
    0.4573   -3.3437    0.7010 H   0  0  0  0  0  0  0  0  0  0  0  0
    0.8714   -5.1397   -2.1554 H   0  0  0  0  0  0  0  0  0  0  0  0
  1  2  2  0  0  0  0
  1 10  1  0  0  0  0
  1 12  1  0  0  0  0
  2  3  1  0  0  0  0
  2 15  1  0  0  0  0
  3  4  2  0  0  0  0
  3 16  1  0  0  0  0
  4  5  1  0  0  0  0
  4 17  1  0  0  0  0
  5  6  1  0  0  0  0
  5 10  2  0  0  0  0
  6  7  2  0  0  0  0
  6 18  1  0  0  0  0
  7  8  1  0  0  0  0
  7 19  1  0  0  0  0
  8  9  2  0  0  0  0
  8 20  1  0  0  0  0
  9 10  1  0  0  0  0
  9 21  1  0  0  0  0
 11 12  1  0  0  0  0
 11 13  2  0  0  0  0
 11 14  1  0  0  0  0
 12 22  1  0  0  0  0
 12 23  1  0  0  0  0
 14 24  1  0  0  0  0
M  END
>  <Mol_ID>
4233

>  <Formula>
C12H10O2

>  <MolWeight>
186.2066

>  <Cat>
S9362

>  <Name>
1-Naphthaleneacetic acid

>  <Synonyms>
¦Á-Naphthaleneacetic acid

>  <Target>
Others

>  <Form>
free base

>  <CAS>
86-87-3

>  <URL>
https://www.selleckchem.com/products/1-naphthaleneacetic-acid.html

$$$$
