S9369 Xanthosine Dihydrate.cdx
 OpenBabel08302520433D

 32 34  0  0  0  0  0  0  0  0999 V2000
    0.7848   -0.4285   -0.8932 C   0  0  0  0  0  0  0  0  0  0  0  0
    1.5878   -1.0224    0.0355 N   0  0  0  0  0  0  0  0  0  0  0  0
    0.5739    0.8539   -0.4527 C   0  0  0  0  0  0  0  0  0  0  0  0
    0.2681   -0.9406   -2.0536 N   0  0  0  0  0  0  0  0  0  0  0  0
    2.0619   -2.3968    0.0342 C   0  0  2  0  0  0  0  0  0  0  0  0
    1.8180   -0.0798    1.0077 C   0  0  0  0  0  0  0  0  0  0  0  0
    1.2305    1.0694    0.7315 N   0  0  0  0  0  0  0  0  0  0  0  0
   -0.2457    1.7526   -1.2432 C   0  0  0  0  0  0  0  0  0  0  0  0
   -0.5264   -0.1300   -2.8363 C   0  0  0  0  0  0  0  0  0  0  0  0
    2.8707   -2.6430    1.2052 O   0  0  0  0  0  0  0  0  0  0  0  0
    2.9224   -2.7392   -1.1814 C   0  0  1  0  0  0  0  0  0  0  0  0
   -0.7540    1.1555   -2.3859 N   0  0  0  0  0  0  0  0  0  0  0  0
   -0.4777    2.9264   -0.9655 O   0  0  0  0  0  0  0  0  0  0  0  0
   -1.0136   -0.5296   -3.8907 O   0  0  0  0  0  0  0  0  0  0  0  0
    4.0364   -3.4133    0.8236 C   0  0  1  0  0  0  0  0  0  0  0  0
    3.8223   -3.8329   -0.6293 C   0  0  1  0  0  0  0  0  0  0  0  0
    2.1379   -3.2041   -2.2837 O   0  0  0  0  0  0  0  0  0  0  0  0
    5.2901   -2.5532    1.0140 C   0  0  0  0  0  0  0  0  0  0  0  0
    3.1051   -5.0754   -0.7381 O   0  0  0  0  0  0  0  0  0  0  0  0
    5.4562   -2.2105    2.3871 O   0  0  0  0  0  0  0  0  0  0  0  0
    0.4881   -1.8749   -2.3957 H   0  0  0  0  0  0  0  0  0  0  0  0
    1.1701   -3.0329    0.0971 H   0  0  0  0  0  0  0  0  0  0  0  0
    2.4021   -0.2792    1.8946 H   0  0  0  0  0  0  0  0  0  0  0  0
    3.5154   -1.8764   -1.5066 H   0  0  0  0  0  0  0  0  0  0  0  0
   -1.3235    1.7428   -2.9739 H   0  0  0  0  0  0  0  0  0  0  0  0
    4.0762   -4.2752    1.4983 H   0  0  0  0  0  0  0  0  0  0  0  0
    4.7486   -3.9491   -1.1990 H   0  0  0  0  0  0  0  0  0  0  0  0
    2.2226   -4.1841   -2.2796 H   0  0  0  0  0  0  0  0  0  0  0  0
    6.1813   -3.1091    0.7067 H   0  0  0  0  0  0  0  0  0  0  0  0
    5.2400   -1.6218    0.4437 H   0  0  0  0  0  0  0  0  0  0  0  0
    2.6469   -5.2623    0.1028 H   0  0  0  0  0  0  0  0  0  0  0  0
    4.7384   -1.5949    2.6226 H   0  0  0  0  0  0  0  0  0  0  0  0
  1  2  1  0  0  0  0
  1  3  2  0  0  0  0
  1  4  1  0  0  0  0
  2  6  1  0  0  0  0
  3  7  1  0  0  0  0
  3  8  1  0  0  0  0
  4  9  1  0  0  0  0
  4 21  1  0  0  0  0
  5  2  1  0  0  0  0
  5 10  1  0  0  0  0
  5 11  1  0  0  0  0
  5 22  1  1  0  0  0
  6  7  2  0  0  0  0
  6 23  1  0  0  0  0
  8 12  1  0  0  0  0
  8 13  2  0  0  0  0
  9 14  2  0  0  0  0
  9 12  1  0  0  0  0
 10 15  1  0  0  0  0
 11 16  1  0  0  0  0
 11 17  1  0  0  0  0
 11 24  1  6  0  0  0
 12 25  1  0  0  0  0
 15 16  1  0  0  0  0
 15 26  1  1  0  0  0
 15 18  1  0  0  0  0
 16 19  1  0  0  0  0
 16 27  1  6  0  0  0
 17 28  1  0  0  0  0
 18 20  1  0  0  0  0
 18 29  1  0  0  0  0
 18 30  1  0  0  0  0
 19 31  1  0  0  0  0
 20 32  1  0  0  0  0
M  END
>  <Mol_ID>
4237

>  <Formula>
C10H12N4O6

>  <MolWeight>
284.22548

>  <Cat>
S9369

>  <Name>
Xanthosine

>  <Synonyms>
Xanthine riboside

>  <Target>
Others

>  <Form>
free base

>  <CAS>
146-80-5

>  <URL>
https://www.selleckchem.com/products/xanthosine.html

$$$$
