S9375 2'-Hydroxyacetophenone.cdx
 OpenBabel08302521213D

 18 18  0  0  0  0  0  0  0  0999 V2000
    0.1562   -1.2504    0.0093 C   0  0  0  0  0  0  0  0  0  0  0  0
    0.8905   -0.0498    0.0112 C   0  0  0  0  0  0  0  0  0  0  0  0
   -1.2435   -1.1709   -0.0030 C   0  0  0  0  0  0  0  0  0  0  0  0
    0.8870   -2.5566    0.0232 C   0  0  0  0  0  0  0  0  0  0  0  0
    0.2485    1.1886    0.0060 C   0  0  0  0  0  0  0  0  0  0  0  0
   -1.8859    0.0734   -0.0113 C   0  0  0  0  0  0  0  0  0  0  0  0
    0.1599   -3.8775    0.0235 C   0  0  0  0  0  0  0  0  0  0  0  0
    2.1213   -2.5386    0.0367 O   0  0  0  0  0  0  0  0  0  0  0  0
   -1.1423    1.2501   -0.0048 C   0  0  0  0  0  0  0  0  0  0  0  0
    2.2611   -0.0022    0.0172 O   0  0  0  0  0  0  0  0  0  0  0  0
   -1.8779   -2.0491   -0.0081 H   0  0  0  0  0  0  0  0  0  0  0  0
    0.8369    2.1026    0.0101 H   0  0  0  0  0  0  0  0  0  0  0  0
   -2.9729    0.1225   -0.0215 H   0  0  0  0  0  0  0  0  0  0  0  0
    0.4793   -4.4505   -0.8523 H   0  0  0  0  0  0  0  0  0  0  0  0
    0.4265   -4.4226    0.9338 H   0  0  0  0  0  0  0  0  0  0  0  0
   -0.9235   -3.7990   -0.0124 H   0  0  0  0  0  0  0  0  0  0  0  0
   -1.6426    2.2153   -0.0087 H   0  0  0  0  0  0  0  0  0  0  0  0
    2.5942   -0.9286    0.0194 H   0  0  0  0  0  0  0  0  0  0  0  0
  1  2  2  0  0  0  0
  1  3  1  0  0  0  0
  1  4  1  0  0  0  0
  2  5  1  0  0  0  0
  2 10  1  0  0  0  0
  3  6  2  0  0  0  0
  3 11  1  0  0  0  0
  4  7  1  0  0  0  0
  4  8  2  0  0  0  0
  5  9  2  0  0  0  0
  5 12  1  0  0  0  0
  6  9  1  0  0  0  0
  6 13  1  0  0  0  0
  7 14  1  0  0  0  0
  7 15  1  0  0  0  0
  7 16  1  0  0  0  0
  9 17  1  0  0  0  0
 10 18  1  0  0  0  0
M  END
>  <Mol_ID>
4584

>  <Formula>
C8H8O2

>  <MolWeight>
136.14792

>  <Cat>
S9375

>  <Name>
2'-Hydroxyacetophenone

>  <Target>
Others

>  <Form>
free base

>  <CAS>
118-93-4

>  <URL>
https://www.selleckchem.com/products/hydroxyacetophenone.html

$$$$
