S9373 Neryl acetate.cdx
 OpenBabel08302521213D

 34 33  0  0  0  0  0  0  0  0999 V2000
    1.0096    0.1015    0.0586 C   0  0  0  0  0  0  0  0  0  0  0  0
    0.1566    0.5370   -1.1261 C   0  0  0  0  0  0  0  0  0  0  0  0
    0.5167   -0.2876    1.2554 C   0  0  0  0  0  0  0  0  0  0  0  0
    2.5128    0.1319   -0.0793 C   0  0  0  0  0  0  0  0  0  0  0  0
    0.6597    0.2324   -2.5533 C   0  0  0  0  0  0  0  0  0  0  0  0
   -0.9016   -0.4069    1.7275 C   0  0  0  0  0  0  0  0  0  0  0  0
    0.9271   -1.2282   -2.7968 C   0  0  0  0  0  0  0  0  0  0  0  0
   -1.1453    0.5382    2.7842 O   0  0  0  0  0  0  0  0  0  0  0  0
    0.4778   -2.0047   -3.8009 C   0  0  0  0  0  0  0  0  0  0  0  0
   -0.8709    0.1138    4.0463 C   0  0  0  0  0  0  0  0  0  0  0  0
    0.8522   -3.4622   -3.8476 C   0  0  0  0  0  0  0  0  0  0  0  0
   -0.3965   -1.5250   -4.9250 C   0  0  0  0  0  0  0  0  0  0  0  0
   -1.2809    1.1474    5.0539 C   0  0  0  0  0  0  0  0  0  0  0  0
   -0.3485   -0.9516    4.3444 O   0  0  0  0  0  0  0  0  0  0  0  0
   -0.8486    0.1102   -1.0408 H   0  0  0  0  0  0  0  0  0  0  0  0
    0.0367    1.6249   -1.0505 H   0  0  0  0  0  0  0  0  0  0  0  0
    1.2339   -0.5760    2.0252 H   0  0  0  0  0  0  0  0  0  0  0  0
    2.8486    0.5008   -1.0493 H   0  0  0  0  0  0  0  0  0  0  0  0
    2.9550    0.7859    0.6796 H   0  0  0  0  0  0  0  0  0  0  0  0
    2.9229   -0.8774    0.0462 H   0  0  0  0  0  0  0  0  0  0  0  0
   -0.0764    0.6209   -3.2683 H   0  0  0  0  0  0  0  0  0  0  0  0
    1.5814    0.7943   -2.7544 H   0  0  0  0  0  0  0  0  0  0  0  0
   -1.6247   -0.1870    0.9391 H   0  0  0  0  0  0  0  0  0  0  0  0
   -1.1053   -1.4314    2.0628 H   0  0  0  0  0  0  0  0  0  0  0  0
    1.5856   -1.6895   -2.0626 H   0  0  0  0  0  0  0  0  0  0  0  0
   -0.0471   -4.0821   -3.7745 H   0  0  0  0  0  0  0  0  0  0  0  0
    1.3692   -3.6968   -4.7831 H   0  0  0  0  0  0  0  0  0  0  0  0
    1.5148   -3.7446   -3.0221 H   0  0  0  0  0  0  0  0  0  0  0  0
   -1.2748   -0.9926   -4.5497 H   0  0  0  0  0  0  0  0  0  0  0  0
    0.1659   -0.8691   -5.5979 H   0  0  0  0  0  0  0  0  0  0  0  0
   -0.7643   -2.3673   -5.5226 H   0  0  0  0  0  0  0  0  0  0  0  0
   -1.7830    0.6509    5.8895 H   0  0  0  0  0  0  0  0  0  0  0  0
   -0.4009    1.6880    5.4098 H   0  0  0  0  0  0  0  0  0  0  0  0
   -1.9903    1.8559    4.6158 H   0  0  0  0  0  0  0  0  0  0  0  0
  1  2  1  0  0  0  0
  1  3  2  0  0  0  0
  1  4  1  0  0  0  0
  2  5  1  0  0  0  0
  2 15  1  0  0  0  0
  2 16  1  0  0  0  0
  3  6  1  0  0  0  0
  3 17  1  0  0  0  0
  4 18  1  0  0  0  0
  4 19  1  0  0  0  0
  4 20  1  0  0  0  0
  5  7  1  0  0  0  0
  5 21  1  0  0  0  0
  5 22  1  0  0  0  0
  6  8  1  0  0  0  0
  6 23  1  0  0  0  0
  6 24  1  0  0  0  0
  7  9  2  0  0  0  0
  7 25  1  0  0  0  0
  8 10  1  0  0  0  0
  9 11  1  0  0  0  0
  9 12  1  0  0  0  0
 10 13  1  0  0  0  0
 10 14  2  0  0  0  0
 11 26  1  0  0  0  0
 11 27  1  0  0  0  0
 11 28  1  0  0  0  0
 12 29  1  0  0  0  0
 12 30  1  0  0  0  0
 12 31  1  0  0  0  0
 13 32  1  0  0  0  0
 13 33  1  0  0  0  0
 13 34  1  0  0  0  0
M  END
>  <Mol_ID>
4583

>  <Formula>
C12H20O2

>  <MolWeight>
196.286

>  <Cat>
S9373

>  <Name>
Neryl acetate

>  <Synonyms>
Nerol acetate, Acetic acid neryl ester, cis-Geranyl acetate

>  <Target>
Others

>  <Form>
free base

>  <CAS>
141-12-8

>  <URL>
https://www.selleckchem.com/products/neryl-acetate.html

$$$$
