S9378 4',5-Dihydroxyflavone.cdx
 OpenBabel08302520433D

 29 31  0  0  0  0  0  0  0  0999 V2000
    0.0559    0.2365    0.0078 C   0  0  0  0  0  0  0  0  0  0  0  0
   -0.1260   -1.1508    0.0060 C   0  0  0  0  0  0  0  0  0  0  0  0
   -1.1537    1.0924    0.0052 C   0  0  0  0  0  0  0  0  0  0  0  0
    1.3592    0.7527    0.0062 C   0  0  0  0  0  0  0  0  0  0  0  0
   -1.3629   -1.7529    0.0137 O   0  0  0  0  0  0  0  0  0  0  0  0
    0.9761   -2.0106   -0.0055 C   0  0  0  0  0  0  0  0  0  0  0  0
   -2.4513    0.3959    0.0060 C   0  0  0  0  0  0  0  0  0  0  0  0
   -1.1429    2.3159    0.0002 O   0  0  0  0  0  0  0  0  0  0  0  0
    2.4620   -0.1069   -0.0060 C   0  0  0  0  0  0  0  0  0  0  0  0
    1.5807    2.1002    0.0170 O   0  0  0  0  0  0  0  0  0  0  0  0
   -2.4778   -0.9414    0.0125 C   0  0  0  0  0  0  0  0  0  0  0  0
    2.2683   -1.4881   -0.0142 C   0  0  0  0  0  0  0  0  0  0  0  0
   -3.7596   -1.6517    0.0262 C   0  0  0  0  0  0  0  0  0  0  0  0
   -4.3910   -2.0027   -1.1755 C   0  0  0  0  0  0  0  0  0  0  0  0
   -4.3873   -1.9489    1.2429 C   0  0  0  0  0  0  0  0  0  0  0  0
   -5.6353   -2.6408   -1.1613 C   0  0  0  0  0  0  0  0  0  0  0  0
   -5.6299   -2.5856    1.2570 C   0  0  0  0  0  0  0  0  0  0  0  0
   -6.2439   -2.9258    0.0573 C   0  0  0  0  0  0  0  0  0  0  0  0
   -7.4572   -3.5439    0.1190 O   0  0  0  0  0  0  0  0  0  0  0  0
    0.8266   -3.0876   -0.0094 H   0  0  0  0  0  0  0  0  0  0  0  0
   -3.3399    1.0143    0.0035 H   0  0  0  0  0  0  0  0  0  0  0  0
    3.4763    0.2828   -0.0112 H   0  0  0  0  0  0  0  0  0  0  0  0
    2.5316    2.2893    0.0355 H   0  0  0  0  0  0  0  0  0  0  0  0
    3.1261   -2.1575   -0.0281 H   0  0  0  0  0  0  0  0  0  0  0  0
   -3.9200   -1.7751   -2.1295 H   0  0  0  0  0  0  0  0  0  0  0  0
   -3.9161   -1.6817    2.1864 H   0  0  0  0  0  0  0  0  0  0  0  0
   -6.1108   -2.8995   -2.1021 H   0  0  0  0  0  0  0  0  0  0  0  0
   -6.1190   -2.8113    2.2005 H   0  0  0  0  0  0  0  0  0  0  0  0
   -7.7561   -3.7366   -0.7848 H   0  0  0  0  0  0  0  0  0  0  0  0
  1  2  2  0  0  0  0
  1  3  1  0  0  0  0
  1  4  1  0  0  0  0
  2  5  1  0  0  0  0
  2  6  1  0  0  0  0
  3  7  1  0  0  0  0
  3  8  2  0  0  0  0
  4  9  2  0  0  0  0
  4 10  1  0  0  0  0
  5 11  1  0  0  0  0
  6 12  2  0  0  0  0
  6 20  1  0  0  0  0
  7 11  2  0  0  0  0
  7 21  1  0  0  0  0
  9 12  1  0  0  0  0
  9 22  1  0  0  0  0
 10 23  1  0  0  0  0
 11 13  1  0  0  0  0
 12 24  1  0  0  0  0
 13 14  2  0  0  0  0
 13 15  1  0  0  0  0
 14 16  1  0  0  0  0
 14 25  1  0  0  0  0
 15 17  2  0  0  0  0
 15 26  1  0  0  0  0
 16 18  2  0  0  0  0
 16 27  1  0  0  0  0
 17 18  1  0  0  0  0
 17 28  1  0  0  0  0
 18 19  1  0  0  0  0
 19 29  1  0  0  0  0
M  END
>  <Mol_ID>
4239

>  <Formula>
C15H10O4

>  <MolWeight>
254.2375

>  <Cat>
S9378

>  <Name>
4',5-Dihydroxyflavone

>  <Target>
Carbohydrate Metabolism,Lipoxygenase

>  <Form>
free base

>  <CAS>
6665-67-4

>  <URL>
https://www.selleckchem.com/products/4-5-ihydroxyflavone.html

$$$$
