S9377 Eugenyl acetate.cdx
 OpenBabel08302521213D

 29 29  0  0  0  0  0  0  0  0999 V2000
    1.3913   -0.5715   -0.0843 C   0  0  0  0  0  0  0  0  0  0  0  0
    0.4897   -1.5219   -0.5764 C   0  0  0  0  0  0  0  0  0  0  0  0
    0.9743    0.7210    0.2423 C   0  0  0  0  0  0  0  0  0  0  0  0
    2.7588   -0.8673    0.0426 O   0  0  0  0  0  0  0  0  0  0  0  0
   -0.8628   -1.1873   -0.6543 C   0  0  0  0  0  0  0  0  0  0  0  0
    1.0170   -2.7165   -0.9919 O   0  0  0  0  0  0  0  0  0  0  0  0
   -0.3825    1.0477    0.1464 C   0  0  0  0  0  0  0  0  0  0  0  0
    3.0409   -1.9227    0.9086 C   0  0  0  0  0  0  0  0  0  0  0  0
   -1.3138    0.0901   -0.2824 C   0  0  0  0  0  0  0  0  0  0  0  0
    0.1173   -3.8177   -1.0025 C   0  0  0  0  0  0  0  0  0  0  0  0
    4.4930   -2.2868    0.7908 C   0  0  0  0  0  0  0  0  0  0  0  0
    2.2740   -2.4596    1.6998 O   0  0  0  0  0  0  0  0  0  0  0  0
   -2.7951    0.3992   -0.3078 C   0  0  0  0  0  0  0  0  0  0  0  0
   -3.4676    0.0603    0.9937 C   0  0  0  0  0  0  0  0  0  0  0  0
   -4.1598    0.9272    1.7409 C   0  0  0  0  0  0  0  0  0  0  0  0
    1.6899    1.4637    0.5768 H   0  0  0  0  0  0  0  0  0  0  0  0
   -1.5939   -1.9080   -1.0112 H   0  0  0  0  0  0  0  0  0  0  0  0
   -0.7110    2.0486    0.4152 H   0  0  0  0  0  0  0  0  0  0  0  0
   -0.4380   -3.8954   -0.0619 H   0  0  0  0  0  0  0  0  0  0  0  0
   -0.5613   -3.7508   -1.8578 H   0  0  0  0  0  0  0  0  0  0  0  0
    0.7087   -4.7306   -1.1170 H   0  0  0  0  0  0  0  0  0  0  0  0
    5.0820   -1.6669    1.4697 H   0  0  0  0  0  0  0  0  0  0  0  0
    4.6207   -3.3426    1.0500 H   0  0  0  0  0  0  0  0  0  0  0  0
    4.8403   -2.1575   -0.2379 H   0  0  0  0  0  0  0  0  0  0  0  0
   -2.9471    1.4525   -0.5738 H   0  0  0  0  0  0  0  0  0  0  0  0
   -3.2711   -0.1821   -1.1082 H   0  0  0  0  0  0  0  0  0  0  0  0
   -3.3800   -0.9710    1.3351 H   0  0  0  0  0  0  0  0  0  0  0  0
   -4.6221    0.6116    2.6717 H   0  0  0  0  0  0  0  0  0  0  0  0
   -4.2807    1.9673    1.4482 H   0  0  0  0  0  0  0  0  0  0  0  0
  1  2  2  0  0  0  0
  1  3  1  0  0  0  0
  1  4  1  0  0  0  0
  2  5  1  0  0  0  0
  2  6  1  0  0  0  0
  3  7  2  0  0  0  0
  3 16  1  0  0  0  0
  4  8  1  0  0  0  0
  5  9  2  0  0  0  0
  5 17  1  0  0  0  0
  6 10  1  0  0  0  0
  7  9  1  0  0  0  0
  7 18  1  0  0  0  0
  8 11  1  0  0  0  0
  8 12  2  0  0  0  0
  9 13  1  0  0  0  0
 10 19  1  0  0  0  0
 10 20  1  0  0  0  0
 10 21  1  0  0  0  0
 11 22  1  0  0  0  0
 11 23  1  0  0  0  0
 11 24  1  0  0  0  0
 13 14  1  0  0  0  0
 13 25  1  0  0  0  0
 13 26  1  0  0  0  0
 14 15  2  0  0  0  0
 14 27  1  0  0  0  0
 15 28  1  0  0  0  0
 15 29  1  0  0  0  0
M  END
>  <Mol_ID>
4586

>  <Formula>
C12H14O3

>  <MolWeight>
206.23776

>  <Cat>
S9377

>  <Name>
Eugenyl acetate

>  <Target>
Bacterial

>  <Form>
free base

>  <CAS>
93-28-7

>  <URL>
https://www.selleckchem.com/products/eugenyl-acetate.html

$$$$
