S9376 Benzylacetone.cdx
 OpenBabel08302521213D

 23 23  0  0  0  0  0  0  0  0999 V2000
    1.3345   -0.1667    0.1414 C   0  0  0  0  0  0  0  0  0  0  0  0
    2.8422   -0.3390    0.1804 C   0  0  0  0  0  0  0  0  0  0  0  0
    0.6017   -0.3034   -1.0468 C   0  0  0  0  0  0  0  0  0  0  0  0
    0.6269    0.1025    1.3266 C   0  0  0  0  0  0  0  0  0  0  0  0
    3.5592    0.0834   -1.1100 C   0  0  0  0  0  0  0  0  0  0  0  0
   -0.7802   -0.1327   -1.0646 C   0  0  0  0  0  0  0  0  0  0  0  0
   -0.7588    0.2848    1.3076 C   0  0  0  0  0  0  0  0  0  0  0  0
    5.0679   -0.0682   -1.0576 C   0  0  0  0  0  0  0  0  0  0  0  0
   -1.4636    0.1708    0.1126 C   0  0  0  0  0  0  0  0  0  0  0  0
    5.8538    0.3117   -2.2954 C   0  0  0  0  0  0  0  0  0  0  0  0
    5.6496   -0.5273   -0.0840 O   0  0  0  0  0  0  0  0  0  0  0  0
    3.2351    0.2374    1.0313 H   0  0  0  0  0  0  0  0  0  0  0  0
    3.0632   -1.3948    0.3871 H   0  0  0  0  0  0  0  0  0  0  0  0
    1.1001   -0.5326   -1.9834 H   0  0  0  0  0  0  0  0  0  0  0  0
    1.1506    0.1950    2.2756 H   0  0  0  0  0  0  0  0  0  0  0  0
    3.2067   -0.5347   -1.9461 H   0  0  0  0  0  0  0  0  0  0  0  0
    3.3382    1.1323   -1.3442 H   0  0  0  0  0  0  0  0  0  0  0  0
   -1.3291   -0.2314   -1.9976 H   0  0  0  0  0  0  0  0  0  0  0  0
   -1.2871    0.5279    2.2280 H   0  0  0  0  0  0  0  0  0  0  0  0
   -2.5380    0.3187    0.0963 H   0  0  0  0  0  0  0  0  0  0  0  0
    6.7956    0.7744   -1.9848 H   0  0  0  0  0  0  0  0  0  0  0  0
    6.0639   -0.5769   -2.8956 H   0  0  0  0  0  0  0  0  0  0  0  0
    5.3038    1.0400   -2.8966 H   0  0  0  0  0  0  0  0  0  0  0  0
  1  2  1  0  0  0  0
  1  3  2  0  0  0  0
  1  4  1  0  0  0  0
  2  5  1  0  0  0  0
  2 12  1  0  0  0  0
  2 13  1  0  0  0  0
  3  6  1  0  0  0  0
  3 14  1  0  0  0  0
  4  7  2  0  0  0  0
  4 15  1  0  0  0  0
  5  8  1  0  0  0  0
  5 16  1  0  0  0  0
  5 17  1  0  0  0  0
  6  9  2  0  0  0  0
  6 18  1  0  0  0  0
  7  9  1  0  0  0  0
  7 19  1  0  0  0  0
  8 10  1  0  0  0  0
  8 11  2  0  0  0  0
  9 20  1  0  0  0  0
 10 21  1  0  0  0  0
 10 22  1  0  0  0  0
 10 23  1  0  0  0  0
M  END
>  <Mol_ID>
4585

>  <Formula>
C10H12O

>  <MolWeight>
148.20168

>  <Cat>
S9376

>  <Name>
Benzylacetone

>  <Synonyms>
4-Phenyl-2-butanone, Methyl 2-phenylethyl ketone

>  <Target>
Tyrosinase

>  <Form>
free base

>  <CAS>
2550-26-7

>  <URL>
https://www.selleckchem.com/products/benzylacetone.html

$$$$
