S9381 5-Methyl furfural.cdx
 OpenBabel08302521213D

 14 14  0  0  0  0  0  0  0  0999 V2000
    0.6849   -0.0983    0.0011 C   0  0  0  0  0  0  0  0  0  0  0  0
   -0.0754    1.0377    0.0114 O   0  0  0  0  0  0  0  0  0  0  0  0
   -0.1352   -1.2085   -0.0057 C   0  0  0  0  0  0  0  0  0  0  0  0
    2.1161    0.0338   -0.0005 C   0  0  0  0  0  0  0  0  0  0  0  0
   -1.3812    0.6475    0.0112 C   0  0  0  0  0  0  0  0  0  0  0  0
   -1.4661   -0.7277    0.0005 C   0  0  0  0  0  0  0  0  0  0  0  0
    2.9120   -0.9026   -0.0088 O   0  0  0  0  0  0  0  0  0  0  0  0
   -2.3888    1.7266    0.0222 C   0  0  0  0  0  0  0  0  0  0  0  0
    0.1985   -2.2376   -0.0141 H   0  0  0  0  0  0  0  0  0  0  0  0
    2.4872    1.0729    0.0065 H   0  0  0  0  0  0  0  0  0  0  0  0
   -2.3764   -1.3112   -0.0022 H   0  0  0  0  0  0  0  0  0  0  0  0
   -2.2708    2.3526    0.9119 H   0  0  0  0  0  0  0  0  0  0  0  0
   -2.2830    2.3596   -0.8641 H   0  0  0  0  0  0  0  0  0  0  0  0
   -3.4031    1.3152    0.0276 H   0  0  0  0  0  0  0  0  0  0  0  0
  1  2  1  0  0  0  0
  1  3  2  0  0  0  0
  1  4  1  0  0  0  0
  2  5  1  0  0  0  0
  3  6  1  0  0  0  0
  3  9  1  0  0  0  0
  4  7  2  0  0  0  0
  4 10  1  0  0  0  0
  5  8  1  0  0  0  0
  5  6  2  0  0  0  0
  6 11  1  0  0  0  0
  8 12  1  0  0  0  0
  8 13  1  0  0  0  0
  8 14  1  0  0  0  0
M  END
>  <Mol_ID>
4588

>  <Formula>
C6H6O2

>  <MolWeight>
110.11064

>  <Cat>
S9381

>  <Name>
5-Methyl furfural

>  <Target>
Others

>  <Form>
free base

>  <CAS>
620-02-0

>  <URL>
https://www.selleckchem.com/products/5-methyl-furfural.html

$$$$
