S9387 Maackiain.cdx
 OpenBabel08302520433D

 33 37  0  0  0  0  0  0  0  0999 V2000
   -0.2280    0.5627   -0.5578 C   0  0  1  0  0  0  0  0  0  0  0  0
    0.5877   -0.7287   -0.6522 C   0  0  1  0  0  0  0  0  0  0  0  0
   -1.6925    0.3813   -0.4085 C   0  0  0  0  0  0  0  0  0  0  0  0
    0.1934    1.2311    0.6777 O   0  0  0  0  0  0  0  0  0  0  0  0
    1.8619   -0.1463   -0.1259 C   0  0  0  0  0  0  0  0  0  0  0  0
   -0.0554   -1.7585    0.2843 C   0  0  0  0  0  0  0  0  0  0  0  0
   -2.2170   -0.8528   -0.0398 C   0  0  0  0  0  0  0  0  0  0  0  0
   -2.5258    1.5113   -0.4928 C   0  0  0  0  0  0  0  0  0  0  0  0
    1.5081    0.8940    0.7498 C   0  0  0  0  0  0  0  0  0  0  0  0
    3.1947   -0.3619   -0.4309 C   0  0  0  0  0  0  0  0  0  0  0  0
   -1.4506   -1.9900    0.0090 O   0  0  0  0  0  0  0  0  0  0  0  0
   -3.5670   -0.9524    0.2925 C   0  0  0  0  0  0  0  0  0  0  0  0
   -3.8680    1.4156   -0.1535 C   0  0  0  0  0  0  0  0  0  0  0  0
    2.3947    1.6278    1.5023 C   0  0  0  0  0  0  0  0  0  0  0  0
    4.0881    0.4967    0.1960 C   0  0  0  0  0  0  0  0  0  0  0  0
   -4.3721    0.1870    0.2579 C   0  0  0  0  0  0  0  0  0  0  0  0
    3.7045    1.4183    1.1647 C   0  0  0  0  0  0  0  0  0  0  0  0
    5.4157    0.6412   -0.1033 O   0  0  0  0  0  0  0  0  0  0  0  0
   -5.6714    0.0692    0.6595 O   0  0  0  0  0  0  0  0  0  0  0  0
    4.7423    2.1787    1.6076 O   0  0  0  0  0  0  0  0  0  0  0  0
    5.6841    1.9000    0.5590 C   0  0  0  0  0  0  0  0  0  0  0  0
   -0.0068    1.2270   -1.4065 H   0  0  0  0  0  0  0  0  0  0  0  0
    0.6430   -1.0955   -1.6835 H   0  0  0  0  0  0  0  0  0  0  0  0
    0.0339   -1.4794    1.3445 H   0  0  0  0  0  0  0  0  0  0  0  0
    0.4590   -2.7210    0.1859 H   0  0  0  0  0  0  0  0  0  0  0  0
   -2.1078    2.4791   -0.7683 H   0  0  0  0  0  0  0  0  0  0  0  0
    3.5203   -1.0708   -1.1782 H   0  0  0  0  0  0  0  0  0  0  0  0
   -3.9805   -1.9002    0.6207 H   0  0  0  0  0  0  0  0  0  0  0  0
   -4.4868    2.3096   -0.1790 H   0  0  0  0  0  0  0  0  0  0  0  0
    2.0775    2.3926    2.1922 H   0  0  0  0  0  0  0  0  0  0  0  0
   -6.0662    0.9570    0.6749 H   0  0  0  0  0  0  0  0  0  0  0  0
    5.6079    2.7133   -0.1789 H   0  0  0  0  0  0  0  0  0  0  0  0
    6.6965    1.8974    0.9699 H   0  0  0  0  0  0  0  0  0  0  0  0
  1  2  1  0  0  0  0
  1  3  1  0  0  0  0
  1  4  1  0  0  0  0
  1 22  1  6  0  0  0
  2  5  1  0  0  0  0
  2  6  1  0  0  0  0
  2 23  1  6  0  0  0
  3  7  2  0  0  0  0
  3  8  1  0  0  0  0
  4  9  1  0  0  0  0
  5 10  2  0  0  0  0
  5  9  1  0  0  0  0
  6 11  1  0  0  0  0
  6 24  1  0  0  0  0
  6 25  1  0  0  0  0
  7 12  1  0  0  0  0
  7 11  1  0  0  0  0
  8 13  2  0  0  0  0
  8 26  1  0  0  0  0
  9 14  2  0  0  0  0
 10 15  1  0  0  0  0
 10 27  1  0  0  0  0
 12 16  2  0  0  0  0
 12 28  1  0  0  0  0
 13 16  1  0  0  0  0
 13 29  1  0  0  0  0
 14 17  1  0  0  0  0
 14 30  1  0  0  0  0
 15 18  1  0  0  0  0
 15 17  2  0  0  0  0
 16 19  1  0  0  0  0
 17 20  1  0  0  0  0
 18 21  1  0  0  0  0
 19 31  1  0  0  0  0
 20 21  1  0  0  0  0
 21 32  1  0  0  0  0
 21 33  1  0  0  0  0
M  END
>  <Mol_ID>
4241

>  <Formula>
C16H12O5

>  <MolWeight>
284.26348

>  <Cat>
S9387

>  <Name>
Maackiain

>  <Synonyms>
Demethylpterocarpin

>  <Target>
Anti-infection

>  <Form>
free base

>  <CAS>
19908-48-6

>  <URL>
https://www.selleckchem.com/products/maackiain.html

$$$$
