S9380 5,7-Dihydroxy-4-methylcoumarin.cdx
 OpenBabel08302521213D

 22 23  0  0  0  0  0  0  0  0999 V2000
    0.0643   -0.6107    0.0037 C   0  0  0  0  0  0  0  0  0  0  0  0
    0.0573    0.7949    0.0084 C   0  0  0  0  0  0  0  0  0  0  0  0
    1.2400   -1.3674   -0.0015 C   0  0  0  0  0  0  0  0  0  0  0  0
   -1.1268   -1.3691    0.0046 O   0  0  0  0  0  0  0  0  0  0  0  0
    1.3216    1.4158    0.0123 C   0  0  0  0  0  0  0  0  0  0  0  0
   -1.2612    1.4676    0.0062 C   0  0  0  0  0  0  0  0  0  0  0  0
    2.4588   -0.7133   -0.0012 C   0  0  0  0  0  0  0  0  0  0  0  0
   -2.3652   -0.7623    0.0063 C   0  0  0  0  0  0  0  0  0  0  0  0
    2.5122    0.6730    0.0057 C   0  0  0  0  0  0  0  0  0  0  0  0
    1.4404    2.7781    0.0253 O   0  0  0  0  0  0  0  0  0  0  0  0
   -2.3676    0.7051    0.0069 C   0  0  0  0  0  0  0  0  0  0  0  0
   -1.4532    2.9572   -0.0017 C   0  0  0  0  0  0  0  0  0  0  0  0
    3.5931   -1.4675   -0.0066 O   0  0  0  0  0  0  0  0  0  0  0  0
   -3.4158   -1.3956    0.0099 O   0  0  0  0  0  0  0  0  0  0  0  0
    1.1986   -2.4527   -0.0057 H   0  0  0  0  0  0  0  0  0  0  0  0
    3.4719    1.1789    0.0063 H   0  0  0  0  0  0  0  0  0  0  0  0
    2.3755    3.0348    0.0182 H   0  0  0  0  0  0  0  0  0  0  0  0
   -3.3597    1.1467    0.0039 H   0  0  0  0  0  0  0  0  0  0  0  0
   -2.0245    3.2555   -0.8883 H   0  0  0  0  0  0  0  0  0  0  0  0
   -2.0115    3.2673    0.8890 H   0  0  0  0  0  0  0  0  0  0  0  0
   -0.5505    3.5591   -0.0148 H   0  0  0  0  0  0  0  0  0  0  0  0
    4.3683   -0.8820    0.0009 H   0  0  0  0  0  0  0  0  0  0  0  0
  1  2  1  0  0  0  0
  1  3  2  0  0  0  0
  1  4  1  0  0  0  0
  2  5  2  0  0  0  0
  2  6  1  0  0  0  0
  3  7  1  0  0  0  0
  3 15  1  0  0  0  0
  4  8  1  0  0  0  0
  5  9  1  0  0  0  0
  5 10  1  0  0  0  0
  6 11  2  0  0  0  0
  6 12  1  0  0  0  0
  7 13  1  0  0  0  0
  7  9  2  0  0  0  0
  8 14  2  0  0  0  0
  8 11  1  0  0  0  0
  9 16  1  0  0  0  0
 10 17  1  0  0  0  0
 11 18  1  0  0  0  0
 12 19  1  0  0  0  0
 12 20  1  0  0  0  0
 12 21  1  0  0  0  0
 13 22  1  0  0  0  0
M  END
>  <Mol_ID>
4593

>  <Formula>
C10H8O4

>  <MolWeight>
192.16812

>  <Cat>
S9380

>  <Name>
5,7-Dihydroxy-4-methylcoumarin

>  <Target>
Others

>  <Form>
free base

>  <CAS>
2107-76-8

>  <URL>
https://www.selleckchem.com/products/dihydroxy-4-methylcoumarin.html

$$$$
