S9395 N-Benzoyl-(2R,3S)-3-phenylisoserine.cdx
 OpenBabel08302520433D

 36 37  0  0  0  0  0  0  0  0999 V2000
    0.9492   -1.1671   -1.9213 C   0  0  2  0  0  0  0  0  0  0  0  0
    2.4239   -0.8383   -2.1383 C   0  0  0  0  0  0  0  0  0  0  0  0
    0.0718   -0.2962   -2.7195 N   0  0  0  0  0  0  0  0  0  0  0  0
    0.5740   -1.4043   -0.4288 C   0  0  2  0  0  0  0  0  0  0  0  0
    2.9475    0.4445   -1.9195 C   0  0  0  0  0  0  0  0  0  0  0  0
    3.3043   -1.8448   -2.5794 C   0  0  0  0  0  0  0  0  0  0  0  0
   -0.4257    0.9165   -2.3149 C   0  0  0  0  0  0  0  0  0  0  0  0
   -0.8475   -1.9537   -0.3107 C   0  0  0  0  0  0  0  0  0  0  0  0
    0.6986   -0.2817    0.4582 O   0  0  0  0  0  0  0  0  0  0  0  0
    4.2950    0.7224   -2.1726 C   0  0  0  0  0  0  0  0  0  0  0  0
    4.6512   -1.5673   -2.8261 C   0  0  0  0  0  0  0  0  0  0  0  0
   -1.2965    1.6713   -3.2567 C   0  0  0  0  0  0  0  0  0  0  0  0
   -0.1914    1.3934   -1.2099 O   0  0  0  0  0  0  0  0  0  0  0  0
   -1.4011   -1.6400    0.8920 O   0  0  0  0  0  0  0  0  0  0  0  0
   -1.4207   -2.6365   -1.1450 O   0  0  0  0  0  0  0  0  0  0  0  0
    5.1442   -0.2813   -2.6317 C   0  0  0  0  0  0  0  0  0  0  0  0
   -2.0822    1.0479   -4.2328 C   0  0  0  0  0  0  0  0  0  0  0  0
   -1.3898    3.0595   -3.0748 C   0  0  0  0  0  0  0  0  0  0  0  0
   -2.9599    1.8127   -5.0083 C   0  0  0  0  0  0  0  0  0  0  0  0
   -2.2665    3.8170   -3.8501 C   0  0  0  0  0  0  0  0  0  0  0  0
   -3.0557    3.1917   -4.8122 C   0  0  0  0  0  0  0  0  0  0  0  0
    0.7934   -2.1398   -2.4100 H   0  0  0  0  0  0  0  0  0  0  0  0
   -0.0593   -0.5777   -3.6820 H   0  0  0  0  0  0  0  0  0  0  0  0
    1.2315   -2.1774   -0.0134 H   0  0  0  0  0  0  0  0  0  0  0  0
    2.3156    1.2502   -1.5547 H   0  0  0  0  0  0  0  0  0  0  0  0
    2.9470   -2.8598   -2.7433 H   0  0  0  0  0  0  0  0  0  0  0  0
    0.3679    0.5038   -0.0406 H   0  0  0  0  0  0  0  0  0  0  0  0
    4.6796    1.7271   -2.0132 H   0  0  0  0  0  0  0  0  0  0  0  0
    5.3129   -2.3555   -3.1754 H   0  0  0  0  0  0  0  0  0  0  0  0
   -0.7682   -1.0572    1.3763 H   0  0  0  0  0  0  0  0  0  0  0  0
    6.1891   -0.0602   -2.8334 H   0  0  0  0  0  0  0  0  0  0  0  0
   -2.0653   -0.0286   -4.3726 H   0  0  0  0  0  0  0  0  0  0  0  0
   -0.7915    3.5528   -2.3112 H   0  0  0  0  0  0  0  0  0  0  0  0
   -3.5917    1.3301   -5.7504 H   0  0  0  0  0  0  0  0  0  0  0  0
   -2.3458    4.8889   -3.6875 H   0  0  0  0  0  0  0  0  0  0  0  0
   -3.7579    3.7785   -5.4000 H   0  0  0  0  0  0  0  0  0  0  0  0
  1  2  1  0  0  0  0
  1  3  1  0  0  0  0
  1 22  1  6  0  0  0
  2  5  2  0  0  0  0
  2  6  1  0  0  0  0
  3  7  1  0  0  0  0
  3 23  1  0  0  0  0
  4  9  1  0  0  0  0
  4 24  1  1  0  0  0
  4  8  1  0  0  0  0
  4  1  1  0  0  0  0
  5 10  1  0  0  0  0
  5 25  1  0  0  0  0
  6 11  2  0  0  0  0
  6 26  1  0  0  0  0
  7 12  1  0  0  0  0
  7 13  2  0  0  0  0
  8 14  1  0  0  0  0
  8 15  2  0  0  0  0
  9 27  1  0  0  0  0
 10 16  2  0  0  0  0
 10 28  1  0  0  0  0
 11 16  1  0  0  0  0
 11 29  1  0  0  0  0
 12 17  2  0  0  0  0
 12 18  1  0  0  0  0
 14 30  1  0  0  0  0
 16 31  1  0  0  0  0
 17 19  1  0  0  0  0
 17 32  1  0  0  0  0
 18 20  2  0  0  0  0
 18 33  1  0  0  0  0
 19 21  2  0  0  0  0
 19 34  1  0  0  0  0
 20 21  1  0  0  0  0
 20 35  1  0  0  0  0
 21 36  1  0  0  0  0
M  END
>  <Mol_ID>
4244

>  <Formula>
C16H15NO4

>  <MolWeight>
285.2946

>  <Cat>
S9395

>  <Name>
N-Benzoyl-(2R,3S)-3-phenylisoserine

>  <Synonyms>
taxol side chain

>  <Target>
Others

>  <Form>
free base

>  <CAS>
132201-33-3

>  <URL>
https://www.selleckchem.com/products/n-benzoyl-2r-3s-3-phenylisoserine.html

$$$$
