S9392 Praeruptorin B.cdx
 OpenBabel08302520433D

 57 59  0  0  0  0  0  0  0  0999 V2000
    0.6568    0.3755    0.1752 C   0  0  0  0  0  0  0  0  0  0  0  0
    0.0173   -0.8611    0.7281 C   0  0  0  0  0  0  0  0  0  0  0  0
   -1.2488   -0.9076    1.1987 C   0  0  0  0  0  0  0  0  0  0  0  0
    0.0517    1.2948   -0.3420 O   0  0  0  0  0  0  0  0  0  0  0  0
    2.0036    0.2632    0.3213 O   0  0  0  0  0  0  0  0  0  0  0  0
    0.8333   -2.1204    0.6690 C   0  0  0  0  0  0  0  0  0  0  0  0
    0.2685    4.4967   -1.5093 C   0  0  0  0  0  0  0  0  0  0  0  0
    0.1241    5.6357   -0.5806 C   0  0  0  0  0  0  0  0  0  0  0  0
    0.9614    5.8206    0.4339 C   0  0  0  0  0  0  0  0  0  0  0  0
    1.9922    4.8315    0.6923 C   0  0  0  0  0  0  0  0  0  0  0  0
    2.8359    5.0134    1.7787 C   0  0  0  0  0  0  0  0  0  0  0  0
    3.6865    3.9845    2.1290 C   0  0  0  0  0  0  0  0  0  0  0  0
    3.6805    2.7781    1.4134 C   0  0  0  0  0  0  0  0  0  0  0  0
    2.8829    2.5595    0.2897 C   0  0  0  0  0  0  0  0  0  0  0  0
    2.0575    3.6449   -0.0710 C   0  0  0  0  0  0  0  0  0  0  0  0
    1.2541    3.5596   -1.2320 O   0  0  0  0  0  0  0  0  0  0  0  0
    4.8565    0.6934    1.2289 C   0  0  0  0  0  0  0  0  0  0  0  0
    4.3538    0.5838   -0.2473 C   0  0  2  0  0  0  0  0  0  0  0  0
    2.8934    1.1695   -0.3694 C   0  0  1  0  0  0  0  0  0  0  0  0
    4.4901    1.8543    1.9720 O   0  0  0  0  0  0  0  0  0  0  0  0
   -0.4195    4.4661   -2.5268 O   0  0  0  0  0  0  0  0  0  0  0  0
    4.7577   -0.7881   -0.6875 O   0  0  0  0  0  0  0  0  0  0  0  0
    4.0144   -1.7289   -1.3081 C   0  0  0  0  0  0  0  0  0  0  0  0
    4.6983   -3.0958   -1.4220 C   0  0  0  0  0  0  0  0  0  0  0  0
    5.9647   -3.4890   -1.1680 C   0  0  0  0  0  0  0  0  0  0  0  0
    2.8799   -1.5423   -1.7166 O   0  0  0  0  0  0  0  0  0  0  0  0
    3.7701   -4.1956   -1.9249 C   0  0  0  0  0  0  0  0  0  0  0  0
    6.3903    0.7960    1.2326 C   0  0  0  0  0  0  0  0  0  0  0  0
    4.3732   -0.4752    2.1001 C   0  0  0  0  0  0  0  0  0  0  0  0
    7.1777   -2.7749   -0.6880 C   0  0  0  0  0  0  0  0  0  0  0  0
   -2.2611    0.1749    1.3480 C   0  0  0  0  0  0  0  0  0  0  0  0
   -1.6227   -1.8797    1.5207 H   0  0  0  0  0  0  0  0  0  0  0  0
    0.9555   -2.4356   -0.3707 H   0  0  0  0  0  0  0  0  0  0  0  0
    1.8191   -1.9875    1.1235 H   0  0  0  0  0  0  0  0  0  0  0  0
    0.3546   -2.9454    1.2067 H   0  0  0  0  0  0  0  0  0  0  0  0
   -0.7021    6.3098   -0.7687 H   0  0  0  0  0  0  0  0  0  0  0  0
    0.8367    6.6537    1.1197 H   0  0  0  0  0  0  0  0  0  0  0  0
    2.8144    5.9205    2.3769 H   0  0  0  0  0  0  0  0  0  0  0  0
    4.3348    4.0920    2.9962 H   0  0  0  0  0  0  0  0  0  0  0  0
    4.9803    1.2392   -0.8696 H   0  0  0  0  0  0  0  0  0  0  0  0
    2.6152    1.2240   -1.4296 H   0  0  0  0  0  0  0  0  0  0  0  0
    6.2028   -4.5415   -1.3479 H   0  0  0  0  0  0  0  0  0  0  0  0
    2.9174   -4.3278   -1.2511 H   0  0  0  0  0  0  0  0  0  0  0  0
    3.4089   -3.9728   -2.9339 H   0  0  0  0  0  0  0  0  0  0  0  0
    4.2685   -5.1745   -1.9838 H   0  0  0  0  0  0  0  0  0  0  0  0
    6.6913    1.7897    0.8678 H   0  0  0  0  0  0  0  0  0  0  0  0
    6.7868    0.7242    2.2506 H   0  0  0  0  0  0  0  0  0  0  0  0
    6.8777    0.0514    0.6095 H   0  0  0  0  0  0  0  0  0  0  0  0
    4.8663   -0.4592    3.0801 H   0  0  0  0  0  0  0  0  0  0  0  0
    3.3046   -0.3721    2.3242 H   0  0  0  0  0  0  0  0  0  0  0  0
    4.5410   -1.4563    1.6530 H   0  0  0  0  0  0  0  0  0  0  0  0
    7.5375   -3.2514    0.2307 H   0  0  0  0  0  0  0  0  0  0  0  0
    7.9732   -2.8675   -1.4362 H   0  0  0  0  0  0  0  0  0  0  0  0
    7.0094   -1.7232   -0.4977 H   0  0  0  0  0  0  0  0  0  0  0  0
   -3.0946    0.0036    0.6580 H   0  0  0  0  0  0  0  0  0  0  0  0
   -2.6652    0.1451    2.3662 H   0  0  0  0  0  0  0  0  0  0  0  0
   -1.8701    1.1812    1.1819 H   0  0  0  0  0  0  0  0  0  0  0  0
  1  2  1  0  0  0  0
  1  4  2  0  0  0  0
  1  5  1  0  0  0  0
  2  3  2  0  0  0  0
  2  6  1  0  0  0  0
  3 31  1  0  0  0  0
  3 32  1  0  0  0  0
  6 33  1  0  0  0  0
  6 34  1  0  0  0  0
  6 35  1  0  0  0  0
  7  8  1  0  0  0  0
  7 16  1  0  0  0  0
  7 21  2  0  0  0  0
  8  9  2  0  0  0  0
  8 36  1  0  0  0  0
  9 10  1  0  0  0  0
  9 37  1  0  0  0  0
 10 11  1  0  0  0  0
 10 15  2  0  0  0  0
 11 12  2  0  0  0  0
 11 38  1  0  0  0  0
 12 13  1  0  0  0  0
 12 39  1  0  0  0  0
 13 14  2  0  0  0  0
 13 20  1  0  0  0  0
 14 15  1  0  0  0  0
 14 19  1  0  0  0  0
 15 16  1  0  0  0  0
 17 18  1  0  0  0  0
 17 20  1  0  0  0  0
 17 28  1  0  0  0  0
 17 29  1  0  0  0  0
 18 19  1  0  0  0  0
 18 40  1  6  0  0  0
 18 22  1  0  0  0  0
 19  5  1  0  0  0  0
 19 41  1  6  0  0  0
 22 23  1  0  0  0  0
 23 24  1  0  0  0  0
 23 26  2  0  0  0  0
 24 25  2  0  0  0  0
 24 27  1  0  0  0  0
 25 30  1  0  0  0  0
 25 42  1  0  0  0  0
 27 43  1  0  0  0  0
 27 44  1  0  0  0  0
 27 45  1  0  0  0  0
 28 46  1  0  0  0  0
 28 47  1  0  0  0  0
 28 48  1  0  0  0  0
 29 49  1  0  0  0  0
 29 50  1  0  0  0  0
 29 51  1  0  0  0  0
 30 52  1  0  0  0  0
 30 53  1  0  0  0  0
 30 54  1  0  0  0  0
 31 55  1  0  0  0  0
 31 56  1  0  0  0  0
 31 57  1  0  0  0  0
M  END
>  <Mol_ID>
4242

>  <Formula>
C24H26O7

>  <MolWeight>
426.45904

>  <Cat>
S9392

>  <Name>
Praeruptorin B

>  <Target>
Fatty Acid Synthase

>  <Form>
free base

>  <CAS>
73069-28-0

>  <URL>
https://www.selleckchem.com/products/praeruptorin-b.html

$$$$
