S9397 Alliin.cdx
 OpenBabel08302520433D

 22 21  0  0  0  0  0  0  0  0999 V2000
    1.3349   -0.1073   -0.2656 C   0  0  0  0  0  0  0  0  0  0  0  0
   -0.6226   -1.0406   -1.4060 N   0  0  0  0  0  0  0  0  0  0  0  0
    0.2965    0.1484   -1.3745 C   0  0  1  0  0  0  0  0  0  0  0  0
   -0.5067    1.4148   -1.0663 C   0  0  0  0  0  0  0  0  0  0  0  0
    2.4496    0.3771   -0.2086 O   0  0  0  0  0  0  0  0  0  0  0  0
    0.8373   -0.9435    0.6861 O   0  0  0  0  0  0  0  0  0  0  0  0
    0.5466    2.9031   -1.0650 S   0  0  3  0  0  0  0  0  0  0  0  0
    0.9938    3.1087   -2.4821 O   0  0  0  0  0  0  0  0  0  0  0  0
   -0.8039    4.0891   -0.7361 C   0  0  0  0  0  0  0  0  0  0  0  0
   -0.2556    5.4783   -0.6266 C   0  0  0  0  0  0  0  0  0  0  0  0
   -0.4428    6.2951    0.4244 C   0  0  0  0  0  0  0  0  0  0  0  0
   -1.2863   -0.9015   -2.1744 H   0  0  0  0  0  0  0  0  0  0  0  0
   -0.0668   -1.8482   -1.7140 H   0  0  0  0  0  0  0  0  0  0  0  0
    0.8157    0.2059   -2.3375 H   0  0  0  0  0  0  0  0  0  0  0  0
   -1.2809    1.5624   -1.8269 H   0  0  0  0  0  0  0  0  0  0  0  0
   -0.9907    1.3467   -0.0857 H   0  0  0  0  0  0  0  0  0  0  0  0
   -0.0517   -1.2379    0.3705 H   0  0  0  0  0  0  0  0  0  0  0  0
   -1.5133    4.0359   -1.5673 H   0  0  0  0  0  0  0  0  0  0  0  0
   -1.3133    3.7834    0.1847 H   0  0  0  0  0  0  0  0  0  0  0  0
    0.3298    5.8381   -1.4705 H   0  0  0  0  0  0  0  0  0  0  0  0
   -0.0131    7.2916    0.4289 H   0  0  0  0  0  0  0  0  0  0  0  0
   -1.0193    5.9932    1.2923 H   0  0  0  0  0  0  0  0  0  0  0  0
  1  3  1  0  0  0  0
  1  5  2  0  0  0  0
  1  6  1  0  0  0  0
  2 12  1  0  0  0  0
  2 13  1  0  0  0  0
  3  2  1  0  0  0  0
  3  4  1  0  0  0  0
  3 14  1  6  0  0  0
  4  7  1  0  0  0  0
  4 15  1  0  0  0  0
  4 16  1  0  0  0  0
  6 17  1  0  0  0  0
  7  8  2  0  0  0  0
  7  9  1  0  0  0  0
  9 10  1  0  0  0  0
  9 18  1  0  0  0  0
  9 19  1  0  0  0  0
 10 11  2  0  0  0  0
 10 20  1  0  0  0  0
 11 21  1  0  0  0  0
 11 22  1  0  0  0  0
M  END
>  <Mol_ID>
4245

>  <Formula>
C6H11NO3S

>  <MolWeight>
177.22144

>  <Cat>
S9397

>  <Name>
Alliin

>  <Synonyms>
S-allyl cysteine sulfoxide, ACSO, 3-(Allylsulphinyl)-L-alanine

>  <Target>
Others

>  <Form>
free base

>  <CAS>
556-27-4

>  <URL>
https://www.selleckchem.com/products/alliin.html

$$$$
