S9409 Kavain.cdx
 OpenBabel08302520453D

 31 32  0  0  0  0  0  0  0  0999 V2000
    1.0869    0.9990   -0.2749 C   0  0  1  0  0  0  0  0  0  0  0  0
    1.8776   -0.1356    0.3734 C   0  0  0  0  0  0  0  0  0  0  0  0
   -0.2402    1.0367    0.2594 O   0  0  0  0  0  0  0  0  0  0  0  0
    1.8040    2.3045   -0.0491 C   0  0  0  0  0  0  0  0  0  0  0  0
    1.1239   -1.4058    0.1244 C   0  0  0  0  0  0  0  0  0  0  0  0
   -0.9655   -0.1077    0.1137 C   0  0  0  0  0  0  0  0  0  0  0  0
    2.3008    2.9987   -1.0851 C   0  0  0  0  0  0  0  0  0  0  0  0
   -0.2039   -1.3646   -0.0526 C   0  0  0  0  0  0  0  0  0  0  0  0
    1.8064   -2.5965   -0.0333 O   0  0  0  0  0  0  0  0  0  0  0  0
   -2.1886   -0.1223    0.1539 O   0  0  0  0  0  0  0  0  0  0  0  0
    3.2589    4.1097   -1.0450 C   0  0  0  0  0  0  0  0  0  0  0  0
    2.9832   -2.7313    0.7627 C   0  0  0  0  0  0  0  0  0  0  0  0
    4.2910    4.1729   -0.0996 C   0  0  0  0  0  0  0  0  0  0  0  0
    3.2634    5.0157   -2.1119 C   0  0  0  0  0  0  0  0  0  0  0  0
    5.3160    5.1135   -0.2377 C   0  0  0  0  0  0  0  0  0  0  0  0
    4.2864    5.9546   -2.2492 C   0  0  0  0  0  0  0  0  0  0  0  0
    5.3192    5.9955   -1.3173 C   0  0  0  0  0  0  0  0  0  0  0  0
    0.9988    0.8209   -1.3569 H   0  0  0  0  0  0  0  0  0  0  0  0
    2.8789   -0.1662   -0.0673 H   0  0  0  0  0  0  0  0  0  0  0  0
    1.9743    0.0101    1.4570 H   0  0  0  0  0  0  0  0  0  0  0  0
    2.0078    2.6011    0.9759 H   0  0  0  0  0  0  0  0  0  0  0  0
    2.0577    2.6709   -2.0986 H   0  0  0  0  0  0  0  0  0  0  0  0
   -0.7815   -2.2532   -0.2766 H   0  0  0  0  0  0  0  0  0  0  0  0
    3.7898   -2.0974    0.3830 H   0  0  0  0  0  0  0  0  0  0  0  0
    2.7775   -2.5054    1.8141 H   0  0  0  0  0  0  0  0  0  0  0  0
    3.3215   -3.7690    0.6939 H   0  0  0  0  0  0  0  0  0  0  0  0
    4.3379    3.4642    0.7225 H   0  0  0  0  0  0  0  0  0  0  0  0
    2.4812    4.9775   -2.8690 H   0  0  0  0  0  0  0  0  0  0  0  0
    6.1300    5.1368    0.4819 H   0  0  0  0  0  0  0  0  0  0  0  0
    4.2889    6.6323   -3.0983 H   0  0  0  0  0  0  0  0  0  0  0  0
    6.1342    6.7046   -1.4401 H   0  0  0  0  0  0  0  0  0  0  0  0
  1  2  1  0  0  0  0
  1  3  1  0  0  0  0
  1 18  1  6  0  0  0
  1  4  1  0  0  0  0
  2  5  1  0  0  0  0
  2 19  1  0  0  0  0
  2 20  1  0  0  0  0
  3  6  1  0  0  0  0
  4  7  2  0  0  0  0
  4 21  1  0  0  0  0
  5  8  2  0  0  0  0
  5  9  1  0  0  0  0
  6 10  2  0  0  0  0
  6  8  1  0  0  0  0
  7 11  1  0  0  0  0
  7 22  1  0  0  0  0
  8 23  1  0  0  0  0
  9 12  1  0  0  0  0
 11 13  2  0  0  0  0
 11 14  1  0  0  0  0
 12 24  1  0  0  0  0
 12 25  1  0  0  0  0
 12 26  1  0  0  0  0
 13 15  1  0  0  0  0
 13 27  1  0  0  0  0
 14 16  2  0  0  0  0
 14 28  1  0  0  0  0
 15 17  2  0  0  0  0
 15 29  1  0  0  0  0
 16 17  1  0  0  0  0
 16 30  1  0  0  0  0
 17 31  1  0  0  0  0
M  END
>  <Mol_ID>
4257

>  <Formula>
C14H14O3

>  <MolWeight>
230.25916

>  <Cat>
S9409

>  <Name>
Kavain

>  <Synonyms>
(+)-Kavain

>  <Target>
GABA Receptor

>  <Form>
free base

>  <CAS>
500-64-1

>  <URL>
https://www.selleckchem.com/products/kavain.html

$$$$
