S9400 Rhynchophylline.cdx
 OpenBabel08302521232D

 56 59  0  0  0  0  0  0  0  0999 V2000
    0.0000    2.2306    0.0000 C   0  0  0  0  0  0  0  0  0  0  0  0
    0.0000    0.8304    0.0000 C   0  0  0  0  0  0  0  0  0  0  0  0
    1.2123    0.1303    0.0000 C   0  0  0  0  0  0  0  0  0  0  0  0
    2.4248    0.8304    0.0000 C   0  0  0  0  0  0  0  0  0  0  0  0
    2.4248    2.2306    0.0000 C   0  0  0  0  0  0  0  0  0  0  0  0
    1.2123    2.9306    0.0000 C   0  0  0  0  0  0  0  0  0  0  0  0
    3.7564    2.6631    0.0000 C   0  0  2  0  0  0  0  0  0  0  0  0
    4.5790    1.5304    0.0000 C   0  0  0  0  0  0  0  0  0  0  0  0
    3.7562    0.3978    0.0000 N   0  0  0  0  0  0  0  0  0  0  0  0
    5.5692    0.5404    0.0000 O   0  0  0  0  0  0  0  0  0  0  0  0
    3.0563    3.8756    0.0000 C   0  0  0  0  0  0  0  0  0  0  0  0
    4.0463    4.8655    0.0000 C   0  0  0  0  0  0  0  0  0  0  0  0
    5.1761    4.3087    0.0000 N   0  0  3  0  0  0  0  0  0  0  0  0
    5.1761    3.0938    0.0000 C   0  0  1  0  0  0  0  0  0  0  0  0
    6.2095    2.4543    0.0000 C   0  0  0  0  0  0  0  0  0  0  0  0
    7.2803    3.0297    0.0000 C   0  0  1  0  0  0  0  0  0  0  0  0
    7.2803    4.2445    0.0000 C   0  0  2  0  0  0  0  0  0  0  0  0
    6.2837    4.8840    0.0000 C   0  0  0  0  0  0  0  0  0  0  0  0
    8.3879    4.8199    0.0000 C   0  0  0  0  0  0  0  0  0  0  0  0
    9.3845    4.1804    0.0000 O   0  0  0  0  0  0  0  0  0  0  0  0
    9.3845    2.9655    0.0000 C   0  0  0  0  0  0  0  0  0  0  0  0
    8.3139    2.3902    0.0000 C   0  0  0  0  0  0  0  0  0  0  0  0
    8.3139    0.9900    0.0000 C   0  0  0  0  0  0  0  0  0  0  0  0
    7.3238    0.0000    0.0000 O   0  0  0  0  0  0  0  0  0  0  0  0
    9.5264    0.2901    0.0000 O   0  0  0  0  0  0  0  0  0  0  0  0
   10.5163    1.2800    0.0000 C   0  0  0  0  0  0  0  0  0  0  0  0
    8.3879    6.2199    0.0000 C   0  0  0  0  0  0  0  0  0  0  0  0
   10.7368    4.5427    0.0000 C   0  0  0  0  0  0  0  0  0  0  0  0
   -0.8938    2.7466    0.0000 H   0  0  0  0  0  0  0  0  0  0  0  0
   -0.8938    0.3144    0.0000 H   0  0  0  0  0  0  0  0  0  0  0  0
    1.2123   -0.9017    0.0000 H   0  0  0  0  0  0  0  0  0  0  0  0
    1.2123    3.9626    0.0000 H   0  0  0  0  0  0  0  0  0  0  0  0
    4.0604   -0.5385    0.0000 H   0  0  0  0  0  0  0  0  0  0  0  0
    1.9955    4.0153    0.0000 H   0  0  0  0  0  0  0  0  0  0  0  0
    2.7124    4.8888    0.0000 H   0  0  0  0  0  0  0  0  0  0  0  0
    3.8719    5.9212    0.0000 H   0  0  0  0  0  0  0  0  0  0  0  0
    4.9056    5.5031    0.0000 H   0  0  0  0  0  0  0  0  0  0  0  0
    5.0376    2.0328    0.0000 H   0  0  0  0  0  0  0  0  0  0  0  0
    6.1768    1.3848    0.0000 H   0  0  0  0  0  0  0  0  0  0  0  0
    7.1194    1.8913    0.0000 H   0  0  0  0  0  0  0  0  0  0  0  0
    7.2477    1.9602    0.0000 H   0  0  0  0  0  0  0  0  0  0  0  0
    8.1948    3.6890    0.0000 H   0  0  0  0  0  0  0  0  0  0  0  0
    6.3326    5.9529    0.0000 H   0  0  0  0  0  0  0  0  0  0  0  0
    7.2341    5.3755    0.0000 H   0  0  0  0  0  0  0  0  0  0  0  0
    9.3024    4.2644    0.0000 H   0  0  0  0  0  0  0  0  0  0  0  0
    9.3204    5.3446    0.0000 H   0  0  0  0  0  0  0  0  0  0  0  0
   10.2703    2.4359    0.0000 H   0  0  0  0  0  0  0  0  0  0  0  0
   11.5498    1.0031    0.0000 H   0  0  0  0  0  0  0  0  0  0  0  0
   10.2394    2.3135    0.0000 H   0  0  0  0  0  0  0  0  0  0  0  0
   11.2729    2.0366    0.0000 H   0  0  0  0  0  0  0  0  0  0  0  0
    9.3145    6.7549    0.0000 H   0  0  0  0  0  0  0  0  0  0  0  0
    7.4613    6.7549    0.0000 H   0  0  0  0  0  0  0  0  0  0  0  0
    8.3879    7.2899    0.0000 H   0  0  0  0  0  0  0  0  0  0  0  0
   11.4934    3.7861    0.0000 H   0  0  0  0  0  0  0  0  0  0  0  0
   11.0138    5.5762    0.0000 H   0  0  0  0  0  0  0  0  0  0  0  0
   11.7703    4.8196    0.0000 H   0  0  0  0  0  0  0  0  0  0  0  0
  1  2  2  0  0  0  0
  1  6  1  0  0  0  0
  1 29  1  0  0  0  0
  2  3  1  0  0  0  0
  2 30  1  0  0  0  0
  3  4  2  0  0  0  0
  3 31  1  0  0  0  0
  4  5  1  0  0  0  0
  4  9  1  0  0  0  0
  5  6  2  0  0  0  0
  6 32  1  0  0  0  0
  7  5  1  6  0  0  0
  7  8  1  0  0  0  0
  7 11  1  0  0  0  0
  7 14  1  0  0  0  0
  8  9  1  0  0  0  0
  8 10  2  0  0  0  0
  9 33  1  0  0  0  0
 11 12  1  0  0  0  0
 11 34  1  0  0  0  0
 11 35  1  0  0  0  0
 12 13  1  0  0  0  0
 12 36  1  0  0  0  0
 12 37  1  0  0  0  0
 13 14  1  0  0  0  0
 13 18  1  0  0  0  0
 14 15  1  0  0  0  0
 14 38  1  6  0  0  0
 15 16  1  0  0  0  0
 15 39  1  0  0  0  0
 15 40  1  0  0  0  0
 16 17  1  0  0  0  0
 16 22  1  0  0  0  0
 16 41  1  6  0  0  0
 17 18  1  0  0  0  0
 17 19  1  0  0  0  0
 17 42  1  1  0  0  0
 18 43  1  0  0  0  0
 18 44  1  0  0  0  0
 19 27  1  0  0  0  0
 19 45  1  0  0  0  0
 19 46  1  0  0  0  0
 20 28  1  0  0  0  0
 21 20  1  0  0  0  0
 21 47  1  0  0  0  0
 22 21  2  0  0  0  0
 22 23  1  0  0  0  0
 23 24  2  0  0  0  0
 23 25  1  0  0  0  0
 25 26  1  0  0  0  0
 26 48  1  0  0  0  0
 26 49  1  0  0  0  0
 26 50  1  0  0  0  0
 27 51  1  0  0  0  0
 27 52  1  0  0  0  0
 27 53  1  0  0  0  0
 28 54  1  0  0  0  0
 28 55  1  0  0  0  0
 28 56  1  0  0  0  0
M  END
>  <Mol_ID>
4248

>  <Formula>
C22H28N2O4

>  <MolWeight>
384.46872

>  <Cat>
S9400

>  <Name>
Rhynchophylline

>  <Synonyms>
Mitrinermine

>  <Target>
Calcium Channel

>  <Form>
free base

>  <CAS>
76-66-4

>  <URL>
https://www.selleckchem.com/products/rhynchophylline.html

$$$$
