S9406 Sauchinone.cdx
 OpenBabel08302520453D

 46 51  0  0  0  0  0  0  0  0999 V2000
    2.6886    0.9540    0.0055 C   0  0  0  0  0  0  0  0  0  0  0  0
    3.0701    2.2486   -0.1452 C   0  0  0  0  0  0  0  0  0  0  0  0
    2.0969    3.3370   -0.5854 C   0  0  0  0  0  0  0  0  0  0  0  0
    0.6087    2.9920   -0.6695 C   0  0  1  0  0  0  0  0  0  0  0  0
    0.4973    1.6748    0.0850 C   0  0  3  0  0  0  0  0  0  0  0  0
    1.2712    0.4090   -0.2673 C   0  0  3  0  0  0  0  0  0  0  0  0
   -0.4224    4.1701   -0.1102 C   0  0  0  0  0  0  0  0  0  0  0  0
   -1.6278    3.7352    0.8632 C   0  0  3  0  0  0  0  0  0  0  0  0
   -1.1599    2.5358    1.6669 C   0  0  3  0  0  0  0  0  0  0  0  0
   -0.9067    1.5483    0.5024 C   0  0  3  0  0  0  0  0  0  0  0  0
   -1.4378    0.1997    0.6355 C   0  0  0  0  0  0  0  0  0  0  0  0
   -0.6059   -0.9001    0.4724 C   0  0  0  0  0  0  0  0  0  0  0  0
    0.7642   -0.7250    0.5292 O   0  0  0  0  0  0  0  0  0  0  0  0
   -2.8406    0.1518    0.6871 C   0  0  0  0  0  0  0  0  0  0  0  0
   -3.4244   -1.0596    0.5487 C   0  0  0  0  0  0  0  0  0  0  0  0
   -2.6614   -2.1848    0.3633 C   0  0  0  0  0  0  0  0  0  0  0  0
   -1.2566   -2.1440    0.3199 C   0  0  0  0  0  0  0  0  0  0  0  0
   -4.7561   -1.2699    0.5569 O   0  0  0  0  0  0  0  0  0  0  0  0
   -4.7668   -2.7044    0.5934 C   0  0  0  0  0  0  0  0  0  0  0  0
   -3.4773   -3.2782    0.2433 O   0  0  0  0  0  0  0  0  0  0  0  0
    1.6559   -0.1279   -1.5175 O   0  0  0  0  0  0  0  0  0  0  0  0
    3.6187   -0.0433   -0.1240 O   0  0  0  0  0  0  0  0  0  0  0  0
    2.9138   -0.8075   -1.1332 C   0  0  0  0  0  0  0  0  0  0  0  0
    2.5302    4.4277   -0.9591 O   0  0  0  0  0  0  0  0  0  0  0  0
    0.0074    2.9895    2.6084 C   0  0  0  0  0  0  0  0  0  0  0  0
   -2.3258    4.7137    1.8206 C   0  0  0  0  0  0  0  0  0  0  0  0
    4.1051    2.5564   -0.1219 H   0  0  0  0  0  0  0  0  0  0  0  0
    0.3558    2.8211   -1.7274 H   0  0  0  0  0  0  0  0  0  0  0  0
    0.9649    1.8481    1.0600 H   0  0  0  0  0  0  0  0  0  0  0  0
    0.1573    4.9698    0.3598 H   0  0  0  0  0  0  0  0  0  0  0  0
   -0.8967    4.6196   -0.9956 H   0  0  0  0  0  0  0  0  0  0  0  0
   -2.4512    3.4105    0.2033 H   0  0  0  0  0  0  0  0  0  0  0  0
   -1.9380    2.1374    2.3256 H   0  0  0  0  0  0  0  0  0  0  0  0
   -1.4621    1.8453   -0.4053 H   0  0  0  0  0  0  0  0  0  0  0  0
   -3.4637    1.0471    0.7650 H   0  0  0  0  0  0  0  0  0  0  0  0
   -0.6938   -3.0537    0.1462 H   0  0  0  0  0  0  0  0  0  0  0  0
   -5.5427   -3.0643   -0.0905 H   0  0  0  0  0  0  0  0  0  0  0  0
   -5.0260   -3.0083    1.6151 H   0  0  0  0  0  0  0  0  0  0  0  0
    3.5871   -0.9122   -1.9904 H   0  0  0  0  0  0  0  0  0  0  0  0
    2.7078   -1.8039   -0.7169 H   0  0  0  0  0  0  0  0  0  0  0  0
    0.4883    2.1432    3.1088 H   0  0  0  0  0  0  0  0  0  0  0  0
    0.7973    3.5574    2.0907 H   0  0  0  0  0  0  0  0  0  0  0  0
   -0.3516    3.6745    3.3803 H   0  0  0  0  0  0  0  0  0  0  0  0
   -3.3011    5.0015    1.4043 H   0  0  0  0  0  0  0  0  0  0  0  0
   -2.5661    4.2413    2.7896 H   0  0  0  0  0  0  0  0  0  0  0  0
   -1.7339    5.6011    2.0153 H   0  0  0  0  0  0  0  0  0  0  0  0
  1  2  2  0  0  0  0
  1 22  1  0  0  0  0
  2  3  1  0  0  0  0
  2 27  1  0  0  0  0
  3  4  1  0  0  0  0
  3 24  2  0  0  0  0
  4  7  1  0  0  0  0
  4 28  1  6  0  0  0
  5  4  1  0  0  0  0
  5  6  1  0  0  0  0
  5 29  1  0  0  0  0
  6  1  1  0  0  0  0
  6 13  1  0  0  0  0
  6 21  1  0  0  0  0
  7  8  1  0  0  0  0
  7 30  1  0  0  0  0
  7 31  1  0  0  0  0
  8  9  1  0  0  0  0
  8 26  1  0  0  0  0
  8 32  1  0  0  0  0
  9 10  1  0  0  0  0
  9 25  1  0  0  0  0
  9 33  1  0  0  0  0
 10  5  1  0  0  0  0
 10 11  1  0  0  0  0
 10 34  1  0  0  0  0
 11 12  2  0  0  0  0
 11 14  1  0  0  0  0
 12 13  1  0  0  0  0
 14 15  2  0  0  0  0
 14 35  1  0  0  0  0
 15 16  1  0  0  0  0
 15 18  1  0  0  0  0
 16 17  2  0  0  0  0
 17 12  1  0  0  0  0
 17 36  1  0  0  0  0
 18 19  1  0  0  0  0
 19 20  1  0  0  0  0
 19 37  1  0  0  0  0
 19 38  1  0  0  0  0
 20 16  1  0  0  0  0
 21 23  1  0  0  0  0
 22 23  1  0  0  0  0
 23 39  1  0  0  0  0
 23 40  1  0  0  0  0
 25 41  1  0  0  0  0
 25 42  1  0  0  0  0
 25 43  1  0  0  0  0
 26 44  1  0  0  0  0
 26 45  1  0  0  0  0
 26 46  1  0  0  0  0
M  END
>  <Mol_ID>
4254

>  <Formula>
C20H20O6

>  <MolWeight>
356.3692

>  <Cat>
S9406

>  <Name>
Sauchinone

>  <Target>
Immunology & Inflammation related

>  <Form>
free base

>  <CAS>
177931-17-8

>  <URL>
https://www.selleckchem.com/products/sauchinone.html

$$$$
