S9416 Triptonide.cdx
 OpenBabel08302520453D

 48 54  0  0  0  0  0  0  0  0999 V2000
    1.6585    2.9393    0.8506 C   0  0  0  0  0  0  0  0  0  0  0  0
   -1.5688    4.1433    1.9794 C   0  0  0  0  0  0  0  0  0  0  0  0
   -1.5727    4.1677   -0.5787 C   0  0  1  0  0  0  0  0  0  0  0  0
   -1.8493    3.3081    0.7159 C   0  0  2  0  0  0  0  0  0  0  0  0
   -3.8199    3.2788   -1.4331 C   0  0  0  0  0  0  0  0  0  0  0  0
   -2.3171    3.5138   -1.7735 C   0  0  0  0  0  0  0  0  0  0  0  0
   -3.8873    2.3543   -0.2779 C   0  0  0  0  0  0  0  0  0  0  0  0
   -2.9686    2.3325    0.6787 C   0  0  0  0  0  0  0  0  0  0  0  0
   -2.8010    0.9496    1.1950 C   0  0  0  0  0  0  0  0  0  0  0  0
   -3.9194    0.2488    0.6701 O   0  0  0  0  0  0  0  0  0  0  0  0
   -4.5251    1.0539   -0.2570 C   0  0  0  0  0  0  0  0  0  0  0  0
   -5.4362    0.7099   -0.9877 O   0  0  0  0  0  0  0  0  0  0  0  0
   -2.0228    5.6535   -0.5271 C   0  0  0  0  0  0  0  0  0  0  0  0
    1.5059    1.9514    1.5622 O   0  0  0  0  0  0  0  0  0  0  0  0
    2.7589    3.1001   -0.1033 C   0  0  2  0  0  0  0  0  0  0  0  0
    2.3767    3.3513   -1.5691 C   0  0  1  0  0  0  0  0  0  0  0  0
    2.8176    2.0690   -1.1014 O   0  0  0  0  0  0  0  0  0  0  0  0
    0.8698    3.6061   -1.7076 C   0  0  1  0  0  0  0  0  0  0  0  0
   -0.0484    4.1774   -0.6011 C   0  0  1  0  0  0  0  0  0  0  0  0
    0.5485    5.0047   -1.5976 O   0  0  0  0  0  0  0  0  0  0  0  0
   -0.0813    4.1926    2.1104 C   0  0  1  0  0  0  0  0  0  0  0  0
    0.6830    4.0282    0.7584 C   0  0  1  0  0  0  0  0  0  0  0  0
    0.7355    5.2121    1.5549 O   0  0  0  0  0  0  0  0  0  0  0  0
    4.0524    3.6213    0.4653 C   0  0  0  0  0  0  0  0  0  0  0  0
    5.2034    3.7244   -0.5188 C   0  0  0  0  0  0  0  0  0  0  0  0
    4.4513    2.8229    1.7171 C   0  0  0  0  0  0  0  0  0  0  0  0
   -1.9972    5.1494    1.9469 H   0  0  0  0  0  0  0  0  0  0  0  0
   -1.9957    3.6603    2.8655 H   0  0  0  0  0  0  0  0  0  0  0  0
   -1.0539    2.5458    0.7024 H   0  0  0  0  0  0  0  0  0  0  0  0
   -4.3290    4.2174   -1.1799 H   0  0  0  0  0  0  0  0  0  0  0  0
   -4.3327    2.8570   -2.3026 H   0  0  0  0  0  0  0  0  0  0  0  0
   -2.2394    4.1305   -2.6753 H   0  0  0  0  0  0  0  0  0  0  0  0
   -1.8568    2.5477   -2.0201 H   0  0  0  0  0  0  0  0  0  0  0  0
   -2.7668    0.8741    2.2808 H   0  0  0  0  0  0  0  0  0  0  0  0
   -1.8914    0.4896    0.7784 H   0  0  0  0  0  0  0  0  0  0  0  0
   -3.0573    5.7730   -0.1981 H   0  0  0  0  0  0  0  0  0  0  0  0
   -1.3833    6.2633    0.1211 H   0  0  0  0  0  0  0  0  0  0  0  0
   -1.9347    6.1084   -1.5240 H   0  0  0  0  0  0  0  0  0  0  0  0
    3.0363    3.8699   -2.2491 H   0  0  0  0  0  0  0  0  0  0  0  0
    0.3981    3.0831   -2.5348 H   0  0  0  0  0  0  0  0  0  0  0  0
    0.2790    3.6816    2.9965 H   0  0  0  0  0  0  0  0  0  0  0  0
    3.8442    4.6474    0.8050 H   0  0  0  0  0  0  0  0  0  0  0  0
    6.0958    4.1125   -0.0195 H   0  0  0  0  0  0  0  0  0  0  0  0
    5.4452    2.7564   -0.9654 H   0  0  0  0  0  0  0  0  0  0  0  0
    4.9620    4.4271   -1.3225 H   0  0  0  0  0  0  0  0  0  0  0  0
    5.5138    2.9238    1.9519 H   0  0  0  0  0  0  0  0  0  0  0  0
    3.8922    3.1926    2.5865 H   0  0  0  0  0  0  0  0  0  0  0  0
    4.2186    1.7575    1.6152 H   0  0  0  0  0  0  0  0  0  0  0  0
  1 14  2  0  0  0  0
  2 27  1  0  0  0  0
  2 28  1  0  0  0  0
  3 13  1  1  0  0  0
  3  6  1  0  0  0  0
  3  4  1  0  0  0  0
  4  8  1  0  0  0  0
  4  2  1  0  0  0  0
  4 29  1  6  0  0  0
  5  6  1  0  0  0  0
  5 30  1  0  0  0  0
  5 31  1  0  0  0  0
  6 32  1  0  0  0  0
  6 33  1  0  0  0  0
  7  5  1  0  0  0  0
  7  8  2  0  0  0  0
  8  9  1  0  0  0  0
  9 10  1  0  0  0  0
  9 34  1  0  0  0  0
  9 35  1  0  0  0  0
 10 11  1  0  0  0  0
 11  7  1  0  0  0  0
 11 12  2  0  0  0  0
 13 36  1  0  0  0  0
 13 37  1  0  0  0  0
 13 38  1  0  0  0  0
 15  1  1  0  0  0  0
 15 17  1  0  0  0  0
 15 24  1  1  0  0  0
 16 18  1  0  0  0  0
 16 15  1  0  0  0  0
 16 17  1  0  0  0  0
 16 39  1  6  0  0  0
 18 20  1  0  0  0  0
 18 40  1  6  0  0  0
 19 22  1  0  0  0  0
 19 18  1  0  0  0  0
 19 20  1  6  0  0  0
 19  3  1  0  0  0  0
 21 23  1  0  0  0  0
 21  2  1  0  0  0  0
 21 41  1  1  0  0  0
 22  1  1  1  0  0  0
 22 21  1  0  0  0  0
 22 23  1  0  0  0  0
 24 25  1  0  0  0  0
 24 26  1  0  0  0  0
 24 42  1  0  0  0  0
 25 43  1  0  0  0  0
 25 44  1  0  0  0  0
 25 45  1  0  0  0  0
 26 46  1  0  0  0  0
 26 47  1  0  0  0  0
 26 48  1  0  0  0  0
M  END
>  <Mol_ID>
4263

>  <Formula>
C20H22O6

>  <MolWeight>
358.38508

>  <Cat>
S9416

>  <Name>
Triptonide

>  <Target>
Wnt/beta-catenin

>  <Form>
free base

>  <CAS>
38647-11-9

>  <URL>
https://www.selleckchem.com/products/triptonide.html

$$$$
