S9412 Flavokawain B.cdx
 OpenBabel08302520453D

 37 38  0  0  0  0  0  0  0  0999 V2000
    0.1532   -1.3535    0.0475 C   0  0  0  0  0  0  0  0  0  0  0  0
    0.8772   -0.1453    0.0422 C   0  0  0  0  0  0  0  0  0  0  0  0
   -1.2630   -1.2631    0.0495 C   0  0  0  0  0  0  0  0  0  0  0  0
    0.7748   -2.7019   -0.0858 C   0  0  0  0  0  0  0  0  0  0  0  0
    0.1632    1.0753    0.0502 C   0  0  0  0  0  0  0  0  0  0  0  0
    2.2132    0.1345    0.0272 O   0  0  0  0  0  0  0  0  0  0  0  0
   -1.9435   -0.0415    0.0937 C   0  0  0  0  0  0  0  0  0  0  0  0
   -2.0992   -2.3501   -0.0537 O   0  0  0  0  0  0  0  0  0  0  0  0
    0.1707   -3.8534    0.6671 C   0  0  0  0  0  0  0  0  0  0  0  0
    1.6740   -2.9018   -0.8990 O   0  0  0  0  0  0  0  0  0  0  0  0
   -1.2290    1.1412    0.0733 C   0  0  0  0  0  0  0  0  0  0  0  0
    0.4232   -5.0989    0.2349 C   0  0  0  0  0  0  0  0  0  0  0  0
   -1.7480    2.4039    0.0546 O   0  0  0  0  0  0  0  0  0  0  0  0
   -0.3033   -6.3064    0.6697 C   0  0  0  0  0  0  0  0  0  0  0  0
   -3.1651    2.5193    0.0091 C   0  0  0  0  0  0  0  0  0  0  0  0
   -1.6674   -6.2734    0.9793 C   0  0  0  0  0  0  0  0  0  0  0  0
    0.3459   -7.5525    0.6334 C   0  0  0  0  0  0  0  0  0  0  0  0
   -2.3695   -7.4484    1.2634 C   0  0  0  0  0  0  0  0  0  0  0  0
   -0.3560   -8.7273    0.9205 C   0  0  0  0  0  0  0  0  0  0  0  0
   -1.7108   -8.6761    1.2367 C   0  0  0  0  0  0  0  0  0  0  0  0
    3.2186   -0.8545    0.1170 C   0  0  0  0  0  0  0  0  0  0  0  0
    0.7238    2.0097    0.0273 H   0  0  0  0  0  0  0  0  0  0  0  0
   -3.0295   -0.0547    0.1018 H   0  0  0  0  0  0  0  0  0  0  0  0
   -1.8062   -2.8780   -0.8203 H   0  0  0  0  0  0  0  0  0  0  0  0
   -0.5400   -3.6388    1.4513 H   0  0  0  0  0  0  0  0  0  0  0  0
    1.1515   -5.2692   -0.5570 H   0  0  0  0  0  0  0  0  0  0  0  0
   -3.5730    2.0557   -0.8957 H   0  0  0  0  0  0  0  0  0  0  0  0
   -3.6216    2.0972    0.9100 H   0  0  0  0  0  0  0  0  0  0  0  0
   -3.4128    3.5848   -0.0230 H   0  0  0  0  0  0  0  0  0  0  0  0
   -2.2206   -5.3341    0.9722 H   0  0  0  0  0  0  0  0  0  0  0  0
    1.3967   -7.6179    0.3672 H   0  0  0  0  0  0  0  0  0  0  0  0
   -3.4308   -7.4064    1.4891 H   0  0  0  0  0  0  0  0  0  0  0  0
    0.1562   -9.6861    0.8834 H   0  0  0  0  0  0  0  0  0  0  0  0
   -2.2579   -9.5915    1.4469 H   0  0  0  0  0  0  0  0  0  0  0  0
    3.0512   -1.5421    0.9478 H   0  0  0  0  0  0  0  0  0  0  0  0
    3.3528   -1.3579   -0.8412 H   0  0  0  0  0  0  0  0  0  0  0  0
    4.1619   -0.3295    0.3136 H   0  0  0  0  0  0  0  0  0  0  0  0
  1  2  2  0  0  0  0
  1  3  1  0  0  0  0
  1  4  1  0  0  0  0
  2  5  1  0  0  0  0
  2  6  1  0  0  0  0
  3  7  2  0  0  0  0
  3  8  1  0  0  0  0
  4  9  1  0  0  0  0
  4 10  2  0  0  0  0
  5 11  2  0  0  0  0
  5 22  1  0  0  0  0
  6 21  1  0  0  0  0
  7 11  1  0  0  0  0
  7 23  1  0  0  0  0
  8 24  1  0  0  0  0
  9 12  2  0  0  0  0
  9 25  1  0  0  0  0
 11 13  1  0  0  0  0
 12 14  1  0  0  0  0
 12 26  1  0  0  0  0
 13 15  1  0  0  0  0
 14 16  2  0  0  0  0
 14 17  1  0  0  0  0
 15 27  1  0  0  0  0
 15 28  1  0  0  0  0
 15 29  1  0  0  0  0
 16 18  1  0  0  0  0
 16 30  1  0  0  0  0
 17 19  2  0  0  0  0
 17 31  1  0  0  0  0
 18 20  2  0  0  0  0
 18 32  1  0  0  0  0
 19 20  1  0  0  0  0
 19 33  1  0  0  0  0
 20 34  1  0  0  0  0
 21 35  1  0  0  0  0
 21 36  1  0  0  0  0
 21 37  1  0  0  0  0
M  END
>  <Mol_ID>
4260

>  <Formula>
C17H16O4

>  <MolWeight>
284.30654

>  <Cat>
S9412

>  <Name>
Flavokawain B

>  <Target>
Others

>  <Form>
free base

>  <CAS>
1775-97-9

>  <URL>
https://www.selleckchem.com/products/flavokawain-b.html

$$$$
