S9425 Trifolirhizin.cdx
 OpenBabel08302521033D

 54 59  0  0  0  0  0  0  0  0999 V2000
    8.3372    6.7063    4.5945 C   0  0  2  0  0  0  0  0  0  0  0  0
    8.8999    7.7225    3.5764 C   0  0  2  0  0  0  0  0  0  0  0  0
    7.8433    5.4290    3.9617 C   0  0  0  0  0  0  0  0  0  0  0  0
    7.3307    7.3311    5.4221 O   0  0  0  0  0  0  0  0  0  0  0  0
    8.1835    8.9532    3.9980 C   0  0  0  0  0  0  0  0  0  0  0  0
    8.7196    7.2371    2.1469 C   0  0  0  0  0  0  0  0  0  0  0  0
    8.4041    5.0258    2.7465 C   0  0  0  0  0  0  0  0  0  0  0  0
    6.9391    4.5755    4.5998 C   0  0  0  0  0  0  0  0  0  0  0  0
    7.3913    8.6609    5.1110 C   0  0  0  0  0  0  0  0  0  0  0  0
    8.2485   10.2504    3.4979 C   0  0  0  0  0  0  0  0  0  0  0  0
    9.1874    5.8801    2.0113 O   0  0  0  0  0  0  0  0  0  0  0  0
    8.1948    3.7393    2.2560 C   0  0  0  0  0  0  0  0  0  0  0  0
    6.6638    3.3107    4.0698 C   0  0  0  0  0  0  0  0  0  0  0  0
    6.7018    9.6301    5.8249 C   0  0  0  0  0  0  0  0  0  0  0  0
    7.4955   11.1986    4.1681 C   0  0  0  0  0  0  0  0  0  0  0  0
    7.3267    2.8668    2.9256 C   0  0  0  0  0  0  0  0  0  0  0  0
    6.7743   10.8978    5.3147 C   0  0  0  0  0  0  0  0  0  0  0  0
    7.3325   12.5058    3.8136 O   0  0  0  0  0  0  0  0  0  0  0  0
    7.1794    1.6261    2.3679 O   0  0  0  0  0  0  0  0  0  0  0  0
    6.1289   11.9828    5.8226 O   0  0  0  0  0  0  0  0  0  0  0  0
    6.2435   12.8670    4.6932 C   0  0  0  0  0  0  0  0  0  0  0  0
    6.6637    0.5556    3.1950 C   0  0  2  0  0  0  0  0  0  0  0  0
    7.3757    0.4652    4.4309 O   0  0  0  0  0  0  0  0  0  0  0  0
    6.7831   -0.7219    2.3149 C   0  0  1  0  0  0  0  0  0  0  0  0
    7.0308   -0.7136    5.1780 C   0  0  1  0  0  0  0  0  0  0  0  0
    6.9811   -2.0396    3.0833 C   0  0  2  0  0  0  0  0  0  0  0  0
    5.5870   -0.8668    1.5139 O   0  0  0  0  0  0  0  0  0  0  0  0
    7.6582   -1.8924    4.4472 C   0  0  2  0  0  0  0  0  0  0  0  0
    7.5641   -0.5658    6.6023 C   0  0  0  0  0  0  0  0  0  0  0  0
    7.7619   -2.9796    2.3055 O   0  0  0  0  0  0  0  0  0  0  0  0
    7.5074   -3.1002    5.1936 O   0  0  0  0  0  0  0  0  0  0  0  0
    6.9437    0.5622    7.2282 O   0  0  0  0  0  0  0  0  0  0  0  0
    9.1435    6.4194    5.2822 H   0  0  0  0  0  0  0  0  0  0  0  0
    9.9732    7.8393    3.7772 H   0  0  0  0  0  0  0  0  0  0  0  0
    9.3117    7.8565    1.4621 H   0  0  0  0  0  0  0  0  0  0  0  0
    7.6785    7.3037    1.8000 H   0  0  0  0  0  0  0  0  0  0  0  0
    6.4508    4.8842    5.5219 H   0  0  0  0  0  0  0  0  0  0  0  0
    8.8383   10.5153    2.6282 H   0  0  0  0  0  0  0  0  0  0  0  0
    8.7095    3.4102    1.3570 H   0  0  0  0  0  0  0  0  0  0  0  0
    5.9408    2.6876    4.5883 H   0  0  0  0  0  0  0  0  0  0  0  0
    6.1275    9.3842    6.7084 H   0  0  0  0  0  0  0  0  0  0  0  0
    5.3040   12.8018    4.1277 H   0  0  0  0  0  0  0  0  0  0  0  0
    6.3701   13.8977    5.0406 H   0  0  0  0  0  0  0  0  0  0  0  0
    5.6045    0.7648    3.3949 H   0  0  0  0  0  0  0  0  0  0  0  0
    7.5947   -0.6015    1.5879 H   0  0  0  0  0  0  0  0  0  0  0  0
    5.9365   -0.8020    5.2268 H   0  0  0  0  0  0  0  0  0  0  0  0
    6.0124   -2.5360    3.2208 H   0  0  0  0  0  0  0  0  0  0  0  0
    5.4917   -0.0629    0.9723 H   0  0  0  0  0  0  0  0  0  0  0  0
    8.7345   -1.7266    4.3059 H   0  0  0  0  0  0  0  0  0  0  0  0
    7.3239   -1.4491    7.2043 H   0  0  0  0  0  0  0  0  0  0  0  0
    8.6445   -0.4027    6.6145 H   0  0  0  0  0  0  0  0  0  0  0  0
    8.5979   -2.5514    2.0559 H   0  0  0  0  0  0  0  0  0  0  0  0
    7.4748   -3.8323    4.5464 H   0  0  0  0  0  0  0  0  0  0  0  0
    7.1583    1.3232    6.6586 H   0  0  0  0  0  0  0  0  0  0  0  0
  1  2  1  0  0  0  0
  1  3  1  0  0  0  0
  1  4  1  0  0  0  0
  1 33  1  1  0  0  0
  2  5  1  0  0  0  0
  2  6  1  0  0  0  0
  2 34  1  1  0  0  0
  3  7  2  0  0  0  0
  3  8  1  0  0  0  0
  4  9  1  0  0  0  0
  5 10  2  0  0  0  0
  5  9  1  0  0  0  0
  6 11  1  0  0  0  0
  6 35  1  0  0  0  0
  6 36  1  0  0  0  0
  7 12  1  0  0  0  0
  7 11  1  0  0  0  0
  8 13  2  0  0  0  0
  8 37  1  0  0  0  0
  9 14  2  0  0  0  0
 10 15  1  0  0  0  0
 10 38  1  0  0  0  0
 12 16  2  0  0  0  0
 12 39  1  0  0  0  0
 13 16  1  0  0  0  0
 13 40  1  0  0  0  0
 14 17  1  0  0  0  0
 14 41  1  0  0  0  0
 15 18  1  0  0  0  0
 15 17  2  0  0  0  0
 16 19  1  0  0  0  0
 17 20  1  0  0  0  0
 18 21  1  0  0  0  0
 20 21  1  0  0  0  0
 21 42  1  0  0  0  0
 21 43  1  0  0  0  0
 22 23  1  0  0  0  0
 22 24  1  0  0  0  0
 22 44  1  1  0  0  0
 22 19  1  0  0  0  0
 23 25  1  0  0  0  0
 24 26  1  0  0  0  0
 24 27  1  0  0  0  0
 24 45  1  6  0  0  0
 25 28  1  0  0  0  0
 25 29  1  0  0  0  0
 25 46  1  1  0  0  0
 26 30  1  0  0  0  0
 26 28  1  0  0  0  0
 26 47  1  1  0  0  0
 27 48  1  0  0  0  0
 28 31  1  0  0  0  0
 28 49  1  6  0  0  0
 29 32  1  0  0  0  0
 29 50  1  0  0  0  0
 29 51  1  0  0  0  0
 30 52  1  0  0  0  0
 31 53  1  0  0  0  0
 32 54  1  0  0  0  0
M  END
>  <Mol_ID>
4271

>  <Formula>
C22H22O10

>  <MolWeight>
446.40408

>  <Cat>
S9425

>  <Name>
Trifolirhizin

>  <Target>
Immunology & Inflammation related

>  <Form>
free base

>  <CAS>
6807-83-6

>  <URL>
https://www.selleckchem.com/products/trifolirhizin.html

$$$$
