S9422 Diosbulbin B.cdx
 OpenBabel08302521252D

 45 50  0  0  0  0  0  0  0  0999 V2000
    5.9167    1.2507    0.0000 O   0  0  0  0  0  0  0  0  0  0  0  0
    6.5994    2.4327    0.0000 C   0  0  0  0  0  0  0  0  0  0  0  0
    5.7752    3.5221    0.0000 C   0  0  2  0  0  0  0  0  0  0  0  0
    4.5629    4.2224    0.0000 C   0  0  2  0  0  0  0  0  0  0  0  0
    3.3503    3.5225    0.0000 C   0  0  1  0  0  0  0  0  0  0  0  0
    3.3503    2.1224    0.0000 C   0  0  3  0  0  0  0  0  0  0  0  0
    4.5627    1.4223    0.0000 C   0  0  3  0  0  0  0  0  0  0  0  0
    0.0997    2.4357    0.0000 O   0  0  0  0  0  0  0  0  0  0  0  0
    0.9255    3.5227    0.0000 C   0  0  3  0  0  0  0  0  0  0  0  0
    2.1380    4.2225    0.0000 C   0  0  0  0  0  0  0  0  0  0  0  0
    2.1376    1.4226    0.0000 C   0  0  3  0  0  0  0  0  0  0  0  0
    0.7821    1.2535    0.0000 C   0  0  0  0  0  0  0  0  0  0  0  0
    6.8157    4.4590    0.0000 O   0  0  0  0  0  0  0  0  0  0  0  0
    4.8541    5.5917    0.0000 C   0  0  0  0  0  0  0  0  0  0  0  0
    6.2465    5.7379    0.0000 C   0  0  3  0  0  0  0  0  0  0  0  0
    5.7751    2.1222    0.0000 C   0  0  0  0  0  0  0  0  0  0  0  0
    0.9253    2.1226    0.0000 C   0  0  0  0  0  0  0  0  0  0  0  0
    7.9967    2.5194    0.0000 O   0  0  0  0  0  0  0  0  0  0  0  0
    0.1586    0.0000    0.0000 O   0  0  0  0  0  0  0  0  0  0  0  0
    4.0807    5.9323    0.0000 C   0  0  0  0  0  0  0  0  0  0  0  0
    8.6302    8.4661    0.0000 O   0  0  0  0  0  0  0  0  0  0  0  0
    8.3390    7.0966    0.0000 C   0  0  0  0  0  0  0  0  0  0  0  0
    6.9466    6.9504    0.0000 C   0  0  0  0  0  0  0  0  0  0  0  0
    6.3772    8.2294    0.0000 C   0  0  0  0  0  0  0  0  0  0  0  0
    7.4177    9.1660    0.0000 C   0  0  0  0  0  0  0  0  0  0  0  0
    3.3504    4.5925    0.0000 H   0  0  0  0  0  0  0  0  0  0  0  0
    4.2770    2.6574    0.0000 H   0  0  0  0  0  0  0  0  0  0  0  0
    4.9042    2.4363    0.0000 H   0  0  0  0  0  0  0  0  0  0  0  0
    1.6329    2.7199    0.0000 H   0  0  0  0  0  0  0  0  0  0  0  0
    2.1381    5.2925    0.0000 H   0  0  0  0  0  0  0  0  0  0  0  0
    1.2114    4.7576    0.0000 H   0  0  0  0  0  0  0  0  0  0  0  0
    1.7972    2.4370    0.0000 H   0  0  0  0  0  0  0  0  0  0  0  0
    4.1382    6.3869    0.0000 H   0  0  0  0  0  0  0  0  0  0  0  0
    5.2377    6.5906    0.0000 H   0  0  0  0  0  0  0  0  0  0  0  0
    5.7114    4.8113    0.0000 H   0  0  0  0  0  0  0  0  0  0  0  0
    6.7017    1.5871    0.0000 H   0  0  0  0  0  0  0  0  0  0  0  0
    5.7750    1.0522    0.0000 H   0  0  0  0  0  0  0  0  0  0  0  0
   -0.0014    1.5877    0.0000 H   0  0  0  0  0  0  0  0  0  0  0  0
    0.9252    1.0526    0.0000 H   0  0  0  0  0  0  0  0  0  0  0  0
    4.8274    6.6987    0.0000 H   0  0  0  0  0  0  0  0  0  0  0  0
    3.0436    6.1957    0.0000 H   0  0  0  0  0  0  0  0  0  0  0  0
    3.7903    6.9621    0.0000 H   0  0  0  0  0  0  0  0  0  0  0  0
    9.0295    6.3296    0.0000 H   0  0  0  0  0  0  0  0  0  0  0  0
    5.3678    8.4441    0.0000 H   0  0  0  0  0  0  0  0  0  0  0  0
    7.3099   10.1923    0.0000 H   0  0  0  0  0  0  0  0  0  0  0  0
  1  2  1  0  0  0  0
  2 18  2  0  0  0  0
  3  2  1  6  0  0  0
  3  4  1  0  0  0  0
  3 13  1  0  0  0  0
  3 16  1  0  0  0  0
  4  5  1  0  0  0  0
  4 14  1  0  0  0  0
  4 20  1  1  0  0  0
  5  6  1  0  0  0  0
  5 10  1  0  0  0  0
  5 26  1  6  0  0  0
  6  7  1  0  0  0  0
  6 11  1  0  0  0  0
  6 27  1  0  0  0  0
  7  1  1  0  0  0  0
  7 16  1  0  0  0  0
  7 28  1  0  0  0  0
  8  9  1  0  0  0  0
  8 12  1  0  0  0  0
  9 10  1  0  0  0  0
  9 17  1  0  0  0  0
  9 29  1  0  0  0  0
 10 30  1  0  0  0  0
 10 31  1  0  0  0  0
 11 12  1  0  0  0  0
 11 17  1  0  0  0  0
 11 32  1  0  0  0  0
 12 19  2  0  0  0  0
 13 15  1  0  0  0  0
 14 15  1  0  0  0  0
 14 33  1  0  0  0  0
 14 34  1  0  0  0  0
 15 23  1  0  0  0  0
 15 35  1  0  0  0  0
 16 36  1  0  0  0  0
 16 37  1  0  0  0  0
 17 38  1  0  0  0  0
 17 39  1  0  0  0  0
 20 40  1  0  0  0  0
 20 41  1  0  0  0  0
 20 42  1  0  0  0  0
 21 22  1  0  0  0  0
 21 25  1  0  0  0  0
 22 23  2  0  0  0  0
 22 43  1  0  0  0  0
 23 24  1  0  0  0  0
 24 25  2  0  0  0  0
 24 44  1  0  0  0  0
 25 45  1  0  0  0  0
M  END
>  <Mol_ID>
4268

>  <Formula>
C19H20O6

>  <MolWeight>
344.3585

>  <Cat>
S9422

>  <Name>
Diosbulbin B

>  <Target>
Others

>  <Form>
free base

>  <CAS>
20086-06-0

>  <URL>
https://www.selleckchem.com/products/diosbulbin-b.html

$$$$
