S9421 Demethylnobiletin.cdx
 OpenBabel08302520453D

 48 50  0  0  0  0  0  0  0  0999 V2000
    0.0294    0.3176    0.0168 C   0  0  0  0  0  0  0  0  0  0  0  0
   -0.1260   -1.0716    0.0505 C   0  0  0  0  0  0  0  0  0  0  0  0
    1.3262    0.8789   -0.0524 C   0  0  0  0  0  0  0  0  0  0  0  0
   -1.3635   -1.6605    0.0215 O   0  0  0  0  0  0  0  0  0  0  0  0
   -1.1958    1.1539    0.0945 C   0  0  0  0  0  0  0  0  0  0  0  0
    0.9996   -1.9089    0.0632 C   0  0  0  0  0  0  0  0  0  0  0  0
   -2.4915   -0.8838    0.0516 C   0  0  0  0  0  0  0  0  0  0  0  0
    2.4754    0.0662   -0.0225 C   0  0  0  0  0  0  0  0  0  0  0  0
    2.3033   -1.3404    0.0252 C   0  0  0  0  0  0  0  0  0  0  0  0
   -2.4904    0.4468    0.0801 C   0  0  0  0  0  0  0  0  0  0  0  0
   -3.7418   -1.6460   -0.0088 C   0  0  0  0  0  0  0  0  0  0  0  0
   -4.2520   -2.0332   -1.2504 C   0  0  0  0  0  0  0  0  0  0  0  0
   -5.4598   -2.7400   -1.3615 C   0  0  0  0  0  0  0  0  0  0  0  0
   -1.1946    2.3735    0.2036 O   0  0  0  0  0  0  0  0  0  0  0  0
   -6.1649   -3.0681   -0.1908 C   0  0  0  0  0  0  0  0  0  0  0  0
   -4.4261   -2.0035    1.1569 C   0  0  0  0  0  0  0  0  0  0  0  0
   -5.6310   -2.7024    1.0580 C   0  0  0  0  0  0  0  0  0  0  0  0
    1.4301    2.2310   -0.2411 O   0  0  0  0  0  0  0  0  0  0  0  0
    0.9527   -3.2880    0.0407 O   0  0  0  0  0  0  0  0  0  0  0  0
    3.7695    0.5013   -0.0484 O   0  0  0  0  0  0  0  0  0  0  0  0
    3.3034   -2.2925    0.0375 O   0  0  0  0  0  0  0  0  0  0  0  0
   -5.9756   -3.1351   -2.5696 O   0  0  0  0  0  0  0  0  0  0  0  0
   -7.3627   -3.7235   -0.0639 O   0  0  0  0  0  0  0  0  0  0  0  0
   -0.1514   -3.9448    0.6531 C   0  0  0  0  0  0  0  0  0  0  0  0
    4.1548    1.8610   -0.0916 C   0  0  0  0  0  0  0  0  0  0  0  0
    4.6687   -1.9156   -0.0467 C   0  0  0  0  0  0  0  0  0  0  0  0
   -5.2725   -2.7832   -3.7552 C   0  0  0  0  0  0  0  0  0  0  0  0
   -8.0583   -4.1146   -1.2359 C   0  0  0  0  0  0  0  0  0  0  0  0
   -3.3848    1.0586    0.0981 H   0  0  0  0  0  0  0  0  0  0  0  0
   -3.6783   -1.7624   -2.1331 H   0  0  0  0  0  0  0  0  0  0  0  0
   -4.0401   -1.7429    2.1353 H   0  0  0  0  0  0  0  0  0  0  0  0
   -6.1677   -2.9736    1.9653 H   0  0  0  0  0  0  0  0  0  0  0  0
    1.9046    2.6099    0.5148 H   0  0  0  0  0  0  0  0  0  0  0  0
   -0.3438   -3.5631    1.6600 H   0  0  0  0  0  0  0  0  0  0  0  0
   -1.0473   -3.8981    0.0243 H   0  0  0  0  0  0  0  0  0  0  0  0
    0.0940   -5.0085    0.7368 H   0  0  0  0  0  0  0  0  0  0  0  0
    3.7640    2.3693   -0.9764 H   0  0  0  0  0  0  0  0  0  0  0  0
    3.8911    2.3741    0.8376 H   0  0  0  0  0  0  0  0  0  0  0  0
    5.2479    1.8851   -0.1621 H   0  0  0  0  0  0  0  0  0  0  0  0
    4.8839   -1.3769   -0.9754 H   0  0  0  0  0  0  0  0  0  0  0  0
    4.9790   -1.3555    0.8413 H   0  0  0  0  0  0  0  0  0  0  0  0
    5.2669   -2.8318   -0.0681 H   0  0  0  0  0  0  0  0  0  0  0  0
   -5.2072   -1.6961   -3.8703 H   0  0  0  0  0  0  0  0  0  0  0  0
   -4.2796   -3.2439   -3.7781 H   0  0  0  0  0  0  0  0  0  0  0  0
   -5.8382   -3.1728   -4.6070 H   0  0  0  0  0  0  0  0  0  0  0  0
   -8.2885   -3.2551   -1.8783 H   0  0  0  0  0  0  0  0  0  0  0  0
   -7.5155   -4.8965   -1.7748 H   0  0  0  0  0  0  0  0  0  0  0  0
   -9.0186   -4.5408   -0.9270 H   0  0  0  0  0  0  0  0  0  0  0  0
  2  1  1  0  0  0  0
  3  1  2  0  0  0  0
  4  2  1  0  0  0  0
  5  1  1  0  0  0  0
  6  2  2  0  0  0  0
  7  4  1  0  0  0  0
  7 10  2  0  0  0  0
  8  3  1  0  0  0  0
  9  6  1  0  0  0  0
  9  8  2  0  0  0  0
 10  5  1  0  0  0  0
 10 29  1  0  0  0  0
 11  7  1  0  0  0  0
 12 11  2  0  0  0  0
 12 30  1  0  0  0  0
 13 12  1  0  0  0  0
 13 15  2  0  0  0  0
 14  5  2  0  0  0  0
 15 17  1  0  0  0  0
 16 11  1  0  0  0  0
 16 31  1  0  0  0  0
 17 16  2  0  0  0  0
 17 32  1  0  0  0  0
 18  3  1  0  0  0  0
 18 33  1  0  0  0  0
 19  6  1  0  0  0  0
 20  8  1  0  0  0  0
 21  9  1  0  0  0  0
 22 13  1  0  0  0  0
 23 15  1  0  0  0  0
 24 19  1  0  0  0  0
 24 34  1  0  0  0  0
 24 35  1  0  0  0  0
 24 36  1  0  0  0  0
 25 20  1  0  0  0  0
 25 37  1  0  0  0  0
 25 38  1  0  0  0  0
 25 39  1  0  0  0  0
 26 21  1  0  0  0  0
 26 40  1  0  0  0  0
 26 41  1  0  0  0  0
 26 42  1  0  0  0  0
 27 22  1  0  0  0  0
 27 43  1  0  0  0  0
 27 44  1  0  0  0  0
 27 45  1  0  0  0  0
 28 23  1  0  0  0  0
 28 46  1  0  0  0  0
 28 47  1  0  0  0  0
 28 48  1  0  0  0  0
M  END
>  <Mol_ID>
4267

>  <Formula>
C20H20O8

>  <MolWeight>
388.368

>  <Cat>
S9421

>  <Name>
Demethylnobiletin

>  <Synonyms>
5-Demethylnobiletin

>  <Target>
Leukotriene,Lipoxygenase

>  <Form>
free base

>  <CAS>
2174-59-6

>  <URL>
https://www.selleckchem.com/products/demethylnobiletin.html

$$$$
