S9436 Pinoresinol dimethyl ether.cdx
 OpenBabel08302521033D

 54 57  0  0  0  0  0  0  0  0999 V2000
   -2.0866    0.0148    0.1383 O   0  0  0  0  0  0  0  0  0  0  0  0
   -1.2029    1.1396    0.2565 C   0  0  1  0  0  0  0  0  0  0  0  0
    0.0217    0.7582   -0.5741 C   0  0  2  0  0  0  0  0  0  0  0  0
   -0.0325   -0.7544   -0.6902 C   0  0  2  0  0  0  0  0  0  0  0  0
   -1.2186   -1.1291    0.1858 C   0  0  0  0  0  0  0  0  0  0  0  0
    1.3121   -1.2482   -0.1653 C   0  0  2  0  0  0  0  0  0  0  0  0
    1.3140    1.0551    0.1496 C   0  0  0  0  0  0  0  0  0  0  0  0
    1.7528   -0.1892    0.7146 O   0  0  0  0  0  0  0  0  0  0  0  0
   -1.8045    2.4513   -0.1915 C   0  0  0  0  0  0  0  0  0  0  0  0
   -2.7526    2.5298   -1.2107 C   0  0  0  0  0  0  0  0  0  0  0  0
   -3.2092    3.7765   -1.6438 C   0  0  0  0  0  0  0  0  0  0  0  0
   -2.7384    4.9643   -1.0651 C   0  0  0  0  0  0  0  0  0  0  0  0
   -1.7762    4.9060   -0.0442 C   0  0  0  0  0  0  0  0  0  0  0  0
   -1.3267    3.6467    0.3797 C   0  0  0  0  0  0  0  0  0  0  0  0
    2.3397   -1.5066   -1.2613 C   0  0  0  0  0  0  0  0  0  0  0  0
    3.5654   -0.8331   -1.2908 C   0  0  0  0  0  0  0  0  0  0  0  0
    4.4589   -1.0068   -2.3473 C   0  0  0  0  0  0  0  0  0  0  0  0
    4.1731   -1.8887   -3.3943 C   0  0  0  0  0  0  0  0  0  0  0  0
    2.9990   -2.6551   -3.3314 C   0  0  0  0  0  0  0  0  0  0  0  0
    2.0931   -2.4474   -2.2732 C   0  0  0  0  0  0  0  0  0  0  0  0
   -1.2849    6.0849    0.4511 O   0  0  0  0  0  0  0  0  0  0  0  0
   -0.2754    6.0247    1.4500 C   0  0  0  0  0  0  0  0  0  0  0  0
   -3.2620    6.0940   -1.6417 O   0  0  0  0  0  0  0  0  0  0  0  0
   -3.4326    7.2257   -0.7979 C   0  0  0  0  0  0  0  0  0  0  0  0
    2.5529   -3.5848   -4.2368 O   0  0  0  0  0  0  0  0  0  0  0  0
    5.0259   -2.0373   -4.4562 O   0  0  0  0  0  0  0  0  0  0  0  0
    5.7598   -0.8735   -4.8301 C   0  0  0  0  0  0  0  0  0  0  0  0
    3.5215   -4.2159   -5.0642 C   0  0  0  0  0  0  0  0  0  0  0  0
   -0.9617    1.2190    1.3255 H   0  0  0  0  0  0  0  0  0  0  0  0
    0.0145    1.2316   -1.5636 H   0  0  0  0  0  0  0  0  0  0  0  0
   -0.2502   -1.0668   -1.7175 H   0  0  0  0  0  0  0  0  0  0  0  0
   -0.9389   -1.3097    1.2320 H   0  0  0  0  0  0  0  0  0  0  0  0
   -1.7537   -2.0078   -0.1835 H   0  0  0  0  0  0  0  0  0  0  0  0
    1.2212   -2.1636    0.4318 H   0  0  0  0  0  0  0  0  0  0  0  0
    2.0733    1.4152   -0.5530 H   0  0  0  0  0  0  0  0  0  0  0  0
    1.2297    1.8030    0.9433 H   0  0  0  0  0  0  0  0  0  0  0  0
   -3.1319    1.6257   -1.6818 H   0  0  0  0  0  0  0  0  0  0  0  0
   -3.9436    3.8280   -2.4453 H   0  0  0  0  0  0  0  0  0  0  0  0
   -0.5786    3.5657    1.1623 H   0  0  0  0  0  0  0  0  0  0  0  0
    3.8385   -0.1400   -0.4982 H   0  0  0  0  0  0  0  0  0  0  0  0
    5.3776   -0.4318   -2.3199 H   0  0  0  0  0  0  0  0  0  0  0  0
    1.1779   -3.0380   -2.2559 H   0  0  0  0  0  0  0  0  0  0  0  0
   -0.6506    5.5435    2.3592 H   0  0  0  0  0  0  0  0  0  0  0  0
    0.6232    5.5224    1.0762 H   0  0  0  0  0  0  0  0  0  0  0  0
    0.0033    7.0506    1.7079 H   0  0  0  0  0  0  0  0  0  0  0  0
   -3.8591    6.9536    0.1737 H   0  0  0  0  0  0  0  0  0  0  0  0
   -2.4946    7.7769   -0.6872 H   0  0  0  0  0  0  0  0  0  0  0  0
   -4.1389    7.9021   -1.2903 H   0  0  0  0  0  0  0  0  0  0  0  0
    5.0994   -0.0075   -4.9581 H   0  0  0  0  0  0  0  0  0  0  0  0
    6.5566   -0.6589   -4.1115 H   0  0  0  0  0  0  0  0  0  0  0  0
    6.2385   -1.0752   -5.7935 H   0  0  0  0  0  0  0  0  0  0  0  0
    3.8727   -3.5427   -5.8511 H   0  0  0  0  0  0  0  0  0  0  0  0
    4.3493   -4.6259   -4.4760 H   0  0  0  0  0  0  0  0  0  0  0  0
    3.0286   -5.0539   -5.5678 H   0  0  0  0  0  0  0  0  0  0  0  0
  1  2  1  0  0  0  0
  2  3  1  0  0  0  0
  2  9  1  0  0  0  0
  2 29  1  1  0  0  0
  3  4  1  0  0  0  0
  3  7  1  0  0  0  0
  3 30  1  6  0  0  0
  4  5  1  0  0  0  0
  4  6  1  0  0  0  0
  4 31  1  6  0  0  0
  5  1  1  0  0  0  0
  5 32  1  0  0  0  0
  5 33  1  0  0  0  0
  6 34  1  1  0  0  0
  6 15  1  0  0  0  0
  7  8  1  0  0  0  0
  7 35  1  0  0  0  0
  7 36  1  0  0  0  0
  8  6  1  0  0  0  0
  9 14  1  0  0  0  0
 10  9  2  0  0  0  0
 10 37  1  0  0  0  0
 11 10  1  0  0  0  0
 11 38  1  0  0  0  0
 12 11  2  0  0  0  0
 12 23  1  0  0  0  0
 13 12  1  0  0  0  0
 13 21  1  0  0  0  0
 14 13  2  0  0  0  0
 14 39  1  0  0  0  0
 15 20  1  0  0  0  0
 16 15  2  0  0  0  0
 16 40  1  0  0  0  0
 17 16  1  0  0  0  0
 17 41  1  0  0  0  0
 18 17  2  0  0  0  0
 18 26  1  0  0  0  0
 19 18  1  0  0  0  0
 19 25  1  0  0  0  0
 20 19  2  0  0  0  0
 20 42  1  0  0  0  0
 21 22  1  0  0  0  0
 22 43  1  0  0  0  0
 22 44  1  0  0  0  0
 22 45  1  0  0  0  0
 23 24  1  0  0  0  0
 24 46  1  0  0  0  0
 24 47  1  0  0  0  0
 24 48  1  0  0  0  0
 25 28  1  0  0  0  0
 26 27  1  0  0  0  0
 27 49  1  0  0  0  0
 27 50  1  0  0  0  0
 27 51  1  0  0  0  0
 28 52  1  0  0  0  0
 28 53  1  0  0  0  0
 28 54  1  0  0  0  0
M  END
>  <Mol_ID>
4279

>  <Formula>
C22H26O6

>  <MolWeight>
386.43824

>  <Cat>
S9436

>  <Name>
Pinoresinol dimethyl ether

>  <Target>
PDE

>  <Form>
free base

>  <CAS>
29106-36-3

>  <URL>
https://www.selleckchem.com/products/pinoresinol-dimethyl-ether.html

$$$$
