S9434 8-Gingerol.cdx
 OpenBabel08302521033D

 53 53  0  0  0  0  0  0  0  0999 V2000
   -4.9037    4.7276    3.1159 C   0  0  0  0  0  0  0  0  0  0  0  0
   -5.1470    5.2612    1.8376 C   0  0  0  0  0  0  0  0  0  0  0  0
   -3.7695    5.1699    3.8185 C   0  0  0  0  0  0  0  0  0  0  0  0
   -5.8767    3.8147    3.8404 C   0  0  0  0  0  0  0  0  0  0  0  0
   -4.2739    6.2073    1.2831 C   0  0  0  0  0  0  0  0  0  0  0  0
   -2.9130    6.1307    3.2840 C   0  0  0  0  0  0  0  0  0  0  0  0
   -6.8862    2.9602    3.0591 C   0  0  0  0  0  0  0  0  0  0  0  0
   -3.1821    6.6600    2.0335 C   0  0  0  0  0  0  0  0  0  0  0  0
   -4.4170    6.7920    0.0501 O   0  0  0  0  0  0  0  0  0  0  0  0
   -6.3054    1.8733    2.1709 C   0  0  0  0  0  0  0  0  0  0  0  0
   -2.3628    7.6404    1.5462 O   0  0  0  0  0  0  0  0  0  0  0  0
   -5.0742    5.9783   -0.9195 C   0  0  0  0  0  0  0  0  0  0  0  0
   -5.5015    0.7411    2.8053 C   0  0  0  0  0  0  0  0  0  0  0  0
   -6.5000    1.9191    0.9528 O   0  0  0  0  0  0  0  0  0  0  0  0
   -6.1433   -0.6483    2.6570 C   0  0  2  0  0  0  0  0  0  0  0  0
   -5.3739   -1.7930    3.3531 C   0  0  0  0  0  0  0  0  0  0  0  0
   -5.1164   -1.6311    4.8570 C   0  0  0  0  0  0  0  0  0  0  0  0
   -4.4523   -2.8892    5.4452 C   0  0  0  0  0  0  0  0  0  0  0  0
   -4.1530   -2.7690    6.9470 C   0  0  0  0  0  0  0  0  0  0  0  0
   -3.5210   -4.0575    7.4947 C   0  0  0  0  0  0  0  0  0  0  0  0
   -3.1870   -3.9544    8.9854 C   0  0  0  0  0  0  0  0  0  0  0  0
   -2.5559   -5.2383    9.5180 C   0  0  0  0  0  0  0  0  0  0  0  0
   -6.2406   -1.0226    1.2808 O   0  0  0  0  0  0  0  0  0  0  0  0
   -6.0387    4.9573    1.2878 H   0  0  0  0  0  0  0  0  0  0  0  0
   -3.5618    4.7924    4.8158 H   0  0  0  0  0  0  0  0  0  0  0  0
   -5.3055    3.1588    4.5058 H   0  0  0  0  0  0  0  0  0  0  0  0
   -6.4643    4.4777    4.4922 H   0  0  0  0  0  0  0  0  0  0  0  0
   -2.0552    6.4900    3.8494 H   0  0  0  0  0  0  0  0  0  0  0  0
   -7.5585    2.4675    3.7731 H   0  0  0  0  0  0  0  0  0  0  0  0
   -7.5254    3.6064    2.4450 H   0  0  0  0  0  0  0  0  0  0  0  0
   -2.7808    7.9267    0.7105 H   0  0  0  0  0  0  0  0  0  0  0  0
   -4.7365    4.9366   -0.8770 H   0  0  0  0  0  0  0  0  0  0  0  0
   -6.1583    6.0462   -0.7995 H   0  0  0  0  0  0  0  0  0  0  0  0
   -4.8159    6.3679   -1.9092 H   0  0  0  0  0  0  0  0  0  0  0  0
   -4.5113    0.7641    2.3365 H   0  0  0  0  0  0  0  0  0  0  0  0
   -5.3732    0.9710    3.8659 H   0  0  0  0  0  0  0  0  0  0  0  0
   -7.1681   -0.6206    3.0432 H   0  0  0  0  0  0  0  0  0  0  0  0
   -5.9440   -2.7232    3.1919 H   0  0  0  0  0  0  0  0  0  0  0  0
   -4.4201   -1.9610    2.8359 H   0  0  0  0  0  0  0  0  0  0  0  0
   -4.4611   -0.7704    5.0289 H   0  0  0  0  0  0  0  0  0  0  0  0
   -6.0628   -1.4374    5.3749 H   0  0  0  0  0  0  0  0  0  0  0  0
   -5.1036   -3.7554    5.2766 H   0  0  0  0  0  0  0  0  0  0  0  0
   -3.5143   -3.0850    4.9108 H   0  0  0  0  0  0  0  0  0  0  0  0
   -3.4725   -1.9266    7.1194 H   0  0  0  0  0  0  0  0  0  0  0  0
   -5.0798   -2.5554    7.4929 H   0  0  0  0  0  0  0  0  0  0  0  0
   -4.2144   -4.8951    7.3385 H   0  0  0  0  0  0  0  0  0  0  0  0
   -2.6087   -4.2886    6.9326 H   0  0  0  0  0  0  0  0  0  0  0  0
   -2.4946   -3.1218    9.1576 H   0  0  0  0  0  0  0  0  0  0  0  0
   -4.0990   -3.7415    9.5545 H   0  0  0  0  0  0  0  0  0  0  0  0
   -1.5663   -5.3950    9.0843 H   0  0  0  0  0  0  0  0  0  0  0  0
   -2.4485   -5.1839   10.6041 H   0  0  0  0  0  0  0  0  0  0  0  0
   -3.1780   -6.1098    9.2826 H   0  0  0  0  0  0  0  0  0  0  0  0
   -5.3795   -0.9000    0.8514 H   0  0  0  0  0  0  0  0  0  0  0  0
  1  2  2  0  0  0  0
  1  3  1  0  0  0  0
  1  4  1  0  0  0  0
  2  5  1  0  0  0  0
  2 24  1  0  0  0  0
  3  6  2  0  0  0  0
  3 25  1  0  0  0  0
  4  7  1  0  0  0  0
  4 26  1  0  0  0  0
  4 27  1  0  0  0  0
  5  8  2  0  0  0  0
  5  9  1  0  0  0  0
  6  8  1  0  0  0  0
  6 28  1  0  0  0  0
  7 10  1  0  0  0  0
  7 29  1  0  0  0  0
  7 30  1  0  0  0  0
  8 11  1  0  0  0  0
  9 12  1  0  0  0  0
 10 13  1  0  0  0  0
 10 14  2  0  0  0  0
 11 31  1  0  0  0  0
 12 32  1  0  0  0  0
 12 33  1  0  0  0  0
 12 34  1  0  0  0  0
 13 35  1  0  0  0  0
 13 36  1  0  0  0  0
 15 23  1  0  0  0  0
 15 37  1  1  0  0  0
 15 16  1  0  0  0  0
 15 13  1  0  0  0  0
 16 17  1  0  0  0  0
 16 38  1  0  0  0  0
 16 39  1  0  0  0  0
 17 18  1  0  0  0  0
 17 40  1  0  0  0  0
 17 41  1  0  0  0  0
 18 19  1  0  0  0  0
 18 42  1  0  0  0  0
 18 43  1  0  0  0  0
 19 20  1  0  0  0  0
 19 44  1  0  0  0  0
 19 45  1  0  0  0  0
 20 21  1  0  0  0  0
 20 46  1  0  0  0  0
 20 47  1  0  0  0  0
 21 22  1  0  0  0  0
 21 48  1  0  0  0  0
 21 49  1  0  0  0  0
 22 50  1  0  0  0  0
 22 51  1  0  0  0  0
 22 52  1  0  0  0  0
 23 53  1  0  0  0  0
M  END
>  <Mol_ID>
4277

>  <Formula>
C19H30O4

>  <MolWeight>
322.4391

>  <Cat>
S9434

>  <Name>
8-Gingerol

>  <Target>
Others

>  <Form>
free base

>  <CAS>
23513-08-8

>  <URL>
https://www.selleckchem.com/products/8-gingerol.html

$$$$
