S9438 Isosakuranetin.cdx
 OpenBabel08302521043D

 35 37  0  0  0  0  0  0  0  0999 V2000
    0.3851    0.2748   -0.0157 C   0  0  0  0  0  0  0  0  0  0  0  0
   -0.0668   -1.0454    0.0326 C   0  0  0  0  0  0  0  0  0  0  0  0
    1.8345    0.5210    0.0586 C   0  0  0  0  0  0  0  0  0  0  0  0
   -0.5336    1.3286   -0.0764 C   0  0  0  0  0  0  0  0  0  0  0  0
    0.7616   -2.1331    0.1168 O   0  0  0  0  0  0  0  0  0  0  0  0
   -1.4373   -1.3125    0.0412 C   0  0  0  0  0  0  0  0  0  0  0  0
    2.7022   -0.6611    0.3708 C   0  0  0  0  0  0  0  0  0  0  0  0
    2.2724    1.6630   -0.0584 O   0  0  0  0  0  0  0  0  0  0  0  0
   -1.8999    1.0642   -0.0744 C   0  0  0  0  0  0  0  0  0  0  0  0
   -0.1578    2.6439   -0.1199 O   0  0  0  0  0  0  0  0  0  0  0  0
    2.1104   -1.8845   -0.3159 C   0  0  1  0  0  0  0  0  0  0  0  0
   -2.3416   -0.2538   -0.0132 C   0  0  0  0  0  0  0  0  0  0  0  0
    2.9641   -3.1071   -0.0169 C   0  0  0  0  0  0  0  0  0  0  0  0
   -3.6879   -0.4710   -0.0031 O   0  0  0  0  0  0  0  0  0  0  0  0
    4.0690   -3.4062   -0.8274 C   0  0  0  0  0  0  0  0  0  0  0  0
    2.7103   -3.9290    1.0908 C   0  0  0  0  0  0  0  0  0  0  0  0
    4.8952   -4.5033   -0.5464 C   0  0  0  0  0  0  0  0  0  0  0  0
    3.5332   -5.0255    1.3640 C   0  0  0  0  0  0  0  0  0  0  0  0
    4.6290   -5.3204    0.5503 C   0  0  0  0  0  0  0  0  0  0  0  0
    5.3453   -6.4200    0.9325 O   0  0  0  0  0  0  0  0  0  0  0  0
    6.4862   -6.7508    0.1511 C   0  0  0  0  0  0  0  0  0  0  0  0
   -1.7798   -2.3417    0.0891 H   0  0  0  0  0  0  0  0  0  0  0  0
    2.7343   -0.7737    1.4608 H   0  0  0  0  0  0  0  0  0  0  0  0
    3.7162   -0.4623    0.0059 H   0  0  0  0  0  0  0  0  0  0  0  0
   -2.6155    1.8811   -0.1082 H   0  0  0  0  0  0  0  0  0  0  0  0
    0.8251    2.6847   -0.1184 H   0  0  0  0  0  0  0  0  0  0  0  0
    2.0785   -1.7448   -1.4062 H   0  0  0  0  0  0  0  0  0  0  0  0
   -3.8575   -1.4260    0.0541 H   0  0  0  0  0  0  0  0  0  0  0  0
    4.3042   -2.7840   -1.6892 H   0  0  0  0  0  0  0  0  0  0  0  0
    1.8707   -3.7275    1.7514 H   0  0  0  0  0  0  0  0  0  0  0  0
    5.7376   -4.6891   -1.2040 H   0  0  0  0  0  0  0  0  0  0  0  0
    3.3191   -5.6559    2.2243 H   0  0  0  0  0  0  0  0  0  0  0  0
    6.2146   -6.9414   -0.8924 H   0  0  0  0  0  0  0  0  0  0  0  0
    7.2504   -5.9700    0.2252 H   0  0  0  0  0  0  0  0  0  0  0  0
    6.9118   -7.6748    0.5549 H   0  0  0  0  0  0  0  0  0  0  0  0
  1  2  2  0  0  0  0
  1  3  1  0  0  0  0
  1  4  1  0  0  0  0
  2  5  1  0  0  0  0
  2  6  1  0  0  0  0
  3  7  1  0  0  0  0
  3  8  2  0  0  0  0
  4  9  2  0  0  0  0
  4 10  1  0  0  0  0
  5 11  1  0  0  0  0
  6 12  2  0  0  0  0
  6 22  1  0  0  0  0
  7 11  1  0  0  0  0
  7 23  1  0  0  0  0
  7 24  1  0  0  0  0
  9 12  1  0  0  0  0
  9 25  1  0  0  0  0
 10 26  1  0  0  0  0
 11 13  1  0  0  0  0
 11 27  1  6  0  0  0
 12 14  1  0  0  0  0
 13 15  2  0  0  0  0
 13 16  1  0  0  0  0
 14 28  1  0  0  0  0
 15 17  1  0  0  0  0
 15 29  1  0  0  0  0
 16 18  2  0  0  0  0
 16 30  1  0  0  0  0
 17 19  2  0  0  0  0
 17 31  1  0  0  0  0
 18 19  1  0  0  0  0
 18 32  1  0  0  0  0
 19 20  1  0  0  0  0
 20 21  1  0  0  0  0
 21 33  1  0  0  0  0
 21 34  1  0  0  0  0
 21 35  1  0  0  0  0
M  END
>  <Mol_ID>
4281

>  <Formula>
C16H14O5

>  <MolWeight>
286.27936

>  <Cat>
S9438

>  <Name>
Isosakuranetin

>  <Synonyms>
4'-Methylnaringenin

>  <Target>
Others

>  <Form>
free base

>  <CAS>
480-43-3

>  <URL>
https://www.selleckchem.com/products/isosakuranetin.html

$$$$
