S9431 Dehydrocorydalin.cdx
 OpenBabel08302521033D

 51 54  0  0  0  0  0  0  0  0999 V2000
    0.3931   -0.1882   -0.0886 C   0  0  0  0  0  0  0  0  0  0  0  0
    1.8623   -0.4524   -0.0848 C   0  0  0  0  0  0  0  0  0  0  0  0
    0.0552    1.1291   -0.2067 N   0  3  0  0  0  0  0  0  0  0  0  0
   -0.6675   -1.1252    0.0839 C   0  0  0  0  0  0  0  0  0  0  0  0
    2.7674    0.5444    0.2796 C   0  0  0  0  0  0  0  0  0  0  0  0
    2.4475   -1.6697   -0.4580 C   0  0  0  0  0  0  0  0  0  0  0  0
   -1.2332    1.5386   -0.2156 C   0  0  0  0  0  0  0  0  0  0  0  0
    1.0977    2.1823   -0.3840 C   0  0  0  0  0  0  0  0  0  0  0  0
   -2.0291   -0.6839    0.0327 C   0  0  0  0  0  0  0  0  0  0  0  0
   -0.3618   -2.5925    0.3110 C   0  0  0  0  0  0  0  0  0  0  0  0
    4.1390    0.2710    0.3688 C   0  0  0  0  0  0  0  0  0  0  0  0
    2.2594    1.9273    0.5544 C   0  0  0  0  0  0  0  0  0  0  0  0
    3.8335   -1.9877   -0.3630 C   0  0  0  0  0  0  0  0  0  0  0  0
   -2.3374    0.6983   -0.0877 C   0  0  0  0  0  0  0  0  0  0  0  0
   -3.1015   -1.5882    0.1004 C   0  0  0  0  0  0  0  0  0  0  0  0
    4.7013   -0.9918    0.0702 C   0  0  0  0  0  0  0  0  0  0  0  0
    3.9591   -3.2707   -0.7876 O   0  0  0  0  0  0  0  0  0  0  0  0
   -3.7151    1.1326   -0.0742 C   0  0  0  0  0  0  0  0  0  0  0  0
   -4.4259   -1.1729    0.1078 C   0  0  0  0  0  0  0  0  0  0  0  0
    6.0406   -0.8890    0.2575 O   0  0  0  0  0  0  0  0  0  0  0  0
    5.0623   -4.1207   -0.6043 C   0  0  0  0  0  0  0  0  0  0  0  0
   -4.7465    0.1765    0.0317 C   0  0  0  0  0  0  0  0  0  0  0  0
   -4.1865    2.4099   -0.1684 O   0  0  0  0  0  0  0  0  0  0  0  0
    6.9640   -1.9241    0.0420 C   0  0  0  0  0  0  0  0  0  0  0  0
   -6.1037    0.3558    0.0733 O   0  0  0  0  0  0  0  0  0  0  0  0
   -3.4502    3.6093   -0.2146 C   0  0  0  0  0  0  0  0  0  0  0  0
   -6.6710    1.6540    0.0167 C   0  0  0  0  0  0  0  0  0  0  0  0
    1.8253   -2.4624   -0.8690 H   0  0  0  0  0  0  0  0  0  0  0  0
   -1.3336    2.5982   -0.3484 H   0  0  0  0  0  0  0  0  0  0  0  0
    0.6638    3.1638   -0.1644 H   0  0  0  0  0  0  0  0  0  0  0  0
    1.3824    2.1533   -1.4427 H   0  0  0  0  0  0  0  0  0  0  0  0
   -0.2103   -3.0948   -0.6502 H   0  0  0  0  0  0  0  0  0  0  0  0
    0.5099   -2.7194    0.9569 H   0  0  0  0  0  0  0  0  0  0  0  0
   -1.1500   -3.1237    0.8459 H   0  0  0  0  0  0  0  0  0  0  0  0
    4.8201    1.0757    0.6585 H   0  0  0  0  0  0  0  0  0  0  0  0
    1.9495    2.0034    1.6017 H   0  0  0  0  0  0  0  0  0  0  0  0
    3.0365    2.6788    0.3687 H   0  0  0  0  0  0  0  0  0  0  0  0
   -2.9553   -2.6660    0.1432 H   0  0  0  0  0  0  0  0  0  0  0  0
   -5.2222   -1.9133    0.1768 H   0  0  0  0  0  0  0  0  0  0  0  0
    5.8181   -3.9227   -1.3645 H   0  0  0  0  0  0  0  0  0  0  0  0
    5.4423   -4.1072    0.4170 H   0  0  0  0  0  0  0  0  0  0  0  0
    4.7157   -5.1442   -0.7881 H   0  0  0  0  0  0  0  0  0  0  0  0
    6.8464   -2.7075    0.7913 H   0  0  0  0  0  0  0  0  0  0  0  0
    6.9305   -2.2784   -0.9871 H   0  0  0  0  0  0  0  0  0  0  0  0
    7.9657   -1.5090    0.1940 H   0  0  0  0  0  0  0  0  0  0  0  0
   -2.8057    3.7205    0.6619 H   0  0  0  0  0  0  0  0  0  0  0  0
   -2.9019    3.6899   -1.1574 H   0  0  0  0  0  0  0  0  0  0  0  0
   -4.1636    4.4392   -0.1932 H   0  0  0  0  0  0  0  0  0  0  0  0
   -6.3633    2.2621    0.8738 H   0  0  0  0  0  0  0  0  0  0  0  0
   -6.4504    2.1409   -0.9379 H   0  0  0  0  0  0  0  0  0  0  0  0
   -7.7583    1.5426    0.0766 H   0  0  0  0  0  0  0  0  0  0  0  0
  1  2  1  0  0  0  0
  1  3  1  0  0  0  0
  1  4  2  0  0  0  0
  2  5  2  0  0  0  0
  2  6  1  0  0  0  0
  3  7  2  0  0  0  0
  3  8  1  0  0  0  0
  4  9  1  0  0  0  0
  4 10  1  0  0  0  0
  5 11  1  0  0  0  0
  5 12  1  0  0  0  0
  6 13  2  0  0  0  0
  6 28  1  0  0  0  0
  7 14  1  0  0  0  0
  7 29  1  0  0  0  0
  8 12  1  0  0  0  0
  8 30  1  0  0  0  0
  8 31  1  0  0  0  0
  9 15  2  0  0  0  0
  9 14  1  0  0  0  0
 10 32  1  0  0  0  0
 10 33  1  0  0  0  0
 10 34  1  0  0  0  0
 11 16  2  0  0  0  0
 11 35  1  0  0  0  0
 12 36  1  0  0  0  0
 12 37  1  0  0  0  0
 13 17  1  0  0  0  0
 13 16  1  0  0  0  0
 14 18  2  0  0  0  0
 15 19  1  0  0  0  0
 15 38  1  0  0  0  0
 16 20  1  0  0  0  0
 17 21  1  0  0  0  0
 18 22  1  0  0  0  0
 18 23  1  0  0  0  0
 19 22  2  0  0  0  0
 19 39  1  0  0  0  0
 20 24  1  0  0  0  0
 21 40  1  0  0  0  0
 21 41  1  0  0  0  0
 21 42  1  0  0  0  0
 22 25  1  0  0  0  0
 23 26  1  0  0  0  0
 24 43  1  0  0  0  0
 24 44  1  0  0  0  0
 24 45  1  0  0  0  0
 25 27  1  0  0  0  0
 26 46  1  0  0  0  0
 26 47  1  0  0  0  0
 26 48  1  0  0  0  0
 27 49  1  0  0  0  0
 27 50  1  0  0  0  0
 27 51  1  0  0  0  0
M  CHG  1   3   1
M  END
>  <Mol_ID>
4275

>  <Formula>
C22H24NO4+

>  <MolWeight>
366.43026

>  <Cat>
S9431

>  <Name>
Dehydrocorydalin

>  <Target>
Immunology & Inflammation related

>  <Form>
free base

>  <CAS>
30045-16-0

>  <URL>
https://www.selleckchem.com/products/dehydrocorydalin.html

$$$$
