S9446 Dihydrokavain.cdx
 OpenBabel08302521043D

 33 34  0  0  0  0  0  0  0  0999 V2000
    0.9532    0.8387   -0.0323 C   0  0  1  0  0  0  0  0  0  0  0  0
    0.7032   -0.0746    1.1776 C   0  0  0  0  0  0  0  0  0  0  0  0
   -0.3024    1.1188   -0.6966 O   0  0  0  0  0  0  0  0  0  0  0  0
    1.6045    2.1871    0.3316 C   0  0  0  0  0  0  0  0  0  0  0  0
   -0.0425   -1.2890    0.6975 C   0  0  0  0  0  0  0  0  0  0  0  0
   -1.0963    0.0716   -1.0503 C   0  0  0  0  0  0  0  0  0  0  0  0
    3.0067    2.0084    0.9152 C   0  0  0  0  0  0  0  0  0  0  0  0
   -0.8430   -1.2139   -0.3720 C   0  0  0  0  0  0  0  0  0  0  0  0
    0.1953   -2.5187    1.2800 O   0  0  0  0  0  0  0  0  0  0  0  0
   -2.0095    0.1813   -1.8552 O   0  0  0  0  0  0  0  0  0  0  0  0
    3.7359    3.2825    1.2656 C   0  0  0  0  0  0  0  0  0  0  0  0
    0.2742   -2.5145    2.7000 C   0  0  0  0  0  0  0  0  0  0  0  0
    3.4956    3.9260    2.4872 C   0  0  0  0  0  0  0  0  0  0  0  0
    4.7470    3.7778    0.4286 C   0  0  0  0  0  0  0  0  0  0  0  0
    4.2972    4.9938    2.8967 C   0  0  0  0  0  0  0  0  0  0  0  0
    5.5466    4.8478    0.8376 C   0  0  0  0  0  0  0  0  0  0  0  0
    5.3336    5.4435    2.0803 C   0  0  0  0  0  0  0  0  0  0  0  0
    1.6018    0.3318   -0.7620 H   0  0  0  0  0  0  0  0  0  0  0  0
    1.6553   -0.3634    1.6243 H   0  0  0  0  0  0  0  0  0  0  0  0
    0.0978    0.4371    1.9312 H   0  0  0  0  0  0  0  0  0  0  0  0
    1.6554    2.8083   -0.5730 H   0  0  0  0  0  0  0  0  0  0  0  0
    0.9567    2.7393    1.0249 H   0  0  0  0  0  0  0  0  0  0  0  0
    2.9607    1.4038    1.8284 H   0  0  0  0  0  0  0  0  0  0  0  0
    3.6192    1.4312    0.2106 H   0  0  0  0  0  0  0  0  0  0  0  0
   -1.3677   -2.0741   -0.7597 H   0  0  0  0  0  0  0  0  0  0  0  0
    1.2405   -2.1231    3.0345 H   0  0  0  0  0  0  0  0  0  0  0  0
   -0.5485   -1.9464    3.1474 H   0  0  0  0  0  0  0  0  0  0  0  0
    0.1989   -3.5512    3.0442 H   0  0  0  0  0  0  0  0  0  0  0  0
    2.7114    3.5735    3.1502 H   0  0  0  0  0  0  0  0  0  0  0  0
    4.9457    3.3103   -0.5328 H   0  0  0  0  0  0  0  0  0  0  0  0
    4.1286    5.4646    3.8618 H   0  0  0  0  0  0  0  0  0  0  0  0
    6.3514    5.2010    0.1985 H   0  0  0  0  0  0  0  0  0  0  0  0
    5.9800    6.2541    2.4128 H   0  0  0  0  0  0  0  0  0  0  0  0
  1  2  1  0  0  0  0
  1  3  1  0  0  0  0
  1 18  1  6  0  0  0
  1  4  1  0  0  0  0
  2  5  1  0  0  0  0
  2 19  1  0  0  0  0
  2 20  1  0  0  0  0
  3  6  1  0  0  0  0
  4  7  1  0  0  0  0
  4 21  1  0  0  0  0
  4 22  1  0  0  0  0
  5  8  2  0  0  0  0
  5  9  1  0  0  0  0
  6 10  2  0  0  0  0
  6  8  1  0  0  0  0
  7 11  1  0  0  0  0
  7 23  1  0  0  0  0
  7 24  1  0  0  0  0
  8 25  1  0  0  0  0
  9 12  1  0  0  0  0
 11 13  2  0  0  0  0
 11 14  1  0  0  0  0
 12 26  1  0  0  0  0
 12 27  1  0  0  0  0
 12 28  1  0  0  0  0
 13 15  1  0  0  0  0
 13 29  1  0  0  0  0
 14 16  2  0  0  0  0
 14 30  1  0  0  0  0
 15 17  2  0  0  0  0
 15 31  1  0  0  0  0
 16 17  1  0  0  0  0
 16 32  1  0  0  0  0
 17 33  1  0  0  0  0
M  END
>  <Mol_ID>
4288

>  <Formula>
C14H16O3

>  <MolWeight>
232.27504

>  <Cat>
S9446

>  <Name>
Dihydrokavain

>  <Synonyms>
Marindinin

>  <Target>
Sodium Channel

>  <Form>
free base

>  <CAS>
587-63-3

>  <URL>
https://www.selleckchem.com/products/dihydrokavain.html

$$$$
