S9440 Naringenin chalcone.cdx
 OpenBabel08302521043D

 32 33  0  0  0  0  0  0  0  0999 V2000
    0.9881    0.1361    0.0481 C   0  0  0  0  0  0  0  0  0  0  0  0
    0.2203    1.4024   -0.0335 C   0  0  0  0  0  0  0  0  0  0  0  0
   -1.1211    1.4229    0.0453 C   0  0  0  0  0  0  0  0  0  0  0  0
    0.4530   -0.9527   -0.1729 O   0  0  0  0  0  0  0  0  0  0  0  0
    2.4501    0.1897    0.3273 C   0  0  0  0  0  0  0  0  0  0  0  0
    3.0636    1.1883    1.1026 C   0  0  0  0  0  0  0  0  0  0  0  0
    4.4448    1.1945    1.3192 C   0  0  0  0  0  0  0  0  0  0  0  0
    5.2242    0.1761    0.7859 C   0  0  0  0  0  0  0  0  0  0  0  0
    4.6460   -0.8362    0.0306 C   0  0  0  0  0  0  0  0  0  0  0  0
    3.2683   -0.8278   -0.1963 C   0  0  0  0  0  0  0  0  0  0  0  0
    2.7854   -1.8584   -0.9629 O   0  0  0  0  0  0  0  0  0  0  0  0
    6.5709    0.1299    0.9911 O   0  0  0  0  0  0  0  0  0  0  0  0
    2.3784    2.2022    1.7146 O   0  0  0  0  0  0  0  0  0  0  0  0
   -1.8927    2.6757    0.0200 C   0  0  0  0  0  0  0  0  0  0  0  0
   -1.4640    3.7947   -0.7121 C   0  0  0  0  0  0  0  0  0  0  0  0
   -2.1765    4.9960   -0.6758 C   0  0  0  0  0  0  0  0  0  0  0  0
   -3.3429    5.0746    0.0731 C   0  0  0  0  0  0  0  0  0  0  0  0
   -3.8107    3.9686    0.7724 C   0  0  0  0  0  0  0  0  0  0  0  0
   -3.0923    2.7682    0.7402 C   0  0  0  0  0  0  0  0  0  0  0  0
   -4.0619    6.2293    0.1441 O   0  0  0  0  0  0  0  0  0  0  0  0
    0.7970    2.3124   -0.1493 H   0  0  0  0  0  0  0  0  0  0  0  0
   -1.6851    0.4998    0.1820 H   0  0  0  0  0  0  0  0  0  0  0  0
    4.8881    1.9860    1.9160 H   0  0  0  0  0  0  0  0  0  0  0  0
    5.2626   -1.6318   -0.3778 H   0  0  0  0  0  0  0  0  0  0  0  0
    1.8040   -1.8381   -0.9292 H   0  0  0  0  0  0  0  0  0  0  0  0
    6.8420    0.9018    1.5151 H   0  0  0  0  0  0  0  0  0  0  0  0
    1.7981    1.8002    2.3875 H   0  0  0  0  0  0  0  0  0  0  0  0
   -0.5630    3.7507   -1.3189 H   0  0  0  0  0  0  0  0  0  0  0  0
   -1.8016    5.8499   -1.2316 H   0  0  0  0  0  0  0  0  0  0  0  0
   -4.7304    4.0425    1.3476 H   0  0  0  0  0  0  0  0  0  0  0  0
   -3.4730    1.9173    1.3005 H   0  0  0  0  0  0  0  0  0  0  0  0
   -3.6307    6.8987   -0.4127 H   0  0  0  0  0  0  0  0  0  0  0  0
  1  2  1  0  0  0  0
  1  4  2  0  0  0  0
  1  5  1  0  0  0  0
  2  3  2  0  0  0  0
  2 21  1  0  0  0  0
  3 14  1  0  0  0  0
  3 22  1  0  0  0  0
  5  6  2  0  0  0  0
  5 10  1  0  0  0  0
  6  7  1  0  0  0  0
  6 13  1  0  0  0  0
  7  8  2  0  0  0  0
  7 23  1  0  0  0  0
  8  9  1  0  0  0  0
  8 12  1  0  0  0  0
  9 10  2  0  0  0  0
  9 24  1  0  0  0  0
 10 11  1  0  0  0  0
 11 25  1  0  0  0  0
 12 26  1  0  0  0  0
 13 27  1  0  0  0  0
 14 15  2  0  0  0  0
 14 19  1  0  0  0  0
 15 16  1  0  0  0  0
 15 28  1  0  0  0  0
 16 17  2  0  0  0  0
 16 29  1  0  0  0  0
 17 18  1  0  0  0  0
 17 20  1  0  0  0  0
 18 19  2  0  0  0  0
 18 30  1  0  0  0  0
 19 31  1  0  0  0  0
 20 32  1  0  0  0  0
M  END
>  <Mol_ID>
4283

>  <Formula>
C15H12O5

>  <MolWeight>
272.25278

>  <Cat>
S9440

>  <Name>
Naringenin chalcone

>  <Synonyms>
Chalconaringenin, Isosalipurpol, trans-2'4'6'4-tetrahydroxychalcone

>  <Target>
Immunology & Inflammation related

>  <Form>
free base

>  <CAS>
73692-50-9

>  <URL>
https://www.selleckchem.com/products/naringenin-chalcone.html

$$$$
