S9453 2-Undecanol.cdx
 OpenBabel08302521223D

 36 35  0  0  0  0  0  0  0  0999 V2000
   -4.9481   -0.5672    0.1571 C   0  0  0  0  0  0  0  0  0  0  0  0
   -3.4282   -0.4632    0.0784 C   0  0  3  0  0  0  0  0  0  0  0  0
   -2.9988    0.4096   -1.1094 C   0  0  0  0  0  0  0  0  0  0  0  0
   -1.4755    0.5582   -1.2271 C   0  0  0  0  0  0  0  0  0  0  0  0
   -1.0385    1.3647   -2.4611 C   0  0  0  0  0  0  0  0  0  0  0  0
   -1.5477    2.8106   -2.4562 C   0  0  0  0  0  0  0  0  0  0  0  0
   -1.0556    3.5975   -3.6742 C   0  0  0  0  0  0  0  0  0  0  0  0
   -1.5958    5.0290   -3.6607 C   0  0  0  0  0  0  0  0  0  0  0  0
   -1.1202    5.8230   -4.8816 C   0  0  0  0  0  0  0  0  0  0  0  0
   -1.6667    7.2510   -4.8727 C   0  0  0  0  0  0  0  0  0  0  0  0
   -1.1904    8.0376   -6.0842 C   0  0  0  0  0  0  0  0  0  0  0  0
   -2.9259    0.0801    1.2966 O   0  0  0  0  0  0  0  0  0  0  0  0
   -5.4032    0.4224    0.2742 H   0  0  0  0  0  0  0  0  0  0  0  0
   -5.2469   -1.1557    1.0313 H   0  0  0  0  0  0  0  0  0  0  0  0
   -5.3606   -1.0349   -0.7407 H   0  0  0  0  0  0  0  0  0  0  0  0
   -3.0018   -1.4670   -0.0277 H   0  0  0  0  0  0  0  0  0  0  0  0
   -3.3957   -0.0208   -2.0364 H   0  0  0  0  0  0  0  0  0  0  0  0
   -3.4462    1.4016   -0.9845 H   0  0  0  0  0  0  0  0  0  0  0  0
   -1.0749    1.0344   -0.3274 H   0  0  0  0  0  0  0  0  0  0  0  0
   -1.0235   -0.4397   -1.2902 H   0  0  0  0  0  0  0  0  0  0  0  0
    0.0582    1.3708   -2.4938 H   0  0  0  0  0  0  0  0  0  0  0  0
   -1.3774    0.8556   -3.3707 H   0  0  0  0  0  0  0  0  0  0  0  0
   -2.6429    2.8215   -2.4584 H   0  0  0  0  0  0  0  0  0  0  0  0
   -1.2181    3.3104   -1.5376 H   0  0  0  0  0  0  0  0  0  0  0  0
    0.0422    3.6164   -3.6831 H   0  0  0  0  0  0  0  0  0  0  0  0
   -1.3783    3.0922   -4.5917 H   0  0  0  0  0  0  0  0  0  0  0  0
   -2.6927    5.0083   -3.6449 H   0  0  0  0  0  0  0  0  0  0  0  0
   -1.2682    5.5355   -2.7449 H   0  0  0  0  0  0  0  0  0  0  0  0
   -0.0225    5.8493   -4.8962 H   0  0  0  0  0  0  0  0  0  0  0  0
   -1.4428    5.3130   -5.7974 H   0  0  0  0  0  0  0  0  0  0  0  0
   -2.7628    7.2292   -4.8674 H   0  0  0  0  0  0  0  0  0  0  0  0
   -1.3484    7.7684   -3.9606 H   0  0  0  0  0  0  0  0  0  0  0  0
   -1.4942    7.5486   -7.0152 H   0  0  0  0  0  0  0  0  0  0  0  0
   -1.6190    9.0454   -6.0751 H   0  0  0  0  0  0  0  0  0  0  0  0
   -0.1006    8.1329   -6.0853 H   0  0  0  0  0  0  0  0  0  0  0  0
   -3.5906    0.6874    1.6627 H   0  0  0  0  0  0  0  0  0  0  0  0
  1  2  1  0  0  0  0
  1 13  1  0  0  0  0
  1 14  1  0  0  0  0
  1 15  1  0  0  0  0
  2  3  1  0  0  0  0
  2 12  1  0  0  0  0
  2 16  1  0  0  0  0
  3  4  1  0  0  0  0
  3 17  1  0  0  0  0
  3 18  1  0  0  0  0
  4  5  1  0  0  0  0
  4 19  1  0  0  0  0
  4 20  1  0  0  0  0
  5  6  1  0  0  0  0
  5 21  1  0  0  0  0
  5 22  1  0  0  0  0
  6  7  1  0  0  0  0
  6 23  1  0  0  0  0
  6 24  1  0  0  0  0
  7  8  1  0  0  0  0
  7 25  1  0  0  0  0
  7 26  1  0  0  0  0
  8  9  1  0  0  0  0
  8 27  1  0  0  0  0
  8 28  1  0  0  0  0
  9 10  1  0  0  0  0
  9 29  1  0  0  0  0
  9 30  1  0  0  0  0
 10 11  1  0  0  0  0
 10 31  1  0  0  0  0
 10 32  1  0  0  0  0
 11 33  1  0  0  0  0
 11 34  1  0  0  0  0
 11 35  1  0  0  0  0
 12 36  1  0  0  0  0
M  END
>  <Mol_ID>
4596

>  <Formula>
C11H24O

>  <MolWeight>
172.30766

>  <Cat>
S9453

>  <Name>
2-Undecanol

>  <Synonyms>
Methyl nonyl carbinol, 2-Hydroxyundecane, 2-Hendecanol

>  <Target>
Others

>  <Form>
free base

>  <CAS>
1653-30-1

>  <URL>
https://www.selleckchem.com/products/2-undecanol.html

$$$$
