Saccharin 1-methylimidazole (SMI).cdx
 OpenBabel08302520433D

 29 30  0  0  0  0  0  0  0  0999 V2000
    2.8324    0.4197   -1.1480 C   0  0  0  0  0  0  0  0  0  0  0  0
    2.8178   -1.1577   -0.2763 C   0  0  0  0  0  0  0  0  0  0  0  0
    1.4139   -1.8539    0.5465 C   0  0  0  0  0  0  0  0  0  0  0  0
   -0.0168   -0.8507    0.5436 C   0  0  0  0  0  0  0  0  0  0  0  0
   -0.0410    0.9612   -0.5693 C   0  0  0  0  0  0  0  0  0  0  0  0
    1.4351    1.4890   -1.3474 C   0  0  0  0  0  0  0  0  0  0  0  0
   -2.2201   -1.5874    0.2223 S   0  0  0  0  0  0  0  0  0  0  0  0
   -2.9261    0.1381   -0.7880 N   0  0  0  0  0  0  0  0  0  0  0  0
   -1.8972    1.2234   -1.1506 C   0  0  0  0  0  0  0  0  0  0  0  0
   -2.8417   -1.6409    1.5494 O   0  0  0  0  0  0  0  0  0  0  0  0
   -2.2288   -2.7842   -0.6314 O   0  0  0  0  0  0  0  0  0  0  0  0
   -1.9814    2.3796   -1.6391 O   0  5  0  0  0  0  0  0  0  0  0  0
    0.1242    0.9934    1.4856 N   0  3  0  0  0  0  0  0  0  0  0  0
    1.4131    0.4002    0.5614 C   0  0  0  0  0  0  0  0  0  0  0  0
    0.8126   -0.5809   -1.0870 C   0  0  0  0  0  0  0  0  0  0  0  0
   -0.9289   -0.5340   -0.9316 N   0  0  0  0  0  0  0  0  0  0  0  0
   -1.3138    0.4686    0.7194 C   0  0  0  0  0  0  0  0  0  0  0  0
    0.6280    2.2250    2.1505 C   0  0  0  0  0  0  0  0  0  0  0  0
    3.8020    0.8160   -1.4473 H   0  0  0  0  0  0  0  0  0  0  0  0
    3.7576   -1.7029   -0.2022 H   0  0  0  0  0  0  0  0  0  0  0  0
    1.3739   -2.8746    0.8934 H   0  0  0  0  0  0  0  0  0  0  0  0
    1.4531    2.4433   -1.8489 H   0  0  0  0  0  0  0  0  0  0  0  0
   -0.2887    1.7978    0.9769 H   0  0  0  0  0  0  0  0  0  0  0  0
    2.4037    0.5557    1.0052 H   0  0  0  0  0  0  0  0  0  0  0  0
    1.2602   -1.1028   -1.9307 H   0  0  0  0  0  0  0  0  0  0  0  0
   -2.3018    0.8173    1.1002 H   0  0  0  0  0  0  0  0  0  0  0  0
    1.2193    2.7843    1.3841 H   0  0  0  0  0  0  0  0  0  0  0  0
   -0.1295    2.9438    2.4661 H   0  0  0  0  0  0  0  0  0  0  0  0
    1.3979    2.0084    2.8935 H   0  0  0  0  0  0  0  0  0  0  0  0
  1  2  2  0  0  0  0
  1 19  1  0  0  0  0
  2  3  1  0  0  0  0
  2 20  1  0  0  0  0
  3  4  2  0  0  0  0
  3 21  1  0  0  0  0
  4  5  1  0  0  0  0
  4  7  1  0  0  0  0
  5  6  2  0  0  0  0
  6  1  1  0  0  0  0
  6 22  1  0  0  0  0
  7  8  1  0  0  0  0
  7 10  2  0  0  0  0
  7 11  2  0  0  0  0
  8  9  2  0  0  0  0
  9  5  1  0  0  0  0
  9 12  1  0  0  0  0
 13 14  1  0  0  0  0
 13 18  1  0  0  0  0
 13 23  1  0  0  0  0
 14 15  2  0  0  0  0
 14 24  1  0  0  0  0
 15 16  1  0  0  0  0
 15 25  1  0  0  0  0
 16 17  2  0  0  0  0
 17 13  1  0  0  0  0
 17 26  1  0  0  0  0
 18 27  1  0  0  0  0
 18 28  1  0  0  0  0
 18 29  1  0  0  0  0
M  CHG  2  12  -1  13   1
M  END
>  <Mol_ID>
4058

>  <Formula>
C11H11N3O3S

>  <MolWeight>
265.28834

>  <Cat>
S8326

>  <Name>
Saccharin 1-methylimidazole (SMI)

>  <Synonyms>
N/A

>  <Target>
DNA/RNA Synthesis

>  <Form>
free base

>  <CAS>
482333-74-4

>  <URL>
http://selleckchem.com/products/saccharin-1-methylimidazole-smi.html

$$$$
