Sacubitrilat
 OpenBabel08302521303D

 53 54  0  0  0  0  0  0  0  0999 V2000
   -1.8373    3.9087   -0.7365 O   0  0  0  0  0  0  0  0  0  0  0  0
   -3.4923    4.1332    0.7370 O   0  0  0  0  0  0  0  0  0  0  0  0
   -2.1775   -3.2191    0.5851 O   0  0  0  0  0  0  0  0  0  0  0  0
   -4.3914   -4.0865   -0.2262 O   0  0  0  0  0  0  0  0  0  0  0  0
   -6.3578   -3.0870   -0.5395 O   0  0  0  0  0  0  0  0  0  0  0  0
   -1.6560   -1.1819    1.2193 N   0  0  0  0  0  0  0  0  0  0  0  0
   -1.4841    0.1294    1.8718 C   0  0  1  0  0  0  0  0  0  0  0  0
   -2.0417    1.2501    0.9579 C   0  0  0  0  0  0  0  0  0  0  0  0
   -1.9689    0.2975    3.3204 C   0  0  0  0  0  0  0  0  0  0  0  0
   -1.6246    2.6922    1.3239 C   0  0  1  0  0  0  0  0  0  0  0  0
   -1.6587   -0.7059    4.3998 C   0  0  0  0  0  0  0  0  0  0  0  0
   -0.1191    2.9437    1.2255 C   0  0  0  0  0  0  0  0  0  0  0  0
   -2.4038    3.6577    0.4560 C   0  0  0  0  0  0  0  0  0  0  0  0
   -2.4899   -2.2364    1.2727 C   0  0  0  0  0  0  0  0  0  0  0  0
   -0.9962   -1.9263    4.2382 C   0  0  0  0  0  0  0  0  0  0  0  0
   -2.1651   -0.4027    5.6674 C   0  0  0  0  0  0  0  0  0  0  0  0
   -3.7663   -2.3245    2.0618 C   0  0  0  0  0  0  0  0  0  0  0  0
   -1.6084   -2.6340    6.5097 C   0  0  0  0  0  0  0  0  0  0  0  0
   -0.9964   -2.8858    5.2695 C   0  0  0  0  0  0  0  0  0  0  0  0
   -2.1185   -1.3366    6.6986 C   0  0  0  0  0  0  0  0  0  0  0  0
   -4.9878   -2.1442    1.1741 C   0  0  0  0  0  0  0  0  0  0  0  0
   -1.7494   -3.6484    7.5874 C   0  0  0  0  0  0  0  0  0  0  0  0
   -0.8680   -4.7306    7.7435 C   0  0  0  0  0  0  0  0  0  0  0  0
   -2.7968   -3.5521    8.5288 C   0  0  0  0  0  0  0  0  0  0  0  0
   -5.2964   -3.1444    0.0743 C   0  0  0  0  0  0  0  0  0  0  0  0
   -0.9895   -5.6170    8.8237 C   0  0  0  0  0  0  0  0  0  0  0  0
   -2.9137   -4.4191    9.6166 C   0  0  0  0  0  0  0  0  0  0  0  0
   -1.9939   -5.4466    9.7719 C   0  0  0  0  0  0  0  0  0  0  0  0
   -2.4763    4.5005   -1.1884 H   0  0  0  0  0  0  0  0  0  0  0  0
   -3.4884   -4.0020    0.1590 H   0  0  0  0  0  0  0  0  0  0  0  0
   -0.9145   -1.3934    0.5592 H   0  0  0  0  0  0  0  0  0  0  0  0
   -0.3924    0.2360    1.8945 H   0  0  0  0  0  0  0  0  0  0  0  0
   -3.1387    1.1861    0.9494 H   0  0  0  0  0  0  0  0  0  0  0  0
   -1.7336    1.0550   -0.0787 H   0  0  0  0  0  0  0  0  0  0  0  0
   -1.5727    1.2539    3.6883 H   0  0  0  0  0  0  0  0  0  0  0  0
   -3.0612    0.4137    3.2968 H   0  0  0  0  0  0  0  0  0  0  0  0
   -1.9242    2.9300    2.3516 H   0  0  0  0  0  0  0  0  0  0  0  0
    0.1084    4.0109    1.3362 H   0  0  0  0  0  0  0  0  0  0  0  0
    0.4236    2.4110    2.0125 H   0  0  0  0  0  0  0  0  0  0  0  0
    0.2825    2.6218    0.2586 H   0  0  0  0  0  0  0  0  0  0  0  0
   -0.5086   -2.1838    3.3023 H   0  0  0  0  0  0  0  0  0  0  0  0
   -2.6334    0.5595    5.8624 H   0  0  0  0  0  0  0  0  0  0  0  0
   -3.7899   -3.3137    2.5387 H   0  0  0  0  0  0  0  0  0  0  0  0
   -3.7938   -1.5962    2.8689 H   0  0  0  0  0  0  0  0  0  0  0  0
   -0.5351   -3.8496    5.0627 H   0  0  0  0  0  0  0  0  0  0  0  0
   -2.5235   -1.0352    7.6611 H   0  0  0  0  0  0  0  0  0  0  0  0
   -5.8634   -2.1812    1.8368 H   0  0  0  0  0  0  0  0  0  0  0  0
   -4.9565   -1.1528    0.7114 H   0  0  0  0  0  0  0  0  0  0  0  0
   -0.0555   -4.8945    7.0412 H   0  0  0  0  0  0  0  0  0  0  0  0
   -3.5616   -2.7779    8.4308 H   0  0  0  0  0  0  0  0  0  0  0  0
   -0.2846   -6.4373    8.9321 H   0  0  0  0  0  0  0  0  0  0  0  0
   -3.7128   -4.2801   10.3394 H   0  0  0  0  0  0  0  0  0  0  0  0
   -2.0654   -6.1113   10.6270 H   0  0  0  0  0  0  0  0  0  0  0  0
  1 13  1  0  0  0  0
  1 29  1  0  0  0  0
  2 13  2  0  0  0  0
  3 14  2  0  0  0  0
  4 25  1  0  0  0  0
  4 30  1  0  0  0  0
  5 25  2  0  0  0  0
  6 14  1  0  0  0  0
  6 31  1  0  0  0  0
  7  9  1  0  0  0  0
  7 32  1  1  0  0  0
  7  8  1  0  0  0  0
  7  6  1  0  0  0  0
  8 10  1  0  0  0  0
  8 33  1  0  0  0  0
  8 34  1  0  0  0  0
  9 11  1  0  0  0  0
  9 35  1  0  0  0  0
  9 36  1  0  0  0  0
 10 12  1  0  0  0  0
 10 13  1  0  0  0  0
 10 37  1  1  0  0  0
 11 15  2  0  0  0  0
 11 16  1  0  0  0  0
 12 38  1  0  0  0  0
 12 39  1  0  0  0  0
 12 40  1  0  0  0  0
 14 17  1  0  0  0  0
 15 19  1  0  0  0  0
 15 41  1  0  0  0  0
 16 20  2  0  0  0  0
 16 42  1  0  0  0  0
 17 21  1  0  0  0  0
 17 43  1  0  0  0  0
 17 44  1  0  0  0  0
 18 19  2  0  0  0  0
 18 20  1  0  0  0  0
 18 22  1  0  0  0  0
 19 45  1  0  0  0  0
 20 46  1  0  0  0  0
 21 25  1  0  0  0  0
 21 47  1  0  0  0  0
 21 48  1  0  0  0  0
 22 23  2  0  0  0  0
 22 24  1  0  0  0  0
 23 26  1  0  0  0  0
 23 49  1  0  0  0  0
 24 27  2  0  0  0  0
 24 50  1  0  0  0  0
 26 28  2  0  0  0  0
 26 51  1  0  0  0  0
 27 28  1  0  0  0  0
 27 52  1  0  0  0  0
 28 53  1  0  0  0  0
M  END
>  <Mol_ID>
5724

>  <Formula>
C22H25NO5

>  <MolWeight>
383.4376

>  <Cat>
S3388

>  <Name>
Sacubitrilat

>  <Synonyms>
Sac, LBQ-657

>  <Target>
Neprilysin

>  <Form>
Free Base

>  <CAS>
149709-44-4

>  <URL>
http://www.selleckchem.com/products/sacubitrilat.html

$$$$
