Safranal
 OpenBabel08302521373D

 25 25  0  0  0  0  0  0  0  0999 V2000
    1.0438    0.0113    0.0906 C   0  0  0  0  0  0  0  0  0  0  0  0
    1.9668   -0.5249   -0.5124 O   0  0  0  0  0  0  0  0  0  0  0  0
    0.4508    0.8296   -2.8760 C   0  0  0  0  0  0  0  0  0  0  0  0
    2.2282    2.2119   -1.7470 C   0  0  0  0  0  0  0  0  0  0  0  0
   -1.1782    1.0991    1.6652 C   0  0  0  0  0  0  0  0  0  0  0  0
    0.3076    1.2243   -0.3967 C   0  0  0  0  0  0  0  0  0  0  0  0
    0.7258    1.8451   -1.7420 C   0  0  0  0  0  0  0  0  0  0  0  0
   -0.7177    1.6912    0.3559 C   0  0  0  0  0  0  0  0  0  0  0  0
   -0.0529    3.1619   -2.0939 C   0  0  0  0  0  0  0  0  0  0  0  0
   -1.4906    2.8365   -0.0877 C   0  0  0  0  0  0  0  0  0  0  0  0
   -1.1995    3.5130   -1.2019 C   0  0  0  0  0  0  0  0  0  0  0  0
    0.7106   -0.4131    1.0484 H   0  0  0  0  0  0  0  0  0  0  0  0
    0.7382    1.2403   -3.8513 H   0  0  0  0  0  0  0  0  0  0  0  0
    1.0105   -0.1022   -2.7515 H   0  0  0  0  0  0  0  0  0  0  0  0
   -0.6139    0.5718   -2.9234 H   0  0  0  0  0  0  0  0  0  0  0  0
    2.4720    2.8743   -0.9078 H   0  0  0  0  0  0  0  0  0  0  0  0
    2.8821    1.3385   -1.6835 H   0  0  0  0  0  0  0  0  0  0  0  0
    2.5008    2.7338   -2.6726 H   0  0  0  0  0  0  0  0  0  0  0  0
   -1.5959    0.0988    1.5046 H   0  0  0  0  0  0  0  0  0  0  0  0
   -0.3509    1.0356    2.3801 H   0  0  0  0  0  0  0  0  0  0  0  0
   -1.9578    1.6978    2.1494 H   0  0  0  0  0  0  0  0  0  0  0  0
    0.6265    4.0247   -2.0853 H   0  0  0  0  0  0  0  0  0  0  0  0
   -0.4397    3.1098   -3.1202 H   0  0  0  0  0  0  0  0  0  0  0  0
   -2.3345    3.1627    0.5167 H   0  0  0  0  0  0  0  0  0  0  0  0
   -1.8018    4.3742   -1.4795 H   0  0  0  0  0  0  0  0  0  0  0  0
  1  2  2  0  0  0  0
  1  6  1  0  0  0  0
  1 12  1  0  0  0  0
  3  7  1  0  0  0  0
  3 13  1  0  0  0  0
  3 14  1  0  0  0  0
  3 15  1  0  0  0  0
  4  7  1  0  0  0  0
  4 16  1  0  0  0  0
  4 17  1  0  0  0  0
  4 18  1  0  0  0  0
  5  8  1  0  0  0  0
  5 19  1  0  0  0  0
  5 20  1  0  0  0  0
  5 21  1  0  0  0  0
  6  7  1  0  0  0  0
  6  8  2  0  0  0  0
  7  9  1  0  0  0  0
  8 10  1  0  0  0  0
  9 11  1  0  0  0  0
  9 22  1  0  0  0  0
  9 23  1  0  0  0  0
 10 11  2  0  0  0  0
 10 24  1  0  0  0  0
 11 25  1  0  0  0  0
M  END
>  <Mol_ID>
7433

>  <Formula>
C10H14O

>  <MolWeight>
150.21756

>  <Cat>
E4534

>  <Name>
Safranal

>  <Synonyms>
Safranal

>  <Target>
Antioxidant

>  <Form>
Free base

>  <CAS>
116-26-7

>  <URL>
https://www.selleckchem.com/products/safranal.html

$$$$
