Safranin O
 OpenBabel08302521383D

 43 46  0  0  0  0  0  0  0  0999 V2000
    0.9958   -0.0326   -0.1203 N   0  0  0  0  0  0  0  0  0  0  0  0
   -6.2487    2.3772   -6.0990 N   0  0  0  0  0  0  0  0  0  0  0  0
    1.8743   -2.1345   -2.0747 C   0  0  0  0  0  0  0  0  0  0  0  0
   -5.4579    0.2328   -7.9245 C   0  0  0  0  0  0  0  0  0  0  0  0
   -2.6586    1.2312   -3.0255 N   0  3  0  0  0  0  0  0  0  0  0  0
   -1.6268    0.3636   -2.6917 C   0  0  0  0  0  0  0  0  0  0  0  0
   -3.3094    1.0863   -4.2468 C   0  0  0  0  0  0  0  0  0  0  0  0
   -1.2198   -0.5874   -3.6485 C   0  0  0  0  0  0  0  0  0  0  0  0
   -0.9446    0.3633   -1.4546 C   0  0  0  0  0  0  0  0  0  0  0  0
   -2.9062    0.0224   -5.0922 C   0  0  0  0  0  0  0  0  0  0  0  0
   -4.3318    1.9353   -4.7198 C   0  0  0  0  0  0  0  0  0  0  0  0
   -1.8752   -0.7628   -4.8031 N   0  0  0  0  0  0  0  0  0  0  0  0
   -0.1049   -1.3772   -3.3967 C   0  0  0  0  0  0  0  0  0  0  0  0
    0.2148   -0.3906   -1.2223 C   0  0  0  0  0  0  0  0  0  0  0  0
   -3.6007   -0.2057   -6.2780 C   0  0  0  0  0  0  0  0  0  0  0  0
   -5.0541    1.6829   -5.8936 C   0  0  0  0  0  0  0  0  0  0  0  0
    0.6572   -1.2582   -2.2164 C   0  0  0  0  0  0  0  0  0  0  0  0
   -4.7021    0.5780   -6.6679 C   0  0  0  0  0  0  0  0  0  0  0  0
   -3.0307    2.3182   -2.1099 C   0  0  0  0  0  0  0  0  0  0  0  0
   -2.0359    3.1248   -1.5385 C   0  0  0  0  0  0  0  0  0  0  0  0
   -4.3772    2.5680   -1.8136 C   0  0  0  0  0  0  0  0  0  0  0  0
   -2.3864    4.1375   -0.6433 C   0  0  0  0  0  0  0  0  0  0  0  0
   -4.7231    3.6620   -1.0163 C   0  0  0  0  0  0  0  0  0  0  0  0
   -3.7286    4.4269   -0.4108 C   0  0  0  0  0  0  0  0  0  0  0  0
    0.5033    0.2643    0.7170 H   0  0  0  0  0  0  0  0  0  0  0  0
    1.7909   -0.6190    0.1077 H   0  0  0  0  0  0  0  0  0  0  0  0
   -6.3280    3.3056   -5.6964 H   0  0  0  0  0  0  0  0  0  0  0  0
   -6.6371    2.3421   -7.0381 H   0  0  0  0  0  0  0  0  0  0  0  0
    1.5693   -3.1869   -2.0632 H   0  0  0  0  0  0  0  0  0  0  0  0
    2.5631   -1.9690   -2.9093 H   0  0  0  0  0  0  0  0  0  0  0  0
    2.4365   -1.9567   -1.1552 H   0  0  0  0  0  0  0  0  0  0  0  0
   -6.4938   -0.0307   -7.6864 H   0  0  0  0  0  0  0  0  0  0  0  0
   -5.4529    1.0866   -8.6121 H   0  0  0  0  0  0  0  0  0  0  0  0
   -5.0075   -0.6138   -8.4512 H   0  0  0  0  0  0  0  0  0  0  0  0
   -1.2774    0.9841   -0.6298 H   0  0  0  0  0  0  0  0  0  0  0  0
   -4.6231    2.8327   -4.1884 H   0  0  0  0  0  0  0  0  0  0  0  0
    0.2042   -2.0930   -4.1608 H   0  0  0  0  0  0  0  0  0  0  0  0
   -3.2925   -1.0418   -6.8999 H   0  0  0  0  0  0  0  0  0  0  0  0
   -0.9784    2.9847   -1.7511 H   0  0  0  0  0  0  0  0  0  0  0  0
   -5.1834    1.9516   -2.2043 H   0  0  0  0  0  0  0  0  0  0  0  0
   -1.6138    4.7149   -0.1367 H   0  0  0  0  0  0  0  0  0  0  0  0
   -5.7703    3.9164   -0.8557 H   0  0  0  0  0  0  0  0  0  0  0  0
   -4.0006    5.2527    0.2459 H   0  0  0  0  0  0  0  0  0  0  0  0
  1 14  1  0  0  0  0
  1 25  1  0  0  0  0
  1 26  1  0  0  0  0
  2 16  1  0  0  0  0
  2 27  1  0  0  0  0
  2 28  1  0  0  0  0
  3 17  1  0  0  0  0
  3 29  1  0  0  0  0
  3 30  1  0  0  0  0
  3 31  1  0  0  0  0
  4 18  1  0  0  0  0
  4 32  1  0  0  0  0
  4 33  1  0  0  0  0
  4 34  1  0  0  0  0
  5  6  1  0  0  0  0
  5  7  2  0  0  0  0
  5 19  1  0  0  0  0
  6  8  1  0  0  0  0
  6  9  2  0  0  0  0
  7 10  1  0  0  0  0
  7 11  1  0  0  0  0
  8 12  1  0  0  0  0
  8 13  2  0  0  0  0
  9 14  1  0  0  0  0
  9 35  1  0  0  0  0
 10 12  2  0  0  0  0
 10 15  1  0  0  0  0
 11 16  2  0  0  0  0
 11 36  1  0  0  0  0
 13 17  1  0  0  0  0
 13 37  1  0  0  0  0
 14 17  2  0  0  0  0
 15 18  2  0  0  0  0
 15 38  1  0  0  0  0
 16 18  1  0  0  0  0
 19 20  2  0  0  0  0
 19 21  1  0  0  0  0
 20 22  1  0  0  0  0
 20 39  1  0  0  0  0
 21 23  2  0  0  0  0
 21 40  1  0  0  0  0
 22 24  2  0  0  0  0
 22 41  1  0  0  0  0
 23 24  1  0  0  0  0
 23 42  1  0  0  0  0
 24 43  1  0  0  0  0
M  CHG  1   5   1
M  END
>  <Mol_ID>
7643

>  <Formula>
C20H19ClN4

>  <MolWeight>
350.84466

>  <Cat>
E4008

>  <Name>
Safranin O

>  <Synonyms>
Safranin T

>  <Target>
Others

>  <Form>
chloride

>  <CAS>
477-73-6

>  <URL>
https://www.selleckchem.com/products/safranin-o.html

$$$$
