Salicylanilide.cdx
 OpenBabel08302522043D

 27 28  0  0  0  0  0  0  0  0999 V2000
    1.0959    0.1045   -0.0508 C   0  0  0  0  0  0  0  0  0  0  0  0
    0.3965    1.0213    0.8951 C   0  0  0  0  0  0  0  0  0  0  0  0
   -0.8476    1.5588    0.5336 C   0  0  0  0  0  0  0  0  0  0  0  0
   -1.4696    2.5074    1.3418 C   0  0  0  0  0  0  0  0  0  0  0  0
   -0.8662    2.9067    2.5342 C   0  0  0  0  0  0  0  0  0  0  0  0
    0.3374    2.3295    2.9362 C   0  0  0  0  0  0  0  0  0  0  0  0
    0.9649    1.3797    2.1254 C   0  0  0  0  0  0  0  0  0  0  0  0
    0.3992   -0.5579   -0.8121 O   0  0  0  0  0  0  0  0  0  0  0  0
    2.4794    0.1521   -0.0137 N   0  0  0  0  0  0  0  0  0  0  0  0
    3.3819   -0.5788   -0.8142 C   0  0  0  0  0  0  0  0  0  0  0  0
    2.9904   -1.4675   -1.8164 C   0  0  0  0  0  0  0  0  0  0  0  0
    3.9468   -2.1804   -2.5461 C   0  0  0  0  0  0  0  0  0  0  0  0
    5.3032   -2.0095   -2.2799 C   0  0  0  0  0  0  0  0  0  0  0  0
    5.7058   -1.1098   -1.2972 C   0  0  0  0  0  0  0  0  0  0  0  0
    4.7498   -0.3938   -0.5715 C   0  0  0  0  0  0  0  0  0  0  0  0
   -1.5131    1.2076   -0.6121 O   0  0  0  0  0  0  0  0  0  0  0  0
   -2.4208    2.9360    1.0383 H   0  0  0  0  0  0  0  0  0  0  0  0
   -1.3454    3.6598    3.1558 H   0  0  0  0  0  0  0  0  0  0  0  0
    0.7883    2.6220    3.8815 H   0  0  0  0  0  0  0  0  0  0  0  0
    1.8840    0.9239    2.4793 H   0  0  0  0  0  0  0  0  0  0  0  0
    2.9073    0.8128    0.6170 H   0  0  0  0  0  0  0  0  0  0  0  0
    1.9462   -1.6292   -2.0620 H   0  0  0  0  0  0  0  0  0  0  0  0
    3.6254   -2.8708   -3.3204 H   0  0  0  0  0  0  0  0  0  0  0  0
    6.0417   -2.5745   -2.8415 H   0  0  0  0  0  0  0  0  0  0  0  0
    6.7637   -0.9678   -1.0930 H   0  0  0  0  0  0  0  0  0  0  0  0
    5.0933    0.3007    0.1913 H   0  0  0  0  0  0  0  0  0  0  0  0
   -1.0506    0.4284   -0.9981 H   0  0  0  0  0  0  0  0  0  0  0  0
  1  2  1  0  0  0  0
  1  8  2  0  0  0  0
  1  9  1  0  0  0  0
  2  3  2  0  0  0  0
  2  7  1  0  0  0  0
  3  4  1  0  0  0  0
  3 16  1  0  0  0  0
  4  5  2  0  0  0  0
  4 17  1  0  0  0  0
  5  6  1  0  0  0  0
  5 18  1  0  0  0  0
  6  7  2  0  0  0  0
  6 19  1  0  0  0  0
  7 20  1  0  0  0  0
  9 10  1  0  0  0  0
  9 21  1  0  0  0  0
 10 11  2  0  0  0  0
 10 15  1  0  0  0  0
 11 12  1  0  0  0  0
 11 22  1  0  0  0  0
 12 13  2  0  0  0  0
 12 23  1  0  0  0  0
 13 14  1  0  0  0  0
 13 24  1  0  0  0  0
 14 15  2  0  0  0  0
 14 25  1  0  0  0  0
 15 26  1  0  0  0  0
 16 27  1  0  0  0  0
M  END
>  <Mol_ID>
1291

>  <Formula>
C13H11NO2

>  <MolWeight>
213.23194

>  <Cat>
S4187

>  <Name>
Salicylanilide

>  <Synonyms>
WR10019,2-Hydroxybenzanilide

>  <Target>
Fungal,Integrase,Reverse Transcriptase

>  <Form>
free base

>  <CAS>
87-17-2

>  <URL>
http://selleckchem.com/products/salicylanilide.html

$$$$
