Salidroside.cdx
 OpenBabel08302521323D

 41 42  0  0  0  0  0  0  0  0999 V2000
   -0.9989    1.6420   -1.0157 C   0  0  2  0  0  0  0  0  0  0  0  0
   -1.2223    0.1990   -0.5699 C   0  0  2  0  0  0  0  0  0  0  0  0
    0.0777   -0.5762   -0.7508 C   0  0  1  0  0  0  0  0  0  0  0  0
    1.2758    0.1066   -0.0778 C   0  0  2  0  0  0  0  0  0  0  0  0
    1.3260    1.6237   -0.3911 C   0  0  1  0  0  0  0  0  0  0  0  0
    0.0375    2.2348   -0.2252 O   0  0  0  0  0  0  0  0  0  0  0  0
   -2.2749    2.4749   -0.8427 C   0  0  0  0  0  0  0  0  0  0  0  0
   -0.1163   -1.9207   -0.2697 O   0  0  0  0  0  0  0  0  0  0  0  0
    2.1795    2.3428    0.5030 O   0  0  0  0  0  0  0  0  0  0  0  0
    3.5642    2.0151    0.5493 C   0  0  0  0  0  0  0  0  0  0  0  0
    4.3496    2.1478   -0.7600 C   0  0  0  0  0  0  0  0  0  0  0  0
    4.4605    3.4965   -1.4255 C   0  0  0  0  0  0  0  0  0  0  0  0
    5.5699    3.7392   -2.2634 C   0  0  0  0  0  0  0  0  0  0  0  0
    5.6235    4.8615   -3.0915 C   0  0  0  0  0  0  0  0  0  0  0  0
    4.5556    5.7537   -3.0912 C   0  0  0  0  0  0  0  0  0  0  0  0
    3.4919    5.5875   -2.2146 C   0  0  0  0  0  0  0  0  0  0  0  0
    3.4430    4.4651   -1.3867 C   0  0  0  0  0  0  0  0  0  0  0  0
    4.5192    6.7773   -3.9801 O   0  0  0  0  0  0  0  0  0  0  0  0
   -2.2472   -0.4151   -1.3545 O   0  0  0  0  0  0  0  0  0  0  0  0
    2.4794   -0.5687   -0.4976 O   0  0  0  0  0  0  0  0  0  0  0  0
   -2.0498    3.8114   -1.2956 O   0  0  0  0  0  0  0  0  0  0  0  0
   -0.7043    1.6899   -2.0714 H   0  0  0  0  0  0  0  0  0  0  0  0
   -1.5323    0.1529    0.4820 H   0  0  0  0  0  0  0  0  0  0  0  0
    0.2761   -0.6989   -1.8254 H   0  0  0  0  0  0  0  0  0  0  0  0
    1.2193   -0.0351    1.0082 H   0  0  0  0  0  0  0  0  0  0  0  0
    1.6600    1.8008   -1.4194 H   0  0  0  0  0  0  0  0  0  0  0  0
   -3.1062    2.0617   -1.4224 H   0  0  0  0  0  0  0  0  0  0  0  0
   -2.5728    2.5324    0.2114 H   0  0  0  0  0  0  0  0  0  0  0  0
    0.1935   -1.9662    0.6554 H   0  0  0  0  0  0  0  0  0  0  0  0
    4.0114    2.6758    1.2986 H   0  0  0  0  0  0  0  0  0  0  0  0
    3.6776    0.9995    0.9485 H   0  0  0  0  0  0  0  0  0  0  0  0
    5.3667    1.7877   -0.5504 H   0  0  0  0  0  0  0  0  0  0  0  0
    3.9283    1.4691   -1.5117 H   0  0  0  0  0  0  0  0  0  0  0  0
    6.3945    3.0304   -2.2955 H   0  0  0  0  0  0  0  0  0  0  0  0
    6.4670    5.0184   -3.7480 H   0  0  0  0  0  0  0  0  0  0  0  0
    2.6738    6.3096   -2.2066 H   0  0  0  0  0  0  0  0  0  0  0  0
    2.5760    4.3450   -0.7438 H   0  0  0  0  0  0  0  0  0  0  0  0
    4.3791    6.3566   -4.8480 H   0  0  0  0  0  0  0  0  0  0  0  0
   -2.0598   -1.3752   -1.3582 H   0  0  0  0  0  0  0  0  0  0  0  0
    2.4513   -0.6966   -1.4658 H   0  0  0  0  0  0  0  0  0  0  0  0
   -1.2915    4.1405   -0.7729 H   0  0  0  0  0  0  0  0  0  0  0  0
  1  2  1  0  0  0  0
  1  7  1  0  0  0  0
  1 22  1  6  0  0  0
  2  3  1  0  0  0  0
  2 19  1  0  0  0  0
  2 23  1  1  0  0  0
  3  4  1  0  0  0  0
  3  8  1  0  0  0  0
  3 24  1  6  0  0  0
  4  5  1  0  0  0  0
  4 20  1  0  0  0  0
  4 25  1  1  0  0  0
  5  6  1  0  0  0  0
  5  9  1  0  0  0  0
  5 26  1  6  0  0  0
  6  1  1  0  0  0  0
  7 21  1  0  0  0  0
  7 27  1  0  0  0  0
  7 28  1  0  0  0  0
  8 29  1  0  0  0  0
  9 10  1  0  0  0  0
 10 11  1  0  0  0  0
 10 30  1  0  0  0  0
 10 31  1  0  0  0  0
 11 12  1  0  0  0  0
 11 32  1  0  0  0  0
 11 33  1  0  0  0  0
 12 13  2  0  0  0  0
 13 14  1  0  0  0  0
 13 34  1  0  0  0  0
 14 15  2  0  0  0  0
 14 35  1  0  0  0  0
 15 16  1  0  0  0  0
 15 18  1  0  0  0  0
 16 17  2  0  0  0  0
 16 36  1  0  0  0  0
 17 12  1  0  0  0  0
 17 37  1  0  0  0  0
 18 38  1  0  0  0  0
 19 39  1  0  0  0  0
 20 40  1  0  0  0  0
 21 41  1  0  0  0  0
M  END
>  <Mol_ID>
596

>  <Formula>
C14H20O7

>  <MolWeight>
300.3044

>  <Cat>
S2396

>  <Name>
Salidroside

>  <Synonyms>
Rhodioloside

>  <Target>
Mitophagy,mTOR,PREP

>  <Form>
free base

>  <CAS>
10338-51-9

>  <URL>
http://selleckchem.com/products/Salidroside-Rhodioloside.html

$$$$
