Salifungin
 OpenBabel08302520403D

 27 28  0  0  0  0  0  0  0  0999 V2000
   -2.0102   -1.2479    0.0219 C   0  0  0  0  0  0  0  0  0  0  0  0
   -2.8252   -2.4880   -0.0566 C   0  0  0  0  0  0  0  0  0  0  0  0
   -2.6332   -0.0523    0.4267 C   0  0  0  0  0  0  0  0  0  0  0  0
   -0.6631   -1.2211   -0.3581 C   0  0  0  0  0  0  0  0  0  0  0  0
   -2.1883   -3.6912    0.1893 N   0  0  0  0  0  0  0  0  0  0  0  0
   -4.0303   -2.3347   -0.2556 O   0  0  0  0  0  0  0  0  0  0  0  0
   -1.9255    1.1451    0.4727 C   0  0  0  0  0  0  0  0  0  0  0  0
   -3.9519    0.0170    0.7942 O   0  0  0  0  0  0  0  0  0  0  0  0
    0.0367   -0.0120   -0.3177 C   0  0  0  0  0  0  0  0  0  0  0  0
   -2.8196   -4.9602    0.1799 C   0  0  0  0  0  0  0  0  0  0  0  0
   -0.5852    1.1687    0.0946 C   0  0  0  0  0  0  0  0  0  0  0  0
    1.8513    0.0387   -0.8519 Br  0  0  0  0  0  0  0  0  0  0  0  0
   -4.0660   -5.1912   -0.4108 C   0  0  0  0  0  0  0  0  0  0  0  0
   -2.1624   -6.0278    0.7990 C   0  0  0  0  0  0  0  0  0  0  0  0
   -4.6665   -6.4514   -0.3484 C   0  0  0  0  0  0  0  0  0  0  0  0
   -2.7660   -7.2898    0.8678 C   0  0  0  0  0  0  0  0  0  0  0  0
   -4.0222   -7.4990    0.3007 C   0  0  0  0  0  0  0  0  0  0  0  0
   -0.1662   -2.1160   -0.7200 H   0  0  0  0  0  0  0  0  0  0  0  0
   -1.2529   -3.6619    0.5709 H   0  0  0  0  0  0  0  0  0  0  0  0
   -2.4264    2.0579    0.7853 H   0  0  0  0  0  0  0  0  0  0  0  0
   -4.3855   -0.8230    0.5181 H   0  0  0  0  0  0  0  0  0  0  0  0
   -0.0431    2.1113    0.1135 H   0  0  0  0  0  0  0  0  0  0  0  0
   -4.5992   -4.4085   -0.9413 H   0  0  0  0  0  0  0  0  0  0  0  0
   -1.1892   -5.8954    1.2629 H   0  0  0  0  0  0  0  0  0  0  0  0
   -5.6410   -6.6057   -0.8045 H   0  0  0  0  0  0  0  0  0  0  0  0
   -2.2629   -8.1090    1.3760 H   0  0  0  0  0  0  0  0  0  0  0  0
   -4.4975   -8.4744    0.3617 H   0  0  0  0  0  0  0  0  0  0  0  0
  1  2  1  0  0  0  0
  1  3  2  0  0  0  0
  1  4  1  0  0  0  0
  2  5  1  0  0  0  0
  2  6  2  0  0  0  0
  3  7  1  0  0  0  0
  3  8  1  0  0  0  0
  4  9  2  0  0  0  0
  4 18  1  0  0  0  0
  5 10  1  0  0  0  0
  5 19  1  0  0  0  0
  7 11  2  0  0  0  0
  7 20  1  0  0  0  0
  8 21  1  0  0  0  0
  9 12  1  0  0  0  0
  9 11  1  0  0  0  0
 10 13  2  0  0  0  0
 10 14  1  0  0  0  0
 11 22  1  0  0  0  0
 13 15  1  0  0  0  0
 13 23  1  0  0  0  0
 14 16  2  0  0  0  0
 14 24  1  0  0  0  0
 15 17  2  0  0  0  0
 15 25  1  0  0  0  0
 16 17  1  0  0  0  0
 16 26  1  0  0  0  0
 17 27  1  0  0  0  0
M  END
>  <Mol_ID>
3764

>  <Formula>
C13H9BrClNO2

>  <MolWeight>
326.57306

>  <Cat>
S6451

>  <Name>
Salifungin

>  <Synonyms>
Multifungin, Bromosalicylchloranilide

>  <Target>
Fungal

>  <Form>
Free Base

>  <CAS>
3679-64-9

>  <URL>
http://www.selleck.cn/products/salifungin.html

$$$$
