Samuraciclib hydrochloride (ICEC0942 hydrochlorid
 OpenBabel08302521353D

 59 62  0  0  0  0  0  0  0  0999 V2000
   -1.9042    0.9853    0.2419 C   0  0  0  0  0  0  0  0  0  0  0  0
   -1.9570   -0.4755    0.5935 C   0  0  0  0  0  0  0  0  0  0  0  0
   -0.8951   -1.2047    0.7947 N   0  0  0  0  0  0  0  0  0  0  0  0
    0.3239   -0.5944    0.6238 C   0  0  0  0  0  0  0  0  0  0  0  0
    0.4426    0.7873    0.4104 N   0  0  0  0  0  0  0  0  0  0  0  0
   -0.7053    1.5862    0.1942 C   0  0  0  0  0  0  0  0  0  0  0  0
    1.5970   -1.1135    0.4515 C   0  0  0  0  0  0  0  0  0  0  0  0
    2.4212    0.0203    0.2942 C   0  0  0  0  0  0  0  0  0  0  0  0
    1.7511    1.1649    0.3441 N   0  0  0  0  0  0  0  0  0  0  0  0
   -0.5264    2.9164   -0.1697 N   0  0  0  0  0  0  0  0  0  0  0  0
   -0.5984    4.0382    0.7455 C   0  0  0  0  0  0  0  0  0  0  0  0
    0.6620    4.8534    0.6202 C   0  0  0  0  0  0  0  0  0  0  0  0
    0.7778    5.8665   -0.3428 C   0  0  0  0  0  0  0  0  0  0  0  0
    1.9706    6.5803   -0.4775 C   0  0  0  0  0  0  0  0  0  0  0  0
    3.0580    6.2871    0.3446 C   0  0  0  0  0  0  0  0  0  0  0  0
    2.9582    5.2735    1.2953 C   0  0  0  0  0  0  0  0  0  0  0  0
    1.7692    4.5568    1.4278 C   0  0  0  0  0  0  0  0  0  0  0  0
   -3.2326   -1.0071    0.6579 N   0  0  0  0  0  0  0  0  0  0  0  0
   -3.5810   -2.2394    1.3347 C   0  0  0  0  0  0  0  0  0  0  0  0
   -4.3933   -1.9751    2.6090 C   0  0  2  0  0  0  0  0  0  0  0  0
   -5.7098   -1.2023    2.3802 C   0  0  2  0  0  0  0  0  0  0  0  0
   -6.3677   -0.7902    3.7294 C   0  0  0  0  0  0  0  0  0  0  0  0
   -5.8335   -1.5505    4.8636 N   0  0  0  0  0  0  0  0  0  0  0  0
   -4.3883   -1.3403    5.0327 C   0  0  0  0  0  0  0  0  0  0  0  0
   -3.6196   -1.2403    3.7055 C   0  0  0  0  0  0  0  0  0  0  0  0
   -6.6023   -2.0008    1.6056 O   0  0  0  0  0  0  0  0  0  0  0  0
    2.0080   -2.5505    0.3429 C   0  0  0  0  0  0  0  0  0  0  0  0
    2.5763   -2.8380   -1.0527 C   0  0  0  0  0  0  0  0  0  0  0  0
    3.0244   -2.9506    1.4137 C   0  0  0  0  0  0  0  0  0  0  0  0
   -2.8324    1.5062    0.0728 H   0  0  0  0  0  0  0  0  0  0  0  0
    3.4884    0.0556    0.1165 H   0  0  0  0  0  0  0  0  0  0  0  0
   -0.8670    3.1305   -1.1012 H   0  0  0  0  0  0  0  0  0  0  0  0
   -1.4695    4.6577    0.4976 H   0  0  0  0  0  0  0  0  0  0  0  0
   -0.7386    3.7137    1.7843 H   0  0  0  0  0  0  0  0  0  0  0  0
   -0.0540    6.0927   -1.0048 H   0  0  0  0  0  0  0  0  0  0  0  0
    2.0572    7.3565   -1.2332 H   0  0  0  0  0  0  0  0  0  0  0  0
    3.9891    6.8349    0.2325 H   0  0  0  0  0  0  0  0  0  0  0  0
    3.8113    5.0240    1.9206 H   0  0  0  0  0  0  0  0  0  0  0  0
    1.7175    3.7381    2.1434 H   0  0  0  0  0  0  0  0  0  0  0  0
   -3.7343   -0.9119   -0.2190 H   0  0  0  0  0  0  0  0  0  0  0  0
   -4.1856   -2.8492    0.6516 H   0  0  0  0  0  0  0  0  0  0  0  0
   -2.6979   -2.8409    1.5750 H   0  0  0  0  0  0  0  0  0  0  0  0
   -4.6485   -2.9787    2.9823 H   0  0  0  0  0  0  0  0  0  0  0  0
   -5.5281   -0.2845    1.8084 H   0  0  0  0  0  0  0  0  0  0  0  0
   -6.2075    0.2792    3.9144 H   0  0  0  0  0  0  0  0  0  0  0  0
   -7.4508   -0.9485    3.6817 H   0  0  0  0  0  0  0  0  0  0  0  0
   -6.3173   -1.2956    5.7249 H   0  0  0  0  0  0  0  0  0  0  0  0
   -3.9948   -2.1852    5.6090 H   0  0  0  0  0  0  0  0  0  0  0  0
   -4.2051   -0.4384    5.6285 H   0  0  0  0  0  0  0  0  0  0  0  0
   -2.6105   -1.6478    3.8273 H   0  0  0  0  0  0  0  0  0  0  0  0
   -3.5080   -0.1811    3.4334 H   0  0  0  0  0  0  0  0  0  0  0  0
   -6.8700   -2.7451    2.1757 H   0  0  0  0  0  0  0  0  0  0  0  0
    1.1197   -3.1814    0.4750 H   0  0  0  0  0  0  0  0  0  0  0  0
    3.5191   -2.3046   -1.2207 H   0  0  0  0  0  0  0  0  0  0  0  0
    2.7694   -3.9071   -1.1841 H   0  0  0  0  0  0  0  0  0  0  0  0
    1.8763   -2.5211   -1.8344 H   0  0  0  0  0  0  0  0  0  0  0  0
    2.6201   -2.7916    2.4192 H   0  0  0  0  0  0  0  0  0  0  0  0
    3.2862   -4.0104    1.3194 H   0  0  0  0  0  0  0  0  0  0  0  0
    3.9507   -2.3706    1.3312 H   0  0  0  0  0  0  0  0  0  0  0  0
  1  2  1  0  0  0  0
  1 30  1  0  0  0  0
  2  3  2  0  0  0  0
  2 18  1  0  0  0  0
  3  4  1  0  0  0  0
  4  5  1  0  0  0  0
  4  7  2  0  0  0  0
  5  6  1  0  0  0  0
  6  1  2  0  0  0  0
  6 10  1  0  0  0  0
  7  8  1  0  0  0  0
  7 27  1  0  0  0  0
  8  9  2  0  0  0  0
  8 31  1  0  0  0  0
  9  5  1  0  0  0  0
 10 11  1  0  0  0  0
 10 32  1  0  0  0  0
 11 12  1  0  0  0  0
 11 33  1  0  0  0  0
 11 34  1  0  0  0  0
 12 13  2  0  0  0  0
 13 14  1  0  0  0  0
 13 35  1  0  0  0  0
 14 15  2  0  0  0  0
 14 36  1  0  0  0  0
 15 16  1  0  0  0  0
 15 37  1  0  0  0  0
 16 17  2  0  0  0  0
 16 38  1  0  0  0  0
 17 12  1  0  0  0  0
 17 39  1  0  0  0  0
 18 19  1  0  0  0  0
 18 40  1  0  0  0  0
 19 41  1  0  0  0  0
 19 42  1  0  0  0  0
 20 19  1  0  0  0  0
 20 21  1  0  0  0  0
 20 43  1  1  0  0  0
 21 22  1  0  0  0  0
 21 26  1  0  0  0  0
 21 44  1  6  0  0  0
 22 23  1  0  0  0  0
 22 45  1  0  0  0  0
 22 46  1  0  0  0  0
 23 24  1  0  0  0  0
 23 47  1  0  0  0  0
 24 25  1  0  0  0  0
 24 48  1  0  0  0  0
 24 49  1  0  0  0  0
 25 20  1  0  0  0  0
 25 50  1  0  0  0  0
 25 51  1  0  0  0  0
 26 52  1  0  0  0  0
 27 28  1  0  0  0  0
 27 29  1  0  0  0  0
 27 53  1  0  0  0  0
 28 54  1  0  0  0  0
 28 55  1  0  0  0  0
 28 56  1  0  0  0  0
 29 57  1  0  0  0  0
 29 58  1  0  0  0  0
 29 59  1  0  0  0  0
M  END
>  <Mol_ID>
6731

>  <Formula>
C22H31ClN6O

>  <MolWeight>
430.97414

>  <Cat>
S8722

>  <Name>
Samuraciclib hydrochloride (ICEC0942 hydrochlorid

>  <Synonyms>
CT7001 hydrochloride

>  <Target>
Apoptosis related,CDK

>  <Form>
Hydrochloride

>  <CAS>
1805789-54-1

>  <URL>
http://www.selleckchem.com/products/icec0942-hydrochloride.html

$$$$
