Sancycline
 OpenBabel08302520403D

 52 55  0  0  0  0  0  0  0  0999 V2000
    1.5131    1.4744    1.6492 C   0  0  2  0  0  0  0  0  0  0  0  0
    0.5328    0.6036    0.9390 C   0  0  2  0  0  0  0  0  0  0  0  0
    0.4263    2.6699    0.8631 C   0  0  0  0  0  0  0  0  0  0  0  0
    2.2779   -0.0626    1.8536 C   0  0  0  0  0  0  0  0  0  0  0  0
    1.6176    1.9986    2.9637 O   0  0  0  0  0  0  0  0  0  0  0  0
    1.6621    0.9883   -0.5029 C   0  0  1  0  0  0  0  0  0  0  0  0
   -0.6705    0.8967    2.0741 C   0  0  0  0  0  0  0  0  0  0  0  0
   -0.9314    2.4740    0.4769 C   0  0  0  0  0  0  0  0  0  0  0  0
    0.7680    3.9639    1.2784 O   0  0  0  0  0  0  0  0  0  0  0  0
    2.8467   -0.8151    0.6501 C   0  0  0  0  0  0  0  0  0  0  0  0
    2.2239   -0.6352    2.9527 O   0  0  0  0  0  0  0  0  0  0  0  0
    2.5319   -0.2648   -0.5397 C   0  0  0  0  0  0  0  0  0  0  0  0
    1.8632    2.0582   -1.5379 N   0  0  0  0  0  0  0  0  0  0  0  0
   -1.6548    1.9875    1.6975 C   0  0  1  0  0  0  0  0  0  0  0  0
   -1.5142    1.4660   -0.6538 C   0  0  0  0  0  0  0  0  0  0  0  0
    3.5191   -2.1489    0.7192 C   0  0  0  0  0  0  0  0  0  0  0  0
    2.9741   -0.7430   -1.7517 O   0  0  0  0  0  0  0  0  0  0  0  0
    3.1562    2.1645   -2.2171 C   0  0  0  0  0  0  0  0  0  0  0  0
    0.8370    2.7675   -2.2673 C   0  0  0  0  0  0  0  0  0  0  0  0
   -3.0582    1.3895    1.7112 C   0  0  0  0  0  0  0  0  0  0  0  0
   -3.0370    1.2955   -0.7436 C   0  0  0  0  0  0  0  0  0  0  0  0
   -0.8159    0.7472   -1.3687 O   0  0  0  0  0  0  0  0  0  0  0  0
    3.1821   -2.9360    1.7776 N   0  0  0  0  0  0  0  0  0  0  0  0
    4.3022   -2.5749   -0.1208 O   0  0  0  0  0  0  0  0  0  0  0  0
   -3.7836    1.4842    0.4184 C   0  0  0  0  0  0  0  0  0  0  0  0
   -3.7305    0.7454   -1.8342 C   0  0  0  0  0  0  0  0  0  0  0  0
   -5.1806    1.3715    0.4218 C   0  0  0  0  0  0  0  0  0  0  0  0
   -5.1277    0.6147   -1.8466 C   0  0  0  0  0  0  0  0  0  0  0  0
   -3.0817    0.2189   -2.9141 O   0  0  0  0  0  0  0  0  0  0  0  0
   -5.8685    0.9642   -0.7335 C   0  0  0  0  0  0  0  0  0  0  0  0
    0.4179   -0.4887    0.8544 H   0  0  0  0  0  0  0  0  0  0  0  0
    2.4693    1.6866    3.3306 H   0  0  0  0  0  0  0  0  0  0  0  0
    2.4870    1.5313    0.0104 H   0  0  0  0  0  0  0  0  0  0  0  0
   -1.1126   -0.0575    2.3732 H   0  0  0  0  0  0  0  0  0  0  0  0
   -0.3007    1.2237    3.0601 H   0  0  0  0  0  0  0  0  0  0  0  0
    1.5723    3.8730    1.8236 H   0  0  0  0  0  0  0  0  0  0  0  0
   -1.6894    2.8302    2.4043 H   0  0  0  0  0  0  0  0  0  0  0  0
    2.4923   -0.2715   -2.4542 H   0  0  0  0  0  0  0  0  0  0  0  0
    3.3669    3.2014   -2.5125 H   0  0  0  0  0  0  0  0  0  0  0  0
    3.1660    1.5635   -3.1305 H   0  0  0  0  0  0  0  0  0  0  0  0
    3.9998    1.8740   -1.5823 H   0  0  0  0  0  0  0  0  0  0  0  0
    0.0477    3.1928   -1.6542 H   0  0  0  0  0  0  0  0  0  0  0  0
    1.2553    3.6714   -2.7363 H   0  0  0  0  0  0  0  0  0  0  0  0
    0.4130    2.1611   -3.0676 H   0  0  0  0  0  0  0  0  0  0  0  0
   -3.0117    0.3056    1.9028 H   0  0  0  0  0  0  0  0  0  0  0  0
   -3.6473    1.7952    2.5392 H   0  0  0  0  0  0  0  0  0  0  0  0
    3.5705   -3.8650    1.8293 H   0  0  0  0  0  0  0  0  0  0  0  0
    2.5683   -2.6154    2.5218 H   0  0  0  0  0  0  0  0  0  0  0  0
   -5.7481    1.5312    1.3498 H   0  0  0  0  0  0  0  0  0  0  0  0
   -5.6554    0.2182   -2.6998 H   0  0  0  0  0  0  0  0  0  0  0  0
   -3.5777   -0.5488   -3.2260 H   0  0  0  0  0  0  0  0  0  0  0  0
   -6.9509    0.8904   -0.7092 H   0  0  0  0  0  0  0  0  0  0  0  0
  1  2  1  0  0  0  0
  1  3  1  0  0  0  0
  1  4  1  0  0  0  0
  1  5  1  1  0  0  0
  2  6  1  0  0  0  0
  2  7  1  0  0  0  0
  2 31  1  1  0  0  0
  3  8  2  3  0  0  0
  3  9  1  0  0  0  0
  4 10  1  0  0  0  0
  4 11  2  0  0  0  0
  5 32  1  0  0  0  0
  6 12  1  0  0  0  0
  6 13  1  0  0  0  0
  6 33  1  1  0  0  0
  7 34  1  0  0  0  0
  7 35  1  0  0  0  0
  8 15  1  0  0  0  0
  8 14  1  0  0  0  0
  9 36  1  0  0  0  0
 10 16  1  0  0  0  0
 10 12  2  0  0  0  0
 12 17  1  0  0  0  0
 13 18  1  0  0  0  0
 13 19  1  0  0  0  0
 14  7  1  0  0  0  0
 14 20  1  0  0  0  0
 14 37  1  1  0  0  0
 15 21  1  0  0  0  0
 15 22  2  0  0  0  0
 16 23  1  0  0  0  0
 16 24  2  0  0  0  0
 17 38  1  0  0  0  0
 18 39  1  0  0  0  0
 18 40  1  0  0  0  0
 18 41  1  0  0  0  0
 19 42  1  0  0  0  0
 19 43  1  0  0  0  0
 19 44  1  0  0  0  0
 20 25  1  0  0  0  0
 20 45  1  0  0  0  0
 20 46  1  0  0  0  0
 21 26  2  0  0  0  0
 21 25  1  0  0  0  0
 23 47  1  0  0  0  0
 23 48  1  0  0  0  0
 25 27  2  0  0  0  0
 26 28  1  0  0  0  0
 26 29  1  0  0  0  0
 27 30  1  0  0  0  0
 27 49  1  0  0  0  0
 28 30  2  0  0  0  0
 28 50  1  0  0  0  0
 29 51  1  0  0  0  0
 30 52  1  0  0  0  0
M  END
>  <Mol_ID>
3708

>  <Formula>
C21H22N2O7

>  <MolWeight>
414.40858

>  <Cat>
S5859

>  <Name>
Sancycline

>  <Synonyms>
Bonomycin, Norcycline, GS 2147

>  <Target>
Antibiotics

>  <Form>
Free Base

>  <CAS>
808-26-4

>  <URL>
http://www.selleck.cn/products/sancycline.html

$$$$
