SAR-20347
 OpenBabel08302521353D

 49 52  0  0  0  0  0  0  0  0999 V2000
    1.3078   -1.4990   -0.0035 C   0  0  0  0  0  0  0  0  0  0  0  0
    0.7965   -1.8033    1.2548 C   0  0  0  0  0  0  0  0  0  0  0  0
    0.6309   -0.7885    2.1956 C   0  0  0  0  0  0  0  0  0  0  0  0
    0.9727    0.5315    1.8748 C   0  0  0  0  0  0  0  0  0  0  0  0
    1.4852    0.8570    0.6062 C   0  0  0  0  0  0  0  0  0  0  0  0
    1.6470   -0.1826   -0.3175 C   0  0  0  0  0  0  0  0  0  0  0  0
    2.1341    0.0557   -1.5453 F   0  0  0  0  0  0  0  0  0  0  0  0
    1.8315    2.2269    0.2384 C   0  0  0  0  0  0  0  0  0  0  0  0
    1.5953    3.1951    1.1815 O   0  0  0  0  0  0  0  0  0  0  0  0
    1.9722    4.3669    0.5854 C   0  0  0  0  0  0  0  0  0  0  0  0
    2.4081    4.0582   -0.6864 C   0  0  0  0  0  0  0  0  0  0  0  0
    2.3271    2.6916   -0.8929 N   0  0  0  0  0  0  0  0  0  0  0  0
    2.8474    5.0113   -1.6812 C   0  0  0  0  0  0  0  0  0  0  0  0
    1.8315    5.5534    1.2175 N   0  0  0  0  0  0  0  0  0  0  0  0
    2.9010    6.2237   -1.4954 O   0  0  0  0  0  0  0  0  0  0  0  0
    3.1890    4.4482   -2.8775 N   0  0  0  0  0  0  0  0  0  0  0  0
    1.3306    5.8369    2.4936 C   0  0  0  0  0  0  0  0  0  0  0  0
    1.2732    4.8970    3.5257 C   0  0  0  0  0  0  0  0  0  0  0  0
    0.6987    5.2140    4.7587 C   0  0  0  0  0  0  0  0  0  0  0  0
    0.2560    6.5119    5.0166 C   0  0  0  0  0  0  0  0  0  0  0  0
    0.2488    7.4457    3.9788 C   0  0  0  0  0  0  0  0  0  0  0  0
    0.7729    7.1044    2.7275 C   0  0  0  0  0  0  0  0  0  0  0  0
   -0.2458    6.9268    6.3511 C   0  0  0  0  0  0  0  0  0  0  0  0
    0.4223    6.5244    7.5065 N   0  0  0  0  0  0  0  0  0  0  0  0
   -1.2452    7.6404    6.3808 O   0  0  0  0  0  0  0  0  0  0  0  0
    1.6926    5.7934    7.6252 C   0  0  0  0  0  0  0  0  0  0  0  0
    1.4743    4.5580    8.5072 C   0  0  0  0  0  0  0  0  0  0  0  0
    1.0002    4.9477    9.8074 O   0  0  0  0  0  0  0  0  0  0  0  0
   -0.2426    5.6690    9.7105 C   0  0  0  0  0  0  0  0  0  0  0  0
   -0.1151    6.9069    8.8119 C   0  0  0  0  0  0  0  0  0  0  0  0
    1.4450   -2.2759   -0.7495 H   0  0  0  0  0  0  0  0  0  0  0  0
    0.5269   -2.8277    1.4999 H   0  0  0  0  0  0  0  0  0  0  0  0
    0.2307   -1.0235    3.1794 H   0  0  0  0  0  0  0  0  0  0  0  0
    0.8273    1.3035    2.6280 H   0  0  0  0  0  0  0  0  0  0  0  0
    2.0759    6.3875    0.6746 H   0  0  0  0  0  0  0  0  0  0  0  0
    3.0928    3.4472   -3.0049 H   0  0  0  0  0  0  0  0  0  0  0  0
    3.4647    5.0413   -3.6447 H   0  0  0  0  0  0  0  0  0  0  0  0
    1.7009    3.9071    3.4028 H   0  0  0  0  0  0  0  0  0  0  0  0
    0.6266    4.4389    5.5143 H   0  0  0  0  0  0  0  0  0  0  0  0
   -0.1676    8.4390    4.1354 H   0  0  0  0  0  0  0  0  0  0  0  0
    0.7356    7.8408    1.9272 H   0  0  0  0  0  0  0  0  0  0  0  0
    2.4005    6.4731    8.1089 H   0  0  0  0  0  0  0  0  0  0  0  0
    2.1331    5.5217    6.6683 H   0  0  0  0  0  0  0  0  0  0  0  0
    0.7499    3.8661    8.0591 H   0  0  0  0  0  0  0  0  0  0  0  0
    2.4163    4.0169    8.6421 H   0  0  0  0  0  0  0  0  0  0  0  0
   -0.5272    5.9715   10.7230 H   0  0  0  0  0  0  0  0  0  0  0  0
   -1.0135    4.9883    9.3309 H   0  0  0  0  0  0  0  0  0  0  0  0
    0.6042    7.6099    9.2488 H   0  0  0  0  0  0  0  0  0  0  0  0
   -1.0782    7.4160    8.7267 H   0  0  0  0  0  0  0  0  0  0  0  0
  1  2  2  0  0  0  0
  1 31  1  0  0  0  0
  2  3  1  0  0  0  0
  2 32  1  0  0  0  0
  3  4  2  0  0  0  0
  3 33  1  0  0  0  0
  4  5  1  0  0  0  0
  4 34  1  0  0  0  0
  5  6  2  0  0  0  0
  5  8  1  0  0  0  0
  6  1  1  0  0  0  0
  6  7  1  0  0  0  0
  8  9  1  0  0  0  0
  9 10  1  0  0  0  0
 10 11  2  0  0  0  0
 10 14  1  0  0  0  0
 11 12  1  0  0  0  0
 11 13  1  0  0  0  0
 12  8  2  0  0  0  0
 13 15  2  0  0  0  0
 13 16  1  0  0  0  0
 14 17  1  0  0  0  0
 14 35  1  0  0  0  0
 16 36  1  0  0  0  0
 16 37  1  0  0  0  0
 17 18  2  0  0  0  0
 18 19  1  0  0  0  0
 18 38  1  0  0  0  0
 19 20  2  0  0  0  0
 19 39  1  0  0  0  0
 20 21  1  0  0  0  0
 20 23  1  0  0  0  0
 21 22  2  0  0  0  0
 21 40  1  0  0  0  0
 22 17  1  0  0  0  0
 22 41  1  0  0  0  0
 23 24  1  0  0  0  0
 23 25  2  0  0  0  0
 24 26  1  0  0  0  0
 26 27  1  0  0  0  0
 26 42  1  0  0  0  0
 26 43  1  0  0  0  0
 27 28  1  0  0  0  0
 27 44  1  0  0  0  0
 27 45  1  0  0  0  0
 28 29  1  0  0  0  0
 29 30  1  0  0  0  0
 29 46  1  0  0  0  0
 29 47  1  0  0  0  0
 30 24  1  0  0  0  0
 30 48  1  0  0  0  0
 30 49  1  0  0  0  0
M  END
>  <Mol_ID>
6632

>  <Formula>
C21H18ClFN4O4

>  <MolWeight>
444.8434232

>  <Cat>
S0437

>  <Name>
SAR-20347

>  <Synonyms>
N/A

>  <Target>
IFN,Interleukins,JAK

>  <Form>
Free base

>  <CAS>
1450881-55-6

>  <URL>
http://www.selleckchem.com/products/sar-20347.html

$$$$
