SAR131675.cdx
 OpenBabel08302521593D

 48 49  0  0  0  0  0  0  0  0999 V2000
  -11.4583    1.5025    0.0751 C   0  0  0  0  0  0  0  0  0  0  0  0
  -10.1634    2.0037    0.0431 C   0  0  0  0  0  0  0  0  0  0  0  0
   -9.9754    3.4142    0.0179 N   0  0  0  0  0  0  0  0  0  0  0  0
  -11.0569    4.3104   -0.1016 C   0  0  0  0  0  0  0  0  0  0  0  0
  -12.3530    3.8850   -0.0059 C   0  0  0  0  0  0  0  0  0  0  0  0
  -12.5968    2.4248    0.1470 C   0  0  0  0  0  0  0  0  0  0  0  0
  -11.6834    0.1200    0.0498 C   0  0  0  0  0  0  0  0  0  0  0  0
  -10.5937   -0.7396    0.0158 C   0  0  0  0  0  0  0  0  0  0  0  0
   -9.3308   -0.1819    0.0379 C   0  0  0  0  0  0  0  0  0  0  0  0
   -9.0979    1.1500    0.0385 N   0  0  0  0  0  0  0  0  0  0  0  0
   -8.5559    3.8126   -0.0343 C   0  0  0  0  0  0  0  0  0  0  0  0
   -8.0698    3.9813   -1.4669 C   0  0  0  0  0  0  0  0  0  0  0  0
  -13.7259    1.9655    0.3131 O   0  0  0  0  0  0  0  0  0  0  0  0
  -13.5059    4.8655   -0.0484 C   0  0  0  0  0  0  0  0  0  0  0  0
  -14.7659    4.3333    0.0793 N   0  0  0  0  0  0  0  0  0  0  0  0
  -13.3271    6.0788   -0.1606 O   0  0  0  0  0  0  0  0  0  0  0  0
  -15.9669    5.1308    0.0672 C   0  0  0  0  0  0  0  0  0  0  0  0
  -10.7751    5.6494   -0.3397 N   0  0  0  0  0  0  0  0  0  0  0  0
   -8.1755   -1.0339    0.1037 C   0  0  0  0  0  0  0  0  0  0  0  0
   -7.2692   -1.8140    0.1487 C   0  0  0  0  0  0  0  0  0  0  0  0
   -6.1803   -2.8239    0.1259 C   0  0  2  0  0  0  0  0  0  0  0  0
   -4.9345   -2.1248    0.0148 O   0  0  0  0  0  0  0  0  0  0  0  0
   -6.3504   -3.6976   -1.1260 C   0  0  0  0  0  0  0  0  0  0  0  0
   -6.1821   -3.6463    1.4460 C   0  0  0  0  0  0  0  0  0  0  0  0
   -5.1757   -4.6691    1.4762 O   0  0  0  0  0  0  0  0  0  0  0  0
   -5.1921   -5.4030    2.7003 C   0  0  0  0  0  0  0  0  0  0  0  0
  -12.6913   -0.2792    0.0624 H   0  0  0  0  0  0  0  0  0  0  0  0
  -10.7377   -1.8151   -0.0128 H   0  0  0  0  0  0  0  0  0  0  0  0
   -8.4013    4.7475    0.5177 H   0  0  0  0  0  0  0  0  0  0  0  0
   -7.9051    3.0999    0.4878 H   0  0  0  0  0  0  0  0  0  0  0  0
   -8.5331    4.8502   -1.9449 H   0  0  0  0  0  0  0  0  0  0  0  0
   -6.9856    4.1332   -1.4782 H   0  0  0  0  0  0  0  0  0  0  0  0
   -8.2963    3.1009   -2.0763 H   0  0  0  0  0  0  0  0  0  0  0  0
  -14.8553    3.3268    0.2257 H   0  0  0  0  0  0  0  0  0  0  0  0
  -16.6205    4.7524   -0.7229 H   0  0  0  0  0  0  0  0  0  0  0  0
  -16.4667    5.0143    1.0323 H   0  0  0  0  0  0  0  0  0  0  0  0
  -15.7538    6.1877   -0.1095 H   0  0  0  0  0  0  0  0  0  0  0  0
   -9.9679    6.0076    0.1535 H   0  0  0  0  0  0  0  0  0  0  0  0
  -11.5916    6.2633   -0.2175 H   0  0  0  0  0  0  0  0  0  0  0  0
   -4.9197   -1.6908   -0.8545 H   0  0  0  0  0  0  0  0  0  0  0  0
   -5.4359   -4.2519   -1.3655 H   0  0  0  0  0  0  0  0  0  0  0  0
   -7.1817   -4.4017   -1.0175 H   0  0  0  0  0  0  0  0  0  0  0  0
   -6.5687   -3.0753   -2.0040 H   0  0  0  0  0  0  0  0  0  0  0  0
   -5.9916   -2.9637    2.2848 H   0  0  0  0  0  0  0  0  0  0  0  0
   -7.1622   -4.1158    1.5977 H   0  0  0  0  0  0  0  0  0  0  0  0
   -5.3967   -4.7633    3.5658 H   0  0  0  0  0  0  0  0  0  0  0  0
   -5.9418   -6.1983    2.6451 H   0  0  0  0  0  0  0  0  0  0  0  0
   -4.2112   -5.8666    2.8438 H   0  0  0  0  0  0  0  0  0  0  0  0
  1  2  2  0  0  0  0
  1  7  1  0  0  0  0
  2  3  1  0  0  0  0
  3  4  1  0  0  0  0
  3 11  1  0  0  0  0
  4  5  2  0  0  0  0
  4 18  1  0  0  0  0
  5  6  1  0  0  0  0
  5 14  1  0  0  0  0
  6  1  1  0  0  0  0
  6 13  2  0  0  0  0
  7  8  2  0  0  0  0
  7 27  1  0  0  0  0
  8  9  1  0  0  0  0
  8 28  1  0  0  0  0
  9 10  2  0  0  0  0
  9 19  1  0  0  0  0
 10  2  1  0  0  0  0
 11 12  1  0  0  0  0
 11 29  1  0  0  0  0
 11 30  1  0  0  0  0
 12 31  1  0  0  0  0
 12 32  1  0  0  0  0
 12 33  1  0  0  0  0
 14 15  1  0  0  0  0
 14 16  2  0  0  0  0
 15 17  1  0  0  0  0
 15 34  1  0  0  0  0
 17 35  1  0  0  0  0
 17 36  1  0  0  0  0
 17 37  1  0  0  0  0
 18 38  1  0  0  0  0
 18 39  1  0  0  0  0
 19 20  3  0  0  0  0
 21 23  1  0  0  0  0
 21 24  1  0  0  0  0
 21 22  1  0  0  0  0
 21 20  1  1  0  0  0
 22 40  1  0  0  0  0
 23 41  1  0  0  0  0
 23 42  1  0  0  0  0
 23 43  1  0  0  0  0
 24 25  1  0  0  0  0
 24 44  1  0  0  0  0
 24 45  1  0  0  0  0
 25 26  1  0  0  0  0
 26 46  1  0  0  0  0
 26 47  1  0  0  0  0
 26 48  1  0  0  0  0
M  END
>  <Mol_ID>
1019

>  <Formula>
C18H22N4O4

>  <MolWeight>
358.39168

>  <Cat>
S2842

>  <Name>
SAR131675

>  <Synonyms>
N/A

>  <Target>
VEGFR

>  <Form>
free base

>  <CAS>
1433953-83-3

>  <URL>
http://selleckchem.com/products/sar131675.html

$$$$
