Sarafloxacin hydrochloride.cdx
 OpenBabel08302521393D

 45 48  0  0  0  0  0  0  0  0999 V2000
    2.4485    0.7288   -0.0085 C   0  0  0  0  0  0  0  0  0  0  0  0
    2.3507   -0.6122    0.0131 C   0  0  0  0  0  0  0  0  0  0  0  0
    1.1908   -1.3981   -0.0074 N   0  0  0  0  0  0  0  0  0  0  0  0
   -0.0589   -0.6780    0.0396 C   0  0  0  0  0  0  0  0  0  0  0  0
   -0.0838    0.7209   -0.0579 C   0  0  0  0  0  0  0  0  0  0  0  0
    1.1808    1.4871   -0.1164 C   0  0  0  0  0  0  0  0  0  0  0  0
   -1.2993   -1.3168    0.2381 C   0  0  0  0  0  0  0  0  0  0  0  0
   -2.5404   -0.6587    0.2079 C   0  0  0  0  0  0  0  0  0  0  0  0
   -2.4966    0.7350    0.0625 C   0  0  0  0  0  0  0  0  0  0  0  0
   -1.2939    1.4255   -0.0522 C   0  0  0  0  0  0  0  0  0  0  0  0
   -3.7065   -1.3822    0.3610 N   0  0  0  0  0  0  0  0  0  0  0  0
   -4.8662   -0.8277    1.0663 C   0  0  0  0  0  0  0  0  0  0  0  0
   -5.3739   -1.8580    2.1050 C   0  0  0  0  0  0  0  0  0  0  0  0
   -5.6641   -3.1935    1.5366 N   0  0  0  0  0  0  0  0  0  0  0  0
   -4.4553   -3.6925    0.8457 C   0  0  0  0  0  0  0  0  0  0  0  0
   -3.9090   -2.7188   -0.2229 C   0  0  0  0  0  0  0  0  0  0  0  0
   -3.6308    1.4520    0.0251 F   0  0  0  0  0  0  0  0  0  0  0  0
    1.1442    2.7052   -0.2379 O   0  0  0  0  0  0  0  0  0  0  0  0
    3.7577    1.4127    0.0590 C   0  0  0  0  0  0  0  0  0  0  0  0
    3.9735    2.6077    0.0405 O   0  0  0  0  0  0  0  0  0  0  0  0
    4.7964    0.5577    0.1777 O   0  0  0  0  0  0  0  0  0  0  0  0
    1.3016   -2.8405   -0.0789 C   0  0  0  0  0  0  0  0  0  0  0  0
    2.3445   -3.5386    0.5638 C   0  0  0  0  0  0  0  0  0  0  0  0
    2.4086   -4.9381    0.5426 C   0  0  0  0  0  0  0  0  0  0  0  0
    1.4102   -5.6644   -0.0887 C   0  0  0  0  0  0  0  0  0  0  0  0
    0.3804   -5.0178   -0.7495 C   0  0  0  0  0  0  0  0  0  0  0  0
    0.3605   -3.6197   -0.7864 C   0  0  0  0  0  0  0  0  0  0  0  0
    1.4454   -7.0024   -0.0669 F   0  0  0  0  0  0  0  0  0  0  0  0
    3.2657   -1.1957    0.0273 H   0  0  0  0  0  0  0  0  0  0  0  0
   -1.3185   -2.3707    0.4943 H   0  0  0  0  0  0  0  0  0  0  0  0
   -1.3140    2.5091   -0.1307 H   0  0  0  0  0  0  0  0  0  0  0  0
   -4.6249    0.0935    1.6083 H   0  0  0  0  0  0  0  0  0  0  0  0
   -5.6561   -0.5989    0.3410 H   0  0  0  0  0  0  0  0  0  0  0  0
   -4.6253   -1.9699    2.9000 H   0  0  0  0  0  0  0  0  0  0  0  0
   -6.2825   -1.4725    2.5789 H   0  0  0  0  0  0  0  0  0  0  0  0
   -6.4015   -3.0810    0.8405 H   0  0  0  0  0  0  0  0  0  0  0  0
   -3.6761   -3.8970    1.5905 H   0  0  0  0  0  0  0  0  0  0  0  0
   -4.6963   -4.6504    0.3717 H   0  0  0  0  0  0  0  0  0  0  0  0
   -4.6348   -2.6344   -1.0417 H   0  0  0  0  0  0  0  0  0  0  0  0
   -3.0009   -3.1413   -0.6655 H   0  0  0  0  0  0  0  0  0  0  0  0
    5.5721    1.1648    0.2224 H   0  0  0  0  0  0  0  0  0  0  0  0
    3.1149   -3.0136    1.1223 H   0  0  0  0  0  0  0  0  0  0  0  0
    3.2224   -5.4626    1.0336 H   0  0  0  0  0  0  0  0  0  0  0  0
   -0.3983   -5.5971   -1.2353 H   0  0  0  0  0  0  0  0  0  0  0  0
   -0.4228   -3.1476   -1.3746 H   0  0  0  0  0  0  0  0  0  0  0  0
  1  2  2  0  0  0  0
  1 19  1  0  0  0  0
  2  3  1  0  0  0  0
  2 29  1  0  0  0  0
  3  4  1  0  0  0  0
  3 22  1  0  0  0  0
  4  5  2  0  0  0  0
  4  7  1  0  0  0  0
  5  6  1  0  0  0  0
  6  1  1  0  0  0  0
  6 18  2  0  0  0  0
  7  8  2  0  0  0  0
  7 30  1  0  0  0  0
  8  9  1  0  0  0  0
  8 11  1  0  0  0  0
  9 10  2  0  0  0  0
  9 17  1  0  0  0  0
 10  5  1  0  0  0  0
 10 31  1  0  0  0  0
 11 12  1  0  0  0  0
 12 13  1  0  0  0  0
 12 32  1  0  0  0  0
 12 33  1  0  0  0  0
 13 14  1  0  0  0  0
 13 34  1  0  0  0  0
 13 35  1  0  0  0  0
 14 15  1  0  0  0  0
 14 36  1  0  0  0  0
 15 16  1  0  0  0  0
 15 37  1  0  0  0  0
 15 38  1  0  0  0  0
 16 11  1  0  0  0  0
 16 39  1  0  0  0  0
 16 40  1  0  0  0  0
 19 20  2  0  0  0  0
 19 21  1  0  0  0  0
 21 41  1  0  0  0  0
 22 23  2  0  0  0  0
 23 24  1  0  0  0  0
 23 42  1  0  0  0  0
 24 25  2  0  0  0  0
 24 43  1  0  0  0  0
 25 26  1  0  0  0  0
 25 28  1  0  0  0  0
 26 27  2  0  0  0  0
 26 44  1  0  0  0  0
 27 22  1  0  0  0  0
 27 45  1  0  0  0  0
M  END
>  <Mol_ID>
8202

>  <Formula>
C20H18ClF2N3O3

>  <MolWeight>
421.8250264

>  <Cat>
S1977

>  <Name>
Sarafloxacin HCl

>  <Synonyms>
A-56620 HCl

>  <Target>
Antibiotics

>  <Form>
Hydrochloride

>  <CAS>
91296-87-6

>  <URL>
http://selleckchem.com/products/sarafloxacin-hydrochloride.html

$$$$
