Sarracenin
 OpenBabel08302521453D

 30 32  0  0  1  0  0  0  0  0999 V2000
    1.0892    0.2702    0.3003 C   0  0  0  0  0  0  0  0  0  0  0  0
    0.1549   -0.7118    0.1363 O   0  0  0  0  0  0  0  0  0  0  0  0
    0.9479    1.2906    0.9593 O   0  0  0  0  0  0  0  0  0  0  0  0
   -1.0601   -0.6084    0.8604 C   0  0  0  0  0  0  0  0  0  0  0  0
    6.1048   -3.3518    0.5499 C   0  0  0  0  0  0  0  0  0  0  0  0
    3.6451   -0.2776    0.4172 C   0  0  1  0  0  0  0  0  0  0  0  0
    4.3089   -1.6381   -0.0147 C   0  0  3  0  0  0  0  0  0  0  0  0
    2.3549   -0.0931   -0.4063 C   0  0  0  0  0  0  0  0  0  0  0  0
    3.4435   -0.3914    1.9412 C   0  0  0  0  0  0  0  0  0  0  0  0
    3.1268   -2.6213    0.0247 C   0  0  3  0  0  0  0  0  0  0  0  0
    5.3258   -2.1245    1.0180 C   0  0  3  0  0  0  0  0  0  0  0  0
    2.1277   -0.9835   -1.3915 C   0  0  0  0  0  0  0  0  0  0  0  0
    3.3321   -1.8850    2.2639 C   0  0  3  0  0  0  0  0  0  0  0  0
    2.4767   -2.5343    1.3097 O   0  0  0  0  0  0  0  0  0  0  0  0
    2.2629   -2.3572   -1.1065 O   0  0  0  0  0  0  0  0  0  0  0  0
    4.6400   -2.4689    2.2290 O   0  0  0  0  0  0  0  0  0  0  0  0
   -0.8678   -0.5426    1.9317 H   0  0  0  0  0  0  0  0  0  0  0  0
   -1.6459    0.2361    0.4989 H   0  0  0  0  0  0  0  0  0  0  0  0
   -1.6239   -1.5292    0.6690 H   0  0  0  0  0  0  0  0  0  0  0  0
    6.6969   -3.1263   -0.3420 H   0  0  0  0  0  0  0  0  0  0  0  0
    6.7748   -3.7046    1.3404 H   0  0  0  0  0  0  0  0  0  0  0  0
    5.4465   -4.1954    0.3187 H   0  0  0  0  0  0  0  0  0  0  0  0
    4.3215    0.5584    0.2006 H   0  0  0  0  0  0  0  0  0  0  0  0
    4.7553   -1.5560   -1.0130 H   0  0  0  0  0  0  0  0  0  0  0  0
    2.5741    0.1546    2.3072 H   0  0  0  0  0  0  0  0  0  0  0  0
    4.3140    0.0378    2.4572 H   0  0  0  0  0  0  0  0  0  0  0  0
    3.4364   -3.6609   -0.0982 H   0  0  0  0  0  0  0  0  0  0  0  0
    6.0455   -1.3293    1.2455 H   0  0  0  0  0  0  0  0  0  0  0  0
    2.7586   -0.9436   -2.2888 H   0  0  0  0  0  0  0  0  0  0  0  0
    2.9229   -2.0294    3.2683 H   0  0  0  0  0  0  0  0  0  0  0  0
  1  2  1  0  0  0  0
  1  3  2  0  0  0  0
  1  8  1  0  0  0  0
  2  4  1  0  0  0  0
  4 17  1  0  0  0  0
  4 18  1  0  0  0  0
  4 19  1  0  0  0  0
  5 20  1  0  0  0  0
  5 21  1  0  0  0  0
  5 22  1  0  0  0  0
  6  7  1  0  0  0  0
  6  8  1  0  0  0  0
  6  9  1  0  0  0  0
  6 23  1  6  0  0  0
  7 10  1  0  0  0  0
  7 11  1  0  0  0  0
  7 24  1  0  0  0  0
  8 12  2  3  0  0  0
  9 25  1  0  0  0  0
  9 26  1  0  0  0  0
 10 14  1  0  0  0  0
 10 15  1  0  0  0  0
 10 27  1  0  0  0  0
 11 16  1  0  0  0  0
 11  5  1  0  0  0  0
 11 28  1  0  0  0  0
 12 15  1  0  0  0  0
 12 29  1  0  0  0  0
 13  9  1  0  0  0  0
 13 14  1  0  0  0  0
 13 16  1  0  0  0  0
 13 30  1  0  0  0  0
M  END
>  <Mol_ID>
9606

>  <Formula>
C11H14O5

>  <MolWeight>
226.22586

>  <Cat>
E2172

>  <Name>
Sarracenin

>  <Synonyms>
N/A

>  <Target>
Apoptosis related

>  <Form>
free base

>  <CAS>
59653-37-1

>  <URL>
https://www.selleckchem.com/products/sarracenin.html

$$$$
