Sasapyrine.cdx
 OpenBabel08302522043D

 29 30  0  0  0  0  0  0  0  0999 V2000
    0.8058    0.1847   -0.7214 C   0  0  0  0  0  0  0  0  0  0  0  0
   -0.0293   -0.7405    0.0952 C   0  0  0  0  0  0  0  0  0  0  0  0
   -1.4015   -0.8698   -0.1745 C   0  0  0  0  0  0  0  0  0  0  0  0
   -2.2187   -1.6578    0.6398 C   0  0  0  0  0  0  0  0  0  0  0  0
   -1.6795   -2.3214    1.7406 C   0  0  0  0  0  0  0  0  0  0  0  0
   -0.3172   -2.2126    2.0143 C   0  0  0  0  0  0  0  0  0  0  0  0
    0.5062   -1.4310    1.1959 C   0  0  0  0  0  0  0  0  0  0  0  0
    0.3228    0.9743   -1.5280 O   0  0  0  0  0  0  0  0  0  0  0  0
    2.1432    0.0766   -0.3976 O   0  0  0  0  0  0  0  0  0  0  0  0
   -2.0341   -0.2399   -1.2174 O   0  0  0  0  0  0  0  0  0  0  0  0
    2.9385    1.2074   -0.0576 C   0  0  0  0  0  0  0  0  0  0  0  0
    4.3081    0.9964    0.1745 C   0  0  0  0  0  0  0  0  0  0  0  0
    5.0261    1.9514    0.9135 C   0  0  0  0  0  0  0  0  0  0  0  0
    4.4195    3.1440    1.3074 C   0  0  0  0  0  0  0  0  0  0  0  0
    3.1022    3.4056    0.9377 C   0  0  0  0  0  0  0  0  0  0  0  0
    2.3514    2.4324    0.2757 C   0  0  0  0  0  0  0  0  0  0  0  0
    5.0148   -0.1647   -0.4282 C   0  0  0  0  0  0  0  0  0  0  0  0
    4.5541   -0.9948   -1.1877 O   0  0  0  0  0  0  0  0  0  0  0  0
    6.3344   -0.1613   -0.1430 O   0  0  0  0  0  0  0  0  0  0  0  0
   -3.2816   -1.7391    0.4246 H   0  0  0  0  0  0  0  0  0  0  0  0
   -2.3216   -2.9136    2.3872 H   0  0  0  0  0  0  0  0  0  0  0  0
    0.1030   -2.7270    2.8759 H   0  0  0  0  0  0  0  0  0  0  0  0
    1.5596   -1.3579    1.4500 H   0  0  0  0  0  0  0  0  0  0  0  0
   -1.3883    0.3319   -1.6808 H   0  0  0  0  0  0  0  0  0  0  0  0
    6.0674    1.7812    1.1823 H   0  0  0  0  0  0  0  0  0  0  0  0
    4.9824    3.8764    1.8808 H   0  0  0  0  0  0  0  0  0  0  0  0
    2.6474    4.3599    1.1940 H   0  0  0  0  0  0  0  0  0  0  0  0
    1.3115    2.6481    0.0485 H   0  0  0  0  0  0  0  0  0  0  0  0
    6.7031   -0.8636   -0.7195 H   0  0  0  0  0  0  0  0  0  0  0  0
  1  2  1  0  0  0  0
  1  8  2  0  0  0  0
  1  9  1  0  0  0  0
  2  3  2  0  0  0  0
  2  7  1  0  0  0  0
  3  4  1  0  0  0  0
  3 10  1  0  0  0  0
  4  5  2  0  0  0  0
  4 20  1  0  0  0  0
  5  6  1  0  0  0  0
  5 21  1  0  0  0  0
  6  7  2  0  0  0  0
  6 22  1  0  0  0  0
  7 23  1  0  0  0  0
  9 11  1  0  0  0  0
 10 24  1  0  0  0  0
 11 12  2  0  0  0  0
 11 16  1  0  0  0  0
 12 13  1  0  0  0  0
 12 17  1  0  0  0  0
 13 14  2  0  0  0  0
 13 25  1  0  0  0  0
 14 15  1  0  0  0  0
 14 26  1  0  0  0  0
 15 16  2  0  0  0  0
 15 27  1  0  0  0  0
 16 28  1  0  0  0  0
 17 18  2  0  0  0  0
 17 19  1  0  0  0  0
 19 29  1  0  0  0  0
M  END
>  <Mol_ID>
1292

>  <Formula>
C14H10O5

>  <MolWeight>
258.2262

>  <Cat>
S4188

>  <Name>
Sasapyrine

>  <Synonyms>
NSC-49171,Salsalate

>  <Target>
Immunology & Inflammation related

>  <Form>
free base

>  <CAS>
552-94-3

>  <URL>
http://selleckchem.com/products/sasapyrine.html

$$$$
