SB-297006
 OpenBabel08302521243D

 43 44  0  0  0  0  0  0  0  0999 V2000
    0.8107    0.9385   -0.2551 O   0  0  0  0  0  0  0  0  0  0  0  0
    1.0306    0.5177    1.9964 O   0  0  0  0  0  0  0  0  0  0  0  0
   -3.8148    1.3612    0.5623 O   0  0  0  0  0  0  0  0  0  0  0  0
    0.1030   -6.2560   -2.2360 O   0  5  0  0  0  0  0  0  0  0  0  0
   -1.4036   -5.3577   -3.5534 O   0  0  0  0  0  0  0  0  0  0  0  0
   -1.7501    0.9198   -0.2967 N   0  0  0  0  0  0  0  0  0  0  0  0
   -0.6931   -5.3553   -2.5374 N   0  3  0  0  0  0  0  0  0  0  0  0
   -1.1706    0.3959    0.9492 C   0  0  1  0  0  0  0  0  0  0  0  0
   -1.4931   -1.0729    1.2579 C   0  0  0  0  0  0  0  0  0  0  0  0
   -1.1685   -2.1072    0.1977 C   0  0  0  0  0  0  0  0  0  0  0  0
    0.3431    0.6159    0.9879 C   0  0  0  0  0  0  0  0  0  0  0  0
   -0.2120   -3.1058    0.4428 C   0  0  0  0  0  0  0  0  0  0  0  0
   -1.9114   -2.1579   -0.9913 C   0  0  0  0  0  0  0  0  0  0  0  0
   -3.0051    1.4856   -0.3476 C   0  0  0  0  0  0  0  0  0  0  0  0
   -0.0379   -4.1630   -0.4581 C   0  0  0  0  0  0  0  0  0  0  0  0
   -1.7324   -3.1976   -1.9059 C   0  0  0  0  0  0  0  0  0  0  0  0
   -0.8113   -4.2111   -1.6246 C   0  0  0  0  0  0  0  0  0  0  0  0
   -3.3357    2.2867   -1.5608 C   0  0  0  0  0  0  0  0  0  0  0  0
    2.1238    1.5070   -0.3009 C   0  0  0  0  0  0  0  0  0  0  0  0
   -2.3560    2.9541   -2.3091 C   0  0  0  0  0  0  0  0  0  0  0  0
   -4.6844    2.4394   -1.9092 C   0  0  0  0  0  0  0  0  0  0  0  0
    1.9570    3.0140   -0.2590 C   0  0  0  0  0  0  0  0  0  0  0  0
   -2.7237    3.7558   -3.3955 C   0  0  0  0  0  0  0  0  0  0  0  0
   -5.0480    3.2359   -2.9993 C   0  0  0  0  0  0  0  0  0  0  0  0
   -4.0675    3.8966   -3.7388 C   0  0  0  0  0  0  0  0  0  0  0  0
   -1.1247    0.9691   -1.0921 H   0  0  0  0  0  0  0  0  0  0  0  0
   -1.5759    1.0147    1.7616 H   0  0  0  0  0  0  0  0  0  0  0  0
   -0.9740   -1.3536    2.1853 H   0  0  0  0  0  0  0  0  0  0  0  0
   -2.5622   -1.1696    1.4853 H   0  0  0  0  0  0  0  0  0  0  0  0
    0.3773   -3.0978    1.3591 H   0  0  0  0  0  0  0  0  0  0  0  0
   -2.6770   -1.4110   -1.1929 H   0  0  0  0  0  0  0  0  0  0  0  0
    0.6860   -4.9419   -0.2287 H   0  0  0  0  0  0  0  0  0  0  0  0
   -2.3445   -3.2201   -2.8047 H   0  0  0  0  0  0  0  0  0  0  0  0
    2.7659    1.1472    0.5102 H   0  0  0  0  0  0  0  0  0  0  0  0
    2.5821    1.2022   -1.2467 H   0  0  0  0  0  0  0  0  0  0  0  0
   -1.3058    2.9004   -2.0411 H   0  0  0  0  0  0  0  0  0  0  0  0
   -5.4592    1.9441   -1.3274 H   0  0  0  0  0  0  0  0  0  0  0  0
    1.4280    3.3198    0.6504 H   0  0  0  0  0  0  0  0  0  0  0  0
    2.9220    3.5225   -0.2989 H   0  0  0  0  0  0  0  0  0  0  0  0
    1.3422    3.3487   -1.1023 H   0  0  0  0  0  0  0  0  0  0  0  0
   -1.9636    4.2881   -3.9639 H   0  0  0  0  0  0  0  0  0  0  0  0
   -6.0975    3.3528   -3.2605 H   0  0  0  0  0  0  0  0  0  0  0  0
   -4.3532    4.5332   -4.5736 H   0  0  0  0  0  0  0  0  0  0  0  0
  1 11  1  0  0  0  0
  1 19  1  0  0  0  0
  2 11  2  0  0  0  0
  3 14  2  0  0  0  0
  4  7  1  0  0  0  0
  5  7  2  0  0  0  0
  6 14  1  0  0  0  0
  6 26  1  0  0  0  0
  7 17  1  0  0  0  0
  8  6  1  0  0  0  0
  8  9  1  0  0  0  0
  8 11  1  0  0  0  0
  8 27  1  1  0  0  0
  9 10  1  0  0  0  0
  9 28  1  0  0  0  0
  9 29  1  0  0  0  0
 10 12  2  0  0  0  0
 10 13  1  0  0  0  0
 12 15  1  0  0  0  0
 12 30  1  0  0  0  0
 13 16  2  0  0  0  0
 13 31  1  0  0  0  0
 14 18  1  0  0  0  0
 15 17  2  0  0  0  0
 15 32  1  0  0  0  0
 16 17  1  0  0  0  0
 16 33  1  0  0  0  0
 18 20  2  0  0  0  0
 18 21  1  0  0  0  0
 19 22  1  0  0  0  0
 19 34  1  0  0  0  0
 19 35  1  0  0  0  0
 20 23  1  0  0  0  0
 20 36  1  0  0  0  0
 21 24  2  0  0  0  0
 21 37  1  0  0  0  0
 22 38  1  0  0  0  0
 22 39  1  0  0  0  0
 22 40  1  0  0  0  0
 23 25  2  0  0  0  0
 23 41  1  0  0  0  0
 24 25  1  0  0  0  0
 24 42  1  0  0  0  0
 25 43  1  0  0  0  0
M  CHG  2   4  -1   7   1
M  END
>  <Mol_ID>
4967

>  <Formula>
C18H18N2O5

>  <MolWeight>
342.34592

>  <Cat>
S0129

>  <Name>
SB-297006

>  <Synonyms>
N/A

>  <Target>
CCR

>  <Form>
Free Base

>  <CAS>
58816-69-6

>  <URL>
http://www.selleckchem.com/products/sb297006.html

$$$$
