SB-200646A
 OpenBabel08302521323D

 34 36  0  0  0  0  0  0  0  0999 V2000
   -0.2127   -0.9625   -0.0284 C   0  0  0  0  0  0  0  0  0  0  0  0
    0.1487    0.3827   -0.0183 C   0  0  0  0  0  0  0  0  0  0  0  0
   -1.5764   -1.3082   -0.0419 C   0  0  0  0  0  0  0  0  0  0  0  0
    0.9769   -1.7378   -0.0241 C   0  0  0  0  0  0  0  0  0  0  0  0
    1.5293    0.4131   -0.0228 N   0  0  0  0  0  0  0  0  0  0  0  0
   -0.8198    1.3996   -0.0104 C   0  0  0  0  0  0  0  0  0  0  0  0
   -2.5669   -0.3215   -0.0229 C   0  0  0  0  0  0  0  0  0  0  0  0
    2.0383   -0.8672   -0.0204 C   0  0  0  0  0  0  0  0  0  0  0  0
    2.3493    1.6022   -0.0342 C   0  0  0  0  0  0  0  0  0  0  0  0
   -2.1772    1.0235   -0.0117 C   0  0  0  0  0  0  0  0  0  0  0  0
   -3.9527   -0.6301   -0.0416 N   0  0  0  0  0  0  0  0  0  0  0  0
   -4.4925   -1.8993    0.0743 C   0  0  0  0  0  0  0  0  0  0  0  0
   -5.8549   -1.9156   -0.1943 N   0  0  0  0  0  0  0  0  0  0  0  0
   -3.8629   -2.9201    0.3329 O   0  0  0  0  0  0  0  0  0  0  0  0
   -6.5702   -3.1354   -0.1251 C   0  0  0  0  0  0  0  0  0  0  0  0
   -7.4721   -3.4619   -1.1340 C   0  0  0  0  0  0  0  0  0  0  0  0
   -6.3842   -4.0637    0.9001 C   0  0  0  0  0  0  0  0  0  0  0  0
   -8.1095   -4.7044   -1.1063 C   0  0  0  0  0  0  0  0  0  0  0  0
   -7.0247   -5.2570    0.9760 N   0  0  0  0  0  0  0  0  0  0  0  0
   -7.8589   -5.5570   -0.0389 C   0  0  0  0  0  0  0  0  0  0  0  0
   -1.8083   -2.3651   -0.0711 H   0  0  0  0  0  0  0  0  0  0  0  0
    1.0392   -2.8173   -0.0209 H   0  0  0  0  0  0  0  0  0  0  0  0
   -0.5384    2.4479   -0.0031 H   0  0  0  0  0  0  0  0  0  0  0  0
    3.1008   -1.0514   -0.0112 H   0  0  0  0  0  0  0  0  0  0  0  0
    2.1333    2.1589   -0.9490 H   0  0  0  0  0  0  0  0  0  0  0  0
    2.1160    2.1959    0.8526 H   0  0  0  0  0  0  0  0  0  0  0  0
    3.4046    1.3161   -0.0185 H   0  0  0  0  0  0  0  0  0  0  0  0
   -2.9244    1.8134   -0.0036 H   0  0  0  0  0  0  0  0  0  0  0  0
   -4.5979    0.1463   -0.0032 H   0  0  0  0  0  0  0  0  0  0  0  0
   -6.1570   -1.2526   -0.8932 H   0  0  0  0  0  0  0  0  0  0  0  0
   -7.6330   -2.8008   -1.9789 H   0  0  0  0  0  0  0  0  0  0  0  0
   -5.7038   -3.8692    1.7276 H   0  0  0  0  0  0  0  0  0  0  0  0
   -8.7640   -5.0143   -1.9118 H   0  0  0  0  0  0  0  0  0  0  0  0
   -8.3304   -6.5331    0.0234 H   0  0  0  0  0  0  0  0  0  0  0  0
  1  2  1  0  0  0  0
  1  3  2  0  0  0  0
  1  4  1  0  0  0  0
  2  5  1  0  0  0  0
  2  6  2  0  0  0  0
  3  7  1  0  0  0  0
  3 21  1  0  0  0  0
  4  8  2  0  0  0  0
  4 22  1  0  0  0  0
  5  9  1  0  0  0  0
  5  8  1  0  0  0  0
  6 10  1  0  0  0  0
  6 23  1  0  0  0  0
  7 11  1  0  0  0  0
  7 10  2  0  0  0  0
  8 24  1  0  0  0  0
  9 25  1  0  0  0  0
  9 26  1  0  0  0  0
  9 27  1  0  0  0  0
 10 28  1  0  0  0  0
 11 12  1  0  0  0  0
 11 29  1  0  0  0  0
 12 13  1  0  0  0  0
 12 14  2  0  0  0  0
 13 15  1  0  0  0  0
 13 30  1  0  0  0  0
 15 16  2  0  0  0  0
 15 17  1  0  0  0  0
 16 18  1  0  0  0  0
 16 31  1  0  0  0  0
 17 19  2  0  0  0  0
 17 32  1  0  0  0  0
 18 20  2  0  0  0  0
 18 33  1  0  0  0  0
 19 20  1  0  0  0  0
 20 34  1  0  0  0  0
M  END
>  <Mol_ID>
6191

>  <Formula>
C15H15ClN4O

>  <MolWeight>
302.7588

>  <Cat>
S0893

>  <Name>
SB-200646A

>  <Synonyms>
N/A

>  <Target>
5-HT Receptor

>  <Form>
hydrochloride

>  <CAS>
143797-62-0

>  <URL>
http://www.selleckchem.com/products/sb-200646a.html

$$$$
