SB-3CT.cdx
 OpenBabel08302519583D

 34 36  0  0  0  0  0  0  0  0999 V2000
    1.5853    0.2524    1.3928 C   0  0  0  0  0  0  0  0  0  0  0  0
    0.9149   -0.9610    1.5438 C   0  0  0  0  0  0  0  0  0  0  0  0
   -0.4317   -1.0587    1.1987 C   0  0  0  0  0  0  0  0  0  0  0  0
   -1.1138    0.0614    0.7192 C   0  0  0  0  0  0  0  0  0  0  0  0
   -0.4689    1.2993    0.6502 C   0  0  0  0  0  0  0  0  0  0  0  0
    0.8944    1.3806    0.9456 C   0  0  0  0  0  0  0  0  0  0  0  0
   -1.0739    2.4731    0.2536 O   0  0  0  0  0  0  0  0  0  0  0  0
   -2.4005    2.7054    0.5527 C   0  0  0  0  0  0  0  0  0  0  0  0
   -3.0601    2.2147    1.6835 C   0  0  0  0  0  0  0  0  0  0  0  0
   -4.4268    2.4483    1.8615 C   0  0  0  0  0  0  0  0  0  0  0  0
   -5.1193    3.2375    0.9381 C   0  0  0  0  0  0  0  0  0  0  0  0
   -4.4498    3.7971   -0.1543 C   0  0  0  0  0  0  0  0  0  0  0  0
   -3.0892    3.5303   -0.3421 C   0  0  0  0  0  0  0  0  0  0  0  0
   -6.8829    3.4526    1.1093 S   0  0  0  0  0  0  0  0  0  0  0  0
   -7.1099    4.1834    2.7231 C   0  0  0  0  0  0  0  0  0  0  0  0
   -8.5906    4.3957    2.8603 C   0  0  3  0  0  0  0  0  0  0  0  0
   -9.1338    5.0501    4.3758 S   0  0  0  0  0  0  0  0  0  0  0  0
   -9.4448    3.4917    3.7098 C   0  0  0  0  0  0  0  0  0  0  0  0
   -7.2895    4.4259    0.1117 O   0  0  0  0  0  0  0  0  0  0  0  0
   -7.4510    2.1206    1.1196 O   0  0  0  0  0  0  0  0  0  0  0  0
    2.6443    0.3208    1.6296 H   0  0  0  0  0  0  0  0  0  0  0  0
    1.4444   -1.8333    1.9187 H   0  0  0  0  0  0  0  0  0  0  0  0
   -0.9537   -2.0061    1.3036 H   0  0  0  0  0  0  0  0  0  0  0  0
   -2.1536   -0.0452    0.4236 H   0  0  0  0  0  0  0  0  0  0  0  0
    1.4203    2.3251    0.8331 H   0  0  0  0  0  0  0  0  0  0  0  0
   -2.5314    1.6145    2.4196 H   0  0  0  0  0  0  0  0  0  0  0  0
   -4.9387    1.9819    2.6990 H   0  0  0  0  0  0  0  0  0  0  0  0
   -4.9772    4.4111   -0.8820 H   0  0  0  0  0  0  0  0  0  0  0  0
   -2.5708    3.9479   -1.2015 H   0  0  0  0  0  0  0  0  0  0  0  0
   -6.7166    3.4927    3.4749 H   0  0  0  0  0  0  0  0  0  0  0  0
   -6.5644    5.1300    2.7460 H   0  0  0  0  0  0  0  0  0  0  0  0
   -9.0465    4.8726    1.9996 H   0  0  0  0  0  0  0  0  0  0  0  0
  -10.4692    3.3114    3.4033 H   0  0  0  0  0  0  0  0  0  0  0  0
   -8.9930    2.6625    4.2400 H   0  0  0  0  0  0  0  0  0  0  0  0
  1  2  2  0  0  0  0
  1 21  1  0  0  0  0
  2  3  1  0  0  0  0
  2 22  1  0  0  0  0
  3  4  2  0  0  0  0
  3 23  1  0  0  0  0
  4  5  1  0  0  0  0
  4 24  1  0  0  0  0
  5  6  2  0  0  0  0
  5  7  1  0  0  0  0
  6  1  1  0  0  0  0
  6 25  1  0  0  0  0
  7  8  1  0  0  0  0
  8  9  2  0  0  0  0
  9 10  1  0  0  0  0
  9 26  1  0  0  0  0
 10 11  2  0  0  0  0
 10 27  1  0  0  0  0
 11 12  1  0  0  0  0
 11 14  1  0  0  0  0
 12 13  2  0  0  0  0
 12 28  1  0  0  0  0
 13  8  1  0  0  0  0
 13 29  1  0  0  0  0
 14 15  1  0  0  0  0
 14 19  2  0  0  0  0
 14 20  2  0  0  0  0
 15 16  1  0  0  0  0
 15 30  1  0  0  0  0
 15 31  1  0  0  0  0
 16 17  1  0  0  0  0
 16 32  1  0  0  0  0
 17 18  1  0  0  0  0
 18 16  1  0  0  0  0
 18 33  1  0  0  0  0
 18 34  1  0  0  0  0
M  END
>  <Mol_ID>
2449

>  <Formula>
C15H14O3S2

>  <MolWeight>
306.39986

>  <Cat>
S7430

>  <Name>
SB-3CT

>  <Synonyms>
N/A

>  <Target>
MMP

>  <Form>
free base

>  <CAS>
292605-14-2

>  <URL>
http://selleckchem.com/products/sb-3ct.html

$$$$
