SB203580.cdx
 OpenBabel08302520423D

 43 46  0  0  0  0  0  0  0  0999 V2000
   -1.3148   -0.1962   -0.0501 N   0  0  0  0  0  0  0  0  0  0  0  0
   -0.7049    0.9047    0.4260 C   0  0  0  0  0  0  0  0  0  0  0  0
    0.6509    1.0816    0.3456 C   0  0  0  0  0  0  0  0  0  0  0  0
    1.4687    0.0579   -0.1483 C   0  0  0  0  0  0  0  0  0  0  0  0
    0.8474   -1.0761   -0.6670 C   0  0  0  0  0  0  0  0  0  0  0  0
   -0.5351   -1.1440   -0.6019 C   0  0  0  0  0  0  0  0  0  0  0  0
    2.9199    0.1472   -0.0233 C   0  0  0  0  0  0  0  0  0  0  0  0
    3.7531    0.6994    0.9445 C   0  0  0  0  0  0  0  0  0  0  0  0
    5.0780    0.5417    0.6023 N   0  0  0  0  0  0  0  0  0  0  0  0
    5.0971   -0.0982   -0.5390 C   0  0  0  0  0  0  0  0  0  0  0  0
    3.8037   -0.3649   -0.9514 N   0  0  0  0  0  0  0  0  0  0  0  0
    3.3302    1.3198    2.1933 C   0  0  0  0  0  0  0  0  0  0  0  0
    2.1412    0.9122    2.8367 C   0  0  0  0  0  0  0  0  0  0  0  0
    1.7089    1.5013    4.0173 C   0  0  0  0  0  0  0  0  0  0  0  0
    2.5129    2.4396    4.6116 C   0  0  0  0  0  0  0  0  0  0  0  0
    3.7031    2.8507    4.0252 C   0  0  0  0  0  0  0  0  0  0  0  0
    4.1009    2.3007    2.8019 C   0  0  0  0  0  0  0  0  0  0  0  0
    2.1562    2.9311    5.8122 F   0  0  0  0  0  0  0  0  0  0  0  0
    6.2737   -0.5340   -1.2984 C   0  0  0  0  0  0  0  0  0  0  0  0
    7.4575   -0.8530   -0.6196 C   0  0  0  0  0  0  0  0  0  0  0  0
    8.5813   -1.3092   -1.3171 C   0  0  0  0  0  0  0  0  0  0  0  0
    8.5391   -1.4543   -2.7092 C   0  0  0  0  0  0  0  0  0  0  0  0
    7.3728   -1.1043   -3.3918 C   0  0  0  0  0  0  0  0  0  0  0  0
    6.2466   -0.6518   -2.6927 C   0  0  0  0  0  0  0  0  0  0  0  0
    9.9839   -2.0689   -3.6083 S   0  0  3  0  0  0  0  0  0  0  0  0
   10.0799   -3.7105   -2.8462 C   0  0  0  0  0  0  0  0  0  0  0  0
    9.5325   -2.2653   -5.0278 O   0  0  0  0  0  0  0  0  0  0  0  0
   -1.3556    1.6242    0.9013 H   0  0  0  0  0  0  0  0  0  0  0  0
    1.0766    1.9702    0.8243 H   0  0  0  0  0  0  0  0  0  0  0  0
    1.4127   -1.9076   -1.0649 H   0  0  0  0  0  0  0  0  0  0  0  0
   -1.0630   -2.0174   -0.9994 H   0  0  0  0  0  0  0  0  0  0  0  0
    3.5547   -0.8556   -1.7889 H   0  0  0  0  0  0  0  0  0  0  0  0
    1.4952    0.1540    2.4024 H   0  0  0  0  0  0  0  0  0  0  0  0
    0.7656    1.2004    4.4619 H   0  0  0  0  0  0  0  0  0  0  0  0
    4.3279    3.5755    4.5290 H   0  0  0  0  0  0  0  0  0  0  0  0
    5.0316    2.6280    2.3388 H   0  0  0  0  0  0  0  0  0  0  0  0
    7.4980   -0.7651    0.4651 H   0  0  0  0  0  0  0  0  0  0  0  0
    9.4783   -1.5602   -0.7587 H   0  0  0  0  0  0  0  0  0  0  0  0
    7.3231   -1.1922   -4.4769 H   0  0  0  0  0  0  0  0  0  0  0  0
    5.3598   -0.3892   -3.2603 H   0  0  0  0  0  0  0  0  0  0  0  0
    9.1306   -4.2386   -2.9657 H   0  0  0  0  0  0  0  0  0  0  0  0
   10.8703   -4.2761   -3.3455 H   0  0  0  0  0  0  0  0  0  0  0  0
   10.3304   -3.6181   -1.7872 H   0  0  0  0  0  0  0  0  0  0  0  0
  1  2  2  0  0  0  0
  2  3  1  0  0  0  0
  2 28  1  0  0  0  0
  3  4  2  0  0  0  0
  3 29  1  0  0  0  0
  4  5  1  0  0  0  0
  4  7  1  0  0  0  0
  5  6  2  0  0  0  0
  5 30  1  0  0  0  0
  6  1  1  0  0  0  0
  6 31  1  0  0  0  0
  7  8  2  0  0  0  0
  8  9  1  0  0  0  0
  8 12  1  0  0  0  0
  9 10  2  0  0  0  0
 10 11  1  0  0  0  0
 10 19  1  0  0  0  0
 11  7  1  0  0  0  0
 11 32  1  0  0  0  0
 12 13  2  0  0  0  0
 13 14  1  0  0  0  0
 13 33  1  0  0  0  0
 14 15  2  0  0  0  0
 14 34  1  0  0  0  0
 15 16  1  0  0  0  0
 15 18  1  0  0  0  0
 16 17  2  0  0  0  0
 16 35  1  0  0  0  0
 17 12  1  0  0  0  0
 17 36  1  0  0  0  0
 19 20  2  0  0  0  0
 20 21  1  0  0  0  0
 20 37  1  0  0  0  0
 21 22  2  0  0  0  0
 21 38  1  0  0  0  0
 22 23  1  0  0  0  0
 22 25  1  0  0  0  0
 23 24  2  0  0  0  0
 23 39  1  0  0  0  0
 24 19  1  0  0  0  0
 24 40  1  0  0  0  0
 25 26  1  0  0  0  0
 25 27  2  0  0  0  0
 26 41  1  0  0  0  0
 26 42  1  0  0  0  0
 26 43  1  0  0  0  0
M  END
>  <Mol_ID>
45

>  <Formula>
C21H16FN3OS

>  <MolWeight>
377.4346432

>  <Cat>
S1076

>  <Name>
Adezmapimod (SB203580)

>  <Synonyms>
RWJ 64809, PB 203580

>  <Target>
Mitophagy,p38 MAPK

>  <Form>
Free Base

>  <CAS>
152121-47-6

>  <URL>
http://selleckchem.com/products/SB-203580.html

$$$$
