SB225002.cdx
 OpenBabel08302519583D

 31 32  0  0  0  0  0  0  0  0999 V2000
   -1.1261    1.2253   -0.0334 C   0  0  0  0  0  0  0  0  0  0  0  0
   -1.9161    0.0907   -0.2064 C   0  0  0  0  0  0  0  0  0  0  0  0
   -1.3191   -1.1712   -0.1843 C   0  0  0  0  0  0  0  0  0  0  0  0
    0.0616   -1.3411    0.0171 C   0  0  0  0  0  0  0  0  0  0  0  0
    0.8432   -0.1783    0.1474 C   0  0  0  0  0  0  0  0  0  0  0  0
    0.2555    1.0975    0.1347 C   0  0  0  0  0  0  0  0  0  0  0  0
    0.6474   -2.6354    0.1056 N   0  0  0  0  0  0  0  0  0  0  0  0
   -0.0534   -3.8268    0.2181 C   0  0  0  0  0  0  0  0  0  0  0  0
    0.7909   -4.9152    0.3812 N   0  0  0  0  0  0  0  0  0  0  0  0
    0.2428   -6.2247    0.4858 C   0  0  0  0  0  0  0  0  0  0  0  0
    0.6441   -7.0855    1.5155 C   0  0  0  0  0  0  0  0  0  0  0  0
    0.0622   -8.3500    1.6468 C   0  0  0  0  0  0  0  0  0  0  0  0
   -0.9049   -8.7732    0.7334 C   0  0  0  0  0  0  0  0  0  0  0  0
   -1.2953   -7.9327   -0.3063 C   0  0  0  0  0  0  0  0  0  0  0  0
   -0.7252   -6.6642   -0.4292 C   0  0  0  0  0  0  0  0  0  0  0  0
   -1.2744   -3.9355    0.2265 O   0  0  0  0  0  0  0  0  0  0  0  0
   -1.7585    2.5462   -0.0291 N   0  3  0  0  0  0  0  0  0  0  0  0
   -2.9833    2.6040   -0.1927 O   0  0  0  0  0  0  0  0  0  0  0  0
   -1.0257    3.5343    0.1409 O   0  5  0  0  0  0  0  0  0  0  0  0
    2.1957   -0.1779    0.3296 O   0  0  0  0  0  0  0  0  0  0  0  0
    1.8994   -6.5312    2.8293 Br  0  0  0  0  0  0  0  0  0  0  0  0
   -2.9903    0.1565   -0.3547 H   0  0  0  0  0  0  0  0  0  0  0  0
   -1.9858   -2.0136   -0.3468 H   0  0  0  0  0  0  0  0  0  0  0  0
    0.8883    1.9736    0.2654 H   0  0  0  0  0  0  0  0  0  0  0  0
    1.6481   -2.7259    0.0899 H   0  0  0  0  0  0  0  0  0  0  0  0
    1.5841   -4.7481    0.9876 H   0  0  0  0  0  0  0  0  0  0  0  0
    0.3383   -9.0058    2.4683 H   0  0  0  0  0  0  0  0  0  0  0  0
   -1.3635   -9.7535    0.8385 H   0  0  0  0  0  0  0  0  0  0  0  0
   -2.0549   -8.2546   -1.0149 H   0  0  0  0  0  0  0  0  0  0  0  0
   -1.0545   -6.0183   -1.2405 H   0  0  0  0  0  0  0  0  0  0  0  0
    2.5376   -1.0789    0.3173 H   0  0  0  0  0  0  0  0  0  0  0  0
  1  2  2  0  0  0  0
  1 17  1  0  0  0  0
  2  3  1  0  0  0  0
  2 22  1  0  0  0  0
  3  4  2  0  0  0  0
  3 23  1  0  0  0  0
  4  5  1  0  0  0  0
  4  7  1  0  0  0  0
  5  6  2  0  0  0  0
  5 20  1  0  0  0  0
  6  1  1  0  0  0  0
  6 24  1  0  0  0  0
  7  8  1  0  0  0  0
  7 25  1  0  0  0  0
  8  9  1  0  0  0  0
  8 16  2  0  0  0  0
  9 10  1  0  0  0  0
  9 26  1  0  0  0  0
 10 11  2  0  0  0  0
 11 12  1  0  0  0  0
 11 21  1  0  0  0  0
 12 13  2  0  0  0  0
 12 27  1  0  0  0  0
 13 14  1  0  0  0  0
 13 28  1  0  0  0  0
 14 15  2  0  0  0  0
 14 29  1  0  0  0  0
 15 10  1  0  0  0  0
 15 30  1  0  0  0  0
 17 18  2  0  0  0  0
 17 19  1  0  0  0  0
 20 31  1  0  0  0  0
M  CHG  2  17   1  19  -1
M  END
>  <Mol_ID>
2499

>  <Formula>
C13H10BrN3O4

>  <MolWeight>
352.1402

>  <Cat>
S7651

>  <Name>
SB225002

>  <Synonyms>
N/A

>  <Target>
CXCR

>  <Form>
free base

>  <CAS>
182498-32-4

>  <URL>
http://selleckchem.com/products/sb225002.html

$$$$
