SB239063.cdx
 OpenBabel08302519563D

 48 51  0  0  0  0  0  0  0  0999 V2000
   -6.7577   -2.0540    8.3503 C   0  0  0  0  0  0  0  0  0  0  0  0
   -5.5505   -2.4075    8.9407 C   0  0  0  0  0  0  0  0  0  0  0  0
   -4.4273   -2.6735    8.1679 C   0  0  0  0  0  0  0  0  0  0  0  0
   -4.5076   -2.5603    6.7782 C   0  0  0  0  0  0  0  0  0  0  0  0
   -5.7117   -2.1856    6.1606 C   0  0  0  0  0  0  0  0  0  0  0  0
   -6.8465   -1.9655    6.9594 C   0  0  0  0  0  0  0  0  0  0  0  0
   -5.7577   -2.0416    4.7110 C   0  0  0  0  0  0  0  0  0  0  0  0
   -5.4716   -2.4947   10.2761 F   0  0  0  0  0  0  0  0  0  0  0  0
   -5.0977   -2.9342    3.9090 N   0  0  0  0  0  0  0  0  0  0  0  0
   -5.3403   -2.5384    2.6868 C   0  0  0  0  0  0  0  0  0  0  0  0
   -6.1606   -1.4391    2.6422 N   0  0  0  0  0  0  0  0  0  0  0  0
   -6.3599   -1.0247    3.9623 C   0  0  0  0  0  0  0  0  0  0  0  0
   -6.6184   -0.8095    1.3903 C   0  0  1  0  0  0  0  0  0  0  0  0
   -5.6750    0.3382    0.9850 C   0  0  0  0  0  0  0  0  0  0  0  0
   -5.9861    0.9262   -0.3918 C   0  0  0  0  0  0  0  0  0  0  0  0
   -6.0472   -0.1622   -1.4590 C   0  0  1  0  0  0  0  0  0  0  0  0
   -7.1273   -1.1792   -1.1044 C   0  0  0  0  0  0  0  0  0  0  0  0
   -6.8256   -1.8295    0.2408 C   0  0  0  0  0  0  0  0  0  0  0  0
   -6.3029    0.4110   -2.7327 O   0  0  0  0  0  0  0  0  0  0  0  0
   -7.0011    0.2270    4.3919 C   0  0  0  0  0  0  0  0  0  0  0  0
   -7.9628    0.6997    3.5848 N   0  0  0  0  0  0  0  0  0  0  0  0
   -8.5460    1.8468    3.9565 C   0  0  0  0  0  0  0  0  0  0  0  0
   -8.2933    2.5254    5.0866 N   0  0  0  0  0  0  0  0  0  0  0  0
   -7.3295    2.0188    5.8669 C   0  0  0  0  0  0  0  0  0  0  0  0
   -6.6247    0.8849    5.5479 C   0  0  0  0  0  0  0  0  0  0  0  0
   -9.4311    2.3602    3.0341 O   0  0  0  0  0  0  0  0  0  0  0  0
   -9.8139    3.6962    3.3321 C   0  0  0  0  0  0  0  0  0  0  0  0
   -7.6229   -1.8472    8.9737 H   0  0  0  0  0  0  0  0  0  0  0  0
   -3.4980   -2.9622    8.6498 H   0  0  0  0  0  0  0  0  0  0  0  0
   -3.6261   -2.7629    6.1712 H   0  0  0  0  0  0  0  0  0  0  0  0
   -7.8005   -1.7100    6.5060 H   0  0  0  0  0  0  0  0  0  0  0  0
   -4.9367   -3.0233    1.8100 H   0  0  0  0  0  0  0  0  0  0  0  0
   -7.6136   -0.4017    1.5855 H   0  0  0  0  0  0  0  0  0  0  0  0
   -4.6376   -0.0239    0.9841 H   0  0  0  0  0  0  0  0  0  0  0  0
   -5.7196    1.1429    1.7298 H   0  0  0  0  0  0  0  0  0  0  0  0
   -5.2258    1.6686   -0.6619 H   0  0  0  0  0  0  0  0  0  0  0  0
   -6.9376    1.4731   -0.3641 H   0  0  0  0  0  0  0  0  0  0  0  0
   -5.0741   -0.6624   -1.5248 H   0  0  0  0  0  0  0  0  0  0  0  0
   -8.1132   -0.6979   -1.0852 H   0  0  0  0  0  0  0  0  0  0  0  0
   -7.1839   -1.9455   -1.8871 H   0  0  0  0  0  0  0  0  0  0  0  0
   -5.9294   -2.4438    0.0930 H   0  0  0  0  0  0  0  0  0  0  0  0
   -7.6349   -2.5222    0.5038 H   0  0  0  0  0  0  0  0  0  0  0  0
   -7.2515    0.6117   -2.8019 H   0  0  0  0  0  0  0  0  0  0  0  0
   -7.1224    2.5700    6.7796 H   0  0  0  0  0  0  0  0  0  0  0  0
   -5.8281    0.5406    6.1927 H   0  0  0  0  0  0  0  0  0  0  0  0
  -10.5138    3.7161    4.1739 H   0  0  0  0  0  0  0  0  0  0  0  0
   -8.9517    4.3447    3.5219 H   0  0  0  0  0  0  0  0  0  0  0  0
  -10.3313    4.0978    2.4535 H   0  0  0  0  0  0  0  0  0  0  0  0
  1  2  2  0  0  0  0
  1 28  1  0  0  0  0
  2  3  1  0  0  0  0
  2  8  1  0  0  0  0
  3  4  2  0  0  0  0
  3 29  1  0  0  0  0
  4  5  1  0  0  0  0
  4 30  1  0  0  0  0
  5  6  2  0  0  0  0
  5  7  1  0  0  0  0
  6  1  1  0  0  0  0
  6 31  1  0  0  0  0
  7  9  1  0  0  0  0
  9 10  2  0  0  0  0
 10 11  1  0  0  0  0
 10 32  1  0  0  0  0
 11 12  1  0  0  0  0
 12  7  2  0  0  0  0
 12 20  1  0  0  0  0
 13 14  1  0  0  0  0
 13 33  1  1  0  0  0
 13 11  1  0  0  0  0
 14 15  1  0  0  0  0
 14 34  1  0  0  0  0
 14 35  1  0  0  0  0
 15 16  1  0  0  0  0
 15 36  1  0  0  0  0
 15 37  1  0  0  0  0
 16 17  1  0  0  0  0
 16 19  1  0  0  0  0
 16 38  1  6  0  0  0
 17 18  1  0  0  0  0
 17 39  1  0  0  0  0
 17 40  1  0  0  0  0
 18 13  1  0  0  0  0
 18 41  1  0  0  0  0
 18 42  1  0  0  0  0
 19 43  1  0  0  0  0
 20 21  2  0  0  0  0
 21 22  1  0  0  0  0
 22 23  2  0  0  0  0
 22 26  1  0  0  0  0
 23 24  1  0  0  0  0
 24 25  2  0  0  0  0
 24 44  1  0  0  0  0
 25 20  1  0  0  0  0
 25 45  1  0  0  0  0
 26 27  1  0  0  0  0
 27 46  1  0  0  0  0
 27 47  1  0  0  0  0
 27 48  1  0  0  0  0
M  END
>  <Mol_ID>
2202

>  <Formula>
C20H21FN4O2

>  <MolWeight>
368.4047432

>  <Cat>
S7741

>  <Name>
SB239063

>  <Synonyms>
N/A

>  <Target>
p38 MAPK

>  <Form>
free base

>  <CAS>
193551-21-2

>  <URL>
http://selleckchem.com/products/sb239063.html

$$$$
