SB273005.cdx
 OpenBabel08302519593D

 56 58  0  0  0  0  0  0  0  0999 V2000
   -4.3101   -6.6838    0.9409 C   0  0  0  0  0  0  0  0  0  0  0  0
   -5.4868   -6.1383    0.4474 C   0  0  0  0  0  0  0  0  0  0  0  0
   -5.5678   -4.7588    0.2562 C   0  0  0  0  0  0  0  0  0  0  0  0
   -4.4849   -3.9479    0.5938 C   0  0  0  0  0  0  0  0  0  0  0  0
   -3.3488   -4.5558    1.1043 C   0  0  0  0  0  0  0  0  0  0  0  0
   -3.2585   -5.9048    1.2392 N   0  0  0  0  0  0  0  0  0  0  0  0
   -4.2347   -8.0716    1.1476 N   0  0  0  0  0  0  0  0  0  0  0  0
   -2.9356   -8.5234    1.6284 C   0  0  0  0  0  0  0  0  0  0  0  0
   -2.1767   -3.8468    1.7149 C   0  0  0  0  0  0  0  0  0  0  0  0
   -1.8629   -2.3893    1.4020 C   0  0  0  0  0  0  0  0  0  0  0  0
   -2.7705   -1.4790    2.0323 O   0  0  0  0  0  0  0  0  0  0  0  0
   -2.3905   -0.1640    1.9782 C   0  0  0  0  0  0  0  0  0  0  0  0
   -1.2317    0.3306    1.3793 C   0  0  0  0  0  0  0  0  0  0  0  0
   -0.9731    1.7028    1.3246 C   0  0  0  0  0  0  0  0  0  0  0  0
   -1.8774    2.6289    1.8498 C   0  0  0  0  0  0  0  0  0  0  0  0
   -2.9925    2.1395    2.5555 C   0  0  0  0  0  0  0  0  0  0  0  0
   -3.2486    0.7545    2.5957 C   0  0  0  0  0  0  0  0  0  0  0  0
   -1.6117    4.1133    1.6803 C   0  0  0  0  0  0  0  0  0  0  0  0
   -2.7385    4.9635    1.0598 C   0  0  2  0  0  0  0  0  0  0  0  0
   -4.0058    5.1162    1.8945 C   0  0  0  0  0  0  0  0  0  0  0  0
   -4.5915    3.9323    2.2776 N   0  0  0  0  0  0  0  0  0  0  0  0
   -3.9140    3.1008    3.2509 C   0  0  0  0  0  0  0  0  0  0  0  0
   -6.0367    3.7708    2.1019 C   0  0  0  0  0  0  0  0  0  0  0  0
   -4.5851    6.1969    1.9650 O   0  0  0  0  0  0  0  0  0  0  0  0
   -3.1525    4.4794   -0.3417 C   0  0  0  0  0  0  0  0  0  0  0  0
   -4.2702    5.2949   -0.9667 C   0  0  0  0  0  0  0  0  0  0  0  0
   -3.9535    6.5814   -1.2160 O   0  0  0  0  0  0  0  0  0  0  0  0
   -5.3540    4.8177   -1.2722 O   0  0  0  0  0  0  0  0  0  0  0  0
   -6.9425    4.2697    3.2244 C   0  0  0  0  0  0  0  0  0  0  0  0
   -6.2443    4.7587    4.2729 F   0  0  0  0  0  0  0  0  0  0  0  0
   -7.7957    5.2230    2.7980 F   0  0  0  0  0  0  0  0  0  0  0  0
   -7.6889    3.2407    3.6985 F   0  0  0  0  0  0  0  0  0  0  0  0
   -6.3313   -6.7764    0.2138 H   0  0  0  0  0  0  0  0  0  0  0  0
   -6.4867   -4.3218   -0.1262 H   0  0  0  0  0  0  0  0  0  0  0  0
   -4.5613   -2.8722    0.4873 H   0  0  0  0  0  0  0  0  0  0  0  0
   -4.9754   -8.3262    1.7957 H   0  0  0  0  0  0  0  0  0  0  0  0
   -2.7521   -8.1922    2.6571 H   0  0  0  0  0  0  0  0  0  0  0  0
   -2.9144   -9.6175    1.6223 H   0  0  0  0  0  0  0  0  0  0  0  0
   -2.1170   -8.1834    0.9832 H   0  0  0  0  0  0  0  0  0  0  0  0
   -2.2912   -3.9496    2.8011 H   0  0  0  0  0  0  0  0  0  0  0  0
   -1.2872   -4.4171    1.4237 H   0  0  0  0  0  0  0  0  0  0  0  0
   -0.8677   -2.2237    1.8359 H   0  0  0  0  0  0  0  0  0  0  0  0
   -1.8283   -2.2130    0.3206 H   0  0  0  0  0  0  0  0  0  0  0  0
   -0.4916   -0.3272    0.9386 H   0  0  0  0  0  0  0  0  0  0  0  0
   -0.0443    2.0362    0.8598 H   0  0  0  0  0  0  0  0  0  0  0  0
   -4.1458    0.3831    3.0850 H   0  0  0  0  0  0  0  0  0  0  0  0
   -0.7325    4.2293    1.0281 H   0  0  0  0  0  0  0  0  0  0  0  0
   -1.3208    4.5281    2.6526 H   0  0  0  0  0  0  0  0  0  0  0  0
   -2.3282    5.9788    0.9687 H   0  0  0  0  0  0  0  0  0  0  0  0
   -4.6492    2.5814    3.8781 H   0  0  0  0  0  0  0  0  0  0  0  0
   -3.3281    3.7378    3.9269 H   0  0  0  0  0  0  0  0  0  0  0  0
   -6.3126    4.2866    1.1765 H   0  0  0  0  0  0  0  0  0  0  0  0
   -6.2089    2.7031    1.9228 H   0  0  0  0  0  0  0  0  0  0  0  0
   -2.3060    4.4836   -1.0353 H   0  0  0  0  0  0  0  0  0  0  0  0
   -3.5218    3.4492   -0.2980 H   0  0  0  0  0  0  0  0  0  0  0  0
   -3.0797    6.8695   -0.8953 H   0  0  0  0  0  0  0  0  0  0  0  0
  1  2  2  0  0  0  0
  1  7  1  0  0  0  0
  2  3  1  0  0  0  0
  2 33  1  0  0  0  0
  3  4  2  0  0  0  0
  3 34  1  0  0  0  0
  4  5  1  0  0  0  0
  4 35  1  0  0  0  0
  5  6  2  0  0  0  0
  5  9  1  0  0  0  0
  6  1  1  0  0  0  0
  7  8  1  0  0  0  0
  7 36  1  0  0  0  0
  8 37  1  0  0  0  0
  8 38  1  0  0  0  0
  8 39  1  0  0  0  0
  9 10  1  0  0  0  0
  9 40  1  0  0  0  0
  9 41  1  0  0  0  0
 10 11  1  0  0  0  0
 10 42  1  0  0  0  0
 10 43  1  0  0  0  0
 11 12  1  0  0  0  0
 12 13  2  0  0  0  0
 13 14  1  0  0  0  0
 13 44  1  0  0  0  0
 14 15  2  0  0  0  0
 14 45  1  0  0  0  0
 15 16  1  0  0  0  0
 15 18  1  0  0  0  0
 16 17  2  0  0  0  0
 17 12  1  0  0  0  0
 17 46  1  0  0  0  0
 18 19  1  0  0  0  0
 18 47  1  0  0  0  0
 18 48  1  0  0  0  0
 19 20  1  0  0  0  0
 19 25  1  0  0  0  0
 19 49  1  6  0  0  0
 20 21  1  0  0  0  0
 20 24  2  0  0  0  0
 21 22  1  0  0  0  0
 21 23  1  0  0  0  0
 22 16  1  0  0  0  0
 22 50  1  0  0  0  0
 22 51  1  0  0  0  0
 23 29  1  0  0  0  0
 23 52  1  0  0  0  0
 23 53  1  0  0  0  0
 25 26  1  0  0  0  0
 25 54  1  0  0  0  0
 25 55  1  0  0  0  0
 26 27  1  0  0  0  0
 26 28  2  0  0  0  0
 27 56  1  0  0  0  0
 29 30  1  0  0  0  0
 29 31  1  0  0  0  0
 29 32  1  0  0  0  0
M  END
>  <Mol_ID>
2555

>  <Formula>
C22H24F3N3O4

>  <MolWeight>
451.4388696

>  <Cat>
S7540

>  <Name>
SB273005

>  <Synonyms>
N/A

>  <Target>
Integrin

>  <Form>
free base

>  <CAS>
205678-31-5

>  <URL>
http://selleckchem.com/products/sb273005.html

$$$$
