SB366791.cdx
 OpenBabel08302520413D

 34 35  0  0  0  0  0  0  0  0999 V2000
    1.4203   -0.2801   -0.4199 C   0  0  0  0  0  0  0  0  0  0  0  0
    0.8152   -1.3219    0.2825 C   0  0  0  0  0  0  0  0  0  0  0  0
   -0.3311   -1.0794    1.0330 C   0  0  0  0  0  0  0  0  0  0  0  0
   -0.8620    0.2094    1.0965 C   0  0  0  0  0  0  0  0  0  0  0  0
   -0.2443    1.2724    0.4214 C   0  0  0  0  0  0  0  0  0  0  0  0
    0.8870    1.0106   -0.3562 C   0  0  0  0  0  0  0  0  0  0  0  0
   -0.8327    2.6090    0.5578 C   0  0  0  0  0  0  0  0  0  0  0  0
   -0.1487    3.7639    0.5058 C   0  0  0  0  0  0  0  0  0  0  0  0
   -0.8785    5.0215    0.8170 C   0  0  0  0  0  0  0  0  0  0  0  0
   -0.0744    6.1423    0.7298 N   0  0  0  0  0  0  0  0  0  0  0  0
   -2.0684    4.9960    1.1013 O   0  0  0  0  0  0  0  0  0  0  0  0
   -0.4640    7.4571    1.0771 C   0  0  0  0  0  0  0  0  0  0  0  0
   -1.6110    7.7306    1.8310 C   0  0  0  0  0  0  0  0  0  0  0  0
   -1.9828    9.0422    2.1298 C   0  0  0  0  0  0  0  0  0  0  0  0
   -1.1924   10.0938    1.6686 C   0  0  0  0  0  0  0  0  0  0  0  0
   -0.0281    9.8360    0.9437 C   0  0  0  0  0  0  0  0  0  0  0  0
    0.3435    8.5192    0.6603 C   0  0  0  0  0  0  0  0  0  0  0  0
   -3.0831    9.4092    2.8576 O   0  0  0  0  0  0  0  0  0  0  0  0
   -3.8943    8.3494    3.3586 C   0  0  0  0  0  0  0  0  0  0  0  0
    2.3066   -0.4718   -1.0170 H   0  0  0  0  0  0  0  0  0  0  0  0
    1.2363   -2.3223    0.2412 H   0  0  0  0  0  0  0  0  0  0  0  0
   -0.8115   -1.8897    1.5750 H   0  0  0  0  0  0  0  0  0  0  0  0
   -1.7558    0.3802    1.6944 H   0  0  0  0  0  0  0  0  0  0  0  0
    1.3697    1.8003   -0.9267 H   0  0  0  0  0  0  0  0  0  0  0  0
   -1.8992    2.6244    0.7855 H   0  0  0  0  0  0  0  0  0  0  0  0
    0.9152    3.8065    0.3224 H   0  0  0  0  0  0  0  0  0  0  0  0
    0.8453    6.0413    0.3220 H   0  0  0  0  0  0  0  0  0  0  0  0
   -2.2095    6.9111    2.2059 H   0  0  0  0  0  0  0  0  0  0  0  0
   -1.4843   11.1190    1.8811 H   0  0  0  0  0  0  0  0  0  0  0  0
    0.5836   10.6636    0.5939 H   0  0  0  0  0  0  0  0  0  0  0  0
    1.2502    8.3436    0.0884 H   0  0  0  0  0  0  0  0  0  0  0  0
   -4.3329    7.7666    2.5411 H   0  0  0  0  0  0  0  0  0  0  0  0
   -3.3280    7.7072    4.0426 H   0  0  0  0  0  0  0  0  0  0  0  0
   -4.7156    8.7937    3.9281 H   0  0  0  0  0  0  0  0  0  0  0  0
  1  2  2  0  0  0  0
  1 20  1  0  0  0  0
  2  3  1  0  0  0  0
  2 21  1  0  0  0  0
  3  4  2  0  0  0  0
  3 22  1  0  0  0  0
  4  5  1  0  0  0  0
  4 23  1  0  0  0  0
  5  6  2  0  0  0  0
  5  7  1  0  0  0  0
  6  1  1  0  0  0  0
  6 24  1  0  0  0  0
  7  8  2  0  0  0  0
  7 25  1  0  0  0  0
  8  9  1  0  0  0  0
  8 26  1  0  0  0  0
  9 10  1  0  0  0  0
  9 11  2  0  0  0  0
 10 12  1  0  0  0  0
 10 27  1  0  0  0  0
 12 13  2  0  0  0  0
 13 14  1  0  0  0  0
 13 28  1  0  0  0  0
 14 15  2  0  0  0  0
 14 18  1  0  0  0  0
 15 16  1  0  0  0  0
 15 29  1  0  0  0  0
 16 17  2  0  0  0  0
 16 30  1  0  0  0  0
 17 12  1  0  0  0  0
 17 31  1  0  0  0  0
 18 19  1  0  0  0  0
 19 32  1  0  0  0  0
 19 33  1  0  0  0  0
 19 34  1  0  0  0  0
M  END
>  <Mol_ID>
3937

>  <Formula>
C16H14ClNO2

>  <MolWeight>
287.74086

>  <Cat>
S8238

>  <Name>
SB366791

>  <Synonyms>
N/A

>  <Target>
TRP Channel

>  <Form>
free base

>  <CAS>
472981-92-3

>  <URL>
http://selleckchem.com/products/sb366791.html

$$$$
