SB415286.cdx
 OpenBabel08302521433D

 35 37  0  0  0  0  0  0  0  0999 V2000
   -1.1220    0.0788    0.2651 C   0  0  0  0  0  0  0  0  0  0  0  0
   -0.6936   -1.3275    0.1452 C   0  0  0  0  0  0  0  0  0  0  0  0
    0.6416   -1.3514    0.0295 C   0  0  0  0  0  0  0  0  0  0  0  0
    1.0843    0.0729    0.0139 C   0  0  0  0  0  0  0  0  0  0  0  0
   -0.0100    0.8422    0.2124 N   0  0  0  0  0  0  0  0  0  0  0  0
   -1.5722   -2.4831    0.0208 C   0  0  0  0  0  0  0  0  0  0  0  0
    1.5158   -2.3939   -0.2235 N   0  0  0  0  0  0  0  0  0  0  0  0
   -2.0638   -2.9982   -1.1947 C   0  0  0  0  0  0  0  0  0  0  0  0
   -2.8214   -4.1864   -1.1997 C   0  0  0  0  0  0  0  0  0  0  0  0
   -3.0735   -4.8683   -0.0091 C   0  0  0  0  0  0  0  0  0  0  0  0
   -2.6001   -4.3596    1.1943 C   0  0  0  0  0  0  0  0  0  0  0  0
   -1.8746   -3.1695    1.2105 C   0  0  0  0  0  0  0  0  0  0  0  0
    2.2116   -3.0746    0.8165 C   0  0  0  0  0  0  0  0  0  0  0  0
    1.6577   -3.3085    2.0827 C   0  0  0  0  0  0  0  0  0  0  0  0
    2.3312   -4.0731    3.0433 C   0  0  0  0  0  0  0  0  0  0  0  0
    3.5782   -4.6026    2.7423 C   0  0  0  0  0  0  0  0  0  0  0  0
    4.1478   -4.3947    1.4945 C   0  0  0  0  0  0  0  0  0  0  0  0
    3.4589   -3.6513    0.5309 C   0  0  0  0  0  0  0  0  0  0  0  0
   -2.2702    0.4596    0.3675 O   0  0  0  0  0  0  0  0  0  0  0  0
    2.2274    0.4504   -0.1721 O   0  0  0  0  0  0  0  0  0  0  0  0
    4.2786   -5.3376    3.6508 O   0  0  0  0  0  0  0  0  0  0  0  0
   -1.8178   -2.3458   -2.4961 N   0  3  0  0  0  0  0  0  0  0  0  0
   -1.0620   -1.3653   -2.5434 O   0  0  0  0  0  0  0  0  0  0  0  0
   -2.3841   -2.8232   -3.4910 O   0  5  0  0  0  0  0  0  0  0  0  0
   -0.0122    1.8474    0.2096 H   0  0  0  0  0  0  0  0  0  0  0  0
    2.2071   -2.0889   -0.9140 H   0  0  0  0  0  0  0  0  0  0  0  0
   -3.2110   -4.6043   -2.1268 H   0  0  0  0  0  0  0  0  0  0  0  0
   -3.6400   -5.7961   -0.0222 H   0  0  0  0  0  0  0  0  0  0  0  0
   -2.7875   -4.8917    2.1242 H   0  0  0  0  0  0  0  0  0  0  0  0
   -1.5263   -2.7912    2.1697 H   0  0  0  0  0  0  0  0  0  0  0  0
    0.6909   -2.9042    2.3496 H   0  0  0  0  0  0  0  0  0  0  0  0
    1.8638   -4.2477    4.0072 H   0  0  0  0  0  0  0  0  0  0  0  0
    5.1249   -4.8112    1.2680 H   0  0  0  0  0  0  0  0  0  0  0  0
    3.9215   -3.5124   -0.4431 H   0  0  0  0  0  0  0  0  0  0  0  0
    3.7953   -5.3365    4.4932 H   0  0  0  0  0  0  0  0  0  0  0  0
  1  2  1  0  0  0  0
  1 19  2  0  0  0  0
  2  3  2  0  0  0  0
  2  6  1  0  0  0  0
  3  4  1  0  0  0  0
  3  7  1  0  0  0  0
  4  5  1  0  0  0  0
  4 20  2  0  0  0  0
  5  1  1  0  0  0  0
  5 25  1  0  0  0  0
  6  8  2  0  0  0  0
  7 13  1  0  0  0  0
  7 26  1  0  0  0  0
  8  9  1  0  0  0  0
  8 22  1  0  0  0  0
  9 10  2  0  0  0  0
  9 27  1  0  0  0  0
 10 11  1  0  0  0  0
 10 28  1  0  0  0  0
 11 12  2  0  0  0  0
 11 29  1  0  0  0  0
 12  6  1  0  0  0  0
 12 30  1  0  0  0  0
 13 14  2  0  0  0  0
 14 15  1  0  0  0  0
 14 31  1  0  0  0  0
 15 16  2  0  0  0  0
 15 32  1  0  0  0  0
 16 17  1  0  0  0  0
 16 21  1  0  0  0  0
 17 18  2  0  0  0  0
 17 33  1  0  0  0  0
 18 13  1  0  0  0  0
 18 34  1  0  0  0  0
 21 35  1  0  0  0  0
 22 23  2  0  0  0  0
 22 24  1  0  0  0  0
M  CHG  2  22   1  24  -1
M  END
>  <Mol_ID>
891

>  <Formula>
C16H10ClN3O5

>  <MolWeight>
359.7207

>  <Cat>
S2729

>  <Name>
SB415286

>  <Synonyms>
N/A

>  <Target>
Apoptosis related,GSK-3

>  <Form>
free base

>  <CAS>
264218-23-7

>  <URL>
http://selleckchem.com/products/sb-415286.html

$$$$
