SB505124.cdx
 OpenBabel08302521303D

 46 49  0  0  0  0  0  0  0  0999 V2000
    0.8580   -0.0069   -0.6450 C   0  0  0  0  0  0  0  0  0  0  0  0
    0.3118   -1.1995   -0.1766 C   0  0  0  0  0  0  0  0  0  0  0  0
   -0.9974   -1.1960    0.2887 C   0  0  0  0  0  0  0  0  0  0  0  0
   -1.7100   -0.0040    0.2915 C   0  0  0  0  0  0  0  0  0  0  0  0
   -1.0745    1.1567   -0.1251 C   0  0  0  0  0  0  0  0  0  0  0  0
    0.1823    1.1730   -0.6332 N   0  0  0  0  0  0  0  0  0  0  0  0
    2.2638    0.0189   -1.1692 C   0  0  0  0  0  0  0  0  0  0  0  0
   -1.6820    2.4726    0.0463 C   0  0  0  0  0  0  0  0  0  0  0  0
   -1.5040    3.4986   -0.8501 N   0  0  0  0  0  0  0  0  0  0  0  0
   -2.2565    4.5792   -0.4518 C   0  0  0  0  0  0  0  0  0  0  0  0
   -2.8618    4.3084    0.6877 N   0  0  0  0  0  0  0  0  0  0  0  0
   -2.4679    3.0369    1.0387 C   0  0  0  0  0  0  0  0  0  0  0  0
   -2.8635    2.4301    2.3035 C   0  0  0  0  0  0  0  0  0  0  0  0
   -2.3293    5.8861   -1.2158 C   0  0  0  0  0  0  0  0  0  0  0  0
   -2.8456    5.6462   -2.6437 C   0  0  0  0  0  0  0  0  0  0  0  0
   -3.2971    6.8564   -0.5073 C   0  0  0  0  0  0  0  0  0  0  0  0
   -0.9395    6.5418   -1.2704 C   0  0  0  0  0  0  0  0  0  0  0  0
   -1.9820    1.5999    3.0117 C   0  0  0  0  0  0  0  0  0  0  0  0
   -2.4391    0.9928    4.1590 C   0  0  0  0  0  0  0  0  0  0  0  0
   -3.7007    1.2250    4.6490 C   0  0  0  0  0  0  0  0  0  0  0  0
   -4.5770    2.0775    4.0132 C   0  0  0  0  0  0  0  0  0  0  0  0
   -4.1499    2.6844    2.8260 C   0  0  0  0  0  0  0  0  0  0  0  0
   -1.7340    0.1152    4.9210 O   0  0  0  0  0  0  0  0  0  0  0  0
   -2.6750   -0.1299    5.9845 C   0  0  0  0  0  0  0  0  0  0  0  0
   -3.9439    0.5314    5.7931 O   0  0  0  0  0  0  0  0  0  0  0  0
    0.8888   -2.1161   -0.1629 H   0  0  0  0  0  0  0  0  0  0  0  0
   -1.4521   -2.1059    0.6696 H   0  0  0  0  0  0  0  0  0  0  0  0
   -2.7279    0.0160    0.6666 H   0  0  0  0  0  0  0  0  0  0  0  0
    2.2683    0.3752   -2.2025 H   0  0  0  0  0  0  0  0  0  0  0  0
    2.8794    0.6832   -0.5561 H   0  0  0  0  0  0  0  0  0  0  0  0
    2.7183   -0.9778   -1.1522 H   0  0  0  0  0  0  0  0  0  0  0  0
   -0.9169    3.4428   -1.6714 H   0  0  0  0  0  0  0  0  0  0  0  0
   -3.8408    5.1865   -2.6350 H   0  0  0  0  0  0  0  0  0  0  0  0
   -2.9190    6.5870   -3.1998 H   0  0  0  0  0  0  0  0  0  0  0  0
   -2.1820    4.9819   -3.2096 H   0  0  0  0  0  0  0  0  0  0  0  0
   -2.9736    7.0679    0.5188 H   0  0  0  0  0  0  0  0  0  0  0  0
   -3.3597    7.8135   -1.0374 H   0  0  0  0  0  0  0  0  0  0  0  0
   -4.3106    6.4414   -0.4526 H   0  0  0  0  0  0  0  0  0  0  0  0
   -0.5474    6.7266   -0.2630 H   0  0  0  0  0  0  0  0  0  0  0  0
   -0.2136    5.9089   -1.7942 H   0  0  0  0  0  0  0  0  0  0  0  0
   -0.9761    7.5034   -1.7951 H   0  0  0  0  0  0  0  0  0  0  0  0
   -0.9680    1.4142    2.6743 H   0  0  0  0  0  0  0  0  0  0  0  0
   -5.5647    2.2691    4.4168 H   0  0  0  0  0  0  0  0  0  0  0  0
   -4.8215    3.3594    2.2972 H   0  0  0  0  0  0  0  0  0  0  0  0
   -2.8480   -1.2095    6.0609 H   0  0  0  0  0  0  0  0  0  0  0  0
   -2.2326    0.2235    6.9229 H   0  0  0  0  0  0  0  0  0  0  0  0
  1  2  2  0  0  0  0
  1  7  1  0  0  0  0
  2  3  1  0  0  0  0
  2 26  1  0  0  0  0
  3  4  2  0  0  0  0
  3 27  1  0  0  0  0
  4  5  1  0  0  0  0
  4 28  1  0  0  0  0
  5  6  2  0  0  0  0
  5  8  1  0  0  0  0
  6  1  1  0  0  0  0
  7 29  1  0  0  0  0
  7 30  1  0  0  0  0
  7 31  1  0  0  0  0
  8  9  1  0  0  0  0
  9 10  1  0  0  0  0
  9 32  1  0  0  0  0
 10 11  2  0  0  0  0
 10 14  1  0  0  0  0
 11 12  1  0  0  0  0
 12  8  2  0  0  0  0
 12 13  1  0  0  0  0
 13 18  2  0  0  0  0
 14 15  1  0  0  0  0
 14 16  1  0  0  0  0
 14 17  1  0  0  0  0
 15 33  1  0  0  0  0
 15 34  1  0  0  0  0
 15 35  1  0  0  0  0
 16 36  1  0  0  0  0
 16 37  1  0  0  0  0
 16 38  1  0  0  0  0
 17 39  1  0  0  0  0
 17 40  1  0  0  0  0
 17 41  1  0  0  0  0
 18 19  1  0  0  0  0
 18 42  1  0  0  0  0
 19 20  2  0  0  0  0
 19 23  1  0  0  0  0
 20 21  1  0  0  0  0
 21 22  2  0  0  0  0
 21 43  1  0  0  0  0
 22 13  1  0  0  0  0
 22 44  1  0  0  0  0
 23 24  1  0  0  0  0
 24 25  1  0  0  0  0
 24 45  1  0  0  0  0
 24 46  1  0  0  0  0
 25 20  1  0  0  0  0
M  END
>  <Mol_ID>
551

>  <Formula>
C20H21N3O2

>  <MolWeight>
335.39964

>  <Cat>
S2186

>  <Name>
SB505124

>  <Synonyms>
N/A

>  <Target>
TGF-beta/Smad

>  <Form>
free base

>  <CAS>
694433-59-5

>  <URL>
http://selleckchem.com/products/sb-505124.html

$$$$
