SB525334.cdx
 OpenBabel08302520003D

 47 50  0  0  0  0  0  0  0  0999 V2000
   -2.4317    0.6846   -0.1038 C   0  0  0  0  0  0  0  0  0  0  0  0
   -1.3310    1.3034   -0.6901 C   0  0  0  0  0  0  0  0  0  0  0  0
   -0.1190    0.6137   -0.8162 C   0  0  0  0  0  0  0  0  0  0  0  0
    0.0279   -0.6863   -0.3519 C   0  0  0  0  0  0  0  0  0  0  0  0
   -1.0770   -1.3224    0.2577 C   0  0  0  0  0  0  0  0  0  0  0  0
   -2.2806   -0.6347    0.3491 C   0  0  0  0  0  0  0  0  0  0  0  0
    1.2087   -1.3215   -0.4951 N   0  0  0  0  0  0  0  0  0  0  0  0
    1.2715   -2.5841   -0.0190 C   0  0  0  0  0  0  0  0  0  0  0  0
    0.1981   -3.1979    0.5924 C   0  0  0  0  0  0  0  0  0  0  0  0
   -0.9912   -2.5804    0.7383 N   0  0  0  0  0  0  0  0  0  0  0  0
   -3.7172    1.3815    0.0325 C   0  0  0  0  0  0  0  0  0  0  0  0
   -4.1753    2.2955   -0.8927 N   0  0  0  0  0  0  0  0  0  0  0  0
   -5.4362    2.7111   -0.5380 C   0  0  0  0  0  0  0  0  0  0  0  0
   -5.8141    2.1111    0.5704 N   0  0  0  0  0  0  0  0  0  0  0  0
   -4.7487    1.3248    0.9655 C   0  0  0  0  0  0  0  0  0  0  0  0
   -4.7690    0.5415    2.1949 C   0  0  0  0  0  0  0  0  0  0  0  0
   -5.9526   -0.0239    2.6479 C   0  0  0  0  0  0  0  0  0  0  0  0
   -5.9092   -0.8334    3.7789 C   0  0  0  0  0  0  0  0  0  0  0  0
   -4.6918   -1.0537    4.4185 C   0  0  0  0  0  0  0  0  0  0  0  0
   -3.5515   -0.4378    3.9181 C   0  0  0  0  0  0  0  0  0  0  0  0
   -3.5832    0.3651    2.8316 N   0  0  0  0  0  0  0  0  0  0  0  0
   -2.2075   -0.6489    4.5449 C   0  0  0  0  0  0  0  0  0  0  0  0
   -6.2251    3.7285   -1.3333 C   0  0  0  0  0  0  0  0  0  0  0  0
   -6.4586    3.2241   -2.7676 C   0  0  0  0  0  0  0  0  0  0  0  0
   -7.5922    3.9675   -0.6633 C   0  0  0  0  0  0  0  0  0  0  0  0
   -5.4645    5.0655   -1.3810 C   0  0  0  0  0  0  0  0  0  0  0  0
   -1.3812    2.3299   -1.0452 H   0  0  0  0  0  0  0  0  0  0  0  0
    0.7327    1.1038   -1.2821 H   0  0  0  0  0  0  0  0  0  0  0  0
   -3.1139   -1.1600    0.8061 H   0  0  0  0  0  0  0  0  0  0  0  0
    2.2179   -3.0953   -0.1484 H   0  0  0  0  0  0  0  0  0  0  0  0
    0.2595   -4.2107    0.9748 H   0  0  0  0  0  0  0  0  0  0  0  0
   -3.6753    2.5959   -1.7161 H   0  0  0  0  0  0  0  0  0  0  0  0
   -6.8844    0.1471    2.1186 H   0  0  0  0  0  0  0  0  0  0  0  0
   -6.8171   -1.2975    4.1522 H   0  0  0  0  0  0  0  0  0  0  0  0
   -4.6413   -1.6943    5.2925 H   0  0  0  0  0  0  0  0  0  0  0  0
   -1.5318   -1.1323    3.8315 H   0  0  0  0  0  0  0  0  0  0  0  0
   -1.7809    0.3163    4.8348 H   0  0  0  0  0  0  0  0  0  0  0  0
   -2.2692   -1.2780    5.4379 H   0  0  0  0  0  0  0  0  0  0  0  0
   -7.0205    2.2829   -2.7734 H   0  0  0  0  0  0  0  0  0  0  0  0
   -7.0255    3.9557   -3.3549 H   0  0  0  0  0  0  0  0  0  0  0  0
   -5.5135    3.0450   -3.2932 H   0  0  0  0  0  0  0  0  0  0  0  0
   -7.4739    4.3220    0.3679 H   0  0  0  0  0  0  0  0  0  0  0  0
   -8.1770    4.7180   -1.2067 H   0  0  0  0  0  0  0  0  0  0  0  0
   -8.1850    3.0457   -0.6264 H   0  0  0  0  0  0  0  0  0  0  0  0
   -5.2849    5.4576   -0.3731 H   0  0  0  0  0  0  0  0  0  0  0  0
   -4.4895    4.9597   -1.8707 H   0  0  0  0  0  0  0  0  0  0  0  0
   -6.0305    5.8212   -1.9379 H   0  0  0  0  0  0  0  0  0  0  0  0
  1  2  2  0  0  0  0
  1 11  1  0  0  0  0
  2  3  1  0  0  0  0
  2 27  1  0  0  0  0
  3  4  2  0  0  0  0
  3 28  1  0  0  0  0
  4  5  1  0  0  0  0
  4  7  1  0  0  0  0
  5  6  2  0  0  0  0
  6  1  1  0  0  0  0
  6 29  1  0  0  0  0
  7  8  2  0  0  0  0
  8  9  1  0  0  0  0
  8 30  1  0  0  0  0
  9 10  2  0  0  0  0
  9 31  1  0  0  0  0
 10  5  1  0  0  0  0
 11 12  1  0  0  0  0
 12 13  1  0  0  0  0
 12 32  1  0  0  0  0
 13 14  2  0  0  0  0
 13 23  1  0  0  0  0
 14 15  1  0  0  0  0
 15 11  2  0  0  0  0
 15 16  1  0  0  0  0
 16 17  2  0  0  0  0
 17 18  1  0  0  0  0
 17 33  1  0  0  0  0
 18 19  2  0  0  0  0
 18 34  1  0  0  0  0
 19 20  1  0  0  0  0
 19 35  1  0  0  0  0
 20 21  2  0  0  0  0
 20 22  1  0  0  0  0
 21 16  1  0  0  0  0
 22 36  1  0  0  0  0
 22 37  1  0  0  0  0
 22 38  1  0  0  0  0
 23 24  1  0  0  0  0
 23 25  1  0  0  0  0
 23 26  1  0  0  0  0
 24 39  1  0  0  0  0
 24 40  1  0  0  0  0
 24 41  1  0  0  0  0
 25 42  1  0  0  0  0
 25 43  1  0  0  0  0
 25 44  1  0  0  0  0
 26 45  1  0  0  0  0
 26 46  1  0  0  0  0
 26 47  1  0  0  0  0
M  END
>  <Mol_ID>
279

>  <Formula>
C21H21N5

>  <MolWeight>
343.42494

>  <Cat>
S1476

>  <Name>
SB525334

>  <Synonyms>
N/A

>  <Target>
TGF-beta/Smad

>  <Form>
free base

>  <CAS>
356559-20-1

>  <URL>
http://selleckchem.com/products/SB-525334.html

$$$$
