SB705498.cdx
 OpenBabel08302521303D

 42 44  0  0  0  0  0  0  0  0999 V2000
    2.3537    1.7978    5.8161 N   0  0  0  0  0  0  0  0  0  0  0  0
    2.1180    2.1958    4.5185 C   0  0  0  0  0  0  0  0  0  0  0  0
    2.9732    2.4559    3.6806 O   0  0  0  0  0  0  0  0  0  0  0  0
    0.7718    2.2194    4.2534 N   0  0  0  0  0  0  0  0  0  0  0  0
   -1.6715    3.8101    3.4629 N   0  0  0  0  0  0  0  0  0  0  0  0
   -1.2815    2.5172    2.9055 C   0  0  0  0  0  0  0  0  0  0  0  0
    0.2576    2.5914    2.9362 C   0  0  1  0  0  0  0  0  0  0  0  0
    0.5210    4.0623    2.6064 C   0  0  0  0  0  0  0  0  0  0  0  0
   -0.6407    4.8149    3.2529 C   0  0  0  0  0  0  0  0  0  0  0  0
   -2.7991    3.9885    4.2135 C   0  0  0  0  0  0  0  0  0  0  0  0
   -3.1135    5.2282    4.7717 C   0  0  0  0  0  0  0  0  0  0  0  0
   -4.2599    5.3823    5.5586 C   0  0  0  0  0  0  0  0  0  0  0  0
   -5.0975    4.2953    5.7714 C   0  0  0  0  0  0  0  0  0  0  0  0
   -4.7282    3.0998    5.1774 C   0  0  0  0  0  0  0  0  0  0  0  0
   -3.6162    2.9316    4.4229 N   0  0  0  0  0  0  0  0  0  0  0  0
   -6.3407    4.3793    6.5946 C   0  0  0  0  0  0  0  0  0  0  0  0
   -6.5584    5.6160    7.1278 F   0  0  0  0  0  0  0  0  0  0  0  0
   -7.4631    4.0842    5.8841 F   0  0  0  0  0  0  0  0  0  0  0  0
   -6.3327    3.5217    7.6531 F   0  0  0  0  0  0  0  0  0  0  0  0
    3.6516    1.6848    6.3624 C   0  0  0  0  0  0  0  0  0  0  0  0
    3.9824    0.5650    7.1391 C   0  0  0  0  0  0  0  0  0  0  0  0
    5.2670    0.4251    7.6678 C   0  0  0  0  0  0  0  0  0  0  0  0
    6.2161    1.4260    7.4621 C   0  0  0  0  0  0  0  0  0  0  0  0
    5.8840    2.5609    6.7223 C   0  0  0  0  0  0  0  0  0  0  0  0
    4.6115    2.6873    6.1660 C   0  0  0  0  0  0  0  0  0  0  0  0
    2.7327   -0.8381    7.4292 Br  0  0  0  0  0  0  0  0  0  0  0  0
    1.6846    1.1154    6.1480 H   0  0  0  0  0  0  0  0  0  0  0  0
    0.1599    2.3974    5.0394 H   0  0  0  0  0  0  0  0  0  0  0  0
   -1.6436    2.4478    1.8721 H   0  0  0  0  0  0  0  0  0  0  0  0
   -1.6491    1.6538    3.4713 H   0  0  0  0  0  0  0  0  0  0  0  0
    0.7184    1.9248    2.1990 H   0  0  0  0  0  0  0  0  0  0  0  0
    1.4811    4.4410    2.9695 H   0  0  0  0  0  0  0  0  0  0  0  0
    0.4962    4.2100    1.5208 H   0  0  0  0  0  0  0  0  0  0  0  0
   -0.3165    5.2584    4.2005 H   0  0  0  0  0  0  0  0  0  0  0  0
   -0.9977    5.6089    2.5880 H   0  0  0  0  0  0  0  0  0  0  0  0
   -2.4781    6.0904    4.6167 H   0  0  0  0  0  0  0  0  0  0  0  0
   -4.4829    6.3560    5.9913 H   0  0  0  0  0  0  0  0  0  0  0  0
   -5.3353    2.2025    5.2931 H   0  0  0  0  0  0  0  0  0  0  0  0
    5.5396   -0.4631    8.2304 H   0  0  0  0  0  0  0  0  0  0  0  0
    7.2164    1.3194    7.8745 H   0  0  0  0  0  0  0  0  0  0  0  0
    6.6199    3.3474    6.5729 H   0  0  0  0  0  0  0  0  0  0  0  0
    4.3684    3.5781    5.5917 H   0  0  0  0  0  0  0  0  0  0  0  0
  1  2  1  0  0  0  0
  1 20  1  0  0  0  0
  1 27  1  0  0  0  0
  2  3  2  0  0  0  0
  2  4  1  0  0  0  0
  4 28  1  0  0  0  0
  5  6  1  0  0  0  0
  5  9  1  0  0  0  0
  5 10  1  0  0  0  0
  6  7  1  0  0  0  0
  6 29  1  0  0  0  0
  6 30  1  0  0  0  0
  7  8  1  0  0  0  0
  7 31  1  6  0  0  0
  7  4  1  0  0  0  0
  8  9  1  0  0  0  0
  8 32  1  0  0  0  0
  8 33  1  0  0  0  0
  9 34  1  0  0  0  0
  9 35  1  0  0  0  0
 10 11  2  0  0  0  0
 10 15  1  0  0  0  0
 11 12  1  0  0  0  0
 11 36  1  0  0  0  0
 12 13  2  0  0  0  0
 12 37  1  0  0  0  0
 13 14  1  0  0  0  0
 13 16  1  0  0  0  0
 14 15  2  0  0  0  0
 14 38  1  0  0  0  0
 16 17  1  0  0  0  0
 16 18  1  0  0  0  0
 16 19  1  0  0  0  0
 20 21  2  0  0  0  0
 20 25  1  0  0  0  0
 21 22  1  0  0  0  0
 21 26  1  0  0  0  0
 22 23  2  0  0  0  0
 22 39  1  0  0  0  0
 23 24  1  0  0  0  0
 23 40  1  0  0  0  0
 24 25  2  0  0  0  0
 24 41  1  0  0  0  0
 25 42  1  0  0  0  0
M  END
>  <Mol_ID>
545

>  <Formula>
C17H16BrF3N4O

>  <MolWeight>
429.2343496

>  <Cat>
S2773

>  <Name>
SB705498

>  <Synonyms>
N/A

>  <Target>
TRP Channel

>  <Form>
free base

>  <CAS>
501951-42-4

>  <URL>
http://selleckchem.com/products/sb705498.html

$$$$
