SB 271046.cdx
 OpenBabel08302522003D

 51 54  0  0  0  0  0  0  0  0999 V2000
    5.5570    1.3202    5.5111 C   0  0  0  0  0  0  0  0  0  0  0  0
    4.8308    2.4842    5.2556 C   0  0  0  0  0  0  0  0  0  0  0  0
    5.0778    2.9797    3.9164 C   0  0  0  0  0  0  0  0  0  0  0  0
    5.6870    2.0102    3.1251 C   0  0  0  0  0  0  0  0  0  0  0  0
    6.5053    0.8853    4.1459 S   0  0  0  0  0  0  0  0  0  0  0  0
    4.0014    2.9850    6.2915 C   0  0  0  0  0  0  0  0  0  0  0  0
    3.8573    2.2789    7.4909 C   0  0  0  0  0  0  0  0  0  0  0  0
    4.5806    1.1155    7.7094 C   0  0  0  0  0  0  0  0  0  0  0  0
    5.4682    0.6415    6.7416 C   0  0  0  0  0  0  0  0  0  0  0  0
    6.0044    1.8745    1.3591 S   0  0  0  0  0  0  0  0  0  0  0  0
    6.7037    3.0696    1.0365 O   0  0  0  0  0  0  0  0  0  0  0  0
    6.6111    0.5638    1.1877 O   0  0  0  0  0  0  0  0  0  0  0  0
    4.6068    1.7997    0.4199 N   0  0  0  0  0  0  0  0  0  0  0  0
    4.6595    4.3261    3.4402 C   0  0  0  0  0  0  0  0  0  0  0  0
    3.6928    2.8845    0.3199 C   0  0  0  0  0  0  0  0  0  0  0  0
    2.5600    2.9019    1.1335 C   0  0  0  0  0  0  0  0  0  0  0  0
    1.5280    3.8438    0.9518 C   0  0  0  0  0  0  0  0  0  0  0  0
    1.7174    4.8419   -0.0440 C   0  0  0  0  0  0  0  0  0  0  0  0
    2.8957    4.8728   -0.7975 C   0  0  0  0  0  0  0  0  0  0  0  0
    3.8734    3.8893   -0.6281 C   0  0  0  0  0  0  0  0  0  0  0  0
    0.3579    3.7455    1.6938 N   0  0  0  0  0  0  0  0  0  0  0  0
    0.3057    3.1735    3.0401 C   0  0  0  0  0  0  0  0  0  0  0  0
   -0.6819    1.9913    3.0999 C   0  0  0  0  0  0  0  0  0  0  0  0
   -2.0392    2.3544    2.6378 N   0  0  0  0  0  0  0  0  0  0  0  0
   -1.9177    2.8615    1.2553 C   0  0  0  0  0  0  0  0  0  0  0  0
   -0.9487    4.0551    1.0874 C   0  0  0  0  0  0  0  0  0  0  0  0
    0.7073    5.7572   -0.1975 O   0  0  0  0  0  0  0  0  0  0  0  0
    0.8261    6.7464   -1.2017 C   0  0  0  0  0  0  0  0  0  0  0  0
    3.4214    3.8922    6.1377 H   0  0  0  0  0  0  0  0  0  0  0  0
    3.1598    2.6327    8.2471 H   0  0  0  0  0  0  0  0  0  0  0  0
    4.4405    0.5534    8.6298 H   0  0  0  0  0  0  0  0  0  0  0  0
    6.0316   -0.2713    6.9088 H   0  0  0  0  0  0  0  0  0  0  0  0
    4.1890    0.8700    0.4467 H   0  0  0  0  0  0  0  0  0  0  0  0
    3.5788    4.4533    3.5040 H   0  0  0  0  0  0  0  0  0  0  0  0
    5.1370    5.0863    4.0649 H   0  0  0  0  0  0  0  0  0  0  0  0
    4.9782    4.5204    2.4113 H   0  0  0  0  0  0  0  0  0  0  0  0
    2.4502    2.1232    1.8822 H   0  0  0  0  0  0  0  0  0  0  0  0
    3.0763    5.6397   -1.5427 H   0  0  0  0  0  0  0  0  0  0  0  0
    4.7555    3.9041   -1.2577 H   0  0  0  0  0  0  0  0  0  0  0  0
    1.2874    2.8604    3.4042 H   0  0  0  0  0  0  0  0  0  0  0  0
   -0.0355    3.9604    3.7212 H   0  0  0  0  0  0  0  0  0  0  0  0
   -0.3067    1.1576    2.4910 H   0  0  0  0  0  0  0  0  0  0  0  0
   -0.7500    1.6266    4.1288 H   0  0  0  0  0  0  0  0  0  0  0  0
   -2.3905    3.1110    3.2255 H   0  0  0  0  0  0  0  0  0  0  0  0
   -1.5664    2.0263    0.6390 H   0  0  0  0  0  0  0  0  0  0  0  0
   -2.9099    3.1432    0.8847 H   0  0  0  0  0  0  0  0  0  0  0  0
   -1.3604    4.9497    1.5685 H   0  0  0  0  0  0  0  0  0  0  0  0
   -0.8804    4.2570    0.0137 H   0  0  0  0  0  0  0  0  0  0  0  0
    1.6241    7.4401   -0.9394 H   0  0  0  0  0  0  0  0  0  0  0  0
    0.9810    6.3031   -2.1886 H   0  0  0  0  0  0  0  0  0  0  0  0
   -0.1144    7.3054   -1.2363 H   0  0  0  0  0  0  0  0  0  0  0  0
  1  2  2  0  0  0  0
  1  5  1  0  0  0  0
  1  9  1  0  0  0  0
  2  3  1  0  0  0  0
  2  6  1  0  0  0  0
  3  4  2  0  0  0  0
  3 14  1  0  0  0  0
  4  5  1  0  0  0  0
  4 10  1  0  0  0  0
  6  7  2  0  0  0  0
  6 29  1  0  0  0  0
  7  8  1  0  0  0  0
  7 30  1  0  0  0  0
  8  9  2  0  0  0  0
  8 31  1  0  0  0  0
  9 32  1  0  0  0  0
 10 11  2  0  0  0  0
 10 12  2  0  0  0  0
 10 13  1  0  0  0  0
 13 15  1  0  0  0  0
 13 33  1  0  0  0  0
 14 34  1  0  0  0  0
 14 35  1  0  0  0  0
 14 36  1  0  0  0  0
 15 16  2  0  0  0  0
 15 20  1  0  0  0  0
 16 17  1  0  0  0  0
 16 37  1  0  0  0  0
 17 18  2  0  0  0  0
 17 21  1  0  0  0  0
 18 19  1  0  0  0  0
 18 27  1  0  0  0  0
 19 20  2  0  0  0  0
 19 38  1  0  0  0  0
 20 39  1  0  0  0  0
 21 22  1  0  0  0  0
 21 26  1  0  0  0  0
 22 23  1  0  0  0  0
 22 40  1  0  0  0  0
 22 41  1  0  0  0  0
 23 24  1  0  0  0  0
 23 42  1  0  0  0  0
 23 43  1  0  0  0  0
 24 25  1  0  0  0  0
 24 44  1  0  0  0  0
 25 26  1  0  0  0  0
 25 45  1  0  0  0  0
 25 46  1  0  0  0  0
 26 47  1  0  0  0  0
 26 48  1  0  0  0  0
 27 28  1  0  0  0  0
 28 49  1  0  0  0  0
 28 50  1  0  0  0  0
 28 51  1  0  0  0  0
M  END
>  <Mol_ID>
1069

>  <Formula>
C20H22ClN3O3S2

>  <MolWeight>
451.98998

>  <Cat>
S2856

>  <Name>
SB 271046 hydrochloride

>  <Synonyms>
N/A

>  <Target>
5-HT Receptor

>  <Form>
hydrochloride

>  <CAS>
209481-24-3

>  <URL>
http://selleckchem.com/products/sb-271046.html

$$$$
