SB 200646
 OpenBabel08302521243D

 34 36  0  0  0  0  0  0  0  0999 V2000
    0.8610    0.0298    0.0226 N   0  0  0  0  0  0  0  0  0  0  0  0
    0.2813    0.5404   -1.1278 C   0  0  0  0  0  0  0  0  0  0  0  0
   -0.8475    0.2804   -1.5216 O   0  0  0  0  0  0  0  0  0  0  0  0
    1.1315    1.4180   -1.7813 N   0  0  0  0  0  0  0  0  0  0  0  0
   -0.5846    2.5860   -3.1448 C   0  0  0  0  0  0  0  0  0  0  0  0
    0.7397    2.2616   -2.8465 C   0  0  0  0  0  0  0  0  0  0  0  0
    1.7270    2.8438   -3.6417 C   0  0  0  0  0  0  0  0  0  0  0  0
    1.3641    3.6875   -4.6932 C   0  0  0  0  0  0  0  0  0  0  0  0
    0.0182    3.9389   -4.9064 C   0  0  0  0  0  0  0  0  0  0  0  0
   -0.9646    3.4141   -4.1516 N   0  0  0  0  0  0  0  0  0  0  0  0
   -1.8606   -3.2100    3.6372 N   0  0  0  0  0  0  0  0  0  0  0  0
   -2.9001   -3.6660    2.8697 C   0  0  0  0  0  0  0  0  0  0  0  0
   -2.7402   -3.1595    1.6012 C   0  0  0  0  0  0  0  0  0  0  0  0
   -1.5646   -2.3609    1.6015 C   0  0  0  0  0  0  0  0  0  0  0  0
   -0.9239   -1.5800    0.6189 C   0  0  0  0  0  0  0  0  0  0  0  0
    0.2302   -0.8520    0.9350 C   0  0  0  0  0  0  0  0  0  0  0  0
    0.7830   -0.9723    2.2136 C   0  0  0  0  0  0  0  0  0  0  0  0
    0.1708   -1.7490    3.2095 C   0  0  0  0  0  0  0  0  0  0  0  0
   -1.0165   -2.4205    2.8830 C   0  0  0  0  0  0  0  0  0  0  0  0
   -1.6929   -3.4964    5.0437 C   0  0  0  0  0  0  0  0  0  0  0  0
    1.6775    0.5140    0.3631 H   0  0  0  0  0  0  0  0  0  0  0  0
    2.1216    1.2985   -1.6231 H   0  0  0  0  0  0  0  0  0  0  0  0
   -1.4201    2.2090   -2.5627 H   0  0  0  0  0  0  0  0  0  0  0  0
    2.7791    2.6385   -3.4718 H   0  0  0  0  0  0  0  0  0  0  0  0
    2.1117    4.1354   -5.3367 H   0  0  0  0  0  0  0  0  0  0  0  0
   -0.3156    4.5894   -5.7100 H   0  0  0  0  0  0  0  0  0  0  0  0
   -3.6729   -4.3019    3.2812 H   0  0  0  0  0  0  0  0  0  0  0  0
   -3.4037   -3.3262    0.7627 H   0  0  0  0  0  0  0  0  0  0  0  0
   -1.3667   -1.5567   -0.3700 H   0  0  0  0  0  0  0  0  0  0  0  0
    1.6909   -0.4344    2.4754 H   0  0  0  0  0  0  0  0  0  0  0  0
    0.5979   -1.8062    4.2053 H   0  0  0  0  0  0  0  0  0  0  0  0
   -0.7473   -4.0268    5.1776 H   0  0  0  0  0  0  0  0  0  0  0  0
   -1.6894   -2.5500    5.5906 H   0  0  0  0  0  0  0  0  0  0  0  0
   -2.5212   -4.1193    5.3918 H   0  0  0  0  0  0  0  0  0  0  0  0
  1  2  1  0  0  0  0
  1 16  1  0  0  0  0
  1 21  1  0  0  0  0
  2  3  2  0  0  0  0
  2  4  1  0  0  0  0
  4  6  1  0  0  0  0
  4 22  1  0  0  0  0
  5  6  2  0  0  0  0
  5 10  1  0  0  0  0
  5 23  1  0  0  0  0
  6  7  1  0  0  0  0
  7  8  2  0  0  0  0
  7 24  1  0  0  0  0
  8  9  1  0  0  0  0
  8 25  1  0  0  0  0
  9 10  2  0  0  0  0
  9 26  1  0  0  0  0
 11 12  1  0  0  0  0
 11 19  1  0  0  0  0
 11 20  1  0  0  0  0
 12 13  2  0  0  0  0
 12 27  1  0  0  0  0
 13 14  1  0  0  0  0
 13 28  1  0  0  0  0
 14 15  1  0  0  0  0
 14 19  2  0  0  0  0
 15 16  2  0  0  0  0
 15 29  1  0  0  0  0
 16 17  1  0  0  0  0
 17 18  2  0  0  0  0
 17 30  1  0  0  0  0
 18 19  1  0  0  0  0
 18 31  1  0  0  0  0
 20 32  1  0  0  0  0
 20 33  1  0  0  0  0
 20 34  1  0  0  0  0
M  END
>  <Mol_ID>
4998

>  <Formula>
C15H14N4O

>  <MolWeight>
266.29786

>  <Cat>
S2649

>  <Name>
SB 200646

>  <Synonyms>
SB 200646A

>  <Target>
5-HT Receptor

>  <Form>
Free Base

>  <CAS>
143797-63-1

>  <URL>
http://www.selleckchem.com/products/sb-200646.html

$$$$
