SB 242235
 OpenBabel08302521323D

 46 49  0  0  0  0  0  0  0  0999 V2000
    2.2555   -0.1411    0.2605 F   0  0  0  0  0  0  0  0  0  0  0  0
   -5.0155    1.8312   -5.4450 O   0  0  0  0  0  0  0  0  0  0  0  0
   -5.4065    0.3871   -0.6320 N   0  0  0  0  0  0  0  0  0  0  0  0
   -8.5353    2.4263    0.2208 N   0  0  0  0  0  0  0  0  0  0  0  0
   -4.1073   -0.5847    0.8951 N   0  0  0  0  0  0  0  0  0  0  0  0
   -4.4608    1.2244   -3.3111 N   0  0  0  0  0  0  0  0  0  0  0  0
   -3.0969    2.7953   -4.4774 N   0  0  0  0  0  0  0  0  0  0  0  0
   -6.6429    0.7750   -1.3307 C   0  0  0  0  0  0  0  0  0  0  0  0
   -6.8009    2.2975   -1.5101 C   0  0  0  0  0  0  0  0  0  0  0  0
   -7.9557    0.2199   -0.7330 C   0  0  0  0  0  0  0  0  0  0  0  0
   -7.2678    2.9861   -0.2363 C   0  0  0  0  0  0  0  0  0  0  0  0
   -8.4257    0.9986    0.4976 C   0  0  0  0  0  0  0  0  0  0  0  0
   -4.0945    0.6201   -1.0451 C   0  0  0  0  0  0  0  0  0  0  0  0
   -5.3397   -0.3581    0.5176 C   0  0  0  0  0  0  0  0  0  0  0  0
   -3.3215   -0.0294   -0.0839 C   0  0  0  0  0  0  0  0  0  0  0  0
   -3.7025    1.4097   -2.2177 C   0  0  0  0  0  0  0  0  0  0  0  0
   -1.8686   -0.1277   -0.0147 C   0  0  0  0  0  0  0  0  0  0  0  0
   -2.6386    2.2903   -2.1888 C   0  0  0  0  0  0  0  0  0  0  0  0
   -1.0773   -0.2615   -1.1651 C   0  0  0  0  0  0  0  0  0  0  0  0
   -1.2356   -0.0799    1.2395 C   0  0  0  0  0  0  0  0  0  0  0  0
   -2.3582    2.9342   -3.3686 C   0  0  0  0  0  0  0  0  0  0  0  0
    0.3156   -0.2458   -1.0735 C   0  0  0  0  0  0  0  0  0  0  0  0
    0.1574   -0.0990    1.3347 C   0  0  0  0  0  0  0  0  0  0  0  0
   -4.1368    1.9513   -4.3897 C   0  0  0  0  0  0  0  0  0  0  0  0
    0.9177   -0.1606    0.1754 C   0  0  0  0  0  0  0  0  0  0  0  0
   -4.6860    2.6835   -6.5338 C   0  0  0  0  0  0  0  0  0  0  0  0
   -8.8320    2.9144    1.0675 H   0  0  0  0  0  0  0  0  0  0  0  0
   -6.5450    0.3072   -2.3187 H   0  0  0  0  0  0  0  0  0  0  0  0
   -5.8827    2.7870   -1.8402 H   0  0  0  0  0  0  0  0  0  0  0  0
   -7.5384    2.4776   -2.3047 H   0  0  0  0  0  0  0  0  0  0  0  0
   -8.7380    0.2917   -1.5015 H   0  0  0  0  0  0  0  0  0  0  0  0
   -7.8693   -0.8472   -0.4972 H   0  0  0  0  0  0  0  0  0  0  0  0
   -6.5048    2.9124    0.5474 H   0  0  0  0  0  0  0  0  0  0  0  0
   -7.4110    4.0522   -0.4440 H   0  0  0  0  0  0  0  0  0  0  0  0
   -9.4109    0.6228    0.7980 H   0  0  0  0  0  0  0  0  0  0  0  0
   -7.7600    0.8412    1.3523 H   0  0  0  0  0  0  0  0  0  0  0  0
   -6.2028   -0.7240    1.0532 H   0  0  0  0  0  0  0  0  0  0  0  0
   -2.0370    2.4546   -1.3062 H   0  0  0  0  0  0  0  0  0  0  0  0
   -1.5326   -0.3679   -2.1462 H   0  0  0  0  0  0  0  0  0  0  0  0
   -1.8335   -0.0236    2.1483 H   0  0  0  0  0  0  0  0  0  0  0  0
   -1.5069    3.6034   -3.4524 H   0  0  0  0  0  0  0  0  0  0  0  0
    0.9304   -0.2988   -1.9666 H   0  0  0  0  0  0  0  0  0  0  0  0
    0.6476   -0.0612    2.3015 H   0  0  0  0  0  0  0  0  0  0  0  0
   -4.6860    3.7395   -6.2381 H   0  0  0  0  0  0  0  0  0  0  0  0
   -3.7247    2.3992   -6.9756 H   0  0  0  0  0  0  0  0  0  0  0  0
   -5.4548    2.5583   -7.3019 H   0  0  0  0  0  0  0  0  0  0  0  0
  1 25  1  0  0  0  0
  2 24  1  0  0  0  0
  2 26  1  0  0  0  0
  3  8  1  0  0  0  0
  3 13  1  0  0  0  0
  3 14  1  0  0  0  0
  4 11  1  0  0  0  0
  4 12  1  0  0  0  0
  4 27  1  0  0  0  0
  5 14  2  0  0  0  0
  5 15  1  0  0  0  0
  6 16  2  0  0  0  0
  6 24  1  0  0  0  0
  7 21  1  0  0  0  0
  7 24  2  0  0  0  0
  8  9  1  0  0  0  0
  8 10  1  0  0  0  0
  8 28  1  0  0  0  0
  9 11  1  0  0  0  0
  9 29  1  0  0  0  0
  9 30  1  0  0  0  0
 10 12  1  0  0  0  0
 10 31  1  0  0  0  0
 10 32  1  0  0  0  0
 11 33  1  0  0  0  0
 11 34  1  0  0  0  0
 12 35  1  0  0  0  0
 12 36  1  0  0  0  0
 13 15  2  0  0  0  0
 13 16  1  0  0  0  0
 14 37  1  0  0  0  0
 15 17  1  0  0  0  0
 16 18  1  0  0  0  0
 17 19  2  0  0  0  0
 17 20  1  0  0  0  0
 18 21  2  0  0  0  0
 18 38  1  0  0  0  0
 19 22  1  0  0  0  0
 19 39  1  0  0  0  0
 20 23  2  0  0  0  0
 20 40  1  0  0  0  0
 21 41  1  0  0  0  0
 22 25  2  0  0  0  0
 22 42  1  0  0  0  0
 23 25  1  0  0  0  0
 23 43  1  0  0  0  0
 26 44  1  0  0  0  0
 26 45  1  0  0  0  0
 26 46  1  0  0  0  0
M  END
>  <Mol_ID>
6160

>  <Formula>
C19H20FN5O

>  <MolWeight>
353.3934032

>  <Cat>
S0387

>  <Name>
SB 242235

>  <Synonyms>
N/A

>  <Target>
p38 MAPK

>  <Form>
free base

>  <CAS>
193746-75-7

>  <URL>
http://www.selleckchem.com/products/sb-242235.html

$$$$
