SB 334867.cdx
 OpenBabel08302519593D

 37 40  0  0  0  0  0  0  0  0999 V2000
   -2.0236   -0.0296    0.1648 C   0  0  0  0  0  0  0  0  0  0  0  0
   -3.3049   -0.4304   -0.1596 C   0  0  0  0  0  0  0  0  0  0  0  0
   -3.5160   -1.7744   -0.4294 C   0  0  0  0  0  0  0  0  0  0  0  0
   -2.4807   -2.6829   -0.3308 C   0  0  0  0  0  0  0  0  0  0  0  0
   -1.1862   -2.1884   -0.0274 C   0  0  0  0  0  0  0  0  0  0  0  0
   -0.9568   -0.8639    0.2021 N   0  0  0  0  0  0  0  0  0  0  0  0
   -2.7827   -3.9772   -0.5090 N   0  0  0  0  0  0  0  0  0  0  0  0
   -1.7932   -4.8641   -0.3363 C   0  0  0  0  0  0  0  0  0  0  0  0
   -0.4920   -4.5054   -0.0548 C   0  0  0  0  0  0  0  0  0  0  0  0
   -0.1633   -3.1502    0.0497 C   0  0  0  0  0  0  0  0  0  0  0  0
    1.1932   -2.7049    0.2053 N   0  0  0  0  0  0  0  0  0  0  0  0
    2.3137   -3.5192    0.2571 C   0  0  0  0  0  0  0  0  0  0  0  0
    2.2607   -4.7387    0.3371 O   0  0  0  0  0  0  0  0  0  0  0  0
    3.5074   -2.8224    0.1765 N   0  0  0  0  0  0  0  0  0  0  0  0
    4.7901   -3.4063   -0.0318 C   0  0  0  0  0  0  0  0  0  0  0  0
    4.9575   -4.7408   -0.4401 C   0  0  0  0  0  0  0  0  0  0  0  0
    6.2482   -5.1371   -0.7755 C   0  0  0  0  0  0  0  0  0  0  0  0
    7.3735   -4.3422   -0.6710 C   0  0  0  0  0  0  0  0  0  0  0  0
    7.2253   -3.0412   -0.1760 C   0  0  0  0  0  0  0  0  0  0  0  0
    5.9217   -2.5802    0.1114 C   0  0  0  0  0  0  0  0  0  0  0  0
    6.6254   -6.3298   -1.3193 O   0  0  0  0  0  0  0  0  0  0  0  0
    7.9636   -6.1695   -1.5612 C   0  0  0  0  0  0  0  0  0  0  0  0
    8.4688   -5.0214   -1.1463 N   0  0  0  0  0  0  0  0  0  0  0  0
    8.6134   -7.2536   -2.3259 C   0  0  0  0  0  0  0  0  0  0  0  0
   -1.8243    1.0036    0.4368 H   0  0  0  0  0  0  0  0  0  0  0  0
   -4.1272    0.2776   -0.1895 H   0  0  0  0  0  0  0  0  0  0  0  0
   -4.5079   -2.1269   -0.7023 H   0  0  0  0  0  0  0  0  0  0  0  0
   -2.0738   -5.9093   -0.4313 H   0  0  0  0  0  0  0  0  0  0  0  0
    0.2239   -5.3047    0.0757 H   0  0  0  0  0  0  0  0  0  0  0  0
    1.2984   -1.6959    0.1973 H   0  0  0  0  0  0  0  0  0  0  0  0
    3.4734   -1.8254    0.3245 H   0  0  0  0  0  0  0  0  0  0  0  0
    4.1451   -5.4389   -0.5809 H   0  0  0  0  0  0  0  0  0  0  0  0
    8.0901   -2.3960   -0.0689 H   0  0  0  0  0  0  0  0  0  0  0  0
    5.8119   -1.5509    0.4456 H   0  0  0  0  0  0  0  0  0  0  0  0
    8.7059   -8.1603   -1.7223 H   0  0  0  0  0  0  0  0  0  0  0  0
    8.0239   -7.4910   -3.2181 H   0  0  0  0  0  0  0  0  0  0  0  0
    9.6105   -6.9492   -2.6567 H   0  0  0  0  0  0  0  0  0  0  0  0
  1  2  2  0  0  0  0
  1 25  1  0  0  0  0
  2  3  1  0  0  0  0
  2 26  1  0  0  0  0
  3  4  2  0  0  0  0
  3 27  1  0  0  0  0
  4  5  1  0  0  0  0
  4  7  1  0  0  0  0
  5  6  2  0  0  0  0
  6  1  1  0  0  0  0
  7  8  2  0  0  0  0
  8  9  1  0  0  0  0
  8 28  1  0  0  0  0
  9 10  2  0  0  0  0
  9 29  1  0  0  0  0
 10  5  1  0  0  0  0
 10 11  1  0  0  0  0
 11 12  1  0  0  0  0
 11 30  1  0  0  0  0
 12 13  2  0  0  0  0
 12 14  1  0  0  0  0
 14 15  1  0  0  0  0
 14 31  1  0  0  0  0
 15 16  2  0  0  0  0
 16 17  1  0  0  0  0
 16 32  1  0  0  0  0
 17 18  2  0  0  0  0
 17 21  1  0  0  0  0
 18 19  1  0  0  0  0
 19 20  2  0  0  0  0
 19 33  1  0  0  0  0
 20 15  1  0  0  0  0
 20 34  1  0  0  0  0
 21 22  1  0  0  0  0
 22 23  2  0  0  0  0
 22 24  1  0  0  0  0
 23 18  1  0  0  0  0
 24 35  1  0  0  0  0
 24 36  1  0  0  0  0
 24 37  1  0  0  0  0
M  END
>  <Mol_ID>
2542

>  <Formula>
C17H13N5O2

>  <MolWeight>
319.31742

>  <Cat>
S7585

>  <Name>
SB-334867

>  <Synonyms>
N/A

>  <Target>
OX Receptor

>  <Form>
free base

>  <CAS>
792173-99-0

>  <URL>
http://selleckchem.com/products/sb-334867.html

$$$$
