SB 4
 OpenBabel08302521243D

 28 30  0  0  0  0  0  0  0  0999 V2000
    6.0092    2.5046    5.3840 Br  0  0  0  0  0  0  0  0  0  0  0  0
    5.2425    0.9410   -1.4658 S   0  0  0  0  0  0  0  0  0  0  0  0
    5.1072    0.3176   -4.1098 O   0  0  0  0  0  0  0  0  0  0  0  0
    4.1618   -1.2068   -2.7286 N   0  0  0  0  0  0  0  0  0  0  0  0
    4.9334    0.5656    1.2450 C   0  0  0  0  0  0  0  0  0  0  0  0
    4.5930   -0.0502   -0.0925 C   0  0  0  0  0  0  0  0  0  0  0  0
    4.6454   -0.7099   -4.8755 C   0  0  0  0  0  0  0  0  0  0  0  0
    4.0688   -1.6407   -4.0287 C   0  0  0  0  0  0  0  0  0  0  0  0
    4.7949   -0.0514   -2.8249 C   0  0  0  0  0  0  0  0  0  0  0  0
    4.1072    1.5515    1.8092 C   0  0  0  0  0  0  0  0  0  0  0  0
    6.0926    0.1804    1.9359 C   0  0  0  0  0  0  0  0  0  0  0  0
    4.7318   -0.8384   -6.2568 C   0  0  0  0  0  0  0  0  0  0  0  0
    3.5246   -2.8088   -4.5792 C   0  0  0  0  0  0  0  0  0  0  0  0
    4.1937   -2.0152   -6.7913 C   0  0  0  0  0  0  0  0  0  0  0  0
    3.6009   -2.9837   -5.9709 C   0  0  0  0  0  0  0  0  0  0  0  0
    4.4254    2.1273    3.0428 C   0  0  0  0  0  0  0  0  0  0  0  0
    6.4125    0.7551    3.1700 C   0  0  0  0  0  0  0  0  0  0  0  0
    5.5770    1.7258    3.7174 C   0  0  0  0  0  0  0  0  0  0  0  0
    5.0028   -1.0659   -0.1375 H   0  0  0  0  0  0  0  0  0  0  0  0
    3.5044   -0.1389   -0.1856 H   0  0  0  0  0  0  0  0  0  0  0  0
    3.2099    1.8793    1.2897 H   0  0  0  0  0  0  0  0  0  0  0  0
    6.7576   -0.5725    1.5156 H   0  0  0  0  0  0  0  0  0  0  0  0
    5.1958   -0.0794   -6.8740 H   0  0  0  0  0  0  0  0  0  0  0  0
    3.0670   -3.5590   -3.9441 H   0  0  0  0  0  0  0  0  0  0  0  0
    4.2406   -2.1819   -7.8667 H   0  0  0  0  0  0  0  0  0  0  0  0
    3.1950   -3.8894   -6.4182 H   0  0  0  0  0  0  0  0  0  0  0  0
    3.7745    2.8887    3.4641 H   0  0  0  0  0  0  0  0  0  0  0  0
    7.3136    0.4413    3.6901 H   0  0  0  0  0  0  0  0  0  0  0  0
  1 18  1  0  0  0  0
  2  6  1  0  0  0  0
  2  9  1  0  0  0  0
  3  7  1  0  0  0  0
  3  9  1  0  0  0  0
  4  8  1  0  0  0  0
  4  9  2  0  0  0  0
  5  6  1  0  0  0  0
  5 10  2  0  0  0  0
  5 11  1  0  0  0  0
  6 19  1  0  0  0  0
  6 20  1  0  0  0  0
  7  8  2  0  0  0  0
  7 12  1  0  0  0  0
  8 13  1  0  0  0  0
 10 16  1  0  0  0  0
 10 21  1  0  0  0  0
 11 17  2  0  0  0  0
 11 22  1  0  0  0  0
 12 14  2  0  0  0  0
 12 23  1  0  0  0  0
 13 15  2  0  0  0  0
 13 24  1  0  0  0  0
 14 15  1  0  0  0  0
 14 25  1  0  0  0  0
 15 26  1  0  0  0  0
 16 18  2  0  0  0  0
 16 27  1  0  0  0  0
 17 18  1  0  0  0  0
 17 28  1  0  0  0  0
M  END
>  <Mol_ID>
4991

>  <Formula>
C14H10BrNOS

>  <MolWeight>
320.2043

>  <Cat>
S0523

>  <Name>
SB 4

>  <Synonyms>
Benepali, Brenzys, Etanercept biosimilar

>  <Target>
TGF-beta/Smad

>  <Form>
Free Base

>  <CAS>
100874-08-6

>  <URL>
http://www.selleckchem.com/products/sb-4.html

$$$$
