SB 742457.cdx
 OpenBabel08302522003D

 44 47  0  0  0  0  0  0  0  0999 V2000
   -0.5767    5.2176   -0.7331 C   0  0  0  0  0  0  0  0  0  0  0  0
   -0.7452    6.5797   -0.9582 C   0  0  0  0  0  0  0  0  0  0  0  0
    0.0961    7.5065   -0.3387 C   0  0  0  0  0  0  0  0  0  0  0  0
    1.0720    7.0902    0.5541 C   0  0  0  0  0  0  0  0  0  0  0  0
    1.2597    5.7435    0.7832 C   0  0  0  0  0  0  0  0  0  0  0  0
    0.4678    4.8216    0.0978 C   0  0  0  0  0  0  0  0  0  0  0  0
    0.8291    3.1222    0.3015 S   0  0  0  0  0  0  0  0  0  0  0  0
    1.0247    2.2536   -1.2690 C   0  0  0  0  0  0  0  0  0  0  0  0
    2.1495    3.0464    0.9116 O   0  0  0  0  0  0  0  0  0  0  0  0
   -0.3154    2.5350    0.9661 O   0  0  0  0  0  0  0  0  0  0  0  0
    3.8173   -0.9736    0.2191 C   0  0  0  0  0  0  0  0  0  0  0  0
    4.6651   -0.8835   -0.8725 C   0  0  0  0  0  0  0  0  0  0  0  0
    4.3788   -0.0549   -1.9883 C   0  0  0  0  0  0  0  0  0  0  0  0
    2.5665   -0.4140    0.1173 C   0  0  0  0  0  0  0  0  0  0  0  0
    2.2386    0.3456   -1.0031 C   0  0  0  0  0  0  0  0  0  0  0  0
    3.1929    0.7336   -1.9530 C   0  0  0  0  0  0  0  0  0  0  0  0
    2.9326    1.8731   -2.6785 N   0  0  0  0  0  0  0  0  0  0  0  0
    1.9564    2.7009   -2.1886 C   0  0  0  0  0  0  0  0  0  0  0  0
    0.9894    0.9084   -1.0044 C   0  0  0  0  0  0  0  0  0  0  0  0
    5.3634   -0.0422   -2.9866 N   0  0  0  0  0  0  0  0  0  0  0  0
    5.6198    1.1683   -3.7740 C   0  0  0  0  0  0  0  0  0  0  0  0
    5.0008    1.0895   -5.1817 C   0  0  0  0  0  0  0  0  0  0  0  0
    5.4400   -0.1182   -5.9200 N   0  0  0  0  0  0  0  0  0  0  0  0
    4.9976   -1.2941   -5.1440 C   0  0  0  0  0  0  0  0  0  0  0  0
    5.5461   -1.3300   -3.6979 C   0  0  0  0  0  0  0  0  0  0  0  0
   -1.2496    4.4953   -1.1853 H   0  0  0  0  0  0  0  0  0  0  0  0
   -1.5381    6.9272   -1.6094 H   0  0  0  0  0  0  0  0  0  0  0  0
   -0.0294    8.5719   -0.5425 H   0  0  0  0  0  0  0  0  0  0  0  0
    1.7058    7.8133    1.0651 H   0  0  0  0  0  0  0  0  0  0  0  0
    2.0124    5.4052    1.4966 H   0  0  0  0  0  0  0  0  0  0  0  0
    4.1253   -1.4666    1.1350 H   0  0  0  0  0  0  0  0  0  0  0  0
    5.6219   -1.3981   -0.8244 H   0  0  0  0  0  0  0  0  0  0  0  0
    1.8973   -0.4394    0.9769 H   0  0  0  0  0  0  0  0  0  0  0  0
    2.0274    3.7290   -2.5147 H   0  0  0  0  0  0  0  0  0  0  0  0
    0.2196    0.5236   -0.3396 H   0  0  0  0  0  0  0  0  0  0  0  0
    5.3200    2.0826   -3.2530 H   0  0  0  0  0  0  0  0  0  0  0  0
    6.7101    1.2508   -3.8829 H   0  0  0  0  0  0  0  0  0  0  0  0
    3.9062    1.0994   -5.1286 H   0  0  0  0  0  0  0  0  0  0  0  0
    5.3005    1.9725   -5.7556 H   0  0  0  0  0  0  0  0  0  0  0  0
    6.4610   -0.1181   -5.9245 H   0  0  0  0  0  0  0  0  0  0  0  0
    3.9011   -1.3206   -5.1295 H   0  0  0  0  0  0  0  0  0  0  0  0
    5.3223   -2.1996   -5.6697 H   0  0  0  0  0  0  0  0  0  0  0  0
    6.6197   -1.5508   -3.7252 H   0  0  0  0  0  0  0  0  0  0  0  0
    5.0691   -2.1700   -3.1751 H   0  0  0  0  0  0  0  0  0  0  0  0
  1  2  2  0  0  0  0
  1  6  1  0  0  0  0
  1 26  1  0  0  0  0
  2  3  1  0  0  0  0
  2 27  1  0  0  0  0
  3  4  2  0  0  0  0
  3 28  1  0  0  0  0
  4  5  1  0  0  0  0
  4 29  1  0  0  0  0
  5  6  2  0  0  0  0
  5 30  1  0  0  0  0
  6  7  1  0  0  0  0
  7  8  1  0  0  0  0
  7  9  2  0  0  0  0
  7 10  2  0  0  0  0
  8 19  2  0  0  0  0
 11 14  2  0  0  0  0
 11 12  1  0  0  0  0
 11 31  1  0  0  0  0
 12 13  2  0  0  0  0
 12 32  1  0  0  0  0
 13 16  1  0  0  0  0
 13 20  1  0  0  0  0
 14 33  1  0  0  0  0
 15 14  1  0  0  0  0
 15 16  2  0  0  0  0
 15 19  1  0  0  0  0
 16 17  1  0  0  0  0
 17 18  2  0  0  0  0
 18  8  1  0  0  0  0
 18 34  1  0  0  0  0
 19 35  1  0  0  0  0
 20 21  1  0  0  0  0
 20 25  1  0  0  0  0
 21 22  1  0  0  0  0
 21 36  1  0  0  0  0
 21 37  1  0  0  0  0
 22 23  1  0  0  0  0
 22 38  1  0  0  0  0
 22 39  1  0  0  0  0
 23 24  1  0  0  0  0
 23 40  1  0  0  0  0
 24 25  1  0  0  0  0
 24 41  1  0  0  0  0
 24 42  1  0  0  0  0
 25 43  1  0  0  0  0
 25 44  1  0  0  0  0
M  END
>  <Mol_ID>
1070

>  <Formula>
C19H19N3O2S

>  <MolWeight>
353.43806

>  <Cat>
S2894

>  <Name>
SB742457

>  <Synonyms>
GSK 742457

>  <Target>
5-HT Receptor

>  <Form>
free base

>  <CAS>
607742-69-8

>  <URL>
http://selleckchem.com/products/sb-742457.html

$$$$
