SB 939.cdx
 OpenBabel08302520013D

 56 57  0  0  0  0  0  0  0  0999 V2000
   -2.1370   -0.7704   -0.0505 C   0  0  0  0  0  0  0  0  0  0  0  0
   -2.1614    0.6238    0.0283 C   0  0  0  0  0  0  0  0  0  0  0  0
   -0.9878    1.3945   -0.0331 C   0  0  0  0  0  0  0  0  0  0  0  0
    0.2419    0.7410   -0.1936 C   0  0  0  0  0  0  0  0  0  0  0  0
    0.2795   -0.6540   -0.2833 C   0  0  0  0  0  0  0  0  0  0  0  0
   -0.9047   -1.4110   -0.2289 C   0  0  0  0  0  0  0  0  0  0  0  0
    1.5746    1.1263   -0.2952 N   0  0  0  0  0  0  0  0  0  0  0  0
    2.3280   -0.0456   -0.4085 C   0  0  0  0  0  0  0  0  0  0  0  0
    1.5544   -1.1087   -0.4225 N   0  0  0  0  0  0  0  0  0  0  0  0
   -3.4062   -1.5124    0.0170 C   0  0  0  0  0  0  0  0  0  0  0  0
   -3.5202   -2.7362    0.5594 C   0  0  0  0  0  0  0  0  0  0  0  0
   -4.8358   -3.4156    0.5968 C   0  0  0  0  0  0  0  0  0  0  0  0
   -4.7765   -4.6668    1.1497 N   0  0  0  0  0  0  0  0  0  0  0  0
   -5.8743   -2.9217    0.1728 O   0  0  0  0  0  0  0  0  0  0  0  0
   -5.9783   -5.4059    1.1889 O   0  0  0  0  0  0  0  0  0  0  0  0
    2.1498    2.4687   -0.1746 C   0  0  0  0  0  0  0  0  0  0  0  0
    1.3059    3.6771   -0.6459 C   0  0  0  0  0  0  0  0  0  0  0  0
    1.8747    5.0052   -0.3507 N   0  0  0  0  0  0  0  0  0  0  0  0
    3.0953    5.3833   -1.0580 C   0  0  0  0  0  0  0  0  0  0  0  0
    0.8657    6.0717   -0.2446 C   0  0  0  0  0  0  0  0  0  0  0  0
    0.0764    6.4499   -1.4952 C   0  0  0  0  0  0  0  0  0  0  0  0
    3.0572    5.3627   -2.5801 C   0  0  0  0  0  0  0  0  0  0  0  0
    3.8164   -0.1594   -0.5609 C   0  0  0  0  0  0  0  0  0  0  0  0
    4.6329    0.1522    0.6935 C   0  0  0  0  0  0  0  0  0  0  0  0
    4.3352   -0.6941    1.9366 C   0  0  0  0  0  0  0  0  0  0  0  0
    4.5870   -2.1840    1.7599 C   0  0  0  0  0  0  0  0  0  0  0  0
   -3.1102    1.1446    0.1567 H   0  0  0  0  0  0  0  0  0  0  0  0
   -1.0914    2.4656    0.0485 H   0  0  0  0  0  0  0  0  0  0  0  0
   -0.8240   -2.4868   -0.3247 H   0  0  0  0  0  0  0  0  0  0  0  0
   -4.2833   -1.0013   -0.3765 H   0  0  0  0  0  0  0  0  0  0  0  0
   -2.6726   -3.2547    0.9860 H   0  0  0  0  0  0  0  0  0  0  0  0
   -3.9381   -5.1318    1.4759 H   0  0  0  0  0  0  0  0  0  0  0  0
   -6.6165   -4.7875    0.7702 H   0  0  0  0  0  0  0  0  0  0  0  0
    2.3937    2.5812    0.8888 H   0  0  0  0  0  0  0  0  0  0  0  0
    3.0880    2.4615   -0.7394 H   0  0  0  0  0  0  0  0  0  0  0  0
    1.0400    3.5695   -1.7032 H   0  0  0  0  0  0  0  0  0  0  0  0
    0.3789    3.6487   -0.0817 H   0  0  0  0  0  0  0  0  0  0  0  0
    3.4071    6.3843   -0.7310 H   0  0  0  0  0  0  0  0  0  0  0  0
    3.9043    4.7218   -0.7265 H   0  0  0  0  0  0  0  0  0  0  0  0
    0.1453    5.7768    0.5298 H   0  0  0  0  0  0  0  0  0  0  0  0
    1.3348    6.9792    0.1571 H   0  0  0  0  0  0  0  0  0  0  0  0
   -0.1258    5.5958   -2.1468 H   0  0  0  0  0  0  0  0  0  0  0  0
   -0.8928    6.8732   -1.2050 H   0  0  0  0  0  0  0  0  0  0  0  0
    0.5997    7.2173   -2.0741 H   0  0  0  0  0  0  0  0  0  0  0  0
    2.3405    6.0808   -2.9841 H   0  0  0  0  0  0  0  0  0  0  0  0
    4.0426    5.6370   -2.9729 H   0  0  0  0  0  0  0  0  0  0  0  0
    2.8152    4.3696   -2.9677 H   0  0  0  0  0  0  0  0  0  0  0  0
    4.0460   -1.1860   -0.8792 H   0  0  0  0  0  0  0  0  0  0  0  0
    4.1491    0.4786   -1.3874 H   0  0  0  0  0  0  0  0  0  0  0  0
    5.6946    0.0295    0.4413 H   0  0  0  0  0  0  0  0  0  0  0  0
    4.5043    1.2069    0.9596 H   0  0  0  0  0  0  0  0  0  0  0  0
    4.9811   -0.3364    2.7488 H   0  0  0  0  0  0  0  0  0  0  0  0
    3.3037   -0.5342    2.2680 H   0  0  0  0  0  0  0  0  0  0  0  0
    5.6107   -2.3764    1.4235 H   0  0  0  0  0  0  0  0  0  0  0  0
    4.4471   -2.7015    2.7157 H   0  0  0  0  0  0  0  0  0  0  0  0
    3.8939   -2.6275    1.0398 H   0  0  0  0  0  0  0  0  0  0  0  0
  1  2  2  0  0  0  0
  1 10  1  0  0  0  0
  2  3  1  0  0  0  0
  2 27  1  0  0  0  0
  3  4  2  0  0  0  0
  3 28  1  0  0  0  0
  4  5  1  0  0  0  0
  4  7  1  0  0  0  0
  5  6  2  0  0  0  0
  6  1  1  0  0  0  0
  6 29  1  0  0  0  0
  7  8  1  0  0  0  0
  7 16  1  0  0  0  0
  8  9  2  0  0  0  0
  8 23  1  0  0  0  0
  9  5  1  0  0  0  0
 10 11  2  0  0  0  0
 10 30  1  0  0  0  0
 11 12  1  0  0  0  0
 11 31  1  0  0  0  0
 12 13  1  0  0  0  0
 12 14  2  0  0  0  0
 13 15  1  0  0  0  0
 13 32  1  0  0  0  0
 15 33  1  0  0  0  0
 16 17  1  0  0  0  0
 16 34  1  0  0  0  0
 16 35  1  0  0  0  0
 17 18  1  0  0  0  0
 17 36  1  0  0  0  0
 17 37  1  0  0  0  0
 18 19  1  0  0  0  0
 18 20  1  0  0  0  0
 19 22  1  0  0  0  0
 19 38  1  0  0  0  0
 19 39  1  0  0  0  0
 20 21  1  0  0  0  0
 20 40  1  0  0  0  0
 20 41  1  0  0  0  0
 21 42  1  0  0  0  0
 21 43  1  0  0  0  0
 21 44  1  0  0  0  0
 22 45  1  0  0  0  0
 22 46  1  0  0  0  0
 22 47  1  0  0  0  0
 23 24  1  0  0  0  0
 23 48  1  0  0  0  0
 23 49  1  0  0  0  0
 24 25  1  0  0  0  0
 24 50  1  0  0  0  0
 24 51  1  0  0  0  0
 25 26  1  0  0  0  0
 25 52  1  0  0  0  0
 25 53  1  0  0  0  0
 26 54  1  0  0  0  0
 26 55  1  0  0  0  0
 26 56  1  0  0  0  0
M  END
>  <Mol_ID>
298

>  <Formula>
C20H30N4O2

>  <MolWeight>
358.4778

>  <Cat>
S1515

>  <Name>
Pracinostat (SB939)

>  <Synonyms>
N/A

>  <Target>
Apoptosis related,HDAC

>  <Form>
free base

>  <CAS>
929016-96-6

>  <URL>
http://selleckchem.com/products/SB939.html

$$$$
