SBI-0206965.cdx
 OpenBabel08302519563D

 52 54  0  0  0  0  0  0  0  0999 V2000
    0.3229    2.9063    1.6323 C   0  0  0  0  0  0  0  0  0  0  0  0
    0.2755    2.9878    3.0431 C   0  0  0  0  0  0  0  0  0  0  0  0
    1.2335    2.3772    3.8545 C   0  0  0  0  0  0  0  0  0  0  0  0
    2.2256    1.6062    3.2753 C   0  0  0  0  0  0  0  0  0  0  0  0
    2.2832    1.4953    1.8892 C   0  0  0  0  0  0  0  0  0  0  0  0
    1.4004    2.2180    1.0515 C   0  0  0  0  0  0  0  0  0  0  0  0
    1.6304    2.2424   -0.3171 O   0  0  0  0  0  0  0  0  0  0  0  0
    2.9786    2.3134   -0.7010 C   0  0  0  0  0  0  0  0  0  0  0  0
    3.8247    2.9890    0.1128 N   0  0  0  0  0  0  0  0  0  0  0  0
    5.1358    2.9180   -0.1402 C   0  0  0  0  0  0  0  0  0  0  0  0
    5.6340    2.2559   -1.1946 N   0  0  0  0  0  0  0  0  0  0  0  0
    4.7595    1.6322   -2.0147 C   0  0  0  0  0  0  0  0  0  0  0  0
    3.3991    1.6293   -1.8203 C   0  0  0  0  0  0  0  0  0  0  0  0
    2.2607    0.6901   -2.9831 Br  0  0  0  0  0  0  0  0  0  0  0  0
    5.9630    3.4988    0.8165 N   0  0  0  0  0  0  0  0  0  0  0  0
    7.2302    4.0883    0.6981 C   0  0  0  0  0  0  0  0  0  0  0  0
    7.8928    4.2172   -0.5235 C   0  0  0  0  0  0  0  0  0  0  0  0
    9.1704    4.7879   -0.6323 C   0  0  0  0  0  0  0  0  0  0  0  0
    9.8390    5.2158    0.5333 C   0  0  0  0  0  0  0  0  0  0  0  0
    9.1822    5.0851    1.7751 C   0  0  0  0  0  0  0  0  0  0  0  0
    7.9032    4.5079    1.8453 C   0  0  0  0  0  0  0  0  0  0  0  0
    9.7799    4.9623   -1.8480 O   0  0  0  0  0  0  0  0  0  0  0  0
    9.1095    4.5172   -3.0230 C   0  0  0  0  0  0  0  0  0  0  0  0
   11.1113    5.7309    0.5910 O   0  0  0  0  0  0  0  0  0  0  0  0
   11.9096    5.8010   -0.5803 C   0  0  0  0  0  0  0  0  0  0  0  0
    9.6724    5.4390    3.0124 O   0  0  0  0  0  0  0  0  0  0  0  0
   10.5389    6.5685    3.0678 C   0  0  0  0  0  0  0  0  0  0  0  0
   -0.8381    3.5474    0.9363 C   0  0  0  0  0  0  0  0  0  0  0  0
   -0.9243    3.4973   -0.4358 N   0  0  0  0  0  0  0  0  0  0  0  0
   -2.0968    4.0226   -1.0956 C   0  0  0  0  0  0  0  0  0  0  0  0
   -1.7285    4.0735    1.6042 O   0  0  0  0  0  0  0  0  0  0  0  0
   -0.5234    3.5418    3.5323 H   0  0  0  0  0  0  0  0  0  0  0  0
    1.1844    2.4917    4.9337 H   0  0  0  0  0  0  0  0  0  0  0  0
    2.9689    1.1089    3.8920 H   0  0  0  0  0  0  0  0  0  0  0  0
    3.0787    0.8847    1.4668 H   0  0  0  0  0  0  0  0  0  0  0  0
    5.2248    1.1003   -2.8409 H   0  0  0  0  0  0  0  0  0  0  0  0
    5.4071    3.8210    1.5979 H   0  0  0  0  0  0  0  0  0  0  0  0
    7.3778    3.8810   -1.4132 H   0  0  0  0  0  0  0  0  0  0  0  0
    7.4413    4.3980    2.8231 H   0  0  0  0  0  0  0  0  0  0  0  0
    8.9750    3.4319   -3.0101 H   0  0  0  0  0  0  0  0  0  0  0  0
    8.1547    5.0382   -3.1559 H   0  0  0  0  0  0  0  0  0  0  0  0
    9.7404    4.7659   -3.8799 H   0  0  0  0  0  0  0  0  0  0  0  0
   12.0308    4.8199   -1.0514 H   0  0  0  0  0  0  0  0  0  0  0  0
   11.5201    6.5515   -1.2762 H   0  0  0  0  0  0  0  0  0  0  0  0
   12.9083    6.1324   -0.2788 H   0  0  0  0  0  0  0  0  0  0  0  0
   11.5711    6.2771    2.8525 H   0  0  0  0  0  0  0  0  0  0  0  0
   10.2039    7.3833    2.4156 H   0  0  0  0  0  0  0  0  0  0  0  0
   10.5255    6.9468    4.0956 H   0  0  0  0  0  0  0  0  0  0  0  0
   -0.1662    3.1088   -0.9811 H   0  0  0  0  0  0  0  0  0  0  0  0
   -2.1362    5.1065   -0.9516 H   0  0  0  0  0  0  0  0  0  0  0  0
   -2.0530    3.7861   -2.1598 H   0  0  0  0  0  0  0  0  0  0  0  0
   -2.9964    3.5762   -0.6560 H   0  0  0  0  0  0  0  0  0  0  0  0
  1  2  2  0  0  0  0
  1 28  1  0  0  0  0
  2  3  1  0  0  0  0
  2 32  1  0  0  0  0
  3  4  2  0  0  0  0
  3 33  1  0  0  0  0
  4  5  1  0  0  0  0
  4 34  1  0  0  0  0
  5  6  2  0  0  0  0
  5 35  1  0  0  0  0
  6  1  1  0  0  0  0
  6  7  1  0  0  0  0
  7  8  1  0  0  0  0
  8  9  2  0  0  0  0
  9 10  1  0  0  0  0
 10 11  2  0  0  0  0
 10 15  1  0  0  0  0
 11 12  1  0  0  0  0
 12 13  2  0  0  0  0
 12 36  1  0  0  0  0
 13  8  1  0  0  0  0
 13 14  1  0  0  0  0
 15 16  1  0  0  0  0
 15 37  1  0  0  0  0
 16 17  2  0  0  0  0
 17 18  1  0  0  0  0
 17 38  1  0  0  0  0
 18 19  2  0  0  0  0
 18 22  1  0  0  0  0
 19 20  1  0  0  0  0
 19 24  1  0  0  0  0
 20 21  2  0  0  0  0
 20 26  1  0  0  0  0
 21 16  1  0  0  0  0
 21 39  1  0  0  0  0
 22 23  1  0  0  0  0
 23 40  1  0  0  0  0
 23 41  1  0  0  0  0
 23 42  1  0  0  0  0
 24 25  1  0  0  0  0
 25 43  1  0  0  0  0
 25 44  1  0  0  0  0
 25 45  1  0  0  0  0
 26 27  1  0  0  0  0
 27 46  1  0  0  0  0
 27 47  1  0  0  0  0
 27 48  1  0  0  0  0
 28 29  1  0  0  0  0
 28 31  2  0  0  0  0
 29 30  1  0  0  0  0
 29 49  1  0  0  0  0
 30 50  1  0  0  0  0
 30 51  1  0  0  0  0
 30 52  1  0  0  0  0
M  END
>  <Mol_ID>
2200

>  <Formula>
C21H21BrN4O5

>  <MolWeight>
489.31924

>  <Cat>
S7885

>  <Name>
SBI-0206965

>  <Synonyms>
N/A

>  <Target>
Apoptosis related,Autophagy,ULK

>  <Form>
free base

>  <CAS>
1884220-36-3

>  <URL>
http://selleckchem.com/products/sbi-0206965.html

$$$$
