SBI-797812
 OpenBabel08302521243D

 50 53  0  0  0  0  0  0  0  0999 V2000
    0.9572    0.5165   -0.2570 N   0  0  0  0  0  0  0  0  0  0  0  0
    2.2984    0.5777    0.0614 C   0  0  0  0  0  0  0  0  0  0  0  0
    3.2262    0.2034   -0.6433 O   0  0  0  0  0  0  0  0  0  0  0  0
    2.5179    1.1174    1.3077 N   0  0  0  0  0  0  0  0  0  0  0  0
    3.8634    1.2916    1.8181 C   0  0  0  0  0  0  0  0  0  0  0  0
    4.4619   -1.6182    4.1702 C   0  0  0  0  0  0  0  0  0  0  0  0
    4.1868   -0.9163    3.0055 C   0  0  0  0  0  0  0  0  0  0  0  0
    4.1205    0.4800    3.0609 C   0  0  0  0  0  0  0  0  0  0  0  0
    4.3474    1.1032    4.2920 C   0  0  0  0  0  0  0  0  0  0  0  0
    4.6157    0.3143    5.4012 C   0  0  0  0  0  0  0  0  0  0  0  0
    4.6725   -1.0331    5.3687 N   0  0  0  0  0  0  0  0  0  0  0  0
    0.3840   -0.1562   -1.3617 C   0  0  0  0  0  0  0  0  0  0  0  0
    1.1265   -0.9530   -2.2384 C   0  0  0  0  0  0  0  0  0  0  0  0
    0.4943   -1.7281   -3.2127 C   0  0  0  0  0  0  0  0  0  0  0  0
   -0.8957   -1.7154   -3.3108 C   0  0  0  0  0  0  0  0  0  0  0  0
   -1.6469   -0.8379   -2.5271 C   0  0  0  0  0  0  0  0  0  0  0  0
   -1.0045   -0.0655   -1.5487 C   0  0  0  0  0  0  0  0  0  0  0  0
   -1.6876   -2.7901   -4.4824 S   0  0  0  0  0  0  0  0  0  0  0  0
   -2.9939   -2.2345   -4.7730 O   0  0  0  0  0  0  0  0  0  0  0  0
   -0.7378   -3.0550   -5.5408 O   0  0  0  0  0  0  0  0  0  0  0  0
   -1.3380   -6.5832   -3.4867 C   0  0  3  0  0  0  0  0  0  0  0  0
   -0.7824   -5.1440   -3.3581 C   0  0  0  0  0  0  0  0  0  0  0  0
   -1.8992   -4.2045   -3.6216 N   0  0  0  0  0  0  0  0  0  0  0  0
   -3.1002   -4.4711   -2.7977 C   0  0  0  0  0  0  0  0  0  0  0  0
   -3.4484   -5.9808   -2.9120 C   0  0  3  0  0  0  0  0  0  0  0  0
   -3.5801   -6.4418   -4.3612 C   0  0  0  0  0  0  0  0  0  0  0  0
   -2.1487   -6.7856   -4.7693 C   0  0  0  0  0  0  0  0  0  0  0  0
   -2.3223   -6.7586   -2.4359 O   0  0  0  0  0  0  0  0  0  0  0  0
    0.3213    0.9978    0.3600 H   0  0  0  0  0  0  0  0  0  0  0  0
    1.7459    1.3152    1.9235 H   0  0  0  0  0  0  0  0  0  0  0  0
    4.6174    1.0390    1.0640 H   0  0  0  0  0  0  0  0  0  0  0  0
    3.9729    2.3603    2.0306 H   0  0  0  0  0  0  0  0  0  0  0  0
    4.5287   -2.7027    4.1682 H   0  0  0  0  0  0  0  0  0  0  0  0
    4.0421   -1.4492    2.0703 H   0  0  0  0  0  0  0  0  0  0  0  0
    4.3330    2.1832    4.3925 H   0  0  0  0  0  0  0  0  0  0  0  0
    4.8037    0.7610    6.3736 H   0  0  0  0  0  0  0  0  0  0  0  0
    2.2071   -1.0229   -2.1742 H   0  0  0  0  0  0  0  0  0  0  0  0
    1.0986   -2.3483   -3.8710 H   0  0  0  0  0  0  0  0  0  0  0  0
   -2.7238   -0.7610   -2.6612 H   0  0  0  0  0  0  0  0  0  0  0  0
   -1.6099    0.5936   -0.9304 H   0  0  0  0  0  0  0  0  0  0  0  0
   -0.5417   -7.3239   -3.3701 H   0  0  0  0  0  0  0  0  0  0  0  0
   -0.4158   -4.9789   -2.3370 H   0  0  0  0  0  0  0  0  0  0  0  0
    0.0458   -4.9977   -4.0556 H   0  0  0  0  0  0  0  0  0  0  0  0
   -2.8794   -4.2155   -1.7552 H   0  0  0  0  0  0  0  0  0  0  0  0
   -3.9538   -3.8781   -3.1352 H   0  0  0  0  0  0  0  0  0  0  0  0
   -4.3327   -6.2207   -2.3146 H   0  0  0  0  0  0  0  0  0  0  0  0
   -4.1904   -7.3513   -4.4094 H   0  0  0  0  0  0  0  0  0  0  0  0
   -4.0480   -5.6946   -5.0096 H   0  0  0  0  0  0  0  0  0  0  0  0
   -1.7861   -6.1740   -5.6025 H   0  0  0  0  0  0  0  0  0  0  0  0
   -2.1047   -7.8317   -5.0917 H   0  0  0  0  0  0  0  0  0  0  0  0
  1  2  1  0  0  0  0
  1 12  1  0  0  0  0
  1 29  1  0  0  0  0
  2  3  2  0  0  0  0
  2  4  1  0  0  0  0
  4  5  1  0  0  0  0
  4 30  1  0  0  0  0
  5  8  1  0  0  0  0
  5 31  1  0  0  0  0
  5 32  1  0  0  0  0
  6  7  2  0  0  0  0
  6 11  1  0  0  0  0
  6 33  1  0  0  0  0
  7  8  1  0  0  0  0
  7 34  1  0  0  0  0
  8  9  2  0  0  0  0
  9 10  1  0  0  0  0
  9 35  1  0  0  0  0
 10 11  2  0  0  0  0
 10 36  1  0  0  0  0
 12 13  2  0  0  0  0
 12 17  1  0  0  0  0
 13 14  1  0  0  0  0
 13 37  1  0  0  0  0
 14 15  2  0  0  0  0
 14 38  1  0  0  0  0
 15 16  1  0  0  0  0
 15 18  1  0  0  0  0
 16 17  2  0  0  0  0
 16 39  1  0  0  0  0
 17 40  1  0  0  0  0
 18 19  2  0  0  0  0
 18 20  2  0  0  0  0
 18 23  1  0  0  0  0
 21 22  1  0  0  0  0
 21 27  1  0  0  0  0
 21 28  1  0  0  0  0
 21 41  1  0  0  0  0
 22 23  1  0  0  0  0
 22 42  1  0  0  0  0
 22 43  1  0  0  0  0
 23 24  1  0  0  0  0
 24 25  1  0  0  0  0
 24 44  1  0  0  0  0
 24 45  1  0  0  0  0
 25 26  1  0  0  0  0
 25 28  1  0  0  0  0
 25 46  1  0  0  0  0
 26 27  1  0  0  0  0
 26 47  1  0  0  0  0
 26 48  1  0  0  0  0
 27 49  1  0  0  0  0
 27 50  1  0  0  0  0
M  END
>  <Mol_ID>
4912

>  <Formula>
C19H22N4O4S

>  <MolWeight>
402.46738

>  <Cat>
S8980

>  <Name>
SBI-797812

>  <Synonyms>
N/A

>  <Target>
NAMPT

>  <Form>
Free Base

>  <CAS>
2237268-08-3

>  <URL>
http://www.selleckchem.com/products/sbi-797812.html

$$$$
