SBI-425
 OpenBabel08302521333D

 34 35  0  0  0  0  0  0  0  0999 V2000
    1.0005   -0.3047    0.2143 S   0  0  0  0  0  0  0  0  0  0  0  0
    0.7256   -1.0831   -1.2719 N   0  0  0  0  0  0  0  0  0  0  0  0
    0.7601   -1.2669    1.2686 O   0  0  0  0  0  0  0  0  0  0  0  0
    0.2259    0.9129    0.1895 O   0  0  0  0  0  0  0  0  0  0  0  0
    2.9464    2.2526   -1.1247 O   0  0  0  0  0  0  0  0  0  0  0  0
    1.6224    2.4634   -1.5578 C   0  0  0  0  0  0  0  0  0  0  0  0
    3.8067   -4.8438   -2.2989 C   0  0  0  0  0  0  0  0  0  0  0  0
    4.9162   -4.0507   -2.2093 N   0  0  0  0  0  0  0  0  0  0  0  0
    3.8769   -5.9843   -2.7372 O   0  0  0  0  0  0  0  0  0  0  0  0
    2.7443    0.0612    0.1591 C   0  0  0  0  0  0  0  0  0  0  0  0
    3.3679    1.1821   -0.4017 C   0  0  0  0  0  0  0  0  0  0  0  0
    3.5382   -0.9035    0.8349 C   0  0  0  0  0  0  0  0  0  0  0  0
    4.7692    1.2956   -0.2372 C   0  0  0  0  0  0  0  0  0  0  0  0
    4.9174   -0.7678    0.9684 C   0  0  0  0  0  0  0  0  0  0  0  0
    5.5366    0.3459    0.4367 C   0  0  0  0  0  0  0  0  0  0  0  0
    1.0138   -2.4826   -1.3273 C   0  0  0  0  0  0  0  0  0  0  0  0
    2.2566   -2.9154   -1.7807 C   0  0  0  0  0  0  0  0  0  0  0  0
    0.1013   -3.4371   -0.8815 C   0  0  0  0  0  0  0  0  0  0  0  0
    2.5294   -4.2858   -1.8063 C   0  0  0  0  0  0  0  0  0  0  0  0
    0.3318   -4.7709   -0.9106 N   0  0  0  0  0  0  0  0  0  0  0  0
    1.5395   -5.1671   -1.3832 C   0  0  0  0  0  0  0  0  0  0  0  0
   -0.1832   -0.7937   -1.6389 H   0  0  0  0  0  0  0  0  0  0  0  0
    1.2024    1.5833   -2.0474 H   0  0  0  0  0  0  0  0  0  0  0  0
    1.0132    2.8452   -0.7369 H   0  0  0  0  0  0  0  0  0  0  0  0
    1.6478    3.2617   -2.3076 H   0  0  0  0  0  0  0  0  0  0  0  0
    5.7957   -4.4770   -2.4750 H   0  0  0  0  0  0  0  0  0  0  0  0
    4.9560   -3.2001   -1.6653 H   0  0  0  0  0  0  0  0  0  0  0  0
    3.0766   -1.7837    1.2842 H   0  0  0  0  0  0  0  0  0  0  0  0
    5.2791    2.1686   -0.6485 H   0  0  0  0  0  0  0  0  0  0  0  0
    5.4934   -1.5175    1.5046 H   0  0  0  0  0  0  0  0  0  0  0  0
    6.6081    0.4901    0.5488 H   0  0  0  0  0  0  0  0  0  0  0  0
    2.9825   -2.1944   -2.1410 H   0  0  0  0  0  0  0  0  0  0  0  0
   -0.8654   -3.1527   -0.4753 H   0  0  0  0  0  0  0  0  0  0  0  0
    1.6952   -6.2440   -1.4022 H   0  0  0  0  0  0  0  0  0  0  0  0
  1  2  1  0  0  0  0
  1  3  2  0  0  0  0
  1  4  2  0  0  0  0
  1 10  1  0  0  0  0
  2 16  1  0  0  0  0
  2 22  1  0  0  0  0
  5  6  1  0  0  0  0
  5 11  1  0  0  0  0
  6 23  1  0  0  0  0
  6 24  1  0  0  0  0
  6 25  1  0  0  0  0
  7  8  1  0  0  0  0
  7  9  2  0  0  0  0
  7 19  1  0  0  0  0
  8 26  1  0  0  0  0
  8 27  1  0  0  0  0
 10 11  2  0  0  0  0
 10 12  1  0  0  0  0
 11 13  1  0  0  0  0
 12 14  2  0  0  0  0
 12 28  1  0  0  0  0
 13 15  2  0  0  0  0
 13 29  1  0  0  0  0
 14 15  1  0  0  0  0
 14 30  1  0  0  0  0
 15 31  1  0  0  0  0
 16 17  2  0  0  0  0
 16 18  1  0  0  0  0
 17 19  1  0  0  0  0
 17 32  1  0  0  0  0
 18 20  2  0  0  0  0
 18 33  1  0  0  0  0
 19 21  2  0  0  0  0
 20 21  1  0  0  0  0
 21 34  1  0  0  0  0
M  END
>  <Mol_ID>
6418

>  <Formula>
C13H12ClN3O4S

>  <MolWeight>
341.77008

>  <Cat>
E1171

>  <Name>
SBI-425

>  <Target>
phosphatase

>  <Form>
free base

>  <CAS>
1451272-71-1

>  <URL>
http://www.selleckchem.com/products/sbi-425.html

$$$$
