SBI-115
 OpenBabel08302521243D

 35 36  0  0  0  0  0  0  0  0999 V2000
    0.1030    1.2553    0.0373 C   0  0  0  0  0  0  0  0  0  0  0  0
    1.2790    0.6142   -0.0024 N   0  0  0  0  0  0  0  0  0  0  0  0
    1.1859   -0.7344    0.0186 C   0  0  0  0  0  0  0  0  0  0  0  0
   -0.0145   -1.4202    0.0414 C   0  0  0  0  0  0  0  0  0  0  0  0
   -1.1487   -0.6409    0.0566 C   0  0  0  0  0  0  0  0  0  0  0  0
   -1.1240    0.7042    0.0518 N   0  0  0  0  0  0  0  0  0  0  0  0
    2.4558   -1.5082   -0.0993 C   0  0  0  0  0  0  0  0  0  0  0  0
    2.5149   -2.7245   -0.2071 O   0  0  0  0  0  0  0  0  0  0  0  0
    3.5066   -0.6144   -0.1702 O   0  0  0  0  0  0  0  0  0  0  0  0
    0.2093    3.0423    0.0369 S   0  0  0  0  0  0  0  0  0  0  0  0
   -1.1311    3.5938   -0.0572 O   0  0  0  0  0  0  0  0  0  0  0  0
    1.0904    3.4356    1.1284 O   0  0  0  0  0  0  0  0  0  0  0  0
    1.0337    3.3878   -1.5071 C   0  0  0  0  0  0  0  0  0  0  0  0
    1.2535    4.8765   -1.7015 C   0  0  0  0  0  0  0  0  0  0  0  0
    4.3693   -0.7650   -1.2659 C   0  0  0  0  0  0  0  0  0  0  0  0
    3.9038   -1.1681   -2.5213 C   0  0  0  0  0  0  0  0  0  0  0  0
    6.1057   -0.8018   -3.4342 C   0  0  0  0  0  0  0  0  0  0  0  0
    5.6872   -0.3524   -1.0934 C   0  0  0  0  0  0  0  0  0  0  0  0
    4.7752   -1.2000   -3.6130 C   0  0  0  0  0  0  0  0  0  0  0  0
    6.5585   -0.3757   -2.1818 C   0  0  0  0  0  0  0  0  0  0  0  0
    4.2919   -1.6634   -4.9547 C   0  0  0  0  0  0  0  0  0  0  0  0
   -0.0648   -2.5027    0.0266 H   0  0  0  0  0  0  0  0  0  0  0  0
   -2.1399   -1.0894    0.0673 H   0  0  0  0  0  0  0  0  0  0  0  0
    1.9940    2.8643   -1.5093 H   0  0  0  0  0  0  0  0  0  0  0  0
    0.4051    2.9913   -2.3102 H   0  0  0  0  0  0  0  0  0  0  0  0
    1.9167    5.2799   -0.9294 H   0  0  0  0  0  0  0  0  0  0  0  0
    1.7103    5.0710   -2.6771 H   0  0  0  0  0  0  0  0  0  0  0  0
    0.3094    5.4285   -1.6515 H   0  0  0  0  0  0  0  0  0  0  0  0
    2.8659   -1.4505   -2.6638 H   0  0  0  0  0  0  0  0  0  0  0  0
    6.7977   -0.8173   -4.2734 H   0  0  0  0  0  0  0  0  0  0  0  0
    6.0329   -0.0048   -0.1238 H   0  0  0  0  0  0  0  0  0  0  0  0
    7.5900   -0.0566   -2.0582 H   0  0  0  0  0  0  0  0  0  0  0  0
    4.4473   -0.8830   -5.7055 H   0  0  0  0  0  0  0  0  0  0  0  0
    4.8275   -2.5699   -5.2522 H   0  0  0  0  0  0  0  0  0  0  0  0
    3.2219   -1.8981   -4.9346 H   0  0  0  0  0  0  0  0  0  0  0  0
  1  2  2  0  0  0  0
  1  6  1  0  0  0  0
  1 10  1  0  0  0  0
  2  3  1  0  0  0  0
  3  4  2  0  0  0  0
  3  7  1  0  0  0  0
  4  5  1  0  0  0  0
  4 22  1  0  0  0  0
  5  6  2  0  0  0  0
  5 23  1  0  0  0  0
  7  8  2  0  0  0  0
  7  9  1  0  0  0  0
  9 15  1  0  0  0  0
 10 11  2  0  0  0  0
 10 12  2  0  0  0  0
 10 13  1  0  0  0  0
 13 14  1  0  0  0  0
 13 24  1  0  0  0  0
 13 25  1  0  0  0  0
 14 26  1  0  0  0  0
 14 27  1  0  0  0  0
 14 28  1  0  0  0  0
 15 16  2  0  0  0  0
 15 18  1  0  0  0  0
 16 19  1  0  0  0  0
 16 29  1  0  0  0  0
 17 19  2  0  0  0  0
 17 20  1  0  0  0  0
 17 30  1  0  0  0  0
 18 20  2  0  0  0  0
 18 31  1  0  0  0  0
 19 21  1  0  0  0  0
 20 32  1  0  0  0  0
 21 33  1  0  0  0  0
 21 34  1  0  0  0  0
 21 35  1  0  0  0  0
M  END
>  <Mol_ID>
5005

>  <Formula>
C14H13ClN2O4S

>  <MolWeight>
340.78202

>  <Cat>
S6806

>  <Name>
SBI-115

>  <Synonyms>
N/A

>  <Target>
GPCR19

>  <Form>
Free Base

>  <CAS>
882366-16-7

>  <URL>
http://www.selleckchem.com/products/sbi-115.html

$$$$
