SBP-3264
 OpenBabel08302521333D

 46 49  0  0  0  0  0  0  0  0999 V2000
   -2.0200    0.8760    0.1676 N   0  0  0  0  0  0  0  0  0  0  0  0
   -1.9667   -0.4662    0.1380 C   0  0  0  0  0  0  0  0  0  0  0  0
   -0.8793   -1.2460    0.0975 N   0  0  0  0  0  0  0  0  0  0  0  0
    0.2376   -0.5136    0.0590 C   0  0  0  0  0  0  0  0  0  0  0  0
    0.3617    0.8718    0.0656 C   0  0  0  0  0  0  0  0  0  0  0  0
   -0.8575    1.5955    0.1477 C   0  0  0  0  0  0  0  0  0  0  0  0
    1.4875   -1.0673   -0.0186 N   0  0  0  0  0  0  0  0  0  0  0  0
    2.4276   -0.0800   -0.0953 C   0  0  0  0  0  0  0  0  0  0  0  0
    1.7782    1.1447   -0.0606 C   0  0  0  0  0  0  0  0  0  0  0  0
   -0.9341    2.9868    0.0816 N   0  0  0  0  0  0  0  0  0  0  0  0
    2.5341    2.3898   -0.1635 C   0  0  0  0  0  0  0  0  0  0  0  0
   -2.1740    3.5217   -0.4750 C   0  0  0  0  0  0  0  0  0  0  0  0
   -1.7943    4.8407   -1.1233 C   0  0  0  0  0  0  0  0  0  0  0  0
   -1.1098    5.8097   -0.1468 C   0  0  0  0  0  0  0  0  0  0  0  0
   -0.1589    5.1539    0.8755 C   0  0  0  0  0  0  0  0  0  0  0  0
   -0.5113    3.7163    1.2776 C   0  0  0  0  0  0  0  0  0  0  0  0
    2.0951    3.4357   -0.9774 C   0  0  0  0  0  0  0  0  0  0  0  0
    2.7856    4.6545   -1.0090 C   0  0  0  0  0  0  0  0  0  0  0  0
    3.9349    4.8314   -0.2438 C   0  0  0  0  0  0  0  0  0  0  0  0
    4.4238    3.7733    0.5168 C   0  0  0  0  0  0  0  0  0  0  0  0
    3.7287    2.5608    0.5560 C   0  0  0  0  0  0  0  0  0  0  0  0
   -0.4153    6.8265   -0.9536 N   0  0  0  0  0  0  0  0  0  0  0  0
    0.0007    8.0423   -0.4681 C   0  0  0  0  0  0  0  0  0  0  0  0
   -0.1805    8.4182    0.6851 O   0  0  0  0  0  0  0  0  0  0  0  0
    0.7050    8.8794   -1.5064 C   0  0  0  0  0  0  0  0  0  0  0  0
   -2.9210   -0.9782    0.1421 H   0  0  0  0  0  0  0  0  0  0  0  0
    1.6562   -2.0650   -0.0404 H   0  0  0  0  0  0  0  0  0  0  0  0
    3.4741   -0.3318   -0.1870 H   0  0  0  0  0  0  0  0  0  0  0  0
   -2.9401    3.6666    0.2990 H   0  0  0  0  0  0  0  0  0  0  0  0
   -2.5983    2.8742   -1.2524 H   0  0  0  0  0  0  0  0  0  0  0  0
   -2.6777    5.3188   -1.5616 H   0  0  0  0  0  0  0  0  0  0  0  0
   -1.1191    4.6217   -1.9625 H   0  0  0  0  0  0  0  0  0  0  0  0
   -1.8888    6.3291    0.4253 H   0  0  0  0  0  0  0  0  0  0  0  0
    0.8496    5.1611    0.4724 H   0  0  0  0  0  0  0  0  0  0  0  0
   -0.0847    5.7768    1.7751 H   0  0  0  0  0  0  0  0  0  0  0  0
    0.3574    3.2532    1.7601 H   0  0  0  0  0  0  0  0  0  0  0  0
   -1.3171    3.7281    2.0232 H   0  0  0  0  0  0  0  0  0  0  0  0
    1.1761    3.3353   -1.5493 H   0  0  0  0  0  0  0  0  0  0  0  0
    2.3851    5.4871   -1.5789 H   0  0  0  0  0  0  0  0  0  0  0  0
    4.4401    5.7943   -0.2286 H   0  0  0  0  0  0  0  0  0  0  0  0
    5.3346    3.8956    1.0957 H   0  0  0  0  0  0  0  0  0  0  0  0
    4.1196    1.7575    1.1759 H   0  0  0  0  0  0  0  0  0  0  0  0
   -0.0702    6.5440   -1.8618 H   0  0  0  0  0  0  0  0  0  0  0  0
    1.6764    8.4422   -1.7417 H   0  0  0  0  0  0  0  0  0  0  0  0
    0.0977    8.9380   -2.4125 H   0  0  0  0  0  0  0  0  0  0  0  0
    0.8503    9.8911   -1.1209 H   0  0  0  0  0  0  0  0  0  0  0  0
  1  2  2  0  0  0  0
  2  3  1  0  0  0  0
  2 26  1  0  0  0  0
  3  4  2  0  0  0  0
  4  5  1  0  0  0  0
  4  7  1  0  0  0  0
  5  6  2  0  0  0  0
  6  1  1  0  0  0  0
  6 10  1  0  0  0  0
  7  8  1  0  0  0  0
  7 27  1  0  0  0  0
  8  9  2  0  0  0  0
  8 28  1  0  0  0  0
  9  5  1  0  0  0  0
  9 11  1  0  0  0  0
 10 12  1  0  0  0  0
 11 17  2  0  0  0  0
 12 13  1  0  0  0  0
 12 29  1  0  0  0  0
 12 30  1  0  0  0  0
 13 14  1  0  0  0  0
 13 31  1  0  0  0  0
 13 32  1  0  0  0  0
 14 15  1  0  0  0  0
 14 22  1  0  0  0  0
 14 33  1  0  0  0  0
 15 16  1  0  0  0  0
 15 34  1  0  0  0  0
 15 35  1  0  0  0  0
 16 10  1  0  0  0  0
 16 36  1  0  0  0  0
 16 37  1  0  0  0  0
 17 18  1  0  0  0  0
 17 38  1  0  0  0  0
 18 19  2  0  0  0  0
 18 39  1  0  0  0  0
 19 20  1  0  0  0  0
 19 40  1  0  0  0  0
 20 21  2  0  0  0  0
 20 41  1  0  0  0  0
 21 11  1  0  0  0  0
 21 42  1  0  0  0  0
 22 23  1  0  0  0  0
 22 43  1  0  0  0  0
 23 24  2  0  0  0  0
 23 25  1  0  0  0  0
 25 44  1  0  0  0  0
 25 45  1  0  0  0  0
 25 46  1  0  0  0  0
M  END
>  <Mol_ID>
6392

>  <Formula>
C19H20ClN5O

>  <MolWeight>
369.848

>  <Cat>
E1065

>  <Name>
SBP-3264

>  <Target>
Serine/threonin kinase

>  <Form>
free base

>  <URL>
http://www.selleckchem.com/products/sbp-3264.html

$$$$
