SC-514.cdx
 OpenBabel08302522033D

 22 23  0  0  0  0  0  0  0  0999 V2000
   -0.2562   -1.1575   -0.0056 C   0  0  0  0  0  0  0  0  0  0  0  0
   -1.0226   -0.0120   -0.0422 C   0  0  0  0  0  0  0  0  0  0  0  0
   -0.2176    1.1551   -0.1770 C   0  0  0  0  0  0  0  0  0  0  0  0
    1.1287    0.8660   -0.2840 C   0  0  0  0  0  0  0  0  0  0  0  0
    1.3697   -0.8283   -0.4081 S   0  0  0  0  0  0  0  0  0  0  0  0
    0.0203   -3.6553    0.3540 C   0  0  0  0  0  0  0  0  0  0  0  0
   -0.7497   -2.5109    0.4173 C   0  0  0  0  0  0  0  0  0  0  0  0
   -2.0184   -2.7690    1.0200 C   0  0  0  0  0  0  0  0  0  0  0  0
   -2.1276   -4.0683    1.4671 C   0  0  0  0  0  0  0  0  0  0  0  0
   -0.7495   -5.0012    1.0793 S   0  0  0  0  0  0  0  0  0  0  0  0
    2.2577    1.7821   -0.2771 C   0  0  0  0  0  0  0  0  0  0  0  0
    2.1617    3.0069   -0.1724 O   0  0  0  0  0  0  0  0  0  0  0  0
    3.5070    1.2244   -0.3345 N   0  0  0  0  0  0  0  0  0  0  0  0
   -0.7302    2.3975   -0.1289 N   0  0  0  0  0  0  0  0  0  0  0  0
   -2.0936    0.0082    0.1057 H   0  0  0  0  0  0  0  0  0  0  0  0
    1.0149   -3.7768   -0.0524 H   0  0  0  0  0  0  0  0  0  0  0  0
   -2.7911   -2.0303    1.1897 H   0  0  0  0  0  0  0  0  0  0  0  0
   -2.9490   -4.5133    2.0118 H   0  0  0  0  0  0  0  0  0  0  0  0
    3.6326    0.2199   -0.3171 H   0  0  0  0  0  0  0  0  0  0  0  0
    4.3028    1.8287   -0.1965 H   0  0  0  0  0  0  0  0  0  0  0  0
   -0.1127    3.2149   -0.0733 H   0  0  0  0  0  0  0  0  0  0  0  0
   -1.7029    2.5997    0.0732 H   0  0  0  0  0  0  0  0  0  0  0  0
  1  2  2  0  0  0  0
  1  5  1  0  0  0  0
  1  7  1  0  0  0  0
  2  3  1  0  0  0  0
  2 15  1  0  0  0  0
  3  4  2  0  0  0  0
  3 14  1  0  0  0  0
  4  5  1  0  0  0  0
  4 11  1  0  0  0  0
  6  7  2  0  0  0  0
  6 10  1  0  0  0  0
  6 16  1  0  0  0  0
  7  8  1  0  0  0  0
  8  9  2  0  0  0  0
  8 17  1  0  0  0  0
  9 10  1  0  0  0  0
  9 18  1  0  0  0  0
 11 12  2  0  0  0  0
 11 13  1  0  0  0  0
 13 19  1  0  0  0  0
 13 20  1  0  0  0  0
 14 21  1  0  0  0  0
 14 22  1  0  0  0  0
M  END
>  <Mol_ID>
1208

>  <Formula>
C9H8N2OS2

>  <MolWeight>
224.30262

>  <Cat>
S4907

>  <Name>
SC-514

>  <Synonyms>
GK 01140

>  <Target>
I¦ÊB/IKK

>  <Form>
free base

>  <CAS>
354812-17-2

>  <URL>
http://selleckchem.com/products/sc-514.html

$$$$
