SC-58125
 OpenBabel08302521333D

 38 40  0  0  0  0  0  0  0  0999 V2000
    0.9296    0.7074   -0.0343 N   0  0  0  0  0  0  0  0  0  0  0  0
    0.9877   -0.6372   -0.2366 N   0  0  0  0  0  0  0  0  0  0  0  0
   -0.2673   -1.0792   -0.0544 C   0  0  0  0  0  0  0  0  0  0  0  0
   -1.1604    0.0098    0.1010 C   0  0  0  0  0  0  0  0  0  0  0  0
   -0.3937    1.1609    0.0388 C   0  0  0  0  0  0  0  0  0  0  0  0
   -0.6532   -2.5367   -0.0628 C   0  0  0  0  0  0  0  0  0  0  0  0
    0.3952   -3.3838   -0.2322 F   0  0  0  0  0  0  0  0  0  0  0  0
   -1.2595   -2.8944    1.1037 F   0  0  0  0  0  0  0  0  0  0  0  0
   -1.5453   -2.8128   -1.0535 F   0  0  0  0  0  0  0  0  0  0  0  0
    2.1394    1.4626    0.0263 C   0  0  0  0  0  0  0  0  0  0  0  0
    3.2431    1.0615   -0.7415 C   0  0  0  0  0  0  0  0  0  0  0  0
    4.3670    1.8911   -0.8288 C   0  0  0  0  0  0  0  0  0  0  0  0
    4.3915    3.1047   -0.1321 C   0  0  0  0  0  0  0  0  0  0  0  0
    3.3306    3.4654    0.7014 C   0  0  0  0  0  0  0  0  0  0  0  0
    2.2149    2.6328    0.7938 C   0  0  0  0  0  0  0  0  0  0  0  0
    5.8225    4.1579   -0.2117 S   0  0  0  0  0  0  0  0  0  0  0  0
    5.8519    4.9427    1.0057 O   0  0  0  0  0  0  0  0  0  0  0  0
    6.9508    3.3265   -0.5895 O   0  0  0  0  0  0  0  0  0  0  0  0
    5.4828    5.2587   -1.5627 C   0  0  0  0  0  0  0  0  0  0  0  0
   -0.8540    2.5606   -0.0137 C   0  0  0  0  0  0  0  0  0  0  0  0
   -0.1936    3.5232   -0.7979 C   0  0  0  0  0  0  0  0  0  0  0  0
   -0.5712    4.8659   -0.7631 C   0  0  0  0  0  0  0  0  0  0  0  0
   -1.6749    5.2415   -0.0141 C   0  0  0  0  0  0  0  0  0  0  0  0
   -2.3979    4.3004    0.7071 C   0  0  0  0  0  0  0  0  0  0  0  0
   -1.9823    2.9641    0.7171 C   0  0  0  0  0  0  0  0  0  0  0  0
   -2.0495    6.5265    0.0066 F   0  0  0  0  0  0  0  0  0  0  0  0
   -2.2358   -0.0484    0.1878 H   0  0  0  0  0  0  0  0  0  0  0  0
    3.2194    0.1350   -1.3137 H   0  0  0  0  0  0  0  0  0  0  0  0
    5.2108    1.5851   -1.4449 H   0  0  0  0  0  0  0  0  0  0  0  0
    3.3608    4.3858    1.2809 H   0  0  0  0  0  0  0  0  0  0  0  0
    1.4115    2.9214    1.4674 H   0  0  0  0  0  0  0  0  0  0  0  0
    5.3656    4.6801   -2.4803 H   0  0  0  0  0  0  0  0  0  0  0  0
    4.5797    5.8289   -1.3430 H   0  0  0  0  0  0  0  0  0  0  0  0
    6.3301    5.9375   -1.6624 H   0  0  0  0  0  0  0  0  0  0  0  0
    0.6526    3.2500   -1.4244 H   0  0  0  0  0  0  0  0  0  0  0  0
   -0.0095    5.6133   -1.3140 H   0  0  0  0  0  0  0  0  0  0  0  0
   -3.2734    4.6138    1.2666 H   0  0  0  0  0  0  0  0  0  0  0  0
   -2.5475    2.2495    1.3117 H   0  0  0  0  0  0  0  0  0  0  0  0
  1  2  1  0  0  0  0
  1  5  1  0  0  0  0
  1 10  1  0  0  0  0
  2  3  2  0  0  0  0
  3  4  1  0  0  0  0
  3  6  1  0  0  0  0
  4  5  2  0  0  0  0
  4 27  1  0  0  0  0
  5 20  1  0  0  0  0
  6  7  1  0  0  0  0
  6  8  1  0  0  0  0
  6  9  1  0  0  0  0
 10 11  2  0  0  0  0
 10 15  1  0  0  0  0
 11 12  1  0  0  0  0
 11 28  1  0  0  0  0
 12 13  2  0  0  0  0
 12 29  1  0  0  0  0
 13 14  1  0  0  0  0
 13 16  1  0  0  0  0
 14 15  2  0  0  0  0
 14 30  1  0  0  0  0
 15 31  1  0  0  0  0
 16 17  2  0  0  0  0
 16 18  2  0  0  0  0
 16 19  1  0  0  0  0
 19 32  1  0  0  0  0
 19 33  1  0  0  0  0
 19 34  1  0  0  0  0
 20 21  2  0  0  0  0
 20 25  1  0  0  0  0
 21 22  1  0  0  0  0
 21 35  1  0  0  0  0
 22 23  2  0  0  0  0
 22 36  1  0  0  0  0
 23 24  1  0  0  0  0
 23 26  1  0  0  0  0
 24 25  2  0  0  0  0
 24 37  1  0  0  0  0
 25 38  1  0  0  0  0
M  END
>  <Mol_ID>
6344

>  <Formula>
C17H12F4N2O2S

>  <MolWeight>
384.3479928

>  <Cat>
E0789

>  <Name>
SC-58125

>  <Target>
COX

>  <Form>
free base

>  <CAS>
162054-19-5

>  <URL>
http://www.selleckchem.com/products/sc-58125.html

$$$$
