SC 236
 OpenBabel08302521323D

 37 39  0  0  0  0  0  0  0  0999 V2000
    1.3620   -0.3130    0.1980 C   0  0  0  0  0  0  0  0  0  0  0  0
    0.4376   -1.2849    0.5927 C   0  0  0  0  0  0  0  0  0  0  0  0
   -0.9320   -1.0094    0.5069 C   0  0  0  0  0  0  0  0  0  0  0  0
   -1.3651    0.2273    0.0037 C   0  0  0  0  0  0  0  0  0  0  0  0
   -0.4272    1.2291   -0.2821 C   0  0  0  0  0  0  0  0  0  0  0  0
    0.9364    0.9556   -0.2000 C   0  0  0  0  0  0  0  0  0  0  0  0
    3.0970   -0.6569    0.2233 S   0  0  0  0  0  0  0  0  0  0  0  0
    3.8245    0.5838    0.3366 O   0  0  0  0  0  0  0  0  0  0  0  0
    3.3500   -1.7914    1.0797 O   0  0  0  0  0  0  0  0  0  0  0  0
    3.3610   -1.1955   -1.3504 N   0  0  0  0  0  0  0  0  0  0  0  0
   -2.7504    0.4313   -0.2662 N   0  0  0  0  0  0  0  0  0  0  0  0
   -3.6814   -0.2011    0.4998 N   0  0  0  0  0  0  0  0  0  0  0  0
   -4.8593    0.3476    0.1548 C   0  0  0  0  0  0  0  0  0  0  0  0
   -4.6966    1.2092   -0.9549 C   0  0  0  0  0  0  0  0  0  0  0  0
   -3.3477    1.2038   -1.2690 C   0  0  0  0  0  0  0  0  0  0  0  0
   -6.1609    0.0438    0.8466 C   0  0  0  0  0  0  0  0  0  0  0  0
   -6.0430   -0.8115    1.8948 F   0  0  0  0  0  0  0  0  0  0  0  0
   -6.7383    1.1782    1.3317 F   0  0  0  0  0  0  0  0  0  0  0  0
   -7.0645   -0.5050   -0.0102 F   0  0  0  0  0  0  0  0  0  0  0  0
   -2.6850    1.8244   -2.4310 C   0  0  0  0  0  0  0  0  0  0  0  0
   -1.6152    1.2010   -3.0934 C   0  0  0  0  0  0  0  0  0  0  0  0
   -0.9331    1.8451   -4.1284 C   0  0  0  0  0  0  0  0  0  0  0  0
   -1.3614    3.0916   -4.5716 C   0  0  0  0  0  0  0  0  0  0  0  0
   -2.4710    3.6910   -3.9808 C   0  0  0  0  0  0  0  0  0  0  0  0
   -3.1231    3.0661   -2.9129 C   0  0  0  0  0  0  0  0  0  0  0  0
    0.7703   -2.2625    0.9358 H   0  0  0  0  0  0  0  0  0  0  0  0
   -1.6479   -1.7864    0.7719 H   0  0  0  0  0  0  0  0  0  0  0  0
   -0.7353    2.2264   -0.5882 H   0  0  0  0  0  0  0  0  0  0  0  0
    1.6546    1.7265   -0.4705 H   0  0  0  0  0  0  0  0  0  0  0  0
    3.9392   -0.5230   -1.8552 H   0  0  0  0  0  0  0  0  0  0  0  0
    3.7572   -2.1360   -1.3252 H   0  0  0  0  0  0  0  0  0  0  0  0
   -5.4820    1.7279   -1.4892 H   0  0  0  0  0  0  0  0  0  0  0  0
   -1.2693    0.2141   -2.7930 H   0  0  0  0  0  0  0  0  0  0  0  0
   -0.0667    1.3712   -4.5830 H   0  0  0  0  0  0  0  0  0  0  0  0
   -0.8367    3.5911   -5.3818 H   0  0  0  0  0  0  0  0  0  0  0  0
   -2.8242    4.6528   -4.3440 H   0  0  0  0  0  0  0  0  0  0  0  0
   -3.9710    3.5714   -2.4565 H   0  0  0  0  0  0  0  0  0  0  0  0
  1  2  2  0  0  0  0
  1  6  1  0  0  0  0
  1  7  1  0  0  0  0
  2  3  1  0  0  0  0
  2 26  1  0  0  0  0
  3  4  2  0  0  0  0
  3 27  1  0  0  0  0
  4  5  1  0  0  0  0
  4 11  1  0  0  0  0
  5  6  2  0  0  0  0
  5 28  1  0  0  0  0
  6 29  1  0  0  0  0
  7  8  2  0  0  0  0
  7  9  2  0  0  0  0
  7 10  1  0  0  0  0
 10 30  1  0  0  0  0
 10 31  1  0  0  0  0
 11 12  1  0  0  0  0
 11 15  1  0  0  0  0
 12 13  2  0  0  0  0
 13 14  1  0  0  0  0
 13 16  1  0  0  0  0
 14 15  2  0  0  0  0
 14 32  1  0  0  0  0
 15 20  1  0  0  0  0
 16 17  1  0  0  0  0
 16 18  1  0  0  0  0
 16 19  1  0  0  0  0
 20 21  2  0  0  0  0
 20 25  1  0  0  0  0
 21 22  1  0  0  0  0
 21 33  1  0  0  0  0
 22 23  2  0  0  0  0
 22 34  1  0  0  0  0
 23 24  1  0  0  0  0
 23 35  1  0  0  0  0
 24 25  2  0  0  0  0
 24 36  1  0  0  0  0
 25 37  1  0  0  0  0
M  END
>  <Mol_ID>
6179

>  <Formula>
C16H11ClF3N3O2S

>  <MolWeight>
401.7906496

>  <Cat>
S0762

>  <Name>
SC 236

>  <Synonyms>
N/A

>  <Target>
COX

>  <Form>
free base

>  <CAS>
170569-86-5

>  <URL>
http://www.selleckchem.com/products/sc-236.html

$$$$
