SCH-442416
 OpenBabel08302521303D

 48 52  0  0  0  0  0  0  0  0999 V2000
    0.7453    0.6401   -1.0383 O   0  0  0  0  0  0  0  0  0  0  0  0
    1.0169   13.3823    6.3999 O   0  0  0  0  0  0  0  0  0  0  0  0
   -2.7703    7.5222    1.4331 N   0  0  0  0  0  0  0  0  0  0  0  0
   -0.8014    4.6556   -0.5473 N   0  0  0  0  0  0  0  0  0  0  0  0
   -3.2855    6.9044    2.5338 N   0  0  0  0  0  0  0  0  0  0  0  0
   -1.3929    6.9769   -0.5433 N   0  0  0  0  0  0  0  0  0  0  0  0
   -1.4368    3.0774    0.8470 N   0  0  0  0  0  0  0  0  0  0  0  0
   -0.1876    3.5538   -1.0402 N   0  0  0  0  0  0  0  0  0  0  0  0
   -0.0037    6.1551   -2.2465 N   0  0  0  0  0  0  0  0  0  0  0  0
   -3.0417    8.9318    1.2348 C   0  0  0  0  0  0  0  0  0  0  0  0
   -2.4866    9.8390    2.3379 C   0  0  0  0  0  0  0  0  0  0  0  0
   -2.0668    6.6697    0.6139 C   0  0  0  0  0  0  0  0  0  0  0  0
   -2.1819    5.4483    1.2397 C   0  0  0  0  0  0  0  0  0  0  0  0
   -0.9597    9.7950    2.4401 C   0  0  0  0  0  0  0  0  0  0  0  0
   -1.5125    4.3498    0.5746 C   0  0  0  0  0  0  0  0  0  0  0  0
   -2.9118    5.6265    2.4011 C   0  0  0  0  0  0  0  0  0  0  0  0
   -0.4336   10.7220    3.5114 C   0  0  0  0  0  0  0  0  0  0  0  0
   -0.7442    5.9693   -1.1037 C   0  0  0  0  0  0  0  0  0  0  0  0
   -0.5961    2.6204   -0.1536 C   0  0  0  0  0  0  0  0  0  0  0  0
   -0.2546   10.2664    4.8230 C   0  0  0  0  0  0  0  0  0  0  0  0
   -0.1299   12.0565    3.2189 C   0  0  0  0  0  0  0  0  0  0  0  0
   -0.1854    1.1844   -0.1959 C   0  0  0  0  0  0  0  0  0  0  0  0
    0.2359   11.1182    5.8222 C   0  0  0  0  0  0  0  0  0  0  0  0
    0.3557   12.9071    4.2179 C   0  0  0  0  0  0  0  0  0  0  0  0
    0.5383   12.4448    5.5236 C   0  0  0  0  0  0  0  0  0  0  0  0
   -0.6892    0.1951    0.6303 C   0  0  0  0  0  0  0  0  0  0  0  0
   -0.0418   -1.0069    0.2716 C   0  0  0  0  0  0  0  0  0  0  0  0
    0.8352   -0.6813   -0.7329 C   0  0  0  0  0  0  0  0  0  0  0  0
    1.2223   12.9654    7.7432 C   0  0  0  0  0  0  0  0  0  0  0  0
   -0.2359    6.9762   -2.7915 H   0  0  0  0  0  0  0  0  0  0  0  0
    0.2312    5.3200   -2.7780 H   0  0  0  0  0  0  0  0  0  0  0  0
   -2.6615    9.2290    0.2522 H   0  0  0  0  0  0  0  0  0  0  0  0
   -4.1347    9.0255    1.2043 H   0  0  0  0  0  0  0  0  0  0  0  0
   -2.8125   10.8667    2.1324 H   0  0  0  0  0  0  0  0  0  0  0  0
   -2.9294    9.5648    3.3042 H   0  0  0  0  0  0  0  0  0  0  0  0
   -0.6185    8.7757    2.6584 H   0  0  0  0  0  0  0  0  0  0  0  0
   -0.5102   10.0641    1.4758 H   0  0  0  0  0  0  0  0  0  0  0  0
   -3.1787    4.9047    3.1613 H   0  0  0  0  0  0  0  0  0  0  0  0
   -0.4907    9.2353    5.0797 H   0  0  0  0  0  0  0  0  0  0  0  0
   -0.2638   12.4453    2.2124 H   0  0  0  0  0  0  0  0  0  0  0  0
    0.3637   10.7134    6.8193 H   0  0  0  0  0  0  0  0  0  0  0  0
    0.5927   13.9402    3.9757 H   0  0  0  0  0  0  0  0  0  0  0  0
   -1.4456    0.3369    1.3919 H   0  0  0  0  0  0  0  0  0  0  0  0
   -0.1894   -1.9914    0.7003 H   0  0  0  0  0  0  0  0  0  0  0  0
    1.5533   -1.2453   -1.3139 H   0  0  0  0  0  0  0  0  0  0  0  0
    0.2907   12.6081    8.1970 H   0  0  0  0  0  0  0  0  0  0  0  0
    2.0094   12.2062    7.8028 H   0  0  0  0  0  0  0  0  0  0  0  0
    1.5547   13.8356    8.3154 H   0  0  0  0  0  0  0  0  0  0  0  0
  1 22  1  0  0  0  0
  1 28  1  0  0  0  0
  2 25  1  0  0  0  0
  2 29  1  0  0  0  0
  3  5  1  0  0  0  0
  3 10  1  0  0  0  0
  3 12  1  0  0  0  0
  4  8  1  0  0  0  0
  4 15  1  0  0  0  0
  4 18  1  0  0  0  0
  5 16  2  0  0  0  0
  6 12  1  0  0  0  0
  6 18  2  0  0  0  0
  7 15  2  0  0  0  0
  7 19  1  0  0  0  0
  8 19  2  0  0  0  0
  9 18  1  0  0  0  0
  9 30  1  0  0  0  0
  9 31  1  0  0  0  0
 10 11  1  0  0  0  0
 10 32  1  0  0  0  0
 10 33  1  0  0  0  0
 11 14  1  0  0  0  0
 11 34  1  0  0  0  0
 11 35  1  0  0  0  0
 12 13  2  0  0  0  0
 13 15  1  0  0  0  0
 13 16  1  0  0  0  0
 14 17  1  0  0  0  0
 14 36  1  0  0  0  0
 14 37  1  0  0  0  0
 16 38  1  0  0  0  0
 17 20  2  0  0  0  0
 17 21  1  0  0  0  0
 19 22  1  0  0  0  0
 20 23  1  0  0  0  0
 20 39  1  0  0  0  0
 21 24  2  0  0  0  0
 21 40  1  0  0  0  0
 22 26  2  0  0  0  0
 23 25  2  0  0  0  0
 23 41  1  0  0  0  0
 24 25  1  0  0  0  0
 24 42  1  0  0  0  0
 26 27  1  0  0  0  0
 26 43  1  0  0  0  0
 27 28  2  0  0  0  0
 27 44  1  0  0  0  0
 28 45  1  0  0  0  0
 29 46  1  0  0  0  0
 29 47  1  0  0  0  0
 29 48  1  0  0  0  0
M  END
>  <Mol_ID>
5604

>  <Formula>
C20H19N7O2

>  <MolWeight>
389.41056

>  <Cat>
S2945

>  <Name>
SCH-442416

>  <Synonyms>
N/A

>  <Target>
Adenosine Receptor

>  <Form>
Free Base

>  <CAS>
316173-57-6

>  <URL>
http://www.selleckchem.com/products/sch-442416.html

$$$$
