SCH727965.cdx
 OpenBabel08302521443D

 57 60  0  0  0  0  0  0  0  0999 V2000
   -1.0570    0.8479   -0.5163 C   0  0  0  0  0  0  0  0  0  0  0  0
    0.2349    1.5651   -0.8953 C   0  0  0  0  0  0  0  0  0  0  0  0
    1.4439    0.6083   -1.0093 C   0  0  2  0  0  0  0  0  0  0  0  0
    1.5346   -0.2267    0.2188 N   0  0  0  0  0  0  0  0  0  0  0  0
    0.3007   -0.9233    0.6214 C   0  0  0  0  0  0  0  0  0  0  0  0
   -0.8696    0.0487    0.7668 C   0  0  0  0  0  0  0  0  0  0  0  0
    2.7230    1.4081   -1.3162 C   0  0  0  0  0  0  0  0  0  0  0  0
    2.6986    2.1039   -2.6718 C   0  0  0  0  0  0  0  0  0  0  0  0
    3.9505    2.7413   -2.9039 O   0  0  0  0  0  0  0  0  0  0  0  0
    2.6171   -0.2094    1.0962 C   0  0  0  0  0  0  0  0  0  0  0  0
    3.9108   -0.8082    0.6252 C   0  0  0  0  0  0  0  0  0  0  0  0
    5.0072   -0.6792    1.3873 C   0  0  0  0  0  0  0  0  0  0  0  0
    4.8535   -0.0679    2.6574 N   0  0  0  0  0  0  0  0  0  0  0  0
    3.5941    0.3893    3.0807 C   0  0  0  0  0  0  0  0  0  0  0  0
    2.4745    0.3037    2.2941 N   0  0  0  0  0  0  0  0  0  0  0  0
    5.8058    0.1644    3.6073 N   0  0  0  0  0  0  0  0  0  0  0  0
    5.1556    0.7959    4.5837 C   0  0  0  0  0  0  0  0  0  0  0  0
    3.7811    0.9606    4.3250 C   0  0  0  0  0  0  0  0  0  0  0  0
    6.2525   -1.0799    0.9036 N   0  0  0  0  0  0  0  0  0  0  0  0
    6.8583   -2.3800    1.1042 C   0  0  0  0  0  0  0  0  0  0  0  0
    8.1898   -2.2992    1.8084 C   0  0  0  0  0  0  0  0  0  0  0  0
    8.2880   -2.4655    3.1941 C   0  0  0  0  0  0  0  0  0  0  0  0
    9.5281   -2.4520    3.8276 C   0  0  0  0  0  0  0  0  0  0  0  0
   10.6798   -2.2501    3.0725 C   0  0  0  0  0  0  0  0  0  0  0  0
   10.6148   -2.0582    1.7047 N   0  3  0  0  0  0  0  0  0  0  0  0
    9.3714   -2.0809    1.0881 C   0  0  0  0  0  0  0  0  0  0  0  0
    2.7752    1.6477    5.1805 C   0  0  0  0  0  0  0  0  0  0  0  0
    2.5755    3.0973    4.7813 C   0  0  0  0  0  0  0  0  0  0  0  0
   11.6712   -1.8773    1.0238 O   0  5  0  0  0  0  0  0  0  0  0  0
   -1.8635    1.5797   -0.3786 H   0  0  0  0  0  0  0  0  0  0  0  0
   -1.3660    0.1841   -1.3339 H   0  0  0  0  0  0  0  0  0  0  0  0
    0.0648    2.0791   -1.8481 H   0  0  0  0  0  0  0  0  0  0  0  0
    0.4403    2.3408   -0.1463 H   0  0  0  0  0  0  0  0  0  0  0  0
    1.2626   -0.0804   -1.8419 H   0  0  0  0  0  0  0  0  0  0  0  0
    0.4457   -1.4676    1.5574 H   0  0  0  0  0  0  0  0  0  0  0  0
    0.0718   -1.6712   -0.1444 H   0  0  0  0  0  0  0  0  0  0  0  0
   -0.6862    0.7282    1.6010 H   0  0  0  0  0  0  0  0  0  0  0  0
   -1.7760   -0.5128    0.9850 H   0  0  0  0  0  0  0  0  0  0  0  0
    2.9150    2.1470   -0.5243 H   0  0  0  0  0  0  0  0  0  0  0  0
    3.5945    0.7510   -1.3213 H   0  0  0  0  0  0  0  0  0  0  0  0
    2.5255    1.3855   -3.4780 H   0  0  0  0  0  0  0  0  0  0  0  0
    1.9289    2.8773   -2.7183 H   0  0  0  0  0  0  0  0  0  0  0  0
    4.6408    2.0555   -2.9174 H   0  0  0  0  0  0  0  0  0  0  0  0
    3.9341   -1.2681   -0.3528 H   0  0  0  0  0  0  0  0  0  0  0  0
    5.7130    1.1290    5.4506 H   0  0  0  0  0  0  0  0  0  0  0  0
    6.8766   -0.3146    0.6632 H   0  0  0  0  0  0  0  0  0  0  0  0
    6.1892   -3.0575    1.6482 H   0  0  0  0  0  0  0  0  0  0  0  0
    7.0073   -2.8318    0.1168 H   0  0  0  0  0  0  0  0  0  0  0  0
    7.3870   -2.6127    3.7897 H   0  0  0  0  0  0  0  0  0  0  0  0
    9.5978   -2.5920    4.9022 H   0  0  0  0  0  0  0  0  0  0  0  0
   11.6848   -2.2235    3.4653 H   0  0  0  0  0  0  0  0  0  0  0  0
    9.4342   -1.9347    0.0207 H   0  0  0  0  0  0  0  0  0  0  0  0
    1.8150    1.1157    5.1241 H   0  0  0  0  0  0  0  0  0  0  0  0
    3.0923    1.6020    6.2300 H   0  0  0  0  0  0  0  0  0  0  0  0
    2.2088    3.1809    3.7550 H   0  0  0  0  0  0  0  0  0  0  0  0
    1.8479    3.5819    5.4437 H   0  0  0  0  0  0  0  0  0  0  0  0
    3.5161    3.6577    4.8487 H   0  0  0  0  0  0  0  0  0  0  0  0
  1  2  1  0  0  0  0
  1 30  1  0  0  0  0
  1 31  1  0  0  0  0
  2  3  1  0  0  0  0
  2 32  1  0  0  0  0
  2 33  1  0  0  0  0
  3  4  1  0  0  0  0
  3 34  1  6  0  0  0
  3  7  1  0  0  0  0
  4  5  1  0  0  0  0
  4 10  1  0  0  0  0
  5  6  1  0  0  0  0
  5 35  1  0  0  0  0
  5 36  1  0  0  0  0
  6  1  1  0  0  0  0
  6 37  1  0  0  0  0
  6 38  1  0  0  0  0
  7  8  1  0  0  0  0
  7 39  1  0  0  0  0
  7 40  1  0  0  0  0
  8  9  1  0  0  0  0
  8 41  1  0  0  0  0
  8 42  1  0  0  0  0
  9 43  1  0  0  0  0
 10 11  1  0  0  0  0
 11 12  2  0  0  0  0
 11 44  1  0  0  0  0
 12 13  1  0  0  0  0
 12 19  1  0  0  0  0
 13 14  1  0  0  0  0
 13 16  1  0  0  0  0
 14 15  1  0  0  0  0
 15 10  2  0  0  0  0
 16 17  2  0  0  0  0
 17 18  1  0  0  0  0
 17 45  1  0  0  0  0
 18 14  2  0  0  0  0
 18 27  1  0  0  0  0
 19 20  1  0  0  0  0
 19 46  1  0  0  0  0
 20 21  1  0  0  0  0
 20 47  1  0  0  0  0
 20 48  1  0  0  0  0
 21 22  2  0  0  0  0
 22 23  1  0  0  0  0
 22 49  1  0  0  0  0
 23 24  2  0  0  0  0
 23 50  1  0  0  0  0
 24 25  1  0  0  0  0
 24 51  1  0  0  0  0
 25 26  2  0  0  0  0
 25 29  1  0  0  0  0
 26 21  1  0  0  0  0
 26 52  1  0  0  0  0
 27 28  1  0  0  0  0
 27 53  1  0  0  0  0
 27 54  1  0  0  0  0
 28 55  1  0  0  0  0
 28 56  1  0  0  0  0
 28 57  1  0  0  0  0
M  CHG  2  25   1  29  -1
M  END
>  <Mol_ID>
894

>  <Formula>
C21H28N6O2

>  <MolWeight>
396.48602

>  <Cat>
S2768

>  <Name>
Dinaciclib (SCH727965)

>  <Synonyms>
PS-095760

>  <Target>
Caspase,CDK

>  <Form>
free base

>  <CAS>
779353-01-4

>  <URL>
http://selleckchem.com/products/dinaciclib-sch727965.html

$$$$
