SCH 900776.cdx
 OpenBabel08302521393D

 41 44  0  0  0  0  0  0  0  0999 V2000
    0.2178    0.6617    0.1213 C   0  0  0  0  0  0  0  0  0  0  0  0
   -1.0116    1.2640    0.2321 N   0  0  0  0  0  0  0  0  0  0  0  0
   -2.0595    0.5082    0.2276 C   0  0  0  0  0  0  0  0  0  0  0  0
   -1.9739   -1.0407    0.2459 C   0  0  0  0  0  0  0  0  0  0  0  0
   -0.7744   -1.5647   -0.0384 C   0  0  0  0  0  0  0  0  0  0  0  0
    0.3453   -0.7195   -0.0528 N   0  0  0  0  0  0  0  0  0  0  0  0
   -3.4203    1.2255   -0.0090 C   0  0  1  0  0  0  0  0  0  0  0  0
   -4.4630    0.9064    1.0369 C   0  0  0  0  0  0  0  0  0  0  0  0
   -4.1741    1.5972    2.2806 N   0  0  0  0  0  0  0  0  0  0  0  0
   -4.2350    3.0511    2.1236 C   0  0  0  0  0  0  0  0  0  0  0  0
   -3.3532    3.6100    0.9980 C   0  0  0  0  0  0  0  0  0  0  0  0
   -3.4324    2.7672   -0.2746 C   0  0  0  0  0  0  0  0  0  0  0  0
   -0.5339   -2.9326   -0.2480 N   0  0  0  0  0  0  0  0  0  0  0  0
   -3.3211   -2.2660    0.7227 Br  0  0  0  0  0  0  0  0  0  0  0  0
    1.6405   -1.1239   -0.1454 N   0  0  0  0  0  0  0  0  0  0  0  0
    2.3342    0.0172   -0.1069 C   0  0  0  0  0  0  0  0  0  0  0  0
    1.5119    1.1445    0.0071 C   0  0  0  0  0  0  0  0  0  0  0  0
    2.0145    2.4986   -0.0151 C   0  0  0  0  0  0  0  0  0  0  0  0
    3.3200    2.9115   -0.1838 C   0  0  0  0  0  0  0  0  0  0  0  0
    3.2859    4.2711   -0.1284 N   0  0  0  0  0  0  0  0  0  0  0  0
    2.0524    4.7723    0.0788 N   0  0  0  0  0  0  0  0  0  0  0  0
    1.2762    3.6844    0.1361 C   0  0  0  0  0  0  0  0  0  0  0  0
    4.4037    5.1721   -0.2679 C   0  0  0  0  0  0  0  0  0  0  0  0
   -3.7739    0.8221   -0.9791 H   0  0  0  0  0  0  0  0  0  0  0  0
   -5.4690    1.1281    0.6705 H   0  0  0  0  0  0  0  0  0  0  0  0
   -4.4610   -0.1515    1.2303 H   0  0  0  0  0  0  0  0  0  0  0  0
   -4.8233    1.2917    3.0055 H   0  0  0  0  0  0  0  0  0  0  0  0
   -3.9119    3.5023    3.0695 H   0  0  0  0  0  0  0  0  0  0  0  0
   -5.2750    3.3661    1.9678 H   0  0  0  0  0  0  0  0  0  0  0  0
   -2.3039    3.6820    1.2992 H   0  0  0  0  0  0  0  0  0  0  0  0
   -3.6615    4.6462    0.7842 H   0  0  0  0  0  0  0  0  0  0  0  0
   -2.6504    3.0769   -0.9804 H   0  0  0  0  0  0  0  0  0  0  0  0
   -4.3898    3.0267   -0.7580 H   0  0  0  0  0  0  0  0  0  0  0  0
    0.3919   -3.2147    0.0730 H   0  0  0  0  0  0  0  0  0  0  0  0
   -1.2988   -3.5256    0.0650 H   0  0  0  0  0  0  0  0  0  0  0  0
    3.4096   -0.0337   -0.1774 H   0  0  0  0  0  0  0  0  0  0  0  0
    4.2406    2.3648   -0.3266 H   0  0  0  0  0  0  0  0  0  0  0  0
    0.2119    3.7989    0.2985 H   0  0  0  0  0  0  0  0  0  0  0  0
    4.2083    5.8337   -1.1151 H   0  0  0  0  0  0  0  0  0  0  0  0
    4.5006    5.7459    0.6563 H   0  0  0  0  0  0  0  0  0  0  0  0
    5.3163    4.5975   -0.4482 H   0  0  0  0  0  0  0  0  0  0  0  0
  1  2  1  0  0  0  0
  2  3  2  0  0  0  0
  3  4  1  0  0  0  0
  4  5  2  0  0  0  0
  4 14  1  0  0  0  0
  5  6  1  0  0  0  0
  5 13  1  0  0  0  0
  6  1  1  0  0  0  0
  6 15  1  0  0  0  0
  7  3  1  0  0  0  0
  7  8  1  0  0  0  0
  7 24  1  6  0  0  0
  8  9  1  0  0  0  0
  8 25  1  0  0  0  0
  8 26  1  0  0  0  0
  9 10  1  0  0  0  0
  9 27  1  0  0  0  0
 10 11  1  0  0  0  0
 10 28  1  0  0  0  0
 10 29  1  0  0  0  0
 11 12  1  0  0  0  0
 11 30  1  0  0  0  0
 11 31  1  0  0  0  0
 12  7  1  0  0  0  0
 12 32  1  0  0  0  0
 12 33  1  0  0  0  0
 13 34  1  0  0  0  0
 13 35  1  0  0  0  0
 15 16  2  0  0  0  0
 16 17  1  0  0  0  0
 16 36  1  0  0  0  0
 17  1  2  0  0  0  0
 17 18  1  0  0  0  0
 18 19  2  0  0  0  0
 19 20  1  0  0  0  0
 19 37  1  0  0  0  0
 20 21  1  0  0  0  0
 20 23  1  0  0  0  0
 21 22  2  0  0  0  0
 22 18  1  0  0  0  0
 22 38  1  0  0  0  0
 23 39  1  0  0  0  0
 23 40  1  0  0  0  0
 23 41  1  0  0  0  0
M  END
>  <Mol_ID>
8180

>  <Formula>
C15H18BrN7

>  <MolWeight>
376.25432

>  <Cat>
S2735

>  <Name>
MK-8776 (SCH 900776)

>  <Synonyms>
N/A

>  <Target>
CDK,Chk

>  <Form>
Free Base

>  <CAS>
891494-63-6

>  <URL>
http://selleckchem.com/products/sch-900776.html

$$$$
