Schisandrin B.cdx
 OpenBabel08302522003D

 57 60  0  0  0  0  0  0  0  0999 V2000
    0.7925   -0.7109   -0.0050 C   0  0  0  0  0  0  0  0  0  0  0  0
   -0.6868   -0.7066    0.0808 C   0  0  0  0  0  0  0  0  0  0  0  0
    1.5369   -1.7262   -0.6643 C   0  0  0  0  0  0  0  0  0  0  0  0
    1.5110    0.3373    0.6720 C   0  0  0  0  0  0  0  0  0  0  0  0
   -1.4209    0.2691   -0.6418 C   0  0  0  0  0  0  0  0  0  0  0  0
   -1.4304   -1.6232    0.8784 C   0  0  0  0  0  0  0  0  0  0  0  0
    2.9249   -1.6444   -0.6201 C   0  0  0  0  0  0  0  0  0  0  0  0
    1.0794   -2.8622   -1.2640 O   0  0  0  0  0  0  0  0  0  0  0  0
    2.9160    0.3208    0.7398 C   0  0  0  0  0  0  0  0  0  0  0  0
    0.8194    1.5380    1.3011 C   0  0  0  0  0  0  0  0  0  0  0  0
   -2.8289    0.2819   -0.6055 C   0  0  0  0  0  0  0  0  0  0  0  0
   -0.7471    1.4017   -1.4052 C   0  0  0  0  0  0  0  0  0  0  0  0
   -2.8545   -1.6151    0.8738 C   0  0  0  0  0  0  0  0  0  0  0  0
   -0.8651   -2.6417    1.6210 O   0  0  0  0  0  0  0  0  0  0  0  0
    3.5896   -0.6589    0.0628 C   0  0  0  0  0  0  0  0  0  0  0  0
    3.8020   -2.5032   -1.2279 O   0  0  0  0  0  0  0  0  0  0  0  0
   -0.1212   -2.8160   -2.0127 C   0  0  0  0  0  0  0  0  0  0  0  0
    0.6486    2.7516    0.3484 C   0  0  2  0  0  0  0  0  0  0  0  0
   -3.5573   -0.6415    0.1412 C   0  0  0  0  0  0  0  0  0  0  0  0
   -0.6335    2.6718   -0.5313 C   0  0  1  0  0  0  0  0  0  0  0  0
   -3.4464   -2.5625    1.6877 O   0  0  0  0  0  0  0  0  0  0  0  0
    0.2803   -2.3268    2.4039 C   0  0  0  0  0  0  0  0  0  0  0  0
    4.9407   -0.7618   -0.0246 O   0  0  0  0  0  0  0  0  0  0  0  0
    5.0583   -1.8614   -0.9473 C   0  0  0  0  0  0  0  0  0  0  0  0
    1.9165    3.0718   -0.4556 C   0  0  0  0  0  0  0  0  0  0  0  0
   -4.9241   -0.6167    0.2256 O   0  0  0  0  0  0  0  0  0  0  0  0
   -0.7880    3.9204   -1.4103 C   0  0  0  0  0  0  0  0  0  0  0  0
   -4.7052   -3.0840    1.2736 C   0  0  0  0  0  0  0  0  0  0  0  0
   -5.6302    0.4103   -0.4633 C   0  0  0  0  0  0  0  0  0  0  0  0
    3.4713    1.0890    1.2667 H   0  0  0  0  0  0  0  0  0  0  0  0
    1.4247    1.8605    2.1603 H   0  0  0  0  0  0  0  0  0  0  0  0
   -0.1385    1.2580    1.7488 H   0  0  0  0  0  0  0  0  0  0  0  0
   -3.3370    1.0619   -1.1681 H   0  0  0  0  0  0  0  0  0  0  0  0
   -1.3691    1.6101   -2.2879 H   0  0  0  0  0  0  0  0  0  0  0  0
    0.2165    1.0971   -1.8220 H   0  0  0  0  0  0  0  0  0  0  0  0
   -0.9829   -3.0279   -1.3772 H   0  0  0  0  0  0  0  0  0  0  0  0
   -0.2387   -1.8787   -2.5620 H   0  0  0  0  0  0  0  0  0  0  0  0
   -0.0757   -3.6274   -2.7484 H   0  0  0  0  0  0  0  0  0  0  0  0
    0.4926    3.6154    1.0120 H   0  0  0  0  0  0  0  0  0  0  0  0
   -1.4846    2.6979    0.1652 H   0  0  0  0  0  0  0  0  0  0  0  0
    1.1921   -2.5806    1.8556 H   0  0  0  0  0  0  0  0  0  0  0  0
    0.2954   -1.2879    2.7475 H   0  0  0  0  0  0  0  0  0  0  0  0
    0.2748   -2.9658    3.2905 H   0  0  0  0  0  0  0  0  0  0  0  0
    5.4758   -1.4798   -1.8872 H   0  0  0  0  0  0  0  0  0  0  0  0
    5.7513   -2.5985   -0.5305 H   0  0  0  0  0  0  0  0  0  0  0  0
    1.8456    4.0452   -0.9473 H   0  0  0  0  0  0  0  0  0  0  0  0
    2.7927    3.1253    0.2019 H   0  0  0  0  0  0  0  0  0  0  0  0
    2.1134    2.3242   -1.2331 H   0  0  0  0  0  0  0  0  0  0  0  0
   -1.7857    3.9515   -1.8595 H   0  0  0  0  0  0  0  0  0  0  0  0
   -0.6646    4.8335   -0.8178 H   0  0  0  0  0  0  0  0  0  0  0  0
   -0.0583    3.9351   -2.2270 H   0  0  0  0  0  0  0  0  0  0  0  0
   -5.5227   -2.4297    1.5939 H   0  0  0  0  0  0  0  0  0  0  0  0
   -4.7427   -3.2779    0.1967 H   0  0  0  0  0  0  0  0  0  0  0  0
   -4.8539   -4.0393    1.7863 H   0  0  0  0  0  0  0  0  0  0  0  0
   -5.3431    1.4017   -0.0979 H   0  0  0  0  0  0  0  0  0  0  0  0
   -5.4898    0.3282   -1.5455 H   0  0  0  0  0  0  0  0  0  0  0  0
   -6.6975    0.2794   -0.2572 H   0  0  0  0  0  0  0  0  0  0  0  0
  1  2  1  0  0  0  0
  1  3  2  0  0  0  0
  1  4  1  0  0  0  0
  2  5  2  0  0  0  0
  2  6  1  0  0  0  0
  3  7  1  0  0  0  0
  3  8  1  0  0  0  0
  4  9  2  0  0  0  0
  4 10  1  0  0  0  0
  5 11  1  0  0  0  0
  5 12  1  0  0  0  0
  6 13  2  0  0  0  0
  6 14  1  0  0  0  0
  7 15  2  0  0  0  0
  7 16  1  0  0  0  0
  8 17  1  0  0  0  0
  9 15  1  0  0  0  0
  9 30  1  0  0  0  0
 10 18  1  0  0  0  0
 10 31  1  0  0  0  0
 10 32  1  0  0  0  0
 11 19  2  0  0  0  0
 11 33  1  0  0  0  0
 12 20  1  0  0  0  0
 12 34  1  0  0  0  0
 12 35  1  0  0  0  0
 13 21  1  0  0  0  0
 13 19  1  0  0  0  0
 14 22  1  0  0  0  0
 15 23  1  0  0  0  0
 16 24  1  0  0  0  0
 17 36  1  0  0  0  0
 17 37  1  0  0  0  0
 17 38  1  0  0  0  0
 18 25  1  0  0  0  0
 18 20  1  0  0  0  0
 18 39  1  1  0  0  0
 19 26  1  0  0  0  0
 20 40  1  1  0  0  0
 20 27  1  0  0  0  0
 21 28  1  0  0  0  0
 22 41  1  0  0  0  0
 22 42  1  0  0  0  0
 22 43  1  0  0  0  0
 23 24  1  0  0  0  0
 24 44  1  0  0  0  0
 24 45  1  0  0  0  0
 25 46  1  0  0  0  0
 25 47  1  0  0  0  0
 25 48  1  0  0  0  0
 26 29  1  0  0  0  0
 27 49  1  0  0  0  0
 27 50  1  0  0  0  0
 27 51  1  0  0  0  0
 28 52  1  0  0  0  0
 28 53  1  0  0  0  0
 28 54  1  0  0  0  0
 29 55  1  0  0  0  0
 29 56  1  0  0  0  0
 29 57  1  0  0  0  0
M  END
>  <Mol_ID>
1047

>  <Formula>
C23H28O6

>  <MolWeight>
400.46482

>  <Cat>
S3600

>  <Name>
Schisandrin B (Sch B)

>  <Synonyms>
N/A

>  <Target>
ATM/ATR,P-gp

>  <Form>
free base

>  <CAS>
61281-37-6

>  <URL>
http://selleckchem.com/products/schisandrin-b.html

$$$$
