Sclareolide.cdx
 OpenBabel08302521243D

 44 46  0  0  0  0  0  0  0  0999 V2000
   -1.1812    1.2946   -0.2760 C   0  0  1  0  0  0  0  0  0  0  0  0
   -2.4835    0.5315   -0.5075 C   0  0  1  0  0  0  0  0  0  0  0  0
   -2.4705   -0.6957    0.3923 C   0  0  0  0  0  0  0  0  0  0  0  0
   -1.3015   -1.6218    0.0081 C   0  0  0  0  0  0  0  0  0  0  0  0
    0.0707   -0.9096    0.0783 C   0  0  2  0  0  0  0  0  0  0  0  0
    0.1334    0.5336   -0.5805 C   0  0  2  0  0  0  0  0  0  0  0  0
    1.3252   -1.8039   -0.2340 C   0  0  0  0  0  0  0  0  0  0  0  0
    2.5911   -1.0426    0.2587 C   0  0  0  0  0  0  0  0  0  0  0  0
    2.6503    0.4701   -0.0039 C   0  0  0  0  0  0  0  0  0  0  0  0
    1.3246    1.2259    0.1539 C   0  0  0  0  0  0  0  0  0  0  0  0
   -1.5214    2.6194   -0.9422 C   0  0  0  0  0  0  0  0  0  0  0  0
   -2.9718    2.7464   -0.5314 C   0  0  0  0  0  0  0  0  0  0  0  0
   -3.4513    1.5200   -0.1258 O   0  0  0  0  0  0  0  0  0  0  0  0
   -3.6374    3.7678   -0.5871 O   0  0  0  0  0  0  0  0  0  0  0  0
    1.4677   -2.2294   -1.7122 C   0  0  0  0  0  0  0  0  0  0  0  0
    1.2617   -3.1423    0.5471 C   0  0  0  0  0  0  0  0  0  0  0  0
   -2.8766    0.1062   -1.9421 C   0  0  0  0  0  0  0  0  0  0  0  0
    0.4196    0.6000   -2.0919 C   0  0  0  0  0  0  0  0  0  0  0  0
   -1.1474    1.5265    0.8053 H   0  0  0  0  0  0  0  0  0  0  0  0
   -3.4236   -1.2345    0.3353 H   0  0  0  0  0  0  0  0  0  0  0  0
   -2.3780   -0.3889    1.4431 H   0  0  0  0  0  0  0  0  0  0  0  0
   -1.4596   -2.0615   -0.9804 H   0  0  0  0  0  0  0  0  0  0  0  0
   -1.3190   -2.4576    0.7188 H   0  0  0  0  0  0  0  0  0  0  0  0
    0.1502   -0.7192    1.1647 H   0  0  0  0  0  0  0  0  0  0  0  0
    3.4939   -1.5077   -0.1578 H   0  0  0  0  0  0  0  0  0  0  0  0
    2.6699   -1.1747    1.3484 H   0  0  0  0  0  0  0  0  0  0  0  0
    3.3826    0.9119    0.6858 H   0  0  0  0  0  0  0  0  0  0  0  0
    3.0620    0.6460   -1.0092 H   0  0  0  0  0  0  0  0  0  0  0  0
    1.1018    1.2975    1.2298 H   0  0  0  0  0  0  0  0  0  0  0  0
    1.4442    2.2569   -0.1896 H   0  0  0  0  0  0  0  0  0  0  0  0
   -0.9241    3.4469   -0.5533 H   0  0  0  0  0  0  0  0  0  0  0  0
   -1.4820    2.6012   -2.0334 H   0  0  0  0  0  0  0  0  0  0  0  0
    2.1171   -3.1068   -1.8130 H   0  0  0  0  0  0  0  0  0  0  0  0
    0.5001   -2.4979   -2.1502 H   0  0  0  0  0  0  0  0  0  0  0  0
    1.9396   -1.4776   -2.3433 H   0  0  0  0  0  0  0  0  0  0  0  0
    1.1344   -2.9794    1.6223 H   0  0  0  0  0  0  0  0  0  0  0  0
    0.4402   -3.7758    0.1946 H   0  0  0  0  0  0  0  0  0  0  0  0
    2.1859   -3.7173    0.4083 H   0  0  0  0  0  0  0  0  0  0  0  0
   -3.8843   -0.3255   -1.9270 H   0  0  0  0  0  0  0  0  0  0  0  0
   -2.9298    0.9495   -2.6351 H   0  0  0  0  0  0  0  0  0  0  0  0
   -2.2140   -0.6451   -2.3759 H   0  0  0  0  0  0  0  0  0  0  0  0
    0.2909    1.6131   -2.4836 H   0  0  0  0  0  0  0  0  0  0  0  0
    1.4559    0.3834   -2.3431 H   0  0  0  0  0  0  0  0  0  0  0  0
   -0.2127   -0.0726   -2.6692 H   0  0  0  0  0  0  0  0  0  0  0  0
  1  2  1  0  0  0  0
  1 11  1  0  0  0  0
  1 19  1  1  0  0  0
  2  3  1  0  0  0  0
  2 17  1  6  0  0  0
  3  4  1  0  0  0  0
  3 20  1  0  0  0  0
  3 21  1  0  0  0  0
  4 22  1  0  0  0  0
  4 23  1  0  0  0  0
  5  4  1  0  0  0  0
  5  6  1  0  0  0  0
  5  7  1  0  0  0  0
  5 24  1  1  0  0  0
  6  1  1  0  0  0  0
  6 18  1  6  0  0  0
  7  8  1  0  0  0  0
  7 15  1  0  0  0  0
  7 16  1  0  0  0  0
  8  9  1  0  0  0  0
  8 25  1  0  0  0  0
  8 26  1  0  0  0  0
  9 10  1  0  0  0  0
  9 27  1  0  0  0  0
  9 28  1  0  0  0  0
 10  6  1  0  0  0  0
 10 29  1  0  0  0  0
 10 30  1  0  0  0  0
 11 12  1  0  0  0  0
 11 31  1  0  0  0  0
 11 32  1  0  0  0  0
 12 13  1  0  0  0  0
 12 14  2  0  0  0  0
 13  2  1  0  0  0  0
 15 33  1  0  0  0  0
 15 34  1  0  0  0  0
 15 35  1  0  0  0  0
 16 36  1  0  0  0  0
 16 37  1  0  0  0  0
 16 38  1  0  0  0  0
 17 39  1  0  0  0  0
 17 40  1  0  0  0  0
 17 41  1  0  0  0  0
 18 42  1  0  0  0  0
 18 43  1  0  0  0  0
 18 44  1  0  0  0  0
M  END
>  <Mol_ID>
479

>  <Formula>
C16H26O2

>  <MolWeight>
250.37644

>  <Cat>
S2355

>  <Name>
Sclareolide

>  <Synonyms>
Norambreinolide

>  <Target>
Others

>  <Form>
free base

>  <CAS>
564-20-5

>  <URL>
http://selleckchem.com/products/Sclareolide(Norambreinolide).html

$$$$
