Sclareol.cdx
 OpenBabel08302521373D

 58 59  0  0  0  0  0  0  0  0999 V2000
    2.6935   -0.7515   -0.3600 C   0  0  0  0  0  0  0  0  0  0  0  0
    2.7446    0.7419    0.0100 C   0  0  1  0  0  0  0  0  0  0  0  0
    1.4167    1.3817   -0.5169 C   0  0  1  0  0  0  0  0  0  0  0  0
    0.1248    0.7131    0.1687 C   0  0  2  0  0  0  0  0  0  0  0  0
    0.0912   -0.8563   -0.1824 C   0  0  3  0  0  0  0  0  0  0  0  0
    1.4601   -1.5140    0.1407 C   0  0  0  0  0  0  0  0  0  0  0  0
   -1.1744    1.3326   -0.4040 C   0  0  0  0  0  0  0  0  0  0  0  0
   -2.4317    0.7342    0.2127 C   0  0  0  0  0  0  0  0  0  0  0  0
   -2.4624   -0.7814    0.1469 C   0  0  0  0  0  0  0  0  0  0  0  0
   -1.1760   -1.6202    0.4370 C   0  0  0  0  0  0  0  0  0  0  0  0
   -1.5858   -3.0060   -0.1730 C   0  0  0  0  0  0  0  0  0  0  0  0
   -0.8715   -2.0398    1.8995 C   0  0  0  0  0  0  0  0  0  0  0  0
    1.4464    2.9485   -0.5652 C   0  0  0  0  0  0  0  0  0  0  0  0
    2.4608    3.6687   -1.5003 C   0  0  0  0  0  0  0  0  0  0  0  0
    2.4564    3.3250   -3.0081 C   0  0  3  0  0  0  0  0  0  0  0  0
    1.1490    3.7365   -3.6805 C   0  0  0  0  0  0  0  0  0  0  0  0
    3.6318    4.0563   -3.6893 C   0  0  0  0  0  0  0  0  0  0  0  0
    2.6175    1.9411   -3.2383 O   0  0  0  0  0  0  0  0  0  0  0  0
    4.8080    3.5107   -4.0458 C   0  0  0  0  0  0  0  0  0  0  0  0
    0.0876    0.9836    1.6912 C   0  0  0  0  0  0  0  0  0  0  0  0
    3.0837    0.9810    1.4921 C   0  0  0  0  0  0  0  0  0  0  0  0
    3.8839    1.2431   -0.7174 O   0  0  0  0  0  0  0  0  0  0  0  0
    3.6060   -1.2479    0.0060 H   0  0  0  0  0  0  0  0  0  0  0  0
    2.7500   -0.8425   -1.4528 H   0  0  0  0  0  0  0  0  0  0  0  0
    1.3264    1.0921   -1.5690 H   0  0  0  0  0  0  0  0  0  0  0  0
   -0.0253   -0.9257   -1.2760 H   0  0  0  0  0  0  0  0  0  0  0  0
    1.4867   -2.5172   -0.3036 H   0  0  0  0  0  0  0  0  0  0  0  0
    1.5801   -1.6465    1.2186 H   0  0  0  0  0  0  0  0  0  0  0  0
   -1.2169    2.4099   -0.2058 H   0  0  0  0  0  0  0  0  0  0  0  0
   -1.1994    1.2123   -1.4935 H   0  0  0  0  0  0  0  0  0  0  0  0
   -3.3016    1.1288   -0.3311 H   0  0  0  0  0  0  0  0  0  0  0  0
   -2.5787    1.0713    1.2408 H   0  0  0  0  0  0  0  0  0  0  0  0
   -3.3056   -1.1540    0.7465 H   0  0  0  0  0  0  0  0  0  0  0  0
   -2.7405   -0.9784   -0.8993 H   0  0  0  0  0  0  0  0  0  0  0  0
   -2.0073   -2.9404   -1.1820 H   0  0  0  0  0  0  0  0  0  0  0  0
   -0.7894   -3.7521   -0.1688 H   0  0  0  0  0  0  0  0  0  0  0  0
   -2.4041   -3.4256    0.4439 H   0  0  0  0  0  0  0  0  0  0  0  0
   -0.4218   -1.2834    2.5275 H   0  0  0  0  0  0  0  0  0  0  0  0
   -1.7721   -2.3983    2.4142 H   0  0  0  0  0  0  0  0  0  0  0  0
   -0.1619   -2.8807    1.9135 H   0  0  0  0  0  0  0  0  0  0  0  0
    0.4668    3.3247   -0.8684 H   0  0  0  0  0  0  0  0  0  0  0  0
    1.6074    3.3360    0.4477 H   0  0  0  0  0  0  0  0  0  0  0  0
    2.2706    4.7493   -1.3992 H   0  0  0  0  0  0  0  0  0  0  0  0
    3.4701    3.5515   -1.0957 H   0  0  0  0  0  0  0  0  0  0  0  0
    0.9552    4.8093   -3.5791 H   0  0  0  0  0  0  0  0  0  0  0  0
    1.1605    3.4897   -4.7499 H   0  0  0  0  0  0  0  0  0  0  0  0
    0.3093    3.1851   -3.2498 H   0  0  0  0  0  0  0  0  0  0  0  0
    3.4755    5.1143   -3.8939 H   0  0  0  0  0  0  0  0  0  0  0  0
    2.8088    1.8041   -4.1792 H   0  0  0  0  0  0  0  0  0  0  0  0
    5.5804    4.1179   -4.5077 H   0  0  0  0  0  0  0  0  0  0  0  0
    5.0479    2.4765   -3.8177 H   0  0  0  0  0  0  0  0  0  0  0  0
   -0.8484    0.6763    2.1602 H   0  0  0  0  0  0  0  0  0  0  0  0
    0.8465    0.4318    2.2386 H   0  0  0  0  0  0  0  0  0  0  0  0
    0.1871    2.0486    1.9125 H   0  0  0  0  0  0  0  0  0  0  0  0
    4.1400    1.2279    1.6608 H   0  0  0  0  0  0  0  0  0  0  0  0
    2.5356    1.8408    1.9018 H   0  0  0  0  0  0  0  0  0  0  0  0
    2.8743    0.1076    2.1161 H   0  0  0  0  0  0  0  0  0  0  0  0
    4.2396    2.0040   -0.2397 H   0  0  0  0  0  0  0  0  0  0  0  0
  1  2  1  0  0  0  0
  1 23  1  0  0  0  0
  1 24  1  0  0  0  0
  2  3  1  0  0  0  0
  2 22  1  6  0  0  0
  2 21  1  0  0  0  0
  3  4  1  0  0  0  0
  3 13  1  0  0  0  0
  3 25  1  6  0  0  0
  4  5  1  0  0  0  0
  4  7  1  0  0  0  0
  4 20  1  1  0  0  0
  5  6  1  0  0  0  0
  5 26  1  0  0  0  0
  6  1  1  0  0  0  0
  6 27  1  0  0  0  0
  6 28  1  0  0  0  0
  7  8  1  0  0  0  0
  7 29  1  0  0  0  0
  7 30  1  0  0  0  0
  8  9  1  0  0  0  0
  8 31  1  0  0  0  0
  8 32  1  0  0  0  0
  9 10  1  0  0  0  0
  9 33  1  0  0  0  0
  9 34  1  0  0  0  0
 10  5  1  0  0  0  0
 10 11  1  0  0  0  0
 10 12  1  0  0  0  0
 11 35  1  0  0  0  0
 11 36  1  0  0  0  0
 11 37  1  0  0  0  0
 12 38  1  0  0  0  0
 12 39  1  0  0  0  0
 12 40  1  0  0  0  0
 13 14  1  0  0  0  0
 13 41  1  0  0  0  0
 13 42  1  0  0  0  0
 14 15  1  0  0  0  0
 14 43  1  0  0  0  0
 14 44  1  0  0  0  0
 15 16  1  0  0  0  0
 15 17  1  0  0  0  0
 15 18  1  0  0  0  0
 16 45  1  0  0  0  0
 16 46  1  0  0  0  0
 16 47  1  0  0  0  0
 17 19  2  0  0  0  0
 17 48  1  0  0  0  0
 18 49  1  0  0  0  0
 19 50  1  0  0  0  0
 19 51  1  0  0  0  0
 20 52  1  0  0  0  0
 20 53  1  0  0  0  0
 20 54  1  0  0  0  0
 21 55  1  0  0  0  0
 21 56  1  0  0  0  0
 21 57  1  0  0  0  0
 22 58  1  0  0  0  0
M  END
>  <Mol_ID>
726

>  <Formula>
C20H36O2

>  <MolWeight>
308.49864

>  <Cat>
S2354

>  <Name>
Sclareol

>  <Synonyms>
N/A

>  <Target>
Others

>  <Form>
free base

>  <CAS>
515-03-7

>  <URL>
http://selleckchem.com/products/Sclareol.html

$$$$
