Scopine.cdx
 OpenBabel08302521453D

 24 26  0  0  0  0  0  0  0  0999 V2000
    0.5735    1.0305    0.9769 C   0  0  2  0  0  0  0  0  0  0  0  0
    0.5932    2.4749    1.4295 C   0  0  2  0  0  0  0  0  0  0  0  0
    0.3609    3.2966    0.2253 C   0  0  2  0  0  0  0  0  0  0  0  0
    0.1642    2.3167   -0.9094 C   0  0  1  0  0  0  0  0  0  0  0  0
    0.8603    1.0774   -0.4770 N   0  0  0  0  0  0  0  0  0  0  0  0
   -1.3421    1.9425   -0.9796 C   0  0  0  0  0  0  0  0  0  0  0  0
   -0.8651    0.4753    1.0746 C   0  0  0  0  0  0  0  0  0  0  0  0
   -1.6323    0.6103   -0.2582 C   0  0  1  0  0  0  0  0  0  0  0  0
    1.6228    3.3273    0.9083 O   0  0  0  0  0  0  0  0  0  0  0  0
   -3.0314    0.4490   -0.0459 O   0  0  0  0  0  0  0  0  0  0  0  0
    2.2766    1.0290   -0.8151 C   0  0  0  0  0  0  0  0  0  0  0  0
    1.2703    0.4106    1.5506 H   0  0  0  0  0  0  0  0  0  0  0  0
    0.1382    2.7107    2.3764 H   0  0  0  0  0  0  0  0  0  0  0  0
   -0.2601    4.1766    0.2351 H   0  0  0  0  0  0  0  0  0  0  0  0
    0.5170    2.7145   -1.8659 H   0  0  0  0  0  0  0  0  0  0  0  0
   -1.6521    1.8409   -2.0272 H   0  0  0  0  0  0  0  0  0  0  0  0
   -1.9723    2.7360   -0.5565 H   0  0  0  0  0  0  0  0  0  0  0  0
   -0.8357   -0.5905    1.3366 H   0  0  0  0  0  0  0  0  0  0  0  0
   -1.4311    0.9637    1.8814 H   0  0  0  0  0  0  0  0  0  0  0  0
   -1.3240   -0.2052   -0.9253 H   0  0  0  0  0  0  0  0  0  0  0  0
   -3.1816   -0.4998    0.1174 H   0  0  0  0  0  0  0  0  0  0  0  0
    2.7082    0.0902   -0.4492 H   0  0  0  0  0  0  0  0  0  0  0  0
    2.8772    1.8510   -0.4170 H   0  0  0  0  0  0  0  0  0  0  0  0
    2.3935    1.0205   -1.9018 H   0  0  0  0  0  0  0  0  0  0  0  0
  1  2  1  0  0  0  0
  1  5  1  0  0  0  0
  1  7  1  0  0  0  0
  1 12  1  1  0  0  0
  2  3  1  0  0  0  0
  2  9  1  0  0  0  0
  2 13  1  1  0  0  0
  3  4  1  0  0  0  0
  3  9  1  0  0  0  0
  3 14  1  1  0  0  0
  4  5  1  0  0  0  0
  4  6  1  0  0  0  0
  4 15  1  6  0  0  0
  5 11  1  0  0  0  0
  6  8  1  0  0  0  0
  6 16  1  0  0  0  0
  6 17  1  0  0  0  0
  7  8  1  0  0  0  0
  7 18  1  0  0  0  0
  7 19  1  0  0  0  0
  8 10  1  0  0  0  0
  8 20  1  6  0  0  0
 10 21  1  0  0  0  0
 11 22  1  0  0  0  0
 11 23  1  0  0  0  0
 11 24  1  0  0  0  0
M  END
>  <Mol_ID>
954

>  <Formula>
C8H13NO2

>  <MolWeight>
155.19432

>  <Cat>
S2545

>  <Name>
Scopine

>  <Synonyms>
6,7-Epoxytropine

>  <Target>
Adrenergic Receptor

>  <Form>
free base

>  <CAS>
498-45-3

>  <URL>
http://selleckchem.com/products/scopine.html

$$$$
