Scopolin
 OpenBabel08302521243D

 43 45  0  0  0  0  0  0  0  0999 V2000
   -1.3643   -0.1444    0.2030 C   0  0  1  0  0  0  0  0  0  0  0  0
   -0.0913   -0.8751   -0.2673 C   0  0  1  0  0  0  0  0  0  0  0  0
    1.1840   -0.1764    0.2514 C   0  0  2  0  0  0  0  0  0  0  0  0
    1.1126    1.3221   -0.1128 C   0  0  1  0  0  0  0  0  0  0  0  0
   -0.0868    1.9019    0.4066 O   0  0  0  0  0  0  0  0  0  0  0  0
   -1.2695    1.3370   -0.1684 C   0  0  2  0  0  0  0  0  0  0  0  0
   -2.4726    2.1309    0.3509 C   0  0  0  0  0  0  0  0  0  0  0  0
   -0.1380   -2.2485    0.1314 O   0  0  0  0  0  0  0  0  0  0  0  0
    2.2567    2.0200    0.4051 O   0  0  0  0  0  0  0  0  0  0  0  0
   -2.5465   -0.7163   -0.3556 O   0  0  0  0  0  0  0  0  0  0  0  0
    2.3510   -0.8048   -0.3015 O   0  0  0  0  0  0  0  0  0  0  0  0
    2.2919    3.3691    0.1336 C   0  0  0  0  0  0  0  0  0  0  0  0
    1.7053    3.8902   -1.0281 C   0  0  0  0  0  0  0  0  0  0  0  0
    1.7497    5.2500   -1.2960 C   0  0  0  0  0  0  0  0  0  0  0  0
    2.3517    6.1423   -0.4299 C   0  0  0  0  0  0  0  0  0  0  0  0
    2.9542    5.6363    0.7247 C   0  0  0  0  0  0  0  0  0  0  0  0
    2.9455    4.2532    1.0129 C   0  0  0  0  0  0  0  0  0  0  0  0
    3.5943    3.9724    2.1865 O   0  0  0  0  0  0  0  0  0  0  0  0
    3.6977    2.6236    2.6162 C   0  0  0  0  0  0  0  0  0  0  0  0
    1.1699    5.6643   -2.5073 O   0  0  0  0  0  0  0  0  0  0  0  0
    1.2306    6.9894   -2.8977 C   0  0  0  0  0  0  0  0  0  0  0  0
    1.7962    7.9435   -1.9318 C   0  0  0  0  0  0  0  0  0  0  0  0
    2.3279    7.5547   -0.7648 C   0  0  0  0  0  0  0  0  0  0  0  0
    0.8157    7.3699   -3.9899 O   0  0  0  0  0  0  0  0  0  0  0  0
   -2.3464    3.5001   -0.0361 O   0  0  0  0  0  0  0  0  0  0  0  0
   -1.4426   -0.2535    1.2916 H   0  0  0  0  0  0  0  0  0  0  0  0
   -0.0724   -0.9049   -1.3647 H   0  0  0  0  0  0  0  0  0  0  0  0
    1.2610   -0.2988    1.3375 H   0  0  0  0  0  0  0  0  0  0  0  0
    1.1333    1.3703   -1.2088 H   0  0  0  0  0  0  0  0  0  0  0  0
   -1.2235    1.4702   -1.2576 H   0  0  0  0  0  0  0  0  0  0  0  0
   -3.4112    1.7507   -0.0629 H   0  0  0  0  0  0  0  0  0  0  0  0
   -2.5280    2.1019    1.4443 H   0  0  0  0  0  0  0  0  0  0  0  0
    0.0406   -2.2996    1.0871 H   0  0  0  0  0  0  0  0  0  0  0  0
   -2.3353   -1.1099   -1.2204 H   0  0  0  0  0  0  0  0  0  0  0  0
    2.3359   -0.7167   -1.2705 H   0  0  0  0  0  0  0  0  0  0  0  0
    1.2001    3.2741   -1.7615 H   0  0  0  0  0  0  0  0  0  0  0  0
    3.4460    6.3114    1.4238 H   0  0  0  0  0  0  0  0  0  0  0  0
    2.7126    2.1722    2.7659 H   0  0  0  0  0  0  0  0  0  0  0  0
    4.3210    2.0382    1.9331 H   0  0  0  0  0  0  0  0  0  0  0  0
    4.1948    2.6266    3.5921 H   0  0  0  0  0  0  0  0  0  0  0  0
    1.7572    8.9857   -2.2277 H   0  0  0  0  0  0  0  0  0  0  0  0
    2.7312    8.2788   -0.0635 H   0  0  0  0  0  0  0  0  0  0  0  0
   -1.4979    3.8075    0.3360 H   0  0  0  0  0  0  0  0  0  0  0  0
  1  2  1  0  0  0  0
  1 10  1  0  0  0  0
  1 26  1  1  0  0  0
  2  3  1  0  0  0  0
  2  8  1  0  0  0  0
  2 27  1  6  0  0  0
  3  4  1  0  0  0  0
  3 11  1  0  0  0  0
  3 28  1  1  0  0  0
  4  5  1  0  0  0  0
  4  9  1  0  0  0  0
  4 29  1  6  0  0  0
  5  6  1  0  0  0  0
  6  1  1  0  0  0  0
  6  7  1  0  0  0  0
  6 30  1  6  0  0  0
  7 25  1  0  0  0  0
  7 31  1  0  0  0  0
  7 32  1  0  0  0  0
  8 33  1  0  0  0  0
  9 12  1  0  0  0  0
 10 34  1  0  0  0  0
 11 35  1  0  0  0  0
 12 13  2  0  0  0  0
 13 14  1  0  0  0  0
 13 36  1  0  0  0  0
 14 15  2  0  0  0  0
 14 20  1  0  0  0  0
 15 16  1  0  0  0  0
 16 17  2  0  0  0  0
 16 37  1  0  0  0  0
 17 12  1  0  0  0  0
 17 18  1  0  0  0  0
 18 19  1  0  0  0  0
 19 38  1  0  0  0  0
 19 39  1  0  0  0  0
 19 40  1  0  0  0  0
 20 21  1  0  0  0  0
 21 22  1  0  0  0  0
 21 24  2  0  0  0  0
 22 23  2  0  0  0  0
 22 41  1  0  0  0  0
 23 15  1  0  0  0  0
 23 42  1  0  0  0  0
 25 43  1  0  0  0  0
M  END
>  <Mol_ID>
5139

>  <Formula>
C16H18O9

>  <MolWeight>
354.30872

>  <Cat>
S3262

>  <Name>
Scopolin

>  <Synonyms>
N/A

>  <Target>
Sirtuin

>  <Form>
free base

>  <CAS>
531-44-2

>  <URL>
http://www.selleckchem.com/products/scopolin.html

$$$$
