SCR130
 OpenBabel08302521313D

 40 43  0  0  0  0  0  0  0  0999 V2000
    1.5159    0.0409   -1.0722 N   0  0  0  0  0  0  0  0  0  0  0  0
    2.5422   -0.0636   -0.2884 C   0  0  0  0  0  0  0  0  0  0  0  0
    2.2783   -0.2116    1.1782 C   0  0  0  0  0  0  0  0  0  0  0  0
    0.7719   -0.0040    1.2695 C   0  0  3  0  0  0  0  0  0  0  0  0
    0.2953    0.0313   -0.2062 C   0  0  0  0  0  0  0  0  0  0  0  0
   -0.4875   -1.2621   -0.4402 C   0  0  0  0  0  0  0  0  0  0  0  0
   -1.8467   -1.1756   -0.2455 N   0  0  0  0  0  0  0  0  0  0  0  0
   -2.5711   -0.0251   -0.1905 C   0  0  0  0  0  0  0  0  0  0  0  0
   -1.8970    1.1450   -0.3398 N   0  0  0  0  0  0  0  0  0  0  0  0
   -0.5504    1.2593   -0.5731 C   0  0  0  0  0  0  0  0  0  0  0  0
    0.0279   -2.3598   -0.6488 O   0  0  0  0  0  0  0  0  0  0  0  0
   -0.0972    2.3181   -1.0108 O   0  0  0  0  0  0  0  0  0  0  0  0
   -4.2216   -0.0539   -0.0007 S   0  0  0  0  0  0  0  0  0  0  0  0
    0.3815    1.1452    2.1782 C   0  0  0  0  0  0  0  0  0  0  0  0
    0.8521    2.4519    1.9765 C   0  0  0  0  0  0  0  0  0  0  0  0
    0.4583    3.4878    2.8248 C   0  0  0  0  0  0  0  0  0  0  0  0
   -0.3987    3.2343    3.8909 C   0  0  0  0  0  0  0  0  0  0  0  0
   -0.8673    1.9423    4.1113 C   0  0  0  0  0  0  0  0  0  0  0  0
   -0.4827    0.9054    3.2594 C   0  0  0  0  0  0  0  0  0  0  0  0
    3.9411   -0.0106   -0.7766 C   0  0  0  0  0  0  0  0  0  0  0  0
    4.2332    0.6993   -1.9451 C   0  0  0  0  0  0  0  0  0  0  0  0
    5.5608    0.8537   -2.3518 C   0  0  0  0  0  0  0  0  0  0  0  0
    6.5933    0.2863   -1.6040 C   0  0  0  0  0  0  0  0  0  0  0  0
    6.3015   -0.4536   -0.4591 C   0  0  0  0  0  0  0  0  0  0  0  0
    4.9762   -0.6028   -0.0445 C   0  0  0  0  0  0  0  0  0  0  0  0
    2.5450   -1.2268    1.4916 H   0  0  0  0  0  0  0  0  0  0  0  0
    2.8698    0.5090    1.7516 H   0  0  0  0  0  0  0  0  0  0  0  0
    0.3819   -0.9112    1.7549 H   0  0  0  0  0  0  0  0  0  0  0  0
   -2.3548   -2.0504   -0.2790 H   0  0  0  0  0  0  0  0  0  0  0  0
   -2.4374    1.9883   -0.4840 H   0  0  0  0  0  0  0  0  0  0  0  0
    1.5163    2.6834    1.1444 H   0  0  0  0  0  0  0  0  0  0  0  0
    0.8191    4.4983    2.6458 H   0  0  0  0  0  0  0  0  0  0  0  0
   -0.7022    4.0427    4.5508 H   0  0  0  0  0  0  0  0  0  0  0  0
   -1.5327    1.7398    4.9484 H   0  0  0  0  0  0  0  0  0  0  0  0
   -0.8616   -0.0953    3.4584 H   0  0  0  0  0  0  0  0  0  0  0  0
    3.4353    1.1584   -2.5254 H   0  0  0  0  0  0  0  0  0  0  0  0
    5.7912    1.4278   -3.2458 H   0  0  0  0  0  0  0  0  0  0  0  0
    7.6270    0.4198   -1.9138 H   0  0  0  0  0  0  0  0  0  0  0  0
    7.1042   -0.9065    0.1157 H   0  0  0  0  0  0  0  0  0  0  0  0
    4.7753   -1.1860    0.8488 H   0  0  0  0  0  0  0  0  0  0  0  0
  1  2  2  0  0  0  0
  1  5  1  0  0  0  0
  2  3  1  0  0  0  0
  2 20  1  0  0  0  0
  3  4  1  0  0  0  0
  3 26  1  0  0  0  0
  3 27  1  0  0  0  0
  4  5  1  0  0  0  0
  4 14  1  0  0  0  0
  4 28  1  0  0  0  0
  5  6  1  0  0  0  0
  6  7  1  0  0  0  0
  6 11  2  0  0  0  0
  7  8  1  0  0  0  0
  7 29  1  0  0  0  0
  8  9  1  0  0  0  0
  8 13  2  0  0  0  0
  9 10  1  0  0  0  0
  9 30  1  0  0  0  0
 10  5  1  0  0  0  0
 10 12  2  0  0  0  0
 14 15  2  0  0  0  0
 14 19  1  0  0  0  0
 15 16  1  0  0  0  0
 15 31  1  0  0  0  0
 16 17  2  0  0  0  0
 16 32  1  0  0  0  0
 17 18  1  0  0  0  0
 17 33  1  0  0  0  0
 18 19  2  0  0  0  0
 18 34  1  0  0  0  0
 19 35  1  0  0  0  0
 20 21  2  0  0  0  0
 20 25  1  0  0  0  0
 21 22  1  0  0  0  0
 21 36  1  0  0  0  0
 22 23  2  0  0  0  0
 22 37  1  0  0  0  0
 23 24  1  0  0  0  0
 23 38  1  0  0  0  0
 24 25  2  0  0  0  0
 24 39  1  0  0  0  0
 25 40  1  0  0  0  0
M  END
>  <Mol_ID>
5813

>  <Formula>
C19H13Cl2N3O2S

>  <MolWeight>
418.29642

>  <Cat>
S9775

>  <Name>
SCR130

>  <Synonyms>
N/A

>  <Target>
DNA/RNA Synthesis

>  <Form>
Free Base

>  <CAS>
2377858-38-1

>  <URL>
http://www.selleckchem.com/products/scr130.html

$$$$
