SCR7.cdx
 OpenBabel08302520003D

 36 39  0  0  0  0  0  0  0  0999 V2000
    1.4317   -0.1991   -0.0626 C   0  0  0  0  0  0  0  0  0  0  0  0
    0.5711   -1.2142    0.3408 C   0  0  0  0  0  0  0  0  0  0  0  0
   -0.8126   -1.0482    0.2230 C   0  0  0  0  0  0  0  0  0  0  0  0
   -1.3714    0.1616   -0.2293 C   0  0  0  0  0  0  0  0  0  0  0  0
   -0.4744    1.1532   -0.6720 C   0  0  0  0  0  0  0  0  0  0  0  0
    0.9098    0.9750   -0.5948 C   0  0  0  0  0  0  0  0  0  0  0  0
   -2.8340    0.4153   -0.2405 C   0  0  0  0  0  0  0  0  0  0  0  0
   -3.7619    0.0185    0.7573 C   0  0  0  0  0  0  0  0  0  0  0  0
   -5.1068    0.2491    0.6036 N   0  0  0  0  0  0  0  0  0  0  0  0
   -5.4910    0.9187   -0.4986 C   0  0  0  0  0  0  0  0  0  0  0  0
   -4.5766    1.3561   -1.4392 C   0  0  0  0  0  0  0  0  0  0  0  0
   -3.2475    1.1128   -1.3401 N   0  0  0  0  0  0  0  0  0  0  0  0
   -3.4283   -0.6394    2.0469 C   0  0  0  0  0  0  0  0  0  0  0  0
   -2.2970   -0.2915    2.8081 C   0  0  0  0  0  0  0  0  0  0  0  0
   -1.9468   -0.9955    3.9653 C   0  0  0  0  0  0  0  0  0  0  0  0
   -2.7648   -2.0175    4.4333 C   0  0  0  0  0  0  0  0  0  0  0  0
   -3.9334   -2.3314    3.7474 C   0  0  0  0  0  0  0  0  0  0  0  0
   -4.2566   -1.6540    2.5660 C   0  0  0  0  0  0  0  0  0  0  0  0
   -6.8526    1.1592   -0.6616 N   0  0  0  0  0  0  0  0  0  0  0  0
   -7.3553    1.8449   -1.7221 C   0  0  0  0  0  0  0  0  0  0  0  0
   -6.4601    2.3068   -2.6426 N   0  0  0  0  0  0  0  0  0  0  0  0
   -5.0888    2.1326   -2.5945 C   0  0  0  0  0  0  0  0  0  0  0  0
   -4.3596    2.6088   -3.4542 O   0  0  0  0  0  0  0  0  0  0  0  0
   -8.9878    2.1102   -1.8877 S   0  0  0  0  0  0  0  0  0  0  0  0
    2.5071   -0.3273    0.0269 H   0  0  0  0  0  0  0  0  0  0  0  0
    0.9719   -2.1356    0.7558 H   0  0  0  0  0  0  0  0  0  0  0  0
   -1.4502   -1.8763    0.5298 H   0  0  0  0  0  0  0  0  0  0  0  0
   -0.8569    2.0871   -1.0832 H   0  0  0  0  0  0  0  0  0  0  0  0
    1.5763    1.7593   -0.9441 H   0  0  0  0  0  0  0  0  0  0  0  0
   -1.6403    0.5179    2.4928 H   0  0  0  0  0  0  0  0  0  0  0  0
   -1.0305   -0.7443    4.4945 H   0  0  0  0  0  0  0  0  0  0  0  0
   -2.4970   -2.5605    5.3360 H   0  0  0  0  0  0  0  0  0  0  0  0
   -4.5926   -3.1093    4.1249 H   0  0  0  0  0  0  0  0  0  0  0  0
   -5.1700   -1.9324    2.0423 H   0  0  0  0  0  0  0  0  0  0  0  0
   -7.4747    0.7989    0.0514 H   0  0  0  0  0  0  0  0  0  0  0  0
   -6.8092    2.8371   -3.4308 H   0  0  0  0  0  0  0  0  0  0  0  0
  1  2  2  0  0  0  0
  1 25  1  0  0  0  0
  2  3  1  0  0  0  0
  2 26  1  0  0  0  0
  3  4  2  0  0  0  0
  3 27  1  0  0  0  0
  4  5  1  0  0  0  0
  4  7  1  0  0  0  0
  5  6  2  0  0  0  0
  5 28  1  0  0  0  0
  6  1  1  0  0  0  0
  6 29  1  0  0  0  0
  7  8  1  0  0  0  0
  8  9  2  0  0  0  0
  8 13  1  0  0  0  0
  9 10  1  0  0  0  0
 10 11  2  0  0  0  0
 10 19  1  0  0  0  0
 11 12  1  0  0  0  0
 12  7  2  0  0  0  0
 13 14  2  0  0  0  0
 14 15  1  0  0  0  0
 14 30  1  0  0  0  0
 15 16  2  0  0  0  0
 15 31  1  0  0  0  0
 16 17  1  0  0  0  0
 16 32  1  0  0  0  0
 17 18  2  0  0  0  0
 17 33  1  0  0  0  0
 18 13  1  0  0  0  0
 18 34  1  0  0  0  0
 19 20  1  0  0  0  0
 19 35  1  0  0  0  0
 20 21  1  0  0  0  0
 20 24  2  0  0  0  0
 21 22  1  0  0  0  0
 21 36  1  0  0  0  0
 22 11  1  0  0  0  0
 22 23  2  0  0  0  0
M  END
>  <Mol_ID>
2671

>  <Formula>
C18H12N4OS

>  <MolWeight>
332.37908

>  <Cat>
S7742

>  <Name>
SCR7

>  <Synonyms>
N/A

>  <Target>
CRISPR/Cas9,DNA/RNA Synthesis

>  <Form>
free base

>  <CAS>
14892-97-8

>  <URL>
http://selleckchem.com/products/scr7.html

$$$$
