Scriptaid (GCK 1026).cdx
 OpenBabel08302520403D

 42 44  0  0  0  0  0  0  0  0999 V2000
   -0.6780   -2.4830    0.0241 C   0  0  0  0  0  0  0  0  0  0  0  0
   -2.0688   -2.4460   -0.0132 C   0  0  0  0  0  0  0  0  0  0  0  0
   -2.7307   -1.2190   -0.0507 C   0  0  0  0  0  0  0  0  0  0  0  0
   -2.0105   -0.0126   -0.0253 C   0  0  0  0  0  0  0  0  0  0  0  0
   -0.5968   -0.0510    0.0632 C   0  0  0  0  0  0  0  0  0  0  0  0
    0.0547   -1.2900    0.0587 C   0  0  0  0  0  0  0  0  0  0  0  0
   -2.6616    1.2294   -0.0872 C   0  0  0  0  0  0  0  0  0  0  0  0
   -1.9357    2.4187   -0.0442 C   0  0  0  0  0  0  0  0  0  0  0  0
   -0.5494    2.3801    0.0952 C   0  0  0  0  0  0  0  0  0  0  0  0
    0.1139    1.1475    0.1570 C   0  0  0  0  0  0  0  0  0  0  0  0
    1.5800    1.1147    0.3540 C   0  0  0  0  0  0  0  0  0  0  0  0
    2.2078   -0.1193    0.1963 N   0  0  0  0  0  0  0  0  0  0  0  0
    1.5342   -1.3355    0.0537 C   0  0  0  0  0  0  0  0  0  0  0  0
    2.1018   -2.4176   -0.0685 O   0  0  0  0  0  0  0  0  0  0  0  0
    2.1672    2.1517    0.6564 O   0  0  0  0  0  0  0  0  0  0  0  0
    3.6659   -0.1577    0.2842 C   0  0  0  0  0  0  0  0  0  0  0  0
    4.1369   -0.5571    1.6855 C   0  0  0  0  0  0  0  0  0  0  0  0
    5.6653   -0.5760    1.7992 C   0  0  0  0  0  0  0  0  0  0  0  0
    6.0884   -1.0148    3.2022 C   0  0  0  0  0  0  0  0  0  0  0  0
    7.6052   -1.0542    3.3771 C   0  0  0  0  0  0  0  0  0  0  0  0
    7.9858   -1.5542    4.7570 C   0  0  0  0  0  0  0  0  0  0  0  0
    9.3440   -1.5908    4.9793 N   0  0  0  0  0  0  0  0  0  0  0  0
    7.1848   -1.9178    5.6146 O   0  0  0  0  0  0  0  0  0  0  0  0
    9.7229   -1.9619    6.2929 O   0  0  0  0  0  0  0  0  0  0  0  0
   -0.1642   -3.4437    0.0288 H   0  0  0  0  0  0  0  0  0  0  0  0
   -2.6375   -3.3731   -0.0242 H   0  0  0  0  0  0  0  0  0  0  0  0
   -3.8188   -1.2103   -0.0949 H   0  0  0  0  0  0  0  0  0  0  0  0
   -3.7470    1.2784   -0.1749 H   0  0  0  0  0  0  0  0  0  0  0  0
   -2.4497    3.3743   -0.1077 H   0  0  0  0  0  0  0  0  0  0  0  0
    0.0115    3.3111    0.1528 H   0  0  0  0  0  0  0  0  0  0  0  0
    4.0451   -0.8743   -0.4546 H   0  0  0  0  0  0  0  0  0  0  0  0
    4.0784    0.8230    0.0200 H   0  0  0  0  0  0  0  0  0  0  0  0
    3.7225    0.1398    2.4239 H   0  0  0  0  0  0  0  0  0  0  0  0
    3.7442   -1.5482    1.9372 H   0  0  0  0  0  0  0  0  0  0  0  0
    6.0832   -1.2646    1.0545 H   0  0  0  0  0  0  0  0  0  0  0  0
    6.0664    0.4212    1.5829 H   0  0  0  0  0  0  0  0  0  0  0  0
    5.6559   -0.3324    3.9446 H   0  0  0  0  0  0  0  0  0  0  0  0
    5.6720   -2.0086    3.4103 H   0  0  0  0  0  0  0  0  0  0  0  0
    8.0540   -1.7251    2.6356 H   0  0  0  0  0  0  0  0  0  0  0  0
    8.0279   -0.0526    3.2376 H   0  0  0  0  0  0  0  0  0  0  0  0
    9.9930   -0.9933    4.4790 H   0  0  0  0  0  0  0  0  0  0  0  0
    8.8568   -2.1790    6.7067 H   0  0  0  0  0  0  0  0  0  0  0  0
  1  2  2  0  0  0  0
  1 25  1  0  0  0  0
  2  3  1  0  0  0  0
  2 26  1  0  0  0  0
  3  4  2  0  0  0  0
  3 27  1  0  0  0  0
  4  5  1  0  0  0  0
  4  7  1  0  0  0  0
  5  6  2  0  0  0  0
  6  1  1  0  0  0  0
  7  8  2  0  0  0  0
  7 28  1  0  0  0  0
  8  9  1  0  0  0  0
  8 29  1  0  0  0  0
  9 10  2  0  0  0  0
  9 30  1  0  0  0  0
 10  5  1  0  0  0  0
 10 11  1  0  0  0  0
 11 12  1  0  0  0  0
 11 15  2  0  0  0  0
 12 13  1  0  0  0  0
 12 16  1  0  0  0  0
 13  6  1  0  0  0  0
 13 14  2  0  0  0  0
 16 17  1  0  0  0  0
 16 31  1  0  0  0  0
 16 32  1  0  0  0  0
 17 18  1  0  0  0  0
 17 33  1  0  0  0  0
 17 34  1  0  0  0  0
 18 19  1  0  0  0  0
 18 35  1  0  0  0  0
 18 36  1  0  0  0  0
 19 20  1  0  0  0  0
 19 37  1  0  0  0  0
 19 38  1  0  0  0  0
 20 21  1  0  0  0  0
 20 39  1  0  0  0  0
 20 40  1  0  0  0  0
 21 22  1  0  0  0  0
 21 23  2  0  0  0  0
 22 24  1  0  0  0  0
 22 41  1  0  0  0  0
 24 42  1  0  0  0  0
M  END
>  <Mol_ID>
3861

>  <Formula>
C18H18N2O4

>  <MolWeight>
326.34652

>  <Cat>
S8043

>  <Name>
Scriptaid

>  <Synonyms>
GCK 1026

>  <Target>
HDAC

>  <Form>
free base

>  <CAS>
287383-59-9

>  <URL>
http://selleckchem.com/products/scriptaid.html

$$$$
