SD-215748
 OpenBabel08302521433D

 26 27  0  0  0  0  0  0  0  0999 V2000
    1.3363   -0.1549    0.2001 C   0  0  0  0  0  0  0  0  0  0  0  0
    2.8450   -0.4010    0.1948 C   0  0  3  0  0  0  0  0  0  0  0  0
    0.5732   -0.1925   -0.9808 C   0  0  0  0  0  0  0  0  0  0  0  0
    0.6510    0.0756    1.4076 C   0  0  0  0  0  0  0  0  0  0  0  0
    3.5429    0.1309   -1.0720 C   0  0  0  0  0  0  0  0  0  0  0  0
    3.4425    0.2333    1.3343 O   0  0  0  0  0  0  0  0  0  0  0  0
   -0.8001    0.0652   -0.9638 C   0  0  0  0  0  0  0  0  0  0  0  0
   -0.7217    0.3388    1.4247 C   0  0  0  0  0  0  0  0  0  0  0  0
    4.9796   -0.0651   -1.0915 N   0  0  0  0  0  0  0  0  0  0  0  0
   -1.4447    0.3448    0.2362 C   0  0  0  0  0  0  0  0  0  0  0  0
    5.6457   -1.1326   -1.6250 C   0  0  0  0  0  0  0  0  0  0  0  0
    5.9130    0.8592   -0.7166 C   0  0  0  0  0  0  0  0  0  0  0  0
    6.9761   -0.7891   -1.5559 C   0  0  0  0  0  0  0  0  0  0  0  0
    7.1308    0.4511   -0.9934 N   0  0  0  0  0  0  0  0  0  0  0  0
    3.0212   -1.4771    0.2957 H   0  0  0  0  0  0  0  0  0  0  0  0
    1.0234   -0.4245   -1.9424 H   0  0  0  0  0  0  0  0  0  0  0  0
    1.1826    0.0552    2.3586 H   0  0  0  0  0  0  0  0  0  0  0  0
    3.1619   -0.3551   -1.9767 H   0  0  0  0  0  0  0  0  0  0  0  0
    3.3705    1.2096   -1.1792 H   0  0  0  0  0  0  0  0  0  0  0  0
    3.0384    1.1119    1.4332 H   0  0  0  0  0  0  0  0  0  0  0  0
   -1.3669    0.0467   -1.8917 H   0  0  0  0  0  0  0  0  0  0  0  0
   -1.2253    0.5369    2.3669 H   0  0  0  0  0  0  0  0  0  0  0  0
   -2.5113    0.5529    0.2466 H   0  0  0  0  0  0  0  0  0  0  0  0
    5.1442   -2.0100   -2.0082 H   0  0  0  0  0  0  0  0  0  0  0  0
    5.6549    1.8072   -0.2627 H   0  0  0  0  0  0  0  0  0  0  0  0
    7.8303   -1.3638   -1.8889 H   0  0  0  0  0  0  0  0  0  0  0  0
  1  2  1  0  0  0  0
  1  3  2  0  0  0  0
  1  4  1  0  0  0  0
  2  5  1  0  0  0  0
  2  6  1  0  0  0  0
  2 15  1  0  0  0  0
  3  7  1  0  0  0  0
  3 16  1  0  0  0  0
  4  8  2  0  0  0  0
  4 17  1  0  0  0  0
  5  9  1  0  0  0  0
  5 18  1  0  0  0  0
  5 19  1  0  0  0  0
  6 20  1  0  0  0  0
  7 10  2  0  0  0  0
  7 21  1  0  0  0  0
  8 10  1  0  0  0  0
  8 22  1  0  0  0  0
  9 11  1  0  0  0  0
  9 12  1  0  0  0  0
 10 23  1  0  0  0  0
 11 13  2  0  0  0  0
 11 24  1  0  0  0  0
 12 14  2  0  0  0  0
 12 25  1  0  0  0  0
 13 14  1  0  0  0  0
 13 26  1  0  0  0  0
M  END
>  <Mol_ID>
8850

>  <Formula>
C11H10Cl2N2O

>  <MolWeight>
257.1159

>  <Cat>
P2037

>  <Name>
SD-215748

>  <Synonyms>
N/A

>  <Target>
Anti-infection,adrenergic ¦Á2C receptor

>  <Form>
free base

>  <CAS>
868269-65-2

>  <URL>
N/A

$$$$
