SD208.cdx
 OpenBabel08302519583D

 35 38  0  0  0  0  0  0  0  0999 V2000
    2.3742   -0.5207   -0.0860 C   0  0  0  0  0  0  0  0  0  0  0  0
    2.2579    0.8504   -0.1097 C   0  0  0  0  0  0  0  0  0  0  0  0
    1.0582    1.4718   -0.1124 N   0  0  0  0  0  0  0  0  0  0  0  0
   -0.0440    0.7157   -0.0824 C   0  0  0  0  0  0  0  0  0  0  0  0
    0.0763   -0.6833   -0.0276 C   0  0  0  0  0  0  0  0  0  0  0  0
    1.2905   -1.3193   -0.0425 N   0  0  0  0  0  0  0  0  0  0  0  0
   -1.2012    1.3593   -0.0883 N   0  0  0  0  0  0  0  0  0  0  0  0
   -2.3189    0.6269   -0.0583 C   0  0  0  0  0  0  0  0  0  0  0  0
   -2.3311   -0.7010    0.0406 N   0  0  0  0  0  0  0  0  0  0  0  0
   -1.1441   -1.3447    0.0656 C   0  0  0  0  0  0  0  0  0  0  0  0
   -1.1440   -2.7462    0.2942 N   0  0  0  0  0  0  0  0  0  0  0  0
   -2.2070   -3.5236    0.7828 C   0  0  0  0  0  0  0  0  0  0  0  0
   -3.5935    1.3461   -0.0690 C   0  0  0  0  0  0  0  0  0  0  0  0
   -2.4394   -4.8065    0.2955 C   0  0  0  0  0  0  0  0  0  0  0  0
   -3.5496   -5.5038    0.7607 C   0  0  0  0  0  0  0  0  0  0  0  0
   -4.4278   -5.0208    1.6708 N   0  0  0  0  0  0  0  0  0  0  0  0
   -4.1852   -3.7776    2.1250 C   0  0  0  0  0  0  0  0  0  0  0  0
   -3.1085   -3.0078    1.7185 C   0  0  0  0  0  0  0  0  0  0  0  0
   -3.7144    2.6042    0.5552 C   0  0  0  0  0  0  0  0  0  0  0  0
   -4.9130    3.3241    0.5217 C   0  0  0  0  0  0  0  0  0  0  0  0
   -6.0203    2.8015   -0.1401 C   0  0  0  0  0  0  0  0  0  0  0  0
   -5.9296    1.5552   -0.7545 C   0  0  0  0  0  0  0  0  0  0  0  0
   -4.7302    0.8404   -0.7130 C   0  0  0  0  0  0  0  0  0  0  0  0
   -4.6903   -0.3391   -1.3516 F   0  0  0  0  0  0  0  0  0  0  0  0
    3.3408   -1.0114   -0.0981 H   0  0  0  0  0  0  0  0  0  0  0  0
    3.1259    1.5002   -0.1272 H   0  0  0  0  0  0  0  0  0  0  0  0
   -0.3850   -3.2242   -0.1764 H   0  0  0  0  0  0  0  0  0  0  0  0
   -1.8000   -5.2593   -0.4526 H   0  0  0  0  0  0  0  0  0  0  0  0
   -3.7828   -6.4986    0.3903 H   0  0  0  0  0  0  0  0  0  0  0  0
   -4.8993   -3.3881    2.8435 H   0  0  0  0  0  0  0  0  0  0  0  0
   -2.9787   -2.0150    2.1337 H   0  0  0  0  0  0  0  0  0  0  0  0
   -2.8584    3.0352    1.0742 H   0  0  0  0  0  0  0  0  0  0  0  0
   -4.9739    4.2960    1.0059 H   0  0  0  0  0  0  0  0  0  0  0  0
   -6.9484    3.3657   -0.1821 H   0  0  0  0  0  0  0  0  0  0  0  0
   -6.7818    1.1348   -1.2802 H   0  0  0  0  0  0  0  0  0  0  0  0
  1  2  2  0  0  0  0
  1 25  1  0  0  0  0
  2  3  1  0  0  0  0
  2 26  1  0  0  0  0
  3  4  2  0  0  0  0
  4  5  1  0  0  0  0
  4  7  1  0  0  0  0
  5  6  2  0  0  0  0
  6  1  1  0  0  0  0
  7  8  2  0  0  0  0
  8  9  1  0  0  0  0
  8 13  1  0  0  0  0
  9 10  2  0  0  0  0
 10  5  1  0  0  0  0
 10 11  1  0  0  0  0
 11 12  1  0  0  0  0
 11 27  1  0  0  0  0
 12 14  2  0  0  0  0
 13 19  2  0  0  0  0
 14 15  1  0  0  0  0
 14 28  1  0  0  0  0
 15 16  2  0  0  0  0
 15 29  1  0  0  0  0
 16 17  1  0  0  0  0
 17 18  2  0  0  0  0
 17 30  1  0  0  0  0
 18 12  1  0  0  0  0
 18 31  1  0  0  0  0
 19 20  1  0  0  0  0
 19 32  1  0  0  0  0
 20 21  2  0  0  0  0
 20 33  1  0  0  0  0
 21 22  1  0  0  0  0
 21 34  1  0  0  0  0
 22 23  2  0  0  0  0
 22 35  1  0  0  0  0
 23 13  1  0  0  0  0
 23 24  1  0  0  0  0
M  END
>  <Mol_ID>
2540

>  <Formula>
C17H10ClFN6

>  <MolWeight>
352.7529032

>  <Cat>
S7624

>  <Name>
SD-208

>  <Synonyms>
N/A

>  <Target>
TGF-beta/Smad

>  <Form>
free base

>  <CAS>
627536-09-8

>  <URL>
http://selleckchem.com/products/sd-208.html

$$$$
