SDMA
 OpenBabel08302520143D

 32 31  0  0  0  0  0  0  0  0999 V2000
    4.3880   -1.2732   -0.3857 N   0  0  0  0  0  0  0  0  0  0  0  0
    4.2953   -2.5745    0.2073 C   0  0  0  0  0  0  0  0  0  0  0  0
    2.7930   -0.6382    5.8477 C   0  0  0  0  0  0  0  0  0  0  0  0
    1.8856   -1.5731    5.0368 C   0  0  2  0  0  0  0  0  0  0  0  0
    0.9603   -0.8285    4.0629 C   0  0  0  0  0  0  0  0  0  0  0  0
    1.6429    0.0068    2.9700 C   0  0  0  0  0  0  0  0  0  0  0  0
    2.5914   -0.7548    2.0324 C   0  0  0  0  0  0  0  0  0  0  0  0
    2.6318    0.5497    6.0769 O   0  0  0  0  0  0  0  0  0  0  0  0
    3.8423   -1.2971    6.3901 O   0  0  0  0  0  0  0  0  0  0  0  0
    3.0072    0.1742    0.9963 N   0  0  0  0  0  0  0  0  0  0  0  0
    3.7630   -0.1252    0.0073 C   0  0  0  0  0  0  0  0  0  0  0  0
    3.9953    0.8880   -0.8822 N   0  0  0  0  0  0  0  0  0  0  0  0
    5.2782    1.1604   -1.4988 C   0  0  0  0  0  0  0  0  0  0  0  0
    1.0638   -2.3556    5.9890 N   0  0  0  0  0  0  0  0  0  0  0  0
    4.4554   -1.3126   -1.3963 H   0  0  0  0  0  0  0  0  0  0  0  0
    3.3213   -3.0280    0.0066 H   0  0  0  0  0  0  0  0  0  0  0  0
    5.0634   -3.2180   -0.2331 H   0  0  0  0  0  0  0  0  0  0  0  0
    4.4829   -2.5498    1.2827 H   0  0  0  0  0  0  0  0  0  0  0  0
    2.5177   -2.2610    4.4665 H   0  0  0  0  0  0  0  0  0  0  0  0
    0.3015   -0.1579    4.6309 H   0  0  0  0  0  0  0  0  0  0  0  0
    0.3044   -1.5581    3.5695 H   0  0  0  0  0  0  0  0  0  0  0  0
    2.1812    0.8460    3.4259 H   0  0  0  0  0  0  0  0  0  0  0  0
    0.8455    0.4592    2.3637 H   0  0  0  0  0  0  0  0  0  0  0  0
    2.0642   -1.6099    1.5998 H   0  0  0  0  0  0  0  0  0  0  0  0
    3.4579   -1.1021    2.6016 H   0  0  0  0  0  0  0  0  0  0  0  0
    4.2675   -0.6104    6.9514 H   0  0  0  0  0  0  0  0  0  0  0  0
    3.5649    1.7298   -0.5097 H   0  0  0  0  0  0  0  0  0  0  0  0
    5.1785    2.0056   -2.1863 H   0  0  0  0  0  0  0  0  0  0  0  0
    6.0253    1.4200   -0.7426 H   0  0  0  0  0  0  0  0  0  0  0  0
    5.6422    0.3103   -2.0834 H   0  0  0  0  0  0  0  0  0  0  0  0
    1.5936   -3.1748    6.2859 H   0  0  0  0  0  0  0  0  0  0  0  0
    0.2108   -2.6875    5.5463 H   0  0  0  0  0  0  0  0  0  0  0  0
  1  2  1  0  0  0  0
  1 15  1  0  0  0  0
  2 16  1  0  0  0  0
  2 17  1  0  0  0  0
  2 18  1  0  0  0  0
  3  4  1  0  0  0  0
  3  8  2  0  0  0  0
  3  9  1  0  0  0  0
  4  5  1  0  0  0  0
  4 14  1  0  0  0  0
  4 19  1  6  0  0  0
  5  6  1  0  0  0  0
  5 20  1  0  0  0  0
  5 21  1  0  0  0  0
  6  7  1  0  0  0  0
  6 22  1  0  0  0  0
  6 23  1  0  0  0  0
  7 10  1  0  0  0  0
  7 24  1  0  0  0  0
  7 25  1  0  0  0  0
  9 26  1  0  0  0  0
 10 11  2  0  0  0  0
 11  1  1  0  0  0  0
 11 12  1  0  0  0  0
 12 13  1  0  0  0  0
 12 27  1  0  0  0  0
 13 28  1  0  0  0  0
 13 29  1  0  0  0  0
 13 30  1  0  0  0  0
 14 31  1  0  0  0  0
 14 32  1  0  0  0  0
M  END
>  <Mol_ID>
3151

>  <Formula>
C8H18N4O2

>  <MolWeight>
202.25412

>  <Cat>
S5838

>  <Name>
SDMA

>  <Synonyms>
symmetric dimethylarginine

>  <Target>
Others

>  <Form>
Free Base

>  <CAS>
30344-00-4

>  <URL>
http://www.selleckchem.com/products/sdma.html

$$$$
