Sebetralstat
 OpenBabel08302521373D

 62 65  0  0  0  0  0  0  0  0999 V2000
   -0.2314   -1.0626    0.1131 N   0  0  0  0  0  0  0  0  0  0  0  0
    1.0440   -0.6451    0.1055 N   0  0  0  0  0  0  0  0  0  0  0  0
    0.9522    0.6952    0.0863 C   0  0  0  0  0  0  0  0  0  0  0  0
   -0.4052    1.1498    0.1382 C   0  0  0  0  0  0  0  0  0  0  0  0
   -1.1357   -0.0297    0.1491 C   0  0  0  0  0  0  0  0  0  0  0  0
   -0.8696    2.5346    0.1770 C   0  0  0  0  0  0  0  0  0  0  0  0
   -0.0934    3.4923    0.2118 O   0  0  0  0  0  0  0  0  0  0  0  0
   -2.2358    2.7200    0.1682 N   0  0  0  0  0  0  0  0  0  0  0  0
   -0.5165   -2.4956    0.1345 C   0  0  0  0  0  0  0  0  0  0  0  0
   -0.5746   -3.0820   -1.2584 C   0  0  0  0  0  0  0  0  0  0  0  0
    0.5759   -3.6073   -1.8699 C   0  0  0  0  0  0  0  0  0  0  0  0
    0.5183   -4.1310   -3.1692 C   0  0  0  0  0  0  0  0  0  0  0  0
   -0.6822   -4.1250   -3.8918 C   0  0  0  0  0  0  0  0  0  0  0  0
   -1.8296   -3.6044   -3.2759 C   0  0  0  0  0  0  0  0  0  0  0  0
   -1.7734   -3.0865   -1.9757 C   0  0  0  0  0  0  0  0  0  0  0  0
   -0.7495   -4.6521   -5.3132 C   0  0  0  0  0  0  0  0  0  0  0  0
   -2.3950   -6.4729   -5.4229 C   0  0  0  0  0  0  0  0  0  0  0  0
   -2.6436   -7.9407   -5.3436 C   0  0  0  0  0  0  0  0  0  0  0  0
   -1.6186   -8.8007   -5.3664 C   0  0  0  0  0  0  0  0  0  0  0  0
   -0.2668   -8.3185   -5.4806 C   0  0  0  0  0  0  0  0  0  0  0  0
   -0.0226   -7.0024   -5.4545 C   0  0  0  0  0  0  0  0  0  0  0  0
   -1.0562   -6.0801   -5.3852 N   0  0  0  0  0  0  0  0  0  0  0  0
   -3.3538   -5.7091   -5.5040 O   0  0  0  0  0  0  0  0  0  0  0  0
    2.2102    1.5127    0.0144 C   0  0  0  0  0  0  0  0  0  0  0  0
    2.7157    1.9284    1.2918 O   0  0  0  0  0  0  0  0  0  0  0  0
    3.1606    0.8395    2.0892 C   0  0  0  0  0  0  0  0  0  0  0  0
   -2.8691    4.0366    0.1941 C   0  0  0  0  0  0  0  0  0  0  0  0
   -3.8175    4.2333   -0.9700 C   0  0  0  0  0  0  0  0  0  0  0  0
   -4.0852    5.5169   -1.4506 C   0  0  0  0  0  0  0  0  0  0  0  0
   -5.0716    5.6860   -2.4212 C   0  0  0  0  0  0  0  0  0  0  0  0
   -5.7558    4.5526   -2.8772 C   0  0  0  0  0  0  0  0  0  0  0  0
   -5.4245    3.3170   -2.3538 C   0  0  0  0  0  0  0  0  0  0  0  0
   -4.4816    3.1288   -1.4110 N   0  0  0  0  0  0  0  0  0  0  0  0
   -5.4859    6.8496   -3.0089 O   0  0  0  0  0  0  0  0  0  0  0  0
   -4.8614    8.0578   -2.5857 C   0  0  0  0  0  0  0  0  0  0  0  0
   -3.4103    6.5650   -0.9505 F   0  0  0  0  0  0  0  0  0  0  0  0
   -2.1947   -0.2318    0.1762 H   0  0  0  0  0  0  0  0  0  0  0  0
   -2.8427    1.9446   -0.0264 H   0  0  0  0  0  0  0  0  0  0  0  0
    0.2568   -2.9880    0.7377 H   0  0  0  0  0  0  0  0  0  0  0  0
   -1.4682   -2.6416    0.6574 H   0  0  0  0  0  0  0  0  0  0  0  0
    1.5271   -3.6009   -1.3420 H   0  0  0  0  0  0  0  0  0  0  0  0
    1.4261   -4.5297   -3.6163 H   0  0  0  0  0  0  0  0  0  0  0  0
   -2.7769   -3.5900   -3.8103 H   0  0  0  0  0  0  0  0  0  0  0  0
   -2.6827   -2.6835   -1.5343 H   0  0  0  0  0  0  0  0  0  0  0  0
   -1.5100   -4.0895   -5.8693 H   0  0  0  0  0  0  0  0  0  0  0  0
    0.1991   -4.4548   -5.8283 H   0  0  0  0  0  0  0  0  0  0  0  0
   -3.6747   -8.2553   -5.2510 H   0  0  0  0  0  0  0  0  0  0  0  0
   -1.7831   -9.8707   -5.2826 H   0  0  0  0  0  0  0  0  0  0  0  0
    0.5383   -9.0411   -5.5669 H   0  0  0  0  0  0  0  0  0  0  0  0
    0.9905   -6.6163   -5.5091 H   0  0  0  0  0  0  0  0  0  0  0  0
    2.9931    0.9607   -0.5222 H   0  0  0  0  0  0  0  0  0  0  0  0
    2.0286    2.4170   -0.5754 H   0  0  0  0  0  0  0  0  0  0  0  0
    2.3273    0.1854    2.3588 H   0  0  0  0  0  0  0  0  0  0  0  0
    3.9429    0.2707    1.5763 H   0  0  0  0  0  0  0  0  0  0  0  0
    3.5740    1.2452    3.0158 H   0  0  0  0  0  0  0  0  0  0  0  0
   -3.4733    4.0621    1.1124 H   0  0  0  0  0  0  0  0  0  0  0  0
   -2.1230    4.8301    0.2594 H   0  0  0  0  0  0  0  0  0  0  0  0
   -6.5432    4.6496   -3.6169 H   0  0  0  0  0  0  0  0  0  0  0  0
   -5.9301    2.4198   -2.6965 H   0  0  0  0  0  0  0  0  0  0  0  0
   -5.1162    8.2843   -1.5455 H   0  0  0  0  0  0  0  0  0  0  0  0
   -3.7780    8.0216   -2.7381 H   0  0  0  0  0  0  0  0  0  0  0  0
   -5.2507    8.8696   -3.2093 H   0  0  0  0  0  0  0  0  0  0  0  0
  1  2  1  0  0  0  0
  1  5  1  0  0  0  0
  1  9  1  0  0  0  0
  2  3  2  0  0  0  0
  3  4  1  0  0  0  0
  3 24  1  0  0  0  0
  4  5  2  0  0  0  0
  4  6  1  0  0  0  0
  5 37  1  0  0  0  0
  6  7  2  0  0  0  0
  6  8  1  0  0  0  0
  8 27  1  0  0  0  0
  8 38  1  0  0  0  0
  9 10  1  0  0  0  0
  9 39  1  0  0  0  0
  9 40  1  0  0  0  0
 10 11  2  0  0  0  0
 10 15  1  0  0  0  0
 11 12  1  0  0  0  0
 11 41  1  0  0  0  0
 12 13  2  0  0  0  0
 12 42  1  0  0  0  0
 13 14  1  0  0  0  0
 13 16  1  0  0  0  0
 14 15  2  0  0  0  0
 14 43  1  0  0  0  0
 15 44  1  0  0  0  0
 16 22  1  0  0  0  0
 16 45  1  0  0  0  0
 16 46  1  0  0  0  0
 17 18  1  0  0  0  0
 17 22  1  0  0  0  0
 17 23  2  0  0  0  0
 18 19  2  0  0  0  0
 18 47  1  0  0  0  0
 19 20  1  0  0  0  0
 19 48  1  0  0  0  0
 20 21  2  0  0  0  0
 20 49  1  0  0  0  0
 21 22  1  0  0  0  0
 21 50  1  0  0  0  0
 24 25  1  0  0  0  0
 24 51  1  0  0  0  0
 24 52  1  0  0  0  0
 25 26  1  0  0  0  0
 26 53  1  0  0  0  0
 26 54  1  0  0  0  0
 26 55  1  0  0  0  0
 27 28  1  0  0  0  0
 27 56  1  0  0  0  0
 27 57  1  0  0  0  0
 28 29  2  0  0  0  0
 28 33  1  0  0  0  0
 29 30  1  0  0  0  0
 29 36  1  0  0  0  0
 30 31  2  0  0  0  0
 30 34  1  0  0  0  0
 31 32  1  0  0  0  0
 31 58  1  0  0  0  0
 32 33  2  0  0  0  0
 32 59  1  0  0  0  0
 34 35  1  0  0  0  0
 35 60  1  0  0  0  0
 35 61  1  0  0  0  0
 35 62  1  0  0  0  0
M  END
>  <Mol_ID>
7522

>  <Formula>
C26H26FN5O4

>  <MolWeight>
491.5141432

>  <Cat>
E1342

>  <Name>
Sebetralstat

>  <Synonyms>
KVD900

>  <Target>
Serine protease

>  <Form>
free base

>  <CAS>
1933514-13-6

>  <URL>
https://www.selleckchem.com/products/sebetralstat-kvd900.html

$$$$
