SEC inhibitor KL-1
 OpenBabel08302521313D

 40 41  0  0  0  0  0  0  0  0999 V2000
   -2.8637    0.6884   -8.0372 O   0  0  0  0  0  0  0  0  0  0  0  0
    0.2541    2.7948   -3.3044 O   0  0  0  0  0  0  0  0  0  0  0  0
    3.1028    0.6658   -3.5201 O   0  0  0  0  0  0  0  0  0  0  0  0
    2.8803    3.7874   -4.9847 O   0  0  0  0  0  0  0  0  0  0  0  0
    4.4116    2.9984   -3.3936 N   0  0  0  0  0  0  0  0  0  0  0  0
    5.2663    4.1124   -3.3431 C   0  0  0  0  0  0  0  0  0  0  0  0
    4.8093    5.4254   -3.1298 C   0  0  0  0  0  0  0  0  0  0  0  0
    1.3337    1.4517   -4.9646 C   0  0  0  0  0  0  0  0  0  0  0  0
   -1.1625    2.1092   -5.0605 C   0  0  0  0  0  0  0  0  0  0  0  0
    0.1612    2.1808   -4.3635 C   0  0  0  0  0  0  0  0  0  0  0  0
    2.5913    1.5847   -4.1536 C   0  0  0  0  0  0  0  0  0  0  0  0
    6.6401    3.8694   -3.4876 C   0  0  0  0  0  0  0  0  0  0  0  0
    5.7385    6.4797   -3.1647 C   0  0  0  0  0  0  0  0  0  0  0  0
   -1.3305    1.4278   -6.2728 C   0  0  0  0  0  0  0  0  0  0  0  0
    3.2859    2.9432   -4.2011 C   0  0  0  0  0  0  0  0  0  0  0  0
   -2.2680    2.7335   -4.4655 C   0  0  0  0  0  0  0  0  0  0  0  0
    3.3890    5.7747   -2.7703 C   0  0  0  0  0  0  0  0  0  0  0  0
   -2.5936    1.3452   -6.8669 C   0  0  0  0  0  0  0  0  0  0  0  0
    7.5484    4.9285   -3.5217 C   0  0  0  0  0  0  0  0  0  0  0  0
    7.0953    6.2355   -3.3716 C   0  0  0  0  0  0  0  0  0  0  0  0
   -3.5229    2.6801   -5.0762 C   0  0  0  0  0  0  0  0  0  0  0  0
   -3.6809    1.9913   -6.2770 C   0  0  0  0  0  0  0  0  0  0  0  0
   -2.0219   -0.4246   -8.3219 C   0  0  0  0  0  0  0  0  0  0  0  0
    4.7809    2.0882   -3.1323 H   0  0  0  0  0  0  0  0  0  0  0  0
    1.0970    0.3846   -5.0306 H   0  0  0  0  0  0  0  0  0  0  0  0
    1.5367    1.8253   -5.9728 H   0  0  0  0  0  0  0  0  0  0  0  0
    7.0105    2.8575   -3.6338 H   0  0  0  0  0  0  0  0  0  0  0  0
    5.4042    7.5038   -3.0093 H   0  0  0  0  0  0  0  0  0  0  0  0
   -0.4817    0.9693   -6.7652 H   0  0  0  0  0  0  0  0  0  0  0  0
   -2.1581    3.2667   -3.5222 H   0  0  0  0  0  0  0  0  0  0  0  0
    3.3803    6.3684   -1.8472 H   0  0  0  0  0  0  0  0  0  0  0  0
    2.9274    6.3584   -3.5710 H   0  0  0  0  0  0  0  0  0  0  0  0
    2.7678    4.8998   -2.5665 H   0  0  0  0  0  0  0  0  0  0  0  0
    8.6051    4.7351   -3.6803 H   0  0  0  0  0  0  0  0  0  0  0  0
    7.7984    7.0645   -3.4015 H   0  0  0  0  0  0  0  0  0  0  0  0
   -4.3747    3.1729   -4.6142 H   0  0  0  0  0  0  0  0  0  0  0  0
   -4.6594    1.9451   -6.7501 H   0  0  0  0  0  0  0  0  0  0  0  0
   -2.4618   -0.9764   -9.1572 H   0  0  0  0  0  0  0  0  0  0  0  0
   -1.0250   -0.0949   -8.6310 H   0  0  0  0  0  0  0  0  0  0  0  0
   -1.9607   -1.1056   -7.4646 H   0  0  0  0  0  0  0  0  0  0  0  0
  1 18  1  0  0  0  0
  1 23  1  0  0  0  0
  2 10  2  0  0  0  0
  3 11  2  0  0  0  0
  4 15  2  0  0  0  0
  5  6  1  0  0  0  0
  5 15  1  0  0  0  0
  5 24  1  0  0  0  0
  6  7  2  0  0  0  0
  6 12  1  0  0  0  0
  7 13  1  0  0  0  0
  7 17  1  0  0  0  0
  8 10  1  0  0  0  0
  8 11  1  0  0  0  0
  8 25  1  0  0  0  0
  8 26  1  0  0  0  0
  9 10  1  0  0  0  0
  9 14  2  0  0  0  0
  9 16  1  0  0  0  0
 11 15  1  0  0  0  0
 12 19  2  0  0  0  0
 12 27  1  0  0  0  0
 13 20  2  0  0  0  0
 13 28  1  0  0  0  0
 14 18  1  0  0  0  0
 14 29  1  0  0  0  0
 16 21  2  0  0  0  0
 16 30  1  0  0  0  0
 17 31  1  0  0  0  0
 17 32  1  0  0  0  0
 17 33  1  0  0  0  0
 18 22  2  0  0  0  0
 19 20  1  0  0  0  0
 19 34  1  0  0  0  0
 20 35  1  0  0  0  0
 21 22  1  0  0  0  0
 21 36  1  0  0  0  0
 22 37  1  0  0  0  0
 23 38  1  0  0  0  0
 23 39  1  0  0  0  0
 23 40  1  0  0  0  0
M  END
>  <Mol_ID>
5784

>  <Formula>
C18H16ClNO4

>  <MolWeight>
345.77694

>  <Cat>
S2973

>  <Name>
SEC inhibitor KL-1

>  <Synonyms>
KL-1

>  <Target>
Others

>  <Form>
Free Base

>  <CAS>
900308-84-1

>  <URL>
http://www.selleckchem.com/products/sec-inhibitor-kl-1.html

$$$$
