SecinH3.cdx
 OpenBabel08302519583D

 53 57  0  0  0  0  0  0  0  0999 V2000
    1.4427   -0.0504   -0.1500 C   0  0  0  0  0  0  0  0  0  0  0  0
    0.5563   -1.1200    0.0251 C   0  0  0  0  0  0  0  0  0  0  0  0
   -0.8262   -0.9164    0.1199 C   0  0  0  0  0  0  0  0  0  0  0  0
   -1.3150    0.3875    0.0497 C   0  0  0  0  0  0  0  0  0  0  0  0
   -0.4333    1.4626   -0.1214 C   0  0  0  0  0  0  0  0  0  0  0  0
    0.9524    1.2528   -0.2131 C   0  0  0  0  0  0  0  0  0  0  0  0
    1.8571    2.3391   -0.3909 N   0  0  0  0  0  0  0  0  0  0  0  0
   -1.7540   -1.9769    0.2363 N   0  0  0  0  0  0  0  0  0  0  0  0
   -1.4568   -3.2898    0.5428 C   0  0  0  0  0  0  0  0  0  0  0  0
   -2.6243   -4.2651    0.5087 C   0  0  0  0  0  0  0  0  0  0  0  0
   -3.9153   -3.7876   -0.6818 S   0  0  0  0  0  0  0  0  0  0  0  0
   -5.0533   -5.1439   -0.4669 C   0  0  0  0  0  0  0  0  0  0  0  0
   -0.3579   -3.6968    0.9295 O   0  0  0  0  0  0  0  0  0  0  0  0
   -6.3682   -4.8642   -0.0831 C   0  0  0  0  0  0  0  0  0  0  0  0
   -7.3084   -5.8914    0.0194 C   0  0  0  0  0  0  0  0  0  0  0  0
   -6.9408   -7.2042   -0.2686 C   0  0  0  0  0  0  0  0  0  0  0  0
   -5.6305   -7.4925   -0.6464 C   0  0  0  0  0  0  0  0  0  0  0  0
   -4.6879   -6.4653   -0.7454 C   0  0  0  0  0  0  0  0  0  0  0  0
    1.7123    3.6848   -0.0546 C   0  0  0  0  0  0  0  0  0  0  0  0
    2.6704    4.3728   -0.6386 N   0  0  0  0  0  0  0  0  0  0  0  0
    3.4451    3.4272   -1.2112 C   0  0  0  0  0  0  0  0  0  0  0  0
    3.0499    2.1686   -1.0323 N   0  0  0  0  0  0  0  0  0  0  0  0
    4.5619    3.6451   -1.9303 O   0  0  0  0  0  0  0  0  0  0  0  0
    4.8461    5.0455   -2.0028 C   0  0  0  0  0  0  0  0  0  0  0  0
    0.7310    4.3155    0.8293 C   0  0  0  0  0  0  0  0  0  0  0  0
    0.1336    3.6452    1.9230 C   0  0  0  0  0  0  0  0  0  0  0  0
   -0.7949    4.2893    2.7441 C   0  0  0  0  0  0  0  0  0  0  0  0
   -1.0114    5.6236    2.5129 C   0  0  0  0  0  0  0  0  0  0  0  0
   -0.4057    6.2967    1.4795 C   0  0  0  0  0  0  0  0  0  0  0  0
    0.4457    5.6657    0.6001 C   0  0  0  0  0  0  0  0  0  0  0  0
   -1.7740    6.4471    3.2765 O   0  0  0  0  0  0  0  0  0  0  0  0
   -1.3651    7.7276    2.7465 C   0  0  0  0  0  0  0  0  0  0  0  0
   -0.7119    7.6205    1.4648 O   0  0  0  0  0  0  0  0  0  0  0  0
    2.5075   -0.2609   -0.2120 H   0  0  0  0  0  0  0  0  0  0  0  0
    0.9811   -2.1194    0.0500 H   0  0  0  0  0  0  0  0  0  0  0  0
   -2.3775    0.5981    0.1422 H   0  0  0  0  0  0  0  0  0  0  0  0
   -0.8718    2.4525   -0.2005 H   0  0  0  0  0  0  0  0  0  0  0  0
   -2.7241   -1.7631    0.0377 H   0  0  0  0  0  0  0  0  0  0  0  0
   -2.2181   -5.2433    0.2287 H   0  0  0  0  0  0  0  0  0  0  0  0
   -3.0461   -4.3267    1.5167 H   0  0  0  0  0  0  0  0  0  0  0  0
   -6.6764   -3.8430    0.1277 H   0  0  0  0  0  0  0  0  0  0  0  0
   -8.3307   -5.6633    0.3099 H   0  0  0  0  0  0  0  0  0  0  0  0
   -7.6785   -8.0008   -0.2092 H   0  0  0  0  0  0  0  0  0  0  0  0
   -5.3464   -8.5156   -0.8811 H   0  0  0  0  0  0  0  0  0  0  0  0
   -3.6790   -6.7100   -1.0677 H   0  0  0  0  0  0  0  0  0  0  0  0
    4.0092    5.6039   -2.4487 H   0  0  0  0  0  0  0  0  0  0  0  0
    5.0819    5.4477   -1.0123 H   0  0  0  0  0  0  0  0  0  0  0  0
    5.7168    5.1922   -2.6429 H   0  0  0  0  0  0  0  0  0  0  0  0
    0.3792    2.6110    2.1563 H   0  0  0  0  0  0  0  0  0  0  0  0
   -1.2863    3.7656    3.5563 H   0  0  0  0  0  0  0  0  0  0  0  0
    0.9105    6.2238   -0.2065 H   0  0  0  0  0  0  0  0  0  0  0  0
   -0.6592    8.1816    3.4528 H   0  0  0  0  0  0  0  0  0  0  0  0
   -2.2393    8.3785    2.6453 H   0  0  0  0  0  0  0  0  0  0  0  0
  1  2  2  0  0  0  0
  1 34  1  0  0  0  0
  2  3  1  0  0  0  0
  2 35  1  0  0  0  0
  3  4  2  0  0  0  0
  3  8  1  0  0  0  0
  4  5  1  0  0  0  0
  4 36  1  0  0  0  0
  5  6  2  0  0  0  0
  5 37  1  0  0  0  0
  6  1  1  0  0  0  0
  6  7  1  0  0  0  0
  7 19  1  0  0  0  0
  8  9  1  0  0  0  0
  8 38  1  0  0  0  0
  9 10  1  0  0  0  0
  9 13  2  0  0  0  0
 10 11  1  0  0  0  0
 10 39  1  0  0  0  0
 10 40  1  0  0  0  0
 11 12  1  0  0  0  0
 12 14  2  0  0  0  0
 14 15  1  0  0  0  0
 14 41  1  0  0  0  0
 15 16  2  0  0  0  0
 15 42  1  0  0  0  0
 16 17  1  0  0  0  0
 16 43  1  0  0  0  0
 17 18  2  0  0  0  0
 17 44  1  0  0  0  0
 18 12  1  0  0  0  0
 18 45  1  0  0  0  0
 19 20  2  0  0  0  0
 19 25  1  0  0  0  0
 20 21  1  0  0  0  0
 21 22  2  0  0  0  0
 21 23  1  0  0  0  0
 22  7  1  0  0  0  0
 23 24  1  0  0  0  0
 24 46  1  0  0  0  0
 24 47  1  0  0  0  0
 24 48  1  0  0  0  0
 25 26  2  0  0  0  0
 26 27  1  0  0  0  0
 26 49  1  0  0  0  0
 27 28  2  0  0  0  0
 27 50  1  0  0  0  0
 28 29  1  0  0  0  0
 28 31  1  0  0  0  0
 29 30  2  0  0  0  0
 30 25  1  0  0  0  0
 30 51  1  0  0  0  0
 31 32  1  0  0  0  0
 32 33  1  0  0  0  0
 32 52  1  0  0  0  0
 32 53  1  0  0  0  0
 33 29  1  0  0  0  0
M  END
>  <Mol_ID>
2530

>  <Formula>
C24H20N4O4S

>  <MolWeight>
460.505

>  <Cat>
S7685

>  <Name>
SecinH3

>  <Synonyms>
N/A

>  <Target>
cytohesin

>  <Form>
free base

>  <CAS>
853625-60-2

>  <URL>
http://selleckchem.com/products/secinh3.html

$$$$
