Secnidazole.cdx
 OpenBabel08302521393D

 24 24  0  0  0  0  0  0  0  0999 V2000
    0.9211   -0.6566    0.0784 N   0  0  0  0  0  0  0  0  0  0  0  0
    2.1801   -1.3756    0.0080 C   0  0  0  0  0  0  0  0  0  0  0  0
   -0.3643   -1.1437   -0.0149 C   0  0  0  0  0  0  0  0  0  0  0  0
   -1.1984   -0.0513    0.0275 C   0  0  0  0  0  0  0  0  0  0  0  0
   -0.4693    1.0928    0.1648 N   0  0  0  0  0  0  0  0  0  0  0  0
    0.7967    0.7224    0.2266 C   0  0  0  0  0  0  0  0  0  0  0  0
    1.9038    1.6863    0.4624 C   0  0  0  0  0  0  0  0  0  0  0  0
   -0.7853   -2.5013   -0.0906 N   0  3  0  0  0  0  0  0  0  0  0  0
    0.0862   -3.3781   -0.1250 O   0  5  0  0  0  0  0  0  0  0  0  0
   -2.0013   -2.7047   -0.0997 O   0  0  0  0  0  0  0  0  0  0  0  0
    2.7800   -1.7905    1.3620 C   0  0  3  0  0  0  0  0  0  0  0  0
    1.9110   -2.7193    2.1983 C   0  0  0  0  0  0  0  0  0  0  0  0
    4.0295   -2.4474    1.1226 O   0  0  0  0  0  0  0  0  0  0  0  0
    2.0731   -2.2355   -0.6613 H   0  0  0  0  0  0  0  0  0  0  0  0
    2.9038   -0.7369   -0.5179 H   0  0  0  0  0  0  0  0  0  0  0  0
   -2.2772   -0.0342   -0.0111 H   0  0  0  0  0  0  0  0  0  0  0  0
    2.0761    2.2885   -0.4350 H   0  0  0  0  0  0  0  0  0  0  0  0
    1.6183    2.3698    1.2711 H   0  0  0  0  0  0  0  0  0  0  0  0
    2.8397    1.2085    0.7539 H   0  0  0  0  0  0  0  0  0  0  0  0
    3.0028   -0.8983    1.9571 H   0  0  0  0  0  0  0  0  0  0  0  0
    1.6469   -3.6189    1.6379 H   0  0  0  0  0  0  0  0  0  0  0  0
    2.4606   -3.0774    3.0743 H   0  0  0  0  0  0  0  0  0  0  0  0
    0.9990   -2.2221    2.5410 H   0  0  0  0  0  0  0  0  0  0  0  0
    3.8443   -3.3062    0.6995 H   0  0  0  0  0  0  0  0  0  0  0  0
  1  2  1  0  0  0  0
  1  3  1  0  0  0  0
  2 11  1  0  0  0  0
  2 14  1  0  0  0  0
  2 15  1  0  0  0  0
  3  4  2  0  0  0  0
  3  8  1  0  0  0  0
  4  5  1  0  0  0  0
  4 16  1  0  0  0  0
  5  6  2  0  0  0  0
  6  1  1  0  0  0  0
  6  7  1  0  0  0  0
  7 17  1  0  0  0  0
  7 18  1  0  0  0  0
  7 19  1  0  0  0  0
  8  9  1  0  0  0  0
  8 10  2  0  0  0  0
 11 12  1  0  0  0  0
 11 13  1  0  0  0  0
 11 20  1  0  0  0  0
 12 21  1  0  0  0  0
 12 22  1  0  0  0  0
 12 23  1  0  0  0  0
 13 24  1  0  0  0  0
M  CHG  2   8   1   9  -1
M  END
>  <Mol_ID>
793

>  <Formula>
C7H11N3O3

>  <MolWeight>
185.18054

>  <Cat>
S2537

>  <Name>
Secnidazole

>  <Synonyms>
PM 185184, RP 14539

>  <Target>
Anti-infection

>  <Form>
free base

>  <CAS>
3366-95-8

>  <URL>
http://selleckchem.com/products/Secnidazole-Flagentyl.html

$$$$
