Segesterone acetate
 OpenBabel08302521333D

 57 60  0  0  0  0  0  0  0  0999 V2000
   11.0177   -0.7502   -0.2218 O   0  0  0  0  0  0  0  0  0  0  0  0
   11.1851   -1.8892   -0.9804 C   0  0  0  0  0  0  0  0  0  0  0  0
   11.5824   -1.5784   -2.3826 C   0  0  0  0  0  0  0  0  0  0  0  0
   10.9982   -3.0566   -0.6405 O   0  0  0  0  0  0  0  0  0  0  0  0
   11.8157    0.2857    1.4925 C   0  0  0  0  0  0  0  0  0  0  0  0
   11.9350    1.5367    0.5901 C   0  0  0  0  0  0  0  0  0  0  0  0
   12.7382   -0.0020    2.2537 O   0  0  0  0  0  0  0  0  0  0  0  0
    8.3786   -0.3163    2.9853 C   0  0  0  0  0  0  0  0  0  0  0  0
   10.8677   -2.9078    2.2924 C   0  0  0  0  0  0  0  0  0  0  0  0
    7.0007    3.2792   -5.6501 O   0  0  0  0  0  0  0  0  0  0  0  0
   10.5565   -0.5951    1.3245 C   0  0  1  0  0  0  0  0  0  0  0  0
    9.0978    0.0947    1.6141 C   0  0  1  0  0  0  0  0  0  0  0  0
   10.1342   -2.0091    1.6204 C   0  0  0  0  0  0  0  0  0  0  0  0
    8.4244   -0.7300    0.4885 C   0  0  1  0  0  0  0  0  0  0  0  0
    8.8612    1.6442    1.6589 C   0  0  0  0  0  0  0  0  0  0  0  0
    8.6896   -2.1868    0.9719 C   0  0  0  0  0  0  0  0  0  0  0  0
    7.3766   -0.0502   -0.3954 C   0  0  1  0  0  0  0  0  0  0  0  0
    7.6802    2.1118    0.8038 C   0  0  0  0  0  0  0  0  0  0  0  0
    7.8778    1.4296   -0.5354 C   0  0  2  0  0  0  0  0  0  0  0  0
    7.3954   -0.6315   -1.8251 C   0  0  0  0  0  0  0  0  0  0  0  0
    7.5398    2.2139   -1.7986 C   0  0  2  0  0  0  0  0  0  0  0  0
    6.4108    0.0940   -2.7389 C   0  0  0  0  0  0  0  0  0  0  0  0
    6.4457    1.6118   -2.6328 C   0  0  0  0  0  0  0  0  0  0  0  0
    8.8180    2.3672   -2.7042 C   0  0  0  0  0  0  0  0  0  0  0  0
    6.0434    2.3567   -3.6855 C   0  0  0  0  0  0  0  0  0  0  0  0
    8.5789    2.1737   -4.1987 C   0  0  0  0  0  0  0  0  0  0  0  0
    7.2153    2.6615   -4.6021 C   0  0  0  0  0  0  0  0  0  0  0  0
   12.6441   -1.8029   -2.5059 H   0  0  0  0  0  0  0  0  0  0  0  0
   10.9996   -2.2051   -3.0645 H   0  0  0  0  0  0  0  0  0  0  0  0
   11.3784   -0.5391   -2.6400 H   0  0  0  0  0  0  0  0  0  0  0  0
   11.7192    2.4438    1.1587 H   0  0  0  0  0  0  0  0  0  0  0  0
   12.9439    1.6107    0.1779 H   0  0  0  0  0  0  0  0  0  0  0  0
   11.2570    1.5048   -0.2680 H   0  0  0  0  0  0  0  0  0  0  0  0
    7.2871   -0.2564    2.8449 H   0  0  0  0  0  0  0  0  0  0  0  0
    8.5832   -1.3216    3.3604 H   0  0  0  0  0  0  0  0  0  0  0  0
    8.6320    0.3422    3.8228 H   0  0  0  0  0  0  0  0  0  0  0  0
   10.5410   -3.9304    2.4293 H   0  0  0  0  0  0  0  0  0  0  0  0
   11.8670   -2.6537    2.6491 H   0  0  0  0  0  0  0  0  0  0  0  0
    9.1080   -0.7255   -0.3434 H   0  0  0  0  0  0  0  0  0  0  0  0
    8.6631    2.0053    2.6801 H   0  0  0  0  0  0  0  0  0  0  0  0
    9.7374    2.2104    1.3721 H   0  0  0  0  0  0  0  0  0  0  0  0
    8.6982   -2.8907    0.1387 H   0  0  0  0  0  0  0  0  0  0  0  0
    7.9597   -2.5294    1.7104 H   0  0  0  0  0  0  0  0  0  0  0  0
    6.3795   -0.1059    0.0382 H   0  0  0  0  0  0  0  0  0  0  0  0
    6.7238    1.8284    1.2597 H   0  0  0  0  0  0  0  0  0  0  0  0
    7.6872    3.2049    0.7344 H   0  0  0  0  0  0  0  0  0  0  0  0
    8.9834    1.3658   -0.6051 H   0  0  0  0  0  0  0  0  0  0  0  0
    7.1855   -1.7081   -1.8059 H   0  0  0  0  0  0  0  0  0  0  0  0
    8.3964   -0.5340   -2.2640 H   0  0  0  0  0  0  0  0  0  0  0  0
    7.2499    3.2303   -1.5052 H   0  0  0  0  0  0  0  0  0  0  0  0
    5.4022   -0.2332   -2.4805 H   0  0  0  0  0  0  0  0  0  0  0  0
    6.6115   -0.2158   -3.7660 H   0  0  0  0  0  0  0  0  0  0  0  0
    9.6200    1.6544   -2.4255 H   0  0  0  0  0  0  0  0  0  0  0  0
    9.2639    3.3564   -2.5199 H   0  0  0  0  0  0  0  0  0  0  0  0
    5.6496    3.3644   -3.4900 H   0  0  0  0  0  0  0  0  0  0  0  0
    8.6525    1.1131   -4.4652 H   0  0  0  0  0  0  0  0  0  0  0  0
    9.3471    2.7072   -4.7694 H   0  0  0  0  0  0  0  0  0  0  0  0
  1  2  1  0  0  0  0
  2  3  1  0  0  0  0
  2  4  2  0  0  0  0
  3 28  1  0  0  0  0
  3 29  1  0  0  0  0
  3 30  1  0  0  0  0
  5  6  1  0  0  0  0
  5  7  2  0  0  0  0
  6 31  1  0  0  0  0
  6 32  1  0  0  0  0
  6 33  1  0  0  0  0
  8 34  1  0  0  0  0
  8 35  1  0  0  0  0
  8 36  1  0  0  0  0
  9 13  2  0  0  0  0
  9 37  1  0  0  0  0
  9 38  1  0  0  0  0
 10 27  2  0  0  0  0
 11 12  1  0  0  0  0
 11 13  1  0  0  0  0
 11  5  1  1  0  0  0
 11  1  1  0  0  0  0
 12  8  1  1  0  0  0
 12 14  1  0  0  0  0
 12 15  1  0  0  0  0
 13 16  1  0  0  0  0
 14 16  1  0  0  0  0
 14 17  1  0  0  0  0
 14 39  1  6  0  0  0
 15 18  1  0  0  0  0
 15 40  1  0  0  0  0
 15 41  1  0  0  0  0
 16 42  1  0  0  0  0
 16 43  1  0  0  0  0
 17 19  1  0  0  0  0
 17 20  1  0  0  0  0
 17 44  1  1  0  0  0
 18 45  1  0  0  0  0
 18 46  1  0  0  0  0
 19 18  1  0  0  0  0
 19 21  1  0  0  0  0
 19 47  1  6  0  0  0
 20 22  1  0  0  0  0
 20 48  1  0  0  0  0
 20 49  1  0  0  0  0
 21 23  1  0  0  0  0
 21 24  1  0  0  0  0
 21 50  1  1  0  0  0
 22 23  1  0  0  0  0
 22 51  1  0  0  0  0
 22 52  1  0  0  0  0
 23 25  2  3  0  0  0
 24 26  1  0  0  0  0
 24 53  1  0  0  0  0
 24 54  1  0  0  0  0
 25 27  1  0  0  0  0
 25 55  1  0  0  0  0
 26 27  1  0  0  0  0
 26 56  1  0  0  0  0
 26 57  1  0  0  0  0
M  END
>  <Mol_ID>
6372

>  <Formula>
C23H30O4

>  <MolWeight>
370.4819

>  <Cat>
E0937

>  <Name>
Segesterone acetate

>  <Synonyms>
Nestoron, ST-1435

>  <Target>
Estrogen/progestogen Receptor

>  <Form>
free base

>  <CAS>
7759-35-5

>  <URL>
http://www.selleckchem.com/products/segesterone.html

$$$$
