Selective PI3K¦Ä Inhibitor 1 (compound 7n)
 OpenBabel08302521223D

 52 56  0  0  0  0  0  0  0  0999 V2000
    1.7558    0.1499    0.1565 C   0  0  0  0  0  0  0  0  0  0  0  0
    1.2224   -0.4693   -0.9651 C   0  0  0  0  0  0  0  0  0  0  0  0
   -0.1088   -0.6334   -1.1657 N   0  0  0  0  0  0  0  0  0  0  0  0
   -0.9152   -0.1536   -0.1971 C   0  0  0  0  0  0  0  0  0  0  0  0
   -0.3980    0.4738    0.9640 C   0  0  0  0  0  0  0  0  0  0  0  0
    0.9495    0.6143    1.1469 N   0  0  0  0  0  0  0  0  0  0  0  0
    3.2021    0.3523    0.2503 C   0  0  0  0  0  0  0  0  0  0  0  0
   -2.2722   -0.2837   -0.4858 N   0  0  0  0  0  0  0  0  0  0  0  0
   -1.2281    0.9731    2.0877 C   0  0  0  0  0  0  0  0  0  0  0  0
   -0.7324    0.9555    3.4048 C   0  0  0  0  0  0  0  0  0  0  0  0
   -1.5261    1.3547    4.4824 C   0  0  0  0  0  0  0  0  0  0  0  0
   -2.8375    1.7795    4.2933 C   0  0  0  0  0  0  0  0  0  0  0  0
   -3.3407    1.8335    2.9892 C   0  0  0  0  0  0  0  0  0  0  0  0
   -2.5355    1.4615    1.9081 C   0  0  0  0  0  0  0  0  0  0  0  0
   -0.9871    1.3021    5.7109 F   0  0  0  0  0  0  0  0  0  0  0  0
   -3.7365    2.1860    5.4075 C   0  0  0  0  0  0  0  0  0  0  0  0
   -3.2249    2.1386    6.6719 N   0  0  0  0  0  0  0  0  0  0  0  0
   -4.8955    2.5333    5.2010 O   0  0  0  0  0  0  0  0  0  0  0  0
    4.0596   -0.1706   -0.6953 N   0  0  0  0  0  0  0  0  0  0  0  0
    5.2337    0.3483   -0.3984 C   0  0  0  0  0  0  0  0  0  0  0  0
    5.1050    1.0866    0.7431 N   0  0  0  0  0  0  0  0  0  0  0  0
    3.8295    1.0884    1.1824 N   0  0  0  0  0  0  0  0  0  0  0  0
    6.4392    0.1946   -1.3385 C   0  0  0  0  0  0  0  0  0  0  0  0
    6.3671   -1.0095   -2.2785 C   0  0  0  0  0  0  0  0  0  0  0  0
    7.3962   -0.9724   -1.1983 C   0  0  0  0  0  0  0  0  0  0  0  0
    6.9473    1.4825   -1.9777 C   0  0  0  0  0  0  0  0  0  0  0  0
    8.2568    1.9484   -1.7700 C   0  0  0  0  0  0  0  0  0  0  0  0
    8.8004    2.9582   -2.5647 C   0  0  0  0  0  0  0  0  0  0  0  0
    8.0287    3.5578   -3.5558 C   0  0  0  0  0  0  0  0  0  0  0  0
    6.6994    3.1825   -3.7204 C   0  0  0  0  0  0  0  0  0  0  0  0
    6.1644    2.1613   -2.9336 C   0  0  0  0  0  0  0  0  0  0  0  0
    6.1110    1.7354    1.5406 C   0  0  0  0  0  0  0  0  0  0  0  0
    1.8560   -0.8424   -1.7644 H   0  0  0  0  0  0  0  0  0  0  0  0
   -2.3574   -0.8277   -1.3404 H   0  0  0  0  0  0  0  0  0  0  0  0
   -2.8058   -0.6741    0.2829 H   0  0  0  0  0  0  0  0  0  0  0  0
    0.2829    0.6215    3.6105 H   0  0  0  0  0  0  0  0  0  0  0  0
   -4.3605    2.1689    2.8011 H   0  0  0  0  0  0  0  0  0  0  0  0
   -2.9592    1.5670    0.9109 H   0  0  0  0  0  0  0  0  0  0  0  0
   -3.8308    2.4184    7.4342 H   0  0  0  0  0  0  0  0  0  0  0  0
   -2.2779    1.8631    6.8767 H   0  0  0  0  0  0  0  0  0  0  0  0
    5.5603   -1.7351   -2.1620 H   0  0  0  0  0  0  0  0  0  0  0  0
    6.6916   -0.8954   -3.3068 H   0  0  0  0  0  0  0  0  0  0  0  0
    8.4246   -0.8630   -1.5257 H   0  0  0  0  0  0  0  0  0  0  0  0
    7.2866   -1.6445   -0.3591 H   0  0  0  0  0  0  0  0  0  0  0  0
    8.8901    1.4662   -1.0291 H   0  0  0  0  0  0  0  0  0  0  0  0
    9.8406    3.2454   -2.4359 H   0  0  0  0  0  0  0  0  0  0  0  0
    8.4668    4.3086   -4.2076 H   0  0  0  0  0  0  0  0  0  0  0  0
    6.0891    3.6526   -4.4872 H   0  0  0  0  0  0  0  0  0  0  0  0
    5.1369    1.8432   -3.1086 H   0  0  0  0  0  0  0  0  0  0  0  0
    5.9942    2.8153    1.4255 H   0  0  0  0  0  0  0  0  0  0  0  0
    5.9559    1.4565    2.5886 H   0  0  0  0  0  0  0  0  0  0  0  0
    7.1069    1.4168    1.2297 H   0  0  0  0  0  0  0  0  0  0  0  0
  1  2  2  0  0  0  0
  1  7  1  0  0  0  0
  2  3  1  0  0  0  0
  2 33  1  0  0  0  0
  3  4  2  0  0  0  0
  4  5  1  0  0  0  0
  4  8  1  0  0  0  0
  5  6  2  0  0  0  0
  5  9  1  0  0  0  0
  6  1  1  0  0  0  0
  7 19  1  0  0  0  0
  8 34  1  0  0  0  0
  8 35  1  0  0  0  0
  9 10  2  0  0  0  0
 10 11  1  0  0  0  0
 10 36  1  0  0  0  0
 11 12  2  0  0  0  0
 11 15  1  0  0  0  0
 12 13  1  0  0  0  0
 12 16  1  0  0  0  0
 13 14  2  0  0  0  0
 13 37  1  0  0  0  0
 14  9  1  0  0  0  0
 14 38  1  0  0  0  0
 16 17  1  0  0  0  0
 16 18  2  0  0  0  0
 17 39  1  0  0  0  0
 17 40  1  0  0  0  0
 19 20  2  0  0  0  0
 20 21  1  0  0  0  0
 20 23  1  0  0  0  0
 21 22  1  0  0  0  0
 21 32  1  0  0  0  0
 22  7  2  0  0  0  0
 23 24  1  0  0  0  0
 23 26  1  0  0  0  0
 24 25  1  0  0  0  0
 24 41  1  0  0  0  0
 24 42  1  0  0  0  0
 25 23  1  0  0  0  0
 25 43  1  0  0  0  0
 25 44  1  0  0  0  0
 26 27  2  0  0  0  0
 27 28  1  0  0  0  0
 27 45  1  0  0  0  0
 28 29  2  0  0  0  0
 28 46  1  0  0  0  0
 29 30  1  0  0  0  0
 29 47  1  0  0  0  0
 30 31  2  0  0  0  0
 30 48  1  0  0  0  0
 31 26  1  0  0  0  0
 31 49  1  0  0  0  0
 32 50  1  0  0  0  0
 32 51  1  0  0  0  0
 32 52  1  0  0  0  0
M  END
>  <Mol_ID>
4682

>  <Formula>
C23H20FN7O

>  <MolWeight>
429.4496032

>  <Cat>
S8693

>  <Name>
Selective PI3K¦Ä Inhibitor 1 (compound 7n)

>  <Synonyms>
N/A

>  <Target>
PI3K

>  <Form>
Free Base

>  <CAS>
2088525-31-7

>  <URL>
http://www.selleck.cn/products/selective-pi3k-inhibitor-1.html

$$$$
