Selective JAK3 inhibitor 1
 OpenBabel08302521223D

 44 46  0  0  0  0  0  0  0  0999 V2000
   -0.7913   -1.3628   -0.0069 N   0  0  0  0  0  0  0  0  0  0  0  0
   -1.9336   -0.6722    0.0153 C   0  0  0  0  0  0  0  0  0  0  0  0
   -2.0716    0.6568    0.0725 N   0  0  0  0  0  0  0  0  0  0  0  0
   -0.9612    1.4586    0.0784 C   0  0  0  0  0  0  0  0  0  0  0  0
    0.3077    0.8418    0.0039 C   0  0  0  0  0  0  0  0  0  0  0  0
    0.2757   -0.5528   -0.0078 C   0  0  0  0  0  0  0  0  0  0  0  0
    1.7068    1.1968   -0.0643 C   0  0  0  0  0  0  0  0  0  0  0  0
    2.4296    0.0103   -0.0224 C   0  0  0  0  0  0  0  0  0  0  0  0
    1.5538   -1.0326   -0.0109 N   0  0  0  0  0  0  0  0  0  0  0  0
    2.3430    2.5022   -0.1745 C   0  0  0  0  0  0  0  0  0  0  0  0
    1.8457    3.4588   -0.7458 O   0  0  0  0  0  0  0  0  0  0  0  0
    3.5657    2.5208    0.4373 O   0  0  0  0  0  0  0  0  0  0  0  0
    4.2633    3.7734    0.4242 C   0  0  0  0  0  0  0  0  0  0  0  0
    4.9656    3.9794   -0.9040 C   0  0  0  0  0  0  0  0  0  0  0  0
   -1.2478    2.8967    0.2191 C   0  0  0  0  0  0  0  0  0  0  0  0
   -2.4185    3.4293   -0.3678 C   0  0  0  0  0  0  0  0  0  0  0  0
   -2.8019    4.7674   -0.2200 C   0  0  0  0  0  0  0  0  0  0  0  0
   -1.9914    5.6098    0.5430 C   0  0  0  0  0  0  0  0  0  0  0  0
   -0.8254    5.1172    1.1320 C   0  0  0  0  0  0  0  0  0  0  0  0
   -0.4763    3.7700    0.9930 C   0  0  0  0  0  0  0  0  0  0  0  0
   -3.9811    5.3067   -0.7910 N   0  0  0  0  0  0  0  0  0  0  0  0
   -4.7708    4.6966   -1.7449 C   0  0  0  0  0  0  0  0  0  0  0  0
   -5.9797    5.4759   -2.1831 C   0  0  0  0  0  0  0  0  0  0  0  0
   -4.5316    3.6319   -2.3057 O   0  0  0  0  0  0  0  0  0  0  0  0
   -6.4956    5.1580   -3.5608 C   0  0  0  0  0  0  0  0  0  0  0  0
   -6.6402    6.3365   -1.3893 C   0  0  0  0  0  0  0  0  0  0  0  0
   -2.8528   -1.2498   -0.0062 H   0  0  0  0  0  0  0  0  0  0  0  0
    3.4992   -0.1668   -0.0402 H   0  0  0  0  0  0  0  0  0  0  0  0
    1.7813   -2.0150   -0.0109 H   0  0  0  0  0  0  0  0  0  0  0  0
    3.5879    4.6026    0.6626 H   0  0  0  0  0  0  0  0  0  0  0  0
    5.0090    3.7262    1.2265 H   0  0  0  0  0  0  0  0  0  0  0  0
    4.2416    4.1085   -1.7143 H   0  0  0  0  0  0  0  0  0  0  0  0
    5.6064    4.8651   -0.8707 H   0  0  0  0  0  0  0  0  0  0  0  0
    5.5759    3.1067   -1.1577 H   0  0  0  0  0  0  0  0  0  0  0  0
   -3.0505    2.7416   -0.9243 H   0  0  0  0  0  0  0  0  0  0  0  0
   -2.2427    6.6574    0.6804 H   0  0  0  0  0  0  0  0  0  0  0  0
   -0.1830    5.7799    1.7062 H   0  0  0  0  0  0  0  0  0  0  0  0
    0.4108    3.4153    1.5091 H   0  0  0  0  0  0  0  0  0  0  0  0
   -4.2106    6.2545   -0.5293 H   0  0  0  0  0  0  0  0  0  0  0  0
   -7.5002    4.7249   -3.4990 H   0  0  0  0  0  0  0  0  0  0  0  0
   -6.5390    6.0640   -4.1734 H   0  0  0  0  0  0  0  0  0  0  0  0
   -5.8675    4.4403   -4.0980 H   0  0  0  0  0  0  0  0  0  0  0  0
   -6.3564    6.5457   -0.3650 H   0  0  0  0  0  0  0  0  0  0  0  0
   -7.5377    6.8327   -1.7522 H   0  0  0  0  0  0  0  0  0  0  0  0
  1  2  2  0  0  0  0
  2  3  1  0  0  0  0
  2 27  1  0  0  0  0
  3  4  2  0  0  0  0
  4  5  1  0  0  0  0
  4 15  1  0  0  0  0
  5  6  2  0  0  0  0
  5  7  1  0  0  0  0
  6  1  1  0  0  0  0
  7  8  2  0  0  0  0
  7 10  1  0  0  0  0
  8  9  1  0  0  0  0
  8 28  1  0  0  0  0
  9  6  1  0  0  0  0
  9 29  1  0  0  0  0
 10 11  2  0  0  0  0
 10 12  1  0  0  0  0
 12 13  1  0  0  0  0
 13 14  1  0  0  0  0
 13 30  1  0  0  0  0
 13 31  1  0  0  0  0
 14 32  1  0  0  0  0
 14 33  1  0  0  0  0
 14 34  1  0  0  0  0
 15 16  2  0  0  0  0
 16 17  1  0  0  0  0
 16 35  1  0  0  0  0
 17 18  2  0  0  0  0
 17 21  1  0  0  0  0
 18 19  1  0  0  0  0
 18 36  1  0  0  0  0
 19 20  2  0  0  0  0
 19 37  1  0  0  0  0
 20 15  1  0  0  0  0
 20 38  1  0  0  0  0
 21 22  1  0  0  0  0
 21 39  1  0  0  0  0
 22 23  1  0  0  0  0
 22 24  2  0  0  0  0
 23 25  1  0  0  0  0
 23 26  2  0  0  0  0
 25 40  1  0  0  0  0
 25 41  1  0  0  0  0
 25 42  1  0  0  0  0
 26 43  1  0  0  0  0
 26 44  1  0  0  0  0
M  END
>  <Mol_ID>
4681

>  <Formula>
C19H18N4O3

>  <MolWeight>
350.37122

>  <Cat>
S8684

>  <Name>
Selective JAK3 inhibitor 1

>  <Synonyms>
N/A

>  <Target>
JAK

>  <Form>
Free Base

>  <CAS>
1443235-95-7

>  <URL>
http://www.selleck.cn/products/selective-jak3-inhibitor-1.html

$$$$
