Selitrectinib (LOXO-195)
 OpenBabel08302521353D

 49 53  0  0  0  0  0  0  0  0999 V2000
   -2.2244    2.6492    0.1120 C   0  0  0  0  0  0  0  0  0  0  0  0
   -2.4494    1.2983    0.3097 C   0  0  0  0  0  0  0  0  0  0  0  0
   -2.5433    0.8634    1.6033 C   0  0  0  0  0  0  0  0  0  0  0  0
   -2.6858    1.7409    2.6229 N   0  0  0  0  0  0  0  0  0  0  0  0
   -2.3621    3.0342    2.4518 C   0  0  0  0  0  0  0  0  0  0  0  0
   -1.7234    3.3641    1.2318 C   0  0  0  0  0  0  0  0  0  0  0  0
   -0.1210    3.1111    1.1577 C   0  0  2  0  0  0  0  0  0  0  0  0
    0.6625    3.5441    2.2928 N   0  0  0  0  0  0  0  0  0  0  0  0
    1.2080    4.8578    2.0122 C   0  0  0  0  0  0  0  0  0  0  0  0
    1.4903    4.8311    0.4997 C   0  0  0  0  0  0  0  0  0  0  0  0
    0.5536    3.7720   -0.0669 C   0  0  0  0  0  0  0  0  0  0  0  0
    0.6279    2.8009    3.4754 C   0  0  0  0  0  0  0  0  0  0  0  0
   -0.4813    2.7642    4.1572 N   0  0  0  0  0  0  0  0  0  0  0  0
   -0.7196    1.7504    5.0503 C   0  0  0  0  0  0  0  0  0  0  0  0
    0.3520    1.0094    5.5477 N   0  0  0  0  0  0  0  0  0  0  0  0
    1.5851    1.0570    4.8897 C   0  0  0  0  0  0  0  0  0  0  0  0
    1.7566    1.8630    3.8270 C   0  0  0  0  0  0  0  0  0  0  0  0
   -1.8234    0.9676    5.4278 C   0  0  0  0  0  0  0  0  0  0  0  0
   -1.3331    0.1847    6.4950 C   0  0  0  0  0  0  0  0  0  0  0  0
    0.0012    0.2463    6.6081 N   0  0  0  0  0  0  0  0  0  0  0  0
   -3.1767    0.8218    4.8904 C   0  0  0  0  0  0  0  0  0  0  0  0
   -2.9079    4.0915    3.4717 C   0  0  0  0  0  0  0  0  0  0  0  0
   -3.1844    4.0744    5.0802 C   0  0  0  0  0  0  0  0  0  0  0  0
   -3.8616    2.9396    5.9030 C   0  0  2  0  0  0  0  0  0  0  0  0
   -4.1056    1.7851    5.1166 N   0  0  0  0  0  0  0  0  0  0  0  0
   -3.5434   -0.2547    4.4105 O   0  0  0  0  0  0  0  0  0  0  0  0
   -2.4227    0.4412   -0.7165 F   0  0  0  0  0  0  0  0  0  0  0  0
   -5.0828    3.2013    6.8201 C   0  0  0  0  0  0  0  0  0  0  0  0
   -2.0307    2.9773   -0.9049 H   0  0  0  0  0  0  0  0  0  0  0  0
   -2.5166   -0.1874    1.8699 H   0  0  0  0  0  0  0  0  0  0  0  0
    0.0331    2.0298    1.0517 H   0  0  0  0  0  0  0  0  0  0  0  0
    0.4581    5.6264    2.2184 H   0  0  0  0  0  0  0  0  0  0  0  0
    2.1246    5.0900    2.5663 H   0  0  0  0  0  0  0  0  0  0  0  0
    1.3281    5.8029    0.0208 H   0  0  0  0  0  0  0  0  0  0  0  0
    2.5299    4.5472    0.2942 H   0  0  0  0  0  0  0  0  0  0  0  0
    1.1509    3.0249   -0.6119 H   0  0  0  0  0  0  0  0  0  0  0  0
   -0.1373    4.1988   -0.8003 H   0  0  0  0  0  0  0  0  0  0  0  0
    2.3046    0.3312    5.2193 H   0  0  0  0  0  0  0  0  0  0  0  0
    2.6511    1.8488    3.2033 H   0  0  0  0  0  0  0  0  0  0  0  0
   -1.9207   -0.4421    7.1393 H   0  0  0  0  0  0  0  0  0  0  0  0
   -2.2016    4.9315    3.3779 H   0  0  0  0  0  0  0  0  0  0  0  0
   -3.8481    4.4366    3.0306 H   0  0  0  0  0  0  0  0  0  0  0  0
   -2.2127    4.2387    5.5705 H   0  0  0  0  0  0  0  0  0  0  0  0
   -3.7303    5.0015    5.3107 H   0  0  0  0  0  0  0  0  0  0  0  0
   -3.1163    2.6448    6.6545 H   0  0  0  0  0  0  0  0  0  0  0  0
   -4.9718    1.6737    4.6053 H   0  0  0  0  0  0  0  0  0  0  0  0
   -5.7305    2.3110    6.8813 H   0  0  0  0  0  0  0  0  0  0  0  0
   -4.7609    3.3716    7.8589 H   0  0  0  0  0  0  0  0  0  0  0  0
   -5.7088    4.0422    6.5183 H   0  0  0  0  0  0  0  0  0  0  0  0
  1  2  2  0  0  0  0
  1 29  1  0  0  0  0
  2  3  1  0  0  0  0
  2 27  1  0  0  0  0
  3  4  2  0  0  0  0
  3 30  1  0  0  0  0
  4  5  1  0  0  0  0
  5  6  2  0  0  0  0
  5 22  1  0  0  0  0
  6  1  1  0  0  0  0
  7  6  1  0  0  0  0
  7  8  1  0  0  0  0
  7 11  1  0  0  0  0
  7 31  1  6  0  0  0
  8  9  1  0  0  0  0
  8 12  1  0  0  0  0
  9 10  1  0  0  0  0
  9 32  1  0  0  0  0
  9 33  1  0  0  0  0
 10 11  1  0  0  0  0
 10 34  1  0  0  0  0
 10 35  1  0  0  0  0
 11 36  1  0  0  0  0
 11 37  1  0  0  0  0
 12 13  2  0  0  0  0
 13 14  1  0  0  0  0
 14 15  1  0  0  0  0
 14 18  2  0  0  0  0
 15 16  1  0  0  0  0
 16 17  2  0  0  0  0
 16 38  1  0  0  0  0
 17 12  1  0  0  0  0
 17 39  1  0  0  0  0
 18 19  1  0  0  0  0
 18 21  1  0  0  0  0
 19 20  2  0  0  0  0
 19 40  1  0  0  0  0
 20 15  1  0  0  0  0
 21 26  2  0  0  0  0
 22 23  1  0  0  0  0
 22 41  1  0  0  0  0
 22 42  1  0  0  0  0
 23 24  1  0  0  0  0
 23 43  1  0  0  0  0
 23 44  1  0  0  0  0
 24 25  1  0  0  0  0
 24 28  1  0  0  0  0
 24 45  1  1  0  0  0
 25 21  1  0  0  0  0
 25 46  1  0  0  0  0
 28 47  1  0  0  0  0
 28 48  1  0  0  0  0
 28 49  1  0  0  0  0
M  END
>  <Mol_ID>
6723

>  <Formula>
C20H21FN6O

>  <MolWeight>
380.4187432

>  <Cat>
S8636

>  <Name>
Selitrectinib (LOXO-195)

>  <Synonyms>
BAY 2731954

>  <Target>
Trk receptor

>  <Form>
Free base

>  <CAS>
2097002-61-2

>  <URL>
http://www.selleckchem.com/products/loxo-195.html

$$$$
