Selonsertib (GS-4997).cdx
 OpenBabel08302520433D

 57 61  0  0  0  0  0  0  0  0999 V2000
    1.3803   -0.9153    0.2444 C   0  0  0  0  0  0  0  0  0  0  0  0
    1.2698    0.4749    0.0314 C   0  0  0  0  0  0  0  0  0  0  0  0
   -0.0216    1.0231   -0.1419 C   0  0  0  0  0  0  0  0  0  0  0  0
   -1.1692    0.2326   -0.0883 C   0  0  0  0  0  0  0  0  0  0  0  0
   -1.0724   -1.1286    0.1514 C   0  0  0  0  0  0  0  0  0  0  0  0
    0.2058   -1.6989    0.2829 C   0  0  0  0  0  0  0  0  0  0  0  0
    2.6177   -1.5940    0.4487 N   0  0  0  0  0  0  0  0  0  0  0  0
   -2.2527   -2.0047    0.3774 C   0  0  0  0  0  0  0  0  0  0  0  0
    2.4067    1.4572   -0.0837 C   0  0  0  0  0  0  0  0  0  0  0  0
   -2.3581    0.8264   -0.2695 F   0  0  0  0  0  0  0  0  0  0  0  0
   -3.5051   -1.4982    0.0890 N   0  0  0  0  0  0  0  0  0  0  0  0
   -2.0475   -3.1478    0.7773 O   0  0  0  0  0  0  0  0  0  0  0  0
   -4.6677   -2.2609    0.2533 C   0  0  0  0  0  0  0  0  0  0  0  0
   -5.5733   -2.1721   -0.7412 N   0  0  0  0  0  0  0  0  0  0  0  0
   -6.6373   -3.0145   -0.6787 C   0  0  0  0  0  0  0  0  0  0  0  0
   -6.8609   -3.8805    0.3881 C   0  0  0  0  0  0  0  0  0  0  0  0
   -5.9719   -3.8724    1.4523 C   0  0  0  0  0  0  0  0  0  0  0  0
   -4.8502   -3.0580    1.3793 C   0  0  0  0  0  0  0  0  0  0  0  0
   -7.5514   -3.0220   -1.8213 C   0  0  0  0  0  0  0  0  0  0  0  0
   -7.8084   -1.9920   -2.7018 N   0  0  0  0  0  0  0  0  0  0  0  0
   -8.7375   -2.4743   -3.5806 C   0  0  0  0  0  0  0  0  0  0  0  0
   -9.0502   -3.7069   -3.2711 N   0  0  0  0  0  0  0  0  0  0  0  0
   -8.3141   -4.0491   -2.1684 N   0  0  0  0  0  0  0  0  0  0  0  0
    3.7481   -1.1343    1.0859 C   0  0  0  0  0  0  0  0  0  0  0  0
    4.7337   -2.0004    1.0614 N   0  0  0  0  0  0  0  0  0  0  0  0
    4.2200   -3.1013    0.4490 C   0  0  0  0  0  0  0  0  0  0  0  0
    2.9013   -2.8988    0.0975 C   0  0  0  0  0  0  0  0  0  0  0  0
    4.9900   -4.3814    0.1826 C   0  0  0  0  0  0  0  0  0  0  0  0
   -7.2412   -0.6517   -2.7115 C   0  0  0  0  0  0  0  0  0  0  0  0
   -6.0960   -0.5509   -3.7185 C   0  0  0  0  0  0  0  0  0  0  0  0
   -8.2865    0.4411   -2.9526 C   0  0  0  0  0  0  0  0  0  0  0  0
    6.0833   -4.7633    1.1581 C   0  0  0  0  0  0  0  0  0  0  0  0
    6.4531   -4.2646   -0.1958 C   0  0  0  0  0  0  0  0  0  0  0  0
   -0.1435    2.0896   -0.3256 H   0  0  0  0  0  0  0  0  0  0  0  0
    0.2689   -2.7693    0.4844 H   0  0  0  0  0  0  0  0  0  0  0  0
    2.2667    2.0855   -0.9701 H   0  0  0  0  0  0  0  0  0  0  0  0
    2.4293    2.1011    0.8020 H   0  0  0  0  0  0  0  0  0  0  0  0
    3.3843    0.9932   -0.2102 H   0  0  0  0  0  0  0  0  0  0  0  0
   -3.5812   -0.7419   -0.5777 H   0  0  0  0  0  0  0  0  0  0  0  0
   -7.7155   -4.5511    0.3889 H   0  0  0  0  0  0  0  0  0  0  0  0
   -6.1344   -4.5125    2.3142 H   0  0  0  0  0  0  0  0  0  0  0  0
   -4.1337   -3.0520    2.1945 H   0  0  0  0  0  0  0  0  0  0  0  0
   -9.1547   -1.9065   -4.3993 H   0  0  0  0  0  0  0  0  0  0  0  0
    3.7934   -0.1768    1.5850 H   0  0  0  0  0  0  0  0  0  0  0  0
    2.2019   -3.5333   -0.4191 H   0  0  0  0  0  0  0  0  0  0  0  0
    4.4294   -5.1838   -0.2840 H   0  0  0  0  0  0  0  0  0  0  0  0
   -6.8472   -0.4562   -1.7112 H   0  0  0  0  0  0  0  0  0  0  0  0
   -6.4673   -0.5732   -4.7490 H   0  0  0  0  0  0  0  0  0  0  0  0
   -5.5439    0.3844   -3.5786 H   0  0  0  0  0  0  0  0  0  0  0  0
   -5.3872   -1.3786   -3.6041 H   0  0  0  0  0  0  0  0  0  0  0  0
   -9.0742    0.3953   -2.1924 H   0  0  0  0  0  0  0  0  0  0  0  0
   -7.8236    1.4322   -2.8987 H   0  0  0  0  0  0  0  0  0  0  0  0
   -8.7613    0.3499   -3.9348 H   0  0  0  0  0  0  0  0  0  0  0  0
    6.2702   -4.1108    2.0048 H   0  0  0  0  0  0  0  0  0  0  0  0
    6.2249   -5.8153    1.3726 H   0  0  0  0  0  0  0  0  0  0  0  0
    6.8481   -4.9762   -0.9113 H   0  0  0  0  0  0  0  0  0  0  0  0
    6.8893   -3.2743   -0.2715 H   0  0  0  0  0  0  0  0  0  0  0  0
  1  2  2  0  0  0  0
  1  7  1  0  0  0  0
  2  3  1  0  0  0  0
  2  9  1  0  0  0  0
  3  4  2  0  0  0  0
  3 34  1  0  0  0  0
  4  5  1  0  0  0  0
  4 10  1  0  0  0  0
  5  6  2  0  0  0  0
  5  8  1  0  0  0  0
  6  1  1  0  0  0  0
  6 35  1  0  0  0  0
  7 24  1  0  0  0  0
  8 11  1  0  0  0  0
  8 12  2  0  0  0  0
  9 36  1  0  0  0  0
  9 37  1  0  0  0  0
  9 38  1  0  0  0  0
 11 13  1  0  0  0  0
 11 39  1  0  0  0  0
 13 14  2  0  0  0  0
 14 15  1  0  0  0  0
 15 16  2  0  0  0  0
 15 19  1  0  0  0  0
 16 17  1  0  0  0  0
 16 40  1  0  0  0  0
 17 18  2  0  0  0  0
 17 41  1  0  0  0  0
 18 13  1  0  0  0  0
 18 42  1  0  0  0  0
 19 20  1  0  0  0  0
 20 21  1  0  0  0  0
 20 29  1  0  0  0  0
 21 22  2  0  0  0  0
 21 43  1  0  0  0  0
 22 23  1  0  0  0  0
 23 19  2  0  0  0  0
 24 25  2  0  0  0  0
 24 44  1  0  0  0  0
 25 26  1  0  0  0  0
 26 27  2  0  0  0  0
 26 28  1  0  0  0  0
 27  7  1  0  0  0  0
 27 45  1  0  0  0  0
 28 32  1  0  0  0  0
 28 46  1  0  0  0  0
 29 30  1  0  0  0  0
 29 31  1  0  0  0  0
 29 47  1  0  0  0  0
 30 48  1  0  0  0  0
 30 49  1  0  0  0  0
 30 50  1  0  0  0  0
 31 51  1  0  0  0  0
 31 52  1  0  0  0  0
 31 53  1  0  0  0  0
 32 33  1  0  0  0  0
 32 54  1  0  0  0  0
 32 55  1  0  0  0  0
 33 28  1  0  0  0  0
 33 56  1  0  0  0  0
 33 57  1  0  0  0  0
M  END
>  <Mol_ID>
4056

>  <Formula>
C24H24FN7O

>  <MolWeight>
445.4920632

>  <Cat>
S8292

>  <Name>
Selonsertib (GS-4997)

>  <Synonyms>
N/A

>  <Target>
ASK

>  <Form>
free base

>  <CAS>
1448428-04-3

>  <URL>
http://selleckchem.com/products/selonsertib-gs-4997.html

$$$$
