Semaxanib.cdx
 OpenBabel08302521593D

 32 34  0  0  0  0  0  0  0  0999 V2000
    2.6147   -0.8932   -0.0331 C   0  0  0  0  0  0  0  0  0  0  0  0
    2.8211    0.4984    0.0122 C   0  0  0  0  0  0  0  0  0  0  0  0
    1.7381    1.3771    0.0333 C   0  0  0  0  0  0  0  0  0  0  0  0
    0.4746    0.8234    0.0076 C   0  0  0  0  0  0  0  0  0  0  0  0
    0.2482   -0.5567   -0.0297 C   0  0  0  0  0  0  0  0  0  0  0  0
    1.3202   -1.4326   -0.0521 C   0  0  0  0  0  0  0  0  0  0  0  0
   -0.7276    1.5185    0.0015 N   0  0  0  0  0  0  0  0  0  0  0  0
   -1.8133    0.6595   -0.0499 C   0  0  0  0  0  0  0  0  0  0  0  0
   -1.2118   -0.7288   -0.0376 C   0  0  0  0  0  0  0  0  0  0  0  0
   -1.8709   -1.8976   -0.0048 C   0  0  0  0  0  0  0  0  0  0  0  0
   -3.2818   -1.9726    0.0713 C   0  0  0  0  0  0  0  0  0  0  0  0
   -2.9773    0.9982   -0.1225 O   0  0  0  0  0  0  0  0  0  0  0  0
   -4.0028   -1.9856   -1.0987 N   0  0  0  0  0  0  0  0  0  0  0  0
   -5.3484   -2.0063   -0.8217 C   0  0  0  0  0  0  0  0  0  0  0  0
   -5.4823   -2.0386    0.5503 C   0  0  0  0  0  0  0  0  0  0  0  0
   -4.1795   -2.0154    1.1247 C   0  0  0  0  0  0  0  0  0  0  0  0
   -6.3800   -1.9531   -1.8859 C   0  0  0  0  0  0  0  0  0  0  0  0
   -3.8802   -1.9870    2.5796 C   0  0  0  0  0  0  0  0  0  0  0  0
    3.4770   -1.5573   -0.0531 H   0  0  0  0  0  0  0  0  0  0  0  0
    3.8350    0.8930    0.0287 H   0  0  0  0  0  0  0  0  0  0  0  0
    1.8886    2.4499    0.0668 H   0  0  0  0  0  0  0  0  0  0  0  0
    1.1791   -2.5075   -0.0858 H   0  0  0  0  0  0  0  0  0  0  0  0
   -0.8351    2.5202    0.0020 H   0  0  0  0  0  0  0  0  0  0  0  0
   -1.3276   -2.8387    0.0268 H   0  0  0  0  0  0  0  0  0  0  0  0
   -3.6038   -1.9305   -2.0256 H   0  0  0  0  0  0  0  0  0  0  0  0
   -6.4216   -2.0397    1.0887 H   0  0  0  0  0  0  0  0  0  0  0  0
   -7.0566   -2.8097   -1.8057 H   0  0  0  0  0  0  0  0  0  0  0  0
   -6.9737   -1.0378   -1.7910 H   0  0  0  0  0  0  0  0  0  0  0  0
   -5.9340   -1.9642   -2.8854 H   0  0  0  0  0  0  0  0  0  0  0  0
   -4.3175   -1.0935    3.0375 H   0  0  0  0  0  0  0  0  0  0  0  0
   -4.3031   -2.8683    3.0722 H   0  0  0  0  0  0  0  0  0  0  0  0
   -2.8036   -1.9735    2.7747 H   0  0  0  0  0  0  0  0  0  0  0  0
  1  2  2  0  0  0  0
  1 19  1  0  0  0  0
  2  3  1  0  0  0  0
  2 20  1  0  0  0  0
  3  4  2  0  0  0  0
  3 21  1  0  0  0  0
  4  5  1  0  0  0  0
  4  7  1  0  0  0  0
  5  6  2  0  0  0  0
  6  1  1  0  0  0  0
  6 22  1  0  0  0  0
  7  8  1  0  0  0  0
  7 23  1  0  0  0  0
  8  9  1  0  0  0  0
  8 12  2  0  0  0  0
  9  5  1  0  0  0  0
  9 10  2  0  0  0  0
 10 11  1  0  0  0  0
 10 24  1  0  0  0  0
 11 13  1  0  0  0  0
 13 14  1  0  0  0  0
 13 25  1  0  0  0  0
 14 15  2  0  0  0  0
 14 17  1  0  0  0  0
 15 16  1  0  0  0  0
 15 26  1  0  0  0  0
 16 11  2  0  0  0  0
 16 18  1  0  0  0  0
 17 27  1  0  0  0  0
 17 28  1  0  0  0  0
 17 29  1  0  0  0  0
 18 30  1  0  0  0  0
 18 31  1  0  0  0  0
 18 32  1  0  0  0  0
M  END
>  <Mol_ID>
1018

>  <Formula>
C15H14N2O

>  <MolWeight>
238.28446

>  <Cat>
S2845

>  <Name>
Semaxanib (SU5416)

>  <Synonyms>
semaxinib

>  <Target>
VEGFR

>  <Form>
free base

>  <CAS>
204005-46-9

>  <URL>
http://selleckchem.com/products/semaxanib-su5416.html

$$$$
