Semagacestat.cdx
 OpenBabel08302520323D

 53 54  0  0  0  0  0  0  0  0999 V2000
   -4.9422    0.2920   -1.4037 C   0  0  0  0  0  0  0  0  0  0  0  0
   -3.9560    0.2800   -0.2136 C   0  0  1  0  0  0  0  0  0  0  0  0
   -5.9630    1.4369   -1.3574 C   0  0  0  0  0  0  0  0  0  0  0  0
   -5.7060   -1.0341   -1.5020 C   0  0  0  0  0  0  0  0  0  0  0  0
   -3.0628    1.5423   -0.1376 C   0  0  0  0  0  0  0  0  0  0  0  0
   -2.3322    1.6136    1.0389 N   0  0  0  0  0  0  0  0  0  0  0  0
   -3.0075    2.3959   -1.0156 O   0  0  0  0  0  0  0  0  0  0  0  0
   -1.7992    2.9071    1.5047 C   0  0  2  0  0  0  0  0  0  0  0  0
   -0.4022    2.8411    2.1569 C   0  0  0  0  0  0  0  0  0  0  0  0
   -0.0639    1.6083    2.6443 N   0  0  0  0  0  0  0  0  0  0  0  0
    0.2939    3.8411    2.3249 O   0  0  0  0  0  0  0  0  0  0  0  0
    2.4352    1.6432    2.5617 C   0  0  0  0  0  0  0  0  0  0  0  0
    3.3816    2.2810    3.0297 O   0  0  0  0  0  0  0  0  0  0  0  0
    2.4429    1.1464    1.2553 N   0  0  0  0  0  0  0  0  0  0  0  0
    2.4164   -0.2994    1.0622 C   0  0  0  0  0  0  0  0  0  0  0  0
    1.0936   -0.9593    1.4401 C   0  0  0  0  0  0  0  0  0  0  0  0
    0.9731   -1.1795    2.9319 C   0  0  0  0  0  0  0  0  0  0  0  0
    1.0860   -0.1152    3.8572 C   0  0  0  0  0  0  0  0  0  0  0  0
    1.1629    1.3330    3.3932 C   0  0  2  0  0  0  0  0  0  0  0  0
    3.1565    1.9145    0.2558 C   0  0  0  0  0  0  0  0  0  0  0  0
    0.7349   -2.4792    3.4025 C   0  0  0  0  0  0  0  0  0  0  0  0
    0.6372   -2.7339    4.7679 C   0  0  0  0  0  0  0  0  0  0  0  0
    0.7783   -1.6939    5.6811 C   0  0  0  0  0  0  0  0  0  0  0  0
    0.9949   -0.3917    5.2309 C   0  0  0  0  0  0  0  0  0  0  0  0
   -4.6237    0.0788    1.0351 O   0  0  0  0  0  0  0  0  0  0  0  0
   -2.7811    3.4692    2.5272 C   0  0  0  0  0  0  0  0  0  0  0  0
   -4.3552    0.4093   -2.3238 H   0  0  0  0  0  0  0  0  0  0  0  0
   -3.2703   -0.5676   -0.3369 H   0  0  0  0  0  0  0  0  0  0  0  0
   -6.5551    1.4494   -2.2796 H   0  0  0  0  0  0  0  0  0  0  0  0
   -6.6601    1.3307   -0.5206 H   0  0  0  0  0  0  0  0  0  0  0  0
   -5.4812    2.4140   -1.2742 H   0  0  0  0  0  0  0  0  0  0  0  0
   -6.3364   -1.0484   -2.3984 H   0  0  0  0  0  0  0  0  0  0  0  0
   -5.0171   -1.8822   -1.5669 H   0  0  0  0  0  0  0  0  0  0  0  0
   -6.3584   -1.1891   -0.6357 H   0  0  0  0  0  0  0  0  0  0  0  0
   -2.5886    0.9160    1.7297 H   0  0  0  0  0  0  0  0  0  0  0  0
   -1.7209    3.5868    0.6495 H   0  0  0  0  0  0  0  0  0  0  0  0
   -0.7869    0.9103    2.6876 H   0  0  0  0  0  0  0  0  0  0  0  0
    2.6051   -0.5000    0.0010 H   0  0  0  0  0  0  0  0  0  0  0  0
    3.2487   -0.7369    1.6322 H   0  0  0  0  0  0  0  0  0  0  0  0
    1.0439   -1.9290    0.9295 H   0  0  0  0  0  0  0  0  0  0  0  0
    0.2420   -0.3830    1.0630 H   0  0  0  0  0  0  0  0  0  0  0  0
    1.1672    2.0200    4.2507 H   0  0  0  0  0  0  0  0  0  0  0  0
    4.1209    1.4512    0.0330 H   0  0  0  0  0  0  0  0  0  0  0  0
    2.5359    1.9269   -0.6456 H   0  0  0  0  0  0  0  0  0  0  0  0
    3.3105    2.9470    0.5842 H   0  0  0  0  0  0  0  0  0  0  0  0
    0.6238   -3.3078    2.7056 H   0  0  0  0  0  0  0  0  0  0  0  0
    0.4545   -3.7463    5.1186 H   0  0  0  0  0  0  0  0  0  0  0  0
    0.7059   -1.8957    6.7467 H   0  0  0  0  0  0  0  0  0  0  0  0
    1.0747    0.4110    5.9629 H   0  0  0  0  0  0  0  0  0  0  0  0
   -5.3408    0.7353    1.0918 H   0  0  0  0  0  0  0  0  0  0  0  0
   -2.4701    4.4594    2.8716 H   0  0  0  0  0  0  0  0  0  0  0  0
   -3.7888    3.5471    2.1042 H   0  0  0  0  0  0  0  0  0  0  0  0
   -2.8415    2.8134    3.4050 H   0  0  0  0  0  0  0  0  0  0  0  0
  1  2  1  0  0  0  0
  1  3  1  0  0  0  0
  1  4  1  0  0  0  0
  1 27  1  0  0  0  0
  2  5  1  0  0  0  0
  2 25  1  0  0  0  0
  2 28  1  6  0  0  0
  3 29  1  0  0  0  0
  3 30  1  0  0  0  0
  3 31  1  0  0  0  0
  4 32  1  0  0  0  0
  4 33  1  0  0  0  0
  4 34  1  0  0  0  0
  5  6  1  0  0  0  0
  5  7  2  0  0  0  0
  6 35  1  0  0  0  0
  8 26  1  0  0  0  0
  8 36  1  6  0  0  0
  8  9  1  0  0  0  0
  8  6  1  0  0  0  0
  9 10  1  0  0  0  0
  9 11  2  0  0  0  0
 10 37  1  0  0  0  0
 12 13  2  0  0  0  0
 12 14  1  0  0  0  0
 14 15  1  0  0  0  0
 14 20  1  0  0  0  0
 15 16  1  0  0  0  0
 15 38  1  0  0  0  0
 15 39  1  0  0  0  0
 16 17  1  0  0  0  0
 16 40  1  0  0  0  0
 16 41  1  0  0  0  0
 17 18  2  0  0  0  0
 17 21  1  0  0  0  0
 18 19  1  0  0  0  0
 19 12  1  0  0  0  0
 19 10  1  0  0  0  0
 19 42  1  1  0  0  0
 20 43  1  0  0  0  0
 20 44  1  0  0  0  0
 20 45  1  0  0  0  0
 21 22  2  0  0  0  0
 21 46  1  0  0  0  0
 22 23  1  0  0  0  0
 22 47  1  0  0  0  0
 23 24  2  0  0  0  0
 23 48  1  0  0  0  0
 24 18  1  0  0  0  0
 24 49  1  0  0  0  0
 25 50  1  0  0  0  0
 26 51  1  0  0  0  0
 26 52  1  0  0  0  0
 26 53  1  0  0  0  0
M  END
>  <Mol_ID>
339

>  <Formula>
C19H27N3O4

>  <MolWeight>
361.43538

>  <Cat>
S1594

>  <Name>
Semagacestat (LY450139)

>  <Synonyms>
N/A

>  <Target>
Beta Amyloid,Notch,Secretase

>  <Form>
free base

>  <CAS>
425386-60-3

>  <URL>
http://selleckchem.com/products/Semagacestat(LY450139).html

$$$$
