SEN12333
 OpenBabel08302521323D

 50 52  0  0  0  0  0  0  0  0999 V2000
   -1.0182    1.5790   -1.6140 N   0  0  0  0  0  0  0  0  0  0  0  0
   -2.3012    2.0688   -1.0529 C   0  0  0  0  0  0  0  0  0  0  0  0
   -3.4844    2.0881   -2.0411 C   0  0  0  0  0  0  0  0  0  0  0  0
   -3.1611    2.7908   -3.2465 O   0  0  0  0  0  0  0  0  0  0  0  0
   -2.0116    2.2004   -3.8659 C   0  0  0  0  0  0  0  0  0  0  0  0
   -0.8051    2.2462   -2.9178 C   0  0  0  0  0  0  0  0  0  0  0  0
   -0.5594   -2.1672   -4.4543 C   0  0  0  0  0  0  0  0  0  0  0  0
   -0.4597   -2.6961   -3.0300 C   0  0  0  0  0  0  0  0  0  0  0  0
    0.5436   -1.9414   -2.1630 C   0  0  0  0  0  0  0  0  0  0  0  0
    0.3883   -0.4160   -2.1769 C   0  0  0  0  0  0  0  0  0  0  0  0
   -0.9683    0.1073   -1.6696 C   0  0  0  0  0  0  0  0  0  0  0  0
   -1.4803   -1.4218   -4.7612 O   0  0  0  0  0  0  0  0  0  0  0  0
    0.4622   -2.5996   -5.2876 N   0  0  0  0  0  0  0  0  0  0  0  0
    0.5725   -2.3618   -6.6795 C   0  0  0  0  0  0  0  0  0  0  0  0
   -0.2773   -1.5275   -7.4001 C   0  0  0  0  0  0  0  0  0  0  0  0
   -0.1897   -1.4424   -8.8005 C   0  0  0  0  0  0  0  0  0  0  0  0
    0.7572   -2.1775   -9.5343 C   0  0  0  0  0  0  0  0  0  0  0  0
    1.6672   -2.9426   -8.7820 C   0  0  0  0  0  0  0  0  0  0  0  0
    1.5738   -3.0385   -7.3820 C   0  0  0  0  0  0  0  0  0  0  0  0
    0.2702   -1.1376  -11.7948 C   0  0  0  0  0  0  0  0  0  0  0  0
    0.7443   -2.1997  -11.0204 C   0  0  0  0  0  0  0  0  0  0  0  0
    1.1445   -3.3313  -11.7530 C   0  0  0  0  0  0  0  0  0  0  0  0
    1.0353   -3.3671  -13.1453 C   0  0  0  0  0  0  0  0  0  0  0  0
    0.5224   -2.2596  -13.7918 C   0  0  0  0  0  0  0  0  0  0  0  0
    0.1467   -1.1375  -13.1499 N   0  0  0  0  0  0  0  0  0  0  0  0
   -2.1262    3.0997   -0.7183 H   0  0  0  0  0  0  0  0  0  0  0  0
   -2.5768    1.5034   -0.1538 H   0  0  0  0  0  0  0  0  0  0  0  0
   -3.8170    1.0754   -2.2945 H   0  0  0  0  0  0  0  0  0  0  0  0
   -4.3333    2.6093   -1.5836 H   0  0  0  0  0  0  0  0  0  0  0  0
   -1.7904    2.7821   -4.7665 H   0  0  0  0  0  0  0  0  0  0  0  0
   -2.2510    1.1796   -4.1816 H   0  0  0  0  0  0  0  0  0  0  0  0
   -0.5833    3.2991   -2.6992 H   0  0  0  0  0  0  0  0  0  0  0  0
    0.0865    1.8740   -3.4318 H   0  0  0  0  0  0  0  0  0  0  0  0
   -0.1970   -3.7606   -3.0601 H   0  0  0  0  0  0  0  0  0  0  0  0
   -1.4597   -2.6458   -2.5831 H   0  0  0  0  0  0  0  0  0  0  0  0
    1.5585   -2.1798   -2.5046 H   0  0  0  0  0  0  0  0  0  0  0  0
    0.4704   -2.3061   -1.1308 H   0  0  0  0  0  0  0  0  0  0  0  0
    0.5706   -0.0824   -3.2024 H   0  0  0  0  0  0  0  0  0  0  0  0
    1.1901    0.0149   -1.5633 H   0  0  0  0  0  0  0  0  0  0  0  0
   -1.1014   -0.2758   -0.6475 H   0  0  0  0  0  0  0  0  0  0  0  0
   -1.7909   -0.2963   -2.2673 H   0  0  0  0  0  0  0  0  0  0  0  0
    1.1404   -3.2355   -4.8892 H   0  0  0  0  0  0  0  0  0  0  0  0
   -1.0493   -0.9388   -6.9128 H   0  0  0  0  0  0  0  0  0  0  0  0
   -0.9210   -0.8137   -9.3043 H   0  0  0  0  0  0  0  0  0  0  0  0
    2.4585   -3.5014   -9.2779 H   0  0  0  0  0  0  0  0  0  0  0  0
    2.2794   -3.6833   -6.8628 H   0  0  0  0  0  0  0  0  0  0  0  0
   -0.0508   -0.2029  -11.3403 H   0  0  0  0  0  0  0  0  0  0  0  0
    1.5158   -4.2190  -11.2487 H   0  0  0  0  0  0  0  0  0  0  0  0
    1.3267   -4.2487  -13.7047 H   0  0  0  0  0  0  0  0  0  0  0  0
    0.3917   -2.2488  -14.8703 H   0  0  0  0  0  0  0  0  0  0  0  0
  1  2  1  0  0  0  0
  1  6  1  0  0  0  0
  1 11  1  0  0  0  0
  2  3  1  0  0  0  0
  2 26  1  0  0  0  0
  2 27  1  0  0  0  0
  3  4  1  0  0  0  0
  3 28  1  0  0  0  0
  3 29  1  0  0  0  0
  4  5  1  0  0  0  0
  5  6  1  0  0  0  0
  5 30  1  0  0  0  0
  5 31  1  0  0  0  0
  6 32  1  0  0  0  0
  6 33  1  0  0  0  0
  7  8  1  0  0  0  0
  7 12  2  0  0  0  0
  7 13  1  0  0  0  0
  8  9  1  0  0  0  0
  8 34  1  0  0  0  0
  8 35  1  0  0  0  0
  9 10  1  0  0  0  0
  9 36  1  0  0  0  0
  9 37  1  0  0  0  0
 10 11  1  0  0  0  0
 10 38  1  0  0  0  0
 10 39  1  0  0  0  0
 11 40  1  0  0  0  0
 11 41  1  0  0  0  0
 13 14  1  0  0  0  0
 13 42  1  0  0  0  0
 14 15  2  0  0  0  0
 14 19  1  0  0  0  0
 15 16  1  0  0  0  0
 15 43  1  0  0  0  0
 16 17  2  0  0  0  0
 16 44  1  0  0  0  0
 17 18  1  0  0  0  0
 17 21  1  0  0  0  0
 18 19  2  0  0  0  0
 18 45  1  0  0  0  0
 19 46  1  0  0  0  0
 20 21  2  0  0  0  0
 20 25  1  0  0  0  0
 20 47  1  0  0  0  0
 21 22  1  0  0  0  0
 22 23  2  0  0  0  0
 22 48  1  0  0  0  0
 23 24  1  0  0  0  0
 23 49  1  0  0  0  0
 24 25  2  0  0  0  0
 24 50  1  0  0  0  0
M  END
>  <Mol_ID>
6261

>  <Formula>
C20H25N3O2

>  <MolWeight>
339.4314

>  <Cat>
E0379

>  <Name>
SEN12333

>  <Synonyms>
WAY-317538

>  <Target>
AChR,Calcium Channel

>  <Form>
free base

>  <CAS>
874450-44-9

>  <URL>
http://www.selleckchem.com/products/sen12333.html

$$$$
