Senecioic acid
 OpenBabel08302520393D

 15 14  0  0  0  0  0  0  0  0999 V2000
    0.8074    0.0140   -0.0462 C   0  0  0  0  0  0  0  0  0  0  0  0
    0.0794   -0.6107   -0.9942 C   0  0  0  0  0  0  0  0  0  0  0  0
    0.2719    0.7954    1.1239 C   0  0  0  0  0  0  0  0  0  0  0  0
    2.3150   -0.0204   -0.0966 C   0  0  0  0  0  0  0  0  0  0  0  0
   -1.4014   -0.6709   -1.0727 C   0  0  0  0  0  0  0  0  0  0  0  0
   -1.8191   -0.9948   -2.3139 O   0  0  0  0  0  0  0  0  0  0  0  0
   -2.1732   -0.4689   -0.1527 O   0  0  0  0  0  0  0  0  0  0  0  0
    0.6033   -1.1428   -1.7811 H   0  0  0  0  0  0  0  0  0  0  0  0
    0.6284    0.3535    2.0606 H   0  0  0  0  0  0  0  0  0  0  0  0
    0.6322    1.8288    1.0757 H   0  0  0  0  0  0  0  0  0  0  0  0
   -0.8156    0.8401    1.1787 H   0  0  0  0  0  0  0  0  0  0  0  0
    2.6934   -0.5900   -0.9516 H   0  0  0  0  0  0  0  0  0  0  0  0
    2.7134    0.9969   -0.1732 H   0  0  0  0  0  0  0  0  0  0  0  0
    2.7142   -0.4813    0.8131 H   0  0  0  0  0  0  0  0  0  0  0  0
   -1.1202   -1.1134   -2.9806 H   0  0  0  0  0  0  0  0  0  0  0  0
  1  2  2  0  0  0  0
  1  3  1  0  0  0  0
  1  4  1  0  0  0  0
  2  5  1  0  0  0  0
  2  8  1  0  0  0  0
  3  9  1  0  0  0  0
  3 10  1  0  0  0  0
  3 11  1  0  0  0  0
  4 12  1  0  0  0  0
  4 13  1  0  0  0  0
  4 14  1  0  0  0  0
  5  6  1  0  0  0  0
  5  7  2  0  0  0  0
  6 15  1  0  0  0  0
M  END
>  <Mol_ID>
3606

>  <Formula>
C5H8O2

>  <MolWeight>
100.11582

>  <Cat>
S6247

>  <Name>
Senecioic acid

>  <Synonyms>
3-Methylcrotonic acid; 3,3-Dimethylacrylic acid; ¦Â-Methylcrotonic Acid

>  <Target>
Others

>  <Form>
free base

>  <CAS>
541-47-9

>  <URL>
http://www.selleck.cn/products/senecioic-acid.html

$$$$
