Senicapoc (ICA-17043)
 OpenBabel08302521323D

 39 41  0  0  0  0  0  0  0  0999 V2000
    0.2260   -0.5575   -1.1266 C   0  0  0  0  0  0  0  0  0  0  0  0
   -1.1711   -0.5403   -1.1519 C   0  0  0  0  0  0  0  0  0  0  0  0
   -1.9284   -0.0656   -0.0571 C   0  0  0  0  0  0  0  0  0  0  0  0
   -1.2068    0.3553    1.0834 C   0  0  0  0  0  0  0  0  0  0  0  0
    0.1930    0.3811    1.0903 C   0  0  0  0  0  0  0  0  0  0  0  0
    0.8954   -0.0765   -0.0151 C   0  0  0  0  0  0  0  0  0  0  0  0
   -3.5044    0.0021   -0.0963 C   0  0  0  0  0  0  0  0  0  0  0  0
   -3.9858   -0.7371   -1.4636 C   0  0  0  0  0  0  0  0  0  0  0  0
   -4.1037   -0.7115    1.1765 C   0  0  0  0  0  0  0  0  0  0  0  0
   -4.0408    1.4955   -0.2141 C   0  0  0  0  0  0  0  0  0  0  0  0
   -5.3259    1.7382   -0.7588 C   0  0  0  0  0  0  0  0  0  0  0  0
   -5.8565    3.0260   -0.8606 C   0  0  0  0  0  0  0  0  0  0  0  0
   -5.1287    4.1046   -0.3844 C   0  0  0  0  0  0  0  0  0  0  0  0
   -3.8818    3.9113    0.1949 C   0  0  0  0  0  0  0  0  0  0  0  0
   -3.3420    2.6212    0.2763 C   0  0  0  0  0  0  0  0  0  0  0  0
   -5.6354    5.3400   -0.4711 F   0  0  0  0  0  0  0  0  0  0  0  0
   -4.9762   -0.0586    2.0724 C   0  0  0  0  0  0  0  0  0  0  0  0
   -5.5780   -0.7379    3.1379 C   0  0  0  0  0  0  0  0  0  0  0  0
   -5.3257   -2.0892    3.3375 C   0  0  0  0  0  0  0  0  0  0  0  0
   -4.4144   -2.7435    2.5168 C   0  0  0  0  0  0  0  0  0  0  0  0
   -3.7792   -2.0518    1.4786 C   0  0  0  0  0  0  0  0  0  0  0  0
   -4.0010   -0.1868   -2.5684 O   0  0  0  0  0  0  0  0  0  0  0  0
   -4.2974   -2.0713   -1.4687 N   0  0  0  0  0  0  0  0  0  0  0  0
    2.2345   -0.0553   -0.0076 F   0  0  0  0  0  0  0  0  0  0  0  0
    0.7868   -0.9302   -1.9777 H   0  0  0  0  0  0  0  0  0  0  0  0
   -1.6408   -0.9057   -2.0630 H   0  0  0  0  0  0  0  0  0  0  0  0
   -1.7313    0.7067    1.9713 H   0  0  0  0  0  0  0  0  0  0  0  0
    0.7378    0.7630    1.9475 H   0  0  0  0  0  0  0  0  0  0  0  0
   -5.9419    0.9136   -1.1287 H   0  0  0  0  0  0  0  0  0  0  0  0
   -6.8307    3.1911   -1.3081 H   0  0  0  0  0  0  0  0  0  0  0  0
   -3.3322    4.7652    0.5750 H   0  0  0  0  0  0  0  0  0  0  0  0
   -2.3646    2.5392    0.7375 H   0  0  0  0  0  0  0  0  0  0  0  0
   -5.2152    0.9974    1.9709 H   0  0  0  0  0  0  0  0  0  0  0  0
   -6.2536   -0.2066    3.8046 H   0  0  0  0  0  0  0  0  0  0  0  0
   -5.8246   -2.6240    4.1418 H   0  0  0  0  0  0  0  0  0  0  0  0
   -4.1981   -3.7962    2.6836 H   0  0  0  0  0  0  0  0  0  0  0  0
   -3.0440   -2.5916    0.8824 H   0  0  0  0  0  0  0  0  0  0  0  0
   -4.6226   -2.5633   -0.6505 H   0  0  0  0  0  0  0  0  0  0  0  0
   -4.6077   -2.4329   -2.3619 H   0  0  0  0  0  0  0  0  0  0  0  0
  1  2  2  0  0  0  0
  1 25  1  0  0  0  0
  2  3  1  0  0  0  0
  2 26  1  0  0  0  0
  3  4  2  0  0  0  0
  3  7  1  0  0  0  0
  4  5  1  0  0  0  0
  4 27  1  0  0  0  0
  5  6  2  0  0  0  0
  5 28  1  0  0  0  0
  6  1  1  0  0  0  0
  6 24  1  0  0  0  0
  7  8  1  0  0  0  0
  7  9  1  0  0  0  0
  7 10  1  0  0  0  0
  8 22  2  0  0  0  0
  8 23  1  0  0  0  0
  9 17  2  0  0  0  0
 10 11  2  0  0  0  0
 11 12  1  0  0  0  0
 11 29  1  0  0  0  0
 12 13  2  0  0  0  0
 12 30  1  0  0  0  0
 13 14  1  0  0  0  0
 13 16  1  0  0  0  0
 14 15  2  0  0  0  0
 14 31  1  0  0  0  0
 15 10  1  0  0  0  0
 15 32  1  0  0  0  0
 17 18  1  0  0  0  0
 17 33  1  0  0  0  0
 18 19  2  0  0  0  0
 18 34  1  0  0  0  0
 19 20  1  0  0  0  0
 19 35  1  0  0  0  0
 20 21  2  0  0  0  0
 20 36  1  0  0  0  0
 21  9  1  0  0  0  0
 21 37  1  0  0  0  0
 23 38  1  0  0  0  0
 23 39  1  0  0  0  0
M  END
>  <Mol_ID>
6294

>  <Formula>
C20H15F2NO

>  <MolWeight>
323.3360064

>  <Cat>
E0501

>  <Name>
Senicapoc (ICA-17043)

>  <Target>
Potassium Channel

>  <Form>
free base

>  <CAS>
289656-45-7

>  <URL>
http://www.selleckchem.com/products/senicapoc-ica-17043.html

$$$$
