Senkyunolide H
 OpenBabel08302521453D

 32 33  0  0  0  0  0  0  0  0999 V2000
    0.9034   -0.0673    0.0547 O   0  0  0  0  0  0  0  0  0  0  0  0
    2.1046   -2.9518    0.7553 O   0  0  0  0  0  0  0  0  0  0  0  0
    4.7079   -2.9020   -3.0640 C   0  0  0  0  0  0  0  0  0  0  0  0
    4.9330   -4.3311   -3.4590 C   0  0  0  0  0  0  0  0  0  0  0  0
    6.4129   -4.7193   -3.4041 C   0  0  0  0  0  0  0  0  0  0  0  0
    7.0170   -4.5822   -2.0136 C   0  0  0  0  0  0  0  0  0  0  0  0
    1.6274    2.1802   -0.8612 O   0  0  0  0  0  0  0  0  0  0  0  0
    2.8867   -1.1491   -0.6053 C   0  0  0  0  0  0  0  0  0  0  0  0
    3.6741   -1.1512   -1.6663 C   0  0  0  0  0  0  0  0  0  0  0  0
    2.3297    0.0230    0.0837 C   0  0  1  0  0  0  0  0  0  0  0  0
    2.6985   -2.5518   -0.2366 C   0  0  0  0  0  0  0  0  0  0  0  0
    3.9550   -2.4966   -2.0319 C   0  0  0  0  0  0  0  0  0  0  0  0
    4.1356    0.0596   -2.3829 C   0  0  0  0  0  0  0  0  0  0  0  0
    2.7818    1.3843   -0.5245 C   0  0  1  0  0  0  0  0  0  0  0  0
    3.3190   -3.3637   -1.1554 O   0  0  0  0  0  0  0  0  0  0  0  0
    3.6805    1.3885   -1.7764 C   0  0  0  0  0  0  0  0  0  0  0  0
    0.6174    0.4345   -0.7334 H   0  0  0  0  0  0  0  0  0  0  0  0
    5.2089   -2.1581   -3.6799 H   0  0  0  0  0  0  0  0  0  0  0  0
    4.3477   -4.9978   -2.8161 H   0  0  0  0  0  0  0  0  0  0  0  0
    4.5674   -4.4868   -4.4804 H   0  0  0  0  0  0  0  0  0  0  0  0
    6.5122   -5.7606   -3.7320 H   0  0  0  0  0  0  0  0  0  0  0  0
    6.9875   -4.1082   -4.1106 H   0  0  0  0  0  0  0  0  0  0  0  0
    6.4484   -5.1653   -1.2820 H   0  0  0  0  0  0  0  0  0  0  0  0
    8.0480   -4.9454   -2.0148 H   0  0  0  0  0  0  0  0  0  0  0  0
    7.0362   -3.5388   -1.6828 H   0  0  0  0  0  0  0  0  0  0  0  0
    1.3499    2.6386   -0.0463 H   0  0  0  0  0  0  0  0  0  0  0  0
    2.6344   -0.0072    1.1365 H   0  0  0  0  0  0  0  0  0  0  0  0
    3.7811    0.0148   -3.4214 H   0  0  0  0  0  0  0  0  0  0  0  0
    5.2314    0.0579   -2.4340 H   0  0  0  0  0  0  0  0  0  0  0  0
    3.3187    1.9380    0.2573 H   0  0  0  0  0  0  0  0  0  0  0  0
    3.2049    1.9752   -2.5751 H   0  0  0  0  0  0  0  0  0  0  0  0
    4.5853    1.9613   -1.5305 H   0  0  0  0  0  0  0  0  0  0  0  0
  1 17  1  0  0  0  0
  2 11  2  0  0  0  0
  3  4  1  0  0  0  0
  3 12  2  0  0  0  0
  3 18  1  0  0  0  0
  4  5  1  0  0  0  0
  4 19  1  0  0  0  0
  4 20  1  0  0  0  0
  5  6  1  0  0  0  0
  5 21  1  0  0  0  0
  5 22  1  0  0  0  0
  6 23  1  0  0  0  0
  6 24  1  0  0  0  0
  6 25  1  0  0  0  0
  7 26  1  0  0  0  0
  8  9  2  0  0  0  0
  8 10  1  0  0  0  0
  8 11  1  0  0  0  0
  9 12  1  0  0  0  0
  9 13  1  0  0  0  0
 10  1  1  0  0  0  0
 10 14  1  0  0  0  0
 10 27  1  1  0  0  0
 11 15  1  0  0  0  0
 12 15  1  0  0  0  0
 13 16  1  0  0  0  0
 13 28  1  0  0  0  0
 13 29  1  0  0  0  0
 14 16  1  0  0  0  0
 14 30  1  1  0  0  0
 14  7  1  0  0  0  0
 16 31  1  0  0  0  0
 16 32  1  0  0  0  0
M  END
>  <Mol_ID>
9605

>  <Formula>
C12H16O4

>  <MolWeight>
224.25304

>  <Cat>
E2171

>  <Name>
Senkyunolide H

>  <Synonyms>
NA

>  <Target>
NF-¦ÊB, JNK, ERK

>  <Form>
Free Base

>  <CAS>
94596-27-7

>  <URL>
https://www.selleckchem.com/products/senkyunolide-h.html

$$$$
