Sephin-1
 OpenBabel08302521313D

 22 22  0  0  0  0  0  0  0  0999 V2000
    1.1934   -0.0864    0.5595 N   0  0  0  0  0  0  0  0  0  0  0  0
    0.6522   -1.3335    0.7166 N   0  0  0  0  0  0  0  0  0  0  0  0
   -1.0960   -0.6160    2.0106 N   0  0  0  0  0  0  0  0  0  0  0  0
   -0.8935   -2.8673    1.4980 N   0  0  0  0  0  0  0  0  0  0  0  0
    2.9809    1.1778   -0.5159 C   0  0  0  0  0  0  0  0  0  0  0  0
    2.5296    2.4219   -0.0683 C   0  0  0  0  0  0  0  0  0  0  0  0
    4.1404    1.0926   -1.2937 C   0  0  0  0  0  0  0  0  0  0  0  0
    3.2416    3.5782   -0.3943 C   0  0  0  0  0  0  0  0  0  0  0  0
    4.8500    2.2507   -1.6163 C   0  0  0  0  0  0  0  0  0  0  0  0
    4.4011    3.4954   -1.1668 C   0  0  0  0  0  0  0  0  0  0  0  0
    2.2516   -0.0660   -0.1907 C   0  0  0  0  0  0  0  0  0  0  0  0
   -0.4712   -1.6537    1.4164 C   0  0  0  0  0  0  0  0  0  0  0  0
    1.0537   -2.1424    0.2485 H   0  0  0  0  0  0  0  0  0  0  0  0
   -1.6658   -0.8269    2.8157 H   0  0  0  0  0  0  0  0  0  0  0  0
   -0.4554    0.1613    2.1448 H   0  0  0  0  0  0  0  0  0  0  0  0
   -1.7596   -2.8733    2.0393 H   0  0  0  0  0  0  0  0  0  0  0  0
    1.6245    2.4976    0.5291 H   0  0  0  0  0  0  0  0  0  0  0  0
    4.5026    0.1324   -1.6539 H   0  0  0  0  0  0  0  0  0  0  0  0
    2.8907    4.5479   -0.0470 H   0  0  0  0  0  0  0  0  0  0  0  0
    5.7522    2.1876   -2.2191 H   0  0  0  0  0  0  0  0  0  0  0  0
    4.9556    4.3954   -1.4178 H   0  0  0  0  0  0  0  0  0  0  0  0
    2.6621   -0.9949   -0.6285 H   0  0  0  0  0  0  0  0  0  0  0  0
  1  2  1  0  0  0  0
  1 11  2  0  0  0  0
  2 12  1  0  0  0  0
  2 13  1  0  0  0  0
  3 12  1  0  0  0  0
  3 14  1  0  0  0  0
  3 15  1  0  0  0  0
  4 12  2  0  0  0  0
  4 16  1  0  0  0  0
  5  6  2  0  0  0  0
  5  7  1  0  0  0  0
  5 11  1  0  0  0  0
  6  8  1  0  0  0  0
  6 17  1  0  0  0  0
  7  9  2  0  0  0  0
  7 18  1  0  0  0  0
  8 10  2  0  0  0  0
  8 19  1  0  0  0  0
  9 10  1  0  0  0  0
  9 20  1  0  0  0  0
 10 21  1  0  0  0  0
 11 22  1  0  0  0  0
M  END
>  <Mol_ID>
5898

>  <Formula>
C8H9ClN4

>  <MolWeight>
196.63686

>  <Cat>
S6391

>  <Name>
Sephin-1

>  <Synonyms>
NSC-65390

>  <Target>
phosphatase

>  <Form>
Free Base

>  <CAS>
951441-04-6

>  <URL>
http://www.selleckchem.com/products/sephin-1.html

$$$$
