Sesamin.cdx
 OpenBabel08302521323D

 44 49  0  0  0  0  0  0  0  0999 V2000
    3.4043   -5.0132   -1.4087 C   0  0  0  0  0  0  0  0  0  0  0  0
    3.5304   -5.7756   -0.2737 C   0  0  0  0  0  0  0  0  0  0  0  0
    3.6531   -5.2014    0.9705 C   0  0  0  0  0  0  0  0  0  0  0  0
    3.6495   -3.8056    1.0441 C   0  0  0  0  0  0  0  0  0  0  0  0
    3.5316   -3.0022   -0.1157 C   0  0  0  0  0  0  0  0  0  0  0  0
    3.3917   -3.6359   -1.3664 C   0  0  0  0  0  0  0  0  0  0  0  0
    3.2884   -5.7752   -2.5313 O   0  0  0  0  0  0  0  0  0  0  0  0
    3.4059   -7.1007   -1.9715 C   0  0  0  0  0  0  0  0  0  0  0  0
    3.5069   -7.1098   -0.5333 O   0  0  0  0  0  0  0  0  0  0  0  0
    3.4489   -1.4971    0.0380 C   0  0  1  0  0  0  0  0  0  0  0  0
    4.1999   -1.0391    1.1784 O   0  0  0  0  0  0  0  0  0  0  0  0
    4.3331    0.3741    1.0027 C   0  0  0  0  0  0  0  0  0  0  0  0
    4.5972    0.5665   -0.4803 C   0  0  1  0  0  0  0  0  0  0  0  0
    3.9935   -0.6686   -1.1235 C   0  0  2  0  0  0  0  0  0  0  0  0
    3.8514    1.7483   -1.0880 C   0  0  2  0  0  0  0  0  0  0  0  0
    2.6227    1.1909   -1.5956 O   0  0  0  0  0  0  0  0  0  0  0  0
    2.8862   -0.1537   -2.0154 C   0  0  0  0  0  0  0  0  0  0  0  0
    4.6319    2.4646   -2.1819 C   0  0  0  0  0  0  0  0  0  0  0  0
    4.1271    2.5810   -3.4889 C   0  0  0  0  0  0  0  0  0  0  0  0
    4.8656    3.2715   -4.4237 C   0  0  0  0  0  0  0  0  0  0  0  0
    6.0719    3.8480   -4.1124 C   0  0  0  0  0  0  0  0  0  0  0  0
    6.6082    3.7630   -2.8481 C   0  0  0  0  0  0  0  0  0  0  0  0
    5.8752    3.0738   -1.8749 C   0  0  0  0  0  0  0  0  0  0  0  0
    4.5072    3.4742   -5.7192 O   0  0  0  0  0  0  0  0  0  0  0  0
    5.5878    4.3173   -6.1648 C   0  0  0  0  0  0  0  0  0  0  0  0
    6.6231    4.4947   -5.1744 O   0  0  0  0  0  0  0  0  0  0  0  0
    3.7372   -5.8084    1.8627 H   0  0  0  0  0  0  0  0  0  0  0  0
    3.7344   -3.3325    2.0218 H   0  0  0  0  0  0  0  0  0  0  0  0
    3.2671   -3.0782   -2.2881 H   0  0  0  0  0  0  0  0  0  0  0  0
    2.5286   -7.6875   -2.2672 H   0  0  0  0  0  0  0  0  0  0  0  0
    4.3024   -7.5769   -2.3855 H   0  0  0  0  0  0  0  0  0  0  0  0
    2.3960   -1.2547    0.2385 H   0  0  0  0  0  0  0  0  0  0  0  0
    3.4075    0.8524    1.3438 H   0  0  0  0  0  0  0  0  0  0  0  0
    5.1566    0.7398    1.6234 H   0  0  0  0  0  0  0  0  0  0  0  0
    5.6809    0.6028   -0.6380 H   0  0  0  0  0  0  0  0  0  0  0  0
    4.7495   -1.2118   -1.7020 H   0  0  0  0  0  0  0  0  0  0  0  0
    3.5817    2.5029   -0.3394 H   0  0  0  0  0  0  0  0  0  0  0  0
    3.2057   -0.1405   -3.0628 H   0  0  0  0  0  0  0  0  0  0  0  0
    1.9611   -0.7354   -1.9624 H   0  0  0  0  0  0  0  0  0  0  0  0
    3.1714    2.1550   -3.7754 H   0  0  0  0  0  0  0  0  0  0  0  0
    7.5603    4.2256   -2.6136 H   0  0  0  0  0  0  0  0  0  0  0  0
    6.2768    3.0191   -0.8644 H   0  0  0  0  0  0  0  0  0  0  0  0
    6.0312    3.8755   -7.0641 H   0  0  0  0  0  0  0  0  0  0  0  0
    5.1759    5.3006   -6.4205 H   0  0  0  0  0  0  0  0  0  0  0  0
  1  2  1  0  0  0  0
  1  7  1  0  0  0  0
  2  3  2  0  0  0  0
  3  4  1  0  0  0  0
  3 27  1  0  0  0  0
  4  5  2  0  0  0  0
  4 28  1  0  0  0  0
  5  6  1  0  0  0  0
  6  1  2  0  0  0  0
  6 29  1  0  0  0  0
  7  8  1  0  0  0  0
  8  9  1  0  0  0  0
  8 30  1  0  0  0  0
  8 31  1  0  0  0  0
  9  2  1  0  0  0  0
 10 11  1  0  0  0  0
 10 32  1  1  0  0  0
 10  5  1  0  0  0  0
 11 12  1  0  0  0  0
 12 33  1  0  0  0  0
 12 34  1  0  0  0  0
 13 12  1  0  0  0  0
 13 14  1  0  0  0  0
 13 15  1  0  0  0  0
 13 35  1  6  0  0  0
 14 10  1  0  0  0  0
 14 17  1  0  0  0  0
 14 36  1  6  0  0  0
 15 16  1  0  0  0  0
 15 37  1  1  0  0  0
 15 18  1  0  0  0  0
 16 17  1  0  0  0  0
 17 38  1  0  0  0  0
 17 39  1  0  0  0  0
 18 19  2  0  0  0  0
 19 20  1  0  0  0  0
 19 40  1  0  0  0  0
 20 21  2  0  0  0  0
 20 24  1  0  0  0  0
 21 22  1  0  0  0  0
 22 23  2  0  0  0  0
 22 41  1  0  0  0  0
 23 18  1  0  0  0  0
 23 42  1  0  0  0  0
 24 25  1  0  0  0  0
 25 26  1  0  0  0  0
 25 43  1  0  0  0  0
 25 44  1  0  0  0  0
 26 21  1  0  0  0  0
M  END
>  <Mol_ID>
593

>  <Formula>
C20H18O6

>  <MolWeight>
354.35332

>  <Cat>
S2392

>  <Name>
Sesamin

>  <Synonyms>
Fagarol, Fsesamin

>  <Target>
Others

>  <Form>
free base

>  <CAS>
607-80-7

>  <URL>
http://selleckchem.com/products/Sesamin(Fagarol).html

$$$$
