SF2523.cdx
 OpenBabel08302520423D

 43 47  0  0  0  0  0  0  0  0999 V2000
    0.1250    0.8139    0.0765 C   0  0  0  0  0  0  0  0  0  0  0  0
    0.1439   -0.5417    0.2541 C   0  0  0  0  0  0  0  0  0  0  0  0
   -1.0158   -1.2511    0.2562 O   0  0  0  0  0  0  0  0  0  0  0  0
   -2.2427   -0.6062    0.0259 C   0  0  0  0  0  0  0  0  0  0  0  0
   -2.3078    0.7315   -0.1471 C   0  0  0  0  0  0  0  0  0  0  0  0
   -1.0850    1.5600   -0.1125 C   0  0  0  0  0  0  0  0  0  0  0  0
    1.6856    1.4782    0.0270 S   0  0  0  0  0  0  0  0  0  0  0  0
    2.4037   -0.0760    0.1964 C   0  0  0  0  0  0  0  0  0  0  0  0
    1.4693   -1.0905    0.3462 C   0  0  0  0  0  0  0  0  0  0  0  0
   -1.1814    2.7818   -0.2540 O   0  0  0  0  0  0  0  0  0  0  0  0
   -3.3616   -1.4337    0.0088 N   0  0  0  0  0  0  0  0  0  0  0  0
   -3.4101   -2.7418    0.6959 C   0  0  0  0  0  0  0  0  0  0  0  0
   -3.5534   -3.8823   -0.3197 C   0  0  0  0  0  0  0  0  0  0  0  0
   -4.7011   -3.6934   -1.1639 O   0  0  0  0  0  0  0  0  0  0  0  0
   -4.5940   -2.4496   -1.8755 C   0  0  0  0  0  0  0  0  0  0  0  0
   -4.5031   -1.2526   -0.9105 C   0  0  0  0  0  0  0  0  0  0  0  0
    1.8144   -2.5172    0.2863 C   0  0  0  0  0  0  0  0  0  0  0  0
    0.8647   -3.4658    0.7116 C   0  0  0  0  0  0  0  0  0  0  0  0
    0.7496   -4.6810    0.0373 C   0  0  0  0  0  0  0  0  0  0  0  0
    1.6267   -4.9211   -1.0080 C   0  0  0  0  0  0  0  0  0  0  0  0
    2.7728   -4.1401   -1.1737 C   0  0  0  0  0  0  0  0  0  0  0  0
    2.8795   -2.9299   -0.5208 C   0  0  0  0  0  0  0  0  0  0  0  0
    1.2172   -5.7216   -2.0537 O   0  0  0  0  0  0  0  0  0  0  0  0
    1.5143   -4.9571   -3.2456 C   0  0  0  0  0  0  0  0  0  0  0  0
    3.0274   -4.7657   -3.3804 C   0  0  0  0  0  0  0  0  0  0  0  0
    3.6841   -4.4018   -2.1589 O   0  0  0  0  0  0  0  0  0  0  0  0
   -3.2410    1.2616   -0.2859 H   0  0  0  0  0  0  0  0  0  0  0  0
    3.4807   -0.1546    0.1367 H   0  0  0  0  0  0  0  0  0  0  0  0
   -4.2848   -2.7381    1.3571 H   0  0  0  0  0  0  0  0  0  0  0  0
   -2.5315   -2.9071    1.3283 H   0  0  0  0  0  0  0  0  0  0  0  0
   -2.6588   -3.9705   -0.9478 H   0  0  0  0  0  0  0  0  0  0  0  0
   -3.6871   -4.8331    0.2078 H   0  0  0  0  0  0  0  0  0  0  0  0
   -5.4816   -2.3535   -2.5090 H   0  0  0  0  0  0  0  0  0  0  0  0
   -3.7169   -2.4930   -2.5327 H   0  0  0  0  0  0  0  0  0  0  0  0
   -5.4235   -1.1905   -0.3152 H   0  0  0  0  0  0  0  0  0  0  0  0
   -4.4226   -0.3309   -1.4975 H   0  0  0  0  0  0  0  0  0  0  0  0
    0.1012   -3.1912    1.4353 H   0  0  0  0  0  0  0  0  0  0  0  0
   -0.1080   -5.3240    0.2148 H   0  0  0  0  0  0  0  0  0  0  0  0
    3.6643   -2.2549   -0.8467 H   0  0  0  0  0  0  0  0  0  0  0  0
    1.0071   -3.9780   -3.1919 H   0  0  0  0  0  0  0  0  0  0  0  0
    1.1047   -5.4650   -4.1233 H   0  0  0  0  0  0  0  0  0  0  0  0
    3.2425   -3.9637   -4.0948 H   0  0  0  0  0  0  0  0  0  0  0  0
    3.4936   -5.6826   -3.7514 H   0  0  0  0  0  0  0  0  0  0  0  0
  1  2  2  0  0  0  0
  1  7  1  0  0  0  0
  2  3  1  0  0  0  0
  3  4  1  0  0  0  0
  4  5  2  0  0  0  0
  4 11  1  0  0  0  0
  5  6  1  0  0  0  0
  5 27  1  0  0  0  0
  6  1  1  0  0  0  0
  6 10  2  0  0  0  0
  7  8  1  0  0  0  0
  8  9  2  0  0  0  0
  8 28  1  0  0  0  0
  9  2  1  0  0  0  0
  9 17  1  0  0  0  0
 11 12  1  0  0  0  0
 12 13  1  0  0  0  0
 12 29  1  0  0  0  0
 12 30  1  0  0  0  0
 13 14  1  0  0  0  0
 13 31  1  0  0  0  0
 13 32  1  0  0  0  0
 14 15  1  0  0  0  0
 15 16  1  0  0  0  0
 15 33  1  0  0  0  0
 15 34  1  0  0  0  0
 16 11  1  0  0  0  0
 16 35  1  0  0  0  0
 16 36  1  0  0  0  0
 17 18  2  0  0  0  0
 18 19  1  0  0  0  0
 18 37  1  0  0  0  0
 19 20  2  0  0  0  0
 19 38  1  0  0  0  0
 20 21  1  0  0  0  0
 20 23  1  0  0  0  0
 21 22  2  0  0  0  0
 22 17  1  0  0  0  0
 22 39  1  0  0  0  0
 23 24  1  0  0  0  0
 24 25  1  0  0  0  0
 24 40  1  0  0  0  0
 24 41  1  0  0  0  0
 25 26  1  0  0  0  0
 25 42  1  0  0  0  0
 25 43  1  0  0  0  0
 26 21  1  0  0  0  0
M  END
>  <Mol_ID>
4012

>  <Formula>
C19H17NO5S

>  <MolWeight>
371.40698

>  <Cat>
S8589

>  <Name>
SF2523

>  <Synonyms>
N/A

>  <Target>
DNA-PK,Epigenetic Reader Domain,mTOR,PI3K

>  <Form>
free base

>  <CAS>
1174428-47-7

>  <URL>
http://selleckchem.com/products/sf2523.html

$$$$
