SGC-GAK-1
 OpenBabel08302521233D

 41 43  0  0  0  0  0  0  0  0999 V2000
    2.8731    0.9244    0.8235 Br  0  0  0  0  0  0  0  0  0  0  0  0
   -4.0851    7.3623   -1.0859 O   0  0  0  0  0  0  0  0  0  0  0  0
   -6.0073    4.8775    2.4968 O   0  0  0  0  0  0  0  0  0  0  0  0
   -5.9390    7.1442    0.7818 O   0  0  0  0  0  0  0  0  0  0  0  0
   -2.2095    3.0277    0.0032 N   0  0  0  0  0  0  0  0  0  0  0  0
   -0.7317    2.1339   -3.8636 N   0  0  0  0  0  0  0  0  0  0  0  0
   -1.7025    2.7100   -1.2937 C   0  0  0  0  0  0  0  0  0  0  0  0
   -0.4205    2.1294   -1.4568 C   0  0  0  0  0  0  0  0  0  0  0  0
   -3.1347    4.0609    0.2900 C   0  0  0  0  0  0  0  0  0  0  0  0
    0.0076    1.8606   -2.7790 C   0  0  0  0  0  0  0  0  0  0  0  0
   -4.1016    3.9319    1.2919 C   0  0  0  0  0  0  0  0  0  0  0  0
   -3.0780    5.2582   -0.4274 C   0  0  0  0  0  0  0  0  0  0  0  0
   -4.0589    6.2385   -0.2921 C   0  0  0  0  0  0  0  0  0  0  0  0
   -5.0609    4.9412    1.5086 C   0  0  0  0  0  0  0  0  0  0  0  0
   -5.0615    6.0883    0.6831 C   0  0  0  0  0  0  0  0  0  0  0  0
   -2.4763    2.9570   -2.4339 C   0  0  0  0  0  0  0  0  0  0  0  0
    0.4520    1.8351   -0.3837 C   0  0  0  0  0  0  0  0  0  0  0  0
    1.2626    1.3035   -2.9810 C   0  0  0  0  0  0  0  0  0  0  0  0
   -1.9479    2.6780   -3.6760 C   0  0  0  0  0  0  0  0  0  0  0  0
    1.7101    1.2853   -0.6207 C   0  0  0  0  0  0  0  0  0  0  0  0
    2.1198    1.0118   -1.9182 C   0  0  0  0  0  0  0  0  0  0  0  0
   -3.4647    7.2225   -2.3644 C   0  0  0  0  0  0  0  0  0  0  0  0
   -5.9972    3.7668    3.3796 C   0  0  0  0  0  0  0  0  0  0  0  0
   -7.2899    6.8364    1.1010 C   0  0  0  0  0  0  0  0  0  0  0  0
   -2.3635    2.1805    0.5482 H   0  0  0  0  0  0  0  0  0  0  0  0
   -4.0987    3.0318    1.8956 H   0  0  0  0  0  0  0  0  0  0  0  0
   -2.2508    5.3997   -1.1137 H   0  0  0  0  0  0  0  0  0  0  0  0
   -3.4742    3.3755   -2.3684 H   0  0  0  0  0  0  0  0  0  0  0  0
    0.1538    2.0610    0.6364 H   0  0  0  0  0  0  0  0  0  0  0  0
    1.5878    1.1034   -3.9991 H   0  0  0  0  0  0  0  0  0  0  0  0
   -2.5065    2.8947   -4.5818 H   0  0  0  0  0  0  0  0  0  0  0  0
    3.0977    0.5838   -2.1213 H   0  0  0  0  0  0  0  0  0  0  0  0
   -2.3734    7.1997   -2.2730 H   0  0  0  0  0  0  0  0  0  0  0  0
   -3.8291    6.3321   -2.8922 H   0  0  0  0  0  0  0  0  0  0  0  0
   -3.7221    8.0962   -2.9689 H   0  0  0  0  0  0  0  0  0  0  0  0
   -6.1906    2.8325    2.8432 H   0  0  0  0  0  0  0  0  0  0  0  0
   -5.0604    3.7139    3.9438 H   0  0  0  0  0  0  0  0  0  0  0  0
   -6.8090    3.9034    4.1028 H   0  0  0  0  0  0  0  0  0  0  0  0
   -7.6547    5.9575    0.5584 H   0  0  0  0  0  0  0  0  0  0  0  0
   -7.4225    6.7265    2.1807 H   0  0  0  0  0  0  0  0  0  0  0  0
   -7.9044    7.6907    0.7979 H   0  0  0  0  0  0  0  0  0  0  0  0
  1 20  1  0  0  0  0
  2 13  1  0  0  0  0
  2 22  1  0  0  0  0
  3 14  1  0  0  0  0
  3 23  1  0  0  0  0
  4 15  1  0  0  0  0
  4 24  1  0  0  0  0
  5  7  1  0  0  0  0
  5  9  1  0  0  0  0
  5 25  1  0  0  0  0
  6 10  2  0  0  0  0
  6 19  1  0  0  0  0
  7  8  2  0  0  0  0
  7 16  1  0  0  0  0
  8 10  1  0  0  0  0
  8 17  1  0  0  0  0
  9 11  2  0  0  0  0
  9 12  1  0  0  0  0
 10 18  1  0  0  0  0
 11 14  1  0  0  0  0
 11 26  1  0  0  0  0
 12 13  2  0  0  0  0
 12 27  1  0  0  0  0
 13 15  1  0  0  0  0
 14 15  2  0  0  0  0
 16 19  2  0  0  0  0
 16 28  1  0  0  0  0
 17 20  2  0  0  0  0
 17 29  1  0  0  0  0
 18 21  2  0  0  0  0
 18 30  1  0  0  0  0
 19 31  1  0  0  0  0
 20 21  1  0  0  0  0
 21 32  1  0  0  0  0
 22 33  1  0  0  0  0
 22 34  1  0  0  0  0
 22 35  1  0  0  0  0
 23 36  1  0  0  0  0
 23 37  1  0  0  0  0
 23 38  1  0  0  0  0
 24 39  1  0  0  0  0
 24 40  1  0  0  0  0
 24 41  1  0  0  0  0
M  END
>  <Mol_ID>
4762

>  <Formula>
C18H17BrN2O3

>  <MolWeight>
389.24318

>  <Cat>
S6710

>  <Name>
SGC-GAK-1

>  <Synonyms>
N/A

>  <Target>
Serine/threonin kinase

>  <Form>
Free Base

>  <CAS>
2226517-76-4

>  <URL>
http://www.selleck.cn/products/sgc-gak-1.html

$$$$
