SGC-SMARCA-BRDVIII
 OpenBabel08302521323D

 52 54  0  0  0  0  0  0  0  0999 V2000
    3.1028   -6.4196    5.1736 C   0  0  0  0  0  0  0  0  0  0  0  0
    3.5228   -6.9297    3.9515 C   0  0  0  0  0  0  0  0  0  0  0  0
    3.0954   -6.3281    2.7654 C   0  0  0  0  0  0  0  0  0  0  0  0
    2.2274   -5.2149    2.7616 C   0  0  0  0  0  0  0  0  0  0  0  0
    1.8464   -4.7064    4.0189 C   0  0  0  0  0  0  0  0  0  0  0  0
    2.2701   -5.3051    5.2094 C   0  0  0  0  0  0  0  0  0  0  0  0
    1.0333   -3.6124    4.1651 O   0  0  0  0  0  0  0  0  0  0  0  0
    1.7481   -4.6518    1.4844 C   0  0  0  0  0  0  0  0  0  0  0  0
    1.5346   -3.3214    1.4474 N   0  0  0  0  0  0  0  0  0  0  0  0
    1.1170   -2.7295    0.2845 N   0  0  0  0  0  0  0  0  0  0  0  0
    0.9011   -3.4716   -0.8266 C   0  0  0  0  0  0  0  0  0  0  0  0
    1.0967   -4.8682   -0.8550 C   0  0  0  0  0  0  0  0  0  0  0  0
    1.5184   -5.4345    0.3537 C   0  0  0  0  0  0  0  0  0  0  0  0
    0.8774   -5.6701   -1.9709 N   0  0  0  0  0  0  0  0  0  0  0  0
    0.4388   -2.7755   -1.9560 N   0  0  0  0  0  0  0  0  0  0  0  0
    0.3874   -7.0623   -1.8678 C   0  0  0  0  0  0  0  0  0  0  0  0
    1.3843   -8.0644   -2.4789 C   0  0  0  0  0  0  0  0  0  0  0  0
    1.8243   -7.6570   -3.8134 N   0  0  0  0  0  0  0  0  0  0  0  0
    2.3611   -6.2961   -3.8812 C   0  0  0  0  0  0  0  0  0  0  0  0
    1.3549   -5.2640   -3.3128 C   0  0  0  0  0  0  0  0  0  0  0  0
    1.6331   -8.5125   -4.8824 C   0  0  0  0  0  0  0  0  0  0  0  0
    2.1566   -8.0559   -6.0586 O   0  0  0  0  0  0  0  0  0  0  0  0
    1.0515   -9.5815   -4.7734 O   0  0  0  0  0  0  0  0  0  0  0  0
    1.9750   -8.8335   -7.2838 C   0  0  0  0  0  0  0  0  0  0  0  0
    0.4837   -8.9954   -7.6209 C   0  0  0  0  0  0  0  0  0  0  0  0
    2.6619   -8.0208   -8.3963 C   0  0  0  0  0  0  0  0  0  0  0  0
    2.6668  -10.2040   -7.2153 C   0  0  0  0  0  0  0  0  0  0  0  0
    3.4290   -6.8861    6.1004 H   0  0  0  0  0  0  0  0  0  0  0  0
    4.1846   -7.7917    3.9150 H   0  0  0  0  0  0  0  0  0  0  0  0
    3.4656   -6.7425    1.8297 H   0  0  0  0  0  0  0  0  0  0  0  0
    1.9467   -4.8980    6.1635 H   0  0  0  0  0  0  0  0  0  0  0  0
    0.9686   -3.1637    3.2968 H   0  0  0  0  0  0  0  0  0  0  0  0
    1.6901   -6.5000    0.4158 H   0  0  0  0  0  0  0  0  0  0  0  0
   -0.3918   -3.2339   -2.3162 H   0  0  0  0  0  0  0  0  0  0  0  0
    0.2702   -1.8114   -1.6820 H   0  0  0  0  0  0  0  0  0  0  0  0
    0.1610   -7.3599   -0.8376 H   0  0  0  0  0  0  0  0  0  0  0  0
   -0.5629   -7.1236   -2.4119 H   0  0  0  0  0  0  0  0  0  0  0  0
    2.2849   -8.1255   -1.8564 H   0  0  0  0  0  0  0  0  0  0  0  0
    0.9335   -9.0616   -2.4957 H   0  0  0  0  0  0  0  0  0  0  0  0
    3.2693   -6.2864   -3.2659 H   0  0  0  0  0  0  0  0  0  0  0  0
    2.6416   -6.0248   -4.9016 H   0  0  0  0  0  0  0  0  0  0  0  0
    0.4849   -5.1981   -3.9774 H   0  0  0  0  0  0  0  0  0  0  0  0
    1.8514   -4.2900   -3.3079 H   0  0  0  0  0  0  0  0  0  0  0  0
   -0.0935   -8.1134   -7.3268 H   0  0  0  0  0  0  0  0  0  0  0  0
    0.3255   -9.1786   -8.6900 H   0  0  0  0  0  0  0  0  0  0  0  0
    0.0500   -9.8537   -7.0946 H   0  0  0  0  0  0  0  0  0  0  0  0
    3.7534   -8.0928   -8.3125 H   0  0  0  0  0  0  0  0  0  0  0  0
    2.3894   -8.3840   -9.3949 H   0  0  0  0  0  0  0  0  0  0  0  0
    2.4135   -6.9572   -8.3302 H   0  0  0  0  0  0  0  0  0  0  0  0
    3.7226  -10.0990   -6.9437 H   0  0  0  0  0  0  0  0  0  0  0  0
    2.2151  -10.8613   -6.4669 H   0  0  0  0  0  0  0  0  0  0  0  0
    2.6059  -10.7222   -8.1800 H   0  0  0  0  0  0  0  0  0  0  0  0
  1  2  2  0  0  0  0
  1 28  1  0  0  0  0
  2  3  1  0  0  0  0
  2 29  1  0  0  0  0
  3  4  2  0  0  0  0
  3 30  1  0  0  0  0
  4  5  1  0  0  0  0
  4  8  1  0  0  0  0
  5  6  2  0  0  0  0
  5  7  1  0  0  0  0
  6  1  1  0  0  0  0
  6 31  1  0  0  0  0
  7 32  1  0  0  0  0
  8  9  2  0  0  0  0
  9 10  1  0  0  0  0
 10 11  2  0  0  0  0
 11 12  1  0  0  0  0
 11 15  1  0  0  0  0
 12 13  2  0  0  0  0
 12 14  1  0  0  0  0
 13  8  1  0  0  0  0
 13 33  1  0  0  0  0
 14 16  1  0  0  0  0
 15 34  1  0  0  0  0
 15 35  1  0  0  0  0
 16 17  1  0  0  0  0
 16 36  1  0  0  0  0
 16 37  1  0  0  0  0
 17 18  1  0  0  0  0
 17 38  1  0  0  0  0
 17 39  1  0  0  0  0
 18 19  1  0  0  0  0
 18 21  1  0  0  0  0
 19 20  1  0  0  0  0
 19 40  1  0  0  0  0
 19 41  1  0  0  0  0
 20 14  1  0  0  0  0
 20 42  1  0  0  0  0
 20 43  1  0  0  0  0
 21 22  1  0  0  0  0
 21 23  2  0  0  0  0
 22 24  1  0  0  0  0
 24 25  1  0  0  0  0
 24 26  1  0  0  0  0
 24 27  1  0  0  0  0
 25 44  1  0  0  0  0
 25 45  1  0  0  0  0
 25 46  1  0  0  0  0
 26 47  1  0  0  0  0
 26 48  1  0  0  0  0
 26 49  1  0  0  0  0
 27 50  1  0  0  0  0
 27 51  1  0  0  0  0
 27 52  1  0  0  0  0
M  END
>  <Mol_ID>
6274

>  <Formula>
C19H25N5O3

>  <MolWeight>
371.4335

>  <Cat>
E0449

>  <Name>
SGC-SMARCA-BRDVIII

>  <Synonyms>
N/A

>  <Target>
Epigenetic Reader Domain

>  <Form>
free base

>  <CAS>
1997319-84-2

>  <URL>
http://www.selleckchem.com/products/sgc-smarca-brdviii.html

$$$$
