SGC2085.cdx
 OpenBabel08302520433D

 47 48  0  0  0  0  0  0  0  0999 V2000
   -9.3082    0.1180   -7.1468 C   0  0  0  0  0  0  0  0  0  0  0  0
   -9.1669    1.2915   -6.3829 C   0  0  0  0  0  0  0  0  0  0  0  0
   -8.5553    1.2698   -5.1264 C   0  0  0  0  0  0  0  0  0  0  0  0
   -8.1723    0.0599   -4.5606 C   0  0  0  0  0  0  0  0  0  0  0  0
   -8.3938   -1.1257   -5.2742 C   0  0  0  0  0  0  0  0  0  0  0  0
   -8.9491   -1.1152   -6.5737 C   0  0  0  0  0  0  0  0  0  0  0  0
   -9.7830    0.1596   -8.4541 O   0  0  0  0  0  0  0  0  0  0  0  0
   -9.5744    1.3306   -9.1807 C   0  0  0  0  0  0  0  0  0  0  0  0
   -8.3604    2.0261   -9.1085 C   0  0  0  0  0  0  0  0  0  0  0  0
   -8.2435    3.3181   -9.6269 C   0  0  0  0  0  0  0  0  0  0  0  0
   -9.3001    3.8441  -10.3737 C   0  0  0  0  0  0  0  0  0  0  0  0
  -10.4749    3.1063  -10.5748 C   0  0  0  0  0  0  0  0  0  0  0  0
  -10.6176    1.8530   -9.9529 C   0  0  0  0  0  0  0  0  0  0  0  0
  -11.5780    3.6816  -11.4212 C   0  0  0  0  0  0  0  0  0  0  0  0
   -7.0457    4.1469   -9.2706 C   0  0  0  0  0  0  0  0  0  0  0  0
   -9.1844   -2.4389   -7.2420 C   0  0  0  0  0  0  0  0  0  0  0  0
   -7.5411    0.0337   -3.1962 C   0  0  0  0  0  0  0  0  0  0  0  0
   -6.1044    0.1394   -3.2682 N   0  0  0  0  0  0  0  0  0  0  0  0
   -5.3669    0.1357   -2.1094 C   0  0  0  0  0  0  0  0  0  0  0  0
   -3.8364    0.2648   -2.2824 C   0  0  2  0  0  0  0  0  0  0  0  0
   -5.8948    0.0689   -0.9972 O   0  0  0  0  0  0  0  0  0  0  0  0
   -3.2641   -0.8360   -3.1674 C   0  0  0  0  0  0  0  0  0  0  0  0
   -3.1963    0.2088   -0.9506 N   0  0  0  0  0  0  0  0  0  0  0  0
   -9.4967    2.2523   -6.7629 H   0  0  0  0  0  0  0  0  0  0  0  0
   -8.3858    2.2099   -4.6075 H   0  0  0  0  0  0  0  0  0  0  0  0
   -8.1275   -2.0761   -4.8124 H   0  0  0  0  0  0  0  0  0  0  0  0
   -7.5287    1.6053   -8.5446 H   0  0  0  0  0  0  0  0  0  0  0  0
   -9.2107    4.8474  -10.7922 H   0  0  0  0  0  0  0  0  0  0  0  0
  -11.5523    1.2991  -10.0421 H   0  0  0  0  0  0  0  0  0  0  0  0
  -11.7848    3.0234  -12.2702 H   0  0  0  0  0  0  0  0  0  0  0  0
  -12.4884    3.8153  -10.8290 H   0  0  0  0  0  0  0  0  0  0  0  0
  -11.2995    4.6616  -11.8268 H   0  0  0  0  0  0  0  0  0  0  0  0
   -7.0798    4.3889   -8.1996 H   0  0  0  0  0  0  0  0  0  0  0  0
   -6.1231    3.6035   -9.4819 H   0  0  0  0  0  0  0  0  0  0  0  0
   -7.0258    5.0900   -9.8245 H   0  0  0  0  0  0  0  0  0  0  0  0
  -10.2408   -2.7148   -7.1773 H   0  0  0  0  0  0  0  0  0  0  0  0
   -8.8626   -2.4274   -8.2857 H   0  0  0  0  0  0  0  0  0  0  0  0
   -8.6098   -3.2347   -6.7427 H   0  0  0  0  0  0  0  0  0  0  0  0
   -7.9204    0.8605   -2.5871 H   0  0  0  0  0  0  0  0  0  0  0  0
   -7.8006   -0.8927   -2.6691 H   0  0  0  0  0  0  0  0  0  0  0  0
   -5.6525    0.1623   -4.1746 H   0  0  0  0  0  0  0  0  0  0  0  0
   -3.6235    1.2471   -2.7180 H   0  0  0  0  0  0  0  0  0  0  0  0
   -3.8335   -1.7683   -3.0862 H   0  0  0  0  0  0  0  0  0  0  0  0
   -3.2835   -0.5234   -4.2175 H   0  0  0  0  0  0  0  0  0  0  0  0
   -2.2178   -1.0542   -2.9225 H   0  0  0  0  0  0  0  0  0  0  0  0
   -3.6529    0.9170   -0.3682 H   0  0  0  0  0  0  0  0  0  0  0  0
   -3.4824   -0.6667   -0.5050 H   0  0  0  0  0  0  0  0  0  0  0  0
  1  2  2  0  0  0  0
  1  7  1  0  0  0  0
  2  3  1  0  0  0  0
  2 24  1  0  0  0  0
  3  4  2  0  0  0  0
  3 25  1  0  0  0  0
  4  5  1  0  0  0  0
  4 17  1  0  0  0  0
  5  6  2  0  0  0  0
  5 26  1  0  0  0  0
  6  1  1  0  0  0  0
  6 16  1  0  0  0  0
  7  8  1  0  0  0  0
  8  9  2  0  0  0  0
  9 10  1  0  0  0  0
  9 27  1  0  0  0  0
 10 11  2  0  0  0  0
 10 15  1  0  0  0  0
 11 12  1  0  0  0  0
 11 28  1  0  0  0  0
 12 13  2  0  0  0  0
 12 14  1  0  0  0  0
 13  8  1  0  0  0  0
 13 29  1  0  0  0  0
 14 30  1  0  0  0  0
 14 31  1  0  0  0  0
 14 32  1  0  0  0  0
 15 33  1  0  0  0  0
 15 34  1  0  0  0  0
 15 35  1  0  0  0  0
 16 36  1  0  0  0  0
 16 37  1  0  0  0  0
 16 38  1  0  0  0  0
 17 18  1  0  0  0  0
 17 39  1  0  0  0  0
 17 40  1  0  0  0  0
 18 19  1  0  0  0  0
 18 41  1  0  0  0  0
 19 21  2  0  0  0  0
 20 23  1  0  0  0  0
 20 42  1  6  0  0  0
 20 22  1  0  0  0  0
 20 19  1  0  0  0  0
 22 43  1  0  0  0  0
 22 44  1  0  0  0  0
 22 45  1  0  0  0  0
 23 46  1  0  0  0  0
 23 47  1  0  0  0  0
M  END
>  <Mol_ID>
4138

>  <Formula>
C19H24N2O2

>  <MolWeight>
312.40606

>  <Cat>
S8340

>  <Name>
SGC2085

>  <Synonyms>
N/A

>  <Target>
Histone Methyltransferase,PRMT

>  <Form>
free base

>  <CAS>
1821908-48-8

>  <URL>
http://selleckchem.com/products/sgc2085.html

$$$$
