SGC707.cdx
 OpenBabel08302519593D

 40 42  0  0  0  0  0  0  0  0999 V2000
   -9.0773   -1.9087    0.6689 N   0  0  0  0  0  0  0  0  0  0  0  0
   -8.9017   -1.0832    1.7190 C   0  0  0  0  0  0  0  0  0  0  0  0
   -7.7529   -0.3403    1.9297 C   0  0  0  0  0  0  0  0  0  0  0  0
   -6.7101   -0.4315    1.0003 C   0  0  0  0  0  0  0  0  0  0  0  0
   -6.8691   -1.2510   -0.1323 C   0  0  0  0  0  0  0  0  0  0  0  0
   -8.0639   -1.9710   -0.2289 C   0  0  0  0  0  0  0  0  0  0  0  0
   -5.5465    0.3434    1.1225 C   0  0  0  0  0  0  0  0  0  0  0  0
   -4.6204    0.4046    0.0722 C   0  0  0  0  0  0  0  0  0  0  0  0
   -4.7403   -0.4571   -1.0151 C   0  0  0  0  0  0  0  0  0  0  0  0
   -5.8668   -1.2774   -1.1217 C   0  0  0  0  0  0  0  0  0  0  0  0
   -3.6710    1.4342    0.0112 N   0  0  0  0  0  0  0  0  0  0  0  0
   -3.8324    2.7819    0.1386 C   0  0  0  0  0  0  0  0  0  0  0  0
   -5.0493    3.3778    0.0943 N   0  0  0  0  0  0  0  0  0  0  0  0
   -2.8330    3.4969    0.2026 O   0  0  0  0  0  0  0  0  0  0  0  0
   -6.3685    2.8100   -0.1421 C   0  0  0  0  0  0  0  0  0  0  0  0
   -7.4240    3.6181   -0.8713 C   0  0  0  0  0  0  0  0  0  0  0  0
   -7.2248    3.8441   -2.2114 N   0  0  0  0  0  0  0  0  0  0  0  0
   -8.4562    3.9632   -0.2948 O   0  0  0  0  0  0  0  0  0  0  0  0
   -6.0752    3.5052   -3.0289 C   0  0  0  0  0  0  0  0  0  0  0  0
   -6.0338    4.6741   -3.9941 C   0  0  0  0  0  0  0  0  0  0  0  0
   -7.5122    4.9555   -4.2662 C   0  0  0  0  0  0  0  0  0  0  0  0
   -8.2364    4.5146   -3.0021 C   0  0  0  0  0  0  0  0  0  0  0  0
   -9.7429   -1.0177    2.4036 H   0  0  0  0  0  0  0  0  0  0  0  0
   -7.6979    0.3335    2.7797 H   0  0  0  0  0  0  0  0  0  0  0  0
   -8.2579   -2.6254   -1.0754 H   0  0  0  0  0  0  0  0  0  0  0  0
   -5.4181    0.9994    1.9824 H   0  0  0  0  0  0  0  0  0  0  0  0
   -4.0364   -0.4086   -1.8417 H   0  0  0  0  0  0  0  0  0  0  0  0
   -6.0000   -1.8794   -2.0191 H   0  0  0  0  0  0  0  0  0  0  0  0
   -2.7588    1.2041   -0.3674 H   0  0  0  0  0  0  0  0  0  0  0  0
   -4.9985    4.3834    0.2174 H   0  0  0  0  0  0  0  0  0  0  0  0
   -6.2833    1.9095   -0.7447 H   0  0  0  0  0  0  0  0  0  0  0  0
   -6.7831    2.5801    0.8429 H   0  0  0  0  0  0  0  0  0  0  0  0
   -6.2947    2.5657   -3.5519 H   0  0  0  0  0  0  0  0  0  0  0  0
   -5.1518    3.3878   -2.4641 H   0  0  0  0  0  0  0  0  0  0  0  0
   -5.5843    5.5409   -3.4931 H   0  0  0  0  0  0  0  0  0  0  0  0
   -5.4610    4.4657   -4.9011 H   0  0  0  0  0  0  0  0  0  0  0  0
   -7.6924    6.0131   -4.4814 H   0  0  0  0  0  0  0  0  0  0  0  0
   -7.8582    4.3722   -5.1258 H   0  0  0  0  0  0  0  0  0  0  0  0
   -8.6702    5.3440   -2.4410 H   0  0  0  0  0  0  0  0  0  0  0  0
   -9.0300    3.7907   -3.2308 H   0  0  0  0  0  0  0  0  0  0  0  0
  1  2  2  0  0  0  0
  2  3  1  0  0  0  0
  2 23  1  0  0  0  0
  3  4  2  0  0  0  0
  3 24  1  0  0  0  0
  4  5  1  0  0  0  0
  4  7  1  0  0  0  0
  5  6  2  0  0  0  0
  6  1  1  0  0  0  0
  6 25  1  0  0  0  0
  7  8  2  0  0  0  0
  7 26  1  0  0  0  0
  8  9  1  0  0  0  0
  8 11  1  0  0  0  0
  9 10  2  0  0  0  0
  9 27  1  0  0  0  0
 10  5  1  0  0  0  0
 10 28  1  0  0  0  0
 11 12  1  0  0  0  0
 11 29  1  0  0  0  0
 12 13  1  0  0  0  0
 12 14  2  0  0  0  0
 13 15  1  0  0  0  0
 13 30  1  0  0  0  0
 15 16  1  0  0  0  0
 15 31  1  0  0  0  0
 15 32  1  0  0  0  0
 16 17  1  0  0  0  0
 16 18  2  0  0  0  0
 17 19  1  0  0  0  0
 19 20  1  0  0  0  0
 19 33  1  0  0  0  0
 19 34  1  0  0  0  0
 20 21  1  0  0  0  0
 20 35  1  0  0  0  0
 20 36  1  0  0  0  0
 21 22  1  0  0  0  0
 21 37  1  0  0  0  0
 21 38  1  0  0  0  0
 22 17  1  0  0  0  0
 22 39  1  0  0  0  0
 22 40  1  0  0  0  0
M  END
>  <Mol_ID>
2646

>  <Formula>
C16H18N4O2

>  <MolWeight>
298.33972

>  <Cat>
S7832

>  <Name>
SGC707

>  <Synonyms>
N/A

>  <Target>
Histone Methyltransferase,PRMT

>  <Form>
free base

>  <CAS>
1687736-54-4

>  <URL>
http://selleckchem.com/products/sgc707.html

$$$$
