SGI 1776 free base.cdx
 OpenBabel08302521353D

 51 54  0  0  0  0  0  0  0  0999 V2000
    1.9778    0.8374    0.2082 C   0  0  0  0  0  0  0  0  0  0  0  0
    1.9886   -0.6614    0.2179 C   0  0  0  0  0  0  0  0  0  0  0  0
    0.9006   -1.3761    0.1061 N   0  0  0  0  0  0  0  0  0  0  0  0
   -0.2613   -0.6571    0.0232 N   0  0  0  0  0  0  0  0  0  0  0  0
   -0.3804    0.7222    0.0360 C   0  0  0  0  0  0  0  0  0  0  0  0
    0.8069    1.4750    0.1021 C   0  0  0  0  0  0  0  0  0  0  0  0
   -1.6369    1.1105   -0.0259 N   0  0  0  0  0  0  0  0  0  0  0  0
   -2.3582   -0.0521   -0.0757 C   0  0  0  0  0  0  0  0  0  0  0  0
   -1.5463   -1.1750   -0.0610 C   0  0  0  0  0  0  0  0  0  0  0  0
   -1.9115   -2.5901   -0.1334 C   0  0  0  0  0  0  0  0  0  0  0  0
   -3.0313   -3.0733    0.5498 C   0  0  0  0  0  0  0  0  0  0  0  0
   -3.3879   -4.4226    0.4715 C   0  0  0  0  0  0  0  0  0  0  0  0
   -2.6742   -5.2947   -0.3552 C   0  0  0  0  0  0  0  0  0  0  0  0
   -1.6231   -4.8061   -1.1256 C   0  0  0  0  0  0  0  0  0  0  0  0
   -1.2096   -3.4766   -0.9580 C   0  0  0  0  0  0  0  0  0  0  0  0
   -0.9203   -5.4820   -2.0796 O   0  0  0  0  0  0  0  0  0  0  0  0
   -1.2697   -6.8132   -2.4189 C   0  0  0  0  0  0  0  0  0  0  0  0
   -2.6037   -6.9987   -2.4981 F   0  0  0  0  0  0  0  0  0  0  0  0
   -0.7441   -7.0850   -3.6337 F   0  0  0  0  0  0  0  0  0  0  0  0
   -0.7510   -7.6854   -1.5309 F   0  0  0  0  0  0  0  0  0  0  0  0
    3.2065   -1.2904    0.3460 N   0  0  0  0  0  0  0  0  0  0  0  0
    3.4765   -2.5920   -0.2365 C   0  0  0  0  0  0  0  0  0  0  0  0
    3.9991   -3.5822    0.8169 C   0  0  0  0  0  0  0  0  0  0  0  0
    4.3227   -4.9349    0.1588 C   0  0  0  0  0  0  0  0  0  0  0  0
    3.0568   -5.6806   -0.2525 C   0  0  0  0  0  0  0  0  0  0  0  0
    2.1792   -5.8986    0.9069 N   0  0  0  0  0  0  0  0  0  0  0  0
    1.7898   -4.6224    1.5379 C   0  0  0  0  0  0  0  0  0  0  0  0
    3.0135   -3.8198    1.9711 C   0  0  0  0  0  0  0  0  0  0  0  0
    0.9768   -6.5913    0.4637 C   0  0  0  0  0  0  0  0  0  0  0  0
    2.9187    1.3675    0.2553 H   0  0  0  0  0  0  0  0  0  0  0  0
    0.7453    2.5550    0.0674 H   0  0  0  0  0  0  0  0  0  0  0  0
   -3.4386   -0.0262   -0.1403 H   0  0  0  0  0  0  0  0  0  0  0  0
   -3.6298   -2.4090    1.1733 H   0  0  0  0  0  0  0  0  0  0  0  0
   -4.2446   -4.7895    1.0334 H   0  0  0  0  0  0  0  0  0  0  0  0
   -2.9826   -6.3353   -0.3818 H   0  0  0  0  0  0  0  0  0  0  0  0
   -0.3356   -3.1286   -1.5061 H   0  0  0  0  0  0  0  0  0  0  0  0
    4.0277   -0.7286    0.5345 H   0  0  0  0  0  0  0  0  0  0  0  0
    2.5965   -2.9788   -0.7591 H   0  0  0  0  0  0  0  0  0  0  0  0
    4.2439   -2.4568   -1.0092 H   0  0  0  0  0  0  0  0  0  0  0  0
    4.9247   -3.1721    1.2402 H   0  0  0  0  0  0  0  0  0  0  0  0
    4.8839   -5.5572    0.8698 H   0  0  0  0  0  0  0  0  0  0  0  0
    4.9692   -4.7930   -0.7136 H   0  0  0  0  0  0  0  0  0  0  0  0
    3.3459   -6.6480   -0.6821 H   0  0  0  0  0  0  0  0  0  0  0  0
    2.5348   -5.1344   -1.0508 H   0  0  0  0  0  0  0  0  0  0  0  0
    1.1649   -4.0220    0.8674 H   0  0  0  0  0  0  0  0  0  0  0  0
    1.1885   -4.8315    2.4319 H   0  0  0  0  0  0  0  0  0  0  0  0
    3.5307   -4.3710    2.7669 H   0  0  0  0  0  0  0  0  0  0  0  0
    2.6921   -2.8715    2.4152 H   0  0  0  0  0  0  0  0  0  0  0  0
    0.2654   -6.7544    1.2795 H   0  0  0  0  0  0  0  0  0  0  0  0
    0.4790   -6.0079   -0.2995 H   0  0  0  0  0  0  0  0  0  0  0  0
    1.2152   -7.5664    0.0286 H   0  0  0  0  0  0  0  0  0  0  0  0
  1  2  1  0  0  0  0
  1 30  1  0  0  0  0
  2  3  2  0  0  0  0
  2 21  1  0  0  0  0
  3  4  1  0  0  0  0
  4  5  1  0  0  0  0
  4  9  1  0  0  0  0
  5  6  1  0  0  0  0
  5  7  2  0  0  0  0
  6  1  2  0  0  0  0
  6 31  1  0  0  0  0
  7  8  1  0  0  0  0
  8  9  2  0  0  0  0
  8 32  1  0  0  0  0
  9 10  1  0  0  0  0
 10 11  2  0  0  0  0
 11 12  1  0  0  0  0
 11 33  1  0  0  0  0
 12 13  2  0  0  0  0
 12 34  1  0  0  0  0
 13 14  1  0  0  0  0
 13 35  1  0  0  0  0
 14 15  2  0  0  0  0
 14 16  1  0  0  0  0
 15 10  1  0  0  0  0
 15 36  1  0  0  0  0
 16 17  1  0  0  0  0
 17 18  1  0  0  0  0
 17 19  1  0  0  0  0
 17 20  1  0  0  0  0
 21 22  1  0  0  0  0
 21 37  1  0  0  0  0
 22 23  1  0  0  0  0
 22 38  1  0  0  0  0
 22 39  1  0  0  0  0
 23 24  1  0  0  0  0
 23 40  1  0  0  0  0
 24 25  1  0  0  0  0
 24 41  1  0  0  0  0
 24 42  1  0  0  0  0
 25 26  1  0  0  0  0
 25 43  1  0  0  0  0
 25 44  1  0  0  0  0
 26 27  1  0  0  0  0
 26 29  1  0  0  0  0
 27 28  1  0  0  0  0
 27 45  1  0  0  0  0
 27 46  1  0  0  0  0
 28 23  1  0  0  0  0
 28 47  1  0  0  0  0
 28 48  1  0  0  0  0
 29 49  1  0  0  0  0
 29 50  1  0  0  0  0
 29 51  1  0  0  0  0
M  END
>  <Mol_ID>
642

>  <Formula>
C20H22F3N5O

>  <MolWeight>
405.4167896

>  <Cat>
S2198

>  <Name>
SGI-1776 free base

>  <Synonyms>
N/A

>  <Target>
Apoptosis related,Autophagy,FLT3,Haspin Kinase,Pim

>  <Form>
free base

>  <CAS>
1025065-69-3

>  <URL>
http://selleckchem.com/products/SGI-1776.html

$$$$
