SGN-2FF
 OpenBabel08302521313D

 22 22  0  0  0  0  0  0  0  0999 V2000
    0.8118    1.2550   -0.2165 C   0  0  1  0  0  0  0  0  0  0  0  0
    1.5655   -0.0125    0.2278 C   0  0  2  0  0  0  0  0  0  0  0  0
    0.8380   -1.2680   -0.2691 C   0  0  2  0  0  0  0  0  0  0  0  0
   -0.6428   -1.2261    0.1202 C   0  0  1  0  0  0  0  0  0  0  0  0
   -1.2732    0.1059   -0.3052 C   0  0  3  0  0  0  0  0  0  0  0  0
   -0.5500    1.2153    0.2231 O   0  0  0  0  0  0  0  0  0  0  0  0
   -1.3488    0.2090   -1.7270 O   0  0  0  0  0  0  0  0  0  0  0  0
    1.4259    2.5318    0.3448 C   0  0  0  0  0  0  0  0  0  0  0  0
    1.6471   -0.1226    1.6614 O   0  0  0  0  0  0  0  0  0  0  0  0
    1.4726   -2.4233    0.3025 O   0  0  0  0  0  0  0  0  0  0  0  0
   -1.3012   -2.2312   -0.5349 F   0  0  0  0  0  0  0  0  0  0  0  0
    0.8309    1.3261   -1.3112 H   0  0  0  0  0  0  0  0  0  0  0  0
    2.5950   -0.0098   -0.1472 H   0  0  0  0  0  0  0  0  0  0  0  0
    0.9278   -1.3605   -1.3570 H   0  0  0  0  0  0  0  0  0  0  0  0
   -0.7628   -1.3938    1.1957 H   0  0  0  0  0  0  0  0  0  0  0  0
   -2.3008    0.1566    0.0702 H   0  0  0  0  0  0  0  0  0  0  0  0
   -1.3954   -0.7022   -2.0695 H   0  0  0  0  0  0  0  0  0  0  0  0
    2.4824    2.6157    0.0736 H   0  0  0  0  0  0  0  0  0  0  0  0
    0.8961    3.4068   -0.0481 H   0  0  0  0  0  0  0  0  0  0  0  0
    1.3294    2.5779    1.4334 H   0  0  0  0  0  0  0  0  0  0  0  0
    2.1818    0.6250    1.9835 H   0  0  0  0  0  0  0  0  0  0  0  0
    1.6324   -2.1924    1.2408 H   0  0  0  0  0  0  0  0  0  0  0  0
  1  2  1  0  0  0  0
  1  8  1  0  0  0  0
  1 12  1  6  0  0  0
  2  3  1  0  0  0  0
  2 13  1  6  0  0  0
  2  9  1  0  0  0  0
  3  4  1  0  0  0  0
  3 14  1  6  0  0  0
  3 10  1  0  0  0  0
  4  5  1  0  0  0  0
  4 11  1  0  0  0  0
  4 15  1  1  0  0  0
  5  6  1  0  0  0  0
  5  7  1  0  0  0  0
  5 16  1  0  0  0  0
  6  1  1  0  0  0  0
  7 17  1  0  0  0  0
  8 18  1  0  0  0  0
  8 19  1  0  0  0  0
  8 20  1  0  0  0  0
  9 21  1  0  0  0  0
 10 22  1  0  0  0  0
M  END
>  <Mol_ID>
6047

>  <Formula>
C6H11FO4

>  <MolWeight>
166.1475432

>  <Cat>
S9954

>  <Name>
SGN-2FF

>  <Synonyms>
2-fluorofucose

>  <Target>
Transferase

>  <Form>
Free Base

>  <CAS>
2089647-47-0

>  <URL>
http://www.selleckchem.com/products/sgn-2ff.html

$$$$
