SGX-523 .cdx
 OpenBabel08302521393D

 39 43  0  0  0  0  0  0  0  0999 V2000
    6.6574   -4.4901    1.3014 C   0  0  0  0  0  0  0  0  0  0  0  0
    5.8502   -5.3546    2.0259 C   0  0  0  0  0  0  0  0  0  0  0  0
    4.4912   -5.0154    2.1773 C   0  0  0  0  0  0  0  0  0  0  0  0
    3.9860   -3.8345    1.5999 C   0  0  0  0  0  0  0  0  0  0  0  0
    4.8126   -2.9698    0.8710 C   0  0  0  0  0  0  0  0  0  0  0  0
    6.1571   -3.3140    0.7219 C   0  0  0  0  0  0  0  0  0  0  0  0
    6.3741   -6.4775    2.5503 N   0  0  0  0  0  0  0  0  0  0  0  0
    5.5535   -7.2968    3.2449 C   0  0  0  0  0  0  0  0  0  0  0  0
    4.2106   -7.0474    3.4526 C   0  0  0  0  0  0  0  0  0  0  0  0
    3.6730   -5.8879    2.9082 C   0  0  0  0  0  0  0  0  0  0  0  0
    4.0432   -1.5421    0.1224 S   0  0  0  0  0  0  0  0  0  0  0  0
    5.3440   -0.4094    0.0964 C   0  0  0  0  0  0  0  0  0  0  0  0
    5.5366    0.5477    1.0652 N   0  0  0  0  0  0  0  0  0  0  0  0
    6.6269    1.2720    0.6126 C   0  0  0  0  0  0  0  0  0  0  0  0
    7.0499    0.7850   -0.5337 N   0  0  0  0  0  0  0  0  0  0  0  0
    6.2307   -0.2712   -0.8662 N   0  0  0  0  0  0  0  0  0  0  0  0
    4.8200    0.7685    2.2169 N   0  0  0  0  0  0  0  0  0  0  0  0
    5.2644    1.7774    2.9013 C   0  0  0  0  0  0  0  0  0  0  0  0
    6.4297    2.6342    2.5430 C   0  0  0  0  0  0  0  0  0  0  0  0
    7.0734    2.3483    1.4032 C   0  0  0  0  0  0  0  0  0  0  0  0
    4.5764    2.1255    4.1312 C   0  0  0  0  0  0  0  0  0  0  0  0
    3.4873    1.4432    4.7353 C   0  0  0  0  0  0  0  0  0  0  0  0
    3.0715    2.0178    5.8665 N   0  0  0  0  0  0  0  0  0  0  0  0
    3.8809    3.0796    5.9963 N   0  0  0  0  0  0  0  0  0  0  0  0
    4.7975    3.1886    4.9897 C   0  0  0  0  0  0  0  0  0  0  0  0
    3.7236    3.9670    7.1230 C   0  0  0  0  0  0  0  0  0  0  0  0
    7.7079   -4.7435    1.1704 H   0  0  0  0  0  0  0  0  0  0  0  0
    2.9293   -3.5977    1.7137 H   0  0  0  0  0  0  0  0  0  0  0  0
    6.8402   -2.6977    0.1421 H   0  0  0  0  0  0  0  0  0  0  0  0
    6.0240   -8.1914    3.6435 H   0  0  0  0  0  0  0  0  0  0  0  0
    3.5982   -7.7372    4.0222 H   0  0  0  0  0  0  0  0  0  0  0  0
    2.6183   -5.6690    3.0546 H   0  0  0  0  0  0  0  0  0  0  0  0
    6.7472    3.4494    3.1748 H   0  0  0  0  0  0  0  0  0  0  0  0
    7.9291    2.9254    1.0719 H   0  0  0  0  0  0  0  0  0  0  0  0
    2.9891    0.5463    4.3863 H   0  0  0  0  0  0  0  0  0  0  0  0
    5.5044    4.0055    4.9786 H   0  0  0  0  0  0  0  0  0  0  0  0
    2.6893    4.3188    7.1465 H   0  0  0  0  0  0  0  0  0  0  0  0
    3.9658    3.4129    8.0330 H   0  0  0  0  0  0  0  0  0  0  0  0
    4.4016    4.8173    7.0117 H   0  0  0  0  0  0  0  0  0  0  0  0
  1  2  2  0  0  0  0
  1 27  1  0  0  0  0
  2  3  1  0  0  0  0
  2  7  1  0  0  0  0
  3  4  2  0  0  0  0
  4  5  1  0  0  0  0
  4 28  1  0  0  0  0
  5  6  2  0  0  0  0
  5 11  1  0  0  0  0
  6  1  1  0  0  0  0
  6 29  1  0  0  0  0
  7  8  2  0  0  0  0
  8  9  1  0  0  0  0
  8 30  1  0  0  0  0
  9 10  2  0  0  0  0
  9 31  1  0  0  0  0
 10  3  1  0  0  0  0
 10 32  1  0  0  0  0
 11 12  1  0  0  0  0
 12 13  1  0  0  0  0
 13 14  1  0  0  0  0
 13 17  1  0  0  0  0
 14 15  2  0  0  0  0
 15 16  1  0  0  0  0
 16 12  2  0  0  0  0
 17 18  2  0  0  0  0
 18 19  1  0  0  0  0
 18 21  1  0  0  0  0
 19 20  2  0  0  0  0
 19 33  1  0  0  0  0
 20 14  1  0  0  0  0
 20 34  1  0  0  0  0
 21 22  1  0  0  0  0
 22 23  2  0  0  0  0
 22 35  1  0  0  0  0
 23 24  1  0  0  0  0
 24 25  1  0  0  0  0
 24 26  1  0  0  0  0
 25 21  2  0  0  0  0
 25 36  1  0  0  0  0
 26 37  1  0  0  0  0
 26 38  1  0  0  0  0
 26 39  1  0  0  0  0
M  END
>  <Mol_ID>
8209

>  <Formula>
C18H13N7S

>  <MolWeight>
359.40772

>  <Cat>
S1112

>  <Name>
SGX-523

>  <Synonyms>
N/A

>  <Target>
c-Met

>  <Form>
free base

>  <CAS>
1022150-57-7

>  <URL>
http://selleckchem.com/products/SGX-523.html

$$$$
