SHP099
 OpenBabel08302521313D

 42 44  0  0  0  0  0  0  0  0999 V2000
    0.7185    1.1811   -0.3672 N   0  0  0  0  0  0  0  0  0  0  0  0
   -1.4440   -2.3615   -0.2630 N   0  0  0  0  0  0  0  0  0  0  0  0
    0.8824    3.4489   -1.0122 N   0  0  0  0  0  0  0  0  0  0  0  0
    3.0777    2.8236   -2.6625 N   0  0  0  0  0  0  0  0  0  0  0  0
    0.9941    5.6915   -1.5921 N   0  0  0  0  0  0  0  0  0  0  0  0
   -0.7432   -1.1877    0.2838 C   0  0  0  0  0  0  0  0  0  0  0  0
    0.7150   -1.2304   -0.2143 C   0  0  0  0  0  0  0  0  0  0  0  0
   -1.4369    0.1066   -0.2008 C   0  0  0  0  0  0  0  0  0  0  0  0
    1.4681    0.0435    0.1535 C   0  0  0  0  0  0  0  0  0  0  0  0
   -0.6316    1.3673    0.1469 C   0  0  0  0  0  0  0  0  0  0  0  0
   -0.8034   -1.3076    1.8155 C   0  0  0  0  0  0  0  0  0  0  0  0
    1.3329    2.1802   -1.0927 C   0  0  0  0  0  0  0  0  0  0  0  0
    2.4067    1.9015   -1.9456 C   0  0  0  0  0  0  0  0  0  0  0  0
    1.5285    4.4046   -1.7209 C   0  0  0  0  0  0  0  0  0  0  0  0
    2.6336    4.0988   -2.5465 C   0  0  0  0  0  0  0  0  0  0  0  0
    3.4495    5.0888   -3.2791 C   0  0  0  0  0  0  0  0  0  0  0  0
    2.9040    6.2541   -3.8419 C   0  0  0  0  0  0  0  0  0  0  0  0
    4.8380    4.8900   -3.4273 C   0  0  0  0  0  0  0  0  0  0  0  0
    3.7096    7.2062   -4.4694 C   0  0  0  0  0  0  0  0  0  0  0  0
    5.6448    5.8276   -4.0762 C   0  0  0  0  0  0  0  0  0  0  0  0
    5.0794    6.9912   -4.5862 C   0  0  0  0  0  0  0  0  0  0  0  0
   -2.4202   -2.3479    0.0263 H   0  0  0  0  0  0  0  0  0  0  0  0
   -1.4550   -2.3131   -1.2822 H   0  0  0  0  0  0  0  0  0  0  0  0
    0.2826    5.6641   -0.8690 H   0  0  0  0  0  0  0  0  0  0  0  0
    1.7140    6.3843   -1.4163 H   0  0  0  0  0  0  0  0  0  0  0  0
    0.7297   -1.3339   -1.3091 H   0  0  0  0  0  0  0  0  0  0  0  0
    1.2454   -2.1008    0.1906 H   0  0  0  0  0  0  0  0  0  0  0  0
   -1.5463    0.0699   -1.2945 H   0  0  0  0  0  0  0  0  0  0  0  0
   -2.4497    0.1865    0.2121 H   0  0  0  0  0  0  0  0  0  0  0  0
    2.4876   -0.0271   -0.2383 H   0  0  0  0  0  0  0  0  0  0  0  0
    1.5834    0.1399    1.2392 H   0  0  0  0  0  0  0  0  0  0  0  0
   -0.6092    1.5327    1.2314 H   0  0  0  0  0  0  0  0  0  0  0  0
   -1.1441    2.2289   -0.2960 H   0  0  0  0  0  0  0  0  0  0  0  0
   -0.2864   -0.4855    2.3194 H   0  0  0  0  0  0  0  0  0  0  0  0
   -1.8394   -1.3030    2.1734 H   0  0  0  0  0  0  0  0  0  0  0  0
   -0.3362   -2.2388    2.1575 H   0  0  0  0  0  0  0  0  0  0  0  0
    2.7488    0.8881   -2.1076 H   0  0  0  0  0  0  0  0  0  0  0  0
    1.8322    6.4383   -3.8056 H   0  0  0  0  0  0  0  0  0  0  0  0
    5.3032    3.9902   -3.0281 H   0  0  0  0  0  0  0  0  0  0  0  0
    3.2605    8.1125   -4.8667 H   0  0  0  0  0  0  0  0  0  0  0  0
    6.7111    5.6455   -4.1787 H   0  0  0  0  0  0  0  0  0  0  0  0
    5.7040    7.7277   -5.0830 H   0  0  0  0  0  0  0  0  0  0  0  0
  1  9  1  0  0  0  0
  1 10  1  0  0  0  0
  1 12  1  0  0  0  0
  2  6  1  0  0  0  0
  2 22  1  0  0  0  0
  2 23  1  0  0  0  0
  3 12  2  0  0  0  0
  3 14  1  0  0  0  0
  4 13  2  0  0  0  0
  4 15  1  0  0  0  0
  5 14  1  0  0  0  0
  5 24  1  0  0  0  0
  5 25  1  0  0  0  0
  6  7  1  0  0  0  0
  6  8  1  0  0  0  0
  6 11  1  0  0  0  0
  7  9  1  0  0  0  0
  7 26  1  0  0  0  0
  7 27  1  0  0  0  0
  8 10  1  0  0  0  0
  8 28  1  0  0  0  0
  8 29  1  0  0  0  0
  9 30  1  0  0  0  0
  9 31  1  0  0  0  0
 10 32  1  0  0  0  0
 10 33  1  0  0  0  0
 11 34  1  0  0  0  0
 11 35  1  0  0  0  0
 11 36  1  0  0  0  0
 12 13  1  0  0  0  0
 13 37  1  0  0  0  0
 14 15  2  0  0  0  0
 15 16  1  0  0  0  0
 16 17  2  0  0  0  0
 16 18  1  0  0  0  0
 17 19  1  0  0  0  0
 17 38  1  0  0  0  0
 18 20  2  0  0  0  0
 18 39  1  0  0  0  0
 19 21  2  0  0  0  0
 19 40  1  0  0  0  0
 20 21  1  0  0  0  0
 20 41  1  0  0  0  0
 21 42  1  0  0  0  0
M  END
>  <Mol_ID>
5896

>  <Formula>
C16H19Cl2N5

>  <MolWeight>
352.26156

>  <Cat>
S6388

>  <Name>
SHP099

>  <Synonyms>
N/A

>  <Target>
phosphatase

>  <Form>
Free Base

>  <CAS>
1801747-42-1

>  <URL>
http://www.selleckchem.com/products/shp099.html

$$$$
