SI-2 Hydrochloride
 OpenBabel08302521383D

 35 37  0  0  0  0  0  0  0  0999 V2000
   -0.3808   -2.8925    0.7273 C   0  0  0  0  0  0  0  0  0  0  0  0
   -3.0386   -1.5203   -0.0515 N   0  0  0  0  0  0  0  0  0  0  0  0
   -3.3529   -2.8349    0.1067 N   0  0  0  0  0  0  0  0  0  0  0  0
   -4.5796   -3.2217   -0.1278 C   0  0  0  0  0  0  0  0  0  0  0  0
   -5.7205   -2.3044   -0.5267 C   0  0  0  0  0  0  0  0  0  0  0  0
   -0.5818    0.6699    1.0106 C   0  0  0  0  0  0  0  0  0  0  0  0
    0.1191   -0.5120    1.2120 C   0  0  0  0  0  0  0  0  0  0  0  0
   -1.8116    0.4191    0.4618 N   0  0  0  0  0  0  0  0  0  0  0  0
    0.0007    1.8932    1.3785 C   0  0  0  0  0  0  0  0  0  0  0  0
   -0.7380   -1.4980    0.7578 N   0  0  0  0  0  0  0  0  0  0  0  0
    1.4061   -0.5372    1.7749 C   0  0  0  0  0  0  0  0  0  0  0  0
   -1.9120   -0.8914    0.3672 C   0  0  0  0  0  0  0  0  0  0  0  0
    1.2742    1.8863    1.9610 C   0  0  0  0  0  0  0  0  0  0  0  0
    1.9608    0.6871    2.1541 C   0  0  0  0  0  0  0  0  0  0  0  0
   -4.9336   -4.6708    0.0030 C   0  0  0  0  0  0  0  0  0  0  0  0
   -4.1698   -5.5173    0.7963 C   0  0  0  0  0  0  0  0  0  0  0  0
   -6.0597   -5.0687   -0.6440 N   0  0  0  0  0  0  0  0  0  0  0  0
   -4.6103   -6.8271    0.9736 C   0  0  0  0  0  0  0  0  0  0  0  0
   -6.4508   -6.3474   -0.4635 C   0  0  0  0  0  0  0  0  0  0  0  0
   -5.7756   -7.2497    0.3404 C   0  0  0  0  0  0  0  0  0  0  0  0
    0.5592   -2.9948    0.1755 H   0  0  0  0  0  0  0  0  0  0  0  0
   -0.2472   -3.2334    1.7576 H   0  0  0  0  0  0  0  0  0  0  0  0
   -1.1298   -3.5010    0.2290 H   0  0  0  0  0  0  0  0  0  0  0  0
   -3.7694   -0.8533   -0.2913 H   0  0  0  0  0  0  0  0  0  0  0  0
   -5.6948   -2.1376   -1.6064 H   0  0  0  0  0  0  0  0  0  0  0  0
   -6.6890   -2.7372   -0.2561 H   0  0  0  0  0  0  0  0  0  0  0  0
   -5.6645   -1.3500    0.0006 H   0  0  0  0  0  0  0  0  0  0  0  0
   -0.5415    2.8197    1.2284 H   0  0  0  0  0  0  0  0  0  0  0  0
    1.9460   -1.4675    1.9228 H   0  0  0  0  0  0  0  0  0  0  0  0
    1.7258    2.8259    2.2723 H   0  0  0  0  0  0  0  0  0  0  0  0
    2.9486    0.7058    2.6115 H   0  0  0  0  0  0  0  0  0  0  0  0
   -3.2743   -5.1616    1.2936 H   0  0  0  0  0  0  0  0  0  0  0  0
   -4.0584   -7.5088    1.6144 H   0  0  0  0  0  0  0  0  0  0  0  0
   -7.3582   -6.6335   -0.9888 H   0  0  0  0  0  0  0  0  0  0  0  0
   -6.1525   -8.2579    0.4741 H   0  0  0  0  0  0  0  0  0  0  0  0
  1 10  1  0  0  0  0
  1 21  1  0  0  0  0
  1 22  1  0  0  0  0
  1 23  1  0  0  0  0
  2  3  1  0  0  0  0
  2 12  1  0  0  0  0
  2 24  1  0  0  0  0
  3  4  2  3  0  0  0
  4  5  1  0  0  0  0
  4 15  1  0  0  0  0
  5 25  1  0  0  0  0
  5 26  1  0  0  0  0
  5 27  1  0  0  0  0
  6  7  2  0  0  0  0
  6  8  1  0  0  0  0
  6  9  1  0  0  0  0
  7 10  1  0  0  0  0
  7 11  1  0  0  0  0
  8 12  2  0  0  0  0
  9 13  2  0  0  0  0
  9 28  1  0  0  0  0
 10 12  1  0  0  0  0
 11 14  2  0  0  0  0
 11 29  1  0  0  0  0
 13 14  1  0  0  0  0
 13 30  1  0  0  0  0
 14 31  1  0  0  0  0
 15 16  2  0  0  0  0
 15 17  1  0  0  0  0
 16 18  1  0  0  0  0
 16 32  1  0  0  0  0
 17 19  2  0  0  0  0
 18 20  2  0  0  0  0
 18 33  1  0  0  0  0
 19 20  1  0  0  0  0
 19 34  1  0  0  0  0
 20 35  1  0  0  0  0
M  END
>  <Mol_ID>
7609

>  <Formula>
C15H16ClN5

>  <MolWeight>
301.77404

>  <Cat>
E2932

>  <Name>
SI-2 Hydrochloride

>  <Synonyms>
EPH 116 Hydrochloride

>  <Target>
Others

>  <Form>
hydrochloride

>  <CAS>
1992052-49-9

>  <URL>
https://www.selleckchem.com/products/si-2-hydrochloride.html

$$$$
