SIBA
 OpenBabel08302521313D

 44 46  0  0  0  0  0  0  0  0999 V2000
   -0.2388    1.2933    2.6908 S   0  0  0  0  0  0  0  0  0  0  0  0
   -0.0020   -1.8832    3.2895 O   0  0  0  0  0  0  0  0  0  0  0  0
    2.8621   -2.9141    2.4603 O   0  0  0  0  0  0  0  0  0  0  0  0
    1.2687   -4.6651    1.3797 O   0  0  0  0  0  0  0  0  0  0  0  0
   -1.5084   -3.6060    2.6672 N   0  0  0  0  0  0  0  0  0  0  0  0
   -3.3560   -4.8418    2.8559 N   0  0  0  0  0  0  0  0  0  0  0  0
   -2.2636   -1.9662    1.0321 N   0  0  0  0  0  0  0  0  0  0  0  0
   -4.5706   -2.3621    0.3770 N   0  0  0  0  0  0  0  0  0  0  0  0
   -5.8835   -4.1299    1.2055 N   0  0  0  0  0  0  0  0  0  0  0  0
    1.7680   -2.3037    1.7436 C   0  0  1  0  0  0  0  0  0  0  0  0
    0.6982   -3.3640    1.5376 C   0  0  2  0  0  0  0  0  0  0  0  0
    1.0773   -1.2278    2.5871 C   0  0  1  0  0  0  0  0  0  0  0  0
   -0.1148   -3.2405    2.8213 C   0  0  1  0  0  0  0  0  0  0  0  0
    0.5669   -0.0533    1.7403 C   0  0  0  0  0  0  0  0  0  0  0  0
   -2.4296   -3.0285    1.8361 C   0  0  0  0  0  0  0  0  0  0  0  0
   -2.1067   -4.6965    3.2459 C   0  0  0  0  0  0  0  0  0  0  0  0
    1.1322    1.8478    3.7702 C   0  0  0  0  0  0  0  0  0  0  0  0
   -3.5718   -3.8011    1.9756 C   0  0  0  0  0  0  0  0  0  0  0  0
    0.7090    3.0004    4.7042 C   0  0  0  0  0  0  0  0  0  0  0  0
   -4.6817   -3.4296    1.2002 C   0  0  0  0  0  0  0  0  0  0  0  0
   -0.4089    2.5963    5.6711 C   0  0  0  0  0  0  0  0  0  0  0  0
    1.9161    3.4920    5.5123 C   0  0  0  0  0  0  0  0  0  0  0  0
   -3.3985   -1.6932    0.3527 C   0  0  0  0  0  0  0  0  0  0  0  0
    2.7107   -2.8187    3.4165 H   0  0  0  0  0  0  0  0  0  0  0  0
    2.2122   -4.5832    1.6358 H   0  0  0  0  0  0  0  0  0  0  0  0
   -5.7821   -5.0821    1.5364 H   0  0  0  0  0  0  0  0  0  0  0  0
   -6.4045   -3.9839    0.3503 H   0  0  0  0  0  0  0  0  0  0  0  0
    2.1800   -1.9365    0.7999 H   0  0  0  0  0  0  0  0  0  0  0  0
    0.1073   -3.1374    0.6450 H   0  0  0  0  0  0  0  0  0  0  0  0
    1.7774   -0.8588    3.3420 H   0  0  0  0  0  0  0  0  0  0  0  0
    0.3014   -3.8852    3.6072 H   0  0  0  0  0  0  0  0  0  0  0  0
   -0.1813   -0.4025    1.0234 H   0  0  0  0  0  0  0  0  0  0  0  0
    1.3854    0.3889    1.1624 H   0  0  0  0  0  0  0  0  0  0  0  0
   -1.5878   -5.3534    3.9328 H   0  0  0  0  0  0  0  0  0  0  0  0
    1.4797    1.0073    4.3776 H   0  0  0  0  0  0  0  0  0  0  0  0
    1.9587    2.1742    3.1299 H   0  0  0  0  0  0  0  0  0  0  0  0
    0.3549    3.8440    4.0978 H   0  0  0  0  0  0  0  0  0  0  0  0
   -0.1308    1.7084    6.2491 H   0  0  0  0  0  0  0  0  0  0  0  0
   -0.6236    3.4054    6.3780 H   0  0  0  0  0  0  0  0  0  0  0  0
   -1.3414    2.3800    5.1415 H   0  0  0  0  0  0  0  0  0  0  0  0
    2.7032    3.8691    4.8513 H   0  0  0  0  0  0  0  0  0  0  0  0
    1.6281    4.3091    6.1835 H   0  0  0  0  0  0  0  0  0  0  0  0
    2.3407    2.6891    6.1249 H   0  0  0  0  0  0  0  0  0  0  0  0
   -3.3595   -0.8307   -0.3050 H   0  0  0  0  0  0  0  0  0  0  0  0
  1 14  1  0  0  0  0
  1 17  1  0  0  0  0
  2 12  1  0  0  0  0
  2 13  1  0  0  0  0
  3 24  1  0  0  0  0
  4 25  1  0  0  0  0
  5 15  1  0  0  0  0
  5 16  1  0  0  0  0
  6 16  2  0  0  0  0
  6 18  1  0  0  0  0
  7 15  1  0  0  0  0
  7 23  2  0  0  0  0
  8 20  2  0  0  0  0
  8 23  1  0  0  0  0
  9 20  1  0  0  0  0
  9 26  1  0  0  0  0
  9 27  1  0  0  0  0
 10  3  1  0  0  0  0
 10 11  1  0  0  0  0
 10 12  1  0  0  0  0
 10 28  1  6  0  0  0
 11  4  1  0  0  0  0
 11 13  1  0  0  0  0
 11 29  1  6  0  0  0
 12 14  1  0  0  0  0
 12 30  1  1  0  0  0
 13 31  1  1  0  0  0
 13  5  1  0  0  0  0
 14 32  1  0  0  0  0
 14 33  1  0  0  0  0
 15 18  2  0  0  0  0
 16 34  1  0  0  0  0
 17 19  1  0  0  0  0
 17 35  1  0  0  0  0
 17 36  1  0  0  0  0
 18 20  1  0  0  0  0
 19 21  1  0  0  0  0
 19 22  1  0  0  0  0
 19 37  1  0  0  0  0
 21 38  1  0  0  0  0
 21 39  1  0  0  0  0
 21 40  1  0  0  0  0
 22 41  1  0  0  0  0
 22 42  1  0  0  0  0
 22 43  1  0  0  0  0
 23 44  1  0  0  0  0
M  END
>  <Mol_ID>
5866

>  <Formula>
C14H21N5O3S

>  <MolWeight>
339.41324

>  <Cat>
S2971

>  <Name>
SIBA

>  <Synonyms>
5¡ä-Isobutylthio-5¡ä-deoxyadenosine, 5'-Deoxy-5'-isobutylthioadenosine, 5'-Isobutylthioadenosine

>  <Target>
Others

>  <Form>
Free Base

>  <CAS>
35899-54-8

>  <URL>
http://www.selleckchem.com/products/siba.html

$$$$
