Silmitasertib (CX-4945)?sodium salt
 OpenBabel08302521243D

 36 39  0  0  0  0  0  0  0  0999 V2000
    2.8796   -0.9319    0.8789 O   0  5  0  0  0  0  0  0  0  0  0  0
    1.4212    0.6149    0.1015 O   0  0  0  0  0  0  0  0  0  0  0  0
    5.9466   -1.8375   -2.9987 N   0  0  0  0  0  0  0  0  0  0  0  0
    7.6992   -2.7996   -4.3141 N   0  0  0  0  0  0  0  0  0  0  0  0
    5.4722    0.5770   -7.4219 N   0  0  0  0  0  0  0  0  0  0  0  0
    4.4892   -0.1242   -3.8492 C   0  0  0  0  0  0  0  0  0  0  0  0
    5.1784   -0.1793   -5.0990 C   0  0  0  0  0  0  0  0  0  0  0  0
    6.2198   -1.1093   -5.2868 C   0  0  0  0  0  0  0  0  0  0  0  0
    4.9204   -0.9879   -2.8255 C   0  0  0  0  0  0  0  0  0  0  0  0
    6.5867   -1.9097   -4.1867 C   0  0  0  0  0  0  0  0  0  0  0  0
    3.3836    0.7239   -3.5928 C   0  0  0  0  0  0  0  0  0  0  0  0
    4.2533   -0.9680   -1.6006 C   0  0  0  0  0  0  0  0  0  0  0  0
    6.8239   -1.2069   -6.5596 C   0  0  0  0  0  0  0  0  0  0  0  0
    4.8801    0.6370   -6.2042 C   0  0  0  0  0  0  0  0  0  0  0  0
    3.1493   -0.1353   -1.3467 C   0  0  0  0  0  0  0  0  0  0  0  0
    2.7232    0.7117   -2.3678 C   0  0  0  0  0  0  0  0  0  0  0  0
    8.0105   -3.8062   -3.3681 C   0  0  0  0  0  0  0  0  0  0  0  0
    6.4181   -0.3612   -7.5750 C   0  0  0  0  0  0  0  0  0  0  0  0
    7.0167   -4.6714   -2.8932 C   0  0  0  0  0  0  0  0  0  0  0  0
    9.3170   -3.9589   -2.8855 C   0  0  0  0  0  0  0  0  0  0  0  0
    2.4276   -0.1509   -0.0151 C   0  0  0  0  0  0  0  0  0  0  0  0
    7.2940   -5.6046   -1.8946 C   0  0  0  0  0  0  0  0  0  0  0  0
    9.5970   -4.8927   -1.8819 C   0  0  0  0  0  0  0  0  0  0  0  0
    8.5812   -5.7019   -1.3748 C   0  0  0  0  0  0  0  0  0  0  0  0
    8.5140   -2.2407   -4.5420 H   0  0  0  0  0  0  0  0  0  0  0  0
    2.9937    1.3989   -4.3469 H   0  0  0  0  0  0  0  0  0  0  0  0
    4.5937   -1.6355   -0.8077 H   0  0  0  0  0  0  0  0  0  0  0  0
    7.5825   -1.9540   -6.7678 H   0  0  0  0  0  0  0  0  0  0  0  0
    4.1184    1.4095   -6.1472 H   0  0  0  0  0  0  0  0  0  0  0  0
    1.8637    1.3604   -2.2026 H   0  0  0  0  0  0  0  0  0  0  0  0
    6.8549   -0.4222   -8.5666 H   0  0  0  0  0  0  0  0  0  0  0  0
    6.0017   -4.5882   -3.2749 H   0  0  0  0  0  0  0  0  0  0  0  0
   10.1194   -3.3226   -3.2461 H   0  0  0  0  0  0  0  0  0  0  0  0
    6.4921   -6.2257   -1.5061 H   0  0  0  0  0  0  0  0  0  0  0  0
   10.6011   -4.9685   -1.4742 H   0  0  0  0  0  0  0  0  0  0  0  0
    8.7853   -6.3970   -0.5656 H   0  0  0  0  0  0  0  0  0  0  0  0
  1 21  1  0  0  0  0
  2 21  2  0  0  0  0
  3  9  2  0  0  0  0
  3 10  1  0  0  0  0
  4 10  1  0  0  0  0
  4 17  1  0  0  0  0
  4 25  1  0  0  0  0
  5 14  2  0  0  0  0
  5 18  1  0  0  0  0
  6  7  2  0  0  0  0
  6  9  1  0  0  0  0
  6 11  1  0  0  0  0
  7  8  1  0  0  0  0
  7 14  1  0  0  0  0
  8 10  2  0  0  0  0
  8 13  1  0  0  0  0
  9 12  1  0  0  0  0
 11 16  2  0  0  0  0
 11 26  1  0  0  0  0
 12 15  2  0  0  0  0
 12 27  1  0  0  0  0
 13 18  2  0  0  0  0
 13 28  1  0  0  0  0
 14 29  1  0  0  0  0
 15 16  1  0  0  0  0
 15 21  1  0  0  0  0
 16 30  1  0  0  0  0
 17 19  2  0  0  0  0
 17 20  1  0  0  0  0
 18 31  1  0  0  0  0
 19 22  1  0  0  0  0
 19 32  1  0  0  0  0
 20 23  2  0  0  0  0
 20 33  1  0  0  0  0
 22 24  2  0  0  0  0
 22 34  1  0  0  0  0
 23 24  1  0  0  0  0
 23 35  1  0  0  0  0
 24 36  1  0  0  0  0
M  CHG  1   1  -1
M  END
>  <Mol_ID>
5079

>  <Formula>
C19H11ClN3NaO2

>  <MolWeight>
371.75231

>  <Cat>
S0707

>  <Name>
Silmitasertib (CX-4945)?sodium salt

>  <Synonyms>
CX-4945 sodium salt

>  <Target>
Casein Kinase

>  <Form>
sodium

>  <CAS>
1309357-15-0

>  <URL>
http://www.selleckchem.com/products/silmitasertib-sodium-salt.html

$$$$
