Silymarin.cdx
 OpenBabel08302521243D

 57 61  0  0  0  0  0  0  0  0999 V2000
    0.2424   -1.2115   -0.0559 C   0  0  0  0  0  0  0  0  0  0  0  0
   -1.1503   -1.0923   -0.0943 C   0  0  0  0  0  0  0  0  0  0  0  0
   -1.7884    0.1598   -0.1889 C   0  0  0  0  0  0  0  0  0  0  0  0
   -1.0008    1.3078   -0.2598 C   0  0  0  0  0  0  0  0  0  0  0  0
    0.3898    1.2055   -0.2150 C   0  0  0  0  0  0  0  0  0  0  0  0
    1.0105   -0.0464   -0.1122 C   0  0  0  0  0  0  0  0  0  0  0  0
   -3.2975    0.2535   -0.2319 C   0  0  3  0  0  0  0  0  0  0  0  0
   -3.8735    0.2290   -1.6601 C   0  0  3  0  0  0  0  0  0  0  0  0
   -5.3067    0.3952   -1.5949 O   0  0  0  0  0  0  0  0  0  0  0  0
   -5.8719   -0.4253   -0.6542 C   0  0  0  0  0  0  0  0  0  0  0  0
   -5.1519   -1.0216    0.3803 C   0  0  0  0  0  0  0  0  0  0  0  0
   -3.8237   -0.7988    0.5904 O   0  0  0  0  0  0  0  0  0  0  0  0
   -7.1993   -0.7557   -0.8552 C   0  0  0  0  0  0  0  0  0  0  0  0
   -7.7753   -1.7946   -0.1135 C   0  0  0  0  0  0  0  0  0  0  0  0
   -7.0601   -2.3694    0.9532 C   0  0  0  0  0  0  0  0  0  0  0  0
   -5.7504   -1.9725    1.2014 C   0  0  0  0  0  0  0  0  0  0  0  0
   -7.7353   -3.0047   -2.8439 O   0  0  0  0  0  0  0  0  0  0  0  0
   -8.3132   -3.5582   -1.6729 C   0  0  3  0  0  0  0  0  0  0  0  0
   -8.9646   -2.5201   -0.7275 C   0  0  3  0  0  0  0  0  0  0  0  0
   -9.3623   -4.5809   -1.9335 C   0  0  0  0  0  0  0  0  0  0  0  0
   -9.7548   -5.2310   -0.6972 C   0  0  0  0  0  0  0  0  0  0  0  0
   -9.9684   -4.3875    0.3882 C   0  0  0  0  0  0  0  0  0  0  0  0
   -9.8192   -3.0312    0.3214 O   0  0  0  0  0  0  0  0  0  0  0  0
   -9.6408   -6.6086   -0.5381 C   0  0  0  0  0  0  0  0  0  0  0  0
   -9.8351   -7.1609    0.7229 C   0  0  0  0  0  0  0  0  0  0  0  0
  -10.1588   -6.3219    1.7904 C   0  0  0  0  0  0  0  0  0  0  0  0
  -10.2439   -4.9406    1.6319 C   0  0  0  0  0  0  0  0  0  0  0  0
    2.3755   -0.0909   -0.0674 O   0  0  0  0  0  0  0  0  0  0  0  0
    0.6498   -2.5143    0.0340 O   0  0  0  0  0  0  0  0  0  0  0  0
    2.0425   -2.7786    0.0734 C   0  0  0  0  0  0  0  0  0  0  0  0
   -3.5158   -1.0231   -2.4889 C   0  0  0  0  0  0  0  0  0  0  0  0
   -4.1103   -0.9617   -3.7881 O   0  0  0  0  0  0  0  0  0  0  0  0
   -9.7825   -4.9332   -3.0342 O   0  0  0  0  0  0  0  0  0  0  0  0
   -9.2078   -7.4416   -1.5324 O   0  0  0  0  0  0  0  0  0  0  0  0
  -10.3314   -6.8202    3.0491 O   0  0  0  0  0  0  0  0  0  0  0  0
   -1.7436   -2.0046   -0.0456 H   0  0  0  0  0  0  0  0  0  0  0  0
   -1.4616    2.2902   -0.3387 H   0  0  0  0  0  0  0  0  0  0  0  0
    0.9784    2.1178   -0.2593 H   0  0  0  0  0  0  0  0  0  0  0  0
   -3.5980    1.1906    0.2586 H   0  0  0  0  0  0  0  0  0  0  0  0
   -3.5106    1.1035   -2.2145 H   0  0  0  0  0  0  0  0  0  0  0  0
   -7.7268   -0.3276   -1.7114 H   0  0  0  0  0  0  0  0  0  0  0  0
   -7.4708   -3.1982    1.5243 H   0  0  0  0  0  0  0  0  0  0  0  0
   -5.1673   -2.4649    1.9783 H   0  0  0  0  0  0  0  0  0  0  0  0
   -8.4616   -2.8025   -3.4651 H   0  0  0  0  0  0  0  0  0  0  0  0
   -7.5044   -4.1065   -1.1731 H   0  0  0  0  0  0  0  0  0  0  0  0
   -9.5669   -1.8106   -1.3025 H   0  0  0  0  0  0  0  0  0  0  0  0
   -9.6871   -8.2258    0.8616 H   0  0  0  0  0  0  0  0  0  0  0  0
  -10.4464   -4.3025    2.4873 H   0  0  0  0  0  0  0  0  0  0  0  0
    2.7219    0.8151   -0.0922 H   0  0  0  0  0  0  0  0  0  0  0  0
    2.5368   -2.4440   -0.8435 H   0  0  0  0  0  0  0  0  0  0  0  0
    2.5003   -2.3521    0.9710 H   0  0  0  0  0  0  0  0  0  0  0  0
    2.1666   -3.8646    0.1304 H   0  0  0  0  0  0  0  0  0  0  0  0
   -2.4354   -1.0903   -2.6431 H   0  0  0  0  0  0  0  0  0  0  0  0
   -3.8510   -1.9530   -2.0194 H   0  0  0  0  0  0  0  0  0  0  0  0
   -5.0658   -1.1070   -3.6576 H   0  0  0  0  0  0  0  0  0  0  0  0
   -9.0875   -6.9345   -2.3619 H   0  0  0  0  0  0  0  0  0  0  0  0
  -10.1780   -7.7802    3.0299 H   0  0  0  0  0  0  0  0  0  0  0  0
  1  2  2  0  0  0  0
  1 29  1  0  0  0  0
  2  3  1  0  0  0  0
  2 36  1  0  0  0  0
  3  4  2  0  0  0  0
  3  7  1  0  0  0  0
  4  5  1  0  0  0  0
  4 37  1  0  0  0  0
  5  6  2  0  0  0  0
  5 38  1  0  0  0  0
  6  1  1  0  0  0  0
  6 28  1  0  0  0  0
  7  8  1  0  0  0  0
  7 39  1  0  0  0  0
  8  9  1  0  0  0  0
  8 31  1  0  0  0  0
  8 40  1  0  0  0  0
  9 10  1  0  0  0  0
 10 11  2  0  0  0  0
 10 13  1  0  0  0  0
 11 12  1  0  0  0  0
 12  7  1  0  0  0  0
 13 14  2  0  0  0  0
 13 41  1  0  0  0  0
 14 15  1  0  0  0  0
 15 16  2  0  0  0  0
 15 42  1  0  0  0  0
 16 11  1  0  0  0  0
 16 43  1  0  0  0  0
 17 18  1  0  0  0  0
 17 44  1  0  0  0  0
 18 19  1  0  0  0  0
 18 20  1  0  0  0  0
 18 45  1  0  0  0  0
 19 14  1  0  0  0  0
 19 46  1  0  0  0  0
 20 21  1  0  0  0  0
 20 33  2  0  0  0  0
 21 22  2  0  0  0  0
 21 24  1  0  0  0  0
 22 23  1  0  0  0  0
 23 19  1  0  0  0  0
 24 25  2  0  0  0  0
 24 34  1  0  0  0  0
 25 26  1  0  0  0  0
 25 47  1  0  0  0  0
 26 27  2  0  0  0  0
 26 35  1  0  0  0  0
 27 22  1  0  0  0  0
 27 48  1  0  0  0  0
 28 49  1  0  0  0  0
 29 30  1  0  0  0  0
 30 50  1  0  0  0  0
 30 51  1  0  0  0  0
 30 52  1  0  0  0  0
 31 32  1  0  0  0  0
 31 53  1  0  0  0  0
 31 54  1  0  0  0  0
 32 55  1  0  0  0  0
 34 56  1  0  0  0  0
 35 57  1  0  0  0  0
M  END
>  <Mol_ID>
482

>  <Formula>
C25H22O10

>  <MolWeight>
482.43618

>  <Cat>
S2358

>  <Name>
Silymarin

>  <Synonyms>
Silybin B

>  <Target>
Antioxidant

>  <Form>
free base

>  <CAS>
65666-07-1

>  <URL>
http://selleckchem.com/products/Silymarin(Silybin-B).html

$$$$
