Silybin B
 OpenBabel08302521563D

 57 61  0  0  1  0  0  0  0  0999 V2000
    7.3458   11.5426   -0.1802 C   0  0  0  0  0  0  0  0  0  0  0  0
    6.5351   12.4973   -0.8422 O   0  0  0  0  0  0  0  0  0  0  0  0
    6.7740   10.8777    5.7380 O   0  0  0  0  0  0  0  0  0  0  0  0
    6.9374    9.4584    5.7036 C   0  0  0  0  0  0  0  0  0  0  0  0
    5.3902   13.1657    6.0590 O   0  0  0  0  0  0  0  0  0  0  0  0
   -0.8050    7.4320    1.3167 O   0  0  0  0  0  0  0  0  0  0  0  0
    0.3696    4.6008    1.6401 O   0  0  0  0  0  0  0  0  0  0  0  0
    2.3084    3.2284    0.0791 O   0  0  0  0  0  0  0  0  0  0  0  0
    1.4551    3.8455   -4.5316 O   0  0  0  0  0  0  0  0  0  0  0  0
    5.3051   10.6158    1.0243 C   0  0  1  0  0  0  0  0  0  0  0  0
    6.5386   10.2951    0.1658 C   0  0  1  0  0  0  0  0  0  0  0  0
    4.8300    9.3317    1.4625 O   0  0  0  0  0  0  0  0  0  0  0  0
    6.1187    9.6368   -1.0737 O   0  0  0  0  0  0  0  0  0  0  0  0
    4.4536    8.6242    0.3572 C   0  0  0  0  0  0  0  0  0  0  0  0
    5.0394    8.8067   -0.8880 C   0  0  0  0  0  0  0  0  0  0  0  0
    3.2877    7.9183    0.5411 C   0  0  0  0  0  0  0  0  0  0  0  0
    4.4187    8.2274   -1.9929 C   0  0  0  0  0  0  0  0  0  0  0  0
    2.5121    7.6115   -0.5721 C   0  0  0  0  0  0  0  0  0  0  0  0
    3.1301    7.6696   -1.8379 C   0  0  0  0  0  0  0  0  0  0  0  0
    5.4635   11.3922    2.3114 C   0  0  0  0  0  0  0  0  0  0  0  0
    6.1983   10.8299    3.3666 C   0  0  0  0  0  0  0  0  0  0  0  0
    4.7348   12.5726    2.5271 C   0  0  0  0  0  0  0  0  0  0  0  0
    6.1658   11.4049    4.6308 C   0  0  0  0  0  0  0  0  0  0  0  0
    4.7378   13.1834    3.7840 C   0  0  0  0  0  0  0  0  0  0  0  0
    5.4466   12.5895    4.8220 C   0  0  0  0  0  0  0  0  0  0  0  0
    0.9834    7.5944   -0.3558 C   0  0  1  0  0  0  0  0  0  0  0  0
    0.1721    7.1367   -1.4644 O   0  0  0  0  0  0  0  0  0  0  0  0
    0.4769    6.9324    0.9531 C   0  0  2  0  0  0  0  0  0  0  0  0
    0.4028    5.7967   -1.6687 C   0  0  0  0  0  0  0  0  0  0  0  0
    0.5157    5.4313    0.7451 C   0  0  0  0  0  0  0  0  0  0  0  0
    0.8038    4.9808   -0.6155 C   0  0  0  0  0  0  0  0  0  0  0  0
    0.4909    5.3846   -2.9971 C   0  0  0  0  0  0  0  0  0  0  0  0
    1.6190    3.8916   -0.8912 C   0  0  0  0  0  0  0  0  0  0  0  0
    1.2258    4.2483   -3.2524 C   0  0  0  0  0  0  0  0  0  0  0  0
    1.8565    3.5504   -2.2221 C   0  0  0  0  0  0  0  0  0  0  0  0
    7.7522   11.9834    0.7239 H   0  0  0  0  0  0  0  0  0  0  0  0
    8.1702   11.2897   -0.8579 H   0  0  0  0  0  0  0  0  0  0  0  0
    6.2726   12.1099   -1.6939 H   0  0  0  0  0  0  0  0  0  0  0  0
    5.9843    8.9537    5.5042 H   0  0  0  0  0  0  0  0  0  0  0  0
    7.6980    9.1649    4.9752 H   0  0  0  0  0  0  0  0  0  0  0  0
    7.2848    9.1372    6.6892 H   0  0  0  0  0  0  0  0  0  0  0  0
    5.9310   12.5880    6.6312 H   0  0  0  0  0  0  0  0  0  0  0  0
   -0.8663    8.3614    1.0404 H   0  0  0  0  0  0  0  0  0  0  0  0
    2.0141    3.5470    0.9588 H   0  0  0  0  0  0  0  0  0  0  0  0
    0.8386    4.3054   -5.1209 H   0  0  0  0  0  0  0  0  0  0  0  0
    4.5201   11.0993    0.4210 H   0  0  0  0  0  0  0  0  0  0  0  0
    7.2018    9.5832    0.6840 H   0  0  0  0  0  0  0  0  0  0  0  0
    2.9234    7.8561    1.5600 H   0  0  0  0  0  0  0  0  0  0  0  0
    4.8534    8.3218   -2.9821 H   0  0  0  0  0  0  0  0  0  0  0  0
    2.5991    7.3618   -2.7357 H   0  0  0  0  0  0  0  0  0  0  0  0
    6.7379    9.9099    3.1858 H   0  0  0  0  0  0  0  0  0  0  0  0
    4.1357   13.0172    1.7318 H   0  0  0  0  0  0  0  0  0  0  0  0
    4.1653   14.0850    3.9633 H   0  0  0  0  0  0  0  0  0  0  0  0
    0.7474    8.6654   -0.2894 H   0  0  0  0  0  0  0  0  0  0  0  0
    1.1249    7.1310    1.8051 H   0  0  0  0  0  0  0  0  0  0  0  0
    0.0807    6.0057   -3.7800 H   0  0  0  0  0  0  0  0  0  0  0  0
    2.5565    2.7612   -2.4514 H   0  0  0  0  0  0  0  0  0  0  0  0
  1  2  1  0  0  0  0
  1 36  1  0  0  0  0
  1 37  1  0  0  0  0
  2 38  1  0  0  0  0
  3  4  1  0  0  0  0
  3 23  1  0  0  0  0
  4 39  1  0  0  0  0
  4 40  1  0  0  0  0
  4 41  1  0  0  0  0
  5 25  1  0  0  0  0
  5 42  1  0  0  0  0
  6 43  1  0  0  0  0
  7 30  2  0  0  0  0
  8 33  1  0  0  0  0
  8 44  1  0  0  0  0
  9 34  1  0  0  0  0
  9 45  1  0  0  0  0
 10 11  1  0  0  0  0
 10 12  1  0  0  0  0
 10 46  1  6  0  0  0
 10 20  1  0  0  0  0
 11 13  1  0  0  0  0
 11 47  1  1  0  0  0
 11  1  1  0  0  0  0
 12 14  1  0  0  0  0
 13 15  1  0  0  0  0
 14 15  2  0  0  0  0
 14 16  1  0  0  0  0
 15 17  1  0  0  0  0
 16 18  2  0  0  0  0
 16 48  1  0  0  0  0
 17 19  2  0  0  0  0
 17 49  1  0  0  0  0
 18 19  1  0  0  0  0
 19 50  1  0  0  0  0
 20 21  2  0  0  0  0
 20 22  1  0  0  0  0
 21 23  1  0  0  0  0
 21 51  1  0  0  0  0
 22 24  2  0  0  0  0
 22 52  1  0  0  0  0
 23 25  2  0  0  0  0
 24 25  1  0  0  0  0
 24 53  1  0  0  0  0
 26 27  1  0  0  0  0
 26 28  1  0  0  0  0
 26 54  1  1  0  0  0
 26 18  1  0  0  0  0
 27 29  1  0  0  0  0
 28  6  1  0  0  0  0
 28 30  1  0  0  0  0
 28 55  1  1  0  0  0
 29 31  2  0  0  0  0
 29 32  1  0  0  0  0
 30 31  1  0  0  0  0
 31 33  1  0  0  0  0
 32 34  2  0  0  0  0
 32 56  1  0  0  0  0
 33 35  2  0  0  0  0
 34 35  1  0  0  0  0
 35 57  1  0  0  0  0
M  END
>  <Mol_ID>
10054

>  <Formula>
C25H22O10

>  <MolWeight>
482.43618

>  <Cat>
E5616

>  <Name>
Silybin B

>  <Synonyms>
Silibinin B

>  <Target>
Beta Amyloid

>  <Form>
free base

>  <CAS>
142797-34-0

>  <URL>
https://www.selleckchem.com/products/silybin-b.html

$$$$
