Simurosertib
 OpenBabel08302521353D

 43 47  0  0  0  0  0  0  0  0999 V2000
    0.7368    0.2654   -0.6392 C   0  0  3  0  0  0  0  0  0  0  0  0
   -0.2531    1.4177   -0.8511 C   0  0  0  0  0  0  0  0  0  0  0  0
   -1.6568    0.9734   -0.4211 C   0  0  0  0  0  0  0  0  0  0  0  0
   -1.6458   -0.3671    0.2183 N   0  0  3  0  0  0  0  0  0  0  0  0
   -0.6505   -0.3942    1.3447 C   0  0  1  0  0  0  0  0  0  0  0  0
    0.7745   -0.0531    0.8614 C   0  0  0  0  0  0  0  0  0  0  0  0
   -1.1368    0.4891    2.5033 C   0  0  0  0  0  0  0  0  0  0  0  0
   -0.2953    1.0832    3.2985 N   0  0  0  0  0  0  0  0  0  0  0  0
   -0.9001    1.8229    4.3203 C   0  0  0  0  0  0  0  0  0  0  0  0
   -2.2545    1.9354    4.4506 C   0  0  0  0  0  0  0  0  0  0  0  0
   -3.1719    1.2995    3.5573 C   0  0  0  0  0  0  0  0  0  0  0  0
   -2.5148    0.5223    2.6355 N   0  0  0  0  0  0  0  0  0  0  0  0
   -0.1831    2.5046    5.3301 C   0  0  0  0  0  0  0  0  0  0  0  0
   -1.0458    3.0893    6.2425 C   0  0  0  0  0  0  0  0  0  0  0  0
   -2.6884    2.8790    5.7753 S   0  0  0  0  0  0  0  0  0  0  0  0
   -0.6151    3.7988    7.4859 C   0  0  0  0  0  0  0  0  0  0  0  0
   -1.3986    4.3638    8.5324 C   0  0  0  0  0  0  0  0  0  0  0  0
   -0.6236    4.9028    9.4852 N   0  0  0  0  0  0  0  0  0  0  0  0
    0.6268    4.6815    9.0597 N   0  0  0  0  0  0  0  0  0  0  0  0
    0.6896    4.0177    7.8703 C   0  0  0  0  0  0  0  0  0  0  0  0
   -2.8740    4.3979    8.6936 C   0  0  0  0  0  0  0  0  0  0  0  0
   -4.3921    1.4113    3.5539 O   0  0  0  0  0  0  0  0  0  0  0  0
   -1.1864   -1.3427   -0.8034 C   0  0  0  0  0  0  0  0  0  0  0  0
    0.1974   -0.9758   -1.3660 C   0  0  0  0  0  0  0  0  0  0  0  0
    1.7332    0.5350   -1.0033 H   0  0  0  0  0  0  0  0  0  0  0  0
   -0.2670    1.7195   -1.9040 H   0  0  0  0  0  0  0  0  0  0  0  0
    0.0554    2.2918   -0.2641 H   0  0  0  0  0  0  0  0  0  0  0  0
   -2.0937    1.7212    0.2506 H   0  0  0  0  0  0  0  0  0  0  0  0
   -2.3273    0.9539   -1.2901 H   0  0  0  0  0  0  0  0  0  0  0  0
   -0.6427   -1.4094    1.7674 H   0  0  0  0  0  0  0  0  0  0  0  0
    1.2128    0.7963    1.3955 H   0  0  0  0  0  0  0  0  0  0  0  0
    1.4333   -0.9129    1.0357 H   0  0  0  0  0  0  0  0  0  0  0  0
   -3.0698    0.0809    1.9124 H   0  0  0  0  0  0  0  0  0  0  0  0
    0.8963    2.5233    5.4004 H   0  0  0  0  0  0  0  0  0  0  0  0
    1.3936    5.0046    9.6388 H   0  0  0  0  0  0  0  0  0  0  0  0
    1.6400    3.7711    7.4226 H   0  0  0  0  0  0  0  0  0  0  0  0
   -3.3310    5.0027    7.9047 H   0  0  0  0  0  0  0  0  0  0  0  0
   -3.2889    3.3851    8.6547 H   0  0  0  0  0  0  0  0  0  0  0  0
   -3.1639    4.8302    9.6550 H   0  0  0  0  0  0  0  0  0  0  0  0
   -1.1606   -2.3500   -0.3690 H   0  0  0  0  0  0  0  0  0  0  0  0
   -1.9173   -1.3959   -1.6200 H   0  0  0  0  0  0  0  0  0  0  0  0
    0.1276   -0.7769   -2.4407 H   0  0  0  0  0  0  0  0  0  0  0  0
    0.8888   -1.8160   -1.2315 H   0  0  0  0  0  0  0  0  0  0  0  0
  1  2  1  0  0  0  0
  1 24  1  0  0  0  0
  1 25  1  0  0  0  0
  2  3  1  0  0  0  0
  2 26  1  0  0  0  0
  2 27  1  0  0  0  0
  3  4  1  0  0  0  0
  3 28  1  0  0  0  0
  3 29  1  0  0  0  0
  4  5  1  0  0  0  0
  4 23  1  0  0  0  0
  5  6  1  0  0  0  0
  5  7  1  0  0  0  0
  5 30  1  1  0  0  0
  6  1  1  0  0  0  0
  6 31  1  0  0  0  0
  6 32  1  0  0  0  0
  7  8  2  0  0  0  0
  8  9  1  0  0  0  0
  9 10  2  0  0  0  0
  9 13  1  0  0  0  0
 10 11  1  0  0  0  0
 11 12  1  0  0  0  0
 11 22  2  0  0  0  0
 12  7  1  0  0  0  0
 12 33  1  0  0  0  0
 13 14  2  0  0  0  0
 13 34  1  0  0  0  0
 14 15  1  0  0  0  0
 14 16  1  0  0  0  0
 15 10  1  0  0  0  0
 16 17  1  0  0  0  0
 17 18  2  0  0  0  0
 17 21  1  0  0  0  0
 18 19  1  0  0  0  0
 19 20  1  0  0  0  0
 19 35  1  0  0  0  0
 20 16  2  0  0  0  0
 20 36  1  0  0  0  0
 21 37  1  0  0  0  0
 21 38  1  0  0  0  0
 21 39  1  0  0  0  0
 23 24  1  0  0  0  0
 23 40  1  0  0  0  0
 23 41  1  0  0  0  0
 24 42  1  0  0  0  0
 24 43  1  0  0  0  0
M  END
>  <Mol_ID>
6749

>  <Formula>
C17H19N5OS

>  <MolWeight>
341.43066

>  <Cat>
S8925

>  <Name>
Simurosertib

>  <Synonyms>
TAK-931

>  <Target>
CDK

>  <Form>
Free base

>  <CAS>
1330782-76-7

>  <URL>
http://www.selleckchem.com/products/simurosertib.html

$$$$
