Sinapine
 OpenBabel08302521243D

 46 46  0  0  0  0  0  0  0  0999 V2000
    0.6759   -0.4261   -0.6466 C   0  0  0  0  0  0  0  0  0  0  0  0
    0.1776   -1.3530    0.2859 C   0  0  0  0  0  0  0  0  0  0  0  0
   -0.9934   -1.0526    1.0075 C   0  0  0  0  0  0  0  0  0  0  0  0
   -1.6411    0.1773    0.8008 C   0  0  0  0  0  0  0  0  0  0  0  0
   -1.1521    1.1213   -0.1009 C   0  0  0  0  0  0  0  0  0  0  0  0
    0.0005    0.8005   -0.8199 C   0  0  0  0  0  0  0  0  0  0  0  0
    1.7609   -0.4932   -1.4742 O   0  0  0  0  0  0  0  0  0  0  0  0
    2.6375   -1.6038   -1.4916 C   0  0  0  0  0  0  0  0  0  0  0  0
    0.8100   -2.5353    0.5430 O   0  0  0  0  0  0  0  0  0  0  0  0
   -1.6595   -1.8254    1.9257 O   0  0  0  0  0  0  0  0  0  0  0  0
   -1.1784   -3.1297    2.2153 C   0  0  0  0  0  0  0  0  0  0  0  0
   -1.9054    2.3743   -0.2992 C   0  0  0  0  0  0  0  0  0  0  0  0
   -1.3486    3.5541   -0.6294 C   0  0  0  0  0  0  0  0  0  0  0  0
   -2.0951    4.8198   -0.7231 C   0  0  0  0  0  0  0  0  0  0  0  0
   -1.5759    5.8875   -1.0318 O   0  0  0  0  0  0  0  0  0  0  0  0
   -3.3998    4.6973   -0.3728 O   0  0  0  0  0  0  0  0  0  0  0  0
   -3.9857    5.8906    0.1834 C   0  0  0  0  0  0  0  0  0  0  0  0
   -4.3993    6.9858   -0.8157 C   0  0  0  0  0  0  0  0  0  0  0  0
   -5.4926    6.5971   -1.8450 N   0  3  0  0  0  0  0  0  0  0  0  0
   -4.9622    5.5434   -2.8107 C   0  0  0  0  0  0  0  0  0  0  0  0
   -6.7563    6.0753   -1.1764 C   0  0  0  0  0  0  0  0  0  0  0  0
   -5.8618    7.8657   -2.6376 C   0  0  0  0  0  0  0  0  0  0  0  0
   -2.5428    0.3840    1.3786 H   0  0  0  0  0  0  0  0  0  0  0  0
    0.4103    1.5028   -1.5404 H   0  0  0  0  0  0  0  0  0  0  0  0
    3.1151   -1.7550   -0.5203 H   0  0  0  0  0  0  0  0  0  0  0  0
    2.1281   -2.5022   -1.8507 H   0  0  0  0  0  0  0  0  0  0  0  0
    3.4246   -1.3893   -2.2220 H   0  0  0  0  0  0  0  0  0  0  0  0
    1.1234   -2.9118   -0.2890 H   0  0  0  0  0  0  0  0  0  0  0  0
   -1.1630   -3.7604    1.3208 H   0  0  0  0  0  0  0  0  0  0  0  0
   -0.2043   -3.0880    2.7111 H   0  0  0  0  0  0  0  0  0  0  0  0
   -1.8801   -3.5905    2.9180 H   0  0  0  0  0  0  0  0  0  0  0  0
   -2.9733    2.2938   -0.1188 H   0  0  0  0  0  0  0  0  0  0  0  0
   -0.2826    3.6604   -0.7810 H   0  0  0  0  0  0  0  0  0  0  0  0
   -4.8402    5.5711    0.7833 H   0  0  0  0  0  0  0  0  0  0  0  0
   -3.2685    6.3198    0.8960 H   0  0  0  0  0  0  0  0  0  0  0  0
   -4.8063    7.8346   -0.2522 H   0  0  0  0  0  0  0  0  0  0  0  0
   -3.5440    7.3409   -1.3991 H   0  0  0  0  0  0  0  0  0  0  0  0
   -4.9200    4.5823   -2.2943 H   0  0  0  0  0  0  0  0  0  0  0  0
   -5.6554    5.4613   -3.6534 H   0  0  0  0  0  0  0  0  0  0  0  0
   -3.9727    5.8520   -3.1582 H   0  0  0  0  0  0  0  0  0  0  0  0
   -7.1180    6.8346   -0.4763 H   0  0  0  0  0  0  0  0  0  0  0  0
   -7.5020    5.8877   -1.9559 H   0  0  0  0  0  0  0  0  0  0  0  0
   -6.5252    5.1467   -0.6505 H   0  0  0  0  0  0  0  0  0  0  0  0
   -6.6391    8.4071   -2.0878 H   0  0  0  0  0  0  0  0  0  0  0  0
   -4.9733    8.4948   -2.7416 H   0  0  0  0  0  0  0  0  0  0  0  0
   -6.2388    7.5764   -3.6223 H   0  0  0  0  0  0  0  0  0  0  0  0
  1  2  2  0  0  0  0
  1  7  1  0  0  0  0
  2  3  1  0  0  0  0
  2  9  1  0  0  0  0
  3  4  2  0  0  0  0
  3 10  1  0  0  0  0
  4  5  1  0  0  0  0
  4 23  1  0  0  0  0
  5  6  2  0  0  0  0
  5 12  1  0  0  0  0
  6  1  1  0  0  0  0
  6 24  1  0  0  0  0
  7  8  1  0  0  0  0
  8 25  1  0  0  0  0
  8 26  1  0  0  0  0
  8 27  1  0  0  0  0
  9 28  1  0  0  0  0
 10 11  1  0  0  0  0
 11 29  1  0  0  0  0
 11 30  1  0  0  0  0
 11 31  1  0  0  0  0
 12 13  2  0  0  0  0
 12 32  1  0  0  0  0
 13 14  1  0  0  0  0
 13 33  1  0  0  0  0
 14 15  2  0  0  0  0
 14 16  1  0  0  0  0
 16 17  1  0  0  0  0
 17 18  1  0  0  0  0
 17 34  1  0  0  0  0
 17 35  1  0  0  0  0
 18 19  1  0  0  0  0
 18 36  1  0  0  0  0
 18 37  1  0  0  0  0
 19 20  1  0  0  0  0
 19 21  1  0  0  0  0
 19 22  1  0  0  0  0
 20 38  1  0  0  0  0
 20 39  1  0  0  0  0
 20 40  1  0  0  0  0
 21 41  1  0  0  0  0
 21 42  1  0  0  0  0
 21 43  1  0  0  0  0
 22 44  1  0  0  0  0
 22 45  1  0  0  0  0
 22 46  1  0  0  0  0
M  CHG  1  19   1
M  END
>  <Mol_ID>
5117

>  <Formula>
C16H24NO5+

>  <MolWeight>
310.36546

>  <Cat>
S3235

>  <Name>
Sinapine

>  <Synonyms>
N/A

>  <Target>
P-gp

>  <Form>
free base

>  <CAS>
18696-26-9

>  <URL>
http://www.selleckchem.com/products/sinapine.html

$$$$
