Sinapyl alcohol
 OpenBabel08302521453D

 29 29  0  0  0  0  0  0  0  0999 V2000
    0.9915   -0.0942   -0.0052 C   0  0  0  0  0  0  0  0  0  0  0  0
    2.1318   -0.0599   -0.7040 C   0  0  0  0  0  0  0  0  0  0  0  0
    2.9448   -1.2173   -1.1843 C   0  0  0  0  0  0  0  0  0  0  0  0
    3.0322   -1.1291   -2.5965 O   0  0  0  0  0  0  0  0  0  0  0  0
    0.0951   -3.6197    3.3448 O   0  0  0  0  0  0  0  0  0  0  0  0
    1.0796   -3.0724    4.2147 C   0  0  0  0  0  0  0  0  0  0  0  0
   -2.3714   -3.6151   -0.6634 O   0  0  0  0  0  0  0  0  0  0  0  0
   -2.6691   -3.0541   -1.9367 C   0  0  0  0  0  0  0  0  0  0  0  0
   -1.7861   -4.6277    1.7829 O   0  0  0  0  0  0  0  0  0  0  0  0
    0.3239   -1.3173    0.4385 C   0  0  0  0  0  0  0  0  0  0  0  0
    0.6093   -1.8596    1.6965 C   0  0  0  0  0  0  0  0  0  0  0  0
   -0.6330   -1.9232   -0.3908 C   0  0  0  0  0  0  0  0  0  0  0  0
   -0.0857   -2.9861    2.1398 C   0  0  0  0  0  0  0  0  0  0  0  0
   -1.3662   -3.0203    0.0516 C   0  0  0  0  0  0  0  0  0  0  0  0
   -1.0789   -3.5455    1.3187 C   0  0  0  0  0  0  0  0  0  0  0  0
    0.4854    0.8347    0.2553 H   0  0  0  0  0  0  0  0  0  0  0  0
    2.5376    0.9159   -0.9646 H   0  0  0  0  0  0  0  0  0  0  0  0
    3.9550   -1.1602   -0.7728 H   0  0  0  0  0  0  0  0  0  0  0  0
    2.5245   -2.1960   -0.9264 H   0  0  0  0  0  0  0  0  0  0  0  0
    2.1375   -1.3006   -2.9374 H   0  0  0  0  0  0  0  0  0  0  0  0
    2.0726   -3.0917    3.7532 H   0  0  0  0  0  0  0  0  0  0  0  0
    0.8069   -2.0589    4.5270 H   0  0  0  0  0  0  0  0  0  0  0  0
    1.1184   -3.6985    5.1114 H   0  0  0  0  0  0  0  0  0  0  0  0
   -2.9221   -1.9906   -1.8623 H   0  0  0  0  0  0  0  0  0  0  0  0
   -1.8338   -3.2107   -2.6287 H   0  0  0  0  0  0  0  0  0  0  0  0
   -3.5432   -3.5697   -2.3444 H   0  0  0  0  0  0  0  0  0  0  0  0
   -1.4191   -4.8140    2.6679 H   0  0  0  0  0  0  0  0  0  0  0  0
    1.3650   -1.3805    2.3088 H   0  0  0  0  0  0  0  0  0  0  0  0
   -0.7913   -1.4978   -1.3752 H   0  0  0  0  0  0  0  0  0  0  0  0
  1  2  2  3  0  0  0
  1 10  1  0  0  0  0
  1 16  1  0  0  0  0
  2  3  1  0  0  0  0
  2 17  1  0  0  0  0
  3  4  1  0  0  0  0
  3 18  1  0  0  0  0
  3 19  1  0  0  0  0
  4 20  1  0  0  0  0
  5  6  1  0  0  0  0
  5 13  1  0  0  0  0
  6 21  1  0  0  0  0
  6 22  1  0  0  0  0
  6 23  1  0  0  0  0
  7  8  1  0  0  0  0
  7 14  1  0  0  0  0
  8 24  1  0  0  0  0
  8 25  1  0  0  0  0
  8 26  1  0  0  0  0
  9 15  1  0  0  0  0
  9 27  1  0  0  0  0
 10 11  2  0  0  0  0
 10 12  1  0  0  0  0
 11 13  1  0  0  0  0
 11 28  1  0  0  0  0
 12 14  2  0  0  0  0
 12 29  1  0  0  0  0
 13 15  2  0  0  0  0
 14 15  1  0  0  0  0
M  END
>  <Mol_ID>
9603

>  <Formula>
C11H14O4

>  <MolWeight>
210.22646

>  <Cat>
E2166

>  <Name>
Sinapyl alcohol

>  <Synonyms>
NA

>  <Target>
anti-inflammatory, NO synthase, COX-2

>  <Form>
Free Base

>  <CAS>
537-33-7

>  <URL>
https://www.selleckchem.com/products/sinapyl-alcohol.html

$$$$
