Sinomenine.cdx
 OpenBabel08302521243D

 47 50  0  0  0  0  0  0  0  0999 V2000
    1.7549    2.6690    0.3099 C   0  0  0  0  0  0  0  0  0  0  0  0
    1.3950    1.4005    0.7985 C   0  0  0  0  0  0  0  0  0  0  0  0
    0.3292    0.6584    0.2324 C   0  0  0  0  0  0  0  0  0  0  0  0
   -0.4510    1.2900   -0.7691 C   0  0  0  0  0  0  0  0  0  0  0  0
   -0.0955    2.5613   -1.2441 C   0  0  0  0  0  0  0  0  0  0  0  0
    1.0045    3.2298   -0.7216 C   0  0  0  0  0  0  0  0  0  0  0  0
   -0.0363   -0.7899    0.6593 C   0  0  1  0  0  0  0  0  0  0  0  0
   -0.8212   -1.5305   -0.4670 C   0  0  1  0  0  0  0  0  0  0  0  0
   -2.0861   -0.7105   -0.7900 C   0  0  2  0  0  0  0  0  0  0  0  0
   -1.6718    0.6469   -1.3928 C   0  0  0  0  0  0  0  0  0  0  0  0
    1.1711   -1.7069    0.9559 C   0  0  0  0  0  0  0  0  0  0  0  0
    2.0670   -1.8730   -0.2574 C   0  0  0  0  0  0  0  0  0  0  0  0
    1.3999   -1.9420   -1.6112 C   0  0  0  0  0  0  0  0  0  0  0  0
    0.0617   -1.8357   -1.6615 C   0  0  0  0  0  0  0  0  0  0  0  0
    2.7660    3.4933    0.7271 O   0  0  0  0  0  0  0  0  0  0  0  0
    2.0761    0.8965    1.8686 O   0  0  0  0  0  0  0  0  0  0  0  0
    3.6284    3.0490    1.7644 C   0  0  0  0  0  0  0  0  0  0  0  0
    2.0892   -2.2008   -2.7846 O   0  0  0  0  0  0  0  0  0  0  0  0
    3.2752   -2.0538   -0.1139 O   0  0  0  0  0  0  0  0  0  0  0  0
    3.3949   -1.6350   -2.8647 C   0  0  0  0  0  0  0  0  0  0  0  0
   -2.9437   -0.6751    0.4223 N   0  0  0  0  0  0  0  0  0  0  0  0
   -0.9642   -0.7070    1.8984 C   0  0  0  0  0  0  0  0  0  0  0  0
   -2.3094   -0.0429    1.5806 C   0  0  0  0  0  0  0  0  0  0  0  0
   -4.2720   -0.1201    0.1779 C   0  0  0  0  0  0  0  0  0  0  0  0
   -0.6755    3.0367   -2.0329 H   0  0  0  0  0  0  0  0  0  0  0  0
    1.2711    4.2107   -1.1097 H   0  0  0  0  0  0  0  0  0  0  0  0
   -1.1575   -2.5121   -0.0965 H   0  0  0  0  0  0  0  0  0  0  0  0
   -2.6553   -1.2528   -1.5580 H   0  0  0  0  0  0  0  0  0  0  0  0
   -1.4485    0.4917   -2.4576 H   0  0  0  0  0  0  0  0  0  0  0  0
   -2.5077    1.3549   -1.3620 H   0  0  0  0  0  0  0  0  0  0  0  0
    0.8283   -2.7137    1.2329 H   0  0  0  0  0  0  0  0  0  0  0  0
    1.7738   -1.3660    1.7992 H   0  0  0  0  0  0  0  0  0  0  0  0
   -0.4286   -1.9688   -2.6241 H   0  0  0  0  0  0  0  0  0  0  0  0
    1.4211    0.6342    2.5341 H   0  0  0  0  0  0  0  0  0  0  0  0
    3.0852    2.9548    2.7099 H   0  0  0  0  0  0  0  0  0  0  0  0
    4.1490    2.1268    1.4907 H   0  0  0  0  0  0  0  0  0  0  0  0
    4.3917    3.8199    1.9096 H   0  0  0  0  0  0  0  0  0  0  0  0
    3.4088   -0.5925   -2.5274 H   0  0  0  0  0  0  0  0  0  0  0  0
    4.1182   -2.2431   -2.3145 H   0  0  0  0  0  0  0  0  0  0  0  0
    3.6994   -1.6520   -3.9158 H   0  0  0  0  0  0  0  0  0  0  0  0
   -1.1586   -1.7199    2.2775 H   0  0  0  0  0  0  0  0  0  0  0  0
   -0.4880   -0.1628    2.7216 H   0  0  0  0  0  0  0  0  0  0  0  0
   -2.9523   -0.1569    2.4626 H   0  0  0  0  0  0  0  0  0  0  0  0
   -2.1852    1.0367    1.4315 H   0  0  0  0  0  0  0  0  0  0  0  0
   -4.2490    0.9411   -0.0865 H   0  0  0  0  0  0  0  0  0  0  0  0
   -4.7788   -0.6706   -0.6219 H   0  0  0  0  0  0  0  0  0  0  0  0
   -4.8991   -0.2268    1.0710 H   0  0  0  0  0  0  0  0  0  0  0  0
  1  2  2  0  0  0  0
  1 15  1  0  0  0  0
  2  3  1  0  0  0  0
  2 16  1  0  0  0  0
  3  4  2  0  0  0  0
  4  5  1  0  0  0  0
  5  6  2  0  0  0  0
  5 25  1  0  0  0  0
  6  1  1  0  0  0  0
  6 26  1  0  0  0  0
  7  3  1  6  0  0  0
  7  8  1  0  0  0  0
  7 11  1  0  0  0  0
  7 22  1  0  0  0  0
  8  9  1  0  0  0  0
  8 14  1  0  0  0  0
  8 27  1  1  0  0  0
  9 10  1  0  0  0  0
  9 21  1  0  0  0  0
  9 28  1  6  0  0  0
 10  4  1  0  0  0  0
 10 29  1  0  0  0  0
 10 30  1  0  0  0  0
 11 12  1  0  0  0  0
 11 31  1  0  0  0  0
 11 32  1  0  0  0  0
 12 13  1  0  0  0  0
 12 19  2  0  0  0  0
 13 14  2  0  0  0  0
 13 18  1  0  0  0  0
 14 33  1  0  0  0  0
 15 17  1  0  0  0  0
 16 34  1  0  0  0  0
 17 35  1  0  0  0  0
 17 36  1  0  0  0  0
 17 37  1  0  0  0  0
 18 20  1  0  0  0  0
 20 38  1  0  0  0  0
 20 39  1  0  0  0  0
 20 40  1  0  0  0  0
 21 23  1  0  0  0  0
 21 24  1  0  0  0  0
 22 23  1  0  0  0  0
 22 41  1  0  0  0  0
 22 42  1  0  0  0  0
 23 43  1  0  0  0  0
 23 44  1  0  0  0  0
 24 45  1  0  0  0  0
 24 46  1  0  0  0  0
 24 47  1  0  0  0  0
M  END
>  <Mol_ID>
483

>  <Formula>
C19H23NO4

>  <MolWeight>
329.39022

>  <Cat>
S2359

>  <Name>
Sinomenine

>  <Synonyms>
Cucoline, Kukoline

>  <Target>
Immunology & Inflammation related

>  <Form>
free base

>  <CAS>
115-53-7

>  <URL>
http://selleckchem.com/products/Sinomenine(Cucoline).html

$$$$
