SIRT7 inhibitor 97491
 OpenBabel08302521333D

 32 34  0  0  0  0  0  0  0  0999 V2000
    2.3401   -0.1678    0.1212 N   0  0  0  0  0  0  0  0  0  0  0  0
   -0.1240    3.8102   -1.2125 N   0  0  0  0  0  0  0  0  0  0  0  0
    4.3571   -2.9029    0.5625 C   0  0  0  0  0  0  0  0  0  0  0  0
    3.8087   -1.7141    0.9782 O   0  0  0  0  0  0  0  0  0  0  0  0
    3.7772   -3.2107   -0.6466 C   0  0  0  0  0  0  0  0  0  0  0  0
    2.9599   -1.3531   -0.0344 C   0  0  0  0  0  0  0  0  0  0  0  0
    2.8994   -2.2311   -1.0137 N   0  0  0  0  0  0  0  0  0  0  0  0
    5.3556   -3.5322    1.4133 C   0  0  0  0  0  0  0  0  0  0  0  0
    5.8019   -2.9253    2.5952 C   0  0  0  0  0  0  0  0  0  0  0  0
    5.9044   -4.7741    1.0545 C   0  0  0  0  0  0  0  0  0  0  0  0
    6.7591   -3.5484    3.4016 C   0  0  0  0  0  0  0  0  0  0  0  0
    6.8607   -5.3971    1.8600 C   0  0  0  0  0  0  0  0  0  0  0  0
    7.2853   -4.7847    3.0354 C   0  0  0  0  0  0  0  0  0  0  0  0
    1.8292    0.6472   -0.9114 C   0  0  0  0  0  0  0  0  0  0  0  0
    1.0838    1.7922   -0.5785 C   0  0  0  0  0  0  0  0  0  0  0  0
    1.9712    0.3413   -2.2709 C   0  0  0  0  0  0  0  0  0  0  0  0
    0.4953    2.6021   -1.5623 C   0  0  0  0  0  0  0  0  0  0  0  0
    1.4471    1.1712   -3.2615 C   0  0  0  0  0  0  0  0  0  0  0  0
    0.7338    2.3107   -2.9051 C   0  0  0  0  0  0  0  0  0  0  0  0
    2.4778    0.3047    1.0021 H   0  0  0  0  0  0  0  0  0  0  0  0
   -0.7610    4.1555   -1.9244 H   0  0  0  0  0  0  0  0  0  0  0  0
   -0.5507    3.7984   -0.2918 H   0  0  0  0  0  0  0  0  0  0  0  0
    3.9502   -4.0721   -1.2751 H   0  0  0  0  0  0  0  0  0  0  0  0
    5.4099   -1.9575    2.9007 H   0  0  0  0  0  0  0  0  0  0  0  0
    5.5950   -5.2778    0.1416 H   0  0  0  0  0  0  0  0  0  0  0  0
    7.0925   -3.0655    4.3166 H   0  0  0  0  0  0  0  0  0  0  0  0
    7.2713   -6.3604    1.5682 H   0  0  0  0  0  0  0  0  0  0  0  0
    8.0264   -5.2702    3.6649 H   0  0  0  0  0  0  0  0  0  0  0  0
    0.9521    2.0591    0.4669 H   0  0  0  0  0  0  0  0  0  0  0  0
    2.5293   -0.5328   -2.5955 H   0  0  0  0  0  0  0  0  0  0  0  0
    1.6097    0.9299   -4.3083 H   0  0  0  0  0  0  0  0  0  0  0  0
    0.3577    2.9630   -3.6881 H   0  0  0  0  0  0  0  0  0  0  0  0
  1  6  1  0  0  0  0
  1 14  1  0  0  0  0
  1 20  1  0  0  0  0
  2 17  1  0  0  0  0
  2 21  1  0  0  0  0
  2 22  1  0  0  0  0
  3  4  1  0  0  0  0
  3  5  2  0  0  0  0
  3  8  1  0  0  0  0
  4  6  1  0  0  0  0
  5  7  1  0  0  0  0
  5 23  1  0  0  0  0
  6  7  2  0  0  0  0
  8  9  2  0  0  0  0
  8 10  1  0  0  0  0
  9 11  1  0  0  0  0
  9 24  1  0  0  0  0
 10 12  2  0  0  0  0
 10 25  1  0  0  0  0
 11 13  2  0  0  0  0
 11 26  1  0  0  0  0
 12 13  1  0  0  0  0
 12 27  1  0  0  0  0
 13 28  1  0  0  0  0
 14 15  2  0  0  0  0
 14 16  1  0  0  0  0
 15 17  1  0  0  0  0
 15 29  1  0  0  0  0
 16 18  2  0  0  0  0
 16 30  1  0  0  0  0
 17 19  2  0  0  0  0
 18 19  1  0  0  0  0
 18 31  1  0  0  0  0
 19 32  1  0  0  0  0
M  END
>  <Mol_ID>
6411

>  <Formula>
C15H12ClN3O

>  <MolWeight>
285.72828

>  <Cat>
E1150

>  <Name>
SIRT7 inhibitor 97491

>  <Target>
Sirtuin

>  <Form>
free base

>  <CAS>
1807758-81-1

>  <URL>
http://www.selleckchem.com/products/sirt7-inhibitor-97491.html

$$$$
