Sivelestat (ONO-5046).cdx
 OpenBabel08302520413D

 51 52  0  0  0  0  0  0  0  0999 V2000
    1.1278   -0.3790    0.5943 C   0  0  0  0  0  0  0  0  0  0  0  0
    0.1556   -1.3898    0.6064 C   0  0  0  0  0  0  0  0  0  0  0  0
   -1.1623   -1.0874    0.2601 C   0  0  0  0  0  0  0  0  0  0  0  0
   -1.5288    0.2121   -0.0962 C   0  0  0  0  0  0  0  0  0  0  0  0
   -0.5557    1.2160   -0.1194 C   0  0  0  0  0  0  0  0  0  0  0  0
    0.7722    0.9118    0.2037 C   0  0  0  0  0  0  0  0  0  0  0  0
    1.6874    1.9937    0.0570 O   0  0  0  0  0  0  0  0  0  0  0  0
    3.0865    1.9266   -0.0043 C   0  0  0  0  0  0  0  0  0  0  0  0
    3.6963    3.2870   -0.4082 C   0  0  0  0  0  0  0  0  0  0  0  0
    3.7646    0.9326    0.2274 O   0  0  0  0  0  0  0  0  0  0  0  0
    2.6423    4.2981   -0.8845 C   0  0  0  0  0  0  0  0  0  0  0  0
    4.4620    3.8690    0.7887 C   0  0  0  0  0  0  0  0  0  0  0  0
    4.6915    3.0544   -1.5609 C   0  0  0  0  0  0  0  0  0  0  0  0
   -2.4208   -2.3914    0.2452 S   0  0  0  0  0  0  0  0  0  0  0  0
   -3.3252   -1.9559   -0.8204 O   0  0  0  0  0  0  0  0  0  0  0  0
   -1.6827   -3.6081   -0.0913 O   0  0  0  0  0  0  0  0  0  0  0  0
   -3.1247   -2.3837    1.6857 N   0  0  0  0  0  2  0  0  0  0  0  0
   -2.6336   -3.1574    2.6852 C   0  0  0  0  0  0  0  0  0  0  0  0
   -1.6518   -2.6028    3.5314 C   0  0  0  0  0  0  0  0  0  0  0  0
   -1.1078   -3.3120    4.6065 C   0  0  0  0  0  0  0  0  0  0  0  0
   -1.5489   -4.5946    4.8843 C   0  0  0  0  0  0  0  0  0  0  0  0
   -2.5226   -5.1748    4.0698 C   0  0  0  0  0  0  0  0  0  0  0  0
   -3.0781   -4.4806    2.9753 C   0  0  0  0  0  0  0  0  0  0  0  0
   -4.1105   -5.2549    2.1870 C   0  0  0  0  0  0  0  0  0  0  0  0
   -4.6949   -4.6175    1.1198 N   0  0  0  0  0  0  0  0  0  0  0  0
   -4.3978   -6.4139    2.4782 O   0  0  0  0  0  0  0  0  0  0  0  0
   -5.6306   -5.2571    0.2213 C   0  0  0  0  0  0  0  0  0  0  0  0
   -4.9680   -5.9981   -0.9390 C   0  0  0  0  0  0  0  0  0  0  0  0
   -3.6221   -5.8933   -0.9988 O   0  0  0  0  0  0  0  0  0  0  0  0
   -5.6094   -6.6269   -1.7736 O   0  0  0  0  0  0  0  0  0  0  0  0
    2.1413   -0.6334    0.8814 H   0  0  0  0  0  0  0  0  0  0  0  0
    0.4211   -2.4082    0.8819 H   0  0  0  0  0  0  0  0  0  0  0  0
   -2.5571    0.4328   -0.3661 H   0  0  0  0  0  0  0  0  0  0  0  0
   -0.8379    2.2233   -0.4094 H   0  0  0  0  0  0  0  0  0  0  0  0
    1.9690    4.5871   -0.0698 H   0  0  0  0  0  0  0  0  0  0  0  0
    3.1108    5.2139   -1.2631 H   0  0  0  0  0  0  0  0  0  0  0  0
    2.0293    3.8814   -1.6919 H   0  0  0  0  0  0  0  0  0  0  0  0
    5.1372    3.1277    1.2318 H   0  0  0  0  0  0  0  0  0  0  0  0
    5.0710    4.7297    0.4867 H   0  0  0  0  0  0  0  0  0  0  0  0
    3.7794    4.2012    1.5780 H   0  0  0  0  0  0  0  0  0  0  0  0
    5.5786    2.5075   -1.2205 H   0  0  0  0  0  0  0  0  0  0  0  0
    4.2380    2.4759   -2.3727 H   0  0  0  0  0  0  0  0  0  0  0  0
    5.0407    4.0061   -1.9806 H   0  0  0  0  0  0  0  0  0  0  0  0
   -1.2912   -1.5920    3.3482 H   0  0  0  0  0  0  0  0  0  0  0  0
   -0.3503   -2.8470    5.2244 H   0  0  0  0  0  0  0  0  0  0  0  0
   -1.1326   -5.1522    5.7154 H   0  0  0  0  0  0  0  0  0  0  0  0
   -2.8540   -6.1857    4.2935 H   0  0  0  0  0  0  0  0  0  0  0  0
   -4.4697   -3.6402    0.9671 H   0  0  0  0  0  0  0  0  0  0  0  0
   -6.2429   -5.9696    0.7809 H   0  0  0  0  0  0  0  0  0  0  0  0
   -6.2614   -4.4671   -0.1958 H   0  0  0  0  0  0  0  0  0  0  0  0
   -3.2523   -5.2719   -0.3244 H   0  0  0  0  0  0  0  0  0  0  0  0
  1  2  2  0  0  0  0
  1 31  1  0  0  0  0
  2  3  1  0  0  0  0
  2 32  1  0  0  0  0
  3  4  2  0  0  0  0
  3 14  1  0  0  0  0
  4  5  1  0  0  0  0
  4 33  1  0  0  0  0
  5  6  2  0  0  0  0
  5 34  1  0  0  0  0
  6  1  1  0  0  0  0
  6  7  1  0  0  0  0
  7  8  1  0  0  0  0
  8  9  1  0  0  0  0
  8 10  2  0  0  0  0
  9 11  1  0  0  0  0
  9 12  1  0  0  0  0
  9 13  1  0  0  0  0
 11 35  1  0  0  0  0
 11 36  1  0  0  0  0
 11 37  1  0  0  0  0
 12 38  1  0  0  0  0
 12 39  1  0  0  0  0
 12 40  1  0  0  0  0
 13 41  1  0  0  0  0
 13 42  1  0  0  0  0
 13 43  1  0  0  0  0
 14 15  2  0  0  0  0
 14 16  2  0  0  0  0
 14 17  1  0  0  0  0
 17 18  1  0  0  0  0
 18 19  2  0  0  0  0
 19 20  1  0  0  0  0
 19 44  1  0  0  0  0
 20 21  2  0  0  0  0
 20 45  1  0  0  0  0
 21 22  1  0  0  0  0
 21 46  1  0  0  0  0
 22 23  2  0  0  0  0
 22 47  1  0  0  0  0
 23 18  1  0  0  0  0
 23 24  1  0  0  0  0
 24 25  1  0  0  0  0
 24 26  2  0  0  0  0
 25 27  1  0  0  0  0
 25 48  1  0  0  0  0
 27 28  1  0  0  0  0
 27 49  1  0  0  0  0
 27 50  1  0  0  0  0
 28 29  1  0  0  0  0
 28 30  2  0  0  0  0
 29 51  1  0  0  0  0
M  END
>  <Mol_ID>
3941

>  <Formula>
C20H22N2O7S

>  <MolWeight>
434.46288

>  <Cat>
S8136

>  <Name>
Sivelestat (ONO-5046)

>  <Synonyms>
ONO5046, LY544349, EI546

>  <Target>
Serine Protease

>  <Form>
Free Base

>  <CAS>
127373-66-4

>  <URL>
http://selleckchem.com/products/sivelestat-ono-5046.html

$$$$
