SJ000291942
 OpenBabel08302521273D

 38 39  0  0  0  0  0  0  0  0999 V2000
    1.9576    2.7216    2.3373 C   0  0  0  0  0  0  0  0  0  0  0  0
    1.4740    3.0600    3.6060 C   0  0  0  0  0  0  0  0  0  0  0  0
    0.0941    3.1939    3.7901 C   0  0  0  0  0  0  0  0  0  0  0  0
   -0.7871    3.0179    2.7207 C   0  0  0  0  0  0  0  0  0  0  0  0
   -0.3015    2.7101    1.4487 C   0  0  0  0  0  0  0  0  0  0  0  0
    1.0733    2.5440    1.2685 C   0  0  0  0  0  0  0  0  0  0  0  0
    2.4170    3.3380    4.7477 C   0  0  0  0  0  0  0  0  0  0  0  0
    2.7728    4.8164    4.8170 C   0  0  0  0  0  0  0  0  0  0  0  0
   -1.0626    2.5671    0.3177 O   0  0  0  0  0  0  0  0  0  0  0  0
   -2.4617    2.7494    0.4865 C   0  0  0  0  0  0  0  0  0  0  0  0
   -3.1914    2.4516   -0.8131 C   0  0  0  0  0  0  0  0  0  0  0  0
   -3.2912    3.5464   -1.6679 N   0  0  0  0  0  0  0  0  0  0  0  0
   -3.6403    1.3317   -1.0388 O   0  0  0  0  0  0  0  0  0  0  0  0
   -3.9991    3.5751   -2.8863 C   0  0  0  0  0  0  0  0  0  0  0  0
   -4.9232    2.5927   -3.2533 C   0  0  0  0  0  0  0  0  0  0  0  0
   -5.5346    2.6615   -4.5086 C   0  0  0  0  0  0  0  0  0  0  0  0
   -5.2660    3.6932   -5.3933 C   0  0  0  0  0  0  0  0  0  0  0  0
   -4.3834    4.6983   -5.0165 C   0  0  0  0  0  0  0  0  0  0  0  0
   -3.7582    4.6445   -3.7621 C   0  0  0  0  0  0  0  0  0  0  0  0
   -5.8556    3.7590   -6.5939 F   0  0  0  0  0  0  0  0  0  0  0  0
   -6.4742    1.6375   -4.8870 N   0  3  0  0  0  0  0  0  0  0  0  0
   -7.4687    1.4960   -4.1617 O   0  0  0  0  0  0  0  0  0  0  0  0
   -6.2066    0.9612   -5.8882 O   0  5  0  0  0  0  0  0  0  0  0  0
    3.0261    2.6064    2.1687 H   0  0  0  0  0  0  0  0  0  0  0  0
   -0.3057    3.4507    4.7686 H   0  0  0  0  0  0  0  0  0  0  0  0
   -1.8455    3.1386    2.9235 H   0  0  0  0  0  0  0  0  0  0  0  0
    1.4642    2.2843    0.2876 H   0  0  0  0  0  0  0  0  0  0  0  0
    1.9552    3.0239    5.6917 H   0  0  0  0  0  0  0  0  0  0  0  0
    3.3279    2.7380    4.6373 H   0  0  0  0  0  0  0  0  0  0  0  0
    1.8781    5.4359    4.9442 H   0  0  0  0  0  0  0  0  0  0  0  0
    3.4404    5.0084    5.6625 H   0  0  0  0  0  0  0  0  0  0  0  0
    3.2781    5.1449    3.9022 H   0  0  0  0  0  0  0  0  0  0  0  0
   -2.8637    2.0542    1.2353 H   0  0  0  0  0  0  0  0  0  0  0  0
   -2.6803    3.7804    0.7902 H   0  0  0  0  0  0  0  0  0  0  0  0
   -2.6940    4.3401   -1.4568 H   0  0  0  0  0  0  0  0  0  0  0  0
   -5.1858    1.7734   -2.5904 H   0  0  0  0  0  0  0  0  0  0  0  0
   -4.1785    5.5141   -5.7023 H   0  0  0  0  0  0  0  0  0  0  0  0
   -3.0632    5.4385   -3.4961 H   0  0  0  0  0  0  0  0  0  0  0  0
  1  2  2  0  0  0  0
  1 24  1  0  0  0  0
  2  3  1  0  0  0  0
  2  7  1  0  0  0  0
  3  4  2  0  0  0  0
  3 25  1  0  0  0  0
  4  5  1  0  0  0  0
  4 26  1  0  0  0  0
  5  6  2  0  0  0  0
  5  9  1  0  0  0  0
  6  1  1  0  0  0  0
  6 27  1  0  0  0  0
  7  8  1  0  0  0  0
  7 28  1  0  0  0  0
  7 29  1  0  0  0  0
  8 30  1  0  0  0  0
  8 31  1  0  0  0  0
  8 32  1  0  0  0  0
  9 10  1  0  0  0  0
 10 11  1  0  0  0  0
 10 33  1  0  0  0  0
 10 34  1  0  0  0  0
 11 12  1  0  0  0  0
 11 13  2  0  0  0  0
 12 14  1  0  0  0  0
 12 35  1  0  0  0  0
 14 15  2  0  0  0  0
 15 16  1  0  0  0  0
 15 36  1  0  0  0  0
 16 17  2  0  0  0  0
 16 21  1  0  0  0  0
 17 18  1  0  0  0  0
 17 20  1  0  0  0  0
 18 19  2  0  0  0  0
 18 37  1  0  0  0  0
 19 14  1  0  0  0  0
 19 38  1  0  0  0  0
 21 22  2  0  0  0  0
 21 23  1  0  0  0  0
M  CHG  2  21   1  23  -1
M  END
>  <Mol_ID>
5348

>  <Formula>
C16H15FN2O4

>  <MolWeight>
318.2997032

>  <Cat>
S0153

>  <Name>
SJ000291942

>  <Synonyms>
N/A

>  <Target>
TGF-beta/Smad

>  <Form>
Free Base

>  <CAS>
425613-09-8

>  <URL>
https://www.selleckchem.com/products/sj000291942.html

$$$$
