SJ6986
 OpenBabel08302521373D

 48 51  0  0  0  0  0  0  0  0999 V2000
    1.3149    2.2815    0.3605 O   0  0  0  0  0  0  0  0  0  0  0  0
    1.6074   -2.2417   -0.3930 O   0  0  0  0  0  0  0  0  0  0  0  0
    4.0453    0.3744    2.2433 O   0  0  0  0  0  0  0  0  0  0  0  0
    4.2170    4.1417   -0.2117 O   0  0  0  0  0  0  0  0  0  0  0  0
   -3.8000    1.3583   -0.8681 N   0  0  0  0  0  0  0  0  0  0  0  0
   -4.9923    1.4521    0.3345 S   0  0  0  0  0  0  0  0  0  0  0  0
   -5.7076    2.6945    0.1385 O   0  0  0  0  0  0  0  0  0  0  0  0
   -5.6952    0.1846    0.3102 O   0  0  0  0  0  0  0  0  0  0  0  0
   -3.2739    3.9384    1.9131 O   0  0  0  0  0  0  0  0  0  0  0  0
   -2.9986    4.4577    0.6269 C   0  0  0  0  0  0  0  0  0  0  0  0
   -3.3630    3.6461   -0.3771 F   0  0  0  0  0  0  0  0  0  0  0  0
   -3.6579    5.6248    0.4821 F   0  0  0  0  0  0  0  0  0  0  0  0
   -1.6765    4.7001    0.4962 F   0  0  0  0  0  0  0  0  0  0  0  0
    1.9023    0.0289    0.0422 N   0  0  0  0  0  0  0  0  0  0  0  0
    1.0628    1.1066    0.1358 C   0  0  0  0  0  0  0  0  0  0  0  0
    1.1931   -1.1173   -0.2008 C   0  0  0  0  0  0  0  0  0  0  0  0
   -0.2816    0.6271   -0.1303 C   0  0  0  0  0  0  0  0  0  0  0  0
   -0.2196   -0.7385   -0.3018 C   0  0  0  0  0  0  0  0  0  0  0  0
   -1.4439    1.3388   -0.3179 C   0  0  0  0  0  0  0  0  0  0  0  0
   -1.3433   -1.4641   -0.6491 C   0  0  0  0  0  0  0  0  0  0  0  0
   -2.5973    0.6319   -0.6558 C   0  0  0  0  0  0  0  0  0  0  0  0
   -2.5498   -0.7671   -0.8108 C   0  0  0  0  0  0  0  0  0  0  0  0
    3.3555    0.1072   -0.0616 C   0  0  3  0  0  0  0  0  0  0  0  0
    3.9718    0.8578    1.1152 C   0  0  0  0  0  0  0  0  0  0  0  0
    3.8522    0.6823   -1.3877 C   0  0  0  0  0  0  0  0  0  0  0  0
    4.3390    2.1616    0.8819 N   0  0  0  0  0  0  0  0  0  0  0  0
    3.6622    2.1860   -1.4919 C   0  0  0  0  0  0  0  0  0  0  0  0
    4.1006    2.9189   -0.2410 C   0  0  0  0  0  0  0  0  0  0  0  0
   -4.1272    1.5820    1.8886 C   0  0  0  0  0  0  0  0  0  0  0  0
   -3.2946    2.6331    2.2992 C   0  0  0  0  0  0  0  0  0  0  0  0
   -4.3734    0.5024    2.7728 C   0  0  0  0  0  0  0  0  0  0  0  0
   -2.5964    2.4635    3.5195 C   0  0  0  0  0  0  0  0  0  0  0  0
   -3.7213    0.3947    3.9960 C   0  0  0  0  0  0  0  0  0  0  0  0
   -2.7852    1.3521    4.3476 C   0  0  0  0  0  0  0  0  0  0  0  0
   -3.7026    2.2819   -1.2991 H   0  0  0  0  0  0  0  0  0  0  0  0
   -1.4074    2.4169   -0.2481 H   0  0  0  0  0  0  0  0  0  0  0  0
   -1.2795   -2.5331   -0.8283 H   0  0  0  0  0  0  0  0  0  0  0  0
   -3.4479   -1.3047   -1.1285 H   0  0  0  0  0  0  0  0  0  0  0  0
    3.7397   -0.9181   -0.0004 H   0  0  0  0  0  0  0  0  0  0  0  0
    4.9274    0.4672   -1.4816 H   0  0  0  0  0  0  0  0  0  0  0  0
    3.3574    0.1853   -2.2354 H   0  0  0  0  0  0  0  0  0  0  0  0
    4.6133    2.6875    1.7005 H   0  0  0  0  0  0  0  0  0  0  0  0
    4.2565    2.5679   -2.3288 H   0  0  0  0  0  0  0  0  0  0  0  0
    2.6192    2.4350   -1.7055 H   0  0  0  0  0  0  0  0  0  0  0  0
   -5.1146   -0.2575    2.5325 H   0  0  0  0  0  0  0  0  0  0  0  0
   -1.9257    3.2453    3.8702 H   0  0  0  0  0  0  0  0  0  0  0  0
   -3.9512   -0.4300    4.6686 H   0  0  0  0  0  0  0  0  0  0  0  0
   -2.2523    1.2705    5.2887 H   0  0  0  0  0  0  0  0  0  0  0  0
  1 15  2  0  0  0  0
  2 16  2  0  0  0  0
  3 24  2  0  0  0  0
  4 28  2  0  0  0  0
  5  6  1  0  0  0  0
  5 21  1  0  0  0  0
  5 35  1  0  0  0  0
  6  7  2  0  0  0  0
  6  8  2  0  0  0  0
  6 29  1  0  0  0  0
  9 10  1  0  0  0  0
  9 30  1  0  0  0  0
 10 11  1  0  0  0  0
 10 12  1  0  0  0  0
 10 13  1  0  0  0  0
 14 15  1  0  0  0  0
 14 16  1  0  0  0  0
 14 23  1  0  0  0  0
 15 17  1  0  0  0  0
 16 18  1  0  0  0  0
 17 18  2  0  0  0  0
 17 19  1  0  0  0  0
 18 20  1  0  0  0  0
 19 21  2  0  0  0  0
 19 36  1  0  0  0  0
 20 22  2  0  0  0  0
 20 37  1  0  0  0  0
 21 22  1  0  0  0  0
 22 38  1  0  0  0  0
 23 24  1  0  0  0  0
 23 25  1  0  0  0  0
 23 39  1  0  0  0  0
 24 26  1  0  0  0  0
 25 27  1  0  0  0  0
 25 40  1  0  0  0  0
 25 41  1  0  0  0  0
 26 28  1  0  0  0  0
 26 42  1  0  0  0  0
 27 28  1  0  0  0  0
 27 43  1  0  0  0  0
 27 44  1  0  0  0  0
 29 30  2  0  0  0  0
 29 31  1  0  0  0  0
 30 32  1  0  0  0  0
 31 33  2  0  0  0  0
 31 45  1  0  0  0  0
 32 34  2  0  0  0  0
 32 46  1  0  0  0  0
 33 34  1  0  0  0  0
 33 47  1  0  0  0  0
 34 48  1  0  0  0  0
M  END
>  <Mol_ID>
7505

>  <Formula>
C20H14F3N3O7S

>  <MolWeight>
497.4012696

>  <Cat>
E1300

>  <Name>
SJ6986

>  <Target>
E3 Ligase

>  <Form>
free base

>  <CAS>
2765625-93-0

>  <URL>
https://www.selleckchem.com/products/sj6986.html

$$$$
