Skepinone-L.cdx
 OpenBabel08302519573D

 52 55  0  0  0  0  0  0  0  0999 V2000
   -1.5503    1.0767   -0.0479 C   0  0  0  0  0  0  0  0  0  0  0  0
   -1.3132   -0.2962    0.0647 C   0  0  0  0  0  0  0  0  0  0  0  0
    0.0146   -0.9129    0.2547 C   0  0  0  0  0  0  0  0  0  0  0  0
    1.2826   -0.2868   -0.1513 C   0  0  0  0  0  0  0  0  0  0  0  0
    1.6592    0.9710    0.3234 C   0  0  0  0  0  0  0  0  0  0  0  0
    0.6673    1.8550    1.0301 C   0  0  0  0  0  0  0  0  0  0  0  0
   -0.5150    2.1665    0.1121 C   0  0  0  0  0  0  0  0  0  0  0  0
   -2.3868   -1.2038   -0.0586 C   0  0  0  0  0  0  0  0  0  0  0  0
   -3.6708   -0.7661   -0.3774 C   0  0  0  0  0  0  0  0  0  0  0  0
   -3.9171    0.5910   -0.5626 C   0  0  0  0  0  0  0  0  0  0  0  0
   -2.8548    1.4909   -0.3833 C   0  0  0  0  0  0  0  0  0  0  0  0
    2.9871    1.3718    0.1398 C   0  0  0  0  0  0  0  0  0  0  0  0
    3.9182    0.5113   -0.4669 C   0  0  0  0  0  0  0  0  0  0  0  0
    3.5266   -0.7306   -0.9746 C   0  0  0  0  0  0  0  0  0  0  0  0
    2.1926   -1.1030   -0.8522 C   0  0  0  0  0  0  0  0  0  0  0  0
    0.0868   -2.0533    0.7394 O   0  0  0  0  0  0  0  0  0  0  0  0
    4.5366   -1.5474   -1.4255 O   0  0  0  0  0  0  0  0  0  0  0  0
    4.1842   -2.4747   -2.4574 C   0  0  0  0  0  0  0  0  0  0  0  0
    5.3390   -3.4337   -2.8106 C   0  0  1  0  0  0  0  0  0  0  0  0
    5.8448   -4.3385   -1.6778 C   0  0  0  0  0  0  0  0  0  0  0  0
    4.8003   -5.2122   -1.2434 O   0  0  0  0  0  0  0  0  0  0  0  0
    4.8817   -4.2961   -3.8704 O   0  0  0  0  0  0  0  0  0  0  0  0
   -5.1862    1.0341   -0.9727 N   0  0  0  0  0  0  0  0  0  0  0  0
   -5.8276    2.2451   -0.6333 C   0  0  0  0  0  0  0  0  0  0  0  0
   -6.7079    2.8581   -1.5397 C   0  0  0  0  0  0  0  0  0  0  0  0
   -7.3874    4.0269   -1.2149 C   0  0  0  0  0  0  0  0  0  0  0  0
   -7.2008    4.5808    0.0433 C   0  0  0  0  0  0  0  0  0  0  0  0
   -6.3456    3.9947    0.9687 C   0  0  0  0  0  0  0  0  0  0  0  0
   -5.6591    2.8289    0.6303 C   0  0  0  0  0  0  0  0  0  0  0  0
   -7.8653    5.6941    0.3786 F   0  0  0  0  0  0  0  0  0  0  0  0
   -6.8988    2.3192   -2.7543 F   0  0  0  0  0  0  0  0  0  0  0  0
    1.1495    2.8008    1.3032 H   0  0  0  0  0  0  0  0  0  0  0  0
    0.3455    1.3896    1.9679 H   0  0  0  0  0  0  0  0  0  0  0  0
   -0.1619    2.4486   -0.8892 H   0  0  0  0  0  0  0  0  0  0  0  0
   -1.0180    3.0483    0.5318 H   0  0  0  0  0  0  0  0  0  0  0  0
   -2.2155   -2.2731    0.0640 H   0  0  0  0  0  0  0  0  0  0  0  0
   -4.4644   -1.4998   -0.4932 H   0  0  0  0  0  0  0  0  0  0  0  0
   -3.0411    2.5540   -0.5385 H   0  0  0  0  0  0  0  0  0  0  0  0
    3.3288    2.3373    0.5079 H   0  0  0  0  0  0  0  0  0  0  0  0
    4.9600    0.8161   -0.5392 H   0  0  0  0  0  0  0  0  0  0  0  0
    1.8195   -2.0526   -1.2271 H   0  0  0  0  0  0  0  0  0  0  0  0
    3.3058   -3.0738   -2.1985 H   0  0  0  0  0  0  0  0  0  0  0  0
    3.9348   -1.8987   -3.3575 H   0  0  0  0  0  0  0  0  0  0  0  0
    6.1860   -2.8541   -3.1917 H   0  0  0  0  0  0  0  0  0  0  0  0
    6.6308   -4.9945   -2.0733 H   0  0  0  0  0  0  0  0  0  0  0  0
    6.2568   -3.7910   -0.8263 H   0  0  0  0  0  0  0  0  0  0  0  0
    4.1495   -4.6738   -0.7587 H   0  0  0  0  0  0  0  0  0  0  0  0
    4.5895   -5.1254   -3.4326 H   0  0  0  0  0  0  0  0  0  0  0  0
   -5.8620    0.2901   -1.1236 H   0  0  0  0  0  0  0  0  0  0  0  0
   -8.0554    4.4920   -1.9294 H   0  0  0  0  0  0  0  0  0  0  0  0
   -6.2246    4.4377    1.9518 H   0  0  0  0  0  0  0  0  0  0  0  0
   -5.0097    2.3627    1.3671 H   0  0  0  0  0  0  0  0  0  0  0  0
  1  2  2  0  0  0  0
  1  7  1  0  0  0  0
  1 11  1  0  0  0  0
  2  3  1  0  0  0  0
  2  8  1  0  0  0  0
  3  4  1  0  0  0  0
  3 16  2  0  0  0  0
  4  5  2  0  0  0  0
  4 15  1  0  0  0  0
  5  6  1  0  0  0  0
  5 12  1  0  0  0  0
  6  7  1  0  0  0  0
  6 32  1  0  0  0  0
  6 33  1  0  0  0  0
  7 34  1  0  0  0  0
  7 35  1  0  0  0  0
  8  9  2  0  0  0  0
  8 36  1  0  0  0  0
  9 10  1  0  0  0  0
  9 37  1  0  0  0  0
 10 11  2  0  0  0  0
 10 23  1  0  0  0  0
 11 38  1  0  0  0  0
 12 13  2  0  0  0  0
 12 39  1  0  0  0  0
 13 14  1  0  0  0  0
 13 40  1  0  0  0  0
 14 15  2  0  0  0  0
 14 17  1  0  0  0  0
 15 41  1  0  0  0  0
 17 18  1  0  0  0  0
 18 19  1  0  0  0  0
 18 42  1  0  0  0  0
 18 43  1  0  0  0  0
 19 20  1  0  0  0  0
 19 22  1  0  0  0  0
 19 44  1  6  0  0  0
 20 21  1  0  0  0  0
 20 45  1  0  0  0  0
 20 46  1  0  0  0  0
 21 47  1  0  0  0  0
 22 48  1  0  0  0  0
 23 24  1  0  0  0  0
 23 49  1  0  0  0  0
 24 25  2  0  0  0  0
 24 29  1  0  0  0  0
 25 26  1  0  0  0  0
 25 31  1  0  0  0  0
 26 27  2  0  0  0  0
 26 50  1  0  0  0  0
 27 28  1  0  0  0  0
 27 30  1  0  0  0  0
 28 29  2  0  0  0  0
 28 51  1  0  0  0  0
 29 52  1  0  0  0  0
M  END
>  <Mol_ID>
2271

>  <Formula>
C24H21F2NO4

>  <MolWeight>
425.4246464

>  <Cat>
S7214

>  <Name>
Skepinone-L

>  <Synonyms>
CBS3830

>  <Target>
p38 MAPK

>  <Form>
free base

>  <CAS>
1221485-83-1

>  <URL>
http://selleckchem.com/products/skepinone-l.html

$$$$
