SKF-86002
 OpenBabel08302521343D

 33 36  0  0  0  0  0  0  0  0999 V2000
   -0.6912   -1.0586   -0.0977 C   0  0  0  0  0  0  0  0  0  0  0  0
    0.6896   -1.0721   -0.2093 C   0  0  0  0  0  0  0  0  0  0  0  0
    1.4202    0.0515    0.1929 C   0  0  0  0  0  0  0  0  0  0  0  0
    0.7078    1.1192    0.7461 C   0  0  0  0  0  0  0  0  0  0  0  0
   -0.6709    1.0213    0.8626 C   0  0  0  0  0  0  0  0  0  0  0  0
   -1.3871   -0.0381    0.4404 N   0  0  0  0  0  0  0  0  0  0  0  0
    2.8809    0.1075    0.0045 C   0  0  0  0  0  0  0  0  0  0  0  0
    3.7334   -0.3721   -1.0040 C   0  0  0  0  0  0  0  0  0  0  0  0
    5.0717   -0.1725   -0.6907 N   0  0  0  0  0  0  0  0  0  0  0  0
    5.0300    0.4485    0.4483 C   0  0  0  0  0  0  0  0  0  0  0  0
    3.7676    0.6582    0.8923 N   0  0  0  0  0  0  0  0  0  0  0  0
    6.2394    1.0224    1.5235 S   0  0  0  0  0  0  0  0  0  0  0  0
    4.9969    1.3439    2.8346 C   0  0  0  0  0  0  0  0  0  0  0  0
    3.6369    1.3847    2.1371 C   0  0  0  0  0  0  0  0  0  0  0  0
    3.3461   -1.0576   -2.2299 C   0  0  0  0  0  0  0  0  0  0  0  0
    2.2023   -0.6766   -2.9584 C   0  0  0  0  0  0  0  0  0  0  0  0
    1.7615   -1.4446   -4.0355 C   0  0  0  0  0  0  0  0  0  0  0  0
    2.4903   -2.5563   -4.4319 C   0  0  0  0  0  0  0  0  0  0  0  0
    3.6712   -2.9037   -3.7782 C   0  0  0  0  0  0  0  0  0  0  0  0
    4.0954   -2.1554   -2.6782 C   0  0  0  0  0  0  0  0  0  0  0  0
    2.0535   -3.3054   -5.4515 F   0  0  0  0  0  0  0  0  0  0  0  0
   -1.2883   -1.8916   -0.4580 H   0  0  0  0  0  0  0  0  0  0  0  0
    1.1723   -1.9451   -0.6364 H   0  0  0  0  0  0  0  0  0  0  0  0
    1.1919    2.0319    1.0682 H   0  0  0  0  0  0  0  0  0  0  0  0
   -1.2522    1.8248    1.3052 H   0  0  0  0  0  0  0  0  0  0  0  0
    5.2103    2.2770    3.3643 H   0  0  0  0  0  0  0  0  0  0  0  0
    5.0329    0.5189    3.5540 H   0  0  0  0  0  0  0  0  0  0  0  0
    2.8553    0.9317    2.7523 H   0  0  0  0  0  0  0  0  0  0  0  0
    3.3634    2.4151    1.8791 H   0  0  0  0  0  0  0  0  0  0  0  0
    1.6289    0.1989   -2.6679 H   0  0  0  0  0  0  0  0  0  0  0  0
    0.8441   -1.1841   -4.5623 H   0  0  0  0  0  0  0  0  0  0  0  0
    4.2380   -3.7649   -4.1190 H   0  0  0  0  0  0  0  0  0  0  0  0
    5.0088   -2.4404   -2.1580 H   0  0  0  0  0  0  0  0  0  0  0  0
  1  2  2  0  0  0  0
  1 22  1  0  0  0  0
  2  3  1  0  0  0  0
  2 23  1  0  0  0  0
  3  4  2  0  0  0  0
  3  7  1  0  0  0  0
  4  5  1  0  0  0  0
  4 24  1  0  0  0  0
  5  6  2  0  0  0  0
  5 25  1  0  0  0  0
  6  1  1  0  0  0  0
  7  8  2  0  0  0  0
  8  9  1  0  0  0  0
  8 15  1  0  0  0  0
  9 10  2  0  0  0  0
 10 11  1  0  0  0  0
 10 12  1  0  0  0  0
 11  7  1  0  0  0  0
 12 13  1  0  0  0  0
 13 14  1  0  0  0  0
 13 26  1  0  0  0  0
 13 27  1  0  0  0  0
 14 11  1  0  0  0  0
 14 28  1  0  0  0  0
 14 29  1  0  0  0  0
 15 16  2  0  0  0  0
 16 17  1  0  0  0  0
 16 30  1  0  0  0  0
 17 18  2  0  0  0  0
 17 31  1  0  0  0  0
 18 19  1  0  0  0  0
 18 21  1  0  0  0  0
 19 20  2  0  0  0  0
 19 32  1  0  0  0  0
 20 15  1  0  0  0  0
 20 33  1  0  0  0  0
M  END
>  <Mol_ID>
6472

>  <Formula>
C16H12FN3S

>  <MolWeight>
297.3499832

>  <Cat>
E2630

>  <Name>
SKF-86002

>  <Target>
Interleukins,p38 MAPK,TNF-alpha

>  <Form>
free base

>  <CAS>
72873-74-6

>  <URL>
http://www.selleckchem.com/products/skf-86002.html

$$$$
