SKF96365.cdx
 OpenBabel08302520003D

 53 55  0  0  0  0  0  0  0  0999 V2000
    0.5948    0.7557    2.2492 C   0  0  0  0  0  0  0  0  0  0  0  0
    0.5962   -0.5412    2.8232 C   0  0  0  0  0  0  0  0  0  0  0  0
    1.1681   -1.6226    2.1499 C   0  0  0  0  0  0  0  0  0  0  0  0
    1.6952   -1.4083    0.8768 C   0  0  0  0  0  0  0  0  0  0  0  0
    1.6855   -0.1335    0.3065 C   0  0  0  0  0  0  0  0  0  0  0  0
    1.1687    0.9849    0.9804 C   0  0  0  0  0  0  0  0  0  0  0  0
    1.2999   -2.9108    2.5842 O   0  0  0  0  0  0  0  0  0  0  0  0
    0.8560   -3.2407    3.8938 C   0  0  0  0  0  0  0  0  0  0  0  0
    1.3555    2.3542    0.3272 C   0  0  3  0  0  0  0  0  0  0  0  0
    0.2927    2.8685   -0.6732 C   0  0  0  0  0  0  0  0  0  0  0  0
    1.8467    3.4356    1.1350 O   0  0  0  0  0  0  0  0  0  0  0  0
    3.1424    3.2766    1.7270 C   0  0  0  0  0  0  0  0  0  0  0  0
   -1.1034    3.1596   -0.3855 N   0  0  0  0  0  0  0  0  0  0  0  0
    4.3490    2.8348    0.8585 C   0  0  0  0  0  0  0  0  0  0  0  0
    5.2984    3.8348    0.1398 C   0  0  0  0  0  0  0  0  0  0  0  0
    5.1815    4.4650   -1.2417 C   0  0  0  0  0  0  0  0  0  0  0  0
    4.0123    4.8108   -1.9071 C   0  0  0  0  0  0  0  0  0  0  0  0
    4.0624    5.4917   -3.1666 C   0  0  0  0  0  0  0  0  0  0  0  0
    5.2702    5.8397   -3.7543 C   0  0  0  0  0  0  0  0  0  0  0  0
    6.4517    5.4939   -3.0974 C   0  0  0  0  0  0  0  0  0  0  0  0
    6.3994    4.8305   -1.8574 C   0  0  0  0  0  0  0  0  0  0  0  0
    5.4743    6.4969   -4.9424 O   0  0  0  0  0  0  0  0  0  0  0  0
    4.3526    7.0425   -5.6274 C   0  0  0  0  0  0  0  0  0  0  0  0
   -1.6890    4.3378   -0.8215 C   0  0  0  0  0  0  0  0  0  0  0  0
   -2.9375    3.9705   -1.2836 C   0  0  0  0  0  0  0  0  0  0  0  0
   -3.1939    2.6684   -0.9481 N   0  0  0  0  0  0  0  0  0  0  0  0
   -2.1052    2.2221   -0.3710 C   0  0  0  0  0  0  0  0  0  0  0  0
    0.1728    1.5793    2.8203 H   0  0  0  0  0  0  0  0  0  0  0  0
    0.1626   -0.6743    3.8124 H   0  0  0  0  0  0  0  0  0  0  0  0
    2.1398   -2.2398    0.3352 H   0  0  0  0  0  0  0  0  0  0  0  0
    2.1380   -0.0212   -0.6788 H   0  0  0  0  0  0  0  0  0  0  0  0
    1.3321   -2.6081    4.6505 H   0  0  0  0  0  0  0  0  0  0  0  0
   -0.2337   -3.1869    3.9590 H   0  0  0  0  0  0  0  0  0  0  0  0
    1.1511   -4.2735    4.0947 H   0  0  0  0  0  0  0  0  0  0  0  0
    2.1838    2.1853   -0.3665 H   0  0  0  0  0  0  0  0  0  0  0  0
    0.6937    3.8148   -1.0613 H   0  0  0  0  0  0  0  0  0  0  0  0
    0.2607    2.1707   -1.5272 H   0  0  0  0  0  0  0  0  0  0  0  0
    3.3806    4.2135    2.2445 H   0  0  0  0  0  0  0  0  0  0  0  0
    3.0228    2.5335    2.5268 H   0  0  0  0  0  0  0  0  0  0  0  0
    5.0184    2.4020    1.6227 H   0  0  0  0  0  0  0  0  0  0  0  0
    4.1098    1.9964    0.2022 H   0  0  0  0  0  0  0  0  0  0  0  0
    5.5743    4.6301    0.8457 H   0  0  0  0  0  0  0  0  0  0  0  0
    6.2102    3.2177    0.0376 H   0  0  0  0  0  0  0  0  0  0  0  0
    3.0459    4.5878   -1.4731 H   0  0  0  0  0  0  0  0  0  0  0  0
    3.1191    5.7392   -3.6423 H   0  0  0  0  0  0  0  0  0  0  0  0
    7.4080    5.7566   -3.5342 H   0  0  0  0  0  0  0  0  0  0  0  0
    7.3563    4.6130   -1.3819 H   0  0  0  0  0  0  0  0  0  0  0  0
    3.7108    6.2446   -6.0092 H   0  0  0  0  0  0  0  0  0  0  0  0
    3.7995    7.7394   -4.9971 H   0  0  0  0  0  0  0  0  0  0  0  0
    4.7387    7.5998   -6.4892 H   0  0  0  0  0  0  0  0  0  0  0  0
   -1.1403    5.2642   -0.8906 H   0  0  0  0  0  0  0  0  0  0  0  0
   -3.6416    4.5728   -1.8353 H   0  0  0  0  0  0  0  0  0  0  0  0
   -1.9709    1.2136    0.0087 H   0  0  0  0  0  0  0  0  0  0  0  0
  1  2  2  0  0  0  0
  1 28  1  0  0  0  0
  2  3  1  0  0  0  0
  2 29  1  0  0  0  0
  3  4  2  0  0  0  0
  3  7  1  0  0  0  0
  4  5  1  0  0  0  0
  4 30  1  0  0  0  0
  5  6  2  0  0  0  0
  5 31  1  0  0  0  0
  6  1  1  0  0  0  0
  6  9  1  0  0  0  0
  7  8  1  0  0  0  0
  8 32  1  0  0  0  0
  8 33  1  0  0  0  0
  8 34  1  0  0  0  0
  9 10  1  0  0  0  0
  9 11  1  0  0  0  0
  9 35  1  0  0  0  0
 10 13  1  0  0  0  0
 10 36  1  0  0  0  0
 10 37  1  0  0  0  0
 11 12  1  0  0  0  0
 12 14  1  0  0  0  0
 12 38  1  0  0  0  0
 12 39  1  0  0  0  0
 13 24  1  0  0  0  0
 14 15  1  0  0  0  0
 14 40  1  0  0  0  0
 14 41  1  0  0  0  0
 15 16  1  0  0  0  0
 15 42  1  0  0  0  0
 15 43  1  0  0  0  0
 16 17  2  0  0  0  0
 17 18  1  0  0  0  0
 17 44  1  0  0  0  0
 18 19  2  0  0  0  0
 18 45  1  0  0  0  0
 19 20  1  0  0  0  0
 19 22  1  0  0  0  0
 20 21  2  0  0  0  0
 20 46  1  0  0  0  0
 21 16  1  0  0  0  0
 21 47  1  0  0  0  0
 22 23  1  0  0  0  0
 23 48  1  0  0  0  0
 23 49  1  0  0  0  0
 23 50  1  0  0  0  0
 24 25  2  0  0  0  0
 24 51  1  0  0  0  0
 25 26  1  0  0  0  0
 25 52  1  0  0  0  0
 26 27  2  0  0  0  0
 27 13  1  0  0  0  0
 27 53  1  0  0  0  0
M  END
>  <Mol_ID>
2681

>  <Formula>
C22H27ClN2O3

>  <MolWeight>
402.91438

>  <Cat>
S7999

>  <Name>
SKF96365

>  <Synonyms>
N/A

>  <Target>
TRP Channel

>  <Form>
hydrochloride

>  <CAS>
130495-35-1

>  <URL>
http://selleckchem.com/products/skf96365.html

$$$$
