SKI-178
 OpenBabel08302521313D

 51 53  0  0  0  0  0  0  0  0999 V2000
    4.9388    4.6746    2.5653 O   0  0  0  0  0  0  0  0  0  0  0  0
    5.0106    7.5883    2.7727 O   0  0  0  0  0  0  0  0  0  0  0  0
   -5.5341   -0.8860   12.1416 O   0  0  0  0  0  0  0  0  0  0  0  0
   -0.9728    1.4038    3.4689 O   0  0  0  0  0  0  0  0  0  0  0  0
   -2.9839    0.1042    4.9615 N   0  0  0  0  0  0  0  0  0  0  0  0
   -3.7828   -0.4305    5.9013 N   0  0  0  0  0  0  0  0  0  0  0  0
   -0.7758    3.0159    5.1258 N   0  0  0  0  0  0  0  0  0  0  0  0
    0.3148    3.6524    4.5974 N   0  0  0  0  0  0  0  0  0  0  0  0
   -3.6981    0.4107    6.9440 C   0  0  0  0  0  0  0  0  0  0  0  0
   -4.2851    0.0896    8.2554 C   0  0  0  0  0  0  0  0  0  0  0  0
    1.9483    5.4302    4.6137 C   0  0  0  0  0  0  0  0  0  0  0  0
   -2.3568    1.2554    5.3497 C   0  0  0  0  0  0  0  0  0  0  0  0
   -2.8946    1.5346    6.5937 C   0  0  0  0  0  0  0  0  0  0  0  0
    0.7824    4.7063    5.2114 C   0  0  0  0  0  0  0  0  0  0  0  0
    2.9293    4.7090    3.9278 C   0  0  0  0  0  0  0  0  0  0  0  0
    3.9937    5.3638    3.2803 C   0  0  0  0  0  0  0  0  0  0  0  0
    2.0483    6.8205    4.6945 C   0  0  0  0  0  0  0  0  0  0  0  0
   -4.7074   -1.2191    8.5354 C   0  0  0  0  0  0  0  0  0  0  0  0
   -4.3508    1.0351    9.2874 C   0  0  0  0  0  0  0  0  0  0  0  0
    4.0922    6.7632    3.3676 C   0  0  0  0  0  0  0  0  0  0  0  0
    3.1130    7.4752    4.0734 C   0  0  0  0  0  0  0  0  0  0  0  0
   -1.3262    1.8751    4.5429 C   0  0  0  0  0  0  0  0  0  0  0  0
   -5.1427   -1.5881    9.8168 C   0  0  0  0  0  0  0  0  0  0  0  0
   -4.7880    0.6652   10.5685 C   0  0  0  0  0  0  0  0  0  0  0  0
   -5.1699   -0.6493   10.8444 C   0  0  0  0  0  0  0  0  0  0  0  0
    0.2038    5.3016    6.4808 C   0  0  0  0  0  0  0  0  0  0  0  0
    4.5117    3.4315    2.0110 C   0  0  0  0  0  0  0  0  0  0  0  0
    6.2970    7.0596    2.4857 C   0  0  0  0  0  0  0  0  0  0  0  0
   -5.8838   -2.2245   12.4767 C   0  0  0  0  0  0  0  0  0  0  0  0
   -2.8590   -0.3937    4.0840 H   0  0  0  0  0  0  0  0  0  0  0  0
   -1.1846    3.3621    5.9784 H   0  0  0  0  0  0  0  0  0  0  0  0
   -2.6528    2.3704    7.2317 H   0  0  0  0  0  0  0  0  0  0  0  0
    2.8418    3.6263    3.9077 H   0  0  0  0  0  0  0  0  0  0  0  0
    1.2995    7.4165    5.2066 H   0  0  0  0  0  0  0  0  0  0  0  0
   -4.6708   -1.9801    7.7578 H   0  0  0  0  0  0  0  0  0  0  0  0
   -4.0520    2.0666    9.1282 H   0  0  0  0  0  0  0  0  0  0  0  0
    3.1777    8.5608    4.1243 H   0  0  0  0  0  0  0  0  0  0  0  0
   -5.4341   -2.6211    9.9746 H   0  0  0  0  0  0  0  0  0  0  0  0
   -4.8140    1.4068   11.3637 H   0  0  0  0  0  0  0  0  0  0  0  0
    0.9865    5.7982    7.0613 H   0  0  0  0  0  0  0  0  0  0  0  0
   -0.5671    6.0285    6.2111 H   0  0  0  0  0  0  0  0  0  0  0  0
   -0.2261    4.5426    7.1359 H   0  0  0  0  0  0  0  0  0  0  0  0
    5.2677    3.1042    1.2924 H   0  0  0  0  0  0  0  0  0  0  0  0
    4.4421    2.6629    2.7877 H   0  0  0  0  0  0  0  0  0  0  0  0
    3.5617    3.5379    1.4744 H   0  0  0  0  0  0  0  0  0  0  0  0
    6.7364    6.5765    3.3635 H   0  0  0  0  0  0  0  0  0  0  0  0
    6.2740    6.3943    1.6190 H   0  0  0  0  0  0  0  0  0  0  0  0
    6.9422    7.9034    2.2160 H   0  0  0  0  0  0  0  0  0  0  0  0
   -6.7890   -2.5363   11.9455 H   0  0  0  0  0  0  0  0  0  0  0  0
   -5.0551   -2.9148   12.2848 H   0  0  0  0  0  0  0  0  0  0  0  0
   -6.0984   -2.2580   13.5495 H   0  0  0  0  0  0  0  0  0  0  0  0
  1 16  1  0  0  0  0
  1 27  1  0  0  0  0
  2 20  1  0  0  0  0
  2 28  1  0  0  0  0
  3 25  1  0  0  0  0
  3 29  1  0  0  0  0
  4 22  2  0  0  0  0
  5  6  1  0  0  0  0
  5 12  1  0  0  0  0
  5 30  1  0  0  0  0
  6  9  2  0  0  0  0
  7  8  1  0  0  0  0
  7 22  1  0  0  0  0
  7 31  1  0  0  0  0
  8 14  2  0  0  0  0
  9 10  1  0  0  0  0
  9 13  1  0  0  0  0
 10 18  2  0  0  0  0
 10 19  1  0  0  0  0
 11 14  1  0  0  0  0
 11 15  2  0  0  0  0
 11 17  1  0  0  0  0
 12 13  2  0  0  0  0
 12 22  1  0  0  0  0
 13 32  1  0  0  0  0
 14 26  1  0  0  0  0
 15 16  1  0  0  0  0
 15 33  1  0  0  0  0
 16 20  2  0  0  0  0
 17 21  2  0  0  0  0
 17 34  1  0  0  0  0
 18 23  1  0  0  0  0
 18 35  1  0  0  0  0
 19 24  2  0  0  0  0
 19 36  1  0  0  0  0
 20 21  1  0  0  0  0
 21 37  1  0  0  0  0
 23 25  2  0  0  0  0
 23 38  1  0  0  0  0
 24 25  1  0  0  0  0
 24 39  1  0  0  0  0
 26 40  1  0  0  0  0
 26 41  1  0  0  0  0
 26 42  1  0  0  0  0
 27 43  1  0  0  0  0
 27 44  1  0  0  0  0
 27 45  1  0  0  0  0
 28 46  1  0  0  0  0
 28 47  1  0  0  0  0
 28 48  1  0  0  0  0
 29 49  1  0  0  0  0
 29 50  1  0  0  0  0
 29 51  1  0  0  0  0
M  END
>  <Mol_ID>
6010

>  <Formula>
C21H22N4O4

>  <MolWeight>
394.42378

>  <Cat>
S5989

>  <Name>
SKI-178

>  <Synonyms>
N/A

>  <Target>
SPHK

>  <Form>
Free Base

>  <CAS>
1259484-97-3

>  <URL>
http://www.selleckchem.com/products/ski-178.html

$$$$
