SKI II (SphK-I2).cdx
 OpenBabel08302519563D

 31 33  0  0  0  0  0  0  0  0999 V2000
    1.2532    0.8218    0.0393 C   0  0  0  0  0  0  0  0  0  0  0  0
    2.4293    1.6830    0.0133 C   0  0  0  0  0  0  0  0  0  0  0  0
    1.3778   -0.5556    0.0310 N   0  0  0  0  0  0  0  0  0  0  0  0
   -0.0452    1.2790    0.1244 C   0  0  0  0  0  0  0  0  0  0  0  0
    2.3947    2.9668   -0.5480 C   0  0  0  0  0  0  0  0  0  0  0  0
    3.6280    1.2259    0.5805 C   0  0  0  0  0  0  0  0  0  0  0  0
    0.2045   -1.1432    0.0985 C   0  0  0  0  0  0  0  0  0  0  0  0
   -1.1248   -0.0455    0.2399 S   0  0  0  0  0  0  0  0  0  0  0  0
    3.5249    3.7882   -0.5089 C   0  0  0  0  0  0  0  0  0  0  0  0
    4.7562    2.0484    0.6222 C   0  0  0  0  0  0  0  0  0  0  0  0
   -0.0414   -2.4755    0.0924 N   0  0  0  0  0  0  0  0  0  0  0  0
    4.7010    3.3323    0.0842 C   0  0  0  0  0  0  0  0  0  0  0  0
    0.7330   -3.4834   -0.5172 C   0  0  0  0  0  0  0  0  0  0  0  0
    1.9302   -3.2388   -1.2045 C   0  0  0  0  0  0  0  0  0  0  0  0
    0.3177   -4.8199   -0.3866 C   0  0  0  0  0  0  0  0  0  0  0  0
    2.6623   -4.2774   -1.7877 C   0  0  0  0  0  0  0  0  0  0  0  0
    1.0447   -5.8642   -0.9654 C   0  0  0  0  0  0  0  0  0  0  0  0
    2.2067   -5.5831   -1.6691 C   0  0  0  0  0  0  0  0  0  0  0  0
    2.8829   -6.6230   -2.2345 O   0  0  0  0  0  0  0  0  0  0  0  0
   -0.4092    2.2947    0.1609 H   0  0  0  0  0  0  0  0  0  0  0  0
    1.4956    3.3420   -1.0294 H   0  0  0  0  0  0  0  0  0  0  0  0
    3.6828    0.2257    1.0076 H   0  0  0  0  0  0  0  0  0  0  0  0
    3.4866    4.7847   -0.9412 H   0  0  0  0  0  0  0  0  0  0  0  0
    5.6737    1.6863    1.0793 H   0  0  0  0  0  0  0  0  0  0  0  0
   -0.9971   -2.7561    0.2705 H   0  0  0  0  0  0  0  0  0  0  0  0
    5.5755    3.9764    0.1246 H   0  0  0  0  0  0  0  0  0  0  0  0
    2.3127   -2.2287   -1.3190 H   0  0  0  0  0  0  0  0  0  0  0  0
   -0.5852   -5.0643    0.1674 H   0  0  0  0  0  0  0  0  0  0  0  0
    3.5746   -4.0400   -2.3246 H   0  0  0  0  0  0  0  0  0  0  0  0
    0.7039   -6.8903   -0.8679 H   0  0  0  0  0  0  0  0  0  0  0  0
    3.6498   -6.2659   -2.7109 H   0  0  0  0  0  0  0  0  0  0  0  0
  1  2  1  0  0  0  0
  1  3  1  0  0  0  0
  1  4  2  0  0  0  0
  2  5  2  0  0  0  0
  2  6  1  0  0  0  0
  3  7  2  0  0  0  0
  4  8  1  0  0  0  0
  4 20  1  0  0  0  0
  5  9  1  0  0  0  0
  5 21  1  0  0  0  0
  6 10  2  0  0  0  0
  6 22  1  0  0  0  0
  7 11  1  0  0  0  0
  7  8  1  0  0  0  0
  9 12  2  0  0  0  0
  9 23  1  0  0  0  0
 10 12  1  0  0  0  0
 10 24  1  0  0  0  0
 11 13  1  0  0  0  0
 11 25  1  0  0  0  0
 12 26  1  0  0  0  0
 13 14  2  0  0  0  0
 13 15  1  0  0  0  0
 14 16  1  0  0  0  0
 14 27  1  0  0  0  0
 15 17  2  0  0  0  0
 15 28  1  0  0  0  0
 16 18  2  0  0  0  0
 16 29  1  0  0  0  0
 17 18  1  0  0  0  0
 17 30  1  0  0  0  0
 18 19  1  0  0  0  0
 19 31  1  0  0  0  0
M  END
>  <Mol_ID>
2243

>  <Formula>
C15H11ClN2OS

>  <MolWeight>
302.77864

>  <Cat>
S7176

>  <Name>
SKI II

>  <Synonyms>
SphK-I2

>  <Target>
SPHK

>  <Form>
free base

>  <CAS>
312636-16-1

>  <URL>
http://selleckchem.com/products/ski-ii.html

$$$$
