SKL2001.cdx
 OpenBabel08302520433D

 35 37  0  0  0  0  0  0  0  0999 V2000
    0.6772    0.6782    0.5717 C   0  0  0  0  0  0  0  0  0  0  0  0
   -0.0283    1.0254   -0.5536 C   0  0  0  0  0  0  0  0  0  0  0  0
   -0.7984   -0.1138   -0.8996 C   0  0  0  0  0  0  0  0  0  0  0  0
   -0.5104   -1.1026    0.0274 C   0  0  0  0  0  0  0  0  0  0  0  0
    0.3880   -0.5955    0.9358 O   0  0  0  0  0  0  0  0  0  0  0  0
   -0.9967   -2.4449    0.1006 C   0  0  0  0  0  0  0  0  0  0  0  0
   -0.7237   -3.3874    1.0641 C   0  0  0  0  0  0  0  0  0  0  0  0
   -1.4226   -4.5527    0.6693 C   0  0  0  0  0  0  0  0  0  0  0  0
   -2.0927   -4.3395   -0.4771 N   0  0  0  0  0  0  0  0  0  0  0  0
   -1.8275   -3.0201   -0.8231 O   0  0  0  0  0  0  0  0  0  0  0  0
   -1.4434   -5.8243    1.3888 C   0  0  0  0  0  0  0  0  0  0  0  0
   -2.1581   -6.8386    0.7846 N   0  0  0  0  0  0  0  0  0  0  0  0
   -0.8669   -5.9711    2.4642 O   0  0  0  0  0  0  0  0  0  0  0  0
   -2.2915   -8.1431    1.3962 C   0  0  0  0  0  0  0  0  0  0  0  0
   -3.4499   -8.2177    2.3895 C   0  0  0  0  0  0  0  0  0  0  0  0
   -4.8048   -7.9727    1.7297 C   0  0  0  0  0  0  0  0  0  0  0  0
   -5.8980   -8.0714    2.6770 N   0  0  0  0  0  0  0  0  0  0  0  0
   -6.6136   -9.1949    2.9804 C   0  0  0  0  0  0  0  0  0  0  0  0
   -7.5368   -8.7832    3.9142 C   0  0  0  0  0  0  0  0  0  0  0  0
   -7.4034   -7.4435    4.1728 N   0  0  0  0  0  0  0  0  0  0  0  0
   -6.4105   -7.0411    3.4120 C   0  0  0  0  0  0  0  0  0  0  0  0
    1.3922    1.1933    1.1991 H   0  0  0  0  0  0  0  0  0  0  0  0
    0.0117    1.9772   -1.0632 H   0  0  0  0  0  0  0  0  0  0  0  0
   -1.4771   -0.2115   -1.7359 H   0  0  0  0  0  0  0  0  0  0  0  0
   -0.0999   -3.2592    1.9379 H   0  0  0  0  0  0  0  0  0  0  0  0
   -2.5698   -6.6388   -0.1222 H   0  0  0  0  0  0  0  0  0  0  0  0
   -2.4122   -8.8773    0.5943 H   0  0  0  0  0  0  0  0  0  0  0  0
   -1.3591   -8.3777    1.9240 H   0  0  0  0  0  0  0  0  0  0  0  0
   -3.4461   -9.2107    2.8573 H   0  0  0  0  0  0  0  0  0  0  0  0
   -3.2972   -7.4927    3.1989 H   0  0  0  0  0  0  0  0  0  0  0  0
   -4.8545   -6.9729    1.2836 H   0  0  0  0  0  0  0  0  0  0  0  0
   -4.9921   -8.7018    0.9329 H   0  0  0  0  0  0  0  0  0  0  0  0
   -6.4181  -10.1589    2.5329 H   0  0  0  0  0  0  0  0  0  0  0  0
   -8.2907   -9.3781    4.4135 H   0  0  0  0  0  0  0  0  0  0  0  0
   -6.0274   -6.0302    3.3592 H   0  0  0  0  0  0  0  0  0  0  0  0
  1  2  2  0  0  0  0
  1 22  1  0  0  0  0
  2  3  1  0  0  0  0
  2 23  1  0  0  0  0
  3  4  2  0  0  0  0
  3 24  1  0  0  0  0
  4  5  1  0  0  0  0
  4  6  1  0  0  0  0
  5  1  1  0  0  0  0
  6  7  2  0  0  0  0
  7  8  1  0  0  0  0
  7 25  1  0  0  0  0
  8  9  2  0  0  0  0
  8 11  1  0  0  0  0
  9 10  1  0  0  0  0
 10  6  1  0  0  0  0
 11 12  1  0  0  0  0
 11 13  2  0  0  0  0
 12 14  1  0  0  0  0
 12 26  1  0  0  0  0
 14 15  1  0  0  0  0
 14 27  1  0  0  0  0
 14 28  1  0  0  0  0
 15 16  1  0  0  0  0
 15 29  1  0  0  0  0
 15 30  1  0  0  0  0
 16 17  1  0  0  0  0
 16 31  1  0  0  0  0
 16 32  1  0  0  0  0
 17 18  1  0  0  0  0
 18 19  2  0  0  0  0
 18 33  1  0  0  0  0
 19 20  1  0  0  0  0
 19 34  1  0  0  0  0
 20 21  2  0  0  0  0
 21 17  1  0  0  0  0
 21 35  1  0  0  0  0
M  END
>  <Mol_ID>
4071

>  <Formula>
C14H14N4O3

>  <MolWeight>
286.28596

>  <Cat>
S8320

>  <Name>
SKL2001

>  <Synonyms>
N/A

>  <Target>
Wnt/beta-catenin

>  <Form>
free base

>  <CAS>
909089-13-0

>  <URL>
http://selleckchem.com/products/skl2001.html

$$$$
