SKLB-197
 OpenBabel08302521333D

 56 61  0  0  0  0  0  0  0  0999 V2000
    0.9084   -2.0889   -0.1300 C   0  0  0  0  0  0  0  0  0  0  0  0
    9.0978    0.6469   -3.3172 C   0  0  0  0  0  0  0  0  0  0  0  0
    3.9219   -2.2285    0.0675 C   0  0  0  0  0  0  0  0  0  0  0  0
    5.1981   -2.0464   -0.5236 C   0  0  0  0  0  0  0  0  0  0  0  0
    3.3468   -3.4408    0.0412 N   0  0  0  0  0  0  0  0  0  0  0  0
    5.7755   -3.1771   -1.1145 C   0  0  0  0  0  0  0  0  0  0  0  0
    5.9301   -0.8307   -0.6081 C   0  0  0  0  0  0  0  0  0  0  0  0
    3.9819   -4.4632   -0.5553 C   0  0  0  0  0  0  0  0  0  0  0  0
    5.1772   -4.3643   -1.1524 N   0  0  0  0  0  0  0  0  0  0  0  0
    7.0369   -3.0737   -1.6920 C   0  0  0  0  0  0  0  0  0  0  0  0
    7.2196   -0.7313   -1.1404 C   0  0  0  0  0  0  0  0  0  0  0  0
    7.7754   -1.8831   -1.6772 C   0  0  0  0  0  0  0  0  0  0  0  0
    3.2017   -1.2135    0.6662 N   0  0  0  0  0  0  0  0  0  0  0  0
    1.7168   -1.1021    0.7006 C   0  0  1  0  0  0  0  0  0  0  0  0
    3.8086   -0.2264    1.5763 C   0  0  0  0  0  0  0  0  0  0  0  0
    1.3691    0.3454    0.2417 C   0  0  0  0  0  0  0  0  0  0  0  0
    3.4366    1.1744    1.0518 C   0  0  0  0  0  0  0  0  0  0  0  0
    2.0094    1.3487    1.0573 O   0  0  0  0  0  0  0  0  0  0  0  0
    3.3257   -5.7783   -0.5915 C   0  0  0  0  0  0  0  0  0  0  0  0
    2.4638   -6.2007    0.4571 C   0  0  0  0  0  0  0  0  0  0  0  0
    3.5411   -6.6869   -1.6562 C   0  0  0  0  0  0  0  0  0  0  0  0
    1.8682   -7.4660    0.3861 C   0  0  0  0  0  0  0  0  0  0  0  0
    2.0215   -5.6238    1.6885 C   0  0  0  0  0  0  0  0  0  0  0  0
    2.9314   -7.9406   -1.6983 C   0  0  0  0  0  0  0  0  0  0  0  0
    1.0941   -7.6203    1.5169 N   0  0  0  0  0  0  0  0  0  0  0  0
    2.0802   -8.3520   -0.6754 C   0  0  0  0  0  0  0  0  0  0  0  0
    1.1835   -6.5175    2.3118 C   0  0  0  0  0  0  0  0  0  0  0  0
    7.9101    0.5622   -1.0611 C   0  0  0  0  0  0  0  0  0  0  0  0
    8.7169    1.1436   -2.0168 N   0  0  0  0  0  0  0  0  0  0  0  0
    7.8438    1.5105   -0.0476 C   0  0  0  0  0  0  0  0  0  0  0  0
    9.1663    2.3701   -1.6710 N   0  0  0  0  0  0  0  0  0  0  0  0
    8.6240    2.5924   -0.4772 C   0  0  0  0  0  0  0  0  0  0  0  0
    0.9869   -3.1057    0.2632 H   0  0  0  0  0  0  0  0  0  0  0  0
   -0.1574   -1.8365   -0.0856 H   0  0  0  0  0  0  0  0  0  0  0  0
    1.2117   -2.0879   -1.1811 H   0  0  0  0  0  0  0  0  0  0  0  0
    8.9401    1.4411   -4.0509 H   0  0  0  0  0  0  0  0  0  0  0  0
   10.1548    0.3721   -3.2732 H   0  0  0  0  0  0  0  0  0  0  0  0
    8.4906   -0.2112   -3.6012 H   0  0  0  0  0  0  0  0  0  0  0  0
    5.4847    0.0839   -0.2493 H   0  0  0  0  0  0  0  0  0  0  0  0
    7.4694   -3.9578   -2.1582 H   0  0  0  0  0  0  0  0  0  0  0  0
    8.7793   -1.8926   -2.0911 H   0  0  0  0  0  0  0  0  0  0  0  0
    1.4010   -1.2100    1.7473 H   0  0  0  0  0  0  0  0  0  0  0  0
    3.3718   -0.3541    2.5761 H   0  0  0  0  0  0  0  0  0  0  0  0
    4.8863   -0.3447    1.7148 H   0  0  0  0  0  0  0  0  0  0  0  0
    1.6638    0.5050   -0.8039 H   0  0  0  0  0  0  0  0  0  0  0  0
    0.2910    0.5203    0.3139 H   0  0  0  0  0  0  0  0  0  0  0  0
    3.7944    1.3426    0.0287 H   0  0  0  0  0  0  0  0  0  0  0  0
    3.8763    1.9482    1.6863 H   0  0  0  0  0  0  0  0  0  0  0  0
    4.2020   -6.3998   -2.4736 H   0  0  0  0  0  0  0  0  0  0  0  0
    2.2945   -4.6504    2.0751 H   0  0  0  0  0  0  0  0  0  0  0  0
    3.1260   -8.6046   -2.5377 H   0  0  0  0  0  0  0  0  0  0  0  0
    0.5485   -8.4493    1.7218 H   0  0  0  0  0  0  0  0  0  0  0  0
    1.6063   -9.3289   -0.7050 H   0  0  0  0  0  0  0  0  0  0  0  0
    0.6450   -6.4586    3.2480 H   0  0  0  0  0  0  0  0  0  0  0  0
    7.2949    1.4338    0.8802 H   0  0  0  0  0  0  0  0  0  0  0  0
    8.8143    3.5325    0.0241 H   0  0  0  0  0  0  0  0  0  0  0  0
  1 33  1  0  0  0  0
  1 34  1  0  0  0  0
  1 35  1  0  0  0  0
  2 29  1  0  0  0  0
  2 36  1  0  0  0  0
  2 37  1  0  0  0  0
  2 38  1  0  0  0  0
  3  4  1  0  0  0  0
  3  5  2  0  0  0  0
  3 13  1  0  0  0  0
  4  6  2  0  0  0  0
  4  7  1  0  0  0  0
  5  8  1  0  0  0  0
  6  9  1  0  0  0  0
  6 10  1  0  0  0  0
  7 11  2  0  0  0  0
  7 39  1  0  0  0  0
  8  9  2  0  0  0  0
  8 19  1  0  0  0  0
 10 12  2  0  0  0  0
 10 40  1  0  0  0  0
 11 12  1  0  0  0  0
 11 28  1  0  0  0  0
 12 41  1  0  0  0  0
 13 14  1  0  0  0  0
 13 15  1  0  0  0  0
 14 16  1  0  0  0  0
 14 42  1  1  0  0  0
 14  1  1  0  0  0  0
 15 17  1  0  0  0  0
 15 43  1  0  0  0  0
 15 44  1  0  0  0  0
 16 18  1  0  0  0  0
 16 45  1  0  0  0  0
 16 46  1  0  0  0  0
 17 18  1  0  0  0  0
 17 47  1  0  0  0  0
 17 48  1  0  0  0  0
 19 20  1  0  0  0  0
 19 21  2  0  0  0  0
 20 22  2  0  0  0  0
 20 23  1  0  0  0  0
 21 24  1  0  0  0  0
 21 49  1  0  0  0  0
 22 25  1  0  0  0  0
 22 26  1  0  0  0  0
 23 27  2  0  0  0  0
 23 50  1  0  0  0  0
 24 26  2  0  0  0  0
 24 51  1  0  0  0  0
 25 27  1  0  0  0  0
 25 52  1  0  0  0  0
 26 53  1  0  0  0  0
 27 54  1  0  0  0  0
 28 29  1  0  0  0  0
 28 30  2  0  0  0  0
 29 31  1  0  0  0  0
 30 32  1  0  0  0  0
 30 55  1  0  0  0  0
 31 32  2  0  0  0  0
 32 56  1  0  0  0  0
M  END
>  <Mol_ID>
6404

>  <Formula>
C25H24N6O

>  <MolWeight>
424.49766

>  <Cat>
E1136

>  <Name>
SKLB-197

>  <Target>
ATM/ATR

>  <Form>
free base

>  <CAS>
2713577-16-1

>  <URL>
http://www.selleckchem.com/products/sklb-197.html

$$$$
