SKLB-23bb
 OpenBabel08302521223D

 53 55  0  0  0  0  0  0  0  0999 V2000
    3.4078    1.4413    3.9121 C   0  0  0  0  0  0  0  0  0  0  0  0
    2.5978    1.2707    5.0213 C   0  0  0  0  0  0  0  0  0  0  0  0
    1.2147    1.3705    4.8793 C   0  0  0  0  0  0  0  0  0  0  0  0
    0.6175    1.6988    3.6683 C   0  0  0  0  0  0  0  0  0  0  0  0
    1.4189    1.9421    2.5441 C   0  0  0  0  0  0  0  0  0  0  0  0
    2.8227    1.7345    2.6809 C   0  0  0  0  0  0  0  0  0  0  0  0
   -0.7107    1.7811    3.6536 N   0  0  0  0  0  0  0  0  0  0  0  0
   -1.2934    2.1307    2.5023 C   0  0  0  0  0  0  0  0  0  0  0  0
   -0.6366    2.4295    1.3727 N   0  0  0  0  0  0  0  0  0  0  0  0
    0.7191    2.3732    1.3839 C   0  0  0  0  0  0  0  0  0  0  0  0
    1.4066    2.7747    0.1917 N   0  0  0  0  0  0  0  0  0  0  0  0
    0.5078    2.8789   -0.9693 C   0  0  0  0  0  0  0  0  0  0  0  0
    2.5855    3.5641    0.1004 C   0  0  0  0  0  0  0  0  0  0  0  0
    3.4621    3.4230   -0.9929 C   0  0  0  0  0  0  0  0  0  0  0  0
    4.7188    4.0470   -1.0163 C   0  0  0  0  0  0  0  0  0  0  0  0
    5.1458    4.7878    0.1000 C   0  0  0  0  0  0  0  0  0  0  0  0
    4.2629    4.9923    1.1606 C   0  0  0  0  0  0  0  0  0  0  0  0
    2.9873    4.4162    1.1403 C   0  0  0  0  0  0  0  0  0  0  0  0
    6.4346    5.2573    0.0569 O   0  0  0  0  0  0  0  0  0  0  0  0
    6.9386    5.8975    1.2205 C   0  0  0  0  0  0  0  0  0  0  0  0
    5.6231    3.9415   -2.0476 O   0  0  0  0  0  0  0  0  0  0  0  0
    5.1436    3.5348   -3.3267 C   0  0  0  0  0  0  0  0  0  0  0  0
    5.8818    4.3187   -4.4108 C   0  0  0  0  0  0  0  0  0  0  0  0
    7.4008    4.1188   -4.4021 C   0  0  0  0  0  0  0  0  0  0  0  0
    8.0540    4.9299   -5.5035 C   0  0  0  0  0  0  0  0  0  0  0  0
    9.4279    4.8575   -5.5091 N   0  0  0  0  0  0  0  0  0  0  0  0
    7.4428    5.5961   -6.3372 O   0  0  0  0  0  0  0  0  0  0  0  0
   10.0636    5.5057   -6.5954 O   0  0  0  0  0  0  0  0  0  0  0  0
   -2.7860    2.2372    2.5101 C   0  0  0  0  0  0  0  0  0  0  0  0
    4.4874    1.3523    3.9970 H   0  0  0  0  0  0  0  0  0  0  0  0
    3.0306    1.0475    5.9924 H   0  0  0  0  0  0  0  0  0  0  0  0
    0.5791    1.2004    5.7457 H   0  0  0  0  0  0  0  0  0  0  0  0
    3.4793    1.8234    1.8193 H   0  0  0  0  0  0  0  0  0  0  0  0
   -0.1716    3.7345   -0.8731 H   0  0  0  0  0  0  0  0  0  0  0  0
    1.0384    2.9975   -1.9202 H   0  0  0  0  0  0  0  0  0  0  0  0
   -0.0866    1.9631   -1.0848 H   0  0  0  0  0  0  0  0  0  0  0  0
    3.1812    2.7535   -1.7980 H   0  0  0  0  0  0  0  0  0  0  0  0
    4.5396    5.5727    2.0344 H   0  0  0  0  0  0  0  0  0  0  0  0
    2.3327    4.5925    1.9917 H   0  0  0  0  0  0  0  0  0  0  0  0
    6.4146    6.8412    1.3995 H   0  0  0  0  0  0  0  0  0  0  0  0
    6.8876    5.2424    2.0973 H   0  0  0  0  0  0  0  0  0  0  0  0
    7.9935    6.1293    1.0438 H   0  0  0  0  0  0  0  0  0  0  0  0
    5.3225    2.4585   -3.4396 H   0  0  0  0  0  0  0  0  0  0  0  0
    4.0784    3.7371   -3.4667 H   0  0  0  0  0  0  0  0  0  0  0  0
    5.4826    4.0319   -5.3890 H   0  0  0  0  0  0  0  0  0  0  0  0
    5.6749    5.3850   -4.2737 H   0  0  0  0  0  0  0  0  0  0  0  0
    7.8286    4.4314   -3.4430 H   0  0  0  0  0  0  0  0  0  0  0  0
    7.6442    3.0623   -4.5626 H   0  0  0  0  0  0  0  0  0  0  0  0
    9.9441    4.1073   -5.0630 H   0  0  0  0  0  0  0  0  0  0  0  0
    9.3038    5.9179   -7.0653 H   0  0  0  0  0  0  0  0  0  0  0  0
   -3.2315    1.2621    2.7300 H   0  0  0  0  0  0  0  0  0  0  0  0
   -3.0974    2.9466    3.2834 H   0  0  0  0  0  0  0  0  0  0  0  0
   -3.1659    2.5870    1.5463 H   0  0  0  0  0  0  0  0  0  0  0  0
  1  2  2  0  0  0  0
  1 30  1  0  0  0  0
  2  3  1  0  0  0  0
  2 31  1  0  0  0  0
  3  4  2  0  0  0  0
  3 32  1  0  0  0  0
  4  5  1  0  0  0  0
  4  7  1  0  0  0  0
  5  6  2  0  0  0  0
  6  1  1  0  0  0  0
  6 33  1  0  0  0  0
  7  8  2  0  0  0  0
  8  9  1  0  0  0  0
  8 29  1  0  0  0  0
  9 10  2  0  0  0  0
 10  5  1  0  0  0  0
 10 11  1  0  0  0  0
 11 12  1  0  0  0  0
 11 13  1  0  0  0  0
 12 34  1  0  0  0  0
 12 35  1  0  0  0  0
 12 36  1  0  0  0  0
 13 14  2  0  0  0  0
 14 15  1  0  0  0  0
 14 37  1  0  0  0  0
 15 16  2  0  0  0  0
 15 21  1  0  0  0  0
 16 17  1  0  0  0  0
 16 19  1  0  0  0  0
 17 18  2  0  0  0  0
 17 38  1  0  0  0  0
 18 13  1  0  0  0  0
 18 39  1  0  0  0  0
 19 20  1  0  0  0  0
 20 40  1  0  0  0  0
 20 41  1  0  0  0  0
 20 42  1  0  0  0  0
 21 22  1  0  0  0  0
 22 23  1  0  0  0  0
 22 43  1  0  0  0  0
 22 44  1  0  0  0  0
 23 24  1  0  0  0  0
 23 45  1  0  0  0  0
 23 46  1  0  0  0  0
 24 25  1  0  0  0  0
 24 47  1  0  0  0  0
 24 48  1  0  0  0  0
 25 26  1  0  0  0  0
 25 27  2  0  0  0  0
 26 28  1  0  0  0  0
 26 49  1  0  0  0  0
 28 50  1  0  0  0  0
 29 51  1  0  0  0  0
 29 52  1  0  0  0  0
 29 53  1  0  0  0  0
M  END
>  <Mol_ID>
4697

>  <Formula>
C21H24N4O4

>  <MolWeight>
396.43966

>  <Cat>
S8743

>  <Name>
SKLB-23bb

>  <Synonyms>
N/A

>  <Target>
HDAC

>  <Form>
free base

>  <CAS>
1815580-06-3

>  <URL>
http://www.selleck.cn/products/sklb-23bb.html

$$$$
