SKLB 610
 OpenBabel08302521223D

 46 48  0  0  0  0  0  0  0  0999 V2000
    4.0302    0.4830    0.0325 C   0  0  0  0  0  0  0  0  0  0  0  0
    5.1892    0.3352    0.8046 C   0  0  0  0  0  0  0  0  0  0  0  0
    5.8899    1.4689    1.2597 C   0  0  0  0  0  0  0  0  0  0  0  0
    5.4377    2.7486    0.8975 C   0  0  0  0  0  0  0  0  0  0  0  0
    4.3008    2.9002    0.1076 C   0  0  0  0  0  0  0  0  0  0  0  0
    3.5996    1.7736   -0.3166 C   0  0  0  0  0  0  0  0  0  0  0  0
    7.1022    1.3309    2.1479 C   0  0  0  0  0  0  0  0  0  0  0  0
    7.4289    0.0353    2.4136 F   0  0  0  0  0  0  0  0  0  0  0  0
    8.2161    1.8987    1.6130 F   0  0  0  0  0  0  0  0  0  0  0  0
    6.9202    1.9232    3.3604 F   0  0  0  0  0  0  0  0  0  0  0  0
   -1.0195   -6.9894   -3.4812 C   0  0  0  0  0  0  0  0  0  0  0  0
   -0.2024   -6.7141   -2.3985 C   0  0  0  0  0  0  0  0  0  0  0  0
   -0.7812   -6.7021   -1.1351 C   0  0  0  0  0  0  0  0  0  0  0  0
   -2.1032   -7.1109   -0.9834 C   0  0  0  0  0  0  0  0  0  0  0  0
   -2.8226   -7.4422   -2.1224 C   0  0  0  0  0  0  0  0  0  0  0  0
   -2.3253   -7.3654   -3.3775 N   0  0  0  0  0  0  0  0  0  0  0  0
   -0.4798   -6.7602   -4.8593 C   0  0  0  0  0  0  0  0  0  0  0  0
    0.6772   -6.3924   -5.0344 O   0  0  0  0  0  0  0  0  0  0  0  0
   -1.3883   -6.9569   -5.8742 N   0  0  0  0  0  0  0  0  0  0  0  0
   -0.0948   -6.3267   -0.0018 O   0  0  0  0  0  0  0  0  0  0  0  0
    0.7350   -5.2222   -0.0424 C   0  0  0  0  0  0  0  0  0  0  0  0
    0.6385   -4.1831   -0.9680 C   0  0  0  0  0  0  0  0  0  0  0  0
    1.5211   -3.1001   -0.9201 C   0  0  0  0  0  0  0  0  0  0  0  0
    2.4591   -2.9852    0.1035 C   0  0  0  0  0  0  0  0  0  0  0  0
    2.5560   -4.0269    1.0360 C   0  0  0  0  0  0  0  0  0  0  0  0
    1.7002   -5.1380    0.9618 C   0  0  0  0  0  0  0  0  0  0  0  0
    3.2170   -0.6711   -0.4574 C   0  0  0  0  0  0  0  0  0  0  0  0
    2.5233   -0.4759   -1.4513 O   0  0  0  0  0  0  0  0  0  0  0  0
    3.2746   -1.8411    0.2866 N   0  0  0  0  0  0  0  0  0  0  0  0
   -1.0655   -6.7422   -7.2593 C   0  0  0  0  0  0  0  0  0  0  0  0
    5.5742   -0.6523    1.0466 H   0  0  0  0  0  0  0  0  0  0  0  0
    5.9745    3.6357    1.2331 H   0  0  0  0  0  0  0  0  0  0  0  0
    3.9553    3.8920   -0.1746 H   0  0  0  0  0  0  0  0  0  0  0  0
    2.7047    1.9041   -0.9245 H   0  0  0  0  0  0  0  0  0  0  0  0
    0.8365   -6.4432   -2.5514 H   0  0  0  0  0  0  0  0  0  0  0  0
   -2.5671   -7.1565   -0.0036 H   0  0  0  0  0  0  0  0  0  0  0  0
   -3.8561   -7.7720   -2.0517 H   0  0  0  0  0  0  0  0  0  0  0  0
   -2.3129   -7.2778   -5.6000 H   0  0  0  0  0  0  0  0  0  0  0  0
   -0.1142   -4.1744   -1.7505 H   0  0  0  0  0  0  0  0  0  0  0  0
    1.4227   -2.3520   -1.6995 H   0  0  0  0  0  0  0  0  0  0  0  0
    3.2827   -3.9885    1.8434 H   0  0  0  0  0  0  0  0  0  0  0  0
    1.7795   -5.9308    1.7015 H   0  0  0  0  0  0  0  0  0  0  0  0
    3.8461   -1.8501    1.1193 H   0  0  0  0  0  0  0  0  0  0  0  0
   -0.9743   -7.7162   -7.7450 H   0  0  0  0  0  0  0  0  0  0  0  0
   -1.8820   -6.1804   -7.7192 H   0  0  0  0  0  0  0  0  0  0  0  0
   -0.1300   -6.1875   -7.3715 H   0  0  0  0  0  0  0  0  0  0  0  0
  1  2  2  0  0  0  0
  1  6  1  0  0  0  0
  2  3  1  0  0  0  0
  2 31  1  0  0  0  0
  3  4  2  0  0  0  0
  3  7  1  0  0  0  0
  4  5  1  0  0  0  0
  4 32  1  0  0  0  0
  5  6  2  0  0  0  0
  5 33  1  0  0  0  0
  6 34  1  0  0  0  0
  7  8  1  0  0  0  0
  7  9  1  0  0  0  0
  7 10  1  0  0  0  0
 11 12  2  0  0  0  0
 11 16  1  0  0  0  0
 11 17  1  0  0  0  0
 12 13  1  0  0  0  0
 12 35  1  0  0  0  0
 13 14  2  0  0  0  0
 13 20  1  0  0  0  0
 14 15  1  0  0  0  0
 14 36  1  0  0  0  0
 15 16  2  0  0  0  0
 15 37  1  0  0  0  0
 17 18  2  0  0  0  0
 17 19  1  0  0  0  0
 19 30  1  0  0  0  0
 19 38  1  0  0  0  0
 20 21  1  0  0  0  0
 21 22  2  0  0  0  0
 21 26  1  0  0  0  0
 22 23  1  0  0  0  0
 22 39  1  0  0  0  0
 23 24  2  0  0  0  0
 23 40  1  0  0  0  0
 24 25  1  0  0  0  0
 24 29  1  0  0  0  0
 25 26  2  0  0  0  0
 25 41  1  0  0  0  0
 26 42  1  0  0  0  0
 27  1  1  0  0  0  0
 27 28  2  0  0  0  0
 27 29  1  0  0  0  0
 29 43  1  0  0  0  0
 30 44  1  0  0  0  0
 30 45  1  0  0  0  0
 30 46  1  0  0  0  0
M  END
>  <Mol_ID>
4714

>  <Formula>
C21H16F3N3O3

>  <MolWeight>
415.3652496

>  <Cat>
S6526

>  <Name>
SKLB 610

>  <Synonyms>
N/A

>  <Target>
FGFR,PDGFR,VEGFR

>  <Form>
Free Base

>  <CAS>
1125780-41-7

>  <URL>
http://www.selleck.cn/products/sklb610.html

$$$$
