SLC13A5-IN-1
 OpenBabel08302521383D

 47 49  0  0  0  0  0  0  0  0999 V2000
    1.0391    0.0683   -0.0142 S   0  0  0  0  0  0  0  0  0  0  0  0
    0.6238    1.3473    0.5224 O   0  0  0  0  0  0  0  0  0  0  0  0
    0.6283   -0.3461   -1.3432 O   0  0  0  0  0  0  0  0  0  0  0  0
    7.0038   -0.0369   -0.9235 C   0  0  0  0  0  0  0  0  0  0  0  0
    7.7023    1.0088   -1.4851 N   0  0  0  0  0  0  0  0  0  0  0  0
    7.5435   -0.9063   -0.2525 O   0  0  0  0  0  0  0  0  0  0  0  0
    9.1224    1.1704   -1.2568 C   0  0  0  0  0  0  0  0  0  0  0  0
    0.4856   -1.1699    1.1435 C   0  0  0  0  0  0  0  0  0  0  0  0
    0.8505   -1.0827    2.4912 C   0  0  0  0  0  0  0  0  0  0  0  0
   -0.4518   -2.1324    0.7330 C   0  0  0  0  0  0  0  0  0  0  0  0
    0.2868   -1.9666    3.4220 C   0  0  0  0  0  0  0  0  0  0  0  0
   -1.0279   -2.9925    1.6730 C   0  0  0  0  0  0  0  0  0  0  0  0
   -0.6544   -2.9123    3.0172 C   0  0  0  0  0  0  0  0  0  0  0  0
    2.7773    0.0243   -0.0016 N   0  0  0  0  0  0  0  0  0  0  0  0
    3.3214   -1.2114   -0.6347 C   0  0  0  0  0  0  0  0  0  0  0  0
    3.3552    1.2559   -0.6364 C   0  0  0  0  0  0  0  0  0  0  0  0
    4.8402   -1.2451   -0.5490 C   0  0  0  0  0  0  0  0  0  0  0  0
    4.8814    1.2570   -0.5764 C   0  0  0  0  0  0  0  0  0  0  0  0
    5.4946   -0.0089   -1.1791 C   0  0  0  0  0  0  0  0  0  0  0  0
    9.9569    0.5035   -2.3175 C   0  0  0  0  0  0  0  0  0  0  0  0
   10.3171    1.1937   -3.4827 C   0  0  0  0  0  0  0  0  0  0  0  0
   10.3949   -0.8188   -2.1497 C   0  0  0  0  0  0  0  0  0  0  0  0
   11.1195    0.5821   -4.4478 C   0  0  0  0  0  0  0  0  0  0  0  0
   11.1961   -1.4290   -3.1162 C   0  0  0  0  0  0  0  0  0  0  0  0
   11.5604   -0.7274   -4.2633 C   0  0  0  0  0  0  0  0  0  0  0  0
    7.2605    1.6065   -2.1672 H   0  0  0  0  0  0  0  0  0  0  0  0
    9.3287    2.2470   -1.2423 H   0  0  0  0  0  0  0  0  0  0  0  0
    9.3895    0.7859   -0.2658 H   0  0  0  0  0  0  0  0  0  0  0  0
    1.5331   -0.3097    2.8287 H   0  0  0  0  0  0  0  0  0  0  0  0
   -0.7749   -2.1867   -0.3036 H   0  0  0  0  0  0  0  0  0  0  0  0
    0.5583   -1.8952    4.4737 H   0  0  0  0  0  0  0  0  0  0  0  0
   -1.7900   -3.7050    1.3666 H   0  0  0  0  0  0  0  0  0  0  0  0
   -1.1164   -3.5717    3.7480 H   0  0  0  0  0  0  0  0  0  0  0  0
    3.0169   -1.2617   -1.6859 H   0  0  0  0  0  0  0  0  0  0  0  0
    2.9265   -2.0880   -0.1120 H   0  0  0  0  0  0  0  0  0  0  0  0
    3.0074    2.1447   -0.0973 H   0  0  0  0  0  0  0  0  0  0  0  0
    3.0243    1.3346   -1.6785 H   0  0  0  0  0  0  0  0  0  0  0  0
    5.2074   -2.1492   -1.0506 H   0  0  0  0  0  0  0  0  0  0  0  0
    5.1377   -1.3275    0.5045 H   0  0  0  0  0  0  0  0  0  0  0  0
    5.2091    1.3595    0.4660 H   0  0  0  0  0  0  0  0  0  0  0  0
    5.2567    2.1443   -1.1027 H   0  0  0  0  0  0  0  0  0  0  0  0
    5.3322   -0.0258   -2.2649 H   0  0  0  0  0  0  0  0  0  0  0  0
    9.9893    2.2185   -3.6377 H   0  0  0  0  0  0  0  0  0  0  0  0
   10.1183   -1.3772   -1.2562 H   0  0  0  0  0  0  0  0  0  0  0  0
   11.4084    1.1304   -5.3404 H   0  0  0  0  0  0  0  0  0  0  0  0
   11.5397   -2.4499   -2.9693 H   0  0  0  0  0  0  0  0  0  0  0  0
   12.1901   -1.2004   -5.0122 H   0  0  0  0  0  0  0  0  0  0  0  0
  1  2  2  0  0  0  0
  1  3  2  0  0  0  0
  1  8  1  0  0  0  0
  1 14  1  0  0  0  0
  4  5  1  0  0  0  0
  4  6  2  0  0  0  0
  4 19  1  0  0  0  0
  5  7  1  0  0  0  0
  5 26  1  0  0  0  0
  7 20  1  0  0  0  0
  7 27  1  0  0  0  0
  7 28  1  0  0  0  0
  8  9  2  0  0  0  0
  8 10  1  0  0  0  0
  9 11  1  0  0  0  0
  9 29  1  0  0  0  0
 10 12  2  0  0  0  0
 10 30  1  0  0  0  0
 11 13  2  0  0  0  0
 11 31  1  0  0  0  0
 12 13  1  0  0  0  0
 12 32  1  0  0  0  0
 13 33  1  0  0  0  0
 14 15  1  0  0  0  0
 14 16  1  0  0  0  0
 15 17  1  0  0  0  0
 15 34  1  0  0  0  0
 15 35  1  0  0  0  0
 16 18  1  0  0  0  0
 16 36  1  0  0  0  0
 16 37  1  0  0  0  0
 17 19  1  0  0  0  0
 17 38  1  0  0  0  0
 17 39  1  0  0  0  0
 18 19  1  0  0  0  0
 18 40  1  0  0  0  0
 18 41  1  0  0  0  0
 19 42  1  0  0  0  0
 20 21  2  0  0  0  0
 20 22  1  0  0  0  0
 21 23  1  0  0  0  0
 21 43  1  0  0  0  0
 22 24  2  0  0  0  0
 22 44  1  0  0  0  0
 23 25  2  0  0  0  0
 23 45  1  0  0  0  0
 24 25  1  0  0  0  0
 24 46  1  0  0  0  0
 25 47  1  0  0  0  0
M  END
>  <Mol_ID>
7672

>  <Formula>
C19H19Cl3N2O3S

>  <MolWeight>
461.78976

>  <Cat>
S0755

>  <Name>
SLC13A5-IN-1

>  <Target>
Sodium Channel

>  <Form>
chloride

>  <CAS>
2227548-95-8

>  <URL>
https://www.selleckchem.com/products/slc13a5-in-1.html

$$$$
