SM-7368
 OpenBabel08302521333D

 26 27  0  0  0  0  0  0  0  0999 V2000
    1.0954   -0.0369   -0.0659 C   0  0  0  0  0  0  0  0  0  0  0  0
    0.2885    0.4971   -1.1980 C   0  0  0  0  0  0  0  0  0  0  0  0
    0.7638    1.5159   -2.0354 C   0  0  0  0  0  0  0  0  0  0  0  0
   -0.0666    2.0457   -3.0316 C   0  0  0  0  0  0  0  0  0  0  0  0
   -1.3724    1.5537   -3.1864 C   0  0  0  0  0  0  0  0  0  0  0  0
   -1.8468    0.5252   -2.3633 C   0  0  0  0  0  0  0  0  0  0  0  0
   -1.0155    0.0056   -1.3674 C   0  0  0  0  0  0  0  0  0  0  0  0
    0.4990   -0.3354    0.9615 O   0  0  0  0  0  0  0  0  0  0  0  0
    2.4399   -0.1857   -0.3156 N   0  0  0  0  0  0  0  0  0  0  0  0
    4.8786   -0.9746    0.0891 S   0  0  0  0  0  0  0  0  0  0  0  0
    3.3035   -0.6243    0.6545 C   0  0  0  0  0  0  0  0  0  0  0  0
    3.0940   -0.7951    1.9351 N   0  0  0  0  0  0  0  0  0  0  0  0
    4.2548   -1.2475    2.5368 C   0  0  0  0  0  0  0  0  0  0  0  0
    5.3118   -1.4153    1.6759 C   0  0  0  0  0  0  0  0  0  0  0  0
    6.6218   -1.8787    2.0010 N   0  3  0  0  0  0  0  0  0  0  0  0
    6.8566   -2.0659    3.2023 O   0  0  0  0  0  0  0  0  0  0  0  0
    7.4210   -2.0632    1.0751 O   0  5  0  0  0  0  0  0  0  0  0  0
   -2.2600    2.1415   -4.1995 N   0  3  0  0  0  0  0  0  0  0  0  0
   -1.8157    3.0792   -4.8772 O   0  0  0  0  0  0  0  0  0  0  0  0
   -3.3979    1.6658   -4.3154 O   0  5  0  0  0  0  0  0  0  0  0  0
    1.7534    1.9437   -1.8946 H   0  0  0  0  0  0  0  0  0  0  0  0
    0.3058    2.8542   -3.6592 H   0  0  0  0  0  0  0  0  0  0  0  0
   -2.8573    0.1339   -2.4665 H   0  0  0  0  0  0  0  0  0  0  0  0
   -1.3929   -0.7748   -0.7062 H   0  0  0  0  0  0  0  0  0  0  0  0
    2.8166   -0.0718   -1.2447 H   0  0  0  0  0  0  0  0  0  0  0  0
    4.2597   -1.4375    3.6053 H   0  0  0  0  0  0  0  0  0  0  0  0
  1  2  1  0  0  0  0
  1  8  2  0  0  0  0
  1  9  1  0  0  0  0
  2  3  2  0  0  0  0
  2  7  1  0  0  0  0
  3  4  1  0  0  0  0
  3 21  1  0  0  0  0
  4  5  2  0  0  0  0
  4 22  1  0  0  0  0
  5  6  1  0  0  0  0
  5 18  1  0  0  0  0
  6  7  2  0  0  0  0
  6 23  1  0  0  0  0
  7 24  1  0  0  0  0
  9 11  1  0  0  0  0
  9 25  1  0  0  0  0
 10 11  1  0  0  0  0
 10 14  1  0  0  0  0
 11 12  2  0  0  0  0
 12 13  1  0  0  0  0
 13 14  2  0  0  0  0
 13 26  1  0  0  0  0
 14 15  1  0  0  0  0
 15 16  2  0  0  0  0
 15 17  1  0  0  0  0
 18 19  2  0  0  0  0
 18 20  1  0  0  0  0
M  CHG  4  15   1  17  -1  18   1  20  -1
M  END
>  <Mol_ID>
6339

>  <Formula>
C10H5ClN4O5S

>  <MolWeight>
328.6885

>  <Cat>
E0783

>  <Name>
SM-7368

>  <Target>
MMP,NF-¦ÊB

>  <Form>
free base

>  <CAS>
380623-76-7

>  <URL>
http://www.selleckchem.com/products/sm-7368.html

$$$$
