SM 324405
 OpenBabel08302521283D

 51 53  0  0  0  0  0  0  0  0999 V2000
    0.7701   -0.0737   -0.2003 O   0  0  0  0  0  0  0  0  0  0  0  0
   -4.0984   -4.0743   -3.1043 O   0  0  0  0  0  0  0  0  0  0  0  0
   -3.1224    2.6250    0.4353 O   0  0  0  0  0  0  0  0  0  0  0  0
   -4.8158    3.5526    1.6817 O   0  0  0  0  0  0  0  0  0  0  0  0
   -2.7745   -2.2204   -2.4940 N   0  0  0  0  0  0  0  0  0  0  0  0
   -2.1646   -4.2795   -1.8317 N   0  0  0  0  0  0  0  0  0  0  0  0
   -0.9499   -0.9817   -1.4020 N   0  0  0  0  0  0  0  0  0  0  0  0
    0.6025   -2.4310   -0.2394 N   0  0  0  0  0  0  0  0  0  0  0  0
    0.3672   -4.7754   -0.2537 N   0  0  0  0  0  0  0  0  0  0  0  0
   -3.4855   -1.1383   -3.1156 C   0  0  0  0  0  0  0  0  0  0  0  0
   -1.6118   -2.0886   -1.7244 C   0  0  0  0  0  0  0  0  0  0  0  0
   -1.2440   -3.3600   -1.3426 C   0  0  0  0  0  0  0  0  0  0  0  0
   -4.5306   -0.5208   -2.2173 C   0  0  0  0  0  0  0  0  0  0  0  0
   -3.1361   -3.5742   -2.5512 C   0  0  0  0  0  0  0  0  0  0  0  0
   -4.4405    0.8308   -1.8597 C   0  0  0  0  0  0  0  0  0  0  0  0
   -0.1147   -3.5105   -0.5931 C   0  0  0  0  0  0  0  0  0  0  0  0
   -5.3886    1.4170   -1.0079 C   0  0  0  0  0  0  0  0  0  0  0  0
   -5.6083   -1.2766   -1.7336 C   0  0  0  0  0  0  0  0  0  0  0  0
    0.1447   -1.2167   -0.6531 C   0  0  0  0  0  0  0  0  0  0  0  0
    2.7267    1.0692    0.6134 C   0  0  0  0  0  0  0  0  0  0  0  0
    2.1571   -0.2509    0.0776 C   0  0  0  0  0  0  0  0  0  0  0  0
   -6.4370    0.6340   -0.5106 C   0  0  0  0  0  0  0  0  0  0  0  0
   -6.5509   -0.7049   -0.8800 C   0  0  0  0  0  0  0  0  0  0  0  0
   -5.2457    2.8604   -0.5947 C   0  0  0  0  0  0  0  0  0  0  0  0
    2.1007    1.4745    1.9561 C   0  0  0  0  0  0  0  0  0  0  0  0
    2.6818    2.7774    2.4801 C   0  0  0  0  0  0  0  0  0  0  0  0
   -4.4010    3.0463    0.6422 C   0  0  0  0  0  0  0  0  0  0  0  0
   -2.2691    2.7547    1.5717 C   0  0  0  0  0  0  0  0  0  0  0  0
   -2.1600   -5.2783   -1.7079 H   0  0  0  0  0  0  0  0  0  0  0  0
   -0.3527   -5.3967    0.0959 H   0  0  0  0  0  0  0  0  0  0  0  0
    1.1518   -4.6789    0.3843 H   0  0  0  0  0  0  0  0  0  0  0  0
   -2.7606   -0.3887   -3.4557 H   0  0  0  0  0  0  0  0  0  0  0  0
   -3.9872   -1.5192   -4.0138 H   0  0  0  0  0  0  0  0  0  0  0  0
   -3.6126    1.4317   -2.2340 H   0  0  0  0  0  0  0  0  0  0  0  0
   -5.7188   -2.3225   -2.0140 H   0  0  0  0  0  0  0  0  0  0  0  0
    3.8128    0.9704    0.7315 H   0  0  0  0  0  0  0  0  0  0  0  0
    2.5425    1.8662   -0.1198 H   0  0  0  0  0  0  0  0  0  0  0  0
    2.3246   -1.0375    0.8239 H   0  0  0  0  0  0  0  0  0  0  0  0
    2.6831   -0.5123   -0.8485 H   0  0  0  0  0  0  0  0  0  0  0  0
   -7.1732    1.0602    0.1684 H   0  0  0  0  0  0  0  0  0  0  0  0
   -7.3712   -1.3084   -0.4991 H   0  0  0  0  0  0  0  0  0  0  0  0
   -4.8166    3.4594   -1.4068 H   0  0  0  0  0  0  0  0  0  0  0  0
   -6.2385    3.2871   -0.4013 H   0  0  0  0  0  0  0  0  0  0  0  0
    1.0170    1.5899    1.8422 H   0  0  0  0  0  0  0  0  0  0  0  0
    2.2660    0.6824    2.6936 H   0  0  0  0  0  0  0  0  0  0  0  0
    2.5097    3.5977    1.7756 H   0  0  0  0  0  0  0  0  0  0  0  0
    2.2119    3.0437    3.4312 H   0  0  0  0  0  0  0  0  0  0  0  0
    3.7600    2.6882    2.6482 H   0  0  0  0  0  0  0  0  0  0  0  0
   -2.1485    3.8088    1.8395 H   0  0  0  0  0  0  0  0  0  0  0  0
   -2.6606    2.1820    2.4189 H   0  0  0  0  0  0  0  0  0  0  0  0
   -1.2891    2.3499    1.3063 H   0  0  0  0  0  0  0  0  0  0  0  0
  1 19  1  0  0  0  0
  1 21  1  0  0  0  0
  2 14  2  0  0  0  0
  3 27  1  0  0  0  0
  3 28  1  0  0  0  0
  4 27  2  0  0  0  0
  5 10  1  0  0  0  0
  5 11  1  0  0  0  0
  5 14  1  0  0  0  0
  6 12  1  0  0  0  0
  6 14  1  0  0  0  0
  6 29  1  0  0  0  0
  7 11  1  0  0  0  0
  7 19  2  0  0  0  0
  8 16  2  0  0  0  0
  8 19  1  0  0  0  0
  9 16  1  0  0  0  0
  9 30  1  0  0  0  0
  9 31  1  0  0  0  0
 10 13  1  0  0  0  0
 10 32  1  0  0  0  0
 10 33  1  0  0  0  0
 11 12  2  0  0  0  0
 12 16  1  0  0  0  0
 13 15  2  0  0  0  0
 13 18  1  0  0  0  0
 15 17  1  0  0  0  0
 15 34  1  0  0  0  0
 17 22  2  0  0  0  0
 17 24  1  0  0  0  0
 18 23  2  0  0  0  0
 18 35  1  0  0  0  0
 20 21  1  0  0  0  0
 20 25  1  0  0  0  0
 20 36  1  0  0  0  0
 20 37  1  0  0  0  0
 21 38  1  0  0  0  0
 21 39  1  0  0  0  0
 22 23  1  0  0  0  0
 22 40  1  0  0  0  0
 23 41  1  0  0  0  0
 24 27  1  0  0  0  0
 24 42  1  0  0  0  0
 24 43  1  0  0  0  0
 25 26  1  0  0  0  0
 25 44  1  0  0  0  0
 25 45  1  0  0  0  0
 26 46  1  0  0  0  0
 26 47  1  0  0  0  0
 26 48  1  0  0  0  0
 28 49  1  0  0  0  0
 28 50  1  0  0  0  0
 28 51  1  0  0  0  0
M  END
>  <Mol_ID>
5385

>  <Formula>
C19H23N5O4

>  <MolWeight>
385.41702

>  <Cat>
S0494

>  <Name>
SM 324405

>  <Synonyms>
N/A

>  <Target>
TLR

>  <Form>
Free Base

>  <CAS>
677773-91-0

>  <URL>
https://www.selleckchem.com/products/sm-324405.html

$$$$
