SMER28.cdx
 OpenBabel08302520413D

 25 26  0  0  0  0  0  0  0  0999 V2000
   -2.5209   -0.4713    0.1646 C   0  0  0  0  0  0  0  0  0  0  0  0
   -2.3996    0.8998   -0.0012 C   0  0  0  0  0  0  0  0  0  0  0  0
   -1.1261    1.4699   -0.0713 C   0  0  0  0  0  0  0  0  0  0  0  0
    0.0280    0.6973   -0.0134 C   0  0  0  0  0  0  0  0  0  0  0  0
   -0.0891   -0.6967    0.0994 C   0  0  0  0  0  0  0  0  0  0  0  0
   -1.3825   -1.2725    0.2179 C   0  0  0  0  0  0  0  0  0  0  0  0
    1.2022    1.3257   -0.0906 N   0  0  0  0  0  0  0  0  0  0  0  0
    2.2904    0.5515   -0.0858 C   0  0  0  0  0  0  0  0  0  0  0  0
    2.3089   -0.7829   -0.0534 N   0  0  0  0  0  0  0  0  0  0  0  0
    1.1235   -1.4119    0.0361 C   0  0  0  0  0  0  0  0  0  0  0  0
   -4.2353   -1.2544    0.2963 Br  0  0  0  0  0  0  0  0  0  0  0  0
    1.1361   -2.7929   -0.0587 N   0  0  0  0  0  0  0  0  0  0  0  0
    2.1121   -3.4536   -0.8923 C   0  0  0  0  0  0  0  0  0  0  0  0
    2.8507   -4.4511   -0.0568 C   0  0  0  0  0  0  0  0  0  0  0  0
    2.8283   -5.7781   -0.2452 C   0  0  0  0  0  0  0  0  0  0  0  0
   -3.2763    1.5377   -0.0735 H   0  0  0  0  0  0  0  0  0  0  0  0
   -1.0314    2.5467   -0.1933 H   0  0  0  0  0  0  0  0  0  0  0  0
   -1.4951   -2.3442    0.3478 H   0  0  0  0  0  0  0  0  0  0  0  0
    3.2506    1.0532   -0.1238 H   0  0  0  0  0  0  0  0  0  0  0  0
    0.4066   -3.3461    0.3587 H   0  0  0  0  0  0  0  0  0  0  0  0
    1.5841   -3.9484   -1.7158 H   0  0  0  0  0  0  0  0  0  0  0  0
    2.8343   -2.7710   -1.3541 H   0  0  0  0  0  0  0  0  0  0  0  0
    3.4792   -4.0367    0.7286 H   0  0  0  0  0  0  0  0  0  0  0  0
    3.4216   -6.4359    0.3829 H   0  0  0  0  0  0  0  0  0  0  0  0
    2.2328   -6.2353   -1.0291 H   0  0  0  0  0  0  0  0  0  0  0  0
  1  2  2  0  0  0  0
  1 11  1  0  0  0  0
  2  3  1  0  0  0  0
  2 16  1  0  0  0  0
  3  4  2  0  0  0  0
  3 17  1  0  0  0  0
  4  5  1  0  0  0  0
  4  7  1  0  0  0  0
  5  6  2  0  0  0  0
  6  1  1  0  0  0  0
  6 18  1  0  0  0  0
  7  8  2  0  0  0  0
  8  9  1  0  0  0  0
  8 19  1  0  0  0  0
  9 10  2  0  0  0  0
 10  5  1  0  0  0  0
 10 12  1  0  0  0  0
 12 13  1  0  0  0  0
 12 20  1  0  0  0  0
 13 14  1  0  0  0  0
 13 21  1  0  0  0  0
 13 22  1  0  0  0  0
 14 15  2  0  0  0  0
 14 23  1  0  0  0  0
 15 24  1  0  0  0  0
 15 25  1  0  0  0  0
M  END
>  <Mol_ID>
3930

>  <Formula>
C11H10BrN3

>  <MolWeight>
264.1212

>  <Cat>
S8240

>  <Name>
SMER28

>  <Synonyms>
N/A

>  <Target>
Autophagy

>  <Form>
free base

>  <CAS>
307538-42-7

>  <URL>
http://selleckchem.com/products/smer28.html

$$$$
