SMI-16a
 OpenBabel08302520403D

 31 32  0  0  0  0  0  0  0  0999 V2000
   -0.5827    1.2897    0.5859 S   0  0  0  0  0  0  0  0  0  0  0  0
    7.2782   -0.7546    0.0559 O   0  0  0  0  0  0  0  0  0  0  0  0
    2.0281   -1.4633    1.0792 O   0  0  0  0  0  0  0  0  0  0  0  0
   -2.4116   -0.4801    1.2846 O   0  0  0  0  0  0  0  0  0  0  0  0
   -0.2172   -1.1420    1.2523 N   0  0  0  0  0  0  0  0  0  0  0  0
    7.9861   -1.0060   -1.1577 C   0  0  0  0  0  0  0  0  0  0  0  0
    9.1576   -1.9565   -0.8996 C   0  0  0  0  0  0  0  0  0  0  0  0
    3.4723    0.9736    0.0929 C   0  0  0  0  0  0  0  0  0  0  0  0
    6.0539   -0.1468   -0.0414 C   0  0  0  0  0  0  0  0  0  0  0  0
    3.9500    0.4316   -1.1035 C   0  0  0  0  0  0  0  0  0  0  0  0
    4.3104    1.0043    1.2090 C   0  0  0  0  0  0  0  0  0  0  0  0
    5.2354   -0.1232   -1.1712 C   0  0  0  0  0  0  0  0  0  0  0  0
    5.5883    0.4362    1.1410 C   0  0  0  0  0  0  0  0  0  0  0  0
    2.0892    1.4497    0.1766 C   0  0  0  0  0  0  0  0  0  0  0  0
    1.0471    0.6950    0.5530 C   0  0  0  0  0  0  0  0  0  0  0  0
   10.1857   -1.4187    0.0823 C   0  0  0  0  0  0  0  0  0  0  0  0
    1.0554   -0.7354    0.9789 C   0  0  0  0  0  0  0  0  0  0  0  0
   -1.2269   -0.2548    1.1003 C   0  0  0  0  0  0  0  0  0  0  0  0
   -0.4023   -2.0886    1.5471 H   0  0  0  0  0  0  0  0  0  0  0  0
    7.3512   -1.4960   -1.9016 H   0  0  0  0  0  0  0  0  0  0  0  0
    8.3510   -0.0538   -1.5589 H   0  0  0  0  0  0  0  0  0  0  0  0
    8.7733   -2.9066   -0.5098 H   0  0  0  0  0  0  0  0  0  0  0  0
    9.6554   -2.1709   -1.8525 H   0  0  0  0  0  0  0  0  0  0  0  0
    3.3161    0.4027   -1.9869 H   0  0  0  0  0  0  0  0  0  0  0  0
    3.9709    1.4356    2.1470 H   0  0  0  0  0  0  0  0  0  0  0  0
    5.5369   -0.5658   -2.1129 H   0  0  0  0  0  0  0  0  0  0  0  0
    6.2188    0.4303    2.0266 H   0  0  0  0  0  0  0  0  0  0  0  0
    1.9470    2.4860   -0.1202 H   0  0  0  0  0  0  0  0  0  0  0  0
    9.7428   -1.2279    1.0641 H   0  0  0  0  0  0  0  0  0  0  0  0
   10.9904   -2.1505    0.2144 H   0  0  0  0  0  0  0  0  0  0  0  0
   10.6333   -0.4907   -0.2860 H   0  0  0  0  0  0  0  0  0  0  0  0
  1 15  1  0  0  0  0
  1 18  1  0  0  0  0
  2  6  1  0  0  0  0
  2  9  1  0  0  0  0
  3 17  2  0  0  0  0
  4 18  2  0  0  0  0
  5 17  1  0  0  0  0
  5 18  1  0  0  0  0
  5 19  1  0  0  0  0
  6  7  1  0  0  0  0
  6 20  1  0  0  0  0
  6 21  1  0  0  0  0
  7 16  1  0  0  0  0
  7 22  1  0  0  0  0
  7 23  1  0  0  0  0
  8 10  2  0  0  0  0
  8 11  1  0  0  0  0
  8 14  1  0  0  0  0
  9 12  2  0  0  0  0
  9 13  1  0  0  0  0
 10 12  1  0  0  0  0
 10 24  1  0  0  0  0
 11 13  2  0  0  0  0
 11 25  1  0  0  0  0
 12 26  1  0  0  0  0
 13 27  1  0  0  0  0
 14 15  2  0  0  0  0
 14 28  1  0  0  0  0
 15 17  1  0  0  0  0
 16 29  1  0  0  0  0
 16 30  1  0  0  0  0
 16 31  1  0  0  0  0
M  END
>  <Mol_ID>
3800

>  <Formula>
C13H13NO3S

>  <MolWeight>
263.31222

>  <Cat>
S6497

>  <Name>
SMI-16a

>  <Synonyms>
N/A

>  <Target>
Pim

>  <Form>
free base

>  <CAS>
587852-28-6

>  <URL>
http://www.selleck.cn/products/smi-16a.html

$$$$
