SN-38.cdx
 OpenBabel08302522033D

 49 53  0  0  0  0  0  0  0  0999 V2000
   -0.4374   -0.0946    0.4632 C   0  0  0  0  0  0  0  0  0  0  0  0
   -1.9186   -0.1884    0.6170 C   0  0  0  0  0  0  0  0  0  0  0  0
   -0.1366    1.2301    0.1462 C   0  0  0  0  0  0  0  0  0  0  0  0
    0.4862   -1.0652    0.5021 N   0  0  0  0  0  0  0  0  0  0  0  0
   -2.4091    1.0083    0.1110 N   0  0  0  0  0  0  0  0  0  0  0  0
   -2.8008   -1.0941    1.1078 C   0  0  0  0  0  0  0  0  0  0  0  0
    1.1738    1.6710    0.0317 C   0  0  0  0  0  0  0  0  0  0  0  0
   -1.3841    2.0126   -0.0619 C   0  0  0  0  0  0  0  0  0  0  0  0
    1.7774   -0.6793    0.2670 C   0  0  0  0  0  0  0  0  0  0  0  0
   -3.7017    1.2295   -0.2618 C   0  0  0  0  0  0  0  0  0  0  0  0
   -4.2489   -0.8044    1.0223 C   0  0  0  0  0  0  0  0  0  0  0  0
    2.1781    0.6831    0.0739 C   0  0  0  0  0  0  0  0  0  0  0  0
    1.4473    3.1572   -0.0203 C   0  0  0  0  0  0  0  0  0  0  0  0
    2.7871   -1.6399    0.2164 C   0  0  0  0  0  0  0  0  0  0  0  0
   -4.6332    0.1796    0.1679 C   0  0  0  0  0  0  0  0  0  0  0  0
   -4.0818    2.2341   -0.8624 O   0  0  0  0  0  0  0  0  0  0  0  0
   -5.4620   -1.4970    1.6491 C   0  0  2  0  0  0  0  0  0  0  0  0
    3.5477    1.0063   -0.0817 C   0  0  0  0  0  0  0  0  0  0  0  0
    1.6644    3.6955    1.3905 C   0  0  0  0  0  0  0  0  0  0  0  0
    4.1413   -1.3111    0.0388 C   0  0  0  0  0  0  0  0  0  0  0  0
   -6.0847    0.3704   -0.2029 C   0  0  0  0  0  0  0  0  0  0  0  0
   -6.3414   -0.2129    2.0347 C   0  0  0  0  0  0  0  0  0  0  0  0
    4.5125    0.0140   -0.0890 C   0  0  0  0  0  0  0  0  0  0  0  0
   -6.8928    0.4263    0.9713 O   0  0  0  0  0  0  0  0  0  0  0  0
   -6.4635    0.2398    3.1701 O   0  0  0  0  0  0  0  0  0  0  0  0
    5.8355    0.3091   -0.2273 O   0  0  0  0  0  0  0  0  0  0  0  0
   -5.6353   -2.3681    2.9249 C   0  0  0  0  0  0  0  0  0  0  0  0
   -5.9146   -2.3615    0.5840 O   0  0  0  0  0  0  0  0  0  0  0  0
   -7.1376   -2.7852    3.0413 C   0  0  0  0  0  0  0  0  0  0  0  0
   -2.4599   -2.0487    1.5010 H   0  0  0  0  0  0  0  0  0  0  0  0
   -1.4527    2.4477   -1.0631 H   0  0  0  0  0  0  0  0  0  0  0  0
   -1.5167    2.7818    0.7061 H   0  0  0  0  0  0  0  0  0  0  0  0
    2.3056    3.3889   -0.6581 H   0  0  0  0  0  0  0  0  0  0  0  0
    0.6072    3.6887   -0.4821 H   0  0  0  0  0  0  0  0  0  0  0  0
    2.5180   -2.6886    0.3193 H   0  0  0  0  0  0  0  0  0  0  0  0
    3.8643    2.0354   -0.2084 H   0  0  0  0  0  0  0  0  0  0  0  0
    2.5248    3.2189    1.8728 H   0  0  0  0  0  0  0  0  0  0  0  0
    1.8418    4.7745    1.3685 H   0  0  0  0  0  0  0  0  0  0  0  0
    0.7887    3.5098    2.0234 H   0  0  0  0  0  0  0  0  0  0  0  0
    4.8989   -2.0899    0.0122 H   0  0  0  0  0  0  0  0  0  0  0  0
   -6.2700    1.2874   -0.7663 H   0  0  0  0  0  0  0  0  0  0  0  0
   -6.4433   -0.4526   -0.8333 H   0  0  0  0  0  0  0  0  0  0  0  0
    5.9510    1.2755   -0.2357 H   0  0  0  0  0  0  0  0  0  0  0  0
   -5.0396   -3.2841    2.8782 H   0  0  0  0  0  0  0  0  0  0  0  0
   -5.3512   -1.8345    3.8395 H   0  0  0  0  0  0  0  0  0  0  0  0
   -5.3432   -3.1483    0.6009 H   0  0  0  0  0  0  0  0  0  0  0  0
   -7.4558   -3.3792    2.1763 H   0  0  0  0  0  0  0  0  0  0  0  0
   -7.3345   -3.3716    3.9410 H   0  0  0  0  0  0  0  0  0  0  0  0
   -7.8116   -1.9189    3.0777 H   0  0  0  0  0  0  0  0  0  0  0  0
  1  2  1  0  0  0  0
  1  3  1  0  0  0  0
  1  4  2  0  0  0  0
  2  5  1  0  0  0  0
  2  6  2  0  0  0  0
  3  7  2  0  0  0  0
  3  8  1  0  0  0  0
  4  9  1  0  0  0  0
  5 10  1  0  0  0  0
  5  8  1  0  0  0  0
  6 11  1  0  0  0  0
  6 30  1  0  0  0  0
  7 12  1  0  0  0  0
  7 13  1  0  0  0  0
  8 31  1  0  0  0  0
  8 32  1  0  0  0  0
  9 14  2  0  0  0  0
  9 12  1  0  0  0  0
 10 15  1  0  0  0  0
 10 16  2  0  0  0  0
 11 17  1  0  0  0  0
 11 15  2  0  0  0  0
 12 18  2  0  0  0  0
 13 19  1  0  0  0  0
 13 33  1  0  0  0  0
 13 34  1  0  0  0  0
 14 20  1  0  0  0  0
 14 35  1  0  0  0  0
 15 21  1  0  0  0  0
 17 22  1  0  0  0  0
 17 27  1  0  0  0  0
 17 28  1  6  0  0  0
 18 23  1  0  0  0  0
 18 36  1  0  0  0  0
 19 37  1  0  0  0  0
 19 38  1  0  0  0  0
 19 39  1  0  0  0  0
 20 23  2  0  0  0  0
 20 40  1  0  0  0  0
 21 24  1  0  0  0  0
 21 41  1  0  0  0  0
 21 42  1  0  0  0  0
 22 25  2  0  0  0  0
 22 24  1  0  0  0  0
 23 26  1  0  0  0  0
 26 43  1  0  0  0  0
 27 29  1  0  0  0  0
 27 44  1  0  0  0  0
 27 45  1  0  0  0  0
 28 46  1  0  0  0  0
 29 47  1  0  0  0  0
 29 48  1  0  0  0  0
 29 49  1  0  0  0  0
M  END
>  <Mol_ID>
1209

>  <Formula>
C22H20N2O5

>  <MolWeight>
392.4046

>  <Cat>
S4908

>  <Name>
SN-38

>  <Synonyms>
NK012

>  <Target>
ADC Cytotoxin,Autophagy,Topoisomerase

>  <Form>
free base

>  <CAS>
86639-52-3

>  <URL>
http://selleckchem.com/products/sn-38.html

$$$$
