SNX2112.cdx
 OpenBabel08302521423D

 60 63  0  0  0  0  0  0  0  0999 V2000
    1.6614   -0.1975   -0.0789 C   0  0  0  0  0  0  0  0  0  0  0  0
    0.9087   -1.3671   -0.0706 C   0  0  0  0  0  0  0  0  0  0  0  0
   -0.4744   -1.2763   -0.1907 C   0  0  0  0  0  0  0  0  0  0  0  0
   -1.1149   -0.0188   -0.2352 C   0  0  0  0  0  0  0  0  0  0  0  0
   -0.3778    1.1808   -0.1765 C   0  0  0  0  0  0  0  0  0  0  0  0
    1.0419    1.0690   -0.1253 C   0  0  0  0  0  0  0  0  0  0  0  0
    1.9825    2.2373   -0.1326 C   0  0  0  0  0  0  0  0  0  0  0  0
    1.4401    3.4854   -0.2214 N   0  0  0  0  0  0  0  0  0  0  0  0
    3.1988    2.0988   -0.0829 O   0  0  0  0  0  0  0  0  0  0  0  0
   -0.9980    2.4391    0.0519 N   0  0  0  0  0  0  0  0  0  0  0  0
   -2.3861    2.7355   -0.3612 C   0  0  2  0  0  0  0  0  0  0  0  0
   -2.4808    2.9457   -1.8762 C   0  0  0  0  0  0  0  0  0  0  0  0
   -1.7638    4.2120   -2.3574 C   0  0  0  0  0  0  0  0  0  0  0  0
   -2.2002    5.4689   -1.6070 C   0  0  2  0  0  0  0  0  0  0  0  0
   -2.2120    5.2960   -0.0900 C   0  0  0  0  0  0  0  0  0  0  0  0
   -2.8794    3.9983    0.3735 C   0  0  0  0  0  0  0  0  0  0  0  0
   -3.5130    5.8282   -2.0327 O   0  0  0  0  0  0  0  0  0  0  0  0
   -1.2276   -2.4730   -0.2357 N   0  0  0  0  0  0  0  0  0  0  0  0
   -0.9876   -3.4872    0.6346 N   0  0  0  0  0  0  0  0  0  0  0  0
   -1.9830   -4.3827    0.4266 C   0  0  0  0  0  0  0  0  0  0  0  0
   -2.7521   -4.0039   -0.6958 C   0  0  0  0  0  0  0  0  0  0  0  0
   -2.2262   -2.8048   -1.1171 C   0  0  0  0  0  0  0  0  0  0  0  0
   -3.8613   -4.6359   -1.3822 C   0  0  0  0  0  0  0  0  0  0  0  0
   -4.3410   -3.9501   -2.6670 C   0  0  0  0  0  0  0  0  0  0  0  0
   -4.1018   -2.4112   -2.6840 C   0  0  0  0  0  0  0  0  0  0  0  0
   -2.6199   -2.0875   -2.3544 C   0  0  0  0  0  0  0  0  0  0  0  0
   -2.1977   -5.6133    1.2736 C   0  0  0  0  0  0  0  0  0  0  0  0
   -1.3021   -5.7208    2.2927 F   0  0  0  0  0  0  0  0  0  0  0  0
   -3.4298   -5.6158    1.8513 F   0  0  0  0  0  0  0  0  0  0  0  0
   -2.0916   -6.7578    0.5488 F   0  0  0  0  0  0  0  0  0  0  0  0
   -4.3405   -5.6946   -0.9931 O   0  0  0  0  0  0  0  0  0  0  0  0
   -4.4055   -1.8488   -4.0821 C   0  0  0  0  0  0  0  0  0  0  0  0
   -5.0385   -1.7206   -1.6695 C   0  0  0  0  0  0  0  0  0  0  0  0
    2.7476   -0.2736   -0.0388 H   0  0  0  0  0  0  0  0  0  0  0  0
    1.4092   -2.3325   -0.0202 H   0  0  0  0  0  0  0  0  0  0  0  0
   -2.2001    0.0065   -0.2317 H   0  0  0  0  0  0  0  0  0  0  0  0
    2.0508    4.2856   -0.2849 H   0  0  0  0  0  0  0  0  0  0  0  0
    0.4340    3.5855   -0.3177 H   0  0  0  0  0  0  0  0  0  0  0  0
   -0.9132    2.5910    1.0651 H   0  0  0  0  0  0  0  0  0  0  0  0
   -3.0503    1.9203   -0.0576 H   0  0  0  0  0  0  0  0  0  0  0  0
   -3.5411    3.0178   -2.1520 H   0  0  0  0  0  0  0  0  0  0  0  0
   -2.0776    2.0826   -2.4072 H   0  0  0  0  0  0  0  0  0  0  0  0
   -1.9717    4.3357   -3.4276 H   0  0  0  0  0  0  0  0  0  0  0  0
   -0.6819    4.0822   -2.2544 H   0  0  0  0  0  0  0  0  0  0  0  0
   -1.5380    6.3048   -1.8635 H   0  0  0  0  0  0  0  0  0  0  0  0
   -1.1846    5.3300    0.2889 H   0  0  0  0  0  0  0  0  0  0  0  0
   -2.7499    6.1368    0.3683 H   0  0  0  0  0  0  0  0  0  0  0  0
   -3.9628    4.0894    0.2223 H   0  0  0  0  0  0  0  0  0  0  0  0
   -2.7280    3.8915    1.4553 H   0  0  0  0  0  0  0  0  0  0  0  0
   -3.4324    6.1773   -2.9389 H   0  0  0  0  0  0  0  0  0  0  0  0
   -5.4072   -4.1708   -2.7964 H   0  0  0  0  0  0  0  0  0  0  0  0
   -3.7987   -4.4244   -3.4963 H   0  0  0  0  0  0  0  0  0  0  0  0
   -1.9732   -2.4474   -3.1670 H   0  0  0  0  0  0  0  0  0  0  0  0
   -2.4759   -1.0068   -2.2926 H   0  0  0  0  0  0  0  0  0  0  0  0
   -5.4494   -2.0216   -4.3626 H   0  0  0  0  0  0  0  0  0  0  0  0
   -4.2229   -0.7680   -4.1148 H   0  0  0  0  0  0  0  0  0  0  0  0
   -3.7710   -2.3141   -4.8445 H   0  0  0  0  0  0  0  0  0  0  0  0
   -4.9302   -2.1263   -0.6581 H   0  0  0  0  0  0  0  0  0  0  0  0
   -4.8306   -0.6463   -1.6134 H   0  0  0  0  0  0  0  0  0  0  0  0
   -6.0877   -1.8460   -1.9571 H   0  0  0  0  0  0  0  0  0  0  0  0
  1  2  2  0  0  0  0
  1 34  1  0  0  0  0
  2  3  1  0  0  0  0
  2 35  1  0  0  0  0
  3  4  2  0  0  0  0
  3 18  1  0  0  0  0
  4  5  1  0  0  0  0
  4 36  1  0  0  0  0
  5  6  2  0  0  0  0
  5 10  1  0  0  0  0
  6  1  1  0  0  0  0
  6  7  1  0  0  0  0
  7  8  1  0  0  0  0
  7  9  2  0  0  0  0
  8 37  1  0  0  0  0
  8 38  1  0  0  0  0
 10 39  1  0  0  0  0
 11 10  1  0  0  0  0
 11 12  1  0  0  0  0
 11 40  1  1  0  0  0
 12 13  1  0  0  0  0
 12 41  1  0  0  0  0
 12 42  1  0  0  0  0
 13 14  1  0  0  0  0
 13 43  1  0  0  0  0
 13 44  1  0  0  0  0
 14 15  1  0  0  0  0
 14 45  1  6  0  0  0
 14 17  1  0  0  0  0
 15 16  1  0  0  0  0
 15 46  1  0  0  0  0
 15 47  1  0  0  0  0
 16 11  1  0  0  0  0
 16 48  1  0  0  0  0
 16 49  1  0  0  0  0
 17 50  1  0  0  0  0
 18 19  1  0  0  0  0
 19 20  2  0  0  0  0
 20 21  1  0  0  0  0
 20 27  1  0  0  0  0
 21 22  2  0  0  0  0
 21 23  1  0  0  0  0
 22 18  1  0  0  0  0
 23 24  1  0  0  0  0
 23 31  2  0  0  0  0
 24 25  1  0  0  0  0
 24 51  1  0  0  0  0
 24 52  1  0  0  0  0
 25 26  1  0  0  0  0
 25 32  1  0  0  0  0
 25 33  1  0  0  0  0
 26 22  1  0  0  0  0
 26 53  1  0  0  0  0
 26 54  1  0  0  0  0
 27 28  1  0  0  0  0
 27 29  1  0  0  0  0
 27 30  1  0  0  0  0
 32 55  1  0  0  0  0
 32 56  1  0  0  0  0
 32 57  1  0  0  0  0
 33 58  1  0  0  0  0
 33 59  1  0  0  0  0
 33 60  1  0  0  0  0
M  END
>  <Mol_ID>
845

>  <Formula>
C23H27F3N4O3

>  <MolWeight>
464.4806896

>  <Cat>
S2639

>  <Name>
SNX-2112 (PF-04928473)

>  <Synonyms>
N/A

>  <Target>
HSP (HSP90)

>  <Form>
free base

>  <CAS>
908112-43-6

>  <URL>
http://selleckchem.com/products/snx-2112.html

$$$$
