Sodium Bicarbonate
 OpenBabel08302521453D

  6  5  0  0  0  0  0  0  0  0999 V2000
    1.0722   -0.0094    0.0550 C   0  0  0  0  0  0  0  0  0  0  0  0
    0.4656   -1.0116   -0.2606 O   0  0  0  0  0  0  0  0  0  0  0  0
    0.5059    1.1419    0.4176 O   0  0  0  0  0  0  0  0  0  0  0  0
    2.4008    0.0985    0.0890 O   0  0  0  0  0  0  0  0  0  0  0  0
   -0.4539    0.9712    0.3638 H   0  0  0  0  0  0  0  0  0  0  0  0
    2.7256   -0.7797   -0.1876 H   0  0  0  0  0  0  0  0  0  0  0  0
  1  2  2  0  0  0  0
  1  3  1  0  0  0  0
  1  4  1  0  0  0  0
  3  5  1  0  0  0  0
  4  6  1  0  0  0  0
M  END
>  <Mol_ID>
9547

>  <Formula>
CH2NaO3

>  <MolWeight>
85.01455

>  <Cat>
E2895

>  <Name>
Sodium Bicarbonate

>  <Synonyms>
Armex Blast Media Flow Formula XL, BI-CF 40E, BI-H 40E, Bakeshure 180, Sodium Hydrogen Carbonate, Sodium hydrogen carbonate

>  <Target>
Others

>  <Form>
Free base

>  <CAS>
144-55-8

>  <URL>
https://www.selleckchem.com/products/sodium-bicarbonate.html

$$$$
