Sodium dehydroacetate
 OpenBabel08302520393D

 19 19  0  0  0  0  0  0  0  0999 V2000
   -0.7369    1.2067   -0.0091 C   0  0  0  0  0  0  0  0  0  0  0  0
   -1.4341    0.0439   -0.0741 C   0  0  0  0  0  0  0  0  0  0  0  0
    0.7564    1.1872    0.0498 C   0  0  0  0  0  0  0  0  0  0  0  0
   -1.4242    2.5475   -0.0430 C   0  0  0  0  0  0  0  0  0  0  0  0
   -0.6875   -1.2045   -0.0373 C   0  0  0  0  0  0  0  0  0  0  0  0
   -2.6574   -0.2293   -0.1835 O   0  5  0  0  0  0  0  0  0  0  0  0
    1.3898   -0.0313    0.0041 O   0  0  0  0  0  0  0  0  0  0  0  0
    1.4472    2.2001    0.1591 O   0  0  0  0  0  0  0  0  0  0  0  0
   -2.8352    2.7325    0.4692 C   0  0  0  0  0  0  0  0  0  0  0  0
   -0.8398    3.5514   -0.4726 O   0  0  0  0  0  0  0  0  0  0  0  0
    0.6459   -1.2208   -0.0139 C   0  0  0  0  0  0  0  0  0  0  0  0
    1.4680   -2.4664    0.0021 C   0  0  0  0  0  0  0  0  0  0  0  0
   -1.2415   -2.1415   -0.0400 H   0  0  0  0  0  0  0  0  0  0  0  0
   -2.8329    3.5500    1.1973 H   0  0  0  0  0  0  0  0  0  0  0  0
   -3.4828    3.0003   -0.3705 H   0  0  0  0  0  0  0  0  0  0  0  0
   -3.2457    1.8686    0.9876 H   0  0  0  0  0  0  0  0  0  0  0  0
    2.1125   -2.5067   -0.8810 H   0  0  0  0  0  0  0  0  0  0  0  0
    2.1029   -2.4908    0.8943 H   0  0  0  0  0  0  0  0  0  0  0  0
    0.8471   -3.3688    0.0075 H   0  0  0  0  0  0  0  0  0  0  0  0
  1  2  2  0  0  0  0
  1  3  1  0  0  0  0
  1  4  1  0  0  0  0
  2  5  1  0  0  0  0
  2  6  1  0  0  0  0
  3  7  1  0  0  0  0
  3  8  2  0  0  0  0
  4  9  1  0  0  0  0
  4 10  2  0  0  0  0
  5 11  2  0  0  0  0
  5 13  1  0  0  0  0
  7 11  1  0  0  0  0
  9 14  1  0  0  0  0
  9 15  1  0  0  0  0
  9 16  1  0  0  0  0
 11 12  1  0  0  0  0
 12 17  1  0  0  0  0
 12 18  1  0  0  0  0
 12 19  1  0  0  0  0
M  CHG  1   6  -1
M  END
>  <Mol_ID>
3601

>  <Formula>
C8H7NaO4

>  <MolWeight>
190.12855

>  <Cat>
S6235

>  <Name>
Sodium dehydroacetate

>  <Synonyms>
N/A

>  <Target>
Bacterial

>  <Form>
free base

>  <CAS>
4418-26-2

>  <URL>
http://www.selleck.cn/products/sodium-dehydroacetate.html

$$$$
