Sodium picosulfate.cdx
 OpenBabel08302522033D

 42 44  0  0  0  0  0  0  0  0999 V2000
    0.7831   -0.0503    0.0222 C   0  0  0  0  0  0  0  0  0  0  0  0
    0.2967    1.3388   -0.3985 C   0  0  0  0  0  0  0  0  0  0  0  0
    0.5789   -1.1469   -1.0328 C   0  0  0  0  0  0  0  0  0  0  0  0
    0.3847   -0.4315    1.4601 C   0  0  0  0  0  0  0  0  0  0  0  0
   -1.0292    1.5798   -0.7894 C   0  0  0  0  0  0  0  0  0  0  0  0
    1.1743    2.4375   -0.3384 C   0  0  0  0  0  0  0  0  0  0  0  0
    1.5799   -1.3523   -2.0009 C   0  0  0  0  0  0  0  0  0  0  0  0
   -0.5529   -1.9743   -1.0865 C   0  0  0  0  0  0  0  0  0  0  0  0
   -0.9472   -0.4460    1.8841 C   0  0  0  0  0  0  0  0  0  0  0  0
    1.3963   -0.7493    2.3173 N   0  0  0  0  0  0  0  0  0  0  0  0
   -1.4824    2.8765   -1.0555 C   0  0  0  0  0  0  0  0  0  0  0  0
    0.7237    3.7300   -0.6272 C   0  0  0  0  0  0  0  0  0  0  0  0
    1.4909   -2.3930   -2.9337 C   0  0  0  0  0  0  0  0  0  0  0  0
   -0.6432   -3.0095   -2.0261 C   0  0  0  0  0  0  0  0  0  0  0  0
   -1.2530   -0.8052    3.1939 C   0  0  0  0  0  0  0  0  0  0  0  0
    1.0701   -1.0873    3.5843 C   0  0  0  0  0  0  0  0  0  0  0  0
   -0.6143    3.9588   -0.9526 C   0  0  0  0  0  0  0  0  0  0  0  0
    0.3924   -3.2445   -2.9301 C   0  0  0  0  0  0  0  0  0  0  0  0
   -0.2258   -1.1316    4.0651 C   0  0  0  0  0  0  0  0  0  0  0  0
   -0.9585    5.2695   -1.1674 O   0  0  0  0  0  0  0  0  0  0  0  0
    0.2054   -4.2850   -3.8037 O   0  0  0  0  0  0  0  0  0  0  0  0
   -2.4969    5.8262   -1.0419 S   0  0  0  0  0  0  0  0  0  0  0  0
    1.4419   -5.2069   -4.3693 S   0  0  0  0  0  0  0  0  0  0  0  0
   -3.1595    5.3618   -2.2594 O   0  0  0  0  0  0  0  0  0  0  0  0
   -3.0245    5.2469    0.1922 O   0  0  0  0  0  0  0  0  0  0  0  0
   -2.3251    7.2792   -0.9797 O   0  5  0  0  0  0  0  0  0  0  0  0
    2.1977   -4.3265   -5.2620 O   0  0  0  0  0  0  0  0  0  0  0  0
    2.1744   -5.6393   -3.1803 O   0  0  0  0  0  0  0  0  0  0  0  0
    0.7580   -6.2951   -5.0668 O   0  5  0  0  0  0  0  0  0  0  0  0
    1.8798    0.0401    0.0905 H   0  0  0  0  0  0  0  0  0  0  0  0
   -1.7424    0.7653   -0.8744 H   0  0  0  0  0  0  0  0  0  0  0  0
    2.2136    2.2983   -0.0507 H   0  0  0  0  0  0  0  0  0  0  0  0
    2.4580   -0.7106   -2.0297 H   0  0  0  0  0  0  0  0  0  0  0  0
   -1.3795   -1.8480   -0.3968 H   0  0  0  0  0  0  0  0  0  0  0  0
   -1.7562   -0.1824    1.2132 H   0  0  0  0  0  0  0  0  0  0  0  0
   -2.5246    3.0211   -1.3270 H   0  0  0  0  0  0  0  0  0  0  0  0
    1.4119    4.5694   -0.5732 H   0  0  0  0  0  0  0  0  0  0  0  0
    2.2932   -2.5204   -3.6551 H   0  0  0  0  0  0  0  0  0  0  0  0
   -1.5203   -3.6514   -2.0387 H   0  0  0  0  0  0  0  0  0  0  0  0
   -2.2876   -0.8217    3.5234 H   0  0  0  0  0  0  0  0  0  0  0  0
    1.9114   -1.3292    4.2259 H   0  0  0  0  0  0  0  0  0  0  0  0
   -0.4305   -1.4089    5.0916 H   0  0  0  0  0  0  0  0  0  0  0  0
  1  2  1  0  0  0  0
  1  3  1  0  0  0  0
  1  4  1  0  0  0  0
  1 30  1  0  0  0  0
  2  5  2  0  0  0  0
  2  6  1  0  0  0  0
  3  7  2  0  0  0  0
  3  8  1  0  0  0  0
  4  9  2  0  0  0  0
  4 10  1  0  0  0  0
  5 11  1  0  0  0  0
  5 31  1  0  0  0  0
  6 12  2  0  0  0  0
  6 32  1  0  0  0  0
  7 13  1  0  0  0  0
  7 33  1  0  0  0  0
  8 14  2  0  0  0  0
  8 34  1  0  0  0  0
  9 15  1  0  0  0  0
  9 35  1  0  0  0  0
 10 16  2  0  0  0  0
 11 17  2  0  0  0  0
 11 36  1  0  0  0  0
 12 17  1  0  0  0  0
 12 37  1  0  0  0  0
 13 18  2  0  0  0  0
 13 38  1  0  0  0  0
 14 18  1  0  0  0  0
 14 39  1  0  0  0  0
 15 19  2  0  0  0  0
 15 40  1  0  0  0  0
 16 19  1  0  0  0  0
 16 41  1  0  0  0  0
 17 20  1  0  0  0  0
 18 21  1  0  0  0  0
 19 42  1  0  0  0  0
 20 22  1  0  0  0  0
 21 23  1  0  0  0  0
 22 24  2  0  0  0  0
 22 25  2  0  0  0  0
 22 26  1  0  0  0  0
 23 27  2  0  0  0  0
 23 28  2  0  0  0  0
 23 29  1  0  0  0  0
M  CHG  2  26  -1  29  -1
M  END
>  <Mol_ID>
1203

>  <Formula>
C18H13NNa2O8S2

>  <MolWeight>
481.40726

>  <Cat>
S4020

>  <Name>
Sodium Picosulfate

>  <Synonyms>
N/A

>  <Target>
Others

>  <Form>
Sodium Salt

>  <CAS>
10040-45-6

>  <URL>
http://selleckchem.com/products/sodium-picosulfate.html

$$$$
