Sodium mesoxalate monohydrate
 OpenBabel08302521383D

 11 10  0  0  0  0  0  0  0  0999 V2000
    1.1960   -0.0529    0.4038 O   0  0  0  0  0  0  0  0  0  0  0  0
    0.9312    1.8029    1.8269 O   0  0  0  0  0  0  0  0  0  0  0  0
    0.5931    3.3847   -0.6773 O   0  5  0  0  0  0  0  0  0  0  0  0
   -1.5649    0.5802   -0.5475 O   0  5  0  0  0  0  0  0  0  0  0  0
    1.8624    1.6326   -1.4206 O   0  0  0  0  0  0  0  0  0  0  0  0
   -1.6005    1.4624    1.5628 O   0  0  0  0  0  0  0  0  0  0  0  0
    0.5421    1.2470    0.5323 C   0  0  0  0  0  0  0  0  0  0  0  0
    0.9928    2.1820   -0.6471 C   0  0  0  0  0  0  0  0  0  0  0  0
   -1.0232    1.1152    0.4657 C   0  0  0  0  0  0  0  0  0  0  0  0
    1.7603    0.1285   -0.3837 H   0  0  0  0  0  0  0  0  0  0  0  0
    0.0391    1.8884    2.2381 H   0  0  0  0  0  0  0  0  0  0  0  0
  1  7  1  0  0  0  0
  1 10  1  0  0  0  0
  2  7  1  0  0  0  0
  2 11  1  0  0  0  0
  3  8  1  0  0  0  0
  4  9  1  0  0  0  0
  5  8  2  0  0  0  0
  6  9  2  0  0  0  0
  7  8  1  0  0  0  0
  7  9  1  0  0  0  0
M  CHG  2   3  -1   4  -1
M  END
>  <Mol_ID>
7953

>  <Formula>
C3H2Na2O6

>  <MolWeight>
180.02392

>  <Cat>
S2992

>  <Name>
Sodium mesoxalate monohydrate

>  <Synonyms>
sodium 2,2-dihydroxymalonate

>  <Target>
Others

>  <Form>
Monohydrate

>  <CAS>
31635-99-1

>  <URL>
https://www.selleckchem.com/products/sodium-mesoxalate-monohydrate.html

$$$$
