Sodium acrylate
 OpenBabel08302521453D

  8  7  0  0  0  0  0  0  0  0999 V2000
    1.1260    0.0533   -0.0372 C   0  0  0  0  0  0  0  0  0  0  0  0
    0.3187   -0.9157   -0.9126 C   0  0  0  0  0  0  0  0  0  0  0  0
    0.4594    0.8471    0.6820 O   0  0  0  0  0  0  0  0  0  0  0  0
    2.3776   -0.0782   -0.1580 O   0  5  0  0  0  0  0  0  0  0  0  0
   -1.0205   -0.9470   -0.9408 C   0  0  0  0  0  0  0  0  0  0  0  0
    0.8957   -1.5977   -1.5288 H   0  0  0  0  0  0  0  0  0  0  0  0
   -1.5525   -1.6461   -1.5722 H   0  0  0  0  0  0  0  0  0  0  0  0
   -1.5949   -0.2624   -0.3222 H   0  0  0  0  0  0  0  0  0  0  0  0
  1  2  1  0  0  0  0
  1  3  2  0  0  0  0
  1  4  1  0  0  0  0
  2  5  2  0  0  0  0
  2  6  1  0  0  0  0
  5  7  1  0  0  0  0
  5  8  1  0  0  0  0
M  CHG  1   4  -1
M  END
>  <Mol_ID>
9425

>  <Formula>
C3H3NaO2

>  <MolWeight>
94.04449

>  <Cat>
E2681

>  <Name>
Sodium acrylate

>  <Target>
Others

>  <Form>
free base

>  <CAS>
7446-81-3

>  <URL>
http://www.selleckchem.com/products/sodium-acrylate.html

$$$$
