Sodium salicylate.cdx
 OpenBabel08302521493D

 16 16  0  0  0  0  0  0  0  0999 V2000
    1.0316   -0.1141    0.0688 C   0  0  0  0  0  0  0  0  0  0  0  0
    0.3397    0.1817    1.3440 C   0  0  0  0  0  0  0  0  0  0  0  0
    0.7530    1.2053    2.2039 C   0  0  0  0  0  0  0  0  0  0  0  0
    0.1006    1.4167    3.4154 C   0  0  0  0  0  0  0  0  0  0  0  0
   -0.9951    0.6238    3.7604 C   0  0  0  0  0  0  0  0  0  0  0  0
   -1.4335   -0.3806    2.8959 C   0  0  0  0  0  0  0  0  0  0  0  0
   -0.7690   -0.6018    1.6878 C   0  0  0  0  0  0  0  0  0  0  0  0
    0.4592   -0.5356   -0.9207 O   0  0  0  0  0  0  0  0  0  0  0  0
    2.3595    0.1289    0.1150 O   0  0  0  0  0  0  0  0  0  0  0  0
    1.8027    2.0342    1.9137 O   0  0  0  0  0  0  0  0  0  0  0  0
    0.4321    2.2067    4.0848 H   0  0  0  0  0  0  0  0  0  0  0  0
   -1.5128    0.7942    4.7013 H   0  0  0  0  0  0  0  0  0  0  0  0
   -2.2917   -0.9929    3.1638 H   0  0  0  0  0  0  0  0  0  0  0  0
   -1.1119   -1.3900    1.0196 H   0  0  0  0  0  0  0  0  0  0  0  0
    2.7032    0.2982    1.0179 H   0  0  0  0  0  0  0  0  0  0  0  0
    1.7810    2.2395    0.9569 H   0  0  0  0  0  0  0  0  0  0  0  0
  1  2  1  0  0  0  0
  1  8  2  0  0  0  0
  1  9  1  0  0  0  0
  2  3  2  0  0  0  0
  2  7  1  0  0  0  0
  3  4  1  0  0  0  0
  3 10  1  0  0  0  0
  4  5  2  0  0  0  0
  4 11  1  0  0  0  0
  5  6  1  0  0  0  0
  5 12  1  0  0  0  0
  6  7  2  0  0  0  0
  6 13  1  0  0  0  0
  7 14  1  0  0  0  0
  9 15  1  0  0  0  0
 10 16  1  0  0  0  0
M  END
>  <Mol_ID>
980

>  <Formula>
C7H6NaO3

>  <MolWeight>
161.11051

>  <Cat>
S3137

>  <Name>
Sodium salicylate

>  <Synonyms>
2-Hydroxybenzoic acid Sodium salt,Salicylic acid Sodium salt

>  <Target>
NF-¦ÊB

>  <Form>
sodium salt

>  <CAS>
54-21-7

>  <URL>
http://selleckchem.com/products/sodium-salicylate.html

$$$$
