Sodium dichloroacetate(DCA).cdx
 OpenBabel08302520433D

  8  7  0  0  0  0  0  0  0  0999 V2000
    1.0072    0.1465   -0.0368 C   0  0  0  0  0  0  0  0  0  0  0  0
    0.5365    1.4277    0.5852 C   0  0  0  0  0  0  0  0  0  0  0  0
   -0.2335    2.1837   -0.2255 O   0  0  0  0  0  0  0  0  0  0  0  0
    0.8189    1.7671    1.7240 O   0  0  0  0  0  0  0  0  0  0  0  0
    0.6426    0.0351   -1.0613 H   0  0  0  0  0  0  0  0  0  0  0  0
    0.6345   -0.6953    0.5522 H   0  0  0  0  0  0  0  0  0  0  0  0
    2.0999    0.1405   -0.0603 H   0  0  0  0  0  0  0  0  0  0  0  0
   -0.3871    1.8045   -1.1103 H   0  0  0  0  0  0  0  0  0  0  0  0
  1  2  1  0  0  0  0
  1  5  1  0  0  0  0
  1  6  1  0  0  0  0
  1  7  1  0  0  0  0
  2  3  1  0  0  0  0
  2  4  2  0  0  0  0
  3  8  1  0  0  0  0
M  END
>  <Mol_ID>
4147

>  <Formula>
C2HCl2NaO2

>  <MolWeight>
150.92391

>  <Cat>
S8615

>  <Name>
Sodium dichloroacetate (DCA)

>  <Synonyms>
Dichloroacetic acid, bichloroacetic acid, BCA

>  <Target>
Apoptosis related,Dehydrogenase,NKCC,ROS

>  <Form>
sodium salt

>  <CAS>
2156-56-1

>  <URL>
http://selleckchem.com/products/sodium-dichloroacetate-dca.html

$$$$
