Sodium?tetradecyl sulfate
 OpenBabel08302521373D

 49 48  0  0  0  0  0  0  0  0999 V2000
   -0.5151    2.3010    1.5879 C   0  0  0  0  0  0  0  0  0  0  0  0
   -1.1085    1.1410    0.7690 C   0  0  0  0  0  0  0  0  0  0  0  0
   -0.8432    3.7164    1.0981 C   0  0  0  0  0  0  0  0  0  0  0  0
   -0.7420   -0.2218    1.3927 C   0  0  0  0  0  0  0  0  0  0  0  0
   -2.2356    3.9694    1.1228 O   0  0  0  0  0  0  0  0  0  0  0  0
   -1.3398   -1.4147    0.6389 C   0  0  0  0  0  0  0  0  0  0  0  0
   -2.7314    5.4458    0.6444 S   0  0  0  0  0  0  0  0  0  0  0  0
   -0.9257   -2.7505    1.2729 C   0  0  0  0  0  0  0  0  0  0  0  0
   -2.1517    6.4457    1.5040 O   0  0  0  0  0  0  0  0  0  0  0  0
   -2.6076    5.5307   -0.7974 O   0  0  0  0  0  0  0  0  0  0  0  0
   -4.3096    5.4245    0.9400 O   0  0  0  0  0  0  0  0  0  0  0  0
   -1.5127   -3.9353    0.5020 C   0  0  0  0  0  0  0  0  0  0  0  0
   -1.1160   -5.2717    1.1333 C   0  0  0  0  0  0  0  0  0  0  0  0
   -1.7108   -6.4484    0.3585 C   0  0  0  0  0  0  0  0  0  0  0  0
   -1.3156   -7.7848    0.9898 C   0  0  0  0  0  0  0  0  0  0  0  0
   -1.9062   -8.9661    0.2162 C   0  0  0  0  0  0  0  0  0  0  0  0
   -1.5075  -10.3004    0.8495 C   0  0  0  0  0  0  0  0  0  0  0  0
   -2.0980  -11.4912    0.0927 C   0  0  0  0  0  0  0  0  0  0  0  0
   -1.6905  -12.8080    0.7360 C   0  0  0  0  0  0  0  0  0  0  0  0
    0.5779    2.1935    1.6017 H   0  0  0  0  0  0  0  0  0  0  0  0
   -0.8635    2.2058    2.6238 H   0  0  0  0  0  0  0  0  0  0  0  0
   -2.1977    1.2387    0.7029 H   0  0  0  0  0  0  0  0  0  0  0  0
   -0.7135    1.1800   -0.2528 H   0  0  0  0  0  0  0  0  0  0  0  0
   -0.3479    4.4318    1.7698 H   0  0  0  0  0  0  0  0  0  0  0  0
   -0.4544    3.8830    0.0895 H   0  0  0  0  0  0  0  0  0  0  0  0
    0.3499   -0.3233    1.4090 H   0  0  0  0  0  0  0  0  0  0  0  0
   -1.0800   -0.2568    2.4363 H   0  0  0  0  0  0  0  0  0  0  0  0
   -2.4336   -1.3399    0.6339 H   0  0  0  0  0  0  0  0  0  0  0  0
   -1.0111   -1.3949   -0.4073 H   0  0  0  0  0  0  0  0  0  0  0  0
    0.1683   -2.8312    1.2914 H   0  0  0  0  0  0  0  0  0  0  0  0
   -1.2660   -2.7906    2.3158 H   0  0  0  0  0  0  0  0  0  0  0  0
   -4.7480    5.9672    0.2494 H   0  0  0  0  0  0  0  0  0  0  0  0
   -2.6057   -3.8502    0.4793 H   0  0  0  0  0  0  0  0  0  0  0  0
   -1.1646   -3.9056   -0.5378 H   0  0  0  0  0  0  0  0  0  0  0  0
   -0.0229   -5.3562    1.1553 H   0  0  0  0  0  0  0  0  0  0  0  0
   -1.4624   -5.3064    2.1732 H   0  0  0  0  0  0  0  0  0  0  0  0
   -2.8039   -6.3591    0.3383 H   0  0  0  0  0  0  0  0  0  0  0  0
   -1.3670   -6.4189   -0.6828 H   0  0  0  0  0  0  0  0  0  0  0  0
   -0.2223   -7.8680    1.0135 H   0  0  0  0  0  0  0  0  0  0  0  0
   -1.6629   -7.8165    2.0299 H   0  0  0  0  0  0  0  0  0  0  0  0
   -2.9994   -8.8785    0.1941 H   0  0  0  0  0  0  0  0  0  0  0  0
   -1.5593   -8.9356   -0.8239 H   0  0  0  0  0  0  0  0  0  0  0  0
   -0.4139  -10.3835    0.8677 H   0  0  0  0  0  0  0  0  0  0  0  0
   -1.8495  -10.3281    1.8913 H   0  0  0  0  0  0  0  0  0  0  0  0
   -3.1914  -11.4199    0.0831 H   0  0  0  0  0  0  0  0  0  0  0  0
   -1.7628  -11.4789   -0.9513 H   0  0  0  0  0  0  0  0  0  0  0  0
   -2.0212  -12.8518    1.7788 H   0  0  0  0  0  0  0  0  0  0  0  0
   -2.1412  -13.6507    0.2020 H   0  0  0  0  0  0  0  0  0  0  0  0
   -0.6030  -12.9363    0.7162 H   0  0  0  0  0  0  0  0  0  0  0  0
  1  2  1  0  0  0  0
  1  3  1  0  0  0  0
  1 20  1  0  0  0  0
  1 21  1  0  0  0  0
  2  4  1  0  0  0  0
  2 22  1  0  0  0  0
  2 23  1  0  0  0  0
  3  5  1  0  0  0  0
  3 24  1  0  0  0  0
  3 25  1  0  0  0  0
  4  6  1  0  0  0  0
  4 26  1  0  0  0  0
  4 27  1  0  0  0  0
  5  7  1  0  0  0  0
  6  8  1  0  0  0  0
  6 28  1  0  0  0  0
  6 29  1  0  0  0  0
  7  9  2  0  0  0  0
  7 10  2  0  0  0  0
  7 11  1  0  0  0  0
  8 12  1  0  0  0  0
  8 30  1  0  0  0  0
  8 31  1  0  0  0  0
 11 32  1  0  0  0  0
 12 13  1  0  0  0  0
 12 33  1  0  0  0  0
 12 34  1  0  0  0  0
 13 14  1  0  0  0  0
 13 35  1  0  0  0  0
 13 36  1  0  0  0  0
 14 15  1  0  0  0  0
 14 37  1  0  0  0  0
 14 38  1  0  0  0  0
 15 16  1  0  0  0  0
 15 39  1  0  0  0  0
 15 40  1  0  0  0  0
 16 17  1  0  0  0  0
 16 41  1  0  0  0  0
 16 42  1  0  0  0  0
 17 18  1  0  0  0  0
 17 43  1  0  0  0  0
 17 44  1  0  0  0  0
 18 19  1  0  0  0  0
 18 45  1  0  0  0  0
 18 46  1  0  0  0  0
 19 47  1  0  0  0  0
 19 48  1  0  0  0  0
 19 49  1  0  0  0  0
M  END
>  <Mol_ID>
7570

>  <Formula>
C14H30NaO4S

>  <MolWeight>
317.44037

>  <Cat>
E2866

>  <Name>
Sodium?tetradecyl sulfate

>  <Target>
Others

>  <Form>
sodium tetradecyl sulfate

>  <CAS>
1191-50-0

>  <URL>
https://www.selleckchem.com/products/sodium-tetradecyl-sulfate.html

$$$$
