Sodium phenylpyruvate
 OpenBabel08302521453D

 20 20  0  0  0  0  0  0  0  0999 V2000
    1.3824   -0.2430   -0.0406 C   0  0  0  0  0  0  0  0  0  0  0  0
    0.5020   -1.3221   -0.0756 C   0  0  0  0  0  0  0  0  0  0  0  0
   -0.8735   -1.1003   -0.0332 C   0  0  0  0  0  0  0  0  0  0  0  0
   -1.3689    0.1991    0.0767 C   0  0  0  0  0  0  0  0  0  0  0  0
   -0.4904    1.2888    0.1438 C   0  0  0  0  0  0  0  0  0  0  0  0
    0.8891    1.0578    0.0622 C   0  0  0  0  0  0  0  0  0  0  0  0
   -1.0145    2.6766    0.3992 C   0  0  0  0  0  0  0  0  0  0  0  0
   -1.0688    2.9779    1.8747 C   0  0  0  0  0  0  0  0  0  0  0  0
    0.1876    3.5743    2.5170 C   0  0  0  0  0  0  0  0  0  0  0  0
   -2.0193    2.7409    2.6192 O   0  0  0  0  0  0  0  0  0  0  0  0
    0.0212    3.6946    3.8444 O   0  0  0  0  0  0  0  0  0  0  0  0
    1.1699    3.9041    1.8812 O   0  0  0  0  0  0  0  0  0  0  0  0
    2.4553   -0.4141   -0.0779 H   0  0  0  0  0  0  0  0  0  0  0  0
    0.8881   -2.3363   -0.1325 H   0  0  0  0  0  0  0  0  0  0  0  0
   -1.5599   -1.9425   -0.0693 H   0  0  0  0  0  0  0  0  0  0  0  0
   -2.4457    0.3516    0.1295 H   0  0  0  0  0  0  0  0  0  0  0  0
    1.5953    1.8874    0.0992 H   0  0  0  0  0  0  0  0  0  0  0  0
   -0.4122    3.4302   -0.1174 H   0  0  0  0  0  0  0  0  0  0  0  0
   -2.0287    2.7852   -0.0050 H   0  0  0  0  0  0  0  0  0  0  0  0
   -0.8697    3.3574    4.0937 H   0  0  0  0  0  0  0  0  0  0  0  0
  1  2  2  0  0  0  0
  1 13  1  0  0  0  0
  2  3  1  0  0  0  0
  2 14  1  0  0  0  0
  3  4  2  0  0  0  0
  3 15  1  0  0  0  0
  4  5  1  0  0  0  0
  4 16  1  0  0  0  0
  5  6  2  0  0  0  0
  5  7  1  0  0  0  0
  6  1  1  0  0  0  0
  6 17  1  0  0  0  0
  7  8  1  0  0  0  0
  7 18  1  0  0  0  0
  7 19  1  0  0  0  0
  8  9  1  0  0  0  0
  8 10  2  0  0  0  0
  9 11  1  0  0  0  0
  9 12  2  0  0  0  0
 11 20  1  0  0  0  0
M  END
>  <Mol_ID>
9373

>  <Formula>
C9H7NaO3

>  <MolWeight>
186.13985

>  <Cat>
S3351

>  <Name>
Sodium phenylpyruvate

>  <Synonyms>
Phenylpyruvic acid sodium salt

>  <Target>
Others

>  <Form>
Sodium

>  <CAS>
114-76-1

>  <URL>
http://www.selleckchem.com/products/sodium-phenylpyruvate.html

$$$$
