Sodium Etidronate
 OpenBabel08302521453D

 17 16  0  0  0  0  0  0  0  0999 V2000
    1.0616   -0.0701    0.0360 P   0  0  3  0  0  0  0  0  0  0  0  0
    3.5016   -1.7726    0.3157 P   0  0  3  0  0  0  0  0  0  0  0  0
    3.3357    0.3497   -1.3148 O   0  0  0  0  0  0  0  0  0  0  0  0
    1.0322   -0.5108    1.6255 O   0  0  0  0  0  0  0  0  0  0  0  0
    2.3471   -2.4121   -0.6572 O   0  0  0  0  0  0  0  0  0  0  0  0
    1.1137    1.4826    0.1284 O   0  5  0  0  0  0  0  0  0  0  0  0
    4.6705   -1.4421   -0.6656 O   0  5  0  0  0  0  0  0  0  0  0  0
   -0.4868   -0.0701    0.0360 O   0  0  0  0  0  0  0  0  0  0  0  0
    4.0177   -3.2131    0.5524 O   0  0  0  0  0  0  0  0  0  0  0  0
    2.8916   -0.0701    0.0360 C   0  0  3  0  0  0  0  0  0  0  0  0
    3.6034    0.8630    1.0237 C   0  0  0  0  0  0  0  0  0  0  0  0
    4.0422   -0.3363   -1.4566 H   0  0  0  0  0  0  0  0  0  0  0  0
    0.1256   -0.1717    1.7917 H   0  0  0  0  0  0  0  0  0  0  0  0
    2.6966   -3.3285   -0.6766 H   0  0  0  0  0  0  0  0  0  0  0  0
    3.3841    1.9254    0.8423 H   0  0  0  0  0  0  0  0  0  0  0  0
    3.3249    0.6332    2.0545 H   0  0  0  0  0  0  0  0  0  0  0  0
    4.6951    0.7589    0.9492 H   0  0  0  0  0  0  0  0  0  0  0  0
  1  4  1  0  0  0  0
  1  6  1  0  0  0  0
  1  8  2  0  0  0  0
  1 10  1  0  0  0  0
  2  5  1  0  0  0  0
  2  7  1  0  0  0  0
  2  9  2  0  0  0  0
  2 10  1  0  0  0  0
  3 10  1  0  0  0  0
  3 12  1  0  0  0  0
  4 13  1  0  0  0  0
  5 14  1  0  0  0  0
 10 11  1  0  0  0  0
 11 15  1  0  0  0  0
 11 16  1  0  0  0  0
 11 17  1  0  0  0  0
M  CHG  2   6  -1   7  -1
M  END
>  <Mol_ID>
9384

>  <Formula>
C2H6Na2O7P2

>  <MolWeight>
249.991902

>  <Cat>
S5198

>  <Name>
Sodium Etidronate

>  <Synonyms>
Didronel, EHDP, Etidronic acid

>  <Target>
phosphatase

>  <Form>
Sodium

>  <CAS>
7414-83-7

>  <URL>
http://www.selleckchem.com/products/sodium-etidronate.html

$$$$
