sodium phenylbutyrate.cdx
 OpenBabel08302522043D

 24 24  0  0  0  0  0  0  0  0999 V2000
   -0.4124   -3.2515    2.3628 C   0  0  0  0  0  0  0  0  0  0  0  0
    0.2963   -2.3641    1.3705 C   0  0  0  0  0  0  0  0  0  0  0  0
   -0.6485   -1.7900    0.3196 C   0  0  0  0  0  0  0  0  0  0  0  0
   -1.7394   -0.8898    0.9127 C   0  0  0  0  0  0  0  0  0  0  0  0
   -0.8895   -2.8508    3.4126 O   0  0  0  0  0  0  0  0  0  0  0  0
   -2.6230   -0.3096   -0.1659 C   0  0  0  0  0  0  0  0  0  0  0  0
   -3.7707   -0.9947   -0.5853 C   0  0  0  0  0  0  0  0  0  0  0  0
   -4.5836   -0.4661   -1.5907 C   0  0  0  0  0  0  0  0  0  0  0  0
   -4.2542    0.7485   -2.1879 C   0  0  0  0  0  0  0  0  0  0  0  0
   -3.1119    1.4358   -1.7814 C   0  0  0  0  0  0  0  0  0  0  0  0
   -2.2980    0.9095   -0.7766 C   0  0  0  0  0  0  0  0  0  0  0  0
   -0.5033   -4.5415    1.9700 O   0  0  0  0  0  0  0  0  0  0  0  0
    0.7988   -1.5649    1.9265 H   0  0  0  0  0  0  0  0  0  0  0  0
    1.0951   -2.9394    0.8868 H   0  0  0  0  0  0  0  0  0  0  0  0
   -0.0518   -1.2117   -0.3977 H   0  0  0  0  0  0  0  0  0  0  0  0
   -1.1110   -2.6080   -0.2465 H   0  0  0  0  0  0  0  0  0  0  0  0
   -2.3662   -1.4526    1.6145 H   0  0  0  0  0  0  0  0  0  0  0  0
   -1.2875   -0.0763    1.4939 H   0  0  0  0  0  0  0  0  0  0  0  0
   -4.0435   -1.9424   -0.1264 H   0  0  0  0  0  0  0  0  0  0  0  0
   -5.4746   -1.0027   -1.9047 H   0  0  0  0  0  0  0  0  0  0  0  0
   -4.8888    1.1604   -2.9682 H   0  0  0  0  0  0  0  0  0  0  0  0
   -2.8567    2.3848   -2.2455 H   0  0  0  0  0  0  0  0  0  0  0  0
   -1.4115    1.4589   -0.4697 H   0  0  0  0  0  0  0  0  0  0  0  0
   -0.0812   -4.7294    1.1113 H   0  0  0  0  0  0  0  0  0  0  0  0
  1  2  1  0  0  0  0
  1  5  2  0  0  0  0
  1 12  1  0  0  0  0
  2  3  1  0  0  0  0
  2 13  1  0  0  0  0
  2 14  1  0  0  0  0
  3  4  1  0  0  0  0
  3 15  1  0  0  0  0
  3 16  1  0  0  0  0
  4  6  1  0  0  0  0
  4 17  1  0  0  0  0
  4 18  1  0  0  0  0
  6  7  2  0  0  0  0
  6 11  1  0  0  0  0
  7  8  1  0  0  0  0
  7 19  1  0  0  0  0
  8  9  2  0  0  0  0
  8 20  1  0  0  0  0
  9 10  1  0  0  0  0
  9 21  1  0  0  0  0
 10 11  2  0  0  0  0
 10 22  1  0  0  0  0
 11 23  1  0  0  0  0
 12 24  1  0  0  0  0
M  END
>  <Mol_ID>
1255

>  <Formula>
C10H11NaO2

>  <MolWeight>
186.18291

>  <Cat>
S4125

>  <Name>
Sodium Phenylbutyrate

>  <Synonyms>
4-PBA, 4-Phenylbutyric acid, NaPB

>  <Target>
HDAC

>  <Form>
Sodium Salt

>  <CAS>
1716-12-7

>  <URL>
http://selleckchem.com/products/sodium-phenylbutyrate.html

$$$$
