Sodium Pyruvate
 OpenBabel08302521373D

 10  9  0  0  0  0  0  0  0  0999 V2000
    0.9014    0.0252   -0.0018 C   0  0  0  0  0  0  0  0  0  0  0  0
    0.0727    1.1294   -0.6578 C   0  0  0  0  0  0  0  0  0  0  0  0
    0.1682   -1.0989    0.6667 C   0  0  0  0  0  0  0  0  0  0  0  0
    2.1251    0.1249   -0.0615 O   0  0  0  0  0  0  0  0  0  0  0  0
    0.8731    2.0595   -1.2124 O   0  0  0  0  0  0  0  0  0  0  0  0
   -1.1413    1.1452   -0.6659 O   0  0  0  0  0  0  0  0  0  0  0  0
    0.4393   -2.0421    0.1854 H   0  0  0  0  0  0  0  0  0  0  0  0
    0.4393   -1.1266    1.7252 H   0  0  0  0  0  0  0  0  0  0  0  0
   -0.9147   -0.9752    0.5931 H   0  0  0  0  0  0  0  0  0  0  0  0
    1.8159    1.8105   -1.0651 H   0  0  0  0  0  0  0  0  0  0  0  0
  1  2  1  0  0  0  0
  1  3  1  0  0  0  0
  1  4  2  0  0  0  0
  2  5  1  0  0  0  0
  2  6  2  0  0  0  0
  3  7  1  0  0  0  0
  3  8  1  0  0  0  0
  3  9  1  0  0  0  0
  5 10  1  0  0  0  0
M  END
>  <Mol_ID>
7589

>  <Formula>
C3H4NaO3

>  <MolWeight>
111.05183

>  <Cat>
E2902

>  <Name>
Sodium Pyruvate

>  <Synonyms>
Sodium 2-oxopropanoate

>  <Target>
Others

>  <Form>
sodium

>  <CAS>
113-24-6

>  <URL>
https://www.selleckchem.com/products/sodium-pyruvate.html

$$$$
