Sodium Acetate
 OpenBabel08302521453D

  7  6  0  0  0  0  0  0  0  0999 V2000
    1.1736    0.0272    0.0242 O   0  5  0  0  0  0  0  0  0  0  0  0
    3.1312   -0.9305   -0.6723 O   0  0  0  0  0  0  0  0  0  0  0  0
    3.2100    0.9716    0.7110 C   0  0  0  0  0  0  0  0  0  0  0  0
    2.4294   -0.0821   -0.0553 C   0  0  0  0  0  0  0  0  0  0  0  0
    2.9577    1.9672    0.3341 H   0  0  0  0  0  0  0  0  0  0  0  0
    2.9577    0.9197    1.7744 H   0  0  0  0  0  0  0  0  0  0  0  0
    4.2890    0.8243    0.6039 H   0  0  0  0  0  0  0  0  0  0  0  0
  1  4  1  0  0  0  0
  2  4  2  0  0  0  0
  3  4  1  0  0  0  0
  3  5  1  0  0  0  0
  3  6  1  0  0  0  0
  3  7  1  0  0  0  0
M  CHG  1   1  -1
M  END
>  <Mol_ID>
9395

>  <Formula>
C2H3NaO2

>  <MolWeight>
82.03379

>  <Cat>
S6991

>  <Name>
Sodium Acetate

>  <Synonyms>
N/A

>  <Target>
Others

>  <Form>
Free Base

>  <CAS>
127-09-3

>  <URL>
N/A

$$$$
