Sodium DL-lactate solution
 OpenBabel08302521383D

 12 11  0  0  0  0  0  0  0  0999 V2000
    1.0479   -0.0314    0.0019 C   0  0  3  0  0  0  0  0  0  0  0  0
    0.5549   -0.3204    1.4207 C   0  0  0  0  0  0  0  0  0  0  0  0
    0.5519    1.3030   -0.5232 C   0  0  0  0  0  0  0  0  0  0  0  0
    0.6066   -1.1008   -0.8474 O   0  0  0  0  0  0  0  0  0  0  0  0
    0.3771   -1.6525    1.6120 O   0  0  0  0  0  0  0  0  0  0  0  0
    0.3476    0.5131    2.2888 O   0  0  0  0  0  0  0  0  0  0  0  0
    2.1427   -0.0535    0.0201 H   0  0  0  0  0  0  0  0  0  0  0  0
    0.9115    1.4713   -1.5439 H   0  0  0  0  0  0  0  0  0  0  0  0
   -0.5431    1.3332   -0.5603 H   0  0  0  0  0  0  0  0  0  0  0  0
    0.8929    2.1297    0.1077 H   0  0  0  0  0  0  0  0  0  0  0  0
   -0.3440   -0.9570   -1.0216 H   0  0  0  0  0  0  0  0  0  0  0  0
    0.6015   -2.1224    0.7741 H   0  0  0  0  0  0  0  0  0  0  0  0
  1  2  1  0  0  0  0
  1  3  1  0  0  0  0
  1  4  1  0  0  0  0
  1  7  1  0  0  0  0
  2  5  1  0  0  0  0
  2  6  2  0  0  0  0
  3  8  1  0  0  0  0
  3  9  1  0  0  0  0
  3 10  1  0  0  0  0
  4 11  1  0  0  0  0
  5 12  1  0  0  0  0
M  END
>  <Mol_ID>
7644

>  <Formula>
C3H6NaO3

>  <MolWeight>
113.06771

>  <Cat>
E4009

>  <Name>
Sodium DL-lactate solution

>  <Target>
Others

>  <Form>
Sodium

>  <CAS>
72-17-3

>  <URL>
https://www.selleckchem.com/products/sodium-dl-lactate-solution.html

$$$$
