Sodium 2-hydroxybutanoate
 OpenBabel08302521293D

 14 13  0  0  0  0  0  0  0  0999 V2000
    1.1829    1.0812   -2.0917 O   0  0  0  0  0  0  0  0  0  0  0  0
   -1.5382    1.1110    0.2778 O   0  5  0  0  0  0  0  0  0  0  0  0
   -1.3565    0.9597   -2.0083 O   0  0  0  0  0  0  0  0  0  0  0  0
    1.0838    2.4229   -0.0732 C   0  0  0  0  0  0  0  0  0  0  0  0
    0.6396    1.1307   -0.7468 C   0  0  3  0  0  0  0  0  0  0  0  0
    2.5986    2.5307    0.0315 C   0  0  0  0  0  0  0  0  0  0  0  0
   -0.9185    1.0644   -0.8183 C   0  0  0  0  0  0  0  0  0  0  0  0
    0.3562    1.0270   -2.6340 H   0  0  0  0  0  0  0  0  0  0  0  0
    0.7169    3.2831   -0.6469 H   0  0  0  0  0  0  0  0  0  0  0  0
    0.6513    2.4965    0.9311 H   0  0  0  0  0  0  0  0  0  0  0  0
    1.0076    0.2501   -0.2082 H   0  0  0  0  0  0  0  0  0  0  0  0
    3.0636    2.5759   -0.9595 H   0  0  0  0  0  0  0  0  0  0  0  0
    2.8746    3.4416    0.5717 H   0  0  0  0  0  0  0  0  0  0  0  0
    3.0172    1.6753    0.5697 H   0  0  0  0  0  0  0  0  0  0  0  0
  1  5  1  0  0  0  0
  1  8  1  0  0  0  0
  2  7  1  0  0  0  0
  3  7  2  0  0  0  0
  4  5  1  0  0  0  0
  4  6  1  0  0  0  0
  4  9  1  0  0  0  0
  4 10  1  0  0  0  0
  5  7  1  0  0  0  0
  5 11  1  0  0  0  0
  6 12  1  0  0  0  0
  6 13  1  0  0  0  0
  6 14  1  0  0  0  0
M  CHG  1   2  -1
M  END
>  <Mol_ID>
5459

>  <Formula>
C4H7NaO3

>  <MolWeight>
126.08635

>  <Cat>
S3126

>  <Name>
Sodium 2-hydroxybutanoate

>  <Synonyms>
Sodium 2-hydroxybutyrate, Sodium DL-2-hydroxybutyrate

>  <Target>
Others

>  <Form>
Sodium

>  <CAS>
5094-24-6

>  <URL>
https://www.selleckchem.com/products/sodium-2-hydroxybutanoate.html

$$$$
