Sodium valproate.cdx
 OpenBabel08302519553D

 26 25  0  0  0  0  0  0  0  0999 V2000
    0.8617    2.4136    0.2055 C   0  0  0  0  0  0  0  0  0  0  0  0
    0.3392    1.2536   -0.6290 C   0  0  0  0  0  0  0  0  0  0  0  0
    0.8110    1.3701   -2.0805 C   0  0  0  0  0  0  0  0  0  0  0  0
    0.3706    0.1840   -2.9545 C   0  0  0  0  0  0  0  0  0  0  0  0
   -1.1439    0.0562   -3.0379 C   0  0  0  0  0  0  0  0  0  0  0  0
   -1.7785    1.1366   -3.5410 O   0  0  0  0  0  0  0  0  0  0  0  0
   -1.7518   -0.9473   -2.6927 O   0  0  0  0  0  0  0  0  0  0  0  0
    0.9606    0.2377   -4.3776 C   0  0  0  0  0  0  0  0  0  0  0  0
    2.4915    0.1759   -4.4591 C   0  0  0  0  0  0  0  0  0  0  0  0
    3.0848   -1.0958   -3.8715 C   0  0  0  0  0  0  0  0  0  0  0  0
    1.9562    2.4303    0.2121 H   0  0  0  0  0  0  0  0  0  0  0  0
    0.5175    2.3232    1.2407 H   0  0  0  0  0  0  0  0  0  0  0  0
    0.5066    3.3708   -0.1893 H   0  0  0  0  0  0  0  0  0  0  0  0
    0.6953    0.3113   -0.1966 H   0  0  0  0  0  0  0  0  0  0  0  0
   -0.7551    1.2436   -0.5810 H   0  0  0  0  0  0  0  0  0  0  0  0
    0.4534    2.3157   -2.5050 H   0  0  0  0  0  0  0  0  0  0  0  0
    1.9053    1.4281   -2.0703 H   0  0  0  0  0  0  0  0  0  0  0  0
    0.7132   -0.7398   -2.4708 H   0  0  0  0  0  0  0  0  0  0  0  0
   -1.1927    1.8707   -3.7977 H   0  0  0  0  0  0  0  0  0  0  0  0
    0.5433   -0.5857   -4.9716 H   0  0  0  0  0  0  0  0  0  0  0  0
    0.6345    1.1597   -4.8759 H   0  0  0  0  0  0  0  0  0  0  0  0
    2.7822    0.2378   -5.5150 H   0  0  0  0  0  0  0  0  0  0  0  0
    2.9374    1.0472   -3.9707 H   0  0  0  0  0  0  0  0  0  0  0  0
    2.6767   -1.9829   -4.3648 H   0  0  0  0  0  0  0  0  0  0  0  0
    4.1710   -1.1002   -4.0092 H   0  0  0  0  0  0  0  0  0  0  0  0
    2.8913   -1.1745   -2.7979 H   0  0  0  0  0  0  0  0  0  0  0  0
  1  2  1  0  0  0  0
  1 11  1  0  0  0  0
  1 12  1  0  0  0  0
  1 13  1  0  0  0  0
  2  3  1  0  0  0  0
  2 14  1  0  0  0  0
  2 15  1  0  0  0  0
  3  4  1  0  0  0  0
  3 16  1  0  0  0  0
  3 17  1  0  0  0  0
  4  5  1  0  0  0  0
  4  8  1  0  0  0  0
  4 18  1  0  0  0  0
  5  6  1  0  0  0  0
  5  7  2  0  0  0  0
  6 19  1  0  0  0  0
  8  9  1  0  0  0  0
  8 20  1  0  0  0  0
  8 21  1  0  0  0  0
  9 10  1  0  0  0  0
  9 22  1  0  0  0  0
  9 23  1  0  0  0  0
 10 24  1  0  0  0  0
 10 25  1  0  0  0  0
 10 26  1  0  0  0  0
M  END
>  <Mol_ID>
2105

>  <Formula>
C8H15NaO2

>  <MolWeight>
166.19327

>  <Cat>
S1168

>  <Name>
Valproic Acid (NSC 93819) sodium salt

>  <Synonyms>
Sodium valproate,NSC 93819,2-Propylpentanoic Acid

>  <Target>
Autophagy,GABA Receptor,HDAC,Mitophagy,Notch,PGC-1¦Á

>  <Form>
Sodium salt

>  <CAS>
1069-66-5

>  <URL>
http://selleckchem.com/products/Sodium-valproate.html

$$$$
