Sodium lauryl sulfate
 OpenBabel08302520383D

 42 41  0  0  0  0  0  0  0  0999 V2000
    3.4673   -0.2737    2.7746 C   0  0  0  0  0  0  0  0  0  0  0  0
    2.8737   -1.5034    2.0651 C   0  0  0  0  0  0  0  0  0  0  0  0
    4.9998   -0.1997    2.7929 C   0  0  0  0  0  0  0  0  0  0  0  0
    1.3322   -1.4574    2.0753 C   0  0  0  0  0  0  0  0  0  0  0  0
    5.5210   -0.1408    1.4761 O   0  0  0  0  0  0  0  0  0  0  0  0
    0.6866   -2.6414    1.3418 C   0  0  0  0  0  0  0  0  0  0  0  0
    7.1476   -0.0083    1.3302 S   0  0  0  0  0  0  0  0  0  0  0  0
   -0.8493   -2.5789    1.3971 C   0  0  0  0  0  0  0  0  0  0  0  0
    7.6545   -1.2138    1.9739 O   0  0  0  0  0  0  0  0  0  0  0  0
    7.3539    0.0453   -0.1147 O   0  0  0  0  0  0  0  0  0  0  0  0
    7.4615    1.2309    2.0352 O   0  5  0  0  0  0  0  0  0  0  0  0
   -1.4891   -3.7745    0.6806 C   0  0  0  0  0  0  0  0  0  0  0  0
   -3.0200   -3.7162    0.7252 C   0  0  0  0  0  0  0  0  0  0  0  0
   -3.6517   -4.9146    0.0072 C   0  0  0  0  0  0  0  0  0  0  0  0
   -5.1811   -4.8539    0.0575 C   0  0  0  0  0  0  0  0  0  0  0  0
   -5.8218   -6.0426   -0.6613 C   0  0  0  0  0  0  0  0  0  0  0  0
   -7.3409   -5.9708   -0.6072 C   0  0  0  0  0  0  0  0  0  0  0  0
    3.1146   -0.2609    3.8133 H   0  0  0  0  0  0  0  0  0  0  0  0
    3.0823    0.6296    2.2873 H   0  0  0  0  0  0  0  0  0  0  0  0
    3.2352   -1.5546    1.0318 H   0  0  0  0  0  0  0  0  0  0  0  0
    3.2098   -2.4142    2.5747 H   0  0  0  0  0  0  0  0  0  0  0  0
    5.2871    0.7105    3.3361 H   0  0  0  0  0  0  0  0  0  0  0  0
    5.4164   -1.0585    3.3287 H   0  0  0  0  0  0  0  0  0  0  0  0
    0.9820   -1.4479    3.1147 H   0  0  0  0  0  0  0  0  0  0  0  0
    0.9898   -0.5228    1.6138 H   0  0  0  0  0  0  0  0  0  0  0  0
    1.0102   -2.6462    0.2939 H   0  0  0  0  0  0  0  0  0  0  0  0
    1.0263   -3.5822    1.7903 H   0  0  0  0  0  0  0  0  0  0  0  0
   -1.1802   -2.5613    2.4428 H   0  0  0  0  0  0  0  0  0  0  0  0
   -1.1983   -1.6474    0.9347 H   0  0  0  0  0  0  0  0  0  0  0  0
   -1.1557   -3.7950   -0.3639 H   0  0  0  0  0  0  0  0  0  0  0  0
   -1.1472   -4.7058    1.1481 H   0  0  0  0  0  0  0  0  0  0  0  0
   -3.3565   -3.6952    1.7689 H   0  0  0  0  0  0  0  0  0  0  0  0
   -3.3662   -2.7871    0.2562 H   0  0  0  0  0  0  0  0  0  0  0  0
   -3.3194   -4.9320   -1.0379 H   0  0  0  0  0  0  0  0  0  0  0  0
   -3.3066   -5.8465    0.4712 H   0  0  0  0  0  0  0  0  0  0  0  0
   -5.5125   -4.8376    1.1029 H   0  0  0  0  0  0  0  0  0  0  0  0
   -5.5256   -3.9210   -0.4049 H   0  0  0  0  0  0  0  0  0  0  0  0
   -5.5016   -6.0612   -1.7095 H   0  0  0  0  0  0  0  0  0  0  0  0
   -5.4894   -6.9817   -0.2038 H   0  0  0  0  0  0  0  0  0  0  0  0
   -7.7066   -5.0547   -1.0821 H   0  0  0  0  0  0  0  0  0  0  0  0
   -7.7821   -6.8240   -1.1322 H   0  0  0  0  0  0  0  0  0  0  0  0
   -7.6991   -5.9873    0.4272 H   0  0  0  0  0  0  0  0  0  0  0  0
  1  2  1  0  0  0  0
  1  3  1  0  0  0  0
  1 18  1  0  0  0  0
  1 19  1  0  0  0  0
  2  4  1  0  0  0  0
  2 20  1  0  0  0  0
  2 21  1  0  0  0  0
  3  5  1  0  0  0  0
  3 22  1  0  0  0  0
  3 23  1  0  0  0  0
  4  6  1  0  0  0  0
  4 24  1  0  0  0  0
  4 25  1  0  0  0  0
  5  7  1  0  0  0  0
  6  8  1  0  0  0  0
  6 26  1  0  0  0  0
  6 27  1  0  0  0  0
  7  9  2  0  0  0  0
  7 10  2  0  0  0  0
  7 11  1  0  0  0  0
  8 12  1  0  0  0  0
  8 28  1  0  0  0  0
  8 29  1  0  0  0  0
 12 13  1  0  0  0  0
 12 30  1  0  0  0  0
 12 31  1  0  0  0  0
 13 14  1  0  0  0  0
 13 32  1  0  0  0  0
 13 33  1  0  0  0  0
 14 15  1  0  0  0  0
 14 34  1  0  0  0  0
 14 35  1  0  0  0  0
 15 16  1  0  0  0  0
 15 36  1  0  0  0  0
 15 37  1  0  0  0  0
 16 17  1  0  0  0  0
 16 38  1  0  0  0  0
 16 39  1  0  0  0  0
 17 40  1  0  0  0  0
 17 41  1  0  0  0  0
 17 42  1  0  0  0  0
M  CHG  1  11  -1
M  END
>  <Mol_ID>
3495

>  <Formula>
C12H25NaO4S

>  <MolWeight>
288.37927

>  <Cat>
S6218

>  <Name>
Sodium lauryl sulfate

>  <Synonyms>
N/A

>  <Target>
Others

>  <Form>
free base

>  <CAS>
151-21-3

>  <URL>
http://www.selleck.cn/products/sodium-lauryl-sulfate.html

$$$$
