Sodium L-lactate
 OpenBabel08302520383D

 11 10  0  0  0  0  0  0  0  0999 V2000
    1.1723    0.0150    0.0094 C   0  0  0  0  0  0  0  0  0  0  0  0
    0.4093    0.2901    1.3415 C   0  0  1  0  0  0  0  0  0  0  0  0
   -0.3548    1.5154    1.2183 O   0  0  0  0  0  0  0  0  0  0  0  0
   -0.5425   -0.8431    1.6648 C   0  0  0  0  0  0  0  0  0  0  0  0
    0.9951    0.9244   -0.8629 O   0  0  0  0  0  0  0  0  0  0  0  0
    1.8700   -1.0333   -0.0365 O   0  5  0  0  0  0  0  0  0  0  0  0
    1.1361    0.4342    2.1470 H   0  0  0  0  0  0  0  0  0  0  0  0
   -0.1010    1.8123    0.3072 H   0  0  0  0  0  0  0  0  0  0  0  0
   -0.0117   -1.7903    1.8037 H   0  0  0  0  0  0  0  0  0  0  0  0
   -1.1064   -0.6215    2.5771 H   0  0  0  0  0  0  0  0  0  0  0  0
   -1.2769   -0.9765    0.8631 H   0  0  0  0  0  0  0  0  0  0  0  0
  1  2  1  0  0  0  0
  1  5  2  0  0  0  0
  1  6  1  0  0  0  0
  2  3  1  0  0  0  0
  2  4  1  0  0  0  0
  2  7  1  1  0  0  0
  3  8  1  0  0  0  0
  4  9  1  0  0  0  0
  4 10  1  0  0  0  0
  4 11  1  0  0  0  0
M  CHG  1   6  -1
M  END
>  <Mol_ID>
3507

>  <Formula>
C3H5NaO3

>  <MolWeight>
112.05977

>  <Cat>
S6010

>  <Name>
Sodium L-lactate

>  <Synonyms>
N/A

>  <Target>
Others

>  <Form>
free base

>  <CAS>
867-56-1

>  <URL>
http://www.selleck.cn/products/sodium-l-lactate.html

$$$$
