Sodium oxamate
 OpenBabel08302521383D

  8  7  0  0  0  0  0  0  0  0999 V2000
    1.2289    0.0091   -0.0271 O   0  5  0  0  0  0  0  0  0  0  0  0
    2.6770   -1.2402   -2.0413 O   0  0  0  0  0  0  0  0  0  0  0  0
    3.2461    0.5720    0.8875 O   0  0  0  0  0  0  0  0  0  0  0  0
    4.6750   -0.6586   -1.1025 N   0  0  0  0  0  0  0  0  0  0  0  0
    3.2966   -0.6808   -1.1384 C   0  0  0  0  0  0  0  0  0  0  0  0
    2.4981    0.0272    0.0050 C   0  0  0  0  0  0  0  0  0  0  0  0
    5.0854   -0.1694   -0.3124 H   0  0  0  0  0  0  0  0  0  0  0  0
    5.2140   -1.1046   -1.8226 H   0  0  0  0  0  0  0  0  0  0  0  0
  1  6  1  0  0  0  0
  2  5  2  0  0  0  0
  3  6  2  0  0  0  0
  4  5  1  0  0  0  0
  4  7  1  0  0  0  0
  4  8  1  0  0  0  0
  5  6  1  0  0  0  0
M  CHG  1   1  -1
M  END
>  <Mol_ID>
7943

>  <Formula>
C2H2NNaO3

>  <MolWeight>
111.03195

>  <Cat>
S6871

>  <Name>
Sodium oxamate

>  <Synonyms>
SO, oxamate sodium, Aminooxoacetic acid sodium salt, Oxamic acid sodium salt

>  <Target>
Apoptosis related,CDK,LDH,ROS

>  <Form>
Sodium

>  <CAS>
565-73-1

>  <URL>
http://www.selleckchem.com/products/sodium-oxamate.html

$$$$
