Sodium 2-(1H-indol-3-yl)acetate
 OpenBabel08302521293D

 21 22  0  0  0  0  0  0  0  0999 V2000
    2.1895   -0.6663   -0.0106 C   0  0  0  0  0  0  0  0  0  0  0  0
    2.1490    0.7262   -0.0322 C   0  0  0  0  0  0  0  0  0  0  0  0
    0.9294    1.4105   -0.0354 C   0  0  0  0  0  0  0  0  0  0  0  0
   -0.2439    0.6455   -0.0263 C   0  0  0  0  0  0  0  0  0  0  0  0
   -0.2365   -0.7499   -0.0050 C   0  0  0  0  0  0  0  0  0  0  0  0
    1.0064   -1.4138    0.0097 C   0  0  0  0  0  0  0  0  0  0  0  0
   -1.5617    1.0366   -0.0215 N   0  0  0  0  0  0  0  0  0  0  0  0
   -2.3831   -0.0543   -0.0355 C   0  0  0  0  0  0  0  0  0  0  0  0
   -1.5995   -1.1920    0.0007 C   0  0  0  0  0  0  0  0  0  0  0  0
   -2.0910   -2.6053    0.0128 C   0  0  0  0  0  0  0  0  0  0  0  0
   -2.3257   -3.1329    1.4310 C   0  0  0  0  0  0  0  0  0  0  0  0
   -3.4900   -2.9503    1.8958 O   0  5  0  0  0  0  0  0  0  0  0  0
   -1.3550   -3.7644    1.9456 O   0  0  0  0  0  0  0  0  0  0  0  0
    3.1436   -1.1849    0.0037 H   0  0  0  0  0  0  0  0  0  0  0  0
    3.0779    1.2891   -0.0358 H   0  0  0  0  0  0  0  0  0  0  0  0
    0.8978    2.4937   -0.0396 H   0  0  0  0  0  0  0  0  0  0  0  0
    1.0351   -2.4993    0.0525 H   0  0  0  0  0  0  0  0  0  0  0  0
   -1.8759    1.9945   -0.0074 H   0  0  0  0  0  0  0  0  0  0  0  0
   -3.4592    0.0528   -0.0369 H   0  0  0  0  0  0  0  0  0  0  0  0
   -3.0273   -2.6779   -0.5544 H   0  0  0  0  0  0  0  0  0  0  0  0
   -1.3743   -3.2583   -0.4992 H   0  0  0  0  0  0  0  0  0  0  0  0
  1  2  2  0  0  0  0
  1 14  1  0  0  0  0
  2  3  1  0  0  0  0
  2 15  1  0  0  0  0
  3  4  2  0  0  0  0
  3 16  1  0  0  0  0
  4  5  1  0  0  0  0
  4  7  1  0  0  0  0
  5  6  2  0  0  0  0
  6  1  1  0  0  0  0
  6 17  1  0  0  0  0
  7  8  1  0  0  0  0
  7 18  1  0  0  0  0
  8  9  2  0  0  0  0
  8 19  1  0  0  0  0
  9  5  1  0  0  0  0
  9 10  1  0  0  0  0
 10 11  1  0  0  0  0
 10 20  1  0  0  0  0
 10 21  1  0  0  0  0
 11 12  1  0  0  0  0
 11 13  2  0  0  0  0
M  CHG  1  12  -1
M  END
>  <Mol_ID>
5489

>  <Formula>
C10H8NNaO2

>  <MolWeight>
197.16579

>  <Cat>
S3324

>  <Name>
Sodium 2-(1H-indol-3-yl)acetate

>  <Synonyms>
3-Indoleacetic acid sodium, Indole-3-acetic acid sodium, 3-IAA sodium

>  <Target>
Others

>  <Form>
Sodium

>  <CAS>
6505-45-9

>  <URL>
https://www.selleckchem.com/products/sodium-2-1h-indol-3-ylacetate.html

$$$$
