Solcitinib
 OpenBabel08302520143D

 52 56  0  0  0  0  0  0  0  0999 V2000
   -1.1688    2.9659    4.3808 C   0  0  0  0  0  0  0  0  0  0  0  0
   -1.5502    3.7031    5.6409 C   0  0  0  0  0  0  0  0  0  0  0  0
   -2.2249    4.0450    4.3450 C   0  0  0  0  0  0  0  0  0  0  0  0
    0.1792    3.1881    3.7716 C   0  0  0  0  0  0  0  0  0  0  0  0
    0.5059    4.3200    3.4091 O   0  0  0  0  0  0  0  0  0  0  0  0
    1.0327    2.1415    3.5695 N   0  0  0  0  0  0  0  0  0  0  0  0
   -0.0172   -0.9231    4.6177 C   0  0  0  0  0  0  0  0  0  0  0  0
   -0.8254   -1.9522    5.1601 C   0  0  0  0  0  0  0  0  0  0  0  0
   -0.6088   -3.2230    4.7876 C   0  0  0  0  0  0  0  0  0  0  0  0
    0.4560   -3.5680    3.8591 C   0  0  0  0  0  0  0  0  0  0  0  0
    1.2493   -2.6067    3.3271 C   0  0  0  0  0  0  0  0  0  0  0  0
    1.0084   -1.2688    3.7289 N   0  0  0  0  0  0  0  0  0  0  0  0
    1.6225   -0.1149    3.3409 N   0  0  0  0  0  0  0  0  0  0  0  0
    0.8602    0.8290    3.8861 C   0  0  0  0  0  0  0  0  0  0  0  0
   -0.0957    0.3788    4.7350 N   0  0  0  0  0  0  0  0  0  0  0  0
    2.3059   -2.9673    2.3383 C   0  0  0  0  0  0  0  0  0  0  0  0
    2.1024   -4.0155    1.4217 C   0  0  0  0  0  0  0  0  0  0  0  0
    3.0892   -4.3744    0.4994 C   0  0  0  0  0  0  0  0  0  0  0  0
    4.2979   -3.6749    0.4616 C   0  0  0  0  0  0  0  0  0  0  0  0
    4.4999   -2.5938    1.3162 C   0  0  0  0  0  0  0  0  0  0  0  0
    3.5192   -2.2603    2.2589 C   0  0  0  0  0  0  0  0  0  0  0  0
    5.3804   -4.0858   -0.4700 C   0  0  0  0  0  0  0  0  0  0  0  0
    6.0338   -3.2399   -1.0681 O   0  0  0  0  0  0  0  0  0  0  0  0
    5.5799   -5.4471   -0.5788 N   0  0  0  0  0  0  0  0  0  0  0  0
    6.6484   -6.1005   -1.3327 C   0  0  0  0  0  0  0  0  0  0  0  0
    6.9777   -6.9013   -0.0546 C   0  0  0  0  0  0  0  0  0  0  0  0
    5.6568   -6.3824    0.5458 C   0  0  0  0  0  0  0  0  0  0  0  0
    7.0025   -8.4151   -0.2356 C   0  0  0  0  0  0  0  0  0  0  0  0
    8.2270   -6.3983    0.6688 C   0  0  0  0  0  0  0  0  0  0  0  0
   -1.5878    1.9767    4.2432 H   0  0  0  0  0  0  0  0  0  0  0  0
   -2.1176    3.1628    6.3896 H   0  0  0  0  0  0  0  0  0  0  0  0
   -0.8555    4.4304    6.0479 H   0  0  0  0  0  0  0  0  0  0  0  0
   -1.9808    4.9864    3.8686 H   0  0  0  0  0  0  0  0  0  0  0  0
   -3.2503    3.7250    4.2014 H   0  0  0  0  0  0  0  0  0  0  0  0
    1.8484    2.3421    3.0126 H   0  0  0  0  0  0  0  0  0  0  0  0
   -1.6247   -1.6820    5.8424 H   0  0  0  0  0  0  0  0  0  0  0  0
   -1.2410   -4.0230    5.1634 H   0  0  0  0  0  0  0  0  0  0  0  0
    0.5582   -4.6215    3.6212 H   0  0  0  0  0  0  0  0  0  0  0  0
    1.1673   -4.5708    1.4029 H   0  0  0  0  0  0  0  0  0  0  0  0
    2.9033   -5.1923   -0.1926 H   0  0  0  0  0  0  0  0  0  0  0  0
    5.4232   -2.0206    1.2658 H   0  0  0  0  0  0  0  0  0  0  0  0
    3.7299   -1.4296    2.9298 H   0  0  0  0  0  0  0  0  0  0  0  0
    6.2509   -6.6802   -2.1726 H   0  0  0  0  0  0  0  0  0  0  0  0
    7.4286   -5.4256   -1.6957 H   0  0  0  0  0  0  0  0  0  0  0  0
    5.7459   -5.9034    1.5263 H   0  0  0  0  0  0  0  0  0  0  0  0
    4.8149   -7.0823    0.5562 H   0  0  0  0  0  0  0  0  0  0  0  0
    7.8679   -8.7240   -0.8308 H   0  0  0  0  0  0  0  0  0  0  0  0
    7.0591   -8.9213    0.7344 H   0  0  0  0  0  0  0  0  0  0  0  0
    6.1021   -8.7753   -0.7455 H   0  0  0  0  0  0  0  0  0  0  0  0
    8.2426   -5.3049    0.7389 H   0  0  0  0  0  0  0  0  0  0  0  0
    8.2748   -6.7983    1.6868 H   0  0  0  0  0  0  0  0  0  0  0  0
    9.1343   -6.7097    0.1393 H   0  0  0  0  0  0  0  0  0  0  0  0
  1  2  1  0  0  0  0
  1  3  1  0  0  0  0
  1  4  1  0  0  0  0
  1 30  1  0  0  0  0
  2  3  1  0  0  0  0
  2 31  1  0  0  0  0
  2 32  1  0  0  0  0
  3 33  1  0  0  0  0
  3 34  1  0  0  0  0
  4  5  2  0  0  0  0
  4  6  1  0  0  0  0
  6 14  1  0  0  0  0
  6 35  1  0  0  0  0
  7  8  1  0  0  0  0
  7 12  1  0  0  0  0
  7 15  2  0  0  0  0
  8  9  2  0  0  0  0
  8 36  1  0  0  0  0
  9 10  1  0  0  0  0
  9 37  1  0  0  0  0
 10 11  2  0  0  0  0
 10 38  1  0  0  0  0
 11 12  1  0  0  0  0
 11 16  1  0  0  0  0
 12 13  1  0  0  0  0
 13 14  2  0  0  0  0
 14 15  1  0  0  0  0
 16 17  2  0  0  0  0
 16 21  1  0  0  0  0
 17 18  1  0  0  0  0
 17 39  1  0  0  0  0
 18 19  2  0  0  0  0
 18 40  1  0  0  0  0
 19 20  1  0  0  0  0
 19 22  1  0  0  0  0
 20 21  2  0  0  0  0
 20 41  1  0  0  0  0
 21 42  1  0  0  0  0
 22 23  2  0  0  0  0
 22 24  1  0  0  0  0
 24 25  1  0  0  0  0
 24 27  1  0  0  0  0
 25 26  1  0  0  0  0
 25 43  1  0  0  0  0
 25 44  1  0  0  0  0
 26 27  1  0  0  0  0
 26 28  1  0  0  0  0
 26 29  1  0  0  0  0
 27 45  1  0  0  0  0
 27 46  1  0  0  0  0
 28 47  1  0  0  0  0
 28 48  1  0  0  0  0
 28 49  1  0  0  0  0
 29 50  1  0  0  0  0
 29 51  1  0  0  0  0
 29 52  1  0  0  0  0
M  END
>  <Mol_ID>
3180

>  <Formula>
C22H23N5O2

>  <MolWeight>
389.45032

>  <Cat>
S5917

>  <Name>
Solcitinib

>  <Synonyms>
GLPG0778, GSK2586184

>  <Target>
JAK

>  <Form>
Free Base

>  <CAS>
1206163-45-2

>  <URL>
http://www.selleckchem.com/products/solcitinib.html

$$$$
