Solifenacin succinate.cdx
 OpenBabel08302521383D

 67 70  0  0  0  0  0  0  0  0999 V2000
    5.9911   -1.0394    2.7021 C   0  0  2  0  0  0  0  0  0  0  0  0
    5.3974   -0.5660    3.9598 N   0  0  0  0  0  0  0  0  0  0  0  0
    4.8645   -1.6054    4.8946 C   0  0  0  0  0  0  0  0  0  0  0  0
    5.0693   -3.0932    4.4870 C   0  0  0  0  0  0  0  0  0  0  0  0
    4.7819   -3.2507    3.0194 C   0  0  0  0  0  0  0  0  0  0  0  0
    4.0693   -4.3521    2.5288 C   0  0  0  0  0  0  0  0  0  0  0  0
    3.6979   -4.3956    1.1872 C   0  0  0  0  0  0  0  0  0  0  0  0
    4.0537   -3.3539    0.3320 C   0  0  0  0  0  0  0  0  0  0  0  0
    4.8045   -2.2770    0.8079 C   0  0  0  0  0  0  0  0  0  0  0  0
    5.1889   -2.2199    2.1542 C   0  0  0  0  0  0  0  0  0  0  0  0
    5.5105    0.7841    4.3090 C   0  0  0  0  0  0  0  0  0  0  0  0
    5.3257    1.2210    5.4250 O   0  0  0  0  0  0  0  0  0  0  0  0
    5.8840    1.5476    3.2201 O   0  0  0  0  0  0  0  0  0  0  0  0
    7.4912   -1.3299    2.8628 C   0  0  0  0  0  0  0  0  0  0  0  0
    8.1538   -1.2020    4.1009 C   0  0  0  0  0  0  0  0  0  0  0  0
    9.4743   -1.6127    4.2651 C   0  0  0  0  0  0  0  0  0  0  0  0
   10.1839   -2.0940    3.1736 C   0  0  0  0  0  0  0  0  0  0  0  0
    9.5840   -2.1255    1.9167 C   0  0  0  0  0  0  0  0  0  0  0  0
    8.2484   -1.7465    1.7583 C   0  0  0  0  0  0  0  0  0  0  0  0
    8.6515    3.8500    2.8128 N   0  0  3  0  0  0  0  0  0  0  0  0
    7.8449    2.9682    3.7114 C   0  0  0  0  0  0  0  0  0  0  0  0
    6.3385    2.9182    3.3439 C   0  0  1  0  0  0  0  0  0  0  0  0
    6.2006    3.6495    1.9738 C   0  0  3  0  0  0  0  0  0  0  0  0
    7.2165    3.0958    0.9431 C   0  0  0  0  0  0  0  0  0  0  0  0
    8.6520    3.2606    1.4591 C   0  0  0  0  0  0  0  0  0  0  0  0
    8.0341    5.1926    2.7244 C   0  0  0  0  0  0  0  0  0  0  0  0
    6.5744    5.1217    2.2418 C   0  0  0  0  0  0  0  0  0  0  0  0
    1.0884   -0.1167   -0.1048 C   0  0  0  0  0  0  0  0  0  0  0  0
    0.2936   -0.0179    1.1718 C   0  0  0  0  0  0  0  0  0  0  0  0
   -1.1986   -0.2223    0.9275 C   0  0  0  0  0  0  0  0  0  0  0  0
   -1.9635   -0.1705    2.2188 C   0  0  0  0  0  0  0  0  0  0  0  0
    0.6189   -0.3187   -1.2127 O   0  0  0  0  0  0  0  0  0  0  0  0
    2.4161    0.0553    0.0972 O   0  0  0  0  0  0  0  0  0  0  0  0
   -1.5135    0.0574    3.3287 O   0  0  0  0  0  0  0  0  0  0  0  0
   -3.2721   -0.4349    2.0437 O   0  0  0  0  0  0  0  0  0  0  0  0
    5.9046   -0.2343    1.9647 H   0  0  0  0  0  0  0  0  0  0  0  0
    5.2233   -1.4365    5.9130 H   0  0  0  0  0  0  0  0  0  0  0  0
    3.7830   -1.4422    4.8994 H   0  0  0  0  0  0  0  0  0  0  0  0
    6.0682   -3.4856    4.7171 H   0  0  0  0  0  0  0  0  0  0  0  0
    4.3578   -3.7056    5.0601 H   0  0  0  0  0  0  0  0  0  0  0  0
    3.7654   -5.1583    3.1928 H   0  0  0  0  0  0  0  0  0  0  0  0
    3.1114   -5.2313    0.8123 H   0  0  0  0  0  0  0  0  0  0  0  0
    3.7391   -3.3760   -0.7089 H   0  0  0  0  0  0  0  0  0  0  0  0
    5.0617   -1.4720    0.1227 H   0  0  0  0  0  0  0  0  0  0  0  0
    7.6488   -0.7984    4.9766 H   0  0  0  0  0  0  0  0  0  0  0  0
    9.9358   -1.5692    5.2475 H   0  0  0  0  0  0  0  0  0  0  0  0
   11.2062   -2.4379    3.3022 H   0  0  0  0  0  0  0  0  0  0  0  0
   10.1543   -2.4669    1.0562 H   0  0  0  0  0  0  0  0  0  0  0  0
    7.8028   -1.7992    0.7678 H   0  0  0  0  0  0  0  0  0  0  0  0
    7.9549    3.3309    4.7392 H   0  0  0  0  0  0  0  0  0  0  0  0
    8.2725    1.9582    3.7019 H   0  0  0  0  0  0  0  0  0  0  0  0
    5.7391    3.4490    4.0944 H   0  0  0  0  0  0  0  0  0  0  0  0
    5.1917    3.5543    1.5607 H   0  0  0  0  0  0  0  0  0  0  0  0
    7.0128    2.0391    0.7386 H   0  0  0  0  0  0  0  0  0  0  0  0
    7.1142    3.6370   -0.0072 H   0  0  0  0  0  0  0  0  0  0  0  0
    9.1664    2.2921    1.4687 H   0  0  0  0  0  0  0  0  0  0  0  0
    9.2369    3.8919    0.7742 H   0  0  0  0  0  0  0  0  0  0  0  0
    8.0909    5.6940    3.6976 H   0  0  0  0  0  0  0  0  0  0  0  0
    8.6174    5.8243    2.0395 H   0  0  0  0  0  0  0  0  0  0  0  0
    6.4395    5.7319    1.3402 H   0  0  0  0  0  0  0  0  0  0  0  0
    5.9143    5.5397    3.0115 H   0  0  0  0  0  0  0  0  0  0  0  0
    0.6690   -0.7759    1.8687 H   0  0  0  0  0  0  0  0  0  0  0  0
    0.4635    0.9741    1.6052 H   0  0  0  0  0  0  0  0  0  0  0  0
   -1.5849    0.5567    0.2609 H   0  0  0  0  0  0  0  0  0  0  0  0
   -1.3765   -1.2002    0.4659 H   0  0  0  0  0  0  0  0  0  0  0  0
    2.6584    0.1784    1.0361 H   0  0  0  0  0  0  0  0  0  0  0  0
   -3.6531   -0.4389    2.9469 H   0  0  0  0  0  0  0  0  0  0  0  0
  1  2  1  0  0  0  0
  1 10  1  0  0  0  0
  1 36  1  6  0  0  0
  1 14  1  0  0  0  0
  2  3  1  0  0  0  0
  2 11  1  0  0  0  0
  3  4  1  0  0  0  0
  3 37  1  0  0  0  0
  3 38  1  0  0  0  0
  4  5  1  0  0  0  0
  4 39  1  0  0  0  0
  4 40  1  0  0  0  0
  5  6  2  0  0  0  0
  5 10  1  0  0  0  0
  6  7  1  0  0  0  0
  6 41  1  0  0  0  0
  7  8  2  0  0  0  0
  7 42  1  0  0  0  0
  8  9  1  0  0  0  0
  8 43  1  0  0  0  0
  9 10  2  0  0  0  0
  9 44  1  0  0  0  0
 11 12  2  0  0  0  0
 11 13  1  0  0  0  0
 14 15  2  0  0  0  0
 14 19  1  0  0  0  0
 15 16  1  0  0  0  0
 15 45  1  0  0  0  0
 16 17  2  0  0  0  0
 16 46  1  0  0  0  0
 17 18  1  0  0  0  0
 17 47  1  0  0  0  0
 18 19  2  0  0  0  0
 18 48  1  0  0  0  0
 19 49  1  0  0  0  0
 20 21  1  0  0  0  0
 20 25  1  0  0  0  0
 20 26  1  0  0  0  0
 21 22  1  0  0  0  0
 21 50  1  0  0  0  0
 21 51  1  0  0  0  0
 22 23  1  0  0  0  0
 22 52  1  1  0  0  0
 22 13  1  0  0  0  0
 23 24  1  0  0  0  0
 23 27  1  0  0  0  0
 23 53  1  0  0  0  0
 24 25  1  0  0  0  0
 24 54  1  0  0  0  0
 24 55  1  0  0  0  0
 25 56  1  0  0  0  0
 25 57  1  0  0  0  0
 26 27  1  0  0  0  0
 26 58  1  0  0  0  0
 26 59  1  0  0  0  0
 27 60  1  0  0  0  0
 27 61  1  0  0  0  0
 28 29  1  0  0  0  0
 28 32  2  0  0  0  0
 28 33  1  0  0  0  0
 29 30  1  0  0  0  0
 29 62  1  0  0  0  0
 29 63  1  0  0  0  0
 30 31  1  0  0  0  0
 30 64  1  0  0  0  0
 30 65  1  0  0  0  0
 31 34  2  0  0  0  0
 31 35  1  0  0  0  0
 33 66  1  0  0  0  0
 35 67  1  0  0  0  0
M  END
>  <Mol_ID>
7720

>  <Formula>
C27H32N2O6

>  <MolWeight>
480.55278

>  <Cat>
S3048

>  <Name>
Solifenacin succinate

>  <Synonyms>
YM905

>  <Target>
AChR

>  <Form>
Succinate

>  <CAS>
242478-38-2

>  <URL>
http://selleckchem.com/products/solifenacin-succinate.html

$$$$
