Solutol HS-15
 OpenBabel08302521353D

 64 63  0  0  0  0  0  0  0  0999 V2000
    1.5672   -1.5121   -1.4977 C   0  0  3  0  0  0  0  0  0  0  0  0
    0.8884   -1.1597   -0.1661 C   0  0  0  0  0  0  0  0  0  0  0  0
    1.2420   -0.5218   -2.6277 C   0  0  0  0  0  0  0  0  0  0  0  0
    1.1203   -2.8055   -1.9186 O   0  0  0  0  0  0  0  0  0  0  0  0
    1.1998   -2.1791    0.9428 C   0  0  0  0  0  0  0  0  0  0  0  0
    1.7092    0.9257   -2.4313 C   0  0  0  0  0  0  0  0  0  0  0  0
    0.5592   -1.8428    2.2951 C   0  0  0  0  0  0  0  0  0  0  0  0
    3.2188    1.0875   -2.2277 C   0  0  0  0  0  0  0  0  0  0  0  0
   -0.9677   -1.7842    2.2323 C   0  0  0  0  0  0  0  0  0  0  0  0
    3.6000    2.5632   -2.0511 C   0  0  0  0  0  0  0  0  0  0  0  0
   -1.5743   -1.4609    3.5965 C   0  0  0  0  0  0  0  0  0  0  0  0
    5.1018    2.7494   -1.8210 C   0  0  0  0  0  0  0  0  0  0  0  0
   -3.0990   -1.4072    3.5083 C   0  0  0  0  0  0  0  0  0  0  0  0
    5.4627    4.2175   -1.6390 C   0  0  0  0  0  0  0  0  0  0  0  0
   -3.7210   -1.0728    4.8619 C   0  0  0  0  0  0  0  0  0  0  0  0
   -5.2477   -1.0254    4.7691 C   0  0  0  0  0  0  0  0  0  0  0  0
   -5.8637   -0.7049    6.1293 C   0  0  0  0  0  0  0  0  0  0  0  0
   -7.3886   -0.6753    6.0815 C   0  0  0  0  0  0  0  0  0  0  0  0
   -7.9476   -0.2893    7.4297 C   0  0  0  0  0  0  0  0  0  0  0  0
   -7.5819   -1.1722    8.3963 O   0  0  0  0  0  0  0  0  0  0  0  0
   -8.6061    0.7229    7.6258 O   0  0  0  0  0  0  0  0  0  0  0  0
   -7.6280   -0.6673    9.7463 C   0  0  0  0  0  0  0  0  0  0  0  0
   -9.0295   -0.5859   10.3446 C   0  0  0  0  0  0  0  0  0  0  0  0
   -9.6704   -1.8587   10.3491 O   0  0  0  0  0  0  0  0  0  0  0  0
    2.6505   -1.5866   -1.3603 H   0  0  0  0  0  0  0  0  0  0  0  0
    1.1942   -0.1618    0.1664 H   0  0  0  0  0  0  0  0  0  0  0  0
   -0.1933   -1.1391   -0.3332 H   0  0  0  0  0  0  0  0  0  0  0  0
    1.6541   -0.9111   -3.5672 H   0  0  0  0  0  0  0  0  0  0  0  0
    0.1558   -0.5113   -2.7842 H   0  0  0  0  0  0  0  0  0  0  0  0
    0.1586   -2.7675   -2.0232 H   0  0  0  0  0  0  0  0  0  0  0  0
    0.8601   -3.1750    0.6369 H   0  0  0  0  0  0  0  0  0  0  0  0
    2.2856   -2.2444    1.0822 H   0  0  0  0  0  0  0  0  0  0  0  0
    1.4065    1.4950   -3.3205 H   0  0  0  0  0  0  0  0  0  0  0  0
    1.1711    1.3708   -1.5871 H   0  0  0  0  0  0  0  0  0  0  0  0
    0.8559   -2.6138    3.0183 H   0  0  0  0  0  0  0  0  0  0  0  0
    0.9554   -0.8917    2.6724 H   0  0  0  0  0  0  0  0  0  0  0  0
    3.5374    0.5301   -1.3415 H   0  0  0  0  0  0  0  0  0  0  0  0
    3.7525    0.6696   -3.0884 H   0  0  0  0  0  0  0  0  0  0  0  0
   -1.2860   -1.0145    1.5217 H   0  0  0  0  0  0  0  0  0  0  0  0
   -1.3577   -2.7436    1.8697 H   0  0  0  0  0  0  0  0  0  0  0  0
    3.2937    3.1313   -2.9394 H   0  0  0  0  0  0  0  0  0  0  0  0
    3.0514    2.9801   -1.1976 H   0  0  0  0  0  0  0  0  0  0  0  0
   -1.2697   -2.2169    4.3279 H   0  0  0  0  0  0  0  0  0  0  0  0
   -1.1915   -0.4941    3.9452 H   0  0  0  0  0  0  0  0  0  0  0  0
    5.4121    2.1936   -0.9287 H   0  0  0  0  0  0  0  0  0  0  0  0
    5.6665    2.3440   -2.6685 H   0  0  0  0  0  0  0  0  0  0  0  0
   -3.4003   -0.6525    2.7713 H   0  0  0  0  0  0  0  0  0  0  0  0
   -3.4812   -2.3703    3.1583 H   0  0  0  0  0  0  0  0  0  0  0  0
    4.8852    4.6687   -0.8254 H   0  0  0  0  0  0  0  0  0  0  0  0
    6.5255    4.3227   -1.3967 H   0  0  0  0  0  0  0  0  0  0  0  0
    5.2677    4.7864   -2.5540 H   0  0  0  0  0  0  0  0  0  0  0  0
   -3.4193   -1.8277    5.5992 H   0  0  0  0  0  0  0  0  0  0  0  0
   -3.3412   -0.1058    5.2147 H   0  0  0  0  0  0  0  0  0  0  0  0
   -5.5487   -0.2676    4.0358 H   0  0  0  0  0  0  0  0  0  0  0  0
   -5.6246   -1.9917    4.4132 H   0  0  0  0  0  0  0  0  0  0  0  0
   -5.5280   -1.4545    6.8608 H   0  0  0  0  0  0  0  0  0  0  0  0
   -5.4896    0.2630    6.4831 H   0  0  0  0  0  0  0  0  0  0  0  0
   -7.7184    0.0828    5.3596 H   0  0  0  0  0  0  0  0  0  0  0  0
   -7.8128   -1.6325    5.7623 H   0  0  0  0  0  0  0  0  0  0  0  0
   -7.0105   -1.3466   10.3431 H   0  0  0  0  0  0  0  0  0  0  0  0
   -7.1426    0.3169    9.7774 H   0  0  0  0  0  0  0  0  0  0  0  0
   -8.9602   -0.2480   11.3836 H   0  0  0  0  0  0  0  0  0  0  0  0
   -9.6697    0.1188    9.8083 H   0  0  0  0  0  0  0  0  0  0  0  0
  -10.0967   -1.9532    9.4795 H   0  0  0  0  0  0  0  0  0  0  0  0
  1  2  1  0  0  0  0
  1  3  1  0  0  0  0
  1  4  1  0  0  0  0
  1 25  1  0  0  0  0
  2  5  1  0  0  0  0
  2 26  1  0  0  0  0
  2 27  1  0  0  0  0
  3  6  1  0  0  0  0
  3 28  1  0  0  0  0
  3 29  1  0  0  0  0
  4 30  1  0  0  0  0
  5  7  1  0  0  0  0
  5 31  1  0  0  0  0
  5 32  1  0  0  0  0
  6  8  1  0  0  0  0
  6 33  1  0  0  0  0
  6 34  1  0  0  0  0
  7  9  1  0  0  0  0
  7 35  1  0  0  0  0
  7 36  1  0  0  0  0
  8 10  1  0  0  0  0
  8 37  1  0  0  0  0
  8 38  1  0  0  0  0
  9 11  1  0  0  0  0
  9 39  1  0  0  0  0
  9 40  1  0  0  0  0
 10 12  1  0  0  0  0
 10 41  1  0  0  0  0
 10 42  1  0  0  0  0
 11 13  1  0  0  0  0
 11 43  1  0  0  0  0
 11 44  1  0  0  0  0
 12 14  1  0  0  0  0
 12 45  1  0  0  0  0
 12 46  1  0  0  0  0
 13 15  1  0  0  0  0
 13 47  1  0  0  0  0
 13 48  1  0  0  0  0
 14 49  1  0  0  0  0
 14 50  1  0  0  0  0
 14 51  1  0  0  0  0
 15 16  1  0  0  0  0
 15 52  1  0  0  0  0
 15 53  1  0  0  0  0
 16 17  1  0  0  0  0
 16 54  1  0  0  0  0
 16 55  1  0  0  0  0
 17 18  1  0  0  0  0
 17 56  1  0  0  0  0
 17 57  1  0  0  0  0
 18 19  1  0  0  0  0
 18 58  1  0  0  0  0
 18 59  1  0  0  0  0
 19 20  1  0  0  0  0
 19 21  2  0  0  0  0
 20 22  1  0  0  0  0
 22 23  1  0  0  0  0
 22 60  1  0  0  0  0
 22 61  1  0  0  0  0
 23 24  1  0  0  0  0
 23 62  1  0  0  0  0
 23 63  1  0  0  0  0
 24 64  1  0  0  0  0
M  END
>  <Mol_ID>
6968

>  <Formula>
C20H40O4

>  <MolWeight>
344.5292

>  <Cat>
E1708

>  <Name>
Solutol HS-15

>  <Synonyms>
Polyethylene glycol 12-hydroxystearate

>  <Target>
Others

>  <Form>
free base

>  <CAS>
61909-81-7

>  <URL>
https://www.selleckchem.com/products/solutol-hs-15.html

$$$$
