Sophocarpine.cdx
 OpenBabel08302521373D

 40 43  0  0  0  0  0  0  0  0999 V2000
    2.0362    0.8737    1.0942 C   0  0  0  0  0  0  0  0  0  0  0  0
    1.4325    0.3665    0.0027 C   0  0  0  0  0  0  0  0  0  0  0  0
    1.5612    1.2203   -1.2368 C   0  0  0  0  0  0  0  0  0  0  0  0
    1.5640    2.6006   -1.0241 N   0  0  0  0  0  0  0  0  0  0  0  0
    2.0663    3.1897    0.2217 C   0  0  2  0  0  0  0  0  0  0  0  0
    1.6890    2.2957    1.4346 C   0  0  0  0  0  0  0  0  0  0  0  0
    0.8850    3.4038   -2.0109 C   0  0  0  0  0  0  0  0  0  0  0  0
    1.2307    4.8842   -2.0942 C   0  0  1  0  0  0  0  0  0  0  0  0
    1.6244    5.5841   -0.7678 C   0  0  3  0  0  0  0  0  0  0  0  0
    1.6450    4.6509    0.4825 C   0  0  3  0  0  0  0  0  0  0  0  0
    2.1867    5.1527   -3.2578 C   0  0  0  0  0  0  0  0  0  0  0  0
    2.4220    6.6474   -3.3452 C   0  0  0  0  0  0  0  0  0  0  0  0
    3.2073    7.0678   -2.1175 C   0  0  0  0  0  0  0  0  0  0  0  0
    2.5983    6.6835   -0.8541 N   0  0  3  0  0  0  0  0  0  0  0  0
    3.4938    6.9055    0.2656 C   0  0  0  0  0  0  0  0  0  0  0  0
    2.7832    6.6718    1.5832 C   0  0  0  0  0  0  0  0  0  0  0  0
    2.4425    5.2007    1.6912 C   0  0  0  0  0  0  0  0  0  0  0  0
    1.4406    0.6792   -2.3309 O   0  0  0  0  0  0  0  0  0  0  0  0
    3.1149    0.7119    1.1471 H   0  0  0  0  0  0  0  0  0  0  0  0
    0.3399    0.2401    0.0703 H   0  0  0  0  0  0  0  0  0  0  0  0
    3.1593    3.1603    0.1076 H   0  0  0  0  0  0  0  0  0  0  0  0
    2.2245    2.5884    2.3426 H   0  0  0  0  0  0  0  0  0  0  0  0
    0.6156    2.3698    1.6552 H   0  0  0  0  0  0  0  0  0  0  0  0
    1.0128    2.9362   -2.9983 H   0  0  0  0  0  0  0  0  0  0  0  0
   -0.1841    3.3012   -1.7832 H   0  0  0  0  0  0  0  0  0  0  0  0
    0.2915    5.3632   -2.4169 H   0  0  0  0  0  0  0  0  0  0  0  0
    0.7174    6.1772   -0.5550 H   0  0  0  0  0  0  0  0  0  0  0  0
    0.5948    4.6098    0.8157 H   0  0  0  0  0  0  0  0  0  0  0  0
    1.7476    4.8030   -4.2001 H   0  0  0  0  0  0  0  0  0  0  0  0
    3.1329    4.6163   -3.1199 H   0  0  0  0  0  0  0  0  0  0  0  0
    2.9851    6.8937   -4.2510 H   0  0  0  0  0  0  0  0  0  0  0  0
    1.4690    7.1901   -3.4023 H   0  0  0  0  0  0  0  0  0  0  0  0
    3.3255    8.1600   -2.1427 H   0  0  0  0  0  0  0  0  0  0  0  0
    4.2135    6.6319   -2.1959 H   0  0  0  0  0  0  0  0  0  0  0  0
    3.8736    7.9340    0.2483 H   0  0  0  0  0  0  0  0  0  0  0  0
    4.3652    6.2400    0.1873 H   0  0  0  0  0  0  0  0  0  0  0  0
    3.4396    6.9605    2.4133 H   0  0  0  0  0  0  0  0  0  0  0  0
    1.8793    7.2860    1.6584 H   0  0  0  0  0  0  0  0  0  0  0  0
    1.8923    5.0176    2.6219 H   0  0  0  0  0  0  0  0  0  0  0  0
    3.3910    4.6558    1.7927 H   0  0  0  0  0  0  0  0  0  0  0  0
  1  2  2  3  0  0  0
  1 19  1  0  0  0  0
  2  3  1  0  0  0  0
  2 20  1  0  0  0  0
  3  4  1  0  0  0  0
  3 18  2  0  0  0  0
  4  5  1  0  0  0  0
  4  7  1  0  0  0  0
  5  6  1  0  0  0  0
  5 21  1  6  0  0  0
  6  1  1  0  0  0  0
  6 22  1  0  0  0  0
  6 23  1  0  0  0  0
  7 24  1  0  0  0  0
  7 25  1  0  0  0  0
  8  7  1  0  0  0  0
  8  9  1  0  0  0  0
  8 11  1  0  0  0  0
  8 26  1  6  0  0  0
  9 10  1  0  0  0  0
  9 14  1  0  0  0  0
  9 27  1  0  0  0  0
 10  5  1  0  0  0  0
 10 17  1  0  0  0  0
 10 28  1  0  0  0  0
 11 12  1  0  0  0  0
 11 29  1  0  0  0  0
 11 30  1  0  0  0  0
 12 13  1  0  0  0  0
 12 31  1  0  0  0  0
 12 32  1  0  0  0  0
 13 14  1  0  0  0  0
 13 33  1  0  0  0  0
 13 34  1  0  0  0  0
 14 15  1  0  0  0  0
 15 16  1  0  0  0  0
 15 35  1  0  0  0  0
 15 36  1  0  0  0  0
 16 17  1  0  0  0  0
 16 37  1  0  0  0  0
 16 38  1  0  0  0  0
 17 39  1  0  0  0  0
 17 40  1  0  0  0  0
M  END
>  <Mol_ID>
730

>  <Formula>
C15H22N2O

>  <MolWeight>
246.34798

>  <Cat>
S2405

>  <Name>
Sophocarpine

>  <Synonyms>
N/A

>  <Target>
Potassium Channel

>  <Form>
free base

>  <CAS>
6483-15-4

>  <URL>
http://selleckchem.com/products/Sophocarpine.html

$$$$
