Sotagliflozin (LX4211).cdx
 OpenBabel08302520413D

 53 55  0  0  0  0  0  0  0  0999 V2000
   -9.6494   -2.5892   -3.5373 C   0  0  0  0  0  0  0  0  0  0  0  0
   -8.9865   -1.3756   -3.3540 C   0  0  0  0  0  0  0  0  0  0  0  0
   -7.9742   -1.2601   -2.3947 C   0  0  0  0  0  0  0  0  0  0  0  0
   -7.5919   -2.3578   -1.6122 C   0  0  0  0  0  0  0  0  0  0  0  0
   -8.2540   -3.5781   -1.8084 C   0  0  0  0  0  0  0  0  0  0  0  0
   -9.2711   -3.6884   -2.7641 C   0  0  0  0  0  0  0  0  0  0  0  0
   -6.4646   -2.2382   -0.6154 C   0  0  0  0  0  0  0  0  0  0  0  0
   -6.8507   -1.7721    0.7700 C   0  0  0  0  0  0  0  0  0  0  0  0
   -7.2831   -2.6855    1.7389 C   0  0  0  0  0  0  0  0  0  0  0  0
   -6.7127   -0.4212    1.1261 C   0  0  0  0  0  0  0  0  0  0  0  0
   -6.9591    0.0176    2.4406 C   0  0  0  0  0  0  0  0  0  0  0  0
   -7.3853   -0.9228    3.3920 C   0  0  0  0  0  0  0  0  0  0  0  0
   -7.5500   -2.2631    3.0412 C   0  0  0  0  0  0  0  0  0  0  0  0
   -6.6952    1.4543    2.8644 C   0  0  1  0  0  0  0  0  0  0  0  0
   -5.2564    1.6158    3.4119 C   0  0  1  0  0  0  0  0  0  0  0  0
   -4.9609    3.0994    3.6969 C   0  0  2  0  0  0  0  0  0  0  0  0
   -5.2927    3.9870    2.4851 C   0  0  1  0  0  0  0  0  0  0  0  0
   -6.7411    3.6943    2.0361 C   0  0  2  0  0  0  0  0  0  0  0  0
   -6.9051    2.3119    1.7352 O   0  0  0  0  0  0  0  0  0  0  0  0
   -5.0509    0.8414    4.6022 O   0  0  0  0  0  0  0  0  0  0  0  0
   -5.0868    5.3661    2.8131 O   0  0  0  0  0  0  0  0  0  0  0  0
   -7.2791    4.7082    0.6076 S   0  0  0  0  0  0  0  0  0  0  0  0
   -3.5957    3.2671    4.0975 O   0  0  0  0  0  0  0  0  0  0  0  0
   -6.1022    4.1440   -0.6448 C   0  0  0  0  0  0  0  0  0  0  0  0
  -10.6665   -2.8240   -4.4242 O   0  0  0  0  0  0  0  0  0  0  0  0
  -11.1218   -1.7076   -5.1903 C   0  0  0  0  0  0  0  0  0  0  0  0
  -12.3342   -2.1333   -6.0004 C   0  0  0  0  0  0  0  0  0  0  0  0
   -9.2296   -0.4972   -3.9428 H   0  0  0  0  0  0  0  0  0  0  0  0
   -7.4739   -0.3013   -2.2701 H   0  0  0  0  0  0  0  0  0  0  0  0
   -7.9768   -4.4538   -1.2284 H   0  0  0  0  0  0  0  0  0  0  0  0
   -9.7723   -4.6425   -2.9059 H   0  0  0  0  0  0  0  0  0  0  0  0
   -5.9468   -3.2045   -0.5348 H   0  0  0  0  0  0  0  0  0  0  0  0
   -5.7014   -1.5617   -1.0251 H   0  0  0  0  0  0  0  0  0  0  0  0
   -7.3894   -3.7400    1.4932 H   0  0  0  0  0  0  0  0  0  0  0  0
   -6.3805    0.2949    0.3797 H   0  0  0  0  0  0  0  0  0  0  0  0
   -7.5628   -0.6231    4.4221 H   0  0  0  0  0  0  0  0  0  0  0  0
   -7.8612   -2.9837    3.7942 H   0  0  0  0  0  0  0  0  0  0  0  0
   -7.4280    1.7186    3.6392 H   0  0  0  0  0  0  0  0  0  0  0  0
   -4.5308    1.2495    2.6745 H   0  0  0  0  0  0  0  0  0  0  0  0
   -5.5463    3.4336    4.5634 H   0  0  0  0  0  0  0  0  0  0  0  0
   -4.5790    3.7425    1.6907 H   0  0  0  0  0  0  0  0  0  0  0  0
   -7.4340    3.9666    2.8420 H   0  0  0  0  0  0  0  0  0  0  0  0
   -5.3628    1.3468    5.3715 H   0  0  0  0  0  0  0  0  0  0  0  0
   -5.6436    5.6001    3.5747 H   0  0  0  0  0  0  0  0  0  0  0  0
   -3.0181    2.9704    3.3665 H   0  0  0  0  0  0  0  0  0  0  0  0
   -5.0835    4.4402   -0.3846 H   0  0  0  0  0  0  0  0  0  0  0  0
   -6.1541    3.0597   -0.7718 H   0  0  0  0  0  0  0  0  0  0  0  0
   -6.3512    4.6133   -1.6005 H   0  0  0  0  0  0  0  0  0  0  0  0
  -11.4175   -0.8824   -4.5316 H   0  0  0  0  0  0  0  0  0  0  0  0
  -10.3310   -1.3794   -5.8738 H   0  0  0  0  0  0  0  0  0  0  0  0
  -13.1493   -2.4456   -5.3392 H   0  0  0  0  0  0  0  0  0  0  0  0
  -12.6888   -1.3093   -6.6264 H   0  0  0  0  0  0  0  0  0  0  0  0
  -12.0957   -2.9878   -6.6419 H   0  0  0  0  0  0  0  0  0  0  0  0
  1  2  2  0  0  0  0
  1 25  1  0  0  0  0
  2  3  1  0  0  0  0
  2 28  1  0  0  0  0
  3  4  2  0  0  0  0
  3 29  1  0  0  0  0
  4  5  1  0  0  0  0
  4  7  1  0  0  0  0
  5  6  2  0  0  0  0
  5 30  1  0  0  0  0
  6  1  1  0  0  0  0
  6 31  1  0  0  0  0
  7  8  1  0  0  0  0
  7 32  1  0  0  0  0
  7 33  1  0  0  0  0
  8  9  2  0  0  0  0
  8 10  1  0  0  0  0
  9 34  1  0  0  0  0
 10 11  2  0  0  0  0
 10 35  1  0  0  0  0
 11 12  1  0  0  0  0
 12 13  2  0  0  0  0
 12 36  1  0  0  0  0
 13  9  1  0  0  0  0
 13 37  1  0  0  0  0
 14 15  1  0  0  0  0
 14 38  1  1  0  0  0
 14 11  1  0  0  0  0
 15 16  1  0  0  0  0
 15 20  1  0  0  0  0
 15 39  1  6  0  0  0
 16 17  1  0  0  0  0
 16 23  1  0  0  0  0
 16 40  1  1  0  0  0
 17 18  1  0  0  0  0
 17 21  1  0  0  0  0
 17 41  1  6  0  0  0
 18 19  1  0  0  0  0
 18 22  1  0  0  0  0
 18 42  1  1  0  0  0
 19 14  1  0  0  0  0
 20 43  1  0  0  0  0
 21 44  1  0  0  0  0
 22 24  1  0  0  0  0
 23 45  1  0  0  0  0
 24 46  1  0  0  0  0
 24 47  1  0  0  0  0
 24 48  1  0  0  0  0
 25 26  1  0  0  0  0
 26 27  1  0  0  0  0
 26 49  1  0  0  0  0
 26 50  1  0  0  0  0
 27 51  1  0  0  0  0
 27 52  1  0  0  0  0
 27 53  1  0  0  0  0
M  END
>  <Mol_ID>
3900

>  <Formula>
C21H25ClO5S

>  <MolWeight>
424.9382

>  <Cat>
S8103

>  <Name>
Sotagliflozin (LX4211)

>  <Synonyms>
LP-802034

>  <Target>
SGLT

>  <Form>
free base

>  <CAS>
1018899-04-1

>  <URL>
http://selleckchem.com/products/sotagliflozin-lx4211.html

$$$$
