Sotalol HCl.cdx
 OpenBabel08302521383D

 38 38  0  0  0  0  0  0  0  0999 V2000
    1.3037   -0.2263    0.2005 C   0  0  0  0  0  0  0  0  0  0  0  0
    0.3538   -1.2491    0.0365 C   0  0  0  0  0  0  0  0  0  0  0  0
   -1.0061   -0.9554   -0.1245 C   0  0  0  0  0  0  0  0  0  0  0  0
   -1.4377    0.3673   -0.1111 C   0  0  0  0  0  0  0  0  0  0  0  0
   -0.5341    1.3890    0.1578 C   0  0  0  0  0  0  0  0  0  0  0  0
    0.8249    1.0923    0.3162 C   0  0  0  0  0  0  0  0  0  0  0  0
   -2.7899    0.6902   -0.4239 N   0  0  0  0  0  0  0  0  0  0  0  0
   -3.9496    0.6187    0.7986 S   0  0  0  0  0  0  0  0  0  0  0  0
   -4.0445    2.3271    1.2896 C   0  0  0  0  0  0  0  0  0  0  0  0
   -5.1893    0.2938    0.1251 O   0  0  0  0  0  0  0  0  0  0  0  0
   -3.4659   -0.1731    1.9053 O   0  0  0  0  0  0  0  0  0  0  0  0
    2.7997   -0.5185    0.2895 C   0  0  3  0  0  0  0  0  0  0  0  0
    3.2716   -1.7329   -0.5684 C   0  0  0  0  0  0  0  0  0  0  0  0
    4.7287   -1.8949   -0.5499 N   0  0  0  0  0  0  0  0  0  0  0  0
    5.2233   -3.0178   -1.3524 C   0  0  0  0  0  0  0  0  0  0  0  0
    4.9256   -2.8809   -2.8492 C   0  0  0  0  0  0  0  0  0  0  0  0
    6.7336   -3.1267   -1.1416 C   0  0  0  0  0  0  0  0  0  0  0  0
    3.5334    0.6401   -0.1545 O   0  0  0  0  0  0  0  0  0  0  0  0
    0.6505   -2.2947    0.0164 H   0  0  0  0  0  0  0  0  0  0  0  0
   -1.7133   -1.7673   -0.2720 H   0  0  0  0  0  0  0  0  0  0  0  0
   -0.8640    2.4224    0.2036 H   0  0  0  0  0  0  0  0  0  0  0  0
    1.5194    1.9101    0.5057 H   0  0  0  0  0  0  0  0  0  0  0  0
   -3.1565    0.2176   -1.2526 H   0  0  0  0  0  0  0  0  0  0  0  0
   -4.3403    2.9291    0.4289 H   0  0  0  0  0  0  0  0  0  0  0  0
   -4.8004    2.4086    2.0739 H   0  0  0  0  0  0  0  0  0  0  0  0
   -3.0750    2.6422    1.6768 H   0  0  0  0  0  0  0  0  0  0  0  0
    3.0598   -0.6830    1.3415 H   0  0  0  0  0  0  0  0  0  0  0  0
    2.8045   -2.6536   -0.2043 H   0  0  0  0  0  0  0  0  0  0  0  0
    2.9375   -1.5595   -1.5987 H   0  0  0  0  0  0  0  0  0  0  0  0
    5.1778   -1.0157   -0.8116 H   0  0  0  0  0  0  0  0  0  0  0  0
    4.7695   -3.9471   -0.9869 H   0  0  0  0  0  0  0  0  0  0  0  0
    5.2981   -1.9305   -3.2463 H   0  0  0  0  0  0  0  0  0  0  0  0
    5.4043   -3.6893   -3.4124 H   0  0  0  0  0  0  0  0  0  0  0  0
    3.8522   -2.9416   -3.0549 H   0  0  0  0  0  0  0  0  0  0  0  0
    6.9755   -3.2665   -0.0823 H   0  0  0  0  0  0  0  0  0  0  0  0
    7.1430   -3.9822   -1.6887 H   0  0  0  0  0  0  0  0  0  0  0  0
    7.2553   -2.2257   -1.4909 H   0  0  0  0  0  0  0  0  0  0  0  0
    3.3849    0.7097   -1.1124 H   0  0  0  0  0  0  0  0  0  0  0  0
  1  2  2  0  0  0  0
  1 12  1  0  0  0  0
  2  3  1  0  0  0  0
  2 19  1  0  0  0  0
  3  4  2  0  0  0  0
  3 20  1  0  0  0  0
  4  5  1  0  0  0  0
  4  7  1  0  0  0  0
  5  6  2  0  0  0  0
  5 21  1  0  0  0  0
  6  1  1  0  0  0  0
  6 22  1  0  0  0  0
  7  8  1  0  0  0  0
  7 23  1  0  0  0  0
  8  9  1  0  0  0  0
  8 10  2  0  0  0  0
  8 11  2  0  0  0  0
  9 24  1  0  0  0  0
  9 25  1  0  0  0  0
  9 26  1  0  0  0  0
 12 13  1  0  0  0  0
 12 18  1  0  0  0  0
 12 27  1  0  0  0  0
 13 14  1  0  0  0  0
 13 28  1  0  0  0  0
 13 29  1  0  0  0  0
 14 15  1  0  0  0  0
 14 30  1  0  0  0  0
 15 16  1  0  0  0  0
 15 17  1  0  0  0  0
 15 31  1  0  0  0  0
 16 32  1  0  0  0  0
 16 33  1  0  0  0  0
 16 34  1  0  0  0  0
 17 35  1  0  0  0  0
 17 36  1  0  0  0  0
 17 37  1  0  0  0  0
 18 38  1  0  0  0  0
M  END
>  <Mol_ID>
775

>  <Formula>
C12H21ClN2O3S

>  <MolWeight>
308.82474

>  <Cat>
S2509

>  <Name>
Sotalol HCl

>  <Synonyms>
MJ-1999

>  <Target>
Adrenergic Receptor

>  <Form>
Hydrochloride

>  <CAS>
959-24-0

>  <URL>
http://selleckchem.com/products/Sotalol-hydrochloride(Betapace).html

$$$$
