Sotrastaurin£¨AEB071£©.cdx
 OpenBabel08302521313D

 55 60  0  0  0  0  0  0  0  0999 V2000
   -0.0821    0.6862   -0.2054 N   0  0  0  0  0  0  0  0  0  0  0  0
   -1.0792   -0.0272    0.3624 C   0  0  0  0  0  0  0  0  0  0  0  0
   -0.5602   -1.3935    0.5885 C   0  0  0  0  0  0  0  0  0  0  0  0
    0.6780   -1.4336    0.0746 C   0  0  0  0  0  0  0  0  0  0  0  0
    0.9690   -0.1106   -0.4944 C   0  0  0  0  0  0  0  0  0  0  0  0
   -2.2055    0.3719    0.5854 O   0  0  0  0  0  0  0  0  0  0  0  0
    1.9362    0.1884   -1.1692 O   0  0  0  0  0  0  0  0  0  0  0  0
    3.0794   -4.8022   -0.0081 N   0  0  0  0  0  0  0  0  0  0  0  0
    3.1243   -3.9153    0.9943 C   0  0  0  0  0  0  0  0  0  0  0  0
    2.3601   -2.8129    1.0160 N   0  0  0  0  0  0  0  0  0  0  0  0
    1.5488   -2.5990   -0.0420 C   0  0  0  0  0  0  0  0  0  0  0  0
    1.4676   -3.4536   -1.1476 C   0  0  0  0  0  0  0  0  0  0  0  0
    0.6541   -3.2812   -2.2965 C   0  0  0  0  0  0  0  0  0  0  0  0
    0.6076   -4.2542   -3.2906 C   0  0  0  0  0  0  0  0  0  0  0  0
    1.3995   -5.3871   -3.1700 C   0  0  0  0  0  0  0  0  0  0  0  0
    2.2355   -5.5287   -2.0602 C   0  0  0  0  0  0  0  0  0  0  0  0
    2.2745   -4.5817   -1.0459 C   0  0  0  0  0  0  0  0  0  0  0  0
    4.0504   -4.1296    1.9859 N   0  0  0  0  0  0  0  0  0  0  0  0
    4.0762   -3.2767    3.1696 C   0  0  0  0  0  0  0  0  0  0  0  0
    5.5141   -3.2653    3.7478 C   0  0  0  0  0  0  0  0  0  0  0  0
    6.0369   -4.6248    4.0303 N   0  0  0  0  0  0  0  0  0  0  0  0
    5.9624   -5.4416    2.7961 C   0  0  0  0  0  0  0  0  0  0  0  0
    4.5374   -5.4945    2.2020 C   0  0  0  0  0  0  0  0  0  0  0  0
    7.4163   -4.5544    4.5075 C   0  0  0  0  0  0  0  0  0  0  0  0
   -2.0930   -3.8365    2.7105 N   0  0  0  0  0  0  0  0  0  0  0  0
   -1.3247   -2.7171    2.5244 C   0  0  0  0  0  0  0  0  0  0  0  0
   -1.3087   -2.4423    1.1753 C   0  0  0  0  0  0  0  0  0  0  0  0
   -2.1038   -3.4260    0.5159 C   0  0  0  0  0  0  0  0  0  0  0  0
   -2.4696   -3.6792   -0.8225 C   0  0  0  0  0  0  0  0  0  0  0  0
   -3.2229   -4.8165   -1.1327 C   0  0  0  0  0  0  0  0  0  0  0  0
   -3.6429   -5.6828   -0.1274 C   0  0  0  0  0  0  0  0  0  0  0  0
   -3.3297   -5.4362    1.2122 C   0  0  0  0  0  0  0  0  0  0  0  0
   -2.5555   -4.3051    1.5015 C   0  0  0  0  0  0  0  0  0  0  0  0
   -0.1863    1.6276   -0.5417 H   0  0  0  0  0  0  0  0  0  0  0  0
    0.0389   -2.3921   -2.4159 H   0  0  0  0  0  0  0  0  0  0  0  0
   -0.0451   -4.1316   -4.1509 H   0  0  0  0  0  0  0  0  0  0  0  0
    1.3738   -6.1616   -3.9305 H   0  0  0  0  0  0  0  0  0  0  0  0
    2.8673   -6.4107   -1.9774 H   0  0  0  0  0  0  0  0  0  0  0  0
    3.3729   -3.6564    3.9222 H   0  0  0  0  0  0  0  0  0  0  0  0
    3.7985   -2.2409    2.9435 H   0  0  0  0  0  0  0  0  0  0  0  0
    5.5129   -2.6740    4.6706 H   0  0  0  0  0  0  0  0  0  0  0  0
    6.1714   -2.7546    3.0299 H   0  0  0  0  0  0  0  0  0  0  0  0
    6.6424   -5.0374    2.0331 H   0  0  0  0  0  0  0  0  0  0  0  0
    6.2855   -6.4669    3.0124 H   0  0  0  0  0  0  0  0  0  0  0  0
    3.8645   -6.0235    2.8899 H   0  0  0  0  0  0  0  0  0  0  0  0
    4.5904   -6.0839    1.2795 H   0  0  0  0  0  0  0  0  0  0  0  0
    7.7941   -5.5574    4.7353 H   0  0  0  0  0  0  0  0  0  0  0  0
    8.0886   -4.0923    3.7754 H   0  0  0  0  0  0  0  0  0  0  0  0
    7.4697   -3.9778    5.4371 H   0  0  0  0  0  0  0  0  0  0  0  0
   -2.2740   -4.2767    3.6023 H   0  0  0  0  0  0  0  0  0  0  0  0
   -0.8478   -2.2307    3.3651 H   0  0  0  0  0  0  0  0  0  0  0  0
   -2.1666   -3.0064   -1.6169 H   0  0  0  0  0  0  0  0  0  0  0  0
   -3.4792   -5.0251   -2.1683 H   0  0  0  0  0  0  0  0  0  0  0  0
   -4.2275   -6.5625   -0.3872 H   0  0  0  0  0  0  0  0  0  0  0  0
   -3.6662   -6.1096    1.9932 H   0  0  0  0  0  0  0  0  0  0  0  0
  1  2  1  0  0  0  0
  1  5  1  0  0  0  0
  1 34  1  0  0  0  0
  2  3  1  0  0  0  0
  2  6  2  0  0  0  0
  3  4  2  0  0  0  0
  3 27  1  0  0  0  0
  4  5  1  0  0  0  0
  4 11  1  0  0  0  0
  5  7  2  0  0  0  0
  8  9  2  0  0  0  0
  8 17  1  0  0  0  0
  9 10  1  0  0  0  0
  9 18  1  0  0  0  0
 10 11  2  0  0  0  0
 11 12  1  0  0  0  0
 12 13  1  0  0  0  0
 12 17  2  0  0  0  0
 13 14  2  0  0  0  0
 13 35  1  0  0  0  0
 14 15  1  0  0  0  0
 14 36  1  0  0  0  0
 15 16  2  0  0  0  0
 15 37  1  0  0  0  0
 16 17  1  0  0  0  0
 16 38  1  0  0  0  0
 18 19  1  0  0  0  0
 18 23  1  0  0  0  0
 19 20  1  0  0  0  0
 19 39  1  0  0  0  0
 19 40  1  0  0  0  0
 20 21  1  0  0  0  0
 20 41  1  0  0  0  0
 20 42  1  0  0  0  0
 21 22  1  0  0  0  0
 21 24  1  0  0  0  0
 22 23  1  0  0  0  0
 22 43  1  0  0  0  0
 22 44  1  0  0  0  0
 23 45  1  0  0  0  0
 23 46  1  0  0  0  0
 24 47  1  0  0  0  0
 24 48  1  0  0  0  0
 24 49  1  0  0  0  0
 25 26  1  0  0  0  0
 25 33  1  0  0  0  0
 25 50  1  0  0  0  0
 26 27  2  0  0  0  0
 26 51  1  0  0  0  0
 27 28  1  0  0  0  0
 28 29  1  0  0  0  0
 28 33  2  0  0  0  0
 29 30  2  0  0  0  0
 29 52  1  0  0  0  0
 30 31  1  0  0  0  0
 30 53  1  0  0  0  0
 31 32  2  0  0  0  0
 31 54  1  0  0  0  0
 32 33  1  0  0  0  0
 32 55  1  0  0  0  0
M  END
>  <Mol_ID>
572

>  <Formula>
C25H22N6O2

>  <MolWeight>
438.48118

>  <Cat>
S2791

>  <Name>
Sotrastaurin (AEB071)

>  <Synonyms>
AEB071

>  <Target>
PKC

>  <Form>
free base

>  <CAS>
425637-18-9

>  <URL>
http://selleckchem.com/products/sotrastaurin-aeb071.html

$$$$
