sp600125.cdx
 OpenBabel08302519593D

 25 28  0  0  0  0  0  0  0  0999 V2000
    3.8902    0.2092    0.0031 C   0  0  0  0  0  0  0  0  0  0  0  0
    3.6493   -1.1683    0.0030 C   0  0  0  0  0  0  0  0  0  0  0  0
    2.3415   -1.6591   -0.0005 C   0  0  0  0  0  0  0  0  0  0  0  0
    1.2705   -0.7640   -0.0034 C   0  0  0  0  0  0  0  0  0  0  0  0
    1.5111    0.6403   -0.0041 C   0  0  0  0  0  0  0  0  0  0  0  0
    2.8261    1.1145   -0.0009 C   0  0  0  0  0  0  0  0  0  0  0  0
   -0.1115   -1.2096   -0.0014 C   0  0  0  0  0  0  0  0  0  0  0  0
   -1.1215   -0.2462   -0.0019 C   0  0  0  0  0  0  0  0  0  0  0  0
   -1.0204    1.1362   -0.0045 C   0  0  0  0  0  0  0  0  0  0  0  0
    0.3723    1.6495   -0.0049 C   0  0  0  0  0  0  0  0  0  0  0  0
   -2.3269   -0.9062    0.0084 C   0  0  0  0  0  0  0  0  0  0  0  0
   -3.5326   -0.2016    0.0148 C   0  0  0  0  0  0  0  0  0  0  0  0
   -3.4356    1.2089    0.0093 C   0  0  0  0  0  0  0  0  0  0  0  0
   -2.1982    1.8783   -0.0003 C   0  0  0  0  0  0  0  0  0  0  0  0
    0.5801    2.8564   -0.0030 O   0  0  0  0  0  0  0  0  0  0  0  0
   -0.6218   -2.4460    0.0066 N   0  0  0  0  0  0  0  0  0  0  0  0
   -1.9678   -2.2313    0.0136 N   0  0  0  0  0  0  0  0  0  0  0  0
    4.9130    0.5797    0.0071 H   0  0  0  0  0  0  0  0  0  0  0  0
    4.4862   -1.8633    0.0069 H   0  0  0  0  0  0  0  0  0  0  0  0
    2.1627   -2.7320    0.0006 H   0  0  0  0  0  0  0  0  0  0  0  0
    3.0249    2.1842    0.0006 H   0  0  0  0  0  0  0  0  0  0  0  0
   -4.4962   -0.6999    0.0254 H   0  0  0  0  0  0  0  0  0  0  0  0
   -4.3516    1.7992    0.0147 H   0  0  0  0  0  0  0  0  0  0  0  0
   -2.1563    2.9646   -0.0021 H   0  0  0  0  0  0  0  0  0  0  0  0
   -2.5807   -3.0389    0.0251 H   0  0  0  0  0  0  0  0  0  0  0  0
  1  2  2  0  0  0  0
  1 18  1  0  0  0  0
  2  3  1  0  0  0  0
  2 19  1  0  0  0  0
  3  4  2  0  0  0  0
  3 20  1  0  0  0  0
  4  5  1  0  0  0  0
  4  7  1  0  0  0  0
  5  6  2  0  0  0  0
  6  1  1  0  0  0  0
  6 21  1  0  0  0  0
  7  8  1  0  0  0  0
  7 16  2  0  0  0  0
  8  9  2  0  0  0  0
  8 11  1  0  0  0  0
  9 10  1  0  0  0  0
 10  5  1  0  0  0  0
 10 15  2  0  0  0  0
 11 12  2  0  0  0  0
 12 13  1  0  0  0  0
 12 22  1  0  0  0  0
 13 14  2  0  0  0  0
 13 23  1  0  0  0  0
 14  9  1  0  0  0  0
 14 24  1  0  0  0  0
 16 17  1  0  0  0  0
 17 11  1  0  0  0  0
 17 25  1  0  0  0  0
M  END
>  <Mol_ID>
269

>  <Formula>
C14H8N2O

>  <MolWeight>
220.22612

>  <Cat>
S1460

>  <Name>
SP600125

>  <Synonyms>
Nsc75890

>  <Target>
Apoptosis related,Aurora Kinase,Autophagy,FLT3,JNK,Serine/threonin kinase,Trk receptor

>  <Form>
free base

>  <CAS>
129-56-6

>  <URL>
http://selleckchem.com/products/SP600125.html

$$$$
