Spastazoline
 OpenBabel08302521353D

 58 61  0  0  0  0  0  0  0  0999 V2000
   -1.4988    0.0536    0.2775 N   0  0  0  0  0  0  0  0  0  0  0  0
    0.5148   -1.0032   -1.5009 N   0  0  0  0  0  0  0  0  0  0  0  0
   -2.7209   -0.4514    2.2087 N   0  0  0  0  0  0  0  0  0  0  0  0
   -3.7101    0.7498    0.4075 N   0  0  0  0  0  0  0  0  0  0  0  0
   -3.7873   -0.9835    4.2454 N   0  0  0  0  0  0  0  0  0  0  0  0
   -5.7367    0.3707    6.7182 N   0  0  0  0  0  0  0  0  0  0  0  0
   -5.9984    1.3177    0.7636 N   0  0  0  0  0  0  0  0  0  0  0  0
   -5.0043    0.5552    5.6180 N   0  0  0  0  0  0  0  0  0  0  0  0
   -0.7164   -0.3631   -2.0418 C   0  0  1  0  0  0  0  0  0  0  0  0
   -1.3447    0.6659   -1.0464 C   0  0  0  0  0  0  0  0  0  0  0  0
   -0.4522    0.2325   -3.4562 C   0  0  0  0  0  0  0  0  0  0  0  0
   -0.3365   -0.6272    0.8325 C   0  0  0  0  0  0  0  0  0  0  0  0
    0.1974   -1.6349   -0.2031 C   0  0  0  0  0  0  0  0  0  0  0  0
    0.6332    1.3149   -3.5082 C   0  0  0  0  0  0  0  0  0  0  0  0
   -0.0990   -0.8805   -4.4547 C   0  0  0  0  0  0  0  0  0  0  0  0
   -2.6751    0.1219    0.9826 C   0  0  0  0  0  0  0  0  0  0  0  0
   -6.6301   -1.3813    8.3066 C   0  0  0  0  0  0  0  0  0  0  0  0
   -5.7528   -0.9240    7.1628 C   0  0  0  0  0  0  0  0  0  0  0  0
   -3.8422   -0.3840    2.9769 C   0  0  0  0  0  0  0  0  0  0  0  0
   -4.8147    0.7575    1.1548 C   0  0  0  0  0  0  0  0  0  0  0  0
   -4.9765    0.2231    2.4132 C   0  0  0  0  0  0  0  0  0  0  0  0
   -8.1131   -1.1533    7.9454 C   0  0  0  0  0  0  0  0  0  0  0  0
   -6.4243   -2.8806    8.5876 C   0  0  0  0  0  0  0  0  0  0  0  0
   -6.2954   -0.5968    9.5865 C   0  0  0  0  0  0  0  0  0  0  0  0
   -4.8794   -1.5910    6.3197 C   0  0  0  0  0  0  0  0  0  0  0  0
   -4.5093   -0.6495    5.3328 C   0  0  0  0  0  0  0  0  0  0  0  0
   -6.3392    0.4540    2.7726 C   0  0  0  0  0  0  0  0  0  0  0  0
   -6.9413    1.1375    1.7393 C   0  0  0  0  0  0  0  0  0  0  0  0
    1.1952   -0.2653   -1.3197 H   0  0  0  0  0  0  0  0  0  0  0  0
   -2.8776   -1.4072    4.3737 H   0  0  0  0  0  0  0  0  0  0  0  0
   -6.2419    1.1692    7.0866 H   0  0  0  0  0  0  0  0  0  0  0  0
   -6.1284    1.7864   -0.1213 H   0  0  0  0  0  0  0  0  0  0  0  0
   -1.4622   -1.1606   -2.1756 H   0  0  0  0  0  0  0  0  0  0  0  0
   -2.2941    1.0145   -1.4692 H   0  0  0  0  0  0  0  0  0  0  0  0
   -0.6993    1.5463   -0.9457 H   0  0  0  0  0  0  0  0  0  0  0  0
   -1.3868    0.6903   -3.8074 H   0  0  0  0  0  0  0  0  0  0  0  0
    0.4354    0.1185    1.0605 H   0  0  0  0  0  0  0  0  0  0  0  0
   -0.5367   -1.1675    1.7639 H   0  0  0  0  0  0  0  0  0  0  0  0
   -0.5383   -2.4339   -0.3596 H   0  0  0  0  0  0  0  0  0  0  0  0
    1.1037   -2.1089    0.1870 H   0  0  0  0  0  0  0  0  0  0  0  0
    1.5723    0.9841   -3.0542 H   0  0  0  0  0  0  0  0  0  0  0  0
    0.8590    1.5844   -4.5470 H   0  0  0  0  0  0  0  0  0  0  0  0
    0.3080    2.2270   -2.9997 H   0  0  0  0  0  0  0  0  0  0  0  0
   -0.8419   -1.6845   -4.4242 H   0  0  0  0  0  0  0  0  0  0  0  0
   -0.0795   -0.4892   -5.4778 H   0  0  0  0  0  0  0  0  0  0  0  0
    0.8845   -1.3147   -4.2461 H   0  0  0  0  0  0  0  0  0  0  0  0
   -8.4041   -1.7392    7.0644 H   0  0  0  0  0  0  0  0  0  0  0  0
   -8.7725   -1.4464    8.7714 H   0  0  0  0  0  0  0  0  0  0  0  0
   -8.3222   -0.1012    7.7187 H   0  0  0  0  0  0  0  0  0  0  0  0
   -5.3808   -3.0980    8.8442 H   0  0  0  0  0  0  0  0  0  0  0  0
   -7.0477   -3.2183    9.4237 H   0  0  0  0  0  0  0  0  0  0  0  0
   -6.6842   -3.4931    7.7158 H   0  0  0  0  0  0  0  0  0  0  0  0
   -5.2519   -0.7530    9.8831 H   0  0  0  0  0  0  0  0  0  0  0  0
   -6.4445    0.4811    9.4557 H   0  0  0  0  0  0  0  0  0  0  0  0
   -6.9317   -0.9165   10.4203 H   0  0  0  0  0  0  0  0  0  0  0  0
   -4.6347   -2.6429    6.3429 H   0  0  0  0  0  0  0  0  0  0  0  0
   -6.8202    0.1621    3.6969 H   0  0  0  0  0  0  0  0  0  0  0  0
   -7.9504    1.5114    1.6185 H   0  0  0  0  0  0  0  0  0  0  0  0
  1 10  1  0  0  0  0
  1 12  1  0  0  0  0
  1 16  1  0  0  0  0
  2  9  1  0  0  0  0
  2 13  1  0  0  0  0
  2 29  1  0  0  0  0
  3 16  2  0  0  0  0
  3 19  1  0  0  0  0
  4 16  1  0  0  0  0
  4 20  2  0  0  0  0
  5 19  1  0  0  0  0
  5 26  1  0  0  0  0
  5 30  1  0  0  0  0
  6  8  1  0  0  0  0
  6 18  1  0  0  0  0
  6 31  1  0  0  0  0
  7 20  1  0  0  0  0
  7 28  1  0  0  0  0
  7 32  1  0  0  0  0
  8 26  2  0  0  0  0
  9 10  1  0  0  0  0
  9 33  1  6  0  0  0
  9 11  1  0  0  0  0
 10 34  1  0  0  0  0
 10 35  1  0  0  0  0
 11 14  1  0  0  0  0
 11 15  1  0  0  0  0
 11 36  1  0  0  0  0
 12 13  1  0  0  0  0
 12 37  1  0  0  0  0
 12 38  1  0  0  0  0
 13 39  1  0  0  0  0
 13 40  1  0  0  0  0
 14 41  1  0  0  0  0
 14 42  1  0  0  0  0
 14 43  1  0  0  0  0
 15 44  1  0  0  0  0
 15 45  1  0  0  0  0
 15 46  1  0  0  0  0
 17 18  1  0  0  0  0
 17 22  1  0  0  0  0
 17 23  1  0  0  0  0
 17 24  1  0  0  0  0
 18 25  2  0  0  0  0
 19 21  2  0  0  0  0
 20 21  1  0  0  0  0
 21 27  1  0  0  0  0
 22 47  1  0  0  0  0
 22 48  1  0  0  0  0
 22 49  1  0  0  0  0
 23 50  1  0  0  0  0
 23 51  1  0  0  0  0
 23 52  1  0  0  0  0
 24 53  1  0  0  0  0
 24 54  1  0  0  0  0
 24 55  1  0  0  0  0
 25 26  1  0  0  0  0
 25 56  1  0  0  0  0
 27 28  2  0  0  0  0
 27 57  1  0  0  0  0
 28 58  1  0  0  0  0
M  END
>  <Mol_ID>
6640

>  <Formula>
C20H30N8

>  <MolWeight>
382.5058

>  <Cat>
S0801

>  <Name>
Spastazoline

>  <Synonyms>
N/A

>  <Target>
Others

>  <Form>
Free base

>  <CAS>
2351882-11-4

>  <URL>
http://www.selleckchem.com/products/spastazoline.html

$$$$
