Spautin-1.cdx
 OpenBabel08302519593D

 31 33  0  0  0  0  0  0  0  0999 V2000
   -2.3658   -0.3857    1.5014 C   0  0  0  0  0  0  0  0  0  0  0  0
   -2.3517    0.9373    1.1107 C   0  0  0  0  0  0  0  0  0  0  0  0
   -1.1932    1.4549    0.5312 C   0  0  0  0  0  0  0  0  0  0  0  0
   -0.0784    0.6615    0.2728 C   0  0  0  0  0  0  0  0  0  0  0  0
   -0.1240   -0.7119    0.5852 C   0  0  0  0  0  0  0  0  0  0  0  0
   -1.2608   -1.1967    1.2788 C   0  0  0  0  0  0  0  0  0  0  0  0
    0.9885    1.2530   -0.2616 N   0  0  0  0  0  0  0  0  0  0  0  0
    2.0378    0.4700   -0.5175 C   0  0  0  0  0  0  0  0  0  0  0  0
    2.0855   -0.8551   -0.3527 N   0  0  0  0  0  0  0  0  0  0  0  0
    1.0007   -1.4531    0.1710 C   0  0  0  0  0  0  0  0  0  0  0  0
    1.1646   -2.8181    0.2395 N   0  0  0  0  0  0  0  0  0  0  0  0
   -3.4496   -0.8963    2.0969 F   0  0  0  0  0  0  0  0  0  0  0  0
    0.1576   -3.8420    0.0496 C   0  0  0  0  0  0  0  0  0  0  0  0
   -0.1627   -4.2255   -1.3800 C   0  0  0  0  0  0  0  0  0  0  0  0
   -0.5629   -5.5569   -1.6235 C   0  0  0  0  0  0  0  0  0  0  0  0
   -1.0013   -5.9595   -2.8846 C   0  0  0  0  0  0  0  0  0  0  0  0
   -1.0525   -5.0321   -3.9139 C   0  0  0  0  0  0  0  0  0  0  0  0
   -0.6718   -3.7120   -3.7026 C   0  0  0  0  0  0  0  0  0  0  0  0
   -0.2318   -3.3066   -2.4370 C   0  0  0  0  0  0  0  0  0  0  0  0
   -1.4909   -5.4108   -5.1217 F   0  0  0  0  0  0  0  0  0  0  0  0
   -3.2206    1.5629    1.2779 H   0  0  0  0  0  0  0  0  0  0  0  0
   -1.1597    2.5097    0.2639 H   0  0  0  0  0  0  0  0  0  0  0  0
   -1.3007   -2.1973    1.6849 H   0  0  0  0  0  0  0  0  0  0  0  0
    2.9287    0.9514   -0.9029 H   0  0  0  0  0  0  0  0  0  0  0  0
    2.0500   -3.0374   -0.2140 H   0  0  0  0  0  0  0  0  0  0  0  0
    0.5477   -4.7315    0.5561 H   0  0  0  0  0  0  0  0  0  0  0  0
   -0.7904   -3.6304    0.5389 H   0  0  0  0  0  0  0  0  0  0  0  0
   -0.5571   -6.2870   -0.8160 H   0  0  0  0  0  0  0  0  0  0  0  0
   -1.3200   -6.9813   -3.0618 H   0  0  0  0  0  0  0  0  0  0  0  0
   -0.7343   -3.0015   -4.5211 H   0  0  0  0  0  0  0  0  0  0  0  0
    0.0326   -2.2624   -2.2906 H   0  0  0  0  0  0  0  0  0  0  0  0
  1  2  2  0  0  0  0
  1 12  1  0  0  0  0
  2  3  1  0  0  0  0
  2 21  1  0  0  0  0
  3  4  2  0  0  0  0
  3 22  1  0  0  0  0
  4  5  1  0  0  0  0
  4  7  1  0  0  0  0
  5  6  2  0  0  0  0
  6  1  1  0  0  0  0
  6 23  1  0  0  0  0
  7  8  2  0  0  0  0
  8  9  1  0  0  0  0
  8 24  1  0  0  0  0
  9 10  2  0  0  0  0
 10  5  1  0  0  0  0
 10 11  1  0  0  0  0
 11 13  1  0  0  0  0
 11 25  1  0  0  0  0
 13 14  1  0  0  0  0
 13 26  1  0  0  0  0
 13 27  1  0  0  0  0
 14 15  2  0  0  0  0
 15 16  1  0  0  0  0
 15 28  1  0  0  0  0
 16 17  2  0  0  0  0
 16 29  1  0  0  0  0
 17 18  1  0  0  0  0
 17 20  1  0  0  0  0
 18 19  2  0  0  0  0
 18 30  1  0  0  0  0
 19 14  1  0  0  0  0
 19 31  1  0  0  0  0
M  END
>  <Mol_ID>
2622

>  <Formula>
C15H11F2N3

>  <MolWeight>
271.2647464

>  <Cat>
S7888

>  <Name>
Spautin-1

>  <Synonyms>
N/A

>  <Target>
Apoptosis related,Autophagy,DUB

>  <Form>
free base

>  <CAS>
1262888-28-7

>  <URL>
http://selleckchem.com/products/spautin-1.html

$$$$
