Spectinomycin  HCl.cdx
 OpenBabel08302521393D

 47 49  0  0  0  0  0  0  0  0999 V2000
    2.5167   -0.5917   -0.2444 C   0  0  2  0  0  0  0  0  0  0  0  0
    2.2595    0.8292    0.3331 C   0  0  1  0  0  0  0  0  0  0  0  0
    0.8529    1.4360   -0.0144 C   0  0  1  0  0  0  0  0  0  0  0  0
   -0.2637    0.4130    0.3891 C   0  0  2  0  0  0  0  0  0  0  0  0
    0.0016   -0.8518   -0.4695 C   0  0  1  0  0  0  0  0  0  0  0  0
    1.3026   -1.5198   -0.0086 C   0  0  1  0  0  0  0  0  0  0  0  0
   -1.6210    0.8986    0.2208 O   0  0  0  0  0  0  0  0  0  0  0  0
   -2.5724   -0.1556    0.4353 C   0  0  2  0  0  0  0  0  0  0  0  0
   -2.3135   -1.2628   -0.6104 C   0  0  2  0  0  0  0  0  0  0  0  0
   -1.0272   -1.8459   -0.3864 O   0  0  0  0  0  0  0  0  0  0  0  0
   -4.0754    0.1766    0.2243 C   0  0  0  0  0  0  0  0  0  0  0  0
   -4.6775   -0.1477   -1.1286 C   0  0  0  0  0  0  0  0  0  0  0  0
   -3.6030    0.0573   -2.1890 C   0  0  2  0  0  0  0  0  0  0  0  0
   -2.4252   -0.7335   -1.9472 O   0  0  0  0  0  0  0  0  0  0  0  0
   -4.7822    0.5699    1.1548 O   0  0  0  0  0  0  0  0  0  0  0  0
   -2.4534   -0.6392    1.7761 O   0  0  0  0  0  0  0  0  0  0  0  0
    0.8390    2.7701    0.6076 N   0  0  0  0  0  0  0  0  0  0  0  0
    2.4502    0.8340    1.7694 O   0  0  0  0  0  0  0  0  0  0  0  0
    3.7271   -1.2340    0.3289 N   0  0  0  0  0  0  0  0  0  0  0  0
    1.4539   -2.7526   -0.7282 O   0  0  0  0  0  0  0  0  0  0  0  0
   -3.2746    1.5497   -2.3355 C   0  0  0  0  0  0  0  0  0  0  0  0
    4.9635   -0.5522   -0.0251 C   0  0  0  0  0  0  0  0  0  0  0  0
   -0.3155    3.5929    0.3350 C   0  0  0  0  0  0  0  0  0  0  0  0
    2.6537   -0.5166   -1.3320 H   0  0  0  0  0  0  0  0  0  0  0  0
    3.0273    1.5027   -0.0695 H   0  0  0  0  0  0  0  0  0  0  0  0
    0.8060    1.5858   -1.1022 H   0  0  0  0  0  0  0  0  0  0  0  0
   -0.1590    0.1818    1.4559 H   0  0  0  0  0  0  0  0  0  0  0  0
    0.0840   -0.5886   -1.5325 H   0  0  0  0  0  0  0  0  0  0  0  0
    1.2204   -1.7918    1.0527 H   0  0  0  0  0  0  0  0  0  0  0  0
   -3.0190   -2.0945   -0.5038 H   0  0  0  0  0  0  0  0  0  0  0  0
   -5.5492    0.4841   -1.3155 H   0  0  0  0  0  0  0  0  0  0  0  0
   -5.0030   -1.1941   -1.1167 H   0  0  0  0  0  0  0  0  0  0  0  0
   -3.9856   -0.2784   -3.1592 H   0  0  0  0  0  0  0  0  0  0  0  0
   -3.0602   -0.0783    2.3000 H   0  0  0  0  0  0  0  0  0  0  0  0
    1.0441    2.7026    1.6054 H   0  0  0  0  0  0  0  0  0  0  0  0
    1.9367    0.1130    2.1637 H   0  0  0  0  0  0  0  0  0  0  0  0
    3.6524   -1.2539    1.3453 H   0  0  0  0  0  0  0  0  0  0  0  0
    0.5865   -3.1984   -0.6606 H   0  0  0  0  0  0  0  0  0  0  0  0
   -2.3409    1.7089   -2.8802 H   0  0  0  0  0  0  0  0  0  0  0  0
   -4.0896    2.0643   -2.8583 H   0  0  0  0  0  0  0  0  0  0  0  0
   -3.1718    2.0535   -1.3684 H   0  0  0  0  0  0  0  0  0  0  0  0
    5.0405    0.4269    0.4567 H   0  0  0  0  0  0  0  0  0  0  0  0
    5.8133   -1.1518    0.3172 H   0  0  0  0  0  0  0  0  0  0  0  0
    5.0615   -0.4325   -1.1080 H   0  0  0  0  0  0  0  0  0  0  0  0
   -1.1964    3.2602    0.8857 H   0  0  0  0  0  0  0  0  0  0  0  0
   -0.0987    4.6179    0.6542 H   0  0  0  0  0  0  0  0  0  0  0  0
   -0.5408    3.6324   -0.7350 H   0  0  0  0  0  0  0  0  0  0  0  0
  1  2  1  0  0  0  0
  1 19  1  0  0  0  0
  1 24  1  6  0  0  0
  2  3  1  0  0  0  0
  2 18  1  0  0  0  0
  2 25  1  6  0  0  0
  3  4  1  0  0  0  0
  3 17  1  0  0  0  0
  3 26  1  6  0  0  0
  4  5  1  0  0  0  0
  4  7  1  0  0  0  0
  4 27  1  1  0  0  0
  5  6  1  0  0  0  0
  5 10  1  0  0  0  0
  5 28  1  6  0  0  0
  6  1  1  0  0  0  0
  6 29  1  1  0  0  0
  6 20  1  0  0  0  0
  7  8  1  0  0  0  0
  8  9  1  0  0  0  0
  8 11  1  0  0  0  0
  8 16  1  1  0  0  0
  9 10  1  0  0  0  0
  9 30  1  1  0  0  0
 11 12  1  0  0  0  0
 11 15  2  0  0  0  0
 12 13  1  0  0  0  0
 12 31  1  0  0  0  0
 12 32  1  0  0  0  0
 13 14  1  0  0  0  0
 13 21  1  0  0  0  0
 13 33  1  6  0  0  0
 14  9  1  0  0  0  0
 16 34  1  0  0  0  0
 17 23  1  0  0  0  0
 17 35  1  0  0  0  0
 18 36  1  0  0  0  0
 19 22  1  0  0  0  0
 19 37  1  0  0  0  0
 20 38  1  0  0  0  0
 21 39  1  0  0  0  0
 21 40  1  0  0  0  0
 21 41  1  0  0  0  0
 22 42  1  0  0  0  0
 22 43  1  0  0  0  0
 22 44  1  0  0  0  0
 23 45  1  0  0  0  0
 23 46  1  0  0  0  0
 23 47  1  0  0  0  0
M  END
>  <Mol_ID>
776

>  <Formula>
C14H26Cl2N2O7

>  <MolWeight>
405.27144

>  <Cat>
S2510

>  <Name>
Spectinomycin 2HCl

>  <Synonyms>
Actinospectacin

>  <Target>
Antibiotics,Antibiotics for Mammalian Cell Culture,Selection Antibiotics for Transfected Cell

>  <Form>
dihydrochloride

>  <CAS>
21736-83-4

>  <URL>
http://selleckchem.com/products/Spectinomycin-hydrochloride.html

$$$$
