Spermidine
 OpenBabel08302521303D

 29 28  0  0  0  0  0  0  0  0999 V2000
    1.0824    0.0057   -0.1482 N   0  0  0  0  0  0  0  0  0  0  0  0
   -0.7066   -0.9693   -4.6518 N   0  0  0  0  0  0  0  0  0  0  0  0
    3.2546   -2.5374    2.7671 N   0  0  0  0  0  0  0  0  0  0  0  0
    0.8616    1.4863   -2.1591 C   0  0  0  0  0  0  0  0  0  0  0  0
    0.3625    1.1288   -0.7539 C   0  0  0  0  0  0  0  0  0  0  0  0
    0.7417    0.4037   -3.2377 C   0  0  0  0  0  0  0  0  0  0  0  0
    0.6135   -0.2244    1.2237 C   0  0  0  0  0  0  0  0  0  0  0  0
    1.2381   -1.4635    1.8762 C   0  0  0  0  0  0  0  0  0  0  0  0
   -0.6930   -0.0292   -3.5330 C   0  0  0  0  0  0  0  0  0  0  0  0
    2.7476   -1.3472    2.0815 C   0  0  0  0  0  0  0  0  0  0  0  0
    0.9352   -0.8386   -0.7024 H   0  0  0  0  0  0  0  0  0  0  0  0
   -1.6696   -1.1828   -4.9089 H   0  0  0  0  0  0  0  0  0  0  0  0
   -0.2823   -0.5342   -5.4736 H   0  0  0  0  0  0  0  0  0  0  0  0
    4.2617   -2.4450    2.8961 H   0  0  0  0  0  0  0  0  0  0  0  0
    2.8515   -2.5943    3.7016 H   0  0  0  0  0  0  0  0  0  0  0  0
    0.3111    2.3740   -2.4969 H   0  0  0  0  0  0  0  0  0  0  0  0
    1.9140    1.7886   -2.0956 H   0  0  0  0  0  0  0  0  0  0  0  0
   -0.7126    0.9227   -0.7840 H   0  0  0  0  0  0  0  0  0  0  0  0
    0.5038    2.0187   -0.1261 H   0  0  0  0  0  0  0  0  0  0  0  0
    1.1839    0.8113   -4.1578 H   0  0  0  0  0  0  0  0  0  0  0  0
    1.3497   -0.4675   -2.9655 H   0  0  0  0  0  0  0  0  0  0  0  0
    0.8346    0.6534    1.8429 H   0  0  0  0  0  0  0  0  0  0  0  0
   -0.4747   -0.3603    1.2230 H   0  0  0  0  0  0  0  0  0  0  0  0
    0.7525   -1.6114    2.8516 H   0  0  0  0  0  0  0  0  0  0  0  0
    1.0084   -2.3518    1.2762 H   0  0  0  0  0  0  0  0  0  0  0  0
   -1.1379   -0.5168   -2.6603 H   0  0  0  0  0  0  0  0  0  0  0  0
   -1.3109    0.8406   -3.7866 H   0  0  0  0  0  0  0  0  0  0  0  0
    3.2604   -1.2507    1.1199 H   0  0  0  0  0  0  0  0  0  0  0  0
    2.9848   -0.4619    2.6811 H   0  0  0  0  0  0  0  0  0  0  0  0
  1  5  1  0  0  0  0
  1  7  1  0  0  0  0
  1 11  1  0  0  0  0
  2  9  1  0  0  0  0
  2 12  1  0  0  0  0
  2 13  1  0  0  0  0
  3 10  1  0  0  0  0
  3 14  1  0  0  0  0
  3 15  1  0  0  0  0
  4  5  1  0  0  0  0
  4  6  1  0  0  0  0
  4 16  1  0  0  0  0
  4 17  1  0  0  0  0
  5 18  1  0  0  0  0
  5 19  1  0  0  0  0
  6  9  1  0  0  0  0
  6 20  1  0  0  0  0
  6 21  1  0  0  0  0
  7  8  1  0  0  0  0
  7 22  1  0  0  0  0
  7 23  1  0  0  0  0
  8 10  1  0  0  0  0
  8 24  1  0  0  0  0
  8 25  1  0  0  0  0
  9 26  1  0  0  0  0
  9 27  1  0  0  0  0
 10 28  1  0  0  0  0
 10 29  1  0  0  0  0
M  END
>  <Mol_ID>
5689

>  <Formula>
C7H19N3

>  <MolWeight>
145.24586

>  <Cat>
S3569

>  <Name>
Spermidine

>  <Synonyms>
N/A

>  <Target>
Autophagy

>  <Form>
Free Base

>  <CAS>
124-20-9

>  <URL>
http://www.selleckchem.com/products/spermidine.html

$$$$
