Splitomicin.cdx
 OpenBabel08302519583D

 25 27  0  0  0  0  0  0  0  0999 V2000
    2.5568    0.1014   -1.0644 C   0  0  0  0  0  0  0  0  0  0  0  0
    2.0363    1.2708   -1.6103 C   0  0  0  0  0  0  0  0  0  0  0  0
    0.9503    1.8754   -0.9757 C   0  0  0  0  0  0  0  0  0  0  0  0
    0.1976    1.1330   -0.0708 C   0  0  0  0  0  0  0  0  0  0  0  0
    0.7389   -0.0749    0.4159 C   0  0  0  0  0  0  0  0  0  0  0  0
    2.1016   -0.3155    0.1735 C   0  0  0  0  0  0  0  0  0  0  0  0
   -1.1369    1.4611    0.1533 C   0  0  0  0  0  0  0  0  0  0  0  0
   -2.0203    0.4641    0.5523 C   0  0  0  0  0  0  0  0  0  0  0  0
   -1.5400   -0.8150    0.8351 C   0  0  0  0  0  0  0  0  0  0  0  0
   -0.1610   -1.0664    0.8459 C   0  0  0  0  0  0  0  0  0  0  0  0
    3.1643    0.0474    1.2399 C   0  0  0  0  0  0  0  0  0  0  0  0
    4.4980    0.4262    0.5642 C   0  0  0  0  0  0  0  0  0  0  0  0
    4.7592   -0.4618   -0.6285 C   0  0  0  0  0  0  0  0  0  0  0  0
    3.7445   -0.4214   -1.5739 O   0  0  0  0  0  0  0  0  0  0  0  0
    5.7909   -1.1017   -0.7813 O   0  0  0  0  0  0  0  0  0  0  0  0
    2.5246    1.7439   -2.4477 H   0  0  0  0  0  0  0  0  0  0  0  0
    0.5988    2.8361   -1.3409 H   0  0  0  0  0  0  0  0  0  0  0  0
   -1.5262    2.4353   -0.1354 H   0  0  0  0  0  0  0  0  0  0  0  0
   -3.0881    0.6624    0.5461 H   0  0  0  0  0  0  0  0  0  0  0  0
   -2.2462   -1.6250    1.0015 H   0  0  0  0  0  0  0  0  0  0  0  0
    0.1867   -2.0763    1.0492 H   0  0  0  0  0  0  0  0  0  0  0  0
    2.8273    0.9425    1.7851 H   0  0  0  0  0  0  0  0  0  0  0  0
    3.2998   -0.7609    1.9630 H   0  0  0  0  0  0  0  0  0  0  0  0
    5.3368    0.3917    1.2620 H   0  0  0  0  0  0  0  0  0  0  0  0
    4.4704    1.4546    0.1730 H   0  0  0  0  0  0  0  0  0  0  0  0
  1  2  2  0  0  0  0
  2  3  1  0  0  0  0
  2 16  1  0  0  0  0
  3  4  2  0  0  0  0
  3 17  1  0  0  0  0
  4  5  1  0  0  0  0
  4  7  1  0  0  0  0
  5  6  2  0  0  0  0
  6  1  1  0  0  0  0
  6 11  1  0  0  0  0
  7  8  2  0  0  0  0
  7 18  1  0  0  0  0
  8  9  1  0  0  0  0
  8 19  1  0  0  0  0
  9 10  2  0  0  0  0
  9 20  1  0  0  0  0
 10  5  1  0  0  0  0
 10 21  1  0  0  0  0
 11 12  1  0  0  0  0
 11 22  1  0  0  0  0
 11 23  1  0  0  0  0
 12 13  1  0  0  0  0
 12 24  1  0  0  0  0
 12 25  1  0  0  0  0
 13 14  1  0  0  0  0
 13 15  2  0  0  0  0
 14  1  1  0  0  0  0
M  END
>  <Mol_ID>
2480

>  <Formula>
C13H10O2

>  <MolWeight>
198.2173

>  <Cat>
S7593

>  <Name>
Splitomicin

>  <Synonyms>
N/A

>  <Target>
HDAC

>  <Form>
free base

>  <CAS>
5690-03-9

>  <URL>
http://selleckchem.com/products/splitomicin.html

$$$$
