SPP-86
 OpenBabel08302521353D

 36 38  0  0  0  0  0  0  0  0999 V2000
   -1.9328    0.5876   -0.0213 C   0  0  0  0  0  0  0  0  0  0  0  0
   -0.8095    1.3235   -0.0325 N   0  0  0  0  0  0  0  0  0  0  0  0
    0.2868    0.5441   -0.0027 C   0  0  0  0  0  0  0  0  0  0  0  0
    0.3103   -0.8392    0.0400 C   0  0  0  0  0  0  0  0  0  0  0  0
   -0.9213   -1.4993    0.0632 C   0  0  0  0  0  0  0  0  0  0  0  0
   -2.0479   -0.7579    0.0171 N   0  0  0  0  0  0  0  0  0  0  0  0
    2.4791   -0.0855    0.0227 N   0  0  0  0  0  0  0  0  0  0  0  0
    1.5981    0.9498    0.0030 N   0  0  0  0  0  0  0  0  0  0  0  0
    1.6820   -1.1615    0.0553 C   0  0  0  0  0  0  0  0  0  0  0  0
   -1.0703   -2.8718    0.1494 N   0  0  0  0  0  0  0  0  0  0  0  0
    2.2647   -2.4624    0.0758 C   0  0  0  0  0  0  0  0  0  0  0  0
    2.6821   -3.5922    0.0590 C   0  0  0  0  0  0  0  0  0  0  0  0
    3.1413   -4.9480   -0.0084 C   0  0  0  0  0  0  0  0  0  0  0  0
    4.4539   -5.2138   -0.4065 C   0  0  0  0  0  0  0  0  0  0  0  0
    4.9010   -6.5331   -0.5237 C   0  0  0  0  0  0  0  0  0  0  0  0
    4.0401   -7.5918   -0.2389 C   0  0  0  0  0  0  0  0  0  0  0  0
    2.7335   -7.3321    0.1723 C   0  0  0  0  0  0  0  0  0  0  0  0
    2.2832   -6.0136    0.2880 C   0  0  0  0  0  0  0  0  0  0  0  0
    2.0666    2.3320   -0.0007 C   0  0  0  0  0  0  0  0  0  0  0  0
    2.8987    2.6540    1.2403 C   0  0  0  0  0  0  0  0  0  0  0  0
    2.8278    2.6711   -1.2815 C   0  0  0  0  0  0  0  0  0  0  0  0
   -2.8669    1.1401   -0.0412 H   0  0  0  0  0  0  0  0  0  0  0  0
   -0.2902   -3.4511   -0.1251 H   0  0  0  0  0  0  0  0  0  0  0  0
   -2.0027   -3.1874   -0.0865 H   0  0  0  0  0  0  0  0  0  0  0  0
    5.1345   -4.3967   -0.6349 H   0  0  0  0  0  0  0  0  0  0  0  0
    5.9218   -6.7332   -0.8425 H   0  0  0  0  0  0  0  0  0  0  0  0
    4.3878   -8.6176   -0.3371 H   0  0  0  0  0  0  0  0  0  0  0  0
    2.0633   -8.1582    0.3988 H   0  0  0  0  0  0  0  0  0  0  0  0
    1.2609   -5.8282    0.6061 H   0  0  0  0  0  0  0  0  0  0  0  0
    1.1735    2.9681    0.0300 H   0  0  0  0  0  0  0  0  0  0  0  0
    3.8104    2.0487    1.2858 H   0  0  0  0  0  0  0  0  0  0  0  0
    3.1948    3.7087    1.2440 H   0  0  0  0  0  0  0  0  0  0  0  0
    2.3247    2.4639    2.1537 H   0  0  0  0  0  0  0  0  0  0  0  0
    2.2027    2.4978   -2.1642 H   0  0  0  0  0  0  0  0  0  0  0  0
    3.1262    3.7254   -1.2850 H   0  0  0  0  0  0  0  0  0  0  0  0
    3.7333    2.0645   -1.3878 H   0  0  0  0  0  0  0  0  0  0  0  0
  1  2  2  0  0  0  0
  1  6  1  0  0  0  0
  1 22  1  0  0  0  0
  2  3  1  0  0  0  0
  3  4  2  0  0  0  0
  4  5  1  0  0  0  0
  5  6  2  0  0  0  0
  5 10  1  0  0  0  0
  7  8  1  0  0  0  0
  7  9  2  0  0  0  0
  8  3  1  0  0  0  0
  8 19  1  0  0  0  0
  9  4  1  0  0  0  0
  9 11  1  0  0  0  0
 10 23  1  0  0  0  0
 10 24  1  0  0  0  0
 11 12  3  0  0  0  0
 12 13  1  0  0  0  0
 13 14  2  0  0  0  0
 13 18  1  0  0  0  0
 14 15  1  0  0  0  0
 14 25  1  0  0  0  0
 15 16  2  0  0  0  0
 15 26  1  0  0  0  0
 16 17  1  0  0  0  0
 16 27  1  0  0  0  0
 17 18  2  0  0  0  0
 17 28  1  0  0  0  0
 18 29  1  0  0  0  0
 19 20  1  0  0  0  0
 19 21  1  0  0  0  0
 19 30  1  0  0  0  0
 20 31  1  0  0  0  0
 20 32  1  0  0  0  0
 20 33  1  0  0  0  0
 21 34  1  0  0  0  0
 21 35  1  0  0  0  0
 21 36  1  0  0  0  0
M  END
>  <Mol_ID>
6853

>  <Formula>
C16H15N5

>  <MolWeight>
277.3238

>  <Cat>
E2401

>  <Name>
SPP-86

>  <Target>
Akt,Estrogen/progestogen Receptor,PI3K

>  <Form>
Free base

>  <CAS>
1357349-91-7

>  <URL>
http://www.selleckchem.com/products/spp-86.html

$$$$
