SQ109
 OpenBabel08302521323D

 62 64  0  0  0  0  0  0  0  0999 V2000
    0.4084    0.5472   -0.3157 N   0  0  0  0  0  0  0  0  0  0  0  0
    0.4980    1.3156    0.9364 C   0  0  0  0  0  0  0  0  0  0  0  0
    1.1079    2.7542    0.7791 C   0  0  0  0  0  0  0  0  0  0  0  0
    0.3731    3.7084   -0.0919 N   0  0  0  0  0  0  0  0  0  0  0  0
    1.0253    5.0319   -0.0687 C   0  0  0  0  0  0  0  0  0  0  0  0
    0.4520    6.1923   -0.8737 C   0  0  0  0  0  0  0  0  0  0  0  0
   -0.6458    6.3625   -1.6439 C   0  0  0  0  0  0  0  0  0  0  0  0
   -1.0144    7.6813   -2.3502 C   0  0  0  0  0  0  0  0  0  0  0  0
   -1.6759    5.2860   -1.8609 C   0  0  0  0  0  0  0  0  0  0  0  0
    0.0952    8.6777   -2.7528 C   0  0  0  0  0  0  0  0  0  0  0  0
   -0.4482    9.8939   -3.4936 C   0  0  0  0  0  0  0  0  0  0  0  0
   -0.2649   11.1970   -3.1714 C   0  0  0  0  0  0  0  0  0  0  0  0
   -0.8124   12.3105   -4.0234 C   0  0  0  0  0  0  0  0  0  0  0  0
    0.5120   11.6454   -1.9648 C   0  0  0  0  0  0  0  0  0  0  0  0
    0.6258   -1.8385    0.6717 C   0  0  3  0  0  0  0  0  0  0  0  0
   -0.1842   -0.8161   -0.1896 C   0  0  3  0  0  0  0  0  0  0  0  0
   -0.0756   -3.2242    0.6891 C   0  0  0  0  0  0  0  0  0  0  0  0
    2.0290   -2.0448    0.0716 C   0  0  0  0  0  0  0  0  0  0  0  0
   -0.3121   -1.4226   -1.6225 C   0  0  3  0  0  0  0  0  0  0  0  0
   -0.1951   -3.7890   -0.7350 C   0  0  3  0  0  0  0  0  0  0  0  0
    1.9199   -2.5848   -1.3675 C   0  0  3  0  0  0  0  0  0  0  0  0
    1.0930   -1.6181   -2.2338 C   0  0  0  0  0  0  0  0  0  0  0  0
   -1.0151   -2.7987   -1.5731 C   0  0  0  0  0  0  0  0  0  0  0  0
    1.2073   -3.9467   -1.3477 C   0  0  0  0  0  0  0  0  0  0  0  0
   -0.1643    1.0884   -0.9658 H   0  0  0  0  0  0  0  0  0  0  0  0
   -0.4926    1.3961    1.3980 H   0  0  0  0  0  0  0  0  0  0  0  0
    1.1483    0.7779    1.6364 H   0  0  0  0  0  0  0  0  0  0  0  0
    1.1637    3.1809    1.7937 H   0  0  0  0  0  0  0  0  0  0  0  0
    2.1353    2.6536    0.4101 H   0  0  0  0  0  0  0  0  0  0  0  0
    0.4166    3.3608   -1.0499 H   0  0  0  0  0  0  0  0  0  0  0  0
    1.0661    5.3812    0.9703 H   0  0  0  0  0  0  0  0  0  0  0  0
    2.0650    4.9107   -0.4038 H   0  0  0  0  0  0  0  0  0  0  0  0
    1.0930    7.0686   -0.7555 H   0  0  0  0  0  0  0  0  0  0  0  0
   -1.5566    7.4239   -3.2728 H   0  0  0  0  0  0  0  0  0  0  0  0
   -1.7404    8.2017   -1.7116 H   0  0  0  0  0  0  0  0  0  0  0  0
   -1.4319    4.7188   -2.7651 H   0  0  0  0  0  0  0  0  0  0  0  0
   -1.7640    4.6016   -1.0163 H   0  0  0  0  0  0  0  0  0  0  0  0
   -2.6748    5.7200   -1.9896 H   0  0  0  0  0  0  0  0  0  0  0  0
    0.6660    8.9866   -1.8731 H   0  0  0  0  0  0  0  0  0  0  0  0
    0.7950    8.1727   -3.4296 H   0  0  0  0  0  0  0  0  0  0  0  0
   -1.0136    9.6640   -4.3924 H   0  0  0  0  0  0  0  0  0  0  0  0
   -1.5242   12.9140   -3.4494 H   0  0  0  0  0  0  0  0  0  0  0  0
   -0.0009   12.9667   -4.3581 H   0  0  0  0  0  0  0  0  0  0  0  0
   -1.3290   11.9438   -4.9160 H   0  0  0  0  0  0  0  0  0  0  0  0
    0.1324   11.1708   -1.0548 H   0  0  0  0  0  0  0  0  0  0  0  0
    1.5744   11.4108   -2.0840 H   0  0  0  0  0  0  0  0  0  0  0  0
    0.4280   12.7283   -1.8203 H   0  0  0  0  0  0  0  0  0  0  0  0
    0.7073   -1.4870    1.7059 H   0  0  0  0  0  0  0  0  0  0  0  0
   -1.1919   -0.7150    0.2352 H   0  0  0  0  0  0  0  0  0  0  0  0
    0.4974   -3.9268    1.3093 H   0  0  0  0  0  0  0  0  0  0  0  0
   -1.0707   -3.1457    1.1432 H   0  0  0  0  0  0  0  0  0  0  0  0
    2.5893   -1.1040    0.0837 H   0  0  0  0  0  0  0  0  0  0  0  0
    2.5942   -2.7540    0.6906 H   0  0  0  0  0  0  0  0  0  0  0  0
   -0.9035   -0.7552   -2.2601 H   0  0  0  0  0  0  0  0  0  0  0  0
   -0.6935   -4.7661   -0.7149 H   0  0  0  0  0  0  0  0  0  0  0  0
    2.9226   -2.6999   -1.7932 H   0  0  0  0  0  0  0  0  0  0  0  0
    1.0006   -2.0172   -3.2516 H   0  0  0  0  0  0  0  0  0  0  0  0
    1.6135   -0.6584   -2.3234 H   0  0  0  0  0  0  0  0  0  0  0  0
   -1.1394   -3.1914   -2.5905 H   0  0  0  0  0  0  0  0  0  0  0  0
   -2.0219   -2.6970   -1.1498 H   0  0  0  0  0  0  0  0  0  0  0  0
    1.7946   -4.6733   -0.7726 H   0  0  0  0  0  0  0  0  0  0  0  0
    1.1302   -4.3428   -2.3687 H   0  0  0  0  0  0  0  0  0  0  0  0
  1  2  1  0  0  0  0
  1 16  1  0  0  0  0
  1 25  1  0  0  0  0
  2  3  1  0  0  0  0
  2 26  1  0  0  0  0
  2 27  1  0  0  0  0
  3  4  1  0  0  0  0
  3 28  1  0  0  0  0
  3 29  1  0  0  0  0
  4  5  1  0  0  0  0
  4 30  1  0  0  0  0
  5  6  1  0  0  0  0
  5 31  1  0  0  0  0
  5 32  1  0  0  0  0
  6  7  2  0  0  0  0
  6 33  1  0  0  0  0
  7  8  1  0  0  0  0
  7  9  1  0  0  0  0
  8 10  1  0  0  0  0
  8 34  1  0  0  0  0
  8 35  1  0  0  0  0
  9 36  1  0  0  0  0
  9 37  1  0  0  0  0
  9 38  1  0  0  0  0
 10 11  1  0  0  0  0
 10 39  1  0  0  0  0
 10 40  1  0  0  0  0
 11 12  2  0  0  0  0
 11 41  1  0  0  0  0
 12 13  1  0  0  0  0
 12 14  1  0  0  0  0
 13 42  1  0  0  0  0
 13 43  1  0  0  0  0
 13 44  1  0  0  0  0
 14 45  1  0  0  0  0
 14 46  1  0  0  0  0
 14 47  1  0  0  0  0
 15 16  1  0  0  0  0
 15 17  1  0  0  0  0
 15 18  1  0  0  0  0
 15 48  1  0  0  0  0
 16 19  1  0  0  0  0
 16 49  1  0  0  0  0
 17 20  1  0  0  0  0
 17 50  1  0  0  0  0
 17 51  1  0  0  0  0
 18 21  1  0  0  0  0
 18 52  1  0  0  0  0
 18 53  1  0  0  0  0
 19 22  1  0  0  0  0
 19 23  1  0  0  0  0
 19 54  1  0  0  0  0
 20 23  1  0  0  0  0
 20 24  1  0  0  0  0
 20 55  1  0  0  0  0
 21 22  1  0  0  0  0
 21 24  1  0  0  0  0
 21 56  1  0  0  0  0
 22 57  1  0  0  0  0
 22 58  1  0  0  0  0
 23 59  1  0  0  0  0
 23 60  1  0  0  0  0
 24 61  1  0  0  0  0
 24 62  1  0  0  0  0
M  END
>  <Mol_ID>
6198

>  <Formula>
C22H38N2

>  <MolWeight>
330.55052

>  <Cat>
S1265

>  <Name>
SQ109

>  <Target>
Parasite

>  <Form>
free base

>  <CAS>
502487-67-4

>  <URL>
http://www.selleckchem.com/products/sq109.html

$$$$
