SQ22536.cdx
 OpenBabel08302520433D

 26 28  0  0  0  0  0  0  0  0999 V2000
   -2.0206   -0.6065    0.0604 N   0  0  0  0  0  0  0  0  0  0  0  0
   -1.9176    0.7391   -0.0053 C   0  0  0  0  0  0  0  0  0  0  0  0
   -0.8008    1.4998   -0.0429 N   0  0  0  0  0  0  0  0  0  0  0  0
    0.2983    0.7279    0.0060 C   0  0  0  0  0  0  0  0  0  0  0  0
    0.3488   -0.6557    0.0751 C   0  0  0  0  0  0  0  0  0  0  0  0
   -0.8813   -1.3330    0.1169 C   0  0  0  0  0  0  0  0  0  0  0  0
    1.6086    1.1253    0.0041 N   0  0  0  0  0  0  0  0  0  0  0  0
    2.3823   -0.0042    0.0488 C   0  0  0  0  0  0  0  0  0  0  0  0
    1.6551   -1.1019    0.0771 N   0  0  0  0  0  0  0  0  0  0  0  0
    2.0730    2.4933   -0.0264 C   0  0  3  0  0  0  0  0  0  0  0  0
   -0.9814   -2.7160    0.2005 N   0  0  0  0  0  0  0  0  0  0  0  0
    3.3314    2.5959    0.6772 O   0  0  0  0  0  0  0  0  0  0  0  0
    4.2019    3.4534   -0.0749 C   0  0  0  0  0  0  0  0  0  0  0  0
    3.3569    4.1039   -1.1485 C   0  0  0  0  0  0  0  0  0  0  0  0
    2.3264    3.0365   -1.4238 C   0  0  0  0  0  0  0  0  0  0  0  0
   -2.8602    1.2804   -0.0313 H   0  0  0  0  0  0  0  0  0  0  0  0
    3.4644    0.0337    0.0658 H   0  0  0  0  0  0  0  0  0  0  0  0
    1.3532    3.1151    0.5183 H   0  0  0  0  0  0  0  0  0  0  0  0
   -0.1358   -3.1975   -0.0848 H   0  0  0  0  0  0  0  0  0  0  0  0
   -1.8653   -3.0616   -0.1470 H   0  0  0  0  0  0  0  0  0  0  0  0
    4.9898    2.8310   -0.5124 H   0  0  0  0  0  0  0  0  0  0  0  0
    4.6658    4.1831    0.5947 H   0  0  0  0  0  0  0  0  0  0  0  0
    3.9359    4.3988   -2.0274 H   0  0  0  0  0  0  0  0  0  0  0  0
    2.8658    4.9977   -0.7454 H   0  0  0  0  0  0  0  0  0  0  0  0
    2.7575    2.2686   -2.0786 H   0  0  0  0  0  0  0  0  0  0  0  0
    1.4215    3.4194   -1.9039 H   0  0  0  0  0  0  0  0  0  0  0  0
  1  2  2  0  0  0  0
  2  3  1  0  0  0  0
  2 16  1  0  0  0  0
  3  4  2  0  0  0  0
  4  5  1  0  0  0  0
  4  7  1  0  0  0  0
  5  6  2  0  0  0  0
  6  1  1  0  0  0  0
  6 11  1  0  0  0  0
  7  8  1  0  0  0  0
  7 10  1  0  0  0  0
  8  9  2  0  0  0  0
  8 17  1  0  0  0  0
  9  5  1  0  0  0  0
 10 12  1  0  0  0  0
 10 18  1  0  0  0  0
 11 19  1  0  0  0  0
 11 20  1  0  0  0  0
 12 13  1  0  0  0  0
 13 14  1  0  0  0  0
 13 21  1  0  0  0  0
 13 22  1  0  0  0  0
 14 15  1  0  0  0  0
 14 23  1  0  0  0  0
 14 24  1  0  0  0  0
 15 10  1  0  0  0  0
 15 25  1  0  0  0  0
 15 26  1  0  0  0  0
M  END
>  <Mol_ID>
4059

>  <Formula>
C9H11N5O

>  <MolWeight>
205.21654

>  <Cat>
S8283

>  <Name>
SQ22536

>  <Synonyms>
9-(tetrahydrofuran-2-yl)-9h-purin-6-amine

>  <Target>
cAMP

>  <Form>
free base

>  <CAS>
17318-31-9

>  <URL>
http://selleckchem.com/products/sq22536.html

$$$$
