SR-0813
 OpenBabel08302521373D

 67 71  0  0  0  0  0  0  0  0999 V2000
    1.2863    0.5069   -0.9261 C   0  0  0  0  0  0  0  0  0  0  0  0
    1.0469    0.3102   -2.2686 N   0  0  0  0  0  0  0  0  0  0  0  0
    0.4334    0.9468   -0.1607 O   0  0  0  0  0  0  0  0  0  0  0  0
   10.0923   -4.6440   -2.0925 N   0  0  0  0  0  0  0  0  0  0  0  0
   10.6184   -4.2236   -3.6345 S   0  0  0  0  0  0  0  0  0  0  0  0
   12.2782   -4.1975   -3.3976 N   0  0  0  0  0  0  0  0  0  0  0  0
   10.3057   -5.3605   -4.4705 O   0  0  0  0  0  0  0  0  0  0  0  0
   10.1783   -2.8929   -3.9653 O   0  0  0  0  0  0  0  0  0  0  0  0
   13.1229   -4.7417   -4.4975 C   0  0  0  0  0  0  0  0  0  0  0  0
   12.9968   -3.9980   -5.8458 C   0  0  0  0  0  0  0  0  0  0  0  0
    4.7663   -0.9129   -0.4570 N   0  0  0  0  0  0  0  0  0  0  0  0
    5.1941   -0.3414    0.7314 C   0  0  0  0  0  0  0  0  0  0  0  0
    5.7760   -1.7216   -0.8996 C   0  0  0  0  0  0  0  0  0  0  0  0
    3.5167   -0.6601   -1.0365 C   0  0  0  0  0  0  0  0  0  0  0  0
    6.4089   -0.7506    1.0470 N   0  0  0  0  0  0  0  0  0  0  0  0
    4.3106    0.5470    1.3879 C   0  0  0  0  0  0  0  0  0  0  0  0
    6.7851   -1.6008    0.0327 C   0  0  0  0  0  0  0  0  0  0  0  0
    2.6677    0.1935   -0.4243 C   0  0  0  0  0  0  0  0  0  0  0  0
    3.1034    0.8013    0.8455 C   0  0  0  0  0  0  0  0  0  0  0  0
    8.1006   -2.2201   -0.0288 C   0  0  0  0  0  0  0  0  0  0  0  0
    8.4800   -3.0915   -1.0687 C   0  0  0  0  0  0  0  0  0  0  0  0
    9.0379   -1.9200    0.9692 C   0  0  0  0  0  0  0  0  0  0  0  0
    9.7647   -3.6447   -1.1139 C   0  0  0  0  0  0  0  0  0  0  0  0
   10.3316   -2.4337    0.9072 C   0  0  0  0  0  0  0  0  0  0  0  0
   10.6924   -3.3001   -0.1317 C   0  0  0  0  0  0  0  0  0  0  0  0
   -0.2731    0.6082   -2.8559 C   0  0  0  0  0  0  0  0  0  0  0  0
   -0.3891    0.3215   -4.3728 C   0  0  0  0  0  0  0  0  0  0  0  0
   -0.5119    2.0973   -3.2080 C   0  0  0  0  0  0  0  0  0  0  0  0
   -1.2478    1.6001   -4.4699 C   0  0  0  0  0  0  0  0  0  0  0  0
   13.2945   -2.5484   -5.8135 N   0  0  0  0  0  0  0  0  0  0  0  0
   14.7028   -2.2606   -5.4926 C   0  0  0  0  0  0  0  0  0  0  0  0
   12.9367   -1.9541   -7.1180 C   0  0  0  0  0  0  0  0  0  0  0  0
   14.9869   -0.7552   -5.4499 C   0  0  0  0  0  0  0  0  0  0  0  0
   13.1482   -0.4413   -7.1134 C   0  0  0  0  0  0  0  0  0  0  0  0
   14.5877   -0.0899   -6.7606 C   0  0  0  0  0  0  0  0  0  0  0  0
    1.8068    0.0149   -2.8664 H   0  0  0  0  0  0  0  0  0  0  0  0
    9.3375   -5.3182   -2.2259 H   0  0  0  0  0  0  0  0  0  0  0  0
   12.5718   -3.2629   -3.1035 H   0  0  0  0  0  0  0  0  0  0  0  0
   14.1644   -4.7158   -4.1591 H   0  0  0  0  0  0  0  0  0  0  0  0
   12.8839   -5.8024   -4.6376 H   0  0  0  0  0  0  0  0  0  0  0  0
   13.6455   -4.4982   -6.5797 H   0  0  0  0  0  0  0  0  0  0  0  0
   11.9722   -4.1365   -6.2158 H   0  0  0  0  0  0  0  0  0  0  0  0
    5.6965   -2.2733   -1.8265 H   0  0  0  0  0  0  0  0  0  0  0  0
    3.3034   -1.1912   -1.9468 H   0  0  0  0  0  0  0  0  0  0  0  0
    4.6200    1.0068    2.3163 H   0  0  0  0  0  0  0  0  0  0  0  0
    2.4125    1.4732    1.3429 H   0  0  0  0  0  0  0  0  0  0  0  0
    7.7633   -3.3581   -1.8405 H   0  0  0  0  0  0  0  0  0  0  0  0
    8.7583   -1.2674    1.8048 H   0  0  0  0  0  0  0  0  0  0  0  0
   11.0497   -2.1653    1.6772 H   0  0  0  0  0  0  0  0  0  0  0  0
   11.6885   -3.7319   -0.1325 H   0  0  0  0  0  0  0  0  0  0  0  0
   -1.0917    0.1615   -2.2759 H   0  0  0  0  0  0  0  0  0  0  0  0
    0.5532    0.3836   -4.9298 H   0  0  0  0  0  0  0  0  0  0  0  0
   -0.9010   -0.6059   -4.6429 H   0  0  0  0  0  0  0  0  0  0  0  0
   -1.1263    2.6604   -2.5006 H   0  0  0  0  0  0  0  0  0  0  0  0
    0.3964    2.6712   -3.4265 H   0  0  0  0  0  0  0  0  0  0  0  0
   -1.1124    2.2031   -5.3711 H   0  0  0  0  0  0  0  0  0  0  0  0
   -2.3191    1.4235   -4.3169 H   0  0  0  0  0  0  0  0  0  0  0  0
   15.3737   -2.7200   -6.2302 H   0  0  0  0  0  0  0  0  0  0  0  0
   14.9614   -2.6696   -4.5109 H   0  0  0  0  0  0  0  0  0  0  0  0
   11.8807   -2.1483   -7.3429 H   0  0  0  0  0  0  0  0  0  0  0  0
   13.5261   -2.4043   -7.9302 H   0  0  0  0  0  0  0  0  0  0  0  0
   16.0557   -0.5904   -5.2687 H   0  0  0  0  0  0  0  0  0  0  0  0
   14.4479   -0.2907   -4.6136 H   0  0  0  0  0  0  0  0  0  0  0  0
   12.4667    0.0191   -6.3873 H   0  0  0  0  0  0  0  0  0  0  0  0
   12.8977   -0.0303   -8.0977 H   0  0  0  0  0  0  0  0  0  0  0  0
   14.7091    0.9963   -6.6914 H   0  0  0  0  0  0  0  0  0  0  0  0
   15.2547   -0.4392   -7.5585 H   0  0  0  0  0  0  0  0  0  0  0  0
  1  2  1  0  0  0  0
  1  3  2  0  0  0  0
  1 18  1  0  0  0  0
  2 26  1  0  0  0  0
  2 36  1  0  0  0  0
  4  5  1  0  0  0  0
  4 23  1  0  0  0  0
  4 37  1  0  0  0  0
  5  6  1  0  0  0  0
  5  7  2  0  0  0  0
  5  8  2  0  0  0  0
  6  9  1  0  0  0  0
  6 38  1  0  0  0  0
  9 10  1  0  0  0  0
  9 39  1  0  0  0  0
  9 40  1  0  0  0  0
 10 30  1  0  0  0  0
 10 41  1  0  0  0  0
 10 42  1  0  0  0  0
 11 12  1  0  0  0  0
 11 13  1  0  0  0  0
 11 14  1  0  0  0  0
 12 15  2  0  0  0  0
 12 16  1  0  0  0  0
 13 17  2  0  0  0  0
 13 43  1  0  0  0  0
 14 18  2  0  0  0  0
 14 44  1  0  0  0  0
 15 17  1  0  0  0  0
 16 19  2  0  0  0  0
 16 45  1  0  0  0  0
 17 20  1  0  0  0  0
 18 19  1  0  0  0  0
 19 46  1  0  0  0  0
 20 21  2  0  0  0  0
 20 22  1  0  0  0  0
 21 23  1  0  0  0  0
 21 47  1  0  0  0  0
 22 24  2  0  0  0  0
 22 48  1  0  0  0  0
 23 25  2  0  0  0  0
 24 25  1  0  0  0  0
 24 49  1  0  0  0  0
 25 50  1  0  0  0  0
 26 27  1  0  0  0  0
 26 28  1  0  0  0  0
 26 51  1  0  0  0  0
 27 29  1  0  0  0  0
 27 52  1  0  0  0  0
 27 53  1  0  0  0  0
 28 29  1  0  0  0  0
 28 54  1  0  0  0  0
 28 55  1  0  0  0  0
 29 56  1  0  0  0  0
 29 57  1  0  0  0  0
 30 31  1  0  0  0  0
 30 32  1  0  0  0  0
 31 33  1  0  0  0  0
 31 58  1  0  0  0  0
 31 59  1  0  0  0  0
 32 34  1  0  0  0  0
 32 60  1  0  0  0  0
 32 61  1  0  0  0  0
 33 35  1  0  0  0  0
 33 62  1  0  0  0  0
 33 63  1  0  0  0  0
 34 35  1  0  0  0  0
 34 64  1  0  0  0  0
 34 65  1  0  0  0  0
 35 66  1  0  0  0  0
 35 67  1  0  0  0  0
M  END
>  <Mol_ID>
7488

>  <Formula>
C25H32N6O3S

>  <MolWeight>
496.62498

>  <Cat>
E1185

>  <Name>
SR-0813

>  <Target>
Others

>  <Form>
free base

>  <CAS>
2597186-19-9

>  <URL>
https://www.selleckchem.com/products/sr-0813.html

$$$$
