SR-18292.cdx
 OpenBabel08302520433D

 57 59  0  0  0  0  0  0  0  0999 V2000
   -3.7882    3.5822    1.3346 C   0  0  0  0  0  0  0  0  0  0  0  0
   -4.4510    3.4806    2.5599 C   0  0  0  0  0  0  0  0  0  0  0  0
   -4.7155    2.2105    3.0791 C   0  0  0  0  0  0  0  0  0  0  0  0
   -4.3202    1.0633    2.3834 C   0  0  0  0  0  0  0  0  0  0  0  0
   -3.6696    1.1539    1.1395 C   0  0  0  0  0  0  0  0  0  0  0  0
   -3.3938    2.4333    0.6394 C   0  0  0  0  0  0  0  0  0  0  0  0
   -4.8691    4.7057    3.3168 C   0  0  0  0  0  0  0  0  0  0  0  0
   -3.2847   -0.1189    0.4045 C   0  0  0  0  0  0  0  0  0  0  0  0
   -3.8747   -0.3778   -0.9289 N   0  0  0  0  0  0  0  0  0  0  0  0
   -5.3554   -0.5970   -0.9849 C   0  0  0  0  0  0  0  0  0  0  0  0
   -3.2098    0.3000   -2.0614 C   0  0  0  0  0  0  0  0  0  0  0  0
   -6.2356    0.6118   -0.5948 C   0  0  0  0  0  0  0  0  0  0  0  0
   -5.8471   -1.0126   -2.3979 C   0  0  0  0  0  0  0  0  0  0  0  0
   -5.7234   -1.7879   -0.0611 C   0  0  0  0  0  0  0  0  0  0  0  0
   -1.6862   -0.0041   -2.3331 C   0  0  3  0  0  0  0  0  0  0  0  0
   -0.8309    0.4423   -1.2744 O   0  0  0  0  0  0  0  0  0  0  0  0
   -1.4533   -1.5068   -2.5912 C   0  0  0  0  0  0  0  0  0  0  0  0
   -0.1272   -1.7761   -3.0923 O   0  0  0  0  0  0  0  0  0  0  0  0
    0.1577   -3.1115   -3.3180 C   0  0  0  0  0  0  0  0  0  0  0  0
   -0.4782   -4.1675   -2.6399 C   0  0  0  0  0  0  0  0  0  0  0  0
   -0.1480   -5.5031   -2.8756 C   0  0  0  0  0  0  0  0  0  0  0  0
    0.8359   -5.8499   -3.7946 C   0  0  0  0  0  0  0  0  0  0  0  0
    1.4682   -4.8043   -4.4818 C   0  0  0  0  0  0  0  0  0  0  0  0
    1.1576   -3.4597   -4.2678 C   0  0  0  0  0  0  0  0  0  0  0  0
    2.4389   -4.8637   -5.4534 N   0  0  0  0  0  0  0  0  0  0  0  0
    2.7476   -3.6042   -5.8847 C   0  0  0  0  0  0  0  0  0  0  0  0
    2.0020   -2.7167   -5.1525 C   0  0  0  0  0  0  0  0  0  0  0  0
   -3.5729    4.5589    0.9065 H   0  0  0  0  0  0  0  0  0  0  0  0
   -5.2371    2.1045    4.0277 H   0  0  0  0  0  0  0  0  0  0  0  0
   -4.5524    0.0896    2.8101 H   0  0  0  0  0  0  0  0  0  0  0  0
   -2.8784    2.5662   -0.3035 H   0  0  0  0  0  0  0  0  0  0  0  0
   -5.9571    4.7268    3.4354 H   0  0  0  0  0  0  0  0  0  0  0  0
   -4.3981    4.7149    4.3050 H   0  0  0  0  0  0  0  0  0  0  0  0
   -4.5695    5.6214    2.7961 H   0  0  0  0  0  0  0  0  0  0  0  0
   -2.1950   -0.1622    0.3804 H   0  0  0  0  0  0  0  0  0  0  0  0
   -3.5102   -0.9769    1.0480 H   0  0  0  0  0  0  0  0  0  0  0  0
   -3.6991    0.0180   -2.9974 H   0  0  0  0  0  0  0  0  0  0  0  0
   -3.3492    1.3807   -1.9778 H   0  0  0  0  0  0  0  0  0  0  0  0
   -6.1417    1.4321   -1.3141 H   0  0  0  0  0  0  0  0  0  0  0  0
   -7.2940    0.3211   -0.5633 H   0  0  0  0  0  0  0  0  0  0  0  0
   -6.0318    1.0060    0.3968 H   0  0  0  0  0  0  0  0  0  0  0  0
   -5.2349   -1.8139   -2.8239 H   0  0  0  0  0  0  0  0  0  0  0  0
   -6.8807   -1.3815   -2.3587 H   0  0  0  0  0  0  0  0  0  0  0  0
   -5.8534   -0.1653   -3.0934 H   0  0  0  0  0  0  0  0  0  0  0  0
   -5.1635   -2.6883   -0.3419 H   0  0  0  0  0  0  0  0  0  0  0  0
   -5.5345   -1.5799    0.9959 H   0  0  0  0  0  0  0  0  0  0  0  0
   -6.7898   -2.0344   -0.1351 H   0  0  0  0  0  0  0  0  0  0  0  0
   -1.3718    0.5610   -3.2182 H   0  0  0  0  0  0  0  0  0  0  0  0
   -1.0911    1.3432   -1.0272 H   0  0  0  0  0  0  0  0  0  0  0  0
   -1.6000   -2.0199   -1.6376 H   0  0  0  0  0  0  0  0  0  0  0  0
   -2.1705   -1.8593   -3.3414 H   0  0  0  0  0  0  0  0  0  0  0  0
   -1.2432   -3.9816   -1.8958 H   0  0  0  0  0  0  0  0  0  0  0  0
   -0.6671   -6.2847   -2.3263 H   0  0  0  0  0  0  0  0  0  0  0  0
    1.1008   -6.8871   -3.9670 H   0  0  0  0  0  0  0  0  0  0  0  0
    2.8418   -5.7242   -5.8103 H   0  0  0  0  0  0  0  0  0  0  0  0
    3.4803   -3.4582   -6.6719 H   0  0  0  0  0  0  0  0  0  0  0  0
    2.0335   -1.6405   -5.2468 H   0  0  0  0  0  0  0  0  0  0  0  0
  1  2  2  0  0  0  0
  1 28  1  0  0  0  0
  2  3  1  0  0  0  0
  2  7  1  0  0  0  0
  3  4  2  0  0  0  0
  3 29  1  0  0  0  0
  4  5  1  0  0  0  0
  4 30  1  0  0  0  0
  5  6  2  0  0  0  0
  5  8  1  0  0  0  0
  6  1  1  0  0  0  0
  6 31  1  0  0  0  0
  7 32  1  0  0  0  0
  7 33  1  0  0  0  0
  7 34  1  0  0  0  0
  8  9  1  0  0  0  0
  8 35  1  0  0  0  0
  8 36  1  0  0  0  0
  9 10  1  0  0  0  0
  9 11  1  0  0  0  0
 10 12  1  0  0  0  0
 10 13  1  0  0  0  0
 10 14  1  0  0  0  0
 11 15  1  0  0  0  0
 11 37  1  0  0  0  0
 11 38  1  0  0  0  0
 12 39  1  0  0  0  0
 12 40  1  0  0  0  0
 12 41  1  0  0  0  0
 13 42  1  0  0  0  0
 13 43  1  0  0  0  0
 13 44  1  0  0  0  0
 14 45  1  0  0  0  0
 14 46  1  0  0  0  0
 14 47  1  0  0  0  0
 15 16  1  0  0  0  0
 15 17  1  0  0  0  0
 15 48  1  0  0  0  0
 16 49  1  0  0  0  0
 17 18  1  0  0  0  0
 17 50  1  0  0  0  0
 17 51  1  0  0  0  0
 18 19  1  0  0  0  0
 19 20  2  0  0  0  0
 20 21  1  0  0  0  0
 20 52  1  0  0  0  0
 21 22  2  0  0  0  0
 21 53  1  0  0  0  0
 22 23  1  0  0  0  0
 22 54  1  0  0  0  0
 23 24  2  0  0  0  0
 23 25  1  0  0  0  0
 24 19  1  0  0  0  0
 25 26  1  0  0  0  0
 25 55  1  0  0  0  0
 26 27  2  0  0  0  0
 26 56  1  0  0  0  0
 27 24  1  0  0  0  0
 27 57  1  0  0  0  0
M  END
>  <Mol_ID>
4197

>  <Formula>
C23H30N2O2

>  <MolWeight>
366.4965

>  <Cat>
S8528

>  <Name>
SR-18292

>  <Synonyms>
N/A

>  <Target>
PGC-1¦Á

>  <Form>
free base

>  <CAS>
2095432-55-4

>  <URL>
http://selleckchem.com/products/sr-18292.html

$$$$
