SR-3029
 OpenBabel08302520403D

 54 59  0  0  0  0  0  0  0  0999 V2000
    1.5582   -1.0754   -0.0251 N   0  0  0  0  0  0  0  0  0  0  0  0
    2.2482    0.0436   -0.1291 C   0  0  0  0  0  0  0  0  0  0  0  0
    1.4569    1.1759   -0.0581 N   0  0  0  0  0  0  0  0  0  0  0  0
    0.1548    0.7183    0.0397 C   0  0  0  0  0  0  0  0  0  0  0  0
   -0.9813    1.4339    0.0343 N   0  0  0  0  0  0  0  0  0  0  0  0
   -2.0971    0.6897    0.0705 C   0  0  0  0  0  0  0  0  0  0  0  0
   -2.1052   -0.6563    0.1076 N   0  0  0  0  0  0  0  0  0  0  0  0
   -0.9597   -1.3725    0.1512 C   0  0  0  0  0  0  0  0  0  0  0  0
    0.2492   -0.6623    0.0754 C   0  0  0  0  0  0  0  0  0  0  0  0
   -1.0145   -2.7476    0.2825 N   0  0  0  0  0  0  0  0  0  0  0  0
   -5.7149    2.3971   -0.9727 O   0  0  0  0  0  0  0  0  0  0  0  0
   -5.5210    0.9726   -0.9032 C   0  0  0  0  0  0  0  0  0  0  0  0
   -4.5589    0.5946    0.2311 C   0  0  0  0  0  0  0  0  0  0  0  0
   -3.3067    1.3282    0.0579 N   0  0  0  0  0  0  0  0  0  0  0  0
   -3.4391    2.7725   -0.0971 C   0  0  0  0  0  0  0  0  0  0  0  0
   -4.4616    3.0637   -1.2097 C   0  0  0  0  0  0  0  0  0  0  0  0
    1.9094    2.5259   -0.0861 C   0  0  0  0  0  0  0  0  0  0  0  0
    1.1598    3.5276    0.5435 C   0  0  0  0  0  0  0  0  0  0  0  0
    1.6227    4.8398    0.5347 C   0  0  0  0  0  0  0  0  0  0  0  0
    2.8020    5.1821   -0.1151 C   0  0  0  0  0  0  0  0  0  0  0  0
    3.5434    4.1922   -0.7571 C   0  0  0  0  0  0  0  0  0  0  0  0
    3.1096    2.8611   -0.7302 C   0  0  0  0  0  0  0  0  0  0  0  0
    0.9254    5.7876    1.1745 F   0  0  0  0  0  0  0  0  0  0  0  0
   -2.1200   -3.4973   -0.2976 C   0  0  0  0  0  0  0  0  0  0  0  0
   -1.9422   -3.9325   -1.7308 C   0  0  0  0  0  0  0  0  0  0  0  0
   -0.8355   -3.5919   -2.4651 N   0  0  0  0  0  0  0  0  0  0  0  0
   -0.9352   -4.1594   -3.7077 C   0  0  0  0  0  0  0  0  0  0  0  0
   -2.1557   -4.8354   -3.6829 C   0  0  0  0  0  0  0  0  0  0  0  0
   -2.7599   -4.6832   -2.4457 N   0  0  0  0  0  0  0  0  0  0  0  0
   -2.5661   -5.5273   -4.8338 C   0  0  0  0  0  0  0  0  0  0  0  0
   -1.7338   -5.5227   -5.9599 C   0  0  0  0  0  0  0  0  0  0  0  0
   -0.5139   -4.8490   -5.9531 C   0  0  0  0  0  0  0  0  0  0  0  0
   -0.0873   -4.1420   -4.8226 C   0  0  0  0  0  0  0  0  0  0  0  0
   -2.1011   -6.1856   -7.0629 F   0  0  0  0  0  0  0  0  0  0  0  0
   -3.7322   -6.1910   -4.8685 F   0  0  0  0  0  0  0  0  0  0  0  0
    3.3269    0.0956   -0.2028 H   0  0  0  0  0  0  0  0  0  0  0  0
   -0.1490   -3.2280    0.4918 H   0  0  0  0  0  0  0  0  0  0  0  0
   -5.1457    0.6165   -1.8703 H   0  0  0  0  0  0  0  0  0  0  0  0
   -6.4981    0.5106   -0.7316 H   0  0  0  0  0  0  0  0  0  0  0  0
   -4.9961    0.8869    1.1937 H   0  0  0  0  0  0  0  0  0  0  0  0
   -4.4417   -0.4939    0.2473 H   0  0  0  0  0  0  0  0  0  0  0  0
   -3.8019    3.1912    0.8496 H   0  0  0  0  0  0  0  0  0  0  0  0
   -2.4985    3.2770   -0.3423 H   0  0  0  0  0  0  0  0  0  0  0  0
   -4.6627    4.1380   -1.2599 H   0  0  0  0  0  0  0  0  0  0  0  0
   -4.0745    2.7488   -2.1865 H   0  0  0  0  0  0  0  0  0  0  0  0
    0.2419    3.3184    1.0856 H   0  0  0  0  0  0  0  0  0  0  0  0
    3.1332    6.2160   -0.1158 H   0  0  0  0  0  0  0  0  0  0  0  0
    4.4577    4.4584   -1.2832 H   0  0  0  0  0  0  0  0  0  0  0  0
    3.7034    2.1228   -1.2635 H   0  0  0  0  0  0  0  0  0  0  0  0
   -2.2391   -4.4080    0.3018 H   0  0  0  0  0  0  0  0  0  0  0  0
   -3.0697   -2.9574   -0.2077 H   0  0  0  0  0  0  0  0  0  0  0  0
   -0.0738   -3.0209   -2.1208 H   0  0  0  0  0  0  0  0  0  0  0  0
    0.1049   -4.8757   -6.8463 H   0  0  0  0  0  0  0  0  0  0  0  0
    0.8568   -3.6073   -4.8178 H   0  0  0  0  0  0  0  0  0  0  0  0
  1  2  2  0  0  0  0
  1  9  1  0  0  0  0
  2  3  1  0  0  0  0
  2 36  1  0  0  0  0
  3  4  1  0  0  0  0
  3 17  1  0  0  0  0
  4  5  1  0  0  0  0
  4  9  2  0  0  0  0
  5  6  2  0  0  0  0
  6  7  1  0  0  0  0
  6 14  1  0  0  0  0
  7  8  2  0  0  0  0
  8  9  1  0  0  0  0
  8 10  1  0  0  0  0
 10 24  1  0  0  0  0
 10 37  1  0  0  0  0
 11 12  1  0  0  0  0
 11 16  1  0  0  0  0
 12 13  1  0  0  0  0
 12 38  1  0  0  0  0
 12 39  1  0  0  0  0
 13 14  1  0  0  0  0
 13 40  1  0  0  0  0
 13 41  1  0  0  0  0
 14 15  1  0  0  0  0
 15 16  1  0  0  0  0
 15 42  1  0  0  0  0
 15 43  1  0  0  0  0
 16 44  1  0  0  0  0
 16 45  1  0  0  0  0
 17 18  2  0  0  0  0
 17 22  1  0  0  0  0
 18 19  1  0  0  0  0
 18 46  1  0  0  0  0
 19 20  2  0  0  0  0
 19 23  1  0  0  0  0
 20 21  1  0  0  0  0
 20 47  1  0  0  0  0
 21 22  2  0  0  0  0
 21 48  1  0  0  0  0
 22 49  1  0  0  0  0
 24 25  1  0  0  0  0
 24 50  1  0  0  0  0
 24 51  1  0  0  0  0
 25 26  1  0  0  0  0
 25 29  2  0  0  0  0
 26 27  1  0  0  0  0
 26 52  1  0  0  0  0
 27 28  2  0  0  0  0
 27 33  1  0  0  0  0
 28 29  1  0  0  0  0
 28 30  1  0  0  0  0
 30 31  2  0  0  0  0
 30 35  1  0  0  0  0
 31 32  1  0  0  0  0
 31 34  1  0  0  0  0
 32 33  2  0  0  0  0
 32 53  1  0  0  0  0
 33 54  1  0  0  0  0
M  END
>  <Mol_ID>
3829

>  <Formula>
C23H19F3N8O

>  <MolWeight>
480.4451696

>  <Cat>
S6544

>  <Name>
SR-3029

>  <Synonyms>
N/A

>  <Target>
Casein Kinase

>  <Form>
free base

>  <CAS>
1454585-06-8

>  <URL>
http://www.selleck.cn/products/sr-3029.html

$$$$
