SR-4370
 OpenBabel08302521223D

 40 41  0  0  0  0  0  0  0  0999 V2000
    1.0144   -1.1264    1.2727 F   0  0  0  0  0  0  0  0  0  0  0  0
    0.9209    1.5617    1.1268 F   0  0  0  0  0  0  0  0  0  0  0  0
   -1.9911   -7.7757   -0.0544 O   0  0  0  0  0  0  0  0  0  0  0  0
   -0.0595   -9.1143    1.3772 N   0  0  0  0  0  0  0  0  0  0  0  0
   -0.1927   -7.7064    1.3928 N   0  0  0  0  0  0  0  0  0  0  0  0
   -1.4693   -9.4802    3.4557 C   0  0  0  0  0  0  0  0  0  0  0  0
   -0.1399   -9.6929    2.7215 C   0  0  0  0  0  0  0  0  0  0  0  0
   -2.6710  -10.1217    2.7592 C   0  0  0  0  0  0  0  0  0  0  0  0
   -0.9901   -2.8278    0.0864 C   0  0  0  0  0  0  0  0  0  0  0  0
   -1.0974   -5.6493    0.4361 C   0  0  0  0  0  0  0  0  0  0  0  0
   -3.9534   -9.8780    3.5409 C   0  0  0  0  0  0  0  0  0  0  0  0
   -0.9476   -1.3519   -0.0716 C   0  0  0  0  0  0  0  0  0  0  0  0
   -0.6325   -3.4380    1.3073 C   0  0  0  0  0  0  0  0  0  0  0  0
   -1.4245   -3.6790   -0.9464 C   0  0  0  0  0  0  0  0  0  0  0  0
   -0.6772   -4.8278    1.4833 C   0  0  0  0  0  0  0  0  0  0  0  0
   -1.4909   -5.0688   -0.7728 C   0  0  0  0  0  0  0  0  0  0  0  0
   -1.1544   -7.1271    0.5710 C   0  0  0  0  0  0  0  0  0  0  0  0
    0.0264   -0.5571    0.5622 C   0  0  0  0  0  0  0  0  0  0  0  0
   -1.9163   -0.6699   -0.8384 C   0  0  0  0  0  0  0  0  0  0  0  0
    0.0003    0.8344    0.4780 C   0  0  0  0  0  0  0  0  0  0  0  0
   -1.9317    0.7291   -0.9338 C   0  0  0  0  0  0  0  0  0  0  0  0
   -0.9781    1.4847   -0.2600 C   0  0  0  0  0  0  0  0  0  0  0  0
   -0.8209   -9.4857    0.7930 H   0  0  0  0  0  0  0  0  0  0  0  0
    0.6158   -7.1589    1.6759 H   0  0  0  0  0  0  0  0  0  0  0  0
   -1.3729   -9.9126    4.4601 H   0  0  0  0  0  0  0  0  0  0  0  0
   -1.6501   -8.4083    3.5982 H   0  0  0  0  0  0  0  0  0  0  0  0
    0.0478  -10.7698    2.6327 H   0  0  0  0  0  0  0  0  0  0  0  0
    0.6780   -9.2936    3.3342 H   0  0  0  0  0  0  0  0  0  0  0  0
   -2.7973   -9.7152    1.7512 H   0  0  0  0  0  0  0  0  0  0  0  0
   -2.5090  -11.2008    2.6567 H   0  0  0  0  0  0  0  0  0  0  0  0
   -4.1622   -8.8064    3.6232 H   0  0  0  0  0  0  0  0  0  0  0  0
   -4.8016  -10.3499    3.0342 H   0  0  0  0  0  0  0  0  0  0  0  0
   -3.8851  -10.2941    4.5504 H   0  0  0  0  0  0  0  0  0  0  0  0
   -0.3200   -2.8306    2.1553 H   0  0  0  0  0  0  0  0  0  0  0  0
   -1.7159   -3.2758   -1.9142 H   0  0  0  0  0  0  0  0  0  0  0  0
   -0.4109   -5.2403    2.4525 H   0  0  0  0  0  0  0  0  0  0  0  0
   -1.8454   -5.6979   -1.5876 H   0  0  0  0  0  0  0  0  0  0  0  0
   -2.6989   -1.2217   -1.3568 H   0  0  0  0  0  0  0  0  0  0  0  0
   -2.7010    1.2246   -1.5222 H   0  0  0  0  0  0  0  0  0  0  0  0
   -0.9904    2.5692   -0.3025 H   0  0  0  0  0  0  0  0  0  0  0  0
  1 18  1  0  0  0  0
  2 20  1  0  0  0  0
  3 17  2  0  0  0  0
  4  5  1  0  0  0  0
  4  7  1  0  0  0  0
  4 23  1  0  0  0  0
  5 17  1  0  0  0  0
  5 24  1  0  0  0  0
  6  7  1  0  0  0  0
  6  8  1  0  0  0  0
  6 25  1  0  0  0  0
  6 26  1  0  0  0  0
  7 27  1  0  0  0  0
  7 28  1  0  0  0  0
  8 11  1  0  0  0  0
  8 29  1  0  0  0  0
  8 30  1  0  0  0  0
  9 12  1  0  0  0  0
  9 13  2  0  0  0  0
  9 14  1  0  0  0  0
 10 15  2  0  0  0  0
 10 16  1  0  0  0  0
 10 17  1  0  0  0  0
 11 31  1  0  0  0  0
 11 32  1  0  0  0  0
 11 33  1  0  0  0  0
 12 18  2  0  0  0  0
 12 19  1  0  0  0  0
 13 15  1  0  0  0  0
 13 34  1  0  0  0  0
 14 16  2  0  0  0  0
 14 35  1  0  0  0  0
 15 36  1  0  0  0  0
 16 37  1  0  0  0  0
 18 20  1  0  0  0  0
 19 21  2  0  0  0  0
 19 38  1  0  0  0  0
 20 22  2  0  0  0  0
 21 22  1  0  0  0  0
 21 39  1  0  0  0  0
 22 40  1  0  0  0  0
M  END
>  <Mol_ID>
4680

>  <Formula>
C17H18F2N2O

>  <MolWeight>
304.3344264

>  <Cat>
S2132

>  <Name>
SR-4370

>  <Synonyms>
N/A

>  <Target>
HDAC

>  <Form>
Free Base

>  <CAS>
1816294-67-3

>  <URL>
http://www.selleck.cn/products/sr4370.html

$$$$
