SR-4835
 OpenBabel08302521233D

 54 59  0  0  0  0  0  0  0  0999 V2000
   -3.5945   -2.7944    3.6353 C   0  0  0  0  0  0  0  0  0  0  0  0
   -3.9664   -3.6953    2.6414 C   0  0  0  0  0  0  0  0  0  0  0  0
   -3.7053   -5.0618    2.8249 C   0  0  0  0  0  0  0  0  0  0  0  0
   -3.0728   -5.4771    4.0040 C   0  0  0  0  0  0  0  0  0  0  0  0
   -2.7074   -4.5491    4.9815 C   0  0  0  0  0  0  0  0  0  0  0  0
   -2.9628   -3.1807    4.8186 C   0  0  0  0  0  0  0  0  0  0  0  0
   -3.9956   -1.5751    3.1446 N   0  0  0  0  0  0  0  0  0  0  0  0
   -4.5795   -1.7723    1.9127 C   0  0  0  0  0  0  0  0  0  0  0  0
   -4.5659   -3.0488    1.5876 N   0  0  0  0  0  0  0  0  0  0  0  0
   -5.1683   -0.6341    1.1270 C   0  0  0  0  0  0  0  0  0  0  0  0
   -4.4742    0.6336    1.3542 N   0  0  0  0  0  0  0  0  0  0  0  0
   -5.2679    1.7772    1.1678 C   0  0  0  0  0  0  0  0  0  0  0  0
   -6.3103    1.7895    0.2982 N   0  0  0  0  0  0  0  0  0  0  0  0
   -7.0791    2.8939    0.1387 C   0  0  0  0  0  0  0  0  0  0  0  0
   -6.9032    4.0384    0.8189 N   0  0  0  0  0  0  0  0  0  0  0  0
   -5.8624    4.0169    1.6659 C   0  0  0  0  0  0  0  0  0  0  0  0
   -5.0006    2.9569    1.8773 C   0  0  0  0  0  0  0  0  0  0  0  0
   -5.4198    5.0225    2.5031 N   0  0  0  0  0  0  0  0  0  0  0  0
   -4.3043    4.5179    3.1413 C   0  0  0  0  0  0  0  0  0  0  0  0
   -4.0285    3.2798    2.7966 N   0  0  0  0  0  0  0  0  0  0  0  0
   -5.9638    6.3160    2.6909 C   0  0  0  0  0  0  0  0  0  0  0  0
   -8.0855    2.8576   -0.7879 N   0  0  0  0  0  0  0  0  0  0  0  0
   -8.3577    1.6704   -1.5933 C   0  0  0  0  0  0  0  0  0  0  0  0
   -8.4342    2.0710   -3.0760 C   0  0  0  0  0  0  0  0  0  0  0  0
   -9.3821    3.1312   -3.2942 O   0  0  0  0  0  0  0  0  0  0  0  0
   -9.0169    4.2959   -2.5336 C   0  0  0  0  0  0  0  0  0  0  0  0
   -8.9737    3.9946   -1.0270 C   0  0  0  0  0  0  0  0  0  0  0  0
   -7.1105    6.8674    2.0895 C   0  0  0  0  0  0  0  0  0  0  0  0
   -7.3246    8.1283    2.4809 N   0  0  0  0  0  0  0  0  0  0  0  0
   -6.3078    8.3810    3.3247 N   0  0  0  0  0  0  0  0  0  0  0  0
   -5.4774    7.3128    3.5090 C   0  0  0  0  0  0  0  0  0  0  0  0
   -6.1640    9.6964    3.9000 C   0  0  0  0  0  0  0  0  0  0  0  0
   -3.9937   -5.7745    2.0605 H   0  0  0  0  0  0  0  0  0  0  0  0
   -2.8651   -6.5340    4.1562 H   0  0  0  0  0  0  0  0  0  0  0  0
   -2.2153   -4.8975    5.8886 H   0  0  0  0  0  0  0  0  0  0  0  0
   -2.6784   -2.4635    5.5821 H   0  0  0  0  0  0  0  0  0  0  0  0
   -3.8865   -0.6743    3.5896 H   0  0  0  0  0  0  0  0  0  0  0  0
   -5.1346   -0.8852    0.0589 H   0  0  0  0  0  0  0  0  0  0  0  0
   -6.2237   -0.5645    1.4205 H   0  0  0  0  0  0  0  0  0  0  0  0
   -3.6846    0.7136    0.7144 H   0  0  0  0  0  0  0  0  0  0  0  0
   -3.7384    5.1020    3.8536 H   0  0  0  0  0  0  0  0  0  0  0  0
   -9.3231    1.2562   -1.2782 H   0  0  0  0  0  0  0  0  0  0  0  0
   -7.6089    0.8796   -1.4817 H   0  0  0  0  0  0  0  0  0  0  0  0
   -7.4528    2.3929   -3.4456 H   0  0  0  0  0  0  0  0  0  0  0  0
   -8.7530    1.2135   -3.6760 H   0  0  0  0  0  0  0  0  0  0  0  0
   -9.7605    5.0727   -2.7381 H   0  0  0  0  0  0  0  0  0  0  0  0
   -8.0454    4.6617   -2.8877 H   0  0  0  0  0  0  0  0  0  0  0  0
   -9.9796    3.7249   -0.6817 H   0  0  0  0  0  0  0  0  0  0  0  0
   -8.6812    4.9064   -0.4965 H   0  0  0  0  0  0  0  0  0  0  0  0
   -7.8018    6.4210    1.3861 H   0  0  0  0  0  0  0  0  0  0  0  0
   -4.6266    7.3695    4.1731 H   0  0  0  0  0  0  0  0  0  0  0  0
   -6.1566   10.4283    3.0883 H   0  0  0  0  0  0  0  0  0  0  0  0
   -7.0041    9.8737    4.5753 H   0  0  0  0  0  0  0  0  0  0  0  0
   -5.2211    9.7477    4.4507 H   0  0  0  0  0  0  0  0  0  0  0  0
  1  2  1  0  0  0  0
  1  7  1  0  0  0  0
  2  3  2  0  0  0  0
  3  4  1  0  0  0  0
  3 33  1  0  0  0  0
  4  5  2  0  0  0  0
  4 34  1  0  0  0  0
  5  6  1  0  0  0  0
  5 35  1  0  0  0  0
  6  1  2  0  0  0  0
  6 36  1  0  0  0  0
  7  8  1  0  0  0  0
  7 37  1  0  0  0  0
  8  9  2  0  0  0  0
  8 10  1  0  0  0  0
  9  2  1  0  0  0  0
 10 11  1  0  0  0  0
 10 38  1  0  0  0  0
 10 39  1  0  0  0  0
 11 12  1  0  0  0  0
 11 40  1  0  0  0  0
 12 13  2  0  0  0  0
 13 14  1  0  0  0  0
 14 15  2  0  0  0  0
 14 22  1  0  0  0  0
 15 16  1  0  0  0  0
 16 17  2  0  0  0  0
 16 18  1  0  0  0  0
 17 12  1  0  0  0  0
 18 19  1  0  0  0  0
 18 21  1  0  0  0  0
 19 20  2  0  0  0  0
 19 41  1  0  0  0  0
 20 17  1  0  0  0  0
 21 28  1  0  0  0  0
 22 23  1  0  0  0  0
 23 24  1  0  0  0  0
 23 42  1  0  0  0  0
 23 43  1  0  0  0  0
 24 25  1  0  0  0  0
 24 44  1  0  0  0  0
 24 45  1  0  0  0  0
 25 26  1  0  0  0  0
 26 27  1  0  0  0  0
 26 46  1  0  0  0  0
 26 47  1  0  0  0  0
 27 22  1  0  0  0  0
 27 48  1  0  0  0  0
 27 49  1  0  0  0  0
 28 29  2  0  0  0  0
 28 50  1  0  0  0  0
 29 30  1  0  0  0  0
 30 31  1  0  0  0  0
 30 32  1  0  0  0  0
 31 21  2  0  0  0  0
 31 51  1  0  0  0  0
 32 52  1  0  0  0  0
 32 53  1  0  0  0  0
 32 54  1  0  0  0  0
M  END
>  <Mol_ID>
4898

>  <Formula>
C21H20Cl2N10O

>  <MolWeight>
499.3559

>  <Cat>
S8894

>  <Name>
SR-4835

>  <Synonyms>
N/A

>  <Target>
CDK

>  <Form>
Free Base

>  <CAS>
2387704-62-1

>  <URL>
http://www.selleckchem.com/products/sr-4835.html

$$$$
