SR1001
 OpenBabel08302521233D

 43 44  0  0  0  0  0  0  0  0999 V2000
    1.1904    0.1752   -0.2047 S   0  0  0  0  0  0  0  0  0  0  0  0
    2.8587    0.5710   -2.6184 S   0  0  0  0  0  0  0  0  0  0  0  0
    3.9663    5.9533   -3.0864 O   0  0  0  0  0  0  0  0  0  0  0  0
    0.1880   -0.7832    0.2290 O   0  0  0  0  0  0  0  0  0  0  0  0
    2.4084    0.3455    0.5566 O   0  0  0  0  0  0  0  0  0  0  0  0
    4.1529    1.9292   -4.8719 O   0  0  0  0  0  0  0  0  0  0  0  0
    0.3589    1.6618   -0.2997 N   0  0  0  0  0  0  0  0  0  0  0  0
    2.1381   -1.5830   -3.7805 N   0  0  0  0  0  0  0  0  0  0  0  0
    3.7332   -0.3613   -4.9920 N   0  0  0  0  0  0  0  0  0  0  0  0
    4.1312    5.7916   -1.6259 C   0  0  0  0  0  0  0  0  0  0  0  0
    2.9422    4.9034   -1.1713 C   0  0  0  0  0  0  0  0  0  0  0  0
    4.1316    7.1995   -0.9717 C   0  0  0  0  0  0  0  0  0  0  0  0
    5.5003    5.0854   -1.3744 C   0  0  0  0  0  0  0  0  0  0  0  0
    1.9804    4.4447   -2.0915 C   0  0  0  0  0  0  0  0  0  0  0  0
    2.8408    4.4334    0.1541 C   0  0  0  0  0  0  0  0  0  0  0  0
    1.1330    2.8449   -0.4988 C   0  0  0  0  0  0  0  0  0  0  0  0
    1.0882    3.4246   -1.7583 C   0  0  0  0  0  0  0  0  0  0  0  0
    1.9470    3.4018    0.4859 C   0  0  0  0  0  0  0  0  0  0  0  0
    1.6894   -0.3915   -1.8122 C   0  0  0  0  0  0  0  0  0  0  0  0
    1.4106   -1.5059   -2.5948 C   0  0  0  0  0  0  0  0  0  0  0  0
    2.8969   -0.5235   -3.9145 C   0  0  0  0  0  0  0  0  0  0  0  0
    0.4844   -2.6372   -2.3167 C   0  0  0  0  0  0  0  0  0  0  0  0
    4.3187    0.8185   -5.3737 C   0  0  0  0  0  0  0  0  0  0  0  0
    5.2195    0.6609   -6.5777 C   0  0  0  0  0  0  0  0  0  0  0  0
    6.0937    4.7975   -2.5690 F   0  0  0  0  0  0  0  0  0  0  0  0
    6.4124    5.7705   -0.6632 F   0  0  0  0  0  0  0  0  0  0  0  0
    5.3665    3.8864   -0.7535 F   0  0  0  0  0  0  0  0  0  0  0  0
    4.0031    8.1811   -1.9066 F   0  0  0  0  0  0  0  0  0  0  0  0
    3.0860    7.3685   -0.1223 F   0  0  0  0  0  0  0  0  0  0  0  0
    5.2311    7.5142   -0.2599 F   0  0  0  0  0  0  0  0  0  0  0  0
    4.1976    5.0938   -3.4953 H   0  0  0  0  0  0  0  0  0  0  0  0
   -0.3223    1.7152    0.4579 H   0  0  0  0  0  0  0  0  0  0  0  0
    3.7745   -1.1693   -5.5987 H   0  0  0  0  0  0  0  0  0  0  0  0
    1.9402    4.8225   -3.1124 H   0  0  0  0  0  0  0  0  0  0  0  0
    3.5070    4.8053    0.9319 H   0  0  0  0  0  0  0  0  0  0  0  0
    0.4040    3.0447   -2.5116 H   0  0  0  0  0  0  0  0  0  0  0  0
    1.9501    3.0063    1.4995 H   0  0  0  0  0  0  0  0  0  0  0  0
   -0.0467   -2.9177   -3.2328 H   0  0  0  0  0  0  0  0  0  0  0  0
    1.0534   -3.5091   -1.9792 H   0  0  0  0  0  0  0  0  0  0  0  0
   -0.2713   -2.3990   -1.5661 H   0  0  0  0  0  0  0  0  0  0  0  0
    5.9583   -0.1203   -6.3964 H   0  0  0  0  0  0  0  0  0  0  0  0
    4.6222    0.4218   -7.4592 H   0  0  0  0  0  0  0  0  0  0  0  0
    5.7491    1.6047   -6.7539 H   0  0  0  0  0  0  0  0  0  0  0  0
  1  4  2  0  0  0  0
  1  5  2  0  0  0  0
  1  7  1  0  0  0  0
  1 19  1  0  0  0  0
  2 19  1  0  0  0  0
  2 21  1  0  0  0  0
  3 10  1  0  0  0  0
  3 31  1  0  0  0  0
  6 23  2  0  0  0  0
  7 16  1  0  0  0  0
  7 32  1  0  0  0  0
  8 20  1  0  0  0  0
  8 21  2  0  0  0  0
  9 21  1  0  0  0  0
  9 23  1  0  0  0  0
  9 33  1  0  0  0  0
 10 11  1  0  0  0  0
 10 12  1  0  0  0  0
 10 13  1  0  0  0  0
 11 14  2  0  0  0  0
 11 15  1  0  0  0  0
 12 28  1  0  0  0  0
 12 29  1  0  0  0  0
 12 30  1  0  0  0  0
 13 25  1  0  0  0  0
 13 26  1  0  0  0  0
 13 27  1  0  0  0  0
 14 17  1  0  0  0  0
 14 34  1  0  0  0  0
 15 18  2  0  0  0  0
 15 35  1  0  0  0  0
 16 17  2  0  0  0  0
 16 18  1  0  0  0  0
 17 36  1  0  0  0  0
 18 37  1  0  0  0  0
 19 20  2  0  0  0  0
 20 22  1  0  0  0  0
 22 38  1  0  0  0  0
 22 39  1  0  0  0  0
 22 40  1  0  0  0  0
 23 24  1  0  0  0  0
 24 41  1  0  0  0  0
 24 42  1  0  0  0  0
 24 43  1  0  0  0  0
M  END
>  <Mol_ID>
4772

>  <Formula>
C15H13F6N3O4S2

>  <MolWeight>
477.4018392

>  <Cat>
S6724

>  <Name>
SR1001

>  <Synonyms>
N/A

>  <Target>
ROR

>  <Form>
Free Base

>  <CAS>
1335106-03-0

>  <URL>
http://www.selleck.cn/products/sr1001.html

$$$$
