SR18662
 OpenBabel08302521233D

 45 46  0  0  0  0  0  0  0  0999 V2000
   -2.7969   -3.7686    2.5481 C   0  0  0  0  0  0  0  0  0  0  0  0
   -1.8376   -3.0380    1.8518 C   0  0  0  0  0  0  0  0  0  0  0  0
   -2.1600   -1.7836    1.3235 C   0  0  0  0  0  0  0  0  0  0  0  0
   -3.4477   -1.2475    1.4766 C   0  0  0  0  0  0  0  0  0  0  0  0
   -4.3993   -1.9908    2.1857 C   0  0  0  0  0  0  0  0  0  0  0  0
   -4.0773   -3.2457    2.7136 C   0  0  0  0  0  0  0  0  0  0  0  0
   -3.7200    0.1037    0.9546 C   0  0  0  0  0  0  0  0  0  0  0  0
   -4.9107    0.5327    0.5072 C   0  0  0  0  0  0  0  0  0  0  0  0
   -5.0605    1.9288    0.0124 C   0  0  0  0  0  0  0  0  0  0  0  0
   -6.3470    2.2233   -0.3781 N   0  0  0  0  0  0  0  0  0  0  0  0
   -4.1325    2.7246   -0.0341 O   0  0  0  0  0  0  0  0  0  0  0  0
   -6.7388    3.5926   -0.6733 C   0  0  0  0  0  0  0  0  0  0  0  0
   -7.2053    4.3463    0.5864 C   0  0  0  0  0  0  0  0  0  0  0  0
   -7.6471    5.6593    0.4211 N   0  0  0  0  0  0  0  0  0  0  0  0
   -7.1960    3.8006    1.6941 O   0  0  0  0  0  0  0  0  0  0  0  0
   -7.9382    6.2793   -0.8813 C   0  0  0  0  0  0  0  0  0  0  0  0
   -7.7727    7.8156   -0.8739 C   0  0  0  0  0  0  0  0  0  0  0  0
   -8.4399    8.4626    0.3007 N   0  0  0  0  0  0  0  0  0  0  0  0
   -7.9703    7.8319    1.5750 C   0  0  0  0  0  0  0  0  0  0  0  0
   -8.2578    6.3277    1.5795 C   0  0  0  0  0  0  0  0  0  0  0  0
  -10.1167    8.7275    0.1898 S   0  0  0  0  0  0  0  0  0  0  0  0
  -10.6879    7.6745   -0.6178 O   0  0  0  0  0  0  0  0  0  0  0  0
  -10.6182    9.0137    1.5154 O   0  0  0  0  0  0  0  0  0  0  0  0
  -10.1789   10.2452   -0.7392 C   0  0  0  0  0  0  0  0  0  0  0  0
   -2.5438   -4.7397    2.9682 H   0  0  0  0  0  0  0  0  0  0  0  0
   -0.8350   -3.4381    1.7252 H   0  0  0  0  0  0  0  0  0  0  0  0
   -1.3916   -1.2267    0.7902 H   0  0  0  0  0  0  0  0  0  0  0  0
   -5.3973   -1.5979    2.3588 H   0  0  0  0  0  0  0  0  0  0  0  0
   -4.8245   -3.8092    3.2700 H   0  0  0  0  0  0  0  0  0  0  0  0
   -2.8651    0.7791    0.9409 H   0  0  0  0  0  0  0  0  0  0  0  0
   -5.7792   -0.1112    0.4842 H   0  0  0  0  0  0  0  0  0  0  0  0
   -7.0859    1.5761   -0.1413 H   0  0  0  0  0  0  0  0  0  0  0  0
   -5.8994    4.1262   -1.1285 H   0  0  0  0  0  0  0  0  0  0  0  0
   -7.5754    3.5313   -1.3754 H   0  0  0  0  0  0  0  0  0  0  0  0
   -7.2908    5.8612   -1.6567 H   0  0  0  0  0  0  0  0  0  0  0  0
   -8.9626    5.9942   -1.1413 H   0  0  0  0  0  0  0  0  0  0  0  0
   -6.7045    8.0592   -0.8148 H   0  0  0  0  0  0  0  0  0  0  0  0
   -8.1356    8.2497   -1.8111 H   0  0  0  0  0  0  0  0  0  0  0  0
   -6.8900    8.0033    1.6554 H   0  0  0  0  0  0  0  0  0  0  0  0
   -8.4200    8.3245    2.4431 H   0  0  0  0  0  0  0  0  0  0  0  0
   -9.3363    6.1357    1.5298 H   0  0  0  0  0  0  0  0  0  0  0  0
   -7.8911    5.8934    2.5150 H   0  0  0  0  0  0  0  0  0  0  0  0
   -9.6587   11.0257   -0.1810 H   0  0  0  0  0  0  0  0  0  0  0  0
   -9.7281   10.0911   -1.7200 H   0  0  0  0  0  0  0  0  0  0  0  0
  -11.2315   10.5167   -0.8565 H   0  0  0  0  0  0  0  0  0  0  0  0
  1  2  2  0  0  0  0
  1 25  1  0  0  0  0
  2  3  1  0  0  0  0
  2 26  1  0  0  0  0
  3  4  2  0  0  0  0
  3 27  1  0  0  0  0
  4  5  1  0  0  0  0
  4  7  1  0  0  0  0
  5  6  2  0  0  0  0
  5 28  1  0  0  0  0
  6  1  1  0  0  0  0
  6 29  1  0  0  0  0
  7  8  2  0  0  0  0
  7 30  1  0  0  0  0
  8  9  1  0  0  0  0
  8 31  1  0  0  0  0
  9 10  1  0  0  0  0
  9 11  2  0  0  0  0
 10 12  1  0  0  0  0
 10 32  1  0  0  0  0
 12 13  1  0  0  0  0
 12 33  1  0  0  0  0
 12 34  1  0  0  0  0
 13 14  1  0  0  0  0
 13 15  2  0  0  0  0
 14 16  1  0  0  0  0
 16 17  1  0  0  0  0
 16 35  1  0  0  0  0
 16 36  1  0  0  0  0
 17 18  1  0  0  0  0
 17 37  1  0  0  0  0
 17 38  1  0  0  0  0
 18 19  1  0  0  0  0
 18 21  1  0  0  0  0
 19 20  1  0  0  0  0
 19 39  1  0  0  0  0
 19 40  1  0  0  0  0
 20 14  1  0  0  0  0
 20 41  1  0  0  0  0
 20 42  1  0  0  0  0
 21 22  2  0  0  0  0
 21 23  2  0  0  0  0
 21 24  1  0  0  0  0
 24 43  1  0  0  0  0
 24 44  1  0  0  0  0
 24 45  1  0  0  0  0
M  END
>  <Mol_ID>
4899

>  <Formula>
C16H19Cl2N3O4S

>  <MolWeight>
420.31076

>  <Cat>
S8900

>  <Name>
SR18662

>  <Synonyms>
N/A

>  <Target>
KLF

>  <Form>
Free Base

>  <CAS>
2505001-62-5

>  <URL>
http://www.selleckchem.com/products/sr18662.html

$$$$
