SR95531
 OpenBabel08302521353D

 40 40  0  0  0  0  0  0  0  0999 V2000
    0.5103   -0.0845   -0.1493 C   0  0  0  0  0  0  0  0  0  0  0  0
    0.1560   -1.5858   -0.2546 C   0  0  0  0  0  0  0  0  0  0  0  0
   -1.3519   -1.8967   -0.2042 C   0  0  0  0  0  0  0  0  0  0  0  0
   -1.5941   -3.3709   -0.4203 C   0  0  0  0  0  0  0  0  0  0  0  0
   -2.1876   -4.1283    0.5275 O   0  0  0  0  0  0  0  0  0  0  0  0
   -1.2552   -3.8921   -1.4711 O   0  0  0  0  0  0  0  0  0  0  0  0
    1.1388    2.6068    0.5294 N   0  0  0  0  0  0  0  0  0  0  0  0
   -3.2373   -3.2160    6.9886 O   0  0  0  0  0  0  0  0  0  0  0  0
   -3.5531   -4.5376    6.7436 C   0  0  0  0  0  0  0  0  0  0  0  0
   -0.6838    0.3196    3.3445 C   0  0  0  0  0  0  0  0  0  0  0  0
   -0.3553   -0.1733    2.1184 N   0  0  0  0  0  0  0  0  0  0  0  0
   -0.3849    1.6603    3.6170 C   0  0  0  0  0  0  0  0  0  0  0  0
    0.2266    0.5489    1.1576 N   0  0  0  0  0  0  0  0  0  0  0  0
    0.2395    2.4277    2.6425 C   0  0  0  0  0  0  0  0  0  0  0  0
    0.5504    1.8667    1.4033 C   0  0  0  0  0  0  0  0  0  0  0  0
   -1.3494   -0.5885    4.3272 C   0  0  0  0  0  0  0  0  0  0  0  0
   -1.5661   -1.9343    3.9689 C   0  0  0  0  0  0  0  0  0  0  0  0
   -1.7800   -0.1613    5.6008 C   0  0  0  0  0  0  0  0  0  0  0  0
   -2.1909   -2.8186    4.8428 C   0  0  0  0  0  0  0  0  0  0  0  0
   -2.4065   -1.0526    6.4778 C   0  0  0  0  0  0  0  0  0  0  0  0
   -2.6198   -2.3860    6.1096 C   0  0  0  0  0  0  0  0  0  0  0  0
    3.8830   -0.1021    1.5484 Br  0  0  0  0  0  0  0  0  0  0  0  0
   -0.0250    0.4651   -0.9539 H   0  0  0  0  0  0  0  0  0  0  0  0
    1.5986   -0.0087   -0.3440 H   0  0  0  0  0  0  0  0  0  0  0  0
    0.5355   -1.9329   -1.2415 H   0  0  0  0  0  0  0  0  0  0  0  0
    0.6942   -2.1538    0.5357 H   0  0  0  0  0  0  0  0  0  0  0  0
   -1.7841   -1.6001    0.7690 H   0  0  0  0  0  0  0  0  0  0  0  0
   -1.8824   -1.3306   -0.9987 H   0  0  0  0  0  0  0  0  0  0  0  0
   -2.4669   -3.7642    1.3784 H   0  0  0  0  0  0  0  0  0  0  0  0
    1.4185    2.2852   -0.4062 H   0  0  0  0  0  0  0  0  0  0  0  0
   -4.2513   -4.6073    5.8820 H   0  0  0  0  0  0  0  0  0  0  0  0
   -2.6314   -5.1211    6.5319 H   0  0  0  0  0  0  0  0  0  0  0  0
   -4.0477   -4.9686    7.6374 H   0  0  0  0  0  0  0  0  0  0  0  0
   -0.6141    2.1272    4.5618 H   0  0  0  0  0  0  0  0  0  0  0  0
    0.4811    3.4630    2.8553 H   0  0  0  0  0  0  0  0  0  0  0  0
   -1.2508   -2.3150    3.0080 H   0  0  0  0  0  0  0  0  0  0  0  0
   -1.6487    0.8556    5.9377 H   0  0  0  0  0  0  0  0  0  0  0  0
   -2.3340   -3.8411    4.5201 H   0  0  0  0  0  0  0  0  0  0  0  0
   -2.7313   -0.7038    7.4508 H   0  0  0  0  0  0  0  0  0  0  0  0
    3.9021   -0.3212    0.0339 H   0  0  0  0  0  0  0  0  0  0  0  0
  1  2  1  0  0  0  0
  1 13  1  0  0  0  0
  1 23  1  0  0  0  0
  1 24  1  0  0  0  0
  2  3  1  0  0  0  0
  2 25  1  0  0  0  0
  2 26  1  0  0  0  0
  3  4  1  0  0  0  0
  3 27  1  0  0  0  0
  3 28  1  0  0  0  0
  4  5  1  0  0  0  0
  4  6  2  0  0  0  0
  5 29  1  0  0  0  0
  7 15  2  0  0  0  0
  7 30  1  0  0  0  0
  8  9  1  0  0  0  0
  8 21  1  0  0  0  0
  9 31  1  0  0  0  0
  9 32  1  0  0  0  0
  9 33  1  0  0  0  0
 10 11  2  0  0  0  0
 10 12  1  0  0  0  0
 10 16  1  0  0  0  0
 11 13  1  0  0  0  0
 12 14  2  0  0  0  0
 12 34  1  0  0  0  0
 13 15  1  0  0  0  0
 14 15  1  0  0  0  0
 14 35  1  0  0  0  0
 16 17  2  0  0  0  0
 16 18  1  0  0  0  0
 17 19  1  0  0  0  0
 17 36  1  0  0  0  0
 18 20  2  0  0  0  0
 18 37  1  0  0  0  0
 19 21  2  0  0  0  0
 19 38  1  0  0  0  0
 20 21  1  0  0  0  0
 20 39  1  0  0  0  0
 22 40  1  0  0  0  0
M  END
>  <Mol_ID>
6910

>  <Formula>
C15H18BrN3O3

>  <MolWeight>
368.22572

>  <Cat>
E1247

>  <Name>
SR95531

>  <Synonyms>
Gabazine

>  <Target>
GABA Receptor

>  <Form>
Free base

>  <CAS>
104104-50-9

>  <URL>
https://www.selleckchem.com/products/sr95531.html

$$$$
