SR 11237
 OpenBabel08302521353D

 56 59  0  0  0  0  0  0  0  0999 V2000
    0.4720    2.4862   -1.2735 C   0  0  0  0  0  0  0  0  0  0  0  0
    0.9103    2.5989    1.1954 C   0  0  0  0  0  0  0  0  0  0  0  0
    6.2668    1.3076    4.6796 C   0  0  0  0  0  0  0  0  0  0  0  0
    6.9191    0.5540    5.5844 O   0  0  0  0  0  0  0  0  0  0  0  0
    6.0747    2.5021    4.8228 O   0  0  0  0  0  0  0  0  0  0  0  0
   -2.2598   -1.4480   -1.2889 C   0  0  0  0  0  0  0  0  0  0  0  0
   -2.2708   -1.1514    1.2034 C   0  0  0  0  0  0  0  0  0  0  0  0
    4.2121   -1.3186   -0.1076 C   0  0  0  0  0  0  0  0  0  0  0  0
    4.7264   -0.6665   -1.2897 O   0  0  0  0  0  0  0  0  0  0  0  0
    4.5749   -2.7157   -0.1592 O   0  0  0  0  0  0  0  0  0  0  0  0
    5.2815   -1.6966   -2.0987 C   0  0  0  0  0  0  0  0  0  0  0  0
    5.6109   -2.7955   -1.1308 C   0  0  0  0  0  0  0  0  0  0  0  0
    2.6875   -1.1535   -0.0882 C   0  0  0  0  0  0  0  0  0  0  0  0
    2.1102    0.1296   -0.0509 C   0  0  0  0  0  0  0  0  0  0  0  0
    1.8174   -2.2423   -0.0933 C   0  0  0  0  0  0  0  0  0  0  0  0
    0.7134    0.3538   -0.0003 C   0  0  0  0  0  0  0  0  0  0  0  0
    0.4321   -2.0472   -0.0890 C   0  0  0  0  0  0  0  0  0  0  0  0
   -0.1469   -0.7585   -0.0715 C   0  0  0  0  0  0  0  0  0  0  0  0
    0.1963    1.7956    0.0800 C   0  0  0  0  0  0  0  0  0  0  0  0
   -1.6726   -0.6210   -0.1191 C   0  0  0  0  0  0  0  0  0  0  0  0
   -1.3109    1.8538    0.4178 C   0  0  0  0  0  0  0  0  0  0  0  0
   -2.1304    0.8376   -0.3576 C   0  0  0  0  0  0  0  0  0  0  0  0
    4.8674   -0.6874    1.1319 C   0  0  0  0  0  0  0  0  0  0  0  0
    5.3347    0.6399    1.1018 C   0  0  0  0  0  0  0  0  0  0  0  0
    4.9306   -1.3864    2.3513 C   0  0  0  0  0  0  0  0  0  0  0  0
    5.8056    1.2636    2.2580 C   0  0  0  0  0  0  0  0  0  0  0  0
    5.4107   -0.7672    3.5122 C   0  0  0  0  0  0  0  0  0  0  0  0
    5.8400    0.5651    3.4659 C   0  0  0  0  0  0  0  0  0  0  0  0
    1.5471    2.5390   -1.4868 H   0  0  0  0  0  0  0  0  0  0  0  0
    0.0075    1.9482   -2.1068 H   0  0  0  0  0  0  0  0  0  0  0  0
    0.0937    3.5142   -1.2809 H   0  0  0  0  0  0  0  0  0  0  0  0
    0.7746    2.1213    2.1735 H   0  0  0  0  0  0  0  0  0  0  0  0
    1.9872    2.6991    1.0274 H   0  0  0  0  0  0  0  0  0  0  0  0
    0.5050    3.6159    1.2633 H   0  0  0  0  0  0  0  0  0  0  0  0
    7.1598   -0.3392    5.2750 H   0  0  0  0  0  0  0  0  0  0  0  0
   -2.1081   -2.5240   -1.1638 H   0  0  0  0  0  0  0  0  0  0  0  0
   -3.3434   -1.2876   -1.3755 H   0  0  0  0  0  0  0  0  0  0  0  0
   -1.8035   -1.1577   -2.2413 H   0  0  0  0  0  0  0  0  0  0  0  0
   -3.3610   -1.0413    1.2188 H   0  0  0  0  0  0  0  0  0  0  0  0
   -2.0559   -2.2173    1.3452 H   0  0  0  0  0  0  0  0  0  0  0  0
   -1.8661   -0.6221    2.0744 H   0  0  0  0  0  0  0  0  0  0  0  0
    4.5233   -2.0092   -2.8232 H   0  0  0  0  0  0  0  0  0  0  0  0
    6.1587   -1.3290   -2.6378 H   0  0  0  0  0  0  0  0  0  0  0  0
    5.6318   -3.7843   -1.5952 H   0  0  0  0  0  0  0  0  0  0  0  0
    6.5677   -2.6193   -0.6268 H   0  0  0  0  0  0  0  0  0  0  0  0
    2.7793    0.9870   -0.0689 H   0  0  0  0  0  0  0  0  0  0  0  0
    2.1996   -3.2605   -0.1074 H   0  0  0  0  0  0  0  0  0  0  0  0
   -0.1989   -2.9333   -0.0996 H   0  0  0  0  0  0  0  0  0  0  0  0
   -1.4713    1.6918    1.4895 H   0  0  0  0  0  0  0  0  0  0  0  0
   -1.7003    2.8592    0.2047 H   0  0  0  0  0  0  0  0  0  0  0  0
   -3.1871    0.9482   -0.0782 H   0  0  0  0  0  0  0  0  0  0  0  0
   -2.0792    1.0861   -1.4245 H   0  0  0  0  0  0  0  0  0  0  0  0
    5.2924    1.2161    0.1781 H   0  0  0  0  0  0  0  0  0  0  0  0
    4.5663   -2.4118    2.4055 H   0  0  0  0  0  0  0  0  0  0  0  0
    6.1176    2.3059    2.2151 H   0  0  0  0  0  0  0  0  0  0  0  0
    5.3866   -1.3227    4.4456 H   0  0  0  0  0  0  0  0  0  0  0  0
  1 19  1  0  0  0  0
  1 29  1  0  0  0  0
  1 30  1  0  0  0  0
  1 31  1  0  0  0  0
  2 19  1  0  0  0  0
  2 32  1  0  0  0  0
  2 33  1  0  0  0  0
  2 34  1  0  0  0  0
  3  4  1  0  0  0  0
  3  5  2  0  0  0  0
  3 28  1  0  0  0  0
  4 35  1  0  0  0  0
  6 20  1  0  0  0  0
  6 36  1  0  0  0  0
  6 37  1  0  0  0  0
  6 38  1  0  0  0  0
  7 20  1  0  0  0  0
  7 39  1  0  0  0  0
  7 40  1  0  0  0  0
  7 41  1  0  0  0  0
  8  9  1  0  0  0  0
  8 10  1  0  0  0  0
  8 13  1  0  0  0  0
  8 23  1  0  0  0  0
  9 11  1  0  0  0  0
 10 12  1  0  0  0  0
 11 12  1  0  0  0  0
 11 42  1  0  0  0  0
 11 43  1  0  0  0  0
 12 44  1  0  0  0  0
 12 45  1  0  0  0  0
 13 14  2  0  0  0  0
 13 15  1  0  0  0  0
 14 16  1  0  0  0  0
 14 46  1  0  0  0  0
 15 17  2  0  0  0  0
 15 47  1  0  0  0  0
 16 18  2  0  0  0  0
 16 19  1  0  0  0  0
 17 18  1  0  0  0  0
 17 48  1  0  0  0  0
 18 20  1  0  0  0  0
 19 21  1  0  0  0  0
 20 22  1  0  0  0  0
 21 22  1  0  0  0  0
 21 49  1  0  0  0  0
 21 50  1  0  0  0  0
 22 51  1  0  0  0  0
 22 52  1  0  0  0  0
 23 24  2  0  0  0  0
 23 25  1  0  0  0  0
 24 26  1  0  0  0  0
 24 53  1  0  0  0  0
 25 27  2  0  0  0  0
 25 54  1  0  0  0  0
 26 28  2  0  0  0  0
 26 55  1  0  0  0  0
 27 28  1  0  0  0  0
 27 56  1  0  0  0  0
M  END
>  <Mol_ID>
6866

>  <Formula>
C24H28O4

>  <MolWeight>
380.47672

>  <Cat>
E2813

>  <Name>
SR 11237

>  <Target>
Retinoid Receptor

>  <Form>
Free base

>  <CAS>
146670-40-8

>  <URL>
http://www.selleckchem.com/products/sr-11237.html

$$$$
