SRI-011381
 OpenBabel08302521233D

 55 57  0  0  0  0  0  0  0  0999 V2000
    3.0235   -1.1692    0.0056 O   0  0  0  0  0  0  0  0  0  0  0  0
    2.8670    1.0270    0.7120 N   0  0  0  0  0  0  0  0  0  0  0  0
    0.9564   -0.2836    0.3673 N   0  0  0  0  0  0  0  0  0  0  0  0
    7.2663    0.4596   -1.4558 N   0  0  0  0  0  0  0  0  0  0  0  0
    5.0424    1.9712   -0.2203 C   0  0  0  0  0  0  0  0  0  0  0  0
    0.2226   -1.5465    0.3713 C   0  0  0  0  0  0  0  0  0  0  0  0
    4.9731    1.3380   -1.6166 C   0  0  0  0  0  0  0  0  0  0  0  0
    6.5269    2.2052    0.1459 C   0  0  0  0  0  0  0  0  0  0  0  0
    4.3340    1.1297    0.8599 C   0  0  0  0  0  0  0  0  0  0  0  0
   -0.0965   -2.0263   -1.0486 C   0  0  0  0  0  0  0  0  0  0  0  0
   -1.0685   -1.3997    1.1966 C   0  0  0  0  0  0  0  0  0  0  0  0
   -0.9176   -3.3163   -1.0347 C   0  0  0  0  0  0  0  0  0  0  0  0
   -1.8998   -2.6828    1.1981 C   0  0  0  0  0  0  0  0  0  0  0  0
   -2.1978   -3.1629   -0.2183 C   0  0  0  0  0  0  0  0  0  0  0  0
    5.8731    0.1084   -1.7367 C   0  0  0  0  0  0  0  0  0  0  0  0
    7.4226    0.9872   -0.1048 C   0  0  0  0  0  0  0  0  0  0  0  0
    2.3271   -0.2054    0.3073 C   0  0  0  0  0  0  0  0  0  0  0  0
    2.0653    1.9852    1.4925 C   0  0  0  0  0  0  0  0  0  0  0  0
    1.5733    1.3994    2.8089 C   0  0  0  0  0  0  0  0  0  0  0  0
    2.3532    0.4805    3.5327 C   0  0  0  0  0  0  0  0  0  0  0  0
    0.2902    1.7027    3.2863 C   0  0  0  0  0  0  0  0  0  0  0  0
    1.8423   -0.1809    4.6465 C   0  0  0  0  0  0  0  0  0  0  0  0
   -0.2181    1.0440    4.4105 C   0  0  0  0  0  0  0  0  0  0  0  0
    0.5502    0.0905    5.0777 C   0  0  0  0  0  0  0  0  0  0  0  0
    0.4367    0.5490    0.1428 H   0  0  0  0  0  0  0  0  0  0  0  0
    7.8439   -0.3745   -1.5644 H   0  0  0  0  0  0  0  0  0  0  0  0
    4.5488    2.9509   -0.2614 H   0  0  0  0  0  0  0  0  0  0  0  0
    0.8605   -2.2955    0.8592 H   0  0  0  0  0  0  0  0  0  0  0  0
    3.9410    1.0728   -1.8729 H   0  0  0  0  0  0  0  0  0  0  0  0
    5.2938    2.0828   -2.3563 H   0  0  0  0  0  0  0  0  0  0  0  0
    6.9075    3.0437   -0.4529 H   0  0  0  0  0  0  0  0  0  0  0  0
    6.6205    2.5117    1.1951 H   0  0  0  0  0  0  0  0  0  0  0  0
    4.5318    1.5940    1.8345 H   0  0  0  0  0  0  0  0  0  0  0  0
    4.7701    0.1283    0.9190 H   0  0  0  0  0  0  0  0  0  0  0  0
   -0.6523   -1.2475   -1.5864 H   0  0  0  0  0  0  0  0  0  0  0  0
    0.8310   -2.1893   -1.6091 H   0  0  0  0  0  0  0  0  0  0  0  0
   -0.8243   -1.1323    2.2302 H   0  0  0  0  0  0  0  0  0  0  0  0
   -1.6767   -0.5780    0.7970 H   0  0  0  0  0  0  0  0  0  0  0  0
   -1.1691   -3.6050   -2.0608 H   0  0  0  0  0  0  0  0  0  0  0  0
   -0.3136   -4.1286   -0.6113 H   0  0  0  0  0  0  0  0  0  0  0  0
   -2.8406   -2.5138    1.7351 H   0  0  0  0  0  0  0  0  0  0  0  0
   -1.3604   -3.4676    1.7431 H   0  0  0  0  0  0  0  0  0  0  0  0
   -2.8659   -2.4475   -0.7138 H   0  0  0  0  0  0  0  0  0  0  0  0
   -2.7296   -4.1206   -0.1793 H   0  0  0  0  0  0  0  0  0  0  0  0
    5.5425   -0.6968   -1.0726 H   0  0  0  0  0  0  0  0  0  0  0  0
    5.8088   -0.2773   -2.7589 H   0  0  0  0  0  0  0  0  0  0  0  0
    8.4696    1.2863    0.0278 H   0  0  0  0  0  0  0  0  0  0  0  0
    7.2256    0.2019    0.6340 H   0  0  0  0  0  0  0  0  0  0  0  0
    2.6485    2.8951    1.6762 H   0  0  0  0  0  0  0  0  0  0  0  0
    1.2095    2.2841    0.8748 H   0  0  0  0  0  0  0  0  0  0  0  0
    3.3512    0.2106    3.1993 H   0  0  0  0  0  0  0  0  0  0  0  0
   -0.3427    2.4150    2.7630 H   0  0  0  0  0  0  0  0  0  0  0  0
    2.4477   -0.9302    5.1498 H   0  0  0  0  0  0  0  0  0  0  0  0
   -1.2297    1.2498    4.7501 H   0  0  0  0  0  0  0  0  0  0  0  0
    0.1400   -0.4520    5.9250 H   0  0  0  0  0  0  0  0  0  0  0  0
  1 17  2  0  0  0  0
  2  9  1  0  0  0  0
  2 17  1  0  0  0  0
  2 18  1  0  0  0  0
  3  6  1  0  0  0  0
  3 17  1  0  0  0  0
  3 25  1  0  0  0  0
  4 15  1  0  0  0  0
  4 16  1  0  0  0  0
  4 26  1  0  0  0  0
  5  7  1  0  0  0  0
  5  8  1  0  0  0  0
  5  9  1  0  0  0  0
  5 27  1  0  0  0  0
  6 10  1  0  0  0  0
  6 11  1  0  0  0  0
  6 28  1  0  0  0  0
  7 15  1  0  0  0  0
  7 29  1  0  0  0  0
  7 30  1  0  0  0  0
  8 16  1  0  0  0  0
  8 31  1  0  0  0  0
  8 32  1  0  0  0  0
  9 33  1  0  0  0  0
  9 34  1  0  0  0  0
 10 12  1  0  0  0  0
 10 35  1  0  0  0  0
 10 36  1  0  0  0  0
 11 13  1  0  0  0  0
 11 37  1  0  0  0  0
 11 38  1  0  0  0  0
 12 14  1  0  0  0  0
 12 39  1  0  0  0  0
 12 40  1  0  0  0  0
 13 14  1  0  0  0  0
 13 41  1  0  0  0  0
 13 42  1  0  0  0  0
 14 43  1  0  0  0  0
 14 44  1  0  0  0  0
 15 45  1  0  0  0  0
 15 46  1  0  0  0  0
 16 47  1  0  0  0  0
 16 48  1  0  0  0  0
 18 19  1  0  0  0  0
 18 49  1  0  0  0  0
 18 50  1  0  0  0  0
 19 20  2  0  0  0  0
 19 21  1  0  0  0  0
 20 22  1  0  0  0  0
 20 51  1  0  0  0  0
 21 23  2  0  0  0  0
 21 52  1  0  0  0  0
 22 24  2  0  0  0  0
 22 53  1  0  0  0  0
 23 24  1  0  0  0  0
 23 54  1  0  0  0  0
 24 55  1  0  0  0  0
M  END
>  <Mol_ID>
4833

>  <Formula>
C20H31N3O

>  <MolWeight>
329.47964

>  <Cat>
S6654

>  <Name>
SRI-011381

>  <Synonyms>
N/A

>  <Target>
TGF-beta/Smad

>  <Form>
Free Base

>  <CAS>
1629138-41-5

>  <URL>
http://www.selleck.cn/products/sri-011381.html

$$$$
