SRPIN340.cdx
 OpenBabel08302519573D

 43 45  0  0  0  0  0  0  0  0999 V2000
    1.3015   -0.2917    0.0143 C   0  0  0  0  0  0  0  0  0  0  0  0
    0.3331   -1.2993    0.0282 C   0  0  0  0  0  0  0  0  0  0  0  0
   -1.0344   -1.0017    0.0273 C   0  0  0  0  0  0  0  0  0  0  0  0
   -1.3993    0.3641    0.0712 C   0  0  0  0  0  0  0  0  0  0  0  0
   -0.4385    1.3784    0.0800 C   0  0  0  0  0  0  0  0  0  0  0  0
    0.9261    1.0608    0.0142 C   0  0  0  0  0  0  0  0  0  0  0  0
   -2.0284   -1.9826   -0.0409 N   0  0  0  0  0  0  0  0  0  0  0  0
   -1.7244   -3.2662   -0.6837 C   0  0  0  0  0  0  0  0  0  0  0  0
   -3.0327   -3.8081   -1.2604 C   0  0  0  0  0  0  0  0  0  0  0  0
   -4.1367   -3.8957   -0.2016 C   0  0  0  0  0  0  0  0  0  0  0  0
   -4.2671   -2.6099    0.6199 C   0  0  0  0  0  0  0  0  0  0  0  0
   -2.9055   -2.1323    1.1335 C   0  0  0  0  0  0  0  0  0  0  0  0
   -2.7739    0.6756   -0.0293 N   0  0  0  0  0  0  0  0  0  0  0  0
   -3.3969    1.6104    0.7758 C   0  0  0  0  0  0  0  0  0  0  0  0
   -4.8762    1.7320    0.6246 C   0  0  0  0  0  0  0  0  0  0  0  0
   -2.8310    2.2756    1.6375 O   0  0  0  0  0  0  0  0  0  0  0  0
   -5.5647    1.2593   -0.4937 C   0  0  0  0  0  0  0  0  0  0  0  0
   -6.9345    1.4639   -0.5472 C   0  0  0  0  0  0  0  0  0  0  0  0
   -7.6402    2.0898    0.4165 N   0  0  0  0  0  0  0  0  0  0  0  0
   -6.9512    2.5422    1.4846 C   0  0  0  0  0  0  0  0  0  0  0  0
   -5.5862    2.3857    1.6352 C   0  0  0  0  0  0  0  0  0  0  0  0
    1.9477    2.1619   -0.1370 C   0  0  0  0  0  0  0  0  0  0  0  0
    3.2294    1.7037   -0.2228 F   0  0  0  0  0  0  0  0  0  0  0  0
    1.7490    2.8991   -1.2673 F   0  0  0  0  0  0  0  0  0  0  0  0
    1.9357    3.0462    0.8953 F   0  0  0  0  0  0  0  0  0  0  0  0
    2.3588   -0.5645   -0.0242 H   0  0  0  0  0  0  0  0  0  0  0  0
    0.6759   -2.3336    0.0344 H   0  0  0  0  0  0  0  0  0  0  0  0
   -0.7466    2.4233    0.0723 H   0  0  0  0  0  0  0  0  0  0  0  0
   -1.3012   -3.9716    0.0430 H   0  0  0  0  0  0  0  0  0  0  0  0
   -1.0042   -3.1534   -1.5028 H   0  0  0  0  0  0  0  0  0  0  0  0
   -2.8657   -4.7946   -1.7056 H   0  0  0  0  0  0  0  0  0  0  0  0
   -3.3652   -3.1420   -2.0662 H   0  0  0  0  0  0  0  0  0  0  0  0
   -5.0935   -4.1152   -0.6914 H   0  0  0  0  0  0  0  0  0  0  0  0
   -3.9240   -4.7320    0.4740 H   0  0  0  0  0  0  0  0  0  0  0  0
   -4.7129   -1.8322   -0.0129 H   0  0  0  0  0  0  0  0  0  0  0  0
   -4.9524   -2.7693    1.4591 H   0  0  0  0  0  0  0  0  0  0  0  0
   -3.0389   -1.2021    1.6954 H   0  0  0  0  0  0  0  0  0  0  0  0
   -2.4826   -2.8618    1.8355 H   0  0  0  0  0  0  0  0  0  0  0  0
   -3.3219   -0.1033   -0.3751 H   0  0  0  0  0  0  0  0  0  0  0  0
   -5.0701    0.7681   -1.3227 H   0  0  0  0  0  0  0  0  0  0  0  0
   -7.5182    1.1260   -1.3997 H   0  0  0  0  0  0  0  0  0  0  0  0
   -7.5430    3.0559    2.2375 H   0  0  0  0  0  0  0  0  0  0  0  0
   -5.0864    2.7734    2.5178 H   0  0  0  0  0  0  0  0  0  0  0  0
  1  2  2  0  0  0  0
  1 26  1  0  0  0  0
  2  3  1  0  0  0  0
  2 27  1  0  0  0  0
  3  4  2  0  0  0  0
  3  7  1  0  0  0  0
  4  5  1  0  0  0  0
  4 13  1  0  0  0  0
  5  6  2  0  0  0  0
  5 28  1  0  0  0  0
  6  1  1  0  0  0  0
  6 22  1  0  0  0  0
  7  8  1  0  0  0  0
  8  9  1  0  0  0  0
  8 29  1  0  0  0  0
  8 30  1  0  0  0  0
  9 10  1  0  0  0  0
  9 31  1  0  0  0  0
  9 32  1  0  0  0  0
 10 11  1  0  0  0  0
 10 33  1  0  0  0  0
 10 34  1  0  0  0  0
 11 12  1  0  0  0  0
 11 35  1  0  0  0  0
 11 36  1  0  0  0  0
 12  7  1  0  0  0  0
 12 37  1  0  0  0  0
 12 38  1  0  0  0  0
 13 14  1  0  0  0  0
 13 39  1  0  0  0  0
 14 15  1  0  0  0  0
 14 16  2  0  0  0  0
 15 17  2  0  0  0  0
 17 18  1  0  0  0  0
 17 40  1  0  0  0  0
 18 19  2  0  0  0  0
 18 41  1  0  0  0  0
 19 20  1  0  0  0  0
 20 21  2  0  0  0  0
 20 42  1  0  0  0  0
 21 15  1  0  0  0  0
 21 43  1  0  0  0  0
 22 23  1  0  0  0  0
 22 24  1  0  0  0  0
 22 25  1  0  0  0  0
M  END
>  <Mol_ID>
2265

>  <Formula>
C18H18F3N3O

>  <MolWeight>
349.3502296

>  <Cat>
S7270

>  <Name>
SRPIN340

>  <Synonyms>
N/A

>  <Target>
Serine/threonin kinase

>  <Form>
free base

>  <CAS>
218156-96-8

>  <URL>
http://selleckchem.com/products/srpin340.html

$$$$
