STAT5-IN-1
 OpenBabel08302521243D

 33 35  0  0  0  0  0  0  0  0999 V2000
   -0.8050    1.0838   -0.0524 C   0  0  0  0  0  0  0  0  0  0  0  0
    0.1027    0.9810   -1.0911 C   0  0  0  0  0  0  0  0  0  0  0  0
    0.8472   -0.1918   -1.1995 C   0  0  0  0  0  0  0  0  0  0  0  0
    0.6640   -1.2303   -0.2807 C   0  0  0  0  0  0  0  0  0  0  0  0
   -0.2681   -1.0287    0.7287 C   0  0  0  0  0  0  0  0  0  0  0  0
   -1.0103    0.1047    0.8590 N   0  0  0  0  0  0  0  0  0  0  0  0
    1.5073   -2.4513   -0.4047 C   0  0  0  0  0  0  0  0  0  0  0  0
    0.9727   -3.6429    0.0642 N   0  0  0  0  0  0  0  0  0  0  0  0
    2.6064   -2.3359   -0.9487 O   0  0  0  0  0  0  0  0  0  0  0  0
    1.5552   -4.8840   -0.0338 N   0  0  0  0  0  0  0  0  0  0  0  0
    2.8507   -5.0000    0.0051 C   0  0  0  0  0  0  0  0  0  0  0  0
    3.5270   -6.3241   -0.0526 C   0  0  0  0  0  0  0  0  0  0  0  0
    2.7815   -7.4250   -0.2059 C   0  0  0  0  0  0  0  0  0  0  0  0
    3.2336   -8.7207   -0.2565 O   0  0  0  0  0  0  0  0  0  0  0  0
    4.5871   -8.9252   -0.1353 C   0  0  0  0  0  0  0  0  0  0  0  0
    5.4937   -7.8788    0.0343 C   0  0  0  0  0  0  0  0  0  0  0  0
    4.9897   -6.4916    0.0949 C   0  0  0  0  0  0  0  0  0  0  0  0
    5.7453   -5.5459    0.2748 O   0  0  0  0  0  0  0  0  0  0  0  0
    5.0325  -10.2428   -0.1816 C   0  0  0  0  0  0  0  0  0  0  0  0
    6.3969  -10.5159   -0.0621 C   0  0  0  0  0  0  0  0  0  0  0  0
    7.3081   -9.4706    0.1070 C   0  0  0  0  0  0  0  0  0  0  0  0
    6.8601   -8.1506    0.1573 C   0  0  0  0  0  0  0  0  0  0  0  0
   -1.4071    1.9800    0.0766 H   0  0  0  0  0  0  0  0  0  0  0  0
    0.2342    1.7922   -1.8006 H   0  0  0  0  0  0  0  0  0  0  0  0
    1.5730   -0.2939   -2.0039 H   0  0  0  0  0  0  0  0  0  0  0  0
   -0.4579   -1.7621    1.5061 H   0  0  0  0  0  0  0  0  0  0  0  0
   -0.0152   -3.6949    0.2921 H   0  0  0  0  0  0  0  0  0  0  0  0
    3.5310   -4.1463    0.1540 H   0  0  0  0  0  0  0  0  0  0  0  0
    1.7024   -7.4119   -0.3007 H   0  0  0  0  0  0  0  0  0  0  0  0
    4.3242  -11.0570   -0.3081 H   0  0  0  0  0  0  0  0  0  0  0  0
    6.7501  -11.5440   -0.0994 H   0  0  0  0  0  0  0  0  0  0  0  0
    8.3704   -9.6865    0.2016 H   0  0  0  0  0  0  0  0  0  0  0  0
    7.5718   -7.3385    0.2943 H   0  0  0  0  0  0  0  0  0  0  0  0
  1  2  2  0  0  0  0
  1 23  1  0  0  0  0
  2  3  1  0  0  0  0
  2 24  1  0  0  0  0
  3  4  2  0  0  0  0
  3 25  1  0  0  0  0
  4  5  1  0  0  0  0
  4  7  1  0  0  0  0
  5  6  2  0  0  0  0
  5 26  1  0  0  0  0
  6  1  1  0  0  0  0
  7  8  1  0  0  0  0
  7  9  2  0  0  0  0
  8 10  1  0  0  0  0
  8 27  1  0  0  0  0
 10 11  2  0  0  0  0
 11 12  1  0  0  0  0
 11 28  1  0  0  0  0
 12 13  2  0  0  0  0
 13 14  1  0  0  0  0
 13 29  1  0  0  0  0
 14 15  1  0  0  0  0
 15 16  2  0  0  0  0
 15 19  1  0  0  0  0
 16 17  1  0  0  0  0
 17 12  1  0  0  0  0
 17 18  2  0  0  0  0
 19 20  2  0  0  0  0
 19 30  1  0  0  0  0
 20 21  1  0  0  0  0
 20 31  1  0  0  0  0
 21 22  2  0  0  0  0
 21 32  1  0  0  0  0
 22 16  1  0  0  0  0
 22 33  1  0  0  0  0
M  END
>  <Mol_ID>
4931

>  <Formula>
C16H11N3O3

>  <MolWeight>
293.27684

>  <Cat>
S6784

>  <Name>
STAT5-IN-1

>  <Synonyms>
N/A

>  <Target>
STAT

>  <Form>
Free Base

>  <CAS>
285986-31-4

>  <URL>
http://www.selleckchem.com/products/stat-in-1.html

$$$$
