STATTIC.cdx
 OpenBabel08302519553D

 19 20  0  0  0  0  0  0  0  0999 V2000
   -2.4854    1.3503    0.0011 C   0  0  0  0  0  0  0  0  0  0  0  0
   -3.0843    0.0691   -0.0071 C   0  0  0  0  0  0  0  0  0  0  0  0
   -2.2916   -1.0885   -0.0011 C   0  0  0  0  0  0  0  0  0  0  0  0
   -0.9127   -0.9505    0.0074 C   0  0  0  0  0  0  0  0  0  0  0  0
   -0.3534    0.3278    0.0158 C   0  0  0  0  0  0  0  0  0  0  0  0
   -1.0936    1.4970    0.0155 C   0  0  0  0  0  0  0  0  0  0  0  0
    0.0896   -2.0112   -0.0080 C   0  0  0  0  0  0  0  0  0  0  0  0
    1.3459   -1.5362   -0.0258 C   0  0  0  0  0  0  0  0  0  0  0  0
    1.3912    0.2032   -0.0073 S   0  0  0  0  0  0  0  0  0  0  0  0
    1.8855    0.6808    1.2654 O   0  0  0  0  0  0  0  0  0  0  0  0
    1.8512    0.7103   -1.2812 O   0  0  0  0  0  0  0  0  0  0  0  0
   -3.3413    2.5457   -0.0150 N   0  3  0  0  0  0  0  0  0  0  0  0
   -4.5676    2.3736   -0.0386 O   0  0  0  0  0  0  0  0  0  0  0  0
   -2.7834    3.6513   -0.0051 O   0  5  0  0  0  0  0  0  0  0  0  0
   -4.1687   -0.0395   -0.0241 H   0  0  0  0  0  0  0  0  0  0  0  0
   -2.7596   -2.0696   -0.0122 H   0  0  0  0  0  0  0  0  0  0  0  0
   -0.6027    2.4659    0.0190 H   0  0  0  0  0  0  0  0  0  0  0  0
   -0.1749   -3.0592   -0.0119 H   0  0  0  0  0  0  0  0  0  0  0  0
    2.2546   -2.1146   -0.0479 H   0  0  0  0  0  0  0  0  0  0  0  0
  1  2  2  0  0  0  0
  1 12  1  0  0  0  0
  2  3  1  0  0  0  0
  2 15  1  0  0  0  0
  3  4  2  0  0  0  0
  3 16  1  0  0  0  0
  4  5  1  0  0  0  0
  4  7  1  0  0  0  0
  5  6  2  0  0  0  0
  6  1  1  0  0  0  0
  6 17  1  0  0  0  0
  7  8  2  0  0  0  0
  7 18  1  0  0  0  0
  8  9  1  0  0  0  0
  8 19  1  0  0  0  0
  9  5  1  0  0  0  0
  9 10  2  0  0  0  0
  9 11  2  0  0  0  0
 12 13  2  0  0  0  0
 12 14  1  0  0  0  0
M  CHG  2  12   1  14  -1
M  END
>  <Mol_ID>
2143

>  <Formula>
C8H5NO4S

>  <MolWeight>
211.1946

>  <Cat>
S7024

>  <Name>
Stattic

>  <Synonyms>
N/A

>  <Target>
Apoptosis related,STAT

>  <Form>
free base

>  <CAS>
19983-44-9

>  <URL>
http://selleckchem.com/products/stattic.html

$$$$
