дк-Stat (NSC37044)
 OpenBabel08302521453D

 31 32  0  0  0  0  0  0  0  0999 V2000
    0.9779   -1.4690    0.0111 C   0  0  0  0  0  0  0  0  0  0  0  0
    2.3447   -1.1365    0.0092 C   0  0  0  0  0  0  0  0  0  0  0  0
    2.7237    0.1992   -0.0063 C   0  0  0  0  0  0  0  0  0  0  0  0
    1.7655    1.2063   -0.0046 C   0  0  0  0  0  0  0  0  0  0  0  0
    0.4001    0.8952    0.0031 C   0  0  0  0  0  0  0  0  0  0  0  0
   -0.5108    1.9613   -0.0085 C   0  0  0  0  0  0  0  0  0  0  0  0
   -1.8809    1.7198    0.0116 C   0  0  0  0  0  0  0  0  0  0  0  0
   -2.3673    0.4195    0.0318 C   0  0  0  0  0  0  0  0  0  0  0  0
   -1.4599   -0.6457    0.0349 C   0  0  0  0  0  0  0  0  0  0  0  0
   -0.0443   -0.4596    0.0190 C   0  0  0  0  0  0  0  0  0  0  0  0
    0.5926   -3.2108   -0.0460 S   0  0  0  0  0  0  0  0  0  0  0  0
   -0.0348   -3.6046    1.1956 O   0  0  0  0  0  0  0  0  0  0  0  0
    0.0421   -3.5208   -1.3463 O   0  0  0  0  0  0  0  0  0  0  0  0
    2.0287   -3.9570   -0.0377 O   0  0  0  0  0  0  0  0  0  0  0  0
    4.4336    0.6483   -0.0091 S   0  0  0  0  0  0  0  0  0  0  0  0
    4.8508    0.7589   -1.3874 O   0  0  0  0  0  0  0  0  0  0  0  0
    4.6097    1.7345    0.9285 O   0  0  0  0  0  0  0  0  0  0  0  0
    5.2138   -0.6169    0.6145 O   0  0  0  0  0  0  0  0  0  0  0  0
   -3.0088    3.0832   -0.0204 S   0  0  0  0  0  0  0  0  0  0  0  0
   -4.2002    2.6705   -0.7251 O   0  0  0  0  0  0  0  0  0  0  0  0
   -3.0674    3.6343    1.3156 O   0  0  0  0  0  0  0  0  0  0  0  0
   -2.3045    4.1968   -0.9496 O   0  0  0  0  0  0  0  0  0  0  0  0
   -1.9707   -1.9125    0.0569 O   0  0  0  0  0  0  0  0  0  0  0  0
    3.1114   -1.9080    0.0043 H   0  0  0  0  0  0  0  0  0  0  0  0
    2.0934    2.2464   -0.0122 H   0  0  0  0  0  0  0  0  0  0  0  0
   -0.1540    2.9913   -0.0281 H   0  0  0  0  0  0  0  0  0  0  0  0
   -3.4403    0.2440    0.0466 H   0  0  0  0  0  0  0  0  0  0  0  0
    1.8924   -4.8623   -0.3864 H   0  0  0  0  0  0  0  0  0  0  0  0
    6.1705   -0.4019    0.6341 H   0  0  0  0  0  0  0  0  0  0  0  0
   -2.9104    4.9623   -1.0230 H   0  0  0  0  0  0  0  0  0  0  0  0
   -2.9430   -1.8934    0.0332 H   0  0  0  0  0  0  0  0  0  0  0  0
  1  2  2  0  0  0  0
  1 10  1  0  0  0  0
  1 11  1  0  0  0  0
  2  3  1  0  0  0  0
  2 24  1  0  0  0  0
  3  4  2  0  0  0  0
  3 15  1  0  0  0  0
  4  5  1  0  0  0  0
  4 25  1  0  0  0  0
  5  6  1  0  0  0  0
  5 10  2  0  0  0  0
  6  7  2  0  0  0  0
  6 26  1  0  0  0  0
  7  8  1  0  0  0  0
  7 19  1  0  0  0  0
  8  9  2  0  0  0  0
  8 27  1  0  0  0  0
  9 10  1  0  0  0  0
  9 23  1  0  0  0  0
 11 12  2  0  0  0  0
 11 13  2  0  0  0  0
 11 14  1  0  0  0  0
 14 28  1  0  0  0  0
 15 16  2  0  0  0  0
 15 17  2  0  0  0  0
 15 18  1  0  0  0  0
 18 29  1  0  0  0  0
 19 20  2  0  0  0  0
 19 21  2  0  0  0  0
 19 22  1  0  0  0  0
 22 30  1  0  0  0  0
 23 31  1  0  0  0  0
M  END
>  <Mol_ID>
9421

>  <Formula>
C10H8O10S3

>  <MolWeight>
384.35952

>  <Cat>
E2403

>  <Name>
дк-Stat (NSC37044)

>  <Target>
PKC

>  <Form>
free base

>  <CAS>
3316-02-7

>  <URL>
http://www.selleckchem.com/products/zeta-stat-nsc37044-.html

$$$$
