Staurosporine (AM-2282)
 OpenBabel08302521263D

 61 68  0  0  0  0  0  0  0  0999 V2000
    1.7011   -1.5795   -0.9888 C   0  0  2  0  0  0  0  0  0  0  0  0
    2.5105   -1.2880    0.3367 C   0  0  1  0  0  0  0  0  0  0  0  0
    2.9288    0.2090    0.3966 C   0  0  1  0  0  0  0  0  0  0  0  0
    1.7043    1.0910    0.1919 C   0  0  0  0  0  0  0  0  0  0  0  0
    1.0168    0.7602   -1.1222 C   0  0  1  0  0  0  0  0  0  0  0  0
    1.5121   -0.3929   -1.7890 O   0  0  0  0  0  0  0  0  0  0  0  0
    0.4101   -2.1864   -0.7475 N   0  0  0  0  0  0  0  0  0  0  0  0
   -0.6669   -1.5877   -0.1527 C   0  0  0  0  0  0  0  0  0  0  0  0
   -1.6019   -2.3605    0.5116 C   0  0  0  0  0  0  0  0  0  0  0  0
   -1.4290   -3.5478   -0.2476 C   0  0  0  0  0  0  0  0  0  0  0  0
   -0.0713   -3.5184   -0.7642 C   0  0  0  0  0  0  0  0  0  0  0  0
   -2.2568   -4.6234   -0.6380 C   0  0  0  0  0  0  0  0  0  0  0  0
   -1.6956   -5.7450   -1.2531 C   0  0  0  0  0  0  0  0  0  0  0  0
   -0.3180   -5.8368   -1.4014 C   0  0  0  0  0  0  0  0  0  0  0  0
    0.5127   -4.7334   -1.1694 C   0  0  0  0  0  0  0  0  0  0  0  0
   -1.1535   -0.3610   -0.5300 C   0  0  0  0  0  0  0  0  0  0  0  0
   -2.5372   -0.1884   -0.4068 C   0  0  0  0  0  0  0  0  0  0  0  0
   -3.4284   -0.8280    0.4982 C   0  0  0  0  0  0  0  0  0  0  0  0
   -2.8298   -1.9753    1.0741 C   0  0  0  0  0  0  0  0  0  0  0  0
   -0.4079    0.6543   -0.9983 N   0  0  0  0  0  0  0  0  0  0  0  0
   -1.3875    1.6369   -1.1568 C   0  0  0  0  0  0  0  0  0  0  0  0
   -2.7034    1.0487   -1.0590 C   0  0  0  0  0  0  0  0  0  0  0  0
   -1.2471    3.0081   -1.3826 C   0  0  0  0  0  0  0  0  0  0  0  0
   -2.3443    3.6975   -1.8949 C   0  0  0  0  0  0  0  0  0  0  0  0
   -3.5474    3.0441   -2.1420 C   0  0  0  0  0  0  0  0  0  0  0  0
   -3.7665    1.7482   -1.6588 C   0  0  0  0  0  0  0  0  0  0  0  0
   -4.3909   -0.2861    1.4083 C   0  0  0  0  0  0  0  0  0  0  0  0
   -4.1648   -1.0101    2.5858 N   0  0  0  0  0  0  0  0  0  0  0  0
   -3.0675   -1.9531    2.5411 C   0  0  0  0  0  0  0  0  0  0  0  0
   -5.2140    0.6190    1.3399 O   0  0  0  0  0  0  0  0  0  0  0  0
    2.5801   -2.4181   -1.9360 C   0  0  0  0  0  0  0  0  0  0  0  0
    1.7951   -1.5576    1.5680 O   0  0  0  0  0  0  0  0  0  0  0  0
    1.8412   -2.9138    1.9949 C   0  0  0  0  0  0  0  0  0  0  0  0
    3.5126    0.6190    1.6928 N   0  0  0  0  0  0  0  0  0  0  0  0
    4.7890   -0.0184    1.9646 C   0  0  0  0  0  0  0  0  0  0  0  0
    3.4248   -1.8922    0.3466 H   0  0  0  0  0  0  0  0  0  0  0  0
    3.6463    0.4238   -0.4064 H   0  0  0  0  0  0  0  0  0  0  0  0
    1.0054    0.9960    1.0363 H   0  0  0  0  0  0  0  0  0  0  0  0
    1.9886    2.1527    0.1822 H   0  0  0  0  0  0  0  0  0  0  0  0
    1.1935    1.5855   -1.8200 H   0  0  0  0  0  0  0  0  0  0  0  0
   -3.3358   -4.5735   -0.4885 H   0  0  0  0  0  0  0  0  0  0  0  0
   -2.3338   -6.5622   -1.5802 H   0  0  0  0  0  0  0  0  0  0  0  0
    0.1207   -6.7692   -1.7517 H   0  0  0  0  0  0  0  0  0  0  0  0
    1.5759   -4.8347   -1.3409 H   0  0  0  0  0  0  0  0  0  0  0  0
   -0.3022    3.5153   -1.2145 H   0  0  0  0  0  0  0  0  0  0  0  0
   -2.2356    4.7475   -2.1531 H   0  0  0  0  0  0  0  0  0  0  0  0
   -4.3333    3.5539   -2.6929 H   0  0  0  0  0  0  0  0  0  0  0  0
   -4.7181    1.2535   -1.8341 H   0  0  0  0  0  0  0  0  0  0  0  0
   -4.6178   -0.7247    3.4412 H   0  0  0  0  0  0  0  0  0  0  0  0
   -3.3124   -2.9028    3.0001 H   0  0  0  0  0  0  0  0  0  0  0  0
   -2.2014   -1.4881    3.0371 H   0  0  0  0  0  0  0  0  0  0  0  0
    1.9974   -2.7965   -2.7857 H   0  0  0  0  0  0  0  0  0  0  0  0
    3.3790   -1.8048   -2.3716 H   0  0  0  0  0  0  0  0  0  0  0  0
    3.0516   -3.2644   -1.4303 H   0  0  0  0  0  0  0  0  0  0  0  0
    1.2157   -3.5545    1.3793 H   0  0  0  0  0  0  0  0  0  0  0  0
    2.8620   -3.3015    1.9921 H   0  0  0  0  0  0  0  0  0  0  0  0
    1.4413   -2.9642    3.0104 H   0  0  0  0  0  0  0  0  0  0  0  0
    2.8485    0.3402    2.4234 H   0  0  0  0  0  0  0  0  0  0  0  0
    5.5373    0.2719    1.2207 H   0  0  0  0  0  0  0  0  0  0  0  0
    5.1486    0.3049    2.9456 H   0  0  0  0  0  0  0  0  0  0  0  0
    4.7096   -1.1085    1.9909 H   0  0  0  0  0  0  0  0  0  0  0  0
  1  2  1  0  0  0  0
  1  7  1  0  0  0  0
  1 31  1  6  0  0  0
  2  3  1  0  0  0  0
  2 32  1  0  0  0  0
  2 36  1  6  0  0  0
  3  4  1  0  0  0  0
  3 34  1  0  0  0  0
  3 37  1  6  0  0  0
  4 38  1  0  0  0  0
  4 39  1  0  0  0  0
  5  4  1  0  0  0  0
  5  6  1  0  0  0  0
  5 20  1  0  0  0  0
  5 40  1  6  0  0  0
  6  1  1  0  0  0  0
  7  8  1  0  0  0  0
  8  9  1  0  0  0  0
  8 16  2  0  0  0  0
  9 10  1  0  0  0  0
 10 11  2  0  0  0  0
 10 12  1  0  0  0  0
 11  7  1  0  0  0  0
 12 13  2  0  0  0  0
 12 41  1  0  0  0  0
 13 14  1  0  0  0  0
 13 42  1  0  0  0  0
 14 15  2  0  0  0  0
 14 43  1  0  0  0  0
 15 11  1  0  0  0  0
 15 44  1  0  0  0  0
 16 17  1  0  0  0  0
 16 20  1  0  0  0  0
 17 18  2  0  0  0  0
 18 19  1  0  0  0  0
 18 27  1  0  0  0  0
 19  9  2  0  0  0  0
 20 21  1  0  0  0  0
 21 22  2  0  0  0  0
 21 23  1  0  0  0  0
 22 17  1  0  0  0  0
 23 24  2  0  0  0  0
 23 45  1  0  0  0  0
 24 25  1  0  0  0  0
 24 46  1  0  0  0  0
 25 26  2  0  0  0  0
 25 47  1  0  0  0  0
 26 22  1  0  0  0  0
 26 48  1  0  0  0  0
 27 28  1  0  0  0  0
 27 30  2  0  0  0  0
 28 29  1  0  0  0  0
 28 49  1  0  0  0  0
 29 19  1  0  0  0  0
 29 50  1  0  0  0  0
 29 51  1  0  0  0  0
 31 52  1  0  0  0  0
 31 53  1  0  0  0  0
 31 54  1  0  0  0  0
 32 33  1  0  0  0  0
 33 55  1  0  0  0  0
 33 56  1  0  0  0  0
 33 57  1  0  0  0  0
 34 35  1  0  0  0  0
 34 58  1  0  0  0  0
 35 59  1  0  0  0  0
 35 60  1  0  0  0  0
 35 61  1  0  0  0  0
M  END
>  <Mol_ID>
5254

>  <Formula>
C28H26N4O3

>  <MolWeight>
466.53104

>  <Cat>
S1421

>  <Name>
Staurosporine (AM-2282)

>  <Synonyms>
Antibiotic AM-2282, STS

>  <Target>
ADC Cytotoxin,Antineoplastic and Immunosuppressive Antibiotics,CaMK,PKA,PKC,PKG,S6 Kinase

>  <Form>
Free Base

>  <CAS>
62996-74-1

>  <URL>
https://www.selleckchem.com/products/Staurosporine.html

$$$$
