Stavudine.cdx
 OpenBabel08302519503D

 28 29  0  0  0  0  0  0  0  0999 V2000
   -1.1306   -0.0107    0.1341 O   0  0  0  0  0  0  0  0  0  0  0  0
   -0.3376    1.1886   -0.0135 C   0  0  2  0  0  0  0  0  0  0  0  0
    1.0766    0.7243    0.0183 C   0  0  0  0  0  0  0  0  0  0  0  0
    1.1236   -0.6073   -0.0003 C   0  0  0  0  0  0  0  0  0  0  0  0
   -0.2575   -1.1561   -0.0416 C   0  0  1  0  0  0  0  0  0  0  0  0
   -0.5512   -2.1657    1.0736 C   0  0  0  0  0  0  0  0  0  0  0  0
   -1.9105   -2.5978    1.0112 O   0  0  0  0  0  0  0  0  0  0  0  0
   -0.5956    2.1098    1.0837 N   0  0  0  0  0  0  0  0  0  0  0  0
   -0.4579    3.4647    0.8204 C   0  0  0  0  0  0  0  0  0  0  0  0
   -0.7048    4.3021    1.8760 N   0  0  0  0  0  0  0  0  0  0  0  0
   -0.9681    3.9246    3.1616 C   0  0  0  0  0  0  0  0  0  0  0  0
   -1.0780    2.4678    3.3944 C   0  0  0  0  0  0  0  0  0  0  0  0
   -0.8922    1.6505    2.3535 C   0  0  0  0  0  0  0  0  0  0  0  0
   -0.1241    3.9277   -0.2684 O   0  0  0  0  0  0  0  0  0  0  0  0
   -1.0939    4.7394    4.0684 O   0  0  0  0  0  0  0  0  0  0  0  0
   -1.3791    2.0004    4.7812 C   0  0  0  0  0  0  0  0  0  0  0  0
   -0.5794    1.6463   -0.9796 H   0  0  0  0  0  0  0  0  0  0  0  0
    1.9293    1.3869    0.0152 H   0  0  0  0  0  0  0  0  0  0  0  0
    2.0232   -1.2047   -0.0183 H   0  0  0  0  0  0  0  0  0  0  0  0
   -0.4841   -1.5921   -1.0208 H   0  0  0  0  0  0  0  0  0  0  0  0
    0.0915   -3.0474    0.9863 H   0  0  0  0  0  0  0  0  0  0  0  0
   -0.3986   -1.7239    2.0636 H   0  0  0  0  0  0  0  0  0  0  0  0
   -2.4477   -1.7857    0.9349 H   0  0  0  0  0  0  0  0  0  0  0  0
   -0.6043    5.2898    1.7035 H   0  0  0  0  0  0  0  0  0  0  0  0
   -0.9629    0.5754    2.4797 H   0  0  0  0  0  0  0  0  0  0  0  0
   -0.5797    2.3005    5.4672 H   0  0  0  0  0  0  0  0  0  0  0  0
   -2.3234    2.4251    5.1354 H   0  0  0  0  0  0  0  0  0  0  0  0
   -1.4663    0.9098    4.8299 H   0  0  0  0  0  0  0  0  0  0  0  0
  1  2  1  0  0  0  0
  2  3  1  0  0  0  0
  2 17  1  6  0  0  0
  2  8  1  0  0  0  0
  3  4  2  0  0  0  0
  3 18  1  0  0  0  0
  4  5  1  0  0  0  0
  4 19  1  0  0  0  0
  5  1  1  0  0  0  0
  5  6  1  0  0  0  0
  5 20  1  6  0  0  0
  6  7  1  0  0  0  0
  6 21  1  0  0  0  0
  6 22  1  0  0  0  0
  7 23  1  0  0  0  0
  8  9  1  0  0  0  0
  9 10  1  0  0  0  0
  9 14  2  0  0  0  0
 10 11  1  0  0  0  0
 10 24  1  0  0  0  0
 11 12  1  0  0  0  0
 11 15  2  0  0  0  0
 12 13  2  0  0  0  0
 12 16  1  0  0  0  0
 13  8  1  0  0  0  0
 13 25  1  0  0  0  0
 16 26  1  0  0  0  0
 16 27  1  0  0  0  0
 16 28  1  0  0  0  0
M  END
>  <Mol_ID>
1637

>  <Formula>
C10H12N2O4

>  <MolWeight>
224.21328

>  <Cat>
S1398

>  <Name>
Stavudine (d4T)

>  <Synonyms>
BMY-27857, Sanilvudine, NSC 163661,d4T

>  <Target>
Reverse Transcriptase

>  <Form>
free base

>  <CAS>
3056-17-5

>  <URL>
http://selleckchem.com/products/Stavudine.html

$$$$
