Steviol (Hydroxydehydrostevic acid)
 OpenBabel08302521253D

 53 56  0  0  0  0  0  0  0  0999 V2000
    2.7545    1.0097    1.5827 C   0  0  0  0  0  0  0  0  0  0  0  0
    3.0315    1.6231    0.1555 C   0  0  0  0  0  0  0  0  0  0  0  0
    1.7424    2.3530   -0.2458 C   0  0  2  0  0  0  0  0  0  0  0  0
    0.7567    1.0859   -0.2607 C   0  0  2  0  0  0  0  0  0  0  0  0
    1.1702   -0.4168    0.2528 C   0  0  1  0  0  0  0  0  0  0  0  0
    2.0761   -0.3424    1.4990 C   0  0  0  0  0  0  0  0  0  0  0  0
    0.1144    0.9465   -1.6816 C   0  0  0  0  0  0  0  0  0  0  0  0
   -0.7157   -0.3029   -1.8893 C   0  0  0  0  0  0  0  0  0  0  0  0
   -1.2306   -0.9618   -0.6053 C   0  0  1  0  0  0  0  0  0  0  0  0
   -0.2449   -1.0111    0.5998 C   0  0  1  0  0  0  0  0  0  0  0  0
   -2.4907   -0.2556   -0.0405 C   0  0  0  0  0  0  0  0  0  0  0  0
   -3.4306   -1.4254    0.0402 C   0  0  0  0  0  0  0  0  0  0  0  0
   -2.6512   -2.7217    0.0914 C   0  0  2  0  0  0  0  0  0  0  0  0
   -1.6906   -3.1178    1.2400 C   0  0  0  0  0  0  0  0  0  0  0  0
   -0.4669   -2.2155    1.5381 C   0  0  0  0  0  0  0  0  0  0  0  0
    0.6499    3.4198   -0.6291 C   0  0  0  0  0  0  0  0  0  0  0  0
   -0.3887    3.6292    0.0274 O   0  0  0  0  0  0  0  0  0  0  0  0
    0.8542    4.0963   -1.7810 O   0  0  0  0  0  0  0  0  0  0  0  0
   -1.7217   -2.3681   -1.0460 C   0  0  0  0  0  0  0  0  0  0  0  0
   -4.6966   -1.2283   -0.3781 C   0  0  0  0  0  0  0  0  0  0  0  0
    1.8973   -1.3433   -0.7746 C   0  0  0  0  0  0  0  0  0  0  0  0
   -3.5008   -3.8055   -0.1901 O   0  0  0  0  0  0  0  0  0  0  0  0
    2.1874    3.5871    0.7749 C   0  0  0  0  0  0  0  0  0  0  0  0
    2.0513    1.6413    2.1504 H   0  0  0  0  0  0  0  0  0  0  0  0
    3.6586    0.9659    2.1956 H   0  0  0  0  0  0  0  0  0  0  0  0
    3.9513    2.2217    0.1642 H   0  0  0  0  0  0  0  0  0  0  0  0
    3.2963    0.8289   -0.5514 H   0  0  0  0  0  0  0  0  0  0  0  0
   -0.0483    1.3872    0.4188 H   0  0  0  0  0  0  0  0  0  0  0  0
    1.5182   -0.5295    2.4227 H   0  0  0  0  0  0  0  0  0  0  0  0
    2.8573   -1.1125    1.4829 H   0  0  0  0  0  0  0  0  0  0  0  0
   -0.5564    1.7867   -1.8904 H   0  0  0  0  0  0  0  0  0  0  0  0
    0.8876    0.9894   -2.4630 H   0  0  0  0  0  0  0  0  0  0  0  0
   -1.5583   -0.0710   -2.5563 H   0  0  0  0  0  0  0  0  0  0  0  0
   -0.1301   -1.0315   -2.4647 H   0  0  0  0  0  0  0  0  0  0  0  0
   -0.5668   -0.2318    1.3046 H   0  0  0  0  0  0  0  0  0  0  0  0
   -2.3860    0.1586    0.9704 H   0  0  0  0  0  0  0  0  0  0  0  0
   -2.8245    0.5695   -0.6769 H   0  0  0  0  0  0  0  0  0  0  0  0
   -2.2445   -3.3435    2.1590 H   0  0  0  0  0  0  0  0  0  0  0  0
   -1.2638   -4.0942    0.9522 H   0  0  0  0  0  0  0  0  0  0  0  0
    0.4423   -2.8179    1.6385 H   0  0  0  0  0  0  0  0  0  0  0  0
   -0.6455   -1.8127    2.5483 H   0  0  0  0  0  0  0  0  0  0  0  0
    1.6662    3.8513   -2.2237 H   0  0  0  0  0  0  0  0  0  0  0  0
   -2.2666   -2.3489   -2.0019 H   0  0  0  0  0  0  0  0  0  0  0  0
   -0.9061   -3.0892   -1.1836 H   0  0  0  0  0  0  0  0  0  0  0  0
   -5.3379   -2.0452   -0.6663 H   0  0  0  0  0  0  0  0  0  0  0  0
   -5.0483   -0.2230   -0.6299 H   0  0  0  0  0  0  0  0  0  0  0  0
    2.9659   -1.4664   -0.5578 H   0  0  0  0  0  0  0  0  0  0  0  0
    1.8698   -0.9796   -1.8025 H   0  0  0  0  0  0  0  0  0  0  0  0
    1.4771   -2.3570   -0.7611 H   0  0  0  0  0  0  0  0  0  0  0  0
   -4.1833   -3.7883    0.5055 H   0  0  0  0  0  0  0  0  0  0  0  0
    1.4084    3.9393    1.4535 H   0  0  0  0  0  0  0  0  0  0  0  0
    3.0621    3.4332    1.4259 H   0  0  0  0  0  0  0  0  0  0  0  0
    2.5478    4.4324    0.1506 H   0  0  0  0  0  0  0  0  0  0  0  0
  1  2  1  0  0  0  0
  1 24  1  0  0  0  0
  1 25  1  0  0  0  0
  2  3  1  0  0  0  0
  2 26  1  0  0  0  0
  2 27  1  0  0  0  0
  3  4  1  0  0  0  0
  3 16  1  6  0  0  0
  3 23  1  0  0  0  0
  4  5  1  0  0  0  0
  4  7  1  0  0  0  0
  4 28  1  1  0  0  0
  5  6  1  0  0  0  0
  5 21  1  6  0  0  0
  6  1  1  0  0  0  0
  6 29  1  0  0  0  0
  6 30  1  0  0  0  0
  7  8  1  0  0  0  0
  7 31  1  0  0  0  0
  7 32  1  0  0  0  0
  8 33  1  0  0  0  0
  8 34  1  0  0  0  0
  9  8  1  6  0  0  0
  9 10  1  0  0  0  0
  9 11  1  0  0  0  0
  9 19  1  0  0  0  0
 10  5  1  0  0  0  0
 10 15  1  0  0  0  0
 10 35  1  1  0  0  0
 11 12  1  0  0  0  0
 11 36  1  0  0  0  0
 11 37  1  0  0  0  0
 12 13  1  0  0  0  0
 12 20  2  0  0  0  0
 13 14  1  0  0  0  0
 13 19  1  0  0  0  0
 13 22  1  6  0  0  0
 14 15  1  0  0  0  0
 14 38  1  0  0  0  0
 14 39  1  0  0  0  0
 15 40  1  0  0  0  0
 15 41  1  0  0  0  0
 16 17  2  0  0  0  0
 16 18  1  0  0  0  0
 18 42  1  0  0  0  0
 19 43  1  0  0  0  0
 19 44  1  0  0  0  0
 20 45  1  0  0  0  0
 20 46  1  0  0  0  0
 21 47  1  0  0  0  0
 21 48  1  0  0  0  0
 21 49  1  0  0  0  0
 22 50  1  0  0  0  0
 23 51  1  0  0  0  0
 23 52  1  0  0  0  0
 23 53  1  0  0  0  0
M  END
>  <Mol_ID>
5147

>  <Formula>
C20H30O3

>  <MolWeight>
318.4504

>  <Cat>
S3272

>  <Name>
Steviol (Hydroxydehydrostevic acid)

>  <Synonyms>
Hydroxy Dehydrostevic Acid, NSC 226902

>  <Target>
Aquaporin,CFTR

>  <Form>
free base

>  <CAS>
471-80-7

>  <URL>
http://www.selleckchem.com/products/steviol-hydroxydehydrostevic-acid-.html

$$$$
