STF-083010.cdx
 OpenBabel08302519593D

 32 34  0  0  0  0  0  0  0  0999 V2000
    2.0553   -0.2853   -0.0327 C   0  0  0  0  0  0  0  0  0  0  0  0
    1.8403    1.0873   -0.0418 C   0  0  0  0  0  0  0  0  0  0  0  0
    0.5364    1.5771   -0.0206 C   0  0  0  0  0  0  0  0  0  0  0  0
   -0.5662    0.7096   -0.0042 C   0  0  0  0  0  0  0  0  0  0  0  0
   -0.3690   -0.6971    0.0043 C   0  0  0  0  0  0  0  0  0  0  0  0
    0.9742   -1.1810    0.0072 C   0  0  0  0  0  0  0  0  0  0  0  0
   -1.8659    1.2460    0.0004 C   0  0  0  0  0  0  0  0  0  0  0  0
   -2.9874    0.4200    0.0052 C   0  0  0  0  0  0  0  0  0  0  0  0
   -2.8229   -0.9557   -0.0044 C   0  0  0  0  0  0  0  0  0  0  0  0
   -1.5371   -1.5021   -0.0139 C   0  0  0  0  0  0  0  0  0  0  0  0
    1.3198   -2.6226    0.0868 C   0  0  0  0  0  0  0  0  0  0  0  0
    0.5729   -3.4773    0.7007 N   0  0  0  0  0  0  0  0  0  0  0  0
    1.0767   -5.0128    0.7376 S   0  0  0  0  0  0  0  0  0  0  0  0
   -0.3271   -5.7347    1.5682 C   0  0  0  0  0  0  0  0  0  0  0  0
   -0.4602   -6.3394    2.8050 C   0  0  0  0  0  0  0  0  0  0  0  0
   -1.8028   -6.7311    3.0790 C   0  0  0  0  0  0  0  0  0  0  0  0
   -2.6510   -6.4186    2.0403 C   0  0  0  0  0  0  0  0  0  0  0  0
   -1.8260   -5.6786    0.7374 S   0  0  0  0  0  0  0  0  0  0  0  0
    3.3396   -0.7600   -0.0364 O   0  0  0  0  0  0  0  0  0  0  0  0
    1.1048   -5.5873   -0.5902 O   0  0  0  0  0  0  0  0  0  0  0  0
    2.1783   -5.1600    1.6668 O   0  0  0  0  0  0  0  0  0  0  0  0
    2.6668    1.7913   -0.0563 H   0  0  0  0  0  0  0  0  0  0  0  0
    0.3848    2.6555   -0.0213 H   0  0  0  0  0  0  0  0  0  0  0  0
   -2.0179    2.3237   -0.0027 H   0  0  0  0  0  0  0  0  0  0  0  0
   -3.9848    0.8513    0.0102 H   0  0  0  0  0  0  0  0  0  0  0  0
   -3.6891   -1.6126   -0.0071 H   0  0  0  0  0  0  0  0  0  0  0  0
   -1.4676   -2.5850   -0.0449 H   0  0  0  0  0  0  0  0  0  0  0  0
    2.2763   -2.9295   -0.3783 H   0  0  0  0  0  0  0  0  0  0  0  0
    0.3758   -6.4753    3.4816 H   0  0  0  0  0  0  0  0  0  0  0  0
   -2.1306   -7.2106    3.9933 H   0  0  0  0  0  0  0  0  0  0  0  0
   -3.7169   -6.5921    1.9791 H   0  0  0  0  0  0  0  0  0  0  0  0
    3.9616   -0.0131   -0.0048 H   0  0  0  0  0  0  0  0  0  0  0  0
  1  2  2  0  0  0  0
  1 19  1  0  0  0  0
  2  3  1  0  0  0  0
  2 22  1  0  0  0  0
  3  4  2  0  0  0  0
  3 23  1  0  0  0  0
  4  5  1  0  0  0  0
  4  7  1  0  0  0  0
  5  6  2  0  0  0  0
  6  1  1  0  0  0  0
  6 11  1  0  0  0  0
  7  8  2  0  0  0  0
  7 24  1  0  0  0  0
  8  9  1  0  0  0  0
  8 25  1  0  0  0  0
  9 10  2  0  0  0  0
  9 26  1  0  0  0  0
 10  5  1  0  0  0  0
 10 27  1  0  0  0  0
 11 12  2  0  0  0  0
 11 28  1  0  0  0  0
 12 13  1  0  0  0  0
 13 14  1  0  0  0  0
 13 20  2  0  0  0  0
 13 21  2  0  0  0  0
 14 15  2  0  0  0  0
 15 16  1  0  0  0  0
 15 29  1  0  0  0  0
 16 17  2  0  0  0  0
 16 30  1  0  0  0  0
 17 18  1  0  0  0  0
 17 31  1  0  0  0  0
 18 14  1  0  0  0  0
 19 32  1  0  0  0  0
M  END
>  <Mol_ID>
2567

>  <Formula>
C15H11NO3S2

>  <MolWeight>
317.38274

>  <Cat>
S7771

>  <Name>
STF-083010

>  <Synonyms>
N/A

>  <Target>
IRE1

>  <Form>
free base

>  <CAS>
307543-71-1

>  <URL>
http://selleckchem.com/products/stf-083010.html

$$$$
