STF-31.cdx
 OpenBabel08302519593D

 55 57  0  0  0  0  0  0  0  0999 V2000
    0.8359    0.1782    1.0393 C   0  0  0  0  0  0  0  0  0  0  0  0
   -0.0781   -0.8850    1.0381 C   0  0  0  0  0  0  0  0  0  0  0  0
   -1.0784   -0.9796    0.0572 C   0  0  0  0  0  0  0  0  0  0  0  0
   -1.1831    0.0371   -0.8957 C   0  0  0  0  0  0  0  0  0  0  0  0
   -0.2606    1.0847   -0.9074 C   0  0  0  0  0  0  0  0  0  0  0  0
    0.7806    1.1492    0.0345 C   0  0  0  0  0  0  0  0  0  0  0  0
    1.7681    2.2648   -0.1177 C   0  0  0  0  0  0  0  0  0  0  0  0
    1.5366    3.1061   -0.9842 O   0  0  0  0  0  0  0  0  0  0  0  0
    2.8922    2.2631    0.6935 N   0  0  0  0  0  0  0  0  0  0  0  0
    3.8519    3.3092    0.7558 C   0  0  0  0  0  0  0  0  0  0  0  0
    3.7580    4.5209    0.0731 C   0  0  0  0  0  0  0  0  0  0  0  0
    4.6434    5.5432    0.1900 N   0  0  0  0  0  0  0  0  0  0  0  0
    5.6816    5.3517    1.0232 C   0  0  0  0  0  0  0  0  0  0  0  0
    5.8891    4.1768    1.7298 C   0  0  0  0  0  0  0  0  0  0  0  0
    4.9593    3.1423    1.5897 C   0  0  0  0  0  0  0  0  0  0  0  0
   -1.9950   -2.1798    0.0015 C   0  0  0  0  0  0  0  0  0  0  0  0
   -2.8175   -2.2939    1.1943 N   0  0  0  0  0  0  0  0  0  0  0  0
   -3.8935   -3.5631    1.3352 S   0  0  0  0  0  0  0  0  0  0  0  0
   -2.8240   -4.9752    1.4788 C   0  0  0  0  0  0  0  0  0  0  0  0
   -2.4025   -5.3912    2.7405 C   0  0  0  0  0  0  0  0  0  0  0  0
   -1.5825   -6.5183    2.8631 C   0  0  0  0  0  0  0  0  0  0  0  0
   -1.1702   -7.2535    1.7361 C   0  0  0  0  0  0  0  0  0  0  0  0
   -1.6316   -6.8187    0.4759 C   0  0  0  0  0  0  0  0  0  0  0  0
   -2.4600   -5.6987    0.3445 C   0  0  0  0  0  0  0  0  0  0  0  0
   -0.2667   -8.4976    1.8451 C   0  0  0  0  0  0  0  0  0  0  0  0
    0.1503   -8.8311    3.2959 C   0  0  0  0  0  0  0  0  0  0  0  0
   -1.0018   -9.7335    1.2827 C   0  0  0  0  0  0  0  0  0  0  0  0
    1.0325   -8.2822    1.0384 C   0  0  0  0  0  0  0  0  0  0  0  0
   -4.5615   -3.3878    2.6061 O   0  0  0  0  0  0  0  0  0  0  0  0
   -4.6253   -3.6781    0.0941 O   0  0  0  0  0  0  0  0  0  0  0  0
    1.5717    0.2116    1.8347 H   0  0  0  0  0  0  0  0  0  0  0  0
    0.0055   -1.6544    1.8036 H   0  0  0  0  0  0  0  0  0  0  0  0
   -1.9666    0.0176   -1.6514 H   0  0  0  0  0  0  0  0  0  0  0  0
   -0.3531    1.8529   -1.6754 H   0  0  0  0  0  0  0  0  0  0  0  0
    3.0725    1.4651    1.2796 H   0  0  0  0  0  0  0  0  0  0  0  0
    2.9444    4.7475   -0.6084 H   0  0  0  0  0  0  0  0  0  0  0  0
    6.3625    6.1941    1.1131 H   0  0  0  0  0  0  0  0  0  0  0  0
    6.7485    4.0757    2.3779 H   0  0  0  0  0  0  0  0  0  0  0  0
    5.1187    2.2233    2.1418 H   0  0  0  0  0  0  0  0  0  0  0  0
   -2.6414   -2.1140   -0.8819 H   0  0  0  0  0  0  0  0  0  0  0  0
   -1.3610   -3.0638   -0.1224 H   0  0  0  0  0  0  0  0  0  0  0  0
   -2.4944   -1.8968    2.0715 H   0  0  0  0  0  0  0  0  0  0  0  0
   -2.7158   -4.8586    3.6363 H   0  0  0  0  0  0  0  0  0  0  0  0
   -1.2872   -6.8087    3.8682 H   0  0  0  0  0  0  0  0  0  0  0  0
   -1.3580   -7.3605   -0.4280 H   0  0  0  0  0  0  0  0  0  0  0  0
   -2.8149   -5.4057   -0.6412 H   0  0  0  0  0  0  0  0  0  0  0  0
   -0.7203   -9.0542    3.9240 H   0  0  0  0  0  0  0  0  0  0  0  0
    0.8057   -9.7092    3.3299 H   0  0  0  0  0  0  0  0  0  0  0  0
    0.6994   -8.0014    3.7570 H   0  0  0  0  0  0  0  0  0  0  0  0
   -1.2831   -9.6066    0.2315 H   0  0  0  0  0  0  0  0  0  0  0  0
   -0.3681  -10.6270    1.3378 H   0  0  0  0  0  0  0  0  0  0  0  0
   -1.9187   -9.9400    1.8466 H   0  0  0  0  0  0  0  0  0  0  0  0
    0.8378   -8.1131   -0.0261 H   0  0  0  0  0  0  0  0  0  0  0  0
    1.5938   -7.4188    1.4139 H   0  0  0  0  0  0  0  0  0  0  0  0
    1.6874   -9.1595    1.1076 H   0  0  0  0  0  0  0  0  0  0  0  0
  1  2  2  0  0  0  0
  1 31  1  0  0  0  0
  2  3  1  0  0  0  0
  2 32  1  0  0  0  0
  3  4  2  0  0  0  0
  3 16  1  0  0  0  0
  4  5  1  0  0  0  0
  4 33  1  0  0  0  0
  5  6  2  0  0  0  0
  5 34  1  0  0  0  0
  6  1  1  0  0  0  0
  6  7  1  0  0  0  0
  7  8  2  0  0  0  0
  7  9  1  0  0  0  0
  9 10  1  0  0  0  0
  9 35  1  0  0  0  0
 10 11  2  0  0  0  0
 11 12  1  0  0  0  0
 11 36  1  0  0  0  0
 12 13  2  0  0  0  0
 13 14  1  0  0  0  0
 13 37  1  0  0  0  0
 14 15  2  0  0  0  0
 14 38  1  0  0  0  0
 15 10  1  0  0  0  0
 15 39  1  0  0  0  0
 16 17  1  0  0  0  0
 16 40  1  0  0  0  0
 16 41  1  0  0  0  0
 17 18  1  0  0  0  0
 17 42  1  0  0  0  0
 18 19  1  0  0  0  0
 18 29  2  0  0  0  0
 18 30  2  0  0  0  0
 19 20  2  0  0  0  0
 20 21  1  0  0  0  0
 20 43  1  0  0  0  0
 21 22  2  0  0  0  0
 21 44  1  0  0  0  0
 22 23  1  0  0  0  0
 22 25  1  0  0  0  0
 23 24  2  0  0  0  0
 23 45  1  0  0  0  0
 24 19  1  0  0  0  0
 24 46  1  0  0  0  0
 25 26  1  0  0  0  0
 25 27  1  0  0  0  0
 25 28  1  0  0  0  0
 26 47  1  0  0  0  0
 26 48  1  0  0  0  0
 26 49  1  0  0  0  0
 27 50  1  0  0  0  0
 27 51  1  0  0  0  0
 27 52  1  0  0  0  0
 28 53  1  0  0  0  0
 28 54  1  0  0  0  0
 28 55  1  0  0  0  0
M  END
>  <Mol_ID>
2613

>  <Formula>
C23H25N3O3S

>  <MolWeight>
423.5279

>  <Cat>
S7931

>  <Name>
STF-31

>  <Synonyms>
N/A

>  <Target>
GLUT

>  <Form>
free base

>  <CAS>
724741-75-7

>  <URL>
http://selleckchem.com/products/stf-31.html

$$$$
