STING inhibitor C-178
 OpenBabel08302521233D

 34 37  0  0  0  0  0  0  0  0999 V2000
   -0.1406    1.4966   -0.3581 O   0  0  0  0  0  0  0  0  0  0  0  0
    7.4014    1.1996   -0.1261 O   0  0  0  0  0  0  0  0  0  0  0  0
    4.4137    3.0758   -0.5947 O   0  0  0  0  0  0  0  0  0  0  0  0
   10.8791    1.1657   -0.2227 O   0  5  0  0  0  0  0  0  0  0  0  0
    9.4279   -0.3703    0.4122 O   0  0  0  0  0  0  0  0  0  0  0  0
    4.6854    0.7967   -0.2269 N   0  0  0  0  0  0  0  0  0  0  0  0
    9.7325    0.7563    0.0006 N   0  3  0  0  0  0  0  0  0  0  0  0
    0.6712   -0.5980   -0.0791 C   0  0  0  0  0  0  0  0  0  0  0  0
   -0.7593   -0.6568   -0.0560 C   0  0  0  0  0  0  0  0  0  0  0  0
    0.9806    0.7371   -0.2947 C   0  0  0  0  0  0  0  0  0  0  0  0
   -1.1929    0.6608   -0.1826 C   0  0  0  0  0  0  0  0  0  0  0  0
    2.2709    1.2452   -0.4076 C   0  0  0  0  0  0  0  0  0  0  0  0
    1.7465   -1.4973    0.0634 C   0  0  0  0  0  0  0  0  0  0  0  0
    3.3378    0.3650   -0.2140 C   0  0  0  0  0  0  0  0  0  0  0  0
    3.0696   -0.9980    0.0130 C   0  0  0  0  0  0  0  0  0  0  0  0
   -1.7415   -1.6578    0.0775 C   0  0  0  0  0  0  0  0  0  0  0  0
   -2.5220    1.0693   -0.1307 C   0  0  0  0  0  0  0  0  0  0  0  0
   -3.0960   -1.2795    0.1023 C   0  0  0  0  0  0  0  0  0  0  0  0
   -3.4761    0.0622    0.0166 C   0  0  0  0  0  0  0  0  0  0  0  0
    5.1318    2.0982   -0.4153 C   0  0  0  0  0  0  0  0  0  0  0  0
    6.5745    2.2549   -0.4157 C   0  0  0  0  0  0  0  0  0  0  0  0
    7.3320    3.3820   -0.6955 C   0  0  0  0  0  0  0  0  0  0  0  0
    8.6720    1.6818   -0.2419 C   0  0  0  0  0  0  0  0  0  0  0  0
    8.6901    3.0082   -0.6004 C   0  0  0  0  0  0  0  0  0  0  0  0
    5.4033    0.0965   -0.0647 H   0  0  0  0  0  0  0  0  0  0  0  0
    2.3832    2.2997   -0.6120 H   0  0  0  0  0  0  0  0  0  0  0  0
    1.5651   -2.5533    0.2431 H   0  0  0  0  0  0  0  0  0  0  0  0
    3.8862   -1.7018    0.1624 H   0  0  0  0  0  0  0  0  0  0  0  0
   -1.4662   -2.7049    0.1570 H   0  0  0  0  0  0  0  0  0  0  0  0
   -2.7887    2.1172   -0.1991 H   0  0  0  0  0  0  0  0  0  0  0  0
   -3.8649   -2.0440    0.1955 H   0  0  0  0  0  0  0  0  0  0  0  0
   -4.5295    0.3324    0.0604 H   0  0  0  0  0  0  0  0  0  0  0  0
    6.9226    4.3525   -0.9578 H   0  0  0  0  0  0  0  0  0  0  0  0
    9.5628    3.6233   -0.7718 H   0  0  0  0  0  0  0  0  0  0  0  0
  1 10  1  0  0  0  0
  1 11  1  0  0  0  0
  2 21  1  0  0  0  0
  2 23  1  0  0  0  0
  3 20  2  0  0  0  0
  4  7  1  0  0  0  0
  5  7  2  0  0  0  0
  6 14  1  0  0  0  0
  6 20  1  0  0  0  0
  6 25  1  0  0  0  0
  7 23  1  0  0  0  0
  8  9  1  0  0  0  0
  8 10  2  0  0  0  0
  8 13  1  0  0  0  0
  9 11  2  0  0  0  0
  9 16  1  0  0  0  0
 10 12  1  0  0  0  0
 11 17  1  0  0  0  0
 12 14  2  0  0  0  0
 12 26  1  0  0  0  0
 13 15  2  0  0  0  0
 13 27  1  0  0  0  0
 14 15  1  0  0  0  0
 15 28  1  0  0  0  0
 16 18  2  0  0  0  0
 16 29  1  0  0  0  0
 17 19  2  0  0  0  0
 17 30  1  0  0  0  0
 18 19  1  0  0  0  0
 18 31  1  0  0  0  0
 19 32  1  0  0  0  0
 20 21  1  0  0  0  0
 21 22  2  0  0  0  0
 22 24  1  0  0  0  0
 22 33  1  0  0  0  0
 23 24  2  0  0  0  0
 24 34  1  0  0  0  0
M  CHG  2   4  -1   7   1
M  END
>  <Mol_ID>
4841

>  <Formula>
C17H10N2O5

>  <MolWeight>
322.2717

>  <Cat>
S6667

>  <Name>
STING inhibitor C-178

>  <Synonyms>
N/A

>  <Target>
STING

>  <Form>
Free Base

>  <CAS>
329198-87-0

>  <URL>
http://www.selleck.cn/products/c-178.html

$$$$
