STING agonist-1 (G10)
 OpenBabel08302521243D

 45 48  0  0  0  0  0  0  0  0999 V2000
    0.6027   -1.8631   -0.1563 S   0  0  0  0  0  0  0  0  0  0  0  0
   -1.4884    2.7342   -2.3500 F   0  0  0  0  0  0  0  0  0  0  0  0
    3.0930    0.9290   -0.3420 O   0  0  0  0  0  0  0  0  0  0  0  0
   -3.9027    3.0316    1.1596 O   0  0  0  0  0  0  0  0  0  0  0  0
   -6.9554    0.6864   -1.7693 O   0  0  0  0  0  0  0  0  0  0  0  0
    0.8093    1.2430   -0.1506 N   0  0  0  0  0  0  0  0  0  0  0  0
   -5.1502    1.6661   -0.1900 N   0  0  0  0  0  0  0  0  0  0  0  0
   -0.4939    0.6963    0.1064 C   0  0  0  0  0  0  0  0  0  0  0  0
    0.9220    2.5543   -0.8067 C   0  0  0  0  0  0  0  0  0  0  0  0
   -0.7236   -0.6917    0.0359 C   0  0  0  0  0  0  0  0  0  0  0  0
    1.9825    0.4909   -0.0276 C   0  0  0  0  0  0  0  0  0  0  0  0
   -1.5890    1.5381    0.3598 C   0  0  0  0  0  0  0  0  0  0  0  0
    1.8739   -0.8640    0.6369 C   0  0  0  0  0  0  0  0  0  0  0  0
    0.8732    2.4905   -2.3199 C   0  0  0  0  0  0  0  0  0  0  0  0
   -2.8953    1.0371    0.3831 C   0  0  0  0  0  0  0  0  0  0  0  0
   -2.0309   -1.1941    0.0740 C   0  0  0  0  0  0  0  0  0  0  0  0
   -3.1163   -0.3328    0.2262 C   0  0  0  0  0  0  0  0  0  0  0  0
   -4.0243    2.0041    0.5121 C   0  0  0  0  0  0  0  0  0  0  0  0
    2.0539    2.3576   -3.0680 C   0  0  0  0  0  0  0  0  0  0  0  0
   -0.3337    2.6013   -3.0168 C   0  0  0  0  0  0  0  0  0  0  0  0
   -6.2889    2.5439   -0.3231 C   0  0  0  0  0  0  0  0  0  0  0  0
    2.0224    2.3702   -4.4666 C   0  0  0  0  0  0  0  0  0  0  0  0
   -0.3731    2.6095   -4.4118 C   0  0  0  0  0  0  0  0  0  0  0  0
    0.8097    2.5030   -5.1398 C   0  0  0  0  0  0  0  0  0  0  0  0
   -7.2677    1.9225   -1.2621 C   0  0  0  0  0  0  0  0  0  0  0  0
   -8.4741    2.3424   -1.7861 C   0  0  0  0  0  0  0  0  0  0  0  0
   -8.9091    1.3202   -2.6663 C   0  0  0  0  0  0  0  0  0  0  0  0
   -7.9547    0.3339   -2.6161 C   0  0  0  0  0  0  0  0  0  0  0  0
   -5.1252    0.8948   -0.8442 H   0  0  0  0  0  0  0  0  0  0  0  0
    0.1677    3.2577   -0.4460 H   0  0  0  0  0  0  0  0  0  0  0  0
    1.8732    3.0136   -0.5087 H   0  0  0  0  0  0  0  0  0  0  0  0
   -1.4595    2.6033    0.5296 H   0  0  0  0  0  0  0  0  0  0  0  0
    2.8320   -1.3853    0.5456 H   0  0  0  0  0  0  0  0  0  0  0  0
    1.6621   -0.7286    1.7029 H   0  0  0  0  0  0  0  0  0  0  0  0
   -2.2144   -2.2618   -0.0317 H   0  0  0  0  0  0  0  0  0  0  0  0
   -4.1209   -0.7461    0.2398 H   0  0  0  0  0  0  0  0  0  0  0  0
    3.0137    2.2589   -2.5636 H   0  0  0  0  0  0  0  0  0  0  0  0
   -6.7306    2.7011    0.6662 H   0  0  0  0  0  0  0  0  0  0  0  0
   -5.9433    3.5069   -0.7109 H   0  0  0  0  0  0  0  0  0  0  0  0
    2.9503    2.2857   -5.0277 H   0  0  0  0  0  0  0  0  0  0  0  0
   -1.3261    2.7127   -4.9213 H   0  0  0  0  0  0  0  0  0  0  0  0
    0.7891    2.5273   -6.2264 H   0  0  0  0  0  0  0  0  0  0  0  0
   -8.9698    3.2798   -1.5702 H   0  0  0  0  0  0  0  0  0  0  0  0
   -9.8069    1.3045   -3.2686 H   0  0  0  0  0  0  0  0  0  0  0  0
   -7.8382   -0.6253   -3.1010 H   0  0  0  0  0  0  0  0  0  0  0  0
  1 10  1  0  0  0  0
  1 13  1  0  0  0  0
  2 20  1  0  0  0  0
  3 11  2  0  0  0  0
  4 18  2  0  0  0  0
  5 25  1  0  0  0  0
  5 28  1  0  0  0  0
  6  8  1  0  0  0  0
  6  9  1  0  0  0  0
  6 11  1  0  0  0  0
  7 18  1  0  0  0  0
  7 21  1  0  0  0  0
  7 29  1  0  0  0  0
  8 10  2  0  0  0  0
  8 12  1  0  0  0  0
  9 14  1  0  0  0  0
  9 30  1  0  0  0  0
  9 31  1  0  0  0  0
 10 16  1  0  0  0  0
 11 13  1  0  0  0  0
 12 15  2  0  0  0  0
 12 32  1  0  0  0  0
 13 33  1  0  0  0  0
 13 34  1  0  0  0  0
 14 19  2  0  0  0  0
 14 20  1  0  0  0  0
 15 17  1  0  0  0  0
 15 18  1  0  0  0  0
 16 17  2  0  0  0  0
 16 35  1  0  0  0  0
 17 36  1  0  0  0  0
 19 22  1  0  0  0  0
 19 37  1  0  0  0  0
 20 23  2  0  0  0  0
 21 25  1  0  0  0  0
 21 38  1  0  0  0  0
 21 39  1  0  0  0  0
 22 24  2  0  0  0  0
 22 40  1  0  0  0  0
 23 24  1  0  0  0  0
 23 41  1  0  0  0  0
 24 42  1  0  0  0  0
 25 26  2  0  0  0  0
 26 27  1  0  0  0  0
 26 43  1  0  0  0  0
 27 28  2  0  0  0  0
 27 44  1  0  0  0  0
 28 45  1  0  0  0  0
M  END
>  <Mol_ID>
4959

>  <Formula>
C21H16ClFN2O3S

>  <MolWeight>
430.8797432

>  <Cat>
S8954

>  <Name>
STING agonist-1 (G10)

>  <Synonyms>
N/A

>  <Target>
IFN,STING

>  <Form>
Free Base

>  <CAS>
702662-50-8

>  <URL>
http://www.selleckchem.com/products/sting-agonist-1-g10.html

$$$$
