STK16-IN-1
 OpenBabel08302521343D

 34 37  0  0  0  0  0  0  0  0999 V2000
    1.4129    1.5885   -0.0371 N   0  0  0  0  0  0  0  0  0  0  0  0
    2.7972    1.3954   -0.1056 C   0  0  0  0  0  0  0  0  0  0  0  0
    3.2902    0.0006   -0.0607 C   0  0  0  0  0  0  0  0  0  0  0  0
    2.4595   -1.0404    0.0197 C   0  0  0  0  0  0  0  0  0  0  0  0
    1.0181   -0.8220    0.0459 C   0  0  0  0  0  0  0  0  0  0  0  0
    0.1658   -1.9236    0.0848 C   0  0  0  0  0  0  0  0  0  0  0  0
   -1.1775   -1.8772    0.0991 N   0  0  0  0  0  0  0  0  0  0  0  0
   -1.6563   -0.6254    0.0273 C   0  0  0  0  0  0  0  0  0  0  0  0
   -0.9400    0.5725   -0.0447 C   0  0  0  0  0  0  0  0  0  0  0  0
    0.4831    0.4881    0.0093 C   0  0  0  0  0  0  0  0  0  0  0  0
   -2.9954   -0.3510    0.0079 N   0  0  0  0  0  0  0  0  0  0  0  0
   -1.9437    1.5831   -0.1959 C   0  0  0  0  0  0  0  0  0  0  0  0
   -3.1879    0.9935   -0.1237 C   0  0  0  0  0  0  0  0  0  0  0  0
    3.6479    2.2834   -0.1639 O   0  0  0  0  0  0  0  0  0  0  0  0
    0.9417    2.9280   -0.0023 C   0  0  0  0  0  0  0  0  0  0  0  0
    1.2782    3.8019   -1.0503 C   0  0  0  0  0  0  0  0  0  0  0  0
    0.8980    5.1492   -1.0156 C   0  0  0  0  0  0  0  0  0  0  0  0
    0.1804    5.6109    0.0875 C   0  0  0  0  0  0  0  0  0  0  0  0
   -0.1372    4.7667    1.1496 C   0  0  0  0  0  0  0  0  0  0  0  0
    0.2561    3.4262    1.1135 C   0  0  0  0  0  0  0  0  0  0  0  0
    1.2945    6.0886   -2.1126 C   0  0  0  0  0  0  0  0  0  0  0  0
   -0.2013    6.8946    0.1444 F   0  0  0  0  0  0  0  0  0  0  0  0
    4.3652   -0.1220   -0.0845 H   0  0  0  0  0  0  0  0  0  0  0  0
    2.8474   -2.0525    0.0566 H   0  0  0  0  0  0  0  0  0  0  0  0
    0.5669   -2.9350    0.1014 H   0  0  0  0  0  0  0  0  0  0  0  0
   -3.7101   -1.0616    0.0626 H   0  0  0  0  0  0  0  0  0  0  0  0
   -1.7977    2.6435   -0.3426 H   0  0  0  0  0  0  0  0  0  0  0  0
   -4.1837    1.4141   -0.1708 H   0  0  0  0  0  0  0  0  0  0  0  0
    1.8512    3.4265   -1.8961 H   0  0  0  0  0  0  0  0  0  0  0  0
   -0.6764    5.1636    2.0037 H   0  0  0  0  0  0  0  0  0  0  0  0
    0.0382    2.7831    1.9624 H   0  0  0  0  0  0  0  0  0  0  0  0
    0.4138    6.5891   -2.5272 H   0  0  0  0  0  0  0  0  0  0  0  0
    1.9902    6.8407   -1.7267 H   0  0  0  0  0  0  0  0  0  0  0  0
    1.7934    5.5604   -2.9319 H   0  0  0  0  0  0  0  0  0  0  0  0
  1  2  1  0  0  0  0
  1 10  1  0  0  0  0
  1 15  1  0  0  0  0
  2  3  1  0  0  0  0
  2 14  2  0  0  0  0
  3  4  2  0  0  0  0
  3 23  1  0  0  0  0
  4  5  1  0  0  0  0
  4 24  1  0  0  0  0
  5  6  1  0  0  0  0
  5 10  2  0  0  0  0
  6  7  2  0  0  0  0
  6 25  1  0  0  0  0
  7  8  1  0  0  0  0
  8  9  2  0  0  0  0
  9 10  1  0  0  0  0
 11 13  1  0  0  0  0
 11  8  1  0  0  0  0
 11 26  1  0  0  0  0
 12 13  2  0  0  0  0
 12  9  1  0  0  0  0
 12 27  1  0  0  0  0
 13 28  1  0  0  0  0
 15 16  2  0  0  0  0
 15 20  1  0  0  0  0
 16 17  1  0  0  0  0
 16 29  1  0  0  0  0
 17 18  2  0  0  0  0
 17 21  1  0  0  0  0
 18 19  1  0  0  0  0
 18 22  1  0  0  0  0
 19 20  2  0  0  0  0
 19 30  1  0  0  0  0
 20 31  1  0  0  0  0
 21 32  1  0  0  0  0
 21 33  1  0  0  0  0
 21 34  1  0  0  0  0
M  END
>  <Mol_ID>
6454

>  <Formula>
C17H12FN3O

>  <MolWeight>
293.2950832

>  <Cat>
E2396

>  <Name>
STK16-IN-1

>  <Target>
Serine/threonin kinase

>  <Form>
free base

>  <CAS>
1223001-53-3

>  <URL>
http://www.selleckchem.com/products/stk16-in-1.html

$$$$
