STM2457
 OpenBabel08302521313D

 61 65  0  0  0  0  0  0  0  0999 V2000
   -4.0144    4.3754    4.2216 C   0  0  0  0  0  0  0  0  0  0  0  0
   -3.4342    5.6695    3.9987 C   0  0  0  0  0  0  0  0  0  0  0  0
   -2.2781    5.7974    3.3365 C   0  0  0  0  0  0  0  0  0  0  0  0
   -1.5751    4.5852    2.8214 C   0  0  0  0  0  0  0  0  0  0  0  0
   -2.1917    3.3597    3.0654 N   0  0  0  0  0  0  0  0  0  0  0  0
   -3.3936    3.2832    3.7617 C   0  0  0  0  0  0  0  0  0  0  0  0
   -0.4515    4.7292    2.1812 N   0  0  0  0  0  0  0  0  0  0  0  0
    0.1492    3.5768    1.7252 C   0  0  0  0  0  0  0  0  0  0  0  0
   -0.3415    2.3461    1.8932 C   0  0  0  0  0  0  0  0  0  0  0  0
   -1.6082    2.1883    2.6127 C   0  0  0  0  0  0  0  0  0  0  0  0
   -2.0590    1.0566    2.7739 O   0  0  0  0  0  0  0  0  0  0  0  0
    1.4649    3.6378    0.9863 C   0  0  0  0  0  0  0  0  0  0  0  0
    1.9661    4.9021    0.8332 N   0  0  0  0  0  0  0  0  0  0  0  0
    2.0330    2.6291    0.5735 O   0  0  0  0  0  0  0  0  0  0  0  0
    3.2454    5.1451    0.2113 C   0  0  0  0  0  0  0  0  0  0  0  0
    3.0624    6.0246   -0.9736 C   0  0  0  0  0  0  0  0  0  0  0  0
    2.7685    5.6557   -2.2706 C   0  0  0  0  0  0  0  0  0  0  0  0
    2.7746    6.8154   -2.9959 N   0  0  0  0  0  0  0  0  0  0  0  0
    3.0601    7.8462   -2.1125 C   0  0  0  0  0  0  0  0  0  0  0  0
    3.2239    7.3946   -0.8861 N   0  0  0  0  0  0  0  0  0  0  0  0
    2.5696    6.9945   -4.3560 C   0  0  0  0  0  0  0  0  0  0  0  0
    2.6533    8.2285   -4.8971 C   0  0  0  0  0  0  0  0  0  0  0  0
    2.9588    9.3426   -3.9853 C   0  0  0  0  0  0  0  0  0  0  0  0
    3.1458    9.1556   -2.6618 C   0  0  0  0  0  0  0  0  0  0  0  0
    2.4400    8.5333   -6.3646 C   0  0  0  0  0  0  0  0  0  0  0  0
    1.5315    7.5857   -7.0232 N   0  0  0  0  0  0  0  0  0  0  0  0
    1.3266    7.9241   -8.4341 C   0  0  0  0  0  0  0  0  0  0  0  0
    0.3626    6.9600   -9.1718 C   0  0  0  0  0  0  0  0  0  0  0  0
   -1.0369    6.9593   -8.5296 C   0  0  0  0  0  0  0  0  0  0  0  0
   -1.9827    5.9545   -9.1812 C   0  0  0  0  0  0  0  0  0  0  0  0
   -1.3795    4.5567   -9.1771 C   0  0  0  0  0  0  0  0  0  0  0  0
   -0.0519    4.5445   -9.9241 C   0  0  0  0  0  0  0  0  0  0  0  0
    0.9448    5.5409   -9.3294 C   0  0  0  0  0  0  0  0  0  0  0  0
   -4.9520    4.3016    4.7639 H   0  0  0  0  0  0  0  0  0  0  0  0
   -3.9618    6.5430    4.3785 H   0  0  0  0  0  0  0  0  0  0  0  0
   -1.8143    6.7581    3.1500 H   0  0  0  0  0  0  0  0  0  0  0  0
   -3.8119    2.2911    3.9171 H   0  0  0  0  0  0  0  0  0  0  0  0
    0.1387    1.4448    1.5355 H   0  0  0  0  0  0  0  0  0  0  0  0
    1.4321    5.6849    1.1946 H   0  0  0  0  0  0  0  0  0  0  0  0
    3.8914    5.6283    0.9499 H   0  0  0  0  0  0  0  0  0  0  0  0
    3.7221    4.2059   -0.0909 H   0  0  0  0  0  0  0  0  0  0  0  0
    2.5875    4.6916   -2.7251 H   0  0  0  0  0  0  0  0  0  0  0  0
    2.3553    6.1016   -4.9255 H   0  0  0  0  0  0  0  0  0  0  0  0
    3.0273   10.3449   -4.4001 H   0  0  0  0  0  0  0  0  0  0  0  0
    3.3698    9.9796   -1.9942 H   0  0  0  0  0  0  0  0  0  0  0  0
    2.0293    9.5455   -6.4664 H   0  0  0  0  0  0  0  0  0  0  0  0
    3.4195    8.5211   -6.8596 H   0  0  0  0  0  0  0  0  0  0  0  0
    1.9277    6.6514   -6.9651 H   0  0  0  0  0  0  0  0  0  0  0  0
    0.9139    8.9378   -8.5028 H   0  0  0  0  0  0  0  0  0  0  0  0
    2.2923    7.9245   -8.9537 H   0  0  0  0  0  0  0  0  0  0  0  0
    0.2444    7.3614  -10.1884 H   0  0  0  0  0  0  0  0  0  0  0  0
   -0.9701    6.7294   -7.4597 H   0  0  0  0  0  0  0  0  0  0  0  0
   -1.4736    7.9623   -8.6108 H   0  0  0  0  0  0  0  0  0  0  0  0
   -2.9378    5.9469   -8.6439 H   0  0  0  0  0  0  0  0  0  0  0  0
   -2.1987    6.2613  -10.2122 H   0  0  0  0  0  0  0  0  0  0  0  0
   -1.2263    4.2228   -8.1433 H   0  0  0  0  0  0  0  0  0  0  0  0
   -2.0756    3.8501   -9.6426 H   0  0  0  0  0  0  0  0  0  0  0  0
    0.3759    3.5355   -9.8946 H   0  0  0  0  0  0  0  0  0  0  0  0
   -0.2262    4.7832  -10.9805 H   0  0  0  0  0  0  0  0  0  0  0  0
    1.8256    5.5846   -9.9829 H   0  0  0  0  0  0  0  0  0  0  0  0
    1.2902    5.1504   -8.3663 H   0  0  0  0  0  0  0  0  0  0  0  0
  1  2  1  0  0  0  0
  1 34  1  0  0  0  0
  2  3  2  0  0  0  0
  2 35  1  0  0  0  0
  3  4  1  0  0  0  0
  3 36  1  0  0  0  0
  4  5  1  0  0  0  0
  4  7  2  0  0  0  0
  5  6  1  0  0  0  0
  6  1  2  0  0  0  0
  6 37  1  0  0  0  0
  7  8  1  0  0  0  0
  8  9  2  0  0  0  0
  8 12  1  0  0  0  0
  9 10  1  0  0  0  0
  9 38  1  0  0  0  0
 10  5  1  0  0  0  0
 10 11  2  0  0  0  0
 12 13  1  0  0  0  0
 12 14  2  0  0  0  0
 13 15  1  0  0  0  0
 13 39  1  0  0  0  0
 15 16  1  0  0  0  0
 15 40  1  0  0  0  0
 15 41  1  0  0  0  0
 16 17  2  0  0  0  0
 17 18  1  0  0  0  0
 17 42  1  0  0  0  0
 18 19  1  0  0  0  0
 18 21  1  0  0  0  0
 19 20  2  0  0  0  0
 20 16  1  0  0  0  0
 21 22  2  0  0  0  0
 21 43  1  0  0  0  0
 22 23  1  0  0  0  0
 22 25  1  0  0  0  0
 23 24  2  0  0  0  0
 23 44  1  0  0  0  0
 24 19  1  0  0  0  0
 24 45  1  0  0  0  0
 25 26  1  0  0  0  0
 25 46  1  0  0  0  0
 25 47  1  0  0  0  0
 26 27  1  0  0  0  0
 26 48  1  0  0  0  0
 27 28  1  0  0  0  0
 27 49  1  0  0  0  0
 27 50  1  0  0  0  0
 28 29  1  0  0  0  0
 28 51  1  0  0  0  0
 29 30  1  0  0  0  0
 29 52  1  0  0  0  0
 29 53  1  0  0  0  0
 30 31  1  0  0  0  0
 30 54  1  0  0  0  0
 30 55  1  0  0  0  0
 31 32  1  0  0  0  0
 31 56  1  0  0  0  0
 31 57  1  0  0  0  0
 32 33  1  0  0  0  0
 32 58  1  0  0  0  0
 32 59  1  0  0  0  0
 33 28  1  0  0  0  0
 33 60  1  0  0  0  0
 33 61  1  0  0  0  0
M  END
>  <Mol_ID>
5934

>  <Formula>
C25H28N6O2

>  <MolWeight>
444.52882

>  <Cat>
S9870

>  <Name>
STM2457

>  <Synonyms>
N/A

>  <Target>
Transferase

>  <Form>
Free Base

>  <CAS>
2499663-01-1

>  <URL>
http://www.selleckchem.com/products/stm2457.html

$$$$
