Stylopine
 OpenBabel08302521453D

 41 46  0  0  0  0  0  0  0  0999 V2000
    1.0353    0.4333   -0.2858 C   0  0  0  0  0  0  0  0  0  0  0  0
   -0.3364    0.3636   -0.3902 C   0  0  0  0  0  0  0  0  0  0  0  0
   -0.9414   -0.8727   -0.0565 C   0  0  0  0  0  0  0  0  0  0  0  0
   -0.1552   -2.0226    0.1301 C   0  0  0  0  0  0  0  0  0  0  0  0
    1.2358   -1.9344    0.1260 C   0  0  0  0  0  0  0  0  0  0  0  0
    1.7966   -0.6838   -0.0247 C   0  0  0  0  0  0  0  0  0  0  0  0
    3.1197   -0.3893    0.1010 O   0  0  0  0  0  0  0  0  0  0  0  0
    3.0585    1.0532    0.0846 C   0  0  0  0  0  0  0  0  0  0  0  0
    1.7946    1.5667   -0.3512 O   0  0  0  0  0  0  0  0  0  0  0  0
   -1.1405    1.6084   -0.7199 C   0  0  0  0  0  0  0  0  0  0  0  0
   -2.5856    1.3972   -0.7821 N   0  0  3  0  0  0  0  0  0  0  0  0
   -2.9859    0.5466    0.3250 C   0  0  3  0  0  0  0  0  0  0  0  0
   -2.4341   -0.9031    0.1676 C   0  0  0  0  0  0  0  0  0  0  0  0
   -3.1715    0.9674   -2.0665 C   0  0  0  0  0  0  0  0  0  0  0  0
   -4.4984    0.0991   -2.0036 C   0  0  0  0  0  0  0  0  0  0  0  0
   -5.2446    0.2456   -0.6920 C   0  0  0  0  0  0  0  0  0  0  0  0
   -4.4759    0.6593    0.4177 C   0  0  0  0  0  0  0  0  0  0  0  0
   -6.6155    0.0309   -0.5227 C   0  0  0  0  0  0  0  0  0  0  0  0
   -7.1586    0.4101    0.6918 C   0  0  0  0  0  0  0  0  0  0  0  0
   -6.4198    1.0793    1.6464 C   0  0  0  0  0  0  0  0  0  0  0  0
   -5.0714    1.2330    1.5351 C   0  0  0  0  0  0  0  0  0  0  0  0
   -8.4262    0.1786    1.1397 O   0  0  0  0  0  0  0  0  0  0  0  0
   -8.2681    0.5592    2.5282 C   0  0  0  0  0  0  0  0  0  0  0  0
   -7.1527    1.4382    2.7324 O   0  0  0  0  0  0  0  0  0  0  0  0
   -0.6336   -2.9781    0.3164 H   0  0  0  0  0  0  0  0  0  0  0  0
    1.8544   -2.8068    0.3061 H   0  0  0  0  0  0  0  0  0  0  0  0
    3.2687    1.4218    1.1016 H   0  0  0  0  0  0  0  0  0  0  0  0
    3.8426    1.4265   -0.5843 H   0  0  0  0  0  0  0  0  0  0  0  0
   -0.7806    2.0739   -1.6433 H   0  0  0  0  0  0  0  0  0  0  0  0
   -0.9597    2.3325    0.0882 H   0  0  0  0  0  0  0  0  0  0  0  0
   -2.5739    0.9468    1.2627 H   0  0  0  0  0  0  0  0  0  0  0  0
   -2.6580   -1.4696    1.0777 H   0  0  0  0  0  0  0  0  0  0  0  0
   -2.8821   -1.4542   -0.6571 H   0  0  0  0  0  0  0  0  0  0  0  0
   -2.4445    0.4319   -2.6828 H   0  0  0  0  0  0  0  0  0  0  0  0
   -3.4225    1.8867   -2.6109 H   0  0  0  0  0  0  0  0  0  0  0  0
   -4.2592   -0.9590   -2.1636 H   0  0  0  0  0  0  0  0  0  0  0  0
   -5.1497    0.4031   -2.8326 H   0  0  0  0  0  0  0  0  0  0  0  0
   -7.2270   -0.4280   -1.2910 H   0  0  0  0  0  0  0  0  0  0  0  0
   -4.4957    1.7324    2.3041 H   0  0  0  0  0  0  0  0  0  0  0  0
   -8.0821   -0.3400    3.1331 H   0  0  0  0  0  0  0  0  0  0  0  0
   -9.1815    1.0390    2.8883 H   0  0  0  0  0  0  0  0  0  0  0  0
  1  2  2  0  0  0  0
  2  3  1  0  0  0  0
  2 10  1  0  0  0  0
  3  4  2  0  0  0  0
  4  5  1  0  0  0  0
  4 25  1  0  0  0  0
  5  6  2  0  0  0  0
  5 26  1  0  0  0  0
  6  1  1  0  0  0  0
  6  7  1  0  0  0  0
  7  8  1  0  0  0  0
  8  9  1  0  0  0  0
  8 27  1  0  0  0  0
  8 28  1  0  0  0  0
  9  1  1  0  0  0  0
 10 11  1  0  0  0  0
 10 29  1  0  0  0  0
 10 30  1  0  0  0  0
 11 12  1  0  0  0  0
 11 14  1  0  0  0  0
 12 13  1  0  0  0  0
 12 31  1  0  0  0  0
 13  3  1  0  0  0  0
 13 32  1  0  0  0  0
 13 33  1  0  0  0  0
 14 15  1  0  0  0  0
 14 34  1  0  0  0  0
 14 35  1  0  0  0  0
 15 16  1  0  0  0  0
 15 36  1  0  0  0  0
 15 37  1  0  0  0  0
 16 17  2  0  0  0  0
 16 18  1  0  0  0  0
 17 12  1  0  0  0  0
 18 19  2  0  0  0  0
 18 38  1  0  0  0  0
 19 20  1  0  0  0  0
 19 22  1  0  0  0  0
 20 21  2  0  0  0  0
 21 17  1  0  0  0  0
 21 39  1  0  0  0  0
 22 23  1  0  0  0  0
 23 24  1  0  0  0  0
 23 40  1  0  0  0  0
 23 41  1  0  0  0  0
 24 20  1  0  0  0  0
M  END
>  <Mol_ID>
9358

>  <Formula>
C19H17NO4

>  <MolWeight>
323.34258

>  <Cat>
S3304

>  <Name>
Stylopine

>  <Synonyms>
(R,S)-Stylopine, Tetrahydrocoptisine

>  <Target>
COX,Interleukins,NOS,PGES,TNF-alpha

>  <Form>
free base

>  <CAS>
4312-32-7

>  <URL>
http://www.selleckchem.com/products/stylopine-trahydocoptisine-.html

$$$$
