SU0268
 OpenBabel08302521323D

 59 63  0  0  0  0  0  0  0  0999 V2000
    0.9741   -0.0072    0.1161 S   0  0  0  0  0  0  0  0  0  0  0  0
    0.3983    4.3079   -3.8564 O   0  0  0  0  0  0  0  0  0  0  0  0
   -0.1320   -0.8907    0.4214 O   0  0  0  0  0  0  0  0  0  0  0  0
    2.1948   -0.0493    0.8924 O   0  0  0  0  0  0  0  0  0  0  0  0
    6.0010   -1.3272   -8.9362 O   0  0  0  0  0  0  0  0  0  0  0  0
    2.5619    4.5857   -3.0245 N   0  0  0  0  0  0  0  0  0  0  0  0
    0.3542    1.5521    0.1366 N   0  0  0  0  0  0  0  0  0  0  0  0
    6.2847   -2.3287   -6.9338 N   0  0  0  0  0  0  0  0  0  0  0  0
    2.0006    4.9683   -5.4275 C   0  0  0  0  0  0  0  0  0  0  0  0
    1.3358    6.1739   -6.0616 C   0  0  0  0  0  0  0  0  0  0  0  0
    1.0744    4.8045   -6.6132 C   0  0  0  0  0  0  0  0  0  0  0  0
    1.5849    4.5672   -4.0372 C   0  0  0  0  0  0  0  0  0  0  0  0
    3.9558    5.0011   -3.2396 C   0  0  0  0  0  0  0  0  0  0  0  0
    2.2915    4.1535   -1.6749 C   0  0  0  0  0  0  0  0  0  0  0  0
    4.3403    6.0938   -2.2648 C   0  0  0  0  0  0  0  0  0  0  0  0
    4.2763    5.5547   -0.8470 C   0  0  0  0  0  0  0  0  0  0  0  0
    3.1285    4.5999   -0.6234 C   0  0  0  0  0  0  0  0  0  0  0  0
    1.2948    3.2113   -1.3808 C   0  0  0  0  0  0  0  0  0  0  0  0
    2.9496    4.1079    0.6802 C   0  0  0  0  0  0  0  0  0  0  0  0
    1.2029    2.6592   -0.1010 C   0  0  0  0  0  0  0  0  0  0  0  0
    2.0006    3.1269    0.9360 C   0  0  0  0  0  0  0  0  0  0  0  0
    1.4018   -0.2634   -1.5948 C   0  0  0  0  0  0  0  0  0  0  0  0
    2.6972   -0.0111   -2.0232 C   0  0  0  0  0  0  0  0  0  0  0  0
    0.4481   -0.7546   -2.4894 C   0  0  0  0  0  0  0  0  0  0  0  0
    2.0759   -0.6392   -4.3205 C   0  0  0  0  0  0  0  0  0  0  0  0
    3.0232   -0.1754   -3.3798 C   0  0  0  0  0  0  0  0  0  0  0  0
    0.7891   -0.9399   -3.8392 C   0  0  0  0  0  0  0  0  0  0  0  0
    2.4473   -0.7991   -5.7495 C   0  0  0  0  0  0  0  0  0  0  0  0
    3.7545   -1.1723   -6.1202 C   0  0  0  0  0  0  0  0  0  0  0  0
    1.5317   -0.5582   -6.7926 C   0  0  0  0  0  0  0  0  0  0  0  0
    4.1419   -1.2847   -7.4642 C   0  0  0  0  0  0  0  0  0  0  0  0
    1.9082   -0.6691   -8.1375 C   0  0  0  0  0  0  0  0  0  0  0  0
    3.2144   -1.0220   -8.4728 C   0  0  0  0  0  0  0  0  0  0  0  0
    5.5346   -1.6320   -7.8445 C   0  0  0  0  0  0  0  0  0  0  0  0
   -0.6483    1.6699    0.2575 H   0  0  0  0  0  0  0  0  0  0  0  0
    5.8780   -2.8041   -6.1426 H   0  0  0  0  0  0  0  0  0  0  0  0
    7.1972   -2.6348   -7.2455 H   0  0  0  0  0  0  0  0  0  0  0  0
    3.0260    4.7478   -5.6970 H   0  0  0  0  0  0  0  0  0  0  0  0
    0.5116    6.6529   -5.5407 H   0  0  0  0  0  0  0  0  0  0  0  0
    1.9486    6.8545   -6.6393 H   0  0  0  0  0  0  0  0  0  0  0  0
    1.5216    4.5556   -7.5705 H   0  0  0  0  0  0  0  0  0  0  0  0
    0.0994    4.3618   -6.4540 H   0  0  0  0  0  0  0  0  0  0  0  0
    4.1411    5.3624   -4.2487 H   0  0  0  0  0  0  0  0  0  0  0  0
    4.5828    4.1079   -3.1036 H   0  0  0  0  0  0  0  0  0  0  0  0
    5.3517    6.4585   -2.4771 H   0  0  0  0  0  0  0  0  0  0  0  0
    3.6556    6.9425   -2.3778 H   0  0  0  0  0  0  0  0  0  0  0  0
    5.2063    5.0123   -0.6330 H   0  0  0  0  0  0  0  0  0  0  0  0
    4.2149    6.3947   -0.1446 H   0  0  0  0  0  0  0  0  0  0  0  0
    0.6485    2.8175   -2.1586 H   0  0  0  0  0  0  0  0  0  0  0  0
    3.5882    4.4508    1.4918 H   0  0  0  0  0  0  0  0  0  0  0  0
    1.9191    2.6991    1.9319 H   0  0  0  0  0  0  0  0  0  0  0  0
    3.4645    0.3254   -1.3287 H   0  0  0  0  0  0  0  0  0  0  0  0
   -0.5570   -0.9990   -2.1518 H   0  0  0  0  0  0  0  0  0  0  0  0
    4.0321    0.0847   -3.6833 H   0  0  0  0  0  0  0  0  0  0  0  0
    0.0273   -1.3325   -4.5100 H   0  0  0  0  0  0  0  0  0  0  0  0
    4.4924   -1.3525   -5.3449 H   0  0  0  0  0  0  0  0  0  0  0  0
    0.5111   -0.2492   -6.5717 H   0  0  0  0  0  0  0  0  0  0  0  0
    1.1846   -0.4686   -8.9237 H   0  0  0  0  0  0  0  0  0  0  0  0
    3.5076   -1.0900   -9.5191 H   0  0  0  0  0  0  0  0  0  0  0  0
  1  3  2  0  0  0  0
  1  4  2  0  0  0  0
  1  7  1  0  0  0  0
  1 22  1  0  0  0  0
  2 12  2  0  0  0  0
  5 34  2  0  0  0  0
  6 12  1  0  0  0  0
  6 13  1  0  0  0  0
  6 14  1  0  0  0  0
  7 20  1  0  0  0  0
  7 35  1  0  0  0  0
  8 34  1  0  0  0  0
  8 36  1  0  0  0  0
  8 37  1  0  0  0  0
  9 10  1  0  0  0  0
  9 11  1  0  0  0  0
  9 12  1  0  0  0  0
  9 38  1  0  0  0  0
 10 11  1  0  0  0  0
 10 39  1  0  0  0  0
 10 40  1  0  0  0  0
 11 41  1  0  0  0  0
 11 42  1  0  0  0  0
 13 15  1  0  0  0  0
 13 43  1  0  0  0  0
 13 44  1  0  0  0  0
 14 17  2  0  0  0  0
 14 18  1  0  0  0  0
 15 16  1  0  0  0  0
 15 45  1  0  0  0  0
 15 46  1  0  0  0  0
 16 17  1  0  0  0  0
 16 47  1  0  0  0  0
 16 48  1  0  0  0  0
 17 19  1  0  0  0  0
 18 20  2  0  0  0  0
 18 49  1  0  0  0  0
 19 21  2  0  0  0  0
 19 50  1  0  0  0  0
 20 21  1  0  0  0  0
 21 51  1  0  0  0  0
 22 23  2  0  0  0  0
 22 24  1  0  0  0  0
 23 26  1  0  0  0  0
 23 52  1  0  0  0  0
 24 27  2  0  0  0  0
 24 53  1  0  0  0  0
 25 26  2  0  0  0  0
 25 27  1  0  0  0  0
 25 28  1  0  0  0  0
 26 54  1  0  0  0  0
 27 55  1  0  0  0  0
 28 29  2  0  0  0  0
 28 30  1  0  0  0  0
 29 31  1  0  0  0  0
 29 56  1  0  0  0  0
 30 32  2  0  0  0  0
 30 57  1  0  0  0  0
 31 33  2  0  0  0  0
 31 34  1  0  0  0  0
 32 33  1  0  0  0  0
 32 58  1  0  0  0  0
 33 59  1  0  0  0  0
M  END
>  <Mol_ID>
6103

>  <Formula>
C26H25N3O4S

>  <MolWeight>
475.5594

>  <Cat>
S9905

>  <Name>
SU0268

>  <Target>
OGG1

>  <Form>
free base

>  <CAS>
2210228-45-6

>  <URL>
http://www.selleckchem.com/products/su0268.html

$$$$
