SU056
 OpenBabel08302521373D

 43 47  0  0  0  0  0  0  0  0999 V2000
    1.2162   -0.2337    0.1703 O   0  0  0  0  0  0  0  0  0  0  0  0
    6.7427    1.3074    1.6228 C   0  0  0  0  0  0  0  0  0  0  0  0
    6.9965    1.5172    3.1239 C   0  0  0  0  0  0  0  0  0  0  0  0
    6.0342    0.8219    3.9129 O   0  0  0  0  0  0  0  0  0  0  0  0
    2.7902    3.3374   -4.2580 F   0  0  0  0  0  0  0  0  0  0  0  0
    2.5954    2.4815    0.5788 C   0  0  3  0  0  0  0  0  0  0  0  0
    3.7000    3.5176    0.8860 C   0  0  0  0  0  0  0  0  0  0  0  0
    3.1369    1.1013    0.6043 C   0  0  0  0  0  0  0  0  0  0  0  0
    5.0533    3.1048    1.1546 C   0  0  0  0  0  0  0  0  0  0  0  0
    3.3648    4.8885    0.7952 C   0  0  0  0  0  0  0  0  0  0  0  0
    4.3961    0.7904    0.8742 C   0  0  0  0  0  0  0  0  0  0  0  0
    2.4162   -0.1330    0.3439 C   0  0  0  0  0  0  0  0  0  0  0  0
    5.3767    1.7142    1.2203 N   0  0  0  0  0  0  0  0  0  0  0  0
    6.0351    4.1066    1.2761 C   0  0  0  0  0  0  0  0  0  0  0  0
    4.3831    5.8054    0.8439 C   0  0  0  0  0  0  0  0  0  0  0  0
    4.5970   -0.6730    0.6954 C   0  0  0  0  0  0  0  0  0  0  0  0
    3.2985   -1.1700    0.3609 O   0  0  0  0  0  0  0  0  0  0  0  0
    5.6790    5.4236    1.0761 C   0  0  0  0  0  0  0  0  0  0  0  0
    4.2728    7.1386    0.6016 O   0  0  0  0  0  0  0  0  0  0  0  0
    6.5433    6.4750    1.0171 O   0  0  0  0  0  0  0  0  0  0  0  0
    5.6669    7.4890    0.4824 C   0  0  0  0  0  0  0  0  0  0  0  0
    1.9223    2.7943   -0.7631 C   0  0  0  0  0  0  0  0  0  0  0  0
    2.6755    2.8836   -1.9471 C   0  0  0  0  0  0  0  0  0  0  0  0
    0.5390    3.0405   -0.8247 C   0  0  0  0  0  0  0  0  0  0  0  0
    2.0566    3.2340   -3.1431 C   0  0  0  0  0  0  0  0  0  0  0  0
   -0.0706    3.3888   -2.0341 C   0  0  0  0  0  0  0  0  0  0  0  0
    0.6925    3.4906   -3.1962 C   0  0  0  0  0  0  0  0  0  0  0  0
    6.8865    0.2410    1.4137 H   0  0  0  0  0  0  0  0  0  0  0  0
    7.5015    1.8196    1.0202 H   0  0  0  0  0  0  0  0  0  0  0  0
    7.9862    1.1295    3.3865 H   0  0  0  0  0  0  0  0  0  0  0  0
    6.9712    2.5719    3.4122 H   0  0  0  0  0  0  0  0  0  0  0  0
    5.1774    1.2460    3.7173 H   0  0  0  0  0  0  0  0  0  0  0  0
    1.8557    2.5677    1.3855 H   0  0  0  0  0  0  0  0  0  0  0  0
    2.3506    5.2167    0.5898 H   0  0  0  0  0  0  0  0  0  0  0  0
    7.0821    3.8950    1.4494 H   0  0  0  0  0  0  0  0  0  0  0  0
    4.9419   -1.1700    1.6052 H   0  0  0  0  0  0  0  0  0  0  0  0
    5.2795   -0.8882   -0.1324 H   0  0  0  0  0  0  0  0  0  0  0  0
    5.8476    8.4336    1.0041 H   0  0  0  0  0  0  0  0  0  0  0  0
    5.9039    7.6236   -0.5822 H   0  0  0  0  0  0  0  0  0  0  0  0
    3.7469    2.7081   -1.9480 H   0  0  0  0  0  0  0  0  0  0  0  0
   -0.0742    2.9665    0.0711 H   0  0  0  0  0  0  0  0  0  0  0  0
   -1.1403    3.5808   -2.0682 H   0  0  0  0  0  0  0  0  0  0  0  0
    0.2336    3.7672   -4.1396 H   0  0  0  0  0  0  0  0  0  0  0  0
  1 12  2  0  0  0  0
  2  3  1  0  0  0  0
  2 13  1  0  0  0  0
  2 28  1  0  0  0  0
  2 29  1  0  0  0  0
  3  4  1  0  0  0  0
  3 30  1  0  0  0  0
  3 31  1  0  0  0  0
  4 32  1  0  0  0  0
  5 25  1  0  0  0  0
  6  7  1  0  0  0  0
  6  8  1  0  0  0  0
  6 22  1  0  0  0  0
  6 33  1  0  0  0  0
  7  9  1  0  0  0  0
  7 10  2  0  0  0  0
  8 11  2  0  0  0  0
  8 12  1  0  0  0  0
  9 13  1  0  0  0  0
  9 14  2  0  0  0  0
 10 15  1  0  0  0  0
 10 34  1  0  0  0  0
 11 13  1  0  0  0  0
 11 16  1  0  0  0  0
 12 17  1  0  0  0  0
 14 18  1  0  0  0  0
 14 35  1  0  0  0  0
 15 18  2  0  0  0  0
 15 19  1  0  0  0  0
 16 17  1  0  0  0  0
 16 36  1  0  0  0  0
 16 37  1  0  0  0  0
 18 20  1  0  0  0  0
 19 21  1  0  0  0  0
 20 21  1  0  0  0  0
 21 38  1  0  0  0  0
 21 39  1  0  0  0  0
 22 23  2  0  0  0  0
 22 24  1  0  0  0  0
 23 25  1  0  0  0  0
 23 40  1  0  0  0  0
 24 26  2  0  0  0  0
 24 41  1  0  0  0  0
 25 27  2  0  0  0  0
 26 27  1  0  0  0  0
 26 42  1  0  0  0  0
 27 43  1  0  0  0  0
M  END
>  <Mol_ID>
7517

>  <Formula>
C20H16FNO5

>  <MolWeight>
369.3431432

>  <Cat>
E1331

>  <Name>
SU056

>  <Target>
DNA/RNA Synthesis

>  <Form>
free base

>  <CAS>
2376580-08-2

>  <URL>
https://www.selleckchem.com/products/su056.html

$$$$
