SU14813
 OpenBabel08302521353D

 59 62  0  0  0  0  0  0  0  0999 V2000
    0.9304   -0.3192   -0.0143 F   0  0  0  0  0  0  0  0  0  0  0  0
    9.2544   15.0503    2.9650 O   0  0  0  0  0  0  0  0  0  0  0  0
    5.6450   11.0048    1.4038 O   0  0  0  0  0  0  0  0  0  0  0  0
    5.3528    9.0295   -0.2754 O   0  0  0  0  0  0  0  0  0  0  0  0
    7.5973    2.2924    0.0319 O   0  0  0  0  0  0  0  0  0  0  0  0
    6.8207   13.6701    2.0878 N   0  0  0  0  0  0  0  0  0  0  0  0
    7.5783    9.0505    0.0708 N   0  0  0  0  0  0  0  0  0  0  0  0
    6.8548    4.7487    0.0664 N   0  0  0  0  0  0  0  0  0  0  0  0
    6.3319    0.3572    0.0374 N   0  0  0  0  0  0  0  0  0  0  0  0
    7.2244   12.7825    0.9723 C   0  0  0  0  0  0  0  0  0  0  0  0
    7.0972   15.0870    1.7602 C   0  0  0  0  0  0  0  0  0  0  0  0
    7.5061   13.3748    3.3615 C   0  0  0  0  0  0  0  0  0  0  0  0
    7.0346   11.2586    1.1852 C   0  0  2  0  0  0  0  0  0  0  0  0
    8.6007   15.4240    1.7436 C   0  0  0  0  0  0  0  0  0  0  0  0
    9.0107   13.6779    3.3048 C   0  0  0  0  0  0  0  0  0  0  0  0
    7.6184   10.5020   -0.0407 C   0  0  0  0  0  0  0  0  0  0  0  0
    6.3778    6.9196   -0.0031 C   0  0  0  0  0  0  0  0  0  0  0  0
    5.1504    6.1373    0.0435 C   0  0  0  0  0  0  0  0  0  0  0  0
    5.4932    4.7947    0.0564 C   0  0  0  0  0  0  0  0  0  0  0  0
    7.4210    5.9975    0.0271 C   0  0  0  0  0  0  0  0  0  0  0  0
    6.3850    8.3853   -0.0814 C   0  0  0  0  0  0  0  0  0  0  0  0
    4.7176    3.6053    0.0547 C   0  0  0  0  0  0  0  0  0  0  0  0
    5.1310    2.3293    0.0349 C   0  0  0  0  0  0  0  0  0  0  0  0
    4.1968    1.1893    0.0280 C   0  0  0  0  0  0  0  0  0  0  0  0
    3.7683    6.7152    0.0551 C   0  0  0  0  0  0  0  0  0  0  0  0
    8.9073    6.0463    0.0045 C   0  0  0  0  0  0  0  0  0  0  0  0
    4.9839    0.0323    0.0360 C   0  0  0  0  0  0  0  0  0  0  0  0
    6.5205    1.7251    0.0298 C   0  0  0  0  0  0  0  0  0  0  0  0
    2.8167    1.0918    0.0099 C   0  0  0  0  0  0  0  0  0  0  0  0
    4.4495   -1.2397    0.0368 C   0  0  0  0  0  0  0  0  0  0  0  0
    2.2630   -0.1873    0.0077 C   0  0  0  0  0  0  0  0  0  0  0  0
    3.0586   -1.3423    0.0238 C   0  0  0  0  0  0  0  0  0  0  0  0
    5.3043   10.4543    0.6679 H   0  0  0  0  0  0  0  0  0  0  0  0
    8.4344    8.5221    0.1291 H   0  0  0  0  0  0  0  0  0  0  0  0
    7.4044    3.8974    0.0771 H   0  0  0  0  0  0  0  0  0  0  0  0
    7.1006   -0.2949    0.0398 H   0  0  0  0  0  0  0  0  0  0  0  0
    8.2689   12.9543    0.6933 H   0  0  0  0  0  0  0  0  0  0  0  0
    6.6141   13.0686    0.1049 H   0  0  0  0  0  0  0  0  0  0  0  0
    6.6092   15.7083    2.5232 H   0  0  0  0  0  0  0  0  0  0  0  0
    6.6320   15.3596    0.8057 H   0  0  0  0  0  0  0  0  0  0  0  0
    7.0542   14.0073    4.1382 H   0  0  0  0  0  0  0  0  0  0  0  0
    7.3242   12.3458    3.6857 H   0  0  0  0  0  0  0  0  0  0  0  0
    7.5690   10.9177    2.0772 H   0  0  0  0  0  0  0  0  0  0  0  0
    9.1127   14.9431    0.9028 H   0  0  0  0  0  0  0  0  0  0  0  0
    8.7311   16.5036    1.6201 H   0  0  0  0  0  0  0  0  0  0  0  0
    9.4592   13.4979    4.2867 H   0  0  0  0  0  0  0  0  0  0  0  0
    9.5281   13.0280    2.5896 H   0  0  0  0  0  0  0  0  0  0  0  0
    8.6688   10.7763   -0.1856 H   0  0  0  0  0  0  0  0  0  0  0  0
    7.0646   10.7792   -0.9458 H   0  0  0  0  0  0  0  0  0  0  0  0
    3.6396    3.7820    0.0533 H   0  0  0  0  0  0  0  0  0  0  0  0
    3.6374    7.3637    0.9283 H   0  0  0  0  0  0  0  0  0  0  0  0
    3.5905    7.3038   -0.8511 H   0  0  0  0  0  0  0  0  0  0  0  0
    2.9941    5.9458    0.1001 H   0  0  0  0  0  0  0  0  0  0  0  0
    9.2703    6.4396   -0.9482 H   0  0  0  0  0  0  0  0  0  0  0  0
    9.3032    6.6386    0.8322 H   0  0  0  0  0  0  0  0  0  0  0  0
    9.3295    5.0365    0.1139 H   0  0  0  0  0  0  0  0  0  0  0  0
    2.1687    1.9591   -0.0042 H   0  0  0  0  0  0  0  0  0  0  0  0
    5.0770   -2.1232    0.0458 H   0  0  0  0  0  0  0  0  0  0  0  0
    2.5783   -2.3161    0.0225 H   0  0  0  0  0  0  0  0  0  0  0  0
  1 31  1  0  0  0  0
  2 14  1  0  0  0  0
  2 15  1  0  0  0  0
  3 33  1  0  0  0  0
  4 21  2  0  0  0  0
  5 28  2  0  0  0  0
  6 10  1  0  0  0  0
  6 11  1  0  0  0  0
  6 12  1  0  0  0  0
  7 16  1  0  0  0  0
  7 21  1  0  0  0  0
  7 34  1  0  0  0  0
  8 19  1  0  0  0  0
  8 20  1  0  0  0  0
  8 35  1  0  0  0  0
  9 27  1  0  0  0  0
  9 28  1  0  0  0  0
  9 36  1  0  0  0  0
 10 13  1  0  0  0  0
 10 37  1  0  0  0  0
 10 38  1  0  0  0  0
 11 14  1  0  0  0  0
 11 39  1  0  0  0  0
 11 40  1  0  0  0  0
 12 15  1  0  0  0  0
 12 41  1  0  0  0  0
 12 42  1  0  0  0  0
 13  3  1  0  0  0  0
 13 16  1  0  0  0  0
 13 43  1  1  0  0  0
 14 44  1  0  0  0  0
 14 45  1  0  0  0  0
 15 46  1  0  0  0  0
 15 47  1  0  0  0  0
 16 48  1  0  0  0  0
 16 49  1  0  0  0  0
 17 18  1  0  0  0  0
 17 20  2  0  0  0  0
 17 21  1  0  0  0  0
 18 19  2  0  0  0  0
 18 25  1  0  0  0  0
 19 22  1  0  0  0  0
 20 26  1  0  0  0  0
 22 23  2  0  0  0  0
 22 50  1  0  0  0  0
 23 24  1  0  0  0  0
 23 28  1  0  0  0  0
 24 27  2  0  0  0  0
 24 29  1  0  0  0  0
 25 51  1  0  0  0  0
 25 52  1  0  0  0  0
 25 53  1  0  0  0  0
 26 54  1  0  0  0  0
 26 55  1  0  0  0  0
 26 56  1  0  0  0  0
 27 30  1  0  0  0  0
 29 31  2  0  0  0  0
 29 57  1  0  0  0  0
 30 32  2  0  0  0  0
 30 58  1  0  0  0  0
 31 32  1  0  0  0  0
 32 59  1  0  0  0  0
M  END
>  <Mol_ID>
6636

>  <Formula>
C23H27FN4O4

>  <MolWeight>
442.4832832

>  <Cat>
S0504

>  <Name>
SU14813

>  <Synonyms>
SU 014813

>  <Target>
c-Kit,PDGFR,VEGFR

>  <Form>
Free base

>  <CAS>
627908-92-3

>  <URL>
http://www.selleckchem.com/products/su14813.html

$$$$
