SU5208
 OpenBabel08302521323D

 25 27  0  0  0  0  0  0  0  0999 V2000
   -0.7237    1.5175    0.0706 N   0  0  0  0  0  0  0  0  0  0  0  0
   -1.8078    0.6526    0.0672 C   0  0  0  0  0  0  0  0  0  0  0  0
   -1.1996   -0.7300    0.0467 C   0  0  0  0  0  0  0  0  0  0  0  0
    0.2599   -0.5540    0.0402 C   0  0  0  0  0  0  0  0  0  0  0  0
    1.3312   -1.4298    0.0079 C   0  0  0  0  0  0  0  0  0  0  0  0
    2.6243   -0.8897   -0.0062 C   0  0  0  0  0  0  0  0  0  0  0  0
    2.8298    0.5025    0.0133 C   0  0  0  0  0  0  0  0  0  0  0  0
    1.7464    1.3816    0.0434 C   0  0  0  0  0  0  0  0  0  0  0  0
    0.4825    0.8269    0.0538 C   0  0  0  0  0  0  0  0  0  0  0  0
   -2.9784    0.9745    0.0888 O   0  0  0  0  0  0  0  0  0  0  0  0
   -1.8479   -1.9040    0.0148 C   0  0  0  0  0  0  0  0  0  0  0  0
   -3.2633   -2.0052   -0.0433 C   0  0  0  0  0  0  0  0  0  0  0  0
   -4.1904   -1.9870    0.9836 C   0  0  0  0  0  0  0  0  0  0  0  0
   -5.5310   -2.1385    0.5202 C   0  0  0  0  0  0  0  0  0  0  0  0
   -5.5899   -2.2672   -0.8483 C   0  0  0  0  0  0  0  0  0  0  0  0
   -4.0385   -2.2285   -1.5630 S   0  0  0  0  0  0  0  0  0  0  0  0
   -0.8339    2.5192    0.0789 H   0  0  0  0  0  0  0  0  0  0  0  0
    1.1901   -2.5047   -0.0140 H   0  0  0  0  0  0  0  0  0  0  0  0
    3.4861   -1.5539   -0.0361 H   0  0  0  0  0  0  0  0  0  0  0  0
    3.8439    0.8967    0.0013 H   0  0  0  0  0  0  0  0  0  0  0  0
    1.8978    2.4547    0.0557 H   0  0  0  0  0  0  0  0  0  0  0  0
   -1.2962   -2.8384   -0.0037 H   0  0  0  0  0  0  0  0  0  0  0  0
   -3.9220   -1.8587    2.0251 H   0  0  0  0  0  0  0  0  0  0  0  0
   -6.4065   -2.1430    1.1575 H   0  0  0  0  0  0  0  0  0  0  0  0
   -6.4693   -2.3838   -1.4663 H   0  0  0  0  0  0  0  0  0  0  0  0
  1  2  1  0  0  0  0
  1  9  1  0  0  0  0
  1 17  1  0  0  0  0
  2  3  1  0  0  0  0
  2 10  2  0  0  0  0
  3  4  1  0  0  0  0
  3 11  2  0  0  0  0
  4  5  2  0  0  0  0
  4  9  1  0  0  0  0
  5  6  1  0  0  0  0
  5 18  1  0  0  0  0
  6  7  2  0  0  0  0
  6 19  1  0  0  0  0
  7  8  1  0  0  0  0
  7 20  1  0  0  0  0
  8  9  2  0  0  0  0
  8 21  1  0  0  0  0
 11 12  1  0  0  0  0
 11 22  1  0  0  0  0
 12 13  2  0  0  0  0
 12 16  1  0  0  0  0
 13 14  1  0  0  0  0
 13 23  1  0  0  0  0
 14 15  2  0  0  0  0
 14 24  1  0  0  0  0
 15 16  1  0  0  0  0
 15 25  1  0  0  0  0
M  END
>  <Mol_ID>
6153

>  <Formula>
C13H9NOS

>  <MolWeight>
227.28166

>  <Cat>
S0291

>  <Name>
SU5208

>  <Synonyms>
3-[(Thien-2-yl)methylene]-2-indolinone

>  <Target>
VEGFR

>  <Form>
free base

>  <CAS>
62540-08-3

>  <URL>
http://www.selleckchem.com/products/su5208.html

$$$$
