SU5205
 OpenBabel08302521243D

 28 30  0  0  0  0  0  0  0  0999 V2000
    2.1281    0.0602    0.1581 F   0  0  0  0  0  0  0  0  0  0  0  0
   -2.1925    1.2853   -2.6535 O   0  0  0  0  0  0  0  0  0  0  0  0
   -4.4145    1.6298   -3.2164 N   0  0  0  0  0  0  0  0  0  0  0  0
   -5.5037    0.7910   -1.3781 C   0  0  0  0  0  0  0  0  0  0  0  0
   -4.0570    0.6406   -1.1719 C   0  0  0  0  0  0  0  0  0  0  0  0
   -5.6531    1.3975   -2.6309 C   0  0  0  0  0  0  0  0  0  0  0  0
   -3.3785    1.2064   -2.4015 C   0  0  0  0  0  0  0  0  0  0  0  0
   -3.4495    0.1158   -0.0967 C   0  0  0  0  0  0  0  0  0  0  0  0
   -6.6188    0.4833   -0.6188 C   0  0  0  0  0  0  0  0  0  0  0  0
   -6.8842    1.7109   -3.1682 C   0  0  0  0  0  0  0  0  0  0  0  0
   -1.9931    0.0492    0.0458 C   0  0  0  0  0  0  0  0  0  0  0  0
   -7.8812    0.7943   -1.1439 C   0  0  0  0  0  0  0  0  0  0  0  0
   -8.0121    1.4014   -2.4071 C   0  0  0  0  0  0  0  0  0  0  0  0
   -1.3079    1.1144    0.6457 C   0  0  0  0  0  0  0  0  0  0  0  0
   -1.2734   -1.0290   -0.4858 C   0  0  0  0  0  0  0  0  0  0  0  0
    0.0870    1.1136    0.6890 C   0  0  0  0  0  0  0  0  0  0  0  0
    0.1223   -1.0268   -0.4406 C   0  0  0  0  0  0  0  0  0  0  0  0
    0.7886    0.0476    0.1382 C   0  0  0  0  0  0  0  0  0  0  0  0
   -4.2540    2.0578   -4.1151 H   0  0  0  0  0  0  0  0  0  0  0  0
   -4.0163   -0.2680    0.7457 H   0  0  0  0  0  0  0  0  0  0  0  0
   -6.5335    0.0196    0.3580 H   0  0  0  0  0  0  0  0  0  0  0  0
   -6.9785    2.1803   -4.1407 H   0  0  0  0  0  0  0  0  0  0  0  0
   -8.7766    0.5673   -0.5679 H   0  0  0  0  0  0  0  0  0  0  0  0
   -9.0028    1.6343   -2.7926 H   0  0  0  0  0  0  0  0  0  0  0  0
   -1.8533    1.9642    1.0484 H   0  0  0  0  0  0  0  0  0  0  0  0
   -1.7899   -1.8537   -0.9702 H   0  0  0  0  0  0  0  0  0  0  0  0
    0.6285    1.9464    1.1247 H   0  0  0  0  0  0  0  0  0  0  0  0
    0.6927   -1.8410   -0.8750 H   0  0  0  0  0  0  0  0  0  0  0  0
  1 18  1  0  0  0  0
  2  7  2  0  0  0  0
  3  6  1  0  0  0  0
  3  7  1  0  0  0  0
  3 19  1  0  0  0  0
  4  5  1  0  0  0  0
  4  6  2  0  0  0  0
  4  9  1  0  0  0  0
  5  7  1  0  0  0  0
  5  8  2  0  0  0  0
  6 10  1  0  0  0  0
  8 11  1  0  0  0  0
  8 20  1  0  0  0  0
  9 12  2  0  0  0  0
  9 21  1  0  0  0  0
 10 13  2  0  0  0  0
 10 22  1  0  0  0  0
 11 14  2  0  0  0  0
 11 15  1  0  0  0  0
 12 13  1  0  0  0  0
 12 23  1  0  0  0  0
 13 24  1  0  0  0  0
 14 16  1  0  0  0  0
 14 25  1  0  0  0  0
 15 17  2  0  0  0  0
 15 26  1  0  0  0  0
 16 18  2  0  0  0  0
 16 27  1  0  0  0  0
 17 18  1  0  0  0  0
 17 28  1  0  0  0  0
M  END
>  <Mol_ID>
4945

>  <Formula>
C15H10FNO

>  <MolWeight>
239.2444032

>  <Cat>
S6808

>  <Name>
SU5205

>  <Synonyms>
N/A

>  <Target>
VEGFR

>  <Form>
Free Base

>  <CAS>
3476-86-6

>  <URL>
http://www.selleckchem.com/products/su-5205.html

$$$$
