SU5408
 OpenBabel08302521233D

 41 43  0  0  0  0  0  0  0  0999 V2000
    0.6324   -1.1035   -0.0436 N   0  0  0  0  0  0  0  0  0  0  0  0
    1.0529    0.2103   -0.0501 C   0  0  0  0  0  0  0  0  0  0  0  0
   -0.0779    1.0215   -0.0375 C   0  0  0  0  0  0  0  0  0  0  0  0
   -1.2166    0.1275   -0.0440 C   0  0  0  0  0  0  0  0  0  0  0  0
   -0.7376   -1.1731   -0.0098 C   0  0  0  0  0  0  0  0  0  0  0  0
   -0.1417    2.4918    0.0152 C   0  0  0  0  0  0  0  0  0  0  0  0
   -1.1965    3.1136    0.0347 O   0  0  0  0  0  0  0  0  0  0  0  0
    1.0855    3.1021    0.0390 O   0  0  0  0  0  0  0  0  0  0  0  0
   -2.6461    0.5483   -0.0180 C   0  0  0  0  0  0  0  0  0  0  0  0
    2.5044    0.5457   -0.0111 C   0  0  0  0  0  0  0  0  0  0  0  0
   -1.3735   -2.4444    0.0672 C   0  0  0  0  0  0  0  0  0  0  0  0
   -1.9203   -3.4184    3.4915 N   0  0  0  0  0  0  0  0  0  0  0  0
   -1.3322   -2.5289    2.6126 C   0  0  0  0  0  0  0  0  0  0  0  0
   -1.6677   -3.0502    1.2340 C   0  0  0  0  0  0  0  0  0  0  0  0
   -2.4174   -4.3115    1.4349 C   0  0  0  0  0  0  0  0  0  0  0  0
   -2.9593   -5.2760    0.6016 C   0  0  0  0  0  0  0  0  0  0  0  0
   -3.6145   -6.3749    1.1876 C   0  0  0  0  0  0  0  0  0  0  0  0
   -3.7274   -6.4987    2.5856 C   0  0  0  0  0  0  0  0  0  0  0  0
   -3.1853   -5.5286    3.4229 C   0  0  0  0  0  0  0  0  0  0  0  0
   -2.5407   -4.4619    2.8244 C   0  0  0  0  0  0  0  0  0  0  0  0
   -0.6667   -1.5668    2.9256 O   0  0  0  0  0  0  0  0  0  0  0  0
    1.0626    4.5376    0.1062 C   0  0  0  0  0  0  0  0  0  0  0  0
    0.8204    5.1435   -1.2664 C   0  0  0  0  0  0  0  0  0  0  0  0
    1.2528   -1.8995    0.0067 H   0  0  0  0  0  0  0  0  0  0  0  0
   -2.8473    1.1530    0.8711 H   0  0  0  0  0  0  0  0  0  0  0  0
   -2.8826    1.1390   -0.9084 H   0  0  0  0  0  0  0  0  0  0  0  0
   -3.3214   -0.3118    0.0034 H   0  0  0  0  0  0  0  0  0  0  0  0
    2.7914    1.1413   -0.8833 H   0  0  0  0  0  0  0  0  0  0  0  0
    2.7389    1.1158    0.8936 H   0  0  0  0  0  0  0  0  0  0  0  0
    3.1268   -0.3554   -0.0033 H   0  0  0  0  0  0  0  0  0  0  0  0
   -1.7067   -2.8811   -0.8687 H   0  0  0  0  0  0  0  0  0  0  0  0
   -1.8537   -3.3121    4.4926 H   0  0  0  0  0  0  0  0  0  0  0  0
   -2.8878   -5.2045   -0.4787 H   0  0  0  0  0  0  0  0  0  0  0  0
   -4.0450   -7.1503    0.5567 H   0  0  0  0  0  0  0  0  0  0  0  0
   -4.2387   -7.3580    3.0170 H   0  0  0  0  0  0  0  0  0  0  0  0
   -3.2626   -5.6117    4.5015 H   0  0  0  0  0  0  0  0  0  0  0  0
    0.3243    4.8878    0.8375 H   0  0  0  0  0  0  0  0  0  0  0  0
    2.0452    4.8566    0.4706 H   0  0  0  0  0  0  0  0  0  0  0  0
   -0.1641    4.8693   -1.6572 H   0  0  0  0  0  0  0  0  0  0  0  0
    0.8798    6.2349   -1.2245 H   0  0  0  0  0  0  0  0  0  0  0  0
    1.5610    4.7764   -1.9840 H   0  0  0  0  0  0  0  0  0  0  0  0
  1  2  1  0  0  0  0
  1  5  1  0  0  0  0
  1 24  1  0  0  0  0
  2  3  2  0  0  0  0
  2 10  1  0  0  0  0
  3  4  1  0  0  0  0
  3  6  1  0  0  0  0
  4  5  2  0  0  0  0
  4  9  1  0  0  0  0
  5 11  1  0  0  0  0
  6  7  2  0  0  0  0
  6  8  1  0  0  0  0
  8 22  1  0  0  0  0
  9 25  1  0  0  0  0
  9 26  1  0  0  0  0
  9 27  1  0  0  0  0
 10 28  1  0  0  0  0
 10 29  1  0  0  0  0
 10 30  1  0  0  0  0
 11 14  2  0  0  0  0
 11 31  1  0  0  0  0
 12 13  1  0  0  0  0
 12 20  1  0  0  0  0
 12 32  1  0  0  0  0
 13 14  1  0  0  0  0
 13 21  2  0  0  0  0
 14 15  1  0  0  0  0
 15 16  2  0  0  0  0
 15 20  1  0  0  0  0
 16 17  1  0  0  0  0
 16 33  1  0  0  0  0
 17 18  2  0  0  0  0
 17 34  1  0  0  0  0
 18 19  1  0  0  0  0
 18 35  1  0  0  0  0
 19 20  2  0  0  0  0
 19 36  1  0  0  0  0
 22 23  1  0  0  0  0
 22 37  1  0  0  0  0
 22 38  1  0  0  0  0
 23 39  1  0  0  0  0
 23 40  1  0  0  0  0
 23 41  1  0  0  0  0
M  END
>  <Mol_ID>
4827

>  <Formula>
C18H18N2O3

>  <MolWeight>
310.34712

>  <Cat>
S6514

>  <Name>
SU5408

>  <Synonyms>
VEGFR2 Kinase Inhibitor I

>  <Target>
VEGFR

>  <Form>
Free Base

>  <CAS>
15966-93-5

>  <URL>
http://www.selleck.cn/products/su5408.html

$$$$
