SU5402
 OpenBabel08302519563D

 38 40  0  0  0  0  0  0  0  0999 V2000
    0.1154   -0.9655   -1.2918 C   0  0  0  0  0  0  0  0  0  0  0  0
   -1.1619   -1.0912   -0.5823 C   0  0  0  0  0  0  0  0  0  0  0  0
    0.2247    0.3851   -1.6459 C   0  0  0  0  0  0  0  0  0  0  0  0
    1.1107   -1.8557   -1.6563 C   0  0  0  0  0  0  0  0  0  0  0  0
   -1.7533   -2.0976    0.0781 C   0  0  0  0  0  0  0  0  0  0  0  0
   -1.8162    0.2675   -0.6083 C   0  0  0  0  0  0  0  0  0  0  0  0
    1.3201    0.8958   -2.3140 C   0  0  0  0  0  0  0  0  0  0  0  0
   -0.9069    1.0915   -1.2419 N   0  0  0  0  0  0  0  0  0  0  0  0
    2.2241   -1.3638   -2.3466 C   0  0  0  0  0  0  0  0  0  0  0  0
   -1.1192   -3.3446    0.2657 C   0  0  0  0  0  0  0  0  0  0  0  0
   -2.9039    0.5670   -0.1480 O   0  0  0  0  0  0  0  0  0  0  0  0
    2.3331    0.0014   -2.6619 C   0  0  0  0  0  0  0  0  0  0  0  0
   -0.2733   -3.8525    1.2439 C   0  0  0  0  0  0  0  0  0  0  0  0
   -1.3085   -4.3144   -0.6855 N   0  0  0  0  0  0  0  0  0  0  0  0
    0.1960   -5.1198    0.7536 C   0  0  0  0  0  0  0  0  0  0  0  0
    0.1511   -3.1716    2.5174 C   0  0  0  0  0  0  0  0  0  0  0  0
   -0.4936   -5.3777   -0.4158 C   0  0  0  0  0  0  0  0  0  0  0  0
    1.2424   -6.0070    1.3359 C   0  0  0  0  0  0  0  0  0  0  0  0
   -0.9927   -2.7845    3.4461 C   0  0  0  0  0  0  0  0  0  0  0  0
   -1.7661   -3.9773    3.9472 C   0  0  0  0  0  0  0  0  0  0  0  0
   -2.8414   -4.2868    3.1899 O   0  0  0  0  0  0  0  0  0  0  0  0
   -1.4705   -4.6062    4.9523 O   0  0  0  0  0  0  0  0  0  0  0  0
    1.0488   -2.9116   -1.4246 H   0  0  0  0  0  0  0  0  0  0  0  0
   -2.7214   -1.9334    0.5472 H   0  0  0  0  0  0  0  0  0  0  0  0
    1.3970    1.9476   -2.5641 H   0  0  0  0  0  0  0  0  0  0  0  0
   -1.0727    2.0741   -1.3952 H   0  0  0  0  0  0  0  0  0  0  0  0
    3.0170   -2.0495   -2.6399 H   0  0  0  0  0  0  0  0  0  0  0  0
    3.2156    0.3599   -3.1867 H   0  0  0  0  0  0  0  0  0  0  0  0
   -1.8950   -4.2255   -1.5058 H   0  0  0  0  0  0  0  0  0  0  0  0
    0.8442   -3.8114    3.0733 H   0  0  0  0  0  0  0  0  0  0  0  0
    0.7134   -2.2676    2.2524 H   0  0  0  0  0  0  0  0  0  0  0  0
   -0.4496   -6.2221   -1.0911 H   0  0  0  0  0  0  0  0  0  0  0  0
    0.8008   -6.9399    1.6969 H   0  0  0  0  0  0  0  0  0  0  0  0
    1.9898   -6.2514    0.5721 H   0  0  0  0  0  0  0  0  0  0  0  0
    1.7759   -5.5346    2.1643 H   0  0  0  0  0  0  0  0  0  0  0  0
   -0.5862   -2.2763    4.3300 H   0  0  0  0  0  0  0  0  0  0  0  0
   -1.6800   -2.0653    2.9890 H   0  0  0  0  0  0  0  0  0  0  0  0
   -2.8967   -3.7582    2.3712 H   0  0  0  0  0  0  0  0  0  0  0  0
  1  2  1  0  0  0  0
  1  3  1  0  0  0  0
  1  4  2  0  0  0  0
  2  5  2  3  0  0  0
  2  6  1  0  0  0  0
  3  7  2  0  0  0  0
  3  8  1  0  0  0  0
  4  9  1  0  0  0  0
  4 23  1  0  0  0  0
  5 10  1  0  0  0  0
  5 24  1  0  0  0  0
  6 11  2  0  0  0  0
  6  8  1  0  0  0  0
  7 12  1  0  0  0  0
  7 25  1  0  0  0  0
  8 26  1  0  0  0  0
  9 12  2  0  0  0  0
  9 27  1  0  0  0  0
 10 13  2  0  0  0  0
 10 14  1  0  0  0  0
 12 28  1  0  0  0  0
 13 15  1  0  0  0  0
 13 16  1  0  0  0  0
 14 17  1  0  0  0  0
 14 29  1  0  0  0  0
 15 18  1  0  0  0  0
 15 17  2  0  0  0  0
 16 19  1  0  0  0  0
 16 30  1  0  0  0  0
 16 31  1  0  0  0  0
 17 32  1  0  0  0  0
 18 33  1  0  0  0  0
 18 34  1  0  0  0  0
 18 35  1  0  0  0  0
 19 20  1  0  0  0  0
 19 36  1  0  0  0  0
 19 37  1  0  0  0  0
 20 21  1  0  0  0  0
 20 22  2  0  0  0  0
 21 38  1  0  0  0  0
M  END
>  <Mol_ID>
2206

>  <Formula>
C17H16N2O3

>  <MolWeight>
296.32054

>  <Cat>
S7667

>  <Name>
SU5402

>  <Synonyms>
N/A

>  <Target>
FGFR,PDGFR,VEGFR

>  <Form>
free base

>  <CAS>
215543-92-3

>  <URL>
http://selleckchem.com/products/su5402.html

$$$$
