SU5614
 OpenBabel08302521243D

 32 34  0  0  0  0  0  0  0  0999 V2000
    2.6435   -0.8660   -0.0389 C   0  0  0  0  0  0  0  0  0  0  0  0
    2.8293    0.5285    0.0125 C   0  0  0  0  0  0  0  0  0  0  0  0
    1.7319    1.3849    0.0430 C   0  0  0  0  0  0  0  0  0  0  0  0
    0.4791    0.8057    0.0187 C   0  0  0  0  0  0  0  0  0  0  0  0
    0.2647   -0.5786   -0.0264 C   0  0  0  0  0  0  0  0  0  0  0  0
    1.3556   -1.4309   -0.0569 C   0  0  0  0  0  0  0  0  0  0  0  0
   -0.7257    1.4920    0.0143 N   0  0  0  0  0  0  0  0  0  0  0  0
   -1.8026    0.6292   -0.0573 C   0  0  0  0  0  0  0  0  0  0  0  0
   -1.2021   -0.7598   -0.0421 C   0  0  0  0  0  0  0  0  0  0  0  0
   -2.9686    0.9687   -0.1462 O   0  0  0  0  0  0  0  0  0  0  0  0
   -1.8754   -1.9217   -0.0035 C   0  0  0  0  0  0  0  0  0  0  0  0
   -3.2935   -1.9906    0.0671 C   0  0  0  0  0  0  0  0  0  0  0  0
   -4.0211   -2.0191   -1.1002 N   0  0  0  0  0  0  0  0  0  0  0  0
   -5.3685   -2.0109   -0.8229 C   0  0  0  0  0  0  0  0  0  0  0  0
   -5.5001   -2.0213    0.5502 C   0  0  0  0  0  0  0  0  0  0  0  0
   -4.1939   -2.0174    1.1209 C   0  0  0  0  0  0  0  0  0  0  0  0
   -6.4009   -1.9459   -1.8873 C   0  0  0  0  0  0  0  0  0  0  0  0
   -3.8934   -1.9787    2.5751 C   0  0  0  0  0  0  0  0  0  0  0  0
    3.5189   -1.5123   -0.0664 H   0  0  0  0  0  0  0  0  0  0  0  0
    3.8350    0.9430    0.0249 H   0  0  0  0  0  0  0  0  0  0  0  0
    1.8599    2.4607    0.0792 H   0  0  0  0  0  0  0  0  0  0  0  0
    1.2385   -2.5083   -0.0977 H   0  0  0  0  0  0  0  0  0  0  0  0
   -0.8386    2.4936    0.0193 H   0  0  0  0  0  0  0  0  0  0  0  0
   -1.3398   -2.8646    0.0522 H   0  0  0  0  0  0  0  0  0  0  0  0
   -3.6286   -1.9696   -2.0298 H   0  0  0  0  0  0  0  0  0  0  0  0
   -6.4375   -1.9892    1.0915 H   0  0  0  0  0  0  0  0  0  0  0  0
   -7.0827   -2.7989   -1.8156 H   0  0  0  0  0  0  0  0  0  0  0  0
   -6.9896   -1.0281   -1.7889 H   0  0  0  0  0  0  0  0  0  0  0  0
   -5.9528   -1.9523   -2.8863 H   0  0  0  0  0  0  0  0  0  0  0  0
   -4.3341   -1.0839    3.0266 H   0  0  0  0  0  0  0  0  0  0  0  0
   -4.3123   -2.8586    3.0737 H   0  0  0  0  0  0  0  0  0  0  0  0
   -2.8169   -1.9593    2.7677 H   0  0  0  0  0  0  0  0  0  0  0  0
  1  2  2  0  0  0  0
  1 19  1  0  0  0  0
  2  3  1  0  0  0  0
  2 20  1  0  0  0  0
  3  4  2  0  0  0  0
  3 21  1  0  0  0  0
  4  5  1  0  0  0  0
  4  7  1  0  0  0  0
  5  6  2  0  0  0  0
  6  1  1  0  0  0  0
  6 22  1  0  0  0  0
  7  8  1  0  0  0  0
  7 23  1  0  0  0  0
  8  9  1  0  0  0  0
  8 10  2  0  0  0  0
  9  5  1  0  0  0  0
  9 11  2  0  0  0  0
 11 12  1  0  0  0  0
 11 24  1  0  0  0  0
 12 13  1  0  0  0  0
 13 14  1  0  0  0  0
 13 25  1  0  0  0  0
 14 15  2  0  0  0  0
 14 17  1  0  0  0  0
 15 16  1  0  0  0  0
 15 26  1  0  0  0  0
 16 12  2  0  0  0  0
 16 18  1  0  0  0  0
 17 27  1  0  0  0  0
 17 28  1  0  0  0  0
 17 29  1  0  0  0  0
 18 30  1  0  0  0  0
 18 31  1  0  0  0  0
 18 32  1  0  0  0  0
M  END
>  <Mol_ID>
5058

>  <Formula>
C15H13ClN2O

>  <MolWeight>
272.72952

>  <Cat>
S0278

>  <Name>
SU5614

>  <Synonyms>
Chloro-SU5416, Chloro-Semaxanib

>  <Target>
Apoptosis related,c-Kit,FLT3,VEGFR

>  <Form>
free base

>  <CAS>
1055412-47-9

>  <URL>
http://www.selleckchem.com/products/su5614.html

$$$$
