SU6656.cdx
 OpenBabel08302519593D

 47 50  0  0  0  0  0  0  0  0999 V2000
    2.6751   -0.8579   -0.0577 C   0  0  0  0  0  0  0  0  0  0  0  0
    2.8493    0.5399   -0.0139 C   0  0  0  0  0  0  0  0  0  0  0  0
    1.7392    1.3760    0.0252 C   0  0  0  0  0  0  0  0  0  0  0  0
    0.4924    0.7785    0.0005 C   0  0  0  0  0  0  0  0  0  0  0  0
    0.2891   -0.6090   -0.0509 C   0  0  0  0  0  0  0  0  0  0  0  0
    1.3906   -1.4514   -0.0900 C   0  0  0  0  0  0  0  0  0  0  0  0
   -0.7163    1.4539    0.0105 N   0  0  0  0  0  0  0  0  0  0  0  0
   -1.7893    0.5868   -0.0474 C   0  0  0  0  0  0  0  0  0  0  0  0
   -1.1840   -0.7987   -0.0460 C   0  0  0  0  0  0  0  0  0  0  0  0
   -1.8723   -1.9531   -0.0033 C   0  0  0  0  0  0  0  0  0  0  0  0
   -2.9575    0.9226   -0.1121 O   0  0  0  0  0  0  0  0  0  0  0  0
   -3.2912   -2.0018    0.0851 C   0  0  0  0  0  0  0  0  0  0  0  0
   -4.0486   -2.0171   -1.0703 N   0  0  0  0  0  0  0  0  0  0  0  0
   -5.3818   -2.0030   -0.7459 C   0  0  0  0  0  0  0  0  0  0  0  0
   -5.4936   -1.9821    0.6293 C   0  0  0  0  0  0  0  0  0  0  0  0
   -4.1757   -2.0152    1.1521 C   0  0  0  0  0  0  0  0  0  0  0  0
   -6.5172   -1.9733   -1.7126 C   0  0  0  0  0  0  0  0  0  0  0  0
   -7.7837   -1.4462   -1.0065 C   0  0  0  0  0  0  0  0  0  0  0  0
   -7.9903   -2.1116    0.3678 C   0  0  0  0  0  0  0  0  0  0  0  0
   -6.8095   -1.8573    1.3271 C   0  0  0  0  0  0  0  0  0  0  0  0
    4.1373   -1.8908   -0.0881 S   0  0  0  0  0  0  0  0  0  0  0  0
    4.4431   -2.1381    1.5755 N   0  0  0  0  0  0  0  0  0  0  0  0
    4.9673   -0.9717    2.3091 C   0  0  0  0  0  0  0  0  0  0  0  0
    3.3903   -2.8508    2.3257 C   0  0  0  0  0  0  0  0  0  0  0  0
    3.7543   -3.1545   -0.6824 O   0  0  0  0  0  0  0  0  0  0  0  0
    5.2175   -1.0991   -0.6412 O   0  0  0  0  0  0  0  0  0  0  0  0
    3.8483    0.9750   -0.0016 H   0  0  0  0  0  0  0  0  0  0  0  0
    1.8539    2.4535    0.0685 H   0  0  0  0  0  0  0  0  0  0  0  0
    1.2812   -2.5297   -0.1314 H   0  0  0  0  0  0  0  0  0  0  0  0
   -0.8404    2.4572    0.0216 H   0  0  0  0  0  0  0  0  0  0  0  0
   -1.3491   -2.9053    0.0367 H   0  0  0  0  0  0  0  0  0  0  0  0
   -3.6801   -1.9837   -2.0111 H   0  0  0  0  0  0  0  0  0  0  0  0
   -3.9002   -1.9867    2.1983 H   0  0  0  0  0  0  0  0  0  0  0  0
   -6.7060   -2.9909   -2.0763 H   0  0  0  0  0  0  0  0  0  0  0  0
   -6.2866   -1.3460   -2.5794 H   0  0  0  0  0  0  0  0  0  0  0  0
   -8.6583   -1.6206   -1.6416 H   0  0  0  0  0  0  0  0  0  0  0  0
   -7.7009   -0.3611   -0.8677 H   0  0  0  0  0  0  0  0  0  0  0  0
   -8.9175   -1.7434    0.8232 H   0  0  0  0  0  0  0  0  0  0  0  0
   -8.1171   -3.1922    0.2217 H   0  0  0  0  0  0  0  0  0  0  0  0
   -6.8932   -0.8395    1.7281 H   0  0  0  0  0  0  0  0  0  0  0  0
   -6.8678   -2.5496    2.1746 H   0  0  0  0  0  0  0  0  0  0  0  0
    4.2094   -0.1880    2.3764 H   0  0  0  0  0  0  0  0  0  0  0  0
    5.2484   -1.2584    3.3276 H   0  0  0  0  0  0  0  0  0  0  0  0
    5.8666   -0.5793    1.8268 H   0  0  0  0  0  0  0  0  0  0  0  0
    2.4865   -2.2401    2.3919 H   0  0  0  0  0  0  0  0  0  0  0  0
    3.1552   -3.8127    1.8628 H   0  0  0  0  0  0  0  0  0  0  0  0
    3.7239   -3.0519    3.3490 H   0  0  0  0  0  0  0  0  0  0  0  0
  1  2  2  0  0  0  0
  1 21  1  0  0  0  0
  2  3  1  0  0  0  0
  2 27  1  0  0  0  0
  3  4  2  0  0  0  0
  3 28  1  0  0  0  0
  4  5  1  0  0  0  0
  4  7  1  0  0  0  0
  5  6  2  0  0  0  0
  6  1  1  0  0  0  0
  6 29  1  0  0  0  0
  7  8  1  0  0  0  0
  7 30  1  0  0  0  0
  8  9  1  0  0  0  0
  8 11  2  0  0  0  0
  9  5  1  0  0  0  0
  9 10  2  0  0  0  0
 10 12  1  0  0  0  0
 10 31  1  0  0  0  0
 12 13  1  0  0  0  0
 13 14  1  0  0  0  0
 13 32  1  0  0  0  0
 14 15  2  0  0  0  0
 14 17  1  0  0  0  0
 15 16  1  0  0  0  0
 16 12  2  0  0  0  0
 16 33  1  0  0  0  0
 17 18  1  0  0  0  0
 17 34  1  0  0  0  0
 17 35  1  0  0  0  0
 18 19  1  0  0  0  0
 18 36  1  0  0  0  0
 18 37  1  0  0  0  0
 19 20  1  0  0  0  0
 19 38  1  0  0  0  0
 19 39  1  0  0  0  0
 20 15  1  0  0  0  0
 20 40  1  0  0  0  0
 20 41  1  0  0  0  0
 21 22  1  0  0  0  0
 21 25  2  0  0  0  0
 21 26  2  0  0  0  0
 22 23  1  0  0  0  0
 22 24  1  0  0  0  0
 23 42  1  0  0  0  0
 23 43  1  0  0  0  0
 23 44  1  0  0  0  0
 24 45  1  0  0  0  0
 24 46  1  0  0  0  0
 24 47  1  0  0  0  0
M  END
>  <Mol_ID>
2589

>  <Formula>
C19H21N3O3S

>  <MolWeight>
371.45334

>  <Cat>
S7774

>  <Name>
SU6656

>  <Synonyms>
N/A

>  <Target>
Src

>  <Form>
free base

>  <CAS>
330161-87-0

>  <URL>
http://selleckchem.com/products/su6656.html

$$$$
