SU 5201
 OpenBabel08302521243D

 28 30  0  0  0  0  0  0  0  0999 V2000
    2.8550    0.5048    0.0008 C   0  0  0  0  0  0  0  0  0  0  0  0
    2.6500   -0.8887   -0.0125 C   0  0  0  0  0  0  0  0  0  0  0  0
    1.3569   -1.4283    0.0185 C   0  0  0  0  0  0  0  0  0  0  0  0
    0.2862   -0.5528    0.0627 C   0  0  0  0  0  0  0  0  0  0  0  0
    0.5089    0.8288    0.0716 C   0  0  0  0  0  0  0  0  0  0  0  0
    1.7721    1.3835    0.0445 C   0  0  0  0  0  0  0  0  0  0  0  0
   -1.1719   -0.7281    0.0758 C   0  0  0  0  0  0  0  0  0  0  0  0
   -1.7795    0.6562    0.0969 C   0  0  0  0  0  0  0  0  0  0  0  0
   -0.6964    1.5197    0.0965 N   0  0  0  0  0  0  0  0  0  0  0  0
   -2.9504    0.9809    0.1164 O   0  0  0  0  0  0  0  0  0  0  0  0
   -1.8345   -1.8948    0.0482 C   0  0  0  0  0  0  0  0  0  0  0  0
   -3.2933   -2.0042   -0.0274 C   0  0  0  0  0  0  0  0  0  0  0  0
   -3.9133   -2.0692   -1.2810 C   0  0  0  0  0  0  0  0  0  0  0  0
   -5.3051   -2.1147   -1.3773 C   0  0  0  0  0  0  0  0  0  0  0  0
   -6.0841   -2.1000   -0.2217 C   0  0  0  0  0  0  0  0  0  0  0  0
   -5.4723   -2.0471    1.0306 C   0  0  0  0  0  0  0  0  0  0  0  0
   -4.0790   -2.0005    1.1294 C   0  0  0  0  0  0  0  0  0  0  0  0
    3.8687    0.8996   -0.0276 H   0  0  0  0  0  0  0  0  0  0  0  0
    3.5106   -1.5523   -0.0539 H   0  0  0  0  0  0  0  0  0  0  0  0
    1.2131   -2.5032   -0.0007 H   0  0  0  0  0  0  0  0  0  0  0  0
    1.9232    2.4566    0.0495 H   0  0  0  0  0  0  0  0  0  0  0  0
   -0.8070    2.5218    0.1046 H   0  0  0  0  0  0  0  0  0  0  0  0
   -1.3062   -2.8428    0.0338 H   0  0  0  0  0  0  0  0  0  0  0  0
   -3.3176   -2.0590   -2.1902 H   0  0  0  0  0  0  0  0  0  0  0  0
   -5.7800   -2.1419   -2.3541 H   0  0  0  0  0  0  0  0  0  0  0  0
   -7.1681   -2.1146   -0.2977 H   0  0  0  0  0  0  0  0  0  0  0  0
   -6.0812   -2.0213    1.9302 H   0  0  0  0  0  0  0  0  0  0  0  0
   -3.6171   -1.9338    2.1109 H   0  0  0  0  0  0  0  0  0  0  0  0
  1  2  2  0  0  0  0
  1 18  1  0  0  0  0
  2  3  1  0  0  0  0
  2 19  1  0  0  0  0
  3  4  2  0  0  0  0
  3 20  1  0  0  0  0
  4  5  1  0  0  0  0
  4  7  1  0  0  0  0
  5  6  2  0  0  0  0
  6  1  1  0  0  0  0
  6 21  1  0  0  0  0
  7  8  1  0  0  0  0
  7 11  2  0  0  0  0
  8  9  1  0  0  0  0
  8 10  2  0  0  0  0
  9  5  1  0  0  0  0
  9 22  1  0  0  0  0
 11 12  1  0  0  0  0
 11 23  1  0  0  0  0
 12 13  2  0  0  0  0
 13 14  1  0  0  0  0
 13 24  1  0  0  0  0
 14 15  2  0  0  0  0
 14 25  1  0  0  0  0
 15 16  1  0  0  0  0
 15 26  1  0  0  0  0
 16 17  2  0  0  0  0
 16 27  1  0  0  0  0
 17 12  1  0  0  0  0
 17 28  1  0  0  0  0
M  END
>  <Mol_ID>
5055

>  <Formula>
C15H9Cl2NO

>  <MolWeight>
290.14406

>  <Cat>
S0228

>  <Name>
SU 5201

>  <Synonyms>
NSC 247030

>  <Target>
Interleukins

>  <Form>
free base

>  <CAS>
114727-43-4

>  <URL>
http://www.selleckchem.com/products/nsc-247030.html

$$$$
