SU 9516.cdx
 OpenBabel08302519583D

 29 31  0  0  0  0  0  0  0  0999 V2000
    2.6416   -0.9046   -0.0098 C   0  0  0  0  0  0  0  0  0  0  0  0
    2.8338    0.4925   -0.0020 C   0  0  0  0  0  0  0  0  0  0  0  0
    1.7545    1.3745    0.0312 C   0  0  0  0  0  0  0  0  0  0  0  0
    0.4948    0.8201    0.0575 C   0  0  0  0  0  0  0  0  0  0  0  0
    0.2725   -0.5621    0.0609 C   0  0  0  0  0  0  0  0  0  0  0  0
    1.3457   -1.4432    0.0247 C   0  0  0  0  0  0  0  0  0  0  0  0
   -0.7046    1.5181    0.0841 N   0  0  0  0  0  0  0  0  0  0  0  0
   -1.7896    0.6594    0.1165 C   0  0  0  0  0  0  0  0  0  0  0  0
   -1.1904   -0.7292    0.0794 C   0  0  0  0  0  0  0  0  0  0  0  0
   -1.8638   -1.8904    0.0327 C   0  0  0  0  0  0  0  0  0  0  0  0
   -3.2690   -1.9431   -0.0864 C   0  0  0  0  0  0  0  0  0  0  0  0
   -4.0767   -1.8313    1.0175 N   0  0  0  0  0  0  0  0  0  0  0  0
   -5.3740   -1.8783    0.5862 C   0  0  0  0  0  0  0  0  0  0  0  0
   -5.4465   -2.0471   -0.7141 N   0  0  0  0  0  0  0  0  0  0  0  0
   -4.1442   -2.0645   -1.1450 C   0  0  0  0  0  0  0  0  0  0  0  0
   -2.9561    0.9868    0.1991 O   0  0  0  0  0  0  0  0  0  0  0  0
    3.8107   -1.6141   -0.0565 O   0  0  0  0  0  0  0  0  0  0  0  0
    3.7189   -3.0302   -0.1117 C   0  0  0  0  0  0  0  0  0  0  0  0
    3.8471    0.8890   -0.0276 H   0  0  0  0  0  0  0  0  0  0  0  0
    1.9098    2.4471    0.0303 H   0  0  0  0  0  0  0  0  0  0  0  0
    1.1681   -2.5115    0.0164 H   0  0  0  0  0  0  0  0  0  0  0  0
   -0.8113    2.5201    0.0912 H   0  0  0  0  0  0  0  0  0  0  0  0
   -1.3309   -2.8361   -0.0050 H   0  0  0  0  0  0  0  0  0  0  0  0
   -3.7798   -1.6880    1.9717 H   0  0  0  0  0  0  0  0  0  0  0  0
   -6.2144   -1.7782    1.2599 H   0  0  0  0  0  0  0  0  0  0  0  0
   -3.9050   -2.1457   -2.1971 H   0  0  0  0  0  0  0  0  0  0  0  0
    3.2660   -3.4290    0.8014 H   0  0  0  0  0  0  0  0  0  0  0  0
    3.1745   -3.3584   -1.0029 H   0  0  0  0  0  0  0  0  0  0  0  0
    4.7375   -3.4254   -0.1799 H   0  0  0  0  0  0  0  0  0  0  0  0
  1  2  2  0  0  0  0
  1 17  1  0  0  0  0
  2  3  1  0  0  0  0
  2 19  1  0  0  0  0
  3  4  2  0  0  0  0
  3 20  1  0  0  0  0
  4  5  1  0  0  0  0
  4  7  1  0  0  0  0
  5  6  2  0  0  0  0
  6  1  1  0  0  0  0
  6 21  1  0  0  0  0
  7  8  1  0  0  0  0
  7 22  1  0  0  0  0
  8  9  1  0  0  0  0
  8 16  2  0  0  0  0
  9  5  1  0  0  0  0
  9 10  2  0  0  0  0
 10 11  1  0  0  0  0
 10 23  1  0  0  0  0
 11 12  1  0  0  0  0
 12 13  1  0  0  0  0
 12 24  1  0  0  0  0
 13 14  2  0  0  0  0
 13 25  1  0  0  0  0
 14 15  1  0  0  0  0
 15 11  2  0  0  0  0
 15 26  1  0  0  0  0
 17 18  1  0  0  0  0
 18 27  1  0  0  0  0
 18 28  1  0  0  0  0
 18 29  1  0  0  0  0
M  END
>  <Mol_ID>
2515

>  <Formula>
C13H11N3O2

>  <MolWeight>
241.24534

>  <Cat>
S7636

>  <Name>
SU9516

>  <Synonyms>
N/A

>  <Target>
CDK

>  <Form>
free base

>  <CAS>
377090-84-1

>  <URL>
http://selleckchem.com/products/su9516.html

$$$$
