Suberohydroxamic acid
 OpenBabel08302520143D

 30 29  0  0  0  0  0  0  0  0999 V2000
    1.6004   -1.4419   -1.6783 C   0  0  0  0  0  0  0  0  0  0  0  0
    0.4990   -0.8006   -0.8625 C   0  0  0  0  0  0  0  0  0  0  0  0
    2.4705   -0.5332   -2.2333 N   0  0  0  0  0  0  0  0  0  0  0  0
    1.7214   -2.6506   -1.8640 O   0  0  0  0  0  0  0  0  0  0  0  0
   -0.4546   -1.8391   -0.2737 C   0  0  0  0  0  0  0  0  0  0  0  0
    3.5687   -1.0944   -2.9259 O   0  0  0  0  0  0  0  0  0  0  0  0
   -1.5545   -1.2308    0.6014 C   0  0  0  0  0  0  0  0  0  0  0  0
   -2.4860   -0.2828   -0.1604 C   0  0  0  0  0  0  0  0  0  0  0  0
   -3.6550    0.2289    0.6864 C   0  0  0  0  0  0  0  0  0  0  0  0
   -3.2138    1.0613    1.8896 C   0  0  0  0  0  0  0  0  0  0  0  0
   -4.3923    1.5502    2.7056 C   0  0  0  0  0  0  0  0  0  0  0  0
   -4.0233    2.3303    3.7780 N   0  0  0  0  0  0  0  0  0  0  0  0
   -5.5658    1.2725    2.4759 O   0  0  0  0  0  0  0  0  0  0  0  0
   -5.0964    2.8722    4.5238 O   0  0  0  0  0  0  0  0  0  0  0  0
    0.9590   -0.2144   -0.0591 H   0  0  0  0  0  0  0  0  0  0  0  0
   -0.0407   -0.1157   -1.5252 H   0  0  0  0  0  0  0  0  0  0  0  0
    2.6053    0.3995   -1.8568 H   0  0  0  0  0  0  0  0  0  0  0  0
   -0.9086   -2.4288   -1.0785 H   0  0  0  0  0  0  0  0  0  0  0  0
    0.1193   -2.5458    0.3406 H   0  0  0  0  0  0  0  0  0  0  0  0
    3.3739   -2.0574   -2.8822 H   0  0  0  0  0  0  0  0  0  0  0  0
   -2.1476   -2.0492    1.0282 H   0  0  0  0  0  0  0  0  0  0  0  0
   -1.0829   -0.7086    1.4403 H   0  0  0  0  0  0  0  0  0  0  0  0
   -1.9253    0.5779   -0.5404 H   0  0  0  0  0  0  0  0  0  0  0  0
   -2.8949   -0.8075   -1.0330 H   0  0  0  0  0  0  0  0  0  0  0  0
   -4.3022    0.8421    0.0455 H   0  0  0  0  0  0  0  0  0  0  0  0
   -4.2656   -0.6185    1.0194 H   0  0  0  0  0  0  0  0  0  0  0  0
   -2.5863    0.4653    2.5602 H   0  0  0  0  0  0  0  0  0  0  0  0
   -2.6343    1.9284    1.5535 H   0  0  0  0  0  0  0  0  0  0  0  0
   -3.1534    2.8514    3.8014 H   0  0  0  0  0  0  0  0  0  0  0  0
   -5.8787    2.4555    4.0979 H   0  0  0  0  0  0  0  0  0  0  0  0
  1  2  1  0  0  0  0
  1  3  1  0  0  0  0
  1  4  2  0  0  0  0
  2  5  1  0  0  0  0
  2 15  1  0  0  0  0
  2 16  1  0  0  0  0
  3  6  1  0  0  0  0
  3 17  1  0  0  0  0
  5  7  1  0  0  0  0
  5 18  1  0  0  0  0
  5 19  1  0  0  0  0
  6 20  1  0  0  0  0
  7  8  1  0  0  0  0
  7 21  1  0  0  0  0
  7 22  1  0  0  0  0
  8  9  1  0  0  0  0
  8 23  1  0  0  0  0
  8 24  1  0  0  0  0
  9 10  1  0  0  0  0
  9 25  1  0  0  0  0
  9 26  1  0  0  0  0
 10 11  1  0  0  0  0
 10 27  1  0  0  0  0
 10 28  1  0  0  0  0
 11 12  1  0  0  0  0
 11 13  2  0  0  0  0
 12 14  1  0  0  0  0
 12 29  1  0  0  0  0
 14 30  1  0  0  0  0
M  END
>  <Mol_ID>
3172

>  <Formula>
C8H16N2O4

>  <MolWeight>
204.22364

>  <Cat>
S5905

>  <Name>
Suberohydroxamic acid

>  <Synonyms>
suberic bishydroxamic acid

>  <Target>
HDAC

>  <Form>
Free Base

>  <CAS>
38937-66-5

>  <URL>
http://www.selleckchem.com/products/suberohydroxamic-acid.html

$$$$
