Suberosin
 OpenBabel08302521453D

 34 35  0  0  0  0  0  0  0  0999 V2000
    0.9288    0.0005    0.1203 O   0  0  0  0  0  0  0  0  0  0  0  0
    0.2082   -1.2229    0.0417 C   0  0  0  0  0  0  0  0  0  0  0  0
    7.1036   -3.5568    0.0318 O   0  0  0  0  0  0  0  0  0  0  0  0
    2.2334    2.4767    0.2678 C   0  0  0  0  0  0  0  0  0  0  0  0
    2.0243    2.8894    1.7031 C   0  0  0  0  0  0  0  0  0  0  0  0
    2.4614    4.0253    2.2823 C   0  0  0  0  0  0  0  0  0  0  0  0
    2.1793    4.3283    3.7286 C   0  0  0  0  0  0  0  0  0  0  0  0
    3.2496    5.0667    1.5400 C   0  0  0  0  0  0  0  0  0  0  0  0
    4.4183   -1.2110    0.0067 C   0  0  0  0  0  0  0  0  0  0  0  0
    5.1154   -0.0086    0.0435 C   0  0  0  0  0  0  0  0  0  0  0  0
    3.0258   -1.2593    0.0227 C   0  0  0  0  0  0  0  0  0  0  0  0
    5.1013   -2.4445   -0.0316 O   0  0  0  0  0  0  0  0  0  0  0  0
    4.3905    1.1804    0.1196 C   0  0  0  0  0  0  0  0  0  0  0  0
    6.5680   -0.0355    0.0018 C   0  0  0  0  0  0  0  0  0  0  0  0
    2.2969   -0.0704    0.0938 C   0  0  0  0  0  0  0  0  0  0  0  0
    6.4873   -2.4977    0.0011 C   0  0  0  0  0  0  0  0  0  0  0  0
    2.9806    1.1631    0.1472 C   0  0  0  0  0  0  0  0  0  0  0  0
    7.2040   -1.2100   -0.0164 C   0  0  0  0  0  0  0  0  0  0  0  0
    0.4249   -1.7514   -0.8926 H   0  0  0  0  0  0  0  0  0  0  0  0
    0.4128   -1.8543    0.9123 H   0  0  0  0  0  0  0  0  0  0  0  0
   -0.8592   -0.9826    0.0469 H   0  0  0  0  0  0  0  0  0  0  0  0
    2.7800    3.2396   -0.2984 H   0  0  0  0  0  0  0  0  0  0  0  0
    1.2572    2.4094   -0.2264 H   0  0  0  0  0  0  0  0  0  0  0  0
    1.4436    2.1837    2.2973 H   0  0  0  0  0  0  0  0  0  0  0  0
    3.1181    4.4438    4.2804 H   0  0  0  0  0  0  0  0  0  0  0  0
    1.6071    5.2577    3.8174 H   0  0  0  0  0  0  0  0  0  0  0  0
    1.6028    3.5347    4.2156 H   0  0  0  0  0  0  0  0  0  0  0  0
    4.1885    4.6454    1.1667 H   0  0  0  0  0  0  0  0  0  0  0  0
    2.6707    5.4613    0.6986 H   0  0  0  0  0  0  0  0  0  0  0  0
    3.5041    5.9127    2.1865 H   0  0  0  0  0  0  0  0  0  0  0  0
    2.5470   -2.2314   -0.0144 H   0  0  0  0  0  0  0  0  0  0  0  0
    4.9131    2.1345    0.1654 H   0  0  0  0  0  0  0  0  0  0  0  0
    7.1154    0.9008   -0.0156 H   0  0  0  0  0  0  0  0  0  0  0  0
    8.2866   -1.2747   -0.0434 H   0  0  0  0  0  0  0  0  0  0  0  0
  1  2  1  0  0  0  0
  1 15  1  0  0  0  0
  2 19  1  0  0  0  0
  2 20  1  0  0  0  0
  2 21  1  0  0  0  0
  3 16  2  0  0  0  0
  4  5  1  0  0  0  0
  4 17  1  0  0  0  0
  4 22  1  0  0  0  0
  4 23  1  0  0  0  0
  5  6  2  0  0  0  0
  5 24  1  0  0  0  0
  6  7  1  0  0  0  0
  6  8  1  0  0  0  0
  7 25  1  0  0  0  0
  7 26  1  0  0  0  0
  7 27  1  0  0  0  0
  8 28  1  0  0  0  0
  8 29  1  0  0  0  0
  8 30  1  0  0  0  0
  9 10  1  0  0  0  0
  9 11  2  0  0  0  0
  9 12  1  0  0  0  0
 10 13  2  0  0  0  0
 10 14  1  0  0  0  0
 11 15  1  0  0  0  0
 11 31  1  0  0  0  0
 12 16  1  0  0  0  0
 13 17  1  0  0  0  0
 13 32  1  0  0  0  0
 14 18  2  0  0  0  0
 14 33  1  0  0  0  0
 15 17  2  0  0  0  0
 16 18  1  0  0  0  0
 18 34  1  0  0  0  0
M  END
>  <Mol_ID>
9609

>  <Formula>
C15H16O3

>  <MolWeight>
244.28574

>  <Cat>
E2184

>  <Name>
Suberosin

>  <Synonyms>
7-methoxy-6-prenylcoumarin

>  <Target>
NF-AT, NF-¦ÊB, ERK

>  <Form>
Free Base

>  <CAS>
581-31-7

>  <URL>
https://www.selleckchem.com/products/suberosin.html

$$$$
