Succinic anhydride
 OpenBabel08302521303D

 11 11  0  0  0  0  0  0  0  0999 V2000
    0.0020    0.8431   -0.0032 O   0  0  0  0  0  0  0  0  0  0  0  0
   -2.2515    0.4887    0.0041 O   0  0  0  0  0  0  0  0  0  0  0  0
    2.2536    0.4785   -0.0138 O   0  0  0  0  0  0  0  0  0  0  0  0
   -0.7236   -1.3599   -0.2262 C   0  0  0  0  0  0  0  0  0  0  0  0
    0.7171   -1.3648    0.2037 C   0  0  0  0  0  0  0  0  0  0  0  0
   -1.1075    0.0676   -0.0395 C   0  0  0  0  0  0  0  0  0  0  0  0
    1.1085    0.0627    0.0271 C   0  0  0  0  0  0  0  0  0  0  0  0
   -1.3329   -2.0230    0.3916 H   0  0  0  0  0  0  0  0  0  0  0  0
   -0.8302   -1.6189   -1.2842 H   0  0  0  0  0  0  0  0  0  0  0  0
    0.8224   -1.6324    1.2596 H   0  0  0  0  0  0  0  0  0  0  0  0
    1.3230   -2.0266   -0.4195 H   0  0  0  0  0  0  0  0  0  0  0  0
  1  6  1  0  0  0  0
  1  7  1  0  0  0  0
  2  6  2  0  0  0  0
  3  7  2  0  0  0  0
  4  5  1  0  0  0  0
  4  6  1  0  0  0  0
  4  8  1  0  0  0  0
  4  9  1  0  0  0  0
  5  7  1  0  0  0  0
  5 10  1  0  0  0  0
  5 11  1  0  0  0  0
M  END
>  <Mol_ID>
5670

>  <Formula>
C4H4O3

>  <MolWeight>
100.07276

>  <Cat>
S0586

>  <Name>
Succinic anhydride

>  <Synonyms>
SA, Succinyl Oxide, Succinyl Oxide

>  <Target>
ADC Linker

>  <Form>
Free Base

>  <CAS>
108-30-5

>  <URL>
http://www.selleckchem.com/products/succinic-anhydride.html

$$$$
