sucralose.cdx
 OpenBabel08302522043D

 42 43  0  0  0  0  0  0  0  0999 V2000
    0.7813    1.5513    0.7801 C   0  0  0  0  0  0  0  0  0  0  0  0
   -0.4805    0.8999    0.2350 C   0  0  1  0  0  0  0  0  0  0  0  0
   -0.4177   -0.6334    0.2987 C   0  0  2  0  0  0  0  0  0  0  0  0
    0.9405   -1.1993   -0.2036 C   0  0  2  0  0  0  0  0  0  0  0  0
    1.9914   -0.5425    0.5072 O   0  0  0  0  0  0  0  0  0  0  0  0
    2.0333    0.8717    0.2399 C   0  0  2  0  0  0  0  0  0  0  0  0
    1.0830   -1.1180   -1.6397 O   0  0  0  0  0  0  0  0  0  0  0  0
    2.2777   -1.7693   -2.1596 C   0  0  2  0  0  0  0  0  0  0  0  0
    3.4715   -1.1204   -1.6856 O   0  0  0  0  0  0  0  0  0  0  0  0
    4.4827   -1.1543   -2.7066 C   0  0  1  0  0  0  0  0  0  0  0  0
    3.8534   -1.7033   -3.9832 C   0  0  2  0  0  0  0  0  0  0  0  0
    2.3487   -1.5799   -3.7009 C   0  0  2  0  0  0  0  0  0  0  0  0
    3.2915    1.4495    0.9004 C   0  0  0  0  0  0  0  0  0  0  0  0
   -1.5895    1.3813    1.0075 O   0  0  0  0  0  0  0  0  0  0  0  0
    1.9129   -0.2698   -4.0897 O   0  0  0  0  0  0  0  0  0  0  0  0
    5.0665    0.2370   -2.9068 C   0  0  0  0  0  0  0  0  0  0  0  0
    2.3248   -3.2661   -1.7956 C   0  0  0  0  0  0  0  0  0  0  0  0
    4.2083   -3.0740   -4.2027 O   0  0  0  0  0  0  0  0  0  0  0  0
   -1.5427   -1.1816   -0.3965 O   0  0  0  0  0  0  0  0  0  0  0  0
    4.4383    0.6649    0.5851 O   0  0  0  0  0  0  0  0  0  0  0  0
    0.7647    1.4965    1.8774 H   0  0  0  0  0  0  0  0  0  0  0  0
    0.7843    2.6199    0.5326 H   0  0  0  0  0  0  0  0  0  0  0  0
   -0.6614    1.2263   -0.7952 H   0  0  0  0  0  0  0  0  0  0  0  0
   -0.5399   -0.9244    1.3505 H   0  0  0  0  0  0  0  0  0  0  0  0
    0.9494   -2.2567    0.0791 H   0  0  0  0  0  0  0  0  0  0  0  0
    2.1128    1.0203   -0.8439 H   0  0  0  0  0  0  0  0  0  0  0  0
    5.2751   -1.8110   -2.3368 H   0  0  0  0  0  0  0  0  0  0  0  0
    4.1556   -1.1464   -4.8805 H   0  0  0  0  0  0  0  0  0  0  0  0
    1.7373   -2.3113   -4.2401 H   0  0  0  0  0  0  0  0  0  0  0  0
    3.4659    2.4727    0.5552 H   0  0  0  0  0  0  0  0  0  0  0  0
    3.1962    1.4633    1.9924 H   0  0  0  0  0  0  0  0  0  0  0  0
   -2.3272    0.7577    0.8704 H   0  0  0  0  0  0  0  0  0  0  0  0
    1.1768   -0.0446   -3.4783 H   0  0  0  0  0  0  0  0  0  0  0  0
    5.4151    0.6508   -1.9559 H   0  0  0  0  0  0  0  0  0  0  0  0
    5.9139    0.2012   -3.6000 H   0  0  0  0  0  0  0  0  0  0  0  0
    4.3241    0.9350   -3.3065 H   0  0  0  0  0  0  0  0  0  0  0  0
    2.8832   -3.4185   -0.8656 H   0  0  0  0  0  0  0  0  0  0  0  0
    1.3224   -3.6851   -1.6847 H   0  0  0  0  0  0  0  0  0  0  0  0
    2.8347   -3.8750   -2.5464 H   0  0  0  0  0  0  0  0  0  0  0  0
    5.1313   -3.1944   -3.9209 H   0  0  0  0  0  0  0  0  0  0  0  0
   -1.3701   -1.0700   -1.3495 H   0  0  0  0  0  0  0  0  0  0  0  0
    4.1122   -0.2580    0.5389 H   0  0  0  0  0  0  0  0  0  0  0  0
  1  2  1  0  0  0  0
  1  6  1  0  0  0  0
  1 21  1  0  0  0  0
  1 22  1  0  0  0  0
  2  3  1  0  0  0  0
  2 14  1  0  0  0  0
  2 23  1  6  0  0  0
  3  4  1  0  0  0  0
  3 19  1  0  0  0  0
  3 24  1  1  0  0  0
  4  5  1  0  0  0  0
  4 25  1  1  0  0  0
  4  7  1  0  0  0  0
  5  6  1  0  0  0  0
  6 13  1  0  0  0  0
  6 26  1  6  0  0  0
  8  7  1  1  0  0  0
  8  9  1  0  0  0  0
  8 17  1  0  0  0  0
  9 10  1  0  0  0  0
 10 11  1  0  0  0  0
 10 16  1  0  0  0  0
 10 27  1  1  0  0  0
 11 12  1  0  0  0  0
 11 28  1  6  0  0  0
 11 18  1  0  0  0  0
 12  8  1  0  0  0  0
 12 29  1  6  0  0  0
 12 15  1  0  0  0  0
 13 20  1  0  0  0  0
 13 30  1  0  0  0  0
 13 31  1  0  0  0  0
 14 32  1  0  0  0  0
 15 33  1  0  0  0  0
 16 34  1  0  0  0  0
 16 35  1  0  0  0  0
 16 36  1  0  0  0  0
 17 37  1  0  0  0  0
 17 38  1  0  0  0  0
 17 39  1  0  0  0  0
 18 40  1  0  0  0  0
 19 41  1  0  0  0  0
 20 42  1  0  0  0  0
M  END
>  <Mol_ID>
1316

>  <Formula>
C12H19Cl3O8

>  <MolWeight>
397.63346

>  <Cat>
S4214

>  <Name>
Sucralose

>  <Synonyms>
E955,Trichloro Sucrose

>  <Target>
Others

>  <Form>
free base

>  <CAS>
56038-13-2

>  <URL>
http://selleckchem.com/products/sucralose.html

$$$$
