Sulbactam sodium.cdx
 OpenBabel08302522033D

 25 26  0  0  0  0  0  0  0  0999 V2000
    1.5166   -0.0440    0.4856 C   0  0  0  0  0  0  0  0  0  0  0  0
    1.1130   -1.5129    0.3108 C   0  0  0  0  0  0  0  0  0  0  0  0
   -0.0132   -0.9774   -0.5895 C   0  0  2  0  0  0  0  0  0  0  0  0
    0.6087    0.3618   -0.4372 N   0  0  0  0  0  0  0  0  0  0  0  0
   -1.6438   -0.7420    0.1612 S   0  0  0  0  0  0  0  0  0  0  0  0
   -1.4502    1.0147    0.6591 C   0  0  0  0  0  0  0  0  0  0  0  0
   -0.3085    1.5090   -0.2610 C   0  0  2  0  0  0  0  0  0  0  0  0
    2.2151    0.5709    1.2583 O   0  0  0  0  0  0  0  0  0  0  0  0
   -2.7845    1.7605    0.5443 C   0  0  0  0  0  0  0  0  0  0  0  0
   -1.0250    1.0687    2.1449 C   0  0  0  0  0  0  0  0  0  0  0  0
   -1.7270   -1.5570    1.3658 O   0  0  0  0  0  0  0  0  0  0  0  0
   -2.7008   -0.8807   -0.8245 O   0  0  0  0  0  0  0  0  0  0  0  0
   -0.8750    2.0239   -1.6136 C   0  0  0  0  0  0  0  0  0  0  0  0
   -1.1820    3.2489   -1.6248 O   0  5  0  0  0  0  0  0  0  0  0  0
   -0.9653    1.1563   -2.5273 O   0  0  0  0  0  0  0  0  0  0  0  0
    0.8132   -1.9900    1.2476 H   0  0  0  0  0  0  0  0  0  0  0  0
    1.8719   -2.1202   -0.1874 H   0  0  0  0  0  0  0  0  0  0  0  0
   -0.0365   -1.3441   -1.6183 H   0  0  0  0  0  0  0  0  0  0  0  0
    0.2527    2.3238    0.2123 H   0  0  0  0  0  0  0  0  0  0  0  0
   -3.5359    1.3150    1.2073 H   0  0  0  0  0  0  0  0  0  0  0  0
   -2.6679    2.8109    0.8337 H   0  0  0  0  0  0  0  0  0  0  0  0
   -3.2060    1.7277   -0.4646 H   0  0  0  0  0  0  0  0  0  0  0  0
   -0.1812    0.4120    2.3699 H   0  0  0  0  0  0  0  0  0  0  0  0
   -0.7462    2.0859    2.4369 H   0  0  0  0  0  0  0  0  0  0  0  0
   -1.8422    0.7432    2.7989 H   0  0  0  0  0  0  0  0  0  0  0  0
  1  2  1  0  0  0  0
  1  8  2  0  0  0  0
  2 16  1  0  0  0  0
  2 17  1  0  0  0  0
  3  2  1  0  0  0  0
  3  4  1  0  0  0  0
  3  5  1  0  0  0  0
  3 18  1  6  0  0  0
  4  1  1  0  0  0  0
  5  6  1  0  0  0  0
  5 11  2  0  0  0  0
  5 12  2  0  0  0  0
  6  7  1  0  0  0  0
  6  9  1  0  0  0  0
  6 10  1  0  0  0  0
  7  4  1  0  0  0  0
  7 13  1  0  0  0  0
  7 19  1  1  0  0  0
  9 20  1  0  0  0  0
  9 21  1  0  0  0  0
  9 22  1  0  0  0  0
 10 23  1  0  0  0  0
 10 24  1  0  0  0  0
 10 25  1  0  0  0  0
 13 14  1  0  0  0  0
 13 15  2  0  0  0  0
M  CHG  1  14  -1
M  END
>  <Mol_ID>
1159

>  <Formula>
C8H10NNaO5S

>  <MolWeight>
255.22347

>  <Cat>
S2551

>  <Name>
Sulbactam sodium

>  <Synonyms>
Unasyn, CP-45899-2

>  <Target>
¦Â-lactamase

>  <Form>
Sodium  salt

>  <CAS>
69388-84-7

>  <URL>
http://selleckchem.com/products/sulbactam-sodium-unasyn.html

$$$$
