Sulbactam.cdx
 OpenBabel08302522013D

 26 27  0  0  0  0  0  0  0  0999 V2000
    1.5183    0.0501    0.3641 C   0  0  0  0  0  0  0  0  0  0  0  0
    1.1330   -1.4384    0.3955 C   0  0  0  0  0  0  0  0  0  0  0  0
   -0.0152   -1.0456   -0.5365 C   0  0  2  0  0  0  0  0  0  0  0  0
    0.5596    0.3322   -0.5731 N   0  0  0  0  0  0  0  0  0  0  0  0
   -1.6662   -0.7557    0.1301 S   0  0  0  0  0  0  0  0  0  0  0  0
   -1.4464    0.9766    0.6486 C   0  0  0  0  0  0  0  0  0  0  0  0
   -0.3596    1.4657   -0.3399 C   0  0  2  0  0  0  0  0  0  0  0  0
    2.2021    0.7922    1.0229 O   0  0  0  0  0  0  0  0  0  0  0  0
   -2.7736    1.7419    0.6011 C   0  0  0  0  0  0  0  0  0  0  0  0
   -0.9670    1.0119    2.1165 C   0  0  0  0  0  0  0  0  0  0  0  0
   -1.8735   -1.5897    1.2964 O   0  0  0  0  0  0  0  0  0  0  0  0
   -2.6080   -0.7849   -0.9714 O   0  0  0  0  0  0  0  0  0  0  0  0
   -0.8882    1.9334   -1.7096 C   0  0  0  0  0  0  0  0  0  0  0  0
   -0.3699    1.2611   -2.7658 O   0  0  0  0  0  0  0  0  0  0  0  0
   -1.6716    2.8578   -1.8631 O   0  0  0  0  0  0  0  0  0  0  0  0
    0.8502   -1.8076    1.3836 H   0  0  0  0  0  0  0  0  0  0  0  0
    1.8882   -2.0935   -0.0467 H   0  0  0  0  0  0  0  0  0  0  0  0
   -0.0224   -1.5206   -1.5221 H   0  0  0  0  0  0  0  0  0  0  0  0
    0.2130    2.3036    0.0767 H   0  0  0  0  0  0  0  0  0  0  0  0
   -3.5042    1.3001    1.2889 H   0  0  0  0  0  0  0  0  0  0  0  0
   -2.6276    2.7872    0.8976 H   0  0  0  0  0  0  0  0  0  0  0  0
   -3.2433    1.7278   -0.3855 H   0  0  0  0  0  0  0  0  0  0  0  0
   -0.1215    0.3489    2.3120 H   0  0  0  0  0  0  0  0  0  0  0  0
   -0.6782    2.0250    2.4145 H   0  0  0  0  0  0  0  0  0  0  0  0
   -1.7641    0.6813    2.7940 H   0  0  0  0  0  0  0  0  0  0  0  0
    0.3376    0.6440   -2.4932 H   0  0  0  0  0  0  0  0  0  0  0  0
  1  2  1  0  0  0  0
  1  8  2  0  0  0  0
  2 16  1  0  0  0  0
  2 17  1  0  0  0  0
  3  2  1  0  0  0  0
  3  4  1  0  0  0  0
  3  5  1  0  0  0  0
  3 18  1  6  0  0  0
  4  1  1  0  0  0  0
  5  6  1  0  0  0  0
  5 11  2  0  0  0  0
  5 12  2  0  0  0  0
  6  7  1  0  0  0  0
  6  9  1  0  0  0  0
  6 10  1  0  0  0  0
  7  4  1  0  0  0  0
  7 13  1  0  0  0  0
  7 19  1  1  0  0  0
  9 20  1  0  0  0  0
  9 21  1  0  0  0  0
  9 22  1  0  0  0  0
 10 23  1  0  0  0  0
 10 24  1  0  0  0  0
 10 25  1  0  0  0  0
 13 14  1  0  0  0  0
 13 15  2  0  0  0  0
 14 26  1  0  0  0  0
M  END
>  <Mol_ID>
1120

>  <Formula>
C8H11NO5S

>  <MolWeight>
233.24164

>  <Cat>
S1958

>  <Name>
Sulbactam

>  <Synonyms>
CP45899

>  <Target>
Anti-infection

>  <Form>
free base

>  <CAS>
68373-14-8

>  <URL>
http://selleckchem.com/products/sulbactam.html

$$$$
