SULFAPYRIDINE (sulfapyridine).cdx
 OpenBabel08302521393D

 28 29  0  0  0  0  0  0  0  0999 V2000
   -0.3445    0.9312   -1.0590 C   0  0  0  0  0  0  0  0  0  0  0  0
   -0.2077    0.9168   -2.4394 C   0  0  0  0  0  0  0  0  0  0  0  0
   -0.4353   -0.2802   -3.1092 C   0  0  0  0  0  0  0  0  0  0  0  0
   -0.8118   -1.4042   -2.3807 C   0  0  0  0  0  0  0  0  0  0  0  0
   -0.9361   -1.2758   -1.0085 C   0  0  0  0  0  0  0  0  0  0  0  0
   -0.6912   -0.1492   -0.3237 N   0  0  0  0  0  0  0  0  0  0  0  0
   -1.3769   -2.3515   -0.2084 N   0  0  0  0  0  0  0  0  0  0  0  0
   -3.0416   -2.4746    0.0307 S   0  0  0  0  0  0  0  0  0  0  0  0
   -3.5514   -3.3993   -1.3984 C   0  0  0  0  0  0  0  0  0  0  0  0
   -3.2178   -3.3400    1.1785 O   0  0  0  0  0  0  0  0  0  0  0  0
   -3.6823   -1.1790   -0.0273 O   0  0  0  0  0  0  0  0  0  0  0  0
   -3.5617   -4.7935   -1.3551 C   0  0  0  0  0  0  0  0  0  0  0  0
   -3.8814   -5.5098   -2.5097 C   0  0  0  0  0  0  0  0  0  0  0  0
   -4.2384   -4.8483   -3.6904 C   0  0  0  0  0  0  0  0  0  0  0  0
   -4.2246   -3.4495   -3.7126 C   0  0  0  0  0  0  0  0  0  0  0  0
   -3.9176   -2.7201   -2.5627 C   0  0  0  0  0  0  0  0  0  0  0  0
   -4.3644   -5.5660   -4.8848 N   0  0  0  0  0  0  0  0  0  0  0  0
   -0.1795    1.8440   -0.4925 H   0  0  0  0  0  0  0  0  0  0  0  0
    0.0727    1.8159   -2.9780 H   0  0  0  0  0  0  0  0  0  0  0  0
   -0.3274   -0.3362   -4.1879 H   0  0  0  0  0  0  0  0  0  0  0  0
   -0.9835   -2.3526   -2.8747 H   0  0  0  0  0  0  0  0  0  0  0  0
   -0.8964   -2.4060    0.6879 H   0  0  0  0  0  0  0  0  0  0  0  0
   -3.2956   -5.3261   -0.4454 H   0  0  0  0  0  0  0  0  0  0  0  0
   -3.8372   -6.5959   -2.4842 H   0  0  0  0  0  0  0  0  0  0  0  0
   -4.4443   -2.9145   -4.6336 H   0  0  0  0  0  0  0  0  0  0  0  0
   -3.9224   -1.6322   -2.5949 H   0  0  0  0  0  0  0  0  0  0  0  0
   -4.9009   -5.0888   -5.6021 H   0  0  0  0  0  0  0  0  0  0  0  0
   -4.6589   -6.5295   -4.7589 H   0  0  0  0  0  0  0  0  0  0  0  0
  1  2  2  0  0  0  0
  1 18  1  0  0  0  0
  2  3  1  0  0  0  0
  2 19  1  0  0  0  0
  3  4  2  0  0  0  0
  3 20  1  0  0  0  0
  4  5  1  0  0  0  0
  4 21  1  0  0  0  0
  5  6  2  0  0  0  0
  5  7  1  0  0  0  0
  6  1  1  0  0  0  0
  7  8  1  0  0  0  0
  7 22  1  0  0  0  0
  8  9  1  0  0  0  0
  8 10  2  0  0  0  0
  8 11  2  0  0  0  0
  9 12  2  0  0  0  0
 12 13  1  0  0  0  0
 12 23  1  0  0  0  0
 13 14  2  0  0  0  0
 13 24  1  0  0  0  0
 14 15  1  0  0  0  0
 14 17  1  0  0  0  0
 15 16  2  0  0  0  0
 15 25  1  0  0  0  0
 16  9  1  0  0  0  0
 16 26  1  0  0  0  0
 17 27  1  0  0  0  0
 17 28  1  0  0  0  0
M  END
>  <Mol_ID>
8205

>  <Formula>
C11H11N3O2S

>  <MolWeight>
249.28894

>  <Cat>
S1617

>  <Name>
Sulfapyridine

>  <Synonyms>
N/A

>  <Target>
Bacterial

>  <Form>
free base

>  <CAS>
144-83-2

>  <URL>
http://selleckchem.com/products/Sulfapyridine(Dagenan).html

$$$$
