Sulfathiazole.cdx
 OpenBabel08302521593D

 25 26  0  0  0  0  0  0  0  0999 V2000
   -1.8108    0.0300   -0.0291 C   0  0  0  0  0  0  0  0  0  0  0  0
   -1.0562    1.1705    0.2616 C   0  0  0  0  0  0  0  0  0  0  0  0
    0.3416    1.0853    0.2873 C   0  0  0  0  0  0  0  0  0  0  0  0
    0.9916   -0.1196    0.0018 C   0  0  0  0  0  0  0  0  0  0  0  0
    0.2189   -1.2673   -0.1963 C   0  0  0  0  0  0  0  0  0  0  0  0
   -1.1773   -1.1970   -0.2314 C   0  0  0  0  0  0  0  0  0  0  0  0
   -3.5908    0.1051    0.0299 S   0  0  0  0  0  0  0  0  0  0  0  0
   -4.0942   -1.2448    0.1531 O   0  0  0  0  0  0  0  0  0  0  0  0
   -3.9315    1.1106    1.0140 O   0  0  0  0  0  0  0  0  0  0  0  0
   -4.0609    0.7367   -1.4501 N   0  0  0  0  0  0  0  0  0  0  0  0
   -3.6816   -1.3354   -3.2585 S   0  0  0  0  0  0  0  0  0  0  0  0
   -3.4413    0.2213   -2.6014 C   0  0  0  0  0  0  0  0  0  0  0  0
   -2.7519    1.0626   -3.3333 N   0  0  0  0  0  0  0  0  0  0  0  0
   -2.3614    0.4382   -4.5012 C   0  0  0  0  0  0  0  0  0  0  0  0
   -2.8211   -0.8514   -4.6668 C   0  0  0  0  0  0  0  0  0  0  0  0
    2.3794   -0.2261    0.1545 N   0  0  0  0  0  0  0  0  0  0  0  0
   -1.5361    2.1161    0.5015 H   0  0  0  0  0  0  0  0  0  0  0  0
    0.9209    1.9652    0.5576 H   0  0  0  0  0  0  0  0  0  0  0  0
    0.6989   -2.2361   -0.3108 H   0  0  0  0  0  0  0  0  0  0  0  0
   -1.7548   -2.1058   -0.3839 H   0  0  0  0  0  0  0  0  0  0  0  0
   -4.0075    1.7501   -1.4321 H   0  0  0  0  0  0  0  0  0  0  0  0
   -1.7612    0.9863   -5.2181 H   0  0  0  0  0  0  0  0  0  0  0  0
   -2.6929   -1.5073   -5.5167 H   0  0  0  0  0  0  0  0  0  0  0  0
    2.7870   -1.0117   -0.3436 H   0  0  0  0  0  0  0  0  0  0  0  0
    2.8810    0.6386   -0.0214 H   0  0  0  0  0  0  0  0  0  0  0  0
  1  2  2  0  0  0  0
  1  6  1  0  0  0  0
  1  7  1  0  0  0  0
  2  3  1  0  0  0  0
  2 17  1  0  0  0  0
  3  4  2  0  0  0  0
  3 18  1  0  0  0  0
  4  5  1  0  0  0  0
  4 16  1  0  0  0  0
  5  6  2  0  0  0  0
  5 19  1  0  0  0  0
  6 20  1  0  0  0  0
  7  8  2  0  0  0  0
  7  9  2  0  0  0  0
  7 10  1  0  0  0  0
 10 12  1  0  0  0  0
 10 21  1  0  0  0  0
 11 12  1  0  0  0  0
 11 15  1  0  0  0  0
 12 13  2  0  0  0  0
 13 14  1  0  0  0  0
 14 15  2  0  0  0  0
 14 22  1  0  0  0  0
 15 23  1  0  0  0  0
 16 24  1  0  0  0  0
 16 25  1  0  0  0  0
M  END
>  <Mol_ID>
1012

>  <Formula>
C9H9N3O2S2

>  <MolWeight>
255.31666

>  <Cat>
S3116

>  <Name>
Sulfathiazole

>  <Synonyms>
N/A

>  <Target>
Anti-infection

>  <Form>
free base

>  <CAS>
72-14-0

>  <URL>
http://selleckchem.com/products/sulfathiazole.html

$$$$
