Sulfathiazole sodium
 OpenBabel08302521303D

 25 26  0  0  0  0  0  0  0  0999 V2000
    1.0831    0.1231   -0.0802 S   0  0  0  0  0  0  0  0  0  0  0  0
    0.7763   -2.7877   -2.3516 S   0  0  0  0  0  0  0  0  0  0  0  0
    0.6007   -0.9525    0.7621 O   0  0  0  0  0  0  0  0  0  0  0  0
    0.7417    1.4995    0.2129 O   0  0  0  0  0  0  0  0  0  0  0  0
    0.5366   -0.1211   -1.6492 N   0  0  0  0  0  0  0  0  0  0  0  0
    1.8890   -0.7378   -3.4362 N   0  0  0  0  0  0  0  0  0  0  0  0
    7.0665   -0.2507    0.0577 N   0  0  0  0  0  0  0  0  0  0  0  0
    2.8665    0.0207   -0.0831 C   0  0  0  0  0  0  0  0  0  0  0  0
    3.6329    1.1567    0.2117 C   0  0  0  0  0  0  0  0  0  0  0  0
    3.4950   -1.2137   -0.2251 C   0  0  0  0  0  0  0  0  0  0  0  0
    5.6737   -0.1431   -0.0552 C   0  0  0  0  0  0  0  0  0  0  0  0
    5.0328    1.0624    0.2379 C   0  0  0  0  0  0  0  0  0  0  0  0
    4.8933   -1.2901   -0.2165 C   0  0  0  0  0  0  0  0  0  0  0  0
    1.1461   -1.1206   -2.4287 C   0  0  0  0  0  0  0  0  0  0  0  0
    1.6834   -3.0366   -3.7921 C   0  0  0  0  0  0  0  0  0  0  0  0
    2.2326   -1.8388   -4.1986 C   0  0  0  0  0  0  0  0  0  0  0  0
    0.5285    0.7700   -2.1391 H   0  0  0  0  0  0  0  0  0  0  0  0
    7.4577   -1.0439   -0.4411 H   0  0  0  0  0  0  0  0  0  0  0  0
    7.5614    0.6106   -0.1545 H   0  0  0  0  0  0  0  0  0  0  0  0
    3.1648    2.1054    0.4643 H   0  0  0  0  0  0  0  0  0  0  0  0
    2.9184   -2.1292   -0.3341 H   0  0  0  0  0  0  0  0  0  0  0  0
    5.6178    1.9416    0.4990 H   0  0  0  0  0  0  0  0  0  0  0  0
    5.3677   -2.2614   -0.3241 H   0  0  0  0  0  0  0  0  0  0  0  0
    1.7669   -4.0081   -4.2607 H   0  0  0  0  0  0  0  0  0  0  0  0
    2.8676   -1.7051   -5.0671 H   0  0  0  0  0  0  0  0  0  0  0  0
  1  3  2  0  0  0  0
  1  4  2  0  0  0  0
  1  5  1  0  0  0  0
  1  8  1  0  0  0  0
  2 14  1  0  0  0  0
  2 15  1  0  0  0  0
  5 14  1  0  0  0  0
  5 17  1  0  0  0  0
  6 14  2  0  0  0  0
  6 16  1  0  0  0  0
  7 11  1  0  0  0  0
  7 18  1  0  0  0  0
  7 19  1  0  0  0  0
  8  9  2  0  0  0  0
  8 10  1  0  0  0  0
  9 12  1  0  0  0  0
  9 20  1  0  0  0  0
 10 13  2  0  0  0  0
 10 21  1  0  0  0  0
 11 12  2  0  0  0  0
 11 13  1  0  0  0  0
 12 22  1  0  0  0  0
 13 23  1  0  0  0  0
 15 16  2  0  0  0  0
 15 24  1  0  0  0  0
 16 25  1  0  0  0  0
M  END
>  <Mol_ID>
5720

>  <Formula>
C9H8N3NaO2S2

>  <MolWeight>
277.29849

>  <Cat>
S5963

>  <Name>
Sulfathiazole sodium

>  <Synonyms>
N/A

>  <Target>
Anti-infection

>  <Form>
Sodium

>  <CAS>
144-74-1

>  <URL>
http://www.selleckchem.com/products/sulfathiazole-sodium.html

$$$$
