Sulfamethoxypyridazine.cdx
 OpenBabel08302522053D

 31 32  0  0  0  0  0  0  0  0999 V2000
   -1.8141    0.0958    0.1557 C   0  0  0  0  0  0  0  0  0  0  0  0
   -1.2042    0.7293    1.2406 C   0  0  0  0  0  0  0  0  0  0  0  0
    0.1918    0.8486    1.2692 C   0  0  0  0  0  0  0  0  0  0  0  0
    0.9878    0.2730    0.2713 C   0  0  0  0  0  0  0  0  0  0  0  0
    0.3611   -0.3863   -0.7892 C   0  0  0  0  0  0  0  0  0  0  0  0
   -1.0316   -0.4905   -0.8430 C   0  0  0  0  0  0  0  0  0  0  0  0
   -3.5843    0.0525   -0.0020 S   0  0  0  0  0  0  0  0  0  0  0  0
   -3.8986   -0.4989   -1.3042 O   0  0  0  0  0  0  0  0  0  0  0  0
   -4.1025   -0.5590    1.2065 O   0  0  0  0  0  0  0  0  0  0  0  0
   -4.1386    1.6408    0.0094 N   0  0  0  0  0  0  0  0  0  0  0  0
   -3.3283    2.6186   -0.5907 C   0  0  0  0  0  0  0  0  0  0  0  0
   -3.2283    2.8215   -1.9517 C   0  0  0  0  0  0  0  0  0  0  0  0
   -2.3176    3.7812   -2.3893 C   0  0  0  0  0  0  0  0  0  0  0  0
   -1.5479    4.4345   -1.4410 C   0  0  0  0  0  0  0  0  0  0  0  0
   -1.6932    4.2111   -0.1170 N   0  0  0  0  0  0  0  0  0  0  0  0
   -2.6045    3.3063    0.3153 N   0  0  0  0  0  0  0  0  0  0  0  0
   -0.6025    5.3343   -1.8865 O   0  0  0  0  0  0  0  0  0  0  0  0
    0.2279    5.8120   -0.8265 C   0  0  0  0  0  0  0  0  0  0  0  0
    2.3553    0.5603    0.1990 N   0  0  0  0  0  0  0  0  0  0  0  0
   -1.7944    1.1806    2.0343 H   0  0  0  0  0  0  0  0  0  0  0  0
    0.6570    1.4145    2.0733 H   0  0  0  0  0  0  0  0  0  0  0  0
    0.9531   -0.8100   -1.5967 H   0  0  0  0  0  0  0  0  0  0  0  0
   -1.4909   -1.0118   -1.6802 H   0  0  0  0  0  0  0  0  0  0  0  0
   -4.4129    1.8993    0.9528 H   0  0  0  0  0  0  0  0  0  0  0  0
   -3.8477    2.2748   -2.6560 H   0  0  0  0  0  0  0  0  0  0  0  0
   -2.1993    4.0088   -3.4437 H   0  0  0  0  0  0  0  0  0  0  0  0
   -0.3499    6.4202   -0.1213 H   0  0  0  0  0  0  0  0  0  0  0  0
    0.7316    4.9870   -0.3075 H   0  0  0  0  0  0  0  0  0  0  0  0
    1.0021    6.4490   -1.2627 H   0  0  0  0  0  0  0  0  0  0  0  0
    2.8982   -0.1105   -0.3362 H   0  0  0  0  0  0  0  0  0  0  0  0
    2.7873    0.7934    1.0862 H   0  0  0  0  0  0  0  0  0  0  0  0
  1  2  2  0  0  0  0
  1  6  1  0  0  0  0
  1  7  1  0  0  0  0
  2  3  1  0  0  0  0
  2 20  1  0  0  0  0
  3  4  2  0  0  0  0
  3 21  1  0  0  0  0
  4  5  1  0  0  0  0
  4 19  1  0  0  0  0
  5  6  2  0  0  0  0
  5 22  1  0  0  0  0
  6 23  1  0  0  0  0
  7  8  2  0  0  0  0
  7  9  2  0  0  0  0
  7 10  1  0  0  0  0
 10 11  1  0  0  0  0
 10 24  1  0  0  0  0
 11 12  2  0  0  0  0
 11 16  1  0  0  0  0
 12 13  1  0  0  0  0
 12 25  1  0  0  0  0
 13 14  2  0  0  0  0
 13 26  1  0  0  0  0
 14 15  1  0  0  0  0
 14 17  1  0  0  0  0
 15 16  2  0  0  0  0
 17 18  1  0  0  0  0
 18 27  1  0  0  0  0
 18 28  1  0  0  0  0
 18 29  1  0  0  0  0
 19 30  1  0  0  0  0
 19 31  1  0  0  0  0
M  END
>  <Mol_ID>
1368

>  <Formula>
C11H12N4O3S

>  <MolWeight>
280.30298

>  <Cat>
S4250

>  <Name>
Sulfamethoxypyridazine

>  <Synonyms>
CL 13494

>  <Target>
Anti-infection

>  <Form>
free base

>  <CAS>
80-35-3

>  <URL>
http://selleckchem.com/products/sulfamethoxypyridazine.html

$$$$
