Sulfaguanidine.cdx
 OpenBabel08302522043D

 24 24  0  0  0  0  0  0  0  0999 V2000
   -1.7216    0.0422    0.0618 C   0  0  0  0  0  0  0  0  0  0  0  0
   -3.4846    0.2264    0.0376 S   0  0  0  0  0  0  0  0  0  0  0  0
   -0.9221    1.1516    0.3447 C   0  0  0  0  0  0  0  0  0  0  0  0
   -1.1428   -1.2079   -0.1588 C   0  0  0  0  0  0  0  0  0  0  0  0
   -4.0254   -0.6381    1.0609 O   0  0  0  0  0  0  0  0  0  0  0  0
   -3.7872    1.6409   -0.0104 O   0  0  0  0  0  0  0  0  0  0  0  0
    0.4680    1.0173    0.3469 C   0  0  0  0  0  0  0  0  0  0  0  0
    0.2510   -1.3271   -0.1519 C   0  0  0  0  0  0  0  0  0  0  0  0
    1.0671   -0.2049    0.0301 C   0  0  0  0  0  0  0  0  0  0  0  0
    2.4566   -0.3478    0.1212 N   0  0  0  0  0  0  0  0  0  0  0  0
   -3.9501   -0.4309   -1.4235 N   0  0  0  0  0  0  0  0  0  0  0  0
   -3.9553    0.1424   -2.6773 C   0  0  0  0  0  0  0  0  0  0  0  0
   -4.5628   -0.4441   -3.6393 N   0  0  0  0  0  0  0  0  0  0  0  0
   -3.3157    1.3100   -2.8426 N   0  0  0  0  0  0  0  0  0  0  0  0
   -1.3651    2.1158    0.5827 H   0  0  0  0  0  0  0  0  0  0  0  0
   -1.7574   -2.0894   -0.3188 H   0  0  0  0  0  0  0  0  0  0  0  0
    1.0818    1.8793    0.5960 H   0  0  0  0  0  0  0  0  0  0  0  0
    0.6996   -2.3070   -0.2959 H   0  0  0  0  0  0  0  0  0  0  0  0
    2.8218   -1.1345   -0.4073 H   0  0  0  0  0  0  0  0  0  0  0  0
    2.9652    0.5084   -0.0789 H   0  0  0  0  0  0  0  0  0  0  0  0
   -4.4636   -1.2931   -1.2748 H   0  0  0  0  0  0  0  0  0  0  0  0
   -4.9918   -1.3077   -3.3117 H   0  0  0  0  0  0  0  0  0  0  0  0
   -3.3625    1.9444   -2.0497 H   0  0  0  0  0  0  0  0  0  0  0  0
   -3.6020    1.7619   -3.7059 H   0  0  0  0  0  0  0  0  0  0  0  0
  1  2  1  0  0  0  0
  1  3  2  0  0  0  0
  1  4  1  0  0  0  0
  2  5  2  0  0  0  0
  2  6  2  0  0  0  0
  2 11  1  0  0  0  0
  3  7  1  0  0  0  0
  3 15  1  0  0  0  0
  4  8  2  0  0  0  0
  4 16  1  0  0  0  0
  7  9  2  0  0  0  0
  7 17  1  0  0  0  0
  8  9  1  0  0  0  0
  8 18  1  0  0  0  0
  9 10  1  0  0  0  0
 10 19  1  0  0  0  0
 10 20  1  0  0  0  0
 11 12  1  0  0  0  0
 11 21  1  0  0  0  0
 12 13  2  0  0  0  0
 12 14  1  0  0  0  0
 13 22  1  0  0  0  0
 14 23  1  0  0  0  0
 14 24  1  0  0  0  0
M  END
>  <Mol_ID>
1293

>  <Formula>
C7H10N4O2S

>  <MolWeight>
214.2449

>  <Cat>
S4175

>  <Name>
Sulfaguanidine

>  <Synonyms>
N/A

>  <Target>
Anti-infection

>  <Form>
free base

>  <CAS>
57-67-0

>  <URL>
http://selleckchem.com/products/sulfaguanidine.html

$$$$
