Sulfo-SMCC sodium
 OpenBabel08302521353D

 46 48  0  0  0  0  0  0  0  0999 V2000
    0.7191   -0.1029   -0.6894 O   0  0  0  0  0  0  0  0  0  0  0  0
    0.2936   -1.2514   -0.0807 C   0  0  0  0  0  0  0  0  0  0  0  0
    1.0211   -2.0634    0.4737 O   0  0  0  0  0  0  0  0  0  0  0  0
    1.0320    0.8014    1.9330 O   0  0  0  0  0  0  0  0  0  0  0  0
    3.0109    0.7201   -2.1673 O   0  0  0  0  0  0  0  0  0  0  0  0
    2.7496    3.2439    1.8452 S   0  0  0  0  0  0  0  0  0  0  0  0
    1.8869    3.8766    0.8748 O   0  0  0  0  0  0  0  0  0  0  0  0
    2.4627    3.2411    3.2596 O   0  0  0  0  0  0  0  0  0  0  0  0
    4.1904    3.9591    1.7021 O   0  0  0  0  0  0  0  0  0  0  0  0
   -3.3342   -3.6681    1.8257 C   0  0  0  0  0  0  0  0  0  0  0  0
   -1.8030   -3.4052    4.3459 O   0  0  0  0  0  0  0  0  0  0  0  0
   -6.1053   -3.7798    2.8750 O   0  0  0  0  0  0  0  0  0  0  0  0
    1.9111    0.3863   -0.1566 N   0  0  0  0  0  0  0  0  0  0  0  0
    1.9254    0.8878    1.1056 C   0  0  0  0  0  0  0  0  0  0  0  0
    2.8979    0.8458   -0.9582 C   0  0  0  0  0  0  0  0  0  0  0  0
    3.2082    1.6255    1.2846 C   0  0  3  0  0  0  0  0  0  0  0  0
    3.8511    1.6284   -0.1000 C   0  0  0  0  0  0  0  0  0  0  0  0
   -1.2266   -1.2784   -0.0981 C   0  0  3  0  0  0  0  0  0  0  0  0
   -1.7416   -0.9958    1.3191 C   0  0  0  0  0  0  0  0  0  0  0  0
   -1.7530   -2.5921   -0.6752 C   0  0  0  0  0  0  0  0  0  0  0  0
   -3.2570   -1.1310    1.4169 C   0  0  0  0  0  0  0  0  0  0  0  0
   -3.2723   -2.7122   -0.5288 C   0  0  0  0  0  0  0  0  0  0  0  0
   -3.7564   -2.4932    0.9153 C   0  0  3  0  0  0  0  0  0  0  0  0
   -3.8139   -3.5407    3.1892 N   0  0  0  0  0  0  0  0  0  0  0  0
   -3.0166   -3.4343    4.2817 C   0  0  0  0  0  0  0  0  0  0  0  0
   -5.1130   -3.6190    3.5658 C   0  0  0  0  0  0  0  0  0  0  0  0
   -3.8940   -3.3845    5.4561 C   0  0  0  0  0  0  0  0  0  0  0  0
   -5.1513   -3.4906    5.0259 C   0  0  0  0  0  0  0  0  0  0  0  0
    4.1261    4.8512    2.1104 H   0  0  0  0  0  0  0  0  0  0  0  0
   -3.7538   -4.5976    1.4226 H   0  0  0  0  0  0  0  0  0  0  0  0
   -2.2460   -3.7845    1.8462 H   0  0  0  0  0  0  0  0  0  0  0  0
    3.8383    1.1447    2.0364 H   0  0  0  0  0  0  0  0  0  0  0  0
    3.9595    2.6305   -0.5272 H   0  0  0  0  0  0  0  0  0  0  0  0
    4.8267    1.1350   -0.0874 H   0  0  0  0  0  0  0  0  0  0  0  0
   -1.5772   -0.4675   -0.7517 H   0  0  0  0  0  0  0  0  0  0  0  0
   -1.2603   -1.6650    2.0421 H   0  0  0  0  0  0  0  0  0  0  0  0
   -1.4605    0.0209    1.6179 H   0  0  0  0  0  0  0  0  0  0  0  0
   -1.4885   -2.6538   -1.7383 H   0  0  0  0  0  0  0  0  0  0  0  0
   -1.2643   -3.4472   -0.1949 H   0  0  0  0  0  0  0  0  0  0  0  0
   -3.5800   -0.9514    2.4485 H   0  0  0  0  0  0  0  0  0  0  0  0
   -3.7205   -0.3398    0.8131 H   0  0  0  0  0  0  0  0  0  0  0  0
   -3.6020   -3.6913   -0.8948 H   0  0  0  0  0  0  0  0  0  0  0  0
   -3.7487   -1.9638   -1.1764 H   0  0  0  0  0  0  0  0  0  0  0  0
   -4.8534   -2.4551    0.8949 H   0  0  0  0  0  0  0  0  0  0  0  0
   -3.5308   -3.2838    6.4633 H   0  0  0  0  0  0  0  0  0  0  0  0
   -6.0609   -3.4955    5.5988 H   0  0  0  0  0  0  0  0  0  0  0  0
  1  2  1  0  0  0  0
  1 13  1  0  0  0  0
  2  3  2  0  0  0  0
  2 18  1  0  0  0  0
  4 14  2  0  0  0  0
  5 15  2  0  0  0  0
  6  7  2  0  0  0  0
  6  8  2  0  0  0  0
  6  9  1  0  0  0  0
  6 16  1  0  0  0  0
  9 29  1  0  0  0  0
 10 23  1  0  0  0  0
 10 24  1  0  0  0  0
 10 30  1  0  0  0  0
 10 31  1  0  0  0  0
 11 25  2  0  0  0  0
 12 26  2  0  0  0  0
 13 14  1  0  0  0  0
 13 15  1  0  0  0  0
 14 16  1  0  0  0  0
 15 17  1  0  0  0  0
 16 17  1  0  0  0  0
 16 32  1  0  0  0  0
 17 33  1  0  0  0  0
 17 34  1  0  0  0  0
 18 19  1  0  0  0  0
 18 20  1  0  0  0  0
 18 35  1  0  0  0  0
 19 21  1  0  0  0  0
 19 36  1  0  0  0  0
 19 37  1  0  0  0  0
 20 22  1  0  0  0  0
 20 38  1  0  0  0  0
 20 39  1  0  0  0  0
 21 23  1  0  0  0  0
 21 40  1  0  0  0  0
 21 41  1  0  0  0  0
 22 23  1  0  0  0  0
 22 42  1  0  0  0  0
 22 43  1  0  0  0  0
 23 44  1  0  0  0  0
 24 25  1  0  0  0  0
 24 26  1  0  0  0  0
 25 27  1  0  0  0  0
 26 28  1  0  0  0  0
 27 28  2  0  0  0  0
 27 45  1  0  0  0  0
 28 46  1  0  0  0  0
M  END
>  <Mol_ID>
6891

>  <Formula>
C16H18N2NaO9S

>  <MolWeight>
437.37689

>  <Cat>
S0566

>  <Name>
Sulfo-SMCC sodium

>  <Synonyms>
N/A

>  <Target>
ADC Linker

>  <Form>
Sodium salt

>  <CAS>
92921-24-9

>  <URL>
http://www.selleckchem.com/products/sulfo-smcc-sodium.html

$$$$
