Sulfamerazine.cdx
 OpenBabel08302521503D

 30 31  0  0  0  0  0  0  0  0999 V2000
   -1.8236    0.1780    0.0812 C   0  0  0  0  0  0  0  0  0  0  0  0
   -1.1738    0.3368    1.3087 C   0  0  0  0  0  0  0  0  0  0  0  0
    0.2286    0.3435    1.3501 C   0  0  0  0  0  0  0  0  0  0  0  0
    0.9830    0.2002    0.1827 C   0  0  0  0  0  0  0  0  0  0  0  0
    0.3191   -0.0906   -1.0106 C   0  0  0  0  0  0  0  0  0  0  0  0
   -1.0799   -0.0788   -1.0725 C   0  0  0  0  0  0  0  0  0  0  0  0
   -3.6076    0.1201   -0.0091 S   0  0  0  0  0  0  0  0  0  0  0  0
   -3.9601   -0.5991   -1.2103 O   0  0  0  0  0  0  0  0  0  0  0  0
   -4.0725   -0.3462    1.2805 O   0  0  0  0  0  0  0  0  0  0  0  0
   -4.1513    1.6932   -0.1291 N   0  0  0  0  0  0  0  0  0  0  0  0
   -3.3852    2.5737   -0.8781 C   0  0  0  0  0  0  0  0  0  0  0  0
   -2.6626    3.4070   -0.1245 N   0  0  0  0  0  0  0  0  0  0  0  0
   -1.8988    4.2950   -0.7894 C   0  0  0  0  0  0  0  0  0  0  0  0
   -1.8892    4.3694   -2.1706 C   0  0  0  0  0  0  0  0  0  0  0  0
   -2.6940    3.4663   -2.8305 C   0  0  0  0  0  0  0  0  0  0  0  0
   -3.4401    2.5362   -2.2067 N   0  0  0  0  0  0  0  0  0  0  0  0
   -1.0801    5.2256    0.0503 C   0  0  0  0  0  0  0  0  0  0  0  0
    2.3806    0.1227    0.2441 N   0  0  0  0  0  0  0  0  0  0  0  0
   -1.7352    0.4252    2.2332 H   0  0  0  0  0  0  0  0  0  0  0  0
    0.7302    0.4474    2.3107 H   0  0  0  0  0  0  0  0  0  0  0  0
    0.8831   -0.3363   -1.9074 H   0  0  0  0  0  0  0  0  0  0  0  0
   -1.5740   -0.3022   -2.0150 H   0  0  0  0  0  0  0  0  0  0  0  0
   -4.3500    2.0745    0.7874 H   0  0  0  0  0  0  0  0  0  0  0  0
   -1.2854    5.0891   -2.7071 H   0  0  0  0  0  0  0  0  0  0  0  0
   -2.7652    3.4730   -3.9158 H   0  0  0  0  0  0  0  0  0  0  0  0
   -1.7390    5.9134    0.5894 H   0  0  0  0  0  0  0  0  0  0  0  0
   -0.4982    4.6507    0.7780 H   0  0  0  0  0  0  0  0  0  0  0  0
   -0.3828    5.8127   -0.5544 H   0  0  0  0  0  0  0  0  0  0  0  0
    2.8409    0.3012   -0.6430 H   0  0  0  0  0  0  0  0  0  0  0  0
    2.7887    0.6640    1.0007 H   0  0  0  0  0  0  0  0  0  0  0  0
  1  2  2  0  0  0  0
  1  6  1  0  0  0  0
  1  7  1  0  0  0  0
  2  3  1  0  0  0  0
  2 19  1  0  0  0  0
  3  4  2  0  0  0  0
  3 20  1  0  0  0  0
  4  5  1  0  0  0  0
  4 18  1  0  0  0  0
  5  6  2  0  0  0  0
  5 21  1  0  0  0  0
  6 22  1  0  0  0  0
  7  8  2  0  0  0  0
  7  9  2  0  0  0  0
  7 10  1  0  0  0  0
 10 11  1  0  0  0  0
 10 23  1  0  0  0  0
 11 12  2  0  0  0  0
 11 16  1  0  0  0  0
 12 13  1  0  0  0  0
 13 14  2  0  0  0  0
 13 17  1  0  0  0  0
 14 15  1  0  0  0  0
 14 24  1  0  0  0  0
 15 16  2  0  0  0  0
 15 25  1  0  0  0  0
 17 26  1  0  0  0  0
 17 27  1  0  0  0  0
 17 28  1  0  0  0  0
 18 29  1  0  0  0  0
 18 30  1  0  0  0  0
M  END
>  <Mol_ID>
981

>  <Formula>
C11H12N4O2S

>  <MolWeight>
264.30358

>  <Cat>
S3132

>  <Name>
Sulfamerazine

>  <Synonyms>
RP 2632,sulphamerazine

>  <Target>
Bacterial

>  <Form>
free base

>  <CAS>
127-79-7

>  <URL>
http://selleckchem.com/products/sulfamerazine.html

$$$$
