Sulfopin
 OpenBabel08302521313D

 37 37  0  0  0  0  0  0  0  0999 V2000
   -1.0235   -0.1745   -2.3576 S   0  0  0  0  0  0  0  0  0  0  0  0
   -0.0155   -1.3775   -1.5190 C   0  0  0  0  0  0  0  0  0  0  0  0
   -0.8805   -1.9612   -0.4149 C   0  0  0  0  0  0  0  0  0  0  0  0
   -1.8618   -0.8636    0.0521 C   0  0  3  0  0  0  0  0  0  0  0  0
   -2.3523   -0.1024   -1.1880 C   0  0  0  0  0  0  0  0  0  0  0  0
   -2.9718   -1.3805    0.8988 N   0  0  0  0  0  0  0  0  0  0  0  0
   -3.8326   -2.3209    0.3258 C   0  0  0  0  0  0  0  0  0  0  0  0
   -4.9945   -2.8854    1.1046 C   0  0  0  0  0  0  0  0  0  0  0  0
   -3.6752   -2.7248   -0.8286 O   0  0  0  0  0  0  0  0  0  0  0  0
   -3.2303   -0.6852    2.1796 C   0  0  0  0  0  0  0  0  0  0  0  0
   -2.5091   -1.2487    3.4456 C   0  0  0  0  0  0  0  0  0  0  0  0
   -0.9783   -1.1834    3.3229 C   0  0  0  0  0  0  0  0  0  0  0  0
   -2.9038   -0.3806    4.6615 C   0  0  0  0  0  0  0  0  0  0  0  0
   -2.9285   -2.6958    3.7487 C   0  0  0  0  0  0  0  0  0  0  0  0
   -0.3149    1.0950   -2.3303 O   0  0  0  0  0  0  0  0  0  0  0  0
   -1.5030   -0.7501   -3.6025 O   0  0  0  0  0  0  0  0  0  0  0  0
    0.3111   -2.1439   -2.2266 H   0  0  0  0  0  0  0  0  0  0  0  0
    0.8560   -0.8611   -1.1072 H   0  0  0  0  0  0  0  0  0  0  0  0
   -1.3878   -2.8496   -0.7953 H   0  0  0  0  0  0  0  0  0  0  0  0
   -0.2495   -2.3126    0.4084 H   0  0  0  0  0  0  0  0  0  0  0  0
   -1.2808   -0.1578    0.6593 H   0  0  0  0  0  0  0  0  0  0  0  0
   -2.5542    0.9475   -0.9493 H   0  0  0  0  0  0  0  0  0  0  0  0
   -3.2398   -0.5240   -1.6599 H   0  0  0  0  0  0  0  0  0  0  0  0
   -5.9155   -2.6694    0.5555 H   0  0  0  0  0  0  0  0  0  0  0  0
   -4.8632   -3.9713    1.1641 H   0  0  0  0  0  0  0  0  0  0  0  0
   -5.1045   -2.5047    2.1114 H   0  0  0  0  0  0  0  0  0  0  0  0
   -2.9567    0.3690    2.0389 H   0  0  0  0  0  0  0  0  0  0  0  0
   -4.3109   -0.6666    2.3563 H   0  0  0  0  0  0  0  0  0  0  0  0
   -0.6191   -0.1487    3.3549 H   0  0  0  0  0  0  0  0  0  0  0  0
   -0.4922   -1.7249    4.1426 H   0  0  0  0  0  0  0  0  0  0  0  0
   -0.6219   -1.6360    2.4001 H   0  0  0  0  0  0  0  0  0  0  0  0
   -3.9851   -0.3994    4.8346 H   0  0  0  0  0  0  0  0  0  0  0  0
   -2.4140   -0.7378    5.5758 H   0  0  0  0  0  0  0  0  0  0  0  0
   -2.6068    0.6646    4.5165 H   0  0  0  0  0  0  0  0  0  0  0  0
   -3.9908   -2.7517    4.0119 H   0  0  0  0  0  0  0  0  0  0  0  0
   -2.7449   -3.3590    2.8986 H   0  0  0  0  0  0  0  0  0  0  0  0
   -2.3727   -3.0994    4.6030 H   0  0  0  0  0  0  0  0  0  0  0  0
  1  2  1  0  0  0  0
  1 15  2  0  0  0  0
  1 16  2  0  0  0  0
  2  3  1  0  0  0  0
  2 17  1  0  0  0  0
  2 18  1  0  0  0  0
  3  4  1  0  0  0  0
  3 19  1  0  0  0  0
  3 20  1  0  0  0  0
  4  5  1  0  0  0  0
  4  6  1  0  0  0  0
  4 21  1  0  0  0  0
  5  1  1  0  0  0  0
  5 22  1  0  0  0  0
  5 23  1  0  0  0  0
  6  7  1  0  0  0  0
  6 10  1  0  0  0  0
  7  8  1  0  0  0  0
  7  9  2  0  0  0  0
  8 24  1  0  0  0  0
  8 25  1  0  0  0  0
  8 26  1  0  0  0  0
 10 11  1  0  0  0  0
 10 27  1  0  0  0  0
 10 28  1  0  0  0  0
 11 12  1  0  0  0  0
 11 13  1  0  0  0  0
 11 14  1  0  0  0  0
 12 29  1  0  0  0  0
 12 30  1  0  0  0  0
 12 31  1  0  0  0  0
 13 32  1  0  0  0  0
 13 33  1  0  0  0  0
 13 34  1  0  0  0  0
 14 35  1  0  0  0  0
 14 36  1  0  0  0  0
 14 37  1  0  0  0  0
M  END
>  <Mol_ID>
6034

>  <Formula>
C11H20ClNO3S

>  <MolWeight>
281.7994

>  <Cat>
S9782

>  <Name>
Sulfopin

>  <Synonyms>
PIN1-3

>  <Target>
Others

>  <Form>
Free Base

>  <CAS>
2451481-08-4

>  <URL>
http://www.selleckchem.com/products/sulfopin.html

$$$$
