Sulfosuccinimidyl oleate sodium
 OpenBabel08302521383D

 68 68  0  0  0  0  0  0  0  0999 V2000
   -1.1734    0.9184   -1.1657 O   0  0  0  0  0  0  0  0  0  0  0  0
   -1.9328    0.1418   -2.0011 C   0  0  0  0  0  0  0  0  0  0  0  0
   -1.2289   -1.1721   -2.2215 C   0  0  0  0  0  0  0  0  0  0  0  0
   -3.0592    0.4261   -2.3855 O   0  0  0  0  0  0  0  0  0  0  0  0
   -1.5090   -2.0927   -1.0338 C   0  0  0  0  0  0  0  0  0  0  0  0
   -0.8203   -3.4400   -1.1366 C   0  0  0  0  0  0  0  0  0  0  0  0
   -1.1735   -4.3009    0.0780 C   0  0  0  0  0  0  0  0  0  0  0  0
   -0.5240   -5.6783   -0.0177 C   0  0  0  0  0  0  0  0  0  0  0  0
   -0.8400   -6.5683    1.1828 C   0  0  0  0  0  0  0  0  0  0  0  0
   -2.3324   -6.8755    1.3430 C   0  0  0  0  0  0  0  0  0  0  0  0
   -2.5340   -7.7080    2.5738 C   0  0  0  0  0  0  0  0  0  0  0  0
   -3.2825   -7.3091    3.6129 C   0  0  0  0  0  0  0  0  0  0  0  0
   -3.3365   -8.0403    4.9202 C   0  0  0  0  0  0  0  0  0  0  0  0
   -4.7336   -8.5752    5.2191 C   0  0  0  0  0  0  0  0  0  0  0  0
   -4.7717   -9.2850    6.5749 C   0  0  0  0  0  0  0  0  0  0  0  0
   -6.1715   -9.8232    6.8758 C   0  0  0  0  0  0  0  0  0  0  0  0
   -6.2247  -10.5378    8.2280 C   0  0  0  0  0  0  0  0  0  0  0  0
   -7.6312  -11.0669    8.5206 C   0  0  0  0  0  0  0  0  0  0  0  0
   -7.6943  -11.7920    9.8658 C   0  0  0  0  0  0  0  0  0  0  0  0
   -9.0942  -12.3139   10.1521 C   0  0  0  0  0  0  0  0  0  0  0  0
   -3.1380   -0.3421    0.5076 O   0  0  0  0  0  0  0  0  0  0  0  0
   -0.9279    3.6073   -0.2321 O   0  0  0  0  0  0  0  0  0  0  0  0
   -4.8671    1.6512    1.9494 S   0  0  0  0  0  0  0  0  0  0  0  0
   -5.4683    2.2798    0.7983 O   0  0  0  0  0  0  0  0  0  0  0  0
   -5.3398    0.4001    2.5019 O   0  0  0  0  0  0  0  0  0  0  0  0
   -4.9814    2.7371    3.1388 O   0  0  0  0  0  0  0  0  0  0  0  0
   -1.9144    1.5109   -0.1496 N   0  0  0  0  0  0  0  0  0  0  0  0
   -2.7659    0.8147    0.6444 C   0  0  0  0  0  0  0  0  0  0  0  0
   -1.6839    2.7801    0.2503 C   0  0  0  0  0  0  0  0  0  0  0  0
   -3.1210    1.6623    1.8001 C   0  0  3  0  0  0  0  0  0  0  0  0
   -2.5115    3.0190    1.4859 C   0  0  0  0  0  0  0  0  0  0  0  0
   -1.5883   -1.6140   -3.1546 H   0  0  0  0  0  0  0  0  0  0  0  0
   -0.1542   -0.9933   -2.3340 H   0  0  0  0  0  0  0  0  0  0  0  0
   -1.1763   -1.6091   -0.1050 H   0  0  0  0  0  0  0  0  0  0  0  0
   -2.5928   -2.2498   -0.9482 H   0  0  0  0  0  0  0  0  0  0  0  0
   -1.1397   -3.9481   -2.0539 H   0  0  0  0  0  0  0  0  0  0  0  0
    0.2665   -3.3015   -1.1904 H   0  0  0  0  0  0  0  0  0  0  0  0
   -0.8525   -3.8033    1.0000 H   0  0  0  0  0  0  0  0  0  0  0  0
   -2.2634   -4.3961    0.1284 H   0  0  0  0  0  0  0  0  0  0  0  0
   -0.8426   -6.1787   -0.9388 H   0  0  0  0  0  0  0  0  0  0  0  0
    0.5646   -5.5567   -0.0790 H   0  0  0  0  0  0  0  0  0  0  0  0
   -0.2873   -7.5097    1.0663 H   0  0  0  0  0  0  0  0  0  0  0  0
   -0.4561   -6.0934    2.0947 H   0  0  0  0  0  0  0  0  0  0  0  0
   -2.9074   -5.9480    1.4320 H   0  0  0  0  0  0  0  0  0  0  0  0
   -2.7099   -7.4087    0.4637 H   0  0  0  0  0  0  0  0  0  0  0  0
   -1.9806   -8.6430    2.6278 H   0  0  0  0  0  0  0  0  0  0  0  0
   -3.8358   -6.3733    3.5544 H   0  0  0  0  0  0  0  0  0  0  0  0
   -2.6106   -8.8623    4.9316 H   0  0  0  0  0  0  0  0  0  0  0  0
   -3.0292   -7.3395    5.7062 H   0  0  0  0  0  0  0  0  0  0  0  0
   -5.4563   -7.7495    5.2164 H   0  0  0  0  0  0  0  0  0  0  0  0
   -5.0384   -9.2730    4.4292 H   0  0  0  0  0  0  0  0  0  0  0  0
   -4.0496  -10.1106    6.5783 H   0  0  0  0  0  0  0  0  0  0  0  0
   -4.4672   -8.5866    7.3640 H   0  0  0  0  0  0  0  0  0  0  0  0
   -6.8893   -8.9941    6.8702 H   0  0  0  0  0  0  0  0  0  0  0  0
   -6.4731  -10.5173    6.0820 H   0  0  0  0  0  0  0  0  0  0  0  0
   -5.5103  -11.3699    8.2318 H   0  0  0  0  0  0  0  0  0  0  0  0
   -5.9199   -9.8454    9.0221 H   0  0  0  0  0  0  0  0  0  0  0  0
   -8.3435  -10.2327    8.5208 H   0  0  0  0  0  0  0  0  0  0  0  0
   -7.9380  -11.7528    7.7215 H   0  0  0  0  0  0  0  0  0  0  0  0
   -6.9907  -12.6324    9.8690 H   0  0  0  0  0  0  0  0  0  0  0  0
   -7.3926  -11.1124   10.6711 H   0  0  0  0  0  0  0  0  0  0  0  0
   -9.4185  -13.0152    9.3768 H   0  0  0  0  0  0  0  0  0  0  0  0
   -9.1152  -12.8377   11.1132 H   0  0  0  0  0  0  0  0  0  0  0  0
   -9.8177  -11.4934   10.1975 H   0  0  0  0  0  0  0  0  0  0  0  0
   -5.8588    3.1703    3.0702 H   0  0  0  0  0  0  0  0  0  0  0  0
   -2.6792    1.2199    2.7000 H   0  0  0  0  0  0  0  0  0  0  0  0
   -3.2548    3.8025    1.2810 H   0  0  0  0  0  0  0  0  0  0  0  0
   -1.8593    3.3458    2.2988 H   0  0  0  0  0  0  0  0  0  0  0  0
  1  2  1  0  0  0  0
  1 27  1  0  0  0  0
  2  3  1  0  0  0  0
  2  4  2  0  0  0  0
  3  5  1  0  0  0  0
  3 32  1  0  0  0  0
  3 33  1  0  0  0  0
  5  6  1  0  0  0  0
  5 34  1  0  0  0  0
  5 35  1  0  0  0  0
  6  7  1  0  0  0  0
  6 36  1  0  0  0  0
  6 37  1  0  0  0  0
  7  8  1  0  0  0  0
  7 38  1  0  0  0  0
  7 39  1  0  0  0  0
  8  9  1  0  0  0  0
  8 40  1  0  0  0  0
  8 41  1  0  0  0  0
  9 10  1  0  0  0  0
  9 42  1  0  0  0  0
  9 43  1  0  0  0  0
 10 11  1  0  0  0  0
 10 44  1  0  0  0  0
 10 45  1  0  0  0  0
 11 12  2  3  0  0  0
 11 46  1  0  0  0  0
 12 13  1  0  0  0  0
 12 47  1  0  0  0  0
 13 14  1  0  0  0  0
 13 48  1  0  0  0  0
 13 49  1  0  0  0  0
 14 15  1  0  0  0  0
 14 50  1  0  0  0  0
 14 51  1  0  0  0  0
 15 16  1  0  0  0  0
 15 52  1  0  0  0  0
 15 53  1  0  0  0  0
 16 17  1  0  0  0  0
 16 54  1  0  0  0  0
 16 55  1  0  0  0  0
 17 18  1  0  0  0  0
 17 56  1  0  0  0  0
 17 57  1  0  0  0  0
 18 19  1  0  0  0  0
 18 58  1  0  0  0  0
 18 59  1  0  0  0  0
 19 20  1  0  0  0  0
 19 60  1  0  0  0  0
 19 61  1  0  0  0  0
 20 62  1  0  0  0  0
 20 63  1  0  0  0  0
 20 64  1  0  0  0  0
 21 28  2  0  0  0  0
 22 29  2  0  0  0  0
 23 24  2  0  0  0  0
 23 25  2  0  0  0  0
 23 26  1  0  0  0  0
 23 30  1  0  0  0  0
 26 65  1  0  0  0  0
 27 28  1  0  0  0  0
 27 29  1  0  0  0  0
 28 30  1  0  0  0  0
 29 31  1  0  0  0  0
 30 31  1  0  0  0  0
 30 66  1  0  0  0  0
 31 67  1  0  0  0  0
 31 68  1  0  0  0  0
M  END
>  <Mol_ID>
7634

>  <Formula>
C22H37NNaO7S

>  <MolWeight>
482.58645

>  <Cat>
E2988

>  <Name>
Sulfosuccinimidyl oleate sodium

>  <Target>
Mitophagy

>  <Form>
sodium

>  <CAS>
1212012-37-7

>  <URL>
https://www.selleckchem.com/products/sulfosuccinimidyl-oleate-sodium.html

$$$$
