Sulfatinib
 OpenBabel08302521243D

 62 65  0  0  0  0  0  0  0  0999 V2000
    1.5464    0.3639   -0.9582 S   0  0  0  0  0  0  0  0  0  0  0  0
    2.0370    0.4362   -2.3159 O   0  0  0  0  0  0  0  0  0  0  0  0
    0.3372   -0.3636   -0.6266 O   0  0  0  0  0  0  0  0  0  0  0  0
   10.6613   -1.3505   -2.5148 O   0  0  0  0  0  0  0  0  0  0  0  0
    1.2055    1.9461   -0.4783 N   0  0  0  0  0  0  0  0  0  0  0  0
    1.7065    4.7972    0.8484 N   0  0  0  0  0  0  0  0  0  0  0  0
   13.1082   -1.8705    2.3825 N   0  0  0  0  0  0  0  0  0  0  0  0
    6.5343   -3.1360   -1.1797 N   0  0  0  0  0  0  0  0  0  0  0  0
    8.5982   -2.3336   -1.9123 N   0  0  0  0  0  0  0  0  0  0  0  0
    6.6247   -1.5513   -2.9382 N   0  0  0  0  0  0  0  0  0  0  0  0
    2.8586   -0.1027    0.1793 C   0  0  0  0  0  0  0  0  0  0  0  0
    2.0306    3.0375   -1.0325 C   0  0  0  0  0  0  0  0  0  0  0  0
    1.5353    4.4314   -0.5752 C   0  0  0  0  0  0  0  0  0  0  0  0
    3.3499   -1.4999   -0.1180 C   0  0  0  0  0  0  0  0  0  0  0  0
    4.6761   -1.6926   -0.5324 C   0  0  0  0  0  0  0  0  0  0  0  0
   13.0233   -2.1193    0.1685 C   0  0  0  0  0  0  0  0  0  0  0  0
   12.3282   -1.6325    1.2744 C   0  0  0  0  0  0  0  0  0  0  0  0
    2.5429   -2.6292    0.0629 C   0  0  0  0  0  0  0  0  0  0  0  0
    5.2048   -2.9720   -0.7752 C   0  0  0  0  0  0  0  0  0  0  0  0
   14.2799   -2.4894    2.0221 C   0  0  0  0  0  0  0  0  0  0  0  0
   14.2523   -2.6490    0.6523 C   0  0  0  0  0  0  0  0  0  0  0  0
   12.4332   -2.0102   -1.1064 C   0  0  0  0  0  0  0  0  0  0  0  0
    1.2822    6.1906    1.0434 C   0  0  0  0  0  0  0  0  0  0  0  0
    0.9480    3.9406    1.7610 C   0  0  0  0  0  0  0  0  0  0  0  0
    3.0548   -3.9098   -0.1670 C   0  0  0  0  0  0  0  0  0  0  0  0
    4.3807   -4.0790   -0.5731 C   0  0  0  0  0  0  0  0  0  0  0  0
   11.0712   -1.0273    1.1708 C   0  0  0  0  0  0  0  0  0  0  0  0
   11.1600   -1.4369   -1.2298 C   0  0  0  0  0  0  0  0  0  0  0  0
   10.5059   -0.9249   -0.1050 C   0  0  0  0  0  0  0  0  0  0  0  0
   15.3006   -2.8658    3.0300 C   0  0  0  0  0  0  0  0  0  0  0  0
    7.2681   -2.3113   -2.0321 C   0  0  0  0  0  0  0  0  0  0  0  0
    9.2890   -1.4776   -2.6905 C   0  0  0  0  0  0  0  0  0  0  0  0
    8.7242   -0.7198   -3.6866 C   0  0  0  0  0  0  0  0  0  0  0  0
    7.3624   -0.8058   -3.7687 C   0  0  0  0  0  0  0  0  0  0  0  0
    0.1977    2.1046   -0.4607 H   0  0  0  0  0  0  0  0  0  0  0  0
   12.8460   -1.6244    3.3268 H   0  0  0  0  0  0  0  0  0  0  0  0
    6.8947   -4.0766   -1.2378 H   0  0  0  0  0  0  0  0  0  0  0  0
    3.6643    0.6282    0.0551 H   0  0  0  0  0  0  0  0  0  0  0  0
    2.4736   -0.0427    1.2012 H   0  0  0  0  0  0  0  0  0  0  0  0
    3.0815    2.8996   -0.7600 H   0  0  0  0  0  0  0  0  0  0  0  0
    1.9487    3.0146   -2.1253 H   0  0  0  0  0  0  0  0  0  0  0  0
    2.1108    5.1547   -1.1669 H   0  0  0  0  0  0  0  0  0  0  0  0
    0.4834    4.5504   -0.8718 H   0  0  0  0  0  0  0  0  0  0  0  0
    5.3286   -0.8287   -0.6499 H   0  0  0  0  0  0  0  0  0  0  0  0
    1.5077   -2.5298    0.3839 H   0  0  0  0  0  0  0  0  0  0  0  0
   15.0308   -3.1082    0.0546 H   0  0  0  0  0  0  0  0  0  0  0  0
   12.9537   -2.3787   -1.9843 H   0  0  0  0  0  0  0  0  0  0  0  0
    0.2271    6.3399    0.7837 H   0  0  0  0  0  0  0  0  0  0  0  0
    1.4238    6.4998    2.0858 H   0  0  0  0  0  0  0  0  0  0  0  0
    1.8879    6.8688    0.4320 H   0  0  0  0  0  0  0  0  0  0  0  0
   -0.1182    3.9106    1.5098 H   0  0  0  0  0  0  0  0  0  0  0  0
    1.3448    2.9226    1.7775 H   0  0  0  0  0  0  0  0  0  0  0  0
    1.0425    4.3003    2.7927 H   0  0  0  0  0  0  0  0  0  0  0  0
    2.4154   -4.7786   -0.0292 H   0  0  0  0  0  0  0  0  0  0  0  0
    4.7554   -5.0852   -0.7422 H   0  0  0  0  0  0  0  0  0  0  0  0
   10.5454   -0.6545    2.0434 H   0  0  0  0  0  0  0  0  0  0  0  0
    9.5334   -0.4484   -0.1980 H   0  0  0  0  0  0  0  0  0  0  0  0
   15.6899   -1.9749    3.5328 H   0  0  0  0  0  0  0  0  0  0  0  0
   14.8681   -3.5287    3.7863 H   0  0  0  0  0  0  0  0  0  0  0  0
   16.1415   -3.3880    2.5629 H   0  0  0  0  0  0  0  0  0  0  0  0
    9.3059   -0.0875   -4.3407 H   0  0  0  0  0  0  0  0  0  0  0  0
    6.7970   -0.2557   -4.5178 H   0  0  0  0  0  0  0  0  0  0  0  0
  1  2  2  0  0  0  0
  1  3  2  0  0  0  0
  1  5  1  0  0  0  0
  1 11  1  0  0  0  0
  4 28  1  0  0  0  0
  4 32  1  0  0  0  0
  5 12  1  0  0  0  0
  5 35  1  0  0  0  0
  6 13  1  0  0  0  0
  6 23  1  0  0  0  0
  6 24  1  0  0  0  0
  7 17  1  0  0  0  0
  7 20  1  0  0  0  0
  7 36  1  0  0  0  0
  8 19  1  0  0  0  0
  8 31  1  0  0  0  0
  8 37  1  0  0  0  0
  9 31  2  0  0  0  0
  9 32  1  0  0  0  0
 10 31  1  0  0  0  0
 10 34  2  0  0  0  0
 11 14  1  0  0  0  0
 11 38  1  0  0  0  0
 11 39  1  0  0  0  0
 12 13  1  0  0  0  0
 12 40  1  0  0  0  0
 12 41  1  0  0  0  0
 13 42  1  0  0  0  0
 13 43  1  0  0  0  0
 14 15  2  0  0  0  0
 14 18  1  0  0  0  0
 15 19  1  0  0  0  0
 15 44  1  0  0  0  0
 16 17  2  0  0  0  0
 16 21  1  0  0  0  0
 16 22  1  0  0  0  0
 17 27  1  0  0  0  0
 18 25  2  0  0  0  0
 18 45  1  0  0  0  0
 19 26  2  0  0  0  0
 20 21  2  0  0  0  0
 20 30  1  0  0  0  0
 21 46  1  0  0  0  0
 22 28  2  0  0  0  0
 22 47  1  0  0  0  0
 23 48  1  0  0  0  0
 23 49  1  0  0  0  0
 23 50  1  0  0  0  0
 24 51  1  0  0  0  0
 24 52  1  0  0  0  0
 24 53  1  0  0  0  0
 25 26  1  0  0  0  0
 25 54  1  0  0  0  0
 26 55  1  0  0  0  0
 27 29  2  0  0  0  0
 27 56  1  0  0  0  0
 28 29  1  0  0  0  0
 29 57  1  0  0  0  0
 30 58  1  0  0  0  0
 30 59  1  0  0  0  0
 30 60  1  0  0  0  0
 32 33  2  0  0  0  0
 33 34  1  0  0  0  0
 33 61  1  0  0  0  0
 34 62  1  0  0  0  0
M  END
>  <Mol_ID>
4989

>  <Formula>
C24H28N6O3S

>  <MolWeight>
480.58252

>  <Cat>
S0487

>  <Name>
Sulfatinib

>  <Synonyms>
HMPL-012, Sufatinib, Surfatinib, Surufatinib

>  <Target>
CSF-1R,FGFR,VEGFR

>  <Form>
Free Base

>  <CAS>
1308672-74-3

>  <URL>
http://www.selleckchem.com/products/sulfatinib.html

$$$$
