Sulfadoxine.cdx
 OpenBabel08302521393D

 35 36  0  0  0  0  0  0  0  0999 V2000
   -3.0781    3.5834   -1.6077 C   0  0  0  0  0  0  0  0  0  0  0  0
   -4.2754    4.1941   -1.2245 C   0  0  0  0  0  0  0  0  0  0  0  0
   -5.1467    3.4956   -0.3816 C   0  0  0  0  0  0  0  0  0  0  0  0
   -4.8894    2.1672   -0.0215 C   0  0  0  0  0  0  0  0  0  0  0  0
   -3.7292    1.5456   -0.4806 C   0  0  0  0  0  0  0  0  0  0  0  0
   -2.8067    2.2586   -1.2541 C   0  0  0  0  0  0  0  0  0  0  0  0
   -4.4799    5.5554   -1.4783 N   0  0  0  0  0  0  0  0  0  0  0  0
   -3.3210   -0.1023    0.0542 S   0  0  0  0  0  0  0  0  0  0  0  0
   -3.8281   -1.0677   -1.2516 N   0  0  0  0  0  0  0  0  0  0  0  0
   -1.8772   -0.1735    0.0849 O   0  0  0  0  0  0  0  0  0  0  0  0
   -4.1058   -0.3991    1.2351 O   0  0  0  0  0  0  0  0  0  0  0  0
   -4.9437   -1.9052   -0.9645 C   0  0  0  0  0  0  0  0  0  0  0  0
   -6.0896   -1.2448   -1.2235 N   0  0  0  0  0  0  0  0  0  0  0  0
   -7.2143   -1.9461   -1.0256 C   0  0  0  0  0  0  0  0  0  0  0  0
   -7.2894   -3.2207   -0.6377 N   0  0  0  0  0  0  0  0  0  0  0  0
   -6.1067   -3.8262   -0.4055 C   0  0  0  0  0  0  0  0  0  0  0  0
   -4.8600   -3.2217   -0.5336 C   0  0  0  0  0  0  0  0  0  0  0  0
   -6.1090   -5.1733   -0.0752 O   0  0  0  0  0  0  0  0  0  0  0  0
   -3.7929   -4.0256   -0.3010 O   0  0  0  0  0  0  0  0  0  0  0  0
   -2.5145   -3.4774   -0.0534 C   0  0  0  0  0  0  0  0  0  0  0  0
   -7.3488   -5.6288    0.4484 C   0  0  0  0  0  0  0  0  0  0  0  0
   -2.3365    4.1414   -2.1740 H   0  0  0  0  0  0  0  0  0  0  0  0
   -6.0317    3.9878    0.0150 H   0  0  0  0  0  0  0  0  0  0  0  0
   -5.5787    1.6468    0.6401 H   0  0  0  0  0  0  0  0  0  0  0  0
   -1.8621    1.8095   -1.5526 H   0  0  0  0  0  0  0  0  0  0  0  0
   -5.4538    5.8400   -1.4497 H   0  0  0  0  0  0  0  0  0  0  0  0
   -4.0032    5.8993   -2.3061 H   0  0  0  0  0  0  0  0  0  0  0  0
   -4.1134   -0.4594   -2.0197 H   0  0  0  0  0  0  0  0  0  0  0  0
   -8.1543   -1.4343   -1.2056 H   0  0  0  0  0  0  0  0  0  0  0  0
   -2.0124   -3.2325   -0.9934 H   0  0  0  0  0  0  0  0  0  0  0  0
   -2.5509   -2.6353    0.6341 H   0  0  0  0  0  0  0  0  0  0  0  0
   -1.9210   -4.2496    0.4507 H   0  0  0  0  0  0  0  0  0  0  0  0
   -7.6666   -5.0176    1.3005 H   0  0  0  0  0  0  0  0  0  0  0  0
   -8.1212   -5.6580   -0.3272 H   0  0  0  0  0  0  0  0  0  0  0  0
   -7.1990   -6.6505    0.8101 H   0  0  0  0  0  0  0  0  0  0  0  0
  1  2  2  0  0  0  0
  1 22  1  0  0  0  0
  2  3  1  0  0  0  0
  2  7  1  0  0  0  0
  3  4  2  0  0  0  0
  3 23  1  0  0  0  0
  4  5  1  0  0  0  0
  4 24  1  0  0  0  0
  5  6  2  0  0  0  0
  5  8  1  0  0  0  0
  6  1  1  0  0  0  0
  6 25  1  0  0  0  0
  7 26  1  0  0  0  0
  7 27  1  0  0  0  0
  8  9  1  0  0  0  0
  8 10  2  0  0  0  0
  8 11  2  0  0  0  0
  9 12  1  0  0  0  0
  9 28  1  0  0  0  0
 12 13  2  0  0  0  0
 13 14  1  0  0  0  0
 14 15  2  0  0  0  0
 14 29  1  0  0  0  0
 15 16  1  0  0  0  0
 16 17  2  0  0  0  0
 16 18  1  0  0  0  0
 17 12  1  0  0  0  0
 17 19  1  0  0  0  0
 18 21  1  0  0  0  0
 19 20  1  0  0  0  0
 20 30  1  0  0  0  0
 20 31  1  0  0  0  0
 20 32  1  0  0  0  0
 21 33  1  0  0  0  0
 21 34  1  0  0  0  0
 21 35  1  0  0  0  0
M  END
>  <Mol_ID>
777

>  <Formula>
C12H14N4O4S

>  <MolWeight>
310.32896

>  <Cat>
S2511

>  <Name>
Sulfadoxine

>  <Synonyms>
Sulphadoxine

>  <Target>
Anti-infection

>  <Form>
free base

>  <CAS>
2447-57-6

>  <URL>
http://selleckchem.com/products/Sulfadoxine(Sulphadoxine).html

$$$$
