SULFADIAZINE (sulfadiazine).cdx
 OpenBabel08302521203D

 27 28  0  0  0  0  0  0  0  0999 V2000
   -0.0197    0.3044   -2.8947 C   0  0  0  0  0  0  0  0  0  0  0  0
    0.0845   -0.9035   -2.2422 C   0  0  0  0  0  0  0  0  0  0  0  0
    0.3422   -0.8291   -0.8929 C   0  0  0  0  0  0  0  0  0  0  0  0
    0.4418    0.3317   -0.2193 N   0  0  0  0  0  0  0  0  0  0  0  0
    0.3338    1.4341   -0.9655 C   0  0  0  0  0  0  0  0  0  0  0  0
    0.1184    1.4971   -2.2817 N   0  0  0  0  0  0  0  0  0  0  0  0
    0.2710    2.6226   -0.2473 N   0  0  0  0  0  0  0  0  0  0  0  0
    1.7197    3.4248   -0.0569 S   0  0  0  0  0  0  0  0  0  0  0  0
    1.7936    4.4791   -1.4771 C   0  0  0  0  0  0  0  0  0  0  0  0
    1.5400    4.2833    1.0986 O   0  0  0  0  0  0  0  0  0  0  0  0
    2.8362    2.5014   -0.1128 O   0  0  0  0  0  0  0  0  0  0  0  0
    1.2044    5.7434   -1.4402 C   0  0  0  0  0  0  0  0  0  0  0  0
    1.2647    6.5619   -2.5715 C   0  0  0  0  0  0  0  0  0  0  0  0
    1.9588    6.1498   -3.7166 C   0  0  0  0  0  0  0  0  0  0  0  0
    2.5296    4.8744   -3.7393 C   0  0  0  0  0  0  0  0  0  0  0  0
    2.4780    4.0478   -2.6148 C   0  0  0  0  0  0  0  0  0  0  0  0
    1.8780    6.9020   -4.8940 N   0  0  0  0  0  0  0  0  0  0  0  0
   -0.2398    0.3482   -3.9576 H   0  0  0  0  0  0  0  0  0  0  0  0
   -0.0340   -1.8498   -2.7520 H   0  0  0  0  0  0  0  0  0  0  0  0
    0.4626   -1.7258   -0.2904 H   0  0  0  0  0  0  0  0  0  0  0  0
   -0.1691    2.4870    0.6572 H   0  0  0  0  0  0  0  0  0  0  0  0
    0.6812    6.0909   -0.5524 H   0  0  0  0  0  0  0  0  0  0  0  0
    0.7627    7.5252   -2.5546 H   0  0  0  0  0  0  0  0  0  0  0  0
    3.0197    4.5086   -4.6374 H   0  0  0  0  0  0  0  0  0  0  0  0
    2.9458    3.0661   -2.6426 H   0  0  0  0  0  0  0  0  0  0  0  0
    2.6228    6.7086   -5.5567 H   0  0  0  0  0  0  0  0  0  0  0  0
    1.7423    7.8953   -4.7421 H   0  0  0  0  0  0  0  0  0  0  0  0
  1  2  2  0  0  0  0
  1 18  1  0  0  0  0
  2  3  1  0  0  0  0
  2 19  1  0  0  0  0
  3  4  2  0  0  0  0
  3 20  1  0  0  0  0
  4  5  1  0  0  0  0
  5  6  2  0  0  0  0
  5  7  1  0  0  0  0
  6  1  1  0  0  0  0
  7  8  1  0  0  0  0
  7 21  1  0  0  0  0
  8  9  1  0  0  0  0
  8 10  2  0  0  0  0
  8 11  2  0  0  0  0
  9 12  2  0  0  0  0
 12 13  1  0  0  0  0
 12 22  1  0  0  0  0
 13 14  2  0  0  0  0
 13 23  1  0  0  0  0
 14 15  1  0  0  0  0
 14 17  1  0  0  0  0
 15 16  2  0  0  0  0
 15 24  1  0  0  0  0
 16  9  1  0  0  0  0
 16 25  1  0  0  0  0
 17 26  1  0  0  0  0
 17 27  1  0  0  0  0
M  END
>  <Mol_ID>
431

>  <Formula>
C10H10N4O2S

>  <MolWeight>
250.277

>  <Cat>
S1770

>  <Name>
Sulfadiazine

>  <Synonyms>
N/A

>  <Target>
Antibiotics

>  <Form>
free base

>  <CAS>
68-35-9

>  <URL>
http://selleckchem.com/products/Sulfadiazine.html

$$$$
