Sulfentrazone
 OpenBabel08302521373D

 33 34  0  0  0  0  0  0  0  0999 V2000
    1.5702   -0.0296    1.8783 O   0  0  0  0  0  0  0  0  0  0  0  0
    2.7050   -2.5072    1.1165 C   0  0  0  0  0  0  0  0  0  0  0  0
    2.2006   -3.2604    0.1059 F   0  0  0  0  0  0  0  0  0  0  0  0
    3.8079   -3.1527    1.5697 F   0  0  0  0  0  0  0  0  0  0  0  0
    4.7621   -1.8861   -1.0712 C   0  0  0  0  0  0  0  0  0  0  0  0
    0.4116    4.6980    1.9921 N   0  0  0  0  0  0  0  0  0  0  0  0
    0.9074    5.1940    3.5312 S   0  0  0  0  0  0  0  0  0  0  0  0
    1.0638    6.9501    3.2980 C   0  0  0  0  0  0  0  0  0  0  0  0
   -0.2347    4.9724    4.3914 O   0  0  0  0  0  0  0  0  0  0  0  0
    2.2041    4.6382    3.8459 O   0  0  0  0  0  0  0  0  0  0  0  0
    3.0007    0.9370    0.2401 N   0  0  0  0  0  0  0  0  0  0  0  0
    2.4468   -0.0847    1.0282 C   0  0  0  0  0  0  0  0  0  0  0  0
    3.9151    0.3899   -0.6457 N   0  0  0  0  0  0  0  0  0  0  0  0
    3.0647   -1.2276    0.6201 N   0  0  0  0  0  0  0  0  0  0  0  0
    3.9040   -0.8853   -0.3649 C   0  0  0  0  0  0  0  0  0  0  0  0
    2.6744    2.3094    0.2187 C   0  0  0  0  0  0  0  0  0  0  0  0
    1.7878    2.8546    1.1612 C   0  0  0  0  0  0  0  0  0  0  0  0
    3.1968    3.1588   -0.7672 C   0  0  0  0  0  0  0  0  0  0  0  0
    1.3967    4.1927    1.0899 C   0  0  0  0  0  0  0  0  0  0  0  0
    2.8252    4.5085   -0.8205 C   0  0  0  0  0  0  0  0  0  0  0  0
    1.9231    5.0268    0.1097 C   0  0  0  0  0  0  0  0  0  0  0  0
    1.9651   -2.4565    1.9204 H   0  0  0  0  0  0  0  0  0  0  0  0
    4.5912   -1.8195   -2.1490 H   0  0  0  0  0  0  0  0  0  0  0  0
    5.8124   -1.6599   -0.8669 H   0  0  0  0  0  0  0  0  0  0  0  0
    4.5587   -2.9089   -0.7486 H   0  0  0  0  0  0  0  0  0  0  0  0
   -0.3971    4.0811    2.1064 H   0  0  0  0  0  0  0  0  0  0  0  0
    0.0927    7.3604    3.0140 H   0  0  0  0  0  0  0  0  0  0  0  0
    1.3866    7.3873    4.2457 H   0  0  0  0  0  0  0  0  0  0  0  0
    1.8137    7.1432    2.5297 H   0  0  0  0  0  0  0  0  0  0  0  0
    1.3828    2.2473    1.9627 H   0  0  0  0  0  0  0  0  0  0  0  0
    3.8815    2.7723   -1.5204 H   0  0  0  0  0  0  0  0  0  0  0  0
    3.2218    5.1475   -1.6063 H   0  0  0  0  0  0  0  0  0  0  0  0
    1.6151    6.0657    0.0424 H   0  0  0  0  0  0  0  0  0  0  0  0
  1 12  2  0  0  0  0
  2  3  1  0  0  0  0
  2  4  1  0  0  0  0
  2 14  1  0  0  0  0
  2 22  1  0  0  0  0
  5 15  1  0  0  0  0
  5 23  1  0  0  0  0
  5 24  1  0  0  0  0
  5 25  1  0  0  0  0
  6  7  1  0  0  0  0
  6 19  1  0  0  0  0
  6 26  1  0  0  0  0
  7  8  1  0  0  0  0
  7  9  2  0  0  0  0
  7 10  2  0  0  0  0
  8 27  1  0  0  0  0
  8 28  1  0  0  0  0
  8 29  1  0  0  0  0
 11 12  1  0  0  0  0
 11 13  1  0  0  0  0
 11 16  1  0  0  0  0
 12 14  1  0  0  0  0
 13 15  2  0  0  0  0
 14 15  1  0  0  0  0
 16 17  2  0  0  0  0
 16 18  1  0  0  0  0
 17 19  1  0  0  0  0
 17 30  1  0  0  0  0
 18 20  2  0  0  0  0
 18 31  1  0  0  0  0
 19 21  2  0  0  0  0
 20 21  1  0  0  0  0
 20 32  1  0  0  0  0
 21 33  1  0  0  0  0
M  END
>  <Mol_ID>
7392

>  <Formula>
C11H10Cl2F2N4O3S

>  <MolWeight>
387.1899064

>  <Cat>
E4480

>  <Name>
Sulfentrazone

>  <Synonyms>
Sulfentrazone

>  <Target>
Others

>  <Form>
free base

>  <CAS>
122836-35-5

>  <URL>
https://www.selleckchem.com/products/sulfentrazone.html

$$$$
