Sulforaphene
 OpenBabel08302521593D

 19 18  0  0  0  0  0  0  0  0999 V2000
    1.0443    0.2084   -0.1538 C   0  0  0  0  0  0  0  0  0  0  0  0
    0.2115   -0.4272    0.9216 C   0  0  0  0  0  0  0  0  0  0  0  0
    0.5330    0.6600   -1.3117 C   0  0  0  0  0  0  0  0  0  0  0  0
    0.7009   -0.0872    2.3338 C   0  0  0  0  0  0  0  0  0  0  0  0
    1.6479    1.3547   -2.5286 S   0  0  3  0  0  0  0  0  0  0  0  0
   -0.2140   -0.7199    3.2985 N   0  0  0  0  0  0  0  0  0  0  0  0
    0.4460    2.4144   -3.3665 C   0  0  0  0  0  0  0  0  0  0  0  0
    2.5959    2.2355   -1.7698 O   0  0  0  0  0  0  0  0  0  0  0  0
    0.0734   -0.5669    4.4265 C   0  0  0  0  0  0  0  0  0  0  0  0
    0.4420   -0.3721    5.9618 S   0  0  0  0  0  0  0  0  0  0  0  0
    2.1147    0.2911    0.0313 H   0  0  0  0  0  0  0  0  0  0  0  0
   -0.8401   -0.1270    0.8210 H   0  0  0  0  0  0  0  0  0  0  0  0
    0.2458   -1.5157    0.7915 H   0  0  0  0  0  0  0  0  0  0  0  0
   -0.5291    0.5577   -1.5128 H   0  0  0  0  0  0  0  0  0  0  0  0
    1.7240   -0.4656    2.4691 H   0  0  0  0  0  0  0  0  0  0  0  0
    0.7174    1.0013    2.4742 H   0  0  0  0  0  0  0  0  0  0  0  0
   -0.0174    3.0955   -2.6487 H   0  0  0  0  0  0  0  0  0  0  0  0
    0.9676    2.9955   -4.1308 H   0  0  0  0  0  0  0  0  0  0  0  0
   -0.3176    1.7958   -3.8447 H   0  0  0  0  0  0  0  0  0  0  0  0
  1  2  1  0  0  0  0
  1  3  2  3  0  0  0
  1 11  1  0  0  0  0
  2  4  1  0  0  0  0
  2 12  1  0  0  0  0
  2 13  1  0  0  0  0
  3  5  1  0  0  0  0
  3 14  1  0  0  0  0
  4  6  1  0  0  0  0
  4 15  1  0  0  0  0
  4 16  1  0  0  0  0
  5  7  1  0  0  0  0
  5  8  2  0  0  0  0
  6  9  2  0  0  0  0
  7 17  1  0  0  0  0
  7 18  1  0  0  0  0
  7 19  1  0  0  0  0
  9 10  2  0  0  0  0
M  END
>  <Mol_ID>
10124

>  <Formula>
C6H9NOS2

>  <MolWeight>
175.27176

>  <Cat>
S0974

>  <Name>
Sulforaphene

>  <Synonyms>
N/A

>  <Target>
ROS, Bcl-2, NF-¦ÊB, EGFR, ERK

>  <Form>
free base

>  <CAS>
592-95-0

>  <URL>
https://www.selleckchem.com/products/sulforaphene.html

$$$$
