Sulindac.cdx
 OpenBabel08302521242D

 42 44  0  0  0  0  0  0  0  0999 V2000
    8.1539    0.0000    0.0000 C   0  0  0  0  0  0  0  0  0  0  0  0
    9.5539    0.0000    0.0000 C   0  0  0  0  0  0  0  0  0  0  0  0
   10.2539    1.2124    0.0000 C   0  0  0  0  0  0  0  0  0  0  0  0
    9.5539    2.4249    0.0000 C   0  0  0  0  0  0  0  0  0  0  0  0
    8.1539    2.4249    0.0000 C   0  0  0  0  0  0  0  0  0  0  0  0
    7.4539    1.2124    0.0000 C   0  0  0  0  0  0  0  0  0  0  0  0
   11.6490    1.2124    0.0000 S   0  0  3  0  0  0  0  0  0  0  0  0
   12.3466    2.4207    0.0000 C   0  0  0  0  0  0  0  0  0  0  0  0
   12.3466    0.0042    0.0000 O   0  0  0  0  0  0  0  0  0  0  0  0
    6.0587    1.2124    0.0000 C   0  0  0  0  0  0  0  0  0  0  0  0
    5.3611    2.4207    0.0000 C   0  0  0  0  0  0  0  0  0  0  0  0
    5.9306    3.6996    0.0000 C   0  0  0  0  0  0  0  0  0  0  0  0
    4.8902    4.6364    0.0000 C   0  0  0  0  0  0  0  0  0  0  0  0
    3.6777    3.9364    0.0000 C   0  0  0  0  0  0  0  0  0  0  0  0
    3.9688    2.5670    0.0000 C   0  0  0  0  0  0  0  0  0  0  0  0
    7.2621    4.1323    0.0000 C   0  0  0  0  0  0  0  0  0  0  0  0
    7.5531    5.5017    0.0000 C   0  0  0  0  0  0  0  0  0  0  0  0
    6.5127    6.4384    0.0000 C   0  0  0  0  0  0  0  0  0  0  0  0
    5.1813    6.0058    0.0000 C   0  0  0  0  0  0  0  0  0  0  0  0
    6.8028    7.8031    0.0000 F   0  0  0  0  0  0  0  0  0  0  0  0
    3.0353    1.5302    0.0000 C   0  0  0  0  0  0  0  0  0  0  0  0
    2.4032    4.5039    0.0000 C   0  0  0  0  0  0  0  0  0  0  0  0
    1.2745    3.6838    0.0000 C   0  0  0  0  0  0  0  0  0  0  0  0
    0.0000    4.2513    0.0000 O   0  0  0  0  0  0  0  0  0  0  0  0
    1.4204    2.2963    0.0000 O   0  0  0  0  0  0  0  0  0  0  0  0
    7.6379   -0.8937    0.0000 H   0  0  0  0  0  0  0  0  0  0  0  0
   10.0699   -0.8937    0.0000 H   0  0  0  0  0  0  0  0  0  0  0  0
   10.0699    3.3186    0.0000 H   0  0  0  0  0  0  0  0  0  0  0  0
    7.6379    3.3186    0.0000 H   0  0  0  0  0  0  0  0  0  0  0  0
   13.4166    2.4207    0.0000 H   0  0  0  0  0  0  0  0  0  0  0  0
   11.8116    3.3473    0.0000 H   0  0  0  0  0  0  0  0  0  0  0  0
   12.8816    3.3474    0.0000 H   0  0  0  0  0  0  0  0  0  0  0  0
    5.5427    0.3187    0.0000 H   0  0  0  0  0  0  0  0  0  0  0  0
    8.0291    3.4418    0.0000 H   0  0  0  0  0  0  0  0  0  0  0  0
    8.5346    5.8207    0.0000 H   0  0  0  0  0  0  0  0  0  0  0  0
    4.4144    6.6963    0.0000 H   0  0  0  0  0  0  0  0  0  0  0  0
    1.9887    1.7526    0.0000 H   0  0  0  0  0  0  0  0  0  0  0  0
    3.3660    0.5126    0.0000 H   0  0  0  0  0  0  0  0  0  0  0  0
    2.3193    0.7350    0.0000 H   0  0  0  0  0  0  0  0  0  0  0  0
    2.2914    5.5680    0.0000 H   0  0  0  0  0  0  0  0  0  0  0  0
    1.4257    4.9391    0.0000 H   0  0  0  0  0  0  0  0  0  0  0  0
    0.6624    1.7455    0.0000 H   0  0  0  0  0  0  0  0  0  0  0  0
  1  2  2  0  0  0  0
  1 26  1  0  0  0  0
  2  3  1  0  0  0  0
  2 27  1  0  0  0  0
  3  4  2  0  0  0  0
  3  7  1  0  0  0  0
  4  5  1  0  0  0  0
  4 28  1  0  0  0  0
  5  6  2  0  0  0  0
  5 29  1  0  0  0  0
  6  1  1  0  0  0  0
  6 10  1  0  0  0  0
  7  8  1  0  0  0  0
  7  9  2  0  0  0  0
  8 30  1  0  0  0  0
  8 31  1  0  0  0  0
  8 32  1  0  0  0  0
 10 11  2  0  0  0  0
 10 33  1  0  0  0  0
 11 12  1  0  0  0  0
 12 13  2  0  0  0  0
 12 16  1  0  0  0  0
 13 14  1  0  0  0  0
 14 15  2  0  0  0  0
 14 22  1  0  0  0  0
 15 11  1  0  0  0  0
 15 21  1  0  0  0  0
 16 17  2  0  0  0  0
 16 34  1  0  0  0  0
 17 18  1  0  0  0  0
 17 35  1  0  0  0  0
 18 19  2  0  0  0  0
 18 20  1  0  0  0  0
 19 13  1  0  0  0  0
 19 36  1  0  0  0  0
 21 37  1  0  0  0  0
 21 38  1  0  0  0  0
 21 39  1  0  0  0  0
 22 23  1  0  0  0  0
 22 40  1  0  0  0  0
 22 41  1  0  0  0  0
 23 24  2  0  0  0  0
 23 25  1  0  0  0  0
 25 42  1  0  0  0  0
M  END
>  <Mol_ID>
478

>  <Formula>
C20H17FO3S

>  <MolWeight>
356.4105832

>  <Cat>
S2007

>  <Name>
Sulindac

>  <Synonyms>
MK-231

>  <Target>
COX

>  <Form>
free base

>  <CAS>
38194-50-2

>  <URL>
http://selleckchem.com/products/Sulindac(Clinoril).html

$$$$
