SULLA (sulfameter).cdx
 OpenBabel08302520383D

 31 32  0  0  0  0  0  0  0  0999 V2000
    0.9333    0.0408   -0.0122 C   0  0  0  0  0  0  0  0  0  0  0  0
    0.1930    0.9959   -0.7159 C   0  0  0  0  0  0  0  0  0  0  0  0
   -1.2044    0.9743   -0.6988 C   0  0  0  0  0  0  0  0  0  0  0  0
   -1.8647   -0.0448   -0.0110 C   0  0  0  0  0  0  0  0  0  0  0  0
   -1.1399   -1.0207    0.6747 C   0  0  0  0  0  0  0  0  0  0  0  0
    0.2557   -0.9928    0.6401 C   0  0  0  0  0  0  0  0  0  0  0  0
    2.3249   -0.0142   -0.1530 N   0  0  0  0  0  0  0  0  0  0  0  0
   -3.6383   -0.0707    0.0436 S   0  0  0  0  0  0  0  0  0  0  0  0
   -4.0539   -0.9801   -1.2967 N   0  0  0  0  0  0  0  0  0  0  0  0
   -4.0499   -0.7298    1.2646 O   0  0  0  0  0  0  0  0  0  0  0  0
   -4.0900    1.2767   -0.2441 O   0  0  0  0  0  0  0  0  0  0  0  0
   -4.1482   -2.3434   -1.0442 C   0  0  0  0  0  0  0  0  0  0  0  0
   -5.3933   -2.7937   -0.8823 N   0  0  0  0  0  0  0  0  0  0  0  0
   -5.4917   -4.1018   -0.5583 C   0  0  0  0  0  0  0  0  0  0  0  0
   -4.4118   -4.9519   -0.4406 C   0  0  0  0  0  0  0  0  0  0  0  0
   -3.1853   -4.3534   -0.6546 C   0  0  0  0  0  0  0  0  0  0  0  0
   -3.0187   -3.0448   -0.9451 N   0  0  0  0  0  0  0  0  0  0  0  0
   -4.4205   -6.2797   -0.1493 O   0  0  0  0  0  0  0  0  0  0  0  0
   -5.6984   -6.8706    0.0633 C   0  0  0  0  0  0  0  0  0  0  0  0
    0.7000    1.7706   -1.2862 H   0  0  0  0  0  0  0  0  0  0  0  0
   -1.7626    1.7411   -1.2311 H   0  0  0  0  0  0  0  0  0  0  0  0
   -1.6500   -1.8190    1.2090 H   0  0  0  0  0  0  0  0  0  0  0  0
    0.8091   -1.7894    1.1299 H   0  0  0  0  0  0  0  0  0  0  0  0
    2.7927   -0.5134    0.5971 H   0  0  0  0  0  0  0  0  0  0  0  0
    2.7531    0.8866   -0.3416 H   0  0  0  0  0  0  0  0  0  0  0  0
   -4.9021   -0.6126   -1.7135 H   0  0  0  0  0  0  0  0  0  0  0  0
   -6.5120   -4.4312   -0.3926 H   0  0  0  0  0  0  0  0  0  0  0  0
   -2.2671   -4.9318   -0.5918 H   0  0  0  0  0  0  0  0  0  0  0  0
   -6.1621   -6.4741    0.9726 H   0  0  0  0  0  0  0  0  0  0  0  0
   -6.3521   -6.7318   -0.8043 H   0  0  0  0  0  0  0  0  0  0  0  0
   -5.5527   -7.9464    0.1989 H   0  0  0  0  0  0  0  0  0  0  0  0
  1  2  2  0  0  0  0
  1  7  1  0  0  0  0
  2  3  1  0  0  0  0
  2 20  1  0  0  0  0
  3  4  2  0  0  0  0
  3 21  1  0  0  0  0
  4  5  1  0  0  0  0
  4  8  1  0  0  0  0
  5  6  2  0  0  0  0
  5 22  1  0  0  0  0
  6  1  1  0  0  0  0
  6 23  1  0  0  0  0
  7 24  1  0  0  0  0
  7 25  1  0  0  0  0
  8  9  1  0  0  0  0
  8 10  2  0  0  0  0
  8 11  2  0  0  0  0
  9 12  1  0  0  0  0
  9 26  1  0  0  0  0
 12 13  2  0  0  0  0
 13 14  1  0  0  0  0
 14 15  2  0  0  0  0
 14 27  1  0  0  0  0
 15 16  1  0  0  0  0
 15 18  1  0  0  0  0
 16 17  2  0  0  0  0
 16 28  1  0  0  0  0
 17 12  1  0  0  0  0
 18 19  1  0  0  0  0
 19 29  1  0  0  0  0
 19 30  1  0  0  0  0
 19 31  1  0  0  0  0
M  END
>  <Mol_ID>
352

>  <Formula>
C11H12N4O3S

>  <MolWeight>
280.30298

>  <Cat>
S1618

>  <Name>
Sulfameter

>  <Synonyms>
N/A

>  <Target>
Bacterial

>  <Form>
free base

>  <CAS>
651-06-9

>  <URL>
http://selleckchem.com/products/Sulfameter(Bayrena).html

$$$$
