Sulphadimethoxine.cdx
 OpenBabel08302521443D

 35 36  0  0  0  0  0  0  0  0999 V2000
    0.9749   -0.0700    0.1437 N   0  0  0  0  0  0  0  0  0  0  0  0
    0.2791   -1.2979    0.0868 C   0  0  0  0  0  0  0  0  0  0  0  0
    0.0620    1.3480    0.1147 S   0  0  0  0  0  0  0  0  0  0  0  0
   -0.2866    1.6513    1.8337 C   0  0  0  0  0  0  0  0  0  0  0  0
    0.9681    2.3909   -0.3199 O   0  0  0  0  0  0  0  0  0  0  0  0
   -1.2016    1.1303   -0.5594 O   0  0  0  0  0  0  0  0  0  0  0  0
    0.5944    2.4203    2.5981 C   0  0  0  0  0  0  0  0  0  0  0  0
    0.2715    2.7242    3.9251 C   0  0  0  0  0  0  0  0  0  0  0  0
   -0.9454    2.3145    4.4796 C   0  0  0  0  0  0  0  0  0  0  0  0
   -1.7962    1.5095    3.7150 C   0  0  0  0  0  0  0  0  0  0  0  0
   -1.4888    1.2022    2.3855 C   0  0  0  0  0  0  0  0  0  0  0  0
    0.0404   -1.7371   -1.1541 N   0  0  0  0  0  0  0  0  0  0  0  0
   -0.5757   -2.9231   -1.2314 C   0  0  0  0  0  0  0  0  0  0  0  0
   -0.9091   -3.6904   -0.1886 N   0  0  0  0  0  0  0  0  0  0  0  0
   -0.6171   -3.2040    1.0247 C   0  0  0  0  0  0  0  0  0  0  0  0
   -0.0270   -1.9844    1.2339 C   0  0  0  0  0  0  0  0  0  0  0  0
   -1.2017    2.5169    5.8403 N   0  0  0  0  0  0  0  0  0  0  0  0
   -0.8923   -3.9739    2.1373 O   0  0  0  0  0  0  0  0  0  0  0  0
   -1.4985   -5.2241    1.8061 C   0  0  0  0  0  0  0  0  0  0  0  0
   -0.8512   -3.3729   -2.5069 O   0  0  0  0  0  0  0  0  0  0  0  0
   -1.5123   -4.6359   -2.5134 C   0  0  0  0  0  0  0  0  0  0  0  0
    1.6953    0.0012   -0.5744 H   0  0  0  0  0  0  0  0  0  0  0  0
    1.5245    2.7911    2.1750 H   0  0  0  0  0  0  0  0  0  0  0  0
    0.9753    3.3006    4.5211 H   0  0  0  0  0  0  0  0  0  0  0  0
   -2.7188    1.1283    4.1461 H   0  0  0  0  0  0  0  0  0  0  0  0
   -2.1924    0.6216    1.7931 H   0  0  0  0  0  0  0  0  0  0  0  0
    0.2240   -1.6262    2.2208 H   0  0  0  0  0  0  0  0  0  0  0  0
   -2.1875    2.4878    6.0831 H   0  0  0  0  0  0  0  0  0  0  0  0
   -0.7399    3.3345    6.2283 H   0  0  0  0  0  0  0  0  0  0  0  0
   -2.4747   -5.0719    1.3316 H   0  0  0  0  0  0  0  0  0  0  0  0
   -0.8456   -5.8304    1.1663 H   0  0  0  0  0  0  0  0  0  0  0  0
   -1.6607   -5.7811    2.7335 H   0  0  0  0  0  0  0  0  0  0  0  0
   -0.8592   -5.4262   -2.1239 H   0  0  0  0  0  0  0  0  0  0  0  0
   -2.4563   -4.6045   -1.9556 H   0  0  0  0  0  0  0  0  0  0  0  0
   -1.7544   -4.8878   -3.5502 H   0  0  0  0  0  0  0  0  0  0  0  0
  1  2  1  0  0  0  0
  1  3  1  0  0  0  0
  1 22  1  0  0  0  0
  2 12  2  0  0  0  0
  3  4  1  0  0  0  0
  3  5  2  0  0  0  0
  3  6  2  0  0  0  0
  4  7  2  0  0  0  0
  7  8  1  0  0  0  0
  7 23  1  0  0  0  0
  8  9  2  0  0  0  0
  8 24  1  0  0  0  0
  9 10  1  0  0  0  0
  9 17  1  0  0  0  0
 10 11  2  0  0  0  0
 10 25  1  0  0  0  0
 11  4  1  0  0  0  0
 11 26  1  0  0  0  0
 12 13  1  0  0  0  0
 13 14  2  0  0  0  0
 13 20  1  0  0  0  0
 14 15  1  0  0  0  0
 15 16  2  0  0  0  0
 15 18  1  0  0  0  0
 16  2  1  0  0  0  0
 16 27  1  0  0  0  0
 17 28  1  0  0  0  0
 17 29  1  0  0  0  0
 18 19  1  0  0  0  0
 19 30  1  0  0  0  0
 19 31  1  0  0  0  0
 19 32  1  0  0  0  0
 20 21  1  0  0  0  0
 21 33  1  0  0  0  0
 21 34  1  0  0  0  0
 21 35  1  0  0  0  0
M  END
>  <Mol_ID>
926

>  <Formula>
C12H14N4O4S

>  <MolWeight>
310.32896

>  <Cat>
S1962

>  <Name>
Sulphadimethoxine

>  <Synonyms>
N/A

>  <Target>
Anti-infection

>  <Form>
free base

>  <CAS>
122-11-2

>  <URL>
http://selleckchem.com/products/sulphadimethoxine.html

$$$$
