Sumatriptan Succinate
 OpenBabel08302519583D

 55 55  0  0  0  0  0  0  0  0999 V2000
    2.3015   -0.8783   -0.6228 C   0  0  0  0  0  0  0  0  0  0  0  0
    2.3029    0.5220   -0.6375 C   0  0  0  0  0  0  0  0  0  0  0  0
    1.1193    1.2524   -0.7768 C   0  0  0  0  0  0  0  0  0  0  0  0
   -0.0817    0.5405   -0.8779 C   0  0  0  0  0  0  0  0  0  0  0  0
   -0.1434   -0.8515   -0.8372 C   0  0  0  0  0  0  0  0  0  0  0  0
    1.0730   -1.5654   -0.7322 C   0  0  0  0  0  0  0  0  0  0  0  0
   -1.3714    1.0057   -0.9673 N   0  0  0  0  0  0  0  0  0  0  0  0
   -2.2527   -0.0411   -0.9570 C   0  0  0  0  0  0  0  0  0  0  0  0
   -1.5366   -1.2137   -0.8054 C   0  0  0  0  0  0  0  0  0  0  0  0
   -2.1225   -2.5654   -0.5047 C   0  0  0  0  0  0  0  0  0  0  0  0
   -2.9779   -3.1764   -1.6281 C   0  0  0  0  0  0  0  0  0  0  0  0
   -3.6204   -4.4586   -1.2514 N   0  0  0  0  0  0  0  0  0  0  0  0
   -4.5338   -4.8921   -2.3165 C   0  0  0  0  0  0  0  0  0  0  0  0
   -2.6573   -5.5319   -0.9932 C   0  0  0  0  0  0  0  0  0  0  0  0
    3.5957   -1.6144   -0.3693 C   0  0  0  0  0  0  0  0  0  0  0  0
    4.0293   -2.6686   -1.7533 S   0  0  0  0  0  0  0  0  0  0  0  0
    5.5381   -3.2738   -1.2648 N   0  0  0  0  0  0  0  0  0  0  0  0
    3.1375   -3.8062   -1.8153 O   0  0  0  0  0  0  0  0  0  0  0  0
    4.3112   -1.8635   -2.9213 O   0  0  0  0  0  0  0  0  0  0  0  0
    5.5691   -4.1703   -0.1015 C   0  0  0  0  0  0  0  0  0  0  0  0
    1.0629    0.7891    2.4567 O   0  0  0  0  0  0  0  0  0  0  0  0
    0.0022   -0.0426    2.5063 C   0  0  0  0  0  0  0  0  0  0  0  0
    0.3713   -1.4925    2.5967 C   0  0  0  0  0  0  0  0  0  0  0  0
    0.2988   -1.8945    4.0522 C   0  0  0  0  0  0  0  0  0  0  0  0
    0.6642   -3.3408    4.1891 C   0  0  0  0  0  0  0  0  0  0  0  0
   -0.3911   -4.1763    4.1058 O   0  0  0  0  0  0  0  0  0  0  0  0
    1.8166   -3.7316    4.3019 O   0  0  0  0  0  0  0  0  0  0  0  0
   -1.1503    0.3647    2.5897 O   0  0  0  0  0  0  0  0  0  0  0  0
    3.2338    1.0753   -0.5192 H   0  0  0  0  0  0  0  0  0  0  0  0
    1.1315    2.3389   -0.7510 H   0  0  0  0  0  0  0  0  0  0  0  0
    1.0404   -2.6532   -0.6932 H   0  0  0  0  0  0  0  0  0  0  0  0
   -1.6292    1.9831   -0.9586 H   0  0  0  0  0  0  0  0  0  0  0  0
   -3.3188    0.1462   -0.9760 H   0  0  0  0  0  0  0  0  0  0  0  0
   -1.3045   -3.2396   -0.2371 H   0  0  0  0  0  0  0  0  0  0  0  0
   -2.7421   -2.4614    0.3976 H   0  0  0  0  0  0  0  0  0  0  0  0
   -3.7770   -2.4590   -1.8616 H   0  0  0  0  0  0  0  0  0  0  0  0
   -2.3794   -3.2915   -2.5396 H   0  0  0  0  0  0  0  0  0  0  0  0
   -4.0071   -5.0610   -3.2635 H   0  0  0  0  0  0  0  0  0  0  0  0
   -5.0395   -5.8241   -2.0375 H   0  0  0  0  0  0  0  0  0  0  0  0
   -5.3191   -4.1478   -2.4863 H   0  0  0  0  0  0  0  0  0  0  0  0
   -2.1350   -5.8491   -1.9025 H   0  0  0  0  0  0  0  0  0  0  0  0
   -1.9097   -5.2515   -0.2468 H   0  0  0  0  0  0  0  0  0  0  0  0
   -3.1774   -6.4016   -0.5740 H   0  0  0  0  0  0  0  0  0  0  0  0
    4.4270   -0.9167   -0.2277 H   0  0  0  0  0  0  0  0  0  0  0  0
    3.4935   -2.2357    0.5256 H   0  0  0  0  0  0  0  0  0  0  0  0
    6.0208   -3.6403   -2.0882 H   0  0  0  0  0  0  0  0  0  0  0  0
    4.7809   -4.9240   -0.1464 H   0  0  0  0  0  0  0  0  0  0  0  0
    6.5299   -4.6911   -0.0819 H   0  0  0  0  0  0  0  0  0  0  0  0
    5.4781   -3.5894    0.8206 H   0  0  0  0  0  0  0  0  0  0  0  0
    1.9161    0.3324    2.3229 H   0  0  0  0  0  0  0  0  0  0  0  0
   -0.3243   -2.0807    1.9857 H   0  0  0  0  0  0  0  0  0  0  0  0
    1.3699   -1.6769    2.1819 H   0  0  0  0  0  0  0  0  0  0  0  0
    0.9969   -1.3033    4.6542 H   0  0  0  0  0  0  0  0  0  0  0  0
   -0.6959   -1.7125    4.4745 H   0  0  0  0  0  0  0  0  0  0  0  0
   -1.2536   -3.7334    3.9996 H   0  0  0  0  0  0  0  0  0  0  0  0
  1  2  2  0  0  0  0
  1 15  1  0  0  0  0
  2  3  1  0  0  0  0
  2 29  1  0  0  0  0
  3  4  2  0  0  0  0
  3 30  1  0  0  0  0
  4  5  1  0  0  0  0
  4  7  1  0  0  0  0
  5  6  2  0  0  0  0
  6  1  1  0  0  0  0
  6 31  1  0  0  0  0
  7  8  1  0  0  0  0
  7 32  1  0  0  0  0
  8  9  2  0  0  0  0
  8 33  1  0  0  0  0
  9  5  1  0  0  0  0
  9 10  1  0  0  0  0
 10 11  1  0  0  0  0
 10 34  1  0  0  0  0
 10 35  1  0  0  0  0
 11 12  1  0  0  0  0
 11 36  1  0  0  0  0
 11 37  1  0  0  0  0
 12 13  1  0  0  0  0
 12 14  1  0  0  0  0
 13 38  1  0  0  0  0
 13 39  1  0  0  0  0
 13 40  1  0  0  0  0
 14 41  1  0  0  0  0
 14 42  1  0  0  0  0
 14 43  1  0  0  0  0
 15 16  1  0  0  0  0
 15 44  1  0  0  0  0
 15 45  1  0  0  0  0
 16 17  1  0  0  0  0
 16 18  2  0  0  0  0
 16 19  2  0  0  0  0
 17 20  1  0  0  0  0
 17 46  1  0  0  0  0
 20 47  1  0  0  0  0
 20 48  1  0  0  0  0
 20 49  1  0  0  0  0
 21 22  1  0  0  0  0
 21 50  1  0  0  0  0
 22 23  1  0  0  0  0
 22 28  2  0  0  0  0
 23 24  1  0  0  0  0
 23 51  1  0  0  0  0
 23 52  1  0  0  0  0
 24 25  1  0  0  0  0
 24 53  1  0  0  0  0
 24 54  1  0  0  0  0
 25 26  1  0  0  0  0
 25 27  2  0  0  0  0
 26 55  1  0  0  0  0
M  END
>  <Mol_ID>
255

>  <Formula>
C18H27N3O6S

>  <MolWeight>
413.48848

>  <Cat>
S1432

>  <Name>
Sumatriptan Succinate

>  <Synonyms>
GR 43175

>  <Target>
5-HT Receptor

>  <Form>
Succinate

>  <CAS>
103628-48-4

>  <URL>
http://selleckchem.com/products/Sumatriptan-succinate.html

$$$$
