SUN11602.cdx
 OpenBabel08302520413D

 70 72  0  0  0  0  0  0  0  0999 V2000
   -0.6935   -3.1451   -4.1980 C   0  0  0  0  0  0  0  0  0  0  0  0
   -0.4873   -4.3570   -3.5016 C   0  0  0  0  0  0  0  0  0  0  0  0
    0.2577   -4.3595   -2.2832 C   0  0  0  0  0  0  0  0  0  0  0  0
    0.8433   -3.1616   -1.7595 C   0  0  0  0  0  0  0  0  0  0  0  0
    0.6949   -1.9703   -2.5103 C   0  0  0  0  0  0  0  0  0  0  0  0
   -0.0665   -1.9684   -3.7276 C   0  0  0  0  0  0  0  0  0  0  0  0
   -1.3233   -3.1538   -5.4611 N   0  0  0  0  0  0  0  0  0  0  0  0
   -0.2136   -0.6492   -4.4713 C   0  0  0  0  0  0  0  0  0  0  0  0
    1.2221   -0.6223   -2.0699 C   0  0  0  0  0  0  0  0  0  0  0  0
   -1.0511   -5.6650   -4.0190 C   0  0  0  0  0  0  0  0  0  0  0  0
    0.4822   -5.6620   -1.5321 C   0  0  0  0  0  0  0  0  0  0  0  0
    1.5505   -3.2773   -0.5683 N   0  0  0  0  0  0  0  0  0  0  0  0
    2.8033   -2.6298   -0.2026 C   0  0  0  0  0  0  0  0  0  0  0  0
    3.3750   -3.2103    1.1040 C   0  0  0  0  0  0  0  0  0  0  0  0
    4.1401   -4.3776    1.0538 N   0  0  0  0  0  0  0  0  0  0  0  0
    3.0931   -2.6212    2.1512 O   0  0  0  0  0  0  0  0  0  0  0  0
    4.7295   -5.0231    2.2670 C   0  0  0  0  0  0  0  0  0  0  0  0
    4.6448   -4.8346   -0.2386 C   0  0  0  0  0  0  0  0  0  0  0  0
    4.4861   -6.5414    2.2978 C   0  0  0  0  0  0  0  0  0  0  0  0
    3.0236   -6.8638    2.5994 C   0  0  0  0  0  0  0  0  0  0  0  0
    2.5433   -6.2880    3.8650 N   0  0  0  0  0  0  0  0  0  0  0  0
    2.8728   -4.8612    4.0116 C   0  0  0  0  0  0  0  0  0  0  0  0
    4.3184   -4.5068    3.6548 C   0  0  0  0  0  0  0  0  0  0  0  0
    1.0717   -6.4365    3.9730 C   0  0  0  0  0  0  0  0  0  0  0  0
    0.6258   -7.8681    4.1585 C   0  0  0  0  0  0  0  0  0  0  0  0
    1.1010   -8.6073    5.2509 C   0  0  0  0  0  0  0  0  0  0  0  0
    0.7405   -9.9416    5.4127 C   0  0  0  0  0  0  0  0  0  0  0  0
   -0.1180  -10.5565    4.4952 C   0  0  0  0  0  0  0  0  0  0  0  0
   -0.6188   -9.8204    3.4143 C   0  0  0  0  0  0  0  0  0  0  0  0
   -0.2477   -8.4807    3.2507 C   0  0  0  0  0  0  0  0  0  0  0  0
   -0.4305  -11.9988    4.6891 C   0  0  0  0  0  0  0  0  0  0  0  0
   -1.6031  -12.4637    4.1713 N   0  0  0  0  0  0  0  0  0  0  0  0
    0.3140  -12.7369    5.3158 O   0  0  0  0  0  0  0  0  0  0  0  0
   -1.7160   -2.2658   -5.7428 H   0  0  0  0  0  0  0  0  0  0  0  0
   -2.0251   -3.8737   -5.5730 H   0  0  0  0  0  0  0  0  0  0  0  0
   -0.7034    0.0898   -3.8275 H   0  0  0  0  0  0  0  0  0  0  0  0
    0.7698   -0.2783   -4.7771 H   0  0  0  0  0  0  0  0  0  0  0  0
   -0.8147   -0.6924   -5.3780 H   0  0  0  0  0  0  0  0  0  0  0  0
    1.9061   -0.2178   -2.8237 H   0  0  0  0  0  0  0  0  0  0  0  0
    0.3902    0.0722   -1.9111 H   0  0  0  0  0  0  0  0  0  0  0  0
    1.7621   -0.6036   -1.1402 H   0  0  0  0  0  0  0  0  0  0  0  0
   -0.2400   -6.3774   -4.2036 H   0  0  0  0  0  0  0  0  0  0  0  0
   -1.7556   -6.0801   -3.2897 H   0  0  0  0  0  0  0  0  0  0  0  0
   -1.5979   -5.5894   -4.9595 H   0  0  0  0  0  0  0  0  0  0  0  0
    1.5537   -5.8764   -1.4693 H   0  0  0  0  0  0  0  0  0  0  0  0
    0.0584   -5.5964   -0.5251 H   0  0  0  0  0  0  0  0  0  0  0  0
    0.0222   -6.5359   -1.9977 H   0  0  0  0  0  0  0  0  0  0  0  0
    1.1321   -3.8574    0.1517 H   0  0  0  0  0  0  0  0  0  0  0  0
    3.5255   -2.6540   -1.0200 H   0  0  0  0  0  0  0  0  0  0  0  0
    2.6464   -1.5873    0.0701 H   0  0  0  0  0  0  0  0  0  0  0  0
    5.8100   -4.8495    2.1700 H   0  0  0  0  0  0  0  0  0  0  0  0
    3.8091   -5.1981   -0.8405 H   0  0  0  0  0  0  0  0  0  0  0  0
    5.1369   -4.0045   -0.7541 H   0  0  0  0  0  0  0  0  0  0  0  0
    5.3853   -5.6294   -0.1256 H   0  0  0  0  0  0  0  0  0  0  0  0
    4.7723   -7.0238    1.3584 H   0  0  0  0  0  0  0  0  0  0  0  0
    5.1235   -6.9920    3.0715 H   0  0  0  0  0  0  0  0  0  0  0  0
    2.4065   -6.5336    1.7545 H   0  0  0  0  0  0  0  0  0  0  0  0
    2.9410   -7.9565    2.6519 H   0  0  0  0  0  0  0  0  0  0  0  0
    2.7120   -4.5741    5.0589 H   0  0  0  0  0  0  0  0  0  0  0  0
    2.1716   -4.2658    3.4218 H   0  0  0  0  0  0  0  0  0  0  0  0
    4.9785   -4.9664    4.4043 H   0  0  0  0  0  0  0  0  0  0  0  0
    4.4961   -3.4311    3.7559 H   0  0  0  0  0  0  0  0  0  0  0  0
    0.6965   -5.8744    4.8389 H   0  0  0  0  0  0  0  0  0  0  0  0
    0.5799   -5.9987    3.0916 H   0  0  0  0  0  0  0  0  0  0  0  0
    1.7755   -8.1388    5.9672 H   0  0  0  0  0  0  0  0  0  0  0  0
    1.1369  -10.5044    6.2537 H   0  0  0  0  0  0  0  0  0  0  0  0
   -1.2656  -10.2816    2.6745 H   0  0  0  0  0  0  0  0  0  0  0  0
   -0.6310   -7.9255    2.3963 H   0  0  0  0  0  0  0  0  0  0  0  0
   -1.8393  -13.4179    4.4113 H   0  0  0  0  0  0  0  0  0  0  0  0
   -2.3533  -11.8493    3.8915 H   0  0  0  0  0  0  0  0  0  0  0  0
  1  2  2  0  0  0  0
  1  7  1  0  0  0  0
  2  3  1  0  0  0  0
  2 10  1  0  0  0  0
  3  4  2  0  0  0  0
  3 11  1  0  0  0  0
  4  5  1  0  0  0  0
  4 12  1  0  0  0  0
  5  6  2  0  0  0  0
  5  9  1  0  0  0  0
  6  1  1  0  0  0  0
  6  8  1  0  0  0  0
  7 34  1  0  0  0  0
  7 35  1  0  0  0  0
  8 36  1  0  0  0  0
  8 37  1  0  0  0  0
  8 38  1  0  0  0  0
  9 39  1  0  0  0  0
  9 40  1  0  0  0  0
  9 41  1  0  0  0  0
 10 42  1  0  0  0  0
 10 43  1  0  0  0  0
 10 44  1  0  0  0  0
 11 45  1  0  0  0  0
 11 46  1  0  0  0  0
 11 47  1  0  0  0  0
 12 13  1  0  0  0  0
 12 48  1  0  0  0  0
 13 14  1  0  0  0  0
 13 49  1  0  0  0  0
 13 50  1  0  0  0  0
 14 15  1  0  0  0  0
 14 16  2  0  0  0  0
 15 17  1  0  0  0  0
 15 18  1  0  0  0  0
 17 19  1  0  0  0  0
 17 51  1  0  0  0  0
 18 52  1  0  0  0  0
 18 53  1  0  0  0  0
 18 54  1  0  0  0  0
 19 20  1  0  0  0  0
 19 55  1  0  0  0  0
 19 56  1  0  0  0  0
 20 21  1  0  0  0  0
 20 57  1  0  0  0  0
 20 58  1  0  0  0  0
 21 22  1  0  0  0  0
 21 24  1  0  0  0  0
 22 23  1  0  0  0  0
 22 59  1  0  0  0  0
 22 60  1  0  0  0  0
 23 17  1  0  0  0  0
 23 61  1  0  0  0  0
 23 62  1  0  0  0  0
 24 25  1  0  0  0  0
 24 63  1  0  0  0  0
 24 64  1  0  0  0  0
 25 26  2  0  0  0  0
 26 27  1  0  0  0  0
 26 65  1  0  0  0  0
 27 28  2  0  0  0  0
 27 66  1  0  0  0  0
 28 29  1  0  0  0  0
 28 31  1  0  0  0  0
 29 30  2  0  0  0  0
 29 67  1  0  0  0  0
 30 25  1  0  0  0  0
 30 68  1  0  0  0  0
 31 32  1  0  0  0  0
 31 33  2  0  0  0  0
 32 69  1  0  0  0  0
 32 70  1  0  0  0  0
M  END
>  <Mol_ID>
3982

>  <Formula>
C26H37N5O2

>  <MolWeight>
451.60428

>  <Cat>
S8192

>  <Name>
SUN11602

>  <Synonyms>
N/A

>  <Target>
FGFR

>  <Form>
free base

>  <CAS>
704869-38-5

>  <URL>
http://selleckchem.com/products/sun11602.html

$$$$
