SW-044248
 OpenBabel08302521233D

 53 56  0  0  0  0  0  0  0  0999 V2000
    1.0204    0.6934    0.3634 S   0  0  0  0  0  0  0  0  0  0  0  0
    2.1077   -2.9535    1.0651 O   0  0  0  0  0  0  0  0  0  0  0  0
    0.0727   -1.5153    5.2630 O   0  0  0  0  0  0  0  0  0  0  0  0
    4.9928    3.7387   -0.6684 N   0  0  0  0  0  0  0  0  0  0  0  0
    3.2348    2.1915    0.1327 N   0  0  0  0  0  0  0  0  0  0  0  0
    3.9596    0.7609   -2.2070 N   0  0  0  0  0  0  0  0  0  0  0  0
    3.0256    0.3158   -1.3755 N   0  0  0  0  0  0  0  0  0  0  0  0
    1.3920   -1.4019    2.6282 N   0  0  0  0  0  0  0  0  0  0  0  0
    5.7435    3.8567   -1.8374 C   0  0  0  0  0  0  0  0  0  0  0  0
    5.4223    2.7599   -2.6436 C   0  0  0  0  0  0  0  0  0  0  0  0
    4.1885    2.6134   -0.7344 C   0  0  0  0  0  0  0  0  0  0  0  0
    4.5190    1.9582   -1.9075 C   0  0  0  0  0  0  0  0  0  0  0  0
    5.1538    4.6077    0.4863 C   0  0  0  0  0  0  0  0  0  0  0  0
    6.6809    4.8194   -2.2575 C   0  0  0  0  0  0  0  0  0  0  0  0
    5.9980    2.6526   -3.9271 C   0  0  0  0  0  0  0  0  0  0  0  0
    0.7180   -1.1351    0.2923 C   0  0  3  0  0  0  0  0  0  0  0  0
    4.5029    5.9791    0.3504 C   0  0  0  0  0  0  0  0  0  0  0  0
    0.4451   -1.9126   -1.0162 C   0  0  0  0  0  0  0  0  0  0  0  0
    7.2535    4.6801   -3.5290 C   0  0  0  0  0  0  0  0  0  0  0  0
    2.6518    1.0316   -0.2955 C   0  0  0  0  0  0  0  0  0  0  0  0
    6.9040    3.6225   -4.3612 C   0  0  0  0  0  0  0  0  0  0  0  0
    1.5323   -1.9119    1.3395 C   0  0  0  0  0  0  0  0  0  0  0  0
    1.5520   -2.1352   -2.0301 C   0  0  0  0  0  0  0  0  0  0  0  0
    1.9901   -1.9777    3.7738 C   0  0  0  0  0  0  0  0  0  0  0  0
    1.3393   -1.9784    5.0193 C   0  0  0  0  0  0  0  0  0  0  0  0
    3.2992   -2.4616    3.6903 C   0  0  0  0  0  0  0  0  0  0  0  0
    2.0156   -2.4590    6.1497 C   0  0  0  0  0  0  0  0  0  0  0  0
    3.9692   -2.9214    4.8191 C   0  0  0  0  0  0  0  0  0  0  0  0
    3.3234   -2.9304    6.0531 C   0  0  0  0  0  0  0  0  0  0  0  0
   -0.9387   -2.0066    4.3864 C   0  0  0  0  0  0  0  0  0  0  0  0
    0.6880   -0.6972    2.7981 H   0  0  0  0  0  0  0  0  0  0  0  0
    4.7697    4.0910    1.3678 H   0  0  0  0  0  0  0  0  0  0  0  0
    6.2350    4.7351    0.6349 H   0  0  0  0  0  0  0  0  0  0  0  0
    6.9620    5.6592   -1.6292 H   0  0  0  0  0  0  0  0  0  0  0  0
    5.7272    1.8241   -4.5765 H   0  0  0  0  0  0  0  0  0  0  0  0
   -0.2889   -1.1547    0.7418 H   0  0  0  0  0  0  0  0  0  0  0  0
    3.4118    5.8990    0.3401 H   0  0  0  0  0  0  0  0  0  0  0  0
    4.7872    6.6125    1.1987 H   0  0  0  0  0  0  0  0  0  0  0  0
    4.8107    6.4971   -0.5636 H   0  0  0  0  0  0  0  0  0  0  0  0
    0.1030   -2.9182   -0.7248 H   0  0  0  0  0  0  0  0  0  0  0  0
   -0.4099   -1.4612   -1.5340 H   0  0  0  0  0  0  0  0  0  0  0  0
    7.9800    5.4130   -3.8744 H   0  0  0  0  0  0  0  0  0  0  0  0
    7.3417    3.5422   -5.3536 H   0  0  0  0  0  0  0  0  0  0  0  0
    2.4894   -2.4550   -1.5677 H   0  0  0  0  0  0  0  0  0  0  0  0
    1.2507   -2.9238   -2.7326 H   0  0  0  0  0  0  0  0  0  0  0  0
    1.7168   -1.2444   -2.6382 H   0  0  0  0  0  0  0  0  0  0  0  0
    3.8353   -2.4462    2.7453 H   0  0  0  0  0  0  0  0  0  0  0  0
    1.5135   -2.4813    7.1127 H   0  0  0  0  0  0  0  0  0  0  0  0
    4.9996   -3.2605    4.7371 H   0  0  0  0  0  0  0  0  0  0  0  0
    3.8475   -3.2895    6.9368 H   0  0  0  0  0  0  0  0  0  0  0  0
   -1.1486   -1.2557    3.6190 H   0  0  0  0  0  0  0  0  0  0  0  0
   -0.6965   -2.9711    3.9283 H   0  0  0  0  0  0  0  0  0  0  0  0
   -1.8602   -2.1320    4.9671 H   0  0  0  0  0  0  0  0  0  0  0  0
  1 16  1  0  0  0  0
  1 20  1  0  0  0  0
  2 22  2  0  0  0  0
  3 25  1  0  0  0  0
  3 30  1  0  0  0  0
  4  9  1  0  0  0  0
  4 11  1  0  0  0  0
  4 13  1  0  0  0  0
  5 11  2  0  0  0  0
  5 20  1  0  0  0  0
  6  7  1  0  0  0  0
  6 12  2  0  0  0  0
  7 20  2  0  0  0  0
  8 22  1  0  0  0  0
  8 24  1  0  0  0  0
  8 31  1  0  0  0  0
  9 10  2  0  0  0  0
  9 14  1  0  0  0  0
 10 12  1  0  0  0  0
 10 15  1  0  0  0  0
 11 12  1  0  0  0  0
 13 17  1  0  0  0  0
 13 32  1  0  0  0  0
 13 33  1  0  0  0  0
 14 19  2  0  0  0  0
 14 34  1  0  0  0  0
 15 21  2  0  0  0  0
 15 35  1  0  0  0  0
 16 18  1  0  0  0  0
 16 22  1  0  0  0  0
 16 36  1  0  0  0  0
 17 37  1  0  0  0  0
 17 38  1  0  0  0  0
 17 39  1  0  0  0  0
 18 23  1  0  0  0  0
 18 40  1  0  0  0  0
 18 41  1  0  0  0  0
 19 21  1  0  0  0  0
 19 42  1  0  0  0  0
 21 43  1  0  0  0  0
 23 44  1  0  0  0  0
 23 45  1  0  0  0  0
 23 46  1  0  0  0  0
 24 25  2  0  0  0  0
 24 26  1  0  0  0  0
 25 27  1  0  0  0  0
 26 28  2  0  0  0  0
 26 47  1  0  0  0  0
 27 29  2  0  0  0  0
 27 48  1  0  0  0  0
 28 29  1  0  0  0  0
 28 49  1  0  0  0  0
 29 50  1  0  0  0  0
 30 51  1  0  0  0  0
 30 52  1  0  0  0  0
 30 53  1  0  0  0  0
M  END
>  <Mol_ID>
4791

>  <Formula>
C22H23N5O2S

>  <MolWeight>
421.51532

>  <Cat>
S6747

>  <Name>
SW-044248

>  <Synonyms>
N/A

>  <Target>
Topoisomerase

>  <Form>
Free Base

>  <CAS>
522650-83-5

>  <URL>
http://www.selleck.cn/products/sw-044248.html

$$$$
