SW-106065
 OpenBabel08302521333D

 22 23  0  0  0  0  0  0  0  0999 V2000
   -1.4914    3.1250    0.0902 C   0  0  0  0  0  0  0  0  0  0  0  0
   -2.6661    2.3982    0.0062 C   0  0  0  0  0  0  0  0  0  0  0  0
   -3.8289    3.2156    0.0658 C   0  0  0  0  0  0  0  0  0  0  0  0
   -3.5089    4.5458    0.2169 C   0  0  0  0  0  0  0  0  0  0  0  0
   -1.8170    4.7954    0.2910 S   0  0  0  0  0  0  0  0  0  0  0  0
   -0.1405    2.5784   -0.0169 C   0  0  0  0  0  0  0  0  0  0  0  0
    0.0381    1.3752   -0.1781 O   0  0  0  0  0  0  0  0  0  0  0  0
    0.8936    3.4979    0.0717 N   0  0  0  0  0  0  0  0  0  0  0  0
    2.7491    2.0832   -0.7901 C   0  0  0  0  0  0  0  0  0  0  0  0
    2.2549    3.2550   -0.2194 C   0  0  0  0  0  0  0  0  0  0  0  0
    3.1777    4.2741    0.0288 C   0  0  0  0  0  0  0  0  0  0  0  0
    4.5221    4.0898   -0.2968 C   0  0  0  0  0  0  0  0  0  0  0  0
    4.9048    2.8921   -0.8723 C   0  0  0  0  0  0  0  0  0  0  0  0
    4.0504    1.8827   -1.1254 N   0  0  0  0  0  0  0  0  0  0  0  0
   -2.6784    1.3206   -0.1196 H   0  0  0  0  0  0  0  0  0  0  0  0
   -4.8444    2.8449   -0.0075 H   0  0  0  0  0  0  0  0  0  0  0  0
   -4.1905    5.3830    0.2840 H   0  0  0  0  0  0  0  0  0  0  0  0
    0.6360    4.4394    0.3426 H   0  0  0  0  0  0  0  0  0  0  0  0
    2.1122    1.2424   -1.0392 H   0  0  0  0  0  0  0  0  0  0  0  0
    2.8713    5.2135    0.4802 H   0  0  0  0  0  0  0  0  0  0  0  0
    5.2567    4.8672   -0.1109 H   0  0  0  0  0  0  0  0  0  0  0  0
    5.9356    2.7047   -1.1594 H   0  0  0  0  0  0  0  0  0  0  0  0
  1  2  2  0  0  0  0
  1  5  1  0  0  0  0
  1  6  1  0  0  0  0
  2  3  1  0  0  0  0
  2 15  1  0  0  0  0
  3  4  2  0  0  0  0
  3 16  1  0  0  0  0
  4  5  1  0  0  0  0
  4 17  1  0  0  0  0
  6  7  2  0  0  0  0
  6  8  1  0  0  0  0
  8 10  1  0  0  0  0
  8 18  1  0  0  0  0
  9 10  2  0  0  0  0
  9 14  1  0  0  0  0
  9 19  1  0  0  0  0
 10 11  1  0  0  0  0
 11 12  2  0  0  0  0
 11 20  1  0  0  0  0
 12 13  1  0  0  0  0
 12 21  1  0  0  0  0
 13 14  2  0  0  0  0
 13 22  1  0  0  0  0
M  END
>  <Mol_ID>
6347

>  <Formula>
C10H8N2OS

>  <MolWeight>
204.24832

>  <Cat>
E0792

>  <Name>
SW-106065

>  <Target>
Others

>  <Form>
free base

>  <CAS>
62289-81-0

>  <URL>
http://www.selleckchem.com/products/sw-106065.html

$$$$
