Synephrine hydrochloride.cdx
 OpenBabel08302521313D

 25 25  0  0  0  0  0  0  0  0999 V2000
    0.2494   -0.1065   -1.3757 C   0  0  0  0  0  0  0  0  0  0  0  0
    0.9802   -0.2146   -0.1995 C   0  0  0  0  0  0  0  0  0  0  0  0
    0.3420   -0.1970    1.0310 C   0  0  0  0  0  0  0  0  0  0  0  0
   -1.0476   -0.0665    1.0921 C   0  0  0  0  0  0  0  0  0  0  0  0
   -1.8181    0.0649   -0.0764 C   0  0  0  0  0  0  0  0  0  0  0  0
   -1.1427    0.0254   -1.3114 C   0  0  0  0  0  0  0  0  0  0  0  0
    2.3361   -0.3524   -0.2091 O   0  0  0  0  0  0  0  0  0  0  0  0
   -3.3395    0.1532   -0.0321 C   0  0  3  0  0  0  0  0  0  0  0  0
   -3.9193    0.8292    1.2423 C   0  0  0  0  0  0  0  0  0  0  0  0
   -5.3879    0.9035    1.2096 N   0  0  0  0  0  0  0  0  0  0  0  0
   -5.9059    1.5942    2.3795 C   0  0  0  0  0  0  0  0  0  0  0  0
   -3.8157    0.8759   -1.1816 O   0  0  0  0  0  0  0  0  0  0  0  0
    0.7349   -0.1316   -2.3461 H   0  0  0  0  0  0  0  0  0  0  0  0
    0.9225   -0.2971    1.9444 H   0  0  0  0  0  0  0  0  0  0  0  0
   -1.5064   -0.0871    2.0766 H   0  0  0  0  0  0  0  0  0  0  0  0
   -1.7055    0.0883   -2.2419 H   0  0  0  0  0  0  0  0  0  0  0  0
    2.6340   -0.3796   -1.1316 H   0  0  0  0  0  0  0  0  0  0  0  0
   -3.7327   -0.8672   -0.1123 H   0  0  0  0  0  0  0  0  0  0  0  0
   -3.6239    0.2662    2.1333 H   0  0  0  0  0  0  0  0  0  0  0  0
   -3.5089    1.8446    1.3222 H   0  0  0  0  0  0  0  0  0  0  0  0
   -5.6828    1.3690    0.3494 H   0  0  0  0  0  0  0  0  0  0  0  0
   -5.5299    2.6201    2.4448 H   0  0  0  0  0  0  0  0  0  0  0  0
   -6.9978    1.6355    2.3297 H   0  0  0  0  0  0  0  0  0  0  0  0
   -5.6396    1.0586    3.2972 H   0  0  0  0  0  0  0  0  0  0  0  0
   -3.5755    1.8066   -1.0418 H   0  0  0  0  0  0  0  0  0  0  0  0
  1  2  2  0  0  0  0
  1 13  1  0  0  0  0
  2  3  1  0  0  0  0
  2  7  1  0  0  0  0
  3  4  2  0  0  0  0
  3 14  1  0  0  0  0
  4  5  1  0  0  0  0
  4 15  1  0  0  0  0
  5  6  2  0  0  0  0
  5  8  1  0  0  0  0
  6  1  1  0  0  0  0
  6 16  1  0  0  0  0
  7 17  1  0  0  0  0
  8  9  1  0  0  0  0
  8 12  1  0  0  0  0
  8 18  1  0  0  0  0
  9 10  1  0  0  0  0
  9 19  1  0  0  0  0
  9 20  1  0  0  0  0
 10 11  1  0  0  0  0
 10 21  1  0  0  0  0
 11 22  1  0  0  0  0
 11 23  1  0  0  0  0
 11 24  1  0  0  0  0
 12 25  1  0  0  0  0
M  END
>  <Mol_ID>
575

>  <Formula>
C9H14ClNO2

>  <MolWeight>
203.66596

>  <Cat>
S2438

>  <Name>
Synephrine HCl

>  <Synonyms>
N/A

>  <Target>
Adrenergic Receptor

>  <Form>
Hydrochloride

>  <CAS>
5985-28-4

>  <URL>
http://selleckchem.com/products/synephrine-hcl.html

$$$$
