Synephrine.cdx
 OpenBabel08302521243D

 25 25  0  0  0  0  0  0  0  0999 V2000
    0.2493    1.2148    0.3394 C   0  0  0  0  0  0  0  0  0  0  0  0
    0.9102   -0.0081    0.3858 C   0  0  0  0  0  0  0  0  0  0  0  0
    0.2076   -1.2009    0.2657 C   0  0  0  0  0  0  0  0  0  0  0  0
   -1.1792   -1.1758    0.1100 C   0  0  0  0  0  0  0  0  0  0  0  0
   -1.8703    0.0448    0.0820 C   0  0  0  0  0  0  0  0  0  0  0  0
   -1.1375    1.2399    0.1892 C   0  0  0  0  0  0  0  0  0  0  0  0
    2.2605   -0.0795    0.5549 O   0  0  0  0  0  0  0  0  0  0  0  0
   -3.3814    0.0664   -0.0476 C   0  0  3  0  0  0  0  0  0  0  0  0
   -3.9229    0.7351    1.0972 O   0  0  0  0  0  0  0  0  0  0  0  0
   -3.8934    0.7607   -1.3334 C   0  0  0  0  0  0  0  0  0  0  0  0
   -3.4338    0.0982   -2.5647 N   0  0  0  0  0  0  0  0  0  0  0  0
   -3.9362    0.7870   -3.7451 C   0  0  0  0  0  0  0  0  0  0  0  0
    0.7906    2.1522    0.4247 H   0  0  0  0  0  0  0  0  0  0  0  0
    0.7377   -2.1481    0.2963 H   0  0  0  0  0  0  0  0  0  0  0  0
   -1.7169   -2.1177    0.0140 H   0  0  0  0  0  0  0  0  0  0  0  0
   -1.6535    2.1978    0.1656 H   0  0  0  0  0  0  0  0  0  0  0  0
    2.6076    0.8228    0.6554 H   0  0  0  0  0  0  0  0  0  0  0  0
   -3.7736   -0.9576   -0.0195 H   0  0  0  0  0  0  0  0  0  0  0  0
   -3.4108    0.4246    1.8658 H   0  0  0  0  0  0  0  0  0  0  0  0
   -4.9904    0.7649   -1.3030 H   0  0  0  0  0  0  0  0  0  0  0  0
   -3.5846    1.8129   -1.3321 H   0  0  0  0  0  0  0  0  0  0  0  0
   -2.4124    0.1059   -2.5822 H   0  0  0  0  0  0  0  0  0  0  0  0
   -3.5886    1.8244   -3.7844 H   0  0  0  0  0  0  0  0  0  0  0  0
   -3.5752    0.2771   -4.6439 H   0  0  0  0  0  0  0  0  0  0  0  0
   -5.0304    0.7732   -3.7754 H   0  0  0  0  0  0  0  0  0  0  0  0
  1  2  2  0  0  0  0
  1 13  1  0  0  0  0
  2  3  1  0  0  0  0
  2  7  1  0  0  0  0
  3  4  2  0  0  0  0
  3 14  1  0  0  0  0
  4  5  1  0  0  0  0
  4 15  1  0  0  0  0
  5  6  2  0  0  0  0
  5  8  1  0  0  0  0
  6  1  1  0  0  0  0
  6 16  1  0  0  0  0
  7 17  1  0  0  0  0
  8  9  1  0  0  0  0
  8 10  1  0  0  0  0
  8 18  1  0  0  0  0
  9 19  1  0  0  0  0
 10 11  1  0  0  0  0
 10 20  1  0  0  0  0
 10 21  1  0  0  0  0
 11 12  1  0  0  0  0
 11 22  1  0  0  0  0
 12 23  1  0  0  0  0
 12 24  1  0  0  0  0
 12 25  1  0  0  0  0
M  END
>  <Mol_ID>
484

>  <Formula>
C9H13NO2

>  <MolWeight>
167.20502

>  <Cat>
S2362

>  <Name>
Synephrine

>  <Synonyms>
Oxedrine

>  <Target>
Adrenergic Receptor

>  <Form>
free base

>  <CAS>
94-07-5

>  <URL>
http://selleckchem.com/products/Synephrine(Oxedrine).html

$$$$
