SYP-5
 OpenBabel08302521283D

 38 40  0  0  0  0  0  0  0  0999 V2000
   -3.8899    3.8317    4.0411 S   0  0  0  0  0  0  0  0  0  0  0  0
    2.5196    8.2905   -0.0301 O   0  0  0  0  0  0  0  0  0  0  0  0
   -1.8698    7.0128    1.6227 O   0  0  0  0  0  0  0  0  0  0  0  0
   -2.0904    4.0772   -1.0744 O   0  0  0  0  0  0  0  0  0  0  0  0
    2.7595    9.1190    1.1282 C   0  0  0  0  0  0  0  0  0  0  0  0
    1.4880    9.6033    1.7838 C   0  0  0  0  0  0  0  0  0  0  0  0
    0.3091    7.7313    0.8445 C   0  0  0  0  0  0  0  0  0  0  0  0
    1.4096    7.4847    0.0086 C   0  0  0  0  0  0  0  0  0  0  0  0
    3.6019    8.3226    2.1330 C   0  0  0  0  0  0  0  0  0  0  0  0
    3.5665   10.3230    0.6265 C   0  0  0  0  0  0  0  0  0  0  0  0
    0.3255    8.9591    1.6467 C   0  0  0  0  0  0  0  0  0  0  0  0
   -0.7616    6.8164    0.8377 C   0  0  0  0  0  0  0  0  0  0  0  0
    1.4145    6.4018   -0.8708 C   0  0  0  0  0  0  0  0  0  0  0  0
   -0.7311    5.6838    0.0007 C   0  0  0  0  0  0  0  0  0  0  0  0
    0.3470    5.5045   -0.8776 C   0  0  0  0  0  0  0  0  0  0  0  0
   -1.8110    4.6544   -0.0281 C   0  0  0  0  0  0  0  0  0  0  0  0
   -2.4731    4.3061    1.2592 C   0  0  0  0  0  0  0  0  0  0  0  0
   -3.6646    3.6900    1.2636 C   0  0  0  0  0  0  0  0  0  0  0  0
   -4.4103    3.4009    2.4509 C   0  0  0  0  0  0  0  0  0  0  0  0
   -5.6453    2.7712    2.5209 C   0  0  0  0  0  0  0  0  0  0  0  0
   -6.1498    2.6487    3.8487 C   0  0  0  0  0  0  0  0  0  0  0  0
   -5.2889    3.1882    4.7734 C   0  0  0  0  0  0  0  0  0  0  0  0
   -1.7185    7.7336    2.2518 H   0  0  0  0  0  0  0  0  0  0  0  0
    1.5360   10.5002    2.3963 H   0  0  0  0  0  0  0  0  0  0  0  0
    3.0731    7.4241    2.4712 H   0  0  0  0  0  0  0  0  0  0  0  0
    4.5327    7.9741    1.6705 H   0  0  0  0  0  0  0  0  0  0  0  0
    3.8552    8.9200    3.0158 H   0  0  0  0  0  0  0  0  0  0  0  0
    4.4916    9.9955    0.1365 H   0  0  0  0  0  0  0  0  0  0  0  0
    3.0031   10.8901   -0.1248 H   0  0  0  0  0  0  0  0  0  0  0  0
    3.8350   11.0045    1.4417 H   0  0  0  0  0  0  0  0  0  0  0  0
   -0.5709    9.3448    2.1092 H   0  0  0  0  0  0  0  0  0  0  0  0
    2.2548    6.2539   -1.5448 H   0  0  0  0  0  0  0  0  0  0  0  0
    0.3628    4.6583   -1.5627 H   0  0  0  0  0  0  0  0  0  0  0  0
   -1.9650    4.6099    2.1645 H   0  0  0  0  0  0  0  0  0  0  0  0
   -4.1213    3.4172    0.3134 H   0  0  0  0  0  0  0  0  0  0  0  0
   -6.1739    2.4148    1.6445 H   0  0  0  0  0  0  0  0  0  0  0  0
   -7.0961    2.1908    4.1088 H   0  0  0  0  0  0  0  0  0  0  0  0
   -5.4138    3.2378    5.8461 H   0  0  0  0  0  0  0  0  0  0  0  0
  1 19  1  0  0  0  0
  1 22  1  0  0  0  0
  2  5  1  0  0  0  0
  2  8  1  0  0  0  0
  3 12  1  0  0  0  0
  3 23  1  0  0  0  0
  4 16  2  0  0  0  0
  5  6  1  0  0  0  0
  5  9  1  0  0  0  0
  5 10  1  0  0  0  0
  6 11  2  0  0  0  0
  6 24  1  0  0  0  0
  7  8  2  0  0  0  0
  7 11  1  0  0  0  0
  7 12  1  0  0  0  0
  8 13  1  0  0  0  0
  9 25  1  0  0  0  0
  9 26  1  0  0  0  0
  9 27  1  0  0  0  0
 10 28  1  0  0  0  0
 10 29  1  0  0  0  0
 10 30  1  0  0  0  0
 11 31  1  0  0  0  0
 12 14  2  0  0  0  0
 13 15  2  0  0  0  0
 13 32  1  0  0  0  0
 14 15  1  0  0  0  0
 14 16  1  0  0  0  0
 15 33  1  0  0  0  0
 16 17  1  0  0  0  0
 17 18  2  0  0  0  0
 17 34  1  0  0  0  0
 18 19  1  0  0  0  0
 18 35  1  0  0  0  0
 19 20  2  0  0  0  0
 20 21  1  0  0  0  0
 20 36  1  0  0  0  0
 21 22  2  0  0  0  0
 21 37  1  0  0  0  0
 22 38  1  0  0  0  0
M  END
>  <Mol_ID>
5423

>  <Formula>
C18H16O3S

>  <MolWeight>
312.38284

>  <Cat>
S2937

>  <Name>
SYP-5

>  <Synonyms>
N/A

>  <Target>
HIF

>  <Form>
Free Base

>  <CAS>
1384268-04-5

>  <URL>
https://www.selleckchem.com/products/syp-5.html

$$$$
