T-3775440 HCl
 OpenBabel08302521223D

 45 48  0  0  0  0  0  0  0  0999 V2000
    1.4663   -0.1420    0.0789 C   0  0  0  0  0  0  0  0  0  0  0  0
    0.6212   -1.2490    0.0596 C   0  0  0  0  0  0  0  0  0  0  0  0
   -0.7649   -1.1031   -0.0352 C   0  0  0  0  0  0  0  0  0  0  0  0
   -1.3657    0.1579   -0.0967 C   0  0  0  0  0  0  0  0  0  0  0  0
   -0.5102    1.2695   -0.0166 C   0  0  0  0  0  0  0  0  0  0  0  0
    0.8884    1.1283    0.0735 C   0  0  0  0  0  0  0  0  0  0  0  0
    2.8748   -0.2721    0.0952 N   0  0  0  0  0  0  0  0  0  0  0  0
    3.5640   -1.4298   -0.2335 C   0  0  0  0  0  0  0  0  0  0  0  0
    5.0155   -1.3610   -0.1400 C   0  0  0  0  0  0  0  0  0  0  0  0
    3.0512   -2.4752   -0.6189 O   0  0  0  0  0  0  0  0  0  0  0  0
    5.8641   -0.3273    0.2005 C   0  0  0  0  0  0  0  0  0  0  0  0
    7.1307   -0.8417    0.1210 N   0  0  0  0  0  0  0  0  0  0  0  0
    7.1705   -2.1268   -0.2588 N   0  0  0  0  0  0  0  0  0  0  0  0
    5.8826   -2.4453   -0.4101 C   0  0  0  0  0  0  0  0  0  0  0  0
   -2.8499    0.3430   -0.3198 C   0  0  2  0  0  0  0  0  0  0  0  0
   -3.8020    0.4337    0.8447 C   0  0  0  0  0  0  0  0  0  0  0  0
   -3.8373   -0.7724   -0.0440 C   0  0  1  0  0  0  0  0  0  0  0  0
   -4.9535   -0.9694   -0.9815 N   0  0  0  0  0  0  0  0  0  0  0  0
   -4.7811   -2.1987   -1.7555 C   0  0  0  0  0  0  0  0  0  0  0  0
   -5.9490   -2.3762   -2.6752 C   0  0  0  0  0  0  0  0  0  0  0  0
    8.3704   -0.1690    0.4151 C   0  0  0  0  0  0  0  0  0  0  0  0
   -7.3647   -2.5285   -2.1692 C   0  0  0  0  0  0  0  0  0  0  0  0
   -6.6429   -3.7165   -2.7364 C   0  0  0  0  0  0  0  0  0  0  0  0
    1.0022   -2.2639    0.1145 H   0  0  0  0  0  0  0  0  0  0  0  0
   -1.3584   -2.0106   -0.0837 H   0  0  0  0  0  0  0  0  0  0  0  0
   -0.9409    2.2686   -0.0621 H   0  0  0  0  0  0  0  0  0  0  0  0
    1.4956    2.0280    0.0853 H   0  0  0  0  0  0  0  0  0  0  0  0
    3.4118    0.5646    0.2712 H   0  0  0  0  0  0  0  0  0  0  0  0
    5.6937    0.6996    0.4874 H   0  0  0  0  0  0  0  0  0  0  0  0
    5.6161   -3.4524   -0.7084 H   0  0  0  0  0  0  0  0  0  0  0  0
   -3.0953    0.9874   -1.1637 H   0  0  0  0  0  0  0  0  0  0  0  0
   -3.4161    0.2973    1.8485 H   0  0  0  0  0  0  0  0  0  0  0  0
   -4.6088    1.1535    0.7766 H   0  0  0  0  0  0  0  0  0  0  0  0
   -3.4806   -1.6845    0.4291 H   0  0  0  0  0  0  0  0  0  0  0  0
   -5.8317   -1.0339   -0.4691 H   0  0  0  0  0  0  0  0  0  0  0  0
   -3.8624   -2.1455   -2.3520 H   0  0  0  0  0  0  0  0  0  0  0  0
   -4.6885   -3.0601   -1.0830 H   0  0  0  0  0  0  0  0  0  0  0  0
   -5.8159   -1.8248   -3.6002 H   0  0  0  0  0  0  0  0  0  0  0  0
    8.9060   -0.7578    1.1649 H   0  0  0  0  0  0  0  0  0  0  0  0
    8.9525   -0.1026   -0.5074 H   0  0  0  0  0  0  0  0  0  0  0  0
    8.1604    0.8299    0.8045 H   0  0  0  0  0  0  0  0  0  0  0  0
   -7.5447   -2.4999   -1.1015 H   0  0  0  0  0  0  0  0  0  0  0  0
   -8.1583   -2.0874   -2.7625 H   0  0  0  0  0  0  0  0  0  0  0  0
   -6.9431   -4.0869   -3.7095 H   0  0  0  0  0  0  0  0  0  0  0  0
   -6.3470   -4.4960   -2.0422 H   0  0  0  0  0  0  0  0  0  0  0  0
  1  2  2  0  0  0  0
  1  7  1  0  0  0  0
  2  3  1  0  0  0  0
  2 24  1  0  0  0  0
  3  4  2  0  0  0  0
  3 25  1  0  0  0  0
  4  5  1  0  0  0  0
  5  6  2  0  0  0  0
  5 26  1  0  0  0  0
  6  1  1  0  0  0  0
  6 27  1  0  0  0  0
  7  8  1  0  0  0  0
  7 28  1  0  0  0  0
  8  9  1  0  0  0  0
  8 10  2  0  0  0  0
  9 11  2  0  0  0  0
 11 12  1  0  0  0  0
 11 29  1  0  0  0  0
 12 13  1  0  0  0  0
 12 21  1  0  0  0  0
 13 14  2  0  0  0  0
 14  9  1  0  0  0  0
 14 30  1  0  0  0  0
 15  4  1  0  0  0  0
 15 16  1  0  0  0  0
 15 31  1  6  0  0  0
 16 17  1  0  0  0  0
 16 32  1  0  0  0  0
 16 33  1  0  0  0  0
 17 15  1  0  0  0  0
 17 18  1  0  0  0  0
 17 34  1  1  0  0  0
 18 19  1  0  0  0  0
 18 35  1  0  0  0  0
 19 20  1  0  0  0  0
 19 36  1  0  0  0  0
 19 37  1  0  0  0  0
 20 22  1  0  0  0  0
 20 38  1  0  0  0  0
 21 39  1  0  0  0  0
 21 40  1  0  0  0  0
 21 41  1  0  0  0  0
 22 23  1  0  0  0  0
 22 42  1  0  0  0  0
 22 43  1  0  0  0  0
 23 20  1  0  0  0  0
 23 44  1  0  0  0  0
 23 45  1  0  0  0  0
M  END
>  <Mol_ID>
4693

>  <Formula>
C18H23ClN4O

>  <MolWeight>
346.85442

>  <Cat>
S8438

>  <Name>
T-3775440 HCl

>  <Synonyms>
N/A

>  <Target>
Histone Demethylase,LSD1

>  <Form>
HCl

>  <CAS>
1422535-52-1

>  <URL>
http://www.selleck.cn/products/t-3775440-hcl.html

$$$$
