T-705 (Favipiravir).cdx
 OpenBabel08302519593D

 15 15  0  0  0  0  0  0  0  0999 V2000
   -0.6314    1.0993    0.0558 C   0  0  0  0  0  0  0  0  0  0  0  0
   -1.2650   -0.1356    0.0866 C   0  0  0  0  0  0  0  0  0  0  0  0
   -0.5896   -1.3059    0.0614 N   0  0  0  0  0  0  0  0  0  0  0  0
    0.7650   -1.1650   -0.0255 C   0  0  0  0  0  0  0  0  0  0  0  0
    1.4099    0.0744   -0.0738 C   0  0  0  0  0  0  0  0  0  0  0  0
    0.7163    1.2332   -0.0207 N   0  0  0  0  0  0  0  0  0  0  0  0
   -2.6031   -0.1853    0.1332 F   0  0  0  0  0  0  0  0  0  0  0  0
    2.7615    0.2334   -0.1710 O   0  0  0  0  0  0  0  0  0  0  0  0
    1.5621   -2.4210   -0.0663 C   0  0  0  0  0  0  0  0  0  0  0  0
    0.8847   -3.5778    0.1990 N   0  0  0  0  0  0  0  0  0  0  0  0
    2.7636   -2.3986   -0.3072 O   0  0  0  0  0  0  0  0  0  0  0  0
   -1.2020    2.0191    0.0878 H   0  0  0  0  0  0  0  0  0  0  0  0
    3.1647   -0.6537   -0.2864 H   0  0  0  0  0  0  0  0  0  0  0  0
    1.3771   -4.4611    0.1932 H   0  0  0  0  0  0  0  0  0  0  0  0
   -0.1077   -3.5571    0.4101 H   0  0  0  0  0  0  0  0  0  0  0  0
  1  2  2  0  0  0  0
  1 12  1  0  0  0  0
  2  3  1  0  0  0  0
  2  7  1  0  0  0  0
  3  4  2  0  0  0  0
  4  5  1  0  0  0  0
  4  9  1  0  0  0  0
  5  6  2  0  0  0  0
  5  8  1  0  0  0  0
  6  1  1  0  0  0  0
  8 13  1  0  0  0  0
  9 10  1  0  0  0  0
  9 11  2  0  0  0  0
 10 14  1  0  0  0  0
 10 15  1  0  0  0  0
M  END
>  <Mol_ID>
2610

>  <Formula>
C5H4FN3O2

>  <MolWeight>
157.1025632

>  <Cat>
S7975

>  <Name>
Favipiravir (T-705)

>  <Synonyms>
N/A

>  <Target>
COVID-19,DNA/RNA Synthesis,Influenza Virus

>  <Form>
free base

>  <CAS>
259793-96-9

>  <URL>
http://selleckchem.com/products/favipiravir-t-705.html

$$$$
