T0901317.cdx
 OpenBabel08302519573D

 43 44  0  0  0  0  0  0  0  0999 V2000
   -1.9000   -0.6508   -1.4270 C   0  0  0  0  0  0  0  0  0  0  0  0
   -0.6924   -1.3230   -1.2322 C   0  0  0  0  0  0  0  0  0  0  0  0
    0.3455   -0.7143   -0.5242 C   0  0  0  0  0  0  0  0  0  0  0  0
    0.1851    0.5779   -0.0218 C   0  0  0  0  0  0  0  0  0  0  0  0
   -1.0148    1.2604   -0.2474 C   0  0  0  0  0  0  0  0  0  0  0  0
   -2.0687    0.6410   -0.9275 C   0  0  0  0  0  0  0  0  0  0  0  0
   -1.2400    2.8959    0.4195 S   0  0  0  0  0  0  0  0  0  0  0  0
   -0.2958    3.0502    1.5072 O   0  0  0  0  0  0  0  0  0  0  0  0
   -0.7309    3.8757   -0.8592 N   0  0  0  0  0  0  0  0  0  0  0  0
   -2.6610    3.0750    0.6441 O   0  0  0  0  0  0  0  0  0  0  0  0
   -1.7102    4.5804   -1.6133 C   0  0  0  0  0  0  0  0  0  0  0  0
    0.7119    4.1968   -1.0202 C   0  0  0  0  0  0  0  0  0  0  0  0
    1.3403    3.7417   -2.3375 C   0  0  0  0  0  0  0  0  0  0  0  0
    0.5502    2.9110   -3.0504 F   0  0  0  0  0  0  0  0  0  0  0  0
    1.6354    4.8028   -3.1247 F   0  0  0  0  0  0  0  0  0  0  0  0
    2.5021    3.0834   -2.1052 F   0  0  0  0  0  0  0  0  0  0  0  0
   -2.0790    5.8681   -1.2292 C   0  0  0  0  0  0  0  0  0  0  0  0
   -3.0862    6.5515   -1.9207 C   0  0  0  0  0  0  0  0  0  0  0  0
   -3.7466    5.9490   -3.0104 C   0  0  0  0  0  0  0  0  0  0  0  0
   -3.3484    4.6482   -3.3832 C   0  0  0  0  0  0  0  0  0  0  0  0
   -2.3370    3.9723   -2.6948 C   0  0  0  0  0  0  0  0  0  0  0  0
   -4.8744    6.6978   -3.7555 C   0  0  0  0  0  0  0  0  0  0  0  0
   -4.3698    8.0199   -4.3944 C   0  0  0  0  0  0  0  0  0  0  0  0
   -3.0296    8.1847   -4.2506 F   0  0  0  0  0  0  0  0  0  0  0  0
   -4.5705    7.9665   -5.7444 F   0  0  0  0  0  0  0  0  0  0  0  0
   -4.9360    9.1597   -3.9692 F   0  0  0  0  0  0  0  0  0  0  0  0
   -5.3005    5.7870   -4.8391 O   0  0  0  0  0  0  0  0  0  0  0  0
   -6.0967    6.9758   -2.8318 C   0  0  0  0  0  0  0  0  0  0  0  0
   -5.9107    6.5022   -1.5723 F   0  0  0  0  0  0  0  0  0  0  0  0
   -6.4265    8.2746   -2.6847 F   0  0  0  0  0  0  0  0  0  0  0  0
   -7.2173    6.3583   -3.2909 F   0  0  0  0  0  0  0  0  0  0  0  0
   -2.7127   -1.1386   -1.9602 H   0  0  0  0  0  0  0  0  0  0  0  0
   -0.5642   -2.3304   -1.6221 H   0  0  0  0  0  0  0  0  0  0  0  0
    1.2756   -1.2527   -0.3567 H   0  0  0  0  0  0  0  0  0  0  0  0
    0.9901    1.0330    0.5502 H   0  0  0  0  0  0  0  0  0  0  0  0
   -3.0199    1.1512   -1.0635 H   0  0  0  0  0  0  0  0  0  0  0  0
    0.8480    5.2790   -0.9034 H   0  0  0  0  0  0  0  0  0  0  0  0
    1.2889    3.7449   -0.2074 H   0  0  0  0  0  0  0  0  0  0  0  0
   -1.6090    6.3393   -0.3699 H   0  0  0  0  0  0  0  0  0  0  0  0
   -3.3557    7.5451   -1.5769 H   0  0  0  0  0  0  0  0  0  0  0  0
   -3.8308    4.1233   -4.2071 H   0  0  0  0  0  0  0  0  0  0  0  0
   -2.0607    2.9686   -3.0074 H   0  0  0  0  0  0  0  0  0  0  0  0
   -4.7889    6.0249   -5.6371 H   0  0  0  0  0  0  0  0  0  0  0  0
  1  2  2  0  0  0  0
  1 32  1  0  0  0  0
  2  3  1  0  0  0  0
  2 33  1  0  0  0  0
  3  4  2  0  0  0  0
  3 34  1  0  0  0  0
  4  5  1  0  0  0  0
  4 35  1  0  0  0  0
  5  6  2  0  0  0  0
  5  7  1  0  0  0  0
  6  1  1  0  0  0  0
  6 36  1  0  0  0  0
  7  8  2  0  0  0  0
  7  9  1  0  0  0  0
  7 10  2  0  0  0  0
  9 11  1  0  0  0  0
  9 12  1  0  0  0  0
 11 17  2  0  0  0  0
 12 13  1  0  0  0  0
 12 37  1  0  0  0  0
 12 38  1  0  0  0  0
 13 14  1  0  0  0  0
 13 15  1  0  0  0  0
 13 16  1  0  0  0  0
 17 18  1  0  0  0  0
 17 39  1  0  0  0  0
 18 19  2  0  0  0  0
 18 40  1  0  0  0  0
 19 20  1  0  0  0  0
 19 22  1  0  0  0  0
 20 21  2  0  0  0  0
 20 41  1  0  0  0  0
 21 11  1  0  0  0  0
 21 42  1  0  0  0  0
 22 23  1  0  0  0  0
 22 27  1  0  0  0  0
 22 28  1  0  0  0  0
 23 24  1  0  0  0  0
 23 25  1  0  0  0  0
 23 26  1  0  0  0  0
 27 43  1  0  0  0  0
 28 29  1  0  0  0  0
 28 30  1  0  0  0  0
 28 31  1  0  0  0  0
M  END
>  <Mol_ID>
2246

>  <Formula>
C17H12F9NO3S

>  <MolWeight>
481.3327088

>  <Cat>
S7076

>  <Name>
T0901317

>  <Synonyms>
N/A

>  <Target>
Apoptosis related,FXR,Liver X Receptor,ROR

>  <Form>
free base

>  <CAS>
293754-55-9

>  <URL>
http://selleckchem.com/products/t0901317.html

$$$$
