T16Ainh-A01
 OpenBabel08302521353D

 48 50  0  0  0  0  0  0  0  0999 V2000
    3.1428    0.7268   -1.3964 S   0  0  0  0  0  0  0  0  0  0  0  0
    3.5072    4.3296    2.3668 S   0  0  0  0  0  0  0  0  0  0  0  0
    3.1260   -0.3295   -6.0631 O   0  0  0  0  0  0  0  0  0  0  0  0
    6.5419    1.8761    9.5040 O   0  0  0  0  0  0  0  0  0  0  0  0
    3.6598   -0.1562    2.1718 O   0  0  0  0  0  0  0  0  0  0  0  0
    2.9484    0.0604   -3.8490 N   0  0  0  0  0  0  0  0  0  0  0  0
    1.7506   -1.3439   -2.4169 N   0  0  0  0  0  0  0  0  0  0  0  0
    2.9691    1.9453    1.4422 N   0  0  0  0  0  0  0  0  0  0  0  0
    3.9239    2.1456    3.6403 N   0  0  0  0  0  0  0  0  0  0  0  0
    1.7630   -1.8060   -4.7884 C   0  0  0  0  0  0  0  0  0  0  0  0
    1.3875   -2.5651   -6.0334 C   0  0  0  0  0  0  0  0  0  0  0  0
    1.3669   -2.0778   -3.5246 C   0  0  0  0  0  0  0  0  0  0  0  0
    2.6586   -0.6404   -4.9709 C   0  0  0  0  0  0  0  0  0  0  0  0
    2.5175   -0.3288   -2.6277 C   0  0  0  0  0  0  0  0  0  0  0  0
    2.3973   -3.6606   -6.3435 C   0  0  0  0  0  0  0  0  0  0  0  0
    0.4821   -3.2651   -3.2384 C   0  0  0  0  0  0  0  0  0  0  0  0
    4.9332    2.8477    5.7667 C   0  0  0  0  0  0  0  0  0  0  0  0
    4.3551    3.1640    4.4668 C   0  0  0  0  0  0  0  0  0  0  0  0
    2.4940   -0.0489    0.1028 C   0  0  0  0  0  0  0  0  0  0  0  0
    5.5927    1.6205    5.9279 C   0  0  0  0  0  0  0  0  0  0  0  0
    4.8277    3.7024    6.8679 C   0  0  0  0  0  0  0  0  0  0  0  0
    3.4680    2.6303    2.5176 C   0  0  0  0  0  0  0  0  0  0  0  0
    3.1132    0.5745    1.3440 C   0  0  0  0  0  0  0  0  0  0  0  0
    4.2249    4.4331    3.9333 C   0  0  0  0  0  0  0  0  0  0  0  0
    6.0506    2.1131    8.2499 C   0  0  0  0  0  0  0  0  0  0  0  0
    6.1545    1.2561    7.1564 C   0  0  0  0  0  0  0  0  0  0  0  0
    5.3839    3.3328    8.0989 C   0  0  0  0  0  0  0  0  0  0  0  0
    7.2114    0.6371    9.7051 C   0  0  0  0  0  0  0  0  0  0  0  0
    3.5705    0.8497   -3.9346 H   0  0  0  0  0  0  0  0  0  0  0  0
    2.6267    2.4849    0.6613 H   0  0  0  0  0  0  0  0  0  0  0  0
    0.3894   -3.0065   -5.9417 H   0  0  0  0  0  0  0  0  0  0  0  0
    1.3180   -1.8803   -6.8883 H   0  0  0  0  0  0  0  0  0  0  0  0
    2.3966   -4.4285   -5.5625 H   0  0  0  0  0  0  0  0  0  0  0  0
    2.1492   -4.1467   -7.2916 H   0  0  0  0  0  0  0  0  0  0  0  0
    3.4132   -3.2597   -6.4232 H   0  0  0  0  0  0  0  0  0  0  0  0
   -0.4592   -3.2001   -3.7975 H   0  0  0  0  0  0  0  0  0  0  0  0
    0.9892   -4.1973   -3.5114 H   0  0  0  0  0  0  0  0  0  0  0  0
    0.2246   -3.3304   -2.1770 H   0  0  0  0  0  0  0  0  0  0  0  0
    1.4080    0.0582    0.1538 H   0  0  0  0  0  0  0  0  0  0  0  0
    2.7477   -1.1142    0.1077 H   0  0  0  0  0  0  0  0  0  0  0  0
    5.6671    0.9302    5.0877 H   0  0  0  0  0  0  0  0  0  0  0  0
    4.2947    4.6461    6.7985 H   0  0  0  0  0  0  0  0  0  0  0  0
    4.5134    5.3850    4.3546 H   0  0  0  0  0  0  0  0  0  0  0  0
    6.6552    0.2968    7.2185 H   0  0  0  0  0  0  0  0  0  0  0  0
    5.2888    3.9981    8.9538 H   0  0  0  0  0  0  0  0  0  0  0  0
    6.5539   -0.2121    9.4902 H   0  0  0  0  0  0  0  0  0  0  0  0
    8.1294    0.5871    9.1097 H   0  0  0  0  0  0  0  0  0  0  0  0
    7.4937    0.5768   10.7605 H   0  0  0  0  0  0  0  0  0  0  0  0
  1 14  1  0  0  0  0
  1 19  1  0  0  0  0
  2 22  1  0  0  0  0
  2 24  1  0  0  0  0
  3 13  2  0  0  0  0
  4 25  1  0  0  0  0
  4 28  1  0  0  0  0
  5 23  2  0  0  0  0
  6 13  1  0  0  0  0
  6 14  1  0  0  0  0
  6 29  1  0  0  0  0
  7 12  1  0  0  0  0
  7 14  2  0  0  0  0
  8 22  1  0  0  0  0
  8 23  1  0  0  0  0
  8 30  1  0  0  0  0
  9 18  1  0  0  0  0
  9 22  2  0  0  0  0
 10 11  1  0  0  0  0
 10 12  2  0  0  0  0
 10 13  1  0  0  0  0
 11 15  1  0  0  0  0
 11 31  1  0  0  0  0
 11 32  1  0  0  0  0
 12 16  1  0  0  0  0
 15 33  1  0  0  0  0
 15 34  1  0  0  0  0
 15 35  1  0  0  0  0
 16 36  1  0  0  0  0
 16 37  1  0  0  0  0
 16 38  1  0  0  0  0
 17 18  1  0  0  0  0
 17 20  2  0  0  0  0
 17 21  1  0  0  0  0
 18 24  2  0  0  0  0
 19 23  1  0  0  0  0
 19 39  1  0  0  0  0
 19 40  1  0  0  0  0
 20 26  1  0  0  0  0
 20 41  1  0  0  0  0
 21 27  2  0  0  0  0
 21 42  1  0  0  0  0
 24 43  1  0  0  0  0
 25 26  2  0  0  0  0
 25 27  1  0  0  0  0
 26 44  1  0  0  0  0
 27 45  1  0  0  0  0
 28 46  1  0  0  0  0
 28 47  1  0  0  0  0
 28 48  1  0  0  0  0
M  END
>  <Mol_ID>
6650

>  <Formula>
C19H20N4O3S2

>  <MolWeight>
416.5171

>  <Cat>
S1203

>  <Name>
T16Ainh-A01

>  <Synonyms>
N/A

>  <Target>
Chloride Channel

>  <Form>
Free base

>  <CAS>
552309-42-9

>  <URL>
http://www.selleckchem.com/products/t16ainh-a01.html

$$$$
