T863 (DGAT-3)
 OpenBabel08302521273D

 55 58  0  0  0  0  0  0  0  0999 V2000
   -1.3362    0.8449   -0.4552 C   0  0  1  0  0  0  0  0  0  0  0  0
   -1.1163   -0.5343    0.1895 C   0  0  0  0  0  0  0  0  0  0  0  0
    0.2255   -1.1588   -0.1971 C   0  0  0  0  0  0  0  0  0  0  0  0
    1.4169   -0.2657    0.2016 C   0  0  1  0  0  0  0  0  0  0  0  0
    1.2142    1.1442   -0.4166 C   0  0  0  0  0  0  0  0  0  0  0  0
   -0.1619    1.7751   -0.1288 C   0  0  0  0  0  0  0  0  0  0  0  0
   -2.7222   -0.0558   -2.3561 C   0  0  0  0  0  0  0  0  0  0  0  0
   -1.5405    0.7892   -1.9742 C   0  0  0  0  0  0  0  0  0  0  0  0
   -3.8848    0.1461   -2.0501 O   0  0  0  0  0  0  0  0  0  0  0  0
   -2.3707   -1.1333   -3.0796 O   0  0  0  0  0  0  0  0  0  0  0  0
    1.6359   -0.2920    1.7108 C   0  0  0  0  0  0  0  0  0  0  0  0
    1.8663   -1.4951    2.3976 C   0  0  0  0  0  0  0  0  0  0  0  0
    1.9157   -1.5291    3.8028 C   0  0  0  0  0  0  0  0  0  0  0  0
    1.7172   -0.3600    4.5524 C   0  0  0  0  0  0  0  0  0  0  0  0
    1.5279    0.8243    3.8548 C   0  0  0  0  0  0  0  0  0  0  0  0
    1.5492    0.8687    2.4706 C   0  0  0  0  0  0  0  0  0  0  0  0
    1.4462    0.7403    8.3406 O   0  0  0  0  0  0  0  0  0  0  0  0
    1.6944   -0.4989    8.8393 C   0  0  0  0  0  0  0  0  0  0  0  0
    1.8843   -1.6034    8.0318 C   0  0  0  0  0  0  0  0  0  0  0  0
    1.9130   -1.5627    6.6260 N   0  0  0  0  0  0  0  0  0  0  0  0
    1.6949   -0.4114    6.0609 C   0  0  0  0  0  0  0  0  0  0  0  0
    1.3772    0.8671    6.9149 C   0  0  0  0  0  0  0  0  0  0  0  0
    1.9733   -1.7107   10.7327 C   0  0  0  0  0  0  0  0  0  0  0  0
    1.7432   -0.5156   10.1843 N   0  0  0  0  0  0  0  0  0  0  0  0
    2.0946   -2.7934    8.7335 C   0  0  0  0  0  0  0  0  0  0  0  0
    2.1479   -2.8657   10.0742 N   0  0  0  0  0  0  0  0  0  0  0  0
   -0.0826    1.2843    6.6633 C   0  0  0  0  0  0  0  0  0  0  0  0
    2.3883    2.0020    6.6636 C   0  0  0  0  0  0  0  0  0  0  0  0
    2.1870   -4.0107    8.0514 N   0  0  0  0  0  0  0  0  0  0  0  0
   -2.2441    1.2753   -0.0098 H   0  0  0  0  0  0  0  0  0  0  0  0
   -1.1651   -0.4270    1.2821 H   0  0  0  0  0  0  0  0  0  0  0  0
   -1.9296   -1.2190   -0.0746 H   0  0  0  0  0  0  0  0  0  0  0  0
    0.3000   -2.1545    0.2547 H   0  0  0  0  0  0  0  0  0  0  0  0
    0.2498   -1.3256   -1.2818 H   0  0  0  0  0  0  0  0  0  0  0  0
    2.3306   -0.6839   -0.2436 H   0  0  0  0  0  0  0  0  0  0  0  0
    2.0096    1.8289   -0.0949 H   0  0  0  0  0  0  0  0  0  0  0  0
    1.3320    1.0620   -1.5036 H   0  0  0  0  0  0  0  0  0  0  0  0
   -0.2505    2.7153   -0.6858 H   0  0  0  0  0  0  0  0  0  0  0  0
   -0.2557    2.0640    0.9234 H   0  0  0  0  0  0  0  0  0  0  0  0
   -1.7215    1.7954   -2.3713 H   0  0  0  0  0  0  0  0  0  0  0  0
   -0.6479    0.4172   -2.4873 H   0  0  0  0  0  0  0  0  0  0  0  0
   -3.2192   -1.5995   -3.2393 H   0  0  0  0  0  0  0  0  0  0  0  0
    1.9850   -2.4288    1.8499 H   0  0  0  0  0  0  0  0  0  0  0  0
    2.0738   -2.4855    4.2983 H   0  0  0  0  0  0  0  0  0  0  0  0
    1.3108    1.7680    4.3239 H   0  0  0  0  0  0  0  0  0  0  0  0
    1.4458    1.8503    2.0250 H   0  0  0  0  0  0  0  0  0  0  0  0
    2.0247   -1.7484   11.8142 H   0  0  0  0  0  0  0  0  0  0  0  0
   -0.3347    2.1934    7.2193 H   0  0  0  0  0  0  0  0  0  0  0  0
   -0.3350    1.4521    5.6152 H   0  0  0  0  0  0  0  0  0  0  0  0
   -0.7605    0.4993    7.0237 H   0  0  0  0  0  0  0  0  0  0  0  0
    3.4118    1.6118    6.7133 H   0  0  0  0  0  0  0  0  0  0  0  0
    2.2940    2.5277    5.7163 H   0  0  0  0  0  0  0  0  0  0  0  0
    2.3075    2.7758    7.4366 H   0  0  0  0  0  0  0  0  0  0  0  0
    2.7478   -3.9137    7.2113 H   0  0  0  0  0  0  0  0  0  0  0  0
    2.4846   -4.7334    8.6939 H   0  0  0  0  0  0  0  0  0  0  0  0
  1  2  1  0  0  0  0
  1  6  1  0  0  0  0
  1  8  1  0  0  0  0
  1 30  1  1  0  0  0
  2  3  1  0  0  0  0
  2 31  1  0  0  0  0
  2 32  1  0  0  0  0
  3  4  1  0  0  0  0
  3 33  1  0  0  0  0
  3 34  1  0  0  0  0
  4  5  1  0  0  0  0
  4 11  1  0  0  0  0
  4 35  1  6  0  0  0
  5  6  1  0  0  0  0
  5 36  1  0  0  0  0
  5 37  1  0  0  0  0
  6 38  1  0  0  0  0
  6 39  1  0  0  0  0
  7  8  1  0  0  0  0
  7  9  2  0  0  0  0
  7 10  1  0  0  0  0
  8 40  1  0  0  0  0
  8 41  1  0  0  0  0
 10 42  1  0  0  0  0
 11 12  2  0  0  0  0
 11 16  1  0  0  0  0
 12 13  1  0  0  0  0
 12 43  1  0  0  0  0
 13 14  2  0  0  0  0
 13 44  1  0  0  0  0
 14 15  1  0  0  0  0
 14 21  1  0  0  0  0
 15 16  2  0  0  0  0
 15 45  1  0  0  0  0
 16 46  1  0  0  0  0
 17 18  1  0  0  0  0
 17 22  1  0  0  0  0
 18 19  2  0  0  0  0
 18 24  1  0  0  0  0
 19 20  1  0  0  0  0
 19 25  1  0  0  0  0
 20 21  2  0  0  0  0
 21 22  1  0  0  0  0
 22 27  1  0  0  0  0
 22 28  1  0  0  0  0
 23 24  2  0  0  0  0
 23 26  1  0  0  0  0
 23 47  1  0  0  0  0
 25 26  2  0  0  0  0
 25 29  1  0  0  0  0
 27 48  1  0  0  0  0
 27 49  1  0  0  0  0
 27 50  1  0  0  0  0
 28 51  1  0  0  0  0
 28 52  1  0  0  0  0
 28 53  1  0  0  0  0
 29 54  1  0  0  0  0
 29 55  1  0  0  0  0
M  END
>  <Mol_ID>
5372

>  <Formula>
C22H26N4O3

>  <MolWeight>
394.46684

>  <Cat>
S0359

>  <Name>
T863 (DGAT-3)

>  <Synonyms>
N/A

>  <Target>
Acyltransferase,Transferase

>  <Form>
Free Base

>  <CAS>
701232-20-4

>  <URL>
https://www.selleckchem.com/products/dgat-3.html

$$$$
