tacrine hydrochlorid.cdx
 OpenBabel08302519583D

 29 31  0  0  0  0  0  0  0  0999 V2000
    3.6146    0.7784    0.0220 C   0  0  0  0  0  0  0  0  0  0  0  0
    3.7051   -0.6029   -0.0376 C   0  0  0  0  0  0  0  0  0  0  0  0
    2.5386   -1.3636   -0.0691 C   0  0  0  0  0  0  0  0  0  0  0  0
    1.2560   -0.7601   -0.0244 C   0  0  0  0  0  0  0  0  0  0  0  0
    1.1772    0.6462    0.0341 C   0  0  0  0  0  0  0  0  0  0  0  0
    2.3570    1.3854    0.0551 C   0  0  0  0  0  0  0  0  0  0  0  0
    0.0352   -1.4897   -0.0235 C   0  0  0  0  0  0  0  0  0  0  0  0
   -1.1870   -0.7877   -0.0027 C   0  0  0  0  0  0  0  0  0  0  0  0
   -1.1437    0.6085    0.0209 C   0  0  0  0  0  0  0  0  0  0  0  0
    0.0131    1.3099    0.0617 N   0  0  0  0  0  0  0  0  0  0  0  0
   -2.5091   -1.5188   -0.0398 C   0  0  0  0  0  0  0  0  0  0  0  0
   -3.7033   -0.6577    0.3605 C   0  0  0  0  0  0  0  0  0  0  0  0
   -3.6511    0.6687   -0.3789 C   0  0  0  0  0  0  0  0  0  0  0  0
   -2.4036    1.4398    0.0442 C   0  0  0  0  0  0  0  0  0  0  0  0
    0.0347   -2.8836   -0.2779 N   0  0  0  0  0  0  0  0  0  0  0  0
    4.5142    1.3869    0.0405 H   0  0  0  0  0  0  0  0  0  0  0  0
    4.6758   -1.0913   -0.0634 H   0  0  0  0  0  0  0  0  0  0  0  0
    2.6451   -2.4421   -0.1218 H   0  0  0  0  0  0  0  0  0  0  0  0
    2.2936    2.4705    0.0942 H   0  0  0  0  0  0  0  0  0  0  0  0
   -2.4857   -2.3739    0.6453 H   0  0  0  0  0  0  0  0  0  0  0  0
   -2.6616   -1.9020   -1.0562 H   0  0  0  0  0  0  0  0  0  0  0  0
   -3.6886   -0.4788    1.4438 H   0  0  0  0  0  0  0  0  0  0  0  0
   -4.6340   -1.1902    0.1357 H   0  0  0  0  0  0  0  0  0  0  0  0
   -3.6342    0.4862   -1.4611 H   0  0  0  0  0  0  0  0  0  0  0  0
   -4.5487    1.2587   -0.1643 H   0  0  0  0  0  0  0  0  0  0  0  0
   -2.2832    2.3104   -0.6114 H   0  0  0  0  0  0  0  0  0  0  0  0
   -2.5406    1.8169    1.0654 H   0  0  0  0  0  0  0  0  0  0  0  0
   -0.8114   -3.3686   -0.0073 H   0  0  0  0  0  0  0  0  0  0  0  0
    0.8574   -3.3691    0.0574 H   0  0  0  0  0  0  0  0  0  0  0  0
  1  2  2  0  0  0  0
  1 16  1  0  0  0  0
  2  3  1  0  0  0  0
  2 17  1  0  0  0  0
  3  4  2  0  0  0  0
  3 18  1  0  0  0  0
  4  5  1  0  0  0  0
  4  7  1  0  0  0  0
  5  6  2  0  0  0  0
  6  1  1  0  0  0  0
  6 19  1  0  0  0  0
  7  8  2  0  0  0  0
  7 15  1  0  0  0  0
  8  9  1  0  0  0  0
  8 11  1  0  0  0  0
  9 10  2  0  0  0  0
 10  5  1  0  0  0  0
 11 12  1  0  0  0  0
 11 20  1  0  0  0  0
 11 21  1  0  0  0  0
 12 13  1  0  0  0  0
 12 22  1  0  0  0  0
 12 23  1  0  0  0  0
 13 14  1  0  0  0  0
 13 24  1  0  0  0  0
 13 25  1  0  0  0  0
 14  9  1  0  0  0  0
 14 26  1  0  0  0  0
 14 27  1  0  0  0  0
 15 28  1  0  0  0  0
 15 29  1  0  0  0  0
M  END
>  <Mol_ID>
2313

>  <Formula>
C13H15ClN2

>  <MolWeight>
234.7246

>  <Cat>
S4357

>  <Name>
Tacrine HCl

>  <Synonyms>
N/A

>  <Target>
AChR

>  <Form>
hydrochlorid

>  <CAS>
1684-40-8

>  <URL>
http://www.selleckchem.com/products/tacrine-hcl.html

$$$$
