Tafamidis
 OpenBabel08302520403D

 27 29  0  0  0  0  0  0  0  0999 V2000
   -1.4939   -0.9986    0.0020 O   0  0  0  0  0  0  0  0  0  0  0  0
   -2.2002    0.1810   -0.0188 C   0  0  0  0  0  0  0  0  0  0  0  0
   -1.4492    1.2676   -0.0689 N   0  0  0  0  0  0  0  0  0  0  0  0
   -0.1693    0.7852   -0.0550 C   0  0  0  0  0  0  0  0  0  0  0  0
   -0.1874   -0.5996   -0.0152 C   0  0  0  0  0  0  0  0  0  0  0  0
    1.0586    1.4530   -0.0635 C   0  0  0  0  0  0  0  0  0  0  0  0
    2.2304    0.6817   -0.0325 C   0  0  0  0  0  0  0  0  0  0  0  0
    2.1763   -0.7243    0.0012 C   0  0  0  0  0  0  0  0  0  0  0  0
    0.9452   -1.4047    0.0125 C   0  0  0  0  0  0  0  0  0  0  0  0
    3.4141   -1.5415    0.0250 C   0  0  0  0  0  0  0  0  0  0  0  0
    3.4627   -2.7561    0.0653 O   0  0  0  0  0  0  0  0  0  0  0  0
    4.5323   -0.7963   -0.0105 O   0  0  0  0  0  0  0  0  0  0  0  0
   -3.6555    0.0927    0.0719 C   0  0  0  0  0  0  0  0  0  0  0  0
   -4.3329   -1.1323    0.1505 C   0  0  0  0  0  0  0  0  0  0  0  0
   -5.7229   -1.1680    0.3017 C   0  0  0  0  0  0  0  0  0  0  0  0
   -6.4510    0.0187    0.3695 C   0  0  0  0  0  0  0  0  0  0  0  0
   -5.7949    1.2431    0.2720 C   0  0  0  0  0  0  0  0  0  0  0  0
   -4.4077    1.2779    0.1208 C   0  0  0  0  0  0  0  0  0  0  0  0
    1.0963    2.5368   -0.0870 H   0  0  0  0  0  0  0  0  0  0  0  0
    3.1896    1.1969   -0.0339 H   0  0  0  0  0  0  0  0  0  0  0  0
    0.8756   -2.4859    0.0451 H   0  0  0  0  0  0  0  0  0  0  0  0
    5.2591   -1.4545    0.0021 H   0  0  0  0  0  0  0  0  0  0  0  0
   -3.7850   -2.0714    0.1085 H   0  0  0  0  0  0  0  0  0  0  0  0
   -6.2364   -2.1235    0.3758 H   0  0  0  0  0  0  0  0  0  0  0  0
   -7.5297   -0.0097    0.5014 H   0  0  0  0  0  0  0  0  0  0  0  0
   -6.3578    2.1717    0.3223 H   0  0  0  0  0  0  0  0  0  0  0  0
   -3.9061    2.2426    0.0551 H   0  0  0  0  0  0  0  0  0  0  0  0
  1  2  1  0  0  0  0
  1  5  1  0  0  0  0
  2  3  2  0  0  0  0
  2 13  1  0  0  0  0
  3  4  1  0  0  0  0
  4  5  2  0  0  0  0
  4  6  1  0  0  0  0
  5  9  1  0  0  0  0
  6  7  2  0  0  0  0
  6 19  1  0  0  0  0
  7  8  1  0  0  0  0
  7 20  1  0  0  0  0
  8  9  2  0  0  0  0
  8 10  1  0  0  0  0
  9 21  1  0  0  0  0
 10 11  2  0  0  0  0
 10 12  1  0  0  0  0
 12 22  1  0  0  0  0
 13 14  2  0  0  0  0
 13 18  1  0  0  0  0
 14 15  1  0  0  0  0
 14 23  1  0  0  0  0
 15 16  2  0  0  0  0
 15 24  1  0  0  0  0
 16 17  1  0  0  0  0
 16 25  1  0  0  0  0
 17 18  2  0  0  0  0
 17 26  1  0  0  0  0
 18 27  1  0  0  0  0
M  END
>  <Mol_ID>
3775

>  <Formula>
C14H7Cl2NO3

>  <MolWeight>
308.11628

>  <Cat>
S6465

>  <Name>
Tafamidis

>  <Synonyms>
N/A

>  <Target>
5-HT Receptor

>  <Form>
Free Base

>  <CAS>
594839-88-0

>  <URL>
http://www.selleck.cn/products/tafamidis.html

$$$$
