TAK-438.cdx
 OpenBabel08302520403D

 52 53  0  0  0  0  0  0  0  0999 V2000
    2.2305    0.6598    0.4586 N   0  0  0  0  0  0  0  0  0  0  0  0
    1.5019    0.3345    1.6858 C   0  0  0  0  0  0  0  0  0  0  0  0
    3.6707    0.7459    0.6621 C   0  0  0  0  0  0  0  0  0  0  0  0
    2.0816    3.1936    3.8886 N   0  0  0  0  0  0  0  0  0  0  0  0
    2.1541    1.8387    3.6574 C   0  0  0  0  0  0  0  0  0  0  0  0
    1.4414    1.5690    2.5141 C   0  0  0  0  0  0  0  0  0  0  0  0
    0.7303    2.7582    2.2099 C   0  0  0  0  0  0  0  0  0  0  0  0
    1.1820    3.8049    3.0133 C   0  0  0  0  0  0  0  0  0  0  0  0
    3.1031    3.9114    5.0564 S   0  0  0  0  0  0  0  0  0  0  0  0
    3.9386    2.8514    5.5904 O   0  0  0  0  0  0  0  0  0  0  0  0
    3.6708    5.0765    4.4090 O   0  0  0  0  0  0  0  0  0  0  0  0
    2.4226    5.5953    7.0352 C   0  0  0  0  0  0  0  0  0  0  0  0
    2.0682    4.4322    6.3723 C   0  0  0  0  0  0  0  0  0  0  0  0
    0.8573    3.8104    6.6789 C   0  0  0  0  0  0  0  0  0  0  0  0
    0.0381    4.3955    7.6416 C   0  0  0  0  0  0  0  0  0  0  0  0
    0.4671    5.5641    8.2545 C   0  0  0  0  0  0  0  0  0  0  0  0
    1.6382    6.1765    7.9712 N   0  0  0  0  0  0  0  0  0  0  0  0
    0.8736    5.2417    2.8029 C   0  0  0  0  0  0  0  0  0  0  0  0
    0.6133    5.7431    1.5114 C   0  0  0  0  0  0  0  0  0  0  0  0
    0.3213    7.0901    1.2785 C   0  0  0  0  0  0  0  0  0  0  0  0
    0.3101    7.9918    2.3344 C   0  0  0  0  0  0  0  0  0  0  0  0
    0.5393    7.5266    3.6204 C   0  0  0  0  0  0  0  0  0  0  0  0
    0.7756    6.1654    3.8444 C   0  0  0  0  0  0  0  0  0  0  0  0
    0.6335    4.9360    0.4394 F   0  0  0  0  0  0  0  0  0  0  0  0
   -0.5757   -0.6122   -1.2305 C   0  0  0  0  0  0  0  0  0  0  0  0
   -1.0727    0.6921   -0.7512 C   0  0  0  0  0  0  0  0  0  0  0  0
   -2.3106    0.9237   -0.2886 C   0  0  0  0  0  0  0  0  0  0  0  0
   -2.6554    2.2580    0.2199 C   0  0  0  0  0  0  0  0  0  0  0  0
    0.6060   -0.9209   -1.1848 O   0  0  0  0  0  0  0  0  0  0  0  0
   -1.5204   -1.4328   -1.7265 O   0  0  0  0  0  0  0  0  0  0  0  0
   -2.0384    3.2953    0.0660 O   0  0  0  0  0  0  0  0  0  0  0  0
   -3.7850    2.1980    0.9375 O   0  0  0  0  0  0  0  0  0  0  0  0
    2.0281   -0.0689   -0.2365 H   0  0  0  0  0  0  0  0  0  0  0  0
    0.4798    0.0328    1.4392 H   0  0  0  0  0  0  0  0  0  0  0  0
    1.9559   -0.5097    2.2156 H   0  0  0  0  0  0  0  0  0  0  0  0
    4.0584   -0.1150    1.2158 H   0  0  0  0  0  0  0  0  0  0  0  0
    4.1747    0.7700   -0.3094 H   0  0  0  0  0  0  0  0  0  0  0  0
    3.9491    1.6657    1.1872 H   0  0  0  0  0  0  0  0  0  0  0  0
    2.8266    1.2023    4.2194 H   0  0  0  0  0  0  0  0  0  0  0  0
    0.0684    2.8795    1.3625 H   0  0  0  0  0  0  0  0  0  0  0  0
    3.3379    6.1355    6.8005 H   0  0  0  0  0  0  0  0  0  0  0  0
    0.5259    2.9094    6.1711 H   0  0  0  0  0  0  0  0  0  0  0  0
   -0.9209    3.9602    7.9019 H   0  0  0  0  0  0  0  0  0  0  0  0
   -0.1397    6.0587    9.0083 H   0  0  0  0  0  0  0  0  0  0  0  0
    0.1137    7.4207    0.2658 H   0  0  0  0  0  0  0  0  0  0  0  0
    0.1146    9.0455    2.1606 H   0  0  0  0  0  0  0  0  0  0  0  0
    0.5308    8.2129    4.4644 H   0  0  0  0  0  0  0  0  0  0  0  0
    0.8574    5.8721    4.8728 H   0  0  0  0  0  0  0  0  0  0  0  0
   -0.3034    1.4616   -0.7038 H   0  0  0  0  0  0  0  0  0  0  0  0
   -3.0862    0.1720   -0.2290 H   0  0  0  0  0  0  0  0  0  0  0  0
   -2.3800   -1.0121   -1.8903 H   0  0  0  0  0  0  0  0  0  0  0  0
   -3.9053    3.1167    1.2607 H   0  0  0  0  0  0  0  0  0  0  0  0
  1  2  1  0  0  0  0
  1  3  1  0  0  0  0
  1 33  1  0  0  0  0
  2  6  1  0  0  0  0
  2 34  1  0  0  0  0
  2 35  1  0  0  0  0
  3 36  1  0  0  0  0
  3 37  1  0  0  0  0
  3 38  1  0  0  0  0
  4  5  1  0  0  0  0
  4  8  1  0  0  0  0
  4  9  1  0  0  0  0
  5  6  2  0  0  0  0
  5 39  1  0  0  0  0
  6  7  1  0  0  0  0
  7  8  2  0  0  0  0
  7 40  1  0  0  0  0
  8 18  1  0  0  0  0
  9 10  2  0  0  0  0
  9 11  2  0  0  0  0
  9 13  1  0  0  0  0
 12 13  2  0  0  0  0
 12 17  1  0  0  0  0
 12 41  1  0  0  0  0
 13 14  1  0  0  0  0
 14 15  2  0  0  0  0
 14 42  1  0  0  0  0
 15 16  1  0  0  0  0
 15 43  1  0  0  0  0
 16 17  2  0  0  0  0
 16 44  1  0  0  0  0
 18 19  2  0  0  0  0
 18 23  1  0  0  0  0
 19 20  1  0  0  0  0
 19 24  1  0  0  0  0
 20 21  2  0  0  0  0
 20 45  1  0  0  0  0
 21 22  1  0  0  0  0
 21 46  1  0  0  0  0
 22 23  2  0  0  0  0
 22 47  1  0  0  0  0
 23 48  1  0  0  0  0
 25 26  1  0  0  0  0
 25 29  2  0  0  0  0
 25 30  1  0  0  0  0
 26 27  2  0  0  0  0
 26 49  1  0  0  0  0
 27 28  1  0  0  0  0
 27 50  1  0  0  0  0
 28 31  2  0  0  0  0
 28 32  1  0  0  0  0
 30 51  1  0  0  0  0
 32 52  1  0  0  0  0
M  END
>  <Mol_ID>
3869

>  <Formula>
C21H20FN3O6S

>  <MolWeight>
461.4634032

>  <Cat>
S8016

>  <Name>
Vonoprazan Fumarate (TAK-438)

>  <Synonyms>
N/A

>  <Target>
Potassium Channel

>  <Form>
Fumarate

>  <CAS>
1260141-27-2

>  <URL>
http://selleckchem.com/products/tak-438.html

$$$$
