TAK-700.cdx
 OpenBabel08302521423D

 40 43  0  0  0  0  0  0  0  0999 V2000
    2.4523   -0.6262    0.0094 C   0  0  0  0  0  0  0  0  0  0  0  0
    2.4681    0.7725    0.0130 C   0  0  0  0  0  0  0  0  0  0  0  0
    1.2590    1.4760    0.0311 C   0  0  0  0  0  0  0  0  0  0  0  0
    0.0329    0.7892    0.0504 C   0  0  0  0  0  0  0  0  0  0  0  0
    0.0201   -0.6246    0.0516 C   0  0  0  0  0  0  0  0  0  0  0  0
    1.2392   -1.3181    0.0397 C   0  0  0  0  0  0  0  0  0  0  0  0
   -1.1831    1.4828    0.0557 C   0  0  0  0  0  0  0  0  0  0  0  0
   -2.3959    0.7921    0.0417 C   0  0  0  0  0  0  0  0  0  0  0  0
   -2.4355   -0.6117    0.0232 C   0  0  0  0  0  0  0  0  0  0  0  0
   -1.2115   -1.3043    0.0470 C   0  0  0  0  0  0  0  0  0  0  0  0
    3.7857    1.4625   -0.0503 C   0  0  0  0  0  0  0  0  0  0  0  0
    3.8563    2.7223    0.5063 N   0  0  0  0  0  0  0  0  0  0  0  0
    4.7453    0.8935   -0.5622 O   0  0  0  0  0  0  0  0  0  0  0  0
    5.0892    3.4721    0.5454 C   0  0  0  0  0  0  0  0  0  0  0  0
   -3.7658   -1.3458   -0.0292 C   0  0  3  0  0  0  0  0  0  0  0  0
   -4.6853   -0.9564    1.0561 C   0  0  0  0  0  0  0  0  0  0  0  0
   -5.8747   -0.5081    0.5802 N   0  0  0  0  0  0  0  0  0  0  0  0
   -5.9809   -0.5160   -0.8569 C   0  0  0  0  0  0  0  0  0  0  0  0
   -4.5924   -1.0116   -1.3190 C   0  0  0  0  0  0  0  0  0  0  0  0
   -4.7671   -0.8133    2.4133 C   0  0  0  0  0  0  0  0  0  0  0  0
   -5.9989   -0.2734    2.7434 N   0  0  0  0  0  0  0  0  0  0  0  0
   -6.6377   -0.0867    1.6021 C   0  0  0  0  0  0  0  0  0  0  0  0
   -3.6010   -2.7561    0.0574 O   0  0  0  0  0  0  0  0  0  0  0  0
    3.3873   -1.1828   -0.0219 H   0  0  0  0  0  0  0  0  0  0  0  0
    1.2556    2.5623   -0.0118 H   0  0  0  0  0  0  0  0  0  0  0  0
    1.2543   -2.4061    0.0376 H   0  0  0  0  0  0  0  0  0  0  0  0
   -1.2009    2.5702    0.0674 H   0  0  0  0  0  0  0  0  0  0  0  0
   -3.3195    1.3692    0.0502 H   0  0  0  0  0  0  0  0  0  0  0  0
   -1.2166   -2.3937    0.0522 H   0  0  0  0  0  0  0  0  0  0  0  0
    3.0749    3.0790    1.0382 H   0  0  0  0  0  0  0  0  0  0  0  0
    4.9090    4.4475    0.0869 H   0  0  0  0  0  0  0  0  0  0  0  0
    5.3684    3.6132    1.5917 H   0  0  0  0  0  0  0  0  0  0  0  0
    5.8975    2.9608    0.0162 H   0  0  0  0  0  0  0  0  0  0  0  0
   -6.1961    0.4991   -1.2007 H   0  0  0  0  0  0  0  0  0  0  0  0
   -6.7815   -1.2038   -1.1418 H   0  0  0  0  0  0  0  0  0  0  0  0
   -4.7046   -1.8890   -1.9677 H   0  0  0  0  0  0  0  0  0  0  0  0
   -4.1204   -0.2323   -1.9295 H   0  0  0  0  0  0  0  0  0  0  0  0
   -4.0214   -1.0320    3.1666 H   0  0  0  0  0  0  0  0  0  0  0  0
   -7.6226    0.3470    1.4925 H   0  0  0  0  0  0  0  0  0  0  0  0
   -4.4835   -3.1538    0.1379 H   0  0  0  0  0  0  0  0  0  0  0  0
  1  2  2  0  0  0  0
  1 24  1  0  0  0  0
  2  3  1  0  0  0  0
  2 11  1  0  0  0  0
  3  4  2  0  0  0  0
  3 25  1  0  0  0  0
  4  5  1  0  0  0  0
  4  7  1  0  0  0  0
  5  6  2  0  0  0  0
  6  1  1  0  0  0  0
  6 26  1  0  0  0  0
  7  8  2  0  0  0  0
  7 27  1  0  0  0  0
  8  9  1  0  0  0  0
  8 28  1  0  0  0  0
  9 10  2  0  0  0  0
  9 15  1  0  0  0  0
 10  5  1  0  0  0  0
 10 29  1  0  0  0  0
 11 12  1  0  0  0  0
 11 13  2  0  0  0  0
 12 14  1  0  0  0  0
 12 30  1  0  0  0  0
 14 31  1  0  0  0  0
 14 32  1  0  0  0  0
 14 33  1  0  0  0  0
 15 16  1  0  0  0  0
 15 23  1  0  0  0  0
 16 17  1  0  0  0  0
 16 20  2  0  0  0  0
 17 18  1  0  0  0  0
 18 19  1  0  0  0  0
 18 34  1  0  0  0  0
 18 35  1  0  0  0  0
 19 15  1  0  0  0  0
 19 36  1  0  0  0  0
 19 37  1  0  0  0  0
 20 21  1  0  0  0  0
 20 38  1  0  0  0  0
 21 22  2  0  0  0  0
 22 17  1  0  0  0  0
 22 39  1  0  0  0  0
 23 40  1  0  0  0  0
M  END
>  <Mol_ID>
842

>  <Formula>
C18H17N3O2

>  <MolWeight>
307.34648

>  <Cat>
S1195

>  <Name>
Orteronel

>  <Synonyms>
TAK-700

>  <Target>
Androgen Receptor,P450 (e.g. CYP17)

>  <Form>
free base

>  <CAS>
426219-18-3

>  <URL>
http://selleckchem.com/products/TAK-700.html

$$$$
