TAK-659.cdx
 OpenBabel08302521383D

 46 49  0  0  0  0  0  0  0  0999 V2000
    7.5211   -1.8818   -4.2367 C   0  0  0  0  0  0  0  0  0  0  0  0
    7.4899   -0.5222   -4.0021 C   0  0  0  0  0  0  0  0  0  0  0  0
    6.6875    0.0032   -3.0159 N   0  0  0  0  0  0  0  0  0  0  0  0
    5.9232   -0.8320   -2.2574 C   0  0  0  0  0  0  0  0  0  0  0  0
    5.9505   -2.2196   -2.4612 C   0  0  0  0  0  0  0  0  0  0  0  0
    6.7601   -2.7360   -3.4402 C   0  0  0  0  0  0  0  0  0  0  0  0
    6.9540   -4.1538   -3.8309 C   0  0  0  0  0  0  0  0  0  0  0  0
    7.8507   -4.0357   -4.9485 N   0  0  0  0  0  0  0  0  0  0  0  0
    8.1857   -2.7334   -5.2468 C   0  0  0  0  0  0  0  0  0  0  0  0
    8.2530    0.4594   -4.7500 C   0  0  0  0  0  0  0  0  0  0  0  0
    5.0054   -0.3251   -1.3287 N   0  0  0  0  0  0  0  0  0  0  0  0
    5.1655    1.0338   -0.7928 C   0  0  2  0  0  0  0  0  0  0  0  0
    6.3601    1.1095    0.1721 C   0  0  0  0  0  0  0  0  0  0  0  0
    6.1454    0.2915    1.4447 C   0  0  0  0  0  0  0  0  0  0  0  0
    4.8779    0.6952    2.1868 C   0  0  0  0  0  0  0  0  0  0  0  0
    3.6430    0.7560    1.2943 C   0  0  0  0  0  0  0  0  0  0  0  0
    3.8713    1.4977   -0.0346 C   0  0  2  0  0  0  0  0  0  0  0  0
    7.9309    1.8002   -5.0649 C   0  0  0  0  0  0  0  0  0  0  0  0
    8.8810    2.4137   -5.7786 N   0  0  0  0  0  0  0  0  0  0  0  0
    9.8256    1.4656   -5.9172 N   0  0  0  0  0  0  0  0  0  0  0  0
    9.5179    0.2988   -5.2794 C   0  0  0  0  0  0  0  0  0  0  0  0
   11.0227    1.7513   -6.6706 C   0  0  0  0  0  0  0  0  0  0  0  0
    8.8745   -2.3979   -6.1866 O   0  0  0  0  0  0  0  0  0  0  0  0
    5.2054   -3.0425   -1.7071 F   0  0  0  0  0  0  0  0  0  0  0  0
    2.6421    1.3749   -0.8343 N   0  0  0  0  0  0  0  0  0  0  0  0
    7.4434   -4.7416   -3.0489 H   0  0  0  0  0  0  0  0  0  0  0  0
    6.0288   -4.6304   -4.1651 H   0  0  0  0  0  0  0  0  0  0  0  0
    8.1550   -4.7969   -5.5409 H   0  0  0  0  0  0  0  0  0  0  0  0
    4.7337   -1.0127   -0.6336 H   0  0  0  0  0  0  0  0  0  0  0  0
    5.3265    1.7317   -1.6248 H   0  0  0  0  0  0  0  0  0  0  0  0
    7.2799    0.7737   -0.3187 H   0  0  0  0  0  0  0  0  0  0  0  0
    6.5219    2.1590    0.4514 H   0  0  0  0  0  0  0  0  0  0  0  0
    6.1047   -0.7766    1.2008 H   0  0  0  0  0  0  0  0  0  0  0  0
    7.0065    0.4242    2.1102 H   0  0  0  0  0  0  0  0  0  0  0  0
    4.6939   -0.0156    3.0022 H   0  0  0  0  0  0  0  0  0  0  0  0
    5.0320    1.6732    2.6582 H   0  0  0  0  0  0  0  0  0  0  0  0
    3.2883   -0.2644    1.1032 H   0  0  0  0  0  0  0  0  0  0  0  0
    2.8418    1.2578    1.8549 H   0  0  0  0  0  0  0  0  0  0  0  0
    4.0000    2.5628    0.2022 H   0  0  0  0  0  0  0  0  0  0  0  0
    7.0320    2.3459   -4.8070 H   0  0  0  0  0  0  0  0  0  0  0  0
   10.2054   -0.5355   -5.2887 H   0  0  0  0  0  0  0  0  0  0  0  0
   10.7354    2.0381   -7.6855 H   0  0  0  0  0  0  0  0  0  0  0  0
   11.5542    2.5680   -6.1760 H   0  0  0  0  0  0  0  0  0  0  0  0
   11.6555    0.8606   -6.7029 H   0  0  0  0  0  0  0  0  0  0  0  0
    2.6914    2.0040   -1.6341 H   0  0  0  0  0  0  0  0  0  0  0  0
    1.8303    1.6484   -0.2851 H   0  0  0  0  0  0  0  0  0  0  0  0
  1  2  1  0  0  0  0
  2  3  2  0  0  0  0
  2 10  1  0  0  0  0
  3  4  1  0  0  0  0
  4  5  2  0  0  0  0
  4 11  1  0  0  0  0
  5  6  1  0  0  0  0
  5 24  1  0  0  0  0
  6  1  2  0  0  0  0
  6  7  1  0  0  0  0
  7  8  1  0  0  0  0
  7 26  1  0  0  0  0
  7 27  1  0  0  0  0
  8  9  1  0  0  0  0
  8 28  1  0  0  0  0
  9  1  1  0  0  0  0
  9 23  2  0  0  0  0
 10 18  1  0  0  0  0
 11 29  1  0  0  0  0
 12 13  1  0  0  0  0
 12 30  1  6  0  0  0
 12 11  1  0  0  0  0
 13 14  1  0  0  0  0
 13 31  1  0  0  0  0
 13 32  1  0  0  0  0
 14 15  1  0  0  0  0
 14 33  1  0  0  0  0
 14 34  1  0  0  0  0
 15 16  1  0  0  0  0
 15 35  1  0  0  0  0
 15 36  1  0  0  0  0
 16 17  1  0  0  0  0
 16 37  1  0  0  0  0
 16 38  1  0  0  0  0
 17 12  1  0  0  0  0
 17 39  1  1  0  0  0
 17 25  1  0  0  0  0
 18 19  2  0  0  0  0
 18 40  1  0  0  0  0
 19 20  1  0  0  0  0
 20 22  1  0  0  0  0
 21 10  2  0  0  0  0
 21 20  1  0  0  0  0
 21 41  1  0  0  0  0
 22 42  1  0  0  0  0
 22 43  1  0  0  0  0
 22 44  1  0  0  0  0
 25 45  1  0  0  0  0
 25 46  1  0  0  0  0
M  END
>  <Mol_ID>
7784

>  <Formula>
C17H22ClFN6O

>  <MolWeight>
380.8475832

>  <Cat>
S8442

>  <Name>
TAK-659

>  <Synonyms>
N/A

>  <Target>
FLT3,Syk

>  <Form>
hydrochloride

>  <CAS>
1952251-28-3

>  <URL>
http://selleckchem.com/products/tak-659.html

$$$$
