Talazoparib (BMN 673)
 OpenBabel08302521343D

 42 46  0  0  0  0  0  0  0  0999 V2000
   -0.0999   -2.4111    0.0721 N   0  0  0  0  0  0  0  0  0  0  0  0
   -1.4587   -2.3544    0.0453 N   0  0  0  0  0  0  0  0  0  0  0  0
   -2.2222   -1.2118    0.0300 C   0  0  0  0  0  0  0  0  0  0  0  0
   -1.4811    0.0556    0.0375 C   0  0  0  0  0  0  0  0  0  0  0  0
   -0.0875    0.0204    0.0679 C   0  0  0  0  0  0  0  0  0  0  0  0
    0.5692   -1.2920    0.0984 C   0  0  0  0  0  0  0  0  0  0  0  0
   -2.1609    1.2737    0.0046 C   0  0  0  0  0  0  0  0  0  0  0  0
   -1.4190    2.4424    0.0101 C   0  0  0  0  0  0  0  0  0  0  0  0
   -0.0250    2.4110    0.0374 C   0  0  0  0  0  0  0  0  0  0  0  0
    0.6661    1.1921    0.0362 C   0  0  0  0  0  0  0  0  0  0  0  0
    2.0452    1.1894    0.1115 N   0  0  0  0  0  0  0  0  0  0  0  0
    2.8253   -0.0260   -0.1226 C   0  0  1  0  0  0  0  0  0  0  0  0
    2.0904   -1.3651    0.1114 C   0  0  1  0  0  0  0  0  0  0  0  0
    3.4413    0.0247   -1.5235 C   0  0  0  0  0  0  0  0  0  0  0  0
    4.8415   -0.0259   -1.6623 C   0  0  0  0  0  0  0  0  0  0  0  0
    5.4313   -0.0563   -2.9267 C   0  0  0  0  0  0  0  0  0  0  0  0
    4.6268   -0.0361   -4.0577 C   0  0  0  0  0  0  0  0  0  0  0  0
    3.2431    0.0264   -3.9487 C   0  0  0  0  0  0  0  0  0  0  0  0
    2.6489    0.0609   -2.6850 C   0  0  0  0  0  0  0  0  0  0  0  0
    5.1925   -0.0843   -5.2705 F   0  0  0  0  0  0  0  0  0  0  0  0
   -3.4463   -1.2360   -0.0020 O   0  0  0  0  0  0  0  0  0  0  0  0
   -2.0494    3.6235   -0.0146 F   0  0  0  0  0  0  0  0  0  0  0  0
    2.5382   -2.0460    1.3788 C   0  0  0  0  0  0  0  0  0  0  0  0
    3.0231   -1.4653    2.4618 N   0  0  0  0  0  0  0  0  0  0  0  0
    3.3526   -2.5111    3.2715 C   0  0  0  0  0  0  0  0  0  0  0  0
    3.1083   -3.7169    2.7631 N   0  0  0  0  0  0  0  0  0  0  0  0
    2.5741   -3.4083    1.5656 N   0  0  0  0  0  0  0  0  0  0  0  0
    2.1784   -4.4820    0.6898 C   0  0  0  0  0  0  0  0  0  0  0  0
   -1.9561   -3.2404    0.0459 H   0  0  0  0  0  0  0  0  0  0  0  0
   -3.2455    1.3158   -0.0200 H   0  0  0  0  0  0  0  0  0  0  0  0
    0.5117    3.3557    0.0535 H   0  0  0  0  0  0  0  0  0  0  0  0
    2.5169    2.0478   -0.1607 H   0  0  0  0  0  0  0  0  0  0  0  0
    3.6704    0.0476    0.5737 H   0  0  0  0  0  0  0  0  0  0  0  0
    2.3625   -2.0408   -0.7112 H   0  0  0  0  0  0  0  0  0  0  0  0
    5.4850   -0.0553   -0.7840 H   0  0  0  0  0  0  0  0  0  0  0  0
    6.5105   -0.1046   -3.0350 H   0  0  0  0  0  0  0  0  0  0  0  0
    2.6363    0.0407   -4.8489 H   0  0  0  0  0  0  0  0  0  0  0  0
    1.5645    0.1047   -2.6198 H   0  0  0  0  0  0  0  0  0  0  0  0
    3.7925   -2.3922    4.2533 H   0  0  0  0  0  0  0  0  0  0  0  0
    3.0346   -5.1477    0.5525 H   0  0  0  0  0  0  0  0  0  0  0  0
    1.3514   -5.0202    1.1601 H   0  0  0  0  0  0  0  0  0  0  0  0
    1.8683   -4.1023   -0.2830 H   0  0  0  0  0  0  0  0  0  0  0  0
  1  2  1  0  0  0  0
  2  3  1  0  0  0  0
  2 29  1  0  0  0  0
  3  4  1  0  0  0  0
  3 21  2  0  0  0  0
  4  5  2  0  0  0  0
  4  7  1  0  0  0  0
  5  6  1  0  0  0  0
  6  1  2  0  0  0  0
  7  8  2  0  0  0  0
  7 30  1  0  0  0  0
  8  9  1  0  0  0  0
  8 22  1  0  0  0  0
  9 10  2  0  0  0  0
  9 31  1  0  0  0  0
 10  5  1  0  0  0  0
 10 11  1  0  0  0  0
 11 12  1  0  0  0  0
 11 32  1  0  0  0  0
 12 13  1  0  0  0  0
 12 14  1  0  0  0  0
 12 33  1  1  0  0  0
 13  6  1  0  0  0  0
 13 34  1  6  0  0  0
 13 23  1  0  0  0  0
 14 15  2  0  0  0  0
 15 16  1  0  0  0  0
 15 35  1  0  0  0  0
 16 17  2  0  0  0  0
 16 36  1  0  0  0  0
 17 18  1  0  0  0  0
 17 20  1  0  0  0  0
 18 19  2  0  0  0  0
 18 37  1  0  0  0  0
 19 14  1  0  0  0  0
 19 38  1  0  0  0  0
 23 24  2  0  0  0  0
 24 25  1  0  0  0  0
 25 26  2  0  0  0  0
 25 39  1  0  0  0  0
 26 27  1  0  0  0  0
 27 23  1  0  0  0  0
 27 28  1  0  0  0  0
 28 40  1  0  0  0  0
 28 41  1  0  0  0  0
 28 42  1  0  0  0  0
M  END
>  <Mol_ID>
6542

>  <Formula>
C19H14F2N6O

>  <MolWeight>
380.3508664

>  <Cat>
S7048

>  <Name>
Talazoparib (BMN 673)

>  <Synonyms>
LT-673

>  <Target>
PARP

>  <Form>
free base

>  <CAS>
1207456-01-6

>  <URL>
http://www.selleckchem.com/products/bmn-673.html

$$$$
