Talniflumate
 OpenBabel08302520403D

 43 46  0  0  0  0  0  0  0  0999 V2000
    1.9522   -3.6135    0.0421 C   0  0  0  0  0  0  0  0  0  0  0  0
    2.2101   -3.7683   -1.4104 C   0  0  3  0  0  0  0  0  0  0  0  0
    3.1346   -3.7863    0.7310 C   0  0  0  0  0  0  0  0  0  0  0  0
    0.7881   -3.2820    0.7189 C   0  0  0  0  0  0  0  0  0  0  0  0
    3.5860   -4.2147   -1.4469 O   0  0  0  0  0  0  0  0  0  0  0  0
    2.1267   -2.4821   -2.0245 O   0  0  0  0  0  0  0  0  0  0  0  0
    4.1710   -4.1733   -0.2138 C   0  0  0  0  0  0  0  0  0  0  0  0
    3.2378   -3.6011    2.0990 C   0  0  0  0  0  0  0  0  0  0  0  0
    0.8590   -3.0955    2.1035 C   0  0  0  0  0  0  0  0  0  0  0  0
    0.9147   -2.1250   -2.5000 C   0  0  0  0  0  0  0  0  0  0  0  0
    5.3258   -4.4332    0.0496 O   0  0  0  0  0  0  0  0  0  0  0  0
    2.0785   -3.2428    2.7886 C   0  0  0  0  0  0  0  0  0  0  0  0
    0.9018   -0.6736   -2.8054 C   0  0  0  0  0  0  0  0  0  0  0  0
   -0.0541   -2.8611   -2.6183 O   0  0  0  0  0  0  0  0  0  0  0  0
   -0.1176   -0.1083   -3.5820 C   0  0  0  0  0  0  0  0  0  0  0  0
    1.8947    0.1728   -2.2805 C   0  0  0  0  0  0  0  0  0  0  0  0
   -1.1114   -0.8865   -4.2048 N   0  0  0  0  0  0  0  0  0  0  0  0
   -0.1700    1.2361   -3.7845 N   0  0  0  0  0  0  0  0  0  0  0  0
    1.8364    1.5422   -2.5080 C   0  0  0  0  0  0  0  0  0  0  0  0
   -1.7676   -0.6073   -5.4201 C   0  0  0  0  0  0  0  0  0  0  0  0
    0.7814    2.0257   -3.2490 C   0  0  0  0  0  0  0  0  0  0  0  0
   -1.1524    0.1472   -6.4298 C   0  0  0  0  0  0  0  0  0  0  0  0
   -3.0691   -1.0699   -5.6359 C   0  0  0  0  0  0  0  0  0  0  0  0
   -1.8022    0.4314   -7.6385 C   0  0  0  0  0  0  0  0  0  0  0  0
   -3.7393   -0.7821   -6.8294 C   0  0  0  0  0  0  0  0  0  0  0  0
   -3.1075   -0.0383   -7.8267 C   0  0  0  0  0  0  0  0  0  0  0  0
   -1.1060    1.2204   -8.7148 C   0  0  0  0  0  0  0  0  0  0  0  0
    0.1650    1.5979   -8.3886 F   0  0  0  0  0  0  0  0  0  0  0  0
   -0.9899    0.5189   -9.8777 F   0  0  0  0  0  0  0  0  0  0  0  0
   -1.7626    2.3684   -9.0355 F   0  0  0  0  0  0  0  0  0  0  0  0
    1.5866   -4.5325   -1.8878 H   0  0  0  0  0  0  0  0  0  0  0  0
   -0.1566   -3.1551    0.1981 H   0  0  0  0  0  0  0  0  0  0  0  0
    4.1875   -3.7249    2.6105 H   0  0  0  0  0  0  0  0  0  0  0  0
   -0.0379   -2.8257    2.6594 H   0  0  0  0  0  0  0  0  0  0  0  0
    2.1187   -3.0707    3.8632 H   0  0  0  0  0  0  0  0  0  0  0  0
    2.7141   -0.2184   -1.6832 H   0  0  0  0  0  0  0  0  0  0  0  0
   -1.1062   -1.8742   -3.9543 H   0  0  0  0  0  0  0  0  0  0  0  0
    2.5885    2.2134   -2.1094 H   0  0  0  0  0  0  0  0  0  0  0  0
    0.6639    3.0879   -3.4444 H   0  0  0  0  0  0  0  0  0  0  0  0
   -0.1381    0.5118   -6.2768 H   0  0  0  0  0  0  0  0  0  0  0  0
   -3.5843   -1.6332   -4.8616 H   0  0  0  0  0  0  0  0  0  0  0  0
   -4.7577   -1.1329   -6.9779 H   0  0  0  0  0  0  0  0  0  0  0  0
   -3.6366    0.1785   -8.7535 H   0  0  0  0  0  0  0  0  0  0  0  0
  1  2  1  0  0  0  0
  1  3  1  0  0  0  0
  1  4  2  0  0  0  0
  2  5  1  0  0  0  0
  2  6  1  0  0  0  0
  2 31  1  0  0  0  0
  3  7  1  0  0  0  0
  3  8  2  0  0  0  0
  4  9  1  0  0  0  0
  4 32  1  0  0  0  0
  5  7  1  0  0  0  0
  6 10  1  0  0  0  0
  7 11  2  0  0  0  0
  8 12  1  0  0  0  0
  8 33  1  0  0  0  0
  9 12  2  0  0  0  0
  9 34  1  0  0  0  0
 10 13  1  0  0  0  0
 10 14  2  0  0  0  0
 12 35  1  0  0  0  0
 13 15  1  0  0  0  0
 13 16  2  0  0  0  0
 15 17  1  0  0  0  0
 15 18  2  0  0  0  0
 16 19  1  0  0  0  0
 16 36  1  0  0  0  0
 17 20  1  0  0  0  0
 17 37  1  0  0  0  0
 18 21  1  0  0  0  0
 19 21  2  0  0  0  0
 19 38  1  0  0  0  0
 20 22  2  0  0  0  0
 20 23  1  0  0  0  0
 21 39  1  0  0  0  0
 22 24  1  0  0  0  0
 22 40  1  0  0  0  0
 23 25  2  0  0  0  0
 23 41  1  0  0  0  0
 24 26  2  0  0  0  0
 24 27  1  0  0  0  0
 25 26  1  0  0  0  0
 25 42  1  0  0  0  0
 26 43  1  0  0  0  0
 27 28  1  0  0  0  0
 27 29  1  0  0  0  0
 27 30  1  0  0  0  0
M  END
>  <Mol_ID>
3755

>  <Formula>
C21H13F3N2O4

>  <MolWeight>
414.3341296

>  <Cat>
S6439

>  <Name>
Talniflumate

>  <Synonyms>
MSI-1995

>  <Target>
Chloride Channel,Immunology & Inflammation related

>  <Form>
Free Base

>  <CAS>
66898-62-2

>  <URL>
http://www.selleck.cn/products/talniflumate.html

$$$$
