TAME.cdx
 OpenBabel08302521393D

 45 45  0  0  0  0  0  0  0  0999 V2000
   -1.8912    2.8958   -1.1756 C   0  0  0  0  0  0  0  0  0  0  0  0
   -2.1135    3.7137   -2.2896 C   0  0  0  0  0  0  0  0  0  0  0  0
   -3.4263    3.9209   -2.7389 C   0  0  0  0  0  0  0  0  0  0  0  0
   -4.5017    3.2985   -2.1016 C   0  0  0  0  0  0  0  0  0  0  0  0
   -4.2619    2.4724   -1.0025 C   0  0  0  0  0  0  0  0  0  0  0  0
   -2.9645    2.2937   -0.5186 C   0  0  0  0  0  0  0  0  0  0  0  0
   -0.9648    4.3728   -2.9951 C   0  0  0  0  0  0  0  0  0  0  0  0
   -5.6169    1.6469   -0.2188 S   0  0  0  0  0  0  0  0  0  0  0  0
   -6.1650    0.5814   -1.4145 N   0  0  0  0  0  0  0  0  0  0  0  0
   -5.1224    0.8484    0.8819 O   0  0  0  0  0  0  0  0  0  0  0  0
   -6.6722    2.6105   -0.0405 O   0  0  0  0  0  0  0  0  0  0  0  0
   -5.5630   -0.7759   -1.4703 C   0  0  2  0  0  0  0  0  0  0  0  0
   -4.0347   -0.7573   -1.5597 C   0  0  0  0  0  0  0  0  0  0  0  0
   -3.4934   -1.2796   -0.4235 O   0  0  0  0  0  0  0  0  0  0  0  0
   -3.3929   -0.3319   -2.5110 O   0  0  0  0  0  0  0  0  0  0  0  0
   -2.0704   -1.2077   -0.3186 C   0  0  0  0  0  0  0  0  0  0  0  0
   -6.1587   -1.5321   -2.6773 C   0  0  0  0  0  0  0  0  0  0  0  0
   -5.7754   -3.0162   -2.6474 C   0  0  0  0  0  0  0  0  0  0  0  0
   -6.3790   -3.8180   -3.7980 C   0  0  0  0  0  0  0  0  0  0  0  0
   -5.9688   -5.2014   -3.6734 N   0  0  0  0  0  0  0  0  0  0  0  0
   -6.6099   -6.1795   -3.0068 C   0  0  0  0  0  0  0  0  0  0  0  0
   -7.6991   -6.1002   -2.3372 N   0  0  0  0  0  0  0  0  0  0  0  0
   -5.9845   -7.3687   -3.0948 N   0  0  0  0  0  0  0  0  0  0  0  0
   -0.8799    2.7127   -0.8189 H   0  0  0  0  0  0  0  0  0  0  0  0
   -3.6155    4.5627   -3.5968 H   0  0  0  0  0  0  0  0  0  0  0  0
   -5.5137    3.4562   -2.4648 H   0  0  0  0  0  0  0  0  0  0  0  0
   -2.7780    1.6659    0.3488 H   0  0  0  0  0  0  0  0  0  0  0  0
   -0.9502    4.0819   -4.0502 H   0  0  0  0  0  0  0  0  0  0  0  0
   -1.0528    5.4610   -2.9200 H   0  0  0  0  0  0  0  0  0  0  0  0
   -0.0041    4.0819   -2.5562 H   0  0  0  0  0  0  0  0  0  0  0  0
   -7.1798    0.6424   -1.4926 H   0  0  0  0  0  0  0  0  0  0  0  0
   -5.8704   -1.3098   -0.5629 H   0  0  0  0  0  0  0  0  0  0  0  0
   -1.6034   -1.9316   -0.9903 H   0  0  0  0  0  0  0  0  0  0  0  0
   -1.6975   -0.2026   -0.5294 H   0  0  0  0  0  0  0  0  0  0  0  0
   -1.8017   -1.4551    0.7126 H   0  0  0  0  0  0  0  0  0  0  0  0
   -7.2536   -1.4468   -2.6586 H   0  0  0  0  0  0  0  0  0  0  0  0
   -5.8280   -1.0774   -3.6202 H   0  0  0  0  0  0  0  0  0  0  0  0
   -4.6841   -3.1179   -2.6831 H   0  0  0  0  0  0  0  0  0  0  0  0
   -6.0996   -3.4497   -1.6930 H   0  0  0  0  0  0  0  0  0  0  0  0
   -7.4708   -3.7300   -3.8127 H   0  0  0  0  0  0  0  0  0  0  0  0
   -6.0209   -3.4273   -4.7564 H   0  0  0  0  0  0  0  0  0  0  0  0
   -5.1951   -5.4871   -4.2610 H   0  0  0  0  0  0  0  0  0  0  0  0
   -8.0530   -5.1464   -2.3796 H   0  0  0  0  0  0  0  0  0  0  0  0
   -4.9883   -7.3312   -2.9318 H   0  0  0  0  0  0  0  0  0  0  0  0
   -6.4283   -8.0265   -2.4567 H   0  0  0  0  0  0  0  0  0  0  0  0
  1  2  2  0  0  0  0
  1 24  1  0  0  0  0
  2  3  1  0  0  0  0
  2  7  1  0  0  0  0
  3  4  2  0  0  0  0
  3 25  1  0  0  0  0
  4  5  1  0  0  0  0
  4 26  1  0  0  0  0
  5  6  2  0  0  0  0
  5  8  1  0  0  0  0
  6  1  1  0  0  0  0
  6 27  1  0  0  0  0
  7 28  1  0  0  0  0
  7 29  1  0  0  0  0
  7 30  1  0  0  0  0
  8  9  1  0  0  0  0
  8 10  2  0  0  0  0
  8 11  2  0  0  0  0
  9 31  1  0  0  0  0
 12 17  1  0  0  0  0
 12 32  1  1  0  0  0
 12 13  1  0  0  0  0
 12  9  1  0  0  0  0
 13 14  1  0  0  0  0
 13 15  2  0  0  0  0
 14 16  1  0  0  0  0
 16 33  1  0  0  0  0
 16 34  1  0  0  0  0
 16 35  1  0  0  0  0
 17 18  1  0  0  0  0
 17 36  1  0  0  0  0
 17 37  1  0  0  0  0
 18 19  1  0  0  0  0
 18 38  1  0  0  0  0
 18 39  1  0  0  0  0
 19 20  1  0  0  0  0
 19 40  1  0  0  0  0
 19 41  1  0  0  0  0
 20 21  1  0  0  0  0
 20 42  1  0  0  0  0
 21 22  2  0  0  0  0
 21 23  1  0  0  0  0
 22 43  1  0  0  0  0
 23 44  1  0  0  0  0
 23 45  1  0  0  0  0
M  END
>  <Mol_ID>
801

>  <Formula>
C14H22N4O4S

>  <MolWeight>
342.41388

>  <Cat>
S2225

>  <Name>
TAME

>  <Synonyms>
N/A

>  <Target>
APC,E3 Ligase

>  <Form>
free base

>  <CAS>
901-47-3

>  <URL>
http://selleckchem.com/products/TAME.html

$$$$
