Tamibarotene.cdx
 OpenBabel08302522063D

 51 53  0  0  0  0  0  0  0  0999 V2000
    0.7433    0.3197    0.0312 C   0  0  0  0  0  0  0  0  0  0  0  0
   -0.1338   -0.7658   -0.0009 C   0  0  0  0  0  0  0  0  0  0  0  0
    0.2578    1.7673    0.0621 C   0  0  0  0  0  0  0  0  0  0  0  0
    2.1385    0.0408   -0.0004 C   0  0  0  0  0  0  0  0  0  0  0  0
    0.4032   -2.0735    0.0466 C   0  0  0  0  0  0  0  0  0  0  0  0
   -1.6582   -0.6264   -0.0743 C   0  0  0  0  0  0  0  0  0  0  0  0
   -1.2582    1.8869    0.3583 C   0  0  0  0  0  0  0  0  0  0  0  0
    0.5933    2.4345   -1.2890 C   0  0  0  0  0  0  0  0  0  0  0  0
    0.9588    2.5590    1.1930 C   0  0  0  0  0  0  0  0  0  0  0  0
    2.6407   -1.2681   -0.0003 C   0  0  0  0  0  0  0  0  0  0  0  0
    1.7695   -2.3476    0.0462 C   0  0  0  0  0  0  0  0  0  0  0  0
   -2.1293    0.8286   -0.2905 C   0  0  0  0  0  0  0  0  0  0  0  0
   -2.2030   -1.4291   -1.2850 C   0  0  0  0  0  0  0  0  0  0  0  0
   -2.2859   -1.2071    1.2156 C   0  0  0  0  0  0  0  0  0  0  0  0
    2.2947   -3.6666    0.0766 N   0  0  0  0  0  0  0  0  0  0  0  0
    1.5316   -4.8284    0.1159 C   0  0  0  0  0  0  0  0  0  0  0  0
    2.2372   -6.1360    0.1474 C   0  0  0  0  0  0  0  0  0  0  0  0
    0.3069   -4.8933    0.1269 O   0  0  0  0  0  0  0  0  0  0  0  0
    3.5062   -6.3212    0.6978 C   0  0  0  0  0  0  0  0  0  0  0  0
    1.5105   -7.2560   -0.3033 C   0  0  0  0  0  0  0  0  0  0  0  0
    4.0344   -7.6192    0.7880 C   0  0  0  0  0  0  0  0  0  0  0  0
    2.0350   -8.5482   -0.2107 C   0  0  0  0  0  0  0  0  0  0  0  0
    3.3066   -8.7312    0.3295 C   0  0  0  0  0  0  0  0  0  0  0  0
    3.9033  -10.0795    0.5222 C   0  0  0  0  0  0  0  0  0  0  0  0
    3.5355  -11.0042   -0.3857 O   0  0  0  0  0  0  0  0  0  0  0  0
    4.7021  -10.3120    1.4164 O   0  0  0  0  0  0  0  0  0  0  0  0
    2.8575    0.8574   -0.0349 H   0  0  0  0  0  0  0  0  0  0  0  0
   -0.3077   -2.8881    0.0765 H   0  0  0  0  0  0  0  0  0  0  0  0
   -1.4404    1.8581    1.4399 H   0  0  0  0  0  0  0  0  0  0  0  0
   -1.6176    2.8721    0.0269 H   0  0  0  0  0  0  0  0  0  0  0  0
    1.6744    2.4464   -1.4764 H   0  0  0  0  0  0  0  0  0  0  0  0
    0.1246    1.9086   -2.1282 H   0  0  0  0  0  0  0  0  0  0  0  0
    0.2572    3.4774   -1.3134 H   0  0  0  0  0  0  0  0  0  0  0  0
    0.7624    2.0978    2.1693 H   0  0  0  0  0  0  0  0  0  0  0  0
    2.0444    2.6103    1.0694 H   0  0  0  0  0  0  0  0  0  0  0  0
    0.5893    3.5906    1.2335 H   0  0  0  0  0  0  0  0  0  0  0  0
    3.7174   -1.4135   -0.0269 H   0  0  0  0  0  0  0  0  0  0  0  0
   -3.1528    0.9422    0.0954 H   0  0  0  0  0  0  0  0  0  0  0  0
   -2.1999    1.0536   -1.3617 H   0  0  0  0  0  0  0  0  0  0  0  0
   -2.0340   -2.5071   -1.1946 H   0  0  0  0  0  0  0  0  0  0  0  0
   -3.2831   -1.2842   -1.3981 H   0  0  0  0  0  0  0  0  0  0  0  0
   -1.7203   -1.1031   -2.2151 H   0  0  0  0  0  0  0  0  0  0  0  0
   -3.3749   -1.0878    1.2196 H   0  0  0  0  0  0  0  0  0  0  0  0
   -2.0947   -2.2834    1.3149 H   0  0  0  0  0  0  0  0  0  0  0  0
   -1.8852   -0.7251    2.1140 H   0  0  0  0  0  0  0  0  0  0  0  0
    3.2972   -3.7443    0.0247 H   0  0  0  0  0  0  0  0  0  0  0  0
    4.0735   -5.4948    1.1146 H   0  0  0  0  0  0  0  0  0  0  0  0
    0.5024   -7.1230   -0.6942 H   0  0  0  0  0  0  0  0  0  0  0  0
    5.0086   -7.7680    1.2528 H   0  0  0  0  0  0  0  0  0  0  0  0
    1.4026   -9.3818   -0.5058 H   0  0  0  0  0  0  0  0  0  0  0  0
    2.9842  -10.6937   -1.1258 H   0  0  0  0  0  0  0  0  0  0  0  0
  1  2  2  0  0  0  0
  1  3  1  0  0  0  0
  1  4  1  0  0  0  0
  2  5  1  0  0  0  0
  2  6  1  0  0  0  0
  3  7  1  0  0  0  0
  3  8  1  0  0  0  0
  3  9  1  0  0  0  0
  4 10  2  0  0  0  0
  4 27  1  0  0  0  0
  5 11  2  0  0  0  0
  5 28  1  0  0  0  0
  6 12  1  0  0  0  0
  6 13  1  0  0  0  0
  6 14  1  0  0  0  0
  7 12  1  0  0  0  0
  7 29  1  0  0  0  0
  7 30  1  0  0  0  0
  8 31  1  0  0  0  0
  8 32  1  0  0  0  0
  8 33  1  0  0  0  0
  9 34  1  0  0  0  0
  9 35  1  0  0  0  0
  9 36  1  0  0  0  0
 10 11  1  0  0  0  0
 10 37  1  0  0  0  0
 11 15  1  0  0  0  0
 12 38  1  0  0  0  0
 12 39  1  0  0  0  0
 13 40  1  0  0  0  0
 13 41  1  0  0  0  0
 13 42  1  0  0  0  0
 14 43  1  0  0  0  0
 14 44  1  0  0  0  0
 14 45  1  0  0  0  0
 15 16  1  0  0  0  0
 15 46  1  0  0  0  0
 16 17  1  0  0  0  0
 16 18  2  0  0  0  0
 17 19  2  0  0  0  0
 17 20  1  0  0  0  0
 19 21  1  0  0  0  0
 19 47  1  0  0  0  0
 20 22  2  0  0  0  0
 20 48  1  0  0  0  0
 21 23  2  0  0  0  0
 21 49  1  0  0  0  0
 22 23  1  0  0  0  0
 22 50  1  0  0  0  0
 23 24  1  0  0  0  0
 24 25  1  0  0  0  0
 24 26  2  0  0  0  0
 25 51  1  0  0  0  0
M  END
>  <Mol_ID>
1406

>  <Formula>
C22H25NO3

>  <MolWeight>
351.4388

>  <Cat>
S4260

>  <Name>
Tamibarotene

>  <Synonyms>
Am 80

>  <Target>
Retinoid Receptor

>  <Form>
free base

>  <CAS>
94497-51-5

>  <URL>
http://selleckchem.com/products/tamibarotene.html

$$$$
