Tamsulosin.cdx
 OpenBabel08302520303D

 56 57  0  0  0  0  0  0  0  0999 V2000
   -2.2942    6.4326   -1.0837 C   0  0  0  0  0  0  0  0  0  0  0  0
   -2.0168    6.5522    0.2730 C   0  0  0  0  0  0  0  0  0  0  0  0
   -2.0423    5.4231    1.0985 C   0  0  0  0  0  0  0  0  0  0  0  0
   -2.3325    4.1322    0.6027 C   0  0  0  0  0  0  0  0  0  0  0  0
   -2.6805    4.0252   -0.7431 C   0  0  0  0  0  0  0  0  0  0  0  0
   -2.6365    5.1667   -1.5788 C   0  0  0  0  0  0  0  0  0  0  0  0
   -2.2165    2.9839    1.5875 C   0  0  0  0  0  0  0  0  0  0  0  0
   -2.5013    1.4631    1.3012 C   0  0  2  0  0  0  0  0  0  0  0  0
   -1.4159    0.5616    0.7514 N   0  0  0  0  0  0  0  0  0  0  0  0
   -3.9846    1.2615    0.9333 C   0  0  0  0  0  0  0  0  0  0  0  0
   -1.1508    0.4435   -0.7066 C   0  0  0  0  0  0  0  0  0  0  0  0
    0.2050   -0.3074   -1.2842 C   0  0  0  0  0  0  0  0  0  0  0  0
    0.3480   -1.7786   -1.3613 O   0  0  0  0  0  0  0  0  0  0  0  0
    1.5234   -2.3025   -1.9569 C   0  0  0  0  0  0  0  0  0  0  0  0
   -2.1741    7.4631   -1.9758 O   0  0  0  0  0  0  0  0  0  0  0  0
   -2.2942    8.7863   -1.4678 C   0  0  0  0  0  0  0  0  0  0  0  0
   -2.9876    4.9969   -3.3105 S   0  0  0  0  0  0  0  0  0  0  0  0
    1.8312   -3.7019   -1.9586 C   0  0  0  0  0  0  0  0  0  0  0  0
    3.1008   -4.1594   -2.4100 C   0  0  0  0  0  0  0  0  0  0  0  0
    4.0072   -3.3303   -3.0386 C   0  0  0  0  0  0  0  0  0  0  0  0
    3.6645   -2.0037   -3.1897 C   0  0  0  0  0  0  0  0  0  0  0  0
    2.4708   -1.4888   -2.6190 C   0  0  0  0  0  0  0  0  0  0  0  0
    0.9159   -4.6644   -1.5636 O   0  0  0  0  0  0  0  0  0  0  0  0
    0.9375   -5.8566   -2.4020 C   0  0  0  0  0  0  0  0  0  0  0  0
    1.6320   -7.0584   -1.7425 C   0  0  0  0  0  0  0  0  0  0  0  0
   -1.5048    5.3102   -4.0089 N   0  0  0  0  0  0  0  0  0  0  0  0
   -3.2516    3.6059   -3.5904 O   0  0  0  0  0  0  0  0  0  0  0  0
   -3.9040    6.0395   -3.7343 O   0  0  0  0  0  0  0  0  0  0  0  0
   -1.7312    7.5031    0.7155 H   0  0  0  0  0  0  0  0  0  0  0  0
   -1.7961    5.5558    2.1524 H   0  0  0  0  0  0  0  0  0  0  0  0
   -2.9574    3.0667   -1.1687 H   0  0  0  0  0  0  0  0  0  0  0  0
   -1.2163    3.0462    2.0343 H   0  0  0  0  0  0  0  0  0  0  0  0
   -2.9082    3.2640    2.4036 H   0  0  0  0  0  0  0  0  0  0  0  0
   -2.5021    1.0883    2.3403 H   0  0  0  0  0  0  0  0  0  0  0  0
   -1.6068   -0.3833    1.0940 H   0  0  0  0  0  0  0  0  0  0  0  0
   -4.2572    0.2051    0.8907 H   0  0  0  0  0  0  0  0  0  0  0  0
   -4.6163    1.7021    1.7234 H   0  0  0  0  0  0  0  0  0  0  0  0
   -4.2799    1.7449    0.0008 H   0  0  0  0  0  0  0  0  0  0  0  0
   -2.0252    0.0072   -1.1963 H   0  0  0  0  0  0  0  0  0  0  0  0
   -1.0421    1.4779   -1.0568 H   0  0  0  0  0  0  0  0  0  0  0  0
    0.2389    0.0387   -2.3261 H   0  0  0  0  0  0  0  0  0  0  0  0
    1.0717    0.1029   -0.7520 H   0  0  0  0  0  0  0  0  0  0  0  0
   -3.2332    8.9129   -0.9196 H   0  0  0  0  0  0  0  0  0  0  0  0
   -1.4324    9.0551   -0.8494 H   0  0  0  0  0  0  0  0  0  0  0  0
   -2.3081    9.4702   -2.3227 H   0  0  0  0  0  0  0  0  0  0  0  0
    3.3920   -5.2072   -2.3174 H   0  0  0  0  0  0  0  0  0  0  0  0
    4.9319   -3.7389   -3.4508 H   0  0  0  0  0  0  0  0  0  0  0  0
    4.3347   -1.3546   -3.7475 H   0  0  0  0  0  0  0  0  0  0  0  0
    2.3027   -0.4313   -2.7683 H   0  0  0  0  0  0  0  0  0  0  0  0
   -0.1017   -6.1353   -2.6021 H   0  0  0  0  0  0  0  0  0  0  0  0
    1.3787   -5.6684   -3.3889 H   0  0  0  0  0  0  0  0  0  0  0  0
    0.9729   -7.5306   -1.0084 H   0  0  0  0  0  0  0  0  0  0  0  0
    1.8820   -7.8165   -2.4958 H   0  0  0  0  0  0  0  0  0  0  0  0
    2.5510   -6.7942   -1.2116 H   0  0  0  0  0  0  0  0  0  0  0  0
   -1.2493    4.5823   -4.6654 H   0  0  0  0  0  0  0  0  0  0  0  0
   -1.4625    6.2676   -4.3410 H   0  0  0  0  0  0  0  0  0  0  0  0
  1  2  2  0  0  0  0
  1 15  1  0  0  0  0
  2  3  1  0  0  0  0
  2 29  1  0  0  0  0
  3  4  2  0  0  0  0
  3 30  1  0  0  0  0
  4  5  1  0  0  0  0
  4  7  1  0  0  0  0
  5  6  2  0  0  0  0
  5 31  1  0  0  0  0
  6  1  1  0  0  0  0
  6 17  1  0  0  0  0
  7 32  1  0  0  0  0
  7 33  1  0  0  0  0
  8 10  1  0  0  0  0
  8 34  1  1  0  0  0
  8  9  1  0  0  0  0
  8  7  1  0  0  0  0
  9 11  1  0  0  0  0
  9 35  1  0  0  0  0
 10 36  1  0  0  0  0
 10 37  1  0  0  0  0
 10 38  1  0  0  0  0
 11 12  1  0  0  0  0
 11 39  1  0  0  0  0
 11 40  1  0  0  0  0
 12 13  1  0  0  0  0
 12 41  1  0  0  0  0
 12 42  1  0  0  0  0
 13 14  1  0  0  0  0
 14 18  2  0  0  0  0
 15 16  1  0  0  0  0
 16 43  1  0  0  0  0
 16 44  1  0  0  0  0
 16 45  1  0  0  0  0
 17 26  1  0  0  0  0
 17 27  2  0  0  0  0
 17 28  2  0  0  0  0
 18 19  1  0  0  0  0
 18 23  1  0  0  0  0
 19 20  2  0  0  0  0
 19 46  1  0  0  0  0
 20 21  1  0  0  0  0
 20 47  1  0  0  0  0
 21 22  2  0  0  0  0
 21 48  1  0  0  0  0
 22 14  1  0  0  0  0
 22 49  1  0  0  0  0
 23 24  1  0  0  0  0
 24 25  1  0  0  0  0
 24 50  1  0  0  0  0
 24 51  1  0  0  0  0
 25 52  1  0  0  0  0
 25 53  1  0  0  0  0
 25 54  1  0  0  0  0
 26 55  1  0  0  0  0
 26 56  1  0  0  0  0
M  END
>  <Mol_ID>
3305

>  <Formula>
C20H28N2O5S

>  <MolWeight>
408.51172

>  <Cat>
S1435

>  <Name>
Tamsulosin hydrochloride

>  <Synonyms>
Flomax hydrochloride

>  <Target>
Adrenergic Receptor

>  <Form>
HCl

>  <CAS>
106463-17-6

>  <URL>
https://www.selleckchem.com/products/Tamsulosin-hydrochloride.html

$$$$
