Tangeretin.cdx
 OpenBabel08302521253D

 47 49  0  0  0  0  0  0  0  0999 V2000
    2.5771   -0.2079    0.0139 C   0  0  0  0  0  0  0  0  0  0  0  0
    2.1840    1.1618    0.0112 C   0  0  0  0  0  0  0  0  0  0  0  0
    0.8082    1.5468    0.0527 C   0  0  0  0  0  0  0  0  0  0  0  0
   -0.1696    0.5259    0.1099 C   0  0  0  0  0  0  0  0  0  0  0  0
    0.2492   -0.8335    0.0927 C   0  0  0  0  0  0  0  0  0  0  0  0
    1.6032   -1.2152    0.0471 C   0  0  0  0  0  0  0  0  0  0  0  0
   -1.6546    0.7278    0.2059 C   0  0  0  0  0  0  0  0  0  0  0  0
   -2.5279   -0.4347    0.0149 C   0  0  0  0  0  0  0  0  0  0  0  0
   -1.9726   -1.6436   -0.0107 C   0  0  0  0  0  0  0  0  0  0  0  0
   -0.6432   -1.8774    0.1191 O   0  0  0  0  0  0  0  0  0  0  0  0
   -2.7849   -2.8371   -0.1965 C   0  0  0  0  0  0  0  0  0  0  0  0
   -2.2335    1.7749    0.4497 O   0  0  0  0  0  0  0  0  0  0  0  0
   -3.0390   -3.2930   -1.4933 C   0  0  0  0  0  0  0  0  0  0  0  0
   -3.8418   -4.4142   -1.7020 C   0  0  0  0  0  0  0  0  0  0  0  0
   -4.3979   -5.0869   -0.6142 C   0  0  0  0  0  0  0  0  0  0  0  0
   -4.1211   -4.6440    0.6829 C   0  0  0  0  0  0  0  0  0  0  0  0
   -3.3159   -3.5235    0.8968 C   0  0  0  0  0  0  0  0  0  0  0  0
   -5.2219   -6.1757   -0.6888 O   0  0  0  0  0  0  0  0  0  0  0  0
   -5.5650   -6.6215   -1.9958 C   0  0  0  0  0  0  0  0  0  0  0  0
    2.0659   -2.5015    0.0305 O   0  0  0  0  0  0  0  0  0  0  0  0
    3.9453   -0.4031   -0.0305 O   0  0  0  0  0  0  0  0  0  0  0  0
    1.2369   -3.6490    0.0724 C   0  0  0  0  0  0  0  0  0  0  0  0
    4.4877   -1.7163   -0.0056 C   0  0  0  0  0  0  0  0  0  0  0  0
    0.6509    2.8974    0.0189 O   0  0  0  0  0  0  0  0  0  0  0  0
   -0.5553    3.6241   -0.0094 C   0  0  0  0  0  0  0  0  0  0  0  0
    3.2775    2.0128   -0.0401 O   0  0  0  0  0  0  0  0  0  0  0  0
    3.1386    3.4244   -0.0624 C   0  0  0  0  0  0  0  0  0  0  0  0
   -3.5922   -0.2529   -0.0651 H   0  0  0  0  0  0  0  0  0  0  0  0
   -2.6164   -2.7743   -2.3508 H   0  0  0  0  0  0  0  0  0  0  0  0
   -4.0166   -4.7296   -2.7247 H   0  0  0  0  0  0  0  0  0  0  0  0
   -4.5454   -5.1732    1.5328 H   0  0  0  0  0  0  0  0  0  0  0  0
   -3.1157   -3.1924    1.9138 H   0  0  0  0  0  0  0  0  0  0  0  0
   -6.0563   -5.8297   -2.5722 H   0  0  0  0  0  0  0  0  0  0  0  0
   -4.6815   -7.0009   -2.5200 H   0  0  0  0  0  0  0  0  0  0  0  0
   -6.2758   -7.4464   -1.8947 H   0  0  0  0  0  0  0  0  0  0  0  0
    0.6533   -3.6905    0.9966 H   0  0  0  0  0  0  0  0  0  0  0  0
    0.6128   -3.7215   -0.8233 H   0  0  0  0  0  0  0  0  0  0  0  0
    1.8964   -4.5234    0.0732 H   0  0  0  0  0  0  0  0  0  0  0  0
    4.2260   -2.2425    0.9197 H   0  0  0  0  0  0  0  0  0  0  0  0
    4.2001   -2.2804   -0.8997 H   0  0  0  0  0  0  0  0  0  0  0  0
    5.5786   -1.6384   -0.0234 H   0  0  0  0  0  0  0  0  0  0  0  0
   -1.1726    3.3499   -0.8687 H   0  0  0  0  0  0  0  0  0  0  0  0
   -1.0625    3.5668    0.9564 H   0  0  0  0  0  0  0  0  0  0  0  0
   -0.2973    4.6808   -0.1398 H   0  0  0  0  0  0  0  0  0  0  0  0
    2.6268    3.7613   -0.9700 H   0  0  0  0  0  0  0  0  0  0  0  0
    2.6617    3.7960    0.8503 H   0  0  0  0  0  0  0  0  0  0  0  0
    4.1431    3.8590   -0.0893 H   0  0  0  0  0  0  0  0  0  0  0  0
  1  2  2  0  0  0  0
  1 21  1  0  0  0  0
  2  3  1  0  0  0  0
  2 26  1  0  0  0  0
  3  4  2  0  0  0  0
  3 24  1  0  0  0  0
  4  5  1  0  0  0  0
  4  7  1  0  0  0  0
  5  6  2  0  0  0  0
  6  1  1  0  0  0  0
  6 20  1  0  0  0  0
  7  8  1  0  0  0  0
  7 12  2  0  0  0  0
  8  9  2  0  0  0  0
  8 28  1  0  0  0  0
  9 10  1  0  0  0  0
  9 11  1  0  0  0  0
 10  5  1  0  0  0  0
 11 13  2  0  0  0  0
 13 14  1  0  0  0  0
 13 29  1  0  0  0  0
 14 15  2  0  0  0  0
 14 30  1  0  0  0  0
 15 16  1  0  0  0  0
 15 18  1  0  0  0  0
 16 17  2  0  0  0  0
 16 31  1  0  0  0  0
 17 11  1  0  0  0  0
 17 32  1  0  0  0  0
 18 19  1  0  0  0  0
 19 33  1  0  0  0  0
 19 34  1  0  0  0  0
 19 35  1  0  0  0  0
 20 22  1  0  0  0  0
 22 36  1  0  0  0  0
 22 37  1  0  0  0  0
 22 38  1  0  0  0  0
 23 21  1  0  0  0  0
 23 39  1  0  0  0  0
 23 40  1  0  0  0  0
 23 41  1  0  0  0  0
 24 25  1  0  0  0  0
 25 42  1  0  0  0  0
 25 43  1  0  0  0  0
 25 44  1  0  0  0  0
 26 27  1  0  0  0  0
 27 45  1  0  0  0  0
 27 46  1  0  0  0  0
 27 47  1  0  0  0  0
M  END
>  <Mol_ID>
485

>  <Formula>
C20H20O7

>  <MolWeight>
372.3686

>  <Cat>
S2363

>  <Name>
Tangeretin

>  <Synonyms>
Tangeritin

>  <Target>
Antioxidant

>  <Form>
free base

>  <CAS>
481-53-8

>  <URL>
http://selleckchem.com/products/Tangeretin(Tangeritin).html

$$$$
