Tapinarof
 OpenBabel08302521303D

 37 38  0  0  0  0  0  0  0  0999 V2000
    1.1418   -0.2652    0.0146 C   0  0  0  0  0  0  0  0  0  0  0  0
   -0.0478   -1.0113   -0.0014 C   0  0  0  0  0  0  0  0  0  0  0  0
   -1.2514   -0.2905   -0.0060 C   0  0  0  0  0  0  0  0  0  0  0  0
   -1.2710    1.1074    0.0165 C   0  0  0  0  0  0  0  0  0  0  0  0
   -0.0772    1.8341    0.0571 C   0  0  0  0  0  0  0  0  0  0  0  0
    1.1333    1.1341    0.0395 C   0  0  0  0  0  0  0  0  0  0  0  0
    2.3441   -0.9209    0.0002 O   0  0  0  0  0  0  0  0  0  0  0  0
   -2.4431   -0.9618   -0.0437 O   0  0  0  0  0  0  0  0  0  0  0  0
   -0.0547    3.3052    0.0370 C   0  0  0  0  0  0  0  0  0  0  0  0
   -1.0099    4.0832    0.5736 C   0  0  0  0  0  0  0  0  0  0  0  0
   -1.0128    5.5540    0.5220 C   0  0  0  0  0  0  0  0  0  0  0  0
   -0.4370    6.2712   -0.5351 C   0  0  0  0  0  0  0  0  0  0  0  0
   -0.4994    7.6665   -0.5679 C   0  0  0  0  0  0  0  0  0  0  0  0
   -1.1515    8.3603    0.4480 C   0  0  0  0  0  0  0  0  0  0  0  0
   -1.7466    7.6593    1.4943 C   0  0  0  0  0  0  0  0  0  0  0  0
   -1.6804    6.2645    1.5296 C   0  0  0  0  0  0  0  0  0  0  0  0
   -0.0079   -2.5337   -0.0240 C   0  0  0  0  0  0  0  0  0  0  0  0
   -0.6886   -3.1536    1.2009 C   0  0  0  0  0  0  0  0  0  0  0  0
   -0.5708   -3.1037   -1.3295 C   0  0  0  0  0  0  0  0  0  0  0  0
   -2.2213    1.6312   -0.0146 H   0  0  0  0  0  0  0  0  0  0  0  0
    2.0702    1.6843    0.0487 H   0  0  0  0  0  0  0  0  0  0  0  0
    3.0640   -0.2700    0.0203 H   0  0  0  0  0  0  0  0  0  0  0  0
   -3.1731   -0.3228   -0.0237 H   0  0  0  0  0  0  0  0  0  0  0  0
    0.8136    3.7485   -0.4438 H   0  0  0  0  0  0  0  0  0  0  0  0
   -1.8515    3.6414    1.1017 H   0  0  0  0  0  0  0  0  0  0  0  0
    0.0552    5.7549   -1.3554 H   0  0  0  0  0  0  0  0  0  0  0  0
   -0.0447    8.2082   -1.3932 H   0  0  0  0  0  0  0  0  0  0  0  0
   -1.2048    9.4456    0.4190 H   0  0  0  0  0  0  0  0  0  0  0  0
   -2.2655    8.1972    2.2835 H   0  0  0  0  0  0  0  0  0  0  0  0
   -2.1550    5.7371    2.3550 H   0  0  0  0  0  0  0  0  0  0  0  0
    1.0365   -2.8659    0.0219 H   0  0  0  0  0  0  0  0  0  0  0  0
   -1.7647   -2.9591    1.2309 H   0  0  0  0  0  0  0  0  0  0  0  0
   -0.5562   -4.2408    1.2031 H   0  0  0  0  0  0  0  0  0  0  0  0
   -0.2534   -2.7614    2.1269 H   0  0  0  0  0  0  0  0  0  0  0  0
   -0.0388   -2.6917   -2.1945 H   0  0  0  0  0  0  0  0  0  0  0  0
   -0.4554   -4.1927   -1.3543 H   0  0  0  0  0  0  0  0  0  0  0  0
   -1.6349   -2.8847   -1.4594 H   0  0  0  0  0  0  0  0  0  0  0  0
  1  2  2  0  0  0  0
  1  6  1  0  0  0  0
  1  7  1  0  0  0  0
  2  3  1  0  0  0  0
  2 17  1  0  0  0  0
  3  4  2  0  0  0  0
  3  8  1  0  0  0  0
  4  5  1  0  0  0  0
  4 20  1  0  0  0  0
  5  6  2  0  0  0  0
  5  9  1  0  0  0  0
  6 21  1  0  0  0  0
  7 22  1  0  0  0  0
  8 23  1  0  0  0  0
  9 10  2  0  0  0  0
  9 24  1  0  0  0  0
 10 11  1  0  0  0  0
 10 25  1  0  0  0  0
 11 12  2  0  0  0  0
 11 16  1  0  0  0  0
 12 13  1  0  0  0  0
 12 26  1  0  0  0  0
 13 14  2  0  0  0  0
 13 27  1  0  0  0  0
 14 15  1  0  0  0  0
 14 28  1  0  0  0  0
 15 16  2  0  0  0  0
 15 29  1  0  0  0  0
 16 30  1  0  0  0  0
 17 18  1  0  0  0  0
 17 19  1  0  0  0  0
 17 31  1  0  0  0  0
 18 32  1  0  0  0  0
 18 33  1  0  0  0  0
 18 34  1  0  0  0  0
 19 35  1  0  0  0  0
 19 36  1  0  0  0  0
 19 37  1  0  0  0  0
M  END
>  <Mol_ID>
5565

>  <Formula>
C17H18O2

>  <MolWeight>
254.32362

>  <Cat>
S9700

>  <Name>
Tapinarof

>  <Synonyms>
GSK2894512, Benvitimod, WBI 1001, DHPS, DMVT 505

>  <Target>
AhR,Apoptosis related

>  <Form>
Free Base

>  <CAS>
79338-84-4

>  <URL>
https://www.selleckchem.com/products/tapinarof.html

$$$$
