Taprenepag
 OpenBabel08302521323D

 56 59  0  0  0  0  0  0  0  0999 V2000
    0.9382    0.0023    0.0043 N   0  0  0  0  0  0  0  0  0  0  0  0
    0.3326   -0.0465    1.3666 C   0  0  0  0  0  0  0  0  0  0  0  0
    0.3196    1.0453   -1.1983 S   0  0  0  0  0  0  0  0  0  0  0  0
    2.4141   -0.1194   -0.0211 C   0  0  0  0  0  0  0  0  0  0  0  0
   -0.3406    2.1843   -0.6147 O   0  0  0  0  0  0  0  0  0  0  0  0
    1.3601    1.2466   -2.1900 O   0  0  0  0  0  0  0  0  0  0  0  0
   -1.5851    4.2641    2.5821 O   0  0  0  0  0  0  0  0  0  0  0  0
   -1.6469    5.3831    3.4771 C   0  0  0  0  0  0  0  0  0  0  0  0
   -3.0176    6.0305    3.4122 C   0  0  0  0  0  0  0  0  0  0  0  0
   -3.9544    5.1817    2.9531 O   0  0  0  0  0  0  0  0  0  0  0  0
   -3.2584    7.1962    3.6963 O   0  0  0  0  0  0  0  0  0  0  0  0
    0.3978    1.2233    2.1998 C   0  0  0  0  0  0  0  0  0  0  0  0
   -0.6467    2.1557    2.1531 C   0  0  0  0  0  0  0  0  0  0  0  0
    1.4842    1.5054    3.0175 C   0  0  0  0  0  0  0  0  0  0  0  0
   -0.5495    3.3911    2.7995 C   0  0  0  0  0  0  0  0  0  0  0  0
    1.5755    2.7183    3.7149 C   0  0  0  0  0  0  0  0  0  0  0  0
    0.5741    3.6749    3.5561 C   0  0  0  0  0  0  0  0  0  0  0  0
   -0.9441    0.1182   -2.0068 C   0  0  0  0  0  0  0  0  0  0  0  0
   -2.1077   -0.2754   -1.3511 C   0  0  0  0  0  0  0  0  0  0  0  0
   -0.8489   -0.0865   -3.3744 C   0  0  0  0  0  0  0  0  0  0  0  0
   -3.1218   -0.8842   -2.0896 C   0  0  0  0  0  0  0  0  0  0  0  0
   -1.8238   -0.6729   -4.1128 N   0  0  0  0  0  0  0  0  0  0  0  0
   -2.9391   -1.0536   -3.4541 C   0  0  0  0  0  0  0  0  0  0  0  0
    2.9574   -1.3933    0.5797 C   0  0  0  0  0  0  0  0  0  0  0  0
    2.5755   -2.6482    0.0797 C   0  0  0  0  0  0  0  0  0  0  0  0
    3.9277   -1.3237    1.5841 C   0  0  0  0  0  0  0  0  0  0  0  0
    3.1772   -3.8144    0.5490 C   0  0  0  0  0  0  0  0  0  0  0  0
    4.5227   -2.4850    2.0652 C   0  0  0  0  0  0  0  0  0  0  0  0
    4.1644   -3.7326    1.5397 C   0  0  0  0  0  0  0  0  0  0  0  0
    4.8406   -4.8908    2.0098 N   0  0  0  0  0  0  0  0  0  0  0  0
    4.6877   -6.1981    1.5991 C   0  0  0  0  0  0  0  0  0  0  0  0
    5.7765   -4.7950    2.9927 N   0  0  0  0  0  0  0  0  0  0  0  0
    5.5436   -6.9640    2.3560 C   0  0  0  0  0  0  0  0  0  0  0  0
    6.1903   -6.0422    3.1955 C   0  0  0  0  0  0  0  0  0  0  0  0
   -0.7037   -0.3922    1.2988 H   0  0  0  0  0  0  0  0  0  0  0  0
    0.8150   -0.8399    1.9536 H   0  0  0  0  0  0  0  0  0  0  0  0
    2.7898   -0.1358   -1.0501 H   0  0  0  0  0  0  0  0  0  0  0  0
    2.8556    0.7597    0.4620 H   0  0  0  0  0  0  0  0  0  0  0  0
   -1.4876    5.0655    4.5152 H   0  0  0  0  0  0  0  0  0  0  0  0
   -0.9151    6.1338    3.1588 H   0  0  0  0  0  0  0  0  0  0  0  0
   -4.4592    5.6739    2.2771 H   0  0  0  0  0  0  0  0  0  0  0  0
   -1.5462    1.9409    1.5641 H   0  0  0  0  0  0  0  0  0  0  0  0
    2.3002    0.7907    3.1477 H   0  0  0  0  0  0  0  0  0  0  0  0
    2.4199    2.9317    4.3507 H   0  0  0  0  0  0  0  0  0  0  0  0
    0.7083    4.6354    4.0520 H   0  0  0  0  0  0  0  0  0  0  0  0
   -2.2509   -0.0857   -0.2938 H   0  0  0  0  0  0  0  0  0  0  0  0
    0.0125    0.2416   -3.9520 H   0  0  0  0  0  0  0  0  0  0  0  0
   -4.0453   -1.2020   -1.6174 H   0  0  0  0  0  0  0  0  0  0  0  0
   -3.7107   -1.5026   -4.0739 H   0  0  0  0  0  0  0  0  0  0  0  0
    1.8097   -2.7137   -0.6954 H   0  0  0  0  0  0  0  0  0  0  0  0
    4.2473   -0.3644    1.9848 H   0  0  0  0  0  0  0  0  0  0  0  0
    2.8664   -4.7590    0.1149 H   0  0  0  0  0  0  0  0  0  0  0  0
    5.2863   -2.3993    2.8371 H   0  0  0  0  0  0  0  0  0  0  0  0
    3.9987   -6.4794    0.8172 H   0  0  0  0  0  0  0  0  0  0  0  0
    5.6879   -8.0293    2.3003 H   0  0  0  0  0  0  0  0  0  0  0  0
    6.9441   -6.2282    3.9471 H   0  0  0  0  0  0  0  0  0  0  0  0
  1  2  1  0  0  0  0
  1  3  1  0  0  0  0
  1  4  1  0  0  0  0
  2 12  1  0  0  0  0
  2 35  1  0  0  0  0
  2 36  1  0  0  0  0
  3  5  2  0  0  0  0
  3  6  2  0  0  0  0
  3 18  1  0  0  0  0
  4 24  1  0  0  0  0
  4 37  1  0  0  0  0
  4 38  1  0  0  0  0
  7  8  1  0  0  0  0
  7 15  1  0  0  0  0
  8  9  1  0  0  0  0
  8 39  1  0  0  0  0
  8 40  1  0  0  0  0
  9 10  1  0  0  0  0
  9 11  2  0  0  0  0
 10 41  1  0  0  0  0
 12 13  2  0  0  0  0
 12 14  1  0  0  0  0
 13 15  1  0  0  0  0
 13 42  1  0  0  0  0
 14 16  2  0  0  0  0
 14 43  1  0  0  0  0
 15 17  2  0  0  0  0
 16 17  1  0  0  0  0
 16 44  1  0  0  0  0
 17 45  1  0  0  0  0
 18 19  2  0  0  0  0
 18 20  1  0  0  0  0
 19 21  1  0  0  0  0
 19 46  1  0  0  0  0
 20 22  2  0  0  0  0
 20 47  1  0  0  0  0
 21 23  2  0  0  0  0
 21 48  1  0  0  0  0
 22 23  1  0  0  0  0
 23 49  1  0  0  0  0
 24 25  2  0  0  0  0
 24 26  1  0  0  0  0
 25 27  1  0  0  0  0
 25 50  1  0  0  0  0
 26 28  2  0  0  0  0
 26 51  1  0  0  0  0
 27 29  2  0  0  0  0
 27 52  1  0  0  0  0
 28 29  1  0  0  0  0
 28 53  1  0  0  0  0
 29 30  1  0  0  0  0
 30 31  1  0  0  0  0
 30 32  1  0  0  0  0
 31 33  2  0  0  0  0
 31 54  1  0  0  0  0
 32 34  2  0  0  0  0
 33 34  1  0  0  0  0
 33 55  1  0  0  0  0
 34 56  1  0  0  0  0
M  END
>  <Mol_ID>
6145

>  <Formula>
C24H22N4O5S

>  <MolWeight>
478.52028

>  <Cat>
S0111

>  <Name>
Taprenepag

>  <Synonyms>
CP-544326

>  <Target>
Prostaglandin Receptor

>  <Form>
free base

>  <CAS>
752187-80-7

>  <URL>
http://www.selleckchem.com/products/cp544326.html

$$$$
