Tartaric acid
 OpenBabel08302520383D

 16 15  0  0  0  0  0  0  0  0999 V2000
    1.4039    1.8827    1.1791 C   0  0  2  0  0  0  0  0  0  0  0  0
    0.5018    0.6371    1.1144 C   0  0  2  0  0  0  0  0  0  0  0  0
    1.0619    2.7935    0.0092 C   0  0  0  0  0  0  0  0  0  0  0  0
    2.8124    1.5988    1.1480 O   0  0  0  0  0  0  0  0  0  0  0  0
    0.7950   -0.1371   -0.1722 C   0  0  0  0  0  0  0  0  0  0  0  0
   -0.8751    0.9155    1.3445 O   0  0  0  0  0  0  0  0  0  0  0  0
    2.1558    3.3403   -0.5651 O   0  0  0  0  0  0  0  0  0  0  0  0
   -0.0799    2.9573   -0.4069 O   0  0  0  0  0  0  0  0  0  0  0  0
    0.0843    0.2397   -1.2577 O   0  0  0  0  0  0  0  0  0  0  0  0
    1.6839   -0.9739   -0.2315 O   0  0  0  0  0  0  0  0  0  0  0  0
    1.2105    2.4526    2.0967 H   0  0  0  0  0  0  0  0  0  0  0  0
    0.7979   -0.0354    1.9278 H   0  0  0  0  0  0  0  0  0  0  0  0
    2.9469    0.6318    1.0500 H   0  0  0  0  0  0  0  0  0  0  0  0
   -1.2043    1.5606    0.6893 H   0  0  0  0  0  0  0  0  0  0  0  0
    2.9603    2.9858   -0.1112 H   0  0  0  0  0  0  0  0  0  0  0  0
   -0.4927    1.0226   -1.1564 H   0  0  0  0  0  0  0  0  0  0  0  0
  1  3  1  0  0  0  0
  1  4  1  0  0  0  0
  1 11  1  1  0  0  0
  2  6  1  0  0  0  0
  2 12  1  1  0  0  0
  2  5  1  0  0  0  0
  2  1  1  0  0  0  0
  3  7  1  0  0  0  0
  3  8  2  0  0  0  0
  4 13  1  0  0  0  0
  5  9  1  0  0  0  0
  5 10  2  0  0  0  0
  6 14  1  0  0  0  0
  7 15  1  0  0  0  0
  9 16  1  0  0  0  0
M  END
>  <Mol_ID>
3505

>  <Formula>
C4H6O6

>  <MolWeight>
150.08684

>  <Cat>
S6233

>  <Name>
Tartaric acid

>  <Synonyms>
2,3-Dihydroxysuccinic acid; Threaric acid; Racemic acid; Uvic acid; Paratartaric acid; Winestone

>  <Target>
Others

>  <Form>
free base

>  <CAS>
87-69-4

>  <URL>
http://www.selleck.cn/products/tartaric-acid.html

$$$$
