TAS-301
 OpenBabel08302520403D

 46 49  0  0  0  0  0  0  0  0999 V2000
   -1.1358   -0.8501    0.0313 C   0  0  0  0  0  0  0  0  0  0  0  0
   -1.7802    0.5337    0.0638 C   0  0  0  0  0  0  0  0  0  0  0  0
   -0.7299    1.4326    0.0804 N   0  0  0  0  0  0  0  0  0  0  0  0
   -1.8404   -2.0081    0.0676 C   0  0  0  0  0  0  0  0  0  0  0  0
    0.3287   -0.6010    0.0059 C   0  0  0  0  0  0  0  0  0  0  0  0
    0.4963    0.7891    0.0517 C   0  0  0  0  0  0  0  0  0  0  0  0
   -1.1686   -3.3252    0.2046 C   0  0  0  0  0  0  0  0  0  0  0  0
   -3.3253   -1.9905   -0.0128 C   0  0  0  0  0  0  0  0  0  0  0  0
   -2.9548    0.8417    0.1060 O   0  0  0  0  0  0  0  0  0  0  0  0
   -0.9146   -3.8507    1.4790 C   0  0  0  0  0  0  0  0  0  0  0  0
   -0.8662   -4.1001   -0.9197 C   0  0  0  0  0  0  0  0  0  0  0  0
   -3.9595   -2.0353   -1.2617 C   0  0  0  0  0  0  0  0  0  0  0  0
   -4.1086   -1.9744    1.1457 C   0  0  0  0  0  0  0  0  0  0  0  0
   -6.1349   -2.0009   -0.1952 C   0  0  0  0  0  0  0  0  0  0  0  0
   -0.0225   -5.8813    0.5048 C   0  0  0  0  0  0  0  0  0  0  0  0
   -5.3562   -2.0369   -1.3519 C   0  0  0  0  0  0  0  0  0  0  0  0
   -0.3418   -5.1198    1.6283 C   0  0  0  0  0  0  0  0  0  0  0  0
   -5.5040   -1.9789    1.0510 C   0  0  0  0  0  0  0  0  0  0  0  0
   -0.2959   -5.3684   -0.7660 C   0  0  0  0  0  0  0  0  0  0  0  0
    1.4560   -1.4031   -0.0889 C   0  0  0  0  0  0  0  0  0  0  0  0
   -7.5028   -1.9832   -0.1513 O   0  0  0  0  0  0  0  0  0  0  0  0
    0.5492   -7.1247    0.5153 O   0  0  0  0  0  0  0  0  0  0  0  0
    1.7310    1.4136    0.0536 C   0  0  0  0  0  0  0  0  0  0  0  0
   -8.1807   -1.9920   -1.4019 C   0  0  0  0  0  0  0  0  0  0  0  0
    0.8355   -7.6874    1.7904 C   0  0  0  0  0  0  0  0  0  0  0  0
    2.7230   -0.7973   -0.0864 C   0  0  0  0  0  0  0  0  0  0  0  0
    2.8602    0.5992   -0.0065 C   0  0  0  0  0  0  0  0  0  0  0  0
   -0.8757    2.4294    0.1181 H   0  0  0  0  0  0  0  0  0  0  0  0
   -1.1813   -3.2855    2.3694 H   0  0  0  0  0  0  0  0  0  0  0  0
   -1.0821   -3.7302   -1.9183 H   0  0  0  0  0  0  0  0  0  0  0  0
   -3.3734   -2.0649   -2.1765 H   0  0  0  0  0  0  0  0  0  0  0  0
   -3.6432   -1.9450    2.1261 H   0  0  0  0  0  0  0  0  0  0  0  0
   -5.8010   -2.0604   -2.3402 H   0  0  0  0  0  0  0  0  0  0  0  0
   -0.1695   -5.4847    2.6352 H   0  0  0  0  0  0  0  0  0  0  0  0
   -6.1039   -1.9570    1.9575 H   0  0  0  0  0  0  0  0  0  0  0  0
   -0.0724   -5.9668   -1.6462 H   0  0  0  0  0  0  0  0  0  0  0  0
    1.3913   -2.4805   -0.1749 H   0  0  0  0  0  0  0  0  0  0  0  0
    1.8243    2.4899    0.0979 H   0  0  0  0  0  0  0  0  0  0  0  0
   -7.8825   -1.1440   -2.0277 H   0  0  0  0  0  0  0  0  0  0  0  0
   -8.0202   -2.9424   -1.9217 H   0  0  0  0  0  0  0  0  0  0  0  0
   -9.2530   -1.8937   -1.2067 H   0  0  0  0  0  0  0  0  0  0  0  0
    1.5066   -7.0449    2.3702 H   0  0  0  0  0  0  0  0  0  0  0  0
   -0.0883   -7.8938    2.3412 H   0  0  0  0  0  0  0  0  0  0  0  0
    1.3505   -8.6401    1.6309 H   0  0  0  0  0  0  0  0  0  0  0  0
    3.6150   -1.4196   -0.1490 H   0  0  0  0  0  0  0  0  0  0  0  0
    3.8519    1.0457    0.0000 H   0  0  0  0  0  0  0  0  0  0  0  0
  2  1  1  0  0  0  0
  3  2  1  0  0  0  0
  3 28  1  0  0  0  0
  4  1  2  0  0  0  0
  5  1  1  0  0  0  0
  6  3  1  0  0  0  0
  6  5  2  0  0  0  0
  7  4  1  0  0  0  0
  8  4  1  0  0  0  0
  9  2  2  0  0  0  0
 10  7  2  0  0  0  0
 10 29  1  0  0  0  0
 11  7  1  0  0  0  0
 11 30  1  0  0  0  0
 12  8  2  0  0  0  0
 12 31  1  0  0  0  0
 13  8  1  0  0  0  0
 13 32  1  0  0  0  0
 14 18  1  0  0  0  0
 14 16  2  0  0  0  0
 15 17  2  0  0  0  0
 15 19  1  0  0  0  0
 16 12  1  0  0  0  0
 16 33  1  0  0  0  0
 17 10  1  0  0  0  0
 17 34  1  0  0  0  0
 18 13  2  0  0  0  0
 18 35  1  0  0  0  0
 19 11  2  0  0  0  0
 19 36  1  0  0  0  0
 20  5  1  0  0  0  0
 20 37  1  0  0  0  0
 21 14  1  0  0  0  0
 22 15  1  0  0  0  0
 23  6  1  0  0  0  0
 23 27  2  0  0  0  0
 23 38  1  0  0  0  0
 24 21  1  0  0  0  0
 24 39  1  0  0  0  0
 24 40  1  0  0  0  0
 24 41  1  0  0  0  0
 25 22  1  0  0  0  0
 25 42  1  0  0  0  0
 25 43  1  0  0  0  0
 25 44  1  0  0  0  0
 26 20  2  0  0  0  0
 26 45  1  0  0  0  0
 27 26  1  0  0  0  0
 27 46  1  0  0  0  0
M  END
>  <Mol_ID>
3744

>  <Formula>
C23H19NO3

>  <MolWeight>
357.40186

>  <Cat>
S6424

>  <Name>
TAS-301

>  <Synonyms>
N/A

>  <Target>
PKC

>  <Form>
Free Base

>  <CAS>
193620-69-8

>  <URL>
http://www.selleck.cn/products/tas-301.html

$$$$
