Tasisulam (LY573636).cdx
 OpenBabel08302519583D

 26 27  0  0  0  0  0  0  0  0999 V2000
    1.1134    0.0391   -0.0279 C   0  0  0  0  0  0  0  0  0  0  0  0
    2.4624    0.0345   -0.3959 N   0  0  0  0  0  0  0  0  0  0  0  0
    3.6374   -0.8250    0.4119 S   0  0  0  0  0  0  0  0  0  0  0  0
    3.8294   -0.1544    2.0455 C   0  0  0  0  0  0  0  0  0  0  0  0
    3.2001   -2.1910    0.5943 O   0  0  0  0  0  0  0  0  0  0  0  0
    4.8798   -0.5316   -0.2729 O   0  0  0  0  0  0  0  0  0  0  0  0
    3.7100   -0.7112    3.3072 C   0  0  0  0  0  0  0  0  0  0  0  0
    4.0132    0.2220    4.3456 C   0  0  0  0  0  0  0  0  0  0  0  0
    4.3376    1.4488    3.8243 C   0  0  0  0  0  0  0  0  0  0  0  0
    4.2654    1.5026    2.1330 S   0  0  0  0  0  0  0  0  0  0  0  0
    4.8167    2.9249    4.8747 Br  0  0  0  0  0  0  0  0  0  0  0  0
    0.2246    0.8626   -0.8881 C   0  0  0  0  0  0  0  0  0  0  0  0
    0.6739   -0.5505    0.9457 O   0  0  0  0  0  0  0  0  0  0  0  0
    0.6702    2.0511   -1.4805 C   0  0  0  0  0  0  0  0  0  0  0  0
   -0.2218    2.8400   -2.2117 C   0  0  0  0  0  0  0  0  0  0  0  0
   -1.5480    2.4363   -2.3689 C   0  0  0  0  0  0  0  0  0  0  0  0
   -1.9868    1.2390   -1.8041 C   0  0  0  0  0  0  0  0  0  0  0  0
   -1.1036    0.4537   -1.0609 C   0  0  0  0  0  0  0  0  0  0  0  0
    2.7633    0.3284   -1.3170 H   0  0  0  0  0  0  0  0  0  0  0  0
    3.4310   -1.7463    3.4675 H   0  0  0  0  0  0  0  0  0  0  0  0
    3.9961   -0.0081    5.4042 H   0  0  0  0  0  0  0  0  0  0  0  0
    1.6876    2.4073   -1.3395 H   0  0  0  0  0  0  0  0  0  0  0  0
    0.1098    3.7826   -2.6427 H   0  0  0  0  0  0  0  0  0  0  0  0
   -2.2448    3.0616   -2.9234 H   0  0  0  0  0  0  0  0  0  0  0  0
   -3.0210    0.9257   -1.9292 H   0  0  0  0  0  0  0  0  0  0  0  0
   -1.4581   -0.4719   -0.6100 H   0  0  0  0  0  0  0  0  0  0  0  0
  1 12  1  0  0  0  0
  1 13  2  0  0  0  0
  1  2  1  0  0  0  0
  2  3  1  0  0  0  0
  2 19  1  0  0  0  0
  3  6  2  0  0  0  0
  3  4  1  0  0  0  0
  3  5  2  0  0  0  0
  4  7  2  0  0  0  0
  7  8  1  0  0  0  0
  7 20  1  0  0  0  0
  8  9  2  0  0  0  0
  8 21  1  0  0  0  0
  9 11  1  0  0  0  0
  9 10  1  0  0  0  0
 10  4  1  0  0  0  0
 12 14  2  0  0  0  0
 12 18  1  0  0  0  0
 14 15  1  0  0  0  0
 14 22  1  0  0  0  0
 15 16  2  0  0  0  0
 15 23  1  0  0  0  0
 16 17  1  0  0  0  0
 16 24  1  0  0  0  0
 17 18  2  0  0  0  0
 17 25  1  0  0  0  0
 18 26  1  0  0  0  0
M  END
>  <Mol_ID>
2323

>  <Formula>
C11H6BrCl2NO3S2

>  <MolWeight>
415.11024

>  <Cat>
S7326

>  <Name>
Tasisulam

>  <Synonyms>
LY573636

>  <Target>
Caspase

>  <Form>
free base

>  <CAS>
519055-62-0

>  <URL>
http://selleckchem.com/products/tasisulam.html

$$$$
