Tasquinimod .cdx
 OpenBabel08302519583D

 46 48  0  0  0  0  0  0  0  0999 V2000
    3.0734    0.1708    0.0350 C   0  0  0  0  0  0  0  0  0  0  0  0
    2.6872    1.4952    0.0838 C   0  0  0  0  0  0  0  0  0  0  0  0
    1.3358    1.7755    0.1137 C   0  0  0  0  0  0  0  0  0  0  0  0
    0.3651    0.7491    0.1007 C   0  0  0  0  0  0  0  0  0  0  0  0
    0.7479   -0.6264    0.0757 C   0  0  0  0  0  0  0  0  0  0  0  0
    2.1459   -0.8998    0.0350 C   0  0  0  0  0  0  0  0  0  0  0  0
   -1.0151    1.1205    0.0466 N   0  0  0  0  0  0  0  0  0  0  0  0
   -2.0189    0.1903   -0.1927 C   0  0  0  0  0  0  0  0  0  0  0  0
   -1.7090   -1.2416    0.0279 C   0  0  0  0  0  0  0  0  0  0  0  0
   -0.3998   -1.5968    0.1074 C   0  0  0  0  0  0  0  0  0  0  0  0
   -3.1367    0.5376   -0.5735 O   0  0  0  0  0  0  0  0  0  0  0  0
   -0.0357   -2.9175    0.2530 O   0  0  0  0  0  0  0  0  0  0  0  0
    2.9114   -2.0290   -0.0188 O   0  0  0  0  0  0  0  0  0  0  0  0
    2.4516   -3.3593   -0.0623 C   0  0  0  0  0  0  0  0  0  0  0  0
   -1.3907    2.5315    0.0316 C   0  0  0  0  0  0  0  0  0  0  0  0
   -2.7440   -2.3624    0.0335 C   0  0  0  0  0  0  0  0  0  0  0  0
   -4.0658   -2.2205    0.4513 N   0  0  0  0  0  0  0  0  0  0  0  0
   -2.3368   -3.4734   -0.3555 O   0  0  0  0  0  0  0  0  0  0  0  0
   -4.9393   -3.3599    0.4163 C   0  0  0  0  0  0  0  0  0  0  0  0
   -4.7105   -1.0102    0.9654 C   0  0  0  0  0  0  0  0  0  0  0  0
   -4.6349   -4.5210    1.1381 C   0  0  0  0  0  0  0  0  0  0  0  0
   -5.5522   -5.5792    1.1978 C   0  0  0  0  0  0  0  0  0  0  0  0
   -6.7756   -5.5071    0.5123 C   0  0  0  0  0  0  0  0  0  0  0  0
   -7.0569   -4.3574   -0.2392 C   0  0  0  0  0  0  0  0  0  0  0  0
   -6.1550   -3.2885   -0.2731 C   0  0  0  0  0  0  0  0  0  0  0  0
   -7.7877   -6.6255    0.5845 C   0  0  0  0  0  0  0  0  0  0  0  0
   -7.3983   -7.6694    1.3687 F   0  0  0  0  0  0  0  0  0  0  0  0
   -8.9826   -6.2085    1.0906 F   0  0  0  0  0  0  0  0  0  0  0  0
   -8.0676   -7.1590   -0.6365 F   0  0  0  0  0  0  0  0  0  0  0  0
    4.1411   -0.0510   -0.0045 H   0  0  0  0  0  0  0  0  0  0  0  0
    3.4259    2.2872    0.0739 H   0  0  0  0  0  0  0  0  0  0  0  0
    1.0680    2.8288    0.1180 H   0  0  0  0  0  0  0  0  0  0  0  0
   -0.7828   -3.4947   -0.0270 H   0  0  0  0  0  0  0  0  0  0  0  0
    1.9806   -3.6360    0.8841 H   0  0  0  0  0  0  0  0  0  0  0  0
    1.8435   -3.5428   -0.9485 H   0  0  0  0  0  0  0  0  0  0  0  0
    3.3339   -3.9994   -0.1507 H   0  0  0  0  0  0  0  0  0  0  0  0
   -0.9669    3.0340    0.9086 H   0  0  0  0  0  0  0  0  0  0  0  0
   -1.0296    2.9956   -0.8918 H   0  0  0  0  0  0  0  0  0  0  0  0
   -2.4737    2.6702    0.0812 H   0  0  0  0  0  0  0  0  0  0  0  0
   -4.0153   -0.4501    1.5938 H   0  0  0  0  0  0  0  0  0  0  0  0
   -5.0756   -0.4110    0.1285 H   0  0  0  0  0  0  0  0  0  0  0  0
   -5.5768   -1.2693    1.5868 H   0  0  0  0  0  0  0  0  0  0  0  0
   -3.7056   -4.5949    1.6972 H   0  0  0  0  0  0  0  0  0  0  0  0
   -5.3095   -6.4577    1.7956 H   0  0  0  0  0  0  0  0  0  0  0  0
   -7.9893   -4.2860   -0.7982 H   0  0  0  0  0  0  0  0  0  0  0  0
   -6.3976   -2.4105   -0.8665 H   0  0  0  0  0  0  0  0  0  0  0  0
  1  2  2  0  0  0  0
  1 30  1  0  0  0  0
  2  3  1  0  0  0  0
  2 31  1  0  0  0  0
  3  4  2  0  0  0  0
  3 32  1  0  0  0  0
  4  5  1  0  0  0  0
  4  7  1  0  0  0  0
  5  6  2  0  0  0  0
  6  1  1  0  0  0  0
  6 13  1  0  0  0  0
  7  8  1  0  0  0  0
  7 15  1  0  0  0  0
  8  9  1  0  0  0  0
  8 11  2  0  0  0  0
  9 10  2  0  0  0  0
  9 16  1  0  0  0  0
 10  5  1  0  0  0  0
 10 12  1  0  0  0  0
 12 33  1  0  0  0  0
 13 14  1  0  0  0  0
 14 34  1  0  0  0  0
 14 35  1  0  0  0  0
 14 36  1  0  0  0  0
 15 37  1  0  0  0  0
 15 38  1  0  0  0  0
 15 39  1  0  0  0  0
 16 17  1  0  0  0  0
 16 18  2  0  0  0  0
 17 19  1  0  0  0  0
 17 20  1  0  0  0  0
 19 21  2  0  0  0  0
 20 40  1  0  0  0  0
 20 41  1  0  0  0  0
 20 42  1  0  0  0  0
 21 22  1  0  0  0  0
 21 43  1  0  0  0  0
 22 23  2  0  0  0  0
 22 44  1  0  0  0  0
 23 24  1  0  0  0  0
 23 26  1  0  0  0  0
 24 25  2  0  0  0  0
 24 45  1  0  0  0  0
 25 19  1  0  0  0  0
 25 46  1  0  0  0  0
 26 27  1  0  0  0  0
 26 28  1  0  0  0  0
 26 29  1  0  0  0  0
M  END
>  <Mol_ID>
2474

>  <Formula>
C20H17F3N2O4

>  <MolWeight>
406.3551896

>  <Cat>
S7617

>  <Name>
Tasquinimod

>  <Synonyms>
ABR-215050

>  <Target>
HDAC

>  <Form>
free base

>  <CAS>
254964-60-8

>  <URL>
http://selleckchem.com/products/tasquinimod.html

$$$$
