Taurine.cdx
 OpenBabel08302521383D

 14 13  0  0  0  0  0  0  0  0999 V2000
    1.0357   -0.1340    0.0468 C   0  0  0  0  0  0  0  0  0  0  0  0
    0.4930    0.1470   -1.3431 C   0  0  0  0  0  0  0  0  0  0  0  0
    1.0356    1.4037   -1.8665 N   0  0  0  0  0  0  0  0  0  0  0  0
    0.4121   -1.6872    0.6565 S   0  0  0  0  0  0  0  0  0  0  0  0
    1.1578   -1.6706    2.0901 O   0  0  0  0  0  0  0  0  0  0  0  0
   -1.0100   -1.5853    0.8901 O   0  0  0  0  0  0  0  0  0  0  0  0
    1.0072   -2.7801   -0.0770 O   0  0  0  0  0  0  0  0  0  0  0  0
    0.7253    0.6418    0.7548 H   0  0  0  0  0  0  0  0  0  0  0  0
    2.1290   -0.2027    0.0403 H   0  0  0  0  0  0  0  0  0  0  0  0
    0.7619   -0.6645   -2.0284 H   0  0  0  0  0  0  0  0  0  0  0  0
   -0.6010    0.2064   -1.3258 H   0  0  0  0  0  0  0  0  0  0  0  0
    0.6374    1.5845   -2.7894 H   0  0  0  0  0  0  0  0  0  0  0  0
    0.7412    2.1854   -1.2804 H   0  0  0  0  0  0  0  0  0  0  0  0
    1.8055   -2.4085    2.1049 H   0  0  0  0  0  0  0  0  0  0  0  0
  1  2  1  0  0  0  0
  1  4  1  0  0  0  0
  1  8  1  0  0  0  0
  1  9  1  0  0  0  0
  2  3  1  0  0  0  0
  2 10  1  0  0  0  0
  2 11  1  0  0  0  0
  3 12  1  0  0  0  0
  3 13  1  0  0  0  0
  4  5  1  0  0  0  0
  4  6  2  0  0  0  0
  4  7  2  0  0  0  0
  5 14  1  0  0  0  0
M  END
>  <Mol_ID>
7754

>  <Formula>
C2H7NO3S

>  <MolWeight>
125.14688

>  <Cat>
S2008

>  <Name>
Taurine

>  <Synonyms>
N/A

>  <Target>
Others

>  <Form>
free base

>  <CAS>
107-35-7

>  <URL>
http://selleckchem.com/products/Taurine.html

$$$$
