Taurohyodeoxycholic acid
 OpenBabel08302522032D

 79 82  0  0  1  0  0  0  0  0999 V2000
    3.2750    4.8523    0.0000 C   0  0  0  0  0  0  0  0  0  0  0  0
    7.4210    6.9923    0.0000 C   0  0  0  0  0  0  0  0  0  0  0  0
    4.8497    0.0000    0.0000 O   0  0  0  0  0  0  0  0  0  0  0  0
    9.8186    6.7326    0.0000 C   0  0  1  0  0  0  0  0  0  0  0  0
    9.8186    8.1326    0.0000 C   0  0  0  0  0  0  0  0  0  0  0  0
   11.0310    6.0326    0.0000 C   0  0  0  0  0  0  0  0  0  0  0  0
   11.0310    8.8326    0.0000 C   0  0  0  0  0  0  0  0  0  0  0  0
   11.0310   10.2326    0.0000 C   0  0  0  0  0  0  0  0  0  0  0  0
   12.2435   10.9326    0.0000 N   0  0  0  0  0  0  0  0  0  0  0  0
    9.8186   10.9326    0.0000 O   0  0  0  0  0  0  0  0  0  0  0  0
   12.2435   12.3326    0.0000 C   0  0  0  0  0  0  0  0  0  0  0  0
   13.4560   13.0326    0.0000 C   0  0  0  0  0  0  0  0  0  0  0  0
   13.4560   14.4326    0.0000 S   0  0  0  0  0  0  0  0  0  0  0  0
   14.8560   14.4326    0.0000 O   0  0  0  0  0  0  0  0  0  0  0  0
   12.0560   14.4326    0.0000 O   0  0  0  0  0  0  0  0  0  0  0  0
   13.4560   15.8326    0.0000 O   0  0  0  0  0  0  0  0  0  0  0  0
    0.0000    1.4000    0.0000 O   0  0  0  0  0  0  0  0  0  0  0  0
    6.0623    3.5000    0.0000 C   0  0  2  0  0  0  0  0  0  0  0  0
    4.8497    4.2000    0.0000 C   0  0  1  0  0  0  0  0  0  0  0  0
    7.2746    4.2000    0.0000 C   0  0  1  0  0  0  0  0  0  0  0  0
    6.0623    2.1000    0.0000 C   0  0  0  0  0  0  0  0  0  0  0  0
    3.6374    3.5000    0.0000 C   0  0  1  0  0  0  0  0  0  0  0  0
    4.8497    5.6000    0.0000 C   0  0  0  0  0  0  0  0  0  0  0  0
    7.2746    5.6000    0.0000 C   0  0  1  0  0  0  0  0  0  0  0  0
    8.6062    3.7674    0.0000 C   0  0  0  0  0  0  0  0  0  0  0  0
    4.8497    1.4000    0.0000 C   0  0  1  0  0  0  0  0  0  0  0  0
    3.6374    2.1000    0.0000 C   0  0  2  0  0  0  0  0  0  0  0  0
    2.4249    4.2000    0.0000 C   0  0  0  0  0  0  0  0  0  0  0  0
    6.0623    6.3000    0.0000 C   0  0  0  0  0  0  0  0  0  0  0  0
    8.6062    6.0326    0.0000 C   0  0  2  0  0  0  0  0  0  0  0  0
    9.4290    4.9000    0.0000 C   0  0  0  0  0  0  0  0  0  0  0  0
    2.4249    1.4000    0.0000 C   0  0  0  0  0  0  0  0  0  0  0  0
    1.2125    3.5000    0.0000 C   0  0  0  0  0  0  0  0  0  0  0  0
    1.2125    2.1000    0.0000 C   0  0  1  0  0  0  0  0  0  0  0  0
    4.0316    5.6089    0.0000 H   0  0  0  0  0  0  0  0  0  0  0  0
    2.2414    5.1292    0.0000 H   0  0  0  0  0  0  0  0  0  0  0  0
    2.9980    5.8858    0.0000 H   0  0  0  0  0  0  0  0  0  0  0  0
    8.3985    7.4275    0.0000 H   0  0  0  0  0  0  0  0  0  0  0  0
    6.5554    7.6213    0.0000 H   0  0  0  0  0  0  0  0  0  0  0  0
    7.5329    8.0564    0.0000 H   0  0  0  0  0  0  0  0  0  0  0  0
    4.0097   -0.4850    0.0000 H   0  0  0  0  0  0  0  0  0  0  0  0
   10.7453    7.2676    0.0000 H   0  0  0  0  0  0  0  0  0  0  0  0
    8.8919    8.6676    0.0000 H   0  0  0  0  0  0  0  0  0  0  0  0
    9.8186    9.2026    0.0000 H   0  0  0  0  0  0  0  0  0  0  0  0
   11.0310    4.9626    0.0000 H   0  0  0  0  0  0  0  0  0  0  0  0
   11.9577    6.5676    0.0000 H   0  0  0  0  0  0  0  0  0  0  0  0
   11.9576    5.4976    0.0000 H   0  0  0  0  0  0  0  0  0  0  0  0
   11.9577    8.2976    0.0000 H   0  0  0  0  0  0  0  0  0  0  0  0
   11.9576    9.3676    0.0000 H   0  0  0  0  0  0  0  0  0  0  0  0
   13.0961   10.4403    0.0000 H   0  0  0  0  0  0  0  0  0  0  0  0
   11.3169   12.8676    0.0000 H   0  0  0  0  0  0  0  0  0  0  0  0
   12.2435   13.4026    0.0000 H   0  0  0  0  0  0  0  0  0  0  0  0
   14.3826   12.4976    0.0000 H   0  0  0  0  0  0  0  0  0  0  0  0
   14.3827   13.5676    0.0000 H   0  0  0  0  0  0  0  0  0  0  0  0
   14.2960   16.3176    0.0000 H   0  0  0  0  0  0  0  0  0  0  0  0
   -0.8400    1.8850    0.0000 H   0  0  0  0  0  0  0  0  0  0  0  0
    5.1357    2.9650    0.0000 H   0  0  0  0  0  0  0  0  0  0  0  0
    5.7763    4.7350    0.0000 H   0  0  0  0  0  0  0  0  0  0  0  0
    7.3865    3.1359    0.0000 H   0  0  0  0  0  0  0  0  0  0  0  0
    6.9889    1.5650    0.0000 H   0  0  0  0  0  0  0  0  0  0  0  0
    6.0623    1.0300    0.0000 H   0  0  0  0  0  0  0  0  0  0  0  0
    3.9231    6.1350    0.0000 H   0  0  0  0  0  0  0  0  0  0  0  0
    4.8497    6.6700    0.0000 H   0  0  0  0  0  0  0  0  0  0  0  0
    8.9369    2.7498    0.0000 H   0  0  0  0  0  0  0  0  0  0  0  0
    9.6630    3.6001    0.0000 H   0  0  0  0  0  0  0  0  0  0  0  0
    5.7763    0.8650    0.0000 H   0  0  0  0  0  0  0  0  0  0  0  0
    2.7108    2.6350    0.0000 H   0  0  0  0  0  0  0  0  0  0  0  0
    2.4249    5.2700    0.0000 H   0  0  0  0  0  0  0  0  0  0  0  0
    1.4982    4.7350    0.0000 H   0  0  0  0  0  0  0  0  0  0  0  0
    6.0624    7.3700    0.0000 H   0  0  0  0  0  0  0  0  0  0  0  0
    6.9890    6.8350    0.0000 H   0  0  0  0  0  0  0  0  0  0  0  0
    8.2755    5.0150    0.0000 H   0  0  0  0  0  0  0  0  0  0  0  0
   10.4990    4.9000    0.0000 H   0  0  0  0  0  0  0  0  0  0  0  0
    9.9148    5.8534    0.0000 H   0  0  0  0  0  0  0  0  0  0  0  0
    2.4249    0.3300    0.0000 H   0  0  0  0  0  0  0  0  0  0  0  0
    1.4982    0.8650    0.0000 H   0  0  0  0  0  0  0  0  0  0  0  0
    0.2858    4.0350    0.0000 H   0  0  0  0  0  0  0  0  0  0  0  0
    0.2859    2.9650    0.0000 H   0  0  0  0  0  0  0  0  0  0  0  0
    1.2125    1.0300    0.0000 H   0  0  0  0  0  0  0  0  0  0  0  0
  1 35  1  0  0  0  0
  1 36  1  0  0  0  0
  1 37  1  0  0  0  0
  2 38  1  0  0  0  0
  2 39  1  0  0  0  0
  2 40  1  0  0  0  0
  3 41  1  0  0  0  0
  4  5  1  0  0  0  0
  4  6  1  0  0  0  0
  4 42  1  6  0  0  0
  5  7  1  0  0  0  0
  5 43  1  0  0  0  0
  5 44  1  0  0  0  0
  6 45  1  0  0  0  0
  6 46  1  0  0  0  0
  6 47  1  0  0  0  0
  7  8  1  0  0  0  0
  7 48  1  0  0  0  0
  7 49  1  0  0  0  0
  8  9  1  0  0  0  0
  8 10  2  0  0  0  0
  9 11  1  0  0  0  0
  9 50  1  0  0  0  0
 11 12  1  0  0  0  0
 11 51  1  0  0  0  0
 11 52  1  0  0  0  0
 12 13  1  0  0  0  0
 12 53  1  0  0  0  0
 12 54  1  0  0  0  0
 13 14  2  0  0  0  0
 13 15  2  0  0  0  0
 13 16  1  0  0  0  0
 16 55  1  0  0  0  0
 17 56  1  0  0  0  0
 18 19  1  0  0  0  0
 18 20  1  0  0  0  0
 18 21  1  0  0  0  0
 18 57  1  1  0  0  0
 19 22  1  0  0  0  0
 19 23  1  0  0  0  0
 19 58  1  6  0  0  0
 20 24  1  0  0  0  0
 20 25  1  0  0  0  0
 20 59  1  6  0  0  0
 21 26  1  0  0  0  0
 21 60  1  0  0  0  0
 21 61  1  0  0  0  0
 22  1  1  1  0  0  0
 22 27  1  0  0  0  0
 22 28  1  0  0  0  0
 23 29  1  0  0  0  0
 23 62  1  0  0  0  0
 23 63  1  0  0  0  0
 24  2  1  1  0  0  0
 24 29  1  0  0  0  0
 24 30  1  0  0  0  0
 25 31  1  0  0  0  0
 25 64  1  0  0  0  0
 25 65  1  0  0  0  0
 26  3  1  0  0  0  0
 26 27  1  0  0  0  0
 26 66  1  1  0  0  0
 27 32  1  0  0  0  0
 27 67  1  1  0  0  0
 28 33  1  0  0  0  0
 28 68  1  0  0  0  0
 28 69  1  0  0  0  0
 29 70  1  0  0  0  0
 29 71  1  0  0  0  0
 30  4  1  0  0  0  0
 30 31  1  0  0  0  0
 30 72  1  6  0  0  0
 31 73  1  0  0  0  0
 31 74  1  0  0  0  0
 32 34  1  0  0  0  0
 32 75  1  0  0  0  0
 32 76  1  0  0  0  0
 33 34  1  0  0  0  0
 33 77  1  0  0  0  0
 33 78  1  0  0  0  0
 34 17  1  0  0  0  0
 34 79  1  1  0  0  0
M  END
>  <Mol_ID>
10007

>  <Formula>
C26H45NO6S

>  <MolWeight>
499.7036

>  <Cat>
E5450

>  <Name>
Taurohyodeoxycholic acid

>  <Synonyms>
NA

>  <Target>
anti-inflammatory

>  <Form>
Free Base

>  <CAS>
2958-04-5

>  <URL>
https://www.selleckchem.com/products/taurohyodeoxycholic-acid.html

$$$$
