Tazobactam.cdx
 OpenBabel08302519503D

 32 34  0  0  0  0  0  0  0  0999 V2000
    0.5308    0.2959   -0.8015 N   0  0  0  0  0  0  0  0  0  0  0  0
   -0.2653    1.4485   -0.3776 C   0  0  2  0  0  0  0  0  0  0  0  0
   -1.3271    0.9598    0.6331 C   0  0  1  0  0  0  0  0  0  0  0  0
   -1.6060   -0.7768    0.0945 S   0  0  0  0  0  0  0  0  0  0  0  0
   -0.0894   -1.0434   -0.8275 C   0  0  2  0  0  0  0  0  0  0  0  0
    1.1569   -1.5624   -0.0980 C   0  0  0  0  0  0  0  0  0  0  0  0
    1.6469   -0.1123   -0.1455 C   0  0  0  0  0  0  0  0  0  0  0  0
   -0.8579    2.0099   -1.6660 C   0  0  0  0  0  0  0  0  0  0  0  0
   -1.2071    1.3708   -2.6469 O   0  0  0  0  0  0  0  0  0  0  0  0
   -0.9921    3.3505   -1.6367 O   0  0  0  0  0  0  0  0  0  0  0  0
   -1.6152   -1.6315    1.2680 O   0  0  0  0  0  0  0  0  0  0  0  0
   -2.7391   -0.8015   -0.8098 O   0  0  0  0  0  0  0  0  0  0  0  0
   -0.8350    0.8786    2.0990 C   0  0  0  0  0  0  0  0  0  0  0  0
   -0.5605    2.1367    2.7545 N   0  0  0  0  0  0  0  0  0  0  0  0
    0.5153    2.8556    2.4092 N   0  0  0  0  0  0  0  0  0  0  0  0
    0.5901    3.8872    3.2376 N   0  0  0  0  0  0  0  0  0  0  0  0
   -0.4500    3.7983    4.1169 C   0  0  0  0  0  0  0  0  0  0  0  0
   -1.2079    2.6927    3.8172 C   0  0  0  0  0  0  0  0  0  0  0  0
    2.5430    0.5224    0.3511 O   0  0  0  0  0  0  0  0  0  0  0  0
   -2.6562    1.7347    0.5888 C   0  0  0  0  0  0  0  0  0  0  0  0
    0.4141    2.1986    0.0335 H   0  0  0  0  0  0  0  0  0  0  0  0
   -0.2485   -1.4229   -1.8400 H   0  0  0  0  0  0  0  0  0  0  0  0
    1.0213   -1.9265    0.9239 H   0  0  0  0  0  0  0  0  0  0  0  0
    1.7791   -2.2585   -0.6656 H   0  0  0  0  0  0  0  0  0  0  0  0
   -1.3162    3.5907   -2.5313 H   0  0  0  0  0  0  0  0  0  0  0  0
   -1.5973    0.3853    2.7188 H   0  0  0  0  0  0  0  0  0  0  0  0
    0.0746    0.2752    2.1936 H   0  0  0  0  0  0  0  0  0  0  0  0
   -0.5857    4.5235    4.9063 H   0  0  0  0  0  0  0  0  0  0  0  0
   -2.0911    2.2661    4.2711 H   0  0  0  0  0  0  0  0  0  0  0  0
   -3.3892    1.2915    1.2735 H   0  0  0  0  0  0  0  0  0  0  0  0
   -2.5174    2.7822    0.8748 H   0  0  0  0  0  0  0  0  0  0  0  0
   -3.1173    1.7237   -0.4041 H   0  0  0  0  0  0  0  0  0  0  0  0
  1  2  1  0  0  0  0
  1  7  1  0  0  0  0
  1  5  1  0  0  0  0
  2  3  1  0  0  0  0
  2  8  1  0  0  0  0
  2 21  1  1  0  0  0
  3  4  1  0  0  0  0
  3 20  1  6  0  0  0
  3 13  1  0  0  0  0
  4  5  1  0  0  0  0
  4 11  2  0  0  0  0
  4 12  2  0  0  0  0
  5  6  1  0  0  0  0
  5 22  1  6  0  0  0
  6  7  1  0  0  0  0
  6 23  1  0  0  0  0
  6 24  1  0  0  0  0
  7 19  2  0  0  0  0
  8  9  2  0  0  0  0
  8 10  1  0  0  0  0
 10 25  1  0  0  0  0
 13 14  1  0  0  0  0
 13 26  1  0  0  0  0
 13 27  1  0  0  0  0
 14 15  1  0  0  0  0
 14 18  1  0  0  0  0
 15 16  2  0  0  0  0
 16 17  1  0  0  0  0
 17 18  2  0  0  0  0
 17 28  1  0  0  0  0
 18 29  1  0  0  0  0
 20 30  1  0  0  0  0
 20 31  1  0  0  0  0
 20 32  1  0  0  0  0
M  END
>  <Mol_ID>
1591

>  <Formula>
C10H12N4O5S

>  <MolWeight>
300.29108

>  <Cat>
S3077

>  <Name>
Tazobactam

>  <Synonyms>
Tazobactam acid, Tazobactamum

>  <Target>
Selection Antibiotics for Transfected Cell,¦Â-lactamase

>  <Form>
free base

>  <CAS>
89786-04-9

>  <URL>
http://selleckchem.com/products/tazobactam.html

$$$$
