TBOPP
 OpenBabel08302521283D

 55 58  0  0  0  0  0  0  0  0999 V2000
    5.5729    2.4536    1.5915 S   0  0  0  0  0  0  0  0  0  0  0  0
    4.3082  -10.7959   -3.6414 F   0  0  0  0  0  0  0  0  0  0  0  0
    4.3676  -11.5380   -5.6852 F   0  0  0  0  0  0  0  0  0  0  0  0
    5.9996  -11.9800   -4.3159 F   0  0  0  0  0  0  0  0  0  0  0  0
    4.5720    3.4179    1.9924 O   0  0  0  0  0  0  0  0  0  0  0  0
    6.4629    1.8872    2.5939 O   0  0  0  0  0  0  0  0  0  0  0  0
    2.8344   -2.1464   -0.7110 O   0  0  0  0  0  0  0  0  0  0  0  0
    6.6758   -1.4273   -2.3204 O   0  0  0  0  0  0  0  0  0  0  0  0
    6.5522    3.2466    0.4961 N   0  0  0  0  0  0  0  0  0  0  0  0
    4.8163   -1.1033   -0.0925 N   0  0  0  0  0  0  0  0  0  0  0  0
    6.0450    4.1664   -0.5190 C   0  0  0  0  0  0  0  0  0  0  0  0
    7.9280    2.8377    0.2056 C   0  0  0  0  0  0  0  0  0  0  0  0
    6.9157    3.8622   -1.7284 C   0  0  0  0  0  0  0  0  0  0  0  0
    8.2669    3.5301   -1.1140 C   0  0  0  0  0  0  0  0  0  0  0  0
    4.7518    1.1164    0.7868 C   0  0  0  0  0  0  0  0  0  0  0  0
    5.4542    0.0341    0.4025 C   0  0  0  0  0  0  0  0  0  0  0  0
    3.3018    1.0754    0.7122 C   0  0  0  0  0  0  0  0  0  0  0  0
    5.5781   -2.3235   -0.3718 C   0  0  0  0  0  0  0  0  0  0  0  0
    2.6635    0.0051    0.2185 C   0  0  0  0  0  0  0  0  0  0  0  0
    3.4334   -1.1750   -0.2552 C   0  0  0  0  0  0  0  0  0  0  0  0
    6.0998   -2.3906   -1.8041 C   0  0  0  0  0  0  0  0  0  0  0  0
    6.0008   -3.6691   -2.5776 C   0  0  0  0  0  0  0  0  0  0  0  0
    6.1324   -6.0803   -4.1043 C   0  0  0  0  0  0  0  0  0  0  0  0
    5.7178   -4.9016   -1.9861 C   0  0  0  0  0  0  0  0  0  0  0  0
    6.2809   -3.6407   -3.9497 C   0  0  0  0  0  0  0  0  0  0  0  0
    6.3226   -7.3474   -4.8548 C   0  0  0  0  0  0  0  0  0  0  0  0
    5.7949   -6.0841   -2.7377 C   0  0  0  0  0  0  0  0  0  0  0  0
    6.3309   -4.8252   -4.7012 C   0  0  0  0  0  0  0  0  0  0  0  0
    5.6221   -8.5178   -4.5110 C   0  0  0  0  0  0  0  0  0  0  0  0
    7.2563   -7.4510   -5.9056 C   0  0  0  0  0  0  0  0  0  0  0  0
    5.8574   -9.7485   -5.1502 C   0  0  0  0  0  0  0  0  0  0  0  0
    7.4773   -8.6575   -6.5766 C   0  0  0  0  0  0  0  0  0  0  0  0
    6.7856   -9.8039   -6.1965 C   0  0  0  0  0  0  0  0  0  0  0  0
    5.1397  -10.9966   -4.7029 C   0  0  0  0  0  0  0  0  0  0  0  0
    6.2146    5.1928   -0.1708 H   0  0  0  0  0  0  0  0  0  0  0  0
    4.9836    4.0377   -0.7414 H   0  0  0  0  0  0  0  0  0  0  0  0
    8.0224    1.7545    0.1132 H   0  0  0  0  0  0  0  0  0  0  0  0
    8.5949    3.1928    0.9990 H   0  0  0  0  0  0  0  0  0  0  0  0
    6.5234    2.9897   -2.2629 H   0  0  0  0  0  0  0  0  0  0  0  0
    6.9681    4.7002   -2.4302 H   0  0  0  0  0  0  0  0  0  0  0  0
    8.8746    2.8944   -1.7654 H   0  0  0  0  0  0  0  0  0  0  0  0
    8.8327    4.4499   -0.9244 H   0  0  0  0  0  0  0  0  0  0  0  0
    6.5351   -0.0198    0.4968 H   0  0  0  0  0  0  0  0  0  0  0  0
    2.7355    1.9157    1.1033 H   0  0  0  0  0  0  0  0  0  0  0  0
    6.4337   -2.3884    0.3111 H   0  0  0  0  0  0  0  0  0  0  0  0
    4.9296   -3.1727   -0.1519 H   0  0  0  0  0  0  0  0  0  0  0  0
    1.5849   -0.0690    0.1755 H   0  0  0  0  0  0  0  0  0  0  0  0
    5.4710   -5.0015   -0.9339 H   0  0  0  0  0  0  0  0  0  0  0  0
    6.4858   -2.6944   -4.4476 H   0  0  0  0  0  0  0  0  0  0  0  0
    5.6246   -7.0215   -2.2115 H   0  0  0  0  0  0  0  0  0  0  0  0
    6.5500   -4.7446   -5.7639 H   0  0  0  0  0  0  0  0  0  0  0  0
    4.8754   -8.4872   -3.7174 H   0  0  0  0  0  0  0  0  0  0  0  0
    7.8533   -6.5909   -6.2026 H   0  0  0  0  0  0  0  0  0  0  0  0
    8.2074   -8.7032   -7.3813 H   0  0  0  0  0  0  0  0  0  0  0  0
    6.9810  -10.7446   -6.7093 H   0  0  0  0  0  0  0  0  0  0  0  0
  1  5  2  0  0  0  0
  1  6  2  0  0  0  0
  1  9  1  0  0  0  0
  1 15  1  0  0  0  0
  2 34  1  0  0  0  0
  3 34  1  0  0  0  0
  4 34  1  0  0  0  0
  7 20  2  0  0  0  0
  8 21  2  0  0  0  0
  9 11  1  0  0  0  0
  9 12  1  0  0  0  0
 10 16  1  0  0  0  0
 10 18  1  0  0  0  0
 10 20  1  0  0  0  0
 11 13  1  0  0  0  0
 11 35  1  0  0  0  0
 11 36  1  0  0  0  0
 12 14  1  0  0  0  0
 12 37  1  0  0  0  0
 12 38  1  0  0  0  0
 13 14  1  0  0  0  0
 13 39  1  0  0  0  0
 13 40  1  0  0  0  0
 14 41  1  0  0  0  0
 14 42  1  0  0  0  0
 15 16  2  0  0  0  0
 15 17  1  0  0  0  0
 16 43  1  0  0  0  0
 17 19  2  0  0  0  0
 17 44  1  0  0  0  0
 18 21  1  0  0  0  0
 18 45  1  0  0  0  0
 18 46  1  0  0  0  0
 19 20  1  0  0  0  0
 19 47  1  0  0  0  0
 21 22  1  0  0  0  0
 22 24  2  0  0  0  0
 22 25  1  0  0  0  0
 23 26  1  0  0  0  0
 23 27  2  0  0  0  0
 23 28  1  0  0  0  0
 24 27  1  0  0  0  0
 24 48  1  0  0  0  0
 25 28  2  0  0  0  0
 25 49  1  0  0  0  0
 26 29  2  0  0  0  0
 26 30  1  0  0  0  0
 27 50  1  0  0  0  0
 28 51  1  0  0  0  0
 29 31  1  0  0  0  0
 29 52  1  0  0  0  0
 30 32  2  0  0  0  0
 30 53  1  0  0  0  0
 31 33  2  0  0  0  0
 31 34  1  0  0  0  0
 32 33  1  0  0  0  0
 32 54  1  0  0  0  0
 33 55  1  0  0  0  0
M  END
>  <Mol_ID>
5410

>  <Formula>
C24H21F3N2O4S

>  <MolWeight>
490.4947496

>  <Cat>
S0978

>  <Name>
TBOPP

>  <Synonyms>
N/A

>  <Target>
DOCK

>  <Form>
Free Base

>  <CAS>
1996629-79-8

>  <URL>
https://www.selleckchem.com/products/tbopp.html

$$$$
