TC-067533
 OpenBabel08302521323D

 41 43  0  0  0  0  0  0  0  0999 V2000
    1.8301   -0.2394    0.5319 C   0  0  2  0  0  0  0  0  0  0  0  0
    2.3177   -0.9165   -0.6593 N   0  0  0  0  0  0  0  0  0  0  0  0
    2.8567   -0.6662    1.6289 C   0  0  0  0  0  0  0  0  0  0  0  0
    1.8499   -0.8147   -1.9402 C   0  0  0  0  0  0  0  0  0  0  0  0
    1.1059    0.0680   -2.3350 O   0  0  0  0  0  0  0  0  0  0  0  0
    2.1627   -0.5907   -4.9557 C   0  0  0  0  0  0  0  0  0  0  0  0
   -1.6123   -2.0179    0.8889 C   0  0  0  0  0  0  0  0  0  0  0  0
   -1.4170   -2.2372    2.2491 C   0  0  0  0  0  0  0  0  0  0  0  0
   -0.5745   -1.2866    0.2336 C   0  0  0  0  0  0  0  0  0  0  0  0
   -2.8656   -2.4488    0.3789 C   0  0  0  0  0  0  0  0  0  0  0  0
   -0.6700   -1.3446    3.0048 C   0  0  0  0  0  0  0  0  0  0  0  0
   -2.0854   -3.2801    2.8790 C   0  0  0  0  0  0  0  0  0  0  0  0
    0.4339   -0.6645    0.9911 C   0  0  0  0  0  0  0  0  0  0  0  0
   -3.7795   -3.1098    1.2233 C   0  0  0  0  0  0  0  0  0  0  0  0
    0.1440   -0.4594    2.3434 C   0  0  0  0  0  0  0  0  0  0  0  0
   -3.3731   -3.5555    2.4744 C   0  0  0  0  0  0  0  0  0  0  0  0
    2.2799   -1.9656   -2.8057 C   0  0  0  0  0  0  0  0  0  0  0  0
    2.3926   -1.8695   -4.2019 C   0  0  0  0  0  0  0  0  0  0  0  0
    2.4877   -3.2144   -2.1767 C   0  0  0  0  0  0  0  0  0  0  0  0
    2.6764   -3.0391   -4.9322 C   0  0  0  0  0  0  0  0  0  0  0  0
    2.7964   -4.3523   -2.9127 C   0  0  0  0  0  0  0  0  0  0  0  0
    2.8774   -4.2658   -4.2942 C   0  0  0  0  0  0  0  0  0  0  0  0
    1.8535    0.8430    0.3740 H   0  0  0  0  0  0  0  0  0  0  0  0
    3.1612   -1.4608   -0.5429 H   0  0  0  0  0  0  0  0  0  0  0  0
    3.8385   -0.2257    1.4376 H   0  0  0  0  0  0  0  0  0  0  0  0
    2.5895   -0.4015    2.6544 H   0  0  0  0  0  0  0  0  0  0  0  0
    2.9833   -1.7608    1.6260 H   0  0  0  0  0  0  0  0  0  0  0  0
    2.6421   -0.6289   -5.9407 H   0  0  0  0  0  0  0  0  0  0  0  0
    1.0907   -0.4301   -5.1032 H   0  0  0  0  0  0  0  0  0  0  0  0
    2.5989    0.2668   -4.4344 H   0  0  0  0  0  0  0  0  0  0  0  0
   -0.5634   -1.2683   -0.8529 H   0  0  0  0  0  0  0  0  0  0  0  0
   -3.1724   -2.1978   -0.6285 H   0  0  0  0  0  0  0  0  0  0  0  0
   -0.7424   -1.3238    4.0804 H   0  0  0  0  0  0  0  0  0  0  0  0
   -1.4659   -4.2017    2.9008 H   0  0  0  0  0  0  0  0  0  0  0  0
   -4.7956   -3.3200    0.9038 H   0  0  0  0  0  0  0  0  0  0  0  0
    0.6873    0.2804    2.9273 H   0  0  0  0  0  0  0  0  0  0  0  0
   -4.0076   -4.1568    3.1131 H   0  0  0  0  0  0  0  0  0  0  0  0
    2.3661   -3.3304   -1.1013 H   0  0  0  0  0  0  0  0  0  0  0  0
    2.7287   -3.0035   -6.0187 H   0  0  0  0  0  0  0  0  0  0  0  0
    2.9380   -5.3036   -2.4070 H   0  0  0  0  0  0  0  0  0  0  0  0
    3.0781   -5.1591   -4.8796 H   0  0  0  0  0  0  0  0  0  0  0  0
  1 13  1  0  0  0  0
  1 23  1  6  0  0  0
  1  3  1  0  0  0  0
  1  2  1  0  0  0  0
  2  4  1  0  0  0  0
  2 24  1  0  0  0  0
  3 25  1  0  0  0  0
  3 26  1  0  0  0  0
  3 27  1  0  0  0  0
  4  5  2  0  0  0  0
  4 17  1  0  0  0  0
  6 18  1  0  0  0  0
  6 28  1  0  0  0  0
  6 29  1  0  0  0  0
  6 30  1  0  0  0  0
  7  8  1  0  0  0  0
  7  9  2  0  0  0  0
  7 10  1  0  0  0  0
  8 11  2  0  0  0  0
  8 12  1  0  0  0  0
  9 13  1  0  0  0  0
  9 31  1  0  0  0  0
 10 14  2  0  0  0  0
 10 32  1  0  0  0  0
 11 15  1  0  0  0  0
 11 33  1  0  0  0  0
 12 16  2  0  0  0  0
 12 34  1  0  0  0  0
 13 15  2  0  0  0  0
 14 16  1  0  0  0  0
 14 35  1  0  0  0  0
 15 36  1  0  0  0  0
 16 37  1  0  0  0  0
 17 18  2  0  0  0  0
 17 19  1  0  0  0  0
 18 20  1  0  0  0  0
 19 21  2  0  0  0  0
 19 38  1  0  0  0  0
 20 22  2  0  0  0  0
 20 39  1  0  0  0  0
 21 22  1  0  0  0  0
 21 40  1  0  0  0  0
 22 41  1  0  0  0  0
M  END
>  <Mol_ID>
6310

>  <Formula>
C20H19NO

>  <MolWeight>
289.37096

>  <Cat>
E0613

>  <Name>
TC-067533

>  <Synonyms>
2-Methyl-N-(1S-naphthalen-2-yl-ethyl)-benzamide

>  <Target>
SARS-CoV

>  <Form>
free base

>  <CAS>
1093070-10-0

>  <URL>
http://www.selleckchem.com/products/tc-067533.html

$$$$
