TC-H 106
 OpenBabel08302521343D

 50 51  0  0  0  0  0  0  0  0999 V2000
    0.4679    5.4345    0.6371 C   0  0  0  0  0  0  0  0  0  0  0  0
   -0.8973    5.5204    0.9542 C   0  0  0  0  0  0  0  0  0  0  0  0
   -1.8162    4.6065    0.4360 C   0  0  0  0  0  0  0  0  0  0  0  0
   -1.3749    3.5669   -0.3701 C   0  0  0  0  0  0  0  0  0  0  0  0
   -0.0156    3.4321   -0.6493 C   0  0  0  0  0  0  0  0  0  0  0  0
    0.9203    4.3403   -0.1385 C   0  0  0  0  0  0  0  0  0  0  0  0
    2.3113    4.1927   -0.3653 N   0  0  0  0  0  0  0  0  0  0  0  0
    2.9327    3.2391   -1.1532 C   0  0  0  0  0  0  0  0  0  0  0  0
    4.4379    3.3747   -1.1745 C   0  0  0  0  0  0  0  0  0  0  0  0
    5.0570    2.5701   -0.0369 C   0  0  0  0  0  0  0  0  0  0  0  0
    6.5844    2.6709   -0.0032 C   0  0  0  0  0  0  0  0  0  0  0  0
    7.1285    4.0961    0.1331 C   0  0  0  0  0  0  0  0  0  0  0  0
    6.6190    4.7865    1.3945 C   0  0  0  0  0  0  0  0  0  0  0  0
    2.3990    2.3314   -1.7836 O   0  0  0  0  0  0  0  0  0  0  0  0
    6.9919    6.2503    1.4576 C   0  0  0  0  0  0  0  0  0  0  0  0
    8.3536    6.4628    1.5458 N   0  0  0  0  0  0  0  0  0  0  0  0
    9.0057    7.6998    1.7212 C   0  0  0  0  0  0  0  0  0  0  0  0
    8.3329    8.9095    1.8822 C   0  0  0  0  0  0  0  0  0  0  0  0
    9.0404   10.0955    2.0916 C   0  0  0  0  0  0  0  0  0  0  0  0
   10.4359   10.0908    2.1384 C   0  0  0  0  0  0  0  0  0  0  0  0
   11.1151    8.8808    1.9683 C   0  0  0  0  0  0  0  0  0  0  0  0
   10.4049    7.6931    1.7618 C   0  0  0  0  0  0  0  0  0  0  0  0
    6.1070    7.1005    1.4472 O   0  0  0  0  0  0  0  0  0  0  0  0
    1.3588    6.3345    1.2648 N   0  0  0  0  0  0  0  0  0  0  0  0
   11.1930   11.3599    2.3919 C   0  0  0  0  0  0  0  0  0  0  0  0
   -1.2628    6.3142    1.5999 H   0  0  0  0  0  0  0  0  0  0  0  0
   -2.8728    4.7004    0.6694 H   0  0  0  0  0  0  0  0  0  0  0  0
   -2.0777    2.8412   -0.7703 H   0  0  0  0  0  0  0  0  0  0  0  0
    0.2816    2.5834   -1.2540 H   0  0  0  0  0  0  0  0  0  0  0  0
    2.8949    4.8481    0.1384 H   0  0  0  0  0  0  0  0  0  0  0  0
    4.8005    3.0097   -2.1428 H   0  0  0  0  0  0  0  0  0  0  0  0
    4.6976    4.4368   -1.1194 H   0  0  0  0  0  0  0  0  0  0  0  0
    4.6307    2.8802    0.9241 H   0  0  0  0  0  0  0  0  0  0  0  0
    4.7789    1.5140   -0.1451 H   0  0  0  0  0  0  0  0  0  0  0  0
    6.9562    2.0663    0.8334 H   0  0  0  0  0  0  0  0  0  0  0  0
    6.9938    2.2225   -0.9168 H   0  0  0  0  0  0  0  0  0  0  0  0
    8.2238    4.0468    0.1468 H   0  0  0  0  0  0  0  0  0  0  0  0
    6.8739    4.6886   -0.7538 H   0  0  0  0  0  0  0  0  0  0  0  0
    5.5250    4.7566    1.4361 H   0  0  0  0  0  0  0  0  0  0  0  0
    6.9884    4.2816    2.2935 H   0  0  0  0  0  0  0  0  0  0  0  0
    8.9538    5.6503    1.4948 H   0  0  0  0  0  0  0  0  0  0  0  0
    7.2505    8.9726    1.8642 H   0  0  0  0  0  0  0  0  0  0  0  0
    8.4843   11.0201    2.2251 H   0  0  0  0  0  0  0  0  0  0  0  0
   12.2021    8.8537    2.0015 H   0  0  0  0  0  0  0  0  0  0  0  0
   10.9632    6.7695    1.6382 H   0  0  0  0  0  0  0  0  0  0  0  0
    0.8937    7.1705    1.6113 H   0  0  0  0  0  0  0  0  0  0  0  0
    2.1559    6.5915    0.6938 H   0  0  0  0  0  0  0  0  0  0  0  0
   11.7236   11.2956    3.3471 H   0  0  0  0  0  0  0  0  0  0  0  0
   11.9117   11.5412    1.5870 H   0  0  0  0  0  0  0  0  0  0  0  0
   10.5198   12.2225    2.4387 H   0  0  0  0  0  0  0  0  0  0  0  0
  1  2  2  0  0  0  0
  1 24  1  0  0  0  0
  2  3  1  0  0  0  0
  2 26  1  0  0  0  0
  3  4  2  0  0  0  0
  3 27  1  0  0  0  0
  4  5  1  0  0  0  0
  4 28  1  0  0  0  0
  5  6  2  0  0  0  0
  5 29  1  0  0  0  0
  6  1  1  0  0  0  0
  6  7  1  0  0  0  0
  7 30  1  0  0  0  0
  8  7  1  0  0  0  0
  8 14  2  0  0  0  0
  9  8  1  0  0  0  0
  9 31  1  0  0  0  0
  9 32  1  0  0  0  0
 10  9  1  0  0  0  0
 10 33  1  0  0  0  0
 10 34  1  0  0  0  0
 11 10  1  0  0  0  0
 11 35  1  0  0  0  0
 11 36  1  0  0  0  0
 12 11  1  0  0  0  0
 12 37  1  0  0  0  0
 12 38  1  0  0  0  0
 13 12  1  0  0  0  0
 13 15  1  0  0  0  0
 13 39  1  0  0  0  0
 13 40  1  0  0  0  0
 15 16  1  0  0  0  0
 15 23  2  0  0  0  0
 16 17  1  0  0  0  0
 16 41  1  0  0  0  0
 17 18  2  0  0  0  0
 18 19  1  0  0  0  0
 18 42  1  0  0  0  0
 19 20  2  0  0  0  0
 19 43  1  0  0  0  0
 20 21  1  0  0  0  0
 20 25  1  0  0  0  0
 21 22  2  0  0  0  0
 21 44  1  0  0  0  0
 22 17  1  0  0  0  0
 22 45  1  0  0  0  0
 24 46  1  0  0  0  0
 24 47  1  0  0  0  0
 25 48  1  0  0  0  0
 25 49  1  0  0  0  0
 25 50  1  0  0  0  0
M  END
>  <Mol_ID>
6541

>  <Formula>
C20H25N3O2

>  <MolWeight>
339.4314

>  <Cat>
S6738

>  <Name>
TC-H 106

>  <Synonyms>
Pimelic Diphenylamide 106

>  <Target>
HDAC

>  <Form>
free base

>  <CAS>
937039-45-7

>  <URL>
http://www.selleckchem.com/products/tc-h106.html

$$$$
