TC-O 9311
 OpenBabel08302521323D

 46 48  0  0  0  0  0  0  0  0999 V2000
    1.1715    0.1739    0.0247 C   0  0  0  0  0  0  0  0  0  0  0  0
    0.4200   -0.2449    1.2511 C   0  0  0  0  0  0  0  0  0  0  0  0
   -0.6199   -1.1853    1.1543 C   0  0  0  0  0  0  0  0  0  0  0  0
   -1.3887   -1.4990    2.2810 C   0  0  0  0  0  0  0  0  0  0  0  0
   -1.1043   -0.8855    3.5078 C   0  0  0  0  0  0  0  0  0  0  0  0
   -0.0511    0.0192    3.6209 C   0  0  0  0  0  0  0  0  0  0  0  0
    0.7015    0.3441    2.4897 C   0  0  0  0  0  0  0  0  0  0  0  0
    0.6019    0.2316   -1.0620 O   0  0  0  0  0  0  0  0  0  0  0  0
    2.5105    0.4921    0.2000 N   0  0  0  0  0  0  0  0  0  0  0  0
    3.2974    0.8108   -0.9021 N   0  0  0  0  0  0  0  0  0  0  0  0
    4.6804    1.0528   -0.6961 C   0  0  0  0  0  0  0  0  0  0  0  0
    5.1287    0.9716    0.4309 O   0  0  0  0  0  0  0  0  0  0  0  0
    5.3711    1.2963   -1.8546 N   0  0  0  0  0  0  0  0  0  0  0  0
    6.7718    1.5717   -1.9925 C   0  0  0  0  0  0  0  0  0  0  0  0
    7.6456    1.6273   -0.9012 C   0  0  0  0  0  0  0  0  0  0  0  0
    8.9499    2.1183   -1.0444 C   0  0  0  0  0  0  0  0  0  0  0  0
    9.3844    2.6057   -2.2740 C   0  0  0  0  0  0  0  0  0  0  0  0
    8.5629    2.4796   -3.3983 C   0  0  0  0  0  0  0  0  0  0  0  0
    8.9025    3.0695   -4.6265 C   0  0  0  0  0  0  0  0  0  0  0  0
    8.1180    2.7987   -5.7381 C   0  0  0  0  0  0  0  0  0  0  0  0
    7.2852    1.7014   -5.6898 C   0  0  0  0  0  0  0  0  0  0  0  0
    6.6156    1.5667   -4.4844 C   0  0  0  0  0  0  0  0  0  0  0  0
    7.2924    1.8559   -3.2816 C   0  0  0  0  0  0  0  0  0  0  0  0
    0.3458    0.6483    4.7679 O   0  0  0  0  0  0  0  0  0  0  0  0
   -0.3886    0.3604    5.9523 C   0  0  0  0  0  0  0  0  0  0  0  0
   -2.4345   -2.3815    2.3343 O   0  0  0  0  0  0  0  0  0  0  0  0
   -2.8016   -3.0309    1.1249 C   0  0  0  0  0  0  0  0  0  0  0  0
   -0.8140   -1.6513    0.1911 H   0  0  0  0  0  0  0  0  0  0  0  0
   -1.7359   -1.1370    4.3540 H   0  0  0  0  0  0  0  0  0  0  0  0
    1.4877    1.0898    2.5864 H   0  0  0  0  0  0  0  0  0  0  0  0
    3.0262    0.1790    1.0265 H   0  0  0  0  0  0  0  0  0  0  0  0
    2.8261    1.3226   -1.6520 H   0  0  0  0  0  0  0  0  0  0  0  0
    4.8149    1.4128   -2.6832 H   0  0  0  0  0  0  0  0  0  0  0  0
    7.3383    1.3210    0.0925 H   0  0  0  0  0  0  0  0  0  0  0  0
    9.6066    2.1716   -0.1789 H   0  0  0  0  0  0  0  0  0  0  0  0
   10.3687    3.0658   -2.3497 H   0  0  0  0  0  0  0  0  0  0  0  0
    9.6607    3.8457   -4.6864 H   0  0  0  0  0  0  0  0  0  0  0  0
    7.9479    3.5609   -6.4943 H   0  0  0  0  0  0  0  0  0  0  0  0
    7.8948    0.7696   -5.8460 H   0  0  0  0  0  0  0  0  0  0  0  0
    5.6261    1.1313   -4.5144 H   0  0  0  0  0  0  0  0  0  0  0  0
   -1.3746    0.8343    5.9119 H   0  0  0  0  0  0  0  0  0  0  0  0
   -0.4737   -0.7164    6.1327 H   0  0  0  0  0  0  0  0  0  0  0  0
    0.1596    0.7866    6.7982 H   0  0  0  0  0  0  0  0  0  0  0  0
   -3.1384   -2.3068    0.3778 H   0  0  0  0  0  0  0  0  0  0  0  0
   -1.9784   -3.6447    0.7451 H   0  0  0  0  0  0  0  0  0  0  0  0
   -3.6405   -3.6999    1.3447 H   0  0  0  0  0  0  0  0  0  0  0  0
  1  2  1  0  0  0  0
  1  8  2  0  0  0  0
  1  9  1  0  0  0  0
  2  3  2  0  0  0  0
  2  7  1  0  0  0  0
  3  4  1  0  0  0  0
  3 28  1  0  0  0  0
  4  5  2  0  0  0  0
  4 26  1  0  0  0  0
  5  6  1  0  0  0  0
  5 29  1  0  0  0  0
  6  7  2  0  0  0  0
  6 24  1  0  0  0  0
  7 30  1  0  0  0  0
  9 10  1  0  0  0  0
  9 31  1  0  0  0  0
 10 11  1  0  0  0  0
 10 32  1  0  0  0  0
 11 12  2  0  0  0  0
 11 13  1  0  0  0  0
 13 14  1  0  0  0  0
 13 33  1  0  0  0  0
 14 15  2  0  0  0  0
 14 23  1  0  0  0  0
 15 16  1  0  0  0  0
 15 34  1  0  0  0  0
 16 17  2  0  0  0  0
 16 35  1  0  0  0  0
 17 18  1  0  0  0  0
 17 36  1  0  0  0  0
 18 19  1  0  0  0  0
 18 23  2  0  0  0  0
 19 20  2  0  0  0  0
 19 37  1  0  0  0  0
 20 21  1  0  0  0  0
 20 38  1  0  0  0  0
 21 22  2  0  0  0  0
 21 39  1  0  0  0  0
 22 23  1  0  0  0  0
 22 40  1  0  0  0  0
 24 25  1  0  0  0  0
 25 41  1  0  0  0  0
 25 42  1  0  0  0  0
 25 43  1  0  0  0  0
 26 27  1  0  0  0  0
 27 44  1  0  0  0  0
 27 45  1  0  0  0  0
 27 46  1  0  0  0  0
M  END
>  <Mol_ID>
6241

>  <Formula>
C20H19N3O4

>  <MolWeight>
365.38256

>  <Cat>
S6976

>  <Name>
TC-O 9311

>  <Synonyms>
N/A

>  <Target>
GPR

>  <Form>
free base

>  <CAS>
444932-31-4

>  <URL>
http://www.selleckchem.com/products/tc-o-9311.html

$$$$
