TC-S 7009
 OpenBabel08302521353D

 27 29  0  0  0  0  0  0  0  0999 V2000
    0.9747   -0.2145   -0.2767 N   0  3  0  0  0  0  0  0  0  0  0  0
    0.5688   -0.6942   -1.3410 O   0  5  0  0  0  0  0  0  0  0  0  0
    0.2619    0.1891    0.6565 O   0  0  0  0  0  0  0  0  0  0  0  0
    2.2725    2.3804    0.0741 N   0  0  0  0  0  0  0  0  0  0  0  0
    1.8603    7.1553    0.1124 F   0  0  0  0  0  0  0  0  0  0  0  0
    3.1745   -1.2358   -0.1093 C   0  0  0  0  0  0  0  0  0  0  0  0
    2.3866   -0.0747   -0.1084 C   0  0  0  0  0  0  0  0  0  0  0  0
    4.6247   -1.1355    0.0069 C   0  0  0  0  0  0  0  0  0  0  0  0
    2.8596   -2.5364   -0.1859 N   0  0  0  0  0  0  0  0  0  0  0  0
    3.0223    1.1790    0.0215 C   0  0  0  0  0  0  0  0  0  0  0  0
    5.2877    0.0996    0.1286 C   0  0  0  0  0  0  0  0  0  0  0  0
    5.1380   -2.3700   -0.0167 N   0  0  0  0  0  0  0  0  0  0  0  0
    4.0589   -3.2257   -0.1356 O   0  0  0  0  0  0  0  0  0  0  0  0
    4.4438    1.2333    0.1439 C   0  0  0  0  0  0  0  0  0  0  0  0
    2.5919    3.6408   -0.4709 C   0  0  0  0  0  0  0  0  0  0  0  0
    3.3733    3.7629   -1.6313 C   0  0  0  0  0  0  0  0  0  0  0  0
    2.0808    4.8066    0.1104 C   0  0  0  0  0  0  0  0  0  0  0  0
    3.6452    5.0127   -2.1935 C   0  0  0  0  0  0  0  0  0  0  0  0
    2.3575    6.0492   -0.4560 C   0  0  0  0  0  0  0  0  0  0  0  0
    3.1327    6.1628   -1.6030 C   0  0  0  0  0  0  0  0  0  0  0  0
    1.6507    2.4234    0.8834 H   0  0  0  0  0  0  0  0  0  0  0  0
    6.3651    0.1750    0.2181 H   0  0  0  0  0  0  0  0  0  0  0  0
    4.9233    2.2061    0.2714 H   0  0  0  0  0  0  0  0  0  0  0  0
    3.7560    2.8772   -2.1326 H   0  0  0  0  0  0  0  0  0  0  0  0
    1.4643    4.7712    1.0024 H   0  0  0  0  0  0  0  0  0  0  0  0
    4.2433    5.0825   -3.0992 H   0  0  0  0  0  0  0  0  0  0  0  0
    3.3217    7.1414   -2.0326 H   0  0  0  0  0  0  0  0  0  0  0  0
  1  2  1  0  0  0  0
  1  3  2  0  0  0  0
  1  7  1  0  0  0  0
  4 10  1  0  0  0  0
  4 15  1  0  0  0  0
  4 21  1  0  0  0  0
  5 19  1  0  0  0  0
  6  7  1  0  0  0  0
  6  8  1  0  0  0  0
  6  9  2  0  0  0  0
  7 10  2  0  0  0  0
  8 11  1  0  0  0  0
  8 12  2  0  0  0  0
  9 13  1  0  0  0  0
 10 14  1  0  0  0  0
 11 14  2  0  0  0  0
 11 22  1  0  0  0  0
 12 13  1  0  0  0  0
 14 23  1  0  0  0  0
 15 16  2  0  0  0  0
 15 17  1  0  0  0  0
 16 18  1  0  0  0  0
 16 24  1  0  0  0  0
 17 19  2  0  0  0  0
 17 25  1  0  0  0  0
 18 20  2  0  0  0  0
 18 26  1  0  0  0  0
 19 20  1  0  0  0  0
 20 27  1  0  0  0  0
M  CHG  2   1   1   2  -1
M  END
>  <Mol_ID>
6956

>  <Formula>
C12H6ClFN4O3

>  <MolWeight>
308.6524432

>  <Cat>
E1618

>  <Name>
TC-S 7009

>  <Target>
HIF

>  <Form>
free base

>  <CAS>
1422955-31-4

>  <URL>
https://www.selleckchem.com/products/tc-s-7009.html

$$$$
