TCEP Hydrochloride
 OpenBabel08302521303D

 31 30  0  0  0  0  0  0  0  0999 V2000
    0.7369    0.0741    0.0354 P   0  0  0  0  0  0  0  0  0  0  0  0
   -2.3226    0.9073   -2.7463 O   0  0  0  0  0  0  0  0  0  0  0  0
   -0.9087    0.0632    3.5366 O   0  0  0  0  0  0  0  0  0  0  0  0
    3.0305    3.0837    0.2384 O   0  0  0  0  0  0  0  0  0  0  0  0
   -2.7456    0.3763   -0.5957 O   0  0  0  0  0  0  0  0  0  0  0  0
    1.1781    0.8459    3.8671 O   0  0  0  0  0  0  0  0  0  0  0  0
    2.1770    3.1748   -1.8447 O   0  0  0  0  0  0  0  0  0  0  0  0
    0.2821   -0.6345   -1.6083 C   0  0  0  0  0  0  0  0  0  0  0  0
    0.4344   -1.3414    1.1703 C   0  0  0  0  0  0  0  0  0  0  0  0
    2.5759    0.1065   -0.0916 C   0  0  0  0  0  0  0  0  0  0  0  0
   -1.1837   -0.9890   -1.8173 C   0  0  0  0  0  0  0  0  0  0  0  0
    0.9308   -1.1813    2.6020 C   0  0  0  0  0  0  0  0  0  0  0  0
    3.1312    1.0928   -1.1143 C   0  0  0  0  0  0  0  0  0  0  0  0
   -2.1443    0.1598   -1.6386 C   0  0  0  0  0  0  0  0  0  0  0  0
    0.4269    0.0201    3.3647 C   0  0  0  0  0  0  0  0  0  0  0  0
    2.7038    2.5325   -0.9471 C   0  0  0  0  0  0  0  0  0  0  0  0
   -1.8034    0.6396   -3.5230 H   0  0  0  0  0  0  0  0  0  0  0  0
   -1.4186   -0.6224    3.0671 H   0  0  0  0  0  0  0  0  0  0  0  0
    3.4239    2.4803    0.8942 H   0  0  0  0  0  0  0  0  0  0  0  0
    0.5838    0.0832   -2.3790 H   0  0  0  0  0  0  0  0  0  0  0  0
    0.8761   -1.5416   -1.7709 H   0  0  0  0  0  0  0  0  0  0  0  0
   -0.6443   -1.5294    1.1870 H   0  0  0  0  0  0  0  0  0  0  0  0
    0.9007   -2.2400    0.7497 H   0  0  0  0  0  0  0  0  0  0  0  0
    2.9874    0.3386    0.8959 H   0  0  0  0  0  0  0  0  0  0  0  0
    2.9357   -0.8966   -0.3507 H   0  0  0  0  0  0  0  0  0  0  0  0
   -1.3226   -1.3958   -2.8265 H   0  0  0  0  0  0  0  0  0  0  0  0
   -1.4996   -1.7871   -1.1372 H   0  0  0  0  0  0  0  0  0  0  0  0
    0.6621   -2.0695    3.1874 H   0  0  0  0  0  0  0  0  0  0  0  0
    2.0276   -1.1358    2.6156 H   0  0  0  0  0  0  0  0  0  0  0  0
    4.2275    1.0737   -1.0976 H   0  0  0  0  0  0  0  0  0  0  0  0
    2.8411    0.7847   -2.1267 H   0  0  0  0  0  0  0  0  0  0  0  0
  1  8  1  0  0  0  0
  1  9  1  0  0  0  0
  1 10  1  0  0  0  0
  2 14  1  0  0  0  0
  2 17  1  0  0  0  0
  3 15  1  0  0  0  0
  3 18  1  0  0  0  0
  4 16  1  0  0  0  0
  4 19  1  0  0  0  0
  5 14  2  0  0  0  0
  6 15  2  0  0  0  0
  7 16  2  0  0  0  0
  8 11  1  0  0  0  0
  8 20  1  0  0  0  0
  8 21  1  0  0  0  0
  9 12  1  0  0  0  0
  9 22  1  0  0  0  0
  9 23  1  0  0  0  0
 10 13  1  0  0  0  0
 10 24  1  0  0  0  0
 10 25  1  0  0  0  0
 11 14  1  0  0  0  0
 11 26  1  0  0  0  0
 11 27  1  0  0  0  0
 12 15  1  0  0  0  0
 12 28  1  0  0  0  0
 12 29  1  0  0  0  0
 13 16  1  0  0  0  0
 13 30  1  0  0  0  0
 13 31  1  0  0  0  0
M  END
>  <Mol_ID>
5632

>  <Formula>
C9H16ClO6P

>  <MolWeight>
286.646501

>  <Cat>
S4611

>  <Name>
TCEP Hydrochloride

>  <Synonyms>
Tris(2-?carboxyethyl)?phosphine Hydrochloride

>  <Target>
NF-¦ÊB

>  <Form>
Hydrochloride

>  <CAS>
51805-45-9

>  <URL>
http://www.selleckchem.com/products/tcep-hydrochloride.html

$$$$
