TCN 201
 OpenBabel08302521313D

 48 50  0  0  0  0  0  0  0  0999 V2000
    2.9927    3.2541    0.3930 S   0  0  0  0  0  0  0  0  0  0  0  0
    4.2453   -1.0315    4.2525 F   0  0  0  0  0  0  0  0  0  0  0  0
    1.9407    4.0602    0.9709 O   0  0  0  0  0  0  0  0  0  0  0  0
    4.2645    3.8308    0.0149 O   0  0  0  0  0  0  0  0  0  0  0  0
   -0.8386   -1.8910   -5.6974 O   0  0  0  0  0  0  0  0  0  0  0  0
   -1.6355    0.9517   -9.5191 O   0  0  0  0  0  0  0  0  0  0  0  0
    2.3964    2.5123   -0.9983 N   0  0  0  0  0  0  0  0  0  0  0  0
   -1.0654   -0.0352   -7.0208 N   0  0  0  0  0  0  0  0  0  0  0  0
   -1.4416   -0.8444   -8.1085 N   0  0  0  0  0  0  0  0  0  0  0  0
    0.9394    2.3755   -1.1285 C   0  0  0  0  0  0  0  0  0  0  0  0
    0.5391    1.6456   -2.4013 C   0  0  0  0  0  0  0  0  0  0  0  0
    3.3372    1.8992    1.4994 C   0  0  0  0  0  0  0  0  0  0  0  0
    0.9369    0.3172   -2.5939 C   0  0  0  0  0  0  0  0  0  0  0  0
   -0.2819    2.2412   -3.3766 C   0  0  0  0  0  0  0  0  0  0  0  0
   -0.3217    0.1822   -4.6816 C   0  0  0  0  0  0  0  0  0  0  0  0
    0.4946   -0.4101   -3.7064 C   0  0  0  0  0  0  0  0  0  0  0  0
   -0.7033    1.5198   -4.5119 C   0  0  0  0  0  0  0  0  0  0  0  0
    4.5902    1.2713    1.4634 C   0  0  0  0  0  0  0  0  0  0  0  0
    2.4071    1.5599    2.4917 C   0  0  0  0  0  0  0  0  0  0  0  0
    4.8908    0.2708    2.3948 C   0  0  0  0  0  0  0  0  0  0  0  0
    2.7161    0.5616    3.4188 C   0  0  0  0  0  0  0  0  0  0  0  0
   -0.7711   -0.6660   -5.8229 C   0  0  0  0  0  0  0  0  0  0  0  0
    3.9512   -0.0785    3.3578 C   0  0  0  0  0  0  0  0  0  0  0  0
   -2.2686   -1.1604  -10.3909 C   0  0  0  0  0  0  0  0  0  0  0  0
   -1.7595   -0.2531   -9.3166 C   0  0  0  0  0  0  0  0  0  0  0  0
   -2.1349   -0.7709  -11.7317 C   0  0  0  0  0  0  0  0  0  0  0  0
   -2.9356   -2.3564  -10.0913 C   0  0  0  0  0  0  0  0  0  0  0  0
   -2.6459   -1.5742  -12.7566 C   0  0  0  0  0  0  0  0  0  0  0  0
   -3.4467   -3.1567  -11.1180 C   0  0  0  0  0  0  0  0  0  0  0  0
   -3.3011   -2.7665  -12.4490 C   0  0  0  0  0  0  0  0  0  0  0  0
    2.8787    2.8709   -1.8230 H   0  0  0  0  0  0  0  0  0  0  0  0
   -0.9202    0.9487   -7.2150 H   0  0  0  0  0  0  0  0  0  0  0  0
   -1.3943   -1.8497   -7.9544 H   0  0  0  0  0  0  0  0  0  0  0  0
    0.5418    1.8123   -0.2762 H   0  0  0  0  0  0  0  0  0  0  0  0
    0.4771    3.3692   -1.1242 H   0  0  0  0  0  0  0  0  0  0  0  0
    1.5810   -0.1695   -1.8633 H   0  0  0  0  0  0  0  0  0  0  0  0
   -0.6233    3.2684   -3.2545 H   0  0  0  0  0  0  0  0  0  0  0  0
    0.7846   -1.4555   -3.8040 H   0  0  0  0  0  0  0  0  0  0  0  0
   -1.3647    2.0067   -5.2249 H   0  0  0  0  0  0  0  0  0  0  0  0
    5.3415    1.5675    0.7342 H   0  0  0  0  0  0  0  0  0  0  0  0
    1.4556    2.0825    2.5651 H   0  0  0  0  0  0  0  0  0  0  0  0
    5.8577   -0.2260    2.3849 H   0  0  0  0  0  0  0  0  0  0  0  0
    2.0115    0.2883    4.1995 H   0  0  0  0  0  0  0  0  0  0  0  0
   -1.6381    0.1639  -11.9839 H   0  0  0  0  0  0  0  0  0  0  0  0
   -3.1034   -2.6686   -9.0640 H   0  0  0  0  0  0  0  0  0  0  0  0
   -2.5428   -1.2657  -13.7936 H   0  0  0  0  0  0  0  0  0  0  0  0
   -3.9743   -4.0778  -10.8794 H   0  0  0  0  0  0  0  0  0  0  0  0
   -3.7091   -3.3852  -13.2449 H   0  0  0  0  0  0  0  0  0  0  0  0
  1  3  2  0  0  0  0
  1  4  2  0  0  0  0
  1  7  1  0  0  0  0
  1 12  1  0  0  0  0
  2 23  1  0  0  0  0
  5 22  2  0  0  0  0
  6 25  2  0  0  0  0
  7 10  1  0  0  0  0
  7 31  1  0  0  0  0
  8  9  1  0  0  0  0
  8 22  1  0  0  0  0
  8 32  1  0  0  0  0
  9 25  1  0  0  0  0
  9 33  1  0  0  0  0
 10 11  1  0  0  0  0
 10 34  1  0  0  0  0
 10 35  1  0  0  0  0
 11 13  2  0  0  0  0
 11 14  1  0  0  0  0
 12 18  2  0  0  0  0
 12 19  1  0  0  0  0
 13 16  1  0  0  0  0
 13 36  1  0  0  0  0
 14 17  2  0  0  0  0
 14 37  1  0  0  0  0
 15 16  2  0  0  0  0
 15 17  1  0  0  0  0
 15 22  1  0  0  0  0
 16 38  1  0  0  0  0
 17 39  1  0  0  0  0
 18 20  1  0  0  0  0
 18 40  1  0  0  0  0
 19 21  2  0  0  0  0
 19 41  1  0  0  0  0
 20 23  2  0  0  0  0
 20 42  1  0  0  0  0
 21 23  1  0  0  0  0
 21 43  1  0  0  0  0
 24 25  1  0  0  0  0
 24 26  2  0  0  0  0
 24 27  1  0  0  0  0
 26 28  1  0  0  0  0
 26 44  1  0  0  0  0
 27 29  2  0  0  0  0
 27 45  1  0  0  0  0
 28 30  2  0  0  0  0
 28 46  1  0  0  0  0
 29 30  1  0  0  0  0
 29 47  1  0  0  0  0
 30 48  1  0  0  0  0
M  END
>  <Mol_ID>
5849

>  <Formula>
C21H17ClFN3O4S

>  <MolWeight>
461.8937832

>  <Cat>
S0446

>  <Name>
TCN 201

>  <Synonyms>
N/A

>  <Target>
NMDAR

>  <Form>
Free Base

>  <CAS>
852918-02-6

>  <URL>
http://www.selleckchem.com/products/tcn-201.html

$$$$
