TDZD-8.cdx
 OpenBabel08302522013D

 25 26  0  0  0  0  0  0  0  0999 V2000
   -0.1657   -1.3357    0.4093 S   0  0  0  0  0  0  0  0  0  0  0  0
    1.0275   -0.6043   -0.5478 N   0  0  0  0  0  0  0  0  0  0  0  0
    0.8543    0.7704   -0.6630 C   0  0  0  0  0  0  0  0  0  0  0  0
   -0.3252    1.1689   -0.0598 N   0  0  0  0  0  0  0  0  0  0  0  0
   -1.0050    0.2003    0.6254 C   0  0  0  0  0  0  0  0  0  0  0  0
    1.6691    1.5268   -1.1817 O   0  0  0  0  0  0  0  0  0  0  0  0
   -1.9953    0.3278    1.3269 O   0  0  0  0  0  0  0  0  0  0  0  0
    2.2647   -1.2668   -0.8687 C   0  0  0  0  0  0  0  0  0  0  0  0
   -0.7217    2.5566    0.0010 C   0  0  0  0  0  0  0  0  0  0  0  0
   -1.5145    2.9902   -1.2103 C   0  0  0  0  0  0  0  0  0  0  0  0
   -2.9090    2.8459   -1.2438 C   0  0  0  0  0  0  0  0  0  0  0  0
   -3.6385    3.2779   -2.3541 C   0  0  0  0  0  0  0  0  0  0  0  0
   -2.9827    3.8491   -3.4436 C   0  0  0  0  0  0  0  0  0  0  0  0
   -1.5961    3.9796   -3.4295 C   0  0  0  0  0  0  0  0  0  0  0  0
   -0.8646    3.5481   -2.3215 C   0  0  0  0  0  0  0  0  0  0  0  0
    2.5230   -1.0477   -1.9090 H   0  0  0  0  0  0  0  0  0  0  0  0
    3.0584   -0.8731   -0.2260 H   0  0  0  0  0  0  0  0  0  0  0  0
    2.1809   -2.3493   -0.7370 H   0  0  0  0  0  0  0  0  0  0  0  0
   -1.3188    2.7329    0.9042 H   0  0  0  0  0  0  0  0  0  0  0  0
    0.1735    3.1833    0.0956 H   0  0  0  0  0  0  0  0  0  0  0  0
   -3.4386    2.4049   -0.4008 H   0  0  0  0  0  0  0  0  0  0  0  0
   -4.7205    3.1736   -2.3675 H   0  0  0  0  0  0  0  0  0  0  0  0
   -3.5520    4.1922   -4.3038 H   0  0  0  0  0  0  0  0  0  0  0  0
   -1.0821    4.4217   -4.2793 H   0  0  0  0  0  0  0  0  0  0  0  0
    0.2189    3.6555   -2.3281 H   0  0  0  0  0  0  0  0  0  0  0  0
  1  2  1  0  0  0  0
  1  5  1  0  0  0  0
  2  3  1  0  0  0  0
  2  8  1  0  0  0  0
  3  4  1  0  0  0  0
  3  6  2  0  0  0  0
  4  5  1  0  0  0  0
  4  9  1  0  0  0  0
  5  7  2  0  0  0  0
  8 16  1  0  0  0  0
  8 17  1  0  0  0  0
  8 18  1  0  0  0  0
  9 10  1  0  0  0  0
  9 19  1  0  0  0  0
  9 20  1  0  0  0  0
 10 11  2  0  0  0  0
 10 15  1  0  0  0  0
 11 12  1  0  0  0  0
 11 21  1  0  0  0  0
 12 13  2  0  0  0  0
 12 22  1  0  0  0  0
 13 14  1  0  0  0  0
 13 23  1  0  0  0  0
 14 15  2  0  0  0  0
 14 24  1  0  0  0  0
 15 25  1  0  0  0  0
M  END
>  <Mol_ID>
1102

>  <Formula>
C10H10N2O2S

>  <MolWeight>
222.2636

>  <Cat>
S2926

>  <Name>
TDZD-8

>  <Synonyms>
NP 01139

>  <Target>
COVID-19,GSK-3

>  <Form>
free base

>  <CAS>
327036-89-5

>  <URL>
http://selleckchem.com/products/tdzd-8.html

$$$$
