Tebipenem pivoxil.cdx
 OpenBabel08302521343D

 64 67  0  0  0  0  0  0  0  0999 V2000
   -0.8229    1.5508   -0.6242 C   0  0  1  0  0  0  0  0  0  0  0  0
   -1.3335    0.1943   -0.0849 C   0  0  0  0  0  0  0  0  0  0  0  0
   -0.3402   -0.4884   -0.7341 N   0  0  0  0  0  0  0  0  0  0  0  0
    0.4371    0.7447   -1.0564 C   0  0  2  0  0  0  0  0  0  0  0  0
    0.5116   -1.3895   -0.1148 C   0  0  0  0  0  0  0  0  0  0  0  0
    1.7480   -0.8733    0.0395 C   0  0  0  0  0  0  0  0  0  0  0  0
    1.7387    0.6101   -0.2563 C   0  0  2  0  0  0  0  0  0  0  0  0
    3.1727   -1.6505    0.6026 S   0  0  0  0  0  0  0  0  0  0  0  0
    4.0056   -2.3404   -0.8768 C   0  0  3  0  0  0  0  0  0  0  0  0
    0.0918   -2.7756    0.2624 C   0  0  0  0  0  0  0  0  0  0  0  0
   -1.1387   -3.0709   -0.2221 O   0  0  0  0  0  0  0  0  0  0  0  0
   -1.5481   -4.4166    0.0423 C   0  0  0  0  0  0  0  0  0  0  0  0
   -0.9468   -5.3430   -0.8696 O   0  0  0  0  0  0  0  0  0  0  0  0
   -1.6152   -5.5482   -2.0325 C   0  0  0  0  0  0  0  0  0  0  0  0
   -0.8711   -6.5335   -2.9424 C   0  0  0  0  0  0  0  0  0  0  0  0
   -1.3820   -7.9461   -2.6346 C   0  0  0  0  0  0  0  0  0  0  0  0
   -1.1723   -6.1789   -4.4072 C   0  0  0  0  0  0  0  0  0  0  0  0
   -2.7045   -5.0585   -2.3030 O   0  0  0  0  0  0  0  0  0  0  0  0
    0.6507   -6.4779   -2.7355 C   0  0  0  0  0  0  0  0  0  0  0  0
    0.7916   -3.5546    0.8955 O   0  0  0  0  0  0  0  0  0  0  0  0
   -2.1691   -0.1482    0.7194 O   0  0  0  0  0  0  0  0  0  0  0  0
   -1.5898    2.1841   -1.7739 C   0  0  1  0  0  0  0  0  0  0  0  0
   -2.9401    2.7127   -1.3153 C   0  0  0  0  0  0  0  0  0  0  0  0
   -0.8057    3.2639   -2.2889 O   0  0  0  0  0  0  0  0  0  0  0  0
    1.7245    1.4596    1.0203 C   0  0  0  0  0  0  0  0  0  0  0  0
    4.5169   -1.3047   -1.8782 C   0  0  0  0  0  0  0  0  0  0  0  0
    3.5656   -1.7918   -2.8341 N   0  0  0  0  0  0  0  0  0  0  0  0
    3.1607   -2.9098   -2.0177 C   0  0  0  0  0  0  0  0  0  0  0  0
    3.9081   -2.0431   -4.1432 C   0  0  0  0  0  0  0  0  0  0  0  0
    5.1407   -1.0521   -4.9199 S   0  0  0  0  0  0  0  0  0  0  0  0
    4.6253   -1.6166   -6.5451 C   0  0  0  0  0  0  0  0  0  0  0  0
    3.9421   -2.9384   -6.2546 C   0  0  0  0  0  0  0  0  0  0  0  0
    3.3489   -2.9335   -4.9044 N   0  0  0  0  0  0  0  0  0  0  0  0
   -0.6457    2.2795    0.1756 H   0  0  0  0  0  0  0  0  0  0  0  0
    0.6458    0.7807   -2.1359 H   0  0  0  0  0  0  0  0  0  0  0  0
    2.5848    0.9052   -0.8799 H   0  0  0  0  0  0  0  0  0  0  0  0
    4.8001   -3.0317   -0.5696 H   0  0  0  0  0  0  0  0  0  0  0  0
   -1.2726   -4.7250    1.0611 H   0  0  0  0  0  0  0  0  0  0  0  0
   -2.6429   -4.4710    0.0128 H   0  0  0  0  0  0  0  0  0  0  0  0
   -2.4497   -8.0418   -2.8642 H   0  0  0  0  0  0  0  0  0  0  0  0
   -0.8450   -8.6995   -3.2217 H   0  0  0  0  0  0  0  0  0  0  0  0
   -1.2550   -8.1913   -1.5740 H   0  0  0  0  0  0  0  0  0  0  0  0
   -0.8886   -5.1432   -4.6280 H   0  0  0  0  0  0  0  0  0  0  0  0
   -0.6263   -6.8333   -5.0957 H   0  0  0  0  0  0  0  0  0  0  0  0
   -2.2403   -6.2785   -4.6329 H   0  0  0  0  0  0  0  0  0  0  0  0
    1.0389   -5.4703   -2.9217 H   0  0  0  0  0  0  0  0  0  0  0  0
    0.9339   -6.7583   -1.7146 H   0  0  0  0  0  0  0  0  0  0  0  0
    1.1659   -7.1676   -3.4141 H   0  0  0  0  0  0  0  0  0  0  0  0
   -1.7339    1.4733   -2.5949 H   0  0  0  0  0  0  0  0  0  0  0  0
   -2.8232    3.4471   -0.5106 H   0  0  0  0  0  0  0  0  0  0  0  0
   -3.4501    3.2238   -2.1395 H   0  0  0  0  0  0  0  0  0  0  0  0
   -3.5793    1.9043   -0.9525 H   0  0  0  0  0  0  0  0  0  0  0  0
   -0.9442    4.0490   -1.7286 H   0  0  0  0  0  0  0  0  0  0  0  0
    2.6613    1.3620    1.5784 H   0  0  0  0  0  0  0  0  0  0  0  0
    1.5940    2.5199    0.7780 H   0  0  0  0  0  0  0  0  0  0  0  0
    0.9106    1.1745    1.6976 H   0  0  0  0  0  0  0  0  0  0  0  0
    4.3589   -0.2460   -1.6553 H   0  0  0  0  0  0  0  0  0  0  0  0
    5.5674   -1.4621   -2.1490 H   0  0  0  0  0  0  0  0  0  0  0  0
    3.5353   -3.8757   -2.3774 H   0  0  0  0  0  0  0  0  0  0  0  0
    2.0786   -2.9733   -1.9008 H   0  0  0  0  0  0  0  0  0  0  0  0
    5.4707   -1.7312   -7.2307 H   0  0  0  0  0  0  0  0  0  0  0  0
    3.9226   -0.8926   -6.9688 H   0  0  0  0  0  0  0  0  0  0  0  0
    3.1548   -3.1139   -6.9970 H   0  0  0  0  0  0  0  0  0  0  0  0
    4.6471   -3.7750   -6.3360 H   0  0  0  0  0  0  0  0  0  0  0  0
  1  2  1  0  0  0  0
  1 34  1  1  0  0  0
  1 22  1  0  0  0  0
  2  3  1  0  0  0  0
  2 21  2  0  0  0  0
  3  5  1  0  0  0  0
  4  3  1  0  0  0  0
  4  1  1  0  0  0  0
  4 35  1  6  0  0  0
  5  6  2  0  0  0  0
  5 10  1  0  0  0  0
  6  7  1  0  0  0  0
  6  8  1  0  0  0  0
  7  4  1  0  0  0  0
  7 25  1  0  0  0  0
  7 36  1  6  0  0  0
  8  9  1  0  0  0  0
  9 26  1  0  0  0  0
  9 37  1  0  0  0  0
 10 11  1  0  0  0  0
 10 20  2  0  0  0  0
 11 12  1  0  0  0  0
 12 13  1  0  0  0  0
 12 38  1  0  0  0  0
 12 39  1  0  0  0  0
 13 14  1  0  0  0  0
 14 15  1  0  0  0  0
 14 18  2  0  0  0  0
 15 16  1  0  0  0  0
 15 17  1  0  0  0  0
 15 19  1  0  0  0  0
 16 40  1  0  0  0  0
 16 41  1  0  0  0  0
 16 42  1  0  0  0  0
 17 43  1  0  0  0  0
 17 44  1  0  0  0  0
 17 45  1  0  0  0  0
 19 46  1  0  0  0  0
 19 47  1  0  0  0  0
 19 48  1  0  0  0  0
 22 23  1  0  0  0  0
 22 24  1  0  0  0  0
 22 49  1  6  0  0  0
 23 50  1  0  0  0  0
 23 51  1  0  0  0  0
 23 52  1  0  0  0  0
 24 53  1  0  0  0  0
 25 54  1  0  0  0  0
 25 55  1  0  0  0  0
 25 56  1  0  0  0  0
 26 27  1  0  0  0  0
 26 57  1  0  0  0  0
 26 58  1  0  0  0  0
 27 28  1  0  0  0  0
 27 29  1  0  0  0  0
 28  9  1  0  0  0  0
 28 59  1  0  0  0  0
 28 60  1  0  0  0  0
 29 30  1  0  0  0  0
 30 31  1  0  0  0  0
 31 32  1  0  0  0  0
 31 61  1  0  0  0  0
 31 62  1  0  0  0  0
 32 33  1  0  0  0  0
 32 63  1  0  0  0  0
 32 64  1  0  0  0  0
 33 29  2  0  0  0  0
M  END
>  <Mol_ID>
622

>  <Formula>
C22H31N3O6S2

>  <MolWeight>
497.62804

>  <Cat>
S2159

>  <Name>
Tebipenem Pivoxil

>  <Synonyms>
L-084, ME1211,TBPM-PI,LJC 11036

>  <Target>
Antibiotics

>  <Form>
free base

>  <CAS>
161715-24-8

>  <URL>
http://selleckchem.com/products/Tebipenem-pivoxil(L-084).html

$$$$
