TED-347
 OpenBabel08302521233D

 32 33  0  0  0  0  0  0  0  0999 V2000
    1.2852   -0.3605   -0.4263 C   0  0  0  0  0  0  0  0  0  0  0  0
    0.4430   -1.3994   -0.0122 C   0  0  0  0  0  0  0  0  0  0  0  0
   -0.8640   -1.1255    0.3898 C   0  0  0  0  0  0  0  0  0  0  0  0
   -1.3309    0.1916    0.4147 C   0  0  0  0  0  0  0  0  0  0  0  0
   -0.4930    1.2544    0.0570 C   0  0  0  0  0  0  0  0  0  0  0  0
    0.7916    0.9551   -0.4205 C   0  0  0  0  0  0  0  0  0  0  0  0
    2.7093   -0.6181   -0.8491 C   0  0  0  0  0  0  0  0  0  0  0  0
    3.0637   -1.9329   -0.8007 F   0  0  0  0  0  0  0  0  0  0  0  0
    2.9613   -0.2101   -2.1231 F   0  0  0  0  0  0  0  0  0  0  0  0
    3.6085    0.0367   -0.0617 F   0  0  0  0  0  0  0  0  0  0  0  0
   -0.9762    2.5900    0.1169 N   0  0  0  0  0  0  0  0  0  0  0  0
   -0.2045    3.7474    0.4228 C   0  0  0  0  0  0  0  0  0  0  0  0
    0.9078    3.6156    1.2865 C   0  0  0  0  0  0  0  0  0  0  0  0
    1.7239    4.6959    1.6146 C   0  0  0  0  0  0  0  0  0  0  0  0
    1.4255    5.9538    1.1188 C   0  0  0  0  0  0  0  0  0  0  0  0
    0.2950    6.1270    0.3213 C   0  0  0  0  0  0  0  0  0  0  0  0
   -0.5471    5.0446   -0.0226 C   0  0  0  0  0  0  0  0  0  0  0  0
   -1.7351    5.4145   -0.8668 C   0  0  0  0  0  0  0  0  0  0  0  0
   -1.8733    6.5807   -1.2438 O   0  0  0  0  0  0  0  0  0  0  0  0
   -2.7764    4.3947   -1.2420 C   0  0  0  0  0  0  0  0  0  0  0  0
    0.7998   -2.4284   -0.0043 H   0  0  0  0  0  0  0  0  0  0  0  0
   -1.5190   -1.9384    0.6950 H   0  0  0  0  0  0  0  0  0  0  0  0
   -2.3516    0.3763    0.7389 H   0  0  0  0  0  0  0  0  0  0  0  0
    1.4389    1.7592   -0.7696 H   0  0  0  0  0  0  0  0  0  0  0  0
   -1.8411    2.6191    0.6546 H   0  0  0  0  0  0  0  0  0  0  0  0
    1.1585    2.6479    1.7176 H   0  0  0  0  0  0  0  0  0  0  0  0
    2.5886    4.5502    2.2577 H   0  0  0  0  0  0  0  0  0  0  0  0
    2.0605    6.8036    1.3566 H   0  0  0  0  0  0  0  0  0  0  0  0
    0.0701    7.1312   -0.0377 H   0  0  0  0  0  0  0  0  0  0  0  0
   -2.3627    3.6681   -1.9440 H   0  0  0  0  0  0  0  0  0  0  0  0
   -3.1966    3.9178   -0.3546 H   0  0  0  0  0  0  0  0  0  0  0  0
   -3.6051    4.9091   -1.7418 H   0  0  0  0  0  0  0  0  0  0  0  0
  1  2  2  0  0  0  0
  1  7  1  0  0  0  0
  2  3  1  0  0  0  0
  2 21  1  0  0  0  0
  3  4  2  0  0  0  0
  3 22  1  0  0  0  0
  4  5  1  0  0  0  0
  4 23  1  0  0  0  0
  5  6  2  0  0  0  0
  5 11  1  0  0  0  0
  6  1  1  0  0  0  0
  6 24  1  0  0  0  0
  7  8  1  0  0  0  0
  7  9  1  0  0  0  0
  7 10  1  0  0  0  0
 11 12  1  0  0  0  0
 11 25  1  0  0  0  0
 12 13  2  0  0  0  0
 13 14  1  0  0  0  0
 13 26  1  0  0  0  0
 14 15  2  0  0  0  0
 14 27  1  0  0  0  0
 15 16  1  0  0  0  0
 15 28  1  0  0  0  0
 16 17  2  0  0  0  0
 16 29  1  0  0  0  0
 17 12  1  0  0  0  0
 17 18  1  0  0  0  0
 18 19  2  0  0  0  0
 18 20  1  0  0  0  0
 20 30  1  0  0  0  0
 20 31  1  0  0  0  0
 20 32  1  0  0  0  0
M  END
>  <Mol_ID>
4905

>  <Formula>
C15H11ClF3NO

>  <MolWeight>
313.7021496

>  <Cat>
S8951

>  <Name>
TED-347

>  <Synonyms>
N/A

>  <Target>
TEAD,YAP

>  <Form>
Free Base

>  <CAS>
2378626-29-8

>  <URL>
http://www.selleckchem.com/products/ted-347.html

$$$$
