Telatinib (BAY 57-9352).cdx
 OpenBabel08302521403D

 45 48  0  0  0  0  0  0  0  0999 V2000
    1.7758    0.5473    0.9207 N   0  0  0  0  0  0  0  0  0  0  0  0
    0.6718    1.2956    0.6250 C   0  0  0  0  0  0  0  0  0  0  0  0
   -0.4715    0.5606    0.2435 C   0  0  0  0  0  0  0  0  0  0  0  0
   -0.3922   -0.8255    0.1505 C   0  0  0  0  0  0  0  0  0  0  0  0
    0.7587   -1.5624    0.3957 C   0  0  0  0  0  0  0  0  0  0  0  0
    1.8316   -0.8564    0.7959 N   0  0  0  0  0  0  0  0  0  0  0  0
    0.8157   -2.9171    0.1324 O   0  0  0  0  0  0  0  0  0  0  0  0
    1.8153   -3.6044    0.8846 C   0  0  0  0  0  0  0  0  0  0  0  0
    1.9805   -5.0283    0.3798 C   0  0  0  0  0  0  0  0  0  0  0  0
    2.4345   -6.0284    1.2489 C   0  0  0  0  0  0  0  0  0  0  0  0
    2.7163   -7.2965    0.7408 C   0  0  0  0  0  0  0  0  0  0  0  0
    2.5462   -7.6440   -0.5672 N   0  0  0  0  0  0  0  0  0  0  0  0
    2.0854   -6.6690   -1.3811 C   0  0  0  0  0  0  0  0  0  0  0  0
    1.8086   -5.3699   -0.9669 C   0  0  0  0  0  0  0  0  0  0  0  0
    3.3101   -8.3357    1.6448 C   0  0  0  0  0  0  0  0  0  0  0  0
    3.4387   -8.1316    2.8427 O   0  0  0  0  0  0  0  0  0  0  0  0
    3.7109   -9.4996    1.0152 N   0  0  0  0  0  0  0  0  0  0  0  0
    4.3263  -10.5942    1.7231 C   0  0  0  0  0  0  0  0  0  0  0  0
    0.6820    2.7018    0.6577 N   0  0  0  0  0  0  0  0  0  0  0  0
   -1.8184    0.8853   -0.0998 C   0  0  0  0  0  0  0  0  0  0  0  0
   -2.4632   -0.3057   -0.3363 C   0  0  0  0  0  0  0  0  0  0  0  0
   -1.6024   -1.3443   -0.2137 O   0  0  0  0  0  0  0  0  0  0  0  0
    1.6538    3.5524    1.2117 C   0  0  0  0  0  0  0  0  0  0  0  0
    2.0436    4.7170    0.5359 C   0  0  0  0  0  0  0  0  0  0  0  0
    3.0834    5.5171    1.0271 C   0  0  0  0  0  0  0  0  0  0  0  0
    3.7345    5.1707    2.2082 C   0  0  0  0  0  0  0  0  0  0  0  0
    3.3437    4.0285    2.9005 C   0  0  0  0  0  0  0  0  0  0  0  0
    2.3203    3.2226    2.3982 C   0  0  0  0  0  0  0  0  0  0  0  0
    2.7953   -3.1188    0.8052 H   0  0  0  0  0  0  0  0  0  0  0  0
    1.4965   -3.6278    1.9338 H   0  0  0  0  0  0  0  0  0  0  0  0
    2.6030   -5.8244    2.3017 H   0  0  0  0  0  0  0  0  0  0  0  0
    1.9542   -6.9591   -2.4212 H   0  0  0  0  0  0  0  0  0  0  0  0
    1.4754   -4.6357   -1.6947 H   0  0  0  0  0  0  0  0  0  0  0  0
    3.4969   -9.5772    0.0237 H   0  0  0  0  0  0  0  0  0  0  0  0
    3.5569  -11.3314    1.9629 H   0  0  0  0  0  0  0  0  0  0  0  0
    5.0771  -11.0496    1.0741 H   0  0  0  0  0  0  0  0  0  0  0  0
    4.7994  -10.2495    2.6465 H   0  0  0  0  0  0  0  0  0  0  0  0
   -0.0014    3.1451    0.0604 H   0  0  0  0  0  0  0  0  0  0  0  0
   -2.2729    1.8652   -0.1365 H   0  0  0  0  0  0  0  0  0  0  0  0
   -3.4798   -0.5732   -0.5926 H   0  0  0  0  0  0  0  0  0  0  0  0
    1.5697    4.9982   -0.4014 H   0  0  0  0  0  0  0  0  0  0  0  0
    3.3961    6.4020    0.4787 H   0  0  0  0  0  0  0  0  0  0  0  0
    4.5506    5.7814    2.5854 H   0  0  0  0  0  0  0  0  0  0  0  0
    3.8420    3.7509    3.8257 H   0  0  0  0  0  0  0  0  0  0  0  0
    2.0356    2.3324    2.9524 H   0  0  0  0  0  0  0  0  0  0  0  0
  1  2  2  0  0  0  0
  2  3  1  0  0  0  0
  2 19  1  0  0  0  0
  3  4  2  0  0  0  0
  3 20  1  0  0  0  0
  4  5  1  0  0  0  0
  5  6  2  0  0  0  0
  5  7  1  0  0  0  0
  6  1  1  0  0  0  0
  7  8  1  0  0  0  0
  8  9  1  0  0  0  0
  8 29  1  0  0  0  0
  8 30  1  0  0  0  0
  9 10  2  0  0  0  0
 10 11  1  0  0  0  0
 10 31  1  0  0  0  0
 11 12  2  0  0  0  0
 11 15  1  0  0  0  0
 12 13  1  0  0  0  0
 13 14  2  0  0  0  0
 13 32  1  0  0  0  0
 14  9  1  0  0  0  0
 14 33  1  0  0  0  0
 15 16  2  0  0  0  0
 15 17  1  0  0  0  0
 17 18  1  0  0  0  0
 17 34  1  0  0  0  0
 18 35  1  0  0  0  0
 18 36  1  0  0  0  0
 18 37  1  0  0  0  0
 19 23  1  0  0  0  0
 19 38  1  0  0  0  0
 20 21  2  0  0  0  0
 20 39  1  0  0  0  0
 21 22  1  0  0  0  0
 21 40  1  0  0  0  0
 22  4  1  0  0  0  0
 23 24  2  0  0  0  0
 24 25  1  0  0  0  0
 24 41  1  0  0  0  0
 25 26  2  0  0  0  0
 25 42  1  0  0  0  0
 26 27  1  0  0  0  0
 26 43  1  0  0  0  0
 27 28  2  0  0  0  0
 27 44  1  0  0  0  0
 28 23  1  0  0  0  0
 28 45  1  0  0  0  0
M  END
>  <Mol_ID>
802

>  <Formula>
C20H16ClN5O3

>  <MolWeight>
409.82574

>  <Cat>
S2231

>  <Name>
Telatinib

>  <Synonyms>
BAY 57-9352

>  <Target>
c-Kit,PDGFR,VEGFR

>  <Form>
free base

>  <CAS>
332012-40-5

>  <URL>
http://selleckchem.com/products/Telatinib-BAY-57-9352.html

$$$$
