Telocinobufagin
 OpenBabel08302521463D

 63 67  0  0  1  0  0  0  0  0999 V2000
    1.2129   -3.6712   -0.9803 O   0  0  0  0  0  0  0  0  0  0  0  0
    3.0476   -2.7547    0.6898 C   0  0  0  0  0  0  0  0  0  0  0  0
   -2.2369   -0.0612    2.0588 C   0  0  0  0  0  0  0  0  0  0  0  0
   -2.9244   -2.5866    1.0260 O   0  0  0  0  0  0  0  0  0  0  0  0
   -6.3252    0.5176   -0.0842 O   0  0  0  0  0  0  0  0  0  0  0  0
    7.1746    2.6712    0.3445 O   0  0  0  0  0  0  0  0  0  0  0  0
   -0.3870   -1.8991   -0.5246 C   0  0  1  0  0  0  0  0  0  0  0  0
    1.0799   -2.2408   -0.9037 C   0  0  1  0  0  0  0  0  0  0  0  0
   -0.6379   -0.4696    0.0253 C   0  0  1  0  0  0  0  0  0  0  0  0
   -1.3541   -2.1155   -1.6983 C   0  0  0  0  0  0  0  0  0  0  0  0
    2.1217   -1.6527    0.1291 C   0  0  2  0  0  0  0  0  0  0  0  0
    1.5342   -1.7464   -2.3053 C   0  0  0  0  0  0  0  0  0  0  0  0
   -2.1416   -0.2677    0.5159 C   0  0  1  0  0  0  0  0  0  0  0  0
    0.4368    0.0543    0.9975 C   0  0  0  0  0  0  0  0  0  0  0  0
   -2.8207   -2.0603   -1.2837 C   0  0  0  0  0  0  0  0  0  0  0  0
    2.8214   -0.5811   -0.7644 C   0  0  2  0  0  0  0  0  0  0  0  0
    1.4539   -1.0072    1.3588 C   0  0  0  0  0  0  0  0  0  0  0  0
    2.9725   -1.2805   -2.1075 C   0  0  0  0  0  0  0  0  0  0  0  0
   -3.0868   -1.4741    0.1176 C   0  0  1  0  0  0  0  0  0  0  0  0
   -2.6246    1.0439   -0.1716 C   0  0  0  0  0  0  0  0  0  0  0  0
   -4.5861   -1.1151    0.2410 C   0  0  0  0  0  0  0  0  0  0  0  0
   -4.0880    1.3581    0.0792 C   0  0  0  0  0  0  0  0  0  0  0  0
   -4.9697    0.2147   -0.3980 C   0  0  2  0  0  0  0  0  0  0  0  0
    4.0077    0.2245   -0.3234 C   0  0  0  0  0  0  0  0  0  0  0  0
    3.8632    1.6681   -0.3796 C   0  0  0  0  0  0  0  0  0  0  0  0
    5.2050   -0.2544    0.0267 C   0  0  0  0  0  0  0  0  0  0  0  0
    4.8993    2.4768   -0.1508 C   0  0  0  0  0  0  0  0  0  0  0  0
    6.3136    0.5613    0.3129 O   0  0  0  0  0  0  0  0  0  0  0  0
    6.2184    1.9234    0.1820 C   0  0  0  0  0  0  0  0  0  0  0  0
    0.3879   -4.1020   -0.7011 H   0  0  0  0  0  0  0  0  0  0  0  0
    2.4515   -3.5446    1.1681 H   0  0  0  0  0  0  0  0  0  0  0  0
    3.6596   -3.2291   -0.0813 H   0  0  0  0  0  0  0  0  0  0  0  0
    3.7144   -2.3672    1.4665 H   0  0  0  0  0  0  0  0  0  0  0  0
   -3.2560   -0.1814    2.4358 H   0  0  0  0  0  0  0  0  0  0  0  0
   -1.9257    0.9474    2.3543 H   0  0  0  0  0  0  0  0  0  0  0  0
   -1.6166   -0.7809    2.6051 H   0  0  0  0  0  0  0  0  0  0  0  0
   -2.1282   -2.4739    1.5666 H   0  0  0  0  0  0  0  0  0  0  0  0
   -6.4093    0.5433    0.8850 H   0  0  0  0  0  0  0  0  0  0  0  0
   -0.6404   -2.6154    0.2626 H   0  0  0  0  0  0  0  0  0  0  0  0
   -0.5056    0.1768   -0.8568 H   0  0  0  0  0  0  0  0  0  0  0  0
   -1.1523   -3.0598   -2.2166 H   0  0  0  0  0  0  0  0  0  0  0  0
   -1.2023   -1.3290   -2.4504 H   0  0  0  0  0  0  0  0  0  0  0  0
    1.4712   -2.5130   -3.0843 H   0  0  0  0  0  0  0  0  0  0  0  0
    0.9456   -0.8815   -2.6345 H   0  0  0  0  0  0  0  0  0  0  0  0
    0.9324    0.9212    0.5446 H   0  0  0  0  0  0  0  0  0  0  0  0
    0.0500    0.4761    1.9240 H   0  0  0  0  0  0  0  0  0  0  0  0
   -3.1995   -3.0921   -1.3108 H   0  0  0  0  0  0  0  0  0  0  0  0
   -3.3740   -1.5173   -2.0579 H   0  0  0  0  0  0  0  0  0  0  0  0
    2.0571    0.1781   -0.9741 H   0  0  0  0  0  0  0  0  0  0  0  0
    2.2141   -0.5588    2.0108 H   0  0  0  0  0  0  0  0  0  0  0  0
    0.9520   -1.7764    1.9622 H   0  0  0  0  0  0  0  0  0  0  0  0
    3.6677   -2.1256   -2.0664 H   0  0  0  0  0  0  0  0  0  0  0  0
    3.2945   -0.6065   -2.9071 H   0  0  0  0  0  0  0  0  0  0  0  0
   -2.0120    1.8903    0.1674 H   0  0  0  0  0  0  0  0  0  0  0  0
   -2.4740    0.9735   -1.2575 H   0  0  0  0  0  0  0  0  0  0  0  0
   -5.1986   -1.9164   -0.1947 H   0  0  0  0  0  0  0  0  0  0  0  0
   -4.8871   -1.1175    1.2963 H   0  0  0  0  0  0  0  0  0  0  0  0
   -4.2653    1.5676    1.1412 H   0  0  0  0  0  0  0  0  0  0  0  0
   -4.3623    2.2805   -0.4466 H   0  0  0  0  0  0  0  0  0  0  0  0
   -4.9034    0.1373   -1.4884 H   0  0  0  0  0  0  0  0  0  0  0  0
    2.8946    2.1020   -0.6225 H   0  0  0  0  0  0  0  0  0  0  0  0
    5.4847   -1.2955    0.0913 H   0  0  0  0  0  0  0  0  0  0  0  0
    4.8166    3.5559   -0.2238 H   0  0  0  0  0  0  0  0  0  0  0  0
  1 30  1  0  0  0  0
  2 31  1  0  0  0  0
  2 32  1  0  0  0  0
  2 33  1  0  0  0  0
  3 34  1  0  0  0  0
  3 35  1  0  0  0  0
  3 36  1  0  0  0  0
  4 37  1  0  0  0  0
  5 38  1  0  0  0  0
  6 29  2  0  0  0  0
  7  8  1  0  0  0  0
  7  9  1  0  0  0  0
  7 10  1  0  0  0  0
  7 39  1  1  0  0  0
  8  1  1  1  0  0  0
  8 11  1  0  0  0  0
  8 12  1  0  0  0  0
  9 13  1  0  0  0  0
  9 14  1  0  0  0  0
  9 40  1  6  0  0  0
 10 15  1  0  0  0  0
 10 41  1  0  0  0  0
 10 42  1  0  0  0  0
 11  2  1  1  0  0  0
 11 16  1  0  0  0  0
 11 17  1  0  0  0  0
 12 18  1  0  0  0  0
 12 43  1  0  0  0  0
 12 44  1  0  0  0  0
 13  3  1  1  0  0  0
 13 19  1  0  0  0  0
 13 20  1  0  0  0  0
 14 17  1  0  0  0  0
 14 45  1  0  0  0  0
 14 46  1  0  0  0  0
 15 19  1  0  0  0  0
 15 47  1  0  0  0  0
 15 48  1  0  0  0  0
 16 18  1  0  0  0  0
 16 24  1  0  0  0  0
 16 49  1  6  0  0  0
 17 50  1  0  0  0  0
 17 51  1  0  0  0  0
 18 52  1  0  0  0  0
 18 53  1  0  0  0  0
 19  4  1  1  0  0  0
 19 21  1  0  0  0  0
 20 22  1  0  0  0  0
 20 54  1  0  0  0  0
 20 55  1  0  0  0  0
 21 23  1  0  0  0  0
 21 56  1  0  0  0  0
 21 57  1  0  0  0  0
 22 23  1  0  0  0  0
 22 58  1  0  0  0  0
 22 59  1  0  0  0  0
 23  5  1  0  0  0  0
 23 60  1  6  0  0  0
 24 25  1  0  0  0  0
 24 26  2  0  0  0  0
 25 27  2  0  0  0  0
 25 61  1  0  0  0  0
 26 28  1  0  0  0  0
 26 62  1  0  0  0  0
 27 29  1  0  0  0  0
 27 63  1  0  0  0  0
 28 29  1  0  0  0  0
M  END
>  <Mol_ID>
9631

>  <Formula>
C24H34O5

>  <MolWeight>
402.52376

>  <Cat>
E2074

>  <Name>
Telocinobufagin

>  <Synonyms>
Telobufotoxin; Telocinobufogenin

>  <Target>
Na?/K?-ATPase

>  <Form>
Free Base

>  <CAS>
472-26-4

>  <URL>
https://www.selleckchem.com/products/telocinobufagin.html

$$$$
