Temozolomide Acid
 OpenBabel08302521353D

 19 20  0  0  0  0  0  0  0  0999 V2000
    0.9618    0.0221    0.0872 C   0  0  0  0  0  0  0  0  0  0  0  0
    0.4862    1.2963    0.0852 O   0  0  0  0  0  0  0  0  0  0  0  0
    0.2331   -0.9582    0.0929 O   0  0  0  0  0  0  0  0  0  0  0  0
    6.7422   -0.9328    0.0751 O   0  0  0  0  0  0  0  0  0  0  0  0
    6.3265   -3.7773    0.0892 C   0  0  0  0  0  0  0  0  0  0  0  0
    3.2318   -1.1294    0.0825 C   0  0  0  0  0  0  0  0  0  0  0  0
    4.5058   -0.6384    0.0777 N   0  0  0  0  0  0  0  0  0  0  0  0
    2.4163   -0.0158    0.0819 C   0  0  0  0  0  0  0  0  0  0  0  0
    3.0246   -2.4609    0.0873 N   0  0  0  0  0  0  0  0  0  0  0  0
    5.6308   -1.4393    0.0782 C   0  0  0  0  0  0  0  0  0  0  0  0
    4.4258    0.7314    0.0736 C   0  0  0  0  0  0  0  0  0  0  0  0
    3.1766    1.1507    0.0760 N   0  0  0  0  0  0  0  0  0  0  0  0
    3.9923   -3.2557    0.0886 N   0  0  0  0  0  0  0  0  0  0  0  0
    5.2815   -2.7774    0.0833 N   0  0  0  0  0  0  0  0  0  0  0  0
    1.2585    1.9066    0.0807 H   0  0  0  0  0  0  0  0  0  0  0  0
    6.9582   -3.6394   -0.7932 H   0  0  0  0  0  0  0  0  0  0  0  0
    6.9390   -3.6471    0.9863 H   0  0  0  0  0  0  0  0  0  0  0  0
    5.8976   -4.7837    0.0802 H   0  0  0  0  0  0  0  0  0  0  0  0
    5.3110    1.3575    0.0694 H   0  0  0  0  0  0  0  0  0  0  0  0
  1  2  1  0  0  0  0
  1  3  2  0  0  0  0
  1  8  1  0  0  0  0
  2 15  1  0  0  0  0
  4 10  2  0  0  0  0
  5 14  1  0  0  0  0
  5 16  1  0  0  0  0
  5 17  1  0  0  0  0
  5 18  1  0  0  0  0
  6  7  1  0  0  0  0
  6  8  2  0  0  0  0
  6  9  1  0  0  0  0
  7 10  1  0  0  0  0
  7 11  1  0  0  0  0
  8 12  1  0  0  0  0
  9 13  2  0  0  0  0
 10 14  1  0  0  0  0
 11 12  2  0  0  0  0
 11 19  1  0  0  0  0
 13 14  1  0  0  0  0
M  END
>  <Mol_ID>
7016

>  <Formula>
C6H5N5O3

>  <MolWeight>
195.1356

>  <Cat>
E4467

>  <Name>
Temozolomide Acid

>  <Target>
Others

>  <Form>
free base

>  <CAS>
113942-30-6

>  <URL>
https://www.selleckchem.com/products/temozolomide-acid.html

$$$$
