Temocapril
 OpenBabel08302521233D

 60 62  0  0  0  0  0  0  0  0999 V2000
   -2.4051    3.8942    8.2703 C   0  0  0  0  0  0  0  0  0  0  0  0
   -3.7304    4.3173    8.1888 C   0  0  0  0  0  0  0  0  0  0  0  0
   -4.5610    3.8134    7.1897 C   0  0  0  0  0  0  0  0  0  0  0  0
   -4.0587    2.9092    6.2520 C   0  0  0  0  0  0  0  0  0  0  0  0
   -2.7167    2.5068    6.3024 C   0  0  0  0  0  0  0  0  0  0  0  0
   -1.9004    2.9895    7.3346 C   0  0  0  0  0  0  0  0  0  0  0  0
   -2.1257    1.6798    5.1810 C   0  0  0  0  0  0  0  0  0  0  0  0
   -1.5549    2.6291    4.1131 C   0  0  0  0  0  0  0  0  0  0  0  0
   -0.9272    1.9364    2.8937 C   0  0  2  0  0  0  0  0  0  0  0  0
   -0.3907    2.9147    1.9197 N   0  0  0  0  0  0  0  0  0  0  0  0
    0.6715    3.8392    2.3779 C   0  0  2  0  0  0  0  0  0  0  0  0
   -1.9349    1.0218    2.1442 C   0  0  0  0  0  0  0  0  0  0  0  0
   -3.2111    1.5026    2.1978 O   0  0  0  0  0  0  0  0  0  0  0  0
   -1.5930    0.0240    1.5180 O   0  0  0  0  0  0  0  0  0  0  0  0
   -4.2138    0.7665    1.4800 C   0  0  0  0  0  0  0  0  0  0  0  0
   -4.7421   -0.3866    2.3178 C   0  0  0  0  0  0  0  0  0  0  0  0
    1.0198    4.7602    1.1922 C   0  0  0  0  0  0  0  0  0  0  0  0
    1.4319    6.0260    1.5670 N   0  0  0  0  0  0  0  0  0  0  0  0
    2.8413    6.3396    1.3522 C   0  0  0  0  0  0  0  0  0  0  0  0
    3.7994    5.1639    1.7061 C   0  0  2  0  0  0  0  0  0  0  0  0
    3.3663    4.3566    3.3369 S   0  0  0  0  0  0  0  0  0  0  0  0
    2.0163    3.1890    2.8004 C   0  0  0  0  0  0  0  0  0  0  0  0
    5.2404    5.6347    1.7243 C   0  0  0  0  0  0  0  0  0  0  0  0
    6.3741    4.9212    0.6436 S   0  0  0  0  0  0  0  0  0  0  0  0
    7.6368    5.9376    1.1813 C   0  0  0  0  0  0  0  0  0  0  0  0
    7.2181    6.8053    2.1630 C   0  0  0  0  0  0  0  0  0  0  0  0
    5.8396    6.6270    2.4816 C   0  0  0  0  0  0  0  0  0  0  0  0
    1.2497    4.3055    0.0684 O   0  0  0  0  0  0  0  0  0  0  0  0
    0.6012    6.9293    2.3680 C   0  0  0  0  0  0  0  0  0  0  0  0
    0.3027    8.2824    1.7274 C   0  0  0  0  0  0  0  0  0  0  0  0
   -0.4110    9.1458    2.2176 O   0  0  0  0  0  0  0  0  0  0  0  0
    0.9094    8.5048    0.5462 O   0  0  0  0  0  0  0  0  0  0  0  0
   -1.7581    4.2857    9.0510 H   0  0  0  0  0  0  0  0  0  0  0  0
   -4.1140    5.0447    8.8994 H   0  0  0  0  0  0  0  0  0  0  0  0
   -5.5952    4.1419    7.1273 H   0  0  0  0  0  0  0  0  0  0  0  0
   -4.7126    2.5467    5.4618 H   0  0  0  0  0  0  0  0  0  0  0  0
   -0.8569    2.6900    7.3968 H   0  0  0  0  0  0  0  0  0  0  0  0
   -1.3391    1.0253    5.5757 H   0  0  0  0  0  0  0  0  0  0  0  0
   -2.8977    1.0215    4.7690 H   0  0  0  0  0  0  0  0  0  0  0  0
   -2.3403    3.3225    3.7834 H   0  0  0  0  0  0  0  0  0  0  0  0
   -0.7932    3.2463    4.6063 H   0  0  0  0  0  0  0  0  0  0  0  0
   -0.1235    1.2730    3.2372 H   0  0  0  0  0  0  0  0  0  0  0  0
   -0.0533    2.4228    1.0824 H   0  0  0  0  0  0  0  0  0  0  0  0
    0.2901    4.4456    3.2024 H   0  0  0  0  0  0  0  0  0  0  0  0
   -5.0293    1.4687    1.2806 H   0  0  0  0  0  0  0  0  0  0  0  0
   -3.8431    0.4201    0.5085 H   0  0  0  0  0  0  0  0  0  0  0  0
   -4.7811   -0.1261    3.3798 H   0  0  0  0  0  0  0  0  0  0  0  0
   -5.7440   -0.6774    1.9860 H   0  0  0  0  0  0  0  0  0  0  0  0
   -4.0930   -1.2627    2.2192 H   0  0  0  0  0  0  0  0  0  0  0  0
    2.9683    6.6177    0.2991 H   0  0  0  0  0  0  0  0  0  0  0  0
    3.0862    7.2276    1.9487 H   0  0  0  0  0  0  0  0  0  0  0  0
    3.6986    4.3809    0.9458 H   0  0  0  0  0  0  0  0  0  0  0  0
    1.8437    2.5331    3.6602 H   0  0  0  0  0  0  0  0  0  0  0  0
    2.4236    2.5618    1.9990 H   0  0  0  0  0  0  0  0  0  0  0  0
    8.6252    5.8501    0.7511 H   0  0  0  0  0  0  0  0  0  0  0  0
    7.8705    7.5324    2.6314 H   0  0  0  0  0  0  0  0  0  0  0  0
    5.3139    7.2082    3.2297 H   0  0  0  0  0  0  0  0  0  0  0  0
   -0.3689    6.4524    2.5409 H   0  0  0  0  0  0  0  0  0  0  0  0
    1.1039    7.0976    3.3261 H   0  0  0  0  0  0  0  0  0  0  0  0
    0.5915    9.3872    0.2635 H   0  0  0  0  0  0  0  0  0  0  0  0
  1  2  2  0  0  0  0
  1 33  1  0  0  0  0
  2  3  1  0  0  0  0
  2 34  1  0  0  0  0
  3  4  2  0  0  0  0
  3 35  1  0  0  0  0
  4  5  1  0  0  0  0
  4 36  1  0  0  0  0
  5  6  2  0  0  0  0
  5  7  1  0  0  0  0
  6  1  1  0  0  0  0
  6 37  1  0  0  0  0
  7  8  1  0  0  0  0
  7 38  1  0  0  0  0
  7 39  1  0  0  0  0
  8 40  1  0  0  0  0
  8 41  1  0  0  0  0
  9 12  1  0  0  0  0
  9 42  1  1  0  0  0
  9 10  1  0  0  0  0
  9  8  1  0  0  0  0
 10 43  1  0  0  0  0
 11 10  1  0  0  0  0
 11 17  1  0  0  0  0
 11 44  1  1  0  0  0
 12 13  1  0  0  0  0
 12 14  2  0  0  0  0
 13 15  1  0  0  0  0
 15 16  1  0  0  0  0
 15 45  1  0  0  0  0
 15 46  1  0  0  0  0
 16 47  1  0  0  0  0
 16 48  1  0  0  0  0
 16 49  1  0  0  0  0
 17 18  1  0  0  0  0
 17 28  2  0  0  0  0
 18 19  1  0  0  0  0
 18 29  1  0  0  0  0
 19 20  1  0  0  0  0
 19 50  1  0  0  0  0
 19 51  1  0  0  0  0
 20 21  1  0  0  0  0
 20 52  1  6  0  0  0
 20 23  1  0  0  0  0
 21 22  1  0  0  0  0
 22 11  1  0  0  0  0
 22 53  1  0  0  0  0
 22 54  1  0  0  0  0
 23 24  1  0  0  0  0
 24 25  1  0  0  0  0
 25 26  2  0  0  0  0
 25 55  1  0  0  0  0
 26 27  1  0  0  0  0
 26 56  1  0  0  0  0
 27 23  2  0  0  0  0
 27 57  1  0  0  0  0
 29 30  1  0  0  0  0
 29 58  1  0  0  0  0
 29 59  1  0  0  0  0
 30 31  2  0  0  0  0
 30 32  1  0  0  0  0
 32 60  1  0  0  0  0
M  END
>  <Mol_ID>
4870

>  <Formula>
C23H28N2O5S2

>  <MolWeight>
476.60882

>  <Cat>
S2100

>  <Name>
Temocapril

>  <Synonyms>
CS-622,temocaprilum

>  <Target>
ACE,RAAS

>  <Form>
Free Base

>  <CAS>
111902-57-9

>  <URL>
http://www.selleck.cn/products/temocapril.html

$$$$
