Tempol.cdx
 OpenBabel08302522003D

 30 30  0  0  0  0  0  0  0  0999 V2000
    0.7634    1.2828   -0.3079 C   0  0  0  0  0  0  0  0  0  0  0  0
    1.4769   -0.0020   -0.0012 N   0  0  0  0  0  0  0  0  0  0  0  0
   -0.7265    1.2719    0.1251 C   0  0  0  0  0  0  0  0  0  0  0  0
    1.4335    2.5299    0.3788 C   0  0  0  0  0  0  0  0  0  0  0  0
    0.9091    1.6354   -1.8111 C   0  0  0  0  0  0  0  0  0  0  0  0
    0.7627   -1.2868   -0.3068 C   0  0  0  0  0  0  0  0  0  0  0  0
    1.7468   -0.0015    1.3788 O   0  0  0  0  0  1  0  0  0  0  0  0
   -1.4974   -0.0015   -0.2005 C   0  0  0  0  0  0  0  0  0  0  0  0
   -0.7270   -1.2752    0.1250 C   0  0  0  0  0  0  0  0  0  0  0  0
    0.9101   -1.6413   -1.8096 C   0  0  0  0  0  0  0  0  0  0  0  0
    1.4316   -2.5339    0.3815 C   0  0  0  0  0  0  0  0  0  0  0  0
   -1.9981   -0.0013   -1.5416 O   0  0  0  0  0  0  0  0  0  0  0  0
   -0.7729    1.4039    1.2151 H   0  0  0  0  0  0  0  0  0  0  0  0
   -1.2443    2.1348   -0.3123 H   0  0  0  0  0  0  0  0  0  0  0  0
    2.4980    2.5984    0.1237 H   0  0  0  0  0  0  0  0  0  0  0  0
    0.9563    3.4612    0.0482 H   0  0  0  0  0  0  0  0  0  0  0  0
    1.3432    2.5163    1.4708 H   0  0  0  0  0  0  0  0  0  0  0  0
    0.4055    0.9619   -2.4946 H   0  0  0  0  0  0  0  0  0  0  0  0
    0.4855    2.6261   -2.0214 H   0  0  0  0  0  0  0  0  0  0  0  0
    1.9657    1.6683   -2.1042 H   0  0  0  0  0  0  0  0  0  0  0  0
   -2.4046   -0.0011    0.4150 H   0  0  0  0  0  0  0  0  0  0  0  0
   -1.2455   -2.1383   -0.3121 H   0  0  0  0  0  0  0  0  0  0  0  0
   -0.7741   -1.4069    1.2155 H   0  0  0  0  0  0  0  0  0  0  0  0
    1.9667   -1.6739   -2.1015 H   0  0  0  0  0  0  0  0  0  0  0  0
    0.4871   -2.6322   -2.0190 H   0  0  0  0  0  0  0  0  0  0  0  0
    0.4067   -0.9685   -2.4945 H   0  0  0  0  0  0  0  0  0  0  0  0
    1.3404   -2.5182    1.4734 H   0  0  0  0  0  0  0  0  0  0  0  0
    0.9539   -3.4650    0.0521 H   0  0  0  0  0  0  0  0  0  0  0  0
    2.4967   -2.6032    0.1276 H   0  0  0  0  0  0  0  0  0  0  0  0
   -1.2243   -0.0046   -2.1200 H   0  0  0  0  0  0  0  0  0  0  0  0
  1  2  1  0  0  0  0
  1  3  1  0  0  0  0
  1  4  1  0  0  0  0
  1  5  1  0  0  0  0
  2  6  1  0  0  0  0
  2  7  1  0  0  0  0
  3  8  1  0  0  0  0
  3 13  1  0  0  0  0
  3 14  1  0  0  0  0
  4 15  1  0  0  0  0
  4 16  1  0  0  0  0
  4 17  1  0  0  0  0
  5 18  1  0  0  0  0
  5 19  1  0  0  0  0
  5 20  1  0  0  0  0
  6  9  1  0  0  0  0
  6 10  1  0  0  0  0
  6 11  1  0  0  0  0
  8 12  1  0  0  0  0
  8  9  1  0  0  0  0
  8 21  1  0  0  0  0
  9 22  1  0  0  0  0
  9 23  1  0  0  0  0
 10 24  1  0  0  0  0
 10 25  1  0  0  0  0
 10 26  1  0  0  0  0
 11 27  1  0  0  0  0
 11 28  1  0  0  0  0
 11 29  1  0  0  0  0
 12 30  1  0  0  0  0
M  RAD  1   7   2
M  END
>  <Mol_ID>
1065

>  <Formula>
C9H18NO2 *

>  <MolWeight>
172.24472

>  <Cat>
S2910

>  <Name>
Tempol

>  <Synonyms>
4-Hydroxy-TEMPO

>  <Target>
Immunology & Inflammation related

>  <Form>
free base

>  <CAS>
2226-96-2

>  <URL>
http://selleckchem.com/products/tempol-4-hydroxy-tempo.html

$$$$
