Temsavir (BMS-626529)
 OpenBabel08302521223D

 58 62  0  0  0  0  0  0  0  0999 V2000
   -1.3938   -0.2656    0.1698 N   0  0  0  0  0  0  0  0  0  0  0  0
   -0.6195   -1.5147    0.0458 C   0  0  0  0  0  0  0  0  0  0  0  0
    0.8423   -1.3077    0.4973 C   0  0  0  0  0  0  0  0  0  0  0  0
    1.4357   -0.1439   -0.1784 N   0  0  0  0  0  0  0  0  0  0  0  0
    0.6907    1.0893    0.0031 C   0  0  0  0  0  0  0  0  0  0  0  0
   -0.7565    0.9049   -0.4553 C   0  0  0  0  0  0  0  0  0  0  0  0
    2.4805   -0.1561   -1.1002 C   0  0  0  0  0  0  0  0  0  0  0  0
    2.8850    0.8441   -1.6867 O   0  0  0  0  0  0  0  0  0  0  0  0
    3.1255   -1.4952   -1.4450 C   0  0  0  0  0  0  0  0  0  0  0  0
    4.1038   -1.8162   -0.7753 O   0  0  0  0  0  0  0  0  0  0  0  0
    2.1446   -5.1288   -4.7805 C   0  0  0  0  0  0  0  0  0  0  0  0
    2.0581   -3.9339   -4.0566 C   0  0  0  0  0  0  0  0  0  0  0  0
    2.9948   -3.5599   -3.0842 C   0  0  0  0  0  0  0  0  0  0  0  0
    4.0899   -4.4270   -2.8557 C   0  0  0  0  0  0  0  0  0  0  0  0
    4.1145   -5.5962   -3.6161 C   0  0  0  0  0  0  0  0  0  0  0  0
    3.1910   -5.9602   -4.5365 N   0  0  0  0  0  0  0  0  0  0  0  0
    1.1070   -2.9414   -4.1158 N   0  0  0  0  0  0  0  0  0  0  0  0
    2.5426   -2.3055   -2.5225 C   0  0  0  0  0  0  0  0  0  0  0  0
    1.3679   -1.9798   -3.1853 C   0  0  0  0  0  0  0  0  0  0  0  0
    1.1861   -5.4884   -5.7565 N   0  0  0  0  0  0  0  0  0  0  0  0
    0.1622   -4.6723   -6.1388 N   0  0  0  0  0  0  0  0  0  0  0  0
   -0.3631   -5.3616   -7.1605 C   0  0  0  0  0  0  0  0  0  0  0  0
    0.1907   -6.5928   -7.3805 N   0  0  0  0  0  0  0  0  0  0  0  0
    1.1521   -6.6465   -6.4871 C   0  0  0  0  0  0  0  0  0  0  0  0
   -1.4149   -4.8130   -8.0402 C   0  0  0  0  0  0  0  0  0  0  0  0
    5.0200   -4.0739   -1.9240 O   0  0  0  0  0  0  0  0  0  0  0  0
    6.0813   -4.9807   -1.6632 C   0  0  0  0  0  0  0  0  0  0  0  0
   -2.5768   -0.2818    0.9331 C   0  0  0  0  0  0  0  0  0  0  0  0
   -3.3934    0.9581    1.0954 C   0  0  0  0  0  0  0  0  0  0  0  0
   -3.5563    1.9148    0.0854 C   0  0  0  0  0  0  0  0  0  0  0  0
   -4.1935    3.1281    0.3470 C   0  0  0  0  0  0  0  0  0  0  0  0
   -4.7870    3.3443    1.5858 C   0  0  0  0  0  0  0  0  0  0  0  0
   -4.7482    2.3476    2.5595 C   0  0  0  0  0  0  0  0  0  0  0  0
   -4.0454    1.1640    2.3229 C   0  0  0  0  0  0  0  0  0  0  0  0
   -2.9544   -1.2941    1.5184 O   0  0  0  0  0  0  0  0  0  0  0  0
   -1.0715   -2.3330    0.6154 H   0  0  0  0  0  0  0  0  0  0  0  0
   -0.6514   -1.7960   -1.0111 H   0  0  0  0  0  0  0  0  0  0  0  0
    0.8536   -1.0821    1.5712 H   0  0  0  0  0  0  0  0  0  0  0  0
    1.4355   -2.2101    0.3368 H   0  0  0  0  0  0  0  0  0  0  0  0
    0.7138    1.3427    1.0678 H   0  0  0  0  0  0  0  0  0  0  0  0
    1.1365    1.9219   -0.5508 H   0  0  0  0  0  0  0  0  0  0  0  0
   -0.8038    0.7431   -1.5409 H   0  0  0  0  0  0  0  0  0  0  0  0
   -1.2504    1.8429   -0.2193 H   0  0  0  0  0  0  0  0  0  0  0  0
    4.9107   -6.3265   -3.5084 H   0  0  0  0  0  0  0  0  0  0  0  0
    0.3150   -2.9686   -4.7525 H   0  0  0  0  0  0  0  0  0  0  0  0
    0.6883   -1.1447   -3.0719 H   0  0  0  0  0  0  0  0  0  0  0  0
    1.8514   -7.4563   -6.3327 H   0  0  0  0  0  0  0  0  0  0  0  0
   -1.1534   -4.9928   -9.0881 H   0  0  0  0  0  0  0  0  0  0  0  0
   -2.3792   -5.2866   -7.8377 H   0  0  0  0  0  0  0  0  0  0  0  0
   -1.5217   -3.7320   -7.9046 H   0  0  0  0  0  0  0  0  0  0  0  0
    5.7021   -5.9133   -1.2319 H   0  0  0  0  0  0  0  0  0  0  0  0
    6.6697   -5.1740   -2.5658 H   0  0  0  0  0  0  0  0  0  0  0  0
    6.7451   -4.5160   -0.9282 H   0  0  0  0  0  0  0  0  0  0  0  0
   -3.1668    1.7427   -0.9124 H   0  0  0  0  0  0  0  0  0  0  0  0
   -4.2220    3.8982   -0.4184 H   0  0  0  0  0  0  0  0  0  0  0  0
   -5.3012    4.2829    1.7824 H   0  0  0  0  0  0  0  0  0  0  0  0
   -5.2526    2.4999    3.5115 H   0  0  0  0  0  0  0  0  0  0  0  0
   -4.0035    0.4024    3.0983 H   0  0  0  0  0  0  0  0  0  0  0  0
  1  2  1  0  0  0  0
  1  6  1  0  0  0  0
  1 28  1  0  0  0  0
  2  3  1  0  0  0  0
  2 36  1  0  0  0  0
  2 37  1  0  0  0  0
  3  4  1  0  0  0  0
  3 38  1  0  0  0  0
  3 39  1  0  0  0  0
  4  5  1  0  0  0  0
  4  7  1  0  0  0  0
  5  6  1  0  0  0  0
  5 40  1  0  0  0  0
  5 41  1  0  0  0  0
  6 42  1  0  0  0  0
  6 43  1  0  0  0  0
  7  8  2  0  0  0  0
  7  9  1  0  0  0  0
  9 10  2  0  0  0  0
  9 18  1  0  0  0  0
 11 12  2  0  0  0  0
 11 16  1  0  0  0  0
 11 20  1  0  0  0  0
 12 13  1  0  0  0  0
 12 17  1  0  0  0  0
 13 14  2  0  0  0  0
 13 18  1  0  0  0  0
 14 15  1  0  0  0  0
 14 26  1  0  0  0  0
 15 16  2  0  0  0  0
 15 44  1  0  0  0  0
 17 19  1  0  0  0  0
 17 45  1  0  0  0  0
 18 19  2  0  0  0  0
 19 46  1  0  0  0  0
 20 21  1  0  0  0  0
 20 24  1  0  0  0  0
 21 22  2  0  0  0  0
 22 23  1  0  0  0  0
 22 25  1  0  0  0  0
 23 24  2  0  0  0  0
 24 47  1  0  0  0  0
 25 48  1  0  0  0  0
 25 49  1  0  0  0  0
 25 50  1  0  0  0  0
 26 27  1  0  0  0  0
 27 51  1  0  0  0  0
 27 52  1  0  0  0  0
 27 53  1  0  0  0  0
 28 29  1  0  0  0  0
 28 35  2  0  0  0  0
 29 30  2  0  0  0  0
 29 34  1  0  0  0  0
 30 31  1  0  0  0  0
 30 54  1  0  0  0  0
 31 32  2  0  0  0  0
 31 55  1  0  0  0  0
 32 33  1  0  0  0  0
 32 56  1  0  0  0  0
 33 34  2  0  0  0  0
 33 57  1  0  0  0  0
 34 58  1  0  0  0  0
M  END
>  <Mol_ID>
4747

>  <Formula>
C24H23N7O4

>  <MolWeight>
473.48392

>  <Cat>
S6625

>  <Name>
Temsavir (BMS-626529)

>  <Synonyms>
N/A

>  <Target>
HIV Protease

>  <Form>
Free Base

>  <CAS>
701213-36-7

>  <URL>
http://www.selleck.cn/products/temsavir-bms-626529.html

$$$$
