Tenalisib (RP6530).cdx
 OpenBabel08302520433D

 49 53  0  0  0  0  0  0  0  0999 V2000
    2.7019   -0.2364   -0.0345 C   0  0  0  0  0  0  0  0  0  0  0  0
    2.3380    1.1106   -0.0077 C   0  0  0  0  0  0  0  0  0  0  0  0
    0.9893    1.4674   -0.0257 C   0  0  0  0  0  0  0  0  0  0  0  0
    0.0077    0.4709   -0.0773 C   0  0  0  0  0  0  0  0  0  0  0  0
    0.3687   -0.8676   -0.1232 C   0  0  0  0  0  0  0  0  0  0  0  0
    1.7174   -1.2260   -0.0933 C   0  0  0  0  0  0  0  0  0  0  0  0
   -1.4192    0.8158   -0.0680 C   0  0  0  0  0  0  0  0  0  0  0  0
   -2.3868   -0.3183   -0.0594 C   0  0  0  0  0  0  0  0  0  0  0  0
   -1.9060   -1.5819   -0.1286 C   0  0  0  0  0  0  0  0  0  0  0  0
   -0.5463   -1.8807   -0.2055 O   0  0  0  0  0  0  0  0  0  0  0  0
   -1.7769    1.9883   -0.0438 O   0  0  0  0  0  0  0  0  0  0  0  0
   -3.8277   -0.0214    0.0082 C   0  0  0  0  0  0  0  0  0  0  0  0
   -2.7867   -2.8369   -0.1035 C   0  0  1  0  0  0  0  0  0  0  0  0
   -3.0206   -3.2153   -1.4960 N   0  0  0  0  0  0  0  0  0  0  0  0
   -2.1366   -4.0181    0.6570 C   0  0  0  0  0  0  0  0  0  0  0  0
   -1.8770   -3.7260    2.1308 C   0  0  0  0  0  0  0  0  0  0  0  0
   -4.1954   -3.9021   -1.8082 C   0  0  0  0  0  0  0  0  0  0  0  0
   -4.2847   -4.7546   -2.9306 C   0  0  0  0  0  0  0  0  0  0  0  0
   -5.5036   -5.3723   -3.1506 C   0  0  0  0  0  0  0  0  0  0  0  0
   -6.6298   -5.2559   -2.4342 N   0  0  0  0  0  0  0  0  0  0  0  0
   -6.4402   -4.4158   -1.3994 C   0  0  0  0  0  0  0  0  0  0  0  0
   -5.3132   -3.7559   -1.0469 N   0  0  0  0  0  0  0  0  0  0  0  0
   -3.3693   -5.1343   -3.8954 N   0  0  0  0  0  0  0  0  0  0  0  0
   -4.0317   -5.9608   -4.6830 C   0  0  0  0  0  0  0  0  0  0  0  0
   -5.3221   -6.1416   -4.2644 N   0  0  0  0  0  0  0  0  0  0  0  0
   -4.5696    0.1492   -1.1698 C   0  0  0  0  0  0  0  0  0  0  0  0
   -5.9451    0.3896   -1.1121 C   0  0  0  0  0  0  0  0  0  0  0  0
   -6.5865    0.4550    0.1232 C   0  0  0  0  0  0  0  0  0  0  0  0
   -5.8445    0.3006    1.2890 C   0  0  0  0  0  0  0  0  0  0  0  0
   -4.4732    0.0721    1.2461 C   0  0  0  0  0  0  0  0  0  0  0  0
   -6.4636    0.3636    2.4756 F   0  0  0  0  0  0  0  0  0  0  0  0
    3.7527   -0.5154   -0.0135 H   0  0  0  0  0  0  0  0  0  0  0  0
    3.1036    1.8820    0.0302 H   0  0  0  0  0  0  0  0  0  0  0  0
    0.7043    2.5172    0.0020 H   0  0  0  0  0  0  0  0  0  0  0  0
    2.0043   -2.2742   -0.1142 H   0  0  0  0  0  0  0  0  0  0  0  0
   -3.7274   -2.6041    0.4075 H   0  0  0  0  0  0  0  0  0  0  0  0
   -2.2221   -3.5932   -1.9994 H   0  0  0  0  0  0  0  0  0  0  0  0
   -2.7873   -4.8997    0.5916 H   0  0  0  0  0  0  0  0  0  0  0  0
   -1.1929   -4.3094    0.1780 H   0  0  0  0  0  0  0  0  0  0  0  0
   -2.8171   -3.5823    2.6716 H   0  0  0  0  0  0  0  0  0  0  0  0
   -1.3481   -4.5677    2.5908 H   0  0  0  0  0  0  0  0  0  0  0  0
   -1.2594   -2.8341    2.2739 H   0  0  0  0  0  0  0  0  0  0  0  0
   -7.3041   -4.2447   -0.7619 H   0  0  0  0  0  0  0  0  0  0  0  0
   -3.6343   -6.4573   -5.5594 H   0  0  0  0  0  0  0  0  0  0  0  0
   -6.0224   -6.7311   -4.6862 H   0  0  0  0  0  0  0  0  0  0  0  0
   -4.0797    0.0894   -2.1398 H   0  0  0  0  0  0  0  0  0  0  0  0
   -6.5120    0.5186   -2.0301 H   0  0  0  0  0  0  0  0  0  0  0  0
   -7.6560    0.6264    0.1851 H   0  0  0  0  0  0  0  0  0  0  0  0
   -3.9264   -0.0351    2.1773 H   0  0  0  0  0  0  0  0  0  0  0  0
  1  2  2  0  0  0  0
  1 32  1  0  0  0  0
  2  3  1  0  0  0  0
  2 33  1  0  0  0  0
  3  4  2  0  0  0  0
  3 34  1  0  0  0  0
  4  5  1  0  0  0  0
  4  7  1  0  0  0  0
  5  6  2  0  0  0  0
  6  1  1  0  0  0  0
  6 35  1  0  0  0  0
  7  8  1  0  0  0  0
  7 11  2  0  0  0  0
  8  9  2  0  0  0  0
  8 12  1  0  0  0  0
  9 10  1  0  0  0  0
  9 13  1  0  0  0  0
 10  5  1  0  0  0  0
 12 26  2  0  0  0  0
 13 14  1  0  0  0  0
 13 15  1  0  0  0  0
 13 36  1  1  0  0  0
 14 17  1  0  0  0  0
 14 37  1  0  0  0  0
 15 16  1  0  0  0  0
 15 38  1  0  0  0  0
 15 39  1  0  0  0  0
 16 40  1  0  0  0  0
 16 41  1  0  0  0  0
 16 42  1  0  0  0  0
 17 18  2  0  0  0  0
 18 19  1  0  0  0  0
 18 23  1  0  0  0  0
 19 20  2  0  0  0  0
 20 21  1  0  0  0  0
 21 22  2  0  0  0  0
 21 43  1  0  0  0  0
 22 17  1  0  0  0  0
 23 24  2  0  0  0  0
 24 25  1  0  0  0  0
 24 44  1  0  0  0  0
 25 19  1  0  0  0  0
 25 45  1  0  0  0  0
 26 27  1  0  0  0  0
 26 46  1  0  0  0  0
 27 28  2  0  0  0  0
 27 47  1  0  0  0  0
 28 29  1  0  0  0  0
 28 48  1  0  0  0  0
 29 30  2  0  0  0  0
 29 31  1  0  0  0  0
 30 12  1  0  0  0  0
 30 49  1  0  0  0  0
M  END
>  <Mol_ID>
4206

>  <Formula>
C23H18FN5O2

>  <MolWeight>
415.4197232

>  <Cat>
S8672

>  <Name>
Tenalisib (RP6530)

>  <Synonyms>
N/A

>  <Target>
PI3K

>  <Form>
free base

>  <CAS>
1639417-53-0

>  <URL>
http://selleckchem.com/products/tenalisib-rp6530.html

$$$$
