Tenatoprazole.cdx
 OpenBabel08302522063D

 42 44  0  0  0  0  0  0  0  0999 V2000
   -7.2630    3.8405    3.9704 C   0  0  0  0  0  0  0  0  0  0  0  0
   -6.0314    3.8389    4.6225 C   0  0  0  0  0  0  0  0  0  0  0  0
   -4.9036    3.2310    4.1784 N   0  0  0  0  0  0  0  0  0  0  0  0
   -5.0562    2.5787    3.0082 C   0  0  0  0  0  0  0  0  0  0  0  0
   -6.2536    2.5439    2.3030 C   0  0  0  0  0  0  0  0  0  0  0  0
   -7.4041    3.1796    2.7509 C   0  0  0  0  0  0  0  0  0  0  0  0
   -4.0890    1.8459    2.3775 N   0  0  0  0  0  0  0  0  0  0  0  0
   -4.6725    1.3459    1.3039 C   0  0  0  0  0  0  0  0  0  0  0  0
   -5.9777    1.7658    1.2138 N   0  0  0  0  0  0  0  0  0  0  0  0
   -6.0160    4.5115    5.8334 O   0  0  0  0  0  0  0  0  0  0  0  0
   -4.7339    4.5138    6.4537 C   0  0  0  0  0  0  0  0  0  0  0  0
   -3.9172    0.2015    0.2167 S   0  0  3  0  0  0  0  0  0  0  0  0
   -4.5684    0.8250   -1.3584 C   0  0  0  0  0  0  0  0  0  0  0  0
   -4.1839   -0.0465   -2.5247 C   0  0  0  0  0  0  0  0  0  0  0  0
   -2.4398    0.4375    0.2798 O   0  0  0  0  0  0  0  0  0  0  0  0
   -3.0486    0.1865   -3.3236 C   0  0  0  0  0  0  0  0  0  0  0  0
   -2.8594   -0.6543   -4.4406 C   0  0  0  0  0  0  0  0  0  0  0  0
   -3.7404   -1.7225   -4.6713 C   0  0  0  0  0  0  0  0  0  0  0  0
   -4.7943   -1.8907   -3.7869 C   0  0  0  0  0  0  0  0  0  0  0  0
   -5.0472   -1.0740   -2.7471 N   0  0  0  0  0  0  0  0  0  0  0  0
   -2.0849    1.2869   -2.9785 C   0  0  0  0  0  0  0  0  0  0  0  0
   -1.7896   -0.5938   -5.3003 O   0  0  0  0  0  0  0  0  0  0  0  0
   -1.4106    0.6838   -5.7999 C   0  0  0  0  0  0  0  0  0  0  0  0
   -3.5849   -2.7052   -5.7956 C   0  0  0  0  0  0  0  0  0  0  0  0
   -8.1097    4.3501    4.4198 H   0  0  0  0  0  0  0  0  0  0  0  0
   -8.3442    3.1534    2.2161 H   0  0  0  0  0  0  0  0  0  0  0  0
   -6.6440    1.4982    0.5054 H   0  0  0  0  0  0  0  0  0  0  0  0
   -4.3945    3.4963    6.6760 H   0  0  0  0  0  0  0  0  0  0  0  0
   -4.0023    5.0506    5.8403 H   0  0  0  0  0  0  0  0  0  0  0  0
   -4.8270    5.0468    7.4051 H   0  0  0  0  0  0  0  0  0  0  0  0
   -5.6621    0.8168   -1.2956 H   0  0  0  0  0  0  0  0  0  0  0  0
   -4.2718    1.8677   -1.5025 H   0  0  0  0  0  0  0  0  0  0  0  0
   -5.4912   -2.7186   -3.8955 H   0  0  0  0  0  0  0  0  0  0  0  0
   -1.0528    0.9420   -3.0839 H   0  0  0  0  0  0  0  0  0  0  0  0
   -2.2643    2.1593   -3.6141 H   0  0  0  0  0  0  0  0  0  0  0  0
   -2.1655    1.6221   -1.9440 H   0  0  0  0  0  0  0  0  0  0  0  0
   -2.2458    1.3890   -5.8605 H   0  0  0  0  0  0  0  0  0  0  0  0
   -0.5929    1.0905   -5.1986 H   0  0  0  0  0  0  0  0  0  0  0  0
   -1.0149    0.5468   -6.8112 H   0  0  0  0  0  0  0  0  0  0  0  0
   -3.2922   -3.6836   -5.4012 H   0  0  0  0  0  0  0  0  0  0  0  0
   -4.5338   -2.8122   -6.3350 H   0  0  0  0  0  0  0  0  0  0  0  0
   -2.8361   -2.3962   -6.5297 H   0  0  0  0  0  0  0  0  0  0  0  0
  1  2  2  0  0  0  0
  1 25  1  0  0  0  0
  2  3  1  0  0  0  0
  2 10  1  0  0  0  0
  3  4  2  0  0  0  0
  4  5  1  0  0  0  0
  4  7  1  0  0  0  0
  5  6  2  0  0  0  0
  6  1  1  0  0  0  0
  6 26  1  0  0  0  0
  7  8  2  0  0  0  0
  8  9  1  0  0  0  0
  8 12  1  0  0  0  0
  9  5  1  0  0  0  0
  9 27  1  0  0  0  0
 10 11  1  0  0  0  0
 11 28  1  0  0  0  0
 11 29  1  0  0  0  0
 11 30  1  0  0  0  0
 12 13  1  0  0  0  0
 12 15  2  0  0  0  0
 13 14  1  0  0  0  0
 13 31  1  0  0  0  0
 13 32  1  0  0  0  0
 14 16  2  0  0  0  0
 16 17  1  0  0  0  0
 16 21  1  0  0  0  0
 17 18  2  0  0  0  0
 17 22  1  0  0  0  0
 18 19  1  0  0  0  0
 18 24  1  0  0  0  0
 19 20  2  0  0  0  0
 19 33  1  0  0  0  0
 20 14  1  0  0  0  0
 21 34  1  0  0  0  0
 21 35  1  0  0  0  0
 21 36  1  0  0  0  0
 22 23  1  0  0  0  0
 23 37  1  0  0  0  0
 23 38  1  0  0  0  0
 23 39  1  0  0  0  0
 24 40  1  0  0  0  0
 24 41  1  0  0  0  0
 24 42  1  0  0  0  0
M  END
>  <Mol_ID>
1416

>  <Formula>
C16H18N4O3S

>  <MolWeight>
346.40412

>  <Cat>
S4212

>  <Name>
Tenatoprazole

>  <Synonyms>
TU-199,STU-Na

>  <Target>
ATPase,Proton Pump

>  <Form>
free base

>  <CAS>
113712-98-4

>  <URL>
http://selleckchem.com/products/tenatoprazole.html

$$$$
