Tenovin-1.cdx
 OpenBabel08302519553D

 49 50  0  0  0  0  0  0  0  0999 V2000
    1.3563   -0.0861   -0.3217 C   0  0  0  0  0  0  0  0  0  0  0  0
    0.6361   -1.2242    0.0881 C   0  0  0  0  0  0  0  0  0  0  0  0
   -0.6910   -1.0303    0.5096 C   0  0  0  0  0  0  0  0  0  0  0  0
   -1.2715    0.2355    0.5231 C   0  0  0  0  0  0  0  0  0  0  0  0
   -0.5411    1.3551    0.1173 C   0  0  0  0  0  0  0  0  0  0  0  0
    0.7780    1.1936   -0.3088 C   0  0  0  0  0  0  0  0  0  0  0  0
    1.2332   -2.6433    0.1003 C   0  0  0  0  0  0  0  0  0  0  0  0
    2.6921   -2.7064   -0.4002 C   0  0  0  0  0  0  0  0  0  0  0  0
    1.2144   -3.1921    1.5443 C   0  0  0  0  0  0  0  0  0  0  0  0
    0.3998   -3.5822   -0.8008 C   0  0  0  0  0  0  0  0  0  0  0  0
   -1.2511    2.6575    0.1237 C   0  0  0  0  0  0  0  0  0  0  0  0
   -0.4973    3.7901    0.3874 N   0  0  0  0  0  0  0  0  0  0  0  0
   -0.9783    5.0522    0.6867 C   0  0  0  0  0  0  0  0  0  0  0  0
   -2.3487    5.1796    0.6692 N   0  0  0  0  0  0  0  0  0  0  0  0
   -3.1652    6.1585    1.2607 C   0  0  0  0  0  0  0  0  0  0  0  0
   -2.4582    2.6827   -0.1025 O   0  0  0  0  0  0  0  0  0  0  0  0
    0.1619    6.2382    0.9987 S   0  0  0  0  0  0  0  0  0  0  0  0
   -4.4042    6.4319    0.6695 C   0  0  0  0  0  0  0  0  0  0  0  0
   -5.2507    7.4030    1.2198 C   0  0  0  0  0  0  0  0  0  0  0  0
   -4.8917    8.0804    2.3861 C   0  0  0  0  0  0  0  0  0  0  0  0
   -3.6772    7.7630    3.0029 C   0  0  0  0  0  0  0  0  0  0  0  0
   -2.8270    6.8045    2.4456 C   0  0  0  0  0  0  0  0  0  0  0  0
   -5.6715    9.0916    2.9832 N   0  0  0  0  0  0  0  0  0  0  0  0
   -6.9664    9.4425    2.6584 C   0  0  0  0  0  0  0  0  0  0  0  0
   -7.4651   10.6478    3.4162 C   0  0  0  0  0  0  0  0  0  0  0  0
   -7.7009    8.8729    1.8566 O   0  0  0  0  0  0  0  0  0  0  0  0
    2.3823   -0.1675   -0.6719 H   0  0  0  0  0  0  0  0  0  0  0  0
   -1.3015   -1.8707    0.8337 H   0  0  0  0  0  0  0  0  0  0  0  0
   -2.3040    0.3454    0.8531 H   0  0  0  0  0  0  0  0  0  0  0  0
    1.3656    2.0332   -0.6696 H   0  0  0  0  0  0  0  0  0  0  0  0
    3.3587   -2.1010    0.2248 H   0  0  0  0  0  0  0  0  0  0  0  0
    3.0735   -3.7342   -0.3780 H   0  0  0  0  0  0  0  0  0  0  0  0
    2.7784   -2.3517   -1.4340 H   0  0  0  0  0  0  0  0  0  0  0  0
    0.2008   -3.2376    1.9579 H   0  0  0  0  0  0  0  0  0  0  0  0
    1.6221   -4.2085    1.5867 H   0  0  0  0  0  0  0  0  0  0  0  0
    1.8123   -2.5624    2.2139 H   0  0  0  0  0  0  0  0  0  0  0  0
   -0.6414   -3.6630   -0.4701 H   0  0  0  0  0  0  0  0  0  0  0  0
    0.3891   -3.2300   -1.8389 H   0  0  0  0  0  0  0  0  0  0  0  0
    0.8129   -4.5982   -0.7981 H   0  0  0  0  0  0  0  0  0  0  0  0
    0.5000    3.6978    0.5267 H   0  0  0  0  0  0  0  0  0  0  0  0
   -2.8329    4.4809    0.1004 H   0  0  0  0  0  0  0  0  0  0  0  0
   -4.7067    5.9293   -0.2458 H   0  0  0  0  0  0  0  0  0  0  0  0
   -6.1737    7.6252    0.6954 H   0  0  0  0  0  0  0  0  0  0  0  0
   -3.3810    8.2349    3.9339 H   0  0  0  0  0  0  0  0  0  0  0  0
   -1.9264    6.5392    2.9886 H   0  0  0  0  0  0  0  0  0  0  0  0
   -5.2407    9.5779    3.7582 H   0  0  0  0  0  0  0  0  0  0  0  0
   -7.7674   11.4133    2.6959 H   0  0  0  0  0  0  0  0  0  0  0  0
   -8.3244   10.3551    4.0254 H   0  0  0  0  0  0  0  0  0  0  0  0
   -6.7007   11.0739    4.0714 H   0  0  0  0  0  0  0  0  0  0  0  0
  1  2  2  0  0  0  0
  1 27  1  0  0  0  0
  2  3  1  0  0  0  0
  2  7  1  0  0  0  0
  3  4  2  0  0  0  0
  3 28  1  0  0  0  0
  4  5  1  0  0  0  0
  4 29  1  0  0  0  0
  5  6  2  0  0  0  0
  5 11  1  0  0  0  0
  6  1  1  0  0  0  0
  6 30  1  0  0  0  0
  7  8  1  0  0  0  0
  7  9  1  0  0  0  0
  7 10  1  0  0  0  0
  8 31  1  0  0  0  0
  8 32  1  0  0  0  0
  8 33  1  0  0  0  0
  9 34  1  0  0  0  0
  9 35  1  0  0  0  0
  9 36  1  0  0  0  0
 10 37  1  0  0  0  0
 10 38  1  0  0  0  0
 10 39  1  0  0  0  0
 11 12  1  0  0  0  0
 11 16  2  0  0  0  0
 12 13  1  0  0  0  0
 12 40  1  0  0  0  0
 13 14  1  0  0  0  0
 13 17  2  0  0  0  0
 14 15  1  0  0  0  0
 14 41  1  0  0  0  0
 15 18  2  0  0  0  0
 18 19  1  0  0  0  0
 18 42  1  0  0  0  0
 19 20  2  0  0  0  0
 19 43  1  0  0  0  0
 20 21  1  0  0  0  0
 20 23  1  0  0  0  0
 21 22  2  0  0  0  0
 21 44  1  0  0  0  0
 22 15  1  0  0  0  0
 22 45  1  0  0  0  0
 23 24  1  0  0  0  0
 23 46  1  0  0  0  0
 24 25  1  0  0  0  0
 24 26  2  0  0  0  0
 25 47  1  0  0  0  0
 25 48  1  0  0  0  0
 25 49  1  0  0  0  0
M  END
>  <Mol_ID>
2132

>  <Formula>
C20H23N3O2S

>  <MolWeight>
369.48052

>  <Cat>
S8000

>  <Name>
Tenovin-1

>  <Synonyms>
N/A

>  <Target>
Dehydrogenase,p53,Sirtuin

>  <Form>
free base

>  <CAS>
380315-80-0

>  <URL>
http://selleckchem.com/products/tenovin-1.html

$$$$
