Tenoxicam.cdx
 OpenBabel08302522033D

 33 35  0  0  0  0  0  0  0  0999 V2000
    1.6216   -5.3570    0.5051 C   0  0  0  0  0  0  0  0  0  0  0  0
    1.9271   -4.2226   -0.2338 C   0  0  0  0  0  0  0  0  0  0  0  0
    0.9321   -3.2740   -0.4728 C   0  0  0  0  0  0  0  0  0  0  0  0
   -0.3476   -3.4917    0.0311 C   0  0  0  0  0  0  0  0  0  0  0  0
   -0.6580   -4.6052    0.7163 N   0  0  0  0  0  0  0  0  0  0  0  0
    0.3211   -5.5067    0.9477 C   0  0  0  0  0  0  0  0  0  0  0  0
   -1.3054   -2.4829   -0.1631 N   0  0  0  0  0  0  0  0  0  0  0  0
   -2.6378   -2.5907    0.1630 C   0  0  0  0  0  0  0  0  0  0  0  0
   -3.1883   -3.5738    0.6572 O   0  0  0  0  0  0  0  0  0  0  0  0
   -3.4644   -1.3363   -0.0541 C   0  0  0  0  0  0  0  0  0  0  0  0
   -3.2018   -0.4140   -1.1433 N   0  0  0  0  0  0  0  0  0  0  0  0
   -3.9624    1.0937   -1.1825 S   0  0  0  0  0  0  0  0  0  0  0  0
   -5.1913    1.1108   -0.0038 C   0  0  0  0  0  0  0  0  0  0  0  0
   -5.3125    0.0199    0.8184 C   0  0  0  0  0  0  0  0  0  0  0  0
   -4.4849   -1.1452    0.8253 C   0  0  0  0  0  0  0  0  0  0  0  0
   -2.3294   -0.6704   -2.2957 C   0  0  0  0  0  0  0  0  0  0  0  0
   -4.8134   -2.0373    1.8362 O   0  0  0  0  0  0  0  0  0  0  0  0
   -3.0130    2.0875   -0.7349 O   0  0  0  0  0  0  0  0  0  0  0  0
   -4.6776    1.2277   -2.4378 O   0  0  0  0  0  0  0  0  0  0  0  0
   -6.1244    2.1529    0.2322 C   0  0  0  0  0  0  0  0  0  0  0  0
   -6.9769    1.8197    1.2592 C   0  0  0  0  0  0  0  0  0  0  0  0
   -6.6350    0.2678    1.8973 S   0  0  0  0  0  0  0  0  0  0  0  0
    2.3741   -6.1042    0.7313 H   0  0  0  0  0  0  0  0  0  0  0  0
    2.9339   -4.0726   -0.6139 H   0  0  0  0  0  0  0  0  0  0  0  0
    1.1707   -2.3888   -1.0514 H   0  0  0  0  0  0  0  0  0  0  0  0
    0.0193   -6.3758    1.5258 H   0  0  0  0  0  0  0  0  0  0  0  0
   -0.9635   -1.6001   -0.5049 H   0  0  0  0  0  0  0  0  0  0  0  0
   -2.8098   -0.3670   -3.2302 H   0  0  0  0  0  0  0  0  0  0  0  0
   -1.4009   -0.1003   -2.1834 H   0  0  0  0  0  0  0  0  0  0  0  0
   -2.0879   -1.7279   -2.4190 H   0  0  0  0  0  0  0  0  0  0  0  0
   -4.3419   -2.8883    1.6837 H   0  0  0  0  0  0  0  0  0  0  0  0
   -6.1684    3.0877   -0.3147 H   0  0  0  0  0  0  0  0  0  0  0  0
   -7.7875    2.4074    1.6688 H   0  0  0  0  0  0  0  0  0  0  0  0
  1  2  2  0  0  0  0
  1 23  1  0  0  0  0
  2  3  1  0  0  0  0
  2 24  1  0  0  0  0
  3  4  2  0  0  0  0
  3 25  1  0  0  0  0
  4  5  1  0  0  0  0
  4  7  1  0  0  0  0
  5  6  2  0  0  0  0
  6  1  1  0  0  0  0
  6 26  1  0  0  0  0
  7  8  1  0  0  0  0
  7 27  1  0  0  0  0
  8  9  2  0  0  0  0
  8 10  1  0  0  0  0
 10 11  1  0  0  0  0
 11 12  1  0  0  0  0
 11 16  1  0  0  0  0
 12 13  1  0  0  0  0
 12 18  2  0  0  0  0
 12 19  2  0  0  0  0
 13 14  2  0  0  0  0
 13 20  1  0  0  0  0
 14 15  1  0  0  0  0
 15 10  2  0  0  0  0
 15 17  1  0  0  0  0
 16 28  1  0  0  0  0
 16 29  1  0  0  0  0
 16 30  1  0  0  0  0
 17 31  1  0  0  0  0
 20 21  2  0  0  0  0
 20 32  1  0  0  0  0
 21 22  1  0  0  0  0
 21 33  1  0  0  0  0
 22 14  1  0  0  0  0
M  END
>  <Mol_ID>
1158

>  <Formula>
C13H11N3O4S2

>  <MolWeight>
337.37414

>  <Cat>
S2512

>  <Name>
Tenoxicam

>  <Synonyms>
Ro-12-0068

>  <Target>
Immunology & Inflammation related

>  <Form>
free base

>  <CAS>
59804-37-4

>  <URL>
http://selleckchem.com/products/Tenoxicam(Mobiflex).html

$$$$
