TEPP-46 (ML265)
 OpenBabel08302520143D

 41 44  0  0  0  0  0  0  0  0999 V2000
    0.4823    2.0902   -0.6015 C   0  0  0  0  0  0  0  0  0  0  0  0
   -0.7448    1.5631   -0.1783 C   0  0  0  0  0  0  0  0  0  0  0  0
   -0.8446    0.1776    0.0412 C   0  0  0  0  0  0  0  0  0  0  0  0
    0.2431   -0.6745   -0.1834 C   0  0  0  0  0  0  0  0  0  0  0  0
    1.4699   -0.1155   -0.5477 C   0  0  0  0  0  0  0  0  0  0  0  0
    1.5869    1.2565   -0.7733 C   0  0  0  0  0  0  0  0  0  0  0  0
   -1.9326    2.4697    0.0572 C   0  0  0  0  0  0  0  0  0  0  0  0
    0.1710   -2.0257    0.1826 N   0  0  0  0  0  0  0  0  0  0  0  0
   -2.7629    2.6474   -1.1319 N   0  0  0  0  0  0  0  0  0  0  0  0
   -3.7944    1.6967   -1.2977 N   0  0  0  0  0  0  0  0  0  0  0  0
   -4.5627    1.7651   -2.3441 C   0  0  0  0  0  0  0  0  0  0  0  0
   -4.3677    2.7990   -3.2985 C   0  0  0  0  0  0  0  0  0  0  0  0
   -3.3878    3.7485   -3.1615 C   0  0  0  0  0  0  0  0  0  0  0  0
   -2.4893    3.7163   -2.0229 C   0  0  0  0  0  0  0  0  0  0  0  0
   -5.0608    3.0582   -4.4948 C   0  0  0  0  0  0  0  0  0  0  0  0
   -4.5049    4.1751   -5.0561 C   0  0  0  0  0  0  0  0  0  0  0  0
   -3.4706    4.6128   -4.2304 N   0  0  0  0  0  0  0  0  0  0  0  0
   -6.3516    2.4000   -5.4288 S   0  0  0  0  0  0  0  0  0  0  0  0
   -6.1523    3.6535   -6.5723 C   0  0  0  0  0  0  0  0  0  0  0  0
   -5.1330    4.5413   -6.2859 C   0  0  0  0  0  0  0  0  0  0  0  0
   -7.1121    3.7127   -8.0366 S   0  0  3  0  0  0  0  0  0  0  0  0
   -8.7631    3.8076   -7.3012 C   0  0  0  0  0  0  0  0  0  0  0  0
   -6.8158    5.0243   -8.7022 O   0  0  0  0  0  0  0  0  0  0  0  0
   -2.6730    5.7786   -4.5093 C   0  0  0  0  0  0  0  0  0  0  0  0
   -1.5894    4.5329   -1.8419 O   0  0  0  0  0  0  0  0  0  0  0  0
    0.5912    3.1587   -0.7763 H   0  0  0  0  0  0  0  0  0  0  0  0
   -1.7850   -0.2373    0.3975 H   0  0  0  0  0  0  0  0  0  0  0  0
    2.3482   -0.7457   -0.6585 H   0  0  0  0  0  0  0  0  0  0  0  0
    2.5450    1.6781   -1.0656 H   0  0  0  0  0  0  0  0  0  0  0  0
   -2.5644    2.0546    0.8529 H   0  0  0  0  0  0  0  0  0  0  0  0
   -1.5912    3.4463    0.4188 H   0  0  0  0  0  0  0  0  0  0  0  0
    0.8570   -2.6105   -0.2839 H   0  0  0  0  0  0  0  0  0  0  0  0
   -0.7657   -2.4127    0.1313 H   0  0  0  0  0  0  0  0  0  0  0  0
   -5.3654    1.0272   -2.4941 H   0  0  0  0  0  0  0  0  0  0  0  0
   -4.8608    5.3829   -6.9122 H   0  0  0  0  0  0  0  0  0  0  0  0
   -8.8540    4.7223   -6.7095 H   0  0  0  0  0  0  0  0  0  0  0  0
   -9.4969    3.8320   -8.1108 H   0  0  0  0  0  0  0  0  0  0  0  0
   -8.9692    2.9344   -6.6786 H   0  0  0  0  0  0  0  0  0  0  0  0
   -2.1661    5.6355   -5.4673 H   0  0  0  0  0  0  0  0  0  0  0  0
   -3.3327    6.6499   -4.5515 H   0  0  0  0  0  0  0  0  0  0  0  0
   -1.9282    5.9344   -3.7294 H   0  0  0  0  0  0  0  0  0  0  0  0
  1  2  2  0  0  0  0
  1 26  1  0  0  0  0
  2  3  1  0  0  0  0
  2  7  1  0  0  0  0
  3  4  2  0  0  0  0
  3 27  1  0  0  0  0
  4  5  1  0  0  0  0
  4  8  1  0  0  0  0
  5  6  2  0  0  0  0
  5 28  1  0  0  0  0
  6  1  1  0  0  0  0
  6 29  1  0  0  0  0
  7  9  1  0  0  0  0
  7 30  1  0  0  0  0
  7 31  1  0  0  0  0
  8 32  1  0  0  0  0
  8 33  1  0  0  0  0
  9 10  1  0  0  0  0
 10 11  2  0  0  0  0
 11 12  1  0  0  0  0
 11 34  1  0  0  0  0
 12 13  2  0  0  0  0
 12 15  1  0  0  0  0
 13 14  1  0  0  0  0
 14  9  1  0  0  0  0
 14 25  2  0  0  0  0
 15 16  2  0  0  0  0
 15 18  1  0  0  0  0
 16 17  1  0  0  0  0
 17 13  1  0  0  0  0
 17 24  1  0  0  0  0
 18 19  1  0  0  0  0
 19 20  2  0  0  0  0
 19 21  1  0  0  0  0
 20 16  1  0  0  0  0
 20 35  1  0  0  0  0
 21 22  1  0  0  0  0
 21 23  2  0  0  0  0
 22 36  1  0  0  0  0
 22 37  1  0  0  0  0
 22 38  1  0  0  0  0
 24 39  1  0  0  0  0
 24 40  1  0  0  0  0
 24 41  1  0  0  0  0
M  END
>  <Mol_ID>
3198

>  <Formula>
C17H16N4O2S2

>  <MolWeight>
372.46454

>  <Cat>
S7302

>  <Name>
TEPP-46 (ML265)

>  <Synonyms>
CID-44246499, NCGC00186528

>  <Target>
PKM

>  <Form>
Free Base

>  <CAS>
1221186-53-3

>  <URL>
http://www.selleckchem.com/products/tepp-46.html

$$$$
