Terbinafine.cdx
 OpenBabel08302522063D

 47 48  0  0  0  0  0  0  0  0999 V2000
   -5.5973   -1.8416   -0.8728 C   0  0  0  0  0  0  0  0  0  0  0  0
   -6.2285   -2.3950   -1.9703 C   0  0  0  0  0  0  0  0  0  0  0  0
   -5.5001   -3.1833   -2.8615 C   0  0  0  0  0  0  0  0  0  0  0  0
   -4.1290   -3.4453   -2.6464 C   0  0  0  0  0  0  0  0  0  0  0  0
   -3.4760   -2.9133   -1.5170 C   0  0  0  0  0  0  0  0  0  0  0  0
   -4.2369   -2.0817   -0.6562 C   0  0  0  0  0  0  0  0  0  0  0  0
   -3.4270   -4.2612   -3.5516 C   0  0  0  0  0  0  0  0  0  0  0  0
   -2.0821   -4.5704   -3.3392 C   0  0  0  0  0  0  0  0  0  0  0  0
   -1.4379   -4.0964   -2.2074 C   0  0  0  0  0  0  0  0  0  0  0  0
   -2.1125   -3.2789   -1.2719 C   0  0  0  0  0  0  0  0  0  0  0  0
   -1.3544   -2.9224    0.0041 C   0  0  0  0  0  0  0  0  0  0  0  0
   -2.0126   -3.3900    1.2433 N   0  0  0  0  0  0  0  0  0  0  0  0
   -2.1262   -4.8518    1.2378 C   0  0  0  0  0  0  0  0  0  0  0  0
   -1.3076   -2.9421    2.4486 C   0  0  0  0  0  0  0  0  0  0  0  0
   -1.2570   -1.4438    2.5893 C   0  0  0  0  0  0  0  0  0  0  0  0
   -0.1039   -0.7611    2.6294 C   0  0  0  0  0  0  0  0  0  0  0  0
   -0.1129    0.7487    2.8053 C   0  0  0  0  0  0  0  0  0  0  0  0
   -0.1206    2.0437    2.9561 C   0  0  0  0  0  0  0  0  0  0  0  0
   -0.1297    3.5535    3.1320 C   0  0  0  0  0  0  0  0  0  0  0  0
    0.9535    4.1703    2.2386 C   0  0  0  0  0  0  0  0  0  0  0  0
   -1.5061    4.0983    2.7315 C   0  0  0  0  0  0  0  0  0  0  0  0
    0.1552    3.8896    4.6009 C   0  0  0  0  0  0  0  0  0  0  0  0
   -6.1569   -1.2501   -0.1522 H   0  0  0  0  0  0  0  0  0  0  0  0
   -7.2908   -2.2230   -2.1350 H   0  0  0  0  0  0  0  0  0  0  0  0
   -6.0141   -3.6130   -3.7138 H   0  0  0  0  0  0  0  0  0  0  0  0
   -3.7903   -1.6378    0.2272 H   0  0  0  0  0  0  0  0  0  0  0  0
   -3.9247   -4.6677   -4.4247 H   0  0  0  0  0  0  0  0  0  0  0  0
   -1.5542   -5.2019   -4.0500 H   0  0  0  0  0  0  0  0  0  0  0  0
   -0.4015   -4.3890   -2.0305 H   0  0  0  0  0  0  0  0  0  0  0  0
   -0.3485   -3.3613   -0.0633 H   0  0  0  0  0  0  0  0  0  0  0  0
   -1.1968   -1.8390    0.0333 H   0  0  0  0  0  0  0  0  0  0  0  0
   -1.1498   -5.3505    1.1977 H   0  0  0  0  0  0  0  0  0  0  0  0
   -2.6555   -5.2026    2.1300 H   0  0  0  0  0  0  0  0  0  0  0  0
   -2.7107   -5.1970    0.3802 H   0  0  0  0  0  0  0  0  0  0  0  0
   -1.7975   -3.3458    3.3424 H   0  0  0  0  0  0  0  0  0  0  0  0
   -0.2828   -3.3382    2.4720 H   0  0  0  0  0  0  0  0  0  0  0  0
   -2.2002   -0.9015    2.6573 H   0  0  0  0  0  0  0  0  0  0  0  0
    0.8654   -1.2330    2.5092 H   0  0  0  0  0  0  0  0  0  0  0  0
    0.7796    3.9363    1.1817 H   0  0  0  0  0  0  0  0  0  0  0  0
    0.9755    5.2613    2.3405 H   0  0  0  0  0  0  0  0  0  0  0  0
    1.9485    3.7897    2.4977 H   0  0  0  0  0  0  0  0  0  0  0  0
   -2.3015    3.6653    3.3494 H   0  0  0  0  0  0  0  0  0  0  0  0
   -1.5485    5.1874    2.8463 H   0  0  0  0  0  0  0  0  0  0  0  0
   -1.7396    3.8625    1.6866 H   0  0  0  0  0  0  0  0  0  0  0  0
   -0.6001    3.4514    5.2638 H   0  0  0  0  0  0  0  0  0  0  0  0
    1.1308    3.5021    4.9166 H   0  0  0  0  0  0  0  0  0  0  0  0
    0.1565    4.9733    4.7650 H   0  0  0  0  0  0  0  0  0  0  0  0
  1  2  2  0  0  0  0
  1 23  1  0  0  0  0
  2  3  1  0  0  0  0
  2 24  1  0  0  0  0
  3  4  2  0  0  0  0
  3 25  1  0  0  0  0
  4  5  1  0  0  0  0
  4  7  1  0  0  0  0
  5  6  2  0  0  0  0
  6  1  1  0  0  0  0
  6 26  1  0  0  0  0
  7  8  2  0  0  0  0
  7 27  1  0  0  0  0
  8  9  1  0  0  0  0
  8 28  1  0  0  0  0
  9 10  2  0  0  0  0
  9 29  1  0  0  0  0
 10  5  1  0  0  0  0
 10 11  1  0  0  0  0
 11 12  1  0  0  0  0
 11 30  1  0  0  0  0
 11 31  1  0  0  0  0
 12 13  1  0  0  0  0
 12 14  1  0  0  0  0
 13 32  1  0  0  0  0
 13 33  1  0  0  0  0
 13 34  1  0  0  0  0
 14 15  1  0  0  0  0
 14 35  1  0  0  0  0
 14 36  1  0  0  0  0
 15 16  2  0  0  0  0
 15 37  1  0  0  0  0
 16 17  1  0  0  0  0
 16 38  1  0  0  0  0
 17 18  3  0  0  0  0
 18 19  1  0  0  0  0
 19 20  1  0  0  0  0
 19 21  1  0  0  0  0
 19 22  1  0  0  0  0
 20 39  1  0  0  0  0
 20 40  1  0  0  0  0
 20 41  1  0  0  0  0
 21 42  1  0  0  0  0
 21 43  1  0  0  0  0
 21 44  1  0  0  0  0
 22 45  1  0  0  0  0
 22 46  1  0  0  0  0
 22 47  1  0  0  0  0
M  END
>  <Mol_ID>
1394

>  <Formula>
C21H25N

>  <MolWeight>
291.4299

>  <Cat>
S1725

>  <Name>
Terbinafine

>  <Synonyms>
SF 86-327,TDT 067

>  <Target>
Fungal

>  <Form>
Free Base

>  <CAS>
91161-71-6

>  <URL>
http://selleckchem.com/products/Terbinafine(Lamisil).html

$$$$
