Terevalefim
 OpenBabel08302521353D

 20 21  0  0  0  0  0  0  0  0999 V2000
   -0.2702   -1.0065    0.0549 N   0  0  0  0  0  0  0  0  0  0  0  0
   -1.1595   -0.0017    0.0780 N   0  0  0  0  0  0  0  0  0  0  0  0
   -0.4098    1.1067    0.0053 C   0  0  0  0  0  0  0  0  0  0  0  0
    0.9691    0.7838   -0.0587 C   0  0  0  0  0  0  0  0  0  0  0  0
    1.0234   -0.5881   -0.0281 C   0  0  0  0  0  0  0  0  0  0  0  0
   -0.9140    2.4462   -0.0169 C   0  0  0  0  0  0  0  0  0  0  0  0
   -2.2132    2.7866    0.0259 C   0  0  0  0  0  0  0  0  0  0  0  0
   -2.6478    4.1460   -0.0241 C   0  0  0  0  0  0  0  0  0  0  0  0
   -1.9293    5.3289   -0.1255 C   0  0  0  0  0  0  0  0  0  0  0  0
   -2.7517    6.4923   -0.1562 C   0  0  0  0  0  0  0  0  0  0  0  0
   -4.0860    6.1767   -0.0745 C   0  0  0  0  0  0  0  0  0  0  0  0
   -4.3392    4.4923    0.0381 S   0  0  0  0  0  0  0  0  0  0  0  0
   -0.6201   -1.9583    0.0964 H   0  0  0  0  0  0  0  0  0  0  0  0
    1.8076    1.4629   -0.1246 H   0  0  0  0  0  0  0  0  0  0  0  0
    1.8477   -1.2854   -0.0597 H   0  0  0  0  0  0  0  0  0  0  0  0
   -0.1579    3.2211   -0.0816 H   0  0  0  0  0  0  0  0  0  0  0  0
   -2.9652    2.0010    0.0924 H   0  0  0  0  0  0  0  0  0  0  0  0
   -0.8493    5.3721   -0.1810 H   0  0  0  0  0  0  0  0  0  0  0  0
   -2.3788    7.5059   -0.2357 H   0  0  0  0  0  0  0  0  0  0  0  0
   -4.9278    6.8552   -0.0768 H   0  0  0  0  0  0  0  0  0  0  0  0
  1  2  1  0  0  0  0
  1  5  1  0  0  0  0
  1 13  1  0  0  0  0
  2  3  2  0  0  0  0
  3  4  1  0  0  0  0
  3  6  1  0  0  0  0
  4  5  2  0  0  0  0
  4 14  1  0  0  0  0
  5 15  1  0  0  0  0
  6  7  2  0  0  0  0
  6 16  1  0  0  0  0
  7  8  1  0  0  0  0
  7 17  1  0  0  0  0
  8  9  2  0  0  0  0
  8 12  1  0  0  0  0
  9 10  1  0  0  0  0
  9 18  1  0  0  0  0
 10 11  2  0  0  0  0
 10 19  1  0  0  0  0
 11 12  1  0  0  0  0
 11 20  1  0  0  0  0
M  END
>  <Mol_ID>
6860

>  <Formula>
C9H8N2S

>  <MolWeight>
176.23822

>  <Cat>
E2655

>  <Name>
Terevalefim

>  <Synonyms>
ANG-3777

>  <Target>
c-Met

>  <Form>
Free base

>  <CAS>
1070881-42-3

>  <URL>
http://www.selleckchem.com/products/terevalefim.html

$$$$
