Terephthalic acid
 OpenBabel08302520393D

 18 18  0  0  0  0  0  0  0  0999 V2000
    1.3858   -0.1841    0.0527 C   0  0  0  0  0  0  0  0  0  0  0  0
    2.8408   -0.4842    0.0792 C   0  0  0  0  0  0  0  0  0  0  0  0
    0.4938   -1.2641    0.0120 C   0  0  0  0  0  0  0  0  0  0  0  0
    0.8893    1.1261    0.0299 C   0  0  0  0  0  0  0  0  0  0  0  0
    3.5850    0.4322    0.7312 O   0  0  0  0  0  0  0  0  0  0  0  0
    3.3117   -1.4901   -0.4225 O   0  0  0  0  0  0  0  0  0  0  0  0
   -0.8843   -1.0374   -0.0385 C   0  0  0  0  0  0  0  0  0  0  0  0
   -0.4936    1.3530   -0.0117 C   0  0  0  0  0  0  0  0  0  0  0  0
   -1.3836    0.2698   -0.0569 C   0  0  0  0  0  0  0  0  0  0  0  0
   -2.8577    0.4526   -0.0880 C   0  0  0  0  0  0  0  0  0  0  0  0
   -3.2640    1.5669   -0.7301 O   0  0  0  0  0  0  0  0  0  0  0  0
   -3.6296   -0.3534    0.4020 O   0  0  0  0  0  0  0  0  0  0  0  0
    0.8703   -2.2866    0.0179 H   0  0  0  0  0  0  0  0  0  0  0  0
    1.5601    1.9825    0.0190 H   0  0  0  0  0  0  0  0  0  0  0  0
    3.0874    1.0777    1.2644 H   0  0  0  0  0  0  0  0  0  0  0  0
   -1.5680   -1.8859   -0.0615 H   0  0  0  0  0  0  0  0  0  0  0  0
   -0.8569    2.3777    0.0184 H   0  0  0  0  0  0  0  0  0  0  0  0
   -2.5825    2.0234   -1.2555 H   0  0  0  0  0  0  0  0  0  0  0  0
  1  2  1  0  0  0  0
  1  3  2  0  0  0  0
  1  4  1  0  0  0  0
  2  5  1  0  0  0  0
  2  6  2  0  0  0  0
  3  7  1  0  0  0  0
  3 13  1  0  0  0  0
  4  8  2  0  0  0  0
  4 14  1  0  0  0  0
  5 15  1  0  0  0  0
  7  9  2  0  0  0  0
  7 16  1  0  0  0  0
  8  9  1  0  0  0  0
  8 17  1  0  0  0  0
  9 10  1  0  0  0  0
 10 11  1  0  0  0  0
 10 12  2  0  0  0  0
 11 18  1  0  0  0  0
M  END
>  <Mol_ID>
3609

>  <Formula>
C8H6O4

>  <MolWeight>
166.13084

>  <Cat>
S6251

>  <Name>
Terephthalic acid

>  <Synonyms>
para-Phthalic acid; 1,4-Benzenedioic acid

>  <Target>
Others

>  <Form>
free base

>  <CAS>
100-21-0

>  <URL>
http://www.selleck.cn/products/terephthalic-acid.html

$$$$
