Terpinyl Acetate
 OpenBabel08302520343D

 34 34  0  0  0  0  0  0  0  0999 V2000
   -1.6950   -0.1880    0.2283 C   0  0  3  0  0  0  0  0  0  0  0  0
   -1.6591   -0.0450    1.7990 C   0  0  0  0  0  0  0  0  0  0  0  0
   -1.0536   -1.4726   -0.3439 C   0  0  0  0  0  0  0  0  0  0  0  0
   -1.1305    0.9943   -0.5845 C   0  0  0  0  0  0  0  0  0  0  0  0
   -2.3374    1.1869    2.2117 O   0  0  0  0  0  0  0  0  0  0  0  0
   -2.5704   -1.1445    2.4018 C   0  0  0  0  0  0  0  0  0  0  0  0
   -0.3076   -0.2019    2.5163 C   0  0  0  0  0  0  0  0  0  0  0  0
    0.4820   -1.4667   -0.3400 C   0  0  0  0  0  0  0  0  0  0  0  0
    0.3668    1.0147   -0.5969 C   0  0  0  0  0  0  0  0  0  0  0  0
   -1.6978    2.3817    2.3207 C   0  0  0  0  0  0  0  0  0  0  0  0
    1.1048   -0.0953   -0.4422 C   0  0  0  0  0  0  0  0  0  0  0  0
   -2.6297    3.4261    2.8558 C   0  0  0  0  0  0  0  0  0  0  0  0
   -0.5304    2.6153    2.0495 O   0  0  0  0  0  0  0  0  0  0  0  0
    2.5930   -0.0283   -0.2582 C   0  0  0  0  0  0  0  0  0  0  0  0
   -2.7629   -0.2200   -0.0364 H   0  0  0  0  0  0  0  0  0  0  0  0
   -1.4266   -2.3727    0.1545 H   0  0  0  0  0  0  0  0  0  0  0  0
   -1.3825   -1.5697   -1.3893 H   0  0  0  0  0  0  0  0  0  0  0  0
   -1.5267    1.9464   -0.2252 H   0  0  0  0  0  0  0  0  0  0  0  0
   -1.4718    0.9178   -1.6262 H   0  0  0  0  0  0  0  0  0  0  0  0
   -2.1999   -2.1532    2.1979 H   0  0  0  0  0  0  0  0  0  0  0  0
   -2.6443   -1.0312    3.4904 H   0  0  0  0  0  0  0  0  0  0  0  0
   -3.5935   -1.0624    2.0178 H   0  0  0  0  0  0  0  0  0  0  0  0
    0.0710   -1.2258    2.4570 H   0  0  0  0  0  0  0  0  0  0  0  0
    0.4647    0.4651    2.1332 H   0  0  0  0  0  0  0  0  0  0  0  0
   -0.4092    0.0409    3.5815 H   0  0  0  0  0  0  0  0  0  0  0  0
    0.8391   -2.0883   -1.1710 H   0  0  0  0  0  0  0  0  0  0  0  0
    0.8367   -1.9563    0.5731 H   0  0  0  0  0  0  0  0  0  0  0  0
    0.8367    1.9944   -0.6543 H   0  0  0  0  0  0  0  0  0  0  0  0
   -2.2878    3.7347    3.8469 H   0  0  0  0  0  0  0  0  0  0  0  0
   -2.6429    4.2800    2.1737 H   0  0  0  0  0  0  0  0  0  0  0  0
   -3.6491    3.0390    2.9398 H   0  0  0  0  0  0  0  0  0  0  0  0
    2.8635   -0.4428    0.7185 H   0  0  0  0  0  0  0  0  0  0  0  0
    3.1069   -0.5987   -1.0354 H   0  0  0  0  0  0  0  0  0  0  0  0
    2.9640    1.0023   -0.2869 H   0  0  0  0  0  0  0  0  0  0  0  0
  1  2  1  0  0  0  0
  1  3  1  0  0  0  0
  1  4  1  0  0  0  0
  1 15  1  0  0  0  0
  2  5  1  0  0  0  0
  2  6  1  0  0  0  0
  2  7  1  0  0  0  0
  3  8  1  0  0  0  0
  3 16  1  0  0  0  0
  3 17  1  0  0  0  0
  4  9  1  0  0  0  0
  4 18  1  0  0  0  0
  4 19  1  0  0  0  0
  5 10  1  0  0  0  0
  6 20  1  0  0  0  0
  6 21  1  0  0  0  0
  6 22  1  0  0  0  0
  7 23  1  0  0  0  0
  7 24  1  0  0  0  0
  7 25  1  0  0  0  0
  8 11  1  0  0  0  0
  8 26  1  0  0  0  0
  8 27  1  0  0  0  0
  9 11  2  0  0  0  0
  9 28  1  0  0  0  0
 10 12  1  0  0  0  0
 10 13  2  0  0  0  0
 11 14  1  0  0  0  0
 12 29  1  0  0  0  0
 12 30  1  0  0  0  0
 12 31  1  0  0  0  0
 14 32  1  0  0  0  0
 14 33  1  0  0  0  0
 14 34  1  0  0  0  0
M  END
>  <Mol_ID>
3366

>  <Formula>
C12H20O2

>  <MolWeight>
196.286

>  <Cat>
S5691

>  <Name>
Terpinyl Acetate

>  <Synonyms>
alpha-Terpinyl acetate

>  <Target>
Others

>  <Form>
Acetate

>  <CAS>
80-26-2

>  <URL>
http://www.selleckchem.com/products/terpinyl-acetate.html

$$$$
