Terpinen-4-ol
 OpenBabel08302520393D

 29 29  0  0  0  0  0  0  0  0999 V2000
    0.3972    1.3458    0.0800 C   0  0  3  0  0  0  0  0  0  0  0  0
    0.6370    2.0710    1.4485 C   0  0  0  0  0  0  0  0  0  0  0  0
    1.4107    0.2186   -0.2363 C   0  0  0  0  0  0  0  0  0  0  0  0
   -1.0885    0.9191   -0.0783 C   0  0  0  0  0  0  0  0  0  0  0  0
    0.5930    2.3654   -0.9356 O   0  0  0  0  0  0  0  0  0  0  0  0
    0.4914    1.1563    2.6656 C   0  0  0  0  0  0  0  0  0  0  0  0
    1.9797    2.8197    1.5333 C   0  0  0  0  0  0  0  0  0  0  0  0
    0.9893   -1.2330    0.0030 C   0  0  0  0  0  0  0  0  0  0  0  0
   -1.3936   -0.5467   -0.0914 C   0  0  0  0  0  0  0  0  0  0  0  0
   -0.4803   -1.5182   -0.0539 C   0  0  0  0  0  0  0  0  0  0  0  0
   -0.8889   -2.9658   -0.0708 C   0  0  0  0  0  0  0  0  0  0  0  0
   -0.1283    2.8564    1.5353 H   0  0  0  0  0  0  0  0  0  0  0  0
    1.7198    0.3021   -1.2874 H   0  0  0  0  0  0  0  0  0  0  0  0
    2.3430    0.3785    0.3209 H   0  0  0  0  0  0  0  0  0  0  0  0
   -1.6947    1.3710    0.7170 H   0  0  0  0  0  0  0  0  0  0  0  0
   -1.4941    1.3336   -1.0114 H   0  0  0  0  0  0  0  0  0  0  0  0
    1.5483    2.4978   -1.0548 H   0  0  0  0  0  0  0  0  0  0  0  0
    1.2394    0.3594    2.6635 H   0  0  0  0  0  0  0  0  0  0  0  0
    0.6251    1.7320    3.5900 H   0  0  0  0  0  0  0  0  0  0  0  0
   -0.5023    0.7029    2.7109 H   0  0  0  0  0  0  0  0  0  0  0  0
    2.0736    3.5704    0.7416 H   0  0  0  0  0  0  0  0  0  0  0  0
    2.0593    3.3571    2.4849 H   0  0  0  0  0  0  0  0  0  0  0  0
    2.8360    2.1435    1.4677 H   0  0  0  0  0  0  0  0  0  0  0  0
    1.4937   -1.8444   -0.7573 H   0  0  0  0  0  0  0  0  0  0  0  0
    1.3718   -1.5736    0.9733 H   0  0  0  0  0  0  0  0  0  0  0  0
   -2.4508   -0.8046   -0.1406 H   0  0  0  0  0  0  0  0  0  0  0  0
   -1.4702   -3.2094    0.8244 H   0  0  0  0  0  0  0  0  0  0  0  0
   -1.4898   -3.1885   -0.9591 H   0  0  0  0  0  0  0  0  0  0  0  0
   -0.0177   -3.6289   -0.0904 H   0  0  0  0  0  0  0  0  0  0  0  0
  1  2  1  0  0  0  0
  1  3  1  0  0  0  0
  1  4  1  0  0  0  0
  1  5  1  0  0  0  0
  2  6  1  0  0  0  0
  2  7  1  0  0  0  0
  2 12  1  0  0  0  0
  3  8  1  0  0  0  0
  3 13  1  0  0  0  0
  3 14  1  0  0  0  0
  4  9  1  0  0  0  0
  4 15  1  0  0  0  0
  4 16  1  0  0  0  0
  5 17  1  0  0  0  0
  6 18  1  0  0  0  0
  6 19  1  0  0  0  0
  6 20  1  0  0  0  0
  7 21  1  0  0  0  0
  7 22  1  0  0  0  0
  7 23  1  0  0  0  0
  8 10  1  0  0  0  0
  8 24  1  0  0  0  0
  8 25  1  0  0  0  0
  9 10  2  0  0  0  0
  9 26  1  0  0  0  0
 10 11  1  0  0  0  0
 11 27  1  0  0  0  0
 11 28  1  0  0  0  0
 11 29  1  0  0  0  0
M  END
>  <Mol_ID>
3575

>  <Formula>
C10H18O

>  <MolWeight>
154.24932

>  <Cat>
S6118

>  <Name>
Terpinen-4-ol

>  <Synonyms>
N/A

>  <Target>
Fungal

>  <Form>
free base

>  <CAS>
562-74-3

>  <URL>
http://www.selleck.cn/products/terpinen-4-ol.html

$$$$
