Terpineol
 OpenBabel08302521363D

 29 29  0  0  1  0  0  0  0  0999 V2000
   -0.7931    0.3899    0.7008 O   0  0  0  0  0  0  0  0  0  0  0  0
    1.0309    0.1492    2.2962 C   0  0  3  0  0  0  0  0  0  0  0  0
    0.5326    0.8587    1.0007 C   0  0  0  0  0  0  0  0  0  0  0  0
    1.1155   -1.3832    2.1579 C   0  0  0  0  0  0  0  0  0  0  0  0
    2.3860    0.6908    2.8054 C   0  0  0  0  0  0  0  0  0  0  0  0
    1.4764   -2.0606    3.4849 C   0  0  0  0  0  0  0  0  0  0  0  0
    2.5578   -1.3515    4.2556 C   0  0  0  0  0  0  0  0  0  0  0  0
    2.9709   -0.1157    3.9285 C   0  0  0  0  0  0  0  0  0  0  0  0
    1.4076    0.6051   -0.2341 C   0  0  0  0  0  0  0  0  0  0  0  0
    0.3916    2.3724    1.2157 C   0  0  0  0  0  0  0  0  0  0  0  0
    3.1437   -2.1105    5.4104 C   0  0  0  0  0  0  0  0  0  0  0  0
   -0.7488   -0.5558    0.4882 H   0  0  0  0  0  0  0  0  0  0  0  0
    0.2790    0.3460    3.0755 H   0  0  0  0  0  0  0  0  0  0  0  0
    0.1668   -1.8061    1.8124 H   0  0  0  0  0  0  0  0  0  0  0  0
    1.8743   -1.6477    1.4108 H   0  0  0  0  0  0  0  0  0  0  0  0
    2.2563    1.7176    3.1617 H   0  0  0  0  0  0  0  0  0  0  0  0
    3.1256    0.7187    2.0015 H   0  0  0  0  0  0  0  0  0  0  0  0
    1.7867   -3.0886    3.2693 H   0  0  0  0  0  0  0  0  0  0  0  0
    0.5806   -2.1194    4.1163 H   0  0  0  0  0  0  0  0  0  0  0  0
    3.7682    0.3601    4.4950 H   0  0  0  0  0  0  0  0  0  0  0  0
    0.9994    1.1273   -1.1061 H   0  0  0  0  0  0  0  0  0  0  0  0
    2.4367    0.9489   -0.0928 H   0  0  0  0  0  0  0  0  0  0  0  0
    1.4248   -0.4553   -0.5036 H   0  0  0  0  0  0  0  0  0  0  0  0
   -0.0550    2.8505    0.3364 H   0  0  0  0  0  0  0  0  0  0  0  0
   -0.2807    2.5833    2.0550 H   0  0  0  0  0  0  0  0  0  0  0  0
    1.3549    2.8524    1.4062 H   0  0  0  0  0  0  0  0  0  0  0  0
    2.3600   -2.3732    6.1276 H   0  0  0  0  0  0  0  0  0  0  0  0
    3.6158   -3.0325    5.0559 H   0  0  0  0  0  0  0  0  0  0  0  0
    3.9030   -1.5287    5.9432 H   0  0  0  0  0  0  0  0  0  0  0  0
  1  3  1  0  0  0  0
  1 12  1  0  0  0  0
  2  3  1  0  0  0  0
  2  4  1  0  0  0  0
  2  5  1  0  0  0  0
  2 13  1  0  0  0  0
  3  9  1  0  0  0  0
  3 10  1  0  0  0  0
  4  6  1  0  0  0  0
  4 14  1  0  0  0  0
  4 15  1  0  0  0  0
  5  8  1  0  0  0  0
  5 16  1  0  0  0  0
  5 17  1  0  0  0  0
  6  7  1  0  0  0  0
  6 18  1  0  0  0  0
  6 19  1  0  0  0  0
  7  8  2  0  0  0  0
  7 11  1  0  0  0  0
  8 20  1  0  0  0  0
  9 21  1  0  0  0  0
  9 22  1  0  0  0  0
  9 23  1  0  0  0  0
 10 24  1  0  0  0  0
 10 25  1  0  0  0  0
 10 26  1  0  0  0  0
 11 27  1  0  0  0  0
 11 28  1  0  0  0  0
 11 29  1  0  0  0  0
M  END
>  <Mol_ID>
7333

>  <Formula>
C10H18O

>  <MolWeight>
154.24932

>  <Cat>
E4378

>  <Name>
Terpineol

>  <Synonyms>
Terpineol

>  <Target>
Others

>  <Form>
free base

>  <CAS>
8000-41-7

>  <URL>
https://www.selleckchem.com/products/terpineol.html

$$$$
