¦Á-Terpinene
 OpenBabel08302521363D

 26 26  0  0  0  0  0  0  0  0999 V2000
    0.9044   -0.0277   -0.0305 C   0  0  0  0  0  0  0  0  0  0  0  0
   -0.2824   -0.7613   -0.6602 C   0  0  0  0  0  0  0  0  0  0  0  0
    1.6136   -0.9338    0.9793 C   0  0  0  0  0  0  0  0  0  0  0  0
   -0.6333    5.2324    2.1829 C   0  0  0  0  0  0  0  0  0  0  0  0
    0.4944    1.3090    0.5742 C   0  0  0  0  0  0  0  0  0  0  0  0
   -0.5399    1.3132    1.6815 C   0  0  0  0  0  0  0  0  0  0  0  0
    1.0306    2.4635    0.1349 C   0  0  0  0  0  0  0  0  0  0  0  0
   -0.9671    2.6923    2.2243 C   0  0  0  0  0  0  0  0  0  0  0  0
    0.6641    3.7473    0.6734 C   0  0  0  0  0  0  0  0  0  0  0  0
   -0.2577    3.8858    1.6388 C   0  0  0  0  0  0  0  0  0  0  0  0
    1.6229    0.1590   -0.8407 H   0  0  0  0  0  0  0  0  0  0  0  0
    0.0478   -1.6921   -1.1339 H   0  0  0  0  0  0  0  0  0  0  0  0
   -1.0414   -1.0270    0.0830 H   0  0  0  0  0  0  0  0  0  0  0  0
   -0.7590   -0.1450   -1.4300 H   0  0  0  0  0  0  0  0  0  0  0  0
    2.4838   -0.4329    1.4172 H   0  0  0  0  0  0  0  0  0  0  0  0
    0.9484   -1.2394    1.7935 H   0  0  0  0  0  0  0  0  0  0  0  0
    1.9705   -1.8460    0.4877 H   0  0  0  0  0  0  0  0  0  0  0  0
    0.2447    5.7445    2.5897 H   0  0  0  0  0  0  0  0  0  0  0  0
   -1.0799    5.8547    1.4007 H   0  0  0  0  0  0  0  0  0  0  0  0
   -1.3658    5.1442    2.9923 H   0  0  0  0  0  0  0  0  0  0  0  0
   -0.1605    0.7210    2.5227 H   0  0  0  0  0  0  0  0  0  0  0  0
   -1.4456    0.8053    1.3311 H   0  0  0  0  0  0  0  0  0  0  0  0
    1.7724    2.4685   -0.6609 H   0  0  0  0  0  0  0  0  0  0  0  0
   -2.0452    2.8128    2.0568 H   0  0  0  0  0  0  0  0  0  0  0  0
   -0.8244    2.6935    3.3120 H   0  0  0  0  0  0  0  0  0  0  0  0
    1.1665    4.6168    0.2569 H   0  0  0  0  0  0  0  0  0  0  0  0
  1  2  1  0  0  0  0
  1  3  1  0  0  0  0
  1  5  1  0  0  0  0
  1 11  1  0  0  0  0
  2 12  1  0  0  0  0
  2 13  1  0  0  0  0
  2 14  1  0  0  0  0
  3 15  1  0  0  0  0
  3 16  1  0  0  0  0
  3 17  1  0  0  0  0
  4 10  1  0  0  0  0
  4 18  1  0  0  0  0
  4 19  1  0  0  0  0
  4 20  1  0  0  0  0
  5  6  1  0  0  0  0
  5  7  2  0  0  0  0
  6  8  1  0  0  0  0
  6 21  1  0  0  0  0
  6 22  1  0  0  0  0
  7  9  1  0  0  0  0
  7 23  1  0  0  0  0
  8 10  1  0  0  0  0
  8 24  1  0  0  0  0
  8 25  1  0  0  0  0
  9 10  2  0  0  0  0
  9 26  1  0  0  0  0
M  END
>  <Mol_ID>
7223

>  <Formula>
C10H16

>  <MolWeight>
136.23404

>  <Cat>
E4230

>  <Name>
¦Á-Terpinene

>  <Synonyms>
¦Á-Terpinene

>  <Target>
Others

>  <Form>
free base

>  <CAS>
99-86-5

>  <URL>
https://www.selleckchem.com/products/alpha-terpinene.html

$$$$
