tert-Butyl 11-aminoundecanoate
 OpenBabel08302521323D

 49 48  0  0  0  0  0  0  0  0999 V2000
    1.5060    3.2009   -0.4440 C   0  0  0  0  0  0  0  0  0  0  0  0
    0.3689    2.4624   -1.1085 C   0  0  0  0  0  0  0  0  0  0  0  0
   -0.5067    1.6932   -0.1227 C   0  0  0  0  0  0  0  0  0  0  0  0
   -1.5805    0.8738   -0.8509 C   0  0  0  0  0  0  0  0  0  0  0  0
   -2.4896    0.1253    0.1291 C   0  0  0  0  0  0  0  0  0  0  0  0
   -3.5730   -0.6799   -0.5997 C   0  0  0  0  0  0  0  0  0  0  0  0
   -4.4834   -1.4205    0.3867 C   0  0  0  0  0  0  0  0  0  0  0  0
   -5.5700   -2.2249   -0.3345 C   0  0  0  0  0  0  0  0  0  0  0  0
   -6.4823   -2.9583    0.6558 C   0  0  0  0  0  0  0  0  0  0  0  0
   -7.5699   -3.7570   -0.0702 C   0  0  0  0  0  0  0  0  0  0  0  0
   -8.4757   -4.4958    0.9160 C   0  0  0  0  0  0  0  0  0  0  0  0
    2.6816    2.9776   -0.7096 O   0  0  0  0  0  0  0  0  0  0  0  0
    1.0543    4.1435    0.4273 O   0  0  0  0  0  0  0  0  0  0  0  0
   -9.4978   -5.2522    0.2010 N   0  0  0  0  0  0  0  0  0  0  0  0
    1.9987    4.9605    1.1765 C   0  0  0  0  0  0  0  0  0  0  0  0
    2.8129    5.8743    0.2497 C   0  0  0  0  0  0  0  0  0  0  0  0
    1.1473    5.8402    2.1083 C   0  0  0  0  0  0  0  0  0  0  0  0
    2.9111    4.0955    2.0542 C   0  0  0  0  0  0  0  0  0  0  0  0
   -0.2151    3.1756   -1.6986 H   0  0  0  0  0  0  0  0  0  0  0  0
    0.8195    1.7525   -1.8185 H   0  0  0  0  0  0  0  0  0  0  0  0
    0.1184    1.0260    0.4844 H   0  0  0  0  0  0  0  0  0  0  0  0
   -0.9849    2.3942    0.5723 H   0  0  0  0  0  0  0  0  0  0  0  0
   -2.1866    1.5417   -1.4753 H   0  0  0  0  0  0  0  0  0  0  0  0
   -1.0976    0.1546   -1.5233 H   0  0  0  0  0  0  0  0  0  0  0  0
   -1.8850   -0.5502    0.7456 H   0  0  0  0  0  0  0  0  0  0  0  0
   -2.9651    0.8443    0.8071 H   0  0  0  0  0  0  0  0  0  0  0  0
   -4.1770   -0.0050   -1.2183 H   0  0  0  0  0  0  0  0  0  0  0  0
   -3.1007   -1.4024   -1.2764 H   0  0  0  0  0  0  0  0  0  0  0  0
   -3.8797   -2.0953    1.0055 H   0  0  0  0  0  0  0  0  0  0  0  0
   -4.9542   -0.6963    1.0628 H   0  0  0  0  0  0  0  0  0  0  0  0
   -6.1732   -1.5522   -0.9559 H   0  0  0  0  0  0  0  0  0  0  0  0
   -5.1012   -2.9534   -1.0069 H   0  0  0  0  0  0  0  0  0  0  0  0
   -5.8823   -3.6352    1.2757 H   0  0  0  0  0  0  0  0  0  0  0  0
   -6.9510   -2.2320    1.3305 H   0  0  0  0  0  0  0  0  0  0  0  0
   -8.1711   -3.0758   -0.6854 H   0  0  0  0  0  0  0  0  0  0  0  0
   -7.1002   -4.4778   -0.7511 H   0  0  0  0  0  0  0  0  0  0  0  0
   -7.8848   -5.1875    1.5262 H   0  0  0  0  0  0  0  0  0  0  0  0
   -8.9602   -3.7836    1.5930 H   0  0  0  0  0  0  0  0  0  0  0  0
  -10.1374   -5.6754    0.8727 H   0  0  0  0  0  0  0  0  0  0  0  0
  -10.0594   -4.6211   -0.3689 H   0  0  0  0  0  0  0  0  0  0  0  0
    2.1559    6.4830   -0.3805 H   0  0  0  0  0  0  0  0  0  0  0  0
    3.4597    6.5473    0.8248 H   0  0  0  0  0  0  0  0  0  0  0  0
    3.4562    5.3039   -0.4264 H   0  0  0  0  0  0  0  0  0  0  0  0
    0.5582    5.2215    2.7956 H   0  0  0  0  0  0  0  0  0  0  0  0
    1.7699    6.5146    2.7072 H   0  0  0  0  0  0  0  0  0  0  0  0
    0.4301    6.4448    1.5420 H   0  0  0  0  0  0  0  0  0  0  0  0
    2.3161    3.4265    2.6860 H   0  0  0  0  0  0  0  0  0  0  0  0
    3.5754    3.4603    1.4622 H   0  0  0  0  0  0  0  0  0  0  0  0
    3.5440    4.7143    2.6995 H   0  0  0  0  0  0  0  0  0  0  0  0
  1  2  1  0  0  0  0
  1 12  2  0  0  0  0
  1 13  1  0  0  0  0
  2  3  1  0  0  0  0
  2 19  1  0  0  0  0
  2 20  1  0  0  0  0
  3  4  1  0  0  0  0
  3 21  1  0  0  0  0
  3 22  1  0  0  0  0
  4  5  1  0  0  0  0
  4 23  1  0  0  0  0
  4 24  1  0  0  0  0
  5  6  1  0  0  0  0
  5 25  1  0  0  0  0
  5 26  1  0  0  0  0
  6  7  1  0  0  0  0
  6 27  1  0  0  0  0
  6 28  1  0  0  0  0
  7  8  1  0  0  0  0
  7 29  1  0  0  0  0
  7 30  1  0  0  0  0
  8  9  1  0  0  0  0
  8 31  1  0  0  0  0
  8 32  1  0  0  0  0
  9 10  1  0  0  0  0
  9 33  1  0  0  0  0
  9 34  1  0  0  0  0
 10 11  1  0  0  0  0
 10 35  1  0  0  0  0
 10 36  1  0  0  0  0
 11 14  1  0  0  0  0
 11 37  1  0  0  0  0
 11 38  1  0  0  0  0
 13 15  1  0  0  0  0
 14 39  1  0  0  0  0
 14 40  1  0  0  0  0
 15 16  1  0  0  0  0
 15 17  1  0  0  0  0
 15 18  1  0  0  0  0
 16 41  1  0  0  0  0
 16 42  1  0  0  0  0
 16 43  1  0  0  0  0
 17 44  1  0  0  0  0
 17 45  1  0  0  0  0
 17 46  1  0  0  0  0
 18 47  1  0  0  0  0
 18 48  1  0  0  0  0
 18 49  1  0  0  0  0
M  END
>  <Mol_ID>
6202

>  <Formula>
C15H31NO2

>  <MolWeight>
257.41214

>  <Cat>
S1814

>  <Name>
tert-Butyl 11-aminoundecanoate

>  <Synonyms>
N/A

>  <Target>
PROTAC Linker

>  <Form>
free base

>  <CAS>
220851-29-6

>  <URL>
http://www.selleckchem.com/products/tert-butyl-11-aminoundecanoate.html

$$$$
