Testosterone acetate
 OpenBabel08302521373D

 54 57  0  0  1  0  0  0  0  0999 V2000
   -1.2738   -0.7312   -1.9671 C   0  0  0  0  0  0  0  0  0  0  0  0
    3.3366   -1.0323   -1.3782 C   0  0  0  0  0  0  0  0  0  0  0  0
    5.4858   -1.3028    0.5579 O   0  0  0  0  0  0  0  0  0  0  0  0
    5.5232   -2.4644    1.2690 C   0  0  0  0  0  0  0  0  0  0  0  0
    6.6913   -3.3370    0.9211 C   0  0  0  0  0  0  0  0  0  0  0  0
    4.6920   -2.8021    2.1073 O   0  0  0  0  0  0  0  0  0  0  0  0
   -5.2751    0.2351    0.8789 O   0  0  0  0  0  0  0  0  0  0  0  0
    0.0714   -0.4645    0.2287 C   0  0  1  0  0  0  0  0  0  0  0  0
    0.9675    0.6969   -0.2992 C   0  0  2  0  0  0  0  0  0  0  0  0
   -1.3514   -0.4487   -0.4465 C   0  0  1  0  0  0  0  0  0  0  0  0
    0.7817   -1.8434    0.1829 C   0  0  0  0  0  0  0  0  0  0  0  0
    2.3400    0.6184    0.3652 C   0  0  1  0  0  0  0  0  0  0  0  0
    0.2931    2.0445   -0.0004 C   0  0  0  0  0  0  0  0  0  0  0  0
   -1.9720    0.9424   -0.2423 C   0  0  0  0  0  0  0  0  0  0  0  0
   -2.2381   -1.5403    0.2200 C   0  0  0  0  0  0  0  0  0  0  0  0
    2.2166   -1.8307    0.7315 C   0  0  0  0  0  0  0  0  0  0  0  0
    3.0693   -0.7174    0.1144 C   0  0  1  0  0  0  0  0  0  0  0  0
    3.3785    1.6751    0.0034 C   0  0  0  0  0  0  0  0  0  0  0  0
   -1.1080    2.1313   -0.5920 C   0  0  0  0  0  0  0  0  0  0  0  0
   -3.2245    1.1430    0.2051 C   0  0  0  0  0  0  0  0  0  0  0  0
   -3.7261   -1.3524   -0.0384 C   0  0  0  0  0  0  0  0  0  0  0  0
    4.3934   -0.4157    0.8631 C   0  0  2  0  0  0  0  0  0  0  0  0
    4.7156    1.0348    0.4173 C   0  0  0  0  0  0  0  0  0  0  0  0
   -4.1576    0.0196    0.4214 C   0  0  0  0  0  0  0  0  0  0  0  0
   -0.6460   -0.0084   -2.4970 H   0  0  0  0  0  0  0  0  0  0  0  0
   -0.8683   -1.7264   -2.1733 H   0  0  0  0  0  0  0  0  0  0  0  0
   -2.2623   -0.6829   -2.4369 H   0  0  0  0  0  0  0  0  0  0  0  0
    3.8868   -0.2355   -1.8882 H   0  0  0  0  0  0  0  0  0  0  0  0
    3.9281   -1.9489   -1.4790 H   0  0  0  0  0  0  0  0  0  0  0  0
    2.4133   -1.1857   -1.9446 H   0  0  0  0  0  0  0  0  0  0  0  0
    7.1929   -3.6304    1.8507 H   0  0  0  0  0  0  0  0  0  0  0  0
    6.3380   -4.2366    0.4059 H   0  0  0  0  0  0  0  0  0  0  0  0
    7.4229   -2.8289    0.2905 H   0  0  0  0  0  0  0  0  0  0  0  0
   -0.0889   -0.2632    1.3022 H   0  0  0  0  0  0  0  0  0  0  0  0
    1.0965    0.6106   -1.3836 H   0  0  0  0  0  0  0  0  0  0  0  0
    0.2143   -2.5671    0.7807 H   0  0  0  0  0  0  0  0  0  0  0  0
    0.7964   -2.2380   -0.8371 H   0  0  0  0  0  0  0  0  0  0  0  0
    2.1695    0.7185    1.4497 H   0  0  0  0  0  0  0  0  0  0  0  0
    0.8935    2.8669   -0.4062 H   0  0  0  0  0  0  0  0  0  0  0  0
    0.2399    2.2033    1.0849 H   0  0  0  0  0  0  0  0  0  0  0  0
   -2.0780   -1.5273    1.3073 H   0  0  0  0  0  0  0  0  0  0  0  0
   -1.9450   -2.5385   -0.1263 H   0  0  0  0  0  0  0  0  0  0  0  0
    2.1707   -1.7028    1.8209 H   0  0  0  0  0  0  0  0  0  0  0  0
    2.6713   -2.8109    0.5489 H   0  0  0  0  0  0  0  0  0  0  0  0
    3.3697    1.8990   -1.0703 H   0  0  0  0  0  0  0  0  0  0  0  0
    3.1979    2.6178    0.5324 H   0  0  0  0  0  0  0  0  0  0  0  0
   -1.0360    2.2064   -1.6839 H   0  0  0  0  0  0  0  0  0  0  0  0
   -1.5685    3.0673   -0.2516 H   0  0  0  0  0  0  0  0  0  0  0  0
   -3.6434    2.1307    0.3668 H   0  0  0  0  0  0  0  0  0  0  0  0
   -4.2914   -2.1077    0.5191 H   0  0  0  0  0  0  0  0  0  0  0  0
   -3.9738   -1.4570   -1.0991 H   0  0  0  0  0  0  0  0  0  0  0  0
    4.2200   -0.3959    1.9498 H   0  0  0  0  0  0  0  0  0  0  0  0
    5.4243    1.0584   -0.4172 H   0  0  0  0  0  0  0  0  0  0  0  0
    5.1707    1.5999    1.2388 H   0  0  0  0  0  0  0  0  0  0  0  0
  1 25  1  0  0  0  0
  1 26  1  0  0  0  0
  1 27  1  0  0  0  0
  2 28  1  0  0  0  0
  2 29  1  0  0  0  0
  2 30  1  0  0  0  0
  3  4  1  0  0  0  0
  4  5  1  0  0  0  0
  4  6  2  0  0  0  0
  5 31  1  0  0  0  0
  5 32  1  0  0  0  0
  5 33  1  0  0  0  0
  7 24  2  0  0  0  0
  8  9  1  0  0  0  0
  8 10  1  0  0  0  0
  8 11  1  0  0  0  0
  8 34  1  1  0  0  0
  9 12  1  0  0  0  0
  9 13  1  0  0  0  0
  9 35  1  6  0  0  0
 10  1  1  6  0  0  0
 10 14  1  0  0  0  0
 10 15  1  0  0  0  0
 11 16  1  0  0  0  0
 11 36  1  0  0  0  0
 11 37  1  0  0  0  0
 12 17  1  0  0  0  0
 12 18  1  0  0  0  0
 12 38  1  1  0  0  0
 13 19  1  0  0  0  0
 13 39  1  0  0  0  0
 13 40  1  0  0  0  0
 14 19  1  0  0  0  0
 14 20  2  0  0  0  0
 15 21  1  0  0  0  0
 15 41  1  0  0  0  0
 15 42  1  0  0  0  0
 16 17  1  0  0  0  0
 16 43  1  0  0  0  0
 16 44  1  0  0  0  0
 17  2  1  6  0  0  0
 17 22  1  0  0  0  0
 18 23  1  0  0  0  0
 18 45  1  0  0  0  0
 18 46  1  0  0  0  0
 19 47  1  0  0  0  0
 19 48  1  0  0  0  0
 20 24  1  0  0  0  0
 20 49  1  0  0  0  0
 21 24  1  0  0  0  0
 21 50  1  0  0  0  0
 21 51  1  0  0  0  0
 22 23  1  0  0  0  0
 22 52  1  1  0  0  0
 22  3  1  0  0  0  0
 23 53  1  0  0  0  0
 23 54  1  0  0  0  0
M  END
>  <Mol_ID>
7369

>  <Formula>
C21H30O3

>  <MolWeight>
330.4611

>  <Cat>
E4421

>  <Name>
Testosterone acetate

>  <Synonyms>
Testosterone acetate

>  <Target>
Others

>  <Form>
free base

>  <CAS>
1045-69-8

>  <URL>
https://www.selleckchem.com/products/testosterone-acetate.html

$$$$
