Tetraethylammonium bromide
 OpenBabel08302520393D

 30 28  0  0  0  0  0  0  0  0999 V2000
    1.0217    0.2328   -0.1544 N   0  3  0  0  0  0  0  0  0  0  0  0
    0.5279   -0.3820    1.2199 C   0  0  0  0  0  0  0  0  0  0  0  0
    0.4547    1.6496   -0.2645 C   0  0  0  0  0  0  0  0  0  0  0  0
    0.5087   -0.7406   -1.2619 C   0  0  0  0  0  0  0  0  0  0  0  0
    2.5699    0.1615   -0.1372 C   0  0  0  0  0  0  0  0  0  0  0  0
   -0.9864   -0.4454    1.3820 C   0  0  0  0  0  0  0  0  0  0  0  0
    0.9663    2.4950   -1.4180 C   0  0  0  0  0  0  0  0  0  0  0  0
    0.9623   -0.4325   -2.6804 C   0  0  0  0  0  0  0  0  0  0  0  0
    3.2228    0.8764    1.0379 C   0  0  0  0  0  0  0  0  0  0  0  0
   -0.1220   -4.1429    0.5481 Br  0  5  0  0  0  0  0  0  0  0  0  0
    0.9998   -1.3613    1.3180 H   0  0  0  0  0  0  0  0  0  0  0  0
    0.9198    0.2641    2.0120 H   0  0  0  0  0  0  0  0  0  0  0  0
   -0.6344    1.5642   -0.3452 H   0  0  0  0  0  0  0  0  0  0  0  0
    0.6817    2.1567    0.6777 H   0  0  0  0  0  0  0  0  0  0  0  0
    0.8813   -1.7284   -0.9934 H   0  0  0  0  0  0  0  0  0  0  0  0
   -0.5830   -0.7328   -1.2374 H   0  0  0  0  0  0  0  0  0  0  0  0
    2.8491   -0.8984   -0.1289 H   0  0  0  0  0  0  0  0  0  0  0  0
    2.9369    0.5973   -1.0680 H   0  0  0  0  0  0  0  0  0  0  0  0
   -1.4953   -0.9727    0.5750 H   0  0  0  0  0  0  0  0  0  0  0  0
   -1.2250   -0.9766    2.3104 H   0  0  0  0  0  0  0  0  0  0  0  0
   -1.4245    0.5531    1.4715 H   0  0  0  0  0  0  0  0  0  0  0  0
    0.4434    2.2691   -2.3493 H   0  0  0  0  0  0  0  0  0  0  0  0
    0.7527    3.5497   -1.2095 H   0  0  0  0  0  0  0  0  0  0  0  0
    2.0420    2.4182   -1.5841 H   0  0  0  0  0  0  0  0  0  0  0  0
    2.0280   -0.2121   -2.7672 H   0  0  0  0  0  0  0  0  0  0  0  0
    0.7674   -1.3075   -3.3108 H   0  0  0  0  0  0  0  0  0  0  0  0
    0.3897    0.3807   -3.1208 H   0  0  0  0  0  0  0  0  0  0  0  0
    3.1097    0.3084    1.9663 H   0  0  0  0  0  0  0  0  0  0  0  0
    4.3002    0.9618    0.8560 H   0  0  0  0  0  0  0  0  0  0  0  0
    2.8365    1.8862    1.1903 H   0  0  0  0  0  0  0  0  0  0  0  0
  1  2  1  0  0  0  0
  1  3  1  0  0  0  0
  1  4  1  0  0  0  0
  1  5  1  0  0  0  0
  2  6  1  0  0  0  0
  2 11  1  0  0  0  0
  2 12  1  0  0  0  0
  3  7  1  0  0  0  0
  3 13  1  0  0  0  0
  3 14  1  0  0  0  0
  4  8  1  0  0  0  0
  4 15  1  0  0  0  0
  4 16  1  0  0  0  0
  5  9  1  0  0  0  0
  5 17  1  0  0  0  0
  5 18  1  0  0  0  0
  6 19  1  0  0  0  0
  6 20  1  0  0  0  0
  6 21  1  0  0  0  0
  7 22  1  0  0  0  0
  7 23  1  0  0  0  0
  7 24  1  0  0  0  0
  8 25  1  0  0  0  0
  8 26  1  0  0  0  0
  8 27  1  0  0  0  0
  9 28  1  0  0  0  0
  9 29  1  0  0  0  0
  9 30  1  0  0  0  0
M  CHG  2   1   1  10  -1
M  END
>  <Mol_ID>
3635

>  <Formula>
C8H20BrN

>  <MolWeight>
210.1551

>  <Cat>
S6284

>  <Name>
Tetraethylammonium bromide

>  <Synonyms>
TEAB, TEA bromide

>  <Target>
Potassium Channel

>  <Form>
bromide

>  <CAS>
71-91-0

>  <URL>
http://www.selleck.cn/products/tetraethylammonium-bromide.html

$$$$
