Tetrahydrofurfuryl Alcohol
 OpenBabel08302521363D

 17 17  0  0  0  0  0  0  0  0999 V2000
    1.0528   -0.0781    0.0264 C   0  0  0  0  0  0  0  0  0  0  0  0
    1.6936   -1.2967   -0.3280 O   0  0  0  0  0  0  0  0  0  0  0  0
    0.5082   -0.1291    1.4515 C   0  0  3  0  0  0  0  0  0  0  0  0
   -0.4836   -1.2581    1.6963 C   0  0  0  0  0  0  0  0  0  0  0  0
   -0.1817    1.0997    1.7550 O   0  0  0  0  0  0  0  0  0  0  0  0
   -1.3455   -0.6792    2.7907 C   0  0  0  0  0  0  0  0  0  0  0  0
   -1.4304    0.7742    2.3811 C   0  0  0  0  0  0  0  0  0  0  0  0
    0.2445    0.1179   -0.6869 H   0  0  0  0  0  0  0  0  0  0  0  0
    1.7727    0.7426   -0.0680 H   0  0  0  0  0  0  0  0  0  0  0  0
    1.9816   -1.2013   -1.2515 H   0  0  0  0  0  0  0  0  0  0  0  0
    1.3407   -0.2236    2.1600 H   0  0  0  0  0  0  0  0  0  0  0  0
   -1.0951   -1.4464    0.8059 H   0  0  0  0  0  0  0  0  0  0  0  0
    0.0015   -2.1959    1.9818 H   0  0  0  0  0  0  0  0  0  0  0  0
   -2.3248   -1.1558    2.8799 H   0  0  0  0  0  0  0  0  0  0  0  0
   -0.8298   -0.7667    3.7545 H   0  0  0  0  0  0  0  0  0  0  0  0
   -2.2240    0.9311    1.6424 H   0  0  0  0  0  0  0  0  0  0  0  0
   -1.6041    1.4436    3.2280 H   0  0  0  0  0  0  0  0  0  0  0  0
  1  2  1  0  0  0  0
  1  3  1  0  0  0  0
  1  8  1  0  0  0  0
  1  9  1  0  0  0  0
  2 10  1  0  0  0  0
  3  4  1  0  0  0  0
  3  5  1  0  0  0  0
  3 11  1  0  0  0  0
  4  6  1  0  0  0  0
  4 12  1  0  0  0  0
  4 13  1  0  0  0  0
  5  7  1  0  0  0  0
  6  7  1  0  0  0  0
  6 14  1  0  0  0  0
  6 15  1  0  0  0  0
  7 16  1  0  0  0  0
  7 17  1  0  0  0  0
M  END
>  <Mol_ID>
7274

>  <Formula>
C5H10O2

>  <MolWeight>
102.1317

>  <Cat>
E4293

>  <Name>
Tetrahydrofurfuryl Alcohol

>  <Synonyms>
Tetrahydrofurfuryl Alcohol

>  <Target>
Others

>  <Form>
free base

>  <CAS>
97-99-4

>  <URL>
https://www.selleckchem.com/products/tetrahydrofurfuryl-alcohol.html

$$$$
