Tetradehydropodophyllotoxin
 OpenBabel08302521463D

 48 52  0  0  0  0  0  0  0  0999 V2000
    3.9619    0.3683   -3.9739 O   0  0  0  0  0  0  0  0  0  0  0  0
    4.1029    1.1246    1.2069 O   0  0  0  0  0  0  0  0  0  0  0  0
   10.5025    3.7147   -3.0769 O   0  0  0  0  0  0  0  0  0  0  0  0
   10.3692    4.5094   -1.9093 C   0  0  0  0  0  0  0  0  0  0  0  0
    8.4919    0.6468   -6.2940 O   0  0  0  0  0  0  0  0  0  0  0  0
    9.6373    0.5358   -7.1290 C   0  0  0  0  0  0  0  0  0  0  0  0
   10.7829    2.1261   -5.4200 O   0  0  0  0  0  0  0  0  0  0  0  0
   11.9490    2.8548   -5.0734 C   0  0  0  0  0  0  0  0  0  0  0  0
    5.8597    2.0744   -2.4905 C   0  0  0  0  0  0  0  0  0  0  0  0
    5.3190    3.1144   -1.6998 C   0  0  0  0  0  0  0  0  0  0  0  0
    5.4599    0.7862   -2.1199 C   0  0  0  0  0  0  0  0  0  0  0  0
    4.7901    2.8002   -0.3875 C   0  0  0  0  0  0  0  0  0  0  0  0
    5.1527    4.4154   -2.2122 C   0  0  0  0  0  0  0  0  0  0  0  0
    5.0692    0.4581   -0.8386 C   0  0  0  0  0  0  0  0  0  0  0  0
    4.4502    0.0331   -2.9121 C   0  0  0  0  0  0  0  0  0  0  0  0
    4.7499    1.4655    0.0467 C   0  0  0  0  0  0  0  0  0  0  0  0
    4.2114    3.8073    0.3920 C   0  0  0  0  0  0  0  0  0  0  0  0
    4.4103    5.3140   -1.4738 C   0  0  0  0  0  0  0  0  0  0  0  0
    4.6114   -0.9429   -0.8327 C   0  0  0  0  0  0  0  0  0  0  0  0
    4.0083   -1.0094   -2.1309 O   0  0  0  0  0  0  0  0  0  0  0  0
    3.9804    5.0228   -0.1961 C   0  0  0  0  0  0  0  0  0  0  0  0
    3.9136    6.5003   -1.9168 O   0  0  0  0  0  0  0  0  0  0  0  0
    3.1995    6.0082    0.3184 O   0  0  0  0  0  0  0  0  0  0  0  0
    2.9064    6.7293   -0.8914 C   0  0  0  0  0  0  0  0  0  0  0  0
    7.0813    2.2280   -3.3434 C   0  0  0  0  0  0  0  0  0  0  0  0
    8.1772    2.9939   -2.8886 C   0  0  0  0  0  0  0  0  0  0  0  0
    7.2864    1.4856   -4.5129 C   0  0  0  0  0  0  0  0  0  0  0  0
    9.4274    3.0065   -3.5458 C   0  0  0  0  0  0  0  0  0  0  0  0
    8.5256    1.4765   -5.1962 C   0  0  0  0  0  0  0  0  0  0  0  0
    9.6142    2.2347   -4.7113 C   0  0  0  0  0  0  0  0  0  0  0  0
    3.1655    0.9861    0.9651 H   0  0  0  0  0  0  0  0  0  0  0  0
    9.6545    5.3219   -2.0683 H   0  0  0  0  0  0  0  0  0  0  0  0
   10.1042    3.9003   -1.0401 H   0  0  0  0  0  0  0  0  0  0  0  0
   11.3471    4.9598   -1.7070 H   0  0  0  0  0  0  0  0  0  0  0  0
    9.9065    1.5003   -7.5727 H   0  0  0  0  0  0  0  0  0  0  0  0
   10.4773    0.0757   -6.5976 H   0  0  0  0  0  0  0  0  0  0  0  0
    9.3841   -0.1345   -7.9566 H   0  0  0  0  0  0  0  0  0  0  0  0
   11.7854    3.9337   -5.1536 H   0  0  0  0  0  0  0  0  0  0  0  0
   12.3316    2.5609   -4.0914 H   0  0  0  0  0  0  0  0  0  0  0  0
   12.7248    2.5945   -5.8020 H   0  0  0  0  0  0  0  0  0  0  0  0
    5.4464    4.6712   -3.2276 H   0  0  0  0  0  0  0  0  0  0  0  0
    3.8208    3.6122    1.3890 H   0  0  0  0  0  0  0  0  0  0  0  0
    3.8777   -1.1729   -0.0540 H   0  0  0  0  0  0  0  0  0  0  0  0
    5.4385   -1.6571   -0.7970 H   0  0  0  0  0  0  0  0  0  0  0  0
    1.9351    6.3855   -1.2637 H   0  0  0  0  0  0  0  0  0  0  0  0
    2.8313    7.8008   -0.6743 H   0  0  0  0  0  0  0  0  0  0  0  0
    8.0559    3.5483   -1.9619 H   0  0  0  0  0  0  0  0  0  0  0  0
    6.4843    0.8651   -4.9125 H   0  0  0  0  0  0  0  0  0  0  0  0
  1 15  2  0  0  0  0
  2 16  1  0  0  0  0
  2 31  1  0  0  0  0
  3  4  1  0  0  0  0
  3 28  1  0  0  0  0
  4 32  1  0  0  0  0
  4 33  1  0  0  0  0
  4 34  1  0  0  0  0
  5  6  1  0  0  0  0
  5 29  1  0  0  0  0
  6 35  1  0  0  0  0
  6 36  1  0  0  0  0
  6 37  1  0  0  0  0
  7  8  1  0  0  0  0
  7 30  1  0  0  0  0
  8 38  1  0  0  0  0
  8 39  1  0  0  0  0
  8 40  1  0  0  0  0
  9 10  1  0  0  0  0
  9 11  2  0  0  0  0
  9 25  1  0  0  0  0
 10 12  1  0  0  0  0
 10 13  2  0  0  0  0
 11 14  1  0  0  0  0
 11 15  1  0  0  0  0
 12 16  1  0  0  0  0
 12 17  2  0  0  0  0
 13 18  1  0  0  0  0
 13 41  1  0  0  0  0
 14 16  2  0  0  0  0
 14 19  1  0  0  0  0
 15 20  1  0  0  0  0
 17 21  1  0  0  0  0
 17 42  1  0  0  0  0
 18 21  2  0  0  0  0
 18 22  1  0  0  0  0
 19 20  1  0  0  0  0
 19 43  1  0  0  0  0
 19 44  1  0  0  0  0
 21 23  1  0  0  0  0
 22 24  1  0  0  0  0
 23 24  1  0  0  0  0
 24 45  1  0  0  0  0
 24 46  1  0  0  0  0
 25 26  2  0  0  0  0
 25 27  1  0  0  0  0
 26 28  1  0  0  0  0
 26 47  1  0  0  0  0
 27 29  2  0  0  0  0
 27 48  1  0  0  0  0
 28 30  2  0  0  0  0
 29 30  1  0  0  0  0
M  END
>  <Mol_ID>
9650

>  <Formula>
C22H18O8

>  <MolWeight>
410.37352

>  <Cat>
E2112

>  <Name>
Tetradehydropodophyllotoxin

>  <Synonyms>
NA

>  <Target>
antimicrobial

>  <Form>
Free Base

>  <CAS>
42123-27-3

>  <URL>
https://www.selleckchem.com/products/tetradehydropodophyllotoxin.html

$$$$
