Tetrahydrocurcumin
 OpenBabel08302520013D

 51 52  0  0  0  0  0  0  0  0999 V2000
    2.4388    0.5788    6.2116 C   0  0  0  0  0  0  0  0  0  0  0  0
    3.4482   10.5633    2.7398 C   0  0  0  0  0  0  0  0  0  0  0  0
    3.7178    0.1936    5.8039 C   0  0  0  0  0  0  0  0  0  0  0  0
    2.7445   11.7653    2.6238 C   0  0  0  0  0  0  0  0  0  0  0  0
    0.4181    5.0549    1.4489 C   0  0  0  0  0  0  0  0  0  0  0  0
    1.7991    1.6093    5.4977 C   0  0  0  0  0  0  0  0  0  0  0  0
    2.8345    9.3815    2.3155 C   0  0  0  0  0  0  0  0  0  0  0  0
   -0.5227    6.1330    1.9390 C   0  0  0  0  0  0  0  0  0  0  0  0
   -0.0496    3.6397    1.7021 C   0  0  0  0  0  0  0  0  0  0  0  0
   -1.7425    5.9833    1.9829 O   0  0  0  0  0  0  0  0  0  0  0  0
   -1.0693    3.2063    1.1559 O   0  0  0  0  0  0  0  0  0  0  0  0
    1.4575   11.8087    2.1056 C   0  0  0  0  0  0  0  0  0  0  0  0
    4.3271    0.8243    4.7108 C   0  0  0  0  0  0  0  0  0  0  0  0
    2.3943    2.2359    4.3948 C   0  0  0  0  0  0  0  0  0  0  0  0
    1.5358    9.4055    1.7727 C   0  0  0  0  0  0  0  0  0  0  0  0
    0.8508   10.6265    1.6817 C   0  0  0  0  0  0  0  0  0  0  0  0
    3.6708    1.8318    4.0030 C   0  0  0  0  0  0  0  0  0  0  0  0
    1.6503    0.1316    7.2309 O   0  0  0  0  0  0  0  0  0  0  0  0
    0.0947    7.4397    2.4040 C   0  0  0  0  0  0  0  0  0  0  0  0
    0.8238    2.6790    2.4933 C   0  0  0  0  0  0  0  0  0  0  0  0
    4.7080   10.6760    3.2683 O   0  0  0  0  0  0  0  0  0  0  0  0
    4.5026   -0.7687    6.3698 O   0  0  0  0  0  0  0  0  0  0  0  0
    3.3204   12.9427    3.0255 O   0  0  0  0  0  0  0  0  0  0  0  0
    1.6463    3.2935    3.6223 C   0  0  0  0  0  0  0  0  0  0  0  0
    0.8842    8.1284    1.2974 C   0  0  0  0  0  0  0  0  0  0  0  0
    2.0319   -0.9512    8.0500 C   0  0  0  0  0  0  0  0  0  0  0  0
    5.4507    9.4714    3.4121 C   0  0  0  0  0  0  0  0  0  0  0  0
    1.3921    5.2172    1.9118 H   0  0  0  0  0  0  0  0  0  0  0  0
    0.5636    5.1751    0.3707 H   0  0  0  0  0  0  0  0  0  0  0  0
    0.8044    1.9206    5.8166 H   0  0  0  0  0  0  0  0  0  0  0  0
    3.3484    8.4291    2.3878 H   0  0  0  0  0  0  0  0  0  0  0  0
    0.9345   12.7579    2.0278 H   0  0  0  0  0  0  0  0  0  0  0  0
    5.3228    0.5149    4.4019 H   0  0  0  0  0  0  0  0  0  0  0  0
   -0.1567   10.6677    1.2735 H   0  0  0  0  0  0  0  0  0  0  0  0
    4.1660    2.2876    3.1509 H   0  0  0  0  0  0  0  0  0  0  0  0
   -0.7159    8.0931    2.7506 H   0  0  0  0  0  0  0  0  0  0  0  0
    0.7225    7.2234    3.2758 H   0  0  0  0  0  0  0  0  0  0  0  0
    1.4802    2.1705    1.7774 H   0  0  0  0  0  0  0  0  0  0  0  0
    0.1528    1.9175    2.9148 H   0  0  0  0  0  0  0  0  0  0  0  0
    3.9680   -1.3567    6.9128 H   0  0  0  0  0  0  0  0  0  0  0  0
    4.2078   12.6924    3.3452 H   0  0  0  0  0  0  0  0  0  0  0  0
    1.0030    3.8706    4.2977 H   0  0  0  0  0  0  0  0  0  0  0  0
    2.3836    4.0025    3.2301 H   0  0  0  0  0  0  0  0  0  0  0  0
    1.6622    7.4625    0.9038 H   0  0  0  0  0  0  0  0  0  0  0  0
    0.2297    8.3432    0.4428 H   0  0  0  0  0  0  0  0  0  0  0  0
    2.1667   -1.8660    7.4631 H   0  0  0  0  0  0  0  0  0  0  0  0
    2.9175   -0.7047    8.6425 H   0  0  0  0  0  0  0  0  0  0  0  0
    1.2108   -1.1437    8.7477 H   0  0  0  0  0  0  0  0  0  0  0  0
    4.9615    8.7913    4.1173 H   0  0  0  0  0  0  0  0  0  0  0  0
    5.6132    8.9874    2.4431 H   0  0  0  0  0  0  0  0  0  0  0  0
    6.4321    9.7287    3.8222 H   0  0  0  0  0  0  0  0  0  0  0  0
  2  7  2  0  0  0  0
  2  4  1  0  0  0  0
  3  1  2  0  0  0  0
  4 12  2  0  0  0  0
  5  9  1  0  0  0  0
  5 28  1  0  0  0  0
  5 29  1  0  0  0  0
  6  1  1  0  0  0  0
  6 30  1  0  0  0  0
  7 15  1  0  0  0  0
  7 31  1  0  0  0  0
  8  5  1  0  0  0  0
  9 20  1  0  0  0  0
 10  8  2  0  0  0  0
 11  9  2  0  0  0  0
 12 16  1  0  0  0  0
 12 32  1  0  0  0  0
 13  3  1  0  0  0  0
 13 17  2  0  0  0  0
 13 33  1  0  0  0  0
 14  6  2  0  0  0  0
 15 25  1  0  0  0  0
 16 15  2  0  0  0  0
 16 34  1  0  0  0  0
 17 14  1  0  0  0  0
 17 35  1  0  0  0  0
 18  1  1  0  0  0  0
 19  8  1  0  0  0  0
 19 36  1  0  0  0  0
 19 37  1  0  0  0  0
 20 24  1  0  0  0  0
 20 38  1  0  0  0  0
 20 39  1  0  0  0  0
 21  2  1  0  0  0  0
 22  3  1  0  0  0  0
 22 40  1  0  0  0  0
 23  4  1  0  0  0  0
 23 41  1  0  0  0  0
 24 14  1  0  0  0  0
 24 42  1  0  0  0  0
 24 43  1  0  0  0  0
 25 19  1  0  0  0  0
 25 44  1  0  0  0  0
 25 45  1  0  0  0  0
 26 18  1  0  0  0  0
 26 46  1  0  0  0  0
 26 47  1  0  0  0  0
 26 48  1  0  0  0  0
 27 21  1  0  0  0  0
 27 49  1  0  0  0  0
 27 50  1  0  0  0  0
 27 51  1  0  0  0  0
M  END
>  <Mol_ID>
3087

>  <Formula>
C21H24O6

>  <MolWeight>
372.41166

>  <Cat>
S3917

>  <Name>
Tetrahydrocurcumin

>  <Synonyms>
Tetrahydrodiferuloylmethane, Tetrahydro Curcumin

>  <Target>
P450 (e.g. CYP17)

>  <Form>
free base

>  <CAS>
36062-04-1

>  <URL>
https://www.selleckchem.com/products/tetrahydrocurcumin.html

$$$$
