Tetraethylammonium chloride
 OpenBabel08302521303D

 29 28  0  0  0  0  0  0  0  0999 V2000
    1.1157   -0.0000    0.0259 N   0  3  0  0  0  0  0  0  0  0  0  0
    0.5723   -0.9416   -1.0872 C   0  0  0  0  0  0  0  0  0  0  0  0
    0.5891   -0.5787    1.3720 C   0  0  0  0  0  0  0  0  0  0  0  0
    0.6362    1.4628   -0.1827 C   0  0  0  0  0  0  0  0  0  0  0  0
    2.6712    0.0471    0.0091 C   0  0  0  0  0  0  0  0  0  0  0  0
    0.9755   -0.5388   -2.4959 C   0  0  0  0  0  0  0  0  0  0  0  0
    1.0078    0.2039    2.6071 C   0  0  0  0  0  0  0  0  0  0  0  0
   -0.8720    1.6274   -0.2693 C   0  0  0  0  0  0  0  0  0  0  0  0
    3.3403   -1.3144    0.1112 C   0  0  0  0  0  0  0  0  0  0  0  0
    0.9340   -1.9501   -0.8624 H   0  0  0  0  0  0  0  0  0  0  0  0
   -0.5171   -0.9625   -0.9941 H   0  0  0  0  0  0  0  0  0  0  0  0
   -0.5049   -0.6172    1.3060 H   0  0  0  0  0  0  0  0  0  0  0  0
    0.9382   -1.6107    1.4436 H   0  0  0  0  0  0  0  0  0  0  0  0
    1.0390    2.0573    0.6440 H   0  0  0  0  0  0  0  0  0  0  0  0
    1.1041    1.8306   -1.1024 H   0  0  0  0  0  0  0  0  0  0  0  0
    2.9752    0.5446   -0.9180 H   0  0  0  0  0  0  0  0  0  0  0  0
    2.9880    0.6952    0.8311 H   0  0  0  0  0  0  0  0  0  0  0  0
    2.0586   -0.4809   -2.6237 H   0  0  0  0  0  0  0  0  0  0  0  0
    0.6105   -1.2916   -3.2024 H   0  0  0  0  0  0  0  0  0  0  0  0
    0.5359    0.4169   -2.7904 H   0  0  0  0  0  0  0  0  0  0  0  0
    0.5446    1.1915    2.6418 H   0  0  0  0  0  0  0  0  0  0  0  0
    0.6767   -0.3354    3.5025 H   0  0  0  0  0  0  0  0  0  0  0  0
    2.0908    0.3159    2.6928 H   0  0  0  0  0  0  0  0  0  0  0  0
   -1.3886    1.2472    0.6153 H   0  0  0  0  0  0  0  0  0  0  0  0
   -1.1143    2.6923   -0.3492 H   0  0  0  0  0  0  0  0  0  0  0  0
   -1.2873    1.1414   -1.1560 H   0  0  0  0  0  0  0  0  0  0  0  0
    3.2114   -1.8955   -0.8062 H   0  0  0  0  0  0  0  0  0  0  0  0
    4.4181   -1.1776    0.2518 H   0  0  0  0  0  0  0  0  0  0  0  0
    2.9807   -1.9071    0.9543 H   0  0  0  0  0  0  0  0  0  0  0  0
  1  2  1  0  0  0  0
  1  3  1  0  0  0  0
  1  4  1  0  0  0  0
  1  5  1  0  0  0  0
  2  6  1  0  0  0  0
  2 10  1  0  0  0  0
  2 11  1  0  0  0  0
  3  7  1  0  0  0  0
  3 12  1  0  0  0  0
  3 13  1  0  0  0  0
  4  8  1  0  0  0  0
  4 14  1  0  0  0  0
  4 15  1  0  0  0  0
  5  9  1  0  0  0  0
  5 16  1  0  0  0  0
  5 17  1  0  0  0  0
  6 18  1  0  0  0  0
  6 19  1  0  0  0  0
  6 20  1  0  0  0  0
  7 21  1  0  0  0  0
  7 22  1  0  0  0  0
  7 23  1  0  0  0  0
  8 24  1  0  0  0  0
  8 25  1  0  0  0  0
  8 26  1  0  0  0  0
  9 27  1  0  0  0  0
  9 28  1  0  0  0  0
  9 29  1  0  0  0  0
M  CHG  1   1   1
M  END
>  <Mol_ID>
5642

>  <Formula>
C8H20ClN

>  <MolWeight>
165.7041

>  <Cat>
S4489

>  <Name>
Tetraethylammonium chloride

>  <Synonyms>
TEA chloride

>  <Target>
Potassium Channel

>  <Form>
Free Base

>  <CAS>
56-34-8

>  <URL>
http://www.selleckchem.com/products/tetraethylammonium-chloride.html

$$$$
