Tetryzoline
 OpenBabel08302520343D

 31 33  0  0  0  0  0  0  0  0999 V2000
    1.2220   -1.4952   -0.0175 C   0  0  3  0  0  0  0  0  0  0  0  0
   -0.0687   -0.6871    0.0348 C   0  0  0  0  0  0  0  0  0  0  0  0
    1.1477   -2.6222   -1.0420 C   0  0  0  0  0  0  0  0  0  0  0  0
    2.4651   -0.6515   -0.3480 C   0  0  0  0  0  0  0  0  0  0  0  0
   -0.0605    0.7196   -0.0124 C   0  0  0  0  0  0  0  0  0  0  0  0
   -1.2982   -1.3555    0.1793 C   0  0  0  0  0  0  0  0  0  0  0  0
    0.8276   -2.3866   -2.3616 N   0  0  0  0  0  0  0  0  0  0  0  0
    1.3660   -3.8694   -0.7069 N   0  0  0  0  0  0  0  0  0  0  0  0
    2.4339    0.6897    0.3681 C   0  0  0  0  0  0  0  0  0  0  0  0
    1.2275    1.4997   -0.0969 C   0  0  0  0  0  0  0  0  0  0  0  0
   -1.2777    1.4185   -0.0143 C   0  0  0  0  0  0  0  0  0  0  0  0
   -2.5000   -0.6487    0.1961 C   0  0  0  0  0  0  0  0  0  0  0  0
    0.5027   -3.6595   -2.9569 C   0  0  0  0  0  0  0  0  0  0  0  0
    1.2045   -4.6160   -1.9886 C   0  0  0  0  0  0  0  0  0  0  0  0
   -2.4903    0.7375    0.0826 C   0  0  0  0  0  0  0  0  0  0  0  0
    1.3633   -1.9390    0.9777 H   0  0  0  0  0  0  0  0  0  0  0  0
    2.5433   -0.4734   -1.4289 H   0  0  0  0  0  0  0  0  0  0  0  0
    3.3681   -1.2068   -0.0664 H   0  0  0  0  0  0  0  0  0  0  0  0
   -1.3235   -2.4399    0.2782 H   0  0  0  0  0  0  0  0  0  0  0  0
    0.2049   -1.6061   -2.5423 H   0  0  0  0  0  0  0  0  0  0  0  0
    2.3909    0.5301    1.4526 H   0  0  0  0  0  0  0  0  0  0  0  0
    3.3534    1.2475    0.1595 H   0  0  0  0  0  0  0  0  0  0  0  0
    1.1566    2.4033    0.5205 H   0  0  0  0  0  0  0  0  0  0  0  0
    1.3721    1.8172   -1.1367 H   0  0  0  0  0  0  0  0  0  0  0  0
   -1.2842    2.5043   -0.0827 H   0  0  0  0  0  0  0  0  0  0  0  0
   -3.4422   -1.1810    0.2981 H   0  0  0  0  0  0  0  0  0  0  0  0
    0.8720   -3.7513   -3.9820 H   0  0  0  0  0  0  0  0  0  0  0  0
   -0.5820   -3.8156   -2.9437 H   0  0  0  0  0  0  0  0  0  0  0  0
    0.6215   -5.5293   -1.8369 H   0  0  0  0  0  0  0  0  0  0  0  0
    2.1987   -4.8906   -2.3588 H   0  0  0  0  0  0  0  0  0  0  0  0
   -3.4258    1.2905    0.0834 H   0  0  0  0  0  0  0  0  0  0  0  0
  1  2  1  0  0  0  0
  1  3  1  0  0  0  0
  1  4  1  0  0  0  0
  1 16  1  0  0  0  0
  2  5  2  0  0  0  0
  2  6  1  0  0  0  0
  3  7  1  0  0  0  0
  3  8  2  0  0  0  0
  4  9  1  0  0  0  0
  4 17  1  0  0  0  0
  4 18  1  0  0  0  0
  5 10  1  0  0  0  0
  5 11  1  0  0  0  0
  6 12  2  0  0  0  0
  6 19  1  0  0  0  0
  7 13  1  0  0  0  0
  7 20  1  0  0  0  0
  8 14  1  0  0  0  0
  9 10  1  0  0  0  0
  9 21  1  0  0  0  0
  9 22  1  0  0  0  0
 10 23  1  0  0  0  0
 10 24  1  0  0  0  0
 11 15  2  0  0  0  0
 11 25  1  0  0  0  0
 12 15  1  0  0  0  0
 12 26  1  0  0  0  0
 13 14  1  0  0  0  0
 13 27  1  0  0  0  0
 13 28  1  0  0  0  0
 14 29  1  0  0  0  0
 14 30  1  0  0  0  0
 15 31  1  0  0  0  0
M  END
>  <Mol_ID>
3379

>  <Formula>
C13H16N2

>  <MolWeight>
200.27954

>  <Cat>
S5727

>  <Name>
Tetryzoline

>  <Synonyms>
Tetrahydrozoline

>  <Target>
Adrenergic Receptor

>  <Form>
Free Base

>  <CAS>
84-22-0

>  <URL>
http://www.selleckchem.com/products/tetryzoline.html

$$$$
