Tetracaine hydrochloride.cdx
 OpenBabel08302521443D

 43 43  0  0  0  0  0  0  0  0999 V2000
    1.2484   -0.3102   -0.6947 C   0  0  0  0  0  0  0  0  0  0  0  0
    0.3661   -1.3222   -0.2919 C   0  0  0  0  0  0  0  0  0  0  0  0
   -0.9937   -1.0109   -0.2385 C   0  0  0  0  0  0  0  0  0  0  0  0
   -1.4374    0.3107   -0.3913 C   0  0  0  0  0  0  0  0  0  0  0  0
   -0.5228    1.3410   -0.6435 C   0  0  0  0  0  0  0  0  0  0  0  0
    0.8164    1.0132   -0.8580 C   0  0  0  0  0  0  0  0  0  0  0  0
    0.7923   -2.6374   -0.0217 N   0  0  0  0  0  0  0  0  0  0  0  0
    2.0739   -2.7514    0.6858 C   0  0  0  0  0  0  0  0  0  0  0  0
    2.3525   -4.1968    1.1061 C   0  0  0  0  0  0  0  0  0  0  0  0
    2.4715   -5.1430   -0.0884 C   0  0  0  0  0  0  0  0  0  0  0  0
    2.7907   -6.5634    0.3509 C   0  0  0  0  0  0  0  0  0  0  0  0
   -1.0053    2.7487   -0.5850 C   0  0  0  0  0  0  0  0  0  0  0  0
   -0.0072    3.6308   -0.8432 O   0  0  0  0  0  0  0  0  0  0  0  0
   -0.3446    5.0291   -0.7301 C   0  0  0  0  0  0  0  0  0  0  0  0
   -0.5446    5.6661   -2.1191 C   0  0  0  0  0  0  0  0  0  0  0  0
   -1.6258    5.0723   -2.9250 N   0  0  0  0  0  0  0  0  0  0  0  0
   -2.9520    5.3421   -2.3630 C   0  0  0  0  0  0  0  0  0  0  0  0
   -1.5803    5.5573   -4.3055 C   0  0  0  0  0  0  0  0  0  0  0  0
   -2.1477    3.0251   -0.2452 O   0  0  0  0  0  0  0  0  0  0  0  0
    2.2967   -0.5292   -0.8675 H   0  0  0  0  0  0  0  0  0  0  0  0
   -1.7319   -1.7845   -0.0284 H   0  0  0  0  0  0  0  0  0  0  0  0
   -2.4973    0.5348   -0.2798 H   0  0  0  0  0  0  0  0  0  0  0  0
    1.5444    1.7739   -1.1237 H   0  0  0  0  0  0  0  0  0  0  0  0
    0.0566   -3.1628    0.4466 H   0  0  0  0  0  0  0  0  0  0  0  0
    2.9005   -2.4101    0.0517 H   0  0  0  0  0  0  0  0  0  0  0  0
    2.0548   -2.1278    1.5886 H   0  0  0  0  0  0  0  0  0  0  0  0
    3.2925   -4.2147    1.6752 H   0  0  0  0  0  0  0  0  0  0  0  0
    1.5656   -4.5473    1.7835 H   0  0  0  0  0  0  0  0  0  0  0  0
    1.5333   -5.1529   -0.6537 H   0  0  0  0  0  0  0  0  0  0  0  0
    3.2570   -4.7909   -0.7674 H   0  0  0  0  0  0  0  0  0  0  0  0
    2.0409   -6.9355    1.0557 H   0  0  0  0  0  0  0  0  0  0  0  0
    2.8027   -7.2316   -0.5165 H   0  0  0  0  0  0  0  0  0  0  0  0
    3.7722   -6.6146    0.8322 H   0  0  0  0  0  0  0  0  0  0  0  0
   -1.1987    5.2015   -0.0659 H   0  0  0  0  0  0  0  0  0  0  0  0
    0.5126    5.5146   -0.2483 H   0  0  0  0  0  0  0  0  0  0  0  0
   -0.6940    6.7476   -2.0071 H   0  0  0  0  0  0  0  0  0  0  0  0
    0.4008    5.5250   -2.6600 H   0  0  0  0  0  0  0  0  0  0  0  0
   -3.2107    6.4059   -2.4125 H   0  0  0  0  0  0  0  0  0  0  0  0
   -3.7124    4.7745   -2.9107 H   0  0  0  0  0  0  0  0  0  0  0  0
   -3.0349    5.0351   -1.3187 H   0  0  0  0  0  0  0  0  0  0  0  0
   -1.8764    6.6099   -4.3853 H   0  0  0  0  0  0  0  0  0  0  0  0
   -0.5774    5.4527   -4.7335 H   0  0  0  0  0  0  0  0  0  0  0  0
   -2.2518    4.9608   -4.9333 H   0  0  0  0  0  0  0  0  0  0  0  0
  1  2  2  0  0  0  0
  1 20  1  0  0  0  0
  2  3  1  0  0  0  0
  2  7  1  0  0  0  0
  3  4  2  0  0  0  0
  3 21  1  0  0  0  0
  4  5  1  0  0  0  0
  4 22  1  0  0  0  0
  5  6  2  0  0  0  0
  5 12  1  0  0  0  0
  6  1  1  0  0  0  0
  6 23  1  0  0  0  0
  7  8  1  0  0  0  0
  7 24  1  0  0  0  0
  8  9  1  0  0  0  0
  8 25  1  0  0  0  0
  8 26  1  0  0  0  0
  9 10  1  0  0  0  0
  9 27  1  0  0  0  0
  9 28  1  0  0  0  0
 10 11  1  0  0  0  0
 10 29  1  0  0  0  0
 10 30  1  0  0  0  0
 11 31  1  0  0  0  0
 11 32  1  0  0  0  0
 11 33  1  0  0  0  0
 12 13  1  0  0  0  0
 12 19  2  0  0  0  0
 13 14  1  0  0  0  0
 14 15  1  0  0  0  0
 14 34  1  0  0  0  0
 14 35  1  0  0  0  0
 15 16  1  0  0  0  0
 15 36  1  0  0  0  0
 15 37  1  0  0  0  0
 16 17  1  0  0  0  0
 16 18  1  0  0  0  0
 17 38  1  0  0  0  0
 17 39  1  0  0  0  0
 17 40  1  0  0  0  0
 18 41  1  0  0  0  0
 18 42  1  0  0  0  0
 18 43  1  0  0  0  0
M  END
>  <Mol_ID>
917

>  <Formula>
C15H25ClN2O2

>  <MolWeight>
300.8242

>  <Cat>
S2573

>  <Name>
Tetracaine HCl

>  <Synonyms>
Amethocaine hydrochloride

>  <Target>
Calcium Channel

>  <Form>
Hydrochloride

>  <CAS>
136-47-0

>  <URL>
http://selleckchem.com/products/tetracaine-hydrochloride-pontocaine.html

$$$$
