Tetramethylcurcumin
 OpenBabel08302521343D

 59 60  0  0  0  0  0  0  0  0999 V2000
    3.3218   -1.2082    6.3302 O   0  0  0  0  0  0  0  0  0  0  0  0
    2.3705   -2.2408    6.0123 C   0  0  0  0  0  0  0  0  0  0  0  0
    4.8474    1.4009    6.1109 O   0  0  0  0  0  0  0  0  0  0  0  0
    4.2190    1.3873    7.3760 C   0  0  0  0  0  0  0  0  0  0  0  0
    5.7457   -2.7087    2.3439 C   0  0  0  0  0  0  0  0  0  0  0  0
    4.9095   -3.7067    2.0024 C   0  0  0  0  0  0  0  0  0  0  0  0
    5.3715   -4.8453    1.1467 C   0  0  0  0  0  0  0  0  0  0  0  0
    4.6323   -6.1909    1.2528 C   0  0  0  0  0  0  0  0  0  0  0  0
    6.3927   -4.7043    0.4590 O   0  0  0  0  0  0  0  0  0  0  0  0
    5.2568   -7.2067    0.2687 C   0  0  0  0  0  0  0  0  0  0  0  0
    4.6730   -6.6720    2.7192 C   0  0  0  0  0  0  0  0  0  0  0  0
    3.1399   -6.0684    0.8651 C   0  0  0  0  0  0  0  0  0  0  0  0
    6.4054   -8.0484    0.7201 C   0  0  0  0  0  0  0  0  0  0  0  0
    4.8338   -7.3351   -0.8869 O   0  0  0  0  0  0  0  0  0  0  0  0
    6.7113   -9.1738    0.0566 C   0  0  0  0  0  0  0  0  0  0  0  0
   11.4061  -10.6354    0.3515 O   0  0  0  0  0  0  0  0  0  0  0  0
   11.7793   -9.6251   -0.5735 C   0  0  0  0  0  0  0  0  0  0  0  0
   10.5419  -12.6835    2.2359 O   0  0  0  0  0  0  0  0  0  0  0  0
   11.9355  -12.6650    1.9662 C   0  0  0  0  0  0  0  0  0  0  0  0
    4.2502   -0.9350    5.3634 C   0  0  0  0  0  0  0  0  0  0  0  0
    4.9020    0.3046    5.2923 C   0  0  0  0  0  0  0  0  0  0  0  0
    4.5709   -1.9106    4.3918 C   0  0  0  0  0  0  0  0  0  0  0  0
    5.7481    0.5591    4.2017 C   0  0  0  0  0  0  0  0  0  0  0  0
    5.4091   -1.6550    3.3088 C   0  0  0  0  0  0  0  0  0  0  0  0
    5.9961   -0.3985    3.2127 C   0  0  0  0  0  0  0  0  0  0  0  0
    7.7441  -10.0798    0.5578 C   0  0  0  0  0  0  0  0  0  0  0  0
    9.0792   -9.9354    0.1638 C   0  0  0  0  0  0  0  0  0  0  0  0
    7.4004  -11.0711    1.4727 C   0  0  0  0  0  0  0  0  0  0  0  0
   10.0874  -10.7640    0.6852 C   0  0  0  0  0  0  0  0  0  0  0  0
    8.3901  -11.9088    1.9916 C   0  0  0  0  0  0  0  0  0  0  0  0
    9.7311  -11.7657    1.6115 C   0  0  0  0  0  0  0  0  0  0  0  0
    2.1293   -2.2902    4.9417 H   0  0  0  0  0  0  0  0  0  0  0  0
    2.7341   -3.2171    6.3565 H   0  0  0  0  0  0  0  0  0  0  0  0
    1.4292   -2.0262    6.5256 H   0  0  0  0  0  0  0  0  0  0  0  0
    3.2609    0.8616    7.3839 H   0  0  0  0  0  0  0  0  0  0  0  0
    4.9007    1.0150    8.1479 H   0  0  0  0  0  0  0  0  0  0  0  0
    4.0015    2.4351    7.6244 H   0  0  0  0  0  0  0  0  0  0  0  0
    6.7538   -2.6747    1.9312 H   0  0  0  0  0  0  0  0  0  0  0  0
    3.9046   -3.7754    2.4045 H   0  0  0  0  0  0  0  0  0  0  0  0
    4.1782   -5.9600    3.3902 H   0  0  0  0  0  0  0  0  0  0  0  0
    4.1649   -7.6344    2.8397 H   0  0  0  0  0  0  0  0  0  0  0  0
    5.6956   -6.7779    3.0925 H   0  0  0  0  0  0  0  0  0  0  0  0
    2.5825   -5.4149    1.5426 H   0  0  0  0  0  0  0  0  0  0  0  0
    3.0136   -5.6749   -0.1496 H   0  0  0  0  0  0  0  0  0  0  0  0
    2.6549   -7.0521    0.8955 H   0  0  0  0  0  0  0  0  0  0  0  0
    6.9428   -7.7528    1.6114 H   0  0  0  0  0  0  0  0  0  0  0  0
    6.1831   -9.4778   -0.8436 H   0  0  0  0  0  0  0  0  0  0  0  0
   11.3407   -9.8133   -1.5586 H   0  0  0  0  0  0  0  0  0  0  0  0
   11.5175   -8.6296   -0.2009 H   0  0  0  0  0  0  0  0  0  0  0  0
   12.8678   -9.6616   -0.6804 H   0  0  0  0  0  0  0  0  0  0  0  0
   12.1438  -12.8125    0.9020 H   0  0  0  0  0  0  0  0  0  0  0  0
   12.3971  -11.7523    2.3568 H   0  0  0  0  0  0  0  0  0  0  0  0
   12.3876  -13.5105    2.4937 H   0  0  0  0  0  0  0  0  0  0  0  0
    4.1539   -2.9083    4.4890 H   0  0  0  0  0  0  0  0  0  0  0  0
    6.2297    1.5334    4.1217 H   0  0  0  0  0  0  0  0  0  0  0  0
    6.6568   -0.1466    2.3890 H   0  0  0  0  0  0  0  0  0  0  0  0
    9.3114   -9.1553   -0.5556 H   0  0  0  0  0  0  0  0  0  0  0  0
    6.3705  -11.2050    1.7918 H   0  0  0  0  0  0  0  0  0  0  0  0
    8.1140  -12.6793    2.7100 H   0  0  0  0  0  0  0  0  0  0  0  0
  1  2  1  0  0  0  0
  1 20  1  0  0  0  0
  2 32  1  0  0  0  0
  2 33  1  0  0  0  0
  2 34  1  0  0  0  0
  3  4  1  0  0  0  0
  3 21  1  0  0  0  0
  4 35  1  0  0  0  0
  4 36  1  0  0  0  0
  4 37  1  0  0  0  0
  5  6  2  0  0  0  0
  5 24  1  0  0  0  0
  5 38  1  0  0  0  0
  6  7  1  0  0  0  0
  6 39  1  0  0  0  0
  7  8  1  0  0  0  0
  7  9  2  0  0  0  0
  8 10  1  0  0  0  0
  8 11  1  0  0  0  0
  8 12  1  0  0  0  0
 10 13  1  0  0  0  0
 10 14  2  0  0  0  0
 11 40  1  0  0  0  0
 11 41  1  0  0  0  0
 11 42  1  0  0  0  0
 12 43  1  0  0  0  0
 12 44  1  0  0  0  0
 12 45  1  0  0  0  0
 13 15  2  0  0  0  0
 13 46  1  0  0  0  0
 15 26  1  0  0  0  0
 15 47  1  0  0  0  0
 16 17  1  0  0  0  0
 16 29  1  0  0  0  0
 17 48  1  0  0  0  0
 17 49  1  0  0  0  0
 17 50  1  0  0  0  0
 18 19  1  0  0  0  0
 18 31  1  0  0  0  0
 19 51  1  0  0  0  0
 19 52  1  0  0  0  0
 19 53  1  0  0  0  0
 20 21  2  0  0  0  0
 20 22  1  0  0  0  0
 21 23  1  0  0  0  0
 22 24  2  0  0  0  0
 22 54  1  0  0  0  0
 23 25  2  0  0  0  0
 23 55  1  0  0  0  0
 24 25  1  0  0  0  0
 25 56  1  0  0  0  0
 26 27  2  0  0  0  0
 26 28  1  0  0  0  0
 27 29  1  0  0  0  0
 27 57  1  0  0  0  0
 28 30  2  0  0  0  0
 28 58  1  0  0  0  0
 29 31  2  0  0  0  0
 30 31  1  0  0  0  0
 30 59  1  0  0  0  0
M  END
>  <Mol_ID>
6564

>  <Formula>
C25H28O6

>  <MolWeight>
424.48622

>  <Cat>
E2644

>  <Name>
Tetramethylcurcumin

>  <Synonyms>
FLLL31

>  <Target>
STAT

>  <Form>
free base

>  <CAS>
52328-97-9

>  <URL>
http://www.selleckchem.com/products/tetramethylcurcumin.html

$$$$
