Tetrahydropalmatine
 OpenBabel08302521533D

 51 54  0  0  0  0  0  0  0  0999 V2000
    1.0260    0.6642   -0.1774 O   0  0  0  0  0  0  0  0  0  0  0  0
    0.3806   -0.2406   -1.0719 C   0  0  0  0  0  0  0  0  0  0  0  0
    2.4571    2.0613    1.7222 O   0  0  0  0  0  0  0  0  0  0  0  0
    3.0767    3.3603    1.7834 C   0  0  0  0  0  0  0  0  0  0  0  0
    9.1757    4.9865   -2.4738 O   0  0  0  0  0  0  0  0  0  0  0  0
    9.9050    4.1341   -1.5967 C   0  0  0  0  0  0  0  0  0  0  0  0
    7.9438    7.6118   -2.1602 O   0  0  0  0  0  0  0  0  0  0  0  0
    9.3436    7.6389   -1.9575 C   0  0  0  0  0  0  0  0  0  0  0  0
    5.1403    1.5738   -2.4930 C   0  0  3  0  0  0  0  0  0  0  0  0
    4.4800    0.6664   -1.4201 C   0  0  0  0  0  0  0  0  0  0  0  0
    6.6032    1.4078   -2.5639 N   0  0  3  0  0  0  0  0  0  0  0  0
    4.6044    3.0185   -2.2194 C   0  0  0  0  0  0  0  0  0  0  0  0
    5.1734    0.6327   -0.2113 C   0  0  0  0  0  0  0  0  0  0  0  0
    3.1048    0.4300   -1.4281 C   0  0  0  0  0  0  0  0  0  0  0  0
    7.4728    2.5648   -2.3228 C   0  0  0  0  0  0  0  0  0  0  0  0
    7.0858    0.2601   -1.7654 C   0  0  0  0  0  0  0  0  0  0  0  0
    5.5599    4.1729   -2.2947 C   0  0  0  0  0  0  0  0  0  0  0  0
    4.4859    1.0431    0.9174 C   0  0  0  0  0  0  0  0  0  0  0  0
    6.6397    0.3301   -0.2827 C   0  0  0  0  0  0  0  0  0  0  0  0
    2.3896    0.7265   -0.2723 C   0  0  0  0  0  0  0  0  0  0  0  0
    6.9417    3.9700   -2.3297 C   0  0  0  0  0  0  0  0  0  0  0  0
    5.0472    5.4728   -2.2237 C   0  0  0  0  0  0  0  0  0  0  0  0
    3.1055    1.2555    0.8149 C   0  0  0  0  0  0  0  0  0  0  0  0
    7.8183    5.1001   -2.2847 C   0  0  0  0  0  0  0  0  0  0  0  0
    5.8979    6.5692   -2.1838 C   0  0  0  0  0  0  0  0  0  0  0  0
    7.2883    6.4029   -2.2099 C   0  0  0  0  0  0  0  0  0  0  0  0
    0.3903    0.1537   -2.0928 H   0  0  0  0  0  0  0  0  0  0  0  0
    0.8239   -1.2436   -1.0365 H   0  0  0  0  0  0  0  0  0  0  0  0
   -0.6663   -0.3309   -0.7656 H   0  0  0  0  0  0  0  0  0  0  0  0
    3.8369    3.3675    2.5711 H   0  0  0  0  0  0  0  0  0  0  0  0
    3.5294    3.6765    0.8337 H   0  0  0  0  0  0  0  0  0  0  0  0
    2.3165    4.1069    2.0341 H   0  0  0  0  0  0  0  0  0  0  0  0
    9.4548    4.0520   -0.6020 H   0  0  0  0  0  0  0  0  0  0  0  0
   10.0350    3.1491   -2.0542 H   0  0  0  0  0  0  0  0  0  0  0  0
   10.9121    4.5489   -1.4809 H   0  0  0  0  0  0  0  0  0  0  0  0
    9.6292    7.1003   -1.0468 H   0  0  0  0  0  0  0  0  0  0  0  0
    9.8710    7.2840   -2.8239 H   0  0  0  0  0  0  0  0  0  0  0  0
    9.6215    8.6889   -1.8130 H   0  0  0  0  0  0  0  0  0  0  0  0
    4.7480    1.2521   -3.4656 H   0  0  0  0  0  0  0  0  0  0  0  0
    3.7558    3.2079   -2.8890 H   0  0  0  0  0  0  0  0  0  0  0  0
    4.1992    3.0871   -1.2035 H   0  0  0  0  0  0  0  0  0  0  0  0
    2.6166    0.1741   -2.3605 H   0  0  0  0  0  0  0  0  0  0  0  0
    7.9462    2.4484   -1.3428 H   0  0  0  0  0  0  0  0  0  0  0  0
    8.2506    2.5007   -3.0896 H   0  0  0  0  0  0  0  0  0  0  0  0
    8.1788    0.1755   -1.8242 H   0  0  0  0  0  0  0  0  0  0  0  0
    6.7044   -0.6613   -2.2335 H   0  0  0  0  0  0  0  0  0  0  0  0
    5.0199    1.3087    1.8238 H   0  0  0  0  0  0  0  0  0  0  0  0
    7.2131    1.0792    0.2700 H   0  0  0  0  0  0  0  0  0  0  0  0
    6.8157   -0.6499    0.1765 H   0  0  0  0  0  0  0  0  0  0  0  0
    3.9711    5.6420   -2.1778 H   0  0  0  0  0  0  0  0  0  0  0  0
    5.4835    7.5710   -2.1188 H   0  0  0  0  0  0  0  0  0  0  0  0
  1  2  1  0  0  0  0
  1 20  1  0  0  0  0
  2 27  1  0  0  0  0
  2 28  1  0  0  0  0
  2 29  1  0  0  0  0
  3  4  1  0  0  0  0
  3 23  1  0  0  0  0
  4 30  1  0  0  0  0
  4 31  1  0  0  0  0
  4 32  1  0  0  0  0
  5  6  1  0  0  0  0
  5 24  1  0  0  0  0
  6 33  1  0  0  0  0
  6 34  1  0  0  0  0
  6 35  1  0  0  0  0
  7  8  1  0  0  0  0
  7 26  1  0  0  0  0
  8 36  1  0  0  0  0
  8 37  1  0  0  0  0
  8 38  1  0  0  0  0
  9 10  1  0  0  0  0
  9 11  1  0  0  0  0
  9 12  1  0  0  0  0
  9 39  1  0  0  0  0
 10 13  2  0  0  0  0
 10 14  1  0  0  0  0
 11 15  1  0  0  0  0
 11 16  1  0  0  0  0
 12 17  1  0  0  0  0
 12 40  1  0  0  0  0
 12 41  1  0  0  0  0
 13 18  1  0  0  0  0
 13 19  1  0  0  0  0
 14 20  2  0  0  0  0
 14 42  1  0  0  0  0
 15 21  1  0  0  0  0
 15 43  1  0  0  0  0
 15 44  1  0  0  0  0
 16 19  1  0  0  0  0
 16 45  1  0  0  0  0
 16 46  1  0  0  0  0
 17 21  2  0  0  0  0
 17 22  1  0  0  0  0
 18 23  2  0  0  0  0
 18 47  1  0  0  0  0
 19 48  1  0  0  0  0
 19 49  1  0  0  0  0
 20 23  1  0  0  0  0
 21 24  1  0  0  0  0
 22 25  2  0  0  0  0
 22 50  1  0  0  0  0
 24 26  2  0  0  0  0
 25 26  1  0  0  0  0
 25 51  1  0  0  0  0
M  END
>  <Mol_ID>
9966

>  <Formula>
C21H25NO4

>  <MolWeight>
355.4275

>  <Cat>
E5247

>  <Name>
Tetrahydropalmatine

>  <Synonyms>
DL-Tetrahydropalmatine

>  <Target>
dopamine

>  <Form>
Free Base

>  <CAS>
10097-84-4

>  <URL>
https://www.selleckchem.com/products/tetrahydropalmatine.html

$$$$
