Tetrazolium Red
 OpenBabel08302521373D

 38 41  0  0  0  0  0  0  0  0999 V2000
   -0.5081    1.0178    0.0784 N   0  0  0  0  0  0  0  0  0  0  0  0
    0.7777    0.7940   -0.0726 N   0  3  0  0  0  0  0  0  0  0  0  0
   -1.1819   -0.1735    0.1952 N   0  0  0  0  0  0  0  0  0  0  0  0
    1.0117   -0.5546   -0.1968 N   0  0  0  0  0  0  0  0  0  0  0  0
   -0.2053   -1.0471   -0.0066 C   0  0  0  0  0  0  0  0  0  0  0  0
   -1.2320    2.2810   -0.0439 C   0  0  0  0  0  0  0  0  0  0  0  0
   -0.7523    3.2805   -0.8918 C   0  0  0  0  0  0  0  0  0  0  0  0
   -2.4228    2.4340    0.6641 C   0  0  0  0  0  0  0  0  0  0  0  0
   -1.4520    4.4824   -0.9856 C   0  0  0  0  0  0  0  0  0  0  0  0
   -3.1174    3.6393    0.5605 C   0  0  0  0  0  0  0  0  0  0  0  0
   -2.6282    4.6618   -0.2563 C   0  0  0  0  0  0  0  0  0  0  0  0
    1.8769    1.7465    0.0356 C   0  0  0  0  0  0  0  0  0  0  0  0
    1.7753    2.8188    0.9228 C   0  0  0  0  0  0  0  0  0  0  0  0
    3.0051    1.5532   -0.7577 C   0  0  0  0  0  0  0  0  0  0  0  0
    2.8032    3.7588    0.9658 C   0  0  0  0  0  0  0  0  0  0  0  0
    4.0269    2.5022   -0.7089 C   0  0  0  0  0  0  0  0  0  0  0  0
    3.9195    3.6057    0.1426 C   0  0  0  0  0  0  0  0  0  0  0  0
   -0.4647   -2.4932   -0.0254 C   0  0  0  0  0  0  0  0  0  0  0  0
   -1.7674   -2.9958    0.1550 C   0  0  0  0  0  0  0  0  0  0  0  0
    0.5787   -3.4140   -0.2270 C   0  0  0  0  0  0  0  0  0  0  0  0
   -2.0145   -4.3708    0.1339 C   0  0  0  0  0  0  0  0  0  0  0  0
    0.3274   -4.7895   -0.2468 C   0  0  0  0  0  0  0  0  0  0  0  0
   -0.9688   -5.2661   -0.0672 C   0  0  0  0  0  0  0  0  0  0  0  0
    0.1320    3.1470   -1.5055 H   0  0  0  0  0  0  0  0  0  0  0  0
   -2.8072    1.6496    1.3093 H   0  0  0  0  0  0  0  0  0  0  0  0
   -1.0909    5.2784   -1.6349 H   0  0  0  0  0  0  0  0  0  0  0  0
   -4.0428    3.7893    1.1146 H   0  0  0  0  0  0  0  0  0  0  0  0
   -3.1748    5.6011   -0.3357 H   0  0  0  0  0  0  0  0  0  0  0  0
    0.9307    2.9341    1.5943 H   0  0  0  0  0  0  0  0  0  0  0  0
    3.0887    0.7083   -1.4347 H   0  0  0  0  0  0  0  0  0  0  0  0
    2.7400    4.6109    1.6412 H   0  0  0  0  0  0  0  0  0  0  0  0
    4.9084    2.3928   -1.3389 H   0  0  0  0  0  0  0  0  0  0  0  0
    4.7173    4.3473    0.1716 H   0  0  0  0  0  0  0  0  0  0  0  0
   -2.6156   -2.3318    0.3135 H   0  0  0  0  0  0  0  0  0  0  0  0
    1.6063   -3.0859   -0.3715 H   0  0  0  0  0  0  0  0  0  0  0  0
   -3.0266   -4.7466    0.2743 H   0  0  0  0  0  0  0  0  0  0  0  0
    1.1431   -5.4926   -0.4037 H   0  0  0  0  0  0  0  0  0  0  0  0
   -1.1621   -6.3369   -0.0830 H   0  0  0  0  0  0  0  0  0  0  0  0
  1  2  1  0  0  0  0
  1  3  1  0  0  0  0
  1  6  1  0  0  0  0
  2  4  2  0  0  0  0
  2 12  1  0  0  0  0
  3  5  2  0  0  0  0
  4  5  1  0  0  0  0
  5 18  1  0  0  0  0
  6  7  2  0  0  0  0
  6  8  1  0  0  0  0
  7  9  1  0  0  0  0
  7 24  1  0  0  0  0
  8 10  2  0  0  0  0
  8 25  1  0  0  0  0
  9 11  2  0  0  0  0
  9 26  1  0  0  0  0
 10 11  1  0  0  0  0
 10 27  1  0  0  0  0
 11 28  1  0  0  0  0
 12 13  2  0  0  0  0
 12 14  1  0  0  0  0
 13 15  1  0  0  0  0
 13 29  1  0  0  0  0
 14 16  2  0  0  0  0
 14 30  1  0  0  0  0
 15 17  2  0  0  0  0
 15 31  1  0  0  0  0
 16 17  1  0  0  0  0
 16 32  1  0  0  0  0
 17 33  1  0  0  0  0
 18 19  2  0  0  0  0
 18 20  1  0  0  0  0
 19 21  1  0  0  0  0
 19 34  1  0  0  0  0
 20 22  2  0  0  0  0
 20 35  1  0  0  0  0
 21 23  2  0  0  0  0
 21 36  1  0  0  0  0
 22 23  1  0  0  0  0
 22 37  1  0  0  0  0
 23 38  1  0  0  0  0
M  CHG  1   2   1
M  END
>  <Mol_ID>
7593

>  <Formula>
C19H15ClN4

>  <MolWeight>
334.8022

>  <Cat>
E2906

>  <Name>
Tetrazolium Red

>  <Synonyms>
2,3,5-Triphenyltetrazolium chloride, TPTZ, TTC

>  <Target>
Others

>  <Form>
chloride

>  <CAS>
298-96-4

>  <URL>
https://www.selleckchem.com/products/tetrazolium-red.html

$$$$
