TFAP
 OpenBabel08302521243D

 30 31  0  0  0  0  0  0  0  0999 V2000
    1.0006   -0.1252    0.0325 C   0  0  0  0  0  0  0  0  0  0  0  0
    0.2245   -0.8756   -0.9837 C   0  0  0  0  0  0  0  0  0  0  0  0
   -1.0683   -0.4372   -1.3022 C   0  0  0  0  0  0  0  0  0  0  0  0
   -1.8955   -1.2248   -2.1057 C   0  0  0  0  0  0  0  0  0  0  0  0
   -1.4438   -2.4629   -2.5854 C   0  0  0  0  0  0  0  0  0  0  0  0
   -0.1261   -2.8702   -2.2996 C   0  0  0  0  0  0  0  0  0  0  0  0
    0.7044   -2.0793   -1.5017 C   0  0  0  0  0  0  0  0  0  0  0  0
    0.3861    0.3975    0.9567 O   0  0  0  0  0  0  0  0  0  0  0  0
    2.3626   -0.0566   -0.1719 N   0  0  0  0  0  0  0  0  0  0  0  0
   -2.3615   -3.3864   -3.3515 C   0  0  0  0  0  0  0  0  0  0  0  0
   -3.6145   -2.8852   -3.5337 F   0  0  0  0  0  0  0  0  0  0  0  0
   -1.8888   -3.6796   -4.5939 F   0  0  0  0  0  0  0  0  0  0  0  0
   -2.5273   -4.5832   -2.7221 F   0  0  0  0  0  0  0  0  0  0  0  0
    3.2099    0.6154    0.7133 C   0  0  0  0  0  0  0  0  0  0  0  0
    3.0492    0.5179    2.0905 C   0  0  0  0  0  0  0  0  0  0  0  0
    3.8503    1.3013    2.9195 C   0  0  0  0  0  0  0  0  0  0  0  0
    4.7969    2.1552    2.3648 C   0  0  0  0  0  0  0  0  0  0  0  0
    4.8807    2.1646    0.9718 C   0  0  0  0  0  0  0  0  0  0  0  0
    4.1613    1.3710    0.1375 N   0  0  0  0  0  0  0  0  0  0  0  0
    5.4182    3.1248    3.1558 N   0  0  0  0  0  0  0  0  0  0  0  0
   -1.4447    0.4998   -0.8942 H   0  0  0  0  0  0  0  0  0  0  0  0
   -2.9086   -0.8848   -2.3192 H   0  0  0  0  0  0  0  0  0  0  0  0
    0.2384   -3.8270   -2.6605 H   0  0  0  0  0  0  0  0  0  0  0  0
    1.6952   -2.4442   -1.2392 H   0  0  0  0  0  0  0  0  0  0  0  0
    2.6974   -0.0661   -1.1258 H   0  0  0  0  0  0  0  0  0  0  0  0
    2.2996   -0.1357    2.5244 H   0  0  0  0  0  0  0  0  0  0  0  0
    3.6956    1.2618    3.9937 H   0  0  0  0  0  0  0  0  0  0  0  0
    5.5410    2.8621    0.4642 H   0  0  0  0  0  0  0  0  0  0  0  0
    6.2588    3.5314    2.7599 H   0  0  0  0  0  0  0  0  0  0  0  0
    5.5235    2.8690    4.1324 H   0  0  0  0  0  0  0  0  0  0  0  0
  1  2  1  0  0  0  0
  1  8  2  0  0  0  0
  1  9  1  0  0  0  0
  2  3  2  0  0  0  0
  2  7  1  0  0  0  0
  3  4  1  0  0  0  0
  3 21  1  0  0  0  0
  4  5  2  0  0  0  0
  4 22  1  0  0  0  0
  5  6  1  0  0  0  0
  5 10  1  0  0  0  0
  6  7  2  0  0  0  0
  6 23  1  0  0  0  0
  7 24  1  0  0  0  0
  9 14  1  0  0  0  0
  9 25  1  0  0  0  0
 10 11  1  0  0  0  0
 10 12  1  0  0  0  0
 10 13  1  0  0  0  0
 14 15  2  0  0  0  0
 14 19  1  0  0  0  0
 15 16  1  0  0  0  0
 15 26  1  0  0  0  0
 16 17  2  0  0  0  0
 16 27  1  0  0  0  0
 17 18  1  0  0  0  0
 17 20  1  0  0  0  0
 18 19  2  0  0  0  0
 18 28  1  0  0  0  0
 20 29  1  0  0  0  0
 20 30  1  0  0  0  0
M  END
>  <Mol_ID>
4928

>  <Formula>
C13H10F3N3O

>  <MolWeight>
281.2332096

>  <Cat>
S6780

>  <Name>
TFAP

>  <Synonyms>
N-(5-Aminopyridin-2-yl)-4-(trifluoromethyl)benzamide

>  <Target>
COX

>  <Form>
Free Base

>  <CAS>
1011244-68-0

>  <URL>
http://www.selleckchem.com/products/tfap.html

$$$$
