TG003.cdx
 OpenBabel08302519583D

 32 33  0  0  0  0  0  0  0  0999 V2000
   -0.1233   -0.7143   -0.0044 C   0  0  0  0  0  0  0  0  0  0  0  0
   -1.3263   -1.4541   -0.0115 N   0  0  0  0  0  0  0  0  0  0  0  0
   -0.3158    0.6811    0.0027 C   0  0  0  0  0  0  0  0  0  0  0  0
    1.1837   -1.1953   -0.0019 C   0  0  0  0  0  0  0  0  0  0  0  0
   -2.4602   -0.6125   -0.0228 C   0  0  0  0  0  0  0  0  0  0  0  0
   -1.3086   -2.9140   -0.0061 C   0  0  0  0  0  0  0  0  0  0  0  0
   -2.0406    1.1230   -0.0026 S   0  0  0  0  0  0  0  0  0  0  0  0
    0.7411    1.5792    0.0072 C   0  0  0  0  0  0  0  0  0  0  0  0
    2.2690   -0.3010    0.0031 C   0  0  0  0  0  0  0  0  0  0  0  0
   -3.7440   -1.0146   -0.0692 C   0  0  0  0  0  0  0  0  0  0  0  0
    2.0444    1.0822    0.0078 C   0  0  0  0  0  0  0  0  0  0  0  0
    3.5017   -0.9023    0.0023 O   0  0  0  0  0  0  0  0  0  0  0  0
   -4.9829   -0.1711   -0.0634 C   0  0  0  0  0  0  0  0  0  0  0  0
    4.6374   -0.0447   -0.0010 C   0  0  0  0  0  0  0  0  0  0  0  0
   -6.2457   -0.8071   -0.5891 C   0  0  0  0  0  0  0  0  0  0  0  0
   -5.0146    0.9741    0.3750 O   0  0  0  0  0  0  0  0  0  0  0  0
   -1.2937   -3.4740   -1.4209 C   0  0  0  0  0  0  0  0  0  0  0  0
    1.3969   -2.2583   -0.0054 H   0  0  0  0  0  0  0  0  0  0  0  0
   -0.4540   -3.3066    0.5571 H   0  0  0  0  0  0  0  0  0  0  0  0
   -2.1878   -3.3020    0.5212 H   0  0  0  0  0  0  0  0  0  0  0  0
    0.5577    2.6495    0.0136 H   0  0  0  0  0  0  0  0  0  0  0  0
   -3.9576   -2.0758   -0.1327 H   0  0  0  0  0  0  0  0  0  0  0  0
    2.8597    1.7973    0.0116 H   0  0  0  0  0  0  0  0  0  0  0  0
    4.6613    0.5760   -0.9032 H   0  0  0  0  0  0  0  0  0  0  0  0
    4.6706    0.5713    0.9040 H   0  0  0  0  0  0  0  0  0  0  0  0
    5.5328   -0.6736   -0.0074 H   0  0  0  0  0  0  0  0  0  0  0  0
   -6.9926   -0.8259    0.2098 H   0  0  0  0  0  0  0  0  0  0  0  0
   -6.6191   -0.2184   -1.4318 H   0  0  0  0  0  0  0  0  0  0  0  0
   -6.0764   -1.8315   -0.9296 H   0  0  0  0  0  0  0  0  0  0  0  0
   -0.3652   -3.2181   -1.9414 H   0  0  0  0  0  0  0  0  0  0  0  0
   -1.3746   -4.5659   -1.3949 H   0  0  0  0  0  0  0  0  0  0  0  0
   -2.1291   -3.0874   -2.0137 H   0  0  0  0  0  0  0  0  0  0  0  0
  1  2  1  0  0  0  0
  1  3  2  0  0  0  0
  1  4  1  0  0  0  0
  2  5  1  0  0  0  0
  2  6  1  0  0  0  0
  3  7  1  0  0  0  0
  3  8  1  0  0  0  0
  4  9  2  0  0  0  0
  4 18  1  0  0  0  0
  5 10  2  0  0  0  0
  5  7  1  0  0  0  0
  6 17  1  0  0  0  0
  6 19  1  0  0  0  0
  6 20  1  0  0  0  0
  8 11  2  0  0  0  0
  8 21  1  0  0  0  0
  9 12  1  0  0  0  0
  9 11  1  0  0  0  0
 10 13  1  0  0  0  0
 10 22  1  0  0  0  0
 11 23  1  0  0  0  0
 12 14  1  0  0  0  0
 13 15  1  0  0  0  0
 13 16  2  0  0  0  0
 14 24  1  0  0  0  0
 14 25  1  0  0  0  0
 14 26  1  0  0  0  0
 15 27  1  0  0  0  0
 15 28  1  0  0  0  0
 15 29  1  0  0  0  0
 17 30  1  0  0  0  0
 17 31  1  0  0  0  0
 17 32  1  0  0  0  0
M  END
>  <Mol_ID>
2337

>  <Formula>
C13H15NO2S

>  <MolWeight>
249.3287

>  <Cat>
S7320

>  <Name>
TG003

>  <Synonyms>
N/A

>  <Target>
CDK

>  <Form>
free base

>  <CAS>
300801-52-9

>  <URL>
http://selleckchem.com/products/tg003.html

$$$$
