TG100-115.cdx
 OpenBabel08302519543D

 40 43  0  0  0  0  0  0  0  0999 V2000
    2.4230   -0.7142    0.0214 C   0  0  0  0  0  0  0  0  0  0  0  0
    2.3812    0.6887   -0.0892 C   0  0  0  0  0  0  0  0  0  0  0  0
    1.1826    1.3501   -0.0715 N   0  0  0  0  0  0  0  0  0  0  0  0
    0.0413    0.6545   -0.0141 C   0  0  0  0  0  0  0  0  0  0  0  0
    0.0960   -0.7380   -0.0190 C   0  0  0  0  0  0  0  0  0  0  0  0
    1.2695   -1.4321    0.0119 N   0  0  0  0  0  0  0  0  0  0  0  0
   -1.1028    1.3320    0.0456 N   0  0  0  0  0  0  0  0  0  0  0  0
   -2.2335    0.6344    0.0905 C   0  0  0  0  0  0  0  0  0  0  0  0
   -2.3125   -0.6902    0.0143 N   0  0  0  0  0  0  0  0  0  0  0  0
   -1.1493   -1.3533   -0.0350 C   0  0  0  0  0  0  0  0  0  0  0  0
   -3.4162    1.3334    0.1942 N   0  0  0  0  0  0  0  0  0  0  0  0
   -1.2506   -2.7466   -0.1959 N   0  0  0  0  0  0  0  0  0  0  0  0
    3.6301   -1.5518    0.1886 C   0  0  0  0  0  0  0  0  0  0  0  0
    3.5546    1.5864   -0.2645 C   0  0  0  0  0  0  0  0  0  0  0  0
    3.7402   -2.7869   -0.4813 C   0  0  0  0  0  0  0  0  0  0  0  0
    4.8934   -3.5611   -0.3613 C   0  0  0  0  0  0  0  0  0  0  0  0
    5.9632   -3.1323    0.4114 C   0  0  0  0  0  0  0  0  0  0  0  0
    5.8677   -1.9316    1.1057 C   0  0  0  0  0  0  0  0  0  0  0  0
    4.7007   -1.1676    1.0198 C   0  0  0  0  0  0  0  0  0  0  0  0
    4.7001    1.2002   -0.9915 C   0  0  0  0  0  0  0  0  0  0  0  0
    5.8280    2.0215   -1.0840 C   0  0  0  0  0  0  0  0  0  0  0  0
    5.8106    3.2869   -0.5136 C   0  0  0  0  0  0  0  0  0  0  0  0
    4.6685    3.7182    0.1474 C   0  0  0  0  0  0  0  0  0  0  0  0
    3.5560    2.8852    0.2821 C   0  0  0  0  0  0  0  0  0  0  0  0
    5.0166   -4.7577   -1.0036 O   0  0  0  0  0  0  0  0  0  0  0  0
    4.6782    4.9830    0.6566 O   0  0  0  0  0  0  0  0  0  0  0  0
   -4.1841    0.7906   -0.1760 H   0  0  0  0  0  0  0  0  0  0  0  0
   -3.3039    2.2772   -0.1494 H   0  0  0  0  0  0  0  0  0  0  0  0
   -0.5678   -3.2359    0.3751 H   0  0  0  0  0  0  0  0  0  0  0  0
   -2.2121   -3.0368   -0.0511 H   0  0  0  0  0  0  0  0  0  0  0  0
    2.9161   -3.1309   -1.1025 H   0  0  0  0  0  0  0  0  0  0  0  0
    6.8646   -3.7346    0.4778 H   0  0  0  0  0  0  0  0  0  0  0  0
    6.7014   -1.5832    1.7100 H   0  0  0  0  0  0  0  0  0  0  0  0
    4.6550   -0.2427    1.5928 H   0  0  0  0  0  0  0  0  0  0  0  0
    4.7478    0.2326   -1.4876 H   0  0  0  0  0  0  0  0  0  0  0  0
    6.7146    1.6685   -1.6045 H   0  0  0  0  0  0  0  0  0  0  0  0
    6.6759    3.9385   -0.5950 H   0  0  0  0  0  0  0  0  0  0  0  0
    2.6773    3.2410    0.8160 H   0  0  0  0  0  0  0  0  0  0  0  0
    4.1863   -4.9483   -1.4704 H   0  0  0  0  0  0  0  0  0  0  0  0
    3.7965    5.1802    1.0141 H   0  0  0  0  0  0  0  0  0  0  0  0
  1  2  1  0  0  0  0
  1 13  1  0  0  0  0
  2  3  2  0  0  0  0
  2 14  1  0  0  0  0
  3  4  1  0  0  0  0
  4  5  2  0  0  0  0
  4  7  1  0  0  0  0
  5  6  1  0  0  0  0
  6  1  2  0  0  0  0
  7  8  2  0  0  0  0
  8  9  1  0  0  0  0
  8 11  1  0  0  0  0
  9 10  2  0  0  0  0
 10  5  1  0  0  0  0
 10 12  1  0  0  0  0
 11 27  1  0  0  0  0
 11 28  1  0  0  0  0
 12 29  1  0  0  0  0
 12 30  1  0  0  0  0
 13 15  2  0  0  0  0
 14 20  2  0  0  0  0
 15 16  1  0  0  0  0
 15 31  1  0  0  0  0
 16 17  2  0  0  0  0
 16 25  1  0  0  0  0
 17 18  1  0  0  0  0
 17 32  1  0  0  0  0
 18 19  2  0  0  0  0
 18 33  1  0  0  0  0
 19 13  1  0  0  0  0
 19 34  1  0  0  0  0
 20 21  1  0  0  0  0
 20 35  1  0  0  0  0
 21 22  2  0  0  0  0
 21 36  1  0  0  0  0
 22 23  1  0  0  0  0
 22 37  1  0  0  0  0
 23 24  2  0  0  0  0
 23 26  1  0  0  0  0
 24 14  1  0  0  0  0
 24 38  1  0  0  0  0
 25 39  1  0  0  0  0
 26 40  1  0  0  0  0
M  END
>  <Mol_ID>
215

>  <Formula>
C18H14N6O2

>  <MolWeight>
346.34276

>  <Cat>
S1352

>  <Name>
TG100-115

>  <Synonyms>
N/A

>  <Target>
PI3K

>  <Form>
free base

>  <CAS>
677297-51-7

>  <URL>
http://selleckchem.com/products/TG100-115.html

$$$$
