TG4-155
 OpenBabel08302521243D

 55 57  0  0  0  0  0  0  0  0999 V2000
    0.6759   -0.1865   -0.0829 C   0  0  0  0  0  0  0  0  0  0  0  0
   -0.0878   -1.1390    0.7482 C   0  0  0  0  0  0  0  0  0  0  0  0
   -1.4176   -1.2380    0.6328 C   0  0  0  0  0  0  0  0  0  0  0  0
    0.2496    0.9208   -0.3922 O   0  0  0  0  0  0  0  0  0  0  0  0
    1.8752   -0.7183   -0.4692 N   0  0  0  0  0  0  0  0  0  0  0  0
   -2.1306   -2.2167    1.4544 C   0  0  0  0  0  0  0  0  0  0  0  0
   -2.5975   -1.8704    2.7233 C   0  0  0  0  0  0  0  0  0  0  0  0
   -3.2111   -2.8204    3.5575 C   0  0  0  0  0  0  0  0  0  0  0  0
   -3.3598   -4.1538    3.1061 C   0  0  0  0  0  0  0  0  0  0  0  0
   -2.9069   -4.4872    1.8091 C   0  0  0  0  0  0  0  0  0  0  0  0
   -2.2814   -3.5260    1.0075 C   0  0  0  0  0  0  0  0  0  0  0  0
   -2.9368   -5.7254    1.2122 O   0  0  0  0  0  0  0  0  0  0  0  0
   -4.0444   -6.5632    1.5190 C   0  0  0  0  0  0  0  0  0  0  0  0
   -3.8844   -5.1994    3.8213 O   0  0  0  0  0  0  0  0  0  0  0  0
   -4.3305   -5.0167    5.1537 C   0  0  0  0  0  0  0  0  0  0  0  0
   -3.6718   -2.4981    4.8084 O   0  0  0  0  0  0  0  0  0  0  0  0
   -3.5132   -1.1633    5.2719 C   0  0  0  0  0  0  0  0  0  0  0  0
    2.7485   -0.0322   -1.3976 C   0  0  0  0  0  0  0  0  0  0  0  0
    3.7511    0.9168   -0.7156 C   0  0  0  0  0  0  0  0  0  0  0  0
    4.6555    1.4969   -1.7184 N   0  0  0  0  0  0  0  0  0  0  0  0
    4.1763    2.2831   -2.7491 C   0  0  0  0  0  0  0  0  0  0  0  0
    4.4514    1.5593   -3.8981 C   0  0  0  0  0  0  0  0  0  0  0  0
    5.4451    0.5920   -3.5597 C   0  0  0  0  0  0  0  0  0  0  0  0
    6.1691   -0.3840   -4.2655 C   0  0  0  0  0  0  0  0  0  0  0  0
    7.2618   -0.9983   -3.6380 C   0  0  0  0  0  0  0  0  0  0  0  0
    7.6292   -0.6536   -2.3365 C   0  0  0  0  0  0  0  0  0  0  0  0
    6.8447    0.2153   -1.5750 C   0  0  0  0  0  0  0  0  0  0  0  0
    5.7357    0.7847   -2.2086 C   0  0  0  0  0  0  0  0  0  0  0  0
    3.4338    3.5450   -2.5141 C   0  0  0  0  0  0  0  0  0  0  0  0
    0.4777   -1.7580    1.4313 H   0  0  0  0  0  0  0  0  0  0  0  0
   -1.9989   -0.6282   -0.0521 H   0  0  0  0  0  0  0  0  0  0  0  0
    2.0520   -1.7005   -0.3021 H   0  0  0  0  0  0  0  0  0  0  0  0
   -2.4558   -0.8428    3.0442 H   0  0  0  0  0  0  0  0  0  0  0  0
   -1.9087   -3.8168    0.0279 H   0  0  0  0  0  0  0  0  0  0  0  0
   -3.8298   -7.1701    2.4038 H   0  0  0  0  0  0  0  0  0  0  0  0
   -4.9778   -6.0013    1.6309 H   0  0  0  0  0  0  0  0  0  0  0  0
   -4.1780   -7.2537    0.6801 H   0  0  0  0  0  0  0  0  0  0  0  0
   -3.5079   -4.7213    5.8121 H   0  0  0  0  0  0  0  0  0  0  0  0
   -5.1740   -4.3215    5.2001 H   0  0  0  0  0  0  0  0  0  0  0  0
   -4.6971   -5.9841    5.5123 H   0  0  0  0  0  0  0  0  0  0  0  0
   -2.4532   -0.9129    5.3867 H   0  0  0  0  0  0  0  0  0  0  0  0
   -4.0239   -0.4496    4.6171 H   0  0  0  0  0  0  0  0  0  0  0  0
   -3.9801   -1.0964    6.2588 H   0  0  0  0  0  0  0  0  0  0  0  0
    3.2746   -0.8163   -1.9559 H   0  0  0  0  0  0  0  0  0  0  0  0
    2.1256    0.5102   -2.1200 H   0  0  0  0  0  0  0  0  0  0  0  0
    3.2458    1.7362   -0.1965 H   0  0  0  0  0  0  0  0  0  0  0  0
    4.3611    0.3760    0.0166 H   0  0  0  0  0  0  0  0  0  0  0  0
    4.0670    1.7681   -4.8876 H   0  0  0  0  0  0  0  0  0  0  0  0
    5.9116   -0.6326   -5.2899 H   0  0  0  0  0  0  0  0  0  0  0  0
    7.8505   -1.7293   -4.1863 H   0  0  0  0  0  0  0  0  0  0  0  0
    8.5272   -1.0841   -1.8992 H   0  0  0  0  0  0  0  0  0  0  0  0
    7.1010    0.4590   -0.5495 H   0  0  0  0  0  0  0  0  0  0  0  0
    3.2142    3.7000   -1.4528 H   0  0  0  0  0  0  0  0  0  0  0  0
    4.0492    4.3914   -2.8399 H   0  0  0  0  0  0  0  0  0  0  0  0
    2.4931    3.5655   -3.0686 H   0  0  0  0  0  0  0  0  0  0  0  0
  1  2  1  0  0  0  0
  1  4  2  0  0  0  0
  1  5  1  0  0  0  0
  2  3  2  0  0  0  0
  2 30  1  0  0  0  0
  3  6  1  0  0  0  0
  3 31  1  0  0  0  0
  5 18  1  0  0  0  0
  5 32  1  0  0  0  0
  6  7  2  0  0  0  0
  6 11  1  0  0  0  0
  7  8  1  0  0  0  0
  7 33  1  0  0  0  0
  8  9  2  0  0  0  0
  8 16  1  0  0  0  0
  9 10  1  0  0  0  0
  9 14  1  0  0  0  0
 10 11  2  0  0  0  0
 10 12  1  0  0  0  0
 11 34  1  0  0  0  0
 12 13  1  0  0  0  0
 13 35  1  0  0  0  0
 13 36  1  0  0  0  0
 13 37  1  0  0  0  0
 14 15  1  0  0  0  0
 15 38  1  0  0  0  0
 15 39  1  0  0  0  0
 15 40  1  0  0  0  0
 16 17  1  0  0  0  0
 17 41  1  0  0  0  0
 17 42  1  0  0  0  0
 17 43  1  0  0  0  0
 18 19  1  0  0  0  0
 18 44  1  0  0  0  0
 18 45  1  0  0  0  0
 19 20  1  0  0  0  0
 19 46  1  0  0  0  0
 19 47  1  0  0  0  0
 20 21  1  0  0  0  0
 20 28  1  0  0  0  0
 21 22  2  0  0  0  0
 21 29  1  0  0  0  0
 22 23  1  0  0  0  0
 22 48  1  0  0  0  0
 23 24  2  0  0  0  0
 23 28  1  0  0  0  0
 24 25  1  0  0  0  0
 24 49  1  0  0  0  0
 25 26  2  0  0  0  0
 25 50  1  0  0  0  0
 26 27  1  0  0  0  0
 26 51  1  0  0  0  0
 27 28  2  0  0  0  0
 27 52  1  0  0  0  0
 29 53  1  0  0  0  0
 29 54  1  0  0  0  0
 29 55  1  0  0  0  0
M  END
>  <Mol_ID>
4936

>  <Formula>
C23H26N2O4

>  <MolWeight>
394.46354

>  <Cat>
S6793

>  <Name>
TG4-155

>  <Synonyms>
N/A

>  <Target>
Prostaglandin Receptor

>  <Form>
Free Base

>  <CAS>
1164462-05-8

>  <URL>
http://www.selleckchem.com/products/tg4-155.html

$$$$
