TG 100713.cdx
 OpenBabel08302521393D

 29 31  0  0  0  0  0  0  0  0999 V2000
    0.7573    0.0008    0.5595 C   0  0  0  0  0  0  0  0  0  0  0  0
    0.0261   -1.1864    0.5492 C   0  0  0  0  0  0  0  0  0  0  0  0
   -1.2567   -1.2376   -0.0310 C   0  0  0  0  0  0  0  0  0  0  0  0
   -1.7711   -0.0438   -0.5755 C   0  0  0  0  0  0  0  0  0  0  0  0
   -1.0318    1.1440   -0.5581 C   0  0  0  0  0  0  0  0  0  0  0  0
    0.2380    1.1632    0.0075 C   0  0  0  0  0  0  0  0  0  0  0  0
   -4.2870   -5.8845    0.0515 N   0  0  0  0  0  0  0  0  0  0  0  0
   -4.1476   -6.7047    1.0861 C   0  0  0  0  0  0  0  0  0  0  0  0
   -3.2632   -6.5478    2.0654 N   0  0  0  0  0  0  0  0  0  0  0  0
   -2.4992   -5.4446    2.0111 C   0  0  0  0  0  0  0  0  0  0  0  0
   -2.5747   -4.4937    0.9992 C   0  0  0  0  0  0  0  0  0  0  0  0
   -1.8216   -3.3482    0.9807 N   0  0  0  0  0  0  0  0  0  0  0  0
   -2.0278   -2.4929   -0.0454 C   0  0  0  0  0  0  0  0  0  0  0  0
   -2.9462   -2.8254   -1.0294 C   0  0  0  0  0  0  0  0  0  0  0  0
   -3.6898   -3.9625   -1.0106 N   0  0  0  0  0  0  0  0  0  0  0  0
   -3.5226   -4.7996    0.0165 C   0  0  0  0  0  0  0  0  0  0  0  0
   -1.5332   -5.3261    3.0257 N   0  0  0  0  0  0  0  0  0  0  0  0
   -4.9664   -7.8114    1.1358 N   0  0  0  0  0  0  0  0  0  0  0  0
    2.0047    0.0634    1.1076 O   0  0  0  0  0  0  0  0  0  0  0  0
    0.4467   -2.0877    0.9905 H   0  0  0  0  0  0  0  0  0  0  0  0
   -2.7700   -0.0110   -1.0060 H   0  0  0  0  0  0  0  0  0  0  0  0
   -1.4510    2.0527   -0.9826 H   0  0  0  0  0  0  0  0  0  0  0  0
    0.8185    2.0813    0.0244 H   0  0  0  0  0  0  0  0  0  0  0  0
   -3.1258   -2.1886   -1.8894 H   0  0  0  0  0  0  0  0  0  0  0  0
   -1.4736   -4.3702    3.3632 H   0  0  0  0  0  0  0  0  0  0  0  0
   -1.7189   -6.0171    3.7453 H   0  0  0  0  0  0  0  0  0  0  0  0
   -5.2988   -8.0487    0.2118 H   0  0  0  0  0  0  0  0  0  0  0  0
   -4.5454   -8.5467    1.6845 H   0  0  0  0  0  0  0  0  0  0  0  0
    2.2405   -0.8172    1.4446 H   0  0  0  0  0  0  0  0  0  0  0  0
  1  2  2  0  0  0  0
  1  6  1  0  0  0  0
  1 19  1  0  0  0  0
  2  3  1  0  0  0  0
  2 20  1  0  0  0  0
  3  4  2  0  0  0  0
  3 13  1  0  0  0  0
  4  5  1  0  0  0  0
  4 21  1  0  0  0  0
  5  6  2  0  0  0  0
  5 22  1  0  0  0  0
  6 23  1  0  0  0  0
  7  8  2  0  0  0  0
  7 16  1  0  0  0  0
  8  9  1  0  0  0  0
  8 18  1  0  0  0  0
  9 10  2  0  0  0  0
 10 11  1  0  0  0  0
 10 17  1  0  0  0  0
 11 12  1  0  0  0  0
 11 16  2  0  0  0  0
 12 13  2  0  0  0  0
 13 14  1  0  0  0  0
 14 15  2  0  0  0  0
 14 24  1  0  0  0  0
 15 16  1  0  0  0  0
 17 25  1  0  0  0  0
 17 26  1  0  0  0  0
 18 27  1  0  0  0  0
 18 28  1  0  0  0  0
 19 29  1  0  0  0  0
M  END
>  <Mol_ID>
8189

>  <Formula>
C12H10N6O

>  <MolWeight>
254.2474

>  <Cat>
S2870

>  <Name>
TG100713

>  <Synonyms>
N/A

>  <Target>
PI3K

>  <Form>
Free Base

>  <CAS>
925705-73-3

>  <URL>
http://selleckchem.com/products/tg-100713.html

$$$$
