TGN020
 OpenBabel08302521273D

 20 21  0  0  0  0  0  0  0  0999 V2000
   -0.6543    1.1389   -0.2463 C   0  0  0  0  0  0  0  0  0  0  0  0
    0.7066    1.1827    0.0550 C   0  0  0  0  0  0  0  0  0  0  0  0
    1.3385   -0.0297    0.3419 C   0  0  0  0  0  0  0  0  0  0  0  0
    0.5959   -1.2143    0.2991 C   0  0  0  0  0  0  0  0  0  0  0  0
   -0.7508   -1.1488   -0.0256 C   0  0  0  0  0  0  0  0  0  0  0  0
   -1.3931    0.0023   -0.2996 N   0  0  0  0  0  0  0  0  0  0  0  0
    1.3527    2.5214    0.0891 C   0  0  0  0  0  0  0  0  0  0  0  0
    0.6101    3.4990    0.0828 O   0  0  0  0  0  0  0  0  0  0  0  0
    2.7304    2.5709    0.1011 N   0  0  0  0  0  0  0  0  0  0  0  0
    5.0790    3.7210    0.1010 S   0  0  0  0  0  0  0  0  0  0  0  0
    3.3730    3.7830    0.1881 C   0  0  0  0  0  0  0  0  0  0  0  0
    2.8776    4.9882    0.3397 N   0  0  0  0  0  0  0  0  0  0  0  0
    3.8615    5.9557    0.3958 N   0  0  0  0  0  0  0  0  0  0  0  0
    5.0610    5.4309    0.2802 C   0  0  0  0  0  0  0  0  0  0  0  0
   -1.2158    2.0479   -0.4552 H   0  0  0  0  0  0  0  0  0  0  0  0
    2.3828   -0.0863    0.6272 H   0  0  0  0  0  0  0  0  0  0  0  0
    1.0515   -2.1733    0.5242 H   0  0  0  0  0  0  0  0  0  0  0  0
   -1.3679   -2.0423   -0.0698 H   0  0  0  0  0  0  0  0  0  0  0  0
    3.3085    1.7526   -0.0018 H   0  0  0  0  0  0  0  0  0  0  0  0
    5.9573    6.0351    0.2996 H   0  0  0  0  0  0  0  0  0  0  0  0
  1  2  2  0  0  0  0
  1  6  1  0  0  0  0
  1 15  1  0  0  0  0
  2  3  1  0  0  0  0
  2  7  1  0  0  0  0
  3  4  2  0  0  0  0
  3 16  1  0  0  0  0
  4  5  1  0  0  0  0
  4 17  1  0  0  0  0
  5  6  2  0  0  0  0
  5 18  1  0  0  0  0
  7  8  2  0  0  0  0
  7  9  1  0  0  0  0
  9 11  1  0  0  0  0
  9 19  1  0  0  0  0
 10 11  1  0  0  0  0
 10 14  1  0  0  0  0
 11 12  2  0  0  0  0
 12 13  1  0  0  0  0
 13 14  2  0  0  0  0
 14 20  1  0  0  0  0
M  END
>  <Mol_ID>
5350

>  <Formula>
C8H6N4OS

>  <MolWeight>
206.22444

>  <Cat>
S0158

>  <Name>
TGN020

>  <Synonyms>
N/A

>  <Target>
Aquaporin

>  <Form>
Free Base

>  <CAS>
51987-99-6

>  <URL>
https://www.selleckchem.com/products/tgn020.html

$$$$
