TH-257
 OpenBabel08302521243D

 56 58  0  0  0  0  0  0  0  0999 V2000
    1.3203   -0.3100   -2.2333 S   0  0  0  0  0  0  0  0  0  0  0  0
    7.2831    0.7987    0.8079 O   0  0  0  0  0  0  0  0  0  0  0  0
    0.5847   -1.4252   -1.6793 O   0  0  0  0  0  0  0  0  0  0  0  0
    0.7318    1.0075   -2.3180 O   0  0  0  0  0  0  0  0  0  0  0  0
    7.6726   -1.2269   -0.2491 N   0  0  0  0  0  0  0  0  0  0  0  0
    1.8461   -0.8085   -3.7486 N   0  0  0  0  0  0  0  0  0  0  0  0
    9.0966   -1.1739    0.1012 C   0  0  0  0  0  0  0  0  0  0  0  0
    9.3962   -1.5325    1.5590 C   0  0  0  0  0  0  0  0  0  0  0  0
    7.3303   -2.1424   -1.3488 C   0  0  0  0  0  0  0  0  0  0  0  0
    8.9490   -2.9479    1.9351 C   0  0  0  0  0  0  0  0  0  0  0  0
    6.8488   -0.1632    0.1742 C   0  0  0  0  0  0  0  0  0  0  0  0
    7.3936   -1.5337   -2.7319 C   0  0  0  0  0  0  0  0  0  0  0  0
    5.4119   -0.1412   -0.2234 C   0  0  0  0  0  0  0  0  0  0  0  0
    9.2936   -3.2676    3.3825 C   0  0  0  0  0  0  0  0  0  0  0  0
    2.8542   -0.1866   -1.3315 C   0  0  0  0  0  0  0  0  0  0  0  0
    4.8614    1.0322   -0.7585 C   0  0  0  0  0  0  0  0  0  0  0  0
    4.6118   -1.2778   -0.0903 C   0  0  0  0  0  0  0  0  0  0  0  0
    3.5689    1.0146   -1.3044 C   0  0  0  0  0  0  0  0  0  0  0  0
    3.3509   -1.3205   -0.6813 C   0  0  0  0  0  0  0  0  0  0  0  0
    7.8610   -0.2341   -2.9760 C   0  0  0  0  0  0  0  0  0  0  0  0
    6.9649   -2.3071   -3.8235 C   0  0  0  0  0  0  0  0  0  0  0  0
    7.9076    0.2768   -4.2701 C   0  0  0  0  0  0  0  0  0  0  0  0
    7.0123   -1.7957   -5.1200 C   0  0  0  0  0  0  0  0  0  0  0  0
    7.4988   -0.5110   -5.3435 C   0  0  0  0  0  0  0  0  0  0  0  0
    2.4722    0.1189   -4.6130 C   0  0  0  0  0  0  0  0  0  0  0  0
    3.8603    0.1483   -4.6840 C   0  0  0  0  0  0  0  0  0  0  0  0
    1.7137    1.0083   -5.3738 C   0  0  0  0  0  0  0  0  0  0  0  0
    4.4862    1.1136   -5.4694 C   0  0  0  0  0  0  0  0  0  0  0  0
    2.3461    1.9555   -6.1766 C   0  0  0  0  0  0  0  0  0  0  0  0
    3.7351    2.0159   -6.2169 C   0  0  0  0  0  0  0  0  0  0  0  0
    1.4531   -1.6723   -4.1117 H   0  0  0  0  0  0  0  0  0  0  0  0
    9.6596   -1.8513   -0.5531 H   0  0  0  0  0  0  0  0  0  0  0  0
    9.4663   -0.1633   -0.1051 H   0  0  0  0  0  0  0  0  0  0  0  0
   10.4793   -1.4518    1.7101 H   0  0  0  0  0  0  0  0  0  0  0  0
    8.9259   -0.8069    2.2299 H   0  0  0  0  0  0  0  0  0  0  0  0
    8.0077   -3.0044   -1.3025 H   0  0  0  0  0  0  0  0  0  0  0  0
    6.3336   -2.5571   -1.2013 H   0  0  0  0  0  0  0  0  0  0  0  0
    7.8675   -3.0547    1.7974 H   0  0  0  0  0  0  0  0  0  0  0  0
    9.4352   -3.6798    1.2794 H   0  0  0  0  0  0  0  0  0  0  0  0
    8.7569   -2.6026    4.0668 H   0  0  0  0  0  0  0  0  0  0  0  0
    9.0126   -4.2980    3.6214 H   0  0  0  0  0  0  0  0  0  0  0  0
   10.3668   -3.1567    3.5676 H   0  0  0  0  0  0  0  0  0  0  0  0
    5.4383    1.9583   -0.7843 H   0  0  0  0  0  0  0  0  0  0  0  0
    4.9935   -2.1570    0.4186 H   0  0  0  0  0  0  0  0  0  0  0  0
    3.1483    1.9164   -1.7504 H   0  0  0  0  0  0  0  0  0  0  0  0
    2.7779   -2.2449   -0.6597 H   0  0  0  0  0  0  0  0  0  0  0  0
    8.1879    0.4107   -2.1632 H   0  0  0  0  0  0  0  0  0  0  0  0
    6.5803   -3.3131   -3.6675 H   0  0  0  0  0  0  0  0  0  0  0  0
    8.2412    1.2984   -4.4328 H   0  0  0  0  0  0  0  0  0  0  0  0
    6.6500   -2.3901   -5.9552 H   0  0  0  0  0  0  0  0  0  0  0  0
    7.5141   -0.1023   -6.3504 H   0  0  0  0  0  0  0  0  0  0  0  0
    4.4599   -0.5550   -4.1126 H   0  0  0  0  0  0  0  0  0  0  0  0
    0.6285    0.9842   -5.3206 H   0  0  0  0  0  0  0  0  0  0  0  0
    5.5659    1.1851   -5.4973 H   0  0  0  0  0  0  0  0  0  0  0  0
    1.7571    2.6628   -6.7516 H   0  0  0  0  0  0  0  0  0  0  0  0
    4.2377    2.7653   -6.8208 H   0  0  0  0  0  0  0  0  0  0  0  0
  1  3  2  0  0  0  0
  1  4  2  0  0  0  0
  1  6  1  0  0  0  0
  1 15  1  0  0  0  0
  2 11  2  0  0  0  0
  5  7  1  0  0  0  0
  5  9  1  0  0  0  0
  5 11  1  0  0  0  0
  6 25  1  0  0  0  0
  6 31  1  0  0  0  0
  7  8  1  0  0  0  0
  7 32  1  0  0  0  0
  7 33  1  0  0  0  0
  8 10  1  0  0  0  0
  8 34  1  0  0  0  0
  8 35  1  0  0  0  0
  9 12  1  0  0  0  0
  9 36  1  0  0  0  0
  9 37  1  0  0  0  0
 10 14  1  0  0  0  0
 10 38  1  0  0  0  0
 10 39  1  0  0  0  0
 11 13  1  0  0  0  0
 12 20  2  0  0  0  0
 12 21  1  0  0  0  0
 13 16  2  0  0  0  0
 13 17  1  0  0  0  0
 14 40  1  0  0  0  0
 14 41  1  0  0  0  0
 14 42  1  0  0  0  0
 15 18  2  0  0  0  0
 15 19  1  0  0  0  0
 16 18  1  0  0  0  0
 16 43  1  0  0  0  0
 17 19  2  0  0  0  0
 17 44  1  0  0  0  0
 18 45  1  0  0  0  0
 19 46  1  0  0  0  0
 20 22  1  0  0  0  0
 20 47  1  0  0  0  0
 21 23  2  0  0  0  0
 21 48  1  0  0  0  0
 22 24  2  0  0  0  0
 22 49  1  0  0  0  0
 23 24  1  0  0  0  0
 23 50  1  0  0  0  0
 24 51  1  0  0  0  0
 25 26  2  0  0  0  0
 25 27  1  0  0  0  0
 26 28  1  0  0  0  0
 26 52  1  0  0  0  0
 27 29  2  0  0  0  0
 27 53  1  0  0  0  0
 28 30  2  0  0  0  0
 28 54  1  0  0  0  0
 29 30  1  0  0  0  0
 29 55  1  0  0  0  0
 30 56  1  0  0  0  0
M  END
>  <Mol_ID>
5010

>  <Formula>
C24H26N2O3S

>  <MolWeight>
422.53984

>  <Cat>
S6836

>  <Name>
TH-257

>  <Synonyms>
N/A

>  <Target>
LIM kinase

>  <Form>
Free Base

>  <CAS>
2244678-29-1

>  <URL>
http://www.selleckchem.com/products/th-257.html

$$$$
