TH-302.cdx
 OpenBabel08302519503D

 37 37  0  0  0  0  0  0  0  0999 V2000
    1.6138   -3.3812   -2.5435 C   0  0  0  0  0  0  0  0  0  0  0  0
    0.2104   -3.6415   -2.3110 N   0  0  0  0  0  0  0  0  0  0  0  0
   -0.7017   -4.2523   -3.1441 C   0  0  0  0  0  0  0  0  0  0  0  0
   -1.8801   -4.3890   -2.5651 N   0  0  0  0  0  0  0  0  0  0  0  0
   -1.7483   -3.8092   -1.3353 C   0  0  0  0  0  0  0  0  0  0  0  0
   -0.4818   -3.2934   -1.1552 C   0  0  0  0  0  0  0  0  0  0  0  0
    0.0644   -2.4715   -0.0399 C   0  0  0  0  0  0  0  0  0  0  0  0
   -0.0451   -3.2216    1.1677 O   0  0  0  0  0  0  0  0  0  0  0  0
    0.5191   -2.4088    2.5868 P   0  0  0  0  0  0  0  0  0  0  0  0
   -0.4721   -4.6531   -4.5123 N   0  3  0  0  0  0  0  0  0  0  0  0
    0.5826   -4.2948   -5.0537 O   0  5  0  0  0  0  0  0  0  0  0  0
   -1.3639   -5.3083   -5.0691 O   0  0  0  0  0  0  0  0  0  0  0  0
    0.9977   -3.8108    3.3730 N   0  0  0  0  0  0  0  0  0  0  0  0
    1.7310   -1.8255    1.8541 O   0  0  0  0  0  0  0  0  0  0  0  0
    1.0996   -1.5725    4.0469 N   0  0  0  0  0  0  0  0  0  0  0  0
    1.3875   -5.0246    2.6474 C   0  0  0  0  0  0  0  0  0  0  0  0
    2.6284   -4.8588    1.7741 C   0  0  0  0  0  0  0  0  0  0  0  0
    3.0794   -6.5625    0.9381 Br  0  0  0  0  0  0  0  0  0  0  0  0
    0.5592   -0.2041    4.1490 C   0  0  0  0  0  0  0  0  0  0  0  0
   -0.9676   -0.1407    4.2089 C   0  0  0  0  0  0  0  0  0  0  0  0
   -1.6457   -1.1286    5.7445 Br  0  0  0  0  0  0  0  0  0  0  0  0
    1.7248   -2.3313   -2.8294 H   0  0  0  0  0  0  0  0  0  0  0  0
    2.1682   -3.5869   -1.6239 H   0  0  0  0  0  0  0  0  0  0  0  0
    2.0261   -4.0353   -3.3101 H   0  0  0  0  0  0  0  0  0  0  0  0
   -2.5845   -3.7565   -0.6491 H   0  0  0  0  0  0  0  0  0  0  0  0
    1.1059   -2.2171   -0.2459 H   0  0  0  0  0  0  0  0  0  0  0  0
   -0.5066   -1.5434    0.0607 H   0  0  0  0  0  0  0  0  0  0  0  0
    1.8078   -3.5323    3.9230 H   0  0  0  0  0  0  0  0  0  0  0  0
    0.7206   -2.0995    4.8322 H   0  0  0  0  0  0  0  0  0  0  0  0
    1.5884   -5.7965    3.4008 H   0  0  0  0  0  0  0  0  0  0  0  0
    0.5435   -5.4064    2.0623 H   0  0  0  0  0  0  0  0  0  0  0  0
    2.4803   -4.1600    0.9481 H   0  0  0  0  0  0  0  0  0  0  0  0
    3.5049   -4.5571    2.3555 H   0  0  0  0  0  0  0  0  0  0  0  0
    0.9847    0.2605    5.0452 H   0  0  0  0  0  0  0  0  0  0  0  0
    0.9084    0.3826    3.2921 H   0  0  0  0  0  0  0  0  0  0  0  0
   -1.3184    0.8883    4.3199 H   0  0  0  0  0  0  0  0  0  0  0  0
   -1.4388   -0.5814    3.3257 H   0  0  0  0  0  0  0  0  0  0  0  0
  1  2  1  0  0  0  0
  1 22  1  0  0  0  0
  1 23  1  0  0  0  0
  1 24  1  0  0  0  0
  2  3  1  0  0  0  0
  3  4  2  0  0  0  0
  3 10  1  0  0  0  0
  4  5  1  0  0  0  0
  5  6  2  0  0  0  0
  5 25  1  0  0  0  0
  6  2  1  0  0  0  0
  6  7  1  0  0  0  0
  7  8  1  0  0  0  0
  7 26  1  0  0  0  0
  7 27  1  0  0  0  0
  8  9  1  0  0  0  0
  9 13  1  0  0  0  0
  9 14  2  0  0  0  0
  9 15  1  0  0  0  0
 10 11  1  0  0  0  0
 10 12  2  0  0  0  0
 13 16  1  0  0  0  0
 13 28  1  0  0  0  0
 15 19  1  0  0  0  0
 15 29  1  0  0  0  0
 16 17  1  0  0  0  0
 16 30  1  0  0  0  0
 16 31  1  0  0  0  0
 17 18  1  0  0  0  0
 17 32  1  0  0  0  0
 17 33  1  0  0  0  0
 19 20  1  0  0  0  0
 19 34  1  0  0  0  0
 19 35  1  0  0  0  0
 20 21  1  0  0  0  0
 20 36  1  0  0  0  0
 20 37  1  0  0  0  0
M  CHG  2  10   1  11  -1
M  END
>  <Mol_ID>
1594

>  <Formula>
C9H16Br2N5O4P

>  <MolWeight>
449.036201

>  <Cat>
S2757

>  <Name>
Evofosfamide (TH-302)

>  <Synonyms>
Evofosfamide

>  <Target>
Others

>  <Form>
free base

>  <CAS>
918633-87-1

>  <URL>
http://selleckchem.com/products/th-302.html

$$$$
