TH1760
 OpenBabel08302521373D

 48 52  0  0  0  0  0  0  0  0999 V2000
    6.9542   -6.0365    0.0563 O   0  0  0  0  0  0  0  0  0  0  0  0
    6.7476   -7.1353    0.8992 C   0  0  0  0  0  0  0  0  0  0  0  0
    5.6799   -6.9200    1.7437 N   0  0  0  0  0  0  0  0  0  0  0  0
    5.1511   -5.6973    1.4422 C   0  0  0  0  0  0  0  0  0  0  0  0
    5.9315   -5.1792    0.4289 C   0  0  0  0  0  0  0  0  0  0  0  0
    4.0558   -5.0428    1.9585 C   0  0  0  0  0  0  0  0  0  0  0  0
    3.7510   -3.7933    1.4051 C   0  0  0  0  0  0  0  0  0  0  0  0
    4.5646   -3.2480    0.3835 C   0  0  0  0  0  0  0  0  0  0  0  0
    5.6703   -3.9466   -0.1253 C   0  0  0  0  0  0  0  0  0  0  0  0
    7.4303   -8.1465    0.8850 O   0  0  0  0  0  0  0  0  0  0  0  0
    4.1582   -1.6700   -0.3423 S   0  0  0  0  0  0  0  0  0  0  0  0
    4.3737   -1.8000   -1.7677 O   0  0  0  0  0  0  0  0  0  0  0  0
    2.8809   -1.2561    0.1924 O   0  0  0  0  0  0  0  0  0  0  0  0
    5.3746   -0.6852    0.3120 N   0  0  0  0  0  0  0  0  0  0  0  0
    5.0881   -0.0259    1.6193 C   0  0  0  0  0  0  0  0  0  0  0  0
    4.2587    1.2537    1.4168 C   0  0  0  0  0  0  0  0  0  0  0  0
    4.8920    2.1778    0.4634 N   0  0  0  0  0  0  0  0  0  0  0  0
    5.3253    1.5596   -0.8031 C   0  0  0  0  0  0  0  0  0  0  0  0
    6.0841    0.2406   -0.6088 C   0  0  0  0  0  0  0  0  0  0  0  0
    4.8645    3.5446    0.7690 C   0  0  0  0  0  0  0  0  0  0  0  0
    4.5499    3.9497    1.8900 O   0  0  0  0  0  0  0  0  0  0  0  0
    6.4886    7.2548   -3.1304 N   0  0  0  0  0  0  0  0  0  0  0  0
    6.1136    6.6144   -4.2827 C   0  0  0  0  0  0  0  0  0  0  0  0
    5.4527    5.4619   -3.9292 C   0  0  0  0  0  0  0  0  0  0  0  0
    5.4502    5.3874   -2.5099 C   0  0  0  0  0  0  0  0  0  0  0  0
    4.9354    4.4583   -1.5914 C   0  0  0  0  0  0  0  0  0  0  0  0
    5.2586    4.5765   -0.2341 C   0  0  0  0  0  0  0  0  0  0  0  0
    5.9304    5.7218    0.2191 C   0  0  0  0  0  0  0  0  0  0  0  0
    6.3602    6.7184   -0.6679 C   0  0  0  0  0  0  0  0  0  0  0  0
    6.1380    6.5011   -2.0323 C   0  0  0  0  0  0  0  0  0  0  0  0
    5.3669   -7.5862    2.4257 H   0  0  0  0  0  0  0  0  0  0  0  0
    3.4455   -5.4755    2.7434 H   0  0  0  0  0  0  0  0  0  0  0  0
    2.8734   -3.2542    1.7576 H   0  0  0  0  0  0  0  0  0  0  0  0
    6.2796   -3.5484   -0.9276 H   0  0  0  0  0  0  0  0  0  0  0  0
    4.5898   -0.7204    2.3026 H   0  0  0  0  0  0  0  0  0  0  0  0
    6.0503    0.2325    2.0797 H   0  0  0  0  0  0  0  0  0  0  0  0
    3.2685    1.0273    1.0092 H   0  0  0  0  0  0  0  0  0  0  0  0
    4.0962    1.7324    2.3872 H   0  0  0  0  0  0  0  0  0  0  0  0
    4.4226    1.3897   -1.4019 H   0  0  0  0  0  0  0  0  0  0  0  0
    5.9913    2.2301   -1.3490 H   0  0  0  0  0  0  0  0  0  0  0  0
    7.0671    0.4530   -0.1700 H   0  0  0  0  0  0  0  0  0  0  0  0
    6.2865   -0.2336   -1.5744 H   0  0  0  0  0  0  0  0  0  0  0  0
    6.9776    8.1385   -3.0885 H   0  0  0  0  0  0  0  0  0  0  0  0
    6.3432    7.0337   -5.2527 H   0  0  0  0  0  0  0  0  0  0  0  0
    5.0386    4.7320   -4.6126 H   0  0  0  0  0  0  0  0  0  0  0  0
    4.3222    3.6456   -1.9600 H   0  0  0  0  0  0  0  0  0  0  0  0
    6.1209    5.8499    1.2852 H   0  0  0  0  0  0  0  0  0  0  0  0
    6.8684    7.6065   -0.3060 H   0  0  0  0  0  0  0  0  0  0  0  0
  1  2  1  0  0  0  0
  1  5  1  0  0  0  0
  2  3  1  0  0  0  0
  2 10  2  0  0  0  0
  3  4  1  0  0  0  0
  3 31  1  0  0  0  0
  4  5  2  0  0  0  0
  6  7  2  0  0  0  0
  6  4  1  0  0  0  0
  6 32  1  0  0  0  0
  7  8  1  0  0  0  0
  7 33  1  0  0  0  0
  8  9  2  0  0  0  0
  8 11  1  0  0  0  0
  9  5  1  0  0  0  0
  9 34  1  0  0  0  0
 11 12  2  0  0  0  0
 11 13  2  0  0  0  0
 11 14  1  0  0  0  0
 14 15  1  0  0  0  0
 14 19  1  0  0  0  0
 15 16  1  0  0  0  0
 15 35  1  0  0  0  0
 15 36  1  0  0  0  0
 16 17  1  0  0  0  0
 16 37  1  0  0  0  0
 16 38  1  0  0  0  0
 17 18  1  0  0  0  0
 17 20  1  0  0  0  0
 18 19  1  0  0  0  0
 18 39  1  0  0  0  0
 18 40  1  0  0  0  0
 19 41  1  0  0  0  0
 19 42  1  0  0  0  0
 20 21  2  0  0  0  0
 20 27  1  0  0  0  0
 22 23  1  0  0  0  0
 22 30  1  0  0  0  0
 22 43  1  0  0  0  0
 23 24  2  0  0  0  0
 23 44  1  0  0  0  0
 24 25  1  0  0  0  0
 24 45  1  0  0  0  0
 25 26  1  0  0  0  0
 25 30  2  0  0  0  0
 26 27  2  0  0  0  0
 26 46  1  0  0  0  0
 27 28  1  0  0  0  0
 28 29  2  0  0  0  0
 28 47  1  0  0  0  0
 29 30  1  0  0  0  0
 29 48  1  0  0  0  0
M  END
>  <Mol_ID>
7502

>  <Formula>
C20H18N4O5S

>  <MolWeight>
426.44572

>  <Cat>
E1274

>  <Name>
TH1760

>  <Synonyms>
Compound 18

>  <Target>
NUDIX

>  <Form>
free base

>  <CAS>
2567914-01-4

>  <URL>
https://www.selleckchem.com/products/th1760.html

$$$$
