TH263
 OpenBabel08302521323D

 47 49  0  0  0  0  0  0  0  0999 V2000
    1.0236   -0.1496    0.1407 S   0  0  0  0  0  0  0  0  0  0  0  0
    0.5272   -0.9200   -1.2734 N   0  0  0  0  0  0  0  0  0  0  0  0
    0.6927   -0.9929    1.2715 O   0  0  0  0  0  0  0  0  0  0  0  0
    0.5311    1.2089    0.0383 O   0  0  0  0  0  0  0  0  0  0  0  0
    0.3800   -2.3730   -1.1928 C   0  0  0  0  0  0  0  0  0  0  0  0
    7.0849    0.0279    0.0630 C   0  0  0  0  0  0  0  0  0  0  0  0
    7.7533   -0.9828    0.7188 N   0  0  0  0  0  0  0  0  0  0  0  0
    7.6420    0.9751   -0.4706 O   0  0  0  0  0  0  0  0  0  0  0  0
    9.1976   -0.9942    0.8085 C   0  0  0  0  0  0  0  0  0  0  0  0
    2.7960   -0.1023    0.0094 C   0  0  0  0  0  0  0  0  0  0  0  0
    3.4656    1.1226   -0.0366 C   0  0  0  0  0  0  0  0  0  0  0  0
    3.5228   -1.2985    0.0634 C   0  0  0  0  0  0  0  0  0  0  0  0
    4.8650    1.1429   -0.0208 C   0  0  0  0  0  0  0  0  0  0  0  0
    4.9198   -1.2769    0.0648 C   0  0  0  0  0  0  0  0  0  0  0  0
    5.5966   -0.0544    0.0426 C   0  0  0  0  0  0  0  0  0  0  0  0
   -0.0419   -3.0273   -2.4849 C   0  0  0  0  0  0  0  0  0  0  0  0
    0.7273   -2.8829   -3.6481 C   0  0  0  0  0  0  0  0  0  0  0  0
   -1.1303   -3.9121   -2.4941 C   0  0  0  0  0  0  0  0  0  0  0  0
    0.4426   -3.6488   -4.7800 C   0  0  0  0  0  0  0  0  0  0  0  0
   -1.4043   -4.6851   -3.6217 C   0  0  0  0  0  0  0  0  0  0  0  0
   -0.6080   -4.5650   -4.7582 C   0  0  0  0  0  0  0  0  0  0  0  0
    9.7712   -2.2432    0.1915 C   0  0  0  0  0  0  0  0  0  0  0  0
   10.0969   -2.2612   -1.1727 C   0  0  0  0  0  0  0  0  0  0  0  0
    9.9983   -3.3953    0.9578 C   0  0  0  0  0  0  0  0  0  0  0  0
   10.6808   -3.3901   -1.7486 C   0  0  0  0  0  0  0  0  0  0  0  0
   10.5845   -4.5239    0.3795 C   0  0  0  0  0  0  0  0  0  0  0  0
   10.9339   -4.5176   -0.9702 C   0  0  0  0  0  0  0  0  0  0  0  0
   -0.2352   -0.4128   -1.7204 H   0  0  0  0  0  0  0  0  0  0  0  0
    1.3315   -2.8349   -0.9236 H   0  0  0  0  0  0  0  0  0  0  0  0
   -0.3427   -2.6249   -0.4083 H   0  0  0  0  0  0  0  0  0  0  0  0
    7.2494   -1.6735    1.2517 H   0  0  0  0  0  0  0  0  0  0  0  0
    9.6314   -0.1113    0.3253 H   0  0  0  0  0  0  0  0  0  0  0  0
    9.4705   -0.9359    1.8685 H   0  0  0  0  0  0  0  0  0  0  0  0
    2.9173    2.0633   -0.0547 H   0  0  0  0  0  0  0  0  0  0  0  0
    3.0175   -2.2553    0.1274 H   0  0  0  0  0  0  0  0  0  0  0  0
    5.3887    2.0980   -0.0402 H   0  0  0  0  0  0  0  0  0  0  0  0
    5.4580   -2.2208    0.0756 H   0  0  0  0  0  0  0  0  0  0  0  0
    1.5751   -2.2009   -3.6650 H   0  0  0  0  0  0  0  0  0  0  0  0
   -1.7506   -4.0341   -1.6081 H   0  0  0  0  0  0  0  0  0  0  0  0
    1.0574   -3.5510   -5.6712 H   0  0  0  0  0  0  0  0  0  0  0  0
   -2.2237   -5.3989   -3.6033 H   0  0  0  0  0  0  0  0  0  0  0  0
   -0.8020   -5.1919   -5.6247 H   0  0  0  0  0  0  0  0  0  0  0  0
    9.9112   -1.3822   -1.7882 H   0  0  0  0  0  0  0  0  0  0  0  0
    9.7409   -3.4151    2.0140 H   0  0  0  0  0  0  0  0  0  0  0  0
   10.9480   -3.3839   -2.8021 H   0  0  0  0  0  0  0  0  0  0  0  0
   10.7814   -5.4058    0.9841 H   0  0  0  0  0  0  0  0  0  0  0  0
   11.4060   -5.3895   -1.4154 H   0  0  0  0  0  0  0  0  0  0  0  0
  1  2  1  0  0  0  0
  1  3  2  0  0  0  0
  1  4  2  0  0  0  0
  1 10  1  0  0  0  0
  2  5  1  0  0  0  0
  2 28  1  0  0  0  0
  5 16  1  0  0  0  0
  5 29  1  0  0  0  0
  5 30  1  0  0  0  0
  6  7  1  0  0  0  0
  6  8  2  0  0  0  0
  6 15  1  0  0  0  0
  7  9  1  0  0  0  0
  7 31  1  0  0  0  0
  9 22  1  0  0  0  0
  9 32  1  0  0  0  0
  9 33  1  0  0  0  0
 10 11  2  0  0  0  0
 10 12  1  0  0  0  0
 11 13  1  0  0  0  0
 11 34  1  0  0  0  0
 12 14  2  0  0  0  0
 12 35  1  0  0  0  0
 13 15  2  0  0  0  0
 13 36  1  0  0  0  0
 14 15  1  0  0  0  0
 14 37  1  0  0  0  0
 16 17  2  0  0  0  0
 16 18  1  0  0  0  0
 17 19  1  0  0  0  0
 17 38  1  0  0  0  0
 18 20  2  0  0  0  0
 18 39  1  0  0  0  0
 19 21  2  0  0  0  0
 19 40  1  0  0  0  0
 20 21  1  0  0  0  0
 20 41  1  0  0  0  0
 21 42  1  0  0  0  0
 22 23  2  0  0  0  0
 22 24  1  0  0  0  0
 23 25  1  0  0  0  0
 23 43  1  0  0  0  0
 24 26  2  0  0  0  0
 24 44  1  0  0  0  0
 25 27  2  0  0  0  0
 25 45  1  0  0  0  0
 26 27  1  0  0  0  0
 26 46  1  0  0  0  0
 27 47  1  0  0  0  0
M  END
>  <Mol_ID>
6121

>  <Formula>
C21H20N2O3S

>  <MolWeight>
380.4601

>  <Cat>
E0103

>  <Name>
TH263

>  <Target>
Others

>  <Form>
free base

>  <CAS>
313520-94-4

>  <URL>
http://www.selleckchem.com/products/th263.html

$$$$
