TH287.cdx
 OpenBabel08302519553D

 27 28  0  0  0  0  0  0  0  0999 V2000
    1.8712    0.0318    0.0668 C   0  0  0  0  0  0  0  0  0  0  0  0
    1.1915   -1.1628    0.0473 C   0  0  0  0  0  0  0  0  0  0  0  0
   -0.1447   -1.1952   -0.0352 N   0  0  0  0  0  0  0  0  0  0  0  0
   -0.7931   -0.0299   -0.1073 C   0  0  0  0  0  0  0  0  0  0  0  0
   -0.2175    1.1707   -0.0811 N   0  0  0  0  0  0  0  0  0  0  0  0
    1.1280    1.1968   -0.0209 C   0  0  0  0  0  0  0  0  0  0  0  0
    1.7974   -2.3865    0.1436 N   0  0  0  0  0  0  0  0  0  0  0  0
    3.2036   -2.6844    0.0971 C   0  0  0  0  0  0  0  0  0  0  0  0
   -2.1723   -0.0696   -0.1738 N   0  0  0  0  0  0  0  0  0  0  0  0
    1.7623    2.5312   -0.0671 C   0  0  0  0  0  0  0  0  0  0  0  0
    1.1259    3.6590    0.4832 C   0  0  0  0  0  0  0  0  0  0  0  0
    1.7205    4.9242    0.4355 C   0  0  0  0  0  0  0  0  0  0  0  0
    2.9645    5.0897   -0.1676 C   0  0  0  0  0  0  0  0  0  0  0  0
    3.6119    3.9930   -0.7259 C   0  0  0  0  0  0  0  0  0  0  0  0
    3.0139    2.7309   -0.6781 C   0  0  0  0  0  0  0  0  0  0  0  0
    2.9442    0.0737    0.1557 H   0  0  0  0  0  0  0  0  0  0  0  0
    1.1386   -3.1523    0.0508 H   0  0  0  0  0  0  0  0  0  0  0  0
    3.4731   -3.2802    0.9748 H   0  0  0  0  0  0  0  0  0  0  0  0
    3.4335   -3.2756   -0.7953 H   0  0  0  0  0  0  0  0  0  0  0  0
    3.8512   -1.8064    0.0889 H   0  0  0  0  0  0  0  0  0  0  0  0
   -2.5532    0.7919    0.1918 H   0  0  0  0  0  0  0  0  0  0  0  0
   -2.5068   -0.9360    0.2222 H   0  0  0  0  0  0  0  0  0  0  0  0
    0.1517    3.5532    0.9581 H   0  0  0  0  0  0  0  0  0  0  0  0
    1.2065    5.7788    0.8678 H   0  0  0  0  0  0  0  0  0  0  0  0
    3.4227    6.0739   -0.2099 H   0  0  0  0  0  0  0  0  0  0  0  0
    4.5793    4.1183   -1.2080 H   0  0  0  0  0  0  0  0  0  0  0  0
    3.5403    1.9034   -1.1496 H   0  0  0  0  0  0  0  0  0  0  0  0
  1  2  2  0  0  0  0
  1 16  1  0  0  0  0
  2  3  1  0  0  0  0
  2  7  1  0  0  0  0
  3  4  2  0  0  0  0
  4  5  1  0  0  0  0
  4  9  1  0  0  0  0
  5  6  2  0  0  0  0
  6  1  1  0  0  0  0
  6 10  1  0  0  0  0
  7  8  1  0  0  0  0
  7 17  1  0  0  0  0
  8 18  1  0  0  0  0
  8 19  1  0  0  0  0
  8 20  1  0  0  0  0
  9 21  1  0  0  0  0
  9 22  1  0  0  0  0
 10 11  2  0  0  0  0
 11 12  1  0  0  0  0
 11 23  1  0  0  0  0
 12 13  2  0  0  0  0
 12 24  1  0  0  0  0
 13 14  1  0  0  0  0
 13 25  1  0  0  0  0
 14 15  2  0  0  0  0
 14 26  1  0  0  0  0
 15 10  1  0  0  0  0
 15 27  1  0  0  0  0
M  END
>  <Mol_ID>
2182

>  <Formula>
C11H10Cl2N4

>  <MolWeight>
269.1299

>  <Cat>
S7631

>  <Name>
TH287

>  <Synonyms>
N/A

>  <Target>
MTH1,NUDIX

>  <Form>
free base

>  <CAS>
1609960-30-6

>  <URL>
http://selleckchem.com/products/th287.html

$$$$
