TH588.cdx
 OpenBabel08302519583D

 31 33  0  0  0  0  0  0  0  0999 V2000
    1.0930    0.1672    0.5509 C   0  0  0  0  0  0  0  0  0  0  0  0
    0.2844   -0.9688    0.5689 C   0  0  0  0  0  0  0  0  0  0  0  0
   -0.9590   -1.0051   -0.0979 C   0  0  0  0  0  0  0  0  0  0  0  0
   -1.3286    0.1292   -0.8377 C   0  0  0  0  0  0  0  0  0  0  0  0
   -0.5163    1.2689   -0.8628 C   0  0  0  0  0  0  0  0  0  0  0  0
    0.6857    1.2913   -0.1552 C   0  0  0  0  0  0  0  0  0  0  0  0
   -1.8405   -2.1846    0.0264 C   0  0  0  0  0  0  0  0  0  0  0  0
   -1.8868   -2.9076    1.2013 C   0  0  0  0  0  0  0  0  0  0  0  0
   -2.6824   -4.0249    1.2280 C   0  0  0  0  0  0  0  0  0  0  0  0
   -3.4309   -4.3809    0.1760 N   0  0  0  0  0  0  0  0  0  0  0  0
   -3.3500   -3.6159   -0.9170 C   0  0  0  0  0  0  0  0  0  0  0  0
   -2.5933   -2.5189   -1.0381 N   0  0  0  0  0  0  0  0  0  0  0  0
   -4.1512   -3.9631   -1.9857 N   0  0  0  0  0  0  0  0  0  0  0  0
   -2.7838   -4.8244    2.3797 N   0  0  0  0  0  0  0  0  0  0  0  0
   -1.6224   -5.0714    3.2370 C   0  0  0  0  0  0  0  0  0  0  0  0
   -1.8665   -5.4488    4.6732 C   0  0  0  0  0  0  0  0  0  0  0  0
   -1.2002   -4.1466    4.3465 C   0  0  0  0  0  0  0  0  0  0  0  0
    2.0332    0.1699    1.0961 H   0  0  0  0  0  0  0  0  0  0  0  0
    0.6400   -1.8378    1.1177 H   0  0  0  0  0  0  0  0  0  0  0  0
   -2.2685    0.1386   -1.3870 H   0  0  0  0  0  0  0  0  0  0  0  0
   -0.8272    2.1449   -1.4254 H   0  0  0  0  0  0  0  0  0  0  0  0
    1.3066    2.1826   -0.1597 H   0  0  0  0  0  0  0  0  0  0  0  0
   -1.3329   -2.5989    2.0759 H   0  0  0  0  0  0  0  0  0  0  0  0
   -4.3447   -3.1438   -2.5437 H   0  0  0  0  0  0  0  0  0  0  0  0
   -4.9446   -4.4939   -1.6536 H   0  0  0  0  0  0  0  0  0  0  0  0
   -3.3460   -5.6320    2.1155 H   0  0  0  0  0  0  0  0  0  0  0  0
   -0.8300   -5.6101    2.7205 H   0  0  0  0  0  0  0  0  0  0  0  0
   -2.8831   -5.4060    5.0475 H   0  0  0  0  0  0  0  0  0  0  0  0
   -1.2655   -6.2424    5.0989 H   0  0  0  0  0  0  0  0  0  0  0  0
   -0.1420   -4.0618    4.5696 H   0  0  0  0  0  0  0  0  0  0  0  0
   -1.7626   -3.2362    4.5097 H   0  0  0  0  0  0  0  0  0  0  0  0
  1  2  2  0  0  0  0
  1 18  1  0  0  0  0
  2  3  1  0  0  0  0
  2 19  1  0  0  0  0
  3  4  2  0  0  0  0
  3  7  1  0  0  0  0
  4  5  1  0  0  0  0
  4 20  1  0  0  0  0
  5  6  2  0  0  0  0
  5 21  1  0  0  0  0
  6  1  1  0  0  0  0
  6 22  1  0  0  0  0
  7  8  2  0  0  0  0
  8  9  1  0  0  0  0
  8 23  1  0  0  0  0
  9 10  2  0  0  0  0
  9 14  1  0  0  0  0
 10 11  1  0  0  0  0
 11 12  2  0  0  0  0
 11 13  1  0  0  0  0
 12  7  1  0  0  0  0
 13 24  1  0  0  0  0
 13 25  1  0  0  0  0
 14 15  1  0  0  0  0
 14 26  1  0  0  0  0
 15 16  1  0  0  0  0
 15 27  1  0  0  0  0
 16 17  1  0  0  0  0
 16 28  1  0  0  0  0
 16 29  1  0  0  0  0
 17 15  1  0  0  0  0
 17 30  1  0  0  0  0
 17 31  1  0  0  0  0
M  END
>  <Mol_ID>
2529

>  <Formula>
C13H12Cl2N4

>  <MolWeight>
295.16718

>  <Cat>
S7632

>  <Name>
TH588

>  <Synonyms>
N/A

>  <Target>
MTH1,NUDIX

>  <Form>
free base

>  <CAS>
1609960-31-7

>  <URL>
http://selleckchem.com/products/th588.html

$$$$
