Thalidomide-OH
 OpenBabel08302521323D

 30 32  0  0  0  0  0  0  0  0999 V2000
   -1.2629   -1.5342   -0.2751 C   0  0  0  0  0  0  0  0  0  0  0  0
   -2.3077   -0.6688   -0.1119 N   0  0  0  0  0  0  0  0  0  0  0  0
   -1.8719    0.6286   -0.0170 C   0  0  0  0  0  0  0  0  0  0  0  0
   -0.4035    0.5880   -0.0762 C   0  0  0  0  0  0  0  0  0  0  0  0
    0.5639    1.5696    0.0172 C   0  0  0  0  0  0  0  0  0  0  0  0
    1.9078    1.1772    0.0216 C   0  0  0  0  0  0  0  0  0  0  0  0
    2.2585   -0.1842   -0.0755 C   0  0  0  0  0  0  0  0  0  0  0  0
    1.2734   -1.1646   -0.2008 C   0  0  0  0  0  0  0  0  0  0  0  0
   -0.0426   -0.7419   -0.1996 C   0  0  0  0  0  0  0  0  0  0  0  0
   -1.2851   -2.7318   -0.4798 O   0  0  0  0  0  0  0  0  0  0  0  0
   -2.5503    1.6238    0.1451 O   0  0  0  0  0  0  0  0  0  0  0  0
    0.2257    2.8820    0.1086 O   0  0  0  0  0  0  0  0  0  0  0  0
   -5.2326    0.2528    1.3725 N   0  0  0  0  0  0  0  0  0  0  0  0
   -4.2268   -0.6824    1.3814 C   0  0  0  0  0  0  0  0  0  0  0  0
   -3.6864   -1.1230    0.0236 C   0  0  3  0  0  0  0  0  0  0  0  0
   -4.6296   -0.7932   -1.1265 C   0  0  0  0  0  0  0  0  0  0  0  0
   -5.1848    0.6167   -1.0632 C   0  0  0  0  0  0  0  0  0  0  0  0
   -5.7332    0.9526    0.3039 C   0  0  0  0  0  0  0  0  0  0  0  0
   -6.5749    1.8317    0.4706 O   0  0  0  0  0  0  0  0  0  0  0  0
   -3.7439   -1.0731    2.4432 O   0  0  0  0  0  0  0  0  0  0  0  0
    2.7030    1.9134    0.1140 H   0  0  0  0  0  0  0  0  0  0  0  0
    3.3073   -0.4745   -0.0450 H   0  0  0  0  0  0  0  0  0  0  0  0
    1.5224   -2.2188   -0.2714 H   0  0  0  0  0  0  0  0  0  0  0  0
    1.0265    3.4320    0.1236 H   0  0  0  0  0  0  0  0  0  0  0  0
   -5.5516    0.5643    2.2788 H   0  0  0  0  0  0  0  0  0  0  0  0
   -3.6539   -2.2204    0.0757 H   0  0  0  0  0  0  0  0  0  0  0  0
   -5.4822   -1.4853   -1.0681 H   0  0  0  0  0  0  0  0  0  0  0  0
   -4.1474   -0.9716   -2.0939 H   0  0  0  0  0  0  0  0  0  0  0  0
   -6.0055    0.7042   -1.7846 H   0  0  0  0  0  0  0  0  0  0  0  0
   -4.4317    1.3572   -1.3412 H   0  0  0  0  0  0  0  0  0  0  0  0
  1  2  1  0  0  0  0
  1  9  1  0  0  0  0
  1 10  2  0  0  0  0
  2  3  1  0  0  0  0
  2 15  1  0  0  0  0
  3  4  1  0  0  0  0
  3 11  2  0  0  0  0
  4  5  2  0  0  0  0
  4  9  1  0  0  0  0
  5  6  1  0  0  0  0
  5 12  1  0  0  0  0
  6  7  2  0  0  0  0
  6 21  1  0  0  0  0
  7  8  1  0  0  0  0
  7 22  1  0  0  0  0
  8  9  2  0  0  0  0
  8 23  1  0  0  0  0
 12 24  1  0  0  0  0
 13 14  1  0  0  0  0
 13 18  1  0  0  0  0
 13 25  1  0  0  0  0
 14 15  1  0  0  0  0
 14 20  2  0  0  0  0
 15 16  1  0  0  0  0
 15 26  1  0  0  0  0
 16 17  1  0  0  0  0
 16 27  1  0  0  0  0
 16 28  1  0  0  0  0
 17 18  1  0  0  0  0
 17 29  1  0  0  0  0
 17 30  1  0  0  0  0
 18 19  2  0  0  0  0
M  END
>  <Mol_ID>
6195

>  <Formula>
C13H10N2O5

>  <MolWeight>
274.2289

>  <Cat>
S1015

>  <Name>
Thalidomide-OH

>  <Synonyms>
Cereblon ligand 2, E3 ligase Ligand 2

>  <Target>
E3 Ligase

>  <Form>
free base

>  <CAS>
5054-59-1

>  <URL>
http://www.selleckchem.com/products/thalidomide-oh.html

$$$$
