Thalidomide-5-NH2-CH2-COOH
 OpenBabel08302521343D

 37 39  0  0  0  0  0  0  0  0999 V2000
    1.2771    2.2747    0.2971 O   0  0  0  0  0  0  0  0  0  0  0  0
    1.5056   -2.2915   -0.1220 O   0  0  0  0  0  0  0  0  0  0  0  0
    4.0290    0.1950    2.1700 O   0  0  0  0  0  0  0  0  0  0  0  0
    4.0960    4.1009   -0.0842 O   0  0  0  0  0  0  0  0  0  0  0  0
   -3.9156    1.3198   -0.2479 N   0  0  0  0  0  0  0  0  0  0  0  0
   -5.1872    0.8470    0.3530 C   0  0  0  0  0  0  0  0  0  0  0  0
   -5.9692   -0.0118   -0.6251 C   0  0  0  0  0  0  0  0  0  0  0  0
   -5.3299   -0.2228   -1.8054 O   0  0  0  0  0  0  0  0  0  0  0  0
   -7.0701   -0.4973   -0.3858 O   0  0  0  0  0  0  0  0  0  0  0  0
    1.8388    0.0168    0.0181 N   0  0  0  0  0  0  0  0  0  0  0  0
    1.0145    1.0990    0.1487 C   0  0  0  0  0  0  0  0  0  0  0  0
    1.1143   -1.1472   -0.0009 C   0  0  0  0  0  0  0  0  0  0  0  0
   -0.3483    0.6097    0.1176 C   0  0  0  0  0  0  0  0  0  0  0  0
   -0.2989   -0.7648    0.0802 C   0  0  0  0  0  0  0  0  0  0  0  0
   -1.5318    1.3218    0.0671 C   0  0  0  0  0  0  0  0  0  0  0  0
   -1.4535   -1.5109    0.0463 C   0  0  0  0  0  0  0  0  0  0  0  0
   -2.7333    0.6053    0.0110 C   0  0  0  0  0  0  0  0  0  0  0  0
   -2.6749   -0.8139    0.0193 C   0  0  0  0  0  0  0  0  0  0  0  0
    3.2929    0.0607   -0.1301 C   0  0  3  0  0  0  0  0  0  0  0  0
    3.9132    0.7466    1.0809 C   0  0  0  0  0  0  0  0  0  0  0  0
    3.8028    0.6944   -1.4250 C   0  0  0  0  0  0  0  0  0  0  0  0
    4.2228    2.0792    0.9242 N   0  0  0  0  0  0  0  0  0  0  0  0
    3.5996    2.1997   -1.4657 C   0  0  0  0  0  0  0  0  0  0  0  0
    3.9996    2.8803   -0.1711 C   0  0  0  0  0  0  0  0  0  0  0  0
   -3.7921    2.3217   -0.0691 H   0  0  0  0  0  0  0  0  0  0  0  0
   -5.0157    0.2979    1.2857 H   0  0  0  0  0  0  0  0  0  0  0  0
   -5.8073    1.7245    0.5815 H   0  0  0  0  0  0  0  0  0  0  0  0
   -4.4735    0.2688   -1.7776 H   0  0  0  0  0  0  0  0  0  0  0  0
   -1.5061    2.4068    0.0425 H   0  0  0  0  0  0  0  0  0  0  0  0
   -1.4166   -2.5967    0.0038 H   0  0  0  0  0  0  0  0  0  0  0  0
   -3.5821   -1.4100   -0.0485 H   0  0  0  0  0  0  0  0  0  0  0  0
    3.6630   -0.9742   -0.1204 H   0  0  0  0  0  0  0  0  0  0  0  0
    4.8818    0.5002   -1.5031 H   0  0  0  0  0  0  0  0  0  0  0  0
    3.3332    0.2275   -2.2979 H   0  0  0  0  0  0  0  0  0  0  0  0
    4.4733    2.5673    1.7722 H   0  0  0  0  0  0  0  0  0  0  0  0
    4.2110    2.6253   -2.2689 H   0  0  0  0  0  0  0  0  0  0  0  0
    2.5604    2.4427   -1.7033 H   0  0  0  0  0  0  0  0  0  0  0  0
  1 11  2  0  0  0  0
  2 12  2  0  0  0  0
  3 20  2  0  0  0  0
  4 24  2  0  0  0  0
  5  6  1  0  0  0  0
  5 17  1  0  0  0  0
  5 25  1  0  0  0  0
  6  7  1  0  0  0  0
  6 26  1  0  0  0  0
  6 27  1  0  0  0  0
  7  8  1  0  0  0  0
  7  9  2  0  0  0  0
  8 28  1  0  0  0  0
 10 11  1  0  0  0  0
 10 12  1  0  0  0  0
 10 19  1  0  0  0  0
 11 13  1  0  0  0  0
 12 14  1  0  0  0  0
 13 14  2  0  0  0  0
 13 15  1  0  0  0  0
 14 16  1  0  0  0  0
 15 17  2  0  0  0  0
 15 29  1  0  0  0  0
 16 18  2  0  0  0  0
 16 30  1  0  0  0  0
 17 18  1  0  0  0  0
 18 31  1  0  0  0  0
 19 20  1  0  0  0  0
 19 21  1  0  0  0  0
 19 32  1  0  0  0  0
 20 22  1  0  0  0  0
 21 23  1  0  0  0  0
 21 33  1  0  0  0  0
 21 34  1  0  0  0  0
 22 24  1  0  0  0  0
 22 35  1  0  0  0  0
 23 24  1  0  0  0  0
 23 36  1  0  0  0  0
 23 37  1  0  0  0  0
M  END
>  <Mol_ID>
6451

>  <Formula>
C15H13N3O6

>  <MolWeight>
331.28022

>  <Cat>
E2390

>  <Name>
Thalidomide-5-NH2-CH2-COOH

>  <Target>
Trk receptor

>  <Form>
free base

>  <CAS>
2412056-27-8

>  <URL>
http://www.selleckchem.com/products/thalidomide-5-nh2-ch2-cooh.html

$$$$
