Thalidomide-NH-C4-NH-Boc
 OpenBabel08302521323D

 60 62  0  0  0  0  0  0  0  0999 V2000
   -3.3308   -0.1880   -0.6946 C   0  0  0  0  0  0  0  0  0  0  0  0
   -2.0756   -0.4138   -0.2089 N   0  0  0  0  0  0  0  0  0  0  0  0
   -4.0578    0.7188   -0.3283 O   0  0  0  0  0  0  0  0  0  0  0  0
   -3.6278   -1.1275   -1.6246 O   0  0  0  0  0  0  0  0  0  0  0  0
   -1.5071    0.3686    0.8655 C   0  0  0  0  0  0  0  0  0  0  0  0
   -1.8417   -0.2293    2.2307 C   0  0  0  0  0  0  0  0  0  0  0  0
   -1.2883    0.5810    3.4087 C   0  0  0  0  0  0  0  0  0  0  0  0
   -1.8387    2.0054    3.5404 C   0  0  0  0  0  0  0  0  0  0  0  0
   -3.2557    1.9689    3.8467 N   0  0  0  0  0  0  0  0  0  0  0  0
   -6.9142    3.4060    6.4280 C   0  0  0  0  0  0  0  0  0  0  0  0
   -6.9179    2.0572    6.2363 N   0  0  0  0  0  0  0  0  0  0  0  0
   -5.8906    1.6662    5.4122 C   0  0  0  0  0  0  0  0  0  0  0  0
   -5.1361    2.8812    5.0617 C   0  0  0  0  0  0  0  0  0  0  0  0
   -3.9469    3.0523    4.3577 C   0  0  0  0  0  0  0  0  0  0  0  0
   -3.4635    4.3706    4.2926 C   0  0  0  0  0  0  0  0  0  0  0  0
   -4.1483    5.4512    4.8845 C   0  0  0  0  0  0  0  0  0  0  0  0
   -5.3285    5.2410    5.5948 C   0  0  0  0  0  0  0  0  0  0  0  0
   -5.7874    3.9413    5.6707 C   0  0  0  0  0  0  0  0  0  0  0  0
   -5.6505    0.5443    5.0072 O   0  0  0  0  0  0  0  0  0  0  0  0
   -7.6430    4.0825    7.1266 O   0  0  0  0  0  0  0  0  0  0  0  0
   -8.4514    1.1403    9.3136 N   0  0  0  0  0  0  0  0  0  0  0  0
   -7.4197    1.0812    8.4110 C   0  0  0  0  0  0  0  0  0  0  0  0
   -7.7943    1.1136    6.9251 C   0  0  3  0  0  0  0  0  0  0  0  0
   -9.2920    1.2892    6.6691 C   0  0  0  0  0  0  0  0  0  0  0  0
  -10.0083    2.1353    7.7074 C   0  0  0  0  0  0  0  0  0  0  0  0
   -9.6908    1.6891    9.1115 C   0  0  0  0  0  0  0  0  0  0  0  0
  -10.4621    1.8724   10.0499 O   0  0  0  0  0  0  0  0  0  0  0  0
   -6.2574    1.0063    8.8079 O   0  0  0  0  0  0  0  0  0  0  0  0
   -4.9225   -1.1219   -2.2853 C   0  0  0  0  0  0  0  0  0  0  0  0
   -5.1044    0.1361   -3.1428 C   0  0  0  0  0  0  0  0  0  0  0  0
   -4.9145   -2.3475   -3.2146 C   0  0  0  0  0  0  0  0  0  0  0  0
   -6.0676   -1.2948   -1.2800 C   0  0  0  0  0  0  0  0  0  0  0  0
   -1.5990   -1.2332   -0.5591 H   0  0  0  0  0  0  0  0  0  0  0  0
   -0.4234    0.3937    0.7144 H   0  0  0  0  0  0  0  0  0  0  0  0
   -1.8855    1.3918    0.7821 H   0  0  0  0  0  0  0  0  0  0  0  0
   -2.9259   -0.3524    2.3323 H   0  0  0  0  0  0  0  0  0  0  0  0
   -1.4234   -1.2430    2.2852 H   0  0  0  0  0  0  0  0  0  0  0  0
   -1.5047    0.0308    4.3343 H   0  0  0  0  0  0  0  0  0  0  0  0
   -0.1959    0.6321    3.3266 H   0  0  0  0  0  0  0  0  0  0  0  0
   -1.3021    2.4847    4.3700 H   0  0  0  0  0  0  0  0  0  0  0  0
   -1.6414    2.5947    2.6400 H   0  0  0  0  0  0  0  0  0  0  0  0
   -3.8357    1.3373    3.2928 H   0  0  0  0  0  0  0  0  0  0  0  0
   -2.5388    4.5890    3.7614 H   0  0  0  0  0  0  0  0  0  0  0  0
   -3.7374    6.4559    4.8028 H   0  0  0  0  0  0  0  0  0  0  0  0
   -5.8501    6.0536    6.0884 H   0  0  0  0  0  0  0  0  0  0  0  0
   -8.1877    1.0483   10.2847 H   0  0  0  0  0  0  0  0  0  0  0  0
   -7.5358    0.1133    6.5525 H   0  0  0  0  0  0  0  0  0  0  0  0
   -9.7501    0.2903    6.6996 H   0  0  0  0  0  0  0  0  0  0  0  0
   -9.4769    1.6819    5.6631 H   0  0  0  0  0  0  0  0  0  0  0  0
  -11.0902    2.0429    7.5574 H   0  0  0  0  0  0  0  0  0  0  0  0
   -9.7614    3.1945    7.6191 H   0  0  0  0  0  0  0  0  0  0  0  0
   -4.2699    0.2558   -3.8429 H   0  0  0  0  0  0  0  0  0  0  0  0
   -6.0354    0.0921   -3.7189 H   0  0  0  0  0  0  0  0  0  0  0  0
   -5.1368    1.0453   -2.5356 H   0  0  0  0  0  0  0  0  0  0  0  0
   -4.7829   -3.2720   -2.6404 H   0  0  0  0  0  0  0  0  0  0  0  0
   -5.8469   -2.4283   -3.7846 H   0  0  0  0  0  0  0  0  0  0  0  0
   -4.0796   -2.3005   -3.9230 H   0  0  0  0  0  0  0  0  0  0  0  0
   -5.9021   -2.1776   -0.6524 H   0  0  0  0  0  0  0  0  0  0  0  0
   -6.1562   -0.4408   -0.6030 H   0  0  0  0  0  0  0  0  0  0  0  0
   -7.0300   -1.4058   -1.7910 H   0  0  0  0  0  0  0  0  0  0  0  0
  1  2  1  0  0  0  0
  1  3  2  0  0  0  0
  1  4  1  0  0  0  0
  2  5  1  0  0  0  0
  2 33  1  0  0  0  0
  4 29  1  0  0  0  0
  5  6  1  0  0  0  0
  5 34  1  0  0  0  0
  5 35  1  0  0  0  0
  6  7  1  0  0  0  0
  6 36  1  0  0  0  0
  6 37  1  0  0  0  0
  7  8  1  0  0  0  0
  7 38  1  0  0  0  0
  7 39  1  0  0  0  0
  8  9  1  0  0  0  0
  8 40  1  0  0  0  0
  8 41  1  0  0  0  0
  9 14  1  0  0  0  0
  9 42  1  0  0  0  0
 10 11  1  0  0  0  0
 10 18  1  0  0  0  0
 10 20  2  0  0  0  0
 11 12  1  0  0  0  0
 11 23  1  0  0  0  0
 12 13  1  0  0  0  0
 12 19  2  0  0  0  0
 13 14  2  0  0  0  0
 13 18  1  0  0  0  0
 14 15  1  0  0  0  0
 15 16  2  0  0  0  0
 15 43  1  0  0  0  0
 16 17  1  0  0  0  0
 16 44  1  0  0  0  0
 17 18  2  0  0  0  0
 17 45  1  0  0  0  0
 21 22  1  0  0  0  0
 21 26  1  0  0  0  0
 21 46  1  0  0  0  0
 22 23  1  0  0  0  0
 22 28  2  0  0  0  0
 23 24  1  0  0  0  0
 23 47  1  0  0  0  0
 24 25  1  0  0  0  0
 24 48  1  0  0  0  0
 24 49  1  0  0  0  0
 25 26  1  0  0  0  0
 25 50  1  0  0  0  0
 25 51  1  0  0  0  0
 26 27  2  0  0  0  0
 29 30  1  0  0  0  0
 29 31  1  0  0  0  0
 29 32  1  0  0  0  0
 30 52  1  0  0  0  0
 30 53  1  0  0  0  0
 30 54  1  0  0  0  0
 31 55  1  0  0  0  0
 31 56  1  0  0  0  0
 31 57  1  0  0  0  0
 32 58  1  0  0  0  0
 32 59  1  0  0  0  0
 32 60  1  0  0  0  0
M  END
>  <Mol_ID>
6236

>  <Formula>
C22H28N4O6

>  <MolWeight>
444.48092

>  <Cat>
S6397

>  <Name>
Thalidomide-NH-C4-NH-Boc

>  <Synonyms>
N/A

>  <Target>
Epigenetic Reader Domain

>  <Form>
free base

>  <CAS>
2093388-52-2

>  <URL>
http://www.selleckchem.com/products/thalidomide-nh-c4-nh-boc.html

$$$$
