Thalidomide-O-COOH (Cereblon ligand 3)
 OpenBabel08302521243D

 36 38  0  0  0  0  0  0  0  0999 V2000
   -1.3660   -0.1025   -1.7558 O   0  0  0  0  0  0  0  0  0  0  0  0
   -3.6847    0.9338    1.4754 O   0  0  0  0  0  0  0  0  0  0  0  0
   -1.7311    3.3956   -1.8355 O   0  0  0  0  0  0  0  0  0  0  0  0
   -6.8375    1.6213    0.7317 O   0  0  0  0  0  0  0  0  0  0  0  0
    2.8062    0.0372    0.0007 O   0  0  0  0  0  0  0  0  0  0  0  0
   -8.7487   -0.0638    1.3159 O   0  0  0  0  0  0  0  0  0  0  0  0
   -7.3732   -1.8346    1.5862 O   0  0  0  0  0  0  0  0  0  0  0  0
   -2.3733    1.9295   -0.1435 N   0  0  0  0  0  0  0  0  0  0  0  0
    0.6862   -0.0348   -0.7902 N   0  0  0  0  0  0  0  0  0  0  0  0
   -1.1044    1.3122    0.2159 C   0  0  3  0  0  0  0  0  0  0  0  0
    0.0041    2.3004    0.5551 C   0  0  0  0  0  0  0  0  0  0  0  0
    1.2318    1.5321    1.0279 C   0  0  0  0  0  0  0  0  0  0  0  0
   -0.6319    0.3587   -0.8843 C   0  0  0  0  0  0  0  0  0  0  0  0
   -3.5503    1.6213    0.4789 C   0  0  0  0  0  0  0  0  0  0  0  0
   -2.5558    2.8617   -1.1229 C   0  0  0  0  0  0  0  0  0  0  0  0
   -4.6326    2.3353   -0.2163 C   0  0  0  0  0  0  0  0  0  0  0  0
   -3.9951    3.1387   -1.1603 C   0  0  0  0  0  0  0  0  0  0  0  0
    1.6588    0.4716    0.0366 C   0  0  0  0  0  0  0  0  0  0  0  0
   -6.0154    2.3622   -0.0746 C   0  0  0  0  0  0  0  0  0  0  0  0
   -4.6702    4.0334   -1.9704 C   0  0  0  0  0  0  0  0  0  0  0  0
   -6.7093    3.2923   -0.8714 C   0  0  0  0  0  0  0  0  0  0  0  0
   -6.0499    4.1171   -1.8052 C   0  0  0  0  0  0  0  0  0  0  0  0
   -6.3727    0.3401    1.1633 C   0  0  0  0  0  0  0  0  0  0  0  0
   -7.5231   -0.6392    1.3712 C   0  0  0  0  0  0  0  0  0  0  0  0
   -8.6623    0.8956    1.1380 H   0  0  0  0  0  0  0  0  0  0  0  0
    0.9993   -0.7148   -1.4706 H   0  0  0  0  0  0  0  0  0  0  0  0
   -1.2850    0.6734    1.0907 H   0  0  0  0  0  0  0  0  0  0  0  0
    0.2736    2.9042   -0.3192 H   0  0  0  0  0  0  0  0  0  0  0  0
   -0.3265    2.9902    1.3399 H   0  0  0  0  0  0  0  0  0  0  0  0
    2.0646    2.2308    1.1637 H   0  0  0  0  0  0  0  0  0  0  0  0
    1.0378    1.0404    1.9879 H   0  0  0  0  0  0  0  0  0  0  0  0
   -4.1437    4.6494   -2.6933 H   0  0  0  0  0  0  0  0  0  0  0  0
   -7.7923    3.3751   -0.7814 H   0  0  0  0  0  0  0  0  0  0  0  0
   -6.6274    4.8177   -2.4069 H   0  0  0  0  0  0  0  0  0  0  0  0
   -5.7205   -0.1187    0.4146 H   0  0  0  0  0  0  0  0  0  0  0  0
   -5.8932    0.4571    2.1381 H   0  0  0  0  0  0  0  0  0  0  0  0
  1 13  2  0  0  0  0
  2 14  2  0  0  0  0
  3 15  2  0  0  0  0
  4 19  1  0  0  0  0
  4 23  1  0  0  0  0
  5 18  2  0  0  0  0
  6 24  1  0  0  0  0
  6 25  1  0  0  0  0
  7 24  2  0  0  0  0
  8 10  1  0  0  0  0
  8 14  1  0  0  0  0
  8 15  1  0  0  0  0
  9 13  1  0  0  0  0
  9 18  1  0  0  0  0
  9 26  1  0  0  0  0
 10 11  1  0  0  0  0
 10 13  1  0  0  0  0
 10 27  1  0  0  0  0
 11 12  1  0  0  0  0
 11 28  1  0  0  0  0
 11 29  1  0  0  0  0
 12 18  1  0  0  0  0
 12 30  1  0  0  0  0
 12 31  1  0  0  0  0
 14 16  1  0  0  0  0
 15 17  1  0  0  0  0
 16 17  2  0  0  0  0
 16 19  1  0  0  0  0
 17 20  1  0  0  0  0
 19 21  2  0  0  0  0
 20 22  2  0  0  0  0
 20 32  1  0  0  0  0
 21 22  1  0  0  0  0
 21 33  1  0  0  0  0
 22 34  1  0  0  0  0
 23 24  1  0  0  0  0
 23 35  1  0  0  0  0
 23 36  1  0  0  0  0
M  END
>  <Mol_ID>
4937

>  <Formula>
C15H12N2O7

>  <MolWeight>
332.26498

>  <Cat>
S6794

>  <Name>
Thalidomide-O-COOH (Cereblon ligand 3)

>  <Synonyms>
E3 ligase Ligand 3

>  <Target>
E3 Ligase ,E3 ligase Ligand

>  <Form>
Free Base

>  <CAS>
1061605-21-7

>  <URL>
http://www.selleckchem.com/products/thalidomide-o-cooh.html

$$$$
