Thiazolyl Blue
 OpenBabel08302521243D

 41 43  0  0  0  0  0  0  0  0999 V2000
   -0.7389    1.1373    0.0924 N   0  0  0  0  0  0  0  0  0  0  0  0
    0.5542    0.9329    0.0122 N   0  3  0  0  0  0  0  0  0  0  0  0
   -1.4105    2.3459   -0.1132 C   0  0  0  0  0  0  0  0  0  0  0  0
   -1.4099   -0.0567    0.2236 N   0  0  0  0  0  0  0  0  0  0  0  0
    1.6446    1.9107    0.0610 C   0  0  0  0  0  0  0  0  0  0  0  0
    0.8061   -0.4166   -0.0110 N   0  0  0  0  0  0  0  0  0  0  0  0
   -0.8550    3.3393   -0.7733 N   0  0  0  0  0  0  0  0  0  0  0  0
   -2.9968    2.6751    0.4615 S   0  0  0  0  0  0  0  0  0  0  0  0
   -0.4102   -0.9234    0.1005 C   0  0  0  0  0  0  0  0  0  0  0  0
    1.5144    3.0885    0.8004 C   0  0  0  0  0  0  0  0  0  0  0  0
    2.8377    1.6041   -0.5809 C   0  0  0  0  0  0  0  0  0  0  0  0
   -1.6843    4.4464   -0.8047 C   0  0  0  0  0  0  0  0  0  0  0  0
   -2.8744    4.2880   -0.1183 C   0  0  0  0  0  0  0  0  0  0  0  0
   -0.6561   -2.3728    0.0428 C   0  0  0  0  0  0  0  0  0  0  0  0
    2.5736    3.9976    0.8384 C   0  0  0  0  0  0  0  0  0  0  0  0
    3.9032    2.5029   -0.5181 C   0  0  0  0  0  0  0  0  0  0  0  0
   -1.2138    5.6590   -1.5295 C   0  0  0  0  0  0  0  0  0  0  0  0
   -3.9638    5.2684    0.1357 C   0  0  0  0  0  0  0  0  0  0  0  0
   -1.9623   -2.8899   -0.0436 C   0  0  0  0  0  0  0  0  0  0  0  0
    0.4109   -3.2845    0.0471 C   0  0  0  0  0  0  0  0  0  0  0  0
    3.7668    3.7037    0.1794 C   0  0  0  0  0  0  0  0  0  0  0  0
   -2.1843   -4.2687   -0.1414 C   0  0  0  0  0  0  0  0  0  0  0  0
    0.1881   -4.6604   -0.0555 C   0  0  0  0  0  0  0  0  0  0  0  0
   -1.1082   -5.1532   -0.1526 C   0  0  0  0  0  0  0  0  0  0  0  0
    4.1996   -2.0725   -1.0356 Br  0  5  0  0  0  0  0  0  0  0  0  0
    0.6226    3.3180    1.3702 H   0  0  0  0  0  0  0  0  0  0  0  0
    2.9586    0.6799   -1.1375 H   0  0  0  0  0  0  0  0  0  0  0  0
    2.4787    4.9278    1.3941 H   0  0  0  0  0  0  0  0  0  0  0  0
    4.8433    2.2515   -1.0078 H   0  0  0  0  0  0  0  0  0  0  0  0
   -1.9355    5.9458   -2.3008 H   0  0  0  0  0  0  0  0  0  0  0  0
   -1.0867    6.4963   -0.8368 H   0  0  0  0  0  0  0  0  0  0  0  0
   -0.2528    5.4726   -2.0197 H   0  0  0  0  0  0  0  0  0  0  0  0
   -4.9201    4.8987   -0.2436 H   0  0  0  0  0  0  0  0  0  0  0  0
   -4.0633    5.4604    1.2111 H   0  0  0  0  0  0  0  0  0  0  0  0
   -3.7584    6.2282   -0.3506 H   0  0  0  0  0  0  0  0  0  0  0  0
   -2.8298   -2.2346   -0.0524 H   0  0  0  0  0  0  0  0  0  0  0  0
    1.4443   -2.9449    0.1121 H   0  0  0  0  0  0  0  0  0  0  0  0
    4.6019    4.3998    0.2219 H   0  0  0  0  0  0  0  0  0  0  0  0
   -3.1975   -4.6557   -0.2208 H   0  0  0  0  0  0  0  0  0  0  0  0
    1.0398   -5.3382   -0.0748 H   0  0  0  0  0  0  0  0  0  0  0  0
   -1.2751   -6.2234   -0.2444 H   0  0  0  0  0  0  0  0  0  0  0  0
  1  2  1  0  0  0  0
  1  3  1  0  0  0  0
  1  4  1  0  0  0  0
  2  5  1  0  0  0  0
  2  6  2  0  0  0  0
  3  7  2  0  0  0  0
  3  8  1  0  0  0  0
  4  9  2  0  0  0  0
  5 10  2  0  0  0  0
  5 11  1  0  0  0  0
  6  9  1  0  0  0  0
  7 12  1  0  0  0  0
  8 13  1  0  0  0  0
  9 14  1  0  0  0  0
 10 15  1  0  0  0  0
 10 26  1  0  0  0  0
 11 16  2  0  0  0  0
 11 27  1  0  0  0  0
 12 17  1  0  0  0  0
 12 13  2  0  0  0  0
 13 18  1  0  0  0  0
 14 19  2  0  0  0  0
 14 20  1  0  0  0  0
 15 21  2  0  0  0  0
 15 28  1  0  0  0  0
 16 21  1  0  0  0  0
 16 29  1  0  0  0  0
 17 30  1  0  0  0  0
 17 31  1  0  0  0  0
 17 32  1  0  0  0  0
 18 33  1  0  0  0  0
 18 34  1  0  0  0  0
 18 35  1  0  0  0  0
 19 22  1  0  0  0  0
 19 36  1  0  0  0  0
 20 23  2  0  0  0  0
 20 37  1  0  0  0  0
 21 38  1  0  0  0  0
 22 24  2  0  0  0  0
 22 39  1  0  0  0  0
 23 24  1  0  0  0  0
 23 40  1  0  0  0  0
 24 41  1  0  0  0  0
M  CHG  2   2   1  25  -1
M  END
>  <Mol_ID>
4950

>  <Formula>
C18H16BrN5S

>  <MolWeight>
414.32214

>  <Cat>
S6821

>  <Name>
Thiazolyl Blue

>  <Synonyms>
MTT, Tetrazolium bromide, Methylthiazolyldiphenyl-tetrazolium bromide, Methylthialazole Tetrazolium

>  <Target>
Dyes

>  <Form>
Free Base

>  <CAS>
298-93-1

>  <URL>
http://www.selleckchem.com/products/thiazolyl-blue.html

$$$$
