Thiamine pyrophosphate hydrochloride
 OpenBabel08302521383D

 45 46  0  0  0  0  0  0  0  0999 V2000
   -0.8147   -0.4456    0.0520 S   0  0  0  0  0  0  0  0  0  0  0  0
   -4.2085    1.7341   -2.4258 P   0  0  3  0  0  0  0  0  0  0  0  0
   -4.1240   -1.0293   -3.0846 P   0  0  0  0  0  0  0  0  0  0  0  0
   -3.0674    1.3961   -1.1702 O   0  0  0  0  0  0  0  0  0  0  0  0
   -4.6397    0.1793   -2.2105 O   0  0  0  0  0  0  0  0  0  0  0  0
   -5.1387    2.3593   -1.2242 O   0  0  0  0  0  0  0  0  0  0  0  0
   -5.2297    2.0367   -3.5496 O   0  0  0  0  0  0  0  0  0  0  0  0
   -2.5876   -0.7276   -3.4333 O   0  0  0  0  0  0  0  0  0  0  0  0
   -3.9595   -2.2181   -2.0180 O   0  0  0  0  0  0  0  0  0  0  0  0
   -4.8978   -1.4546   -4.2799 O   0  0  0  0  0  0  0  0  0  0  0  0
    1.6796   -0.4996   -0.2175 N   0  3  0  0  0  0  0  0  0  0  0  0
    5.0336   -1.1196   -3.3896 N   0  0  0  0  0  0  0  0  0  0  0  0
    3.5565   -2.9691   -3.4172 N   0  0  0  0  0  0  0  0  0  0  0  0
    5.1967    0.3245   -1.6097 N   0  0  0  0  0  0  0  0  0  0  0  0
    1.3558    0.8582   -0.2488 C   0  0  0  0  0  0  0  0  0  0  0  0
   -0.0233    1.0609   -0.2084 C   0  0  0  0  0  0  0  0  0  0  0  0
    3.0415   -1.0850   -0.1843 C   0  0  0  0  0  0  0  0  0  0  0  0
   -0.8692    2.3119   -0.2434 C   0  0  0  0  0  0  0  0  0  0  0  0
    0.6399   -1.3101   -0.0753 C   0  0  0  0  0  0  0  0  0  0  0  0
   -1.9646    2.3252   -1.3292 C   0  0  0  0  0  0  0  0  0  0  0  0
    3.5563   -1.4635   -1.5375 C   0  0  0  0  0  0  0  0  0  0  0  0
    2.4542    1.8612   -0.2815 C   0  0  0  0  0  0  0  0  0  0  0  0
    4.5576   -0.7715   -2.1892 C   0  0  0  0  0  0  0  0  0  0  0  0
    3.0944   -2.5731   -2.2188 C   0  0  0  0  0  0  0  0  0  0  0  0
    4.5276   -2.2231   -3.9664 C   0  0  0  0  0  0  0  0  0  0  0  0
    5.1041   -2.6526   -5.2812 C   0  0  0  0  0  0  0  0  0  0  0  0
   -4.6291    2.6388   -0.4493 H   0  0  0  0  0  0  0  0  0  0  0  0
   -2.3287   -1.3241   -4.1652 H   0  0  0  0  0  0  0  0  0  0  0  0
   -4.8292   -2.6250   -1.8356 H   0  0  0  0  0  0  0  0  0  0  0  0
    5.8371    0.6637   -2.3368 H   0  0  0  0  0  0  0  0  0  0  0  0
    5.7802    0.0383   -0.8266 H   0  0  0  0  0  0  0  0  0  0  0  0
    3.7189   -0.4156    0.3519 H   0  0  0  0  0  0  0  0  0  0  0  0
    3.0109   -1.9923    0.4357 H   0  0  0  0  0  0  0  0  0  0  0  0
   -1.3144    2.4794    0.7444 H   0  0  0  0  0  0  0  0  0  0  0  0
   -0.2115    3.1698   -0.4391 H   0  0  0  0  0  0  0  0  0  0  0  0
    0.6819   -2.3840   -0.0024 H   0  0  0  0  0  0  0  0  0  0  0  0
   -2.4004    3.3333   -1.3370 H   0  0  0  0  0  0  0  0  0  0  0  0
   -1.5169    2.1511   -2.3142 H   0  0  0  0  0  0  0  0  0  0  0  0
    3.1416    1.7196    0.5582 H   0  0  0  0  0  0  0  0  0  0  0  0
    3.0218    1.7941   -1.2157 H   0  0  0  0  0  0  0  0  0  0  0  0
    2.0825    2.8880   -0.2067 H   0  0  0  0  0  0  0  0  0  0  0  0
    2.3310   -3.2337   -1.8146 H   0  0  0  0  0  0  0  0  0  0  0  0
    4.8781   -1.9070   -6.0487 H   0  0  0  0  0  0  0  0  0  0  0  0
    6.1909   -2.7557   -5.1984 H   0  0  0  0  0  0  0  0  0  0  0  0
    4.6927   -3.6161   -5.5978 H   0  0  0  0  0  0  0  0  0  0  0  0
  1 16  1  0  0  0  0
  1 19  1  0  0  0  0
  2  4  1  0  0  0  0
  2  5  1  0  0  0  0
  2  6  1  0  0  0  0
  2  7  2  0  0  0  0
  3  5  1  0  0  0  0
  3  8  1  0  0  0  0
  3  9  1  0  0  0  0
  3 10  2  0  0  0  0
  4 20  1  0  0  0  0
  6 27  1  0  0  0  0
  8 28  1  0  0  0  0
  9 29  1  0  0  0  0
 11 15  1  0  0  0  0
 11 17  1  0  0  0  0
 11 19  2  0  0  0  0
 12 23  2  0  0  0  0
 12 25  1  0  0  0  0
 13 24  1  0  0  0  0
 13 25  2  0  0  0  0
 14 23  1  0  0  0  0
 14 30  1  0  0  0  0
 14 31  1  0  0  0  0
 15 16  2  0  0  0  0
 15 22  1  0  0  0  0
 16 18  1  0  0  0  0
 17 21  1  0  0  0  0
 17 32  1  0  0  0  0
 17 33  1  0  0  0  0
 18 20  1  0  0  0  0
 18 34  1  0  0  0  0
 18 35  1  0  0  0  0
 19 36  1  0  0  0  0
 20 37  1  0  0  0  0
 20 38  1  0  0  0  0
 21 23  1  0  0  0  0
 21 24  2  0  0  0  0
 22 39  1  0  0  0  0
 22 40  1  0  0  0  0
 22 41  1  0  0  0  0
 24 42  1  0  0  0  0
 25 26  1  0  0  0  0
 26 43  1  0  0  0  0
 26 44  1  0  0  0  0
 26 45  1  0  0  0  0
M  CHG  1  11   1
M  END
>  <Mol_ID>
7898

>  <Formula>
C12H19ClN4O7P2S

>  <MolWeight>
460.767382

>  <Cat>
S6102

>  <Name>
Thiamine pyrophosphate hydrochloride

>  <Synonyms>
cocarboxylase hydrochloride

>  <Target>
Vitamin

>  <Form>
hydrochloride

>  <CAS>
154-87-0

>  <URL>
http://www.selleck.cn/products/thiamine-pyrophosphate-hydrochloride.html

$$$$
