Thiamphenicol.cdx
 OpenBabel08302521453D

 36 36  0  0  0  0  0  0  0  0999 V2000
    0.3209    3.7041    3.8851 C   0  0  0  0  0  0  0  0  0  0  0  0
   -0.5440    4.7895    4.0361 C   0  0  0  0  0  0  0  0  0  0  0  0
   -1.4783    5.0934    3.0497 C   0  0  0  0  0  0  0  0  0  0  0  0
   -1.5220    4.3177    1.8924 C   0  0  0  0  0  0  0  0  0  0  0  0
   -0.6752    3.2040    1.7168 C   0  0  0  0  0  0  0  0  0  0  0  0
    0.2476    2.9153    2.7341 C   0  0  0  0  0  0  0  0  0  0  0  0
   -0.4832    5.7891    5.4991 S   0  0  0  0  0  0  0  0  0  0  0  0
    0.4962    7.1763    4.9822 C   0  0  0  0  0  0  0  0  0  0  0  0
   -1.8287    6.2523    5.7680 O   0  0  0  0  0  0  0  0  0  0  0  0
    0.2658    5.0558    6.5029 O   0  0  0  0  0  0  0  0  0  0  0  0
   -0.8766    2.3869    0.4483 C   0  0  2  0  0  0  0  0  0  0  0  0
   -0.1889    0.9895    0.2792 C   0  0  2  0  0  0  0  0  0  0  0  0
   -0.5383    0.0430    1.3454 N   0  0  0  0  0  0  0  0  0  0  0  0
   -1.8299   -0.4082    1.5063 C   0  0  0  0  0  0  0  0  0  0  0  0
   -2.0623   -1.1698    2.7834 C   0  0  0  0  0  0  0  0  0  0  0  0
   -2.7199   -0.2177    0.6865 O   0  0  0  0  0  0  0  0  0  0  0  0
    1.3372    1.0372    0.0570 C   0  0  0  0  0  0  0  0  0  0  0  0
    1.7230    1.9283   -0.9817 O   0  0  0  0  0  0  0  0  0  0  0  0
   -0.5971    3.2366   -0.6703 O   0  0  0  0  0  0  0  0  0  0  0  0
    1.0444    3.4600    4.6615 H   0  0  0  0  0  0  0  0  0  0  0  0
   -2.1765    5.9172    3.1715 H   0  0  0  0  0  0  0  0  0  0  0  0
   -2.2420    4.5730    1.1148 H   0  0  0  0  0  0  0  0  0  0  0  0
    0.9222    2.0699    2.6719 H   0  0  0  0  0  0  0  0  0  0  0  0
    0.0034    7.6640    4.1383 H   0  0  0  0  0  0  0  0  0  0  0  0
    0.5706    7.8706    5.8207 H   0  0  0  0  0  0  0  0  0  0  0  0
    1.4889    6.8224    4.6997 H   0  0  0  0  0  0  0  0  0  0  0  0
   -1.9559    2.1974    0.4026 H   0  0  0  0  0  0  0  0  0  0  0  0
   -0.6059    0.5793   -0.6525 H   0  0  0  0  0  0  0  0  0  0  0  0
    0.1152   -0.1021    2.1035 H   0  0  0  0  0  0  0  0  0  0  0  0
   -3.0054   -0.8402    3.2278 H   0  0  0  0  0  0  0  0  0  0  0  0
   -2.1100   -2.2392    2.5632 H   0  0  0  0  0  0  0  0  0  0  0  0
   -1.2661   -0.9870    3.5102 H   0  0  0  0  0  0  0  0  0  0  0  0
    1.8692    1.3439    0.9598 H   0  0  0  0  0  0  0  0  0  0  0  0
    1.7135    0.0374   -0.1904 H   0  0  0  0  0  0  0  0  0  0  0  0
    1.3876    1.5582   -1.8204 H   0  0  0  0  0  0  0  0  0  0  0  0
    0.3642    3.4095   -0.6547 H   0  0  0  0  0  0  0  0  0  0  0  0
  1  2  2  0  0  0  0
  1 20  1  0  0  0  0
  2  3  1  0  0  0  0
  2  7  1  0  0  0  0
  3  4  2  0  0  0  0
  3 21  1  0  0  0  0
  4  5  1  0  0  0  0
  4 22  1  0  0  0  0
  5  6  2  0  0  0  0
  6  1  1  0  0  0  0
  6 23  1  0  0  0  0
  7  8  1  0  0  0  0
  7  9  2  0  0  0  0
  7 10  2  0  0  0  0
  8 24  1  0  0  0  0
  8 25  1  0  0  0  0
  8 26  1  0  0  0  0
 11 19  1  0  0  0  0
 11 27  1  6  0  0  0
 11 12  1  0  0  0  0
 11  5  1  0  0  0  0
 12 28  1  6  0  0  0
 12 17  1  0  0  0  0
 12 13  1  0  0  0  0
 13 14  1  0  0  0  0
 13 29  1  0  0  0  0
 14 15  1  0  0  0  0
 14 16  2  0  0  0  0
 15 30  1  0  0  0  0
 15 31  1  0  0  0  0
 15 32  1  0  0  0  0
 17 18  1  0  0  0  0
 17 33  1  0  0  0  0
 17 34  1  0  0  0  0
 18 35  1  0  0  0  0
 19 36  1  0  0  0  0
M  END
>  <Mol_ID>
941

>  <Formula>
C12H15Cl2NO5S

>  <MolWeight>
356.2222

>  <Cat>
S2583

>  <Name>
Thiamphenicol

>  <Synonyms>
Thiophenicol,Dextrosulphenidol

>  <Target>
Antibiotics

>  <Form>
free base

>  <CAS>
15318-45-3

>  <URL>
http://selleckchem.com/products/thiamphenicol-thiophenicol.html

$$$$
