Thiamine monochloride
 OpenBabel08302521303D

 35 36  0  0  0  0  0  0  0  0999 V2000
   -1.5909   -0.1799   -0.1078 S   0  0  0  0  0  0  0  0  0  0  0  0
   -2.3049    2.3193    2.1709 O   0  0  0  0  0  0  0  0  0  0  0  0
    0.9018   -0.5032    0.0074 N   0  3  0  0  0  0  0  0  0  0  0  0
    2.4333   -2.4584    3.5740 N   0  0  0  0  0  0  0  0  0  0  0  0
    4.3323   -1.1152    3.1226 N   0  0  0  0  0  0  0  0  0  0  0  0
    0.8957   -3.0225    1.9670 N   0  0  0  0  0  0  0  0  0  0  0  0
    0.7248    0.8826    0.0425 C   0  0  0  0  0  0  0  0  0  0  0  0
    2.1990   -1.2085    0.0189 C   0  0  0  0  0  0  0  0  0  0  0  0
   -0.6156    1.2345   -0.0100 C   0  0  0  0  0  0  0  0  0  0  0  0
   -1.2836    2.5862   -0.0222 C   0  0  0  0  0  0  0  0  0  0  0  0
   -0.2229   -1.1922   -0.1070 C   0  0  0  0  0  0  0  0  0  0  0  0
    2.6874   -1.4769    1.4072 C   0  0  0  0  0  0  0  0  0  0  0  0
    1.9049    1.7811    0.0834 C   0  0  0  0  0  0  0  0  0  0  0  0
   -1.4842    3.1667    1.3779 C   0  0  0  0  0  0  0  0  0  0  0  0
    2.0204   -2.2720    2.3166 C   0  0  0  0  0  0  0  0  0  0  0  0
    3.8711   -0.9406    1.8732 C   0  0  0  0  0  0  0  0  0  0  0  0
    3.5817   -1.8665    3.9429 C   0  0  0  0  0  0  0  0  0  0  0  0
    4.0408   -2.0655    5.3539 C   0  0  0  0  0  0  0  0  0  0  0  0
   -3.2264    2.4199    1.8706 H   0  0  0  0  0  0  0  0  0  0  0  0
    0.5637   -3.4089    2.8590 H   0  0  0  0  0  0  0  0  0  0  0  0
    1.1781   -3.8270    1.4083 H   0  0  0  0  0  0  0  0  0  0  0  0
    2.1085   -2.1529   -0.5312 H   0  0  0  0  0  0  0  0  0  0  0  0
    2.9271   -0.6128   -0.5468 H   0  0  0  0  0  0  0  0  0  0  0  0
   -0.6835    3.2806   -0.6204 H   0  0  0  0  0  0  0  0  0  0  0  0
   -2.2592    2.5066   -0.5182 H   0  0  0  0  0  0  0  0  0  0  0  0
   -0.2934   -2.2693   -0.1839 H   0  0  0  0  0  0  0  0  0  0  0  0
    2.5170    1.5898    0.9672 H   0  0  0  0  0  0  0  0  0  0  0  0
    2.5193    1.6485   -0.8130 H   0  0  0  0  0  0  0  0  0  0  0  0
    1.6050    2.8332    0.1146 H   0  0  0  0  0  0  0  0  0  0  0  0
   -0.5270    3.2882    1.8949 H   0  0  0  0  0  0  0  0  0  0  0  0
   -1.9605    4.1512    1.3178 H   0  0  0  0  0  0  0  0  0  0  0  0
    4.5228   -0.3331    1.2478 H   0  0  0  0  0  0  0  0  0  0  0  0
    3.3437   -1.5765    6.0403 H   0  0  0  0  0  0  0  0  0  0  0  0
    4.0792   -3.1332    5.5896 H   0  0  0  0  0  0  0  0  0  0  0  0
    5.0379   -1.6416    5.5069 H   0  0  0  0  0  0  0  0  0  0  0  0
  1  9  1  0  0  0  0
  1 11  1  0  0  0  0
  2 14  1  0  0  0  0
  2 19  1  0  0  0  0
  3  7  1  0  0  0  0
  3  8  1  0  0  0  0
  3 11  2  0  0  0  0
  4 15  2  0  0  0  0
  4 17  1  0  0  0  0
  5 16  1  0  0  0  0
  5 17  2  0  0  0  0
  6 15  1  0  0  0  0
  6 20  1  0  0  0  0
  6 21  1  0  0  0  0
  7  9  2  0  0  0  0
  7 13  1  0  0  0  0
  8 12  1  0  0  0  0
  8 22  1  0  0  0  0
  8 23  1  0  0  0  0
  9 10  1  0  0  0  0
 10 14  1  0  0  0  0
 10 24  1  0  0  0  0
 10 25  1  0  0  0  0
 11 26  1  0  0  0  0
 12 15  1  0  0  0  0
 12 16  2  0  0  0  0
 13 27  1  0  0  0  0
 13 28  1  0  0  0  0
 13 29  1  0  0  0  0
 14 30  1  0  0  0  0
 14 31  1  0  0  0  0
 16 32  1  0  0  0  0
 17 18  1  0  0  0  0
 18 33  1  0  0  0  0
 18 34  1  0  0  0  0
 18 35  1  0  0  0  0
M  CHG  1   3   1
M  END
>  <Mol_ID>
5647

>  <Formula>
C12H17ClN4OS

>  <MolWeight>
300.80758

>  <Cat>
S4486

>  <Name>
Thiamine monochloride

>  <Synonyms>
Vitamin B1

>  <Target>
Vitamin

>  <Form>
Monochloride

>  <CAS>
59-43-8

>  <URL>
http://www.selleckchem.com/products/thiamine-monochloride.html

$$$$
