Thiamine nitrate
 OpenBabel08302521303D

 39 39  0  0  0  0  0  0  0  0999 V2000
   -1.8390   -0.2136    0.2217 S   0  0  0  0  0  0  0  0  0  0  0  0
   -1.4727    2.4181   -2.3610 O   0  0  0  0  0  0  0  0  0  0  0  0
    2.4946    0.5221   -2.3918 O   0  5  0  0  0  0  0  0  0  0  0  0
    4.2068   -0.7477   -2.1632 O   0  5  0  0  0  0  0  0  0  0  0  0
    4.2072    1.2211   -1.3077 O   0  0  0  0  0  0  0  0  0  0  0  0
    0.6563   -0.4531    0.4396 N   0  3  0  0  0  0  0  0  0  0  0  0
    2.4933   -2.2684    3.9715 N   0  0  0  0  0  0  0  0  0  0  0  0
    4.3589   -0.9653    3.2967 N   0  0  0  0  0  0  0  0  0  0  0  0
    0.8218   -2.8916    2.5126 N   0  0  0  0  0  0  0  0  0  0  0  0
    3.6683    0.3548   -2.0115 N   0  3  0  0  0  0  0  0  0  0  0  0
    0.4331    0.9253    0.4410 C   0  0  0  0  0  0  0  0  0  0  0  0
    1.9749   -1.1088    0.4112 C   0  0  0  0  0  0  0  0  0  0  0  0
   -0.9079    1.2284    0.2611 C   0  0  0  0  0  0  0  0  0  0  0  0
   -1.5790    2.5610    0.0623 C   0  0  0  0  0  0  0  0  0  0  0  0
   -0.4367   -1.1806    0.2882 C   0  0  0  0  0  0  0  0  0  0  0  0
    2.5517   -1.3632    1.7618 C   0  0  0  0  0  0  0  0  0  0  0  0
    1.5529    1.8950    0.5341 C   0  0  0  0  0  0  0  0  0  0  0  0
   -1.1477    3.2355   -1.2428 C   0  0  0  0  0  0  0  0  0  0  0  0
    1.9737   -2.1354    2.7465 C   0  0  0  0  0  0  0  0  0  0  0  0
    3.7933   -0.8390    2.0892 C   0  0  0  0  0  0  0  0  0  0  0  0
    3.6723   -1.6610    4.2102 C   0  0  0  0  0  0  0  0  0  0  0  0
    4.2360   -1.7361    5.5938 C   0  0  0  0  0  0  0  0  0  0  0  0
   -0.7149    1.8249   -2.5250 H   0  0  0  0  0  0  0  0  0  0  0  0
    0.6086   -3.3236    3.4172 H   0  0  0  0  0  0  0  0  0  0  0  0
    1.0301   -3.6461    1.8615 H   0  0  0  0  0  0  0  0  0  0  0  0
    1.9249   -2.0395   -0.1667 H   0  0  0  0  0  0  0  0  0  0  0  0
    2.6452   -0.4488   -0.1123 H   0  0  0  0  0  0  0  0  0  0  0  0
   -2.6690    2.4317    0.0433 H   0  0  0  0  0  0  0  0  0  0  0  0
   -1.3506    3.2165    0.9105 H   0  0  0  0  0  0  0  0  0  0  0  0
   -0.4600   -2.2589    0.2068 H   0  0  0  0  0  0  0  0  0  0  0  0
    2.3792    1.5361    1.1478 H   0  0  0  0  0  0  0  0  0  0  0  0
    1.9183    2.1468   -0.4628 H   0  0  0  0  0  0  0  0  0  0  0  0
    1.2090    2.8322    0.9863 H   0  0  0  0  0  0  0  0  0  0  0  0
   -1.6832    4.1832   -1.3588 H   0  0  0  0  0  0  0  0  0  0  0  0
   -0.0762    3.4582   -1.2634 H   0  0  0  0  0  0  0  0  0  0  0  0
    4.3912   -0.2847    1.3647 H   0  0  0  0  0  0  0  0  0  0  0  0
    3.6006   -1.1656    6.2773 H   0  0  0  0  0  0  0  0  0  0  0  0
    4.2812   -2.7759    5.9301 H   0  0  0  0  0  0  0  0  0  0  0  0
    5.2462   -1.3173    5.6287 H   0  0  0  0  0  0  0  0  0  0  0  0
  1 13  1  0  0  0  0
  1 15  1  0  0  0  0
  2 18  1  0  0  0  0
  2 23  1  0  0  0  0
  3 10  1  0  0  0  0
  4 10  1  0  0  0  0
  5 10  2  0  0  0  0
  6 11  1  0  0  0  0
  6 12  1  0  0  0  0
  6 15  2  0  0  0  0
  7 19  2  0  0  0  0
  7 21  1  0  0  0  0
  8 20  1  0  0  0  0
  8 21  2  0  0  0  0
  9 19  1  0  0  0  0
  9 24  1  0  0  0  0
  9 25  1  0  0  0  0
 11 13  2  0  0  0  0
 11 17  1  0  0  0  0
 12 16  1  0  0  0  0
 12 26  1  0  0  0  0
 12 27  1  0  0  0  0
 13 14  1  0  0  0  0
 14 18  1  0  0  0  0
 14 28  1  0  0  0  0
 14 29  1  0  0  0  0
 15 30  1  0  0  0  0
 16 19  1  0  0  0  0
 16 20  2  0  0  0  0
 17 31  1  0  0  0  0
 17 32  1  0  0  0  0
 17 33  1  0  0  0  0
 18 34  1  0  0  0  0
 18 35  1  0  0  0  0
 20 36  1  0  0  0  0
 21 22  1  0  0  0  0
 22 37  1  0  0  0  0
 22 38  1  0  0  0  0
 22 39  1  0  0  0  0
M  CHG  4   3  -1   4  -1   6   1  10   1
M  END
>  <Mol_ID>
5635

>  <Formula>
C12H17N5O4S

>  <MolWeight>
327.35948

>  <Cat>
S5955

>  <Name>
Thiamine nitrate

>  <Synonyms>
Vitamin B1 nitrate

>  <Target>
Vitamin

>  <Form>
Nitrate

>  <CAS>
532-43-4

>  <URL>
http://www.selleckchem.com/products/thiamine-nitrate.html

$$$$
