Thiamine hydrochloride.cdx
 OpenBabel08302521383D

 35 36  0  0  0  0  0  0  0  0999 V2000
   -1.5603   -0.2376    0.0082 S   0  0  0  0  0  0  0  0  0  0  0  0
   -0.1718   -1.2266    0.0021 C   0  0  0  0  0  0  0  0  0  0  0  0
    0.9399   -0.5077    0.0425 N   0  3  0  0  0  0  0  0  0  0  0  0
    0.7336    0.8743    0.0488 C   0  0  0  0  0  0  0  0  0  0  0  0
   -0.6134    1.1990    0.0268 C   0  0  0  0  0  0  0  0  0  0  0  0
    1.8907    1.8032    0.0362 C   0  0  0  0  0  0  0  0  0  0  0  0
   -1.3000    2.5426   -0.0196 C   0  0  0  0  0  0  0  0  0  0  0  0
   -1.5013    3.1656    1.3617 C   0  0  0  0  0  0  0  0  0  0  0  0
   -2.3074    2.3336    2.1845 O   0  0  0  0  0  0  0  0  0  0  0  0
    2.2522   -1.1827    0.0096 C   0  0  0  0  0  0  0  0  0  0  0  0
    3.2672   -2.3408    3.9243 C   0  0  0  0  0  0  0  0  0  0  0  0
    2.5549   -3.2019    3.1767 N   0  0  0  0  0  0  0  0  0  0  0  0
    2.2799   -2.8467    1.9196 C   0  0  0  0  0  0  0  0  0  0  0  0
    2.6602   -1.6338    1.3737 C   0  0  0  0  0  0  0  0  0  0  0  0
    3.4049   -0.8338    2.2145 C   0  0  0  0  0  0  0  0  0  0  0  0
    3.7162   -1.1584    3.4778 N   0  0  0  0  0  0  0  0  0  0  0  0
    3.5708   -2.7235    5.3388 C   0  0  0  0  0  0  0  0  0  0  0  0
    1.6000   -3.8092    1.1702 N   0  0  0  0  0  0  0  0  0  0  0  0
   -0.2198   -2.3078   -0.0399 H   0  0  0  0  0  0  0  0  0  0  0  0
    2.5128    1.6690    0.9228 H   0  0  0  0  0  0  0  0  0  0  0  0
    2.5020    1.6490   -0.8581 H   0  0  0  0  0  0  0  0  0  0  0  0
    1.5674    2.8486    0.0308 H   0  0  0  0  0  0  0  0  0  0  0  0
   -0.7110    3.2277   -0.6406 H   0  0  0  0  0  0  0  0  0  0  0  0
   -2.2752    2.4365   -0.5110 H   0  0  0  0  0  0  0  0  0  0  0  0
   -0.5442    3.3175    1.8703 H   0  0  0  0  0  0  0  0  0  0  0  0
   -1.9918    4.1414    1.2715 H   0  0  0  0  0  0  0  0  0  0  0  0
   -3.2303    2.4082    1.8806 H   0  0  0  0  0  0  0  0  0  0  0  0
    2.1968   -2.0283   -0.6883 H   0  0  0  0  0  0  0  0  0  0  0  0
    3.0114   -0.5187   -0.4171 H   0  0  0  0  0  0  0  0  0  0  0  0
    3.7993    0.1294    1.9060 H   0  0  0  0  0  0  0  0  0  0  0  0
    2.6413   -2.8017    5.9098 H   0  0  0  0  0  0  0  0  0  0  0  0
    4.0862   -3.6884    5.3644 H   0  0  0  0  0  0  0  0  0  0  0  0
    4.2110   -1.9769    5.8182 H   0  0  0  0  0  0  0  0  0  0  0  0
    1.3957   -4.5583    1.8427 H   0  0  0  0  0  0  0  0  0  0  0  0
    2.2168   -4.2219    0.4710 H   0  0  0  0  0  0  0  0  0  0  0  0
  1  2  1  0  0  0  0
  1  5  1  0  0  0  0
  2  3  2  0  0  0  0
  2 19  1  0  0  0  0
  3  4  1  0  0  0  0
  3 10  1  0  0  0  0
  4  5  2  0  0  0  0
  4  6  1  0  0  0  0
  5  7  1  0  0  0  0
  6 20  1  0  0  0  0
  6 21  1  0  0  0  0
  6 22  1  0  0  0  0
  7  8  1  0  0  0  0
  7 23  1  0  0  0  0
  7 24  1  0  0  0  0
  8  9  1  0  0  0  0
  8 25  1  0  0  0  0
  8 26  1  0  0  0  0
  9 27  1  0  0  0  0
 10 14  1  0  0  0  0
 10 28  1  0  0  0  0
 10 29  1  0  0  0  0
 11 12  2  0  0  0  0
 11 16  1  0  0  0  0
 11 17  1  0  0  0  0
 12 13  1  0  0  0  0
 13 14  2  0  0  0  0
 13 18  1  0  0  0  0
 14 15  1  0  0  0  0
 15 16  2  0  0  0  0
 15 30  1  0  0  0  0
 17 31  1  0  0  0  0
 17 32  1  0  0  0  0
 17 33  1  0  0  0  0
 18 34  1  0  0  0  0
 18 35  1  0  0  0  0
M  CHG  1   3   1
M  END
>  <Mol_ID>
7718

>  <Formula>
C12H18Cl2N4OS

>  <MolWeight>
337.26852

>  <Cat>
S3211

>  <Name>
Thiamine HCl (Vitamin B1)

>  <Synonyms>
N/A

>  <Target>
Vitamin

>  <Form>
Hydrochloride

>  <CAS>
67-03-8

>  <URL>
http://selleckchem.com/products/thiamine-hcl-vitamin-b1.html

$$$$
