Thiaproline
 OpenBabel08302521363D

 15 15  0  0  1  0  0  0  0  0999 V2000
    3.1436   -0.4984   -1.3617 C   0  0  0  0  0  0  0  0  0  0  0  0
    3.4737   -1.8166   -1.3205 O   0  0  0  0  0  0  0  0  0  0  0  0
    3.2161    0.1774   -2.3775 O   0  0  0  0  0  0  0  0  0  0  0  0
    2.6134   -0.0102   -0.0089 C   0  0  2  0  0  0  0  0  0  0  0  0
    3.0894    1.4105    0.2999 C   0  0  0  0  0  0  0  0  0  0  0  0
    3.0059   -0.9971    1.0639 N   0  0  0  0  0  0  0  0  0  0  0  0
    3.9243    1.2984    1.8980 S   0  0  0  0  0  0  0  0  0  0  0  0
    4.2050   -0.4605    1.7164 C   0  0  0  0  0  0  0  0  0  0  0  0
    3.3366   -2.1127   -0.3870 H   0  0  0  0  0  0  0  0  0  0  0  0
    1.5201   -0.0355   -0.0968 H   0  0  0  0  0  0  0  0  0  0  0  0
    3.7983    1.8003   -0.4362 H   0  0  0  0  0  0  0  0  0  0  0  0
    2.2474    2.1034    0.3829 H   0  0  0  0  0  0  0  0  0  0  0  0
    2.2737   -0.9402    1.7795 H   0  0  0  0  0  0  0  0  0  0  0  0
    4.3600   -0.9313    2.6913 H   0  0  0  0  0  0  0  0  0  0  0  0
    5.0958   -0.6370    1.1053 H   0  0  0  0  0  0  0  0  0  0  0  0
  1  2  1  0  0  0  0
  1  3  2  0  0  0  0
  2  9  1  0  0  0  0
  4  5  1  0  0  0  0
  4  6  1  0  0  0  0
  4 10  1  6  0  0  0
  4  1  1  0  0  0  0
  5  7  1  0  0  0  0
  5 11  1  0  0  0  0
  5 12  1  0  0  0  0
  6  8  1  0  0  0  0
  6 13  1  0  0  0  0
  7  8  1  0  0  0  0
  8 14  1  0  0  0  0
  8 15  1  0  0  0  0
M  END
>  <Mol_ID>
7311

>  <Formula>
C4H7NO2S

>  <MolWeight>
133.16888

>  <Cat>
E4344

>  <Name>
Thiaproline

>  <Synonyms>
Thiaproline

>  <Target>
Others

>  <Form>
free base

>  <CAS>
34592-47-7

>  <URL>
https://www.selleckchem.com/products/thiaproline.html

$$$$
