Thiazovivin.cdx
 OpenBabel08302519593D

 35 37  0  0  0  0  0  0  0  0999 V2000
   -0.8618    0.6325    0.1910 C   0  0  0  0  0  0  0  0  0  0  0  0
   -0.3978   -1.0242    0.0364 S   0  0  0  0  0  0  0  0  0  0  0  0
    1.2493   -0.5601   -0.0628 C   0  0  0  0  0  0  0  0  0  0  0  0
    1.3583    0.8160   -0.0250 C   0  0  0  0  0  0  0  0  0  0  0  0
    0.1419    1.4774    0.1035 N   0  0  0  0  0  0  0  0  0  0  0  0
   -2.1546    0.9592    0.4102 N   0  0  0  0  0  0  0  0  0  0  0  0
    2.6183    1.5642   -0.0845 C   0  0  0  0  0  0  0  0  0  0  0  0
    2.4329    2.9274   -0.0372 N   0  0  0  0  0  0  0  0  0  0  0  0
   -2.6150    2.1382    1.0056 C   0  0  0  0  0  0  0  0  0  0  0  0
   -1.8913    3.3169    1.0266 C   0  0  0  0  0  0  0  0  0  0  0  0
   -2.4185    4.3716    1.7301 C   0  0  0  0  0  0  0  0  0  0  0  0
   -3.6029    4.3206    2.3522 N   0  0  0  0  0  0  0  0  0  0  0  0
   -4.2557    3.1568    2.2374 C   0  0  0  0  0  0  0  0  0  0  0  0
   -3.8228    2.0587    1.5937 N   0  0  0  0  0  0  0  0  0  0  0  0
    3.7107    1.0180   -0.1598 O   0  0  0  0  0  0  0  0  0  0  0  0
    3.5211    3.8729   -0.0210 C   0  0  0  0  0  0  0  0  0  0  0  0
    3.4932    4.7930   -1.2155 C   0  0  0  0  0  0  0  0  0  0  0  0
    3.4386    6.1860   -1.0512 C   0  0  0  0  0  0  0  0  0  0  0  0
    3.4754    7.0345   -2.1612 C   0  0  0  0  0  0  0  0  0  0  0  0
    3.5671    6.5017   -3.4454 C   0  0  0  0  0  0  0  0  0  0  0  0
    3.6203    5.1210   -3.6220 C   0  0  0  0  0  0  0  0  0  0  0  0
    3.5861    4.2722   -2.5144 C   0  0  0  0  0  0  0  0  0  0  0  0
    2.0434   -1.2894   -0.1425 H   0  0  0  0  0  0  0  0  0  0  0  0
   -2.8280    0.2169    0.5562 H   0  0  0  0  0  0  0  0  0  0  0  0
    1.4777    3.2570    0.0019 H   0  0  0  0  0  0  0  0  0  0  0  0
   -0.9409    3.4333    0.5284 H   0  0  0  0  0  0  0  0  0  0  0  0
   -1.8749    5.3084    1.8169 H   0  0  0  0  0  0  0  0  0  0  0  0
   -5.2258    3.0939    2.7172 H   0  0  0  0  0  0  0  0  0  0  0  0
    3.4162    4.4453    0.9082 H   0  0  0  0  0  0  0  0  0  0  0  0
    4.4877    3.3585    0.0181 H   0  0  0  0  0  0  0  0  0  0  0  0
    3.3817    6.6249   -0.0575 H   0  0  0  0  0  0  0  0  0  0  0  0
    3.4433    8.1126   -2.0242 H   0  0  0  0  0  0  0  0  0  0  0  0
    3.6050    7.1620   -4.3081 H   0  0  0  0  0  0  0  0  0  0  0  0
    3.6998    4.7032   -4.6224 H   0  0  0  0  0  0  0  0  0  0  0  0
    3.6464    3.1960   -2.6665 H   0  0  0  0  0  0  0  0  0  0  0  0
  1  2  1  0  0  0  0
  1  6  1  0  0  0  0
  2  3  1  0  0  0  0
  3  4  2  0  0  0  0
  3 23  1  0  0  0  0
  4  5  1  0  0  0  0
  4  7  1  0  0  0  0
  5  1  2  0  0  0  0
  6  9  1  0  0  0  0
  6 24  1  0  0  0  0
  7  8  1  0  0  0  0
  7 15  2  0  0  0  0
  8 16  1  0  0  0  0
  8 25  1  0  0  0  0
  9 10  2  0  0  0  0
 10 11  1  0  0  0  0
 10 26  1  0  0  0  0
 11 12  2  0  0  0  0
 11 27  1  0  0  0  0
 12 13  1  0  0  0  0
 13 14  2  0  0  0  0
 13 28  1  0  0  0  0
 14  9  1  0  0  0  0
 16 17  1  0  0  0  0
 16 29  1  0  0  0  0
 16 30  1  0  0  0  0
 17 18  2  0  0  0  0
 18 19  1  0  0  0  0
 18 31  1  0  0  0  0
 19 20  2  0  0  0  0
 19 32  1  0  0  0  0
 20 21  1  0  0  0  0
 20 33  1  0  0  0  0
 21 22  2  0  0  0  0
 21 34  1  0  0  0  0
 22 17  1  0  0  0  0
 22 35  1  0  0  0  0
M  END
>  <Mol_ID>
268

>  <Formula>
C15H13N5OS

>  <MolWeight>
311.36162

>  <Cat>
S1459

>  <Name>
Thiazovivin

>  <Synonyms>
N/A

>  <Target>
ROCK

>  <Form>
free base

>  <CAS>
1226056-71-8

>  <URL>
http://selleckchem.com/products/Thiazovivin.html

$$$$
