Thiamet G.cdx
 OpenBabel08302519573D

 32 33  0  0  0  0  0  0  0  0999 V2000
    1.8726   -1.0674   -0.1533 C   0  0  2  0  0  0  0  0  0  0  0  0
    2.0370    0.3924   -0.5865 C   0  0  2  0  0  0  0  0  0  0  0  0
    1.2289    1.3585    0.2902 C   0  0  1  0  0  0  0  0  0  0  0  0
   -0.1880    0.8618    0.6526 C   0  0  2  0  0  0  0  0  0  0  0  0
   -0.3975   -0.6596    0.6033 C   0  0  2  0  0  0  0  0  0  0  0  0
    0.4810   -1.4124   -0.2172 O   0  0  0  0  0  0  0  0  0  0  0  0
   -1.1571    1.5685   -0.2298 N   0  0  0  0  0  0  0  0  0  0  0  0
   -2.1393    0.7969   -0.5561 C   0  0  0  0  0  0  0  0  0  0  0  0
   -2.0928   -0.8465   -0.0157 S   0  0  0  0  0  0  0  0  0  0  0  0
   -3.2210    1.1771   -1.2881 N   0  0  0  0  0  0  0  0  0  0  0  0
   -3.6712    2.5618   -1.2639 C   0  0  0  0  0  0  0  0  0  0  0  0
   -4.8767    2.7486   -2.1626 C   0  0  0  0  0  0  0  0  0  0  0  0
    2.5288   -1.3973    1.1974 C   0  0  0  0  0  0  0  0  0  0  0  0
    1.9932    1.6975    1.4595 O   0  0  0  0  0  0  0  0  0  0  0  0
    1.6061    0.5079   -1.9518 O   0  0  0  0  0  0  0  0  0  0  0  0
    2.3958   -2.7787    1.5223 O   0  0  0  0  0  0  0  0  0  0  0  0
    2.3422   -1.7076   -0.9090 H   0  0  0  0  0  0  0  0  0  0  0  0
    3.0976    0.6673   -0.5633 H   0  0  0  0  0  0  0  0  0  0  0  0
    1.1333    2.3041   -0.2601 H   0  0  0  0  0  0  0  0  0  0  0  0
   -0.4272    1.1992    1.6726 H   0  0  0  0  0  0  0  0  0  0  0  0
   -0.3512   -1.0785    1.6134 H   0  0  0  0  0  0  0  0  0  0  0  0
   -3.9497    0.4773   -1.3647 H   0  0  0  0  0  0  0  0  0  0  0  0
   -3.9435    2.8392   -0.2347 H   0  0  0  0  0  0  0  0  0  0  0  0
   -2.8667    3.2293   -1.5905 H   0  0  0  0  0  0  0  0  0  0  0  0
   -5.7265    2.1607   -1.8084 H   0  0  0  0  0  0  0  0  0  0  0  0
   -5.1802    3.8032   -2.1813 H   0  0  0  0  0  0  0  0  0  0  0  0
   -4.6597    2.4358   -3.1925 H   0  0  0  0  0  0  0  0  0  0  0  0
    3.5994   -1.1725    1.1578 H   0  0  0  0  0  0  0  0  0  0  0  0
    2.0922   -0.8429    2.0296 H   0  0  0  0  0  0  0  0  0  0  0  0
    1.6946    1.1875    2.2277 H   0  0  0  0  0  0  0  0  0  0  0  0
    0.7070    0.1311   -2.0086 H   0  0  0  0  0  0  0  0  0  0  0  0
    1.4471   -2.9705    1.6274 H   0  0  0  0  0  0  0  0  0  0  0  0
  1  2  1  0  0  0  0
  1 17  1  6  0  0  0
  1 13  1  0  0  0  0
  2  3  1  0  0  0  0
  2 18  1  1  0  0  0
  2 15  1  0  0  0  0
  3  4  1  0  0  0  0
  3 14  1  0  0  0  0
  3 19  1  6  0  0  0
  4  5  1  0  0  0  0
  4  7  1  0  0  0  0
  4 20  1  1  0  0  0
  5  6  1  0  0  0  0
  5 21  1  1  0  0  0
  6  1  1  0  0  0  0
  7  8  2  0  0  0  0
  8  9  1  0  0  0  0
  8 10  1  0  0  0  0
  9  5  1  0  0  0  0
 10 11  1  0  0  0  0
 10 22  1  0  0  0  0
 11 12  1  0  0  0  0
 11 23  1  0  0  0  0
 11 24  1  0  0  0  0
 12 25  1  0  0  0  0
 12 26  1  0  0  0  0
 12 27  1  0  0  0  0
 13 16  1  0  0  0  0
 13 28  1  0  0  0  0
 13 29  1  0  0  0  0
 14 30  1  0  0  0  0
 15 31  1  0  0  0  0
 16 32  1  0  0  0  0
M  END
>  <Mol_ID>
2252

>  <Formula>
C9H16N2O4S

>  <MolWeight>
248.29934

>  <Cat>
S7213

>  <Name>
Thiamet G

>  <Synonyms>
N/A

>  <Target>
OGA

>  <Form>
free base

>  <CAS>
1009816-48-1

>  <URL>
http://selleckchem.com/products/thiamet-g.html

$$$$
