Thiotepa.cdx
 OpenBabel08302521203D

 23 25  0  0  0  0  0  0  0  0999 V2000
    0.9089    0.0411    0.0035 P   0  0  0  0  0  0  0  0  0  0  0  0
    0.6501    1.6970    0.5130 N   0  0  0  0  0  0  0  0  0  0  0  0
    0.7736    0.0823   -1.7443 N   0  0  0  0  0  0  0  0  0  0  0  0
   -0.8711    0.0411    0.0035 N   0  0  0  0  0  0  0  0  0  0  0  0
    2.8063    0.0411    0.0035 S   0  0  0  0  0  0  0  0  0  0  0  0
    1.3718    1.1771   -2.5362 C   0  0  0  0  0  0  0  0  0  0  0  0
   -0.1078    1.0158   -2.4635 C   0  0  0  0  0  0  0  0  0  0  0  0
    1.6219    2.7168    0.9030 C   0  0  0  0  0  0  0  0  0  0  0  0
    0.8229    1.9884    1.9444 C   0  0  0  0  0  0  0  0  0  0  0  0
   -1.6385   -0.5083    1.0995 C   0  0  0  0  0  0  0  0  0  0  0  0
   -1.5804   -1.2134   -0.2363 C   0  0  0  0  0  0  0  0  0  0  0  0
    1.8062    2.0233   -2.0193 H   0  0  0  0  0  0  0  0  0  0  0  0
    1.8915    0.8621   -3.4314 H   0  0  0  0  0  0  0  0  0  0  0  0
   -0.6203    0.6028   -3.3219 H   0  0  0  0  0  0  0  0  0  0  0  0
   -0.6630    1.7539   -1.8986 H   0  0  0  0  0  0  0  0  0  0  0  0
    2.6892    2.5442    0.8686 H   0  0  0  0  0  0  0  0  0  0  0  0
    1.3494    3.7374    0.6646 H   0  0  0  0  0  0  0  0  0  0  0  0
    0.0244    2.5347    2.4270 H   0  0  0  0  0  0  0  0  0  0  0  0
    1.3379    1.2570    2.5556 H   0  0  0  0  0  0  0  0  0  0  0  0
   -1.1074   -0.9308    1.9382 H   0  0  0  0  0  0  0  0  0  0  0  0
   -2.5414    0.0481    1.3383 H   0  0  0  0  0  0  0  0  0  0  0  0
   -2.4160   -1.1269   -0.9160 H   0  0  0  0  0  0  0  0  0  0  0  0
   -0.9876   -2.1121   -0.3212 H   0  0  0  0  0  0  0  0  0  0  0  0
  1  2  1  0  0  0  0
  1  3  1  0  0  0  0
  1  4  1  0  0  0  0
  1  5  2  0  0  0  0
  2  8  1  0  0  0  0
  3  6  1  0  0  0  0
  4 10  1  0  0  0  0
  6  7  1  0  0  0  0
  6 12  1  0  0  0  0
  6 13  1  0  0  0  0
  7  3  1  0  0  0  0
  7 14  1  0  0  0  0
  7 15  1  0  0  0  0
  8  9  1  0  0  0  0
  8 16  1  0  0  0  0
  8 17  1  0  0  0  0
  9  2  1  0  0  0  0
  9 18  1  0  0  0  0
  9 19  1  0  0  0  0
 10 11  1  0  0  0  0
 10 20  1  0  0  0  0
 10 21  1  0  0  0  0
 11  4  1  0  0  0  0
 11 22  1  0  0  0  0
 11 23  1  0  0  0  0
M  END
>  <Mol_ID>
435

>  <Formula>
C6H12N3PS

>  <MolWeight>
189.218341

>  <Cat>
S1775

>  <Name>
Thiotepa

>  <Synonyms>
Tiofosyl, Tiofosfamid, Triethylenethiophosphoramide

>  <Target>
Antineoplastic and Immunosuppressive Antibiotics

>  <Form>
free base

>  <CAS>
52-24-4

>  <URL>
http://selleckchem.com/products/thiotepa-thioplex.html

$$$$
