Thiobarbituric acid
 OpenBabel08302521353D

 13 13  0  0  0  0  0  0  0  0999 V2000
    1.3500    0.1530   -0.6500 O   0  0  0  0  0  0  0  0  0  0  0  0
    4.6894   -2.2344    1.6207 O   0  0  0  0  0  0  0  0  0  0  0  0
    4.8301    2.6425    1.7020 S   0  0  0  0  0  0  0  0  0  0  0  0
    3.1710   -1.2219    0.0732 C   0  0  0  0  0  0  0  0  0  0  0  0
    2.4472    0.0756   -0.0993 C   0  0  0  0  0  0  0  0  0  0  0  0
    4.2445   -1.2062    1.1134 C   0  0  0  0  0  0  0  0  0  0  0  0
    3.0831    1.1989    0.3529 N   0  0  0  0  0  0  0  0  0  0  0  0
    4.7475    0.0178    1.4590 N   0  0  0  0  0  0  0  0  0  0  0  0
    4.1948    1.2163    1.1339 C   0  0  0  0  0  0  0  0  0  0  0  0
    2.4377   -1.9871    0.3500 H   0  0  0  0  0  0  0  0  0  0  0  0
    3.6277   -1.4886   -0.8861 H   0  0  0  0  0  0  0  0  0  0  0  0
    2.6072    2.0770    0.1849 H   0  0  0  0  0  0  0  0  0  0  0  0
    5.5120    0.0128    2.1246 H   0  0  0  0  0  0  0  0  0  0  0  0
  1  5  2  0  0  0  0
  2  6  2  0  0  0  0
  3  9  2  0  0  0  0
  4  5  1  0  0  0  0
  4  6  1  0  0  0  0
  4 10  1  0  0  0  0
  4 11  1  0  0  0  0
  5  7  1  0  0  0  0
  6  8  1  0  0  0  0
  7  9  1  0  0  0  0
  7 12  1  0  0  0  0
  8  9  1  0  0  0  0
  8 13  1  0  0  0  0
M  END
>  <Mol_ID>
7009

>  <Formula>
C4H4N2O2S

>  <MolWeight>
144.15176

>  <Cat>
E4407

>  <Name>
Thiobarbituric acid

>  <Synonyms>
Thiobarbituric acid

>  <Target>
Antibacterial

>  <Form>
free base

>  <CAS>
504-17-6

>  <URL>
https://www.selleckchem.com/products/thiobarbituric-acid.html

$$$$
