Thonzylamine
 OpenBabel08302520403D

 43 44  0  0  0  0  0  0  0  0999 V2000
    1.0578    1.0310   -2.2381 C   0  0  0  0  0  0  0  0  0  0  0  0
    1.9730    1.9135   -1.5139 N   0  0  0  0  0  0  0  0  0  0  0  0
    3.0182    2.4385   -2.3900 C   0  0  0  0  0  0  0  0  0  0  0  0
    1.2486    3.0273   -0.8617 C   0  0  0  0  0  0  0  0  0  0  0  0
    0.2031    2.6535    0.2218 C   0  0  0  0  0  0  0  0  0  0  0  0
    0.7776    1.9196    1.3482 N   0  0  0  0  0  0  0  0  0  0  0  0
    1.7307    2.5744    2.2353 C   0  0  0  0  0  0  0  0  0  0  0  0
    1.0619    3.4083    3.3146 C   0  0  0  0  0  0  0  0  0  0  0  0
    0.7325    2.8279    4.5485 C   0  0  0  0  0  0  0  0  0  0  0  0
    0.0733    3.5604    5.5391 C   0  0  0  0  0  0  0  0  0  0  0  0
   -0.2666    4.8910    5.3169 C   0  0  0  0  0  0  0  0  0  0  0  0
   -0.9416    5.6978    6.1943 O   0  0  0  0  0  0  0  0  0  0  0  0
   -1.4479    5.0679    7.3666 C   0  0  0  0  0  0  0  0  0  0  0  0
    0.0936    5.4936    4.1080 C   0  0  0  0  0  0  0  0  0  0  0  0
    0.7505    4.7584    3.1125 C   0  0  0  0  0  0  0  0  0  0  0  0
    0.2113    0.7239    1.7391 C   0  0  0  0  0  0  0  0  0  0  0  0
   -0.7785    0.1833    1.0003 N   0  0  0  0  0  0  0  0  0  0  0  0
   -1.3085   -0.9837    1.4076 C   0  0  0  0  0  0  0  0  0  0  0  0
   -0.9111   -1.6503    2.5317 C   0  0  0  0  0  0  0  0  0  0  0  0
    0.0971   -1.0418    3.2272 C   0  0  0  0  0  0  0  0  0  0  0  0
    0.6691    0.1156    2.8478 N   0  0  0  0  0  0  0  0  0  0  0  0
    1.5776    0.4442   -3.0045 H   0  0  0  0  0  0  0  0  0  0  0  0
    0.2490    1.5775   -2.7360 H   0  0  0  0  0  0  0  0  0  0  0  0
    0.6167    0.3046   -1.5484 H   0  0  0  0  0  0  0  0  0  0  0  0
    2.6445    3.2053   -3.0773 H   0  0  0  0  0  0  0  0  0  0  0  0
    3.8219    2.8742   -1.7853 H   0  0  0  0  0  0  0  0  0  0  0  0
    3.4818    1.6423   -2.9838 H   0  0  0  0  0  0  0  0  0  0  0  0
    1.9848    3.7021   -0.4082 H   0  0  0  0  0  0  0  0  0  0  0  0
    0.7328    3.6243   -1.6266 H   0  0  0  0  0  0  0  0  0  0  0  0
   -0.2469    3.5829    0.5939 H   0  0  0  0  0  0  0  0  0  0  0  0
   -0.6190    2.1222   -0.2687 H   0  0  0  0  0  0  0  0  0  0  0  0
    2.4204    1.8535    2.6966 H   0  0  0  0  0  0  0  0  0  0  0  0
    2.3963    3.2321    1.6635 H   0  0  0  0  0  0  0  0  0  0  0  0
    0.9833    1.7892    4.7428 H   0  0  0  0  0  0  0  0  0  0  0  0
   -0.1629    3.0523    6.4666 H   0  0  0  0  0  0  0  0  0  0  0  0
   -2.0951    4.2190    7.1204 H   0  0  0  0  0  0  0  0  0  0  0  0
   -0.6298    4.7612    8.0264 H   0  0  0  0  0  0  0  0  0  0  0  0
   -2.0566    5.7992    7.9063 H   0  0  0  0  0  0  0  0  0  0  0  0
   -0.1490    6.5366    3.9348 H   0  0  0  0  0  0  0  0  0  0  0  0
    1.0121    5.2499    2.1783 H   0  0  0  0  0  0  0  0  0  0  0  0
   -2.0976   -1.3796    0.7687 H   0  0  0  0  0  0  0  0  0  0  0  0
   -1.3529   -2.5841    2.8463 H   0  0  0  0  0  0  0  0  0  0  0  0
    0.4937   -1.4716    4.1420 H   0  0  0  0  0  0  0  0  0  0  0  0
  1  2  1  0  0  0  0
  1 22  1  0  0  0  0
  1 23  1  0  0  0  0
  1 24  1  0  0  0  0
  2  3  1  0  0  0  0
  2  4  1  0  0  0  0
  3 25  1  0  0  0  0
  3 26  1  0  0  0  0
  3 27  1  0  0  0  0
  4  5  1  0  0  0  0
  4 28  1  0  0  0  0
  4 29  1  0  0  0  0
  5  6  1  0  0  0  0
  5 30  1  0  0  0  0
  5 31  1  0  0  0  0
  6  7  1  0  0  0  0
  6 16  1  0  0  0  0
  7  8  1  0  0  0  0
  7 32  1  0  0  0  0
  7 33  1  0  0  0  0
  8  9  2  0  0  0  0
  8 15  1  0  0  0  0
  9 10  1  0  0  0  0
  9 34  1  0  0  0  0
 10 11  2  0  0  0  0
 10 35  1  0  0  0  0
 11 12  1  0  0  0  0
 11 14  1  0  0  0  0
 12 13  1  0  0  0  0
 13 36  1  0  0  0  0
 13 37  1  0  0  0  0
 13 38  1  0  0  0  0
 14 15  2  0  0  0  0
 14 39  1  0  0  0  0
 15 40  1  0  0  0  0
 16 17  2  0  0  0  0
 16 21  1  0  0  0  0
 17 18  1  0  0  0  0
 18 19  2  0  0  0  0
 18 41  1  0  0  0  0
 19 20  1  0  0  0  0
 19 42  1  0  0  0  0
 20 21  2  0  0  0  0
 20 43  1  0  0  0  0
M  END
>  <Mol_ID>
3778

>  <Formula>
C16H22N4O

>  <MolWeight>
286.37208

>  <Cat>
S6469

>  <Name>
Thonzylamine

>  <Synonyms>
Neohetramine

>  <Target>
AChR,Histamine Receptor

>  <Form>
Free Base

>  <CAS>
91-85-0

>  <URL>
http://www.selleck.cn/products/thonzylamine.html

$$$$
