Tiapride Hydrochloride
 OpenBabel08302521223D

 46 46  0  0  0  0  0  0  0  0999 V2000
    0.8741    0.1691   -0.1106 C   0  0  0  0  0  0  0  0  0  0  0  0
    0.0903   -0.1750   -1.3456 C   0  0  0  0  0  0  0  0  0  0  0  0
   -1.3077   -0.0008   -1.4492 C   0  0  0  0  0  0  0  0  0  0  0  0
   -1.9580   -0.3901   -2.6341 C   0  0  0  0  0  0  0  0  0  0  0  0
   -1.2469   -0.9480   -3.6997 C   0  0  0  0  0  0  0  0  0  0  0  0
    0.1271   -1.1303   -3.5832 C   0  0  0  0  0  0  0  0  0  0  0  0
    0.7940   -0.7604   -2.4162 C   0  0  0  0  0  0  0  0  0  0  0  0
    0.3911    0.0694    1.0108 O   0  0  0  0  0  0  0  0  0  0  0  0
    2.1946    0.5254   -0.3367 N   0  0  0  0  0  0  0  0  0  0  0  0
    1.0664   -1.7198   -4.9714 S   0  0  0  0  0  0  0  0  0  0  0  0
    0.2875   -1.4459   -6.1633 O   0  0  0  0  0  0  0  0  0  0  0  0
    2.4141   -1.1987   -4.8301 O   0  0  0  0  0  0  0  0  0  0  0  0
    1.1257   -3.4731   -4.7397 C   0  0  0  0  0  0  0  0  0  0  0  0
   -1.9692    0.6099   -0.4150 O   0  0  0  0  0  0  0  0  0  0  0  0
   -3.3812    0.4230   -0.3493 C   0  0  0  0  0  0  0  0  0  0  0  0
    3.1721    0.7373    0.7176 C   0  0  0  0  0  0  0  0  0  0  0  0
    4.5881    0.3065    0.2548 C   0  0  0  0  0  0  0  0  0  0  0  0
    5.0406    0.9493   -1.0014 N   0  0  0  0  0  0  0  0  0  0  0  0
    5.1459    2.4189   -0.9020 C   0  0  0  0  0  0  0  0  0  0  0  0
    6.0900    2.9663    0.1674 C   0  0  0  0  0  0  0  0  0  0  0  0
    6.2950    0.3794   -1.5293 C   0  0  0  0  0  0  0  0  0  0  0  0
    6.2017   -1.0902   -1.9309 C   0  0  0  0  0  0  0  0  0  0  0  0
   -3.0254   -0.2435   -2.7721 H   0  0  0  0  0  0  0  0  0  0  0  0
   -1.7725   -1.2126   -4.6154 H   0  0  0  0  0  0  0  0  0  0  0  0
    1.8648   -0.9364   -2.3421 H   0  0  0  0  0  0  0  0  0  0  0  0
    2.5100    0.7782   -1.2671 H   0  0  0  0  0  0  0  0  0  0  0  0
    1.6736   -3.6965   -3.8227 H   0  0  0  0  0  0  0  0  0  0  0  0
    0.1070   -3.8615   -4.6923 H   0  0  0  0  0  0  0  0  0  0  0  0
    1.6459   -3.9036   -5.5984 H   0  0  0  0  0  0  0  0  0  0  0  0
   -3.8925    0.9563   -1.1584 H   0  0  0  0  0  0  0  0  0  0  0  0
   -3.6410   -0.6416   -0.3579 H   0  0  0  0  0  0  0  0  0  0  0  0
   -3.7386    0.8472    0.5938 H   0  0  0  0  0  0  0  0  0  0  0  0
    3.1446    1.7985    0.9848 H   0  0  0  0  0  0  0  0  0  0  0  0
    2.8826    0.1663    1.6067 H   0  0  0  0  0  0  0  0  0  0  0  0
    5.3068    0.4673    1.0663 H   0  0  0  0  0  0  0  0  0  0  0  0
    4.5404   -0.7780    0.0971 H   0  0  0  0  0  0  0  0  0  0  0  0
    5.4584    2.8200   -1.8753 H   0  0  0  0  0  0  0  0  0  0  0  0
    4.1482    2.8424   -0.7437 H   0  0  0  0  0  0  0  0  0  0  0  0
    7.1294    2.6843   -0.0262 H   0  0  0  0  0  0  0  0  0  0  0  0
    6.0424    4.0603    0.1753 H   0  0  0  0  0  0  0  0  0  0  0  0
    5.8190    2.6258    1.1708 H   0  0  0  0  0  0  0  0  0  0  0  0
    6.5686    0.9297   -2.4391 H   0  0  0  0  0  0  0  0  0  0  0  0
    7.1243    0.5032   -0.8225 H   0  0  0  0  0  0  0  0  0  0  0  0
    5.2303   -1.3324   -2.3736 H   0  0  0  0  0  0  0  0  0  0  0  0
    6.9709   -1.3214   -2.6770 H   0  0  0  0  0  0  0  0  0  0  0  0
    6.3698   -1.7463   -1.0710 H   0  0  0  0  0  0  0  0  0  0  0  0
  1  2  1  0  0  0  0
  1  8  2  0  0  0  0
  1  9  1  0  0  0  0
  2  3  2  0  0  0  0
  2  7  1  0  0  0  0
  3  4  1  0  0  0  0
  3 14  1  0  0  0  0
  4  5  2  0  0  0  0
  4 23  1  0  0  0  0
  5  6  1  0  0  0  0
  5 24  1  0  0  0  0
  6  7  2  0  0  0  0
  6 10  1  0  0  0  0
  7 25  1  0  0  0  0
  9 16  1  0  0  0  0
  9 26  1  0  0  0  0
 10 11  2  0  0  0  0
 10 12  2  0  0  0  0
 10 13  1  0  0  0  0
 13 27  1  0  0  0  0
 13 28  1  0  0  0  0
 13 29  1  0  0  0  0
 14 15  1  0  0  0  0
 15 30  1  0  0  0  0
 15 31  1  0  0  0  0
 15 32  1  0  0  0  0
 16 17  1  0  0  0  0
 16 33  1  0  0  0  0
 16 34  1  0  0  0  0
 17 18  1  0  0  0  0
 17 35  1  0  0  0  0
 17 36  1  0  0  0  0
 18 19  1  0  0  0  0
 18 21  1  0  0  0  0
 19 20  1  0  0  0  0
 19 37  1  0  0  0  0
 19 38  1  0  0  0  0
 20 39  1  0  0  0  0
 20 40  1  0  0  0  0
 20 41  1  0  0  0  0
 21 22  1  0  0  0  0
 21 42  1  0  0  0  0
 21 43  1  0  0  0  0
 22 44  1  0  0  0  0
 22 45  1  0  0  0  0
 22 46  1  0  0  0  0
M  END
>  <Mol_ID>
4647

>  <Formula>
C15H25ClN2O4S

>  <MolWeight>
364.888

>  <Cat>
S9509

>  <Name>
Tiapride Hydrochloride

>  <Synonyms>
N/A

>  <Target>
Dopamine Receptor

>  <Form>
hydrochloride

>  <CAS>
51012-33-0

>  <URL>
http://www.selleckchem.com/products/tiapride-hydrochloride.html

$$$$
