TIC10.cdx
 OpenBabel08302519573D

 55 59  0  0  0  0  0  0  0  0999 V2000
   -0.3519    5.5717   -2.0564 C   0  0  0  0  0  0  0  0  0  0  0  0
    0.4503    4.9933   -3.0381 C   0  0  0  0  0  0  0  0  0  0  0  0
    0.7083    3.6235   -3.0109 C   0  0  0  0  0  0  0  0  0  0  0  0
    0.2050    2.8377   -1.9736 C   0  0  0  0  0  0  0  0  0  0  0  0
   -0.5537    3.4210   -0.9489 C   0  0  0  0  0  0  0  0  0  0  0  0
   -0.8659    4.7868   -1.0254 C   0  0  0  0  0  0  0  0  0  0  0  0
   -0.9512    2.6142    0.2692 C   0  0  0  0  0  0  0  0  0  0  0  0
   -0.4653    3.2196    1.5263 N   0  0  0  0  0  0  0  0  0  0  0  0
    1.0021    3.2820    1.5795 C   0  0  0  0  0  0  0  0  0  0  0  0
    1.4762    4.0179    2.8445 C   0  0  0  0  0  0  0  0  0  0  0  0
    0.8322    3.5149    4.1203 C   0  0  0  0  0  0  0  0  0  0  0  0
   -0.3339    2.8255    3.9893 C   0  0  0  0  0  0  0  0  0  0  0  0
   -0.9808    2.4630    2.6866 C   0  0  0  0  0  0  0  0  0  0  0  0
    1.4870    3.6408    5.3609 N   0  0  0  0  0  0  0  0  0  0  0  0
    1.0414    2.8306    6.4025 C   0  0  0  0  0  0  0  0  0  0  0  0
   -0.2584    2.3737    6.3423 N   0  0  0  0  0  0  0  0  0  0  0  0
   -1.0133    2.3108    5.2086 C   0  0  0  0  0  0  0  0  0  0  0  0
    1.6955    2.4086    7.4436 N   0  0  0  0  0  0  0  0  0  0  0  0
    0.7687    1.4429    8.1071 C   0  0  0  0  0  0  0  0  0  0  0  0
   -0.6054    1.8358    7.6138 C   0  0  0  0  0  0  0  0  0  0  0  0
    2.7427    4.3953    5.5728 C   0  0  0  0  0  0  0  0  0  0  0  0
    2.5487    5.8495    5.9954 C   0  0  0  0  0  0  0  0  0  0  0  0
    2.4587    6.2574    7.3464 C   0  0  0  0  0  0  0  0  0  0  0  0
    2.3499    7.6286    7.6564 C   0  0  0  0  0  0  0  0  0  0  0  0
    2.3730    8.5993    6.6586 C   0  0  0  0  0  0  0  0  0  0  0  0
    2.4790    8.2102    5.3298 C   0  0  0  0  0  0  0  0  0  0  0  0
    2.5546    6.8522    5.0033 C   0  0  0  0  0  0  0  0  0  0  0  0
    2.4558    5.2896    8.4968 C   0  0  0  0  0  0  0  0  0  0  0  0
   -2.1227    1.7866    5.1503 O   0  0  0  0  0  0  0  0  0  0  0  0
   -0.5581    6.6382   -2.0775 H   0  0  0  0  0  0  0  0  0  0  0  0
    0.8783    5.6118   -3.8224 H   0  0  0  0  0  0  0  0  0  0  0  0
    1.3214    3.1714   -3.7861 H   0  0  0  0  0  0  0  0  0  0  0  0
    0.4382    1.7760   -1.9521 H   0  0  0  0  0  0  0  0  0  0  0  0
   -1.4688    5.2487   -0.2458 H   0  0  0  0  0  0  0  0  0  0  0  0
   -2.0472    2.5525    0.2814 H   0  0  0  0  0  0  0  0  0  0  0  0
   -0.5784    1.5852    0.1748 H   0  0  0  0  0  0  0  0  0  0  0  0
    1.4382    2.2758    1.5470 H   0  0  0  0  0  0  0  0  0  0  0  0
    1.4076    3.8364    0.7260 H   0  0  0  0  0  0  0  0  0  0  0  0
    2.5653    3.8976    2.8745 H   0  0  0  0  0  0  0  0  0  0  0  0
    1.2607    5.0891    2.7470 H   0  0  0  0  0  0  0  0  0  0  0  0
   -2.0637    2.6174    2.7412 H   0  0  0  0  0  0  0  0  0  0  0  0
   -0.8075    1.3866    2.5303 H   0  0  0  0  0  0  0  0  0  0  0  0
    0.8562    1.4840    9.1942 H   0  0  0  0  0  0  0  0  0  0  0  0
    1.0167    0.4280    7.7707 H   0  0  0  0  0  0  0  0  0  0  0  0
   -1.0092    2.6528    8.2257 H   0  0  0  0  0  0  0  0  0  0  0  0
   -1.3347    1.0232    7.5644 H   0  0  0  0  0  0  0  0  0  0  0  0
    3.3903    3.8873    6.2978 H   0  0  0  0  0  0  0  0  0  0  0  0
    3.3622    4.3845    4.6696 H   0  0  0  0  0  0  0  0  0  0  0  0
    2.2661    7.9494    8.6940 H   0  0  0  0  0  0  0  0  0  0  0  0
    2.3169    9.6525    6.9217 H   0  0  0  0  0  0  0  0  0  0  0  0
    2.5129    8.9657    4.5487 H   0  0  0  0  0  0  0  0  0  0  0  0
    2.6499    6.5879    3.9546 H   0  0  0  0  0  0  0  0  0  0  0  0
    2.7748    5.7827    9.4235 H   0  0  0  0  0  0  0  0  0  0  0  0
    1.4480    4.8935    8.6526 H   0  0  0  0  0  0  0  0  0  0  0  0
    3.1648    4.4724    8.3409 H   0  0  0  0  0  0  0  0  0  0  0  0
  1  2  2  0  0  0  0
  1 30  1  0  0  0  0
  2  3  1  0  0  0  0
  2 31  1  0  0  0  0
  3  4  2  0  0  0  0
  3 32  1  0  0  0  0
  4  5  1  0  0  0  0
  4 33  1  0  0  0  0
  5  6  2  0  0  0  0
  5  7  1  0  0  0  0
  6  1  1  0  0  0  0
  6 34  1  0  0  0  0
  7  8  1  0  0  0  0
  7 35  1  0  0  0  0
  7 36  1  0  0  0  0
  8  9  1  0  0  0  0
  9 10  1  0  0  0  0
  9 37  1  0  0  0  0
  9 38  1  0  0  0  0
 10 11  1  0  0  0  0
 10 39  1  0  0  0  0
 10 40  1  0  0  0  0
 11 12  2  0  0  0  0
 11 14  1  0  0  0  0
 12 13  1  0  0  0  0
 13  8  1  0  0  0  0
 13 41  1  0  0  0  0
 13 42  1  0  0  0  0
 14 15  1  0  0  0  0
 14 21  1  0  0  0  0
 15 16  1  0  0  0  0
 15 18  2  0  0  0  0
 16 17  1  0  0  0  0
 17 12  1  0  0  0  0
 17 29  2  0  0  0  0
 18 19  1  0  0  0  0
 19 20  1  0  0  0  0
 19 43  1  0  0  0  0
 19 44  1  0  0  0  0
 20 16  1  0  0  0  0
 20 45  1  0  0  0  0
 20 46  1  0  0  0  0
 21 22  1  0  0  0  0
 21 47  1  0  0  0  0
 21 48  1  0  0  0  0
 22 23  2  0  0  0  0
 23 24  1  0  0  0  0
 23 28  1  0  0  0  0
 24 25  2  0  0  0  0
 24 49  1  0  0  0  0
 25 26  1  0  0  0  0
 25 50  1  0  0  0  0
 26 27  2  0  0  0  0
 26 51  1  0  0  0  0
 27 22  1  0  0  0  0
 27 52  1  0  0  0  0
 28 53  1  0  0  0  0
 28 54  1  0  0  0  0
 28 55  1  0  0  0  0
M  END
>  <Mol_ID>
2249

>  <Formula>
C24H26N4O

>  <MolWeight>
386.48944

>  <Cat>
S7127

>  <Name>
TIC10 Analogue

>  <Target>
Akt

>  <Form>
free base

>  <CAS>
41276-02-2

>  <URL>
http://selleckchem.com/products/tic10.html

$$$$
