Ticarcillin sodium.cdx
 OpenBabel08302521593D

 41 43  0  0  0  0  0  0  0  0999 V2000
   -0.4044   -0.3468   -0.7870 N   0  0  0  0  0  0  0  0  0  0  0  0
   -0.1305    1.0966   -0.8547 C   0  0  3  0  0  0  0  0  0  0  0  0
    0.9419    1.4137    0.2143 C   0  0  0  0  0  0  0  0  0  0  0  0
    2.0212   -0.0811    0.2701 S   0  0  0  0  0  0  0  0  0  0  0  0
    0.7121   -1.2029   -0.3549 C   0  0  3  0  0  0  0  0  0  0  0  0
   -0.2153   -1.7714    0.7502 C   0  0  3  0  0  0  0  0  0  0  0  0
   -1.2986   -0.8830    0.0914 C   0  0  0  0  0  0  0  0  0  0  0  0
    0.3160    1.3612   -2.2997 C   0  0  0  0  0  0  0  0  0  0  0  0
    0.9117    0.6041   -3.0477 O   0  0  0  0  0  0  0  0  0  0  0  0
   -0.0177    2.5912   -2.7363 O   0  0  0  0  0  0  0  0  0  0  0  0
   -2.4463   -0.5768    0.3307 O   0  0  0  0  0  0  0  0  0  0  0  0
    1.8128    2.6432   -0.0617 C   0  0  0  0  0  0  0  0  0  0  0  0
    0.3319    1.5880    1.6201 C   0  0  0  0  0  0  0  0  0  0  0  0
   -0.4086   -3.2446    0.7594 N   0  0  0  0  0  0  0  0  0  0  0  0
    0.6539   -4.0618    1.0892 C   0  0  0  0  0  0  0  0  0  0  0  0
    1.7840   -3.5858    1.2212 O   0  0  0  0  0  0  0  0  0  0  0  0
    0.4045   -5.5537    1.2765 C   0  0  1  0  0  0  0  0  0  0  0  0
    0.1917   -5.4952    3.8532 C   0  0  0  0  0  0  0  0  0  0  0  0
    0.7424   -6.0003    2.6865 C   0  0  0  0  0  0  0  0  0  0  0  0
    1.6976   -7.0313    2.9915 C   0  0  0  0  0  0  0  0  0  0  0  0
    1.8041   -7.2820    4.3412 C   0  0  0  0  0  0  0  0  0  0  0  0
    0.7839   -6.2687    5.2607 S   0  0  0  0  0  0  0  0  0  0  0  0
   -0.9740   -6.0261    0.8906 C   0  0  0  0  0  0  0  0  0  0  0  0
   -2.0148   -5.3913    0.9935 O   0  0  0  0  0  0  0  0  0  0  0  0
   -0.9909   -7.2769    0.3854 O   0  0  0  0  0  0  0  0  0  0  0  0
   -1.0632    1.6423   -0.6708 H   0  0  0  0  0  0  0  0  0  0  0  0
    1.0175   -1.8939   -1.1472 H   0  0  0  0  0  0  0  0  0  0  0  0
   -0.0055   -1.4345    1.7729 H   0  0  0  0  0  0  0  0  0  0  0  0
    0.2780    2.5872   -3.6711 H   0  0  0  0  0  0  0  0  0  0  0  0
    1.2211    3.5620    0.0234 H   0  0  0  0  0  0  0  0  0  0  0  0
    2.6282    2.7235    0.6698 H   0  0  0  0  0  0  0  0  0  0  0  0
    2.2707    2.6309   -1.0549 H   0  0  0  0  0  0  0  0  0  0  0  0
   -0.3105    0.7598    1.9257 H   0  0  0  0  0  0  0  0  0  0  0  0
    1.1122    1.6885    2.3854 H   0  0  0  0  0  0  0  0  0  0  0  0
   -0.2851    2.4919    1.6643 H   0  0  0  0  0  0  0  0  0  0  0  0
   -1.3574   -3.6229    0.8108 H   0  0  0  0  0  0  0  0  0  0  0  0
    1.1007   -6.0289    0.5702 H   0  0  0  0  0  0  0  0  0  0  0  0
   -0.5401   -4.7054    3.9611 H   0  0  0  0  0  0  0  0  0  0  0  0
    2.2765   -7.5702    2.2501 H   0  0  0  0  0  0  0  0  0  0  0  0
    2.4360   -8.0104    4.8315 H   0  0  0  0  0  0  0  0  0  0  0  0
   -1.9337   -7.4600    0.1869 H   0  0  0  0  0  0  0  0  0  0  0  0
  1  2  1  0  0  0  0
  1  7  1  0  0  0  0
  1  5  1  0  0  0  0
  2  3  1  0  0  0  0
  2  8  1  0  0  0  0
  2 26  1  0  0  0  0
  3  4  1  0  0  0  0
  3 12  1  0  0  0  0
  3 13  1  0  0  0  0
  4  5  1  0  0  0  0
  5  6  1  0  0  0  0
  5 27  1  0  0  0  0
  6  7  1  0  0  0  0
  6 14  1  0  0  0  0
  6 28  1  0  0  0  0
  7 11  2  0  0  0  0
  8  9  2  0  0  0  0
  8 10  1  0  0  0  0
 10 29  1  0  0  0  0
 12 30  1  0  0  0  0
 12 31  1  0  0  0  0
 12 32  1  0  0  0  0
 13 33  1  0  0  0  0
 13 34  1  0  0  0  0
 13 35  1  0  0  0  0
 14 15  1  0  0  0  0
 14 36  1  0  0  0  0
 15 16  2  0  0  0  0
 17 15  1  0  0  0  0
 17 19  1  0  0  0  0
 17 23  1  0  0  0  0
 17 37  1  6  0  0  0
 18 19  2  0  0  0  0
 18 22  1  0  0  0  0
 18 38  1  0  0  0  0
 19 20  1  0  0  0  0
 20 21  2  0  0  0  0
 20 39  1  0  0  0  0
 21 22  1  0  0  0  0
 21 40  1  0  0  0  0
 23 24  2  0  0  0  0
 23 25  1  0  0  0  0
 25 41  1  0  0  0  0
M  END
>  <Mol_ID>
997

>  <Formula>
C15H16N2Na2O6S2

>  <MolWeight>
430.40688

>  <Cat>
S3193

>  <Name>
Ticarcillin sodium

>  <Synonyms>
AB 2288, BRL 2288

>  <Target>
Antibiotics,Bacterial,Selection Antibiotics for Transfected Cell

>  <Form>
Sodium

>  <CAS>
29457-07-6

>  <URL>
http://selleckchem.com/products/ticarcillin-sodium.html

$$$$
