Ticlopidine
 OpenBabel08302521263D

 31 33  0  0  0  0  0  0  0  0999 V2000
    1.8203   -0.9138   -0.1534 S   0  0  0  0  0  0  0  0  0  0  0  0
   -2.5100    0.3103   -0.3247 N   0  0  0  0  0  0  0  0  0  0  0  0
   -2.2308   -0.9630    0.3834 C   0  0  0  0  0  0  0  0  0  0  0  0
   -1.5020    1.3447    0.0188 C   0  0  0  0  0  0  0  0  0  0  0  0
   -0.9012   -1.5986   -0.0803 C   0  0  0  0  0  0  0  0  0  0  0  0
   -0.1044    0.7991   -0.0765 C   0  0  0  0  0  0  0  0  0  0  0  0
    0.1637   -0.5543   -0.0940 C   0  0  0  0  0  0  0  0  0  0  0  0
   -3.8498    0.8340    0.0004 C   0  0  0  0  0  0  0  0  0  0  0  0
   -4.9910   -0.0629   -0.4329 C   0  0  0  0  0  0  0  0  0  0  0  0
    1.1081    1.5568   -0.1014 C   0  0  0  0  0  0  0  0  0  0  0  0
    2.2264    0.7499   -0.1382 C   0  0  0  0  0  0  0  0  0  0  0  0
   -5.9047   -0.5551    0.5117 C   0  0  0  0  0  0  0  0  0  0  0  0
   -5.1595   -0.4104   -1.7810 C   0  0  0  0  0  0  0  0  0  0  0  0
   -6.9533   -1.3876    0.1179 C   0  0  0  0  0  0  0  0  0  0  0  0
   -6.2090   -1.2429   -2.1732 C   0  0  0  0  0  0  0  0  0  0  0  0
   -7.1040   -1.7337   -1.2233 C   0  0  0  0  0  0  0  0  0  0  0  0
   -2.2044   -0.7932    1.4684 H   0  0  0  0  0  0  0  0  0  0  0  0
   -3.0169   -1.7022    0.1930 H   0  0  0  0  0  0  0  0  0  0  0  0
   -1.6034    2.1923   -0.6696 H   0  0  0  0  0  0  0  0  0  0  0  0
   -1.6529    1.7148    1.0416 H   0  0  0  0  0  0  0  0  0  0  0  0
   -0.6386   -2.4260    0.5877 H   0  0  0  0  0  0  0  0  0  0  0  0
   -1.0203   -2.0046   -1.0927 H   0  0  0  0  0  0  0  0  0  0  0  0
   -3.9274    1.0381    1.0768 H   0  0  0  0  0  0  0  0  0  0  0  0
   -4.0005    1.7970   -0.5069 H   0  0  0  0  0  0  0  0  0  0  0  0
    1.1601    2.6383   -0.0823 H   0  0  0  0  0  0  0  0  0  0  0  0
    3.2637    1.0544   -0.1554 H   0  0  0  0  0  0  0  0  0  0  0  0
   -5.8016   -0.2968    1.5630 H   0  0  0  0  0  0  0  0  0  0  0  0
   -4.4603   -0.0392   -2.5282 H   0  0  0  0  0  0  0  0  0  0  0  0
   -7.6515   -1.7686    0.8587 H   0  0  0  0  0  0  0  0  0  0  0  0
   -6.3257   -1.5113   -3.2198 H   0  0  0  0  0  0  0  0  0  0  0  0
   -7.9173   -2.3861   -1.5286 H   0  0  0  0  0  0  0  0  0  0  0  0
  1  7  1  0  0  0  0
  1 11  1  0  0  0  0
  2  3  1  0  0  0  0
  2  4  1  0  0  0  0
  2  8  1  0  0  0  0
  3  5  1  0  0  0  0
  3 17  1  0  0  0  0
  3 18  1  0  0  0  0
  4  6  1  0  0  0  0
  4 19  1  0  0  0  0
  4 20  1  0  0  0  0
  5  7  1  0  0  0  0
  5 21  1  0  0  0  0
  5 22  1  0  0  0  0
  6  7  2  0  0  0  0
  6 10  1  0  0  0  0
  8  9  1  0  0  0  0
  8 23  1  0  0  0  0
  8 24  1  0  0  0  0
  9 12  2  0  0  0  0
  9 13  1  0  0  0  0
 10 11  2  0  0  0  0
 10 25  1  0  0  0  0
 11 26  1  0  0  0  0
 12 14  1  0  0  0  0
 12 27  1  0  0  0  0
 13 15  2  0  0  0  0
 13 28  1  0  0  0  0
 14 16  2  0  0  0  0
 14 29  1  0  0  0  0
 15 16  1  0  0  0  0
 15 30  1  0  0  0  0
 16 31  1  0  0  0  0
M  END
>  <Mol_ID>
5273

>  <Formula>
C14H14ClNS

>  <MolWeight>
263.78566

>  <Cat>
S0721

>  <Name>
Ticlopidine

>  <Synonyms>
Yuclid, Ticlopidinum, Ticlopidina,PCR 5332

>  <Target>
Adenosine Receptor,P450 (e.g. CYP17)

>  <Form>
Free Base

>  <CAS>
55142-85-3

>  <URL>
https://www.selleckchem.com/products/ticlopidine.html

$$$$
