Tideglusib.cdx
 OpenBabel08302521593D

 38 41  0  0  0  0  0  0  0  0999 V2000
   -0.2984   -1.3583    0.0103 S   0  0  0  0  0  0  0  0  0  0  0  0
    1.1650   -0.5069   -0.2865 N   0  0  0  0  0  0  0  0  0  0  0  0
    0.9634    0.8731   -0.2697 C   0  0  0  0  0  0  0  0  0  0  0  0
   -0.3801    1.1788   -0.1151 N   0  0  0  0  0  0  0  0  0  0  0  0
   -1.2260    0.1335    0.1180 C   0  0  0  0  0  0  0  0  0  0  0  0
    1.8448    1.7211   -0.3245 O   0  0  0  0  0  0  0  0  0  0  0  0
   -2.4078    0.1699    0.4170 O   0  0  0  0  0  0  0  0  0  0  0  0
   -0.8304    2.5517    0.0023 C   0  0  0  0  0  0  0  0  0  0  0  0
   -1.1537    3.1560   -1.3403 C   0  0  0  0  0  0  0  0  0  0  0  0
   -2.4460    3.0579   -1.8738 C   0  0  0  0  0  0  0  0  0  0  0  0
   -2.7386    3.6218   -3.1163 C   0  0  0  0  0  0  0  0  0  0  0  0
   -1.7424    4.2742   -3.8410 C   0  0  0  0  0  0  0  0  0  0  0  0
   -0.4488    4.3577   -3.3288 C   0  0  0  0  0  0  0  0  0  0  0  0
   -0.1547    3.8007   -2.0847 C   0  0  0  0  0  0  0  0  0  0  0  0
    2.3711   -1.0871    0.1800 C   0  0  0  0  0  0  0  0  0  0  0  0
    3.0453   -1.9341   -0.7122 C   0  0  0  0  0  0  0  0  0  0  0  0
    4.2040   -2.5924   -0.3162 C   0  0  0  0  0  0  0  0  0  0  0  0
    4.6328   -2.5009    1.0057 C   0  0  0  0  0  0  0  0  0  0  0  0
    3.9607   -1.6858    1.9276 C   0  0  0  0  0  0  0  0  0  0  0  0
    4.3826   -1.6487    3.2670 C   0  0  0  0  0  0  0  0  0  0  0  0
    3.8620   -0.7121    4.1556 C   0  0  0  0  0  0  0  0  0  0  0  0
    2.9150    0.1961    3.7118 C   0  0  0  0  0  0  0  0  0  0  0  0
    2.3781    0.0650    2.4309 C   0  0  0  0  0  0  0  0  0  0  0  0
    2.8722   -0.8849    1.5022 C   0  0  0  0  0  0  0  0  0  0  0  0
   -1.7131    2.6024    0.6511 H   0  0  0  0  0  0  0  0  0  0  0  0
   -0.0524    3.1478    0.4942 H   0  0  0  0  0  0  0  0  0  0  0  0
   -3.2341    2.5474   -1.3222 H   0  0  0  0  0  0  0  0  0  0  0  0
   -3.7454    3.5520   -3.5204 H   0  0  0  0  0  0  0  0  0  0  0  0
   -1.9698    4.7095   -4.8102 H   0  0  0  0  0  0  0  0  0  0  0  0
    0.3327    4.8537   -3.8973 H   0  0  0  0  0  0  0  0  0  0  0  0
    0.8625    3.8662   -1.7007 H   0  0  0  0  0  0  0  0  0  0  0  0
    2.6867   -2.0542   -1.7318 H   0  0  0  0  0  0  0  0  0  0  0  0
    4.7698   -3.1852   -1.0302 H   0  0  0  0  0  0  0  0  0  0  0  0
    5.5297   -3.0402    1.3050 H   0  0  0  0  0  0  0  0  0  0  0  0
    5.1391   -2.3436    3.6260 H   0  0  0  0  0  0  0  0  0  0  0  0
    4.2166   -0.6739    5.1815 H   0  0  0  0  0  0  0  0  0  0  0  0
    2.5881    1.0078    4.3558 H   0  0  0  0  0  0  0  0  0  0  0  0
    1.5956    0.7639    2.1583 H   0  0  0  0  0  0  0  0  0  0  0  0
  1  2  1  0  0  0  0
  1  5  1  0  0  0  0
  2  3  1  0  0  0  0
  2 15  1  0  0  0  0
  3  4  1  0  0  0  0
  3  6  2  0  0  0  0
  4  5  1  0  0  0  0
  4  8  1  0  0  0  0
  5  7  2  0  0  0  0
  8  9  1  0  0  0  0
  8 25  1  0  0  0  0
  8 26  1  0  0  0  0
  9 10  2  0  0  0  0
  9 14  1  0  0  0  0
 10 11  1  0  0  0  0
 10 27  1  0  0  0  0
 11 12  2  0  0  0  0
 11 28  1  0  0  0  0
 12 13  1  0  0  0  0
 12 29  1  0  0  0  0
 13 14  2  0  0  0  0
 13 30  1  0  0  0  0
 14 31  1  0  0  0  0
 15 16  2  0  0  0  0
 15 24  1  0  0  0  0
 16 17  1  0  0  0  0
 16 32  1  0  0  0  0
 17 18  2  0  0  0  0
 17 33  1  0  0  0  0
 18 19  1  0  0  0  0
 18 34  1  0  0  0  0
 19 20  1  0  0  0  0
 19 24  2  0  0  0  0
 20 21  2  0  0  0  0
 20 35  1  0  0  0  0
 21 22  1  0  0  0  0
 21 36  1  0  0  0  0
 22 23  2  0  0  0  0
 22 37  1  0  0  0  0
 23 24  1  0  0  0  0
 23 38  1  0  0  0  0
M  END
>  <Mol_ID>
1010

>  <Formula>
C19H14N2O2S

>  <MolWeight>
334.39166

>  <Cat>
S2823

>  <Name>
Tideglusib (NP031112)

>  <Synonyms>
NP-12

>  <Target>
COVID-19,GSK-3

>  <Form>
free base

>  <CAS>
865854-05-3

>  <URL>
http://selleckchem.com/products/tideglusib.html

$$$$
