TIKOSYN (dofetilide).cdx
 OpenBabel08302520403D

 56 57  0  0  0  0  0  0  0  0999 V2000
   -5.7096    3.8801    1.1173 C   0  0  0  0  0  0  0  0  0  0  0  0
   -5.7978    2.8253    0.2138 C   0  0  0  0  0  0  0  0  0  0  0  0
   -4.6573    2.0864   -0.0635 C   0  0  0  0  0  0  0  0  0  0  0  0
   -3.4273    2.3839    0.5739 C   0  0  0  0  0  0  0  0  0  0  0  0
   -3.2886    3.4702    1.4527 C   0  0  0  0  0  0  0  0  0  0  0  0
   -4.4749    4.1878    1.7361 C   0  0  0  0  0  0  0  0  0  0  0  0
   -7.0367    2.5107   -0.4565 N   0  0  0  0  0  0  0  0  0  0  0  0
   -7.4856    3.4324   -1.8132 S   0  0  0  0  0  0  0  0  0  0  0  0
   -7.0813    2.3324   -3.1496 C   0  0  0  0  0  0  0  0  0  0  0  0
   -8.9294    3.5380   -1.7592 O   0  0  0  0  0  0  0  0  0  0  0  0
   -6.6526    4.6057   -1.9179 O   0  0  0  0  0  0  0  0  0  0  0  0
   -1.9599    3.9108    2.1113 C   0  0  0  0  0  0  0  0  0  0  0  0
   -0.6010    3.3240    1.5968 C   0  0  0  0  0  0  0  0  0  0  0  0
    0.6872    3.9979    2.0033 N   0  0  0  0  0  0  0  0  0  0  0  0
    1.0198    3.8885    3.4610 C   0  0  0  0  0  0  0  0  0  0  0  0
    1.7889    3.4484    1.1849 C   0  0  0  0  0  0  0  0  0  0  0  0
    2.3596    4.5418    3.9707 C   0  0  0  0  0  0  0  0  0  0  0  0
    2.6721    4.2588    5.3575 O   0  0  0  0  0  0  0  0  0  0  0  0
    2.0159    4.8760    6.3870 C   0  0  0  0  0  0  0  0  0  0  0  0
    2.0723    4.2069    7.6202 C   0  0  0  0  0  0  0  0  0  0  0  0
    1.2531    4.5872    8.6989 C   0  0  0  0  0  0  0  0  0  0  0  0
    0.3555    5.6379    8.5330 C   0  0  0  0  0  0  0  0  0  0  0  0
    0.4578    6.4393    7.3926 C   0  0  0  0  0  0  0  0  0  0  0  0
    1.2939    6.0621    6.3200 C   0  0  0  0  0  0  0  0  0  0  0  0
   -0.8869    5.6383    9.2560 N   0  0  0  0  0  0  0  0  0  0  0  0
   -1.0460    6.2612   10.8067 S   0  0  0  0  0  0  0  0  0  0  0  0
   -2.3552    7.4689   10.5537 C   0  0  0  0  0  0  0  0  0  0  0  0
   -1.5989    5.1883   11.6055 O   0  0  0  0  0  0  0  0  0  0  0  0
    0.1545    6.9608   11.1965 O   0  0  0  0  0  0  0  0  0  0  0  0
   -6.5822    4.4843    1.3519 H   0  0  0  0  0  0  0  0  0  0  0  0
   -4.7195    1.2391   -0.7378 H   0  0  0  0  0  0  0  0  0  0  0  0
   -2.5722    1.7594    0.3306 H   0  0  0  0  0  0  0  0  0  0  0  0
   -4.4473    5.0146    2.4447 H   0  0  0  0  0  0  0  0  0  0  0  0
   -7.8520    2.4480    0.1580 H   0  0  0  0  0  0  0  0  0  0  0  0
   -7.8486    1.5445   -3.2188 H   0  0  0  0  0  0  0  0  0  0  0  0
   -7.0879    2.9098   -4.0823 H   0  0  0  0  0  0  0  0  0  0  0  0
   -6.0987    1.9067   -2.9967 H   0  0  0  0  0  0  0  0  0  0  0  0
   -1.9067    5.0009    1.9851 H   0  0  0  0  0  0  0  0  0  0  0  0
   -2.0407    3.7083    3.1859 H   0  0  0  0  0  0  0  0  0  0  0  0
   -0.5469    2.2561    1.8414 H   0  0  0  0  0  0  0  0  0  0  0  0
   -0.6561    3.3927    0.5013 H   0  0  0  0  0  0  0  0  0  0  0  0
    0.2081    4.3487    4.0304 H   0  0  0  0  0  0  0  0  0  0  0  0
    1.0433    2.8295    3.7479 H   0  0  0  0  0  0  0  0  0  0  0  0
    2.1968    2.5191    1.6006 H   0  0  0  0  0  0  0  0  0  0  0  0
    1.4751    3.2296    0.1558 H   0  0  0  0  0  0  0  0  0  0  0  0
    2.6022    4.1778    1.0955 H   0  0  0  0  0  0  0  0  0  0  0  0
    3.1940    4.0831    3.4222 H   0  0  0  0  0  0  0  0  0  0  0  0
    2.4233    5.6151    3.7637 H   0  0  0  0  0  0  0  0  0  0  0  0
    2.7007    3.3235    7.7200 H   0  0  0  0  0  0  0  0  0  0  0  0
    1.2510    3.9850    9.6042 H   0  0  0  0  0  0  0  0  0  0  0  0
   -0.1798    7.3122    7.2868 H   0  0  0  0  0  0  0  0  0  0  0  0
    1.3155    6.6845    5.4318 H   0  0  0  0  0  0  0  0  0  0  0  0
   -1.2985    4.7010    9.2676 H   0  0  0  0  0  0  0  0  0  0  0  0
   -3.3252    6.9640   10.5386 H   0  0  0  0  0  0  0  0  0  0  0  0
   -2.3309    8.1871   11.3777 H   0  0  0  0  0  0  0  0  0  0  0  0
   -2.1862    7.9967    9.6127 H   0  0  0  0  0  0  0  0  0  0  0  0
  1  2  2  0  0  0  0
  1 30  1  0  0  0  0
  2  3  1  0  0  0  0
  2  7  1  0  0  0  0
  3  4  2  0  0  0  0
  3 31  1  0  0  0  0
  4  5  1  0  0  0  0
  4 32  1  0  0  0  0
  5  6  2  0  0  0  0
  5 12  1  0  0  0  0
  6  1  1  0  0  0  0
  6 33  1  0  0  0  0
  7  8  1  0  0  0  0
  7 34  1  0  0  0  0
  8  9  1  0  0  0  0
  8 10  2  0  0  0  0
  8 11  2  0  0  0  0
  9 35  1  0  0  0  0
  9 36  1  0  0  0  0
  9 37  1  0  0  0  0
 12 13  1  0  0  0  0
 12 38  1  0  0  0  0
 12 39  1  0  0  0  0
 13 14  1  0  0  0  0
 13 40  1  0  0  0  0
 13 41  1  0  0  0  0
 14 15  1  0  0  0  0
 14 16  1  0  0  0  0
 15 17  1  0  0  0  0
 15 42  1  0  0  0  0
 15 43  1  0  0  0  0
 16 44  1  0  0  0  0
 16 45  1  0  0  0  0
 16 46  1  0  0  0  0
 17 18  1  0  0  0  0
 17 47  1  0  0  0  0
 17 48  1  0  0  0  0
 18 19  1  0  0  0  0
 19 20  2  0  0  0  0
 20 21  1  0  0  0  0
 20 49  1  0  0  0  0
 21 22  2  0  0  0  0
 21 50  1  0  0  0  0
 22 23  1  0  0  0  0
 22 25  1  0  0  0  0
 23 24  2  0  0  0  0
 23 51  1  0  0  0  0
 24 19  1  0  0  0  0
 24 52  1  0  0  0  0
 25 26  1  0  0  0  0
 25 53  1  0  0  0  0
 26 27  1  0  0  0  0
 26 28  2  0  0  0  0
 26 29  2  0  0  0  0
 27 54  1  0  0  0  0
 27 55  1  0  0  0  0
 27 56  1  0  0  0  0
M  END
>  <Mol_ID>
379

>  <Formula>
C19H27N3O5S2

>  <MolWeight>
441.56478

>  <Cat>
S1658

>  <Name>
Dofetilide

>  <Synonyms>
UK-68798

>  <Target>
Potassium Channel

>  <Form>
free base

>  <CAS>
115256-11-6

>  <URL>
http://selleckchem.com/products/Dofetilide(Tikosyn).html

$$$$
