Tilianin
 OpenBabel08302521463D

 54 57  0  0  1  0  0  0  0  0999 V2000
   12.0821   -1.0688   -0.9906 O   0  0  0  0  0  0  0  0  0  0  0  0
   10.5209   -3.2665   -0.4820 O   0  0  0  0  0  0  0  0  0  0  0  0
    5.8439   -2.6132   -0.3521 O   0  0  0  0  0  0  0  0  0  0  0  0
    4.3659   -4.0632   -2.3374 O   0  0  0  0  0  0  0  0  0  0  0  0
    9.8661    7.3385   -2.0526 O   0  0  0  0  0  0  0  0  0  0  0  0
    8.7476    7.9585   -2.6744 C   0  0  0  0  0  0  0  0  0  0  0  0
    2.4785    0.7382    0.0375 C   0  0  0  0  0  0  0  0  0  0  0  0
    3.5259    1.6582    0.3488 O   0  0  0  0  0  0  0  0  0  0  0  0
    1.5245   -3.4635   -2.4214 O   0  0  0  0  0  0  0  0  0  0  0  0
    0.8631   -0.6833   -1.9449 O   0  0  0  0  0  0  0  0  0  0  0  0
    8.5869   -0.1829   -0.8668 C   0  0  0  0  0  0  0  0  0  0  0  0
    9.6896   -1.0357   -0.8022 C   0  0  0  0  0  0  0  0  0  0  0  0
    8.6895    1.1704   -1.0633 O   0  0  0  0  0  0  0  0  0  0  0  0
    7.2837   -0.6720   -0.7253 C   0  0  0  0  0  0  0  0  0  0  0  0
   11.0317   -0.4382   -0.9938 C   0  0  0  0  0  0  0  0  0  0  0  0
    9.4712   -2.3969   -0.5652 C   0  0  0  0  0  0  0  0  0  0  0  0
    9.9447    1.7320   -1.2232 C   0  0  0  0  0  0  0  0  0  0  0  0
    7.0713   -2.0304   -0.5127 C   0  0  0  0  0  0  0  0  0  0  0  0
   11.0788    1.0184   -1.2121 C   0  0  0  0  0  0  0  0  0  0  0  0
    8.1700   -2.8879   -0.4093 C   0  0  0  0  0  0  0  0  0  0  0  0
    9.9208    3.1927   -1.4433 C   0  0  0  0  0  0  0  0  0  0  0  0
    8.7998    3.7879   -2.0385 C   0  0  0  0  0  0  0  0  0  0  0  0
   10.9740    4.0290   -1.0470 C   0  0  0  0  0  0  0  0  0  0  0  0
    8.7344    5.1672   -2.2541 C   0  0  0  0  0  0  0  0  0  0  0  0
   10.9124    5.4097   -1.2701 C   0  0  0  0  0  0  0  0  0  0  0  0
    9.7972    5.9855   -1.8792 C   0  0  0  0  0  0  0  0  0  0  0  0
    4.7495   -1.9951   -1.0492 C   0  0  2  0  0  0  0  0  0  0  0  0
    4.1031   -1.0300   -0.2087 O   0  0  0  0  0  0  0  0  0  0  0  0
    3.7542   -3.1093   -1.4545 C   0  0  1  0  0  0  0  0  0  0  0  0
    3.0240   -0.3603   -0.8820 C   0  0  1  0  0  0  0  0  0  0  0  0
    2.5224   -2.4793   -2.1281 C   0  0  2  0  0  0  0  0  0  0  0  0
    1.9242   -1.3563   -1.2650 C   0  0  2  0  0  0  0  0  0  0  0  0
   10.2036   -4.1707   -0.3321 H   0  0  0  0  0  0  0  0  0  0  0  0
    4.6295   -3.6145   -3.1590 H   0  0  0  0  0  0  0  0  0  0  0  0
    8.5593    7.5389   -3.6689 H   0  0  0  0  0  0  0  0  0  0  0  0
    7.8586    7.8824   -2.0393 H   0  0  0  0  0  0  0  0  0  0  0  0
    8.9794    9.0195   -2.8032 H   0  0  0  0  0  0  0  0  0  0  0  0
    1.6725    1.2992   -0.4448 H   0  0  0  0  0  0  0  0  0  0  0  0
    2.1059    0.3255    0.9807 H   0  0  0  0  0  0  0  0  0  0  0  0
    4.2181    1.1314    0.7912 H   0  0  0  0  0  0  0  0  0  0  0  0
    1.2820   -3.9177   -1.5954 H   0  0  0  0  0  0  0  0  0  0  0  0
    1.0512   -0.6686   -2.9001 H   0  0  0  0  0  0  0  0  0  0  0  0
    6.4585    0.0327   -0.7662 H   0  0  0  0  0  0  0  0  0  0  0  0
   12.0639    1.4388   -1.3668 H   0  0  0  0  0  0  0  0  0  0  0  0
    7.9953   -3.9432   -0.2169 H   0  0  0  0  0  0  0  0  0  0  0  0
    7.9507    3.1786   -2.3506 H   0  0  0  0  0  0  0  0  0  0  0  0
   11.8539    3.6309   -0.5488 H   0  0  0  0  0  0  0  0  0  0  0  0
    7.8382    5.5659   -2.7178 H   0  0  0  0  0  0  0  0  0  0  0  0
   11.7423    6.0418   -0.9612 H   0  0  0  0  0  0  0  0  0  0  0  0
    5.1130   -1.5141   -1.9658 H   0  0  0  0  0  0  0  0  0  0  0  0
    3.4417   -3.6761   -0.5697 H   0  0  0  0  0  0  0  0  0  0  0  0
    3.4325    0.1299   -1.7764 H   0  0  0  0  0  0  0  0  0  0  0  0
    2.8099   -2.0759   -3.1069 H   0  0  0  0  0  0  0  0  0  0  0  0
    1.4872   -1.8016   -0.3625 H   0  0  0  0  0  0  0  0  0  0  0  0
  1 15  2  0  0  0  0
  2 16  1  0  0  0  0
  2 33  1  0  0  0  0
  3 18  1  0  0  0  0
  4 34  1  0  0  0  0
  5  6  1  0  0  0  0
  5 26  1  0  0  0  0
  6 35  1  0  0  0  0
  6 36  1  0  0  0  0
  6 37  1  0  0  0  0
  7  8  1  0  0  0  0
  7 38  1  0  0  0  0
  7 39  1  0  0  0  0
  8 40  1  0  0  0  0
  9 41  1  0  0  0  0
 10 42  1  0  0  0  0
 11 12  2  0  0  0  0
 11 13  1  0  0  0  0
 11 14  1  0  0  0  0
 12 15  1  0  0  0  0
 12 16  1  0  0  0  0
 13 17  1  0  0  0  0
 14 18  2  0  0  0  0
 14 43  1  0  0  0  0
 15 19  1  0  0  0  0
 16 20  2  0  0  0  0
 17 19  2  0  0  0  0
 17 21  1  0  0  0  0
 18 20  1  0  0  0  0
 19 44  1  0  0  0  0
 20 45  1  0  0  0  0
 21 22  2  0  0  0  0
 21 23  1  0  0  0  0
 22 24  1  0  0  0  0
 22 46  1  0  0  0  0
 23 25  2  0  0  0  0
 23 47  1  0  0  0  0
 24 26  2  0  0  0  0
 24 48  1  0  0  0  0
 25 26  1  0  0  0  0
 25 49  1  0  0  0  0
 27 28  1  0  0  0  0
 27 29  1  0  0  0  0
 27 50  1  6  0  0  0
 27  3  1  0  0  0  0
 28 30  1  0  0  0  0
 29  4  1  0  0  0  0
 29 31  1  0  0  0  0
 29 51  1  1  0  0  0
 30  7  1  0  0  0  0
 30 32  1  0  0  0  0
 30 52  1  6  0  0  0
 31  9  1  0  0  0  0
 31 32  1  0  0  0  0
 31 53  1  6  0  0  0
 32 10  1  0  0  0  0
 32 54  1  1  0  0  0
M  END
>  <Mol_ID>
9713

>  <Formula>
C22H22O10

>  <MolWeight>
446.40408

>  <Cat>
E0907

>  <Name>
Tilianin

>  <Synonyms>
Acacetin 7-glucoside, Astroside, Moldavoside

>  <Target>
calcium/calmodulin-dependent protein kinase II

>  <Form>
Free Base

>  <CAS>
4291-60-5

>  <URL>
https://www.selleckchem.com/products/tilianin.html

$$$$
