Timonacic
 OpenBabel08302521383D

 15 15  0  0  0  0  0  0  0  0999 V2000
    1.1091   -0.0367   -0.0256 S   0  0  0  0  0  0  0  0  0  0  0  0
   -0.1936   -1.2190   -0.3845 C   0  0  0  0  0  0  0  0  0  0  0  0
   -1.3928   -0.6872    0.2487 N   0  0  0  0  0  0  0  0  0  0  0  0
   -1.4190    0.7840    0.0116 C   0  0  3  0  0  0  0  0  0  0  0  0
   -0.0180    1.3604   -0.2054 C   0  0  0  0  0  0  0  0  0  0  0  0
   -2.2960    1.1402   -1.1877 C   0  0  0  0  0  0  0  0  0  0  0  0
   -2.4983    0.4824   -2.1948 O   0  0  0  0  0  0  0  0  0  0  0  0
   -2.8572    2.3638   -1.0577 O   0  0  0  0  0  0  0  0  0  0  0  0
    0.0589   -2.2037    0.0200 H   0  0  0  0  0  0  0  0  0  0  0  0
   -0.3210   -1.3171   -1.4668 H   0  0  0  0  0  0  0  0  0  0  0  0
   -1.2735   -0.8317    1.2504 H   0  0  0  0  0  0  0  0  0  0  0  0
   -1.8884    1.2411    0.8930 H   0  0  0  0  0  0  0  0  0  0  0  0
    0.1157    1.7855   -1.2074 H   0  0  0  0  0  0  0  0  0  0  0  0
    0.2219    2.1260    0.5358 H   0  0  0  0  0  0  0  0  0  0  0  0
   -3.4027    2.4570   -1.8676 H   0  0  0  0  0  0  0  0  0  0  0  0
  1  2  1  0  0  0  0
  1  5  1  0  0  0  0
  2  3  1  0  0  0  0
  2  9  1  0  0  0  0
  2 10  1  0  0  0  0
  3  4  1  0  0  0  0
  3 11  1  0  0  0  0
  4  5  1  0  0  0  0
  4  6  1  0  0  0  0
  4 12  1  0  0  0  0
  5 13  1  0  0  0  0
  5 14  1  0  0  0  0
  6  7  2  0  0  0  0
  6  8  1  0  0  0  0
  8 15  1  0  0  0  0
M  END
>  <Mol_ID>
7881

>  <Formula>
C4H7NO2S

>  <MolWeight>
133.16888

>  <Cat>
S4993

>  <Name>
Timonacic

>  <Synonyms>
Thiazolidine-4-carboxylic acid, Detoxepa, Hepalidine, 1,3-Thiazolidine-4-carboxylic acid

>  <Target>
Others

>  <Form>
Free Base

>  <CAS>
444-27-9

>  <URL>
http://www.selleckchem.com/products/timonacic.html

$$$$
