Tinengotinib
 OpenBabel08302521353D

 47 51  0  0  0  0  0  0  0  0999 V2000
    1.0125   -0.1250   -0.0099 C   0  0  0  0  0  0  0  0  0  0  0  0
   -2.6643    0.0137    2.3539 C   0  0  0  0  0  0  0  0  0  0  0  0
   -3.4352    1.3008    2.2987 C   0  0  0  0  0  0  0  0  0  0  0  0
   -1.4132   -0.1694    2.0412 N   0  0  0  0  0  0  0  0  0  0  0  0
   -2.9361    2.5258    2.7390 C   0  0  0  0  0  0  0  0  0  0  0  0
   -4.7390    1.2919    1.8136 C   0  0  0  0  0  0  0  0  0  0  0  0
   -0.6050    0.9301    1.7476 C   0  0  0  0  0  0  0  0  0  0  0  0
   -1.5848    2.7086    3.1156 N   0  0  0  0  0  0  0  0  0  0  0  0
   -3.7783    3.6482    2.6999 C   0  0  0  0  0  0  0  0  0  0  0  0
   -5.5644    2.3674    1.7968 N   0  0  0  0  0  0  0  0  0  0  0  0
   -0.6057    2.2216    2.3224 C   0  0  0  0  0  0  0  0  0  0  0  0
    0.4738    0.9057    0.8994 C   0  0  0  0  0  0  0  0  0  0  0  0
   -5.0878    3.5484    2.2327 C   0  0  0  0  0  0  0  0  0  0  0  0
    0.4306    2.9509    1.9040 N   0  0  0  0  0  0  0  0  0  0  0  0
    1.0511    2.1386    1.0298 N   0  0  0  0  0  0  0  0  0  0  0  0
   -3.4235   -1.2190    2.7945 C   0  0  0  0  0  0  0  0  0  0  0  0
   -3.0896   -2.4663    2.2518 C   0  0  0  0  0  0  0  0  0  0  0  0
   -4.4615   -1.1392    3.7368 C   0  0  0  0  0  0  0  0  0  0  0  0
   -3.8298   -3.6022    2.5912 C   0  0  0  0  0  0  0  0  0  0  0  0
   -5.2084   -2.2730    4.0619 C   0  0  0  0  0  0  0  0  0  0  0  0
   -4.9000   -3.5012    3.4799 C   0  0  0  0  0  0  0  0  0  0  0  0
   -5.9183    4.6400    2.2109 N   0  0  0  0  0  0  0  0  0  0  0  0
   -7.3640    4.4608    2.3644 C   0  0  0  0  0  0  0  0  0  0  0  0
   -5.4682    5.9772    1.8188 C   0  0  0  0  0  0  0  0  0  0  0  0
   -8.1230    5.0828    1.1881 C   0  0  0  0  0  0  0  0  0  0  0  0
   -6.3402    6.5275    0.6757 C   0  0  0  0  0  0  0  0  0  0  0  0
   -7.7405    6.4541    0.9853 O   0  0  0  0  0  0  0  0  0  0  0  0
    0.6551    0.0496   -1.0301 H   0  0  0  0  0  0  0  0  0  0  0  0
    0.6995   -1.1280    0.2942 H   0  0  0  0  0  0  0  0  0  0  0  0
    2.1073   -0.1033   -0.0242 H   0  0  0  0  0  0  0  0  0  0  0  0
   -5.1909    0.3889    1.4116 H   0  0  0  0  0  0  0  0  0  0  0  0
   -1.3913    3.6499    3.4386 H   0  0  0  0  0  0  0  0  0  0  0  0
   -3.4076    4.6068    3.0450 H   0  0  0  0  0  0  0  0  0  0  0  0
    1.8709    2.4954    0.5497 H   0  0  0  0  0  0  0  0  0  0  0  0
   -2.2587   -2.5576    1.5562 H   0  0  0  0  0  0  0  0  0  0  0  0
   -4.7077   -0.1998    4.2255 H   0  0  0  0  0  0  0  0  0  0  0  0
   -3.5738   -4.5659    2.1579 H   0  0  0  0  0  0  0  0  0  0  0  0
   -6.0317   -2.1968    4.7681 H   0  0  0  0  0  0  0  0  0  0  0  0
   -5.4875   -4.3817    3.7273 H   0  0  0  0  0  0  0  0  0  0  0  0
   -7.6560    4.9775    3.2871 H   0  0  0  0  0  0  0  0  0  0  0  0
   -7.6633    3.4133    2.4836 H   0  0  0  0  0  0  0  0  0  0  0  0
   -5.5528    6.6346    2.6911 H   0  0  0  0  0  0  0  0  0  0  0  0
   -4.4233    5.9906    1.4874 H   0  0  0  0  0  0  0  0  0  0  0  0
   -7.9518    4.5217    0.2622 H   0  0  0  0  0  0  0  0  0  0  0  0
   -9.1980    5.0679    1.3946 H   0  0  0  0  0  0  0  0  0  0  0  0
   -6.0952    7.5795    0.4981 H   0  0  0  0  0  0  0  0  0  0  0  0
   -6.1557    5.9826   -0.2579 H   0  0  0  0  0  0  0  0  0  0  0  0
  1 12  1  0  0  0  0
  1 28  1  0  0  0  0
  1 29  1  0  0  0  0
  1 30  1  0  0  0  0
  2  3  1  0  0  0  0
  2  4  2  0  0  0  0
  2 16  1  0  0  0  0
  3  5  2  0  0  0  0
  3  6  1  0  0  0  0
  4  7  1  0  0  0  0
  5  8  1  0  0  0  0
  5  9  1  0  0  0  0
  6 10  2  0  0  0  0
  6 31  1  0  0  0  0
  7 11  1  0  0  0  0
  7 12  2  0  0  0  0
  8 11  1  0  0  0  0
  8 32  1  0  0  0  0
  9 13  2  0  0  0  0
  9 33  1  0  0  0  0
 10 13  1  0  0  0  0
 11 14  2  0  0  0  0
 12 15  1  0  0  0  0
 13 22  1  0  0  0  0
 14 15  1  0  0  0  0
 15 34  1  0  0  0  0
 16 17  2  0  0  0  0
 16 18  1  0  0  0  0
 17 19  1  0  0  0  0
 17 35  1  0  0  0  0
 18 20  2  0  0  0  0
 18 36  1  0  0  0  0
 19 21  2  0  0  0  0
 19 37  1  0  0  0  0
 20 21  1  0  0  0  0
 20 38  1  0  0  0  0
 21 39  1  0  0  0  0
 22 23  1  0  0  0  0
 22 24  1  0  0  0  0
 23 25  1  0  0  0  0
 23 40  1  0  0  0  0
 23 41  1  0  0  0  0
 24 26  1  0  0  0  0
 24 42  1  0  0  0  0
 24 43  1  0  0  0  0
 25 27  1  0  0  0  0
 25 44  1  0  0  0  0
 25 45  1  0  0  0  0
 26 27  1  0  0  0  0
 26 46  1  0  0  0  0
 26 47  1  0  0  0  0
M  END
>  <Mol_ID>
6936

>  <Formula>
C20H19ClN6O

>  <MolWeight>
394.85746

>  <Cat>
E1435

>  <Name>
Tinengotinib

>  <Synonyms>
TT-00420

>  <Target>
Aurora Kinase

>  <Form>
free base

>  <CAS>
2230490-29-4

>  <URL>
https://www.selleckchem.com/products/tinengotinib.html

$$$$
