tinidazole.cdx
 OpenBabel08302522043D

 29 29  0  0  0  0  0  0  0  0999 V2000
   -1.1503   -0.4388    0.3606 C   0  0  0  0  0  0  0  0  0  0  0  0
   -0.5432   -1.0565   -0.6952 N   0  0  0  0  0  0  0  0  0  0  0  0
    0.6242   -0.4618   -0.8425 C   0  0  0  0  0  0  0  0  0  0  0  0
    0.7431    0.6258    0.0189 N   0  0  0  0  0  0  0  0  0  0  0  0
   -0.3316    0.5338    0.8766 C   0  0  0  0  0  0  0  0  0  0  0  0
   -0.5318    1.2422    2.0969 N   0  3  0  0  0  0  0  0  0  0  0  0
   -1.5906    1.0164    2.6955 O   0  0  0  0  0  0  0  0  0  0  0  0
    0.3784    1.9660    2.5099 O   0  5  0  0  0  0  0  0  0  0  0  0
    1.6796   -0.9378   -1.7736 C   0  0  0  0  0  0  0  0  0  0  0  0
    1.8371    1.5818    0.0065 C   0  0  0  0  0  0  0  0  0  0  0  0
    2.0440    2.3823   -1.2749 C   0  0  0  0  0  0  0  0  0  0  0  0
    0.6646    3.4312   -1.6755 S   0  0  0  0  0  0  0  0  0  0  0  0
    1.2248    4.2463   -3.1624 C   0  0  0  0  0  0  0  0  0  0  0  0
    0.1721    5.1733   -3.7337 C   0  0  0  0  0  0  0  0  0  0  0  0
   -0.4524    2.5770   -2.0246 O   0  0  0  0  0  0  0  0  0  0  0  0
    0.5556    4.4195   -0.6253 O   0  0  0  0  0  0  0  0  0  0  0  0
   -2.1138   -0.7690    0.7292 H   0  0  0  0  0  0  0  0  0  0  0  0
    1.8039   -0.2620   -2.6213 H   0  0  0  0  0  0  0  0  0  0  0  0
    2.6349   -1.0509   -1.2527 H   0  0  0  0  0  0  0  0  0  0  0  0
    1.4053   -1.9175   -2.1792 H   0  0  0  0  0  0  0  0  0  0  0  0
    1.7212    2.2946    0.8201 H   0  0  0  0  0  0  0  0  0  0  0  0
    2.7430    1.0036    0.2263 H   0  0  0  0  0  0  0  0  0  0  0  0
    2.9074    3.0439   -1.1445 H   0  0  0  0  0  0  0  0  0  0  0  0
    2.2365    1.7499   -2.1410 H   0  0  0  0  0  0  0  0  0  0  0  0
    2.1318    4.8026   -2.9118 H   0  0  0  0  0  0  0  0  0  0  0  0
    1.4733    3.4650   -3.8893 H   0  0  0  0  0  0  0  0  0  0  0  0
   -0.0908    5.9590   -3.0170 H   0  0  0  0  0  0  0  0  0  0  0  0
    0.5432    5.6520   -4.6452 H   0  0  0  0  0  0  0  0  0  0  0  0
   -0.7426    4.6281   -3.9840 H   0  0  0  0  0  0  0  0  0  0  0  0
  1  2  1  0  0  0  0
  1 17  1  0  0  0  0
  2  3  2  0  0  0  0
  3  4  1  0  0  0  0
  3  9  1  0  0  0  0
  4  5  1  0  0  0  0
  4 10  1  0  0  0  0
  5  1  2  0  0  0  0
  5  6  1  0  0  0  0
  6  7  2  0  0  0  0
  6  8  1  0  0  0  0
  9 18  1  0  0  0  0
  9 19  1  0  0  0  0
  9 20  1  0  0  0  0
 10 11  1  0  0  0  0
 10 21  1  0  0  0  0
 10 22  1  0  0  0  0
 11 12  1  0  0  0  0
 11 23  1  0  0  0  0
 11 24  1  0  0  0  0
 12 13  1  0  0  0  0
 12 15  2  0  0  0  0
 12 16  2  0  0  0  0
 13 14  1  0  0  0  0
 13 25  1  0  0  0  0
 13 26  1  0  0  0  0
 14 27  1  0  0  0  0
 14 28  1  0  0  0  0
 14 29  1  0  0  0  0
M  CHG  2   6   1   8  -1
M  END
>  <Mol_ID>
1242

>  <Formula>
C8H13N3O4S

>  <MolWeight>
247.27152

>  <Cat>
S4068

>  <Name>
Tinidazole

>  <Synonyms>
CP12574

>  <Target>
Parasite

>  <Form>
free base

>  <CAS>
19387-91-8

>  <URL>
http://selleckchem.com/products/tinidazole.html

$$$$
