Tioxolone.cdx
 OpenBabel08302521473D

 15 16  0  0  0  0  0  0  0  0999 V2000
   -2.1286   -0.7485    0.0006 C   0  0  0  0  0  0  0  0  0  0  0  0
   -2.2264    0.6478   -0.0003 C   0  0  0  0  0  0  0  0  0  0  0  0
   -1.0660    1.4277   -0.0002 C   0  0  0  0  0  0  0  0  0  0  0  0
    0.1634    0.7881    0.0007 C   0  0  0  0  0  0  0  0  0  0  0  0
    0.2471   -0.6004    0.0013 C   0  0  0  0  0  0  0  0  0  0  0  0
   -0.8922   -1.3894    0.0011 C   0  0  0  0  0  0  0  0  0  0  0  0
    1.7598    1.5064    0.0011 S   0  0  0  0  0  0  0  0  0  0  0  0
    2.4426   -0.1269    0.0011 C   0  0  0  0  0  0  0  0  0  0  0  0
    1.5181   -1.1706    0.0018 O   0  0  0  0  0  0  0  0  0  0  0  0
   -3.2475   -1.5291    0.0016 O   0  0  0  0  0  0  0  0  0  0  0  0
    3.6516   -0.3171    0.0004 O   0  0  0  0  0  0  0  0  0  0  0  0
   -3.1945    1.1410   -0.0014 H   0  0  0  0  0  0  0  0  0  0  0  0
   -1.1311    2.5113   -0.0004 H   0  0  0  0  0  0  0  0  0  0  0  0
   -0.8283   -2.4723    0.0017 H   0  0  0  0  0  0  0  0  0  0  0  0
   -4.0332   -0.9575    0.0076 H   0  0  0  0  0  0  0  0  0  0  0  0
  1  2  2  0  0  0  0
  1 10  1  0  0  0  0
  2  3  1  0  0  0  0
  2 12  1  0  0  0  0
  3  4  2  0  0  0  0
  3 13  1  0  0  0  0
  4  5  1  0  0  0  0
  4  7  1  0  0  0  0
  5  6  2  0  0  0  0
  6  1  1  0  0  0  0
  6 14  1  0  0  0  0
  7  8  1  0  0  0  0
  8  9  1  0  0  0  0
  8 11  2  0  0  0  0
  9  5  1  0  0  0  0
 10 15  1  0  0  0  0
M  END
>  <Mol_ID>
976

>  <Formula>
C7H4O3S

>  <MolWeight>
168.16986

>  <Cat>
S2603

>  <Name>
Tioxolone

>  <Synonyms>
Thioxolone

>  <Target>
Carbonic Anhydrase

>  <Form>
free base

>  <CAS>
4991-65-5

>  <URL>
http://selleckchem.com/products/tioxolone.html

$$$$
