Tirapazamine
 OpenBabel08302521233D

 19 20  0  0  0  0  0  0  0  0999 V2000
    1.2946   -1.3169    0.0607 N   0  3  0  0  0  0  0  0  0  0  0  0
    2.4458   -0.6446    0.0775 N   0  0  0  0  0  0  0  0  0  0  0  0
    2.4224    0.6927    0.0906 C   0  0  0  0  0  0  0  0  0  0  0  0
    1.2246    1.4184    0.0416 N   0  3  0  0  0  0  0  0  0  0  0  0
    0.0147    0.7158    0.0185 C   0  0  0  0  0  0  0  0  0  0  0  0
    0.0471   -0.6881    0.0347 C   0  0  0  0  0  0  0  0  0  0  0  0
   -1.2345    1.3738   -0.0266 C   0  0  0  0  0  0  0  0  0  0  0  0
   -2.4253    0.6462   -0.0520 C   0  0  0  0  0  0  0  0  0  0  0  0
   -2.3922   -0.7457   -0.0308 C   0  0  0  0  0  0  0  0  0  0  0  0
   -1.1673   -1.4120    0.0124 C   0  0  0  0  0  0  0  0  0  0  0  0
    3.6381    1.3741    0.1324 N   0  0  0  0  0  0  0  0  0  0  0  0
    1.4087   -2.5730    0.0559 O   0  5  0  0  0  0  0  0  0  0  0  0
    1.2505    2.7013   -0.0103 O   0  5  0  0  0  0  0  0  0  0  0  0
   -1.2709    2.4636   -0.0418 H   0  0  0  0  0  0  0  0  0  0  0  0
   -3.3795    1.1683   -0.0885 H   0  0  0  0  0  0  0  0  0  0  0  0
   -3.3206   -1.3136   -0.0499 H   0  0  0  0  0  0  0  0  0  0  0  0
   -1.1478   -2.5021    0.0260 H   0  0  0  0  0  0  0  0  0  0  0  0
    3.5170    2.3488   -0.1430 H   0  0  0  0  0  0  0  0  0  0  0  0
    4.4072    0.8522   -0.2666 H   0  0  0  0  0  0  0  0  0  0  0  0
  1  2  2  0  0  0  0
  1  6  1  0  0  0  0
  1 12  1  0  0  0  0
  2  3  1  0  0  0  0
  3  4  2  0  0  0  0
  3 11  1  0  0  0  0
  4  5  1  0  0  0  0
  4 13  1  0  0  0  0
  5  6  2  0  0  0  0
  5  7  1  0  0  0  0
  6 10  1  0  0  0  0
  7  8  2  0  0  0  0
  7 14  1  0  0  0  0
  8  9  1  0  0  0  0
  8 15  1  0  0  0  0
  9 10  2  0  0  0  0
  9 16  1  0  0  0  0
 10 17  1  0  0  0  0
 11 18  1  0  0  0  0
 11 19  1  0  0  0  0
M  CHG  4   1   1   4   1  12  -1  13  -1
M  END
>  <Mol_ID>
4876

>  <Formula>
C7H6N4O2

>  <MolWeight>
178.14814

>  <Cat>
S2426

>  <Name>
Tirapazamine

>  <Synonyms>
NSC 130181, SR 259075, SR 4233, Tirazone, WIN 59075

>  <Target>
Others

>  <Form>
Free Base

>  <CAS>
27314-97-2

>  <URL>
http://www.selleck.cn/products/tirapazamine.html

$$$$
