Tirasemtiv (CK-2017357)
 OpenBabel08302521273D

 31 32  0  0  0  0  0  0  0  0999 V2000
    5.0653   -1.2245    1.0722 O   0  0  0  0  0  0  0  0  0  0  0  0
    3.0352   -0.9242   -0.0932 N   0  0  0  0  0  0  0  0  0  0  0  0
    4.3654    0.8563    0.3058 N   0  0  0  0  0  0  0  0  0  0  0  0
    1.1803    0.3320   -1.1486 N   0  0  0  0  0  0  0  0  0  0  0  0
    2.9521    2.5763   -0.6748 N   0  0  0  0  0  0  0  0  0  0  0  0
    2.5239   -2.2818   -0.1153 C   0  0  0  0  0  0  0  0  0  0  0  0
    1.7360   -2.6323    1.1655 C   0  0  0  0  0  0  0  0  0  0  0  0
    1.7545   -2.6691   -1.3957 C   0  0  0  0  0  0  0  0  0  0  0  0
    2.3872    0.2233   -0.5727 C   0  0  0  0  0  0  0  0  0  0  0  0
    4.2505   -0.5238    0.4972 C   0  0  0  0  0  0  0  0  0  0  0  0
    3.2318    1.3123   -0.3405 C   0  0  0  0  0  0  0  0  0  0  0  0
    0.4979   -1.7855    1.4224 C   0  0  0  0  0  0  0  0  0  0  0  0
    2.5942   -2.5273   -2.6605 C   0  0  0  0  0  0  0  0  0  0  0  0
    0.8683    1.6084   -1.4873 C   0  0  0  0  0  0  0  0  0  0  0  0
    1.7306    2.6942   -1.2633 C   0  0  0  0  0  0  0  0  0  0  0  0
   -0.4211    1.8024   -2.0679 C   0  0  0  0  0  0  0  0  0  0  0  0
   -1.5090    2.0012   -2.5418 C   0  0  0  0  0  0  0  0  0  0  0  0
    5.1285    1.4307    0.6182 H   0  0  0  0  0  0  0  0  0  0  0  0
    3.4128   -2.9283   -0.0877 H   0  0  0  0  0  0  0  0  0  0  0  0
    1.4324   -3.6860    1.1164 H   0  0  0  0  0  0  0  0  0  0  0  0
    2.3990   -2.5441    2.0355 H   0  0  0  0  0  0  0  0  0  0  0  0
    1.4311   -3.7145   -1.3181 H   0  0  0  0  0  0  0  0  0  0  0  0
    0.8392   -2.0812   -1.5074 H   0  0  0  0  0  0  0  0  0  0  0  0
   -0.1724   -1.7683    0.5589 H   0  0  0  0  0  0  0  0  0  0  0  0
   -0.0627   -2.1933    2.2699 H   0  0  0  0  0  0  0  0  0  0  0  0
    0.7696   -0.7566    1.6765 H   0  0  0  0  0  0  0  0  0  0  0  0
    3.4557   -3.2015   -2.6332 H   0  0  0  0  0  0  0  0  0  0  0  0
    1.9924   -2.7807   -3.5389 H   0  0  0  0  0  0  0  0  0  0  0  0
    2.9639   -1.5071   -2.7976 H   0  0  0  0  0  0  0  0  0  0  0  0
    1.4438    3.7024   -1.5495 H   0  0  0  0  0  0  0  0  0  0  0  0
   -2.4727    2.1913   -2.9528 H   0  0  0  0  0  0  0  0  0  0  0  0
  1 10  2  0  0  0  0
  2  6  1  0  0  0  0
  2  9  1  0  0  0  0
  2 10  1  0  0  0  0
  3 10  1  0  0  0  0
  3 11  1  0  0  0  0
  3 18  1  0  0  0  0
  4  9  2  0  0  0  0
  4 14  1  0  0  0  0
  5 11  2  0  0  0  0
  5 15  1  0  0  0  0
  6  7  1  0  0  0  0
  6  8  1  0  0  0  0
  6 19  1  0  0  0  0
  7 12  1  0  0  0  0
  7 20  1  0  0  0  0
  7 21  1  0  0  0  0
  8 13  1  0  0  0  0
  8 22  1  0  0  0  0
  8 23  1  0  0  0  0
  9 11  1  0  0  0  0
 12 24  1  0  0  0  0
 12 25  1  0  0  0  0
 12 26  1  0  0  0  0
 13 27  1  0  0  0  0
 13 28  1  0  0  0  0
 13 29  1  0  0  0  0
 14 15  2  0  0  0  0
 14 16  1  0  0  0  0
 15 30  1  0  0  0  0
 16 17  3  0  0  0  0
 17 31  1  0  0  0  0
M  END
>  <Mol_ID>
5356

>  <Formula>
C12H14N4O

>  <MolWeight>
230.26576

>  <Cat>
S0196

>  <Name>
Tirasemtiv (CK-2017357)

>  <Synonyms>
CK-357

>  <Target>
Others

>  <Form>
Free Base

>  <CAS>
1005491-05-3

>  <URL>
https://www.selleckchem.com/products/tirasemtiv-ck-2017357.html

$$$$
