Tizanidine hydrochloride.cdx
 OpenBabel08302522013D

 24 26  0  0  0  0  0  0  0  0999 V2000
   -2.4480   -0.7904    0.0187 C   0  0  0  0  0  0  0  0  0  0  0  0
   -2.5599    0.6213   -0.0594 C   0  0  0  0  0  0  0  0  0  0  0  0
   -1.4498    1.4759   -0.0952 C   0  0  0  0  0  0  0  0  0  0  0  0
   -0.1852    0.8452   -0.0494 C   0  0  0  0  0  0  0  0  0  0  0  0
   -0.0602   -0.6539    0.0530 C   0  0  0  0  0  0  0  0  0  0  0  0
   -1.2201   -1.4918    0.0994 C   0  0  0  0  0  0  0  0  0  0  0  0
    0.9971    1.4795   -0.0879 N   0  0  0  0  0  0  0  0  0  0  0  0
    2.1646    0.3028   -0.0243 S   0  0  0  0  0  0  0  0  0  0  0  0
    1.2246   -1.0555    0.0987 N   0  0  0  0  0  0  0  0  0  0  0  0
   -1.2539   -2.8961    0.2441 N   0  0  0  0  0  0  0  0  0  0  0  0
   -0.3157   -3.6864    0.8234 C   0  0  0  0  0  0  0  0  0  0  0  0
    0.3885   -3.2106    1.8899 N   0  0  0  0  0  0  0  0  0  0  0  0
    1.4832   -4.1227    2.1142 C   0  0  0  0  0  0  0  0  0  0  0  0
    0.9611   -5.3796    1.4178 C   0  0  0  0  0  0  0  0  0  0  0  0
   -0.0977   -4.9249    0.4688 N   0  0  0  0  0  0  0  0  0  0  0  0
   -3.3756   -1.3640    0.0632 H   0  0  0  0  0  0  0  0  0  0  0  0
   -3.5567    1.0631   -0.0821 H   0  0  0  0  0  0  0  0  0  0  0  0
   -1.5441    2.5533   -0.1492 H   0  0  0  0  0  0  0  0  0  0  0  0
   -1.7515   -3.3671   -0.5023 H   0  0  0  0  0  0  0  0  0  0  0  0
    0.6719   -2.2422    1.7940 H   0  0  0  0  0  0  0  0  0  0  0  0
    1.6880   -4.2753    3.1763 H   0  0  0  0  0  0  0  0  0  0  0  0
    2.3859   -3.7471    1.6201 H   0  0  0  0  0  0  0  0  0  0  0  0
    1.7643   -5.8995    0.8871 H   0  0  0  0  0  0  0  0  0  0  0  0
    0.5129   -6.0705    2.1413 H   0  0  0  0  0  0  0  0  0  0  0  0
  1  2  1  0  0  0  0
  1 16  1  0  0  0  0
  2  3  2  0  0  0  0
  2 17  1  0  0  0  0
  3  4  1  0  0  0  0
  3 18  1  0  0  0  0
  4  5  1  0  0  0  0
  4  7  2  0  0  0  0
  5  6  1  0  0  0  0
  6  1  2  0  0  0  0
  6 10  1  0  0  0  0
  7  8  1  0  0  0  0
  8  9  1  0  0  0  0
  9  5  2  0  0  0  0
 10 11  1  0  0  0  0
 10 19  1  0  0  0  0
 11 12  1  0  0  0  0
 12 13  1  0  0  0  0
 12 20  1  0  0  0  0
 13 14  1  0  0  0  0
 13 21  1  0  0  0  0
 13 22  1  0  0  0  0
 14 15  1  0  0  0  0
 14 23  1  0  0  0  0
 14 24  1  0  0  0  0
 15 11  2  0  0  0  0
M  END
>  <Mol_ID>
1112

>  <Formula>
C9H9Cl2N5S

>  <MolWeight>
290.17226

>  <Cat>
S1437

>  <Name>
Tizanidine HCl

>  <Synonyms>
DS 103-282

>  <Target>
Adrenergic Receptor

>  <Form>
Hydrochloride

>  <CAS>
64461-82-1

>  <URL>
http://selleckchem.com/products/Tizanidine-hydrochloride.html

$$$$
