TJ191
 OpenBabel08302521323D

 38 38  0  0  0  0  0  0  0  0999 V2000
    0.7304    0.5926    0.7174 C   0  0  0  0  0  0  0  0  0  0  0  0
    0.3502    1.2358   -0.4509 C   0  0  0  0  0  0  0  0  0  0  0  0
   -1.0030    0.8936   -0.8025 C   0  0  0  0  0  0  0  0  0  0  0  0
   -1.5852    0.0032    0.0732 C   0  0  0  0  0  0  0  0  0  0  0  0
   -0.5420   -0.3449    1.3766 S   0  0  0  0  0  0  0  0  0  0  0  0
    1.2212    2.1163   -1.2274 C   0  0  0  0  0  0  0  0  0  0  0  0
    2.3930    2.3558   -0.9415 O   0  0  0  0  0  0  0  0  0  0  0  0
    0.5869    2.6281   -2.3251 O   0  0  0  0  0  0  0  0  0  0  0  0
   -2.9397   -0.6348   -0.0183 C   0  0  0  0  0  0  0  0  0  0  0  0
   -3.1095   -1.4921   -1.2819 C   0  0  0  0  0  0  0  0  0  0  0  0
   -2.1284   -2.6686   -1.3755 C   0  0  0  0  0  0  0  0  0  0  0  0
   -2.3568   -3.4939   -2.6482 C   0  0  0  0  0  0  0  0  0  0  0  0
   -1.3672   -4.6601   -2.7446 C   0  0  0  0  0  0  0  0  0  0  0  0
   -1.5876   -5.4946   -4.0083 C   0  0  0  0  0  0  0  0  0  0  0  0
   -0.6044   -6.6533   -4.0927 C   0  0  0  0  0  0  0  0  0  0  0  0
    1.9259    0.6295    1.3434 N   0  0  0  0  0  0  0  0  0  0  0  0
    1.3940    3.4871   -3.1275 C   0  0  0  0  0  0  0  0  0  0  0  0
   -1.5073    1.2589   -1.6898 H   0  0  0  0  0  0  0  0  0  0  0  0
   -3.1539   -1.2421    0.8695 H   0  0  0  0  0  0  0  0  0  0  0  0
   -3.6932    0.1637   -0.0341 H   0  0  0  0  0  0  0  0  0  0  0  0
   -4.1355   -1.8807   -1.2936 H   0  0  0  0  0  0  0  0  0  0  0  0
   -3.0042   -0.8607   -2.1729 H   0  0  0  0  0  0  0  0  0  0  0  0
   -1.0966   -2.2991   -1.3780 H   0  0  0  0  0  0  0  0  0  0  0  0
   -2.2414   -3.3107   -0.4938 H   0  0  0  0  0  0  0  0  0  0  0  0
   -3.3831   -3.8803   -2.6567 H   0  0  0  0  0  0  0  0  0  0  0  0
   -2.2470   -2.8484   -3.5281 H   0  0  0  0  0  0  0  0  0  0  0  0
   -0.3417   -4.2705   -2.7406 H   0  0  0  0  0  0  0  0  0  0  0  0
   -1.4722   -5.3017   -1.8615 H   0  0  0  0  0  0  0  0  0  0  0  0
   -2.6093   -5.8915   -4.0199 H   0  0  0  0  0  0  0  0  0  0  0  0
   -1.4744   -4.8637   -4.8977 H   0  0  0  0  0  0  0  0  0  0  0  0
   -0.7138   -7.3251   -3.2350 H   0  0  0  0  0  0  0  0  0  0  0  0
   -0.7798   -7.2359   -5.0028 H   0  0  0  0  0  0  0  0  0  0  0  0
    0.4290   -6.2923   -4.1162 H   0  0  0  0  0  0  0  0  0  0  0  0
    2.1394   -0.0545    2.0615 H   0  0  0  0  0  0  0  0  0  0  0  0
    2.7405    1.0096    0.8603 H   0  0  0  0  0  0  0  0  0  0  0  0
    1.7031    4.3661   -2.5541 H   0  0  0  0  0  0  0  0  0  0  0  0
    2.2645    2.9482   -3.5150 H   0  0  0  0  0  0  0  0  0  0  0  0
    0.7912    3.8228   -3.9762 H   0  0  0  0  0  0  0  0  0  0  0  0
  1  2  2  0  0  0  0
  1  5  1  0  0  0  0
  1 16  1  0  0  0  0
  2  3  1  0  0  0  0
  2  6  1  0  0  0  0
  3  4  2  0  0  0  0
  3 18  1  0  0  0  0
  4  5  1  0  0  0  0
  4  9  1  0  0  0  0
  6  7  2  0  0  0  0
  6  8  1  0  0  0  0
  8 17  1  0  0  0  0
  9 10  1  0  0  0  0
  9 19  1  0  0  0  0
  9 20  1  0  0  0  0
 10 11  1  0  0  0  0
 10 21  1  0  0  0  0
 10 22  1  0  0  0  0
 11 12  1  0  0  0  0
 11 23  1  0  0  0  0
 11 24  1  0  0  0  0
 12 13  1  0  0  0  0
 12 25  1  0  0  0  0
 12 26  1  0  0  0  0
 13 14  1  0  0  0  0
 13 27  1  0  0  0  0
 13 28  1  0  0  0  0
 14 15  1  0  0  0  0
 14 29  1  0  0  0  0
 14 30  1  0  0  0  0
 15 31  1  0  0  0  0
 15 32  1  0  0  0  0
 15 33  1  0  0  0  0
 16 34  1  0  0  0  0
 16 35  1  0  0  0  0
 17 36  1  0  0  0  0
 17 37  1  0  0  0  0
 17 38  1  0  0  0  0
M  END
>  <Mol_ID>
6239

>  <Formula>
C13H21NO2S

>  <MolWeight>
255.37634

>  <Cat>
S6973

>  <Name>
TJ191

>  <Synonyms>
N/A

>  <Target>
Others

>  <Form>
free base

>  <CAS>
1522415-97-9

>  <URL>
http://www.selleckchem.com/products/tj191.html

$$$$
