TK216
 OpenBabel08302521303D

 40 43  0  0  0  0  0  0  0  0999 V2000
    1.9761    1.7083   -0.1393 C   0  0  0  0  0  0  0  0  0  0  0  0
    2.3847    0.3699   -0.2781 C   0  0  0  0  0  0  0  0  0  0  0  0
    1.4452   -0.6556   -0.4143 C   0  0  0  0  0  0  0  0  0  0  0  0
    0.1139   -0.3012   -0.3845 C   0  0  0  0  0  0  0  0  0  0  0  0
   -0.3052    1.0188   -0.2056 C   0  0  0  0  0  0  0  0  0  0  0  0
    0.6201    2.0436   -0.1022 C   0  0  0  0  0  0  0  0  0  0  0  0
   -0.9833   -1.1421   -0.5175 N   0  0  0  0  0  0  0  0  0  0  0  0
   -2.1792   -0.4424   -0.3802 C   0  0  0  0  0  0  0  0  0  0  0  0
   -1.8097    1.0609   -0.1417 C   0  0  3  0  0  0  0  0  0  0  0  0
   -3.2970   -0.9105   -0.5282 O   0  0  0  0  0  0  0  0  0  0  0  0
   -2.2787    1.8960   -1.2041 O   0  0  0  0  0  0  0  0  0  0  0  0
   -2.3857    1.6171    1.1611 C   0  0  0  0  0  0  0  0  0  0  0  0
   -2.0066    0.8775    2.4352 C   0  0  0  0  0  0  0  0  0  0  0  0
   -1.3523   -0.1618    2.4440 O   0  0  0  0  0  0  0  0  0  0  0  0
   -2.5359    1.4025    3.7281 C   0  0  0  0  0  0  0  0  0  0  0  0
   -2.8163    0.4802    4.7402 C   0  0  0  0  0  0  0  0  0  0  0  0
   -3.3970    0.9008    5.9372 C   0  0  0  0  0  0  0  0  0  0  0  0
   -3.6992    2.2513    6.1826 C   0  0  0  0  0  0  0  0  0  0  0  0
   -3.3666    3.1724    5.1761 C   0  0  0  0  0  0  0  0  0  0  0  0
   -2.7911    2.7587    3.9616 C   0  0  0  0  0  0  0  0  0  0  0  0
   -4.3992    2.6285    7.4700 C   0  0  0  0  0  0  0  0  0  0  0  0
   -4.1690    3.9164    8.2147 C   0  0  0  0  0  0  0  0  0  0  0  0
   -3.5785    2.6426    8.7380 C   0  0  0  0  0  0  0  0  0  0  0  0
    2.7251    2.4925   -0.0522 H   0  0  0  0  0  0  0  0  0  0  0  0
    3.4461    0.1322   -0.2777 H   0  0  0  0  0  0  0  0  0  0  0  0
    1.7597   -1.6870   -0.5212 H   0  0  0  0  0  0  0  0  0  0  0  0
    0.3024    3.0765    0.0004 H   0  0  0  0  0  0  0  0  0  0  0  0
   -0.9438   -2.1386   -0.6677 H   0  0  0  0  0  0  0  0  0  0  0  0
   -2.2136    1.3708   -2.0217 H   0  0  0  0  0  0  0  0  0  0  0  0
   -2.0819    2.6668    1.2532 H   0  0  0  0  0  0  0  0  0  0  0  0
   -3.4831    1.6023    1.0951 H   0  0  0  0  0  0  0  0  0  0  0  0
   -2.6112   -0.5787    4.5881 H   0  0  0  0  0  0  0  0  0  0  0  0
   -3.6394    0.1559    6.6934 H   0  0  0  0  0  0  0  0  0  0  0  0
   -3.5688    4.2309    5.3293 H   0  0  0  0  0  0  0  0  0  0  0  0
   -2.5498    3.5176    3.2231 H   0  0  0  0  0  0  0  0  0  0  0  0
   -5.4086    2.2261    7.5579 H   0  0  0  0  0  0  0  0  0  0  0  0
   -3.4948    4.6591    7.8096 H   0  0  0  0  0  0  0  0  0  0  0  0
   -5.0065    4.3377    8.7641 H   0  0  0  0  0  0  0  0  0  0  0  0
   -4.0126    2.1892    9.6210 H   0  0  0  0  0  0  0  0  0  0  0  0
   -2.5009    2.5265    8.6674 H   0  0  0  0  0  0  0  0  0  0  0  0
  1  2  2  0  0  0  0
  1 24  1  0  0  0  0
  2  3  1  0  0  0  0
  2 25  1  0  0  0  0
  3  4  2  0  0  0  0
  3 26  1  0  0  0  0
  4  5  1  0  0  0  0
  4  7  1  0  0  0  0
  5  6  2  0  0  0  0
  6  1  1  0  0  0  0
  6 27  1  0  0  0  0
  7  8  1  0  0  0  0
  7 28  1  0  0  0  0
  8  9  1  0  0  0  0
  8 10  2  0  0  0  0
  9  5  1  0  0  0  0
  9 11  1  0  0  0  0
  9 12  1  0  0  0  0
 11 29  1  0  0  0  0
 12 13  1  0  0  0  0
 12 30  1  0  0  0  0
 12 31  1  0  0  0  0
 13 14  2  0  0  0  0
 13 15  1  0  0  0  0
 15 16  2  0  0  0  0
 16 17  1  0  0  0  0
 16 32  1  0  0  0  0
 17 18  2  0  0  0  0
 17 33  1  0  0  0  0
 18 19  1  0  0  0  0
 18 21  1  0  0  0  0
 19 20  2  0  0  0  0
 19 34  1  0  0  0  0
 20 15  1  0  0  0  0
 20 35  1  0  0  0  0
 21 22  1  0  0  0  0
 21 36  1  0  0  0  0
 22 23  1  0  0  0  0
 22 37  1  0  0  0  0
 22 38  1  0  0  0  0
 23 21  1  0  0  0  0
 23 39  1  0  0  0  0
 23 40  1  0  0  0  0
M  END
>  <Mol_ID>
5570

>  <Formula>
C19H15Cl2NO3

>  <MolWeight>
376.2333

>  <Cat>
S9718

>  <Name>
TK216

>  <Synonyms>
ONCT 216, SPH-8216

>  <Target>
DNA/RNA Synthesis

>  <Form>
Free Base

>  <CAS>
1903783-48-1

>  <URL>
https://www.selleckchem.com/products/tk216.html

$$$$
