TLR2-IN-C29
 OpenBabel08302521253D

 36 37  0  0  0  0  0  0  0  0999 V2000
    2.0389   -5.1633    0.4608 O   0  0  0  0  0  0  0  0  0  0  0  0
    0.6327   -2.6338    0.6541 O   0  0  0  0  0  0  0  0  0  0  0  0
   -7.5340    1.8667   -1.1807 O   0  0  0  0  0  0  0  0  0  0  0  0
   -6.7395    0.6435   -2.9016 O   0  0  0  0  0  0  0  0  0  0  0  0
   -3.4089   -2.3813    0.0140 N   0  0  0  0  0  0  0  0  0  0  0  0
   -5.0340   -0.7438   -0.8458 C   0  0  0  0  0  0  0  0  0  0  0  0
   -3.9769   -1.0826    0.0282 C   0  0  0  0  0  0  0  0  0  0  0  0
   -5.5635    0.5756   -0.8116 C   0  0  0  0  0  0  0  0  0  0  0  0
   -1.4003   -3.7792    0.1426 C   0  0  0  0  0  0  0  0  0  0  0  0
   -3.5282   -0.1241    0.9551 C   0  0  0  0  0  0  0  0  0  0  0  0
   -5.5954   -1.7649   -1.8048 C   0  0  0  0  0  0  0  0  0  0  0  0
   -5.0356    1.5289    0.0783 C   0  0  0  0  0  0  0  0  0  0  0  0
   -0.0197   -3.8127    0.4080 C   0  0  0  0  0  0  0  0  0  0  0  0
   -4.0353    1.1731    0.9723 C   0  0  0  0  0  0  0  0  0  0  0  0
   -2.1193   -2.4838    0.1276 C   0  0  0  0  0  0  0  0  0  0  0  0
    0.6806   -5.0246    0.3485 C   0  0  0  0  0  0  0  0  0  0  0  0
   -2.0790   -4.9556   -0.1868 C   0  0  0  0  0  0  0  0  0  0  0  0
   -0.0085   -6.1928    0.0067 C   0  0  0  0  0  0  0  0  0  0  0  0
   -1.3814   -6.1621   -0.2544 C   0  0  0  0  0  0  0  0  0  0  0  0
   -6.6453    1.0170   -1.7443 C   0  0  0  0  0  0  0  0  0  0  0  0
    2.6514   -4.5644    1.6003 C   0  0  0  0  0  0  0  0  0  0  0  0
    1.5200   -2.7269    0.2670 H   0  0  0  0  0  0  0  0  0  0  0  0
   -7.4500    1.9742   -0.2159 H   0  0  0  0  0  0  0  0  0  0  0  0
   -2.7514   -0.3834    1.6711 H   0  0  0  0  0  0  0  0  0  0  0  0
   -6.6847   -1.8223   -1.7017 H   0  0  0  0  0  0  0  0  0  0  0  0
   -5.3369   -1.5007   -2.8347 H   0  0  0  0  0  0  0  0  0  0  0  0
   -5.2140   -2.7725   -1.6195 H   0  0  0  0  0  0  0  0  0  0  0  0
   -5.3809    2.5601    0.0715 H   0  0  0  0  0  0  0  0  0  0  0  0
   -3.6393    1.9000    1.6743 H   0  0  0  0  0  0  0  0  0  0  0  0
   -1.4795   -1.5872    0.2182 H   0  0  0  0  0  0  0  0  0  0  0  0
   -3.1404   -4.9305   -0.4246 H   0  0  0  0  0  0  0  0  0  0  0  0
    0.5301   -7.1348   -0.0718 H   0  0  0  0  0  0  0  0  0  0  0  0
   -1.9022   -7.0749   -0.5351 H   0  0  0  0  0  0  0  0  0  0  0  0
    2.9815   -3.5485    1.3632 H   0  0  0  0  0  0  0  0  0  0  0  0
    2.0112   -4.5720    2.4860 H   0  0  0  0  0  0  0  0  0  0  0  0
    3.5568   -5.1377    1.8273 H   0  0  0  0  0  0  0  0  0  0  0  0
  1 16  1  0  0  0  0
  1 21  1  0  0  0  0
  2 13  1  0  0  0  0
  2 22  1  0  0  0  0
  3 20  1  0  0  0  0
  3 23  1  0  0  0  0
  4 20  2  0  0  0  0
  5  7  1  0  0  0  0
  5 15  2  0  0  0  0
  6  7  2  0  0  0  0
  6  8  1  0  0  0  0
  6 11  1  0  0  0  0
  7 10  1  0  0  0  0
  8 12  2  0  0  0  0
  8 20  1  0  0  0  0
  9 13  2  0  0  0  0
  9 15  1  0  0  0  0
  9 17  1  0  0  0  0
 10 14  2  0  0  0  0
 10 24  1  0  0  0  0
 11 25  1  0  0  0  0
 11 26  1  0  0  0  0
 11 27  1  0  0  0  0
 12 14  1  0  0  0  0
 12 28  1  0  0  0  0
 13 16  1  0  0  0  0
 14 29  1  0  0  0  0
 15 30  1  0  0  0  0
 16 18  2  0  0  0  0
 17 19  2  0  0  0  0
 17 31  1  0  0  0  0
 18 19  1  0  0  0  0
 18 32  1  0  0  0  0
 19 33  1  0  0  0  0
 21 34  1  0  0  0  0
 21 35  1  0  0  0  0
 21 36  1  0  0  0  0
M  END
>  <Mol_ID>
5181

>  <Formula>
C16H15NO4

>  <MolWeight>
285.2946

>  <Cat>
S6597

>  <Name>
TLR2-IN-C29

>  <Synonyms>
C29

>  <Target>
TLR

>  <Form>
free base

>  <CAS>
363600-92-4

>  <URL>
http://www.selleckchem.com/products/tlr2-in-c29.html

$$$$
