TLR4-IN-C34
 OpenBabel08302521313D

 54 54  0  0  0  0  0  0  0  0999 V2000
   -1.1757    0.0598   -0.3644 O   0  0  0  0  0  0  0  0  0  0  0  0
    3.0091   -0.0967   -0.3002 O   0  0  0  0  0  0  0  0  0  0  0  0
   -0.8262   -1.1060    1.6715 O   0  0  0  0  0  0  0  0  0  0  0  0
    1.5772    2.3845    0.4150 O   0  0  0  0  0  0  0  0  0  0  0  0
   -2.6464    2.4231   -0.0249 O   0  0  0  0  0  0  0  0  0  0  0  0
    2.7164   -4.3316    0.5662 O   0  0  0  0  0  0  0  0  0  0  0  0
    2.3565   -0.2896   -2.4900 O   0  0  0  0  0  0  0  0  0  0  0  0
    2.3450    3.2459   -1.5678 O   0  0  0  0  0  0  0  0  0  0  0  0
   -2.9962    4.4435   -1.0561 O   0  0  0  0  0  0  0  0  0  0  0  0
    1.4531   -2.4894    0.4708 N   0  0  0  0  0  0  0  0  0  0  0  0
    1.6326   -0.0332    0.1817 C   0  0  2  0  0  0  0  0  0  0  0  0
    0.8233   -1.3122   -0.1573 C   0  0  2  0  0  0  0  0  0  0  0  0
    0.9443    1.2706   -0.2691 C   0  0  1  0  0  0  0  0  0  0  0  0
   -0.5383    1.2551    0.1134 C   0  0  1  0  0  0  0  0  0  0  0  0
   -0.6636   -1.1255    0.2486 C   0  0  2  0  0  0  0  0  0  0  0  0
   -1.2780    2.4665   -0.4725 C   0  0  0  0  0  0  0  0  0  0  0  0
   -2.1836   -0.9049    2.1035 C   0  0  0  0  0  0  0  0  0  0  0  0
    2.0127   -3.5849   -0.1134 C   0  0  0  0  0  0  0  0  0  0  0  0
    3.2296   -0.2222   -1.6351 C   0  0  0  0  0  0  0  0  0  0  0  0
    2.2211    3.3004   -0.3521 C   0  0  0  0  0  0  0  0  0  0  0  0
   -3.0953   -2.0870    1.7894 C   0  0  0  0  0  0  0  0  0  0  0  0
   -2.1464   -0.6611    3.6094 C   0  0  0  0  0  0  0  0  0  0  0  0
    1.7156   -3.8829   -1.5568 C   0  0  0  0  0  0  0  0  0  0  0  0
    4.6937   -0.2913   -1.9301 C   0  0  0  0  0  0  0  0  0  0  0  0
    2.7741    4.4007    0.5020 C   0  0  0  0  0  0  0  0  0  0  0  0
   -3.4022    3.4807   -0.4220 C   0  0  0  0  0  0  0  0  0  0  0  0
   -4.8110    3.3109    0.0580 C   0  0  0  0  0  0  0  0  0  0  0  0
    1.6695   -2.4211    1.4597 H   0  0  0  0  0  0  0  0  0  0  0  0
    1.7458    0.0133    1.2738 H   0  0  0  0  0  0  0  0  0  0  0  0
    0.8250   -1.4646   -1.2368 H   0  0  0  0  0  0  0  0  0  0  0  0
    1.0215    1.3768   -1.3546 H   0  0  0  0  0  0  0  0  0  0  0  0
   -0.6480    1.3150    1.2038 H   0  0  0  0  0  0  0  0  0  0  0  0
   -1.2166   -1.9799   -0.1553 H   0  0  0  0  0  0  0  0  0  0  0  0
   -0.8188    3.3983   -0.1234 H   0  0  0  0  0  0  0  0  0  0  0  0
   -1.2655    2.4285   -1.5680 H   0  0  0  0  0  0  0  0  0  0  0  0
   -2.5939   -0.0036    1.6350 H   0  0  0  0  0  0  0  0  0  0  0  0
   -2.7243   -3.0059    2.2536 H   0  0  0  0  0  0  0  0  0  0  0  0
   -4.1116   -1.8963    2.1515 H   0  0  0  0  0  0  0  0  0  0  0  0
   -3.1630   -2.2707    0.7136 H   0  0  0  0  0  0  0  0  0  0  0  0
   -1.5452    0.2256    3.8377 H   0  0  0  0  0  0  0  0  0  0  0  0
   -3.1526   -0.5082    4.0130 H   0  0  0  0  0  0  0  0  0  0  0  0
   -1.6815   -1.5033    4.1332 H   0  0  0  0  0  0  0  0  0  0  0  0
    0.6583   -4.1364   -1.6668 H   0  0  0  0  0  0  0  0  0  0  0  0
    1.9780   -3.0439   -2.2022 H   0  0  0  0  0  0  0  0  0  0  0  0
    2.3130   -4.7447   -1.8742 H   0  0  0  0  0  0  0  0  0  0  0  0
    5.1714    0.6575   -1.6769 H   0  0  0  0  0  0  0  0  0  0  0  0
    5.1462   -1.1172   -1.3760 H   0  0  0  0  0  0  0  0  0  0  0  0
    4.8324   -0.4807   -2.9996 H   0  0  0  0  0  0  0  0  0  0  0  0
    1.9956    4.7888    1.1649 H   0  0  0  0  0  0  0  0  0  0  0  0
    3.6228    4.0304    1.0802 H   0  0  0  0  0  0  0  0  0  0  0  0
    3.1090    5.2217   -0.1400 H   0  0  0  0  0  0  0  0  0  0  0  0
   -5.2067    2.3495   -0.2801 H   0  0  0  0  0  0  0  0  0  0  0  0
   -4.8385    3.3749    1.1485 H   0  0  0  0  0  0  0  0  0  0  0  0
   -5.4356    4.1051   -0.3605 H   0  0  0  0  0  0  0  0  0  0  0  0
  1 14  1  0  0  0  0
  1 15  1  0  0  0  0
  2 19  1  0  0  0  0
  3 17  1  0  0  0  0
  4 20  1  0  0  0  0
  5 16  1  0  0  0  0
  5 26  1  0  0  0  0
  6 18  2  0  0  0  0
  7 19  2  0  0  0  0
  8 20  2  0  0  0  0
  9 26  2  0  0  0  0
 10 18  1  0  0  0  0
 10 28  1  0  0  0  0
 11 12  1  0  0  0  0
 11 13  1  0  0  0  0
 11 29  1  1  0  0  0
 11  2  1  0  0  0  0
 12 15  1  0  0  0  0
 12 30  1  6  0  0  0
 12 10  1  0  0  0  0
 13  4  1  0  0  0  0
 13 14  1  0  0  0  0
 13 31  1  6  0  0  0
 14 32  1  1  0  0  0
 14 16  1  0  0  0  0
 15 33  1  6  0  0  0
 15  3  1  0  0  0  0
 16 34  1  0  0  0  0
 16 35  1  0  0  0  0
 17 21  1  0  0  0  0
 17 22  1  0  0  0  0
 17 36  1  0  0  0  0
 18 23  1  0  0  0  0
 19 24  1  0  0  0  0
 20 25  1  0  0  0  0
 21 37  1  0  0  0  0
 21 38  1  0  0  0  0
 21 39  1  0  0  0  0
 22 40  1  0  0  0  0
 22 41  1  0  0  0  0
 22 42  1  0  0  0  0
 23 43  1  0  0  0  0
 23 44  1  0  0  0  0
 23 45  1  0  0  0  0
 24 46  1  0  0  0  0
 24 47  1  0  0  0  0
 24 48  1  0  0  0  0
 25 49  1  0  0  0  0
 25 50  1  0  0  0  0
 25 51  1  0  0  0  0
 26 27  1  0  0  0  0
 27 52  1  0  0  0  0
 27 53  1  0  0  0  0
 27 54  1  0  0  0  0
M  END
>  <Mol_ID>
5995

>  <Formula>
C17H27NO9

>  <MolWeight>
389.39758

>  <Cat>
S0822

>  <Name>
TLR4-IN-C34

>  <Synonyms>
TLR4-C34, C34, TLR4-C34-IN

>  <Target>
TLR

>  <Form>
Free Base

>  <CAS>
40592-88-9

>  <URL>
http://www.selleckchem.com/products/tlr4-in-c34.html

$$$$
