TLX agonist 1
 OpenBabel08302521263D

 54 57  0  0  0  0  0  0  0  0999 V2000
    1.5828    0.4489    1.1949 O   0  0  0  0  0  0  0  0  0  0  0  0
    3.8605    3.1130   -2.4469 N   0  0  0  0  0  0  0  0  0  0  0  0
    2.6338    0.9411   -0.7895 N   0  0  0  0  0  0  0  0  0  0  0  0
    2.4510   -2.0993   -1.0781 N   0  0  0  0  0  0  0  0  0  0  0  0
    2.6629   -3.3785   -0.7069 N   0  0  0  0  0  0  0  0  0  0  0  0
    2.5894    3.2676   -1.7013 C   0  0  0  0  0  0  0  0  0  0  0  0
    4.0145    1.6773   -2.7749 C   0  0  0  0  0  0  0  0  0  0  0  0
    5.0416    3.7378   -1.7787 C   0  0  0  0  0  0  0  0  0  0  0  0
    2.4106    2.3496   -0.4877 C   0  0  0  0  0  0  0  0  0  0  0  0
    3.7999    0.6589   -1.6311 C   0  0  0  0  0  0  0  0  0  0  0  0
    6.3544    3.5302   -2.5623 C   0  0  0  0  0  0  0  0  0  0  0  0
    4.8566    5.2478   -1.5015 C   0  0  0  0  0  0  0  0  0  0  0  0
    2.1834    0.0392    0.1973 C   0  0  0  0  0  0  0  0  0  0  0  0
    6.4576    3.9043   -3.9145 C   0  0  0  0  0  0  0  0  0  0  0  0
    5.5132    5.8528   -0.4166 C   0  0  0  0  0  0  0  0  0  0  0  0
    7.4751    2.9679   -1.9383 C   0  0  0  0  0  0  0  0  0  0  0  0
    4.0462    6.0618   -2.3168 C   0  0  0  0  0  0  0  0  0  0  0  0
    2.4732   -1.4033    0.0741 C   0  0  0  0  0  0  0  0  0  0  0  0
    7.6459    3.7081   -4.6221 C   0  0  0  0  0  0  0  0  0  0  0  0
    5.3102    7.2059   -0.1201 C   0  0  0  0  0  0  0  0  0  0  0  0
    8.6624    2.7747   -2.6491 C   0  0  0  0  0  0  0  0  0  0  0  0
    3.8184    7.4029   -2.0015 C   0  0  0  0  0  0  0  0  0  0  0  0
    2.7342   -2.2711    1.1692 C   0  0  0  0  0  0  0  0  0  0  0  0
    2.9085   -3.5283    0.6339 C   0  0  0  0  0  0  0  0  0  0  0  0
    8.7484    3.1401   -3.9890 C   0  0  0  0  0  0  0  0  0  0  0  0
    4.4456    7.9732   -0.8988 C   0  0  0  0  0  0  0  0  0  0  0  0
    3.2554   -4.8061    1.2999 C   0  0  0  0  0  0  0  0  0  0  0  0
    2.5829   -4.4244   -1.7010 C   0  0  0  0  0  0  0  0  0  0  0  0
    2.4155    4.2968   -1.3763 H   0  0  0  0  0  0  0  0  0  0  0  0
    1.7770    3.0620   -2.4111 H   0  0  0  0  0  0  0  0  0  0  0  0
    3.2658    1.4603   -3.5495 H   0  0  0  0  0  0  0  0  0  0  0  0
    4.9730    1.4661   -3.2604 H   0  0  0  0  0  0  0  0  0  0  0  0
    5.1574    3.2492   -0.8008 H   0  0  0  0  0  0  0  0  0  0  0  0
    3.0992    2.6313    0.3178 H   0  0  0  0  0  0  0  0  0  0  0  0
    1.3907    2.4765   -0.1038 H   0  0  0  0  0  0  0  0  0  0  0  0
    4.6751    0.6374   -0.9718 H   0  0  0  0  0  0  0  0  0  0  0  0
    3.7060   -0.3287   -2.0851 H   0  0  0  0  0  0  0  0  0  0  0  0
    5.6034    4.3472   -4.4233 H   0  0  0  0  0  0  0  0  0  0  0  0
    6.1914    5.2766    0.2082 H   0  0  0  0  0  0  0  0  0  0  0  0
    7.4399    2.6831   -0.8908 H   0  0  0  0  0  0  0  0  0  0  0  0
    3.5481    5.6371   -3.1863 H   0  0  0  0  0  0  0  0  0  0  0  0
    7.7082    3.9998   -5.6667 H   0  0  0  0  0  0  0  0  0  0  0  0
    5.8213    7.6608    0.7243 H   0  0  0  0  0  0  0  0  0  0  0  0
    9.5302    2.3378   -2.1524 H   0  0  0  0  0  0  0  0  0  0  0  0
    3.1440    7.9955   -2.6141 H   0  0  0  0  0  0  0  0  0  0  0  0
    2.7954   -1.9916    2.2123 H   0  0  0  0  0  0  0  0  0  0  0  0
    9.6724    2.9873   -4.5422 H   0  0  0  0  0  0  0  0  0  0  0  0
    4.2659    9.0161   -0.6509 H   0  0  0  0  0  0  0  0  0  0  0  0
    4.2764   -4.7536    1.6924 H   0  0  0  0  0  0  0  0  0  0  0  0
    2.5790   -4.9938    2.1400 H   0  0  0  0  0  0  0  0  0  0  0  0
    3.2009   -5.6659    0.6271 H   0  0  0  0  0  0  0  0  0  0  0  0
    3.5740   -4.8694   -1.8142 H   0  0  0  0  0  0  0  0  0  0  0  0
    1.8599   -5.1707   -1.3594 H   0  0  0  0  0  0  0  0  0  0  0  0
    2.2478   -4.0030   -2.6520 H   0  0  0  0  0  0  0  0  0  0  0  0
  1 13  2  0  0  0  0
  2  6  1  0  0  0  0
  2  7  1  0  0  0  0
  2  8  1  0  0  0  0
  3  9  1  0  0  0  0
  3 10  1  0  0  0  0
  3 13  1  0  0  0  0
  4  5  1  0  0  0  0
  4 18  2  0  0  0  0
  5 24  1  0  0  0  0
  5 28  1  0  0  0  0
  6  9  1  0  0  0  0
  6 29  1  0  0  0  0
  6 30  1  0  0  0  0
  7 10  1  0  0  0  0
  7 31  1  0  0  0  0
  7 32  1  0  0  0  0
  8 11  1  0  0  0  0
  8 12  1  0  0  0  0
  8 33  1  0  0  0  0
  9 34  1  0  0  0  0
  9 35  1  0  0  0  0
 10 36  1  0  0  0  0
 10 37  1  0  0  0  0
 11 14  2  0  0  0  0
 11 16  1  0  0  0  0
 12 15  2  0  0  0  0
 12 17  1  0  0  0  0
 13 18  1  0  0  0  0
 14 19  1  0  0  0  0
 14 38  1  0  0  0  0
 15 20  1  0  0  0  0
 15 39  1  0  0  0  0
 16 21  2  0  0  0  0
 16 40  1  0  0  0  0
 17 22  2  0  0  0  0
 17 41  1  0  0  0  0
 18 23  1  0  0  0  0
 19 25  2  0  0  0  0
 19 42  1  0  0  0  0
 20 26  2  0  0  0  0
 20 43  1  0  0  0  0
 21 25  1  0  0  0  0
 21 44  1  0  0  0  0
 22 26  1  0  0  0  0
 22 45  1  0  0  0  0
 23 24  2  0  0  0  0
 23 46  1  0  0  0  0
 24 27  1  0  0  0  0
 25 47  1  0  0  0  0
 26 48  1  0  0  0  0
 27 49  1  0  0  0  0
 27 50  1  0  0  0  0
 27 51  1  0  0  0  0
 28 52  1  0  0  0  0
 28 53  1  0  0  0  0
 28 54  1  0  0  0  0
M  END
>  <Mol_ID>
5268

>  <Formula>
C23H26N4O

>  <MolWeight>
374.47874

>  <Cat>
S0533

>  <Name>
TLX agonist 1

>  <Synonyms>
CCRP2, SUN23314

>  <Target>
Others

>  <Form>
Free Base

>  <CAS>
958323-31-4

>  <URL>
https://www.selleckchem.com/products/tlx-agonist-1.html

$$$$
