TMB dihydrochloride
 OpenBabel08302521243D

 38 39  0  0  0  0  0  0  0  0999 V2000
    0.0005   -0.7472    0.0220 C   0  0  0  0  0  0  0  0  0  0  0  0
   -1.2135   -0.0344   -0.0184 C   0  0  0  0  0  0  0  0  0  0  0  0
    1.2103   -0.0275    0.0021 C   0  0  0  0  0  0  0  0  0  0  0  0
    0.0066   -2.1445   -0.1478 N   0  0  0  0  0  0  0  0  0  0  0  0
   -1.1996    1.3748   -0.0112 C   0  0  0  0  0  0  0  0  0  0  0  0
   -2.5411   -0.7409   -0.0603 C   0  0  0  0  0  0  0  0  0  0  0  0
    1.1887    1.3803    0.0393 C   0  0  0  0  0  0  0  0  0  0  0  0
    2.5446   -0.7253   -0.0470 C   0  0  0  0  0  0  0  0  0  0  0  0
   -0.0075    2.1154    0.0277 C   0  0  0  0  0  0  0  0  0  0  0  0
   -0.0135    3.6007    0.0403 C   0  0  0  0  0  0  0  0  0  0  0  0
   -1.0330    4.3275    0.6749 C   0  0  0  0  0  0  0  0  0  0  0  0
    1.0063    4.3486   -0.5693 C   0  0  0  0  0  0  0  0  0  0  0  0
   -1.0564    5.7365    0.6922 C   0  0  0  0  0  0  0  0  0  0  0  0
    1.0269    5.7576   -0.5429 C   0  0  0  0  0  0  0  0  0  0  0  0
   -0.0364    6.4638    0.0495 C   0  0  0  0  0  0  0  0  0  0  0  0
   -2.1935    6.4278    1.3969 C   0  0  0  0  0  0  0  0  0  0  0  0
    2.1957    6.4703   -1.1708 C   0  0  0  0  0  0  0  0  0  0  0  0
    0.0374    7.8613    0.1979 N   0  0  0  0  0  0  0  0  0  0  0  0
    0.8454   -2.5993    0.1947 H   0  0  0  0  0  0  0  0  0  0  0  0
   -0.8312   -2.6049    0.1886 H   0  0  0  0  0  0  0  0  0  0  0  0
   -2.1524    1.8989   -0.0580 H   0  0  0  0  0  0  0  0  0  0  0  0
   -2.6167   -1.3646   -0.9564 H   0  0  0  0  0  0  0  0  0  0  0  0
   -2.6637   -1.3625    0.8332 H   0  0  0  0  0  0  0  0  0  0  0  0
   -3.3766   -0.0325   -0.0793 H   0  0  0  0  0  0  0  0  0  0  0  0
    2.1398    1.9091    0.0763 H   0  0  0  0  0  0  0  0  0  0  0  0
    2.6771   -1.3497    0.8423 H   0  0  0  0  0  0  0  0  0  0  0  0
    2.6183   -1.3444   -0.9460 H   0  0  0  0  0  0  0  0  0  0  0  0
    3.3744   -0.0105   -0.0733 H   0  0  0  0  0  0  0  0  0  0  0  0
   -1.8274    3.7926    1.1920 H   0  0  0  0  0  0  0  0  0  0  0  0
    1.8158    3.8315   -1.0799 H   0  0  0  0  0  0  0  0  0  0  0  0
   -1.8175    7.0535    2.2104 H   0  0  0  0  0  0  0  0  0  0  0  0
   -2.7558    7.0446    0.6867 H   0  0  0  0  0  0  0  0  0  0  0  0
   -2.8985    5.7093    1.8295 H   0  0  0  0  0  0  0  0  0  0  0  0
    1.8557    7.0933   -2.0043 H   0  0  0  0  0  0  0  0  0  0  0  0
    2.7050    7.0944   -0.4292 H   0  0  0  0  0  0  0  0  0  0  0  0
    2.9349    5.7659   -1.5673 H   0  0  0  0  0  0  0  0  0  0  0  0
    0.5850    8.3242   -0.5186 H   0  0  0  0  0  0  0  0  0  0  0  0
   -0.8617    8.3104    0.3290 H   0  0  0  0  0  0  0  0  0  0  0  0
  1  2  2  0  0  0  0
  1  3  1  0  0  0  0
  1  4  1  0  0  0  0
  2  5  1  0  0  0  0
  2  6  1  0  0  0  0
  3  7  2  0  0  0  0
  3  8  1  0  0  0  0
  4 19  1  0  0  0  0
  4 20  1  0  0  0  0
  5  9  2  0  0  0  0
  5 21  1  0  0  0  0
  6 22  1  0  0  0  0
  6 23  1  0  0  0  0
  6 24  1  0  0  0  0
  7  9  1  0  0  0  0
  7 25  1  0  0  0  0
  8 26  1  0  0  0  0
  8 27  1  0  0  0  0
  8 28  1  0  0  0  0
  9 10  1  0  0  0  0
 10 11  2  0  0  0  0
 10 12  1  0  0  0  0
 11 13  1  0  0  0  0
 11 29  1  0  0  0  0
 12 14  2  0  0  0  0
 12 30  1  0  0  0  0
 13 15  2  0  0  0  0
 13 16  1  0  0  0  0
 14 17  1  0  0  0  0
 14 15  1  0  0  0  0
 15 18  1  0  0  0  0
 16 31  1  0  0  0  0
 16 32  1  0  0  0  0
 16 33  1  0  0  0  0
 17 34  1  0  0  0  0
 17 35  1  0  0  0  0
 17 36  1  0  0  0  0
 18 37  1  0  0  0  0
 18 38  1  0  0  0  0
M  END
>  <Mol_ID>
4951

>  <Formula>
C16H22Cl2N2

>  <MolWeight>
313.26528

>  <Cat>
S6822

>  <Name>
TMB dihydrochloride

>  <Synonyms>
3,3',5,5'-Tetramethylbenzidine dihydrochloride hydrate, TMB-d, BM blue dihydrochloride, Sure Blue TMB dihydrochloride

>  <Target>
Dyes,Peroxidases

>  <Form>
Dihydrochloride

>  <CAS>
64285-73-0

>  <URL>
http://www.selleckchem.com/products/tmb-dihydrochloride.html

$$$$
