TMN355
 OpenBabel08302521283D

 41 44  0  0  0  0  0  0  0  0999 V2000
    6.0344   -0.5813   -2.7475 F   0  0  0  0  0  0  0  0  0  0  0  0
    2.6386   -0.8297   -1.2130 O   0  0  0  0  0  0  0  0  0  0  0  0
    5.7002    1.0388    1.0425 O   0  0  0  0  0  0  0  0  0  0  0  0
    2.7866    0.3625    0.7203 N   0  0  0  0  0  0  0  0  0  0  0  0
    4.6618   -0.1361   -0.6464 N   0  0  0  0  0  0  0  0  0  0  0  0
    1.3471    0.2841    0.9139 C   0  0  0  0  0  0  0  0  0  0  0  0
    0.8340   -0.8719    1.7755 C   0  0  0  0  0  0  0  0  0  0  0  0
    0.6733    1.4846    1.5706 C   0  0  0  0  0  0  0  0  0  0  0  0
   -0.1232   -0.3925    2.7007 C   0  0  0  0  0  0  0  0  0  0  0  0
   -0.2159    1.0460    2.5816 C   0  0  0  0  0  0  0  0  0  0  0  0
    1.0251   -2.2351    1.6076 C   0  0  0  0  0  0  0  0  0  0  0  0
    0.6635    2.8072    1.1562 C   0  0  0  0  0  0  0  0  0  0  0  0
   -0.8952   -1.2660    3.4549 C   0  0  0  0  0  0  0  0  0  0  0  0
   -1.0924    1.9249    3.2029 C   0  0  0  0  0  0  0  0  0  0  0  0
    0.2381   -3.1165    2.3604 C   0  0  0  0  0  0  0  0  0  0  0  0
   -0.2432    3.6882    1.7626 C   0  0  0  0  0  0  0  0  0  0  0  0
   -0.7181   -2.6370    3.2704 C   0  0  0  0  0  0  0  0  0  0  0  0
   -1.1107    3.2533    2.7770 C   0  0  0  0  0  0  0  0  0  0  0  0
    3.3211   -0.2355   -0.3805 C   0  0  0  0  0  0  0  0  0  0  0  0
    5.7332    0.5415   -0.0765 C   0  0  0  0  0  0  0  0  0  0  0  0
    6.9909    0.6147   -0.9196 C   0  0  0  0  0  0  0  0  0  0  0  0
    8.1282    1.2686   -0.4185 C   0  0  0  0  0  0  0  0  0  0  0  0
    7.0632    0.1016   -2.2216 C   0  0  0  0  0  0  0  0  0  0  0  0
    9.2680    1.4505   -1.2216 C   0  0  0  0  0  0  0  0  0  0  0  0
    8.1908    0.2825   -3.0269 C   0  0  0  0  0  0  0  0  0  0  0  0
    9.2920    0.9762   -2.5331 C   0  0  0  0  0  0  0  0  0  0  0  0
    3.4008    0.6975    1.4517 H   0  0  0  0  0  0  0  0  0  0  0  0
    4.8289   -0.5597   -1.5519 H   0  0  0  0  0  0  0  0  0  0  0  0
    0.8565    0.1756   -0.0629 H   0  0  0  0  0  0  0  0  0  0  0  0
    1.7178   -2.6151    0.8638 H   0  0  0  0  0  0  0  0  0  0  0  0
    1.2921    3.1404    0.3378 H   0  0  0  0  0  0  0  0  0  0  0  0
   -1.6625   -0.9019    4.1311 H   0  0  0  0  0  0  0  0  0  0  0  0
   -1.7934    1.5851    3.9597 H   0  0  0  0  0  0  0  0  0  0  0  0
    0.3364   -4.1892    2.2105 H   0  0  0  0  0  0  0  0  0  0  0  0
   -0.3075    4.7187    1.4166 H   0  0  0  0  0  0  0  0  0  0  0  0
   -1.3506   -3.3382    3.8110 H   0  0  0  0  0  0  0  0  0  0  0  0
   -1.8289    3.9459    3.2113 H   0  0  0  0  0  0  0  0  0  0  0  0
    8.1365    1.6522    0.5997 H   0  0  0  0  0  0  0  0  0  0  0  0
   10.1352    1.9767   -0.8251 H   0  0  0  0  0  0  0  0  0  0  0  0
    8.1969   -0.1125   -4.0399 H   0  0  0  0  0  0  0  0  0  0  0  0
   10.1624    1.1419   -3.1648 H   0  0  0  0  0  0  0  0  0  0  0  0
  1 23  1  0  0  0  0
  2 19  2  0  0  0  0
  3 20  2  0  0  0  0
  4  6  1  0  0  0  0
  4 19  1  0  0  0  0
  4 27  1  0  0  0  0
  5 19  1  0  0  0  0
  5 20  1  0  0  0  0
  5 28  1  0  0  0  0
  6  7  1  0  0  0  0
  6  8  1  0  0  0  0
  6 29  1  0  0  0  0
  7  9  1  0  0  0  0
  7 11  2  0  0  0  0
  8 10  2  0  0  0  0
  8 12  1  0  0  0  0
  9 10  1  0  0  0  0
  9 13  2  0  0  0  0
 10 14  1  0  0  0  0
 11 15  1  0  0  0  0
 11 30  1  0  0  0  0
 12 16  2  0  0  0  0
 12 31  1  0  0  0  0
 13 17  1  0  0  0  0
 13 32  1  0  0  0  0
 14 18  2  0  0  0  0
 14 33  1  0  0  0  0
 15 17  2  0  0  0  0
 15 34  1  0  0  0  0
 16 18  1  0  0  0  0
 16 35  1  0  0  0  0
 17 36  1  0  0  0  0
 18 37  1  0  0  0  0
 20 21  1  0  0  0  0
 21 22  2  0  0  0  0
 21 23  1  0  0  0  0
 22 24  1  0  0  0  0
 22 38  1  0  0  0  0
 23 25  2  0  0  0  0
 24 26  2  0  0  0  0
 24 39  1  0  0  0  0
 25 26  1  0  0  0  0
 25 40  1  0  0  0  0
 26 41  1  0  0  0  0
M  END
>  <Mol_ID>
5400

>  <Formula>
C21H14ClFN2O2

>  <MolWeight>
380.7994632

>  <Cat>
S0836

>  <Name>
TMN355

>  <Synonyms>
N/A

>  <Target>
Immunology & Inflammation related

>  <Form>
Free Base

>  <CAS>
1186372-20-2

>  <URL>
https://www.selleckchem.com/products/tmn355.html

$$$$
