TMS
 OpenBabel08302521323D

 42 43  0  0  0  0  0  0  0  0999 V2000
    1.4349   -0.1151    0.1831 C   0  0  0  0  0  0  0  0  0  0  0  0
    0.4953    0.0950    1.2060 C   0  0  0  0  0  0  0  0  0  0  0  0
   -0.8736    0.2024    0.8779 C   0  0  0  0  0  0  0  0  0  0  0  0
   -1.3242    0.0862   -0.4369 C   0  0  0  0  0  0  0  0  0  0  0  0
   -0.3946   -0.1344   -1.4448 C   0  0  0  0  0  0  0  0  0  0  0  0
    0.9676   -0.2281   -1.1418 C   0  0  0  0  0  0  0  0  0  0  0  0
   -2.6262    0.1569   -0.8504 O   0  0  0  0  0  0  0  0  0  0  0  0
   -3.6040    0.4220    0.1493 C   0  0  0  0  0  0  0  0  0  0  0  0
    0.6740    0.1976    2.5595 O   0  0  0  0  0  0  0  0  0  0  0  0
    1.9696    0.1337    3.1233 C   0  0  0  0  0  0  0  0  0  0  0  0
    2.8872   -0.2852    0.3478 C   0  0  0  0  0  0  0  0  0  0  0  0
    3.7632    0.7226    0.2455 C   0  0  0  0  0  0  0  0  0  0  0  0
    5.2080    0.4844    0.3412 C   0  0  0  0  0  0  0  0  0  0  0  0
    5.9449    0.2104   -0.8185 C   0  0  0  0  0  0  0  0  0  0  0  0
    7.3184   -0.0285   -0.7424 C   0  0  0  0  0  0  0  0  0  0  0  0
    7.9591    0.0132    0.5004 C   0  0  0  0  0  0  0  0  0  0  0  0
    7.2371    0.3032    1.6594 C   0  0  0  0  0  0  0  0  0  0  0  0
    5.8588    0.5142    1.5789 C   0  0  0  0  0  0  0  0  0  0  0  0
    7.7721    0.3707    2.9176 O   0  0  0  0  0  0  0  0  0  0  0  0
    9.1369    0.7762    2.9783 C   0  0  0  0  0  0  0  0  0  0  0  0
    8.1447   -0.3099   -1.7975 O   0  0  0  0  0  0  0  0  0  0  0  0
    7.5506   -0.3444   -3.0895 C   0  0  0  0  0  0  0  0  0  0  0  0
   -1.5703    0.3639    1.6932 H   0  0  0  0  0  0  0  0  0  0  0  0
   -0.7281   -0.2411   -2.4743 H   0  0  0  0  0  0  0  0  0  0  0  0
    1.6663   -0.4091   -1.9557 H   0  0  0  0  0  0  0  0  0  0  0  0
   -3.6304   -0.3748    0.9003 H   0  0  0  0  0  0  0  0  0  0  0  0
   -3.4364    1.3991    0.6147 H   0  0  0  0  0  0  0  0  0  0  0  0
   -4.5839    0.4493   -0.3378 H   0  0  0  0  0  0  0  0  0  0  0  0
    2.4958   -0.7825    2.8462 H   0  0  0  0  0  0  0  0  0  0  0  0
    2.5409    1.0350    2.8847 H   0  0  0  0  0  0  0  0  0  0  0  0
    1.8468    0.1051    4.2114 H   0  0  0  0  0  0  0  0  0  0  0  0
    3.2165   -1.3076    0.5138 H   0  0  0  0  0  0  0  0  0  0  0  0
    3.4523    1.7496    0.0654 H   0  0  0  0  0  0  0  0  0  0  0  0
    5.4199    0.1852   -1.7686 H   0  0  0  0  0  0  0  0  0  0  0  0
    9.0236   -0.1972    0.5371 H   0  0  0  0  0  0  0  0  0  0  0  0
    5.3013    0.7202    2.4898 H   0  0  0  0  0  0  0  0  0  0  0  0
    9.8039   -0.0401    2.6823 H   0  0  0  0  0  0  0  0  0  0  0  0
    9.3175    1.6705    2.3710 H   0  0  0  0  0  0  0  0  0  0  0  0
    9.3639    1.0306    4.0184 H   0  0  0  0  0  0  0  0  0  0  0  0
    6.8311   -1.1663   -3.1671 H   0  0  0  0  0  0  0  0  0  0  0  0
    7.0858    0.6147   -3.3397 H   0  0  0  0  0  0  0  0  0  0  0  0
    8.3461   -0.5261   -3.8187 H   0  0  0  0  0  0  0  0  0  0  0  0
  1  2  2  0  0  0  0
  1  6  1  0  0  0  0
  1 11  1  0  0  0  0
  2  3  1  0  0  0  0
  2  9  1  0  0  0  0
  3  4  2  0  0  0  0
  3 23  1  0  0  0  0
  4  5  1  0  0  0  0
  4  7  1  0  0  0  0
  5  6  2  0  0  0  0
  5 24  1  0  0  0  0
  6 25  1  0  0  0  0
  7  8  1  0  0  0  0
  8 26  1  0  0  0  0
  8 27  1  0  0  0  0
  8 28  1  0  0  0  0
  9 10  1  0  0  0  0
 10 29  1  0  0  0  0
 10 30  1  0  0  0  0
 10 31  1  0  0  0  0
 11 12  2  0  0  0  0
 11 32  1  0  0  0  0
 12 13  1  0  0  0  0
 12 33  1  0  0  0  0
 13 14  2  0  0  0  0
 13 18  1  0  0  0  0
 14 15  1  0  0  0  0
 14 34  1  0  0  0  0
 15 16  2  0  0  0  0
 15 21  1  0  0  0  0
 16 17  1  0  0  0  0
 16 35  1  0  0  0  0
 17 18  2  0  0  0  0
 17 19  1  0  0  0  0
 18 36  1  0  0  0  0
 19 20  1  0  0  0  0
 20 37  1  0  0  0  0
 20 38  1  0  0  0  0
 20 39  1  0  0  0  0
 21 22  1  0  0  0  0
 22 40  1  0  0  0  0
 22 41  1  0  0  0  0
 22 42  1  0  0  0  0
M  END
>  <Mol_ID>
6303

>  <Formula>
C18H20O4

>  <MolWeight>
300.349

>  <Cat>
E0531

>  <Name>
TMS

>  <Synonyms>
(E)-2,3',4,5'-tetramethoxystilbene

>  <Target>
P450 (e.g. CYP17)

>  <Form>
free base

>  <CAS>
24144-92-1

>  <URL>
http://www.selleckchem.com/products/tms.html

$$$$
