TNO155
 OpenBabel08302521353D

 52 55  0  0  0  0  0  0  0  0999 V2000
   -6.1640   -3.0185   -0.0228 C   0  0  0  0  0  0  0  0  0  0  0  0
   -6.4652   -4.1929   -0.6135 N   0  0  0  0  0  0  0  0  0  0  0  0
   -5.4399   -4.9343   -1.0641 C   0  0  0  0  0  0  0  0  0  0  0  0
   -4.1133   -4.5447   -0.9411 C   0  0  0  0  0  0  0  0  0  0  0  0
   -3.8183   -3.3311   -0.3211 C   0  0  0  0  0  0  0  0  0  0  0  0
   -4.8753   -2.5477    0.1413 C   0  0  0  0  0  0  0  0  0  0  0  0
   -0.6606   -4.5648   -1.2186 N   0  0  0  0  0  0  0  0  0  0  0  0
   -1.1356   -4.0944   -0.0453 C   0  0  0  0  0  0  0  0  0  0  0  0
   -2.1730   -2.6548   -0.1569 S   0  0  0  0  0  0  0  0  0  0  0  0
    0.1609   -5.6410   -1.1151 C   0  0  0  0  0  0  0  0  0  0  0  0
    0.5376   -6.2498    0.0854 C   0  0  0  0  0  0  0  0  0  0  0  0
    0.0504   -5.7459    1.2458 N   0  0  0  0  0  0  0  0  0  0  0  0
   -0.7696   -4.6704    1.1842 C   0  0  0  0  0  0  0  0  0  0  0  0
   -1.2713   -4.2310    2.4149 N   0  0  0  0  0  0  0  0  0  0  0  0
    1.3437   -7.3686    0.1273 N   0  0  0  0  0  0  0  0  0  0  0  0
    2.3430   -7.6808   -0.8811 C   0  0  0  0  0  0  0  0  0  0  0  0
    2.1103   -9.1044   -1.3828 C   0  0  0  0  0  0  0  0  0  0  0  0
    2.0729  -10.1527   -0.2430 C   0  0  0  0  0  0  0  0  0  0  0  0
    1.0912   -9.6625    0.8613 C   0  0  0  0  0  0  0  0  0  0  0  0
    1.3378   -8.2171    1.3121 C   0  0  0  0  0  0  0  0  0  0  0  0
    3.4702  -10.3676    0.3660 C   0  0  0  0  0  0  0  0  0  0  0  0
    3.5865  -11.7725    0.6199 O   0  0  0  0  0  0  0  0  0  0  0  0
    2.9579  -12.4180   -0.4921 C   0  0  2  0  0  0  0  0  0  0  0  0
    1.7194  -11.5580   -0.8226 C   0  0  1  0  0  0  0  0  0  0  0  0
   -5.7803   -6.1033   -1.7426 N   0  0  0  0  0  0  0  0  0  0  0  0
    0.4390  -12.0883   -0.3376 N   0  0  0  0  0  0  0  0  0  0  0  0
    2.7090  -13.8817   -0.1699 C   0  0  0  0  0  0  0  0  0  0  0  0
   -7.0173   -2.4376    0.3158 H   0  0  0  0  0  0  0  0  0  0  0  0
   -3.3355   -5.1762   -1.3569 H   0  0  0  0  0  0  0  0  0  0  0  0
   -4.7074   -1.5821    0.6055 H   0  0  0  0  0  0  0  0  0  0  0  0
    0.4794   -6.0331   -2.0731 H   0  0  0  0  0  0  0  0  0  0  0  0
   -0.7748   -4.7298    3.1471 H   0  0  0  0  0  0  0  0  0  0  0  0
   -1.2202   -3.2226    2.5070 H   0  0  0  0  0  0  0  0  0  0  0  0
    2.3312   -6.9960   -1.7349 H   0  0  0  0  0  0  0  0  0  0  0  0
    3.3442   -7.5888   -0.4414 H   0  0  0  0  0  0  0  0  0  0  0  0
    1.1555   -9.1322   -1.9254 H   0  0  0  0  0  0  0  0  0  0  0  0
    2.8902   -9.3602   -2.1110 H   0  0  0  0  0  0  0  0  0  0  0  0
    0.0632   -9.7049    0.4748 H   0  0  0  0  0  0  0  0  0  0  0  0
    1.1354  -10.3206    1.7378 H   0  0  0  0  0  0  0  0  0  0  0  0
    2.2915   -8.1220    1.8424 H   0  0  0  0  0  0  0  0  0  0  0  0
    0.5518   -7.9551    2.0294 H   0  0  0  0  0  0  0  0  0  0  0  0
    4.2731  -10.0863   -0.3258 H   0  0  0  0  0  0  0  0  0  0  0  0
    3.6397   -9.8355    1.3054 H   0  0  0  0  0  0  0  0  0  0  0  0
    3.6575  -12.3697   -1.3380 H   0  0  0  0  0  0  0  0  0  0  0  0
    1.6268  -11.5155   -1.9150 H   0  0  0  0  0  0  0  0  0  0  0  0
   -6.7891   -6.2122   -1.6580 H   0  0  0  0  0  0  0  0  0  0  0  0
   -5.2737   -6.9086   -1.3980 H   0  0  0  0  0  0  0  0  0  0  0  0
    0.2533  -12.9959   -0.7621 H   0  0  0  0  0  0  0  0  0  0  0  0
    0.5099  -12.2667    0.6658 H   0  0  0  0  0  0  0  0  0  0  0  0
    3.6601  -14.3979   -0.0011 H   0  0  0  0  0  0  0  0  0  0  0  0
    2.1329  -13.9955    0.7546 H   0  0  0  0  0  0  0  0  0  0  0  0
    2.1834  -14.3863   -0.9862 H   0  0  0  0  0  0  0  0  0  0  0  0
  1  2  2  0  0  0  0
  1 28  1  0  0  0  0
  2  3  1  0  0  0  0
  3  4  2  0  0  0  0
  3 25  1  0  0  0  0
  4  5  1  0  0  0  0
  4 29  1  0  0  0  0
  5  6  2  0  0  0  0
  6  1  1  0  0  0  0
  6 30  1  0  0  0  0
  7  8  2  0  0  0  0
  7 10  1  0  0  0  0
  8  9  1  0  0  0  0
  9  5  1  0  0  0  0
 10 11  2  0  0  0  0
 10 31  1  0  0  0  0
 11 12  1  0  0  0  0
 11 15  1  0  0  0  0
 12 13  2  0  0  0  0
 13  8  1  0  0  0  0
 13 14  1  0  0  0  0
 14 32  1  0  0  0  0
 14 33  1  0  0  0  0
 15 16  1  0  0  0  0
 16 17  1  0  0  0  0
 16 34  1  0  0  0  0
 16 35  1  0  0  0  0
 17 18  1  0  0  0  0
 17 36  1  0  0  0  0
 17 37  1  0  0  0  0
 18 19  1  0  0  0  0
 18 21  1  0  0  0  0
 19 20  1  0  0  0  0
 19 38  1  0  0  0  0
 19 39  1  0  0  0  0
 20 15  1  0  0  0  0
 20 40  1  0  0  0  0
 20 41  1  0  0  0  0
 21 22  1  0  0  0  0
 21 42  1  0  0  0  0
 21 43  1  0  0  0  0
 22 23  1  0  0  0  0
 23 24  1  0  0  0  0
 23 44  1  6  0  0  0
 23 27  1  0  0  0  0
 24 18  1  0  0  0  0
 24 26  1  0  0  0  0
 24 45  1  6  0  0  0
 25 46  1  0  0  0  0
 25 47  1  0  0  0  0
 26 48  1  0  0  0  0
 26 49  1  0  0  0  0
 27 50  1  0  0  0  0
 27 51  1  0  0  0  0
 27 52  1  0  0  0  0
M  END
>  <Mol_ID>
6762

>  <Formula>
C18H24ClN7OS

>  <MolWeight>
421.94746

>  <Cat>
S8987

>  <Name>
TNO155

>  <Synonyms>
N/A

>  <Target>
phosphatase

>  <Form>
Free base

>  <CAS>
1801765-04-7

>  <URL>
http://www.selleckchem.com/products/tno155.html

$$$$
