Toddaculin
 OpenBabel08302521463D

 38 39  0  0  0  0  0  0  0  0999 V2000
    1.1068    0.1948    0.1036 O   0  0  0  0  0  0  0  0  0  0  0  0
    0.2877    0.7689   -0.9103 C   0  0  0  0  0  0  0  0  0  0  0  0
    2.3373   -2.3371    0.0316 C   0  0  0  0  0  0  0  0  0  0  0  0
    2.0124   -2.7272    1.4526 C   0  0  0  0  0  0  0  0  0  0  0  0
    0.7856   -2.9561    1.9586 C   0  0  0  0  0  0  0  0  0  0  0  0
    0.5911   -3.3368    3.4029 C   0  0  0  0  0  0  0  0  0  0  0  0
   -0.4693   -2.8500    1.1335 C   0  0  0  0  0  0  0  0  0  0  0  0
    5.1208   -2.3420    0.0225 O   0  0  0  0  0  0  0  0  0  0  0  0
    6.5431   -2.4161    0.0177 C   0  0  0  0  0  0  0  0  0  0  0  0
    5.6463    4.7238   -0.1788 O   0  0  0  0  0  0  0  0  0  0  0  0
    3.2153    1.4107   -0.1566 C   0  0  0  0  0  0  0  0  0  0  0  0
    2.4689    0.2197   -0.1021 C   0  0  0  0  0  0  0  0  0  0  0  0
    4.6103    1.3042   -0.1644 C   0  0  0  0  0  0  0  0  0  0  0  0
    2.6728    2.7699   -0.1363 C   0  0  0  0  0  0  0  0  0  0  0  0
    3.1326   -1.0420   -0.0582 C   0  0  0  0  0  0  0  0  0  0  0  0
    5.2792    0.0840   -0.1082 C   0  0  0  0  0  0  0  0  0  0  0  0
    5.4490    2.4425   -0.1885 O   0  0  0  0  0  0  0  0  0  0  0  0
    3.4753    3.8376   -0.1666 C   0  0  0  0  0  0  0  0  0  0  0  0
    4.5480   -1.0972   -0.0560 C   0  0  0  0  0  0  0  0  0  0  0  0
    4.9354    3.7269   -0.1811 C   0  0  0  0  0  0  0  0  0  0  0  0
    0.0849    1.8206   -0.6977 H   0  0  0  0  0  0  0  0  0  0  0  0
    0.6951    0.6456   -1.9175 H   0  0  0  0  0  0  0  0  0  0  0  0
   -0.6881    0.2728   -0.8677 H   0  0  0  0  0  0  0  0  0  0  0  0
    1.4423   -2.2519   -0.5957 H   0  0  0  0  0  0  0  0  0  0  0  0
    2.9017   -3.1562   -0.4288 H   0  0  0  0  0  0  0  0  0  0  0  0
    2.8821   -2.8384    2.0978 H   0  0  0  0  0  0  0  0  0  0  0  0
   -0.0075   -2.5754    3.9118 H   0  0  0  0  0  0  0  0  0  0  0  0
    0.0705   -4.2936    3.4782 H   0  0  0  0  0  0  0  0  0  0  0  0
    1.5387   -3.4265    3.9382 H   0  0  0  0  0  0  0  0  0  0  0  0
   -0.5823   -1.8450    0.7253 H   0  0  0  0  0  0  0  0  0  0  0  0
   -0.4483   -3.5748    0.3119 H   0  0  0  0  0  0  0  0  0  0  0  0
   -1.3577   -3.0588    1.7354 H   0  0  0  0  0  0  0  0  0  0  0  0
    6.9594   -1.9845   -0.8989 H   0  0  0  0  0  0  0  0  0  0  0  0
    6.9658   -1.9371    0.9078 H   0  0  0  0  0  0  0  0  0  0  0  0
    6.8265   -3.4725    0.0431 H   0  0  0  0  0  0  0  0  0  0  0  0
    1.6066    2.9254   -0.0918 H   0  0  0  0  0  0  0  0  0  0  0  0
    6.3632    0.0989   -0.0838 H   0  0  0  0  0  0  0  0  0  0  0  0
    3.0777    4.8445   -0.1606 H   0  0  0  0  0  0  0  0  0  0  0  0
  1  2  1  0  0  0  0
  1 12  1  0  0  0  0
  2 21  1  0  0  0  0
  2 22  1  0  0  0  0
  2 23  1  0  0  0  0
  3  4  1  0  0  0  0
  3 15  1  0  0  0  0
  3 24  1  0  0  0  0
  3 25  1  0  0  0  0
  4  5  2  0  0  0  0
  4 26  1  0  0  0  0
  5  6  1  0  0  0  0
  5  7  1  0  0  0  0
  6 27  1  0  0  0  0
  6 28  1  0  0  0  0
  6 29  1  0  0  0  0
  7 30  1  0  0  0  0
  7 31  1  0  0  0  0
  7 32  1  0  0  0  0
  8  9  1  0  0  0  0
  8 19  1  0  0  0  0
  9 33  1  0  0  0  0
  9 34  1  0  0  0  0
  9 35  1  0  0  0  0
 10 20  2  0  0  0  0
 11 12  2  0  0  0  0
 11 13  1  0  0  0  0
 11 14  1  0  0  0  0
 12 15  1  0  0  0  0
 13 16  2  0  0  0  0
 13 17  1  0  0  0  0
 14 18  2  0  0  0  0
 14 36  1  0  0  0  0
 15 19  2  0  0  0  0
 16 19  1  0  0  0  0
 16 37  1  0  0  0  0
 17 20  1  0  0  0  0
 18 20  1  0  0  0  0
 18 38  1  0  0  0  0
M  END
>  <Mol_ID>
9642

>  <Formula>
C16H18O4

>  <MolWeight>
274.31172

>  <Cat>
E2096

>  <Name>
Toddaculin

>  <Synonyms>
N/A

>  <Target>
ERK, Akt, Apoptosis related, Caspase

>  <Form>
free base

>  <CAS>
4335-12-0

>  <URL>
https://www.selleckchem.com/products/toddaculine.html

$$$$
