Tolebrutinib (SAR442168)
 OpenBabel08302521353D

 59 63  0  0  0  0  0  0  0  0999 V2000
   -0.7136   -1.1284   -0.2976 C   0  0  0  0  0  0  0  0  0  0  0  0
   -0.8897    3.6754   -0.4345 C   0  0  0  0  0  0  0  0  0  0  0  0
   -4.1928    4.1169    2.9287 C   0  0  0  0  0  0  0  0  0  0  0  0
    0.9516   -4.4793   -2.0891 C   0  0  0  0  0  0  0  0  0  0  0  0
   -1.0455    2.4983    0.3273 N   0  0  0  0  0  0  0  0  0  0  0  0
    0.9069    1.1377   -0.1930 C   0  0  0  0  0  0  0  0  0  0  0  0
   -2.7693    6.0332    4.6104 C   0  0  0  0  0  0  0  0  0  0  0  0
   -0.6156   -4.8448   -3.8927 C   0  0  0  0  0  0  0  0  0  0  0  0
    0.5887   -3.1330   -2.0391 C   0  0  0  0  0  0  0  0  0  0  0  0
   -6.5126    6.4339    4.5353 O   0  0  0  0  0  0  0  0  0  0  0  0
   -0.9581   -3.4946   -3.8685 C   0  0  0  0  0  0  0  0  0  0  0  0
   -4.0272    5.2986    5.0727 C   0  0  0  0  0  0  0  0  0  0  0  0
    1.2256   -2.3799   -1.0737 O   0  0  0  0  0  0  0  0  0  0  0  0
   -6.9830    5.0453    2.6919 C   0  0  0  0  0  0  0  0  0  0  0  0
   -1.0236    6.1679   -1.4885 C   0  0  0  0  0  0  0  0  0  0  0  0
   -7.9923    5.7912    2.2224 C   0  0  0  0  0  0  0  0  0  0  0  0
   -2.2624    4.1231    1.3306 N   0  0  0  0  0  0  0  0  0  0  0  0
   -2.0269    5.2669    3.5089 C   0  0  0  0  0  0  0  0  0  0  0  0
   -0.4657    1.2566    0.0467 C   0  0  0  0  0  0  0  0  0  0  0  0
   -4.8729    4.9416    3.9323 N   0  0  0  0  0  0  0  0  0  0  0  0
   -2.9698    4.8722    2.3578 C   0  0  2  0  0  0  0  0  0  0  0  0
    0.6360   -1.2136   -0.6484 C   0  0  0  0  0  0  0  0  0  0  0  0
   -1.2640    0.1070    0.0419 C   0  0  0  0  0  0  0  0  0  0  0  0
    1.4582   -0.0964   -0.5383 C   0  0  0  0  0  0  0  0  0  0  0  0
    0.3517   -5.3339   -3.0157 C   0  0  0  0  0  0  0  0  0  0  0  0
   -0.3362   -2.6337   -2.9631 C   0  0  0  0  0  0  0  0  0  0  0  0
   -6.1126    5.5423    3.7930 C   0  0  0  0  0  0  0  0  0  0  0  0
   -0.2569    3.9707   -1.6302 C   0  0  0  0  0  0  0  0  0  0  0  0
   -1.6339    4.6766    0.1979 C   0  0  0  0  0  0  0  0  0  0  0  0
   -2.2467    1.9815    2.3014 O   0  0  0  0  0  0  0  0  0  0  0  0
   -1.8992    2.7578    1.4219 C   0  0  0  0  0  0  0  0  0  0  0  0
   -0.3121    5.2158   -2.1499 N   0  0  0  0  0  0  0  0  0  0  0  0
   -1.7085    5.9555   -0.3058 C   0  0  0  0  0  0  0  0  0  0  0  0
    0.4883    3.0687   -2.3736 N   0  0  0  0  0  0  0  0  0  0  0  0
   -1.3501   -2.0086   -0.3243 H   0  0  0  0  0  0  0  0  0  0  0  0
   -4.8487    3.8353    2.1004 H   0  0  0  0  0  0  0  0  0  0  0  0
   -3.9050    3.1959    3.4419 H   0  0  0  0  0  0  0  0  0  0  0  0
    1.6997   -4.8654   -1.4017 H   0  0  0  0  0  0  0  0  0  0  0  0
    1.5589    2.0043   -0.1095 H   0  0  0  0  0  0  0  0  0  0  0  0
   -2.0980    6.1898    5.4635 H   0  0  0  0  0  0  0  0  0  0  0  0
   -3.0450    7.0230    4.2299 H   0  0  0  0  0  0  0  0  0  0  0  0
   -1.0972   -5.5139   -4.6010 H   0  0  0  0  0  0  0  0  0  0  0  0
   -1.7085   -3.1093   -4.5539 H   0  0  0  0  0  0  0  0  0  0  0  0
   -3.7551    4.3678    5.5821 H   0  0  0  0  0  0  0  0  0  0  0  0
   -4.5727    5.9149    5.7961 H   0  0  0  0  0  0  0  0  0  0  0  0
   -6.8392    4.0411    2.3167 H   0  0  0  0  0  0  0  0  0  0  0  0
   -1.0324    7.1419   -1.9721 H   0  0  0  0  0  0  0  0  0  0  0  0
   -8.6441    5.4143    1.4426 H   0  0  0  0  0  0  0  0  0  0  0  0
   -8.1950    6.7835    2.6155 H   0  0  0  0  0  0  0  0  0  0  0  0
   -1.2054    5.8858    3.1271 H   0  0  0  0  0  0  0  0  0  0  0  0
   -1.5631    4.3698    3.9397 H   0  0  0  0  0  0  0  0  0  0  0  0
   -3.3523    5.7925    1.9000 H   0  0  0  0  0  0  0  0  0  0  0  0
   -2.3289    0.1687    0.2544 H   0  0  0  0  0  0  0  0  0  0  0  0
    2.5232   -0.1755   -0.7392 H   0  0  0  0  0  0  0  0  0  0  0  0
    0.6348   -6.3825   -3.0485 H   0  0  0  0  0  0  0  0  0  0  0  0
   -0.6002   -1.5808   -2.9853 H   0  0  0  0  0  0  0  0  0  0  0  0
   -2.2751    6.7499    0.1580 H   0  0  0  0  0  0  0  0  0  0  0  0
   -0.0043    2.1980   -2.5379 H   0  0  0  0  0  0  0  0  0  0  0  0
    0.7737    3.5259   -3.2346 H   0  0  0  0  0  0  0  0  0  0  0  0
  1 22  2  0  0  0  0
  1 35  1  0  0  0  0
  2 28  2  0  0  0  0
  3 36  1  0  0  0  0
  3 37  1  0  0  0  0
  4 25  2  0  0  0  0
  4 38  1  0  0  0  0
  5 31  1  0  0  0  0
  5 19  1  0  0  0  0
  5  2  1  0  0  0  0
  6 24  2  0  0  0  0
  6 39  1  0  0  0  0
  7 12  1  0  0  0  0
  7 40  1  0  0  0  0
  7 41  1  0  0  0  0
  8 42  1  0  0  0  0
  9 26  2  0  0  0  0
  9  4  1  0  0  0  0
 10 27  2  0  0  0  0
 11  8  2  0  0  0  0
 11 43  1  0  0  0  0
 12 44  1  0  0  0  0
 12 45  1  0  0  0  0
 13 22  1  0  0  0  0
 13  9  1  0  0  0  0
 14 16  2  0  0  0  0
 14 46  1  0  0  0  0
 15 47  1  0  0  0  0
 16 48  1  0  0  0  0
 16 49  1  0  0  0  0
 17 29  1  0  0  0  0
 17 31  1  0  0  0  0
 18  7  1  0  0  0  0
 18 50  1  0  0  0  0
 18 51  1  0  0  0  0
 19 23  2  0  0  0  0
 19  6  1  0  0  0  0
 20 27  1  0  0  0  0
 20 12  1  0  0  0  0
 20  3  1  0  0  0  0
 21 18  1  0  0  0  0
 21 17  1  0  0  0  0
 21  3  1  0  0  0  0
 21 52  1  6  0  0  0
 23  1  1  0  0  0  0
 23 53  1  0  0  0  0
 24 22  1  0  0  0  0
 24 54  1  0  0  0  0
 25  8  1  0  0  0  0
 25 55  1  0  0  0  0
 26 11  1  0  0  0  0
 26 56  1  0  0  0  0
 27 14  1  0  0  0  0
 29  2  1  0  0  0  0
 29 33  2  0  0  0  0
 30 31  2  0  0  0  0
 32 15  2  0  0  0  0
 32 28  1  0  0  0  0
 33 15  1  0  0  0  0
 33 57  1  0  0  0  0
 34 28  1  0  0  0  0
 34 58  1  0  0  0  0
 34 59  1  0  0  0  0
M  END
>  <Mol_ID>
6786

>  <Formula>
C26H25N5O3

>  <MolWeight>
455.5084

>  <Cat>
E0041

>  <Name>
Tolebrutinib (SAR442168)

>  <Synonyms>
PRN2246

>  <Target>
BTK

>  <Form>
Free base

>  <CAS>
1971920-73-6

>  <URL>
http://www.selleckchem.com/products/tolebrutinib-sar442168.html

$$$$
