Tolnaftate.cdx
 OpenBabel08302522033D

 39 41  0  0  0  0  0  0  0  0999 V2000
   -0.9119    3.4569    0.2374 C   0  0  0  0  0  0  0  0  0  0  0  0
   -1.8532    2.3762    0.0808 N   0  0  0  0  0  0  0  0  0  0  0  0
   -3.2519    2.5659   -0.0077 C   0  0  0  0  0  0  0  0  0  0  0  0
   -3.6935    3.8904    0.2396 O   0  0  0  0  0  0  0  0  0  0  0  0
   -5.0271    4.3544    0.4371 C   0  0  0  0  0  0  0  0  0  0  0  0
   -1.2730    1.0232    0.0799 C   0  0  0  0  0  0  0  0  0  0  0  0
   -4.3845    1.3633   -0.3361 S   0  0  0  0  0  0  0  0  0  0  0  0
   -5.7898    3.8470    1.4804 C   0  0  0  0  0  0  0  0  0  0  0  0
   -7.1056    4.2734    1.6317 C   0  0  0  0  0  0  0  0  0  0  0  0
   -7.6480    5.2477    0.7800 C   0  0  0  0  0  0  0  0  0  0  0  0
   -6.8373    5.8272   -0.2270 C   0  0  0  0  0  0  0  0  0  0  0  0
   -5.5163    5.3653   -0.3923 C   0  0  0  0  0  0  0  0  0  0  0  0
   -8.9838    5.6571    0.9159 C   0  0  0  0  0  0  0  0  0  0  0  0
   -9.5160    6.6488    0.0916 C   0  0  0  0  0  0  0  0  0  0  0  0
   -8.7134    7.2501   -0.8727 C   0  0  0  0  0  0  0  0  0  0  0  0
   -7.3857    6.8414   -1.0347 C   0  0  0  0  0  0  0  0  0  0  0  0
   -1.1241    4.7081   -0.3574 C   0  0  0  0  0  0  0  0  0  0  0  0
   -0.2037    5.7588   -0.2126 C   0  0  0  0  0  0  0  0  0  0  0  0
    0.9673    5.5475    0.5187 C   0  0  0  0  0  0  0  0  0  0  0  0
    1.2162    4.3039    1.0893 C   0  0  0  0  0  0  0  0  0  0  0  0
    0.2878    3.2684    0.9447 C   0  0  0  0  0  0  0  0  0  0  0  0
   -0.4705    7.0971   -0.8354 C   0  0  0  0  0  0  0  0  0  0  0  0
   -0.3332    1.0197   -0.4837 H   0  0  0  0  0  0  0  0  0  0  0  0
   -1.0986    0.7073    1.1133 H   0  0  0  0  0  0  0  0  0  0  0  0
   -1.9208    0.2854   -0.3962 H   0  0  0  0  0  0  0  0  0  0  0  0
   -5.3807    3.0989    2.1586 H   0  0  0  0  0  0  0  0  0  0  0  0
   -7.7067    3.8425    2.4267 H   0  0  0  0  0  0  0  0  0  0  0  0
   -4.8802    5.7779   -1.1702 H   0  0  0  0  0  0  0  0  0  0  0  0
   -9.6252    5.1989    1.6666 H   0  0  0  0  0  0  0  0  0  0  0  0
  -10.5547    6.9486    0.2052 H   0  0  0  0  0  0  0  0  0  0  0  0
   -9.1240    8.0329   -1.5052 H   0  0  0  0  0  0  0  0  0  0  0  0
   -6.7812    7.3223   -1.8006 H   0  0  0  0  0  0  0  0  0  0  0  0
   -1.9939    4.8766   -0.9861 H   0  0  0  0  0  0  0  0  0  0  0  0
    1.6921    6.3496    0.6418 H   0  0  0  0  0  0  0  0  0  0  0  0
    2.1299    4.1388    1.6551 H   0  0  0  0  0  0  0  0  0  0  0  0
    0.5163    2.3237    1.4301 H   0  0  0  0  0  0  0  0  0  0  0  0
   -0.5264    7.8668   -0.0591 H   0  0  0  0  0  0  0  0  0  0  0  0
    0.3250    7.3516   -1.5426 H   0  0  0  0  0  0  0  0  0  0  0  0
   -1.4201    7.1031   -1.3809 H   0  0  0  0  0  0  0  0  0  0  0  0
  1  2  1  0  0  0  0
  1 17  2  0  0  0  0
  2  3  1  0  0  0  0
  2  6  1  0  0  0  0
  3  4  1  0  0  0  0
  3  7  2  0  0  0  0
  4  5  1  0  0  0  0
  5  8  2  0  0  0  0
  6 23  1  0  0  0  0
  6 24  1  0  0  0  0
  6 25  1  0  0  0  0
  8  9  1  0  0  0  0
  8 26  1  0  0  0  0
  9 10  2  0  0  0  0
  9 27  1  0  0  0  0
 10 11  1  0  0  0  0
 10 13  1  0  0  0  0
 11 12  2  0  0  0  0
 12  5  1  0  0  0  0
 12 28  1  0  0  0  0
 13 14  2  0  0  0  0
 13 29  1  0  0  0  0
 14 15  1  0  0  0  0
 14 30  1  0  0  0  0
 15 16  2  0  0  0  0
 15 31  1  0  0  0  0
 16 11  1  0  0  0  0
 16 32  1  0  0  0  0
 17 18  1  0  0  0  0
 17 33  1  0  0  0  0
 18 19  2  0  0  0  0
 18 22  1  0  0  0  0
 19 20  1  0  0  0  0
 19 34  1  0  0  0  0
 20 21  2  0  0  0  0
 20 35  1  0  0  0  0
 21  1  1  0  0  0  0
 21 36  1  0  0  0  0
 22 37  1  0  0  0  0
 22 38  1  0  0  0  0
 22 39  1  0  0  0  0
M  END
>  <Mol_ID>
1180

>  <Formula>
C19H17NOS

>  <MolWeight>
307.40938

>  <Cat>
S2058

>  <Name>
Tolnaftate

>  <Synonyms>
N/A

>  <Target>
Fungal

>  <Form>
free base

>  <CAS>
2398-96-1

>  <URL>
http://selleckchem.com/products/tolnaftate.html

$$$$
