Toloxatone (MD69276)
 OpenBabel08302521243D

 28 29  0  0  0  0  0  0  0  0999 V2000
    0.1104   -1.1153   -0.1349 N   0  0  0  0  0  0  0  0  0  0  0  0
   -0.3346   -2.4435   -0.3269 C   0  0  0  0  0  0  0  0  0  0  0  0
    1.4644   -0.7785    0.1768 C   0  0  0  0  0  0  0  0  0  0  0  0
   -0.6670    0.0327   -0.1513 C   0  0  0  0  0  0  0  0  0  0  0  0
   -1.5161   -2.7055   -1.0308 C   0  0  0  0  0  0  0  0  0  0  0  0
    0.4138   -3.5292    0.1430 C   0  0  0  0  0  0  0  0  0  0  0  0
    1.4985    0.7129   -0.0776 C   0  0  3  0  0  0  0  0  0  0  0  0
    0.1331    1.1322    0.0390 O   0  0  0  0  0  0  0  0  0  0  0  0
   -1.8771    0.1400   -0.2704 O   0  0  0  0  0  0  0  0  0  0  0  0
   -1.9372   -4.0202   -1.2909 C   0  0  0  0  0  0  0  0  0  0  0  0
   -0.0208   -4.8426   -0.0669 C   0  0  0  0  0  0  0  0  0  0  0  0
    2.3665    1.4897    0.9032 C   0  0  0  0  0  0  0  0  0  0  0  0
   -1.1876   -5.0863   -0.7867 C   0  0  0  0  0  0  0  0  0  0  0  0
   -3.1656   -4.2727   -2.1092 C   0  0  0  0  0  0  0  0  0  0  0  0
    1.9327    1.3030    2.2473 O   0  0  0  0  0  0  0  0  0  0  0  0
    1.6732   -1.0437    1.2183 H   0  0  0  0  0  0  0  0  0  0  0  0
    2.1650   -1.3020   -0.4829 H   0  0  0  0  0  0  0  0  0  0  0  0
   -2.1121   -1.8884   -1.4347 H   0  0  0  0  0  0  0  0  0  0  0  0
    1.3263   -3.3825    0.7143 H   0  0  0  0  0  0  0  0  0  0  0  0
    1.8202    0.9287   -1.1040 H   0  0  0  0  0  0  0  0  0  0  0  0
    0.5541   -5.6753    0.3302 H   0  0  0  0  0  0  0  0  0  0  0  0
    3.4078    1.1605    0.8356 H   0  0  0  0  0  0  0  0  0  0  0  0
    2.3258    2.5630    0.6907 H   0  0  0  0  0  0  0  0  0  0  0  0
   -1.5092   -6.1107   -0.9585 H   0  0  0  0  0  0  0  0  0  0  0  0
   -2.9210   -4.9119   -2.9637 H   0  0  0  0  0  0  0  0  0  0  0  0
   -3.9348   -4.7567   -1.5003 H   0  0  0  0  0  0  0  0  0  0  0  0
   -3.5815   -3.3400   -2.5065 H   0  0  0  0  0  0  0  0  0  0  0  0
    1.0649    1.7443    2.3247 H   0  0  0  0  0  0  0  0  0  0  0  0
  1  2  1  0  0  0  0
  1  3  1  0  0  0  0
  1  4  1  0  0  0  0
  2  5  2  0  0  0  0
  2  6  1  0  0  0  0
  3  7  1  0  0  0  0
  3 16  1  0  0  0  0
  3 17  1  0  0  0  0
  4  8  1  0  0  0  0
  4  9  2  0  0  0  0
  5 10  1  0  0  0  0
  5 18  1  0  0  0  0
  6 11  2  0  0  0  0
  6 19  1  0  0  0  0
  7 12  1  0  0  0  0
  7  8  1  0  0  0  0
  7 20  1  0  0  0  0
 10 13  2  0  0  0  0
 10 14  1  0  0  0  0
 11 13  1  0  0  0  0
 11 21  1  0  0  0  0
 12 15  1  0  0  0  0
 12 22  1  0  0  0  0
 12 23  1  0  0  0  0
 13 24  1  0  0  0  0
 14 25  1  0  0  0  0
 14 26  1  0  0  0  0
 14 27  1  0  0  0  0
 15 28  1  0  0  0  0
M  END
>  <Mol_ID>
4970

>  <Formula>
C11H13NO3

>  <MolWeight>
207.22582

>  <Cat>
S0160

>  <Name>
Toloxatone (MD69276)

>  <Synonyms>
Humoryl, Perenum, Umoril

>  <Target>
MAO

>  <Form>
Free Base

>  <CAS>
29218-27-7

>  <URL>
http://www.selleckchem.com/products/md69276.html

$$$$
