Tolperisone HCl.cdx
 OpenBabel08302522053D

 41 42  0  0  0  0  0  0  0  0999 V2000
    0.5045    0.8927    0.0493 C   0  0  0  0  0  0  0  0  0  0  0  0
    1.0310   -0.1543    0.8104 C   0  0  0  0  0  0  0  0  0  0  0  0
    0.1672   -1.1488    1.2855 C   0  0  0  0  0  0  0  0  0  0  0  0
   -1.1950   -1.1283    0.9614 C   0  0  0  0  0  0  0  0  0  0  0  0
   -1.7089   -0.1123    0.1509 C   0  0  0  0  0  0  0  0  0  0  0  0
   -0.8550    0.9141   -0.2773 C   0  0  0  0  0  0  0  0  0  0  0  0
    2.5020   -0.2391    1.0953 C   0  0  0  0  0  0  0  0  0  0  0  0
   -3.1378   -0.0769   -0.3009 C   0  0  0  0  0  0  0  0  0  0  0  0
   -4.0074   -1.3323   -0.1966 C   0  0  3  0  0  0  0  0  0  0  0  0
   -3.5771    0.9715   -0.7743 O   0  0  0  0  0  0  0  0  0  0  0  0
   -4.9602   -1.1578    1.0036 C   0  0  0  0  0  0  0  0  0  0  0  0
   -4.7502   -1.5444   -1.5169 C   0  0  0  0  0  0  0  0  0  0  0  0
   -5.8820   -2.2876    1.2773 N   0  0  0  0  0  0  0  0  0  0  0  0
   -5.1616   -3.5317    1.5868 C   0  0  0  0  0  0  0  0  0  0  0  0
   -6.1112   -4.6826    1.9262 C   0  0  0  0  0  0  0  0  0  0  0  0
   -7.0117   -4.3167    3.0954 C   0  0  0  0  0  0  0  0  0  0  0  0
   -7.7617   -3.0323    2.7752 C   0  0  0  0  0  0  0  0  0  0  0  0
   -6.8011   -1.9102    2.3713 C   0  0  0  0  0  0  0  0  0  0  0  0
    1.1488    1.6918   -0.3127 H   0  0  0  0  0  0  0  0  0  0  0  0
    0.5564   -1.9585    1.9002 H   0  0  0  0  0  0  0  0  0  0  0  0
   -1.8235   -1.9161    1.3636 H   0  0  0  0  0  0  0  0  0  0  0  0
   -1.2392    1.7315   -0.8845 H   0  0  0  0  0  0  0  0  0  0  0  0
    2.6852   -0.2408    2.1740 H   0  0  0  0  0  0  0  0  0  0  0  0
    2.9111   -1.1568    0.6590 H   0  0  0  0  0  0  0  0  0  0  0  0
    3.0458    0.6057    0.6601 H   0  0  0  0  0  0  0  0  0  0  0  0
   -3.3670   -2.2063   -0.0575 H   0  0  0  0  0  0  0  0  0  0  0  0
   -4.3642   -0.9456    1.9029 H   0  0  0  0  0  0  0  0  0  0  0  0
   -5.5639   -0.2573    0.8231 H   0  0  0  0  0  0  0  0  0  0  0  0
   -4.0331   -1.7151   -2.3281 H   0  0  0  0  0  0  0  0  0  0  0  0
   -5.4106   -2.4154   -1.4697 H   0  0  0  0  0  0  0  0  0  0  0  0
   -5.3528   -0.6724   -1.7914 H   0  0  0  0  0  0  0  0  0  0  0  0
   -4.4641   -3.3769    2.4200 H   0  0  0  0  0  0  0  0  0  0  0  0
   -4.5734   -3.8506    0.7201 H   0  0  0  0  0  0  0  0  0  0  0  0
   -5.5319   -5.5803    2.1703 H   0  0  0  0  0  0  0  0  0  0  0  0
   -6.7261   -4.9275    1.0505 H   0  0  0  0  0  0  0  0  0  0  0  0
   -7.7176   -5.1286    3.3008 H   0  0  0  0  0  0  0  0  0  0  0  0
   -6.4060   -4.1784    3.9999 H   0  0  0  0  0  0  0  0  0  0  0  0
   -8.4773   -3.2188    1.9647 H   0  0  0  0  0  0  0  0  0  0  0  0
   -8.3447   -2.7210    3.6500 H   0  0  0  0  0  0  0  0  0  0  0  0
   -7.4072   -1.0513    2.0554 H   0  0  0  0  0  0  0  0  0  0  0  0
   -6.2325   -1.5981    3.2570 H   0  0  0  0  0  0  0  0  0  0  0  0
  1  2  2  0  0  0  0
  1 19  1  0  0  0  0
  2  3  1  0  0  0  0
  2  7  1  0  0  0  0
  3  4  2  0  0  0  0
  3 20  1  0  0  0  0
  4  5  1  0  0  0  0
  4 21  1  0  0  0  0
  5  6  2  0  0  0  0
  5  8  1  0  0  0  0
  6  1  1  0  0  0  0
  6 22  1  0  0  0  0
  7 23  1  0  0  0  0
  7 24  1  0  0  0  0
  7 25  1  0  0  0  0
  8  9  1  0  0  0  0
  8 10  2  0  0  0  0
  9 11  1  0  0  0  0
  9 12  1  0  0  0  0
  9 26  1  0  0  0  0
 11 13  1  0  0  0  0
 11 27  1  0  0  0  0
 11 28  1  0  0  0  0
 12 29  1  0  0  0  0
 12 30  1  0  0  0  0
 12 31  1  0  0  0  0
 13 14  1  0  0  0  0
 14 15  1  0  0  0  0
 14 32  1  0  0  0  0
 14 33  1  0  0  0  0
 15 16  1  0  0  0  0
 15 34  1  0  0  0  0
 15 35  1  0  0  0  0
 16 17  1  0  0  0  0
 16 36  1  0  0  0  0
 16 37  1  0  0  0  0
 17 18  1  0  0  0  0
 17 38  1  0  0  0  0
 17 39  1  0  0  0  0
 18 13  1  0  0  0  0
 18 40  1  0  0  0  0
 18 41  1  0  0  0  0
M  END
>  <Mol_ID>
1362

>  <Formula>
C16H24ClNO

>  <MolWeight>
281.82086

>  <Cat>
S4200

>  <Name>
Tolperisone HCl

>  <Synonyms>
N/A

>  <Target>
Sodium Channel

>  <Form>
Hydrochloride

>  <CAS>
3644-61-9

>  <URL>
http://selleckchem.com/products/tolperisone-hcl.html

$$$$
