Toltrazuril.cdx
 OpenBabel08302522033D

 43 45  0  0  0  0  0  0  0  0999 V2000
   -0.7836   -2.6663   -1.7120 C   0  0  0  0  0  0  0  0  0  0  0  0
    0.5030   -2.2217   -1.4150 C   0  0  0  0  0  0  0  0  0  0  0  0
    1.2496   -1.5614   -2.3994 C   0  0  0  0  0  0  0  0  0  0  0  0
    0.7831   -1.4997   -3.7134 C   0  0  0  0  0  0  0  0  0  0  0  0
   -0.4648   -2.0347   -4.0406 C   0  0  0  0  0  0  0  0  0  0  0  0
   -1.2681   -2.5651   -3.0222 C   0  0  0  0  0  0  0  0  0  0  0  0
    3.0993   -2.4667    1.0263 C   0  0  0  0  0  0  0  0  0  0  0  0
    2.3332   -2.8809   -0.0732 C   0  0  0  0  0  0  0  0  0  0  0  0
    1.0020   -2.4980   -0.1529 O   0  0  0  0  0  0  0  0  0  0  0  0
    2.5182   -1.7292    2.2001 C   0  0  0  0  0  0  0  0  0  0  0  0
    4.4895   -2.6963    1.0077 C   0  0  0  0  0  0  0  0  0  0  0  0
    5.1068   -3.2827   -0.1074 C   0  0  0  0  0  0  0  0  0  0  0  0
    4.3135   -3.7800   -1.1417 C   0  0  0  0  0  0  0  0  0  0  0  0
    2.9335   -3.6372   -1.0933 C   0  0  0  0  0  0  0  0  0  0  0  0
   -1.0697   -2.0049   -5.7144 S   0  0  0  0  0  0  0  0  0  0  0  0
    0.1068   -3.0948   -6.5397 C   0  0  0  0  0  0  0  0  0  0  0  0
    1.0460   -3.6173   -5.7163 F   0  0  0  0  0  0  0  0  0  0  0  0
   -0.5344   -4.1384   -7.1212 F   0  0  0  0  0  0  0  0  0  0  0  0
    0.7641   -2.4351   -7.5252 F   0  0  0  0  0  0  0  0  0  0  0  0
    6.5269   -3.3175   -0.2309 N   0  0  0  0  0  0  0  0  0  0  0  0
    7.1059   -2.7157   -1.3555 C   0  0  0  0  0  0  0  0  0  0  0  0
    8.4928   -2.7233   -1.4020 N   0  0  0  0  0  0  0  0  0  0  0  0
    9.2760   -3.3521   -0.4669 C   0  0  0  0  0  0  0  0  0  0  0  0
    8.6223   -3.9296    0.5718 N   0  0  0  0  0  0  0  0  0  0  0  0
    7.2773   -3.8884    0.7804 C   0  0  0  0  0  0  0  0  0  0  0  0
   10.5031   -3.4015   -0.5148 O   0  0  0  0  0  0  0  0  0  0  0  0
    6.4480   -2.1556   -2.2358 O   0  0  0  0  0  0  0  0  0  0  0  0
    9.1754   -2.0352   -2.4840 C   0  0  0  0  0  0  0  0  0  0  0  0
    6.8309   -4.3825    1.8164 O   0  0  0  0  0  0  0  0  0  0  0  0
   -1.3969   -3.1236   -0.9402 H   0  0  0  0  0  0  0  0  0  0  0  0
    2.2323   -1.1554   -2.1701 H   0  0  0  0  0  0  0  0  0  0  0  0
    1.4223   -1.0556   -4.4729 H   0  0  0  0  0  0  0  0  0  0  0  0
   -2.2678   -2.9326   -3.2443 H   0  0  0  0  0  0  0  0  0  0  0  0
    2.7921   -2.2363    3.1323 H   0  0  0  0  0  0  0  0  0  0  0  0
    2.9084   -0.7065    2.2284 H   0  0  0  0  0  0  0  0  0  0  0  0
    1.4268   -1.6767    2.1661 H   0  0  0  0  0  0  0  0  0  0  0  0
    5.0956   -2.3381    1.8382 H   0  0  0  0  0  0  0  0  0  0  0  0
    4.7587   -4.2649   -2.0062 H   0  0  0  0  0  0  0  0  0  0  0  0
    2.3401   -4.0428   -1.9080 H   0  0  0  0  0  0  0  0  0  0  0  0
    9.1829   -4.3768    1.2819 H   0  0  0  0  0  0  0  0  0  0  0  0
    9.8627   -1.2987   -2.0544 H   0  0  0  0  0  0  0  0  0  0  0  0
    9.7626   -2.7618   -3.0542 H   0  0  0  0  0  0  0  0  0  0  0  0
    8.4872   -1.5215   -3.1594 H   0  0  0  0  0  0  0  0  0  0  0  0
  1  2  2  0  0  0  0
  1 30  1  0  0  0  0
  2  3  1  0  0  0  0
  3  4  2  0  0  0  0
  3 31  1  0  0  0  0
  4  5  1  0  0  0  0
  4 32  1  0  0  0  0
  5  6  2  0  0  0  0
  5 15  1  0  0  0  0
  6  1  1  0  0  0  0
  6 33  1  0  0  0  0
  7  8  2  0  0  0  0
  7 10  1  0  0  0  0
  7 11  1  0  0  0  0
  8  9  1  0  0  0  0
  9  2  1  0  0  0  0
 10 34  1  0  0  0  0
 10 35  1  0  0  0  0
 10 36  1  0  0  0  0
 11 12  2  0  0  0  0
 11 37  1  0  0  0  0
 12 13  1  0  0  0  0
 12 20  1  0  0  0  0
 13 14  2  0  0  0  0
 13 38  1  0  0  0  0
 14  8  1  0  0  0  0
 14 39  1  0  0  0  0
 15 16  1  0  0  0  0
 16 17  1  0  0  0  0
 16 18  1  0  0  0  0
 16 19  1  0  0  0  0
 20 21  1  0  0  0  0
 21 22  1  0  0  0  0
 21 27  2  0  0  0  0
 22 23  1  0  0  0  0
 22 28  1  0  0  0  0
 23 24  1  0  0  0  0
 23 26  2  0  0  0  0
 24 25  1  0  0  0  0
 24 40  1  0  0  0  0
 25 20  1  0  0  0  0
 25 29  2  0  0  0  0
 28 41  1  0  0  0  0
 28 42  1  0  0  0  0
 28 43  1  0  0  0  0
M  END
>  <Mol_ID>
1221

>  <Formula>
C18H14F3N3O4S

>  <MolWeight>
425.3816696

>  <Cat>
S4044

>  <Name>
Toltrazuril

>  <Synonyms>
N/A

>  <Target>
Parasite

>  <Form>
free base

>  <CAS>
69004-03-1

>  <URL>
http://selleckchem.com/products/toltrazuril.html

$$$$
