Topiramate.cdx
 OpenBabel08302520343D

 43 45  0  0  0  0  0  0  0  0999 V2000
    0.2543   -0.6461   -0.7449 C   0  0  1  0  0  0  0  0  0  0  0  0
    0.9028   -1.9092   -1.2727 C   0  0  2  0  0  0  0  0  0  0  0  0
    0.3846   -3.2557   -0.7771 C   0  0  1  0  0  0  0  0  0  0  0  0
   -0.9014   -3.2250    0.0488 C   0  0  2  0  0  0  0  0  0  0  0  0
   -1.6115   -1.9943   -0.0129 O   0  0  0  0  0  0  0  0  0  0  0  0
   -0.8223   -0.8618    0.3008 C   0  0  0  0  0  0  0  0  0  0  0  0
   -0.5661   -3.6603    1.4950 C   0  0  0  0  0  0  0  0  0  0  0  0
    0.1401   -4.1156   -1.9025 O   0  0  0  0  0  0  0  0  0  0  0  0
   -1.2383   -4.4678   -1.8424 C   0  0  0  0  0  0  0  0  0  0  0  0
   -1.7365   -4.2273   -0.5312 O   0  0  0  0  0  0  0  0  0  0  0  0
   -1.9830   -3.6208   -2.8772 C   0  0  0  0  0  0  0  0  0  0  0  0
   -1.3691   -5.9586   -2.1062 C   0  0  0  0  0  0  0  0  0  0  0  0
   -1.7163   -3.6507    2.3322 O   0  0  0  0  0  0  0  0  0  0  0  0
   -1.4943   -4.1794    3.8514 S   0  0  0  0  0  0  0  0  0  0  0  0
   -3.0226   -4.0519    4.4879 N   0  0  0  0  0  0  0  0  0  0  0  0
   -0.6741   -3.2071    4.5361 O   0  0  0  0  0  0  0  0  0  0  0  0
   -1.1575   -5.5798    3.7971 O   0  0  0  0  0  0  0  0  0  0  0  0
    1.2893    0.1783   -0.2162 O   0  0  0  0  0  0  0  0  0  0  0  0
    2.5067   -0.5545   -0.3223 C   0  0  0  0  0  0  0  0  0  0  0  0
    2.2812   -1.8340   -0.8967 O   0  0  0  0  0  0  0  0  0  0  0  0
    3.0692   -0.7737    1.0758 C   0  0  0  0  0  0  0  0  0  0  0  0
    3.4612    0.1966   -1.2340 C   0  0  0  0  0  0  0  0  0  0  0  0
   -0.2001   -0.1108   -1.5881 H   0  0  0  0  0  0  0  0  0  0  0  0
    0.8900   -1.8836   -2.3694 H   0  0  0  0  0  0  0  0  0  0  0  0
    1.1802   -3.7686   -0.2220 H   0  0  0  0  0  0  0  0  0  0  0  0
   -0.4157   -0.9291    1.3155 H   0  0  0  0  0  0  0  0  0  0  0  0
   -1.4860    0.0118    0.3129 H   0  0  0  0  0  0  0  0  0  0  0  0
    0.1837   -2.9915    1.9314 H   0  0  0  0  0  0  0  0  0  0  0  0
   -0.1595   -4.6746    1.4788 H   0  0  0  0  0  0  0  0  0  0  0  0
   -1.3817   -2.7590   -3.1924 H   0  0  0  0  0  0  0  0  0  0  0  0
   -2.1876   -4.1922   -3.7891 H   0  0  0  0  0  0  0  0  0  0  0  0
   -2.9318   -3.2392   -2.4896 H   0  0  0  0  0  0  0  0  0  0  0  0
   -2.4072   -6.2903   -2.0033 H   0  0  0  0  0  0  0  0  0  0  0  0
   -0.7763   -6.5212   -1.3743 H   0  0  0  0  0  0  0  0  0  0  0  0
   -0.9936   -6.2293   -3.0979 H   0  0  0  0  0  0  0  0  0  0  0  0
   -3.2155   -3.0867    4.7515 H   0  0  0  0  0  0  0  0  0  0  0  0
   -3.7186   -4.4482    3.8521 H   0  0  0  0  0  0  0  0  0  0  0  0
    3.3473    0.1715    1.5522 H   0  0  0  0  0  0  0  0  0  0  0  0
    2.3144   -1.2448    1.7177 H   0  0  0  0  0  0  0  0  0  0  0  0
    3.9357   -1.4430    1.0588 H   0  0  0  0  0  0  0  0  0  0  0  0
    3.8016    1.1322   -0.7805 H   0  0  0  0  0  0  0  0  0  0  0  0
    4.3280   -0.4194   -1.4956 H   0  0  0  0  0  0  0  0  0  0  0  0
    2.9563    0.4578   -2.1720 H   0  0  0  0  0  0  0  0  0  0  0  0
  1  2  1  0  0  0  0
  1  6  1  0  0  0  0
  1 18  1  0  0  0  0
  1 23  1  6  0  0  0
  2  3  1  0  0  0  0
  2 20  1  0  0  0  0
  2 24  1  6  0  0  0
  3  4  1  0  0  0  0
  3  8  1  0  0  0  0
  3 25  1  1  0  0  0
  4  5  1  0  0  0  0
  4  7  1  1  0  0  0
  4 10  1  0  0  0  0
  5  6  1  0  0  0  0
  6 26  1  0  0  0  0
  6 27  1  0  0  0  0
  7 13  1  0  0  0  0
  7 28  1  0  0  0  0
  7 29  1  0  0  0  0
  8  9  1  0  0  0  0
  9 10  1  0  0  0  0
  9 11  1  0  0  0  0
  9 12  1  0  0  0  0
 11 30  1  0  0  0  0
 11 31  1  0  0  0  0
 11 32  1  0  0  0  0
 12 33  1  0  0  0  0
 12 34  1  0  0  0  0
 12 35  1  0  0  0  0
 13 14  1  0  0  0  0
 14 15  1  0  0  0  0
 14 16  2  0  0  0  0
 14 17  2  0  0  0  0
 15 36  1  0  0  0  0
 15 37  1  0  0  0  0
 18 19  1  0  0  0  0
 19 20  1  0  0  0  0
 19 21  1  0  0  0  0
 19 22  1  0  0  0  0
 21 38  1  0  0  0  0
 21 39  1  0  0  0  0
 21 40  1  0  0  0  0
 22 41  1  0  0  0  0
 22 42  1  0  0  0  0
 22 43  1  0  0  0  0
M  END
>  <Mol_ID>
256

>  <Formula>
C12H21NO8S

>  <MolWeight>
339.36204

>  <Cat>
S1438

>  <Name>
Topiramate

>  <Synonyms>
MCN 4853, RWJ 17021

>  <Target>
Carbonic Anhydrase

>  <Form>
free base

>  <CAS>
97240-79-4

>  <URL>
http://selleckchem.com/products/Topiramate.html

$$$$
