Tosedostat (CHR2797)
 OpenBabel08302521353D

 59 60  0  0  0  0  0  0  0  0999 V2000
    1.4058   -0.1311    0.1337 C   0  0  0  0  0  0  0  0  0  0  0  0
    0.5207   -1.2071    0.1747 C   0  0  0  0  0  0  0  0  0  0  0  0
   -0.8647   -0.9938    0.1081 C   0  0  0  0  0  0  0  0  0  0  0  0
   -1.3447    0.3210   -0.0067 C   0  0  0  0  0  0  0  0  0  0  0  0
   -0.4561    1.3950   -0.0527 C   0  0  0  0  0  0  0  0  0  0  0  0
    0.9170    1.1687    0.0193 C   0  0  0  0  0  0  0  0  0  0  0  0
   -3.9764   -3.4243   -2.7931 C   0  0  2  0  0  0  0  0  0  0  0  0
   -4.5366   -2.0163   -3.0908 C   0  0  1  0  0  0  0  0  0  0  0  0
   -5.7443   -2.0126   -4.0418 C   0  0  0  0  0  0  0  0  0  0  0  0
   -6.8942   -2.0902   -3.6120 O   0  0  0  0  0  0  0  0  0  0  0  0
   -2.5520   -2.2273   -1.1354 N   0  0  0  0  0  0  0  0  0  0  0  0
   -2.9190   -3.4341   -1.6709 C   0  0  0  0  0  0  0  0  0  0  0  0
   -3.4324   -4.0976   -4.0790 C   0  0  0  0  0  0  0  0  0  0  0  0
   -2.8752   -5.5305   -3.9369 C   0  0  0  0  0  0  0  0  0  0  0  0
   -3.9214   -6.4993   -3.3853 C   0  0  0  0  0  0  0  0  0  0  0  0
   -2.3464   -6.0335   -5.2833 C   0  0  0  0  0  0  0  0  0  0  0  0
   -4.9742   -1.3999   -1.8670 O   0  0  0  0  0  0  0  0  0  0  0  0
   -3.9080   -1.6332    1.2680 O   0  0  0  0  0  0  0  0  0  0  0  0
   -2.7907   -2.1312    1.3073 C   0  0  0  0  0  0  0  0  0  0  0  0
   -1.8044   -2.1815    0.1202 C   0  0  2  0  0  0  0  0  0  0  0  0
   -2.9686   -1.3232    4.3055 C   0  0  0  0  0  0  0  0  0  0  0  0
   -3.0211   -2.6731    3.5996 C   0  0  0  0  0  0  0  0  0  0  0  0
   -2.2214   -2.6870    2.4172 O   0  0  0  0  0  0  0  0  0  0  0  0
   -3.3308   -1.6744    5.7366 C   0  0  0  0  0  0  0  0  0  0  0  0
   -2.5800   -2.9748    5.9895 C   0  0  0  0  0  0  0  0  0  0  0  0
   -2.4405   -3.6496    4.6242 C   0  0  0  0  0  0  0  0  0  0  0  0
   -2.4349   -4.4819   -1.2468 O   0  0  0  0  0  0  0  0  0  0  0  0
   -5.4086   -1.8244   -5.3677 N   0  0  0  0  0  0  0  0  0  0  0  0
   -6.4719   -1.9505   -6.2858 O   0  0  0  0  0  0  0  0  0  0  0  0
    2.4767   -0.3083    0.1864 H   0  0  0  0  0  0  0  0  0  0  0  0
    0.9195   -2.2173    0.2504 H   0  0  0  0  0  0  0  0  0  0  0  0
   -2.4137    0.5174   -0.0706 H   0  0  0  0  0  0  0  0  0  0  0  0
   -0.8364    2.4089   -0.1479 H   0  0  0  0  0  0  0  0  0  0  0  0
    1.6079    2.0065   -0.0153 H   0  0  0  0  0  0  0  0  0  0  0  0
   -4.8071   -4.0215   -2.3942 H   0  0  0  0  0  0  0  0  0  0  0  0
   -3.7577   -1.3653   -3.5012 H   0  0  0  0  0  0  0  0  0  0  0  0
   -3.2357   -1.4780   -1.2320 H   0  0  0  0  0  0  0  0  0  0  0  0
   -4.2407   -4.1463   -4.8184 H   0  0  0  0  0  0  0  0  0  0  0  0
   -2.6513   -3.4576   -4.5098 H   0  0  0  0  0  0  0  0  0  0  0  0
   -2.0113   -5.5246   -3.2665 H   0  0  0  0  0  0  0  0  0  0  0  0
   -4.7997   -6.5474   -4.0377 H   0  0  0  0  0  0  0  0  0  0  0  0
   -3.5070   -7.5084   -3.2968 H   0  0  0  0  0  0  0  0  0  0  0  0
   -4.2586   -6.2023   -2.3881 H   0  0  0  0  0  0  0  0  0  0  0  0
   -1.5751   -5.3593   -5.6712 H   0  0  0  0  0  0  0  0  0  0  0  0
   -1.8917   -7.0235   -5.1695 H   0  0  0  0  0  0  0  0  0  0  0  0
   -3.1441   -6.1074   -6.0293 H   0  0  0  0  0  0  0  0  0  0  0  0
   -5.8809   -1.7343   -1.6911 H   0  0  0  0  0  0  0  0  0  0  0  0
   -1.2310   -3.1110    0.2188 H   0  0  0  0  0  0  0  0  0  0  0  0
   -1.9598   -0.8958    4.2466 H   0  0  0  0  0  0  0  0  0  0  0  0
   -3.6590   -0.5954    3.8691 H   0  0  0  0  0  0  0  0  0  0  0  0
   -4.0616   -2.9635    3.3775 H   0  0  0  0  0  0  0  0  0  0  0  0
   -3.0509   -0.8890    6.4446 H   0  0  0  0  0  0  0  0  0  0  0  0
   -4.4110   -1.8426    5.8234 H   0  0  0  0  0  0  0  0  0  0  0  0
   -3.1003   -3.6104    6.7129 H   0  0  0  0  0  0  0  0  0  0  0  0
   -1.5843   -2.7611    6.3958 H   0  0  0  0  0  0  0  0  0  0  0  0
   -2.9836   -4.6008    4.5997 H   0  0  0  0  0  0  0  0  0  0  0  0
   -1.3894   -3.8805    4.4150 H   0  0  0  0  0  0  0  0  0  0  0  0
   -4.5077   -2.1411   -5.7159 H   0  0  0  0  0  0  0  0  0  0  0  0
   -6.7975   -1.0339   -6.3453 H   0  0  0  0  0  0  0  0  0  0  0  0
  1  2  2  0  0  0  0
  1 30  1  0  0  0  0
  2  3  1  0  0  0  0
  2 31  1  0  0  0  0
  3  4  2  0  0  0  0
  4  5  1  0  0  0  0
  4 32  1  0  0  0  0
  5  6  2  0  0  0  0
  5 33  1  0  0  0  0
  6  1  1  0  0  0  0
  6 34  1  0  0  0  0
  7  8  1  0  0  0  0
  7 13  1  0  0  0  0
  7 35  1  1  0  0  0
  8  9  1  0  0  0  0
  8 17  1  0  0  0  0
  8 36  1  6  0  0  0
  9 10  2  0  0  0  0
  9 28  1  0  0  0  0
 11 12  1  0  0  0  0
 11 37  1  0  0  0  0
 12  7  1  0  0  0  0
 12 27  2  0  0  0  0
 13 14  1  0  0  0  0
 13 38  1  0  0  0  0
 13 39  1  0  0  0  0
 14 15  1  0  0  0  0
 14 16  1  0  0  0  0
 14 40  1  0  0  0  0
 15 41  1  0  0  0  0
 15 42  1  0  0  0  0
 15 43  1  0  0  0  0
 16 44  1  0  0  0  0
 16 45  1  0  0  0  0
 16 46  1  0  0  0  0
 17 47  1  0  0  0  0
 18 19  2  0  0  0  0
 20 19  1  0  0  0  0
 20 11  1  0  0  0  0
 20  3  1  0  0  0  0
 20 48  1  1  0  0  0
 21 22  1  0  0  0  0
 21 24  1  0  0  0  0
 21 49  1  0  0  0  0
 21 50  1  0  0  0  0
 22 23  1  0  0  0  0
 22 51  1  0  0  0  0
 23 19  1  0  0  0  0
 24 25  1  0  0  0  0
 24 52  1  0  0  0  0
 24 53  1  0  0  0  0
 25 26  1  0  0  0  0
 25 54  1  0  0  0  0
 25 55  1  0  0  0  0
 26 22  1  0  0  0  0
 26 56  1  0  0  0  0
 26 57  1  0  0  0  0
 28 29  1  0  0  0  0
 28 58  1  0  0  0  0
 29 59  1  0  0  0  0
M  END
>  <Mol_ID>
6652

>  <Formula>
C21H30N2O6

>  <MolWeight>
406.4727

>  <Cat>
S1522

>  <Name>
Tosedostat (CHR2797)

>  <Target>
Aminopeptidase

>  <Form>
Free base

>  <CAS>
238750-77-1

>  <URL>
http://www.selleckchem.com/products/CHR-2797(Tosedostat).html

$$$$
