TP-064
 OpenBabel08302521353D

 68 71  0  0  0  0  0  0  0  0999 V2000
    6.1970    1.1520    3.5512 O   0  0  0  0  0  0  0  0  0  0  0  0
    3.5387    2.7164    7.2289 O   0  0  0  0  0  0  0  0  0  0  0  0
    7.9982    3.9955   -5.9795 N   0  0  0  0  0  0  0  0  0  0  0  0
    5.5638    3.9557   -3.0350 N   0  0  0  0  0  0  0  0  0  0  0  0
   10.3525    6.9062   -6.8310 N   0  0  0  0  0  0  0  0  0  0  0  0
    5.3586    1.3426    1.4381 N   0  0  0  0  0  0  0  0  0  0  0  0
    6.4112    2.0397   -4.3277 C   0  0  0  0  0  0  0  0  0  0  0  0
    7.9448    2.1060   -4.3387 C   0  0  0  0  0  0  0  0  0  0  0  0
    5.8951    2.6543   -5.6454 C   0  0  0  0  0  0  0  0  0  0  0  0
    8.4946    3.4964   -4.6850 C   0  0  0  0  0  0  0  0  0  0  0  0
    6.5209    4.0120   -5.9886 C   0  0  0  0  0  0  0  0  0  0  0  0
    8.4837    5.3771   -6.2422 C   0  0  0  0  0  0  0  0  0  0  0  0
    5.7815    2.6230   -3.0597 C   0  0  0  0  0  0  0  0  0  0  0  0
   10.0070    5.5169   -6.4810 C   0  0  0  0  0  0  0  0  0  0  0  0
    5.4293    1.8110   -1.9618 C   0  0  0  0  0  0  0  0  0  0  0  0
    4.8220    2.3711   -0.8145 C   0  0  0  0  0  0  0  0  0  0  0  0
    4.9902    4.4835   -1.9340 C   0  0  0  0  0  0  0  0  0  0  0  0
    4.3550    1.5434    0.3842 C   0  0  0  0  0  0  0  0  0  0  0  0
    4.6139    3.7514   -0.8196 C   0  0  0  0  0  0  0  0  0  0  0  0
   11.7893    7.0825   -7.0025 C   0  0  0  0  0  0  0  0  0  0  0  0
    6.5673    0.6310    1.0283 C   0  0  0  0  0  0  0  0  0  0  0  0
    5.2759    1.5582    2.8238 C   0  0  0  0  0  0  0  0  0  0  0  0
    4.2154    2.2959    3.5798 C   0  0  0  0  0  0  0  0  0  0  0  0
    4.1302    1.9994    4.9639 C   0  0  0  0  0  0  0  0  0  0  0  0
    3.5370    3.4172    3.1059 C   0  0  0  0  0  0  0  0  0  0  0  0
    3.5148    2.8780    5.8609 C   0  0  0  0  0  0  0  0  0  0  0  0
    2.8124    4.2320    3.9915 C   0  0  0  0  0  0  0  0  0  0  0  0
    2.8178    3.9756    5.3664 C   0  0  0  0  0  0  0  0  0  0  0  0
    4.7176    2.3999    7.8808 C   0  0  0  0  0  0  0  0  0  0  0  0
    6.0040    2.5210    7.3507 C   0  0  0  0  0  0  0  0  0  0  0  0
    4.5740    1.9578    9.2029 C   0  0  0  0  0  0  0  0  0  0  0  0
    7.1202    2.1142    8.0864 C   0  0  0  0  0  0  0  0  0  0  0  0
    5.6902    1.5736    9.9503 C   0  0  0  0  0  0  0  0  0  0  0  0
    6.9630    1.6306    9.3863 C   0  0  0  0  0  0  0  0  0  0  0  0
    9.8723    7.1586   -7.6942 H   0  0  0  0  0  0  0  0  0  0  0  0
    6.1224    0.9796   -4.3513 H   0  0  0  0  0  0  0  0  0  0  0  0
    8.3565    1.7743   -3.3787 H   0  0  0  0  0  0  0  0  0  0  0  0
    8.3148    1.3979   -5.0946 H   0  0  0  0  0  0  0  0  0  0  0  0
    6.1359    1.9614   -6.4647 H   0  0  0  0  0  0  0  0  0  0  0  0
    4.8026    2.7460   -5.6320 H   0  0  0  0  0  0  0  0  0  0  0  0
    8.2669    4.1991   -3.8760 H   0  0  0  0  0  0  0  0  0  0  0  0
    9.5857    3.4002   -4.7342 H   0  0  0  0  0  0  0  0  0  0  0  0
    6.1826    4.2817   -6.9990 H   0  0  0  0  0  0  0  0  0  0  0  0
    6.1359    4.7885   -5.3196 H   0  0  0  0  0  0  0  0  0  0  0  0
    7.9835    5.7498   -7.1472 H   0  0  0  0  0  0  0  0  0  0  0  0
    8.1863    6.0456   -5.4224 H   0  0  0  0  0  0  0  0  0  0  0  0
   10.5565    5.2270   -5.5794 H   0  0  0  0  0  0  0  0  0  0  0  0
   10.3059    4.8499   -7.2989 H   0  0  0  0  0  0  0  0  0  0  0  0
    5.6149    0.7406   -2.0168 H   0  0  0  0  0  0  0  0  0  0  0  0
    4.8214    5.5559   -1.9761 H   0  0  0  0  0  0  0  0  0  0  0  0
    4.0726    0.5439    0.0241 H   0  0  0  0  0  0  0  0  0  0  0  0
    3.4344    1.9602    0.7997 H   0  0  0  0  0  0  0  0  0  0  0  0
    4.1448    4.2609    0.0102 H   0  0  0  0  0  0  0  0  0  0  0  0
   12.3321    6.1399   -7.1292 H   0  0  0  0  0  0  0  0  0  0  0  0
   11.9843    7.6950   -7.8895 H   0  0  0  0  0  0  0  0  0  0  0  0
   12.2057    7.6123   -6.1401 H   0  0  0  0  0  0  0  0  0  0  0  0
    7.3682    1.3644    0.8999 H   0  0  0  0  0  0  0  0  0  0  0  0
    6.8748   -0.1014    1.7823 H   0  0  0  0  0  0  0  0  0  0  0  0
    6.4050    0.0784    0.1015 H   0  0  0  0  0  0  0  0  0  0  0  0
    4.6399    1.1220    5.3552 H   0  0  0  0  0  0  0  0  0  0  0  0
    3.6085    3.7232    2.0732 H   0  0  0  0  0  0  0  0  0  0  0  0
    2.2905    5.1121    3.6196 H   0  0  0  0  0  0  0  0  0  0  0  0
    2.3100    4.6506    6.0517 H   0  0  0  0  0  0  0  0  0  0  0  0
    6.1747    2.9147    6.3520 H   0  0  0  0  0  0  0  0  0  0  0  0
    3.5878    1.9093    9.6560 H   0  0  0  0  0  0  0  0  0  0  0  0
    8.1088    2.1648    7.6417 H   0  0  0  0  0  0  0  0  0  0  0  0
    5.5708    1.2217   10.9730 H   0  0  0  0  0  0  0  0  0  0  0  0
    7.8295    1.3069    9.9522 H   0  0  0  0  0  0  0  0  0  0  0  0
  1 22  2  0  0  0  0
  2 26  1  0  0  0  0
  2 29  1  0  0  0  0
  3 10  1  0  0  0  0
  3 11  1  0  0  0  0
  3 12  1  0  0  0  0
  4 13  2  0  0  0  0
  4 17  1  0  0  0  0
  5 14  1  0  0  0  0
  5 20  1  0  0  0  0
  5 35  1  0  0  0  0
  6 18  1  0  0  0  0
  6 21  1  0  0  0  0
  6 22  1  0  0  0  0
  7  8  1  0  0  0  0
  7  9  1  0  0  0  0
  7 13  1  0  0  0  0
  7 36  1  0  0  0  0
  8 10  1  0  0  0  0
  8 37  1  0  0  0  0
  8 38  1  0  0  0  0
  9 11  1  0  0  0  0
  9 39  1  0  0  0  0
  9 40  1  0  0  0  0
 10 41  1  0  0  0  0
 10 42  1  0  0  0  0
 11 43  1  0  0  0  0
 11 44  1  0  0  0  0
 12 14  1  0  0  0  0
 12 45  1  0  0  0  0
 12 46  1  0  0  0  0
 13 15  1  0  0  0  0
 14 47  1  0  0  0  0
 14 48  1  0  0  0  0
 15 16  2  0  0  0  0
 15 49  1  0  0  0  0
 16 18  1  0  0  0  0
 16 19  1  0  0  0  0
 17 19  2  0  0  0  0
 17 50  1  0  0  0  0
 18 51  1  0  0  0  0
 18 52  1  0  0  0  0
 19 53  1  0  0  0  0
 20 54  1  0  0  0  0
 20 55  1  0  0  0  0
 20 56  1  0  0  0  0
 21 57  1  0  0  0  0
 21 58  1  0  0  0  0
 21 59  1  0  0  0  0
 22 23  1  0  0  0  0
 23 24  2  0  0  0  0
 23 25  1  0  0  0  0
 24 26  1  0  0  0  0
 24 60  1  0  0  0  0
 25 27  2  0  0  0  0
 25 61  1  0  0  0  0
 26 28  2  0  0  0  0
 27 28  1  0  0  0  0
 27 62  1  0  0  0  0
 28 63  1  0  0  0  0
 29 30  2  0  0  0  0
 29 31  1  0  0  0  0
 30 32  1  0  0  0  0
 30 64  1  0  0  0  0
 31 33  2  0  0  0  0
 31 65  1  0  0  0  0
 32 34  2  0  0  0  0
 32 66  1  0  0  0  0
 33 34  1  0  0  0  0
 33 67  1  0  0  0  0
 34 68  1  0  0  0  0
M  END
>  <Mol_ID>
6821

>  <Formula>
C28H34N4O2

>  <MolWeight>
458.59516

>  <Cat>
E1088

>  <Name>
TP-064

>  <Synonyms>
N/A

>  <Target>
PRMT

>  <Form>
Free base

>  <CAS>
2080306-20-1

>  <URL>
http://www.selleckchem.com/products/tp-064.html

$$$$
