TP-1454
 OpenBabel08302521373D

 53 55  0  0  0  0  0  0  0  0999 V2000
    0.7624   -0.3315    0.1236 N   0  0  0  0  0  0  0  0  0  0  0  0
   -0.0061   -1.1130   -0.7663 C   0  0  0  0  0  0  0  0  0  0  0  0
    0.1697    0.5771    1.1014 C   0  0  0  0  0  0  0  0  0  0  0  0
    2.2394   -0.3433    0.0412 C   0  0  0  0  0  0  0  0  0  0  0  0
    0.5506   -1.7829   -1.6364 O   0  0  0  0  0  0  0  0  0  0  0  0
    2.9328   -0.7624    1.3496 C   0  0  0  0  0  0  0  0  0  0  0  0
   -1.0852    2.2252    2.8114 F   0  0  0  0  0  0  0  0  0  0  0  0
    0.4579    1.8190   -1.7568 N   0  0  0  0  0  0  0  0  0  0  0  0
   -4.7046   -0.9240    1.0617 C   0  0  0  0  0  0  0  0  0  0  0  0
   -4.5367    0.2819    1.6784 F   0  0  0  0  0  0  0  0  0  0  0  0
   -5.9024   -0.8691    0.4284 F   0  0  0  0  0  0  0  0  0  0  0  0
   -4.8170   -1.8383    2.0644 F   0  0  0  0  0  0  0  0  0  0  0  0
    4.6485    2.3695    4.4552 O   0  0  0  0  0  0  0  0  0  0  0  0
    6.7746    1.4549    3.4584 O   0  0  0  0  0  0  0  0  0  0  0  0
   -1.4479   -1.1990   -0.6095 C   0  0  0  0  0  0  0  0  0  0  0  0
   -2.4446   -0.3818   -0.1081 C   0  0  0  0  0  0  0  0  0  0  0  0
   -2.1397   -2.3134   -1.0175 N   0  0  0  0  0  0  0  0  0  0  0  0
   -3.5503   -1.2344    0.1422 C   0  0  0  0  0  0  0  0  0  0  0  0
   -3.3728   -2.4137   -0.4826 N   0  0  0  0  0  0  0  0  0  0  0  0
   -0.1896    1.9699    0.6289 C   0  0  0  0  0  0  0  0  0  0  0  0
   -0.8280    2.7599    1.6075 C   0  0  0  0  0  0  0  0  0  0  0  0
    0.0427    2.5426   -0.6353 C   0  0  0  0  0  0  0  0  0  0  0  0
   -1.2459    4.0589    1.3662 C   0  0  0  0  0  0  0  0  0  0  0  0
   -0.4038    3.8553   -0.8732 C   0  0  0  0  0  0  0  0  0  0  0  0
   -1.0268    4.6154    0.1200 C   0  0  0  0  0  0  0  0  0  0  0  0
    4.4770   -0.6795    1.3254 C   0  0  0  0  0  0  0  0  0  0  0  0
    5.0639   -1.1189    2.6849 C   0  0  0  0  0  0  0  0  0  0  0  0
    5.0432    0.6984    0.9264 C   0  0  0  0  0  0  0  0  0  0  0  0
    4.7622   -0.1723    3.8443 C   0  0  0  0  0  0  0  0  0  0  0  0
    4.6985    1.8183    1.9007 C   0  0  0  0  0  0  0  0  0  0  0  0
    5.3252    1.4845    3.5319 S   0  0  0  0  0  0  0  0  0  0  0  0
   -0.6978    0.0837    1.5495 H   0  0  0  0  0  0  0  0  0  0  0  0
    0.8533    0.6963    1.9434 H   0  0  0  0  0  0  0  0  0  0  0  0
    2.5723   -1.0004   -0.7683 H   0  0  0  0  0  0  0  0  0  0  0  0
    2.5404    0.6742   -0.2228 H   0  0  0  0  0  0  0  0  0  0  0  0
    2.5770   -0.1476    2.1770 H   0  0  0  0  0  0  0  0  0  0  0  0
    2.6289   -1.7885    1.5927 H   0  0  0  0  0  0  0  0  0  0  0  0
    0.9710    0.9655   -1.5788 H   0  0  0  0  0  0  0  0  0  0  0  0
    0.8740    2.3676   -2.5031 H   0  0  0  0  0  0  0  0  0  0  0  0
   -2.3729    0.6394    0.2304 H   0  0  0  0  0  0  0  0  0  0  0  0
   -1.7737   -3.0905   -1.5601 H   0  0  0  0  0  0  0  0  0  0  0  0
   -1.7554    4.6155    2.1432 H   0  0  0  0  0  0  0  0  0  0  0  0
   -0.2844    4.2909   -1.8643 H   0  0  0  0  0  0  0  0  0  0  0  0
   -1.3599    5.6237   -0.1041 H   0  0  0  0  0  0  0  0  0  0  0  0
    4.8250   -1.3992    0.5742 H   0  0  0  0  0  0  0  0  0  0  0  0
    6.1540   -1.2143    2.5798 H   0  0  0  0  0  0  0  0  0  0  0  0
    4.6920   -2.1175    2.9399 H   0  0  0  0  0  0  0  0  0  0  0  0
    6.1359    0.6159    0.8543 H   0  0  0  0  0  0  0  0  0  0  0  0
    4.7033    0.9754   -0.0765 H   0  0  0  0  0  0  0  0  0  0  0  0
    5.2641   -0.5132    4.7564 H   0  0  0  0  0  0  0  0  0  0  0  0
    3.6907   -0.1195    4.0574 H   0  0  0  0  0  0  0  0  0  0  0  0
    3.6199    1.9672    1.9821 H   0  0  0  0  0  0  0  0  0  0  0  0
    5.1499    2.7614    1.5736 H   0  0  0  0  0  0  0  0  0  0  0  0
  1  2  1  0  0  0  0
  1  3  1  0  0  0  0
  1  4  1  0  0  0  0
  2  5  2  0  0  0  0
  2 15  1  0  0  0  0
  3 20  1  0  0  0  0
  3 32  1  0  0  0  0
  3 33  1  0  0  0  0
  4  6  1  0  0  0  0
  4 34  1  0  0  0  0
  4 35  1  0  0  0  0
  6 26  1  0  0  0  0
  6 36  1  0  0  0  0
  6 37  1  0  0  0  0
  7 21  1  0  0  0  0
  8 22  1  0  0  0  0
  8 38  1  0  0  0  0
  8 39  1  0  0  0  0
  9 10  1  0  0  0  0
  9 11  1  0  0  0  0
  9 12  1  0  0  0  0
  9 18  1  0  0  0  0
 13 31  2  0  0  0  0
 14 31  2  0  0  0  0
 15 16  2  0  0  0  0
 15 17  1  0  0  0  0
 16 18  1  0  0  0  0
 16 40  1  0  0  0  0
 17 19  1  0  0  0  0
 17 41  1  0  0  0  0
 18 19  2  0  0  0  0
 20 21  2  0  0  0  0
 20 22  1  0  0  0  0
 21 23  1  0  0  0  0
 22 24  2  0  0  0  0
 23 25  2  0  0  0  0
 23 42  1  0  0  0  0
 24 25  1  0  0  0  0
 24 43  1  0  0  0  0
 25 44  1  0  0  0  0
 26 27  1  0  0  0  0
 26 28  1  0  0  0  0
 26 45  1  0  0  0  0
 27 29  1  0  0  0  0
 27 46  1  0  0  0  0
 27 47  1  0  0  0  0
 28 30  1  0  0  0  0
 28 48  1  0  0  0  0
 28 49  1  0  0  0  0
 29 31  1  0  0  0  0
 29 50  1  0  0  0  0
 29 51  1  0  0  0  0
 30 31  1  0  0  0  0
 30 52  1  0  0  0  0
 30 53  1  0  0  0  0
M  END
>  <Mol_ID>
7515

>  <Formula>
C19H22F4N4O3S

>  <MolWeight>
462.4615928

>  <Cat>
E1328

>  <Name>
TP-1454

>  <Target>
PKM

>  <Form>
free base

>  <CAS>
2490276-04-3

>  <URL>
https://www.selleckchem.com/products/tp-1454.html

$$$$
