TP0463518
 OpenBabel08302521263D

 48 50  0  0  0  0  0  0  0  0999 V2000
   -2.3945   -0.8719    0.9336 O   0  0  0  0  0  0  0  0  0  0  0  0
    2.2329   -1.0382   -0.0317 O   0  0  0  0  0  0  0  0  0  0  0  0
   -1.3167   -3.1511    0.0393 O   0  0  0  0  0  0  0  0  0  0  0  0
    4.8136    5.3115   -2.9481 O   0  0  0  0  0  0  0  0  0  0  0  0
    1.5659   -4.9545    1.3431 O   0  0  0  0  0  0  0  0  0  0  0  0
    1.4007   -6.7928    0.0532 O   0  0  0  0  0  0  0  0  0  0  0  0
    1.2006    1.0025    0.2016 N   0  0  0  0  0  0  0  0  0  0  0  0
    0.8767   -3.2204   -0.5731 N   0  0  0  0  0  0  0  0  0  0  0  0
    3.3044    4.8588   -1.1909 N   0  0  0  0  0  0  0  0  0  0  0  0
    0.0192    1.7766   -0.1233 C   0  0  0  0  0  0  0  0  0  0  0  0
   -1.2271    1.1668    0.4914 C   0  0  0  0  0  0  0  0  0  0  0  0
    2.4081    1.6885    0.6393 C   0  0  0  0  0  0  0  0  0  0  0  0
    1.1992   -0.3717    0.0319 C   0  0  0  0  0  0  0  0  0  0  0  0
   -1.2034   -0.3369    0.4690 C   0  0  0  0  0  0  0  0  0  0  0  0
   -0.1342   -1.0692    0.0728 C   0  0  0  0  0  0  0  0  0  0  0  0
    3.0237    2.6052   -0.3759 C   0  0  0  0  0  0  0  0  0  0  0  0
   -0.2573   -2.5589   -0.1529 C   0  0  0  0  0  0  0  0  0  0  0  0
    3.9881    2.1602   -1.2845 C   0  0  0  0  0  0  0  0  0  0  0  0
    2.7119    3.9574   -0.3895 C   0  0  0  0  0  0  0  0  0  0  0  0
    4.6307    3.0765   -2.1214 C   0  0  0  0  0  0  0  0  0  0  0  0
    4.2404    4.4066   -2.0580 C   0  0  0  0  0  0  0  0  0  0  0  0
    0.9138   -4.6382   -0.9578 C   0  0  0  0  0  0  0  0  0  0  0  0
    3.9979    6.3400   -3.3874 C   0  0  0  0  0  0  0  0  0  0  0  0
    1.3042   -5.5930    0.1762 C   0  0  0  0  0  0  0  0  0  0  0  0
    4.5599    7.5909   -3.6169 C   0  0  0  0  0  0  0  0  0  0  0  0
    2.6284    6.1464   -3.6347 C   0  0  0  0  0  0  0  0  0  0  0  0
    3.7453    8.6624   -4.0163 C   0  0  0  0  0  0  0  0  0  0  0  0
    1.8175    7.2111   -4.0112 C   0  0  0  0  0  0  0  0  0  0  0  0
    2.3737    8.4720   -4.1974 C   0  0  0  0  0  0  0  0  0  0  0  0
   -2.2486   -1.8077    1.1948 H   0  0  0  0  0  0  0  0  0  0  0  0
    1.4243   -3.9867    1.2179 H   0  0  0  0  0  0  0  0  0  0  0  0
    1.7170   -2.6641   -0.7488 H   0  0  0  0  0  0  0  0  0  0  0  0
    0.1251    2.8070    0.2295 H   0  0  0  0  0  0  0  0  0  0  0  0
   -0.0546    1.8013   -1.2172 H   0  0  0  0  0  0  0  0  0  0  0  0
   -2.0973    1.5314   -0.0667 H   0  0  0  0  0  0  0  0  0  0  0  0
   -1.3387    1.5136    1.5250 H   0  0  0  0  0  0  0  0  0  0  0  0
    2.1410    2.2650    1.5404 H   0  0  0  0  0  0  0  0  0  0  0  0
    3.1558    0.9668    0.9728 H   0  0  0  0  0  0  0  0  0  0  0  0
    4.2552    1.1058   -1.3247 H   0  0  0  0  0  0  0  0  0  0  0  0
    1.9578    4.3806    0.2683 H   0  0  0  0  0  0  0  0  0  0  0  0
    5.4067    2.7534   -2.8055 H   0  0  0  0  0  0  0  0  0  0  0  0
   -0.0661   -4.9453   -1.3509 H   0  0  0  0  0  0  0  0  0  0  0  0
    1.6726   -4.7329   -1.7407 H   0  0  0  0  0  0  0  0  0  0  0  0
    5.6259    7.7603   -3.4734 H   0  0  0  0  0  0  0  0  0  0  0  0
    2.1766    5.1717   -3.4857 H   0  0  0  0  0  0  0  0  0  0  0  0
    4.1726    9.6497   -4.1736 H   0  0  0  0  0  0  0  0  0  0  0  0
    0.7520    7.0487   -4.1419 H   0  0  0  0  0  0  0  0  0  0  0  0
    1.7354    9.3034   -4.4844 H   0  0  0  0  0  0  0  0  0  0  0  0
  1 14  1  0  0  0  0
  1 30  1  0  0  0  0
  2 13  2  0  0  0  0
  3 17  2  0  0  0  0
  4 21  1  0  0  0  0
  4 23  1  0  0  0  0
  5 24  1  0  0  0  0
  5 31  1  0  0  0  0
  6 24  2  0  0  0  0
  7 10  1  0  0  0  0
  7 12  1  0  0  0  0
  7 13  1  0  0  0  0
  8 17  1  0  0  0  0
  8 22  1  0  0  0  0
  8 32  1  0  0  0  0
  9 19  2  0  0  0  0
  9 21  1  0  0  0  0
 10 11  1  0  0  0  0
 10 33  1  0  0  0  0
 10 34  1  0  0  0  0
 11 14  1  0  0  0  0
 11 35  1  0  0  0  0
 11 36  1  0  0  0  0
 12 16  1  0  0  0  0
 12 37  1  0  0  0  0
 12 38  1  0  0  0  0
 13 15  1  0  0  0  0
 14 15  2  0  0  0  0
 15 17  1  0  0  0  0
 16 18  2  0  0  0  0
 16 19  1  0  0  0  0
 18 20  1  0  0  0  0
 18 39  1  0  0  0  0
 19 40  1  0  0  0  0
 20 21  2  0  0  0  0
 20 41  1  0  0  0  0
 22 24  1  0  0  0  0
 22 42  1  0  0  0  0
 22 43  1  0  0  0  0
 23 25  2  0  0  0  0
 23 26  1  0  0  0  0
 25 27  1  0  0  0  0
 25 44  1  0  0  0  0
 26 28  2  0  0  0  0
 26 45  1  0  0  0  0
 27 29  2  0  0  0  0
 27 46  1  0  0  0  0
 28 29  1  0  0  0  0
 28 47  1  0  0  0  0
 29 48  1  0  0  0  0
M  END
>  <Mol_ID>
5274

>  <Formula>
C20H18ClN3O6

>  <MolWeight>
431.82642

>  <Cat>
S0729

>  <Name>
TP0463518

>  <Synonyms>
N/A

>  <Target>
HIF

>  <Form>
Free Base

>  <CAS>
1558021-37-6

>  <URL>
https://www.selleckchem.com/products/tp0463518.html

$$$$
