TPCA-1.cdx
 OpenBabel08302521503D

 29 30  0  0  0  0  0  0  0  0999 V2000
    0.0767    1.1937   -0.0120 C   0  0  0  0  0  0  0  0  0  0  0  0
    1.3940    0.7429   -0.0029 C   0  0  0  0  0  0  0  0  0  0  0  0
    1.4276   -0.6975   -0.0051 C   0  0  0  0  0  0  0  0  0  0  0  0
    0.1786   -1.2847   -0.0160 C   0  0  0  0  0  0  0  0  0  0  0  0
   -1.0323   -0.0893    0.0201 S   0  0  0  0  0  0  0  0  0  0  0  0
    2.5559    1.6344   -0.0009 C   0  0  0  0  0  0  0  0  0  0  0  0
    2.4612    2.8578    0.0003 O   0  0  0  0  0  0  0  0  0  0  0  0
    3.7839    1.0388    0.0046 N   0  0  0  0  0  0  0  0  0  0  0  0
   -0.1644   -2.7132   -0.0261 C   0  0  0  0  0  0  0  0  0  0  0  0
    0.6742   -3.6381    0.6196 C   0  0  0  0  0  0  0  0  0  0  0  0
    0.3831   -5.0033    0.5960 C   0  0  0  0  0  0  0  0  0  0  0  0
   -0.7506   -5.4499   -0.0683 C   0  0  0  0  0  0  0  0  0  0  0  0
   -1.5982   -4.5584   -0.7098 C   0  0  0  0  0  0  0  0  0  0  0  0
   -1.3049   -3.1938   -0.6922 C   0  0  0  0  0  0  0  0  0  0  0  0
   -1.0281   -6.7588   -0.0910 F   0  0  0  0  0  0  0  0  0  0  0  0
   -0.3528    2.5139   -0.0255 N   0  0  0  0  0  0  0  0  0  0  0  0
   -1.5862    3.0829   -0.0581 C   0  0  0  0  0  0  0  0  0  0  0  0
   -1.7163    4.3042   -0.0348 O   0  0  0  0  0  0  0  0  0  0  0  0
   -2.6835    2.3093   -0.1440 N   0  0  0  0  0  0  0  0  0  0  0  0
    2.3339   -1.2883   -0.0147 H   0  0  0  0  0  0  0  0  0  0  0  0
    3.9408    0.0433   -0.0014 H   0  0  0  0  0  0  0  0  0  0  0  0
    4.5933    1.6454    0.0080 H   0  0  0  0  0  0  0  0  0  0  0  0
    1.5596   -3.3058    1.1570 H   0  0  0  0  0  0  0  0  0  0  0  0
    1.0327   -5.7169    1.0923 H   0  0  0  0  0  0  0  0  0  0  0  0
   -2.4806   -4.9271   -1.2246 H   0  0  0  0  0  0  0  0  0  0  0  0
   -1.9739   -2.5165   -1.2183 H   0  0  0  0  0  0  0  0  0  0  0  0
    0.3902    3.2126   -0.0119 H   0  0  0  0  0  0  0  0  0  0  0  0
   -2.6319    1.3140    0.0013 H   0  0  0  0  0  0  0  0  0  0  0  0
   -3.5833    2.7638   -0.0869 H   0  0  0  0  0  0  0  0  0  0  0  0
  1  2  2  0  0  0  0
  1  5  1  0  0  0  0
  1 16  1  0  0  0  0
  2  3  1  0  0  0  0
  2  6  1  0  0  0  0
  3  4  2  0  0  0  0
  3 20  1  0  0  0  0
  4  5  1  0  0  0  0
  4  9  1  0  0  0  0
  6  7  2  0  0  0  0
  6  8  1  0  0  0  0
  8 21  1  0  0  0  0
  8 22  1  0  0  0  0
  9 10  2  0  0  0  0
  9 14  1  0  0  0  0
 10 11  1  0  0  0  0
 10 23  1  0  0  0  0
 11 12  2  0  0  0  0
 11 24  1  0  0  0  0
 12 13  1  0  0  0  0
 12 15  1  0  0  0  0
 13 14  2  0  0  0  0
 13 25  1  0  0  0  0
 14 26  1  0  0  0  0
 16 17  1  0  0  0  0
 16 27  1  0  0  0  0
 17 18  2  0  0  0  0
 17 19  1  0  0  0  0
 19 28  1  0  0  0  0
 19 29  1  0  0  0  0
M  END
>  <Mol_ID>
983

>  <Formula>
C12H10FN3O2S

>  <MolWeight>
279.2901032

>  <Cat>
S2824

>  <Name>
TPCA-1

>  <Synonyms>
GW683965

>  <Target>
Apoptosis related,I¦ÊB/IKK,NF-¦ÊB,STAT

>  <Form>
free base

>  <CAS>
507475-17-4

>  <URL>
http://selleckchem.com/products/tpca-1.html

$$$$
