TPPU
 OpenBabel08302521343D

 45 46  0  0  0  0  0  0  0  0999 V2000
    0.9368    0.0316   -0.0817 N   0  0  0  0  0  0  0  0  0  0  0  0
    1.1239    0.9179   -1.1339 C   0  0  0  0  0  0  0  0  0  0  0  0
    0.7116    0.6692   -2.2609 O   0  0  0  0  0  0  0  0  0  0  0  0
    1.7719    2.0680   -0.7348 N   0  0  0  0  0  0  0  0  0  0  0  0
    1.9918    3.2251   -1.5221 C   0  0  0  0  0  0  0  0  0  0  0  0
    1.5020    3.3788   -2.8226 C   0  0  0  0  0  0  0  0  0  0  0  0
    1.7486    4.5443   -3.5634 C   0  0  0  0  0  0  0  0  0  0  0  0
    2.4440    5.6029   -2.9937 C   0  0  0  0  0  0  0  0  0  0  0  0
    2.9511    5.4501   -1.6993 C   0  0  0  0  0  0  0  0  0  0  0  0
    2.7252    4.2775   -0.9667 C   0  0  0  0  0  0  0  0  0  0  0  0
    2.7140    6.8021   -3.5777 O   0  0  0  0  0  0  0  0  0  0  0  0
    1.9025    7.2646   -4.6493 C   0  0  0  0  0  0  0  0  0  0  0  0
    0.6877    6.6804   -4.7103 F   0  0  0  0  0  0  0  0  0  0  0  0
    1.7047    8.5932   -4.4846 F   0  0  0  0  0  0  0  0  0  0  0  0
    2.5429    7.0789   -5.8229 F   0  0  0  0  0  0  0  0  0  0  0  0
    0.7116   -3.6046    0.9955 N   0  0  0  0  0  0  0  0  0  0  0  0
    0.3326   -2.4698    1.8244 C   0  0  0  0  0  0  0  0  0  0  0  0
   -0.6028   -1.5647    1.0393 C   0  0  0  0  0  0  0  0  0  0  0  0
    0.0231   -1.1020   -0.2833 C   0  0  0  0  0  0  0  0  0  0  0  0
    0.6724   -2.2625   -1.0696 C   0  0  0  0  0  0  0  0  0  0  0  0
    1.4649   -3.2395   -0.2009 C   0  0  0  0  0  0  0  0  0  0  0  0
    0.2492   -4.9083    1.1506 C   0  0  0  0  0  0  0  0  0  0  0  0
   -0.6558   -5.1766    2.3464 C   0  0  0  0  0  0  0  0  0  0  0  0
   -1.1037   -6.6275    2.4310 C   0  0  0  0  0  0  0  0  0  0  0  0
    0.5456   -5.8071    0.3636 O   0  0  0  0  0  0  0  0  0  0  0  0
    0.9518    0.4527    0.8353 H   0  0  0  0  0  0  0  0  0  0  0  0
    2.2039    2.0531    0.1767 H   0  0  0  0  0  0  0  0  0  0  0  0
    0.9155    2.6047   -3.3066 H   0  0  0  0  0  0  0  0  0  0  0  0
    1.3729    4.5750   -4.5823 H   0  0  0  0  0  0  0  0  0  0  0  0
    3.5234    6.2608   -1.2508 H   0  0  0  0  0  0  0  0  0  0  0  0
    3.1274    4.2118    0.0404 H   0  0  0  0  0  0  0  0  0  0  0  0
    1.2495   -1.9367    2.1014 H   0  0  0  0  0  0  0  0  0  0  0  0
   -0.1481   -2.7828    2.7524 H   0  0  0  0  0  0  0  0  0  0  0  0
   -0.8971   -0.7051    1.6515 H   0  0  0  0  0  0  0  0  0  0  0  0
   -1.5207   -2.1225    0.8084 H   0  0  0  0  0  0  0  0  0  0  0  0
   -0.8027   -0.7126   -0.8954 H   0  0  0  0  0  0  0  0  0  0  0  0
   -0.1360   -2.8260   -1.5558 H   0  0  0  0  0  0  0  0  0  0  0  0
    1.3185   -1.8907   -1.8727 H   0  0  0  0  0  0  0  0  0  0  0  0
    1.7197   -4.1256   -0.7922 H   0  0  0  0  0  0  0  0  0  0  0  0
    2.4082   -2.7877    0.1267 H   0  0  0  0  0  0  0  0  0  0  0  0
   -0.1171   -4.9235    3.2656 H   0  0  0  0  0  0  0  0  0  0  0  0
   -1.5443   -4.5412    2.2616 H   0  0  0  0  0  0  0  0  0  0  0  0
   -0.2467   -7.2932    2.5773 H   0  0  0  0  0  0  0  0  0  0  0  0
   -1.7902   -6.7660    3.2724 H   0  0  0  0  0  0  0  0  0  0  0  0
   -1.6188   -6.9377    1.5160 H   0  0  0  0  0  0  0  0  0  0  0  0
  1  2  1  0  0  0  0
  1 19  1  0  0  0  0
  1 26  1  0  0  0  0
  2  3  2  0  0  0  0
  2  4  1  0  0  0  0
  4  5  1  0  0  0  0
  4 27  1  0  0  0  0
  5  6  2  0  0  0  0
  5 10  1  0  0  0  0
  6  7  1  0  0  0  0
  6 28  1  0  0  0  0
  7  8  2  0  0  0  0
  7 29  1  0  0  0  0
  8  9  1  0  0  0  0
  8 11  1  0  0  0  0
  9 10  2  0  0  0  0
  9 30  1  0  0  0  0
 10 31  1  0  0  0  0
 11 12  1  0  0  0  0
 12 13  1  0  0  0  0
 12 14  1  0  0  0  0
 12 15  1  0  0  0  0
 16 17  1  0  0  0  0
 16 21  1  0  0  0  0
 16 22  1  0  0  0  0
 17 18  1  0  0  0  0
 17 32  1  0  0  0  0
 17 33  1  0  0  0  0
 18 19  1  0  0  0  0
 18 34  1  0  0  0  0
 18 35  1  0  0  0  0
 19 20  1  0  0  0  0
 19 36  1  0  0  0  0
 20 21  1  0  0  0  0
 20 37  1  0  0  0  0
 20 38  1  0  0  0  0
 21 39  1  0  0  0  0
 21 40  1  0  0  0  0
 22 23  1  0  0  0  0
 22 25  2  0  0  0  0
 23 24  1  0  0  0  0
 23 41  1  0  0  0  0
 23 42  1  0  0  0  0
 24 43  1  0  0  0  0
 24 44  1  0  0  0  0
 24 45  1  0  0  0  0
M  END
>  <Mol_ID>
6514

>  <Formula>
C16H20F3N3O3

>  <MolWeight>
359.3435096

>  <Cat>
E2847

>  <Name>
TPPU

>  <Target>
Epoxide Hydrolase

>  <Form>
free base

>  <CAS>
1222780-33-7

>  <URL>
http://www.selleckchem.com/products/tppu.html

$$$$
