TPX-0046
 OpenBabel08302521453D

 52 57  0  0  0  0  0  0  0  0999 V2000
   -2.5947   -0.7974   -1.1533 C   0  0  0  0  0  0  0  0  0  0  0  0
   -2.0500   -1.2483    0.1725 C   0  0  0  0  0  0  0  0  0  0  0  0
   -2.3608   -0.4377    1.2064 C   0  0  0  0  0  0  0  0  0  0  0  0
   -3.1236    0.7184    0.9662 N   0  0  0  0  0  0  0  0  0  0  0  0
   -3.7504    0.8690   -0.2529 C   0  0  0  0  0  0  0  0  0  0  0  0
   -3.4833    0.1153   -1.3414 N   0  0  0  0  0  0  0  0  0  0  0  0
   -3.3765    1.8202    1.7314 N   0  0  0  0  0  0  0  0  0  0  0  0
   -4.3714    2.4502    1.0672 C   0  0  0  0  0  0  0  0  0  0  0  0
   -4.8503    1.6559    0.0238 C   0  0  0  0  0  0  0  0  0  0  0  0
   -1.8758   -1.2449   -2.2137 N   0  0  0  0  0  0  0  0  0  0  0  0
   -0.4148   -0.8261   -2.0589 C   0  0  1  0  0  0  0  0  0  0  0  0
   -0.0125   -1.4370   -0.6187 C   0  0  1  0  0  0  0  0  0  0  0  0
   -1.0020   -2.1817    0.1017 O   0  0  0  0  0  0  0  0  0  0  0  0
    0.7350    0.2324   -1.8805 C   0  0  0  0  0  0  0  0  0  0  0  0
    1.9788   -0.6156   -1.4827 C   0  0  0  0  0  0  0  0  0  0  0  0
    1.3654   -1.9587   -1.0252 C   0  0  0  0  0  0  0  0  0  0  0  0
   -6.1216    1.3940   -0.5356 C   0  0  0  0  0  0  0  0  0  0  0  0
   -2.5292   -1.6318   -3.4795 C   0  0  0  0  0  0  0  0  0  0  0  0
   -6.2822    0.0233   -0.6228 N   0  0  0  0  0  0  0  0  0  0  0  0
   -7.4047   -0.7225   -1.0902 C   0  0  0  0  0  0  0  0  0  0  0  0
   -6.9590   -1.7804   -2.1128 C   0  0  1  0  0  0  0  0  0  0  0  0
   -4.1033   -2.0562   -3.4374 C   0  0  0  0  0  0  0  0  0  0  0  0
   -5.0319   -1.0462   -3.6687 C   0  0  0  0  0  0  0  0  0  0  0  0
   -5.1108   -0.6121   -4.9470 N   0  0  0  0  0  0  0  0  0  0  0  0
   -5.1362   -1.5967   -5.8763 C   0  0  0  0  0  0  0  0  0  0  0  0
   -4.8904   -2.9119   -5.5317 C   0  0  0  0  0  0  0  0  0  0  0  0
   -4.3889   -3.1648   -4.2569 C   0  0  0  0  0  0  0  0  0  0  0  0
   -5.0857   -3.9056   -6.4049 F   0  0  0  0  0  0  0  0  0  0  0  0
   -6.3436   -1.1290   -3.2388 O   0  0  0  0  0  0  0  0  0  0  0  0
   -6.2602   -2.9865   -1.4809 C   0  0  0  0  0  0  0  0  0  0  0  0
   -6.9891    2.2391   -0.7670 O   0  0  0  0  0  0  0  0  0  0  0  0
   -2.0103   -0.5808    2.2127 H   0  0  0  0  0  0  0  0  0  0  0  0
   -4.7888    3.3661    1.4635 H   0  0  0  0  0  0  0  0  0  0  0  0
   -0.8999    0.1619   -2.1743 H   0  0  0  0  0  0  0  0  0  0  0  0
    0.2366   -0.6697    0.1353 H   0  0  0  0  0  0  0  0  0  0  0  0
    0.5217    0.9142   -1.0225 H   0  0  0  0  0  0  0  0  0  0  0  0
    0.9555    0.9026   -2.7149 H   0  0  0  0  0  0  0  0  0  0  0  0
    2.5211   -0.1444   -0.6479 H   0  0  0  0  0  0  0  0  0  0  0  0
    2.6765   -0.7136   -2.3176 H   0  0  0  0  0  0  0  0  0  0  0  0
    1.3129   -2.6326   -1.8923 H   0  0  0  0  0  0  0  0  0  0  0  0
    1.9380   -2.4613   -0.2445 H   0  0  0  0  0  0  0  0  0  0  0  0
   -1.9964   -2.5269   -3.8269 H   0  0  0  0  0  0  0  0  0  0  0  0
   -2.3981   -0.8575   -4.2445 H   0  0  0  0  0  0  0  0  0  0  0  0
   -5.4480   -0.5276   -0.4708 H   0  0  0  0  0  0  0  0  0  0  0  0
   -7.8309   -1.2002   -0.2029 H   0  0  0  0  0  0  0  0  0  0  0  0
   -8.1404   -0.0367   -1.5160 H   0  0  0  0  0  0  0  0  0  0  0  0
   -7.8982   -2.1859   -2.5048 H   0  0  0  0  0  0  0  0  0  0  0  0
   -5.4096   -1.3029   -6.8829 H   0  0  0  0  0  0  0  0  0  0  0  0
   -4.2012   -4.1819   -3.9344 H   0  0  0  0  0  0  0  0  0  0  0  0
   -6.8346   -3.3615   -0.6244 H   0  0  0  0  0  0  0  0  0  0  0  0
   -6.1984   -3.8103   -2.1998 H   0  0  0  0  0  0  0  0  0  0  0  0
   -5.2509   -2.7622   -1.1290 H   0  0  0  0  0  0  0  0  0  0  0  0
  1  2  1  0  0  0  0
  1 10  1  0  0  0  0
  2  3  2  0  0  0  0
  3  4  1  0  0  0  0
  3 32  1  0  0  0  0
  4  5  1  0  0  0  0
  4  7  1  0  0  0  0
  5  6  1  0  0  0  0
  6  1  2  0  0  0  0
  7  8  2  0  0  0  0
  8  9  1  0  0  0  0
  8 33  1  0  0  0  0
  9  5  2  0  0  0  0
  9 17  1  0  0  0  0
 10 11  1  0  0  0  0
 10 18  1  0  0  0  0
 11 12  1  0  0  0  0
 11 14  1  0  0  0  0
 11 34  1  1  0  0  0
 12 13  1  0  0  0  0
 12 16  1  0  0  0  0
 12 35  1  1  0  0  0
 13  2  1  0  0  0  0
 14 15  1  0  0  0  0
 14 36  1  0  0  0  0
 14 37  1  0  0  0  0
 15 16  1  0  0  0  0
 15 38  1  0  0  0  0
 15 39  1  0  0  0  0
 16 40  1  0  0  0  0
 16 41  1  0  0  0  0
 17 19  1  0  0  0  0
 17 31  2  0  0  0  0
 18 22  1  0  0  0  0
 18 42  1  0  0  0  0
 18 43  1  0  0  0  0
 19 20  1  0  0  0  0
 19 44  1  0  0  0  0
 20 21  1  0  0  0  0
 20 45  1  0  0  0  0
 20 46  1  0  0  0  0
 21 30  1  0  0  0  0
 21 47  1  6  0  0  0
 22 23  2  0  0  0  0
 23 24  1  0  0  0  0
 23 29  1  0  0  0  0
 24 25  2  0  0  0  0
 25 26  1  0  0  0  0
 25 48  1  0  0  0  0
 26 27  2  0  0  0  0
 26 28  1  0  0  0  0
 27 22  1  0  0  0  0
 27 49  1  0  0  0  0
 29 21  1  0  0  0  0
 30 50  1  0  0  0  0
 30 51  1  0  0  0  0
 30 52  1  0  0  0  0
M  END
>  <Mol_ID>
9468

>  <Formula>
C21H21FN6O3

>  <MolWeight>
424.4282432

>  <Cat>
S9826

>  <Name>
TPX-0046

>  <Synonyms>
N/A

>  <Target>
c-RET,Src

>  <Form>
Free base

>  <CAS>
2359650-19-2

>  <URL>
http://www.selleckchem.com/products/tpx-0046.html

$$$$
