trans,trans-2,4-Decadienal
 OpenBabel08302521363D

 27 26  0  0  0  0  0  0  0  0999 V2000
    1.1016   -0.1352    0.1649 C   0  0  0  0  0  0  0  0  0  0  0  0
    0.3859    0.5813   -0.9485 C   0  0  0  0  0  0  0  0  0  0  0  0
    0.9701    0.2080    1.4542 C   0  0  0  0  0  0  0  0  0  0  0  0
   -0.5293   -0.3390   -1.7648 C   0  0  0  0  0  0  0  0  0  0  0  0
    1.6020   -0.5041    2.5408 C   0  0  0  0  0  0  0  0  0  0  0  0
   -1.6181   -1.0716   -0.9703 C   0  0  0  0  0  0  0  0  0  0  0  0
    1.4348   -0.1300    3.8165 C   0  0  0  0  0  0  0  0  0  0  0  0
   -2.6090   -0.1376   -0.2746 C   0  0  0  0  0  0  0  0  0  0  0  0
    2.0463   -0.8964    4.9182 C   0  0  0  0  0  0  0  0  0  0  0  0
   -3.6802   -0.9232    0.4682 C   0  0  0  0  0  0  0  0  0  0  0  0
    1.8976   -0.5580    6.0851 O   0  0  0  0  0  0  0  0  0  0  0  0
    1.7358   -0.9702   -0.1254 H   0  0  0  0  0  0  0  0  0  0  0  0
   -0.1921    1.4288   -0.5625 H   0  0  0  0  0  0  0  0  0  0  0  0
    1.1404    1.0096   -1.6197 H   0  0  0  0  0  0  0  0  0  0  0  0
    0.3331    1.0520    1.7163 H   0  0  0  0  0  0  0  0  0  0  0  0
   -1.0035    0.2553   -2.5559 H   0  0  0  0  0  0  0  0  0  0  0  0
    0.0869   -1.0914   -2.2738 H   0  0  0  0  0  0  0  0  0  0  0  0
    2.2042   -1.3741    2.2877 H   0  0  0  0  0  0  0  0  0  0  0  0
   -2.1686   -1.7166   -1.6671 H   0  0  0  0  0  0  0  0  0  0  0  0
   -1.1577   -1.7402   -0.2334 H   0  0  0  0  0  0  0  0  0  0  0  0
    0.8450    0.7300    4.1118 H   0  0  0  0  0  0  0  0  0  0  0  0
   -2.0916    0.5071    0.4430 H   0  0  0  0  0  0  0  0  0  0  0  0
   -3.0874    0.5147   -1.0140 H   0  0  0  0  0  0  0  0  0  0  0  0
    2.6301   -1.7870    4.6345 H   0  0  0  0  0  0  0  0  0  0  0  0
   -3.2341   -1.5621    1.2374 H   0  0  0  0  0  0  0  0  0  0  0  0
   -4.3798   -0.2399    0.9596 H   0  0  0  0  0  0  0  0  0  0  0  0
   -4.2502   -1.5581   -0.2176 H   0  0  0  0  0  0  0  0  0  0  0  0
  1  2  1  0  0  0  0
  1  3  2  0  0  0  0
  1 12  1  0  0  0  0
  2  4  1  0  0  0  0
  2 13  1  0  0  0  0
  2 14  1  0  0  0  0
  3  5  1  0  0  0  0
  3 15  1  0  0  0  0
  4  6  1  0  0  0  0
  4 16  1  0  0  0  0
  4 17  1  0  0  0  0
  5  7  2  0  0  0  0
  5 18  1  0  0  0  0
  6  8  1  0  0  0  0
  6 19  1  0  0  0  0
  6 20  1  0  0  0  0
  7  9  1  0  0  0  0
  7 21  1  0  0  0  0
  8 10  1  0  0  0  0
  8 22  1  0  0  0  0
  8 23  1  0  0  0  0
  9 11  2  0  0  0  0
  9 24  1  0  0  0  0
 10 25  1  0  0  0  0
 10 26  1  0  0  0  0
 10 27  1  0  0  0  0
M  END
>  <Mol_ID>
7191

>  <Formula>
C10H16O

>  <MolWeight>
152.23344

>  <Cat>
E4191

>  <Name>
trans,trans-2,4-Decadienal

>  <Synonyms>
trans,trans-2,4-Decadienal

>  <Target>
Others

>  <Form>
free base

>  <CAS>
25152-84-5

>  <URL>
https://www.selleckchem.com/products/trans-trans-2-4-decadienal.html

$$$$
