Tranexamic acid.cdx
 OpenBabel08302520433D

 26 26  0  0  0  0  0  0  0  0999 V2000
   -1.4359    0.3639   -0.2398 C   0  0  0  0  0  0  0  0  0  0  0  0
   -1.0104   -1.0167    0.2553 C   0  0  0  0  0  0  0  0  0  0  0  0
    0.4155   -1.3730   -0.1975 C   0  0  1  0  0  0  0  0  0  0  0  0
    1.4023   -0.2791    0.2467 C   0  0  0  0  0  0  0  0  0  0  0  0
    0.9820    1.1035   -0.2455 C   0  0  0  0  0  0  0  0  0  0  0  0
   -0.4433    1.4533    0.1825 C   0  0  1  0  0  0  0  0  0  0  0  0
    0.8092   -2.7594    0.3434 C   0  0  0  0  0  0  0  0  0  0  0  0
   -0.8353    2.7927   -0.4181 C   0  0  0  0  0  0  0  0  0  0  0  0
   -0.4806    3.8445    0.3556 O   0  0  0  0  0  0  0  0  0  0  0  0
   -1.3875    2.9391   -1.4962 O   0  0  0  0  0  0  0  0  0  0  0  0
    2.1424   -3.1555   -0.0962 N   0  0  0  0  0  0  0  0  0  0  0  0
   -1.5300    0.3373   -1.3327 H   0  0  0  0  0  0  0  0  0  0  0  0
   -2.4334    0.6018    0.1500 H   0  0  0  0  0  0  0  0  0  0  0  0
   -1.0719   -1.0422    1.3512 H   0  0  0  0  0  0  0  0  0  0  0  0
   -1.7193   -1.7651   -0.1188 H   0  0  0  0  0  0  0  0  0  0  0  0
    0.4212   -1.4158   -1.2958 H   0  0  0  0  0  0  0  0  0  0  0  0
    1.4748   -0.2678    1.3415 H   0  0  0  0  0  0  0  0  0  0  0  0
    2.4068   -0.4925   -0.1363 H   0  0  0  0  0  0  0  0  0  0  0  0
    1.6842    1.8534    0.1387 H   0  0  0  0  0  0  0  0  0  0  0  0
    1.0643    1.1388   -1.3398 H   0  0  0  0  0  0  0  0  0  0  0  0
   -0.4914    1.5358    1.2763 H   0  0  0  0  0  0  0  0  0  0  0  0
    0.7849   -2.7579    1.4390 H   0  0  0  0  0  0  0  0  0  0  0  0
    0.0872   -3.5099    0.0020 H   0  0  0  0  0  0  0  0  0  0  0  0
   -0.0306    3.5980    1.1849 H   0  0  0  0  0  0  0  0  0  0  0  0
    2.3510   -4.0921    0.2472 H   0  0  0  0  0  0  0  0  0  0  0  0
    2.1664   -3.2122   -1.1140 H   0  0  0  0  0  0  0  0  0  0  0  0
  1  2  1  0  0  0  0
  1 12  1  0  0  0  0
  1 13  1  0  0  0  0
  2  3  1  0  0  0  0
  2 14  1  0  0  0  0
  2 15  1  0  0  0  0
  3  4  1  0  0  0  0
  3  7  1  0  0  0  0
  3 16  1  6  0  0  0
  4  5  1  0  0  0  0
  4 17  1  0  0  0  0
  4 18  1  0  0  0  0
  5  6  1  0  0  0  0
  5 19  1  0  0  0  0
  5 20  1  0  0  0  0
  6  1  1  0  0  0  0
  6  8  1  0  0  0  0
  6 21  1  1  0  0  0
  7 11  1  0  0  0  0
  7 22  1  0  0  0  0
  7 23  1  0  0  0  0
  8  9  1  0  0  0  0
  8 10  2  0  0  0  0
  9 24  1  0  0  0  0
 11 25  1  0  0  0  0
 11 26  1  0  0  0  0
M  END
>  <Mol_ID>
4028

>  <Formula>
C8H15NO2

>  <MolWeight>
157.2102

>  <Cat>
S1875

>  <Name>
Tranexamic Acid

>  <Synonyms>
Transamin

>  <Target>
Others

>  <Form>
free base

>  <CAS>
1197-18-8

>  <URL>
http://selleckchem.com/products/tranexamic-acid-transamin.html

$$$$
