TRANCOPAL (chlormezanone).cdx
 OpenBabel08302521323D

 29 30  0  0  0  0  0  0  0  0999 V2000
    1.2029   -0.5746    0.0357 C   0  0  0  0  0  0  0  0  0  0  0  0
    0.3618   -1.4716   -0.6137 C   0  0  0  0  0  0  0  0  0  0  0  0
   -0.8415   -1.0252   -1.1503 C   0  0  0  0  0  0  0  0  0  0  0  0
   -1.2495    0.2970   -0.9605 C   0  0  0  0  0  0  0  0  0  0  0  0
   -0.4884    1.1686   -0.1647 C   0  0  0  0  0  0  0  0  0  0  0  0
    0.7918    0.7422    0.2390 C   0  0  0  0  0  0  0  0  0  0  0  0
   -1.0587    2.4371    0.4806 C   0  0  3  0  0  0  0  0  0  0  0  0
   -1.5999    1.9743    2.1609 S   0  0  0  0  0  0  0  0  0  0  0  0
   -3.0438    1.0433    1.7272 C   0  0  0  0  0  0  0  0  0  0  0  0
   -3.9700    1.8601    0.8541 C   0  0  0  0  0  0  0  0  0  0  0  0
   -3.4122    2.6012   -0.3592 C   0  0  0  0  0  0  0  0  0  0  0  0
   -2.1205    3.1131   -0.2984 N   0  0  0  0  0  0  0  0  0  0  0  0
   -2.0958    4.5682   -0.3075 C   0  0  0  0  0  0  0  0  0  0  0  0
   -4.1732    2.9150   -1.2738 O   0  0  0  0  0  0  0  0  0  0  0  0
   -0.6589    1.0908    2.8182 O   0  0  0  0  0  0  0  0  0  0  0  0
   -2.0548    3.1782    2.8388 O   0  0  0  0  0  0  0  0  0  0  0  0
    2.1532   -0.9133    0.4408 H   0  0  0  0  0  0  0  0  0  0  0  0
    0.6436   -2.5181   -0.6974 H   0  0  0  0  0  0  0  0  0  0  0  0
   -1.4884   -1.7211   -1.6804 H   0  0  0  0  0  0  0  0  0  0  0  0
   -2.2059    0.5911   -1.3834 H   0  0  0  0  0  0  0  0  0  0  0  0
    1.4414    1.4008    0.8158 H   0  0  0  0  0  0  0  0  0  0  0  0
   -0.2304    3.1471    0.6072 H   0  0  0  0  0  0  0  0  0  0  0  0
   -2.7295    0.1217    1.2364 H   0  0  0  0  0  0  0  0  0  0  0  0
   -3.5398    0.7622    2.6586 H   0  0  0  0  0  0  0  0  0  0  0  0
   -4.7683    1.1994    0.4921 H   0  0  0  0  0  0  0  0  0  0  0  0
   -4.4477    2.6315    1.4719 H   0  0  0  0  0  0  0  0  0  0  0  0
   -2.5518    4.9423   -1.2304 H   0  0  0  0  0  0  0  0  0  0  0  0
   -2.6856    4.9339    0.5376 H   0  0  0  0  0  0  0  0  0  0  0  0
   -1.0759    4.9510   -0.2305 H   0  0  0  0  0  0  0  0  0  0  0  0
  1  2  2  0  0  0  0
  1 17  1  0  0  0  0
  2  3  1  0  0  0  0
  2 18  1  0  0  0  0
  3  4  2  0  0  0  0
  3 19  1  0  0  0  0
  4  5  1  0  0  0  0
  4 20  1  0  0  0  0
  5  6  2  0  0  0  0
  5  7  1  0  0  0  0
  6  1  1  0  0  0  0
  6 21  1  0  0  0  0
  7  8  1  0  0  0  0
  7 22  1  0  0  0  0
  8  9  1  0  0  0  0
  8 15  2  0  0  0  0
  8 16  2  0  0  0  0
  9 10  1  0  0  0  0
  9 23  1  0  0  0  0
  9 24  1  0  0  0  0
 10 11  1  0  0  0  0
 10 25  1  0  0  0  0
 10 26  1  0  0  0  0
 11 12  1  0  0  0  0
 11 14  2  0  0  0  0
 12  7  1  0  0  0  0
 12 13  1  0  0  0  0
 13 27  1  0  0  0  0
 13 28  1  0  0  0  0
 13 29  1  0  0  0  0
M  END
>  <Mol_ID>
599

>  <Formula>
C11H12ClNO3S

>  <MolWeight>
273.73588

>  <Cat>
S2021

>  <Name>
Chlormezanone

>  <Synonyms>
N/A

>  <Target>
Others

>  <Form>
free base

>  <CAS>
80-77-3

>  <URL>
http://selleckchem.com/products/Chlormezanone(Trancopal).html

$$$$
