trans-Aconitic acid
 OpenBabel08302521293D

 18 17  0  0  0  0  0  0  0  0999 V2000
    0.4744   -1.6782   -0.4996 O   0  0  0  0  0  0  0  0  0  0  0  0
   -0.2613    1.3737    2.7421 O   0  0  0  0  0  0  0  0  0  0  0  0
    1.1808   -0.0089    0.8246 O   0  0  0  0  0  0  0  0  0  0  0  0
   -2.1619    2.4980    2.3165 O   0  0  0  0  0  0  0  0  0  0  0  0
   -3.6594    1.0260   -2.0331 O   0  0  0  0  0  0  0  0  0  0  0  0
   -2.4754   -0.8082   -1.4827 O   0  0  0  0  0  0  0  0  0  0  0  0
   -1.0891   -0.7746    1.0699 C   0  0  0  0  0  0  0  0  0  0  0  0
   -1.6526    0.6112    0.9552 C   0  0  0  0  0  0  0  0  0  0  0  0
   -2.4417    1.0909   -0.0304 C   0  0  0  0  0  0  0  0  0  0  0  0
    0.2903   -0.7708    0.4691 C   0  0  0  0  0  0  0  0  0  0  0  0
   -1.3937    1.5864    2.0486 C   0  0  0  0  0  0  0  0  0  0  0  0
   -2.8441    0.3230   -1.2249 C   0  0  0  0  0  0  0  0  0  0  0  0
    1.3656   -1.5249   -0.8753 H   0  0  0  0  0  0  0  0  0  0  0  0
    0.4405    0.8619    2.2830 H   0  0  0  0  0  0  0  0  0  0  0  0
   -3.8971    1.9228   -1.7354 H   0  0  0  0  0  0  0  0  0  0  0  0
   -1.7174   -1.5328    0.5985 H   0  0  0  0  0  0  0  0  0  0  0  0
   -0.9982   -1.0828    2.1180 H   0  0  0  0  0  0  0  0  0  0  0  0
   -2.8053    2.1116    0.0201 H   0  0  0  0  0  0  0  0  0  0  0  0
  1 10  1  0  0  0  0
  1 13  1  0  0  0  0
  2 11  1  0  0  0  0
  2 14  1  0  0  0  0
  3 10  2  0  0  0  0
  4 11  2  0  0  0  0
  5 12  1  0  0  0  0
  5 15  1  0  0  0  0
  6 12  2  0  0  0  0
  7  8  1  0  0  0  0
  7 10  1  0  0  0  0
  7 16  1  0  0  0  0
  7 17  1  0  0  0  0
  8  9  2  0  0  0  0
  8 11  1  0  0  0  0
  9 12  1  0  0  0  0
  9 18  1  0  0  0  0
M  END
>  <Mol_ID>
5444

>  <Formula>
C6H6O6

>  <MolWeight>
174.10824

>  <Cat>
S3090

>  <Name>
trans-Aconitic acid

>  <Synonyms>
TAA

>  <Target>
Others

>  <Form>
Free Base

>  <CAS>
4023-65-8

>  <URL>
https://www.selleckchem.com/products/trans-aconitic-acid.html

$$$$
