trans-Chalcone
 OpenBabel08302521343D

 28 29  0  0  0  0  0  0  0  0999 V2000
    0.9788    0.0928   -0.0704 C   0  0  0  0  0  0  0  0  0  0  0  0
    0.2717   -1.2152   -0.0616 C   0  0  0  0  0  0  0  0  0  0  0  0
    0.4285    1.1262   -0.4345 O   0  0  0  0  0  0  0  0  0  0  0  0
   -1.0698   -1.2582   -0.0654 C   0  0  0  0  0  0  0  0  0  0  0  0
    2.4055    0.1038    0.3540 C   0  0  0  0  0  0  0  0  0  0  0  0
    3.2507    1.0800   -0.1877 C   0  0  0  0  0  0  0  0  0  0  0  0
    2.9080   -0.7924    1.3079 C   0  0  0  0  0  0  0  0  0  0  0  0
    4.5884    1.1492    0.2064 C   0  0  0  0  0  0  0  0  0  0  0  0
    4.2467   -0.7174    1.7018 C   0  0  0  0  0  0  0  0  0  0  0  0
    5.0849    0.2513    1.1505 C   0  0  0  0  0  0  0  0  0  0  0  0
   -1.8504   -2.5050   -0.0284 C   0  0  0  0  0  0  0  0  0  0  0  0
   -1.3708   -3.6675    0.5921 C   0  0  0  0  0  0  0  0  0  0  0  0
   -3.1403   -2.5231   -0.5749 C   0  0  0  0  0  0  0  0  0  0  0  0
   -2.1454   -4.8291    0.6351 C   0  0  0  0  0  0  0  0  0  0  0  0
   -3.9177   -3.6844   -0.5285 C   0  0  0  0  0  0  0  0  0  0  0  0
   -3.4181   -4.8379    0.0721 C   0  0  0  0  0  0  0  0  0  0  0  0
    0.8790   -2.1107   -0.0628 H   0  0  0  0  0  0  0  0  0  0  0  0
   -1.6435   -0.3328   -0.0966 H   0  0  0  0  0  0  0  0  0  0  0  0
    2.8670    1.7915   -0.9165 H   0  0  0  0  0  0  0  0  0  0  0  0
    2.2696   -1.5351    1.7782 H   0  0  0  0  0  0  0  0  0  0  0  0
    5.2394    1.9099   -0.2172 H   0  0  0  0  0  0  0  0  0  0  0  0
    4.6340   -1.4056    2.4497 H   0  0  0  0  0  0  0  0  0  0  0  0
    6.1240    0.3144    1.4654 H   0  0  0  0  0  0  0  0  0  0  0  0
   -0.3917   -3.6864    1.0633 H   0  0  0  0  0  0  0  0  0  0  0  0
   -3.5524   -1.6338   -1.0474 H   0  0  0  0  0  0  0  0  0  0  0  0
   -1.7546   -5.7222    1.1151 H   0  0  0  0  0  0  0  0  0  0  0  0
   -4.9154   -3.6868   -0.9603 H   0  0  0  0  0  0  0  0  0  0  0  0
   -4.0224   -5.7403    0.1089 H   0  0  0  0  0  0  0  0  0  0  0  0
  1  2  1  0  0  0  0
  1  3  2  0  0  0  0
  1  5  1  0  0  0  0
  2  4  2  0  0  0  0
  2 17  1  0  0  0  0
  4 11  1  0  0  0  0
  4 18  1  0  0  0  0
  5  6  2  0  0  0  0
  5  7  1  0  0  0  0
  6  8  1  0  0  0  0
  6 19  1  0  0  0  0
  7  9  2  0  0  0  0
  7 20  1  0  0  0  0
  8 10  2  0  0  0  0
  8 21  1  0  0  0  0
  9 10  1  0  0  0  0
  9 22  1  0  0  0  0
 10 23  1  0  0  0  0
 11 12  2  0  0  0  0
 11 13  1  0  0  0  0
 12 14  1  0  0  0  0
 12 24  1  0  0  0  0
 13 15  2  0  0  0  0
 13 25  1  0  0  0  0
 14 16  2  0  0  0  0
 14 26  1  0  0  0  0
 15 16  1  0  0  0  0
 15 27  1  0  0  0  0
 16 28  1  0  0  0  0
M  END
>  <Mol_ID>
6479

>  <Formula>
C15H12O

>  <MolWeight>
208.25518

>  <Cat>
E2641

>  <Name>
trans-Chalcone

>  <Target>
Fatty Acid Synthase

>  <Form>
free base

>  <CAS>
614-47-1

>  <URL>
http://www.selleckchem.com/products/trans-chalcone.html

$$$$
