Tranylcypromine Sulfate
 OpenBabel08302521453D

 49 50  0  0  0  0  0  0  0  0999 V2000
    5.0344    0.4109   -0.4018 N   0  0  0  0  0  0  0  0  0  0  0  0
    5.8989   -0.9543    1.6138 C   0  0  1  0  0  0  0  0  0  0  0  0
    4.9691    0.0615    1.0234 C   0  0  1  0  0  0  0  0  0  0  0  0
    6.0110    0.5114    1.9790 C   0  0  0  0  0  0  0  0  0  0  0  0
    5.2990   -2.0089    2.5377 C   0  0  0  0  0  0  0  0  0  0  0  0
    5.3787   -3.3699    2.1893 C   0  0  0  0  0  0  0  0  0  0  0  0
    4.6415   -1.7098    3.7449 C   0  0  0  0  0  0  0  0  0  0  0  0
    4.9001   -4.3799    3.0312 C   0  0  0  0  0  0  0  0  0  0  0  0
    4.1715   -2.7140    4.5979 C   0  0  0  0  0  0  0  0  0  0  0  0
    4.3152   -4.0515    4.2481 C   0  0  0  0  0  0  0  0  0  0  0  0
   -1.2590   -1.1970   -1.4766 S   0  0  0  0  0  0  0  0  0  0  0  0
   -1.2515   -0.0567   -2.3678 O   0  0  0  0  0  0  0  0  0  0  0  0
   -2.1154   -2.3381   -1.6210 O   0  0  0  0  0  0  0  0  0  0  0  0
   -1.4624   -0.6439    0.0191 O   0  0  0  0  0  0  0  0  0  0  0  0
    0.2688   -1.7184   -1.4375 O   0  0  0  0  0  0  0  0  0  0  0  0
    1.4781    1.2746   -1.3269 N   0  0  0  0  0  0  0  0  0  0  0  0
    1.7550   -0.1204    0.7965 C   0  0  1  0  0  0  0  0  0  0  0  0
    1.0296    0.9589    0.0371 C   0  0  1  0  0  0  0  0  0  0  0  0
    1.9254    1.3472    1.1564 C   0  0  0  0  0  0  0  0  0  0  0  0
    1.2751   -1.1171    1.8427 C   0  0  0  0  0  0  0  0  0  0  0  0
    1.3259   -2.4981    1.5355 C   0  0  0  0  0  0  0  0  0  0  0  0
    1.0046   -0.8001    3.1838 C   0  0  0  0  0  0  0  0  0  0  0  0
    1.1419   -3.4944    2.5010 C   0  0  0  0  0  0  0  0  0  0  0  0
    0.8167   -1.7927    4.1587 C   0  0  0  0  0  0  0  0  0  0  0  0
    0.8895   -3.1395    3.8182 C   0  0  0  0  0  0  0  0  0  0  0  0
    5.6416    1.2291   -0.5313 H   0  0  0  0  0  0  0  0  0  0  0  0
    4.1220    0.7462   -0.7169 H   0  0  0  0  0  0  0  0  0  0  0  0
    6.6838   -1.3178    0.9538 H   0  0  0  0  0  0  0  0  0  0  0  0
    3.9811    0.0379    1.4551 H   0  0  0  0  0  0  0  0  0  0  0  0
    5.6479    0.8779    2.9328 H   0  0  0  0  0  0  0  0  0  0  0  0
    6.8382    1.0870    1.5860 H   0  0  0  0  0  0  0  0  0  0  0  0
    5.8262   -3.6507    1.2383 H   0  0  0  0  0  0  0  0  0  0  0  0
    4.4659   -0.6770    4.0331 H   0  0  0  0  0  0  0  0  0  0  0  0
    4.9877   -5.4209    2.7336 H   0  0  0  0  0  0  0  0  0  0  0  0
    3.6670   -2.4451    5.5221 H   0  0  0  0  0  0  0  0  0  0  0  0
    3.9470   -4.8312    4.9090 H   0  0  0  0  0  0  0  0  0  0  0  0
   -1.4962   -1.4032    0.6370 H   0  0  0  0  0  0  0  0  0  0  0  0
    0.8445   -0.9351   -1.5528 H   0  0  0  0  0  0  0  0  0  0  0  0
    2.2206    0.6884   -1.7095 H   0  0  0  0  0  0  0  0  0  0  0  0
    0.7171    1.3399   -2.0043 H   0  0  0  0  0  0  0  0  0  0  0  0
    2.5175   -0.5874    0.1751 H   0  0  0  0  0  0  0  0  0  0  0  0
   -0.0101    1.1973    0.2346 H   0  0  0  0  0  0  0  0  0  0  0  0
    1.4430    1.7714    2.0277 H   0  0  0  0  0  0  0  0  0  0  0  0
    2.8466    1.8666    0.9119 H   0  0  0  0  0  0  0  0  0  0  0  0
    1.6058   -2.8183    0.5327 H   0  0  0  0  0  0  0  0  0  0  0  0
    1.0147    0.2331    3.5182 H   0  0  0  0  0  0  0  0  0  0  0  0
    1.2678   -4.5411    2.2329 H   0  0  0  0  0  0  0  0  0  0  0  0
    0.6804   -1.5101    5.2000 H   0  0  0  0  0  0  0  0  0  0  0  0
    0.8143   -3.9069    4.5848 H   0  0  0  0  0  0  0  0  0  0  0  0
  1 26  1  0  0  0  0
  1 27  1  0  0  0  0
  2  3  1  0  0  0  0
  2  4  1  0  0  0  0
  2  5  1  0  0  0  0
  2 28  1  6  0  0  0
  3  4  1  0  0  0  0
  3 29  1  1  0  0  0
  3  1  1  0  0  0  0
  4 30  1  0  0  0  0
  4 31  1  0  0  0  0
  5  6  2  0  0  0  0
  5  7  1  0  0  0  0
  6  8  1  0  0  0  0
  6 32  1  0  0  0  0
  7  9  2  0  0  0  0
  7 33  1  0  0  0  0
  8 10  2  0  0  0  0
  8 34  1  0  0  0  0
  9 10  1  0  0  0  0
  9 35  1  0  0  0  0
 10 36  1  0  0  0  0
 11 12  2  0  0  0  0
 11 13  2  0  0  0  0
 11 14  1  0  0  0  0
 11 15  1  0  0  0  0
 14 37  1  0  0  0  0
 15 38  1  0  0  0  0
 16 39  1  0  0  0  0
 16 40  1  0  0  0  0
 17 18  1  0  0  0  0
 17 19  1  0  0  0  0
 17 20  1  0  0  0  0
 17 41  1  6  0  0  0
 18 19  1  0  0  0  0
 18 42  1  1  0  0  0
 18 16  1  0  0  0  0
 19 43  1  0  0  0  0
 19 44  1  0  0  0  0
 20 21  2  0  0  0  0
 20 22  1  0  0  0  0
 21 23  1  0  0  0  0
 21 45  1  0  0  0  0
 22 24  2  0  0  0  0
 22 46  1  0  0  0  0
 23 25  2  0  0  0  0
 23 47  1  0  0  0  0
 24 25  1  0  0  0  0
 24 48  1  0  0  0  0
 25 49  1  0  0  0  0
M  END
>  <Mol_ID>
9467

>  <Formula>
C18H24N2O4S

>  <MolWeight>
364.45916

>  <Cat>
S9464

>  <Name>
Tranylcypromine Sulfate

>  <Synonyms>
Parnate

>  <Target>
MAO

>  <Form>
Sulfate

>  <CAS>
13492-01-8

>  <URL>
http://www.selleckchem.com/products/tranylcypromine-sulfate.html

$$$$
