trans-2-Hexenal
 OpenBabel08302520393D

 17 16  0  0  0  0  0  0  0  0999 V2000
    1.0436   -0.0290    0.0049 C   0  0  0  0  0  0  0  0  0  0  0  0
    0.2837    0.9822    0.8171 C   0  0  0  0  0  0  0  0  0  0  0  0
    0.8842   -1.3523    0.1605 C   0  0  0  0  0  0  0  0  0  0  0  0
   -0.5702    1.9246   -0.0357 C   0  0  0  0  0  0  0  0  0  0  0  0
    1.6238   -2.3125   -0.6805 C   0  0  0  0  0  0  0  0  0  0  0  0
   -1.6148    1.2097   -0.8825 C   0  0  0  0  0  0  0  0  0  0  0  0
    1.4933   -3.5210   -0.5300 O   0  0  0  0  0  0  0  0  0  0  0  0
    1.7417    0.3649   -0.7307 H   0  0  0  0  0  0  0  0  0  0  0  0
   -0.3575    0.4843    1.5552 H   0  0  0  0  0  0  0  0  0  0  0  0
    1.0058    1.5801    1.3870 H   0  0  0  0  0  0  0  0  0  0  0  0
    0.2081   -1.7828    0.8898 H   0  0  0  0  0  0  0  0  0  0  0  0
   -1.0826    2.6261    0.6337 H   0  0  0  0  0  0  0  0  0  0  0  0
    0.0731    2.5251   -0.6902 H   0  0  0  0  0  0  0  0  0  0  0  0
    2.2855   -1.8839   -1.4511 H   0  0  0  0  0  0  0  0  0  0  0  0
   -2.2157    0.5237   -0.2773 H   0  0  0  0  0  0  0  0  0  0  0  0
   -2.2905    1.9399   -1.3393 H   0  0  0  0  0  0  0  0  0  0  0  0
   -1.1483    0.6400   -1.6922 H   0  0  0  0  0  0  0  0  0  0  0  0
  1  2  1  0  0  0  0
  1  3  2  0  0  0  0
  1  8  1  0  0  0  0
  2  4  1  0  0  0  0
  2  9  1  0  0  0  0
  2 10  1  0  0  0  0
  3  5  1  0  0  0  0
  3 11  1  0  0  0  0
  4  6  1  0  0  0  0
  4 12  1  0  0  0  0
  4 13  1  0  0  0  0
  5  7  2  0  0  0  0
  5 14  1  0  0  0  0
  6 15  1  0  0  0  0
  6 16  1  0  0  0  0
  6 17  1  0  0  0  0
M  END
>  <Mol_ID>
3649

>  <Formula>
C6H10O

>  <MolWeight>
98.143

>  <Cat>
S6303

>  <Name>
trans-2-Hexenal

>  <Synonyms>
Leaf aldehyde

>  <Target>
Others

>  <Form>
free base

>  <CAS>
6728-26-3

>  <URL>
http://www.selleck.cn/products/trans-2-hexenal.html

$$$$
