trans-4-Hydroxycyclohexanecarboxylic Acid
 OpenBabel08302520393D

 22 22  0  0  0  0  0  0  0  0999 V2000
   -1.9949    0.0378    0.2323 C   0  0  1  0  0  0  0  0  0  0  0  0
   -3.4074    0.0654   -0.3301 C   0  0  0  0  0  0  0  0  0  0  0  0
   -1.2954   -1.2498   -0.2166 C   0  0  0  0  0  0  0  0  0  0  0  0
   -1.2261    1.2923   -0.2107 C   0  0  0  0  0  0  0  0  0  0  0  0
   -4.3121   -0.5455    0.4671 O   0  0  0  0  0  0  0  0  0  0  0  0
   -3.7196    0.5590   -1.4013 O   0  0  0  0  0  0  0  0  0  0  0  0
    0.1758   -1.2748    0.1883 C   0  0  0  0  0  0  0  0  0  0  0  0
    0.2446    1.2402    0.1904 C   0  0  0  0  0  0  0  0  0  0  0  0
    0.9136   -0.0362   -0.3140 C   0  0  1  0  0  0  0  0  0  0  0  0
    2.2665   -0.0770    0.1175 O   0  0  0  0  0  0  0  0  0  0  0  0
   -2.0543    0.0600    1.3281 H   0  0  0  0  0  0  0  0  0  0  0  0
   -1.3707   -1.3545   -1.3071 H   0  0  0  0  0  0  0  0  0  0  0  0
   -1.8064   -2.1216    0.2102 H   0  0  0  0  0  0  0  0  0  0  0  0
   -1.2901    1.4122   -1.2995 H   0  0  0  0  0  0  0  0  0  0  0  0
   -1.6935    2.1840    0.2253 H   0  0  0  0  0  0  0  0  0  0  0  0
   -3.9423   -0.9133    1.2900 H   0  0  0  0  0  0  0  0  0  0  0  0
    0.6587   -2.1790   -0.2024 H   0  0  0  0  0  0  0  0  0  0  0  0
    0.2615   -1.3420    1.2809 H   0  0  0  0  0  0  0  0  0  0  0  0
    0.3364    1.3045    1.2825 H   0  0  0  0  0  0  0  0  0  0  0  0
    0.7729    2.1165   -0.2037 H   0  0  0  0  0  0  0  0  0  0  0  0
    0.9245   -0.0371   -1.4098 H   0  0  0  0  0  0  0  0  0  0  0  0
    2.2863    0.0305    1.0844 H   0  0  0  0  0  0  0  0  0  0  0  0
  1  2  1  0  0  0  0
  1  3  1  0  0  0  0
  1  4  1  0  0  0  0
  1 11  1  1  0  0  0
  2  5  1  0  0  0  0
  2  6  2  0  0  0  0
  3  7  1  0  0  0  0
  3 12  1  0  0  0  0
  3 13  1  0  0  0  0
  4  8  1  0  0  0  0
  4 14  1  0  0  0  0
  4 15  1  0  0  0  0
  5 16  1  0  0  0  0
  7  9  1  0  0  0  0
  7 17  1  0  0  0  0
  7 18  1  0  0  0  0
  8  9  1  0  0  0  0
  8 19  1  0  0  0  0
  8 20  1  0  0  0  0
  9 10  1  0  0  0  0
  9 21  1  6  0  0  0
 10 22  1  0  0  0  0
M  END
>  <Mol_ID>
3546

>  <Formula>
C7H12O3

>  <MolWeight>
144.16838

>  <Cat>
S6069

>  <Name>
trans-4-Hydroxycyclohexanecarboxylic Acid

>  <Synonyms>
N/A

>  <Target>
Others

>  <Form>
free base

>  <CAS>
3685-26-5

>  <URL>
http://www.selleck.cn/products/trans-4-hydroxycyclohexanecarboxylic-acid.html

$$$$
