trans-trans-Muconic acid
 OpenBabel08302520383D

 16 15  0  0  0  0  0  0  0  0999 V2000
    0.9776    0.0791   -0.0232 C   0  0  0  0  0  0  0  0  0  0  0  0
    0.2422    0.8267    1.0151 C   0  0  0  0  0  0  0  0  0  0  0  0
    2.3132    0.1896    0.1262 O   0  0  0  0  0  0  0  0  0  0  0  0
    0.4538   -0.5651   -0.9151 O   0  0  0  0  0  0  0  0  0  0  0  0
   -1.1002    0.8315    1.0215 C   0  0  0  0  0  0  0  0  0  0  0  0
   -1.8542    1.5544    2.0240 C   0  0  0  0  0  0  0  0  0  0  0  0
   -3.1946    1.5874    2.0706 C   0  0  0  0  0  0  0  0  0  0  0  0
   -3.8473    2.3627    3.1465 C   0  0  0  0  0  0  0  0  0  0  0  0
   -5.1905    2.3090    3.0703 O   0  0  0  0  0  0  0  0  0  0  0  0
   -3.2507    2.9832    4.0097 O   0  0  0  0  0  0  0  0  0  0  0  0
    0.8070    1.3654    1.7637 H   0  0  0  0  0  0  0  0  0  0  0  0
    2.6133    0.7326    0.8772 H   0  0  0  0  0  0  0  0  0  0  0  0
   -1.6512    0.2823    0.2586 H   0  0  0  0  0  0  0  0  0  0  0  0
   -1.2823    2.0981    2.7768 H   0  0  0  0  0  0  0  0  0  0  0  0
   -3.8043    1.0643    1.3476 H   0  0  0  0  0  0  0  0  0  0  0  0
   -5.5528    1.7816    2.3372 H   0  0  0  0  0  0  0  0  0  0  0  0
  1  2  1  0  0  0  0
  1  3  1  0  0  0  0
  1  4  2  0  0  0  0
  2  5  2  0  0  0  0
  2 11  1  0  0  0  0
  3 12  1  0  0  0  0
  5  6  1  0  0  0  0
  5 13  1  0  0  0  0
  6  7  2  0  0  0  0
  6 14  1  0  0  0  0
  7  8  1  0  0  0  0
  7 15  1  0  0  0  0
  8  9  1  0  0  0  0
  8 10  2  0  0  0  0
  9 16  1  0  0  0  0
M  END
>  <Mol_ID>
3466

>  <Formula>
C6H6O4

>  <MolWeight>
142.10944

>  <Cat>
S6168

>  <Name>
trans-trans-Muconic acid

>  <Synonyms>
N/A

>  <Target>
Others

>  <Form>
free base

>  <CAS>
3588-17-8

>  <URL>
http://www.selleck.cn/products/trans-trans-muconic-acid.html

$$$$
