Trandolapril
 OpenBabel08302520403D

 65 67  0  0  0  0  0  0  0  0999 V2000
    1.5845    1.5616   -0.2163 N   0  0  0  0  0  0  0  0  0  0  0  0
    0.7923    1.1709    0.9522 C   0  0  2  0  0  0  0  0  0  0  0  0
    2.9158    0.8819   -0.1244 C   0  0  1  0  0  0  0  0  0  0  0  0
    1.5712    2.7738   -0.8839 C   0  0  0  0  0  0  0  0  0  0  0  0
    1.2400   -0.2804    1.1650 C   0  0  1  0  0  0  0  0  0  0  0  0
   -0.7344    1.1572    0.9283 C   0  0  0  0  0  0  0  0  0  0  0  0
    2.7356   -0.2418    0.9146 C   0  0  0  0  0  0  0  0  0  0  0  0
    3.5919    0.2752   -1.3690 C   0  0  0  0  0  0  0  0  0  0  0  0
    0.4319    3.8185   -0.7347 C   0  0  1  0  0  0  0  0  0  0  0  0
    2.4993    3.0012   -1.6737 O   0  0  0  0  0  0  0  0  0  0  0  0
    0.8204   -0.8047    2.5286 C   0  0  0  0  0  0  0  0  0  0  0  0
   -1.2726    0.6194    2.2664 C   0  0  0  0  0  0  0  0  0  0  0  0
    2.8962    0.4120   -2.5224 O   0  0  0  0  0  0  0  0  0  0  0  0
    4.6614   -0.3158   -1.3310 O   0  0  0  0  0  0  0  0  0  0  0  0
    0.7810    4.7401    0.3791 N   0  0  0  0  0  0  0  0  0  0  0  0
    0.2792    4.5061   -2.1060 C   0  0  0  0  0  0  0  0  0  0  0  0
   -0.6989   -0.7389    2.6669 C   0  0  0  0  0  0  0  0  0  0  0  0
   -0.1042    5.9344    0.4814 C   0  0  1  0  0  0  0  0  0  0  0  0
   -1.4992    5.6891    1.0767 C   0  0  0  0  0  0  0  0  0  0  0  0
    0.6293    7.1256    1.1502 C   0  0  0  0  0  0  0  0  0  0  0  0
   -1.5982    4.9785    2.4360 C   0  0  0  0  0  0  0  0  0  0  0  0
    0.5338    8.2109    0.3159 O   0  0  0  0  0  0  0  0  0  0  0  0
    1.2295    7.1027    2.2144 O   0  0  0  0  0  0  0  0  0  0  0  0
   -3.0540    4.6918    2.7603 C   0  0  0  0  0  0  0  0  0  0  0  0
    1.1577    9.4402    0.7183 C   0  0  0  0  0  0  0  0  0  0  0  0
   -3.6487    3.4758    2.3830 C   0  0  0  0  0  0  0  0  0  0  0  0
   -3.8666    5.6539    3.3811 C   0  0  0  0  0  0  0  0  0  0  0  0
    2.5949    9.5071    0.2343 C   0  0  0  0  0  0  0  0  0  0  0  0
   -4.9991    3.2161    2.6320 C   0  0  0  0  0  0  0  0  0  0  0  0
   -5.2226    5.4013    3.6151 C   0  0  0  0  0  0  0  0  0  0  0  0
   -5.7879    4.1819    3.2459 C   0  0  0  0  0  0  0  0  0  0  0  0
    1.1318    1.8118    1.7780 H   0  0  0  0  0  0  0  0  0  0  0  0
    3.6182    1.6304    0.2706 H   0  0  0  0  0  0  0  0  0  0  0  0
    0.7889   -0.9179    0.3877 H   0  0  0  0  0  0  0  0  0  0  0  0
   -1.1462    2.1552    0.8053 H   0  0  0  0  0  0  0  0  0  0  0  0
   -1.1095    0.5505    0.0953 H   0  0  0  0  0  0  0  0  0  0  0  0
    3.0829   -1.2199    0.5597 H   0  0  0  0  0  0  0  0  0  0  0  0
    3.2922   -0.0089    1.8278 H   0  0  0  0  0  0  0  0  0  0  0  0
   -0.5111    3.3205   -0.5414 H   0  0  0  0  0  0  0  0  0  0  0  0
    1.2874   -0.2087    3.3219 H   0  0  0  0  0  0  0  0  0  0  0  0
    1.1580   -1.8387    2.6613 H   0  0  0  0  0  0  0  0  0  0  0  0
   -1.0379    1.3472    3.0546 H   0  0  0  0  0  0  0  0  0  0  0  0
   -2.3647    0.5450    2.2218 H   0  0  0  0  0  0  0  0  0  0  0  0
    2.2185    1.1074   -2.4133 H   0  0  0  0  0  0  0  0  0  0  0  0
    1.7356    5.0770    0.2041 H   0  0  0  0  0  0  0  0  0  0  0  0
    0.1692    3.7563   -2.8982 H   0  0  0  0  0  0  0  0  0  0  0  0
   -0.6131    5.1371   -2.1557 H   0  0  0  0  0  0  0  0  0  0  0  0
    1.1532    5.1201   -2.3522 H   0  0  0  0  0  0  0  0  0  0  0  0
   -0.9838   -0.9651    3.7016 H   0  0  0  0  0  0  0  0  0  0  0  0
   -1.1535   -1.5141    2.0382 H   0  0  0  0  0  0  0  0  0  0  0  0
   -0.2807    6.3074   -0.5313 H   0  0  0  0  0  0  0  0  0  0  0  0
   -2.0103    6.6568    1.1644 H   0  0  0  0  0  0  0  0  0  0  0  0
   -2.0758    5.1098    0.3435 H   0  0  0  0  0  0  0  0  0  0  0  0
   -1.0402    4.0357    2.4292 H   0  0  0  0  0  0  0  0  0  0  0  0
   -1.1596    5.5914    3.2311 H   0  0  0  0  0  0  0  0  0  0  0  0
    0.5865   10.2467    0.2443 H   0  0  0  0  0  0  0  0  0  0  0  0
    1.0884    9.5842    1.8006 H   0  0  0  0  0  0  0  0  0  0  0  0
   -3.0622    2.7199    1.8771 H   0  0  0  0  0  0  0  0  0  0  0  0
   -3.4502    6.6138    3.6739 H   0  0  0  0  0  0  0  0  0  0  0  0
    2.6546    9.3296   -0.8449 H   0  0  0  0  0  0  0  0  0  0  0  0
    3.0278   10.4897    0.4488 H   0  0  0  0  0  0  0  0  0  0  0  0
    3.2084    8.7432    0.7207 H   0  0  0  0  0  0  0  0  0  0  0  0
   -5.4317    2.2656    2.3395 H   0  0  0  0  0  0  0  0  0  0  0  0
   -5.8420    6.1597    4.0854 H   0  0  0  0  0  0  0  0  0  0  0  0
   -6.8415    3.9880    3.4340 H   0  0  0  0  0  0  0  0  0  0  0  0
  1  2  1  0  0  0  0
  1  3  1  0  0  0  0
  1  4  1  0  0  0  0
  2  5  1  0  0  0  0
  2  6  1  0  0  0  0
  2 32  1  1  0  0  0
  3  7  1  0  0  0  0
  3  8  1  0  0  0  0
  3 33  1  1  0  0  0
  4  9  1  0  0  0  0
  4 10  2  0  0  0  0
  5 11  1  0  0  0  0
  5  7  1  0  0  0  0
  5 34  1  6  0  0  0
  6 12  1  0  0  0  0
  6 35  1  0  0  0  0
  6 36  1  0  0  0  0
  7 37  1  0  0  0  0
  7 38  1  0  0  0  0
  8 13  1  0  0  0  0
  8 14  2  0  0  0  0
  9 15  1  0  0  0  0
  9 16  1  0  0  0  0
  9 39  1  1  0  0  0
 11 17  1  0  0  0  0
 11 40  1  0  0  0  0
 11 41  1  0  0  0  0
 12 17  1  0  0  0  0
 12 42  1  0  0  0  0
 12 43  1  0  0  0  0
 13 44  1  0  0  0  0
 15 45  1  0  0  0  0
 16 46  1  0  0  0  0
 16 47  1  0  0  0  0
 16 48  1  0  0  0  0
 17 49  1  0  0  0  0
 17 50  1  0  0  0  0
 18 15  1  0  0  0  0
 18 19  1  0  0  0  0
 18 20  1  0  0  0  0
 18 51  1  6  0  0  0
 19 21  1  0  0  0  0
 19 52  1  0  0  0  0
 19 53  1  0  0  0  0
 20 22  1  0  0  0  0
 20 23  2  0  0  0  0
 21 24  1  0  0  0  0
 21 54  1  0  0  0  0
 21 55  1  0  0  0  0
 22 25  1  0  0  0  0
 24 26  2  0  0  0  0
 24 27  1  0  0  0  0
 25 28  1  0  0  0  0
 25 56  1  0  0  0  0
 25 57  1  0  0  0  0
 26 29  1  0  0  0  0
 26 58  1  0  0  0  0
 27 30  2  0  0  0  0
 27 59  1  0  0  0  0
 28 60  1  0  0  0  0
 28 61  1  0  0  0  0
 28 62  1  0  0  0  0
 29 31  2  0  0  0  0
 29 63  1  0  0  0  0
 30 31  1  0  0  0  0
 30 64  1  0  0  0  0
 31 65  1  0  0  0  0
M  END
>  <Mol_ID>
3777

>  <Formula>
C24H34N2O5

>  <MolWeight>
430.53716

>  <Cat>
S6468

>  <Name>
Trandolapril

>  <Synonyms>
RU44570

>  <Target>
ACE,RAAS

>  <Form>
Free Base

>  <CAS>
87679-37-6

>  <URL>
http://www.selleck.cn/products/trandolapril.html

$$$$
