trans-¦Â-Hydromuconic acid
 OpenBabel08302520383D

 18 17  0  0  0  0  0  0  0  0999 V2000
    0.4300   -0.4080    0.2330 C   0  0  0  0  0  0  0  0  0  0  0  0
    0.1746    0.9303    0.9117 C   0  0  0  0  0  0  0  0  0  0  0  0
    1.2014   -1.2268    0.9904 O   0  0  0  0  0  0  0  0  0  0  0  0
    0.0164   -0.7456   -0.8647 O   0  0  0  0  0  0  0  0  0  0  0  0
   -0.7119    1.8131    0.0835 C   0  0  0  0  0  0  0  0  0  0  0  0
   -2.0270    1.9741    0.3007 C   0  0  0  0  0  0  0  0  0  0  0  0
   -2.9109    2.8522   -0.5352 C   0  0  0  0  0  0  0  0  0  0  0  0
   -3.1422    4.1964    0.1410 C   0  0  0  0  0  0  0  0  0  0  0  0
   -3.3966    5.1923   -0.7427 O   0  0  0  0  0  0  0  0  0  0  0  0
   -3.1508    4.3872    1.3475 O   0  0  0  0  0  0  0  0  0  0  0  0
   -0.2760    0.7451    1.8933 H   0  0  0  0  0  0  0  0  0  0  0  0
    1.1350    1.4342    1.0626 H   0  0  0  0  0  0  0  0  0  0  0  0
    1.4688   -0.8417    1.8459 H   0  0  0  0  0  0  0  0  0  0  0  0
   -0.2261    2.3457   -0.7343 H   0  0  0  0  0  0  0  0  0  0  0  0
   -2.5142    1.4408    1.1151 H   0  0  0  0  0  0  0  0  0  0  0  0
   -2.4530    3.0106   -1.5179 H   0  0  0  0  0  0  0  0  0  0  0  0
   -3.8815    2.3701   -0.6888 H   0  0  0  0  0  0  0  0  0  0  0  0
   -3.3690    4.9140   -1.6773 H   0  0  0  0  0  0  0  0  0  0  0  0
  1  2  1  0  0  0  0
  1  3  1  0  0  0  0
  1  4  2  0  0  0  0
  2  5  1  0  0  0  0
  2 11  1  0  0  0  0
  2 12  1  0  0  0  0
  3 13  1  0  0  0  0
  5  6  2  0  0  0  0
  5 14  1  0  0  0  0
  6  7  1  0  0  0  0
  6 15  1  0  0  0  0
  7  8  1  0  0  0  0
  7 16  1  0  0  0  0
  7 17  1  0  0  0  0
  8  9  1  0  0  0  0
  8 10  2  0  0  0  0
  9 18  1  0  0  0  0
M  END
>  <Mol_ID>
3469

>  <Formula>
C6H8O4

>  <MolWeight>
144.12532

>  <Cat>
S6171

>  <Name>
trans-¦Â-Hydromuconic acid

>  <Synonyms>
trans-2-Butene-1,4-dicarboxylic Acid, 3-hexenediodicacid, ¦Â-Hydromuconic acid

>  <Target>
Others

>  <Form>
free base

>  <CAS>
4436-74-2

>  <URL>
http://www.selleck.cn/products/trans-hydromuconic-acid.html

$$$$
