trans-3-Indoleacrylic acid
 OpenBabel08302520393D

 23 24  0  0  0  0  0  0  0  0999 V2000
   -1.5785    0.9985   -0.0092 N   0  0  0  0  0  0  0  0  0  0  0  0
   -2.4031   -0.0960   -0.0290 C   0  0  0  0  0  0  0  0  0  0  0  0
   -1.6138   -1.2267   -0.0146 C   0  0  0  0  0  0  0  0  0  0  0  0
   -0.2488   -0.7925   -0.0012 C   0  0  0  0  0  0  0  0  0  0  0  0
    1.0027   -1.4464    0.0065 C   0  0  0  0  0  0  0  0  0  0  0  0
    2.1810   -0.6897   -0.0077 C   0  0  0  0  0  0  0  0  0  0  0  0
    2.1312    0.7016   -0.0186 C   0  0  0  0  0  0  0  0  0  0  0  0
    0.9077    1.3765   -0.0107 C   0  0  0  0  0  0  0  0  0  0  0  0
   -0.2609    0.6046   -0.0060 C   0  0  0  0  0  0  0  0  0  0  0  0
   -3.8076   -4.3670   -0.0679 C   0  0  0  0  0  0  0  0  0  0  0  0
   -3.3652   -2.9683   -0.0543 C   0  0  0  0  0  0  0  0  0  0  0  0
   -2.0798   -2.5809   -0.0249 C   0  0  0  0  0  0  0  0  0  0  0  0
   -4.9741   -4.7171   -0.0955 O   0  0  0  0  0  0  0  0  0  0  0  0
   -2.8087   -5.2628   -0.0478 O   0  0  0  0  0  0  0  0  0  0  0  0
   -1.8874    1.9605   -0.0098 H   0  0  0  0  0  0  0  0  0  0  0  0
   -3.4756    0.0392   -0.0519 H   0  0  0  0  0  0  0  0  0  0  0  0
    1.0589   -2.5307    0.0149 H   0  0  0  0  0  0  0  0  0  0  0  0
    3.1433   -1.1956   -0.0140 H   0  0  0  0  0  0  0  0  0  0  0  0
    3.0568    1.2725   -0.0346 H   0  0  0  0  0  0  0  0  0  0  0  0
    0.8723    2.4610   -0.0161 H   0  0  0  0  0  0  0  0  0  0  0  0
   -4.1798   -2.2540   -0.0716 H   0  0  0  0  0  0  0  0  0  0  0  0
   -1.3105   -3.3498   -0.0090 H   0  0  0  0  0  0  0  0  0  0  0  0
   -3.2730   -6.1258   -0.0617 H   0  0  0  0  0  0  0  0  0  0  0  0
  1  2  1  0  0  0  0
  1  9  1  0  0  0  0
  1 15  1  0  0  0  0
  2  3  2  0  0  0  0
  2 16  1  0  0  0  0
  3  4  1  0  0  0  0
  3 12  1  0  0  0  0
  4  5  1  0  0  0  0
  4  9  2  0  0  0  0
  5  6  2  0  0  0  0
  5 17  1  0  0  0  0
  6  7  1  0  0  0  0
  6 18  1  0  0  0  0
  7  8  2  0  0  0  0
  7 19  1  0  0  0  0
  8  9  1  0  0  0  0
  8 20  1  0  0  0  0
 10 11  1  0  0  0  0
 10 13  2  0  0  0  0
 10 14  1  0  0  0  0
 11 12  2  0  0  0  0
 11 21  1  0  0  0  0
 12 22  1  0  0  0  0
 14 23  1  0  0  0  0
M  END
>  <Mol_ID>
3567

>  <Formula>
C11H9NO2

>  <MolWeight>
187.19466

>  <Cat>
S6105

>  <Name>
trans-3-Indoleacrylic acid

>  <Synonyms>
N/A

>  <Target>
Others

>  <Form>
free base

>  <CAS>
29953-71-7

>  <URL>
http://www.selleck.cn/products/trans-3-indoleacrylic-acid.html

$$$$
