Trans-Tranilast
 OpenBabel08302520143D

 41 42  0  0  0  0  0  0  0  0999 V2000
    1.3561    0.0688   -0.5313 C   0  0  0  0  0  0  0  0  0  0  0  0
    0.7089    1.1138   -1.1779 C   0  0  0  0  0  0  0  0  0  0  0  0
   -0.6890    1.2104   -1.1434 C   0  0  0  0  0  0  0  0  0  0  0  0
   -1.4522    0.2607   -0.4467 C   0  0  0  0  0  0  0  0  0  0  0  0
   -0.7963   -0.8139    0.1623 C   0  0  0  0  0  0  0  0  0  0  0  0
    0.6020   -0.9091    0.1225 C   0  0  0  0  0  0  0  0  0  0  0  0
   -2.8529    0.3830   -0.3225 N   0  0  0  0  0  0  0  0  0  0  0  0
   -3.7042   -0.6459   -0.6210 C   0  0  0  0  0  0  0  0  0  0  0  0
   -5.1510   -0.2896   -0.5272 C   0  0  0  0  0  0  0  0  0  0  0  0
   -3.3582   -1.7777   -0.9955 O   0  0  0  0  0  0  0  0  0  0  0  0
   -1.3526    2.2350   -1.9842 C   0  0  0  0  0  0  0  0  0  0  0  0
   -2.4456    2.7429   -1.7675 O   0  0  0  0  0  0  0  0  0  0  0  0
   -0.6404    2.4840   -3.1030 O   0  0  0  0  0  0  0  0  0  0  0  0
   -6.0538   -1.2811   -0.5973 C   0  0  0  0  0  0  0  0  0  0  0  0
   -7.5110   -1.1160   -0.6815 C   0  0  0  0  0  0  0  0  0  0  0  0
   -8.2377   -2.1089   -1.3608 C   0  0  0  0  0  0  0  0  0  0  0  0
   -9.6339   -2.0471   -1.4984 C   0  0  0  0  0  0  0  0  0  0  0  0
  -10.3153   -0.9553   -0.9374 C   0  0  0  0  0  0  0  0  0  0  0  0
   -9.5949    0.0200   -0.2328 C   0  0  0  0  0  0  0  0  0  0  0  0
   -8.2052   -0.0546   -0.1050 C   0  0  0  0  0  0  0  0  0  0  0  0
  -11.6684   -0.7303   -0.9281 O   0  0  0  0  0  0  0  0  0  0  0  0
  -12.4141   -1.1994   -2.0440 C   0  0  0  0  0  0  0  0  0  0  0  0
  -10.3648   -3.0171   -2.1313 O   0  0  0  0  0  0  0  0  0  0  0  0
   -9.6699   -4.1389   -2.6636 C   0  0  0  0  0  0  0  0  0  0  0  0
    2.4347   -0.0139   -0.5650 H   0  0  0  0  0  0  0  0  0  0  0  0
    1.3011    1.8489   -1.7190 H   0  0  0  0  0  0  0  0  0  0  0  0
   -1.3570   -1.5788    0.6935 H   0  0  0  0  0  0  0  0  0  0  0  0
    1.0995   -1.7464    0.6057 H   0  0  0  0  0  0  0  0  0  0  0  0
   -3.2328    1.3253   -0.3598 H   0  0  0  0  0  0  0  0  0  0  0  0
   -5.4215    0.7538   -0.4792 H   0  0  0  0  0  0  0  0  0  0  0  0
   -1.2033    3.0759   -3.6495 H   0  0  0  0  0  0  0  0  0  0  0  0
   -5.7034   -2.3118   -0.6631 H   0  0  0  0  0  0  0  0  0  0  0  0
   -7.6786   -2.9370   -1.7869 H   0  0  0  0  0  0  0  0  0  0  0  0
  -10.1291    0.8527    0.2194 H   0  0  0  0  0  0  0  0  0  0  0  0
   -7.6893    0.7197    0.4557 H   0  0  0  0  0  0  0  0  0  0  0  0
  -11.9533   -0.9044   -2.9927 H   0  0  0  0  0  0  0  0  0  0  0  0
  -12.5796   -2.2785   -1.9902 H   0  0  0  0  0  0  0  0  0  0  0  0
  -13.4027   -0.7308   -1.9966 H   0  0  0  0  0  0  0  0  0  0  0  0
   -8.9830   -3.8339   -3.4603 H   0  0  0  0  0  0  0  0  0  0  0  0
   -9.1455   -4.6918   -1.8767 H   0  0  0  0  0  0  0  0  0  0  0  0
  -10.4091   -4.8143   -3.1041 H   0  0  0  0  0  0  0  0  0  0  0  0
  1  2  2  0  0  0  0
  1 25  1  0  0  0  0
  2  3  1  0  0  0  0
  2 26  1  0  0  0  0
  3  4  2  0  0  0  0
  3 11  1  0  0  0  0
  4  5  1  0  0  0  0
  5  6  2  0  0  0  0
  5 27  1  0  0  0  0
  6  1  1  0  0  0  0
  6 28  1  0  0  0  0
  7  4  1  0  0  0  0
  7 29  1  0  0  0  0
  8  7  1  0  0  0  0
  8 10  2  0  0  0  0
  9  8  1  0  0  0  0
  9 30  1  0  0  0  0
 11 12  2  0  0  0  0
 11 13  1  0  0  0  0
 13 31  1  0  0  0  0
 14  9  2  0  0  0  0
 14 32  1  0  0  0  0
 15 14  1  0  0  0  0
 15 16  2  0  0  0  0
 16 17  1  0  0  0  0
 16 33  1  0  0  0  0
 17 18  2  0  0  0  0
 17 23  1  0  0  0  0
 18 19  1  0  0  0  0
 18 21  1  0  0  0  0
 19 20  2  0  0  0  0
 19 34  1  0  0  0  0
 20 15  1  0  0  0  0
 20 35  1  0  0  0  0
 21 22  1  0  0  0  0
 22 36  1  0  0  0  0
 22 37  1  0  0  0  0
 22 38  1  0  0  0  0
 23 24  1  0  0  0  0
 24 39  1  0  0  0  0
 24 40  1  0  0  0  0
 24 41  1  0  0  0  0
M  END
>  <Mol_ID>
3165

>  <Formula>
C18H17NO5

>  <MolWeight>
327.33128

>  <Cat>
S5871

>  <Name>
Trans-Tranilast

>  <Synonyms>
N/A

>  <Target>
Immunology & Inflammation related

>  <Form>
Free Base

>  <CAS>
70806-55-2

>  <URL>
https://www.selleckchem.com/products/trans-tranilast.html

$$$$
