Traumatic acid
 OpenBabel08302520383D

 36 35  0  0  0  0  0  0  0  0999 V2000
    0.9804    1.3849   -2.2370 C   0  0  0  0  0  0  0  0  0  0  0  0
    0.1927    0.8034   -1.0862 C   0  0  0  0  0  0  0  0  0  0  0  0
    1.7651    2.4189   -1.8523 O   0  0  0  0  0  0  0  0  0  0  0  0
    0.9329    0.9997   -3.3944 O   0  0  0  0  0  0  0  0  0  0  0  0
   -0.6836   -0.3698   -1.5293 C   0  0  0  0  0  0  0  0  0  0  0  0
   -1.4602   -1.0260   -0.3841 C   0  0  0  0  0  0  0  0  0  0  0  0
   -2.4306   -0.0703    0.3152 C   0  0  0  0  0  0  0  0  0  0  0  0
   -3.1962   -0.7703    1.4367 C   0  0  0  0  0  0  0  0  0  0  0  0
   -4.1369    0.1989    2.1592 C   0  0  0  0  0  0  0  0  0  0  0  0
   -4.9418   -0.4607    3.2844 C   0  0  0  0  0  0  0  0  0  0  0  0
   -4.0624   -1.0267    4.4023 C   0  0  0  0  0  0  0  0  0  0  0  0
   -4.8773   -1.6748    5.4820 C   0  0  0  0  0  0  0  0  0  0  0  0
   -4.8561   -1.2955    6.7695 C   0  0  0  0  0  0  0  0  0  0  0  0
   -5.6458   -2.0447    7.7698 C   0  0  0  0  0  0  0  0  0  0  0  0
   -5.5257   -1.5156    9.0036 O   0  0  0  0  0  0  0  0  0  0  0  0
   -6.3208   -3.0290    7.5266 O   0  0  0  0  0  0  0  0  0  0  0  0
    0.8985    0.4685   -0.3179 H   0  0  0  0  0  0  0  0  0  0  0  0
   -0.4281    1.6083   -0.6800 H   0  0  0  0  0  0  0  0  0  0  0  0
    1.7053    2.6277   -0.9012 H   0  0  0  0  0  0  0  0  0  0  0  0
   -1.3876   -0.0342   -2.3008 H   0  0  0  0  0  0  0  0  0  0  0  0
   -0.0523   -1.1341   -2.0008 H   0  0  0  0  0  0  0  0  0  0  0  0
   -2.0241   -1.8750   -0.7918 H   0  0  0  0  0  0  0  0  0  0  0  0
   -0.7539   -1.4405    0.3457 H   0  0  0  0  0  0  0  0  0  0  0  0
   -1.8785    0.7719    0.7473 H   0  0  0  0  0  0  0  0  0  0  0  0
   -3.1345    0.3413   -0.4179 H   0  0  0  0  0  0  0  0  0  0  0  0
   -3.7724   -1.6095    1.0295 H   0  0  0  0  0  0  0  0  0  0  0  0
   -2.4685   -1.1848    2.1422 H   0  0  0  0  0  0  0  0  0  0  0  0
   -3.5623    1.0396    2.5671 H   0  0  0  0  0  0  0  0  0  0  0  0
   -4.8420    0.6231    1.4331 H   0  0  0  0  0  0  0  0  0  0  0  0
   -5.6240    0.2893    3.7052 H   0  0  0  0  0  0  0  0  0  0  0  0
   -5.5707   -1.2544    2.8620 H   0  0  0  0  0  0  0  0  0  0  0  0
   -3.3893   -1.7943    4.0068 H   0  0  0  0  0  0  0  0  0  0  0  0
   -3.4320   -0.2288    4.8135 H   0  0  0  0  0  0  0  0  0  0  0  0
   -5.4858   -2.5286    5.1809 H   0  0  0  0  0  0  0  0  0  0  0  0
   -4.2515   -0.4597    7.0926 H   0  0  0  0  0  0  0  0  0  0  0  0
   -4.9636   -0.7237    9.0680 H   0  0  0  0  0  0  0  0  0  0  0  0
  1  2  1  0  0  0  0
  1  3  1  0  0  0  0
  1  4  2  0  0  0  0
  2  5  1  0  0  0  0
  2 17  1  0  0  0  0
  2 18  1  0  0  0  0
  3 19  1  0  0  0  0
  5  6  1  0  0  0  0
  5 20  1  0  0  0  0
  5 21  1  0  0  0  0
  6  7  1  0  0  0  0
  6 22  1  0  0  0  0
  6 23  1  0  0  0  0
  7  8  1  0  0  0  0
  7 24  1  0  0  0  0
  7 25  1  0  0  0  0
  8  9  1  0  0  0  0
  8 26  1  0  0  0  0
  8 27  1  0  0  0  0
  9 10  1  0  0  0  0
  9 28  1  0  0  0  0
  9 29  1  0  0  0  0
 10 11  1  0  0  0  0
 10 30  1  0  0  0  0
 10 31  1  0  0  0  0
 11 12  1  0  0  0  0
 11 32  1  0  0  0  0
 11 33  1  0  0  0  0
 12 13  2  0  0  0  0
 12 34  1  0  0  0  0
 13 14  1  0  0  0  0
 13 35  1  0  0  0  0
 14 15  1  0  0  0  0
 14 16  2  0  0  0  0
 15 36  1  0  0  0  0
M  END
>  <Mol_ID>
3462

>  <Formula>
C12H20O4

>  <MolWeight>
228.2848

>  <Cat>
S6163

>  <Name>
Traumatic acid

>  <Synonyms>
Trans-2-dodecenedioic acid

>  <Target>
Others

>  <Form>
free base

>  <CAS>
6402-36-4

>  <URL>
http://www.selleck.cn/products/traumatic-acid.html

$$$$
