Trazodone
 OpenBabel08302520403D

 48 51  0  0  0  0  0  0  0  0999 V2000
    5.2131    3.5252   -0.2363 N   0  0  0  0  0  0  0  0  0  0  0  0
    4.0636    3.6858    0.4693 C   0  0  0  0  0  0  0  0  0  0  0  0
    5.3549    2.1743   -0.4384 C   0  0  0  0  0  0  0  0  0  0  0  0
    6.0047    4.5506   -0.6769 C   0  0  0  0  0  0  0  0  0  0  0  0
    3.4281    2.5863    0.7399 N   0  0  0  0  0  0  0  0  0  0  0  0
    3.6755    5.0632    0.8337 C   0  0  0  0  0  0  0  0  0  0  0  0
    4.2153    1.6098    0.1590 N   0  0  0  0  0  0  0  0  0  0  0  0
    6.2625    1.5892   -1.0084 O   0  0  0  0  0  0  0  0  0  0  0  0
    5.6472    5.8127   -0.3938 C   0  0  0  0  0  0  0  0  0  0  0  0
    4.4565    6.0671    0.3999 C   0  0  0  0  0  0  0  0  0  0  0  0
    3.8424    0.2190    0.1295 C   0  0  0  0  0  0  0  0  0  0  0  0
    4.3245   -0.5168    1.3714 C   0  0  0  0  0  0  0  0  0  0  0  0
    3.9490   -2.0009    1.3359 C   0  0  0  0  0  0  0  0  0  0  0  0
    4.4672   -2.7340    0.1676 N   0  0  0  0  0  0  0  0  0  0  0  0
    4.0578   -4.1618    0.2189 C   0  0  0  0  0  0  0  0  0  0  0  0
    5.9492   -2.7050    0.0739 C   0  0  0  0  0  0  0  0  0  0  0  0
    4.7271   -4.9934    1.3396 C   0  0  0  0  0  0  0  0  0  0  0  0
    6.6801   -3.4319    1.2253 C   0  0  0  0  0  0  0  0  0  0  0  0
    6.1856   -4.8106    1.3335 N   0  0  0  0  0  0  0  0  0  0  0  0
    7.0633   -5.8716    1.3959 C   0  0  0  0  0  0  0  0  0  0  0  0
    6.8008   -7.0786    0.7338 C   0  0  0  0  0  0  0  0  0  0  0  0
    8.2723   -5.7821    2.1026 C   0  0  0  0  0  0  0  0  0  0  0  0
    7.6963   -8.1505    0.7766 C   0  0  0  0  0  0  0  0  0  0  0  0
    9.1729   -6.8504    2.1549 C   0  0  0  0  0  0  0  0  0  0  0  0
    8.8831   -8.0370    1.4907 C   0  0  0  0  0  0  0  0  0  0  0  0
    6.8779    4.2870   -1.2636 H   0  0  0  0  0  0  0  0  0  0  0  0
    2.7829    5.2047    1.4261 H   0  0  0  0  0  0  0  0  0  0  0  0
    6.2297    6.6564   -0.7481 H   0  0  0  0  0  0  0  0  0  0  0  0
    4.2149    7.0986    0.6355 H   0  0  0  0  0  0  0  0  0  0  0  0
    2.7521    0.1599    0.0434 H   0  0  0  0  0  0  0  0  0  0  0  0
    4.2768   -0.2190   -0.7752 H   0  0  0  0  0  0  0  0  0  0  0  0
    5.4069   -0.3918    1.4961 H   0  0  0  0  0  0  0  0  0  0  0  0
    3.8745   -0.0635    2.2636 H   0  0  0  0  0  0  0  0  0  0  0  0
    4.2737   -2.4518    2.2800 H   0  0  0  0  0  0  0  0  0  0  0  0
    2.8533   -2.0678    1.3257 H   0  0  0  0  0  0  0  0  0  0  0  0
    2.9669   -4.2359    0.3036 H   0  0  0  0  0  0  0  0  0  0  0  0
    4.3091   -4.6190   -0.7480 H   0  0  0  0  0  0  0  0  0  0  0  0
    6.2332   -3.1851   -0.8734 H   0  0  0  0  0  0  0  0  0  0  0  0
    6.3175   -1.6779   -0.0157 H   0  0  0  0  0  0  0  0  0  0  0  0
    4.3412   -4.6811    2.3173 H   0  0  0  0  0  0  0  0  0  0  0  0
    4.4265   -6.0403    1.2275 H   0  0  0  0  0  0  0  0  0  0  0  0
    6.5255   -2.9089    2.1762 H   0  0  0  0  0  0  0  0  0  0  0  0
    7.7538   -3.3944    1.0072 H   0  0  0  0  0  0  0  0  0  0  0  0
    5.9044   -7.1880    0.1302 H   0  0  0  0  0  0  0  0  0  0  0  0
    8.5179   -4.8757    2.6503 H   0  0  0  0  0  0  0  0  0  0  0  0
    7.4650   -9.0661    0.2397 H   0  0  0  0  0  0  0  0  0  0  0  0
   10.0967   -6.7508    2.7173 H   0  0  0  0  0  0  0  0  0  0  0  0
    9.5804   -8.8684    1.5263 H   0  0  0  0  0  0  0  0  0  0  0  0
  1  2  1  0  0  0  0
  1  3  1  0  0  0  0
  1  4  1  0  0  0  0
  2  5  2  0  0  0  0
  2  6  1  0  0  0  0
  3  7  1  0  0  0  0
  3  8  2  0  0  0  0
  4  9  2  0  0  0  0
  4 26  1  0  0  0  0
  5  7  1  0  0  0  0
  6 10  2  0  0  0  0
  6 27  1  0  0  0  0
  7 11  1  0  0  0  0
  9 10  1  0  0  0  0
  9 28  1  0  0  0  0
 10 29  1  0  0  0  0
 11 12  1  0  0  0  0
 11 30  1  0  0  0  0
 11 31  1  0  0  0  0
 12 13  1  0  0  0  0
 12 32  1  0  0  0  0
 12 33  1  0  0  0  0
 13 14  1  0  0  0  0
 13 34  1  0  0  0  0
 13 35  1  0  0  0  0
 14 15  1  0  0  0  0
 14 16  1  0  0  0  0
 15 17  1  0  0  0  0
 15 36  1  0  0  0  0
 15 37  1  0  0  0  0
 16 18  1  0  0  0  0
 16 38  1  0  0  0  0
 16 39  1  0  0  0  0
 17 19  1  0  0  0  0
 17 40  1  0  0  0  0
 17 41  1  0  0  0  0
 18 19  1  0  0  0  0
 18 42  1  0  0  0  0
 18 43  1  0  0  0  0
 19 20  1  0  0  0  0
 20 21  2  0  0  0  0
 20 22  1  0  0  0  0
 21 23  1  0  0  0  0
 21 44  1  0  0  0  0
 22 24  2  0  0  0  0
 22 45  1  0  0  0  0
 23 25  2  0  0  0  0
 23 46  1  0  0  0  0
 24 25  1  0  0  0  0
 24 47  1  0  0  0  0
 25 48  1  0  0  0  0
M  END
>  <Mol_ID>
3707

>  <Formula>
C19H22ClN5O

>  <MolWeight>
371.86388

>  <Cat>
S5857

>  <Name>
Trazodone

>  <Synonyms>
AF-1161

>  <Target>
5-HT Receptor

>  <Form>
Free Base

>  <CAS>
19794-93-5

>  <URL>
http://www.selleck.cn/products/trazodone.html

$$$$
