Trazodone hydrochloride.cdx
 OpenBabel08302521393D

 48 51  0  0  0  0  0  0  0  0999 V2000
    1.5080    0.4604    0.3360 C   0  0  0  0  0  0  0  0  0  0  0  0
    1.0628   -0.2468   -0.7721 C   0  0  0  0  0  0  0  0  0  0  0  0
   -0.2943   -0.5421   -0.8978 C   0  0  0  0  0  0  0  0  0  0  0  0
   -1.2366   -0.1280    0.0615 C   0  0  0  0  0  0  0  0  0  0  0  0
   -0.7630    0.5299    1.1967 C   0  0  0  0  0  0  0  0  0  0  0  0
    0.6019    0.8313    1.3295 C   0  0  0  0  0  0  0  0  0  0  0  0
   -2.5848   -0.3267   -0.2351 N   0  0  0  0  0  0  0  0  0  0  0  0
   -3.5878   -0.5357    0.8189 C   0  0  0  0  0  0  0  0  0  0  0  0
   -4.9077   -1.0548    0.1604 C   0  0  0  0  0  0  0  0  0  0  0  0
   -5.4536   -0.2419   -0.9699 N   0  0  0  0  0  0  0  0  0  0  0  0
   -4.3471    0.0539   -1.9117 C   0  0  0  0  0  0  0  0  0  0  0  0
   -3.0616    0.6144   -1.2710 C   0  0  0  0  0  0  0  0  0  0  0  0
   -6.1542    0.9433   -0.4628 C   0  0  0  0  0  0  0  0  0  0  0  0
   -6.6905    1.9380   -1.4976 C   0  0  0  0  0  0  0  0  0  0  0  0
   -7.6324    1.3585   -2.5557 C   0  0  0  0  0  0  0  0  0  0  0  0
   -8.1365    2.4296   -3.3997 N   0  0  0  0  0  0  0  0  0  0  0  0
   -7.3434    3.1331   -4.3322 C   0  0  0  0  0  0  0  0  0  0  0  0
   -8.0240    4.3099   -4.5506 N   0  0  0  0  0  0  0  0  0  0  0  0
   -9.1027    4.2821   -3.7283 C   0  0  0  0  0  0  0  0  0  0  0  0
   -9.2176    3.2091   -3.0074 N   0  0  0  0  0  0  0  0  0  0  0  0
   -7.6590    5.3843   -5.3181 C   0  0  0  0  0  0  0  0  0  0  0  0
   -8.4285    6.4832   -5.3041 C   0  0  0  0  0  0  0  0  0  0  0  0
   -9.6306    6.5160   -4.4894 C   0  0  0  0  0  0  0  0  0  0  0  0
   -9.9813    5.4701   -3.7232 C   0  0  0  0  0  0  0  0  0  0  0  0
   -6.2496    2.8053   -4.7728 O   0  0  0  0  0  0  0  0  0  0  0  0
    2.5589    0.7234    0.4236 H   0  0  0  0  0  0  0  0  0  0  0  0
    1.7556   -0.5562   -1.5497 H   0  0  0  0  0  0  0  0  0  0  0  0
   -0.6377   -1.0930   -1.7712 H   0  0  0  0  0  0  0  0  0  0  0  0
   -1.4447    0.8609    1.9744 H   0  0  0  0  0  0  0  0  0  0  0  0
    0.9543    1.3815    2.1980 H   0  0  0  0  0  0  0  0  0  0  0  0
   -3.2387   -1.2867    1.5380 H   0  0  0  0  0  0  0  0  0  0  0  0
   -3.7812    0.3942    1.3675 H   0  0  0  0  0  0  0  0  0  0  0  0
   -4.7108   -2.0600   -0.2360 H   0  0  0  0  0  0  0  0  0  0  0  0
   -5.6758   -1.1880    0.9323 H   0  0  0  0  0  0  0  0  0  0  0  0
   -4.0877   -0.8890   -2.4123 H   0  0  0  0  0  0  0  0  0  0  0  0
   -4.6718    0.7195   -2.7172 H   0  0  0  0  0  0  0  0  0  0  0  0
   -3.2489    1.5999   -0.8242 H   0  0  0  0  0  0  0  0  0  0  0  0
   -2.3195    0.7536   -2.0665 H   0  0  0  0  0  0  0  0  0  0  0  0
   -7.0120    0.5987    0.1293 H   0  0  0  0  0  0  0  0  0  0  0  0
   -5.5110    1.5075    0.2234 H   0  0  0  0  0  0  0  0  0  0  0  0
   -7.2277    2.7243   -0.9508 H   0  0  0  0  0  0  0  0  0  0  0  0
   -5.8541    2.4503   -1.9875 H   0  0  0  0  0  0  0  0  0  0  0  0
   -7.1073    0.6450   -3.1993 H   0  0  0  0  0  0  0  0  0  0  0  0
   -8.4881    0.8498   -2.0982 H   0  0  0  0  0  0  0  0  0  0  0  0
   -6.7423    5.2965   -5.8899 H   0  0  0  0  0  0  0  0  0  0  0  0
   -8.1646    7.3626   -5.8847 H   0  0  0  0  0  0  0  0  0  0  0  0
  -10.2339    7.4176   -4.5134 H   0  0  0  0  0  0  0  0  0  0  0  0
  -10.8621    5.4549   -3.0933 H   0  0  0  0  0  0  0  0  0  0  0  0
  1  2  2  0  0  0  0
  1 26  1  0  0  0  0
  2  3  1  0  0  0  0
  2 27  1  0  0  0  0
  3  4  2  0  0  0  0
  3 28  1  0  0  0  0
  4  5  1  0  0  0  0
  4  7  1  0  0  0  0
  5  6  2  0  0  0  0
  5 29  1  0  0  0  0
  6  1  1  0  0  0  0
  6 30  1  0  0  0  0
  7  8  1  0  0  0  0
  8  9  1  0  0  0  0
  8 31  1  0  0  0  0
  8 32  1  0  0  0  0
  9 10  1  0  0  0  0
  9 33  1  0  0  0  0
  9 34  1  0  0  0  0
 10 11  1  0  0  0  0
 10 13  1  0  0  0  0
 11 12  1  0  0  0  0
 11 35  1  0  0  0  0
 11 36  1  0  0  0  0
 12  7  1  0  0  0  0
 12 37  1  0  0  0  0
 12 38  1  0  0  0  0
 13 14  1  0  0  0  0
 13 39  1  0  0  0  0
 13 40  1  0  0  0  0
 14 15  1  0  0  0  0
 14 41  1  0  0  0  0
 14 42  1  0  0  0  0
 15 16  1  0  0  0  0
 15 43  1  0  0  0  0
 15 44  1  0  0  0  0
 16 17  1  0  0  0  0
 17 18  1  0  0  0  0
 17 25  2  0  0  0  0
 18 19  1  0  0  0  0
 18 21  1  0  0  0  0
 19 20  2  0  0  0  0
 20 16  1  0  0  0  0
 21 22  2  0  0  0  0
 21 45  1  0  0  0  0
 22 23  1  0  0  0  0
 22 46  1  0  0  0  0
 23 24  2  0  0  0  0
 23 47  1  0  0  0  0
 24 19  1  0  0  0  0
 24 48  1  0  0  0  0
M  END
>  <Mol_ID>
7988

>  <Formula>
C19H23Cl2N5O

>  <MolWeight>
408.32482

>  <Cat>
S2582

>  <Name>
Trazodone HCl

>  <Synonyms>
AF-1161, KB-831

>  <Target>
5-HT Receptor

>  <Form>
Hydrochloride

>  <CAS>
25332-39-2

>  <URL>
http://selleckchem.com/products/trazodone-hydrochloride-desyrel.html

$$$$
