Triacanthine
 OpenBabel08302520343D

 28 29  0  0  0  0  0  0  0  0999 V2000
   -1.6441    0.4697   -0.6674 C   0  0  0  0  0  0  0  0  0  0  0  0
   -1.4388   -0.8701   -0.3801 C   0  0  0  0  0  0  0  0  0  0  0  0
   -0.8331    1.3976    0.0167 C   0  0  0  0  0  0  0  0  0  0  0  0
   -2.6205    0.6075   -1.6379 N   0  0  0  0  0  0  0  0  0  0  0  0
   -2.2815   -1.5536   -1.2112 N   0  0  0  0  0  0  0  0  0  0  0  0
   -0.5775   -1.4010    0.4980 N   0  0  0  0  0  0  0  0  0  0  0  0
    0.0747    0.9026    0.8999 N   0  0  0  0  0  0  0  0  0  0  0  0
   -0.9369    2.7572   -0.1780 N   0  0  0  0  0  0  0  0  0  0  0  0
   -2.9593   -0.6277   -1.9492 C   0  0  0  0  0  0  0  0  0  0  0  0
    0.1383   -0.4308    1.0983 C   0  0  0  0  0  0  0  0  0  0  0  0
    0.1570    3.6465    0.1084 C   0  0  0  0  0  0  0  0  0  0  0  0
    0.4204    4.4372   -1.1430 C   0  0  0  0  0  0  0  0  0  0  0  0
    0.3738    5.7759   -1.2993 C   0  0  0  0  0  0  0  0  0  0  0  0
    0.6821    6.4153   -2.6247 C   0  0  0  0  0  0  0  0  0  0  0  0
    0.0332    6.7146   -0.1828 C   0  0  0  0  0  0  0  0  0  0  0  0
   -2.3641   -2.5578   -1.2589 H   0  0  0  0  0  0  0  0  0  0  0  0
   -1.7862    3.1136   -0.5956 H   0  0  0  0  0  0  0  0  0  0  0  0
   -3.6816   -0.9095   -2.7102 H   0  0  0  0  0  0  0  0  0  0  0  0
    0.8590   -0.7611    1.8399 H   0  0  0  0  0  0  0  0  0  0  0  0
   -0.1091    4.2827    0.9558 H   0  0  0  0  0  0  0  0  0  0  0  0
    1.0835    3.1214    0.3694 H   0  0  0  0  0  0  0  0  0  0  0  0
    0.6924    3.8236   -1.9993 H   0  0  0  0  0  0  0  0  0  0  0  0
   -0.1851    6.9784   -2.9832 H   0  0  0  0  0  0  0  0  0  0  0  0
    1.5339    7.1004   -2.5350 H   0  0  0  0  0  0  0  0  0  0  0  0
    0.9339    5.6766   -3.3912 H   0  0  0  0  0  0  0  0  0  0  0  0
   -0.9632    6.4989    0.2141 H   0  0  0  0  0  0  0  0  0  0  0  0
    0.7681    6.6380    0.6283 H   0  0  0  0  0  0  0  0  0  0  0  0
    0.0305    7.7568   -0.5215 H   0  0  0  0  0  0  0  0  0  0  0  0
  1  2  1  0  0  0  0
  1  3  2  0  0  0  0
  1  4  1  0  0  0  0
  2  5  1  0  0  0  0
  2  6  2  0  0  0  0
  3  7  1  0  0  0  0
  3  8  1  0  0  0  0
  4  9  2  0  0  0  0
  5  9  1  0  0  0  0
  5 16  1  0  0  0  0
  6 10  1  0  0  0  0
  7 10  2  0  0  0  0
  8 11  1  0  0  0  0
  8 17  1  0  0  0  0
  9 18  1  0  0  0  0
 10 19  1  0  0  0  0
 11 12  1  0  0  0  0
 11 20  1  0  0  0  0
 11 21  1  0  0  0  0
 12 13  2  0  0  0  0
 12 22  1  0  0  0  0
 13 14  1  0  0  0  0
 13 15  1  0  0  0  0
 14 23  1  0  0  0  0
 14 24  1  0  0  0  0
 14 25  1  0  0  0  0
 15 26  1  0  0  0  0
 15 27  1  0  0  0  0
 15 28  1  0  0  0  0
M  END
>  <Mol_ID>
3365

>  <Formula>
C10H13N5

>  <MolWeight>
203.24372

>  <Cat>
S5690

>  <Name>
Triacanthine

>  <Synonyms>
N/A

>  <Target>
Others

>  <Form>
Free Base

>  <CAS>
2365-40-4

>  <URL>
http://www.selleckchem.com/products/triacanthine.html

$$$$
