Tricine
 OpenBabel08302521453D

 25 24  0  0  0  0  0  0  0  0999 V2000
    0.9060   -0.0301   -0.1419 C   0  0  0  0  0  0  0  0  0  0  0  0
    0.3213   -0.8094    1.0197 N   0  0  0  0  0  0  0  0  0  0  0  0
    0.4090    1.4355   -0.2140 C   0  0  0  0  0  0  0  0  0  0  0  0
    0.6136   -0.7243   -1.5051 C   0  0  0  0  0  0  0  0  0  0  0  0
    2.4504   -0.0075    0.0837 C   0  0  0  0  0  0  0  0  0  0  0  0
   -1.1691   -0.9097    0.9666 C   0  0  0  0  0  0  0  0  0  0  0  0
    0.6734    2.1381    0.9949 O   0  0  0  0  0  0  0  0  0  0  0  0
    1.0099   -2.0949   -1.4862 O   0  0  0  0  0  0  0  0  0  0  0  0
    2.9942   -1.3334    0.0833 O   0  0  0  0  0  0  0  0  0  0  0  0
   -1.6699   -1.6973    2.1796 C   0  0  0  0  0  0  0  0  0  0  0  0
   -0.8005   -1.6287    3.2206 O   0  0  0  0  0  0  0  0  0  0  0  0
   -2.7405   -2.2772    2.2386 O   0  0  0  0  0  0  0  0  0  0  0  0
    0.6502   -1.7747    0.8496 H   0  0  0  0  0  0  0  0  0  0  0  0
    0.9182    1.9729   -1.0211 H   0  0  0  0  0  0  0  0  0  0  0  0
   -0.6647    1.4942   -0.4178 H   0  0  0  0  0  0  0  0  0  0  0  0
   -0.4532   -0.6947   -1.7474 H   0  0  0  0  0  0  0  0  0  0  0  0
    1.1435   -0.2240   -2.3231 H   0  0  0  0  0  0  0  0  0  0  0  0
    2.9463    0.5433   -0.7228 H   0  0  0  0  0  0  0  0  0  0  0  0
    2.7232    0.4725    1.0307 H   0  0  0  0  0  0  0  0  0  0  0  0
   -1.6317    0.0787    1.0250 H   0  0  0  0  0  0  0  0  0  0  0  0
   -1.4968   -1.4409    0.0701 H   0  0  0  0  0  0  0  0  0  0  0  0
    0.3155    1.5913    1.7170 H   0  0  0  0  0  0  0  0  0  0  0  0
    1.9724   -2.0999   -1.2856 H   0  0  0  0  0  0  0  0  0  0  0  0
    2.8681   -1.6803    0.9856 H   0  0  0  0  0  0  0  0  0  0  0  0
   -0.0163   -1.1191    2.9141 H   0  0  0  0  0  0  0  0  0  0  0  0
  1  2  1  0  0  0  0
  1  3  1  0  0  0  0
  1  4  1  0  0  0  0
  1  5  1  0  0  0  0
  2  6  1  0  0  0  0
  2 13  1  0  0  0  0
  3  7  1  0  0  0  0
  3 14  1  0  0  0  0
  3 15  1  0  0  0  0
  4  8  1  0  0  0  0
  4 16  1  0  0  0  0
  4 17  1  0  0  0  0
  5  9  1  0  0  0  0
  5 18  1  0  0  0  0
  5 19  1  0  0  0  0
  6 10  1  0  0  0  0
  6 20  1  0  0  0  0
  6 21  1  0  0  0  0
  7 22  1  0  0  0  0
  8 23  1  0  0  0  0
  9 24  1  0  0  0  0
 10 11  1  0  0  0  0
 10 12  2  0  0  0  0
 11 25  1  0  0  0  0
M  END
>  <Mol_ID>
9424

>  <Formula>
C6H13NO5

>  <MolWeight>
179.17112

>  <Cat>
E2638

>  <Name>
Tricine

>  <Synonyms>
N-[Tris(hydroxymethyl)methyl]glycine

>  <Target>
Others

>  <Form>
free base

>  <CAS>
5704-04-1

>  <URL>
http://www.selleckchem.com/products/tricine.html

$$$$
