Tricin
 OpenBabel08302521463D

 38 40  0  0  0  0  0  0  0  0999 V2000
    1.0853   -0.7713   -0.8312 O   0  0  0  0  0  0  0  0  0  0  0  0
    1.3804    1.7406    0.1797 O   0  0  0  0  0  0  0  0  0  0  0  0
   -2.4620    3.5646    2.3623 O   0  0  0  0  0  0  0  0  0  0  0  0
   -4.0131   -6.0917    1.8120 O   0  0  0  0  0  0  0  0  0  0  0  0
   -3.2063   -5.9600    2.9777 C   0  0  0  0  0  0  0  0  0  0  0  0
   -5.5305   -4.5880   -2.3731 O   0  0  0  0  0  0  0  0  0  0  0  0
   -5.5309   -3.6483   -3.4394 C   0  0  0  0  0  0  0  0  0  0  0  0
   -5.5460   -6.3493   -0.3305 O   0  0  0  0  0  0  0  0  0  0  0  0
   -0.6321    0.4319    0.3346 C   0  0  0  0  0  0  0  0  0  0  0  0
   -1.9578    0.3331    0.7700 C   0  0  0  0  0  0  0  0  0  0  0  0
   -0.0454   -0.7355   -0.3632 C   0  0  0  0  0  0  0  0  0  0  0  0
    0.0822    1.6134    0.5848 C   0  0  0  0  0  0  0  0  0  0  0  0
   -2.7307   -0.7891    0.5862 O   0  0  0  0  0  0  0  0  0  0  0  0
   -2.5647    1.3982    1.4408 C   0  0  0  0  0  0  0  0  0  0  0  0
   -0.8978   -1.9299   -0.4832 C   0  0  0  0  0  0  0  0  0  0  0  0
   -0.5184    2.6773    1.2627 C   0  0  0  0  0  0  0  0  0  0  0  0
   -2.1470   -1.8876   -0.0099 C   0  0  0  0  0  0  0  0  0  0  0  0
   -1.8383    2.5576    1.6864 C   0  0  0  0  0  0  0  0  0  0  0  0
   -3.0178   -3.0632   -0.1011 C   0  0  0  0  0  0  0  0  0  0  0  0
   -3.0354   -4.0068    0.9359 C   0  0  0  0  0  0  0  0  0  0  0  0
   -3.8340   -3.2390   -1.2280 C   0  0  0  0  0  0  0  0  0  0  0  0
   -3.8848   -5.1099    0.8607 C   0  0  0  0  0  0  0  0  0  0  0  0
   -4.6888   -4.3393   -1.3211 C   0  0  0  0  0  0  0  0  0  0  0  0
   -4.7049   -5.2632   -0.2684 C   0  0  0  0  0  0  0  0  0  0  0  0
    1.7274    2.6196    0.3970 H   0  0  0  0  0  0  0  0  0  0  0  0
   -1.8402    4.3000    2.4941 H   0  0  0  0  0  0  0  0  0  0  0  0
   -2.1425   -6.0253    2.7262 H   0  0  0  0  0  0  0  0  0  0  0  0
   -3.4308   -5.0315    3.5133 H   0  0  0  0  0  0  0  0  0  0  0  0
   -3.4434   -6.7933    3.6461 H   0  0  0  0  0  0  0  0  0  0  0  0
   -5.8455   -2.6578   -3.0933 H   0  0  0  0  0  0  0  0  0  0  0  0
   -4.5498   -3.6039   -3.9241 H   0  0  0  0  0  0  0  0  0  0  0  0
   -6.2559   -3.9841   -4.1866 H   0  0  0  0  0  0  0  0  0  0  0  0
   -5.3954   -6.8411    0.4983 H   0  0  0  0  0  0  0  0  0  0  0  0
   -3.5945    1.3205    1.7785 H   0  0  0  0  0  0  0  0  0  0  0  0
   -0.4614   -2.8000   -0.9555 H   0  0  0  0  0  0  0  0  0  0  0  0
    0.0401    3.5866    1.4630 H   0  0  0  0  0  0  0  0  0  0  0  0
   -2.3836   -3.8509    1.7895 H   0  0  0  0  0  0  0  0  0  0  0  0
   -3.7865   -2.4958   -2.0173 H   0  0  0  0  0  0  0  0  0  0  0  0
  1 11  2  0  0  0  0
  2 12  1  0  0  0  0
  2 25  1  0  0  0  0
  3 18  1  0  0  0  0
  3 26  1  0  0  0  0
  4  5  1  0  0  0  0
  4 22  1  0  0  0  0
  5 27  1  0  0  0  0
  5 28  1  0  0  0  0
  5 29  1  0  0  0  0
  6  7  1  0  0  0  0
  6 23  1  0  0  0  0
  7 30  1  0  0  0  0
  7 31  1  0  0  0  0
  7 32  1  0  0  0  0
  8 24  1  0  0  0  0
  8 33  1  0  0  0  0
  9 10  2  0  0  0  0
  9 11  1  0  0  0  0
  9 12  1  0  0  0  0
 10 13  1  0  0  0  0
 10 14  1  0  0  0  0
 11 15  1  0  0  0  0
 12 16  2  0  0  0  0
 13 17  1  0  0  0  0
 14 18  2  0  0  0  0
 14 34  1  0  0  0  0
 15 17  2  0  0  0  0
 15 35  1  0  0  0  0
 16 18  1  0  0  0  0
 16 36  1  0  0  0  0
 17 19  1  0  0  0  0
 19 20  2  0  0  0  0
 19 21  1  0  0  0  0
 20 22  1  0  0  0  0
 20 37  1  0  0  0  0
 21 23  2  0  0  0  0
 21 38  1  0  0  0  0
 22 24  2  0  0  0  0
 23 24  1  0  0  0  0
M  END
>  <Mol_ID>
9670

>  <Formula>
C17H14O7

>  <MolWeight>
330.28886

>  <Cat>
E0634

>  <Name>
Tricin

>  <Synonyms>
4', 5, 7-trihydroxy-3', 5'-dimethoxyflavone

>  <Target>
Influenza Virus, CMV, CDK, TNF-alpha, Antioxidant, Antiviral

>  <Form>
free base

>  <CAS>
520-32-1

>  <URL>
https://www.selleckchem.com/products/tricin.html

$$$$
