Tricarballylic acid
 OpenBabel08302520393D

 20 19  0  0  0  0  0  0  0  0999 V2000
    0.8846    0.0749   -0.0363 C   0  0  0  0  0  0  0  0  0  0  0  0
    0.4064    1.2333   -0.9237 C   0  0  0  0  0  0  0  0  0  0  0  0
    0.5020   -1.2806   -0.6253 C   0  0  0  0  0  0  0  0  0  0  0  0
    0.3641    0.2311    1.3807 C   0  0  0  0  0  0  0  0  0  0  0  0
    0.9845    2.5510   -0.4614 C   0  0  0  0  0  0  0  0  0  0  0  0
    0.9617   -2.4411    0.2197 C   0  0  0  0  0  0  0  0  0  0  0  0
   -0.9782    0.2593    1.4999 O   0  0  0  0  0  0  0  0  0  0  0  0
    1.1013    0.3338    2.3478 O   0  0  0  0  0  0  0  0  0  0  0  0
    0.1596    3.6001   -0.6533 O   0  0  0  0  0  0  0  0  0  0  0  0
    2.1122    2.6760   -0.0131 O   0  0  0  0  0  0  0  0  0  0  0  0
    2.2967   -2.5976    0.2718 O   0  0  0  0  0  0  0  0  0  0  0  0
    0.1813   -3.2014    0.7729 O   0  0  0  0  0  0  0  0  0  0  0  0
    1.9797    0.1185    0.0340 H   0  0  0  0  0  0  0  0  0  0  0  0
    0.7397    1.0864   -1.9579 H   0  0  0  0  0  0  0  0  0  0  0  0
   -0.6870    1.2879   -0.9302 H   0  0  0  0  0  0  0  0  0  0  0  0
   -0.5881   -1.3632   -0.7270 H   0  0  0  0  0  0  0  0  0  0  0  0
    0.9127   -1.4092   -1.6337 H   0  0  0  0  0  0  0  0  0  0  0  0
   -1.5096    0.0433    0.7137 H   0  0  0  0  0  0  0  0  0  0  0  0
   -0.7096    3.4008   -1.0469 H   0  0  0  0  0  0  0  0  0  0  0  0
    2.8325   -1.9274   -0.1925 H   0  0  0  0  0  0  0  0  0  0  0  0
  1  2  1  0  0  0  0
  1  3  1  0  0  0  0
  1  4  1  0  0  0  0
  1 13  1  0  0  0  0
  2  5  1  0  0  0  0
  2 14  1  0  0  0  0
  2 15  1  0  0  0  0
  3  6  1  0  0  0  0
  3 16  1  0  0  0  0
  3 17  1  0  0  0  0
  4  7  1  0  0  0  0
  4  8  2  0  0  0  0
  5  9  1  0  0  0  0
  5 10  2  0  0  0  0
  6 11  1  0  0  0  0
  6 12  2  0  0  0  0
  7 18  1  0  0  0  0
  9 19  1  0  0  0  0
 11 20  1  0  0  0  0
M  END
>  <Mol_ID>
3637

>  <Formula>
C6H8O6

>  <MolWeight>
176.12412

>  <Cat>
S6286

>  <Name>
Tricarballylic acid

>  <Synonyms>
Carballylic acid; 1,2,3-Propanetricarboxylic acid; ¦Â-Carboxyglutaric acid; Propane-1,2,3-tricarboxylic acid

>  <Target>
Others

>  <Form>
free base

>  <CAS>
99-14-9

>  <URL>
http://www.selleck.cn/products/tricarballylic-acid.html

$$$$
