Tridecanoic acid
 OpenBabel08302520393D

 41 40  0  0  0  0  0  0  0  0999 V2000
    1.2935    0.1305   -0.3144 C   0  0  0  0  0  0  0  0  0  0  0  0
    0.8143    0.0021    1.1352 C   0  0  0  0  0  0  0  0  0  0  0  0
    2.8058    0.3024   -0.4876 C   0  0  0  0  0  0  0  0  0  0  0  0
    1.1147    1.2021    2.0402 C   0  0  0  0  0  0  0  0  0  0  0  0
    3.6326   -0.8669    0.0524 C   0  0  0  0  0  0  0  0  0  0  0  0
    0.5323    2.5483    1.5919 C   0  0  0  0  0  0  0  0  0  0  0  0
    5.1117   -0.6538   -0.1844 C   0  0  0  0  0  0  0  0  0  0  0  0
   -0.9970    2.5570    1.5091 C   0  0  0  0  0  0  0  0  0  0  0  0
    5.8626   -1.6716    0.3021 O   0  0  0  0  0  0  0  0  0  0  0  0
    5.6087    0.3120   -0.7374 O   0  0  0  0  0  0  0  0  0  0  0  0
   -1.5285    3.9304    1.0862 C   0  0  0  0  0  0  0  0  0  0  0  0
   -3.0584    3.9407    1.0031 C   0  0  0  0  0  0  0  0  0  0  0  0
   -3.5883    5.3126    0.5766 C   0  0  0  0  0  0  0  0  0  0  0  0
   -5.1148    5.3261    0.4767 C   0  0  0  0  0  0  0  0  0  0  0  0
   -5.6319    6.6932    0.0534 C   0  0  0  0  0  0  0  0  0  0  0  0
    0.7877    0.9782   -0.7918 H   0  0  0  0  0  0  0  0  0  0  0  0
    0.9709   -0.7601   -0.8684 H   0  0  0  0  0  0  0  0  0  0  0  0
   -0.2655   -0.1908    1.1310 H   0  0  0  0  0  0  0  0  0  0  0  0
    1.2638   -0.8910    1.5861 H   0  0  0  0  0  0  0  0  0  0  0  0
    3.0158    0.4250   -1.5581 H   0  0  0  0  0  0  0  0  0  0  0  0
    3.1310    1.2342   -0.0101 H   0  0  0  0  0  0  0  0  0  0  0  0
    0.7363    0.9747    3.0447 H   0  0  0  0  0  0  0  0  0  0  0  0
    2.2001    1.3119    2.1475 H   0  0  0  0  0  0  0  0  0  0  0  0
    3.4835   -0.9685    1.1322 H   0  0  0  0  0  0  0  0  0  0  0  0
    3.3346   -1.7966   -0.4431 H   0  0  0  0  0  0  0  0  0  0  0  0
    0.8509    3.3106    2.3151 H   0  0  0  0  0  0  0  0  0  0  0  0
    0.9627    2.8430    0.6282 H   0  0  0  0  0  0  0  0  0  0  0  0
   -1.3380    1.8066    0.7879 H   0  0  0  0  0  0  0  0  0  0  0  0
   -1.4165    2.2857    2.4855 H   0  0  0  0  0  0  0  0  0  0  0  0
    5.3416   -2.3789    0.7236 H   0  0  0  0  0  0  0  0  0  0  0  0
   -1.1942    4.6911    1.8020 H   0  0  0  0  0  0  0  0  0  0  0  0
   -1.1075    4.1984    0.1094 H   0  0  0  0  0  0  0  0  0  0  0  0
   -3.3911    3.1799    0.2866 H   0  0  0  0  0  0  0  0  0  0  0  0
   -3.4808    3.6726    1.9791 H   0  0  0  0  0  0  0  0  0  0  0  0
   -3.2624    6.0718    1.2979 H   0  0  0  0  0  0  0  0  0  0  0  0
   -3.1586    5.5850   -0.3952 H   0  0  0  0  0  0  0  0  0  0  0  0
   -5.4467    4.5765   -0.2511 H   0  0  0  0  0  0  0  0  0  0  0  0
   -5.5573    5.0580    1.4433 H   0  0  0  0  0  0  0  0  0  0  0  0
   -5.1987    6.9978   -0.9048 H   0  0  0  0  0  0  0  0  0  0  0  0
   -6.7206    6.6714   -0.0586 H   0  0  0  0  0  0  0  0  0  0  0  0
   -5.3833    7.4545    0.7998 H   0  0  0  0  0  0  0  0  0  0  0  0
  1  2  1  0  0  0  0
  1  3  1  0  0  0  0
  1 16  1  0  0  0  0
  1 17  1  0  0  0  0
  2  4  1  0  0  0  0
  2 18  1  0  0  0  0
  2 19  1  0  0  0  0
  3  5  1  0  0  0  0
  3 20  1  0  0  0  0
  3 21  1  0  0  0  0
  4  6  1  0  0  0  0
  4 22  1  0  0  0  0
  4 23  1  0  0  0  0
  5  7  1  0  0  0  0
  5 24  1  0  0  0  0
  5 25  1  0  0  0  0
  6  8  1  0  0  0  0
  6 26  1  0  0  0  0
  6 27  1  0  0  0  0
  7  9  1  0  0  0  0
  7 10  2  0  0  0  0
  8 11  1  0  0  0  0
  8 28  1  0  0  0  0
  8 29  1  0  0  0  0
  9 30  1  0  0  0  0
 11 12  1  0  0  0  0
 11 31  1  0  0  0  0
 11 32  1  0  0  0  0
 12 13  1  0  0  0  0
 12 33  1  0  0  0  0
 12 34  1  0  0  0  0
 13 14  1  0  0  0  0
 13 35  1  0  0  0  0
 13 36  1  0  0  0  0
 14 15  1  0  0  0  0
 14 37  1  0  0  0  0
 14 38  1  0  0  0  0
 15 39  1  0  0  0  0
 15 40  1  0  0  0  0
 15 41  1  0  0  0  0
M  END
>  <Mol_ID>
3572

>  <Formula>
C13H26O2

>  <MolWeight>
214.34434

>  <Cat>
S6113

>  <Name>
Tridecanoic acid

>  <Synonyms>
Tridecylic acid

>  <Target>
Others

>  <Form>
free base

>  <CAS>
638-53-9

>  <URL>
http://www.selleck.cn/products/tridecanoic-acid.html

$$$$
