Tridecafluorohexane-1-sulfonic acid potassium sal
 OpenBabel08302521343D

 24 23  0  0  0  0  0  0  0  0999 V2000
    0.8616   -0.0490    0.0953 C   0  0  0  0  0  0  0  0  0  0  0  0
    0.5126    0.2932   -1.3440 C   0  0  0  0  0  0  0  0  0  0  0  0
    0.3427   -1.3485    0.6827 C   0  0  0  0  0  0  0  0  0  0  0  0
    0.4293    0.9681    0.9023 F   0  0  0  0  0  0  0  0  0  0  0  0
    2.2266   -0.0335    0.2176 F   0  0  0  0  0  0  0  0  0  0  0  0
   -0.9506    0.3678   -1.7291 C   0  0  0  0  0  0  0  0  0  0  0  0
    1.1025    1.4886   -1.6674 F   0  0  0  0  0  0  0  0  0  0  0  0
    1.1369   -0.6140   -2.1599 F   0  0  0  0  0  0  0  0  0  0  0  0
    0.8218   -2.5875   -0.0346 C   0  0  0  0  0  0  0  0  0  0  0  0
    0.7433   -1.3893    1.9898 F   0  0  0  0  0  0  0  0  0  0  0  0
   -1.0141   -1.2895    0.7261 F   0  0  0  0  0  0  0  0  0  0  0  0
   -1.7185    1.4852   -1.0322 C   0  0  0  0  0  0  0  0  0  0  0  0
   -1.0141    0.5635   -3.0874 F   0  0  0  0  0  0  0  0  0  0  0  0
   -1.5493   -0.8399   -1.5302 F   0  0  0  0  0  0  0  0  0  0  0  0
    0.2075   -4.0390    0.8977 S   0  0  0  0  0  0  0  0  0  0  0  0
    0.3580   -2.6000   -1.3163 F   0  0  0  0  0  0  0  0  0  0  0  0
    2.1840   -2.5973   -0.1276 F   0  0  0  0  0  0  0  0  0  0  0  0
   -0.9254    2.3744   -0.4008 F   0  0  0  0  0  0  0  0  0  0  0  0
   -2.4741    2.1918   -1.9088 F   0  0  0  0  0  0  0  0  0  0  0  0
   -2.5722    0.9868   -0.1052 F   0  0  0  0  0  0  0  0  0  0  0  0
    0.8312   -4.1368    2.1919 O   0  0  0  0  0  0  0  0  0  0  0  0
   -1.2296   -4.1832    0.7359 O   0  0  0  0  0  0  0  0  0  0  0  0
    0.8908   -5.2352    0.0271 O   0  0  0  0  0  0  0  0  0  0  0  0
    1.3591   -5.8208    0.6563 H   0  0  0  0  0  0  0  0  0  0  0  0
  1  2  1  0  0  0  0
  1  3  1  0  0  0  0
  1  4  1  0  0  0  0
  1  5  1  0  0  0  0
  2  6  1  0  0  0  0
  2  7  1  0  0  0  0
  2  8  1  0  0  0  0
  3  9  1  0  0  0  0
  3 10  1  0  0  0  0
  3 11  1  0  0  0  0
  6 12  1  0  0  0  0
  6 13  1  0  0  0  0
  6 14  1  0  0  0  0
  9 15  1  0  0  0  0
  9 16  1  0  0  0  0
  9 17  1  0  0  0  0
 12 18  1  0  0  0  0
 12 19  1  0  0  0  0
 12 20  1  0  0  0  0
 15 21  2  0  0  0  0
 15 22  2  0  0  0  0
 15 23  1  0  0  0  0
 23 24  1  0  0  0  0
M  END
>  <Mol_ID>
6502

>  <Formula>
C6HF13KO3S

>  <MolWeight>
439.2128816

>  <Cat>
E2702

>  <Name>
Tridecafluorohexane-1-sulfonic acid potassium sal

>  <Target>
Others

>  <Form>
potassium salt

>  <CAS>
3871-99-6

>  <URL>
http://www.selleckchem.com/products/tridecafluorohexane-1-sulfonic-acid-potassium-salt.html

$$$$
