Triethylenediamine
 OpenBabel08302521383D

 20 21  0  0  0  0  0  0  0  0999 V2000
    1.3417   -0.0001    0.0000 N   0  0  3  0  0  0  0  0  0  0  0  0
    0.7773    1.3481   -0.2916 C   0  0  0  0  0  0  0  0  0  0  0  0
    0.7771   -0.4216    1.3134 C   0  0  0  0  0  0  0  0  0  0  0  0
    0.7772   -0.9268   -1.0217 C   0  0  0  0  0  0  0  0  0  0  0  0
   -0.7771    1.3482   -0.2916 C   0  0  0  0  0  0  0  0  0  0  0  0
   -0.7773   -0.4217    1.3132 C   0  0  0  0  0  0  0  0  0  0  0  0
   -0.7771   -0.9264   -1.0221 C   0  0  0  0  0  0  0  0  0  0  0  0
   -1.3418    0.0000   -0.0002 N   0  0  3  0  0  0  0  0  0  0  0  0
    1.1494    1.6934   -1.2642 H   0  0  0  0  0  0  0  0  0  0  0  0
    1.1493    2.0645    0.4514 H   0  0  0  0  0  0  0  0  0  0  0  0
    1.1491    0.2482    2.0987 H   0  0  0  0  0  0  0  0  0  0  0  0
    1.1492   -1.4232    1.5624 H   0  0  0  0  0  0  0  0  0  0  0  0
    1.1496   -0.6418   -2.0135 H   0  0  0  0  0  0  0  0  0  0  0  0
    1.1490   -1.9418   -0.8341 H   0  0  0  0  0  0  0  0  0  0  0  0
   -1.1492    2.0645    0.4514 H   0  0  0  0  0  0  0  0  0  0  0  0
   -1.1492    1.6937   -1.2642 H   0  0  0  0  0  0  0  0  0  0  0  0
   -1.1495    0.2478    2.0986 H   0  0  0  0  0  0  0  0  0  0  0  0
   -1.1493   -1.4234    1.5619 H   0  0  0  0  0  0  0  0  0  0  0  0
   -1.1496   -1.9414   -0.8352 H   0  0  0  0  0  0  0  0  0  0  0  0
   -1.1489   -0.6408   -2.0140 H   0  0  0  0  0  0  0  0  0  0  0  0
  1  2  1  0  0  0  0
  1  3  1  0  0  0  0
  1  4  1  0  0  0  0
  2  5  1  0  0  0  0
  2  9  1  0  0  0  0
  2 10  1  0  0  0  0
  3  6  1  0  0  0  0
  3 11  1  0  0  0  0
  3 12  1  0  0  0  0
  4  7  1  0  0  0  0
  4 13  1  0  0  0  0
  4 14  1  0  0  0  0
  5  8  1  0  0  0  0
  5 15  1  0  0  0  0
  5 16  1  0  0  0  0
  6  8  1  0  0  0  0
  6 17  1  0  0  0  0
  6 18  1  0  0  0  0
  7  8  1  0  0  0  0
  7 19  1  0  0  0  0
  7 20  1  0  0  0  0
M  END
>  <Mol_ID>
7628

>  <Formula>
C6H12N2

>  <MolWeight>
112.17288

>  <Cat>
E2967

>  <Name>
Triethylenediamine

>  <Target>
Others

>  <Form>
free base

>  <CAS>
280-57-9

>  <URL>
https://www.selleckchem.com/products/triethylenediamine.html

$$$$
