Triethyl citrate
 OpenBabel08302520383D

 39 38  0  0  0  0  0  0  0  0999 V2000
    1.0212   -0.1528   -0.1279 C   0  0  0  0  0  0  0  0  0  0  0  0
    0.4521   -1.5067   -0.5787 C   0  0  0  0  0  0  0  0  0  0  0  0
    0.6110    0.2052    1.3053 C   0  0  0  0  0  0  0  0  0  0  0  0
    0.4882    0.9597   -1.0593 C   0  0  0  0  0  0  0  0  0  0  0  0
    2.4553   -0.2329   -0.1123 O   0  0  0  0  0  0  0  0  0  0  0  0
    0.9879   -1.9455   -1.9207 C   0  0  0  0  0  0  0  0  0  0  0  0
   -0.8781    0.3029    1.5197 C   0  0  0  0  0  0  0  0  0  0  0  0
    1.4376    1.8977   -1.3212 O   0  0  0  0  0  0  0  0  0  0  0  0
   -0.6677    1.0075   -1.4687 O   0  0  0  0  0  0  0  0  0  0  0  0
    0.3262   -1.3302   -2.9315 O   0  0  0  0  0  0  0  0  0  0  0  0
    1.8769   -2.7764   -2.0521 O   0  0  0  0  0  0  0  0  0  0  0  0
   -1.2952    1.5903    1.4081 O   0  0  0  0  0  0  0  0  0  0  0  0
   -1.5864   -0.6622    1.7700 O   0  0  0  0  0  0  0  0  0  0  0  0
    1.0205    2.9885   -2.1552 C   0  0  0  0  0  0  0  0  0  0  0  0
    0.6115   -1.7550   -4.2743 C   0  0  0  0  0  0  0  0  0  0  0  0
   -2.6915    1.8337    1.6416 C   0  0  0  0  0  0  0  0  0  0  0  0
    1.1838    2.6225   -3.6184 C   0  0  0  0  0  0  0  0  0  0  0  0
    1.9917   -1.3268   -4.7386 C   0  0  0  0  0  0  0  0  0  0  0  0
   -3.5377    1.4507    0.4412 C   0  0  0  0  0  0  0  0  0  0  0  0
    0.7312   -2.2906    0.1380 H   0  0  0  0  0  0  0  0  0  0  0  0
   -0.6417   -1.5109   -0.6321 H   0  0  0  0  0  0  0  0  0  0  0  0
    1.0000   -0.5334    2.0182 H   0  0  0  0  0  0  0  0  0  0  0  0
    1.0751    1.1521    1.6164 H   0  0  0  0  0  0  0  0  0  0  0  0
    2.7276   -1.0714    0.3086 H   0  0  0  0  0  0  0  0  0  0  0  0
   -0.0096    3.2887   -1.9309 H   0  0  0  0  0  0  0  0  0  0  0  0
    1.6615    3.8434   -1.9140 H   0  0  0  0  0  0  0  0  0  0  0  0
    0.4674   -2.8372   -4.3688 H   0  0  0  0  0  0  0  0  0  0  0  0
   -0.1405   -1.2737   -4.9089 H   0  0  0  0  0  0  0  0  0  0  0  0
   -3.0255    1.3201    2.5504 H   0  0  0  0  0  0  0  0  0  0  0  0
   -2.7921    2.9088    1.8242 H   0  0  0  0  0  0  0  0  0  0  0  0
    0.5717    1.7531   -3.8782 H   0  0  0  0  0  0  0  0  0  0  0  0
    0.8938    3.4581   -4.2617 H   0  0  0  0  0  0  0  0  0  0  0  0
    2.2237    2.3562   -3.8338 H   0  0  0  0  0  0  0  0  0  0  0  0
    2.7603   -1.9990   -4.3449 H   0  0  0  0  0  0  0  0  0  0  0  0
    2.0555   -1.3593   -5.8307 H   0  0  0  0  0  0  0  0  0  0  0  0
    2.2324   -0.3174   -4.3939 H   0  0  0  0  0  0  0  0  0  0  0  0
   -3.5780    0.3638    0.3196 H   0  0  0  0  0  0  0  0  0  0  0  0
   -4.5619    1.8168    0.5605 H   0  0  0  0  0  0  0  0  0  0  0  0
   -3.1200    1.8637   -0.4819 H   0  0  0  0  0  0  0  0  0  0  0  0
  1  2  1  0  0  0  0
  1  3  1  0  0  0  0
  1  4  1  0  0  0  0
  1  5  1  0  0  0  0
  2  6  1  0  0  0  0
  2 20  1  0  0  0  0
  2 21  1  0  0  0  0
  3  7  1  0  0  0  0
  3 22  1  0  0  0  0
  3 23  1  0  0  0  0
  4  8  1  0  0  0  0
  4  9  2  0  0  0  0
  5 24  1  0  0  0  0
  6 10  1  0  0  0  0
  6 11  2  0  0  0  0
  7 12  1  0  0  0  0
  7 13  2  0  0  0  0
  8 14  1  0  0  0  0
 10 15  1  0  0  0  0
 12 16  1  0  0  0  0
 14 17  1  0  0  0  0
 14 25  1  0  0  0  0
 14 26  1  0  0  0  0
 15 18  1  0  0  0  0
 15 27  1  0  0  0  0
 15 28  1  0  0  0  0
 16 19  1  0  0  0  0
 16 29  1  0  0  0  0
 16 30  1  0  0  0  0
 17 31  1  0  0  0  0
 17 32  1  0  0  0  0
 17 33  1  0  0  0  0
 18 34  1  0  0  0  0
 18 35  1  0  0  0  0
 18 36  1  0  0  0  0
 19 37  1  0  0  0  0
 19 38  1  0  0  0  0
 19 39  1  0  0  0  0
M  END
>  <Mol_ID>
3499

>  <Formula>
C12H20O7

>  <MolWeight>
276.283

>  <Cat>
S6223

>  <Name>
Triethyl citrate

>  <Synonyms>
Ethyl citrate, E1505, Citric acid ethyl ester

>  <Target>
Others

>  <Form>
free base

>  <CAS>
77-93-0

>  <URL>
http://www.selleck.cn/products/triethyl-citrate.html

$$$$
