Triflusal.cdx
 OpenBabel08302521593D

 24 24  0  0  0  0  0  0  0  0999 V2000
    1.0477   -0.2906    0.1935 C   0  0  0  0  0  0  0  0  0  0  0  0
    0.3027    0.5447    1.1723 C   0  0  0  0  0  0  0  0  0  0  0  0
    0.7933    1.7364    1.7282 C   0  0  0  0  0  0  0  0  0  0  0  0
    0.0229    2.4525    2.6539 C   0  0  0  0  0  0  0  0  0  0  0  0
   -1.2648    2.0170    3.0016 C   0  0  0  0  0  0  0  0  0  0  0  0
   -1.7552    0.8308    2.4371 C   0  0  0  0  0  0  0  0  0  0  0  0
   -0.9788    0.1028    1.5308 C   0  0  0  0  0  0  0  0  0  0  0  0
    0.4875   -0.9493   -0.6668 O   0  0  0  0  0  0  0  0  0  0  0  0
    2.3808   -0.3223    0.3903 O   0  0  0  0  0  0  0  0  0  0  0  0
   -2.1178    2.8068    3.9674 C   0  0  0  0  0  0  0  0  0  0  0  0
   -1.5186    3.9455    4.4164 F   0  0  0  0  0  0  0  0  0  0  0  0
   -3.3009    3.1953    3.4199 F   0  0  0  0  0  0  0  0  0  0  0  0
   -2.4333    2.0898    5.0792 F   0  0  0  0  0  0  0  0  0  0  0  0
    2.1079    2.1543    1.4137 O   0  0  0  0  0  0  0  0  0  0  0  0
    2.4006    3.5169    1.2584 C   0  0  0  0  0  0  0  0  0  0  0  0
    1.5986    4.4367    1.2923 O   0  0  0  0  0  0  0  0  0  0  0  0
    3.8774    3.7005    1.0646 C   0  0  0  0  0  0  0  0  0  0  0  0
    0.4087    3.3640    3.1076 H   0  0  0  0  0  0  0  0  0  0  0  0
   -2.7497    0.4686    2.7007 H   0  0  0  0  0  0  0  0  0  0  0  0
   -1.3797   -0.8172    1.1037 H   0  0  0  0  0  0  0  0  0  0  0  0
    2.6872    0.2052    1.1505 H   0  0  0  0  0  0  0  0  0  0  0  0
    4.2805    4.2699    1.9061 H   0  0  0  0  0  0  0  0  0  0  0  0
    4.3921    2.7364    1.0203 H   0  0  0  0  0  0  0  0  0  0  0  0
    4.0541    4.2309    0.1260 H   0  0  0  0  0  0  0  0  0  0  0  0
  1  2  1  0  0  0  0
  1  8  2  0  0  0  0
  1  9  1  0  0  0  0
  2  3  2  0  0  0  0
  2  7  1  0  0  0  0
  3  4  1  0  0  0  0
  3 14  1  0  0  0  0
  4  5  2  0  0  0  0
  4 18  1  0  0  0  0
  5  6  1  0  0  0  0
  5 10  1  0  0  0  0
  6  7  2  0  0  0  0
  6 19  1  0  0  0  0
  7 20  1  0  0  0  0
  9 21  1  0  0  0  0
 10 11  1  0  0  0  0
 10 12  1  0  0  0  0
 10 13  1  0  0  0  0
 14 15  1  0  0  0  0
 15 16  2  0  0  0  0
 15 17  1  0  0  0  0
 17 22  1  0  0  0  0
 17 23  1  0  0  0  0
 17 24  1  0  0  0  0
M  END
>  <Mol_ID>
1003

>  <Formula>
C10H7F3O4

>  <MolWeight>
248.1553896

>  <Cat>
S3200

>  <Name>
Triflusal

>  <Synonyms>
UR1501

>  <Target>
COX

>  <Form>
free base

>  <CAS>
322-79-2

>  <URL>
http://selleckchem.com/products/triflusal.html

$$$$
