TRIFLURIDINE (trifluridine).cdx
 OpenBabel08302521213D

 31 32  0  0  0  0  0  0  0  0999 V2000
    1.0137    0.0664    1.0709 N   0  0  0  0  0  0  0  0  0  0  0  0
    0.4645   -1.1637    0.8199 C   0  0  0  0  0  0  0  0  0  0  0  0
   -0.7030   -1.1477    0.0674 N   0  0  0  0  0  0  0  0  0  0  0  0
   -1.2836    0.0389   -0.3351 C   0  0  0  0  0  0  0  0  0  0  0  0
   -0.7691    1.2411   -0.0354 C   0  0  0  0  0  0  0  0  0  0  0  0
    0.4548    1.2811    0.7706 C   0  0  0  0  0  0  0  0  0  0  0  0
    0.9864   -2.1822    1.2631 O   0  0  0  0  0  0  0  0  0  0  0  0
    0.9585    2.3189    1.1821 O   0  0  0  0  0  0  0  0  0  0  0  0
   -1.4008    2.5126   -0.4628 C   0  0  0  0  0  0  0  0  0  0  0  0
   -0.7992    3.6515   -0.0503 F   0  0  0  0  0  0  0  0  0  0  0  0
   -1.4689    2.5832   -1.8205 F   0  0  0  0  0  0  0  0  0  0  0  0
   -2.6886    2.5778   -0.0238 F   0  0  0  0  0  0  0  0  0  0  0  0
   -1.3546   -2.4306   -0.1816 C   0  0  1  0  0  0  0  0  0  0  0  0
   -2.3658   -2.8003    0.8944 C   0  0  0  0  0  0  0  0  0  0  0  0
   -3.3226   -3.6997    0.1478 C   0  0  1  0  0  0  0  0  0  0  0  0
   -3.3012   -3.1484   -1.2764 C   0  0  2  0  0  0  0  0  0  0  0  0
   -2.0681   -2.4011   -1.4301 O   0  0  0  0  0  0  0  0  0  0  0  0
   -2.8476   -5.0446    0.1987 O   0  0  0  0  0  0  0  0  0  0  0  0
   -4.4615   -2.1896   -1.5533 C   0  0  0  0  0  0  0  0  0  0  0  0
   -4.3691   -1.6767   -2.8810 O   0  0  0  0  0  0  0  0  0  0  0  0
    1.8444    0.0782    1.6430 H   0  0  0  0  0  0  0  0  0  0  0  0
   -2.1997   -0.0349   -0.9170 H   0  0  0  0  0  0  0  0  0  0  0  0
   -0.5957   -3.2174   -0.2725 H   0  0  0  0  0  0  0  0  0  0  0  0
   -2.8977   -1.9076    1.2454 H   0  0  0  0  0  0  0  0  0  0  0  0
   -1.8857   -3.2749    1.7561 H   0  0  0  0  0  0  0  0  0  0  0  0
   -4.3224   -3.7034    0.5924 H   0  0  0  0  0  0  0  0  0  0  0  0
   -3.2857   -3.9432   -2.0301 H   0  0  0  0  0  0  0  0  0  0  0  0
   -2.0651   -5.1412   -0.3746 H   0  0  0  0  0  0  0  0  0  0  0  0
   -5.4238   -2.7001   -1.4533 H   0  0  0  0  0  0  0  0  0  0  0  0
   -4.4441   -1.3325   -0.8729 H   0  0  0  0  0  0  0  0  0  0  0  0
   -3.4380   -1.4181   -3.0174 H   0  0  0  0  0  0  0  0  0  0  0  0
  1  2  1  0  0  0  0
  1 21  1  0  0  0  0
  2  3  1  0  0  0  0
  2  7  2  0  0  0  0
  3  4  1  0  0  0  0
  4  5  2  0  0  0  0
  4 22  1  0  0  0  0
  5  6  1  0  0  0  0
  5  9  1  0  0  0  0
  6  1  1  0  0  0  0
  6  8  2  0  0  0  0
  9 10  1  0  0  0  0
  9 11  1  0  0  0  0
  9 12  1  0  0  0  0
 13 14  1  0  0  0  0
 13  3  1  0  0  0  0
 13 23  1  6  0  0  0
 14 15  1  0  0  0  0
 14 24  1  0  0  0  0
 14 25  1  0  0  0  0
 15 16  1  0  0  0  0
 15 18  1  0  0  0  0
 15 26  1  1  0  0  0
 16 17  1  0  0  0  0
 16 27  1  6  0  0  0
 16 19  1  0  0  0  0
 17 13  1  0  0  0  0
 18 28  1  0  0  0  0
 19 20  1  0  0  0  0
 19 29  1  0  0  0  0
 19 30  1  0  0  0  0
 20 31  1  0  0  0  0
M  END
>  <Mol_ID>
437

>  <Formula>
C10H11F3N2O5

>  <MolWeight>
296.1999496

>  <Cat>
S1778

>  <Name>
Trifluridine (NSC 75520)

>  <Synonyms>
NSC 529182, NSC 75520, Viroptic, Trifluorothymidine, TFT

>  <Target>
DNA/RNA Synthesis,Thymidylate Synthase

>  <Form>
free base

>  <CAS>
70-00-8

>  <URL>
http://selleckchem.com/products/Trifluridine(Viroptic).html

$$$$
