Triglochinic acid
 OpenBabel08302521453D

 21 20  0  0  0  0  0  0  0  0999 V2000
    0.9010   -0.0491    0.1014 C   0  0  0  0  0  0  0  0  0  0  0  0
    0.2065    1.1039    0.0179 C   0  0  0  0  0  0  0  0  0  0  0  0
    0.2907   -1.4278    0.1672 C   0  0  0  0  0  0  0  0  0  0  0  0
    2.3739   -0.0479    0.2894 C   0  0  0  0  0  0  0  0  0  0  0  0
   -1.2949    1.2319   -0.0860 C   0  0  0  0  0  0  0  0  0  0  0  0
   -0.4737   -1.6013    1.4614 C   0  0  0  0  0  0  0  0  0  0  0  0
    3.0349    0.9584   -0.3055 O   0  0  0  0  0  0  0  0  0  0  0  0
    2.9177   -0.9258    0.9423 O   0  0  0  0  0  0  0  0  0  0  0  0
   -1.7107    1.9126   -1.3761 C   0  0  0  0  0  0  0  0  0  0  0  0
    0.2885   -1.5529    2.5738 O   0  0  0  0  0  0  0  0  0  0  0  0
   -1.6911   -1.7284    1.5057 O   0  0  0  0  0  0  0  0  0  0  0  0
   -2.9769    1.6128   -1.7467 O   0  0  0  0  0  0  0  0  0  0  0  0
   -1.0033    2.6789   -2.0154 O   0  0  0  0  0  0  0  0  0  0  0  0
    0.7158    2.0655    0.0562 H   0  0  0  0  0  0  0  0  0  0  0  0
   -0.3881   -1.5813   -0.6800 H   0  0  0  0  0  0  0  0  0  0  0  0
    1.0275   -2.2364    0.0999 H   0  0  0  0  0  0  0  0  0  0  0  0
   -1.7789    0.2548   -0.0532 H   0  0  0  0  0  0  0  0  0  0  0  0
   -1.6632    1.8289    0.7540 H   0  0  0  0  0  0  0  0  0  0  0  0
    2.5007    1.5422   -0.8772 H   0  0  0  0  0  0  0  0  0  0  0  0
    1.2501   -1.4552    2.3963 H   0  0  0  0  0  0  0  0  0  0  0  0
   -3.4392    0.9885   -1.1525 H   0  0  0  0  0  0  0  0  0  0  0  0
  1  2  2  0  0  0  0
  1  3  1  0  0  0  0
  1  4  1  0  0  0  0
  2  5  1  0  0  0  0
  2 14  1  0  0  0  0
  3  6  1  0  0  0  0
  3 15  1  0  0  0  0
  3 16  1  0  0  0  0
  4  7  1  0  0  0  0
  4  8  2  0  0  0  0
  5  9  1  0  0  0  0
  5 17  1  0  0  0  0
  5 18  1  0  0  0  0
  6 10  1  0  0  0  0
  6 11  2  0  0  0  0
  7 19  1  0  0  0  0
  9 12  1  0  0  0  0
  9 13  2  0  0  0  0
 10 20  1  0  0  0  0
 12 21  1  0  0  0  0
M  END
>  <Mol_ID>
9566

>  <Formula>
C7H8O6

>  <MolWeight>
188.13482

>  <Cat>
E0992

>  <Name>
Triglochinic acid

>  <Synonyms>
N/A

>  <Target>
others

>  <Form>
free base

>  <CAS>
31795-12-7

>  <URL>
https://www.selleckchem.com/products/triglochinic-acid.html

$$$$
