Trigonelline
 OpenBabel08302521243D

 17 17  0  0  0  0  0  0  0  0999 V2000
    1.1270    1.2071    0.0101 C   0  0  0  0  0  0  0  0  0  0  0  0
   -0.2615    1.1775   -0.0046 C   0  0  0  0  0  0  0  0  0  0  0  0
   -0.9271    0.0022    0.0053 N   0  3  0  0  0  0  0  0  0  0  0  0
   -0.2583   -1.1714   -0.0019 C   0  0  0  0  0  0  0  0  0  0  0  0
    1.1291   -1.2005    0.0168 C   0  0  0  0  0  0  0  0  0  0  0  0
    1.8258    0.0085    0.0314 C   0  0  0  0  0  0  0  0  0  0  0  0
   -2.3917   -0.0326    0.0650 C   0  0  0  0  0  0  0  0  0  0  0  0
    1.8115   -2.5311    0.0309 C   0  0  0  0  0  0  0  0  0  0  0  0
    1.0370   -3.5313    0.0258 O   0  5  0  0  0  0  0  0  0  0  0  0
    3.0745   -2.5242    0.0505 O   0  0  0  0  0  0  0  0  0  0  0  0
    1.6651    2.1507    0.0130 H   0  0  0  0  0  0  0  0  0  0  0  0
   -0.8476    2.0902   -0.0165 H   0  0  0  0  0  0  0  0  0  0  0  0
   -0.8495   -2.0848   -0.0117 H   0  0  0  0  0  0  0  0  0  0  0  0
    2.9166   -0.0028    0.0585 H   0  0  0  0  0  0  0  0  0  0  0  0
   -2.7585   -0.6018   -0.7930 H   0  0  0  0  0  0  0  0  0  0  0  0
   -2.6738   -0.5143    1.0056 H   0  0  0  0  0  0  0  0  0  0  0  0
   -2.7923    0.9836    0.0366 H   0  0  0  0  0  0  0  0  0  0  0  0
  1  2  2  0  0  0  0
  1 11  1  0  0  0  0
  2  3  1  0  0  0  0
  2 12  1  0  0  0  0
  3  4  2  0  0  0  0
  3  7  1  0  0  0  0
  4  5  1  0  0  0  0
  4 13  1  0  0  0  0
  5  6  2  0  0  0  0
  5  8  1  0  0  0  0
  6  1  1  0  0  0  0
  6 14  1  0  0  0  0
  7 15  1  0  0  0  0
  7 16  1  0  0  0  0
  7 17  1  0  0  0  0
  8  9  1  0  0  0  0
  8 10  2  0  0  0  0
M  CHG  2   3   1   9  -1
M  END
>  <Mol_ID>
5110

>  <Formula>
C7H7NO2

>  <MolWeight>
137.13598

>  <Cat>
S3220

>  <Name>
Trigonelline

>  <Synonyms>
Trigenolline

>  <Target>
Akt,Anti-infection,Microtubule Associated,Phospholipase (e.g. PLA),PI3K

>  <Form>
free base

>  <CAS>
535-83-1

>  <URL>
http://www.selleckchem.com/products/trigonelline.html

$$$$
