Trimetazidine
 OpenBabel08302520343D

 41 42  0  0  0  0  0  0  0  0999 V2000
   -2.6976    1.1636    0.7736 N   0  0  0  0  0  0  0  0  0  0  0  0
   -3.4259    0.7669   -0.4522 C   0  0  0  0  0  0  0  0  0  0  0  0
   -1.8543    2.3499    0.4858 C   0  0  0  0  0  0  0  0  0  0  0  0
   -1.0090    2.2501   -0.8028 C   0  0  0  0  0  0  0  0  0  0  0  0
   -2.6740    0.8590   -1.8096 C   0  0  0  0  0  0  0  0  0  0  0  0
   -1.8559    2.0708   -1.9877 N   0  0  0  0  0  0  0  0  0  0  0  0
   -1.8625    0.0961    1.3551 C   0  0  0  0  0  0  0  0  0  0  0  0
   -2.5659   -1.0983    1.9738 C   0  0  0  0  0  0  0  0  0  0  0  0
   -2.4212   -3.5011    2.5661 C   0  0  0  0  0  0  0  0  0  0  0  0
   -1.8269   -2.2719    2.2152 C   0  0  0  0  0  0  0  0  0  0  0  0
   -3.7375   -3.4737    3.0238 C   0  0  0  0  0  0  0  0  0  0  0  0
   -3.8731   -1.0915    2.4586 C   0  0  0  0  0  0  0  0  0  0  0  0
   -4.4269   -2.2484    3.0153 C   0  0  0  0  0  0  0  0  0  0  0  0
   -1.6998   -4.6668    2.5767 O   0  0  0  0  0  0  0  0  0  0  0  0
   -0.4589   -2.1437    2.3599 O   0  0  0  0  0  0  0  0  0  0  0  0
   -4.4861   -4.4953    3.5473 O   0  0  0  0  0  0  0  0  0  0  0  0
   -3.9339   -5.8019    3.5841 C   0  0  0  0  0  0  0  0  0  0  0  0
   -0.2318   -1.6178    3.6895 C   0  0  0  0  0  0  0  0  0  0  0  0
   -0.9090   -4.8650    1.3977 C   0  0  0  0  0  0  0  0  0  0  0  0
   -3.8516   -0.2391   -0.3569 H   0  0  0  0  0  0  0  0  0  0  0  0
   -4.2913    1.4397   -0.5199 H   0  0  0  0  0  0  0  0  0  0  0  0
   -2.5159    3.2212    0.4011 H   0  0  0  0  0  0  0  0  0  0  0  0
   -1.1928    2.5700    1.3328 H   0  0  0  0  0  0  0  0  0  0  0  0
   -0.2841    1.4267   -0.7397 H   0  0  0  0  0  0  0  0  0  0  0  0
   -0.4222    3.1657   -0.9265 H   0  0  0  0  0  0  0  0  0  0  0  0
   -2.0400   -0.0187   -1.9462 H   0  0  0  0  0  0  0  0  0  0  0  0
   -3.4164    0.8408   -2.6191 H   0  0  0  0  0  0  0  0  0  0  0  0
   -2.4811    2.8743   -2.0526 H   0  0  0  0  0  0  0  0  0  0  0  0
   -1.1410   -0.2644    0.6098 H   0  0  0  0  0  0  0  0  0  0  0  0
   -1.2932    0.5498    2.1728 H   0  0  0  0  0  0  0  0  0  0  0  0
   -4.4469   -0.1657    2.4539 H   0  0  0  0  0  0  0  0  0  0  0  0
   -5.4231   -2.2006    3.4512 H   0  0  0  0  0  0  0  0  0  0  0  0
   -3.7415   -6.1797    2.5745 H   0  0  0  0  0  0  0  0  0  0  0  0
   -3.0417   -5.8486    4.2172 H   0  0  0  0  0  0  0  0  0  0  0  0
   -4.6820   -6.4585    4.0405 H   0  0  0  0  0  0  0  0  0  0  0  0
   -0.9823   -1.9365    4.4221 H   0  0  0  0  0  0  0  0  0  0  0  0
    0.7352   -1.9713    4.0360 H   0  0  0  0  0  0  0  0  0  0  0  0
   -0.1957   -0.5245    3.6599 H   0  0  0  0  0  0  0  0  0  0  0  0
   -1.3155   -4.3620    0.5116 H   0  0  0  0  0  0  0  0  0  0  0  0
    0.1202   -4.5437    1.5822 H   0  0  0  0  0  0  0  0  0  0  0  0
   -0.8871   -5.9382    1.1793 H   0  0  0  0  0  0  0  0  0  0  0  0
  2  1  1  0  0  0  0
  2 20  1  0  0  0  0
  2 21  1  0  0  0  0
  3  1  1  0  0  0  0
  3 22  1  0  0  0  0
  3 23  1  0  0  0  0
  4  3  1  0  0  0  0
  4 24  1  0  0  0  0
  4 25  1  0  0  0  0
  5  2  1  0  0  0  0
  5  6  1  0  0  0  0
  5 26  1  0  0  0  0
  5 27  1  0  0  0  0
  6  4  1  0  0  0  0
  6 28  1  0  0  0  0
  7  1  1  0  0  0  0
  7 29  1  0  0  0  0
  7 30  1  0  0  0  0
  8  7  1  0  0  0  0
  9 10  2  0  0  0  0
  9 11  1  0  0  0  0
 10  8  1  0  0  0  0
 11 13  2  0  0  0  0
 12  8  2  0  0  0  0
 12 31  1  0  0  0  0
 13 12  1  0  0  0  0
 13 32  1  0  0  0  0
 14  9  1  0  0  0  0
 14 19  1  0  0  0  0
 15 10  1  0  0  0  0
 15 18  1  0  0  0  0
 16 11  1  0  0  0  0
 17 16  1  0  0  0  0
 17 33  1  0  0  0  0
 17 34  1  0  0  0  0
 17 35  1  0  0  0  0
 18 36  1  0  0  0  0
 18 37  1  0  0  0  0
 18 38  1  0  0  0  0
 19 39  1  0  0  0  0
 19 40  1  0  0  0  0
 19 41  1  0  0  0  0
M  END
>  <Mol_ID>
3417

>  <Formula>
C14H22N2O3

>  <MolWeight>
266.33608

>  <Cat>
S5779

>  <Name>
Trimetazidine

>  <Synonyms>
N/A

>  <Target>
Others

>  <Form>
Free Base

>  <CAS>
5011-34-7

>  <URL>
http://www.selleckchem.com/products/trimetazidine.html

$$$$
