trimipramine maleate.cdx
 OpenBabel08302519583D

 60 61  0  0  0  0  0  0  0  0999 V2000
    0.2314   -0.3380   -1.7020 N   0  0  0  0  0  0  0  0  0  0  0  0
    1.4809   -0.0187   -1.1160 C   0  0  0  0  0  0  0  0  0  0  0  0
   -1.0040   -0.0766   -1.0469 C   0  0  0  0  0  0  0  0  0  0  0  0
    0.1446   -1.3248   -2.8225 C   0  0  0  0  0  0  0  0  0  0  0  0
    1.7379    1.2206   -0.4824 C   0  0  0  0  0  0  0  0  0  0  0  0
    2.5015   -0.9965   -1.0290 C   0  0  0  0  0  0  0  0  0  0  0  0
   -1.4073    1.2373   -0.7513 C   0  0  0  0  0  0  0  0  0  0  0  0
   -1.8379   -1.1299   -0.6278 C   0  0  0  0  0  0  0  0  0  0  0  0
    0.6425   -0.7281   -4.1661 C   0  0  3  0  0  0  0  0  0  0  0  0
    0.8130    2.4224   -0.4414 C   0  0  0  0  0  0  0  0  0  0  0  0
    2.9607    1.4192    0.2139 C   0  0  0  0  0  0  0  0  0  0  0  0
    3.6900   -0.7915   -0.3123 C   0  0  0  0  0  0  0  0  0  0  0  0
   -0.5455    2.4082   -1.1258 C   0  0  0  0  0  0  0  0  0  0  0  0
   -2.6421    1.4714   -0.1176 C   0  0  0  0  0  0  0  0  0  0  0  0
   -3.0408   -0.8916    0.0441 C   0  0  0  0  0  0  0  0  0  0  0  0
    0.6744   -1.8032   -5.2935 C   0  0  0  0  0  0  0  0  0  0  0  0
   -0.2639    0.4348   -4.5891 C   0  0  0  0  0  0  0  0  0  0  0  0
    3.9180    0.4187    0.3183 C   0  0  0  0  0  0  0  0  0  0  0  0
   -3.4509    0.4119    0.2843 C   0  0  0  0  0  0  0  0  0  0  0  0
    1.0533   -1.2618   -6.6149 N   0  0  0  0  0  0  0  0  0  0  0  0
    2.4419   -0.7992   -6.6601 C   0  0  0  0  0  0  0  0  0  0  0  0
    0.8189   -2.2095   -7.7051 C   0  0  0  0  0  0  0  0  0  0  0  0
    0.8032   -0.9213    2.2046 C   0  0  0  0  0  0  0  0  0  0  0  0
    0.2000   -2.1149    2.1515 C   0  0  0  0  0  0  0  0  0  0  0  0
    0.2020    0.3634    2.6157 C   0  0  0  0  0  0  0  0  0  0  0  0
   -1.1534   -2.4098    2.6455 C   0  0  0  0  0  0  0  0  0  0  0  0
    1.1516    1.2330    3.0286 O   0  0  0  0  0  0  0  0  0  0  0  0
   -0.9757    0.6520    2.5640 O   0  0  0  0  0  0  0  0  0  0  0  0
   -1.7000   -3.4494    1.9800 O   0  0  0  0  0  0  0  0  0  0  0  0
   -1.6749   -1.8899    3.6182 O   0  0  0  0  0  0  0  0  0  0  0  0
    0.6869   -2.2467   -2.5816 H   0  0  0  0  0  0  0  0  0  0  0  0
   -0.8926   -1.6505   -2.9820 H   0  0  0  0  0  0  0  0  0  0  0  0
    2.3693   -1.9815   -1.4625 H   0  0  0  0  0  0  0  0  0  0  0  0
   -1.5323   -2.1593   -0.7800 H   0  0  0  0  0  0  0  0  0  0  0  0
    1.6564   -0.3464   -4.0096 H   0  0  0  0  0  0  0  0  0  0  0  0
    0.6530    2.6751    0.6154 H   0  0  0  0  0  0  0  0  0  0  0  0
    1.3702    3.2666   -0.8766 H   0  0  0  0  0  0  0  0  0  0  0  0
    3.1473    2.3754    0.7039 H   0  0  0  0  0  0  0  0  0  0  0  0
    4.4212   -1.5920   -0.2308 H   0  0  0  0  0  0  0  0  0  0  0  0
   -0.4390    2.4616   -2.2100 H   0  0  0  0  0  0  0  0  0  0  0  0
   -1.0563    3.3402   -0.8461 H   0  0  0  0  0  0  0  0  0  0  0  0
   -2.9645    2.4853    0.1044 H   0  0  0  0  0  0  0  0  0  0  0  0
   -3.6413   -1.7194    0.4114 H   0  0  0  0  0  0  0  0  0  0  0  0
    1.3427   -2.6262   -5.0118 H   0  0  0  0  0  0  0  0  0  0  0  0
   -0.3357   -2.2310   -5.3701 H   0  0  0  0  0  0  0  0  0  0  0  0
   -0.2947    1.2034   -3.8217 H   0  0  0  0  0  0  0  0  0  0  0  0
    0.0973    0.9204   -5.4998 H   0  0  0  0  0  0  0  0  0  0  0  0
   -1.2881    0.0923   -4.7658 H   0  0  0  0  0  0  0  0  0  0  0  0
    4.8273    0.5861    0.8895 H   0  0  0  0  0  0  0  0  0  0  0  0
   -4.3755    0.6060    0.8203 H   0  0  0  0  0  0  0  0  0  0  0  0
    3.1501   -1.6115   -6.4674 H   0  0  0  0  0  0  0  0  0  0  0  0
    2.6696   -0.3734   -7.6447 H   0  0  0  0  0  0  0  0  0  0  0  0
    2.6229    0.0030   -5.9400 H   0  0  0  0  0  0  0  0  0  0  0  0
    1.5052   -3.0642   -7.6694 H   0  0  0  0  0  0  0  0  0  0  0  0
   -0.2093   -2.5895   -7.6896 H   0  0  0  0  0  0  0  0  0  0  0  0
    0.9473   -1.7129   -8.6682 H   0  0  0  0  0  0  0  0  0  0  0  0
    1.8259   -0.8662    1.8578 H   0  0  0  0  0  0  0  0  0  0  0  0
    0.7604   -2.9581    1.7652 H   0  0  0  0  0  0  0  0  0  0  0  0
    2.0608    0.8884    3.0006 H   0  0  0  0  0  0  0  0  0  0  0  0
   -1.2027   -3.7378    1.1944 H   0  0  0  0  0  0  0  0  0  0  0  0
  1  2  1  0  0  0  0
  1  3  1  0  0  0  0
  1  4  1  0  0  0  0
  2  5  2  0  0  0  0
  2  6  1  0  0  0  0
  3  8  1  0  0  0  0
  3  7  2  0  0  0  0
  4  9  1  0  0  0  0
  4 31  1  0  0  0  0
  4 32  1  0  0  0  0
  5 10  1  0  0  0  0
  5 11  1  0  0  0  0
  6 12  2  0  0  0  0
  6 33  1  0  0  0  0
  7 13  1  0  0  0  0
  7 14  1  0  0  0  0
  8 15  2  0  0  0  0
  8 34  1  0  0  0  0
  9 16  1  0  0  0  0
  9 17  1  0  0  0  0
  9 35  1  0  0  0  0
 10 13  1  0  0  0  0
 10 36  1  0  0  0  0
 10 37  1  0  0  0  0
 11 18  2  0  0  0  0
 11 38  1  0  0  0  0
 12 18  1  0  0  0  0
 12 39  1  0  0  0  0
 13 40  1  0  0  0  0
 13 41  1  0  0  0  0
 14 19  2  0  0  0  0
 14 42  1  0  0  0  0
 15 19  1  0  0  0  0
 15 43  1  0  0  0  0
 16 20  1  0  0  0  0
 16 44  1  0  0  0  0
 16 45  1  0  0  0  0
 17 46  1  0  0  0  0
 17 47  1  0  0  0  0
 17 48  1  0  0  0  0
 18 49  1  0  0  0  0
 19 50  1  0  0  0  0
 20 21  1  0  0  0  0
 20 22  1  0  0  0  0
 21 51  1  0  0  0  0
 21 52  1  0  0  0  0
 21 53  1  0  0  0  0
 22 54  1  0  0  0  0
 22 55  1  0  0  0  0
 22 56  1  0  0  0  0
 23 24  2  0  0  0  0
 23 25  1  0  0  0  0
 23 57  1  0  0  0  0
 24 26  1  0  0  0  0
 24 58  1  0  0  0  0
 25 27  1  0  0  0  0
 25 28  2  0  0  0  0
 26 29  1  0  0  0  0
 26 30  2  0  0  0  0
 27 59  1  0  0  0  0
 29 60  1  0  0  0  0
M  END
>  <Mol_ID>
2320

>  <Formula>
C24H30N2O4

>  <MolWeight>
410.506

>  <Cat>
S4416

>  <Name>
Trimipramine Maleate

>  <Synonyms>
N/A

>  <Target>
Others

>  <Form>
maleate

>  <CAS>
521-78-8

>  <URL>
http://www.selleckchem.com/products/trimipramine-maleate.html

$$$$
