Trimethoprim.cdx
 OpenBabel08302521533D

 39 40  0  0  0  0  0  0  0  0999 V2000
    0.0793    1.5012    0.6737 C   0  0  0  0  0  0  0  0  0  0  0  0
    0.7138    1.3353   -0.4886 N   0  0  0  0  0  0  0  0  0  0  0  0
    1.4152    0.2054   -0.6507 C   0  0  0  0  0  0  0  0  0  0  0  0
    1.5423   -0.7671    0.3355 C   0  0  0  0  0  0  0  0  0  0  0  0
    0.8404   -0.4816    1.4872 C   0  0  0  0  0  0  0  0  0  0  0  0
    0.1141    0.6365    1.6825 N   0  0  0  0  0  0  0  0  0  0  0  0
   -0.6177    2.6743    0.8856 N   0  0  0  0  0  0  0  0  0  0  0  0
    2.0509    0.0859   -1.8875 N   0  0  0  0  0  0  0  0  0  0  0  0
    2.3611   -2.0198    0.1479 C   0  0  0  0  0  0  0  0  0  0  0  0
    2.4095   -2.9847    1.3209 C   0  0  0  0  0  0  0  0  0  0  0  0
    1.4114   -3.9558    1.4653 C   0  0  0  0  0  0  0  0  0  0  0  0
    1.3579   -4.8071    2.5826 C   0  0  0  0  0  0  0  0  0  0  0  0
    2.3601   -4.7214    3.5746 C   0  0  0  0  0  0  0  0  0  0  0  0
    3.4174   -3.8005    3.3873 C   0  0  0  0  0  0  0  0  0  0  0  0
    3.4076   -2.9146    2.2953 C   0  0  0  0  0  0  0  0  0  0  0  0
    4.5065   -3.6206    4.2106 O   0  0  0  0  0  0  0  0  0  0  0  0
    5.0055   -4.7792    4.8748 C   0  0  0  0  0  0  0  0  0  0  0  0
    2.4001   -5.4325    4.7484 O   0  0  0  0  0  0  0  0  0  0  0  0
    1.3817   -6.3691    5.0614 C   0  0  0  0  0  0  0  0  0  0  0  0
    0.3514   -5.7241    2.7438 O   0  0  0  0  0  0  0  0  0  0  0  0
   -0.6446   -5.8271    1.7354 C   0  0  0  0  0  0  0  0  0  0  0  0
    0.8228   -1.1608    2.3365 H   0  0  0  0  0  0  0  0  0  0  0  0
   -0.2228    3.4053    0.3068 H   0  0  0  0  0  0  0  0  0  0  0  0
   -0.6497    2.8555    1.8823 H   0  0  0  0  0  0  0  0  0  0  0  0
    1.7538    0.8883   -2.4442 H   0  0  0  0  0  0  0  0  0  0  0  0
    1.8286   -0.7821   -2.3596 H   0  0  0  0  0  0  0  0  0  0  0  0
    1.9535   -2.5696   -0.7119 H   0  0  0  0  0  0  0  0  0  0  0  0
    3.3901   -1.7512   -0.1230 H   0  0  0  0  0  0  0  0  0  0  0  0
    0.6602   -4.0165    0.6839 H   0  0  0  0  0  0  0  0  0  0  0  0
    4.2032   -2.1755    2.2126 H   0  0  0  0  0  0  0  0  0  0  0  0
    4.4699   -4.9421    5.8144 H   0  0  0  0  0  0  0  0  0  0  0  0
    4.9838   -5.6717    4.2386 H   0  0  0  0  0  0  0  0  0  0  0  0
    6.0523   -4.5918    5.1363 H   0  0  0  0  0  0  0  0  0  0  0  0
    0.3960   -5.8958    5.1114 H   0  0  0  0  0  0  0  0  0  0  0  0
    1.4031   -7.2165    4.3688 H   0  0  0  0  0  0  0  0  0  0  0  0
    1.5899   -6.7662    6.0602 H   0  0  0  0  0  0  0  0  0  0  0  0
   -1.1791   -4.8801    1.6035 H   0  0  0  0  0  0  0  0  0  0  0  0
   -0.2068   -6.1734    0.7934 H   0  0  0  0  0  0  0  0  0  0  0  0
   -1.3747   -6.5736    2.0597 H   0  0  0  0  0  0  0  0  0  0  0  0
  1  2  2  0  0  0  0
  1  6  1  0  0  0  0
  1  7  1  0  0  0  0
  2  3  1  0  0  0  0
  3  4  2  0  0  0  0
  3  8  1  0  0  0  0
  4  5  1  0  0  0  0
  4  9  1  0  0  0  0
  5  6  2  0  0  0  0
  5 22  1  0  0  0  0
  7 23  1  0  0  0  0
  7 24  1  0  0  0  0
  8 25  1  0  0  0  0
  8 26  1  0  0  0  0
  9 10  1  0  0  0  0
  9 27  1  0  0  0  0
  9 28  1  0  0  0  0
 10 11  2  0  0  0  0
 10 15  1  0  0  0  0
 11 12  1  0  0  0  0
 11 29  1  0  0  0  0
 12 13  2  0  0  0  0
 12 20  1  0  0  0  0
 13 14  1  0  0  0  0
 13 18  1  0  0  0  0
 14 15  2  0  0  0  0
 14 16  1  0  0  0  0
 15 30  1  0  0  0  0
 16 17  1  0  0  0  0
 17 31  1  0  0  0  0
 17 32  1  0  0  0  0
 17 33  1  0  0  0  0
 18 19  1  0  0  0  0
 19 34  1  0  0  0  0
 19 35  1  0  0  0  0
 19 36  1  0  0  0  0
 20 21  1  0  0  0  0
 21 37  1  0  0  0  0
 21 38  1  0  0  0  0
 21 39  1  0  0  0  0
M  END
>  <Mol_ID>
984

>  <Formula>
C14H18N4O3

>  <MolWeight>
290.31772

>  <Cat>
S3129

>  <Name>
Trimethoprim

>  <Synonyms>
BW 56-72, NIH 204, NSC-106568

>  <Target>
Antibiotics,Bacterial,DHFR

>  <Form>
free base

>  <CAS>
738-70-5

>  <URL>
http://selleckchem.com/products/trimethoprim.html

$$$$
