Trimetazidine (dihydrochloride).cdx
 OpenBabel08302519503D

 41 42  0  0  0  0  0  0  0  0999 V2000
    1.4005   -0.2412    0.4299 C   0  0  0  0  0  0  0  0  0  0  0  0
    0.6283   -1.3540    0.0245 C   0  0  0  0  0  0  0  0  0  0  0  0
    2.9105   -0.0889    0.3241 C   0  0  0  0  0  0  0  0  0  0  0  0
    0.7207    0.9108    0.8745 C   0  0  0  0  0  0  0  0  0  0  0  0
   -0.8011   -1.2647    0.0200 C   0  0  0  0  0  0  0  0  0  0  0  0
    1.1364   -2.5046   -0.5296 O   0  0  0  0  0  0  0  0  0  0  0  0
    3.3966    0.2061   -1.0413 N   0  0  0  0  0  0  0  0  0  0  0  0
   -0.6648    1.0082    0.8205 C   0  0  0  0  0  0  0  0  0  0  0  0
   -1.4375   -0.0583    0.3697 C   0  0  0  0  0  0  0  0  0  0  0  0
   -1.6091   -2.2960   -0.4031 O   0  0  0  0  0  0  0  0  0  0  0  0
    2.2623   -3.1060    0.0908 C   0  0  0  0  0  0  0  0  0  0  0  0
    4.8748    0.2868   -1.0719 C   0  0  0  0  0  0  0  0  0  0  0  0
    2.8495    1.4604   -1.6058 C   0  0  0  0  0  0  0  0  0  0  0  0
   -2.7702    0.2625    0.3422 O   0  0  0  0  0  0  0  0  0  0  0  0
   -1.3278   -3.5813    0.1393 C   0  0  0  0  0  0  0  0  0  0  0  0
    5.4807    1.5965   -0.5095 C   0  0  0  0  0  0  0  0  0  0  0  0
    3.4297    2.7528   -0.9881 C   0  0  0  0  0  0  0  0  0  0  0  0
   -3.6804   -0.6019   -0.3177 C   0  0  0  0  0  0  0  0  0  0  0  0
    4.8962    2.8166   -1.0908 N   0  0  0  0  0  0  0  0  0  0  0  0
    3.2435    0.6862    1.0268 H   0  0  0  0  0  0  0  0  0  0  0  0
    3.3959   -0.9877    0.7044 H   0  0  0  0  0  0  0  0  0  0  0  0
    1.2797    1.7889    1.1925 H   0  0  0  0  0  0  0  0  0  0  0  0
   -1.1440    1.9480    1.0885 H   0  0  0  0  0  0  0  0  0  0  0  0
    3.1669   -2.8370   -0.4610 H   0  0  0  0  0  0  0  0  0  0  0  0
    2.3525   -2.8688    1.1558 H   0  0  0  0  0  0  0  0  0  0  0  0
    2.1513   -4.1928    0.0108 H   0  0  0  0  0  0  0  0  0  0  0  0
    5.3165   -0.5739   -0.5558 H   0  0  0  0  0  0  0  0  0  0  0  0
    5.1937    0.1905   -2.1220 H   0  0  0  0  0  0  0  0  0  0  0  0
    3.0786    1.4613   -2.6832 H   0  0  0  0  0  0  0  0  0  0  0  0
    1.7568    1.4834   -1.5610 H   0  0  0  0  0  0  0  0  0  0  0  0
   -0.7418   -4.1652   -0.5779 H   0  0  0  0  0  0  0  0  0  0  0  0
   -0.8268   -3.5444    1.1127 H   0  0  0  0  0  0  0  0  0  0  0  0
   -2.2830   -4.1036    0.2785 H   0  0  0  0  0  0  0  0  0  0  0  0
    5.3650    1.6313    0.5802 H   0  0  0  0  0  0  0  0  0  0  0  0
    6.5597    1.6055   -0.7079 H   0  0  0  0  0  0  0  0  0  0  0  0
    3.1379    2.8513    0.0644 H   0  0  0  0  0  0  0  0  0  0  0  0
    3.0043    3.6212   -1.5054 H   0  0  0  0  0  0  0  0  0  0  0  0
   -3.3451   -0.8695   -1.3248 H   0  0  0  0  0  0  0  0  0  0  0  0
   -3.8837   -1.4814    0.2998 H   0  0  0  0  0  0  0  0  0  0  0  0
   -4.6241   -0.0570   -0.4308 H   0  0  0  0  0  0  0  0  0  0  0  0
    5.1351    2.8346   -2.0832 H   0  0  0  0  0  0  0  0  0  0  0  0
  1  2  2  0  0  0  0
  1  3  1  0  0  0  0
  1  4  1  0  0  0  0
  2  5  1  0  0  0  0
  2  6  1  0  0  0  0
  3  7  1  0  0  0  0
  3 20  1  0  0  0  0
  3 21  1  0  0  0  0
  4  8  2  0  0  0  0
  4 22  1  0  0  0  0
  5  9  2  0  0  0  0
  5 10  1  0  0  0  0
  6 11  1  0  0  0  0
  7 12  1  0  0  0  0
  7 13  1  0  0  0  0
  8  9  1  0  0  0  0
  8 23  1  0  0  0  0
  9 14  1  0  0  0  0
 10 15  1  0  0  0  0
 11 24  1  0  0  0  0
 11 25  1  0  0  0  0
 11 26  1  0  0  0  0
 12 16  1  0  0  0  0
 12 27  1  0  0  0  0
 12 28  1  0  0  0  0
 13 17  1  0  0  0  0
 13 29  1  0  0  0  0
 13 30  1  0  0  0  0
 14 18  1  0  0  0  0
 15 31  1  0  0  0  0
 15 32  1  0  0  0  0
 15 33  1  0  0  0  0
 16 19  1  0  0  0  0
 16 34  1  0  0  0  0
 16 35  1  0  0  0  0
 17 19  1  0  0  0  0
 17 36  1  0  0  0  0
 17 37  1  0  0  0  0
 18 38  1  0  0  0  0
 18 39  1  0  0  0  0
 18 40  1  0  0  0  0
 19 41  1  0  0  0  0
M  END
>  <Mol_ID>
1501

>  <Formula>
C14H24Cl2N2O3

>  <MolWeight>
339.25796

>  <Cat>
S4543

>  <Name>
Trimetazidine dihydrochloride

>  <Synonyms>
Yoshimilon, Kyurinett, Vastarel F

>  <Target>
FAO

>  <Form>
Dihydrochloride

>  <CAS>
13171-25-0

>  <URL>
http://selleckchem.com/products/trimetazidine-dihydrochloride.html

$$$$
