Tripelennamine hydrochloride.cdx
 OpenBabel08302521383D

 40 41  0  0  0  0  0  0  0  0999 V2000
    0.2468   -0.4793    0.1827 C   0  0  0  0  0  0  0  0  0  0  0  0
    0.2406   -0.4907   -1.3605 C   0  0  0  0  0  0  0  0  0  0  0  0
   -0.3041    0.7673    0.7724 N   0  0  0  0  0  0  0  0  0  0  0  0
    0.8122   -1.7066   -1.9510 N   0  0  0  0  0  0  0  0  0  0  0  0
   -0.0324   -2.7815   -2.1765 C   0  0  0  0  0  0  0  0  0  0  0  0
    0.2503   -3.7184   -3.1740 C   0  0  0  0  0  0  0  0  0  0  0  0
   -0.6434   -4.7559   -3.4394 C   0  0  0  0  0  0  0  0  0  0  0  0
   -1.7990   -4.8597   -2.6834 C   0  0  0  0  0  0  0  0  0  0  0  0
   -2.0112   -3.9092   -1.7052 C   0  0  0  0  0  0  0  0  0  0  0  0
   -1.1699   -2.8793   -1.4539 N   0  0  0  0  0  0  0  0  0  0  0  0
    2.2580   -1.8991   -1.9311 C   0  0  0  0  0  0  0  0  0  0  0  0
    2.9643   -1.3648   -3.1634 C   0  0  0  0  0  0  0  0  0  0  0  0
    2.2942   -0.7228   -4.2156 C   0  0  0  0  0  0  0  0  0  0  0  0
    2.9903   -0.2595   -5.3332 C   0  0  0  0  0  0  0  0  0  0  0  0
    4.3695   -0.4298   -5.4145 C   0  0  0  0  0  0  0  0  0  0  0  0
    5.0537   -1.0579   -4.3764 C   0  0  0  0  0  0  0  0  0  0  0  0
    4.3574   -1.5207   -3.2582 C   0  0  0  0  0  0  0  0  0  0  0  0
   -1.7393    0.8945    0.5059 C   0  0  0  0  0  0  0  0  0  0  0  0
   -0.0746    0.7782    2.2195 C   0  0  0  0  0  0  0  0  0  0  0  0
    1.2912   -0.5696    0.5075 H   0  0  0  0  0  0  0  0  0  0  0  0
   -0.2757   -1.3576    0.5821 H   0  0  0  0  0  0  0  0  0  0  0  0
   -0.7735   -0.3460   -1.7509 H   0  0  0  0  0  0  0  0  0  0  0  0
    0.8165    0.3749   -1.7172 H   0  0  0  0  0  0  0  0  0  0  0  0
    1.1375   -3.6201   -3.7898 H   0  0  0  0  0  0  0  0  0  0  0  0
   -0.4393   -5.4610   -4.2394 H   0  0  0  0  0  0  0  0  0  0  0  0
   -2.5177   -5.6519   -2.8582 H   0  0  0  0  0  0  0  0  0  0  0  0
   -2.8950   -3.9428   -1.0760 H   0  0  0  0  0  0  0  0  0  0  0  0
    2.6860   -1.3951   -1.0562 H   0  0  0  0  0  0  0  0  0  0  0  0
    2.5101   -2.9604   -1.8159 H   0  0  0  0  0  0  0  0  0  0  0  0
    1.2163   -0.5790   -4.1769 H   0  0  0  0  0  0  0  0  0  0  0  0
    2.4521    0.2342   -6.1379 H   0  0  0  0  0  0  0  0  0  0  0  0
    4.9111   -0.0704   -6.2850 H   0  0  0  0  0  0  0  0  0  0  0  0
    6.1310   -1.1865   -4.4392 H   0  0  0  0  0  0  0  0  0  0  0  0
    4.9101   -2.0080   -2.4569 H   0  0  0  0  0  0  0  0  0  0  0  0
   -2.3059    0.0268    0.8627 H   0  0  0  0  0  0  0  0  0  0  0  0
   -2.1433    1.7904    0.9928 H   0  0  0  0  0  0  0  0  0  0  0  0
   -1.9370    1.0255   -0.5628 H   0  0  0  0  0  0  0  0  0  0  0  0
   -0.5815   -0.0516    2.7251 H   0  0  0  0  0  0  0  0  0  0  0  0
    0.9965    0.7184    2.4425 H   0  0  0  0  0  0  0  0  0  0  0  0
   -0.4305    1.7180    2.6570 H   0  0  0  0  0  0  0  0  0  0  0  0
  1  2  1  0  0  0  0
  1  3  1  0  0  0  0
  1 20  1  0  0  0  0
  1 21  1  0  0  0  0
  2  4  1  0  0  0  0
  2 22  1  0  0  0  0
  2 23  1  0  0  0  0
  3 18  1  0  0  0  0
  3 19  1  0  0  0  0
  4  5  1  0  0  0  0
  4 11  1  0  0  0  0
  5  6  2  0  0  0  0
  5 10  1  0  0  0  0
  6  7  1  0  0  0  0
  6 24  1  0  0  0  0
  7  8  2  0  0  0  0
  7 25  1  0  0  0  0
  8  9  1  0  0  0  0
  8 26  1  0  0  0  0
  9 10  2  0  0  0  0
  9 27  1  0  0  0  0
 11 12  1  0  0  0  0
 11 28  1  0  0  0  0
 11 29  1  0  0  0  0
 12 13  2  0  0  0  0
 12 17  1  0  0  0  0
 13 14  1  0  0  0  0
 13 30  1  0  0  0  0
 14 15  2  0  0  0  0
 14 31  1  0  0  0  0
 15 16  1  0  0  0  0
 15 32  1  0  0  0  0
 16 17  2  0  0  0  0
 16 33  1  0  0  0  0
 17 34  1  0  0  0  0
 18 35  1  0  0  0  0
 18 36  1  0  0  0  0
 18 37  1  0  0  0  0
 19 38  1  0  0  0  0
 19 39  1  0  0  0  0
 19 40  1  0  0  0  0
M  END
>  <Mol_ID>
7747

>  <Formula>
C16H22ClN3

>  <MolWeight>
291.81898

>  <Cat>
S3146

>  <Name>
Tripelennamine HCl

>  <Synonyms>
Pyribenzamine HCl

>  <Target>
Histamine Receptor

>  <Form>
HCl

>  <CAS>
154-69-8

>  <URL>
http://selleckchem.com/products/tripelennamine-hydrochloride.html

$$$$
