Tripterifordin
 OpenBabel08302521572D

 53 57  0  0  1  0  0  0  0  0999 V2000
    9.0347    1.4726    0.0000 C   0  0  0  0  0  0  0  0  0  0  0  0
    0.0000    3.1996    0.0000 C   0  0  0  0  0  0  0  0  0  0  0  0
    0.6669    1.5007    0.0000 O   0  0  0  0  0  0  0  0  0  0  0  0
    9.8542    3.2701    0.0000 O   0  0  0  0  0  0  0  0  0  0  0  0
    4.2656    3.2004    0.0000 C   0  0  1  0  0  0  0  0  0  0  0  0
    5.6095    3.2214    0.0000 C   0  0  2  0  0  0  0  0  0  0  0  0
    3.6205    2.0829    0.0000 C   0  0  1  0  0  0  0  0  0  0  0  0
    3.7941    4.4016    0.0000 C   0  0  0  0  0  0  0  0  0  0  0  0
    6.2906    2.0625    0.0000 C   0  0  1  0  0  0  0  0  0  0  0  0
    6.2814    4.4496    0.0000 C   0  0  0  0  0  0  0  0  0  0  0  0
    4.2930    1.7608    0.0000 C   0  0  0  0  0  0  0  0  0  0  0  0
    2.8789    3.4152    0.0000 C   0  0  0  0  0  0  0  0  0  0  0  0
    2.3447    1.8905    0.0000 C   0  0  0  0  0  0  0  0  0  0  0  0
    4.2747    0.9089    0.0000 C   0  0  0  0  0  0  0  0  0  0  0  0
    2.5612    4.7819    0.0000 C   0  0  0  0  0  0  0  0  0  0  0  0
    7.6905    2.0519    0.0000 C   0  0  1  0  0  0  0  0  0  0  0  0
    5.6184    0.8986    0.0000 C   0  0  0  0  0  0  0  0  0  0  0  0
    7.6811    4.4712    0.0000 O   0  0  0  0  0  0  0  0  0  0  0  0
    5.1686    0.0000    0.0000 C   0  0  0  0  0  0  0  0  0  0  0  0
    1.4951    4.0550    0.0000 C   0  0  1  0  0  0  0  0  0  0  0  0
    1.3988    2.7683    0.0000 C   0  0  1  0  0  0  0  0  0  0  0  0
    8.3904    3.2644    0.0000 C   0  0  0  0  0  0  0  0  0  0  0  0
    7.1275    0.1679    0.0000 C   0  0  0  0  0  0  0  0  0  0  0  0
    9.1593    0.4099    0.0000 H   0  0  0  0  0  0  0  0  0  0  0  0
    9.8928    2.1118    0.0000 H   0  0  0  0  0  0  0  0  0  0  0  0
   10.0173    1.0491    0.0000 H   0  0  0  0  0  0  0  0  0  0  0  0
   -0.2382    4.2427    0.0000 H   0  0  0  0  0  0  0  0  0  0  0  0
   -0.7843    2.4717    0.0000 H   0  0  0  0  0  0  0  0  0  0  0  0
   -1.0225    3.5149    0.0000 H   0  0  0  0  0  0  0  0  0  0  0  0
   -0.3031    1.5007    0.0000 H   0  0  0  0  0  0  0  0  0  0  0  0
    4.8614    4.0892    0.0000 H   0  0  0  0  0  0  0  0  0  0  0  0
    4.5219    5.1860    0.0000 H   0  0  0  0  0  0  0  0  0  0  0  0
    3.5172    5.4351    0.0000 H   0  0  0  0  0  0  0  0  0  0  0  0
    5.2206    2.0584    0.0000 H   0  0  0  0  0  0  0  0  0  0  0  0
    5.7287    5.3658    0.0000 H   0  0  0  0  0  0  0  0  0  0  0  0
    6.8003    5.3854    0.0000 H   0  0  0  0  0  0  0  0  0  0  0  0
    3.2329    1.9059    0.0000 H   0  0  0  0  0  0  0  0  0  0  0  0
    3.6690    0.8916    0.0000 H   0  0  0  0  0  0  0  0  0  0  0  0
    3.6067    4.1996    0.0000 H   0  0  0  0  0  0  0  0  0  0  0  0
    2.6717    4.4649    0.0000 H   0  0  0  0  0  0  0  0  0  0  0  0
    2.0293    0.8680    0.0000 H   0  0  0  0  0  0  0  0  0  0  0  0
    1.3111    1.6136    0.0000 H   0  0  0  0  0  0  0  0  0  0  0  0
    3.7291   -0.0116    0.0000 H   0  0  0  0  0  0  0  0  0  0  0  0
    4.8008   -0.0228    0.0000 H   0  0  0  0  0  0  0  0  0  0  0  0
    2.4017    5.8399    0.0000 H   0  0  0  0  0  0  0  0  0  0  0  0
    1.5805    5.2098    0.0000 H   0  0  0  0  0  0  0  0  0  0  0  0
    6.1498   -0.0301    0.0000 H   0  0  0  0  0  0  0  0  0  0  0  0
    5.0780   -0.0249    0.0000 H   0  0  0  0  0  0  0  0  0  0  0  0
    4.6445   -0.9328    0.0000 H   0  0  0  0  0  0  0  0  0  0  0  0
    5.7480   -0.8996    0.0000 H   0  0  0  0  0  0  0  0  0  0  0  0
    2.5614    4.1434    0.0000 H   0  0  0  0  0  0  0  0  0  0  0  0
    7.8028   -0.6621    0.0000 H   0  0  0  0  0  0  0  0  0  0  0  0
    6.7097   -0.8171    0.0000 H   0  0  0  0  0  0  0  0  0  0  0  0
  1 24  1  0  0  0  0
  1 25  1  0  0  0  0
  1 26  1  0  0  0  0
  2 27  1  0  0  0  0
  2 28  1  0  0  0  0
  2 29  1  0  0  0  0
  3 30  1  0  0  0  0
  4 22  2  0  0  0  0
  5  6  1  0  0  0  0
  5  7  1  0  0  0  0
  5  8  1  0  0  0  0
  5 31  1  6  0  0  0
  6  9  1  0  0  0  0
  6 10  1  6  0  0  0
  6 11  1  0  0  0  0
  7 12  1  1  0  0  0
  7 13  1  0  0  0  0
  7 14  1  0  0  0  0
  8 15  1  0  0  0  0
  8 32  1  0  0  0  0
  8 33  1  0  0  0  0
  9 16  1  0  0  0  0
  9 17  1  0  0  0  0
  9 34  1  6  0  0  0
 10 18  1  0  0  0  0
 10 35  1  0  0  0  0
 10 36  1  0  0  0  0
 11 19  1  0  0  0  0
 11 37  1  0  0  0  0
 11 38  1  0  0  0  0
 12 39  1  0  0  0  0
 12 40  1  0  0  0  0
 13 21  1  0  0  0  0
 13 41  1  0  0  0  0
 13 42  1  0  0  0  0
 14 17  1  0  0  0  0
 14 43  1  0  0  0  0
 14 44  1  0  0  0  0
 15 45  1  0  0  0  0
 15 46  1  0  0  0  0
 16  1  1  1  0  0  0
 16 22  1  0  0  0  0
 16 23  1  0  0  0  0
 17 47  1  0  0  0  0
 17 48  1  0  0  0  0
 18 22  1  0  0  0  0
 19 23  1  0  0  0  0
 19 49  1  0  0  0  0
 19 50  1  0  0  0  0
 20 12  1  0  0  0  0
 20 15  1  0  0  0  0
 20 21  1  0  0  0  0
 20 51  1  1  0  0  0
 21  2  1  0  0  0  0
 21  3  1  1  0  0  0
 23 52  1  0  0  0  0
 23 53  1  0  0  0  0
M  END
>  <Mol_ID>
9787

>  <Formula>
C20H30O3

>  <MolWeight>
318.4504

>  <Cat>
E2318

>  <Name>
Tripterifordin

>  <Synonyms>
N/A

>  <Target>
HIV

>  <Form>
free base

>  <CAS>
139122-81-9

>  <URL>
https://www.selleckchem.com/products/tripterifordin.html

$$$$
