Triptolide.cdx
 OpenBabel08302522003D

 50 56  0  0  0  0  0  0  0  0999 V2000
    0.6294    1.8908    0.1533 C   0  0  1  0  0  0  0  0  0  0  0  0
   -0.8821    1.7273    0.3296 C   0  0  1  0  0  0  0  0  0  0  0  0
    1.2278    0.6087   -0.4350 C   0  0  2  0  0  0  0  0  0  0  0  0
    1.1650    3.2909    0.0838 C   0  0  2  0  0  0  0  0  0  0  0  0
   -1.5986    2.5129   -0.7459 C   0  0  1  0  0  0  0  0  0  0  0  0
   -1.4623    0.4795    0.8862 C   0  0  1  0  0  0  0  0  0  0  0  0
   -1.6790    2.8976    0.6222 O   0  0  0  0  0  0  0  0  0  0  0  0
    0.4000   -0.6738   -0.5394 C   0  0  1  0  0  0  0  0  0  0  0  0
    0.4360    4.0205   -1.1033 C   0  0  1  0  0  0  0  0  0  0  0  0
    2.6847    3.5025   -0.2079 C   0  0  0  0  0  0  0  0  0  0  0  0
   -0.9019    3.4807   -1.6256 C   0  0  0  0  0  0  0  0  0  0  0  0
   -0.9721   -0.7341    0.1359 C   0  0  2  0  0  0  0  0  0  0  0  0
   -1.1044    0.3973    2.2652 O   0  0  0  0  0  0  0  0  0  0  0  0
   -0.8092   -0.5320   -1.2913 O   0  0  0  0  0  0  0  0  0  0  0  0
    0.5840    5.4744   -0.8226 C   0  0  0  0  0  0  0  0  0  0  0  0
    3.0192    4.9888   -0.6204 C   0  0  0  0  0  0  0  0  0  0  0  0
   -1.6545   -2.0598    0.4134 C   0  0  0  0  0  0  0  0  0  0  0  0
    1.8281    5.9005   -0.5915 C   0  0  0  0  0  0  0  0  0  0  0  0
   -0.4240    6.4040   -0.2929 C   0  0  0  0  0  0  0  0  0  0  0  0
   -3.1585   -1.9687    0.1279 C   0  0  0  0  0  0  0  0  0  0  0  0
   -1.3865   -2.5694    1.8274 C   0  0  0  0  0  0  0  0  0  0  0  0
    1.6899    7.1706    0.1192 C   0  0  0  0  0  0  0  0  0  0  0  0
    0.3677    7.4623    0.2550 O   0  0  0  0  0  0  0  0  0  0  0  0
    2.6175    7.8287    0.5724 O   0  0  0  0  0  0  0  0  0  0  0  0
    1.4833    1.0147    0.9116 O   0  0  0  0  0  0  0  0  0  0  0  0
    0.9312    3.8779    1.5304 C   0  0  0  0  0  0  0  0  0  0  0  0
    2.0434    0.7065   -1.1419 H   0  0  0  0  0  0  0  0  0  0  0  0
   -2.4700    2.0725   -1.2153 H   0  0  0  0  0  0  0  0  0  0  0  0
   -2.5537    0.5400    0.8443 H   0  0  0  0  0  0  0  0  0  0  0  0
    0.9517   -1.6030   -0.6303 H   0  0  0  0  0  0  0  0  0  0  0  0
    1.0663    3.8557   -1.9978 H   0  0  0  0  0  0  0  0  0  0  0  0
    3.2882    3.2249    0.6658 H   0  0  0  0  0  0  0  0  0  0  0  0
    3.0157    2.8390   -1.0167 H   0  0  0  0  0  0  0  0  0  0  0  0
   -0.6927    2.9274   -2.5550 H   0  0  0  0  0  0  0  0  0  0  0  0
   -1.5786    4.2889   -1.9242 H   0  0  0  0  0  0  0  0  0  0  0  0
   -1.1673    1.3019    2.6226 H   0  0  0  0  0  0  0  0  0  0  0  0
    3.8230    5.3664    0.0190 H   0  0  0  0  0  0  0  0  0  0  0  0
    3.4128    4.9803   -1.6462 H   0  0  0  0  0  0  0  0  0  0  0  0
   -1.2473   -2.8107   -0.2778 H   0  0  0  0  0  0  0  0  0  0  0  0
   -1.0849    6.8047   -1.0646 H   0  0  0  0  0  0  0  0  0  0  0  0
   -1.0283    5.9634    0.5095 H   0  0  0  0  0  0  0  0  0  0  0  0
   -3.6720   -1.3178    0.8430 H   0  0  0  0  0  0  0  0  0  0  0  0
   -3.3380   -1.5647   -0.8747 H   0  0  0  0  0  0  0  0  0  0  0  0
   -3.6270   -2.9552    0.1842 H   0  0  0  0  0  0  0  0  0  0  0  0
   -1.6780   -1.8507    2.5973 H   0  0  0  0  0  0  0  0  0  0  0  0
   -0.3198   -2.7813    1.9597 H   0  0  0  0  0  0  0  0  0  0  0  0
   -1.9450   -3.4892    2.0254 H   0  0  0  0  0  0  0  0  0  0  0  0
    1.5919    4.7157    1.7716 H   0  0  0  0  0  0  0  0  0  0  0  0
    1.1345    3.1180    2.2963 H   0  0  0  0  0  0  0  0  0  0  0  0
   -0.0925    4.2177    1.6944 H   0  0  0  0  0  0  0  0  0  0  0  0
  1  2  1  0  0  0  0
  1  3  1  0  0  0  0
  1  4  1  0  0  0  0
  1 25  1  1  0  0  0
  2  5  1  0  0  0  0
  2  6  1  0  0  0  0
  2  7  1  1  0  0  0
  3  8  1  0  0  0  0
  3 25  1  0  0  0  0
  3 27  1  6  0  0  0
  4  9  1  0  0  0  0
  4 10  1  0  0  0  0
  4 26  1  1  0  0  0
  5 11  1  0  0  0  0
  5  7  1  0  0  0  0
  5 28  1  6  0  0  0
  6 12  1  0  0  0  0
  6 13  1  0  0  0  0
  6 29  1  6  0  0  0
  8 14  1  0  0  0  0
  8 12  1  0  0  0  0
  8 30  1  6  0  0  0
  9 15  1  0  0  0  0
  9 11  1  0  0  0  0
  9 31  1  6  0  0  0
 10 16  1  0  0  0  0
 10 32  1  0  0  0  0
 10 33  1  0  0  0  0
 11 34  1  0  0  0  0
 11 35  1  0  0  0  0
 12 17  1  1  0  0  0
 12 14  1  0  0  0  0
 13 36  1  0  0  0  0
 15 18  2  0  0  0  0
 15 19  1  0  0  0  0
 16 18  1  0  0  0  0
 16 37  1  0  0  0  0
 16 38  1  0  0  0  0
 17 20  1  0  0  0  0
 17 21  1  0  0  0  0
 17 39  1  0  0  0  0
 18 22  1  0  0  0  0
 19 23  1  0  0  0  0
 19 40  1  0  0  0  0
 19 41  1  0  0  0  0
 20 42  1  0  0  0  0
 20 43  1  0  0  0  0
 20 44  1  0  0  0  0
 21 45  1  0  0  0  0
 21 46  1  0  0  0  0
 21 47  1  0  0  0  0
 22 24  2  0  0  0  0
 22 23  1  0  0  0  0
 26 48  1  0  0  0  0
 26 49  1  0  0  0  0
 26 50  1  0  0  0  0
M  END
>  <Mol_ID>
1062

>  <Formula>
C20H24O6

>  <MolWeight>
360.40096

>  <Cat>
S3604

>  <Name>
Triptolide (PG490)

>  <Synonyms>
NSC 163062

>  <Target>
ADC Cytotoxin,Apoptosis related,HSP (HSP90),MDM2/MDMX,NF-¦ÊB

>  <Form>
free base

>  <CAS>
38748-32-2

>  <URL>
http://selleckchem.com/products/triptolide.html

$$$$
