Tris(2-butoxyethyl) phosphate
 OpenBabel08302521343D

 65 64  0  0  0  0  0  0  0  0999 V2000
    1.0710    0.0704    0.0014 P   0  0  0  0  0  0  0  0  0  0  0  0
    0.9017    0.1916   -1.6671 O   0  0  0  0  0  0  0  0  0  0  0  0
    0.9232   -1.4979    0.5000 O   0  0  0  0  0  0  0  0  0  0  0  0
   -0.6590    0.0704    0.0014 O   0  0  0  0  0  0  0  0  0  0  0  0
    2.6194    0.0704    0.0014 O   0  0  0  0  0  0  0  0  0  0  0  0
    1.0194    1.5824   -2.0777 C   0  0  0  0  0  0  0  0  0  0  0  0
    1.1418   -1.6763    1.9315 C   0  0  0  0  0  0  0  0  0  0  0  0
   -1.0621    1.3423    0.6163 C   0  0  0  0  0  0  0  0  0  0  0  0
    0.5625    2.0047   -3.4801 C   0  0  0  0  0  0  0  0  0  0  0  0
    0.0589   -1.0096    2.8105 C   0  0  0  0  0  0  0  0  0  0  0  0
   -2.4891    1.7046    1.0870 C   0  0  0  0  0  0  0  0  0  0  0  0
    0.7907    3.4275   -3.6078 O   0  0  0  0  0  0  0  0  0  0  0  0
    0.0431   -1.2619    4.2131 O   0  0  0  0  0  0  0  0  0  0  0  0
   -2.3590    3.0892    1.5201 O   0  0  0  0  0  0  0  0  0  0  0  0
   -0.3489    4.2788   -3.7915 C   0  0  0  0  0  0  0  0  0  0  0  0
    1.0996   -0.7552    5.0239 C   0  0  0  0  0  0  0  0  0  0  0  0
   -3.1942    3.5635    2.5793 C   0  0  0  0  0  0  0  0  0  0  0  0
   -0.6771    5.0597   -2.5062 C   0  0  0  0  0  0  0  0  0  0  0  0
    1.4355    0.7426    4.9321 C   0  0  0  0  0  0  0  0  0  0  0  0
   -2.3294    4.2653    3.6492 C   0  0  0  0  0  0  0  0  0  0  0  0
   -1.6612    6.2220   -2.7238 C   0  0  0  0  0  0  0  0  0  0  0  0
    0.3330    1.7531    5.2713 C   0  0  0  0  0  0  0  0  0  0  0  0
   -1.4186    5.3956    3.1424 C   0  0  0  0  0  0  0  0  0  0  0  0
   -1.9192    7.0171   -1.4441 C   0  0  0  0  0  0  0  0  0  0  0  0
   -0.1696    1.7230    6.7129 C   0  0  0  0  0  0  0  0  0  0  0  0
   -2.0653    6.7779    3.1511 C   0  0  0  0  0  0  0  0  0  0  0  0
    0.4104    2.1908   -1.4114 H   0  0  0  0  0  0  0  0  0  0  0  0
    2.0354    1.9080   -1.8961 H   0  0  0  0  0  0  0  0  0  0  0  0
    1.1788   -2.7506    2.1340 H   0  0  0  0  0  0  0  0  0  0  0  0
    2.1281   -1.2761    2.1962 H   0  0  0  0  0  0  0  0  0  0  0  0
   -0.4098    1.5222    1.4776 H   0  0  0  0  0  0  0  0  0  0  0  0
   -0.8019    2.1429   -0.0703 H   0  0  0  0  0  0  0  0  0  0  0  0
    1.1984    1.5070   -4.2209 H   0  0  0  0  0  0  0  0  0  0  0  0
   -0.4747    1.7296   -3.6934 H   0  0  0  0  0  0  0  0  0  0  0  0
    0.0840    0.0679    2.6839 H   0  0  0  0  0  0  0  0  0  0  0  0
   -0.9179   -1.3386    2.4395 H   0  0  0  0  0  0  0  0  0  0  0  0
   -3.2007    1.6691    0.2565 H   0  0  0  0  0  0  0  0  0  0  0  0
   -2.8318    1.0621    1.8986 H   0  0  0  0  0  0  0  0  0  0  0  0
   -1.2188    3.7313   -4.1676 H   0  0  0  0  0  0  0  0  0  0  0  0
   -0.0640    4.9958   -4.5709 H   0  0  0  0  0  0  0  0  0  0  0  0
    0.8162   -0.9717    6.0690 H   0  0  0  0  0  0  0  0  0  0  0  0
    2.0035   -1.3357    4.8312 H   0  0  0  0  0  0  0  0  0  0  0  0
   -3.9142    4.2813    2.1689 H   0  0  0  0  0  0  0  0  0  0  0  0
   -3.7554    2.7467    3.0453 H   0  0  0  0  0  0  0  0  0  0  0  0
   -1.0849    4.3664   -1.7584 H   0  0  0  0  0  0  0  0  0  0  0  0
    0.2508    5.4553   -2.0781 H   0  0  0  0  0  0  0  0  0  0  0  0
    2.2887    0.9402    5.5952 H   0  0  0  0  0  0  0  0  0  0  0  0
    1.7823    0.9596    3.9169 H   0  0  0  0  0  0  0  0  0  0  0  0
   -2.9593    4.6234    4.4741 H   0  0  0  0  0  0  0  0  0  0  0  0
   -1.6685    3.5028    4.0707 H   0  0  0  0  0  0  0  0  0  0  0  0
   -1.2761    6.9143   -3.4820 H   0  0  0  0  0  0  0  0  0  0  0  0
   -2.6200    5.8350   -3.0979 H   0  0  0  0  0  0  0  0  0  0  0  0
    0.7444    2.7556    5.0877 H   0  0  0  0  0  0  0  0  0  0  0  0
   -0.5124    1.6319    4.5889 H   0  0  0  0  0  0  0  0  0  0  0  0
   -0.5351    5.4523    3.7918 H   0  0  0  0  0  0  0  0  0  0  0  0
   -1.0541    5.1764    2.1368 H   0  0  0  0  0  0  0  0  0  0  0  0
   -1.0582    7.6480   -1.1869 H   0  0  0  0  0  0  0  0  0  0  0  0
   -2.7812    7.6875   -1.5693 H   0  0  0  0  0  0  0  0  0  0  0  0
   -2.1277    6.3643   -0.5917 H   0  0  0  0  0  0  0  0  0  0  0  0
    0.6476    1.5997    7.4265 H   0  0  0  0  0  0  0  0  0  0  0  0
   -0.6694    2.6765    6.9445 H   0  0  0  0  0  0  0  0  0  0  0  0
   -0.8986    0.9282    6.8574 H   0  0  0  0  0  0  0  0  0  0  0  0
   -2.1052    7.1853    4.1680 H   0  0  0  0  0  0  0  0  0  0  0  0
   -1.4703    7.4726    2.5469 H   0  0  0  0  0  0  0  0  0  0  0  0
   -3.0795    6.7593    2.7460 H   0  0  0  0  0  0  0  0  0  0  0  0
  1  2  1  0  0  0  0
  1  3  1  0  0  0  0
  1  4  1  0  0  0  0
  1  5  2  0  0  0  0
  2  6  1  0  0  0  0
  3  7  1  0  0  0  0
  4  8  1  0  0  0  0
  6  9  1  0  0  0  0
  6 27  1  0  0  0  0
  6 28  1  0  0  0  0
  7 10  1  0  0  0  0
  7 29  1  0  0  0  0
  7 30  1  0  0  0  0
  8 11  1  0  0  0  0
  8 31  1  0  0  0  0
  8 32  1  0  0  0  0
  9 12  1  0  0  0  0
  9 33  1  0  0  0  0
  9 34  1  0  0  0  0
 10 13  1  0  0  0  0
 10 35  1  0  0  0  0
 10 36  1  0  0  0  0
 11 14  1  0  0  0  0
 11 37  1  0  0  0  0
 11 38  1  0  0  0  0
 12 15  1  0  0  0  0
 13 16  1  0  0  0  0
 14 17  1  0  0  0  0
 15 18  1  0  0  0  0
 15 39  1  0  0  0  0
 15 40  1  0  0  0  0
 16 19  1  0  0  0  0
 16 41  1  0  0  0  0
 16 42  1  0  0  0  0
 17 20  1  0  0  0  0
 17 43  1  0  0  0  0
 17 44  1  0  0  0  0
 18 21  1  0  0  0  0
 18 45  1  0  0  0  0
 18 46  1  0  0  0  0
 19 22  1  0  0  0  0
 19 47  1  0  0  0  0
 19 48  1  0  0  0  0
 20 23  1  0  0  0  0
 20 49  1  0  0  0  0
 20 50  1  0  0  0  0
 21 24  1  0  0  0  0
 21 51  1  0  0  0  0
 21 52  1  0  0  0  0
 22 25  1  0  0  0  0
 22 53  1  0  0  0  0
 22 54  1  0  0  0  0
 23 26  1  0  0  0  0
 23 55  1  0  0  0  0
 23 56  1  0  0  0  0
 24 57  1  0  0  0  0
 24 58  1  0  0  0  0
 24 59  1  0  0  0  0
 25 60  1  0  0  0  0
 25 61  1  0  0  0  0
 25 62  1  0  0  0  0
 26 63  1  0  0  0  0
 26 64  1  0  0  0  0
 26 65  1  0  0  0  0
M  END
>  <Mol_ID>
6500

>  <Formula>
C18H39O7P

>  <MolWeight>
398.471821

>  <Cat>
E2699

>  <Name>
Tris(2-butoxyethyl) phosphate

>  <Synonyms>
TBEP

>  <Target>
Immunology & Inflammation related

>  <Form>
free base

>  <CAS>
78-51-3

>  <URL>
http://www.selleckchem.com/products/tris-2-butoxyethyl-phosphate.html

$$$$
