Troglitazone (CS-045).cdx
 OpenBabel08302520433D

 58 61  0  0  0  0  0  0  0  0999 V2000
    2.5371   -0.7516    0.0169 C   0  0  0  0  0  0  0  0  0  0  0  0
    2.5520    0.6574    0.0700 C   0  0  0  0  0  0  0  0  0  0  0  0
    1.3712    1.4161    0.0406 C   0  0  0  0  0  0  0  0  0  0  0  0
    0.1344    0.7474   -0.0654 C   0  0  0  0  0  0  0  0  0  0  0  0
    0.0972   -0.6596   -0.0118 C   0  0  0  0  0  0  0  0  0  0  0  0
    1.2870   -1.4190   -0.0045 C   0  0  0  0  0  0  0  0  0  0  0  0
   -1.1434    1.5347   -0.2443 C   0  0  0  0  0  0  0  0  0  0  0  0
   -2.2878    0.6173   -0.6379 C   0  0  0  0  0  0  0  0  0  0  0  0
   -2.2946   -0.5957    0.2863 C   0  0  3  0  0  0  0  0  0  0  0  0
   -1.0902   -1.3637    0.0230 O   0  0  0  0  0  0  0  0  0  0  0  0
    1.2234   -2.9266   -0.0601 C   0  0  0  0  0  0  0  0  0  0  0  0
    3.8392   -1.5127   -0.0322 C   0  0  0  0  0  0  0  0  0  0  0  0
    3.7309    1.3569    0.1292 O   0  0  0  0  0  0  0  0  0  0  0  0
    1.4148    2.9223    0.1170 C   0  0  0  0  0  0  0  0  0  0  0  0
   -2.3537   -0.2926    1.8035 C   0  0  0  0  0  0  0  0  0  0  0  0
   -3.4715   -1.5094   -0.0827 C   0  0  0  0  0  0  0  0  0  0  0  0
   -3.3952    0.5979    2.2373 O   0  0  0  0  0  0  0  0  0  0  0  0
   -3.3929    0.8014    3.6067 C   0  0  0  0  0  0  0  0  0  0  0  0
   -2.4986    0.1826    4.4868 C   0  0  0  0  0  0  0  0  0  0  0  0
   -2.5574    0.4043    5.8565 C   0  0  0  0  0  0  0  0  0  0  0  0
   -3.4885    1.2947    6.3878 C   0  0  0  0  0  0  0  0  0  0  0  0
   -4.3941    1.9207    5.5214 C   0  0  0  0  0  0  0  0  0  0  0  0
   -4.3484    1.6736    4.1374 C   0  0  0  0  0  0  0  0  0  0  0  0
   -3.4471    1.5894    7.8681 C   0  0  0  0  0  0  0  0  0  0  0  0
   -2.1032    2.1842    8.3021 C   0  0  3  0  0  0  0  0  0  0  0  0
   -1.8643    3.5567    7.7064 C   0  0  0  0  0  0  0  0  0  0  0  0
   -1.9780    4.5461    8.6359 N   0  0  0  0  0  0  0  0  0  0  0  0
   -2.0208    4.1922    9.9408 C   0  0  0  0  0  0  0  0  0  0  0  0
   -2.1037    2.4590   10.1087 S   0  0  0  0  0  0  0  0  0  0  0  0
   -1.5805    3.7892    6.5391 O   0  0  0  0  0  0  0  0  0  0  0  0
   -1.9660    4.9627   10.8882 O   0  0  0  0  0  0  0  0  0  0  0  0
   -1.0178    2.2790   -1.0382 H   0  0  0  0  0  0  0  0  0  0  0  0
   -1.3841    2.0656    0.6833 H   0  0  0  0  0  0  0  0  0  0  0  0
   -2.1086    0.2733   -1.6689 H   0  0  0  0  0  0  0  0  0  0  0  0
   -3.2400    1.1556   -0.6384 H   0  0  0  0  0  0  0  0  0  0  0  0
    1.6988   -3.2823   -0.9807 H   0  0  0  0  0  0  0  0  0  0  0  0
    1.7292   -3.3625    0.8077 H   0  0  0  0  0  0  0  0  0  0  0  0
    0.2020   -3.3170   -0.0625 H   0  0  0  0  0  0  0  0  0  0  0  0
    4.4103   -1.2088   -0.9168 H   0  0  0  0  0  0  0  0  0  0  0  0
    4.4296   -1.3114    0.8678 H   0  0  0  0  0  0  0  0  0  0  0  0
    3.7155   -2.5956   -0.0969 H   0  0  0  0  0  0  0  0  0  0  0  0
    4.4841    0.7496    0.1348 H   0  0  0  0  0  0  0  0  0  0  0  0
    1.0114    3.3624   -0.7998 H   0  0  0  0  0  0  0  0  0  0  0  0
    0.8288    3.2681    0.9758 H   0  0  0  0  0  0  0  0  0  0  0  0
    2.4262    3.3172    0.2471 H   0  0  0  0  0  0  0  0  0  0  0  0
   -2.4793   -1.2582    2.3118 H   0  0  0  0  0  0  0  0  0  0  0  0
   -1.3910    0.1254    2.1192 H   0  0  0  0  0  0  0  0  0  0  0  0
   -3.4502   -1.7666   -1.1476 H   0  0  0  0  0  0  0  0  0  0  0  0
   -3.4096   -2.4604    0.4603 H   0  0  0  0  0  0  0  0  0  0  0  0
   -4.4351   -1.0425    0.1444 H   0  0  0  0  0  0  0  0  0  0  0  0
   -1.7149   -0.4864    4.1511 H   0  0  0  0  0  0  0  0  0  0  0  0
   -1.8434   -0.1091    6.4935 H   0  0  0  0  0  0  0  0  0  0  0  0
   -5.1337    2.6207    5.9096 H   0  0  0  0  0  0  0  0  0  0  0  0
   -5.0544    2.1785    3.4825 H   0  0  0  0  0  0  0  0  0  0  0  0
   -4.2778    2.2550    8.1364 H   0  0  0  0  0  0  0  0  0  0  0  0
   -3.6276    0.6428    8.3947 H   0  0  0  0  0  0  0  0  0  0  0  0
   -1.2502    1.5418    8.0606 H   0  0  0  0  0  0  0  0  0  0  0  0
   -1.8131    5.5025    8.3762 H   0  0  0  0  0  0  0  0  0  0  0  0
  1  2  2  0  0  0  0
  1 12  1  0  0  0  0
  2  3  1  0  0  0  0
  2 13  1  0  0  0  0
  3  4  2  0  0  0  0
  3 14  1  0  0  0  0
  4  5  1  0  0  0  0
  4  7  1  0  0  0  0
  5  6  2  0  0  0  0
  6  1  1  0  0  0  0
  6 11  1  0  0  0  0
  7  8  1  0  0  0  0
  7 32  1  0  0  0  0
  7 33  1  0  0  0  0
  8  9  1  0  0  0  0
  8 34  1  0  0  0  0
  8 35  1  0  0  0  0
  9 10  1  0  0  0  0
  9 15  1  0  0  0  0
  9 16  1  0  0  0  0
 10  5  1  0  0  0  0
 11 36  1  0  0  0  0
 11 37  1  0  0  0  0
 11 38  1  0  0  0  0
 12 39  1  0  0  0  0
 12 40  1  0  0  0  0
 12 41  1  0  0  0  0
 13 42  1  0  0  0  0
 14 43  1  0  0  0  0
 14 44  1  0  0  0  0
 14 45  1  0  0  0  0
 15 17  1  0  0  0  0
 15 46  1  0  0  0  0
 15 47  1  0  0  0  0
 16 48  1  0  0  0  0
 16 49  1  0  0  0  0
 16 50  1  0  0  0  0
 17 18  1  0  0  0  0
 18 19  2  0  0  0  0
 19 20  1  0  0  0  0
 19 51  1  0  0  0  0
 20 21  2  0  0  0  0
 20 52  1  0  0  0  0
 21 22  1  0  0  0  0
 21 24  1  0  0  0  0
 22 23  2  0  0  0  0
 22 53  1  0  0  0  0
 23 18  1  0  0  0  0
 23 54  1  0  0  0  0
 24 25  1  0  0  0  0
 24 55  1  0  0  0  0
 24 56  1  0  0  0  0
 25 26  1  0  0  0  0
 25 57  1  0  0  0  0
 26 27  1  0  0  0  0
 26 30  2  0  0  0  0
 27 28  1  0  0  0  0
 27 58  1  0  0  0  0
 28 29  1  0  0  0  0
 28 31  2  0  0  0  0
 29 25  1  0  0  0  0
M  END
>  <Mol_ID>
4124

>  <Formula>
C24H27NO5S

>  <MolWeight>
441.53988

>  <Cat>
S8432

>  <Name>
Troglitazone (CS-045)

>  <Synonyms>
Rezulin, Romglizone, Prelay, Romozin

>  <Target>
Apoptosis related,Autophagy,Ferroptosis,PPAR

>  <Form>
free base

>  <CAS>
97322-87-7

>  <URL>
http://selleckchem.com/products/troglitazone-cs-045.html

$$$$
