Tropone
 OpenBabel08302521373D

 14 14  0  0  0  0  0  0  0  0999 V2000
   -2.4385   -0.0273    0.0182 O   0  0  0  0  0  0  0  0  0  0  0  0
   -1.2081   -0.0114   -0.0144 C   0  0  0  0  0  0  0  0  0  0  0  0
   -0.5165    1.2927   -0.0422 C   0  0  0  0  0  0  0  0  0  0  0  0
   -0.4829   -1.2978   -0.0437 C   0  0  0  0  0  0  0  0  0  0  0  0
    0.7877    1.5801   -0.0241 C   0  0  0  0  0  0  0  0  0  0  0  0
    0.8278   -1.5529   -0.0301 C   0  0  0  0  0  0  0  0  0  0  0  0
    1.9174    0.6957    0.0385 C   0  0  0  0  0  0  0  0  0  0  0  0
    1.9353   -0.6408    0.0314 C   0  0  0  0  0  0  0  0  0  0  0  0
   -1.2199    2.1227   -0.0826 H   0  0  0  0  0  0  0  0  0  0  0  0
   -1.1656   -2.1440   -0.0795 H   0  0  0  0  0  0  0  0  0  0  0  0
    1.0581    2.6362   -0.0513 H   0  0  0  0  0  0  0  0  0  0  0  0
    1.1234   -2.6025   -0.0541 H   0  0  0  0  0  0  0  0  0  0  0  0
    2.8797    1.2062    0.0940 H   0  0  0  0  0  0  0  0  0  0  0  0
    2.9111   -1.1263    0.0765 H   0  0  0  0  0  0  0  0  0  0  0  0
  1  2  2  0  0  0  0
  2  3  1  0  0  0  0
  2  4  1  0  0  0  0
  3  5  2  0  0  0  0
  3  9  1  0  0  0  0
  4  6  2  0  0  0  0
  4 10  1  0  0  0  0
  5  7  1  0  0  0  0
  5 11  1  0  0  0  0
  6  8  1  0  0  0  0
  6 12  1  0  0  0  0
  7  8  2  0  0  0  0
  7 13  1  0  0  0  0
  8 14  1  0  0  0  0
M  END
>  <Mol_ID>
7439

>  <Formula>
C7H6O

>  <MolWeight>
106.12194

>  <Cat>
E4541

>  <Name>
Tropone

>  <Target>
Others

>  <Form>
Free base

>  <CAS>
539-80-0

>  <URL>
https://www.selleckchem.com/products/tropone.html

$$$$
