Tropisetron hydrochloride.cdx
 OpenBabel08302519503D

 41 44  0  0  0  0  0  0  0  0999 V2000
   -4.4478   -4.7182   -0.6669 C   0  0  0  0  0  0  0  0  0  0  0  0
   -4.8900   -4.0425    0.4838 C   0  0  0  0  0  0  0  0  0  0  0  0
   -4.8639   -2.6478    0.5398 C   0  0  0  0  0  0  0  0  0  0  0  0
   -4.3532   -1.9613   -0.5436 C   0  0  0  0  0  0  0  0  0  0  0  0
   -3.8144   -2.6389   -1.6434 C   0  0  0  0  0  0  0  0  0  0  0  0
   -3.9027   -4.0165   -1.7470 C   0  0  0  0  0  0  0  0  0  0  0  0
   -4.3998   -0.5720   -0.7376 N   0  0  0  0  0  0  0  0  0  0  0  0
   -3.8875   -0.3705   -1.9148 C   0  0  0  0  0  0  0  0  0  0  0  0
   -3.3178   -1.6057   -2.6063 C   0  0  3  0  0  0  0  0  0  0  0  0
   -1.8280   -1.3931   -2.7561 C   0  0  0  0  0  0  0  0  0  0  0  0
   -1.0260   -2.2965   -2.1265 O   0  0  0  0  0  0  0  0  0  0  0  0
   -1.3916   -0.4233   -3.3792 O   0  0  0  0  0  0  0  0  0  0  0  0
    1.6017   -3.9361   -0.9887 C   0  0  1  0  0  0  0  0  0  0  0  0
    0.5947   -4.9339   -1.5713 C   0  0  0  0  0  0  0  0  0  0  0  0
    0.7269   -4.7693   -3.0901 C   0  0  0  0  0  0  0  0  0  0  0  0
    1.7944   -3.6842   -3.2693 C   0  0  2  0  0  0  0  0  0  0  0  0
    2.5975   -3.9260   -2.0622 N   0  0  0  0  0  0  0  0  0  0  0  0
    1.1603   -2.2804   -3.3009 C   0  0  0  0  0  0  0  0  0  0  0  0
    0.9741   -2.5525   -0.7558 C   0  0  0  0  0  0  0  0  0  0  0  0
    0.3771   -1.9185   -2.0249 C   0  0  3  0  0  0  0  0  0  0  0  0
    3.7499   -3.0659   -1.8691 C   0  0  0  0  0  0  0  0  0  0  0  0
   -4.5412   -5.8010   -0.7165 H   0  0  0  0  0  0  0  0  0  0  0  0
   -5.2851   -4.6070    1.3252 H   0  0  0  0  0  0  0  0  0  0  0  0
   -5.2544   -2.1107    1.3969 H   0  0  0  0  0  0  0  0  0  0  0  0
   -3.5940   -4.5415   -2.6449 H   0  0  0  0  0  0  0  0  0  0  0  0
   -3.8304    0.6166   -2.3960 H   0  0  0  0  0  0  0  0  0  0  0  0
   -3.7729   -1.7292   -3.5915 H   0  0  0  0  0  0  0  0  0  0  0  0
    2.0241   -4.3193   -0.0544 H   0  0  0  0  0  0  0  0  0  0  0  0
    0.8688   -5.9593   -1.2949 H   0  0  0  0  0  0  0  0  0  0  0  0
   -0.4260   -4.7589   -1.2237 H   0  0  0  0  0  0  0  0  0  0  0  0
   -0.2276   -4.5110   -3.5589 H   0  0  0  0  0  0  0  0  0  0  0  0
    1.0655   -5.7160   -3.5293 H   0  0  0  0  0  0  0  0  0  0  0  0
    2.3713   -3.8587   -4.1841 H   0  0  0  0  0  0  0  0  0  0  0  0
    1.9617   -1.5424   -3.4391 H   0  0  0  0  0  0  0  0  0  0  0  0
    0.5138   -2.2033   -4.1822 H   0  0  0  0  0  0  0  0  0  0  0  0
    1.7488   -1.8825   -0.3610 H   0  0  0  0  0  0  0  0  0  0  0  0
    0.2042   -2.6311    0.0219 H   0  0  0  0  0  0  0  0  0  0  0  0
    0.4184   -0.8314   -1.8791 H   0  0  0  0  0  0  0  0  0  0  0  0
    3.5188   -1.9973   -1.8491 H   0  0  0  0  0  0  0  0  0  0  0  0
    4.2502   -3.3164   -0.9264 H   0  0  0  0  0  0  0  0  0  0  0  0
    4.4847   -3.2364   -2.6641 H   0  0  0  0  0  0  0  0  0  0  0  0
  1  2  2  0  0  0  0
  1 22  1  0  0  0  0
  2  3  1  0  0  0  0
  2 23  1  0  0  0  0
  3  4  2  0  0  0  0
  3 24  1  0  0  0  0
  4  5  1  0  0  0  0
  4  7  1  0  0  0  0
  5  6  2  0  0  0  0
  6  1  1  0  0  0  0
  6 25  1  0  0  0  0
  7  8  2  0  0  0  0
  8  9  1  0  0  0  0
  8 26  1  0  0  0  0
  9  5  1  0  0  0  0
  9 27  1  0  0  0  0
 10 11  1  0  0  0  0
 10 12  2  0  0  0  0
 10  9  1  0  0  0  0
 11 20  1  0  0  0  0
 13 14  1  0  0  0  0
 13 17  1  0  0  0  0
 13 19  1  0  0  0  0
 13 28  1  1  0  0  0
 14 15  1  0  0  0  0
 14 29  1  0  0  0  0
 14 30  1  0  0  0  0
 15 31  1  0  0  0  0
 15 32  1  0  0  0  0
 16 15  1  0  0  0  0
 16 17  1  0  0  0  0
 16 18  1  0  0  0  0
 16 33  1  6  0  0  0
 17 21  1  0  0  0  0
 18 20  1  0  0  0  0
 18 34  1  0  0  0  0
 18 35  1  0  0  0  0
 19 20  1  0  0  0  0
 19 36  1  0  0  0  0
 19 37  1  0  0  0  0
 20 38  1  0  0  0  0
 21 39  1  0  0  0  0
 21 40  1  0  0  0  0
 21 41  1  0  0  0  0
M  END
>  <Mol_ID>
177

>  <Formula>
C17H21ClN2O2

>  <MolWeight>
320.81384

>  <Cat>
S1898

>  <Name>
Tropisetron HCl

>  <Synonyms>
ICS 205-930

>  <Target>
5-HT Receptor

>  <Form>
Hydrochloride

>  <CAS>
105826-92-4

>  <URL>
http://selleckchem.com/products/Tropisetron-hydrochloride.html

$$$$
