Tropinone
 OpenBabel08302520383D

 23 24  0  0  0  0  0  0  0  0999 V2000
   -0.6337    0.5422   -1.0049 C   0  0  3  0  0  0  0  0  0  0  0  0
   -0.2127    1.6098    0.0091 C   0  0  0  0  0  0  0  0  0  0  0  0
    1.1269    1.1105    0.5456 C   0  0  0  0  0  0  0  0  0  0  0  0
    1.4818   -0.0870   -0.3477 C   0  0  3  0  0  0  0  0  0  0  0  0
    0.6424    0.0438   -1.5508 N   0  0  0  0  0  0  0  0  0  0  0  0
    1.0641   -1.4118    0.2925 C   0  0  0  0  0  0  0  0  0  0  0  0
   -1.3424   -0.6341   -0.3186 C   0  0  0  0  0  0  0  0  0  0  0  0
   -0.4120   -1.3924    0.6159 C   0  0  0  0  0  0  0  0  0  0  0  0
   -0.8638   -2.0554    1.5522 O   0  0  0  0  0  0  0  0  0  0  0  0
    1.2189    0.9244   -2.5632 C   0  0  0  0  0  0  0  0  0  0  0  0
   -1.2940    0.9550   -1.7758 H   0  0  0  0  0  0  0  0  0  0  0  0
   -0.0683    2.5774   -0.4874 H   0  0  0  0  0  0  0  0  0  0  0  0
   -0.9473    1.7626    0.8059 H   0  0  0  0  0  0  0  0  0  0  0  0
    1.8777    1.9027    0.4632 H   0  0  0  0  0  0  0  0  0  0  0  0
    1.0486    0.8336    1.6043 H   0  0  0  0  0  0  0  0  0  0  0  0
    2.5535   -0.1244   -0.5704 H   0  0  0  0  0  0  0  0  0  0  0  0
    1.2509   -2.2518   -0.3897 H   0  0  0  0  0  0  0  0  0  0  0  0
    1.6299   -1.5868    1.2157 H   0  0  0  0  0  0  0  0  0  0  0  0
   -2.1943   -0.2685    0.2661 H   0  0  0  0  0  0  0  0  0  0  0  0
   -1.7110   -1.3457   -1.0658 H   0  0  0  0  0  0  0  0  0  0  0  0
    0.6741    0.7967   -3.5050 H   0  0  0  0  0  0  0  0  0  0  0  0
    1.1954    1.9858   -2.2979 H   0  0  0  0  0  0  0  0  0  0  0  0
    2.2604    0.6515   -2.7672 H   0  0  0  0  0  0  0  0  0  0  0  0
  1  2  1  0  0  0  0
  1  5  1  0  0  0  0
  1  7  1  0  0  0  0
  1 11  1  0  0  0  0
  2  3  1  0  0  0  0
  2 12  1  0  0  0  0
  2 13  1  0  0  0  0
  3  4  1  0  0  0  0
  3 14  1  0  0  0  0
  3 15  1  0  0  0  0
  4  5  1  0  0  0  0
  4  6  1  0  0  0  0
  4 16  1  0  0  0  0
  5 10  1  0  0  0  0
  6  8  1  0  0  0  0
  6 17  1  0  0  0  0
  6 18  1  0  0  0  0
  7  8  1  0  0  0  0
  7 19  1  0  0  0  0
  7 20  1  0  0  0  0
  8  9  2  0  0  0  0
 10 21  1  0  0  0  0
 10 22  1  0  0  0  0
 10 23  1  0  0  0  0
M  END
>  <Mol_ID>
3456

>  <Formula>
C8H13NO

>  <MolWeight>
139.19492

>  <Cat>
S5687

>  <Name>
Tropinone

>  <Synonyms>
3-Tropinone

>  <Target>
Others

>  <Form>
free base

>  <CAS>
532-24-1

>  <URL>
https://www.selleckchem.com/products/tropinone.html

$$$$
