Tropolone (NSC 89303)
 OpenBabel08302520383D

 15 15  0  0  0  0  0  0  0  0999 V2000
    0.7717    0.7565    0.0088 C   0  0  0  0  0  0  0  0  0  0  0  0
    0.7531   -0.7459   -0.0118 C   0  0  0  0  0  0  0  0  0  0  0  0
   -0.4540    1.5835   -0.0267 C   0  0  0  0  0  0  0  0  0  0  0  0
    1.8474    1.3610    0.0440 O   0  0  0  0  0  0  0  0  0  0  0  0
   -0.3235   -1.5439   -0.0118 C   0  0  0  0  0  0  0  0  0  0  0  0
    2.0214   -1.3347   -0.0313 O   0  0  0  0  0  0  0  0  0  0  0  0
   -1.7444    1.2467   -0.0226 C   0  0  0  0  0  0  0  0  0  0  0  0
   -1.7285   -1.2430    0.0254 C   0  0  0  0  0  0  0  0  0  0  0  0
   -2.3378   -0.0556    0.0254 C   0  0  0  0  0  0  0  0  0  0  0  0
   -0.2124    2.6453   -0.0586 H   0  0  0  0  0  0  0  0  0  0  0  0
   -0.1505   -2.6200   -0.0313 H   0  0  0  0  0  0  0  0  0  0  0  0
    1.9369   -2.2998   -0.0254 H   0  0  0  0  0  0  0  0  0  0  0  0
   -2.4667    2.0634   -0.0522 H   0  0  0  0  0  0  0  0  0  0  0  0
   -2.3703   -2.1250    0.0589 H   0  0  0  0  0  0  0  0  0  0  0  0
   -3.4280   -0.0507    0.0619 H   0  0  0  0  0  0  0  0  0  0  0  0
  1  2  1  0  0  0  0
  1  3  1  0  0  0  0
  1  4  2  0  0  0  0
  2  5  2  0  0  0  0
  2  6  1  0  0  0  0
  3  7  2  0  0  0  0
  3 10  1  0  0  0  0
  5  8  1  0  0  0  0
  5 11  1  0  0  0  0
  6 12  1  0  0  0  0
  7  9  1  0  0  0  0
  7 13  1  0  0  0  0
  8  9  2  0  0  0  0
  8 14  1  0  0  0  0
  9 15  1  0  0  0  0
M  END
>  <Mol_ID>
3457

>  <Formula>
C7H6O2

>  <MolWeight>
122.12134

>  <Cat>
S5688

>  <Name>
Tropolone (NSC 89303)

>  <Synonyms>
2-Hydroxytropone, Purpurocatechol

>  <Target>
Others

>  <Form>
free base

>  <CAS>
533-75-5

>  <URL>
https://www.selleckchem.com/products/tropolone.html

$$$$
