Trospium chloride.cdx
 OpenBabel08302521403D

 59 63  0  0  0  0  0  0  0  0999 V2000
   -0.2154    0.1934    1.1411 C   0  0  2  0  0  0  0  0  0  0  0  0
   -1.0101    1.5071    1.0731 C   0  0  0  0  0  0  0  0  0  0  0  0
   -1.3035    1.7274   -0.4135 C   0  0  0  0  0  0  0  0  0  0  0  0
   -0.6746    0.5316   -1.1399 C   0  0  1  0  0  0  0  0  0  0  0  0
    0.4949    0.1532   -0.2291 N   0  3  0  0  0  0  0  0  0  0  0  0
   -1.6351   -0.6587   -1.2319 C   0  0  0  0  0  0  0  0  0  0  0  0
   -1.1647   -1.0122    1.2714 C   0  0  0  0  0  0  0  0  0  0  0  0
   -2.2028   -1.1074    0.1293 C   0  0  1  0  0  0  0  0  0  0  0  0
   -3.3390   -0.2947    0.5250 O   0  0  0  0  0  0  0  0  0  0  0  0
   -4.4823   -0.3594   -0.2327 C   0  0  0  0  0  0  0  0  0  0  0  0
   -5.6621    0.4985    0.3740 C   0  0  0  0  0  0  0  0  0  0  0  0
   -4.5547   -1.0357   -1.2594 O   0  0  0  0  0  0  0  0  0  0  0  0
   -6.0554    1.5729   -0.6672 C   0  0  0  0  0  0  0  0  0  0  0  0
   -6.8314   -0.3999    0.8379 C   0  0  0  0  0  0  0  0  0  0  0  0
   -5.2299    1.1891    1.5627 O   0  0  0  0  0  0  0  0  0  0  0  0
   -6.7630   -1.8075    0.7799 C   0  0  0  0  0  0  0  0  0  0  0  0
   -7.8011   -2.6124    1.2523 C   0  0  0  0  0  0  0  0  0  0  0  0
   -8.9360   -2.0335    1.8024 C   0  0  0  0  0  0  0  0  0  0  0  0
   -9.0454   -0.6468    1.8572 C   0  0  0  0  0  0  0  0  0  0  0  0
   -8.0115    0.1618    1.3774 C   0  0  0  0  0  0  0  0  0  0  0  0
   -6.9918    1.2989   -1.6803 C   0  0  0  0  0  0  0  0  0  0  0  0
   -7.3383    2.2704   -2.6247 C   0  0  0  0  0  0  0  0  0  0  0  0
   -6.7431    3.5281   -2.5905 C   0  0  0  0  0  0  0  0  0  0  0  0
   -5.7954    3.8168   -1.6129 C   0  0  0  0  0  0  0  0  0  0  0  0
   -5.4496    2.8475   -0.6647 C   0  0  0  0  0  0  0  0  0  0  0  0
    1.2234   -1.1394   -0.6006 C   0  0  0  0  0  0  0  0  0  0  0  0
    2.5265   -1.0563    0.1616 C   0  0  0  0  0  0  0  0  0  0  0  0
    2.8890    0.4173    0.1623 C   0  0  0  0  0  0  0  0  0  0  0  0
    1.6566    1.1668   -0.3230 C   0  0  0  0  0  0  0  0  0  0  0  0
    0.5401    0.2013    1.9340 H   0  0  0  0  0  0  0  0  0  0  0  0
   -1.9223    1.4779    1.6782 H   0  0  0  0  0  0  0  0  0  0  0  0
   -0.4175    2.3423    1.4622 H   0  0  0  0  0  0  0  0  0  0  0  0
   -2.3741    1.8256   -0.6161 H   0  0  0  0  0  0  0  0  0  0  0  0
   -0.8374    2.6627   -0.7446 H   0  0  0  0  0  0  0  0  0  0  0  0
   -0.2869    0.7959   -2.1293 H   0  0  0  0  0  0  0  0  0  0  0  0
   -1.1264   -1.5059   -1.7060 H   0  0  0  0  0  0  0  0  0  0  0  0
   -2.4317   -0.3736   -1.9244 H   0  0  0  0  0  0  0  0  0  0  0  0
   -1.6837   -0.9410    2.2364 H   0  0  0  0  0  0  0  0  0  0  0  0
   -0.5752   -1.9343    1.3251 H   0  0  0  0  0  0  0  0  0  0  0  0
   -2.5473   -2.1485    0.0678 H   0  0  0  0  0  0  0  0  0  0  0  0
   -5.9679    1.7700    1.8231 H   0  0  0  0  0  0  0  0  0  0  0  0
   -5.9038   -2.3235    0.3592 H   0  0  0  0  0  0  0  0  0  0  0  0
   -7.7173   -3.6947    1.1884 H   0  0  0  0  0  0  0  0  0  0  0  0
   -9.7368   -2.6632    2.1826 H   0  0  0  0  0  0  0  0  0  0  0  0
   -9.9402   -0.1961    2.2789 H   0  0  0  0  0  0  0  0  0  0  0  0
   -8.1428    1.2423    1.4264 H   0  0  0  0  0  0  0  0  0  0  0  0
   -7.4728    0.3240   -1.7454 H   0  0  0  0  0  0  0  0  0  0  0  0
   -8.0788    2.0429   -3.3888 H   0  0  0  0  0  0  0  0  0  0  0  0
   -7.0200    4.2803   -3.3253 H   0  0  0  0  0  0  0  0  0  0  0  0
   -5.3323    4.8001   -1.5872 H   0  0  0  0  0  0  0  0  0  0  0  0
   -4.7040    3.1086    0.0846 H   0  0  0  0  0  0  0  0  0  0  0  0
    0.6360   -2.0234   -0.3505 H   0  0  0  0  0  0  0  0  0  0  0  0
    1.3947   -1.1124   -1.6836 H   0  0  0  0  0  0  0  0  0  0  0  0
    2.3872   -1.4078    1.1906 H   0  0  0  0  0  0  0  0  0  0  0  0
    3.3058   -1.6755   -0.2927 H   0  0  0  0  0  0  0  0  0  0  0  0
    3.1741    0.7403    1.1692 H   0  0  0  0  0  0  0  0  0  0  0  0
    3.7413    0.6202   -0.4952 H   0  0  0  0  0  0  0  0  0  0  0  0
    1.7645    1.4370   -1.3804 H   0  0  0  0  0  0  0  0  0  0  0  0
    1.4422    2.0617    0.2644 H   0  0  0  0  0  0  0  0  0  0  0  0
  1  2  1  0  0  0  0
  1  5  1  0  0  0  0
  1  7  1  0  0  0  0
  1 30  1  1  0  0  0
  2  3  1  0  0  0  0
  2 31  1  0  0  0  0
  2 32  1  0  0  0  0
  3 33  1  0  0  0  0
  3 34  1  0  0  0  0
  4  3  1  0  0  0  0
  4  5  1  0  0  0  0
  4  6  1  0  0  0  0
  4 35  1  6  0  0  0
  5 26  1  0  0  0  0
  6  8  1  0  0  0  0
  6 36  1  0  0  0  0
  6 37  1  0  0  0  0
  7  8  1  0  0  0  0
  7 38  1  0  0  0  0
  7 39  1  0  0  0  0
  8 40  1  6  0  0  0
  8  9  1  0  0  0  0
  9 10  1  0  0  0  0
 10 11  1  0  0  0  0
 10 12  2  0  0  0  0
 11 13  1  0  0  0  0
 11 14  1  0  0  0  0
 11 15  1  0  0  0  0
 13 21  2  0  0  0  0
 14 16  2  0  0  0  0
 15 41  1  0  0  0  0
 16 17  1  0  0  0  0
 16 42  1  0  0  0  0
 17 18  2  0  0  0  0
 17 43  1  0  0  0  0
 18 19  1  0  0  0  0
 18 44  1  0  0  0  0
 19 20  2  0  0  0  0
 19 45  1  0  0  0  0
 20 14  1  0  0  0  0
 20 46  1  0  0  0  0
 21 22  1  0  0  0  0
 21 47  1  0  0  0  0
 22 23  2  0  0  0  0
 22 48  1  0  0  0  0
 23 24  1  0  0  0  0
 23 49  1  0  0  0  0
 24 25  2  0  0  0  0
 24 50  1  0  0  0  0
 25 13  1  0  0  0  0
 25 51  1  0  0  0  0
 26 27  1  0  0  0  0
 26 52  1  0  0  0  0
 26 53  1  0  0  0  0
 27 28  1  0  0  0  0
 27 54  1  0  0  0  0
 27 55  1  0  0  0  0
 28 29  1  0  0  0  0
 28 56  1  0  0  0  0
 28 57  1  0  0  0  0
 29  5  1  0  0  0  0
 29 58  1  0  0  0  0
 29 59  1  0  0  0  0
M  CHG  1   5   1
M  END
>  <Mol_ID>
813

>  <Formula>
C25H30ClNO3

>  <MolWeight>
427.9636

>  <Cat>
S2549

>  <Name>
Trospium chloride

>  <Synonyms>
N/A

>  <Target>
AChR

>  <Form>
quaternary-N chloride salt

>  <CAS>
10405-02-4

>  <URL>
http://selleckchem.com/products/Trospium-chloride-Sanctura.html

$$$$
