Trotabresib
 OpenBabel08302521313D

 48 51  0  0  0  0  0  0  0  0999 V2000
    0.9601    0.2817   -0.1238 S   0  0  0  0  0  0  0  0  0  0  0  0
   -1.2364    1.0643    5.3571 O   0  0  0  0  0  0  0  0  0  0  0  0
    0.7421    1.4976   -0.8922 O   0  0  0  0  0  0  0  0  0  0  0  0
    0.4138   -0.9837   -0.5709 O   0  0  0  0  0  0  0  0  0  0  0  0
   -0.6206    7.6210    4.3615 O   0  0  0  0  0  0  0  0  0  0  0  0
    0.4525    5.5720    4.5004 N   0  0  0  0  0  0  0  0  0  0  0  0
   -3.4020    0.0125    5.3476 C   0  0  0  0  0  0  0  0  0  0  0  0
   -4.3977   -1.1068    5.5462 C   0  0  0  0  0  0  0  0  0  0  0  0
   -3.8553   -0.8266    4.1735 C   0  0  0  0  0  0  0  0  0  0  0  0
   -2.0093   -0.0344    5.8974 C   0  0  0  0  0  0  0  0  0  0  0  0
   -0.7252    0.9212    4.0891 C   0  0  0  0  0  0  0  0  0  0  0  0
   -0.3877    2.0770    3.3307 C   0  0  0  0  0  0  0  0  0  0  0  0
   -0.6050    3.5198    3.7536 C   0  0  0  0  0  0  0  0  0  0  0  0
   -0.5112   -0.3595    3.5405 C   0  0  0  0  0  0  0  0  0  0  0  0
    0.1539    1.8743    2.0324 C   0  0  0  0  0  0  0  0  0  0  0  0
   -1.8313    4.3349    3.4779 C   0  0  0  0  0  0  0  0  0  0  0  0
    0.3496    0.5752    1.5210 C   0  0  0  0  0  0  0  0  0  0  0  0
   -0.0008   -0.5358    2.2643 C   0  0  0  0  0  0  0  0  0  0  0  0
    0.4467    4.1974    4.2696 C   0  0  0  0  0  0  0  0  0  0  0  0
   -1.8287    5.7277    3.6662 C   0  0  0  0  0  0  0  0  0  0  0  0
   -0.6259    6.4046    4.2024 C   0  0  0  0  0  0  0  0  0  0  0  0
   -3.0186    3.7558    3.0162 C   0  0  0  0  0  0  0  0  0  0  0  0
   -2.9509    6.5238    3.3673 C   0  0  0  0  0  0  0  0  0  0  0  0
    1.6323    6.2458    5.0246 C   0  0  0  0  0  0  0  0  0  0  0  0
    2.7062    0.0737    0.1023 C   0  0  0  0  0  0  0  0  0  0  0  0
   -4.1487    4.5392    2.7355 C   0  0  0  0  0  0  0  0  0  0  0  0
   -4.1118    5.9226    2.9000 C   0  0  0  0  0  0  0  0  0  0  0  0
   -3.7900    1.0219    5.4200 H   0  0  0  0  0  0  0  0  0  0  0  0
   -4.1009   -2.0443    6.0020 H   0  0  0  0  0  0  0  0  0  0  0  0
   -5.4243   -0.8226    5.7544 H   0  0  0  0  0  0  0  0  0  0  0  0
   -4.5032   -0.3464    3.4476 H   0  0  0  0  0  0  0  0  0  0  0  0
   -3.2185   -1.5922    3.7458 H   0  0  0  0  0  0  0  0  0  0  0  0
   -1.5224   -1.0129    5.8017 H   0  0  0  0  0  0  0  0  0  0  0  0
   -2.0574    0.1254    6.9807 H   0  0  0  0  0  0  0  0  0  0  0  0
   -0.7466   -1.2750    4.0701 H   0  0  0  0  0  0  0  0  0  0  0  0
    0.4028    2.7349    1.4123 H   0  0  0  0  0  0  0  0  0  0  0  0
    0.1029   -1.5447    1.8677 H   0  0  0  0  0  0  0  0  0  0  0  0
    1.3801    3.6919    4.4951 H   0  0  0  0  0  0  0  0  0  0  0  0
   -3.0934    2.6744    2.8760 H   0  0  0  0  0  0  0  0  0  0  0  0
   -2.9193    7.6007    3.5078 H   0  0  0  0  0  0  0  0  0  0  0  0
    1.8913    7.0878    4.3693 H   0  0  0  0  0  0  0  0  0  0  0  0
    1.3950    6.6552    6.0133 H   0  0  0  0  0  0  0  0  0  0  0  0
    2.4883    5.5744    5.0963 H   0  0  0  0  0  0  0  0  0  0  0  0
    3.1460   -0.1718   -0.8670 H   0  0  0  0  0  0  0  0  0  0  0  0
    3.1310    1.0037    0.4810 H   0  0  0  0  0  0  0  0  0  0  0  0
    2.8842   -0.7486    0.8005 H   0  0  0  0  0  0  0  0  0  0  0  0
   -5.0638    4.0677    2.3907 H   0  0  0  0  0  0  0  0  0  0  0  0
   -4.9871    6.5291    2.6787 H   0  0  0  0  0  0  0  0  0  0  0  0
  1  3  2  0  0  0  0
  1  4  2  0  0  0  0
  1 17  1  0  0  0  0
  1 25  1  0  0  0  0
  2 10  1  0  0  0  0
  2 11  1  0  0  0  0
  5 21  2  0  0  0  0
  6 19  1  0  0  0  0
  6 21  1  0  0  0  0
  6 24  1  0  0  0  0
  7  8  1  0  0  0  0
  7  9  1  0  0  0  0
  7 10  1  0  0  0  0
  7 28  1  0  0  0  0
  8  9  1  0  0  0  0
  8 29  1  0  0  0  0
  8 30  1  0  0  0  0
  9 31  1  0  0  0  0
  9 32  1  0  0  0  0
 10 33  1  0  0  0  0
 10 34  1  0  0  0  0
 11 12  1  0  0  0  0
 11 14  2  0  0  0  0
 12 13  1  0  0  0  0
 12 15  2  0  0  0  0
 13 16  1  0  0  0  0
 13 19  2  0  0  0  0
 14 18  1  0  0  0  0
 14 35  1  0  0  0  0
 15 17  1  0  0  0  0
 15 36  1  0  0  0  0
 16 20  2  0  0  0  0
 16 22  1  0  0  0  0
 17 18  2  0  0  0  0
 18 37  1  0  0  0  0
 19 38  1  0  0  0  0
 20 21  1  0  0  0  0
 20 23  1  0  0  0  0
 22 26  2  0  0  0  0
 22 39  1  0  0  0  0
 23 27  2  0  0  0  0
 23 40  1  0  0  0  0
 24 41  1  0  0  0  0
 24 42  1  0  0  0  0
 24 43  1  0  0  0  0
 25 44  1  0  0  0  0
 25 45  1  0  0  0  0
 25 46  1  0  0  0  0
 26 27  1  0  0  0  0
 26 47  1  0  0  0  0
 27 48  1  0  0  0  0
M  END
>  <Mol_ID>
5740

>  <Formula>
C21H21NO4S

>  <MolWeight>
383.46074

>  <Cat>
S3573

>  <Name>
Trotabresib

>  <Synonyms>
BMS-986378,CC-90010

>  <Target>
Epigenetic Reader Domain

>  <Form>
Free Base

>  <CAS>
1706738-98-8

>  <URL>
http://www.selleckchem.com/products/cc-90010.html

$$$$
