Troxipide.cdx
 OpenBabel08302522043D

 43 44  0  0  0  0  0  0  0  0999 V2000
    1.3526   -0.1891   -0.0796 C   0  0  0  0  0  0  0  0  0  0  0  0
    0.5161   -1.3121   -0.0403 C   0  0  0  0  0  0  0  0  0  0  0  0
    0.7869    1.0795   -0.0371 C   0  0  0  0  0  0  0  0  0  0  0  0
    2.8270   -0.4249   -0.1505 C   0  0  0  0  0  0  0  0  0  0  0  0
   -0.8839   -1.1837   -0.0030 C   0  0  0  0  0  0  0  0  0  0  0  0
   -0.6097    1.2346    0.0224 C   0  0  0  0  0  0  0  0  0  0  0  0
    3.5917    0.5357   -0.7761 N   0  0  0  0  0  0  0  0  0  0  0  0
    3.2950   -1.4696    0.2899 O   0  0  0  0  0  0  0  0  0  0  0  0
   -1.4639    0.1056   -0.0007 C   0  0  0  0  0  0  0  0  0  0  0  0
   -1.7169   -2.2712    0.0347 O   0  0  0  0  0  0  0  0  0  0  0  0
   -0.9933    2.5567    0.0419 O   0  0  0  0  0  0  0  0  0  0  0  0
    5.0290    0.3721   -1.0098 C   0  0  3  0  0  0  0  0  0  0  0  0
   -2.8058    0.3881   -0.0459 O   0  0  0  0  0  0  0  0  0  0  0  0
   -1.1480   -3.5744    0.0167 C   0  0  0  0  0  0  0  0  0  0  0  0
   -2.1870    2.8770    0.7489 C   0  0  0  0  0  0  0  0  0  0  0  0
    5.8571    0.9825    0.1283 C   0  0  0  0  0  0  0  0  0  0  0  0
    5.4289    1.0404   -2.3429 C   0  0  0  0  0  0  0  0  0  0  0  0
   -3.7658   -0.6479   -0.1818 C   0  0  0  0  0  0  0  0  0  0  0  0
    5.7616    2.5093    0.1298 C   0  0  0  0  0  0  0  0  0  0  0  0
    5.2378    2.5002   -2.2983 N   0  0  0  0  0  0  0  0  0  0  0  0
    6.0673    3.0987   -1.2476 C   0  0  0  0  0  0  0  0  0  0  0  0
    0.9900   -2.2900   -0.0528 H   0  0  0  0  0  0  0  0  0  0  0  0
    1.4085    1.9714   -0.0188 H   0  0  0  0  0  0  0  0  0  0  0  0
    3.1763    1.3744   -1.1613 H   0  0  0  0  0  0  0  0  0  0  0  0
    5.2476   -0.7005   -1.0714 H   0  0  0  0  0  0  0  0  0  0  0  0
   -0.5962   -3.7513   -0.9125 H   0  0  0  0  0  0  0  0  0  0  0  0
   -0.5193   -3.7431    0.8956 H   0  0  0  0  0  0  0  0  0  0  0  0
   -1.9709   -4.2959    0.0549 H   0  0  0  0  0  0  0  0  0  0  0  0
   -3.0660    2.7365    0.1128 H   0  0  0  0  0  0  0  0  0  0  0  0
   -2.2759    2.3228    1.6901 H   0  0  0  0  0  0  0  0  0  0  0  0
   -2.1471    3.9425    0.9985 H   0  0  0  0  0  0  0  0  0  0  0  0
    5.5432    0.5871    1.1006 H   0  0  0  0  0  0  0  0  0  0  0  0
    6.9094    0.6987   -0.0080 H   0  0  0  0  0  0  0  0  0  0  0  0
    6.4742    0.8073   -2.5847 H   0  0  0  0  0  0  0  0  0  0  0  0
    4.8130    0.6366   -3.1542 H   0  0  0  0  0  0  0  0  0  0  0  0
   -3.5837   -1.2630   -1.0685 H   0  0  0  0  0  0  0  0  0  0  0  0
   -3.8283   -1.2442    0.7339 H   0  0  0  0  0  0  0  0  0  0  0  0
   -4.7432   -0.1745   -0.3232 H   0  0  0  0  0  0  0  0  0  0  0  0
    4.7562    2.8138    0.4450 H   0  0  0  0  0  0  0  0  0  0  0  0
    6.4622    2.9194    0.8666 H   0  0  0  0  0  0  0  0  0  0  0  0
    5.5130    2.8949   -3.1987 H   0  0  0  0  0  0  0  0  0  0  0  0
    5.8810    4.1783   -1.2245 H   0  0  0  0  0  0  0  0  0  0  0  0
    7.1296    2.9649   -1.4873 H   0  0  0  0  0  0  0  0  0  0  0  0
  1  2  2  0  0  0  0
  1  3  1  0  0  0  0
  1  4  1  0  0  0  0
  2  5  1  0  0  0  0
  2 22  1  0  0  0  0
  3  6  2  0  0  0  0
  3 23  1  0  0  0  0
  4  7  1  0  0  0  0
  4  8  2  0  0  0  0
  5  9  2  0  0  0  0
  5 10  1  0  0  0  0
  6 11  1  0  0  0  0
  6  9  1  0  0  0  0
  7 12  1  0  0  0  0
  7 24  1  0  0  0  0
  9 13  1  0  0  0  0
 10 14  1  0  0  0  0
 11 15  1  0  0  0  0
 12 16  1  0  0  0  0
 12 17  1  0  0  0  0
 12 25  1  0  0  0  0
 13 18  1  0  0  0  0
 14 26  1  0  0  0  0
 14 27  1  0  0  0  0
 14 28  1  0  0  0  0
 15 29  1  0  0  0  0
 15 30  1  0  0  0  0
 15 31  1  0  0  0  0
 16 19  1  0  0  0  0
 16 32  1  0  0  0  0
 16 33  1  0  0  0  0
 17 20  1  0  0  0  0
 17 34  1  0  0  0  0
 17 35  1  0  0  0  0
 18 36  1  0  0  0  0
 18 37  1  0  0  0  0
 18 38  1  0  0  0  0
 19 21  1  0  0  0  0
 19 39  1  0  0  0  0
 19 40  1  0  0  0  0
 20 21  1  0  0  0  0
 20 41  1  0  0  0  0
 21 42  1  0  0  0  0
 21 43  1  0  0  0  0
M  END
>  <Mol_ID>
1260

>  <Formula>
C15H22N2O4

>  <MolWeight>
294.34618

>  <Cat>
S4128

>  <Name>
Troxipide

>  <Synonyms>
KU 54

>  <Target>
Others

>  <Form>
free base

>  <CAS>
30751-05-4

>  <URL>
http://selleckchem.com/products/troxipide.html

$$$$
