TRPM8 antagonist 2
 OpenBabel08302521243D

 56 59  0  0  0  0  0  0  0  0999 V2000
   -2.1327   -3.4735    5.7838 C   0  0  0  0  0  0  0  0  0  0  0  0
   -1.5253   -2.4264    6.4722 C   0  0  0  0  0  0  0  0  0  0  0  0
   -0.5875   -1.6011    5.8465 C   0  0  0  0  0  0  0  0  0  0  0  0
   -0.2819   -1.8687    4.5089 C   0  0  0  0  0  0  0  0  0  0  0  0
   -0.8709   -2.9084    3.7908 C   0  0  0  0  0  0  0  0  0  0  0  0
   -1.8152   -3.7260    4.4447 C   0  0  0  0  0  0  0  0  0  0  0  0
    0.6070   -1.2457    3.6657 N   0  0  0  0  0  0  0  0  0  0  0  0
    0.6272   -1.8749    2.4520 C   0  0  0  0  0  0  0  0  0  0  0  0
   -0.2961   -2.9024    2.4818 C   0  0  0  0  0  0  0  0  0  0  0  0
   -0.5524   -3.9049    1.4030 C   0  0  0  0  0  0  0  0  0  0  0  0
   -0.7899   -3.3228   -0.0106 C   0  0  2  0  0  0  0  0  0  0  0  0
   -2.0684   -2.5732   -0.2491 N   0  0  0  0  0  0  0  0  0  0  0  0
   -3.3170   -3.3239   -0.0234 C   0  0  0  0  0  0  0  0  0  0  0  0
   -1.9935   -1.7547   -1.4752 C   0  0  0  0  0  0  0  0  0  0  0  0
   -3.5636   -4.5174   -0.9234 C   0  0  0  0  0  0  0  0  0  0  0  0
   -3.1043   -0.7438   -1.7286 C   0  0  0  0  0  0  0  0  0  0  0  0
   -3.3454    0.3160   -0.8470 C   0  0  0  0  0  0  0  0  0  0  0  0
   -4.3067    1.2909   -1.1505 C   0  0  0  0  0  0  0  0  0  0  0  0
   -5.0601    1.2020   -2.3205 C   0  0  0  0  0  0  0  0  0  0  0  0
   -4.8379    0.1541   -3.2048 C   0  0  0  0  0  0  0  0  0  0  0  0
   -3.8466   -0.7876   -2.9247 C   0  0  0  0  0  0  0  0  0  0  0  0
   -3.5347   -5.8252   -0.4154 C   0  0  0  0  0  0  0  0  0  0  0  0
   -3.5846   -6.9224   -1.2871 C   0  0  0  0  0  0  0  0  0  0  0  0
   -3.6766   -6.7228   -2.6623 C   0  0  0  0  0  0  0  0  0  0  0  0
   -3.7896   -5.4361   -3.1655 C   0  0  0  0  0  0  0  0  0  0  0  0
   -3.7766   -4.3544   -2.2917 C   0  0  0  0  0  0  0  0  0  0  0  0
   -0.4837   -4.4805   -0.9791 C   0  0  0  0  0  0  0  0  0  0  0  0
   -0.4901   -5.6708   -0.6768 O   0  0  0  0  0  0  0  0  0  0  0  0
    0.0279   -3.9991   -2.1513 O   0  0  0  0  0  0  0  0  0  0  0  0
    0.7953   -4.9783   -2.8477 C   0  0  0  0  0  0  0  0  0  0  0  0
   -2.8532   -4.1091    6.2916 H   0  0  0  0  0  0  0  0  0  0  0  0
   -1.7801   -2.2515    7.5152 H   0  0  0  0  0  0  0  0  0  0  0  0
   -0.1089   -0.7917    6.3882 H   0  0  0  0  0  0  0  0  0  0  0  0
   -2.2845   -4.5553    3.9245 H   0  0  0  0  0  0  0  0  0  0  0  0
    1.1859   -0.4596    3.9250 H   0  0  0  0  0  0  0  0  0  0  0  0
    1.3073   -1.5474    1.6773 H   0  0  0  0  0  0  0  0  0  0  0  0
    0.3502   -4.5352    1.3771 H   0  0  0  0  0  0  0  0  0  0  0  0
   -1.3627   -4.5876    1.6824 H   0  0  0  0  0  0  0  0  0  0  0  0
    0.0288   -2.6064   -0.1656 H   0  0  0  0  0  0  0  0  0  0  0  0
   -3.3346   -3.6532    1.0246 H   0  0  0  0  0  0  0  0  0  0  0  0
   -4.1837   -2.6532   -0.0874 H   0  0  0  0  0  0  0  0  0  0  0  0
   -1.0745   -1.1535   -1.4365 H   0  0  0  0  0  0  0  0  0  0  0  0
   -1.8833   -2.3881   -2.3602 H   0  0  0  0  0  0  0  0  0  0  0  0
   -2.7665    0.4057    0.0696 H   0  0  0  0  0  0  0  0  0  0  0  0
   -4.4633    2.1280   -0.4751 H   0  0  0  0  0  0  0  0  0  0  0  0
   -5.8094    1.9552   -2.5515 H   0  0  0  0  0  0  0  0  0  0  0  0
   -5.4179    0.0764   -4.1211 H   0  0  0  0  0  0  0  0  0  0  0  0
   -3.6521   -1.5524   -3.6718 H   0  0  0  0  0  0  0  0  0  0  0  0
   -3.4180   -6.0054    0.6502 H   0  0  0  0  0  0  0  0  0  0  0  0
   -3.5192   -7.9280   -0.8881 H   0  0  0  0  0  0  0  0  0  0  0  0
   -3.6560   -7.5703   -3.3400 H   0  0  0  0  0  0  0  0  0  0  0  0
   -3.8677   -5.2628   -4.2364 H   0  0  0  0  0  0  0  0  0  0  0  0
   -3.9025   -3.3693   -2.7058 H   0  0  0  0  0  0  0  0  0  0  0  0
    1.6456   -5.2791   -2.2251 H   0  0  0  0  0  0  0  0  0  0  0  0
    0.1892   -5.8491   -3.1166 H   0  0  0  0  0  0  0  0  0  0  0  0
    1.1867   -4.5221   -3.7595 H   0  0  0  0  0  0  0  0  0  0  0  0
  1  2  2  0  0  0  0
  1 31  1  0  0  0  0
  2  3  1  0  0  0  0
  2 32  1  0  0  0  0
  3  4  2  0  0  0  0
  3 33  1  0  0  0  0
  4  5  1  0  0  0  0
  4  7  1  0  0  0  0
  5  6  2  0  0  0  0
  6  1  1  0  0  0  0
  6 34  1  0  0  0  0
  7  8  1  0  0  0  0
  7 35  1  0  0  0  0
  8  9  2  0  0  0  0
  8 36  1  0  0  0  0
  9  5  1  0  0  0  0
  9 10  1  0  0  0  0
 10 37  1  0  0  0  0
 10 38  1  0  0  0  0
 11 27  1  0  0  0  0
 11 39  1  6  0  0  0
 11 12  1  0  0  0  0
 11 10  1  0  0  0  0
 12 13  1  0  0  0  0
 12 14  1  0  0  0  0
 13 15  1  0  0  0  0
 13 40  1  0  0  0  0
 13 41  1  0  0  0  0
 14 16  1  0  0  0  0
 14 42  1  0  0  0  0
 14 43  1  0  0  0  0
 15 22  2  0  0  0  0
 16 17  2  0  0  0  0
 17 18  1  0  0  0  0
 17 44  1  0  0  0  0
 18 19  2  0  0  0  0
 18 45  1  0  0  0  0
 19 20  1  0  0  0  0
 19 46  1  0  0  0  0
 20 21  2  0  0  0  0
 20 47  1  0  0  0  0
 21 16  1  0  0  0  0
 21 48  1  0  0  0  0
 22 23  1  0  0  0  0
 22 49  1  0  0  0  0
 23 24  2  0  0  0  0
 23 50  1  0  0  0  0
 24 25  1  0  0  0  0
 24 51  1  0  0  0  0
 25 26  2  0  0  0  0
 25 52  1  0  0  0  0
 26 15  1  0  0  0  0
 26 53  1  0  0  0  0
 27 28  2  0  0  0  0
 27 29  1  0  0  0  0
 29 30  1  0  0  0  0
 30 54  1  0  0  0  0
 30 55  1  0  0  0  0
 30 56  1  0  0  0  0
M  END
>  <Mol_ID>
5047

>  <Formula>
C26H26N2O2

>  <MolWeight>
398.49684

>  <Cat>
S0174

>  <Name>
TRPM8 antagonist 2

>  <Synonyms>
TRPM8 Antagonist

>  <Target>
TRP Channel

>  <Form>
free base

>  <CAS>
259674-19-6

>  <URL>
http://www.selleckchem.com/products/trpm8-antagonist-2.html

$$$$
