TRULI
 OpenBabel08302521333D

 38 41  0  0  0  0  0  0  0  0999 V2000
    2.4448    2.6906   -1.4140 C   0  0  0  0  0  0  0  0  0  0  0  0
    3.4810    2.0645   -0.7349 C   0  0  0  0  0  0  0  0  0  0  0  0
    3.3628    0.7079   -0.4177 C   0  0  0  0  0  0  0  0  0  0  0  0
    2.1877    0.0361   -0.8086 C   0  0  0  0  0  0  0  0  0  0  0  0
    1.2373    0.7958   -1.4847 C   0  0  0  0  0  0  0  0  0  0  0  0
    1.2978    2.0990   -1.8137 N   0  0  0  0  0  0  0  0  0  0  0  0
    1.6574   -1.2983   -0.6893 C   0  0  0  0  0  0  0  0  0  0  0  0
    0.4110   -1.2739   -1.3060 C   0  0  0  0  0  0  0  0  0  0  0  0
    0.1782   -0.0114   -1.7776 N   0  0  0  0  0  0  0  0  0  0  0  0
    2.2714   -2.4566   -0.0254 C   0  0  0  0  0  0  0  0  0  0  0  0
    3.3203   -2.3575    0.5989 O   0  0  0  0  0  0  0  0  0  0  0  0
    1.4706   -3.5727   -0.1081 N   0  0  0  0  0  0  0  0  0  0  0  0
    1.9722   -4.7642   -0.1490 C   0  0  0  0  0  0  0  0  0  0  0  0
    3.7187   -5.1889   -0.1936 S   0  0  0  0  0  0  0  0  0  0  0  0
    3.3632   -6.8906   -0.0992 C   0  0  0  0  0  0  0  0  0  0  0  0
    2.0433   -7.1038   -0.1088 C   0  0  0  0  0  0  0  0  0  0  0  0
    1.2514   -5.9646   -0.1706 N   0  0  0  0  0  0  0  0  0  0  0  0
   -0.2069   -6.0122   -0.1803 C   0  0  0  0  0  0  0  0  0  0  0  0
   -0.7753   -6.2198   -1.5723 C   0  0  0  0  0  0  0  0  0  0  0  0
   -1.5157   -7.3717   -1.8880 C   0  0  0  0  0  0  0  0  0  0  0  0
   -2.0856   -7.5308   -3.1573 C   0  0  0  0  0  0  0  0  0  0  0  0
   -1.9243   -6.5384   -4.1225 C   0  0  0  0  0  0  0  0  0  0  0  0
   -1.1911   -5.3927   -3.8249 C   0  0  0  0  0  0  0  0  0  0  0  0
   -0.6188   -5.2365   -2.5613 C   0  0  0  0  0  0  0  0  0  0  0  0
    2.5166    3.7462   -1.6677 H   0  0  0  0  0  0  0  0  0  0  0  0
    4.3669    2.6249   -0.4553 H   0  0  0  0  0  0  0  0  0  0  0  0
    4.1563    0.1928    0.1166 H   0  0  0  0  0  0  0  0  0  0  0  0
   -0.3312   -2.0485   -1.4288 H   0  0  0  0  0  0  0  0  0  0  0  0
   -0.6468    0.3096   -2.2609 H   0  0  0  0  0  0  0  0  0  0  0  0
    4.1300   -7.6492   -0.0332 H   0  0  0  0  0  0  0  0  0  0  0  0
    1.5620   -8.0720   -0.0528 H   0  0  0  0  0  0  0  0  0  0  0  0
   -0.5418   -6.8293    0.4733 H   0  0  0  0  0  0  0  0  0  0  0  0
   -0.6431   -5.1028    0.2501 H   0  0  0  0  0  0  0  0  0  0  0  0
   -1.6674   -8.1555   -1.1488 H   0  0  0  0  0  0  0  0  0  0  0  0
   -2.6601   -8.4218   -3.3901 H   0  0  0  0  0  0  0  0  0  0  0  0
   -2.3713   -6.6565   -5.1063 H   0  0  0  0  0  0  0  0  0  0  0  0
   -1.0662   -4.6162   -4.5749 H   0  0  0  0  0  0  0  0  0  0  0  0
   -0.0516   -4.3343   -2.3476 H   0  0  0  0  0  0  0  0  0  0  0  0
  1  2  2  0  0  0  0
  1 25  1  0  0  0  0
  2  3  1  0  0  0  0
  2 26  1  0  0  0  0
  3  4  2  0  0  0  0
  3 27  1  0  0  0  0
  4  5  1  0  0  0  0
  4  7  1  0  0  0  0
  5  6  2  0  0  0  0
  6  1  1  0  0  0  0
  7  8  2  0  0  0  0
  7 10  1  0  0  0  0
  8  9  1  0  0  0  0
  8 28  1  0  0  0  0
  9  5  1  0  0  0  0
  9 29  1  0  0  0  0
 10 11  2  0  0  0  0
 10 12  1  0  0  0  0
 12 13  2  0  0  0  0
 13 14  1  0  0  0  0
 14 15  1  0  0  0  0
 15 16  2  0  0  0  0
 15 30  1  0  0  0  0
 16 17  1  0  0  0  0
 16 31  1  0  0  0  0
 17 13  1  0  0  0  0
 17 18  1  0  0  0  0
 18 19  1  0  0  0  0
 18 32  1  0  0  0  0
 18 33  1  0  0  0  0
 19 20  2  0  0  0  0
 20 21  1  0  0  0  0
 20 34  1  0  0  0  0
 21 22  2  0  0  0  0
 21 35  1  0  0  0  0
 22 23  1  0  0  0  0
 22 36  1  0  0  0  0
 23 24  2  0  0  0  0
 23 37  1  0  0  0  0
 24 19  1  0  0  0  0
 24 38  1  0  0  0  0
M  END
>  <Mol_ID>
6389

>  <Formula>
C18H14N4OS

>  <MolWeight>
334.39496

>  <Cat>
E1061

>  <Name>
TRULI

>  <Target>
LATS

>  <Form>
free base

>  <CAS>
1424635-83-5

>  <URL>
http://www.selleckchem.com/products/turi.html

$$$$
