Tryptanthrin
 OpenBabel08302520343D

 27 30  0  0  0  0  0  0  0  0999 V2000
   -0.4197   -0.2161    0.0007 N   0  0  0  0  0  0  0  0  0  0  0  0
   -0.0886    1.1231    0.0008 C   0  0  0  0  0  0  0  0  0  0  0  0
   -1.8152   -0.3739    0.0004 C   0  0  0  0  0  0  0  0  0  0  0  0
    0.5311   -1.2075    0.0010 C   0  0  0  0  0  0  0  0  0  0  0  0
   -1.4022    1.8935    0.0004 C   0  0  0  0  0  0  0  0  0  0  0  0
    1.1053    1.6136    0.0008 N   0  0  0  0  0  0  0  0  0  0  0  0
   -2.4514    0.8686    0.0005 C   0  0  0  0  0  0  0  0  0  0  0  0
   -2.5618   -1.5386   -0.0002 C   0  0  0  0  0  0  0  0  0  0  0  0
    1.9266   -0.7172    0.0003 C   0  0  0  0  0  0  0  0  0  0  0  0
    0.3089   -2.4146    0.0016 O   0  0  0  0  0  0  0  0  0  0  0  0
   -1.5444    3.0934    0.0000 O   0  0  0  0  0  0  0  0  0  0  0  0
    2.1539    0.6686   -0.0004 C   0  0  0  0  0  0  0  0  0  0  0  0
   -3.8269    1.0066    0.0004 C   0  0  0  0  0  0  0  0  0  0  0  0
   -3.9569   -1.4276   -0.0004 C   0  0  0  0  0  0  0  0  0  0  0  0
    2.9881   -1.6298   -0.0002 C   0  0  0  0  0  0  0  0  0  0  0  0
    3.4745    1.1214   -0.0003 C   0  0  0  0  0  0  0  0  0  0  0  0
   -4.5837   -0.1673   -0.0000 C   0  0  0  0  0  0  0  0  0  0  0  0
    4.2983   -1.1589   -0.0009 C   0  0  0  0  0  0  0  0  0  0  0  0
    4.5411    0.2142   -0.0009 C   0  0  0  0  0  0  0  0  0  0  0  0
   -2.0973   -2.5203   -0.0006 H   0  0  0  0  0  0  0  0  0  0  0  0
   -4.2970    1.9846    0.0004 H   0  0  0  0  0  0  0  0  0  0  0  0
   -4.5640   -2.3316   -0.0009 H   0  0  0  0  0  0  0  0  0  0  0  0
    2.7944   -2.7001   -0.0003 H   0  0  0  0  0  0  0  0  0  0  0  0
    3.6759    2.1901   -0.0003 H   0  0  0  0  0  0  0  0  0  0  0  0
   -5.6711   -0.1127   -0.0001 H   0  0  0  0  0  0  0  0  0  0  0  0
    5.1274   -1.8629   -0.0016 H   0  0  0  0  0  0  0  0  0  0  0  0
    5.5648    0.5822   -0.0015 H   0  0  0  0  0  0  0  0  0  0  0  0
  1  2  1  0  0  0  0
  1  3  1  0  0  0  0
  1  4  1  0  0  0  0
  2  5  1  0  0  0  0
  2  6  2  0  0  0  0
  3  7  2  0  0  0  0
  3  8  1  0  0  0  0
  4  9  1  0  0  0  0
  4 10  2  0  0  0  0
  5 11  2  0  0  0  0
  5  7  1  0  0  0  0
  6 12  1  0  0  0  0
  7 13  1  0  0  0  0
  8 14  2  0  0  0  0
  8 20  1  0  0  0  0
  9 15  2  0  0  0  0
  9 12  1  0  0  0  0
 12 16  2  0  0  0  0
 13 17  2  0  0  0  0
 13 21  1  0  0  0  0
 14 17  1  0  0  0  0
 14 22  1  0  0  0  0
 15 18  1  0  0  0  0
 15 23  1  0  0  0  0
 16 19  1  0  0  0  0
 16 24  1  0  0  0  0
 17 25  1  0  0  0  0
 18 19  2  0  0  0  0
 18 26  1  0  0  0  0
 19 27  1  0  0  0  0
M  END
>  <Mol_ID>
3364

>  <Formula>
C15H8N2O2

>  <MolWeight>
248.23622

>  <Cat>
S5686

>  <Name>
Tryptanthrin

>  <Synonyms>
N/A

>  <Target>
Immunology & Inflammation related

>  <Form>
Free Base

>  <CAS>
13220-57-0

>  <URL>
http://www.selleckchem.com/products/tryptanthrin.html

$$$$
