Tubercidin.cdx
 OpenBabel08302520413D

 33 35  0  0  0  0  0  0  0  0999 V2000
   -3.9999   -0.0285    4.2936 N   0  0  0  0  0  0  0  0  0  0  0  0
   -2.7656   -0.4156    3.9131 C   0  0  0  0  0  0  0  0  0  0  0  0
   -2.3926   -0.9971    2.7533 N   0  0  0  0  0  0  0  0  0  0  0  0
   -3.4345   -1.1306    1.9213 C   0  0  0  0  0  0  0  0  0  0  0  0
   -4.7392   -0.7380    2.1657 C   0  0  0  0  0  0  0  0  0  0  0  0
   -5.0209   -0.2048    3.4294 C   0  0  0  0  0  0  0  0  0  0  0  0
   -3.4065   -1.7564    0.6961 N   0  0  0  0  0  0  0  0  0  0  0  0
   -4.6253   -1.5908    0.0834 C   0  0  0  0  0  0  0  0  0  0  0  0
   -5.4914   -1.0317    0.9963 C   0  0  0  0  0  0  0  0  0  0  0  0
   -6.2908    0.1463    3.8434 N   0  0  0  0  0  0  0  0  0  0  0  0
   -1.7058   -4.8962    0.0967 C   0  0  2  0  0  0  0  0  0  0  0  0
   -1.9329   -3.7801    1.1129 C   0  0  3  0  0  0  0  0  0  0  0  0
   -2.2989   -2.5699    0.2168 C   0  0  1  0  0  0  0  0  0  0  0  0
   -2.6347   -3.0839   -1.0992 O   0  0  0  0  0  0  0  0  0  0  0  0
   -2.6386   -4.5280   -1.0479 C   0  0  2  0  0  0  0  0  0  0  0  0
   -2.9103   -4.2634    2.0498 O   0  0  0  0  0  0  0  0  0  0  0  0
   -1.9286   -6.1893    0.6374 O   0  0  0  0  0  0  0  0  0  0  0  0
   -4.0856   -5.0199   -0.9092 C   0  0  0  0  0  0  0  0  0  0  0  0
   -4.8507   -4.6278   -2.0539 O   0  0  0  0  0  0  0  0  0  0  0  0
   -1.9741   -0.2376    4.6358 H   0  0  0  0  0  0  0  0  0  0  0  0
   -4.7983   -1.9207   -0.9298 H   0  0  0  0  0  0  0  0  0  0  0  0
   -6.5444   -0.8433    0.8295 H   0  0  0  0  0  0  0  0  0  0  0  0
   -6.9535    0.3675    3.1114 H   0  0  0  0  0  0  0  0  0  0  0  0
   -6.2721    0.7564    4.6506 H   0  0  0  0  0  0  0  0  0  0  0  0
   -0.6700   -4.8483   -0.2598 H   0  0  0  0  0  0  0  0  0  0  0  0
   -1.0238   -3.5809    1.6894 H   0  0  0  0  0  0  0  0  0  0  0  0
   -1.4392   -1.9057    0.0805 H   0  0  0  0  0  0  0  0  0  0  0  0
   -2.2422   -4.8895   -2.0036 H   0  0  0  0  0  0  0  0  0  0  0  0
   -3.7641   -3.8166    1.9117 H   0  0  0  0  0  0  0  0  0  0  0  0
   -2.1637   -6.0558    1.5807 H   0  0  0  0  0  0  0  0  0  0  0  0
   -4.1358   -6.1095   -0.8385 H   0  0  0  0  0  0  0  0  0  0  0  0
   -4.5862   -4.5892   -0.0386 H   0  0  0  0  0  0  0  0  0  0  0  0
   -4.6803   -3.6784   -2.1945 H   0  0  0  0  0  0  0  0  0  0  0  0
  1  2  2  0  0  0  0
  1  6  1  0  0  0  0
  2  3  1  0  0  0  0
  2 20  1  0  0  0  0
  3  4  2  0  0  0  0
  4  5  1  0  0  0  0
  4  7  1  0  0  0  0
  5  6  2  0  0  0  0
  5  9  1  0  0  0  0
  6 10  1  0  0  0  0
  7  8  1  0  0  0  0
  8  9  2  0  0  0  0
  8 21  1  0  0  0  0
  9 22  1  0  0  0  0
 10 23  1  0  0  0  0
 10 24  1  0  0  0  0
 11 12  1  0  0  0  0
 11 25  1  6  0  0  0
 11 17  1  0  0  0  0
 12 16  1  0  0  0  0
 12 26  1  0  0  0  0
 13 12  1  0  0  0  0
 13 14  1  0  0  0  0
 13 27  1  6  0  0  0
 13  7  1  0  0  0  0
 14 15  1  0  0  0  0
 15 11  1  0  0  0  0
 15 28  1  6  0  0  0
 15 18  1  0  0  0  0
 16 29  1  0  0  0  0
 17 30  1  0  0  0  0
 18 19  1  0  0  0  0
 18 31  1  0  0  0  0
 18 32  1  0  0  0  0
 19 33  1  0  0  0  0
M  END
>  <Mol_ID>
3949

>  <Formula>
C11H14N4O4

>  <MolWeight>
266.25326

>  <Cat>
S8095

>  <Name>
Tubercidin

>  <Synonyms>
7-deaza-adenosine

>  <Target>
DNA/RNA Synthesis,Fungal

>  <Form>
free base

>  <CAS>
69-33-0

>  <URL>
http://selleckchem.com/products/tubercidin.html

$$$$
