Tucidinostat (Chidamide).cdx
 OpenBabel08302520433D

 48 50  0  0  0  0  0  0  0  0999 V2000
    1.4511   -0.1691    0.0888 C   0  0  0  0  0  0  0  0  0  0  0  0
    0.5647   -1.2466   -0.0098 C   0  0  0  0  0  0  0  0  0  0  0  0
   -0.8073   -1.0203   -0.1168 C   0  0  0  0  0  0  0  0  0  0  0  0
   -1.3212    0.2852   -0.1326 C   0  0  0  0  0  0  0  0  0  0  0  0
   -0.4421    1.3685   -0.0483 C   0  0  0  0  0  0  0  0  0  0  0  0
    0.9379    1.1379    0.0568 C   0  0  0  0  0  0  0  0  0  0  0  0
   -2.7907    0.4265   -0.3215 C   0  0  0  0  0  0  0  0  0  0  0  0
   -3.4175    1.5045    0.2729 N   0  0  0  0  0  0  0  0  0  0  0  0
   -4.8178    1.7836    0.2836 C   0  0  0  0  0  0  0  0  0  0  0  0
   -3.3415   -0.4344   -1.0062 O   0  0  0  0  0  0  0  0  0  0  0  0
    2.9337   -0.4221    0.1854 C   0  0  0  0  0  0  0  0  0  0  0  0
    3.5415   -0.5125   -1.1201 N   0  0  0  0  0  0  0  0  0  0  0  0
    4.8890   -0.7410   -1.2424 C   0  0  0  0  0  0  0  0  0  0  0  0
    5.3307   -0.8456   -2.6546 C   0  0  0  0  0  0  0  0  0  0  0  0
    6.6208   -1.0671   -2.9550 C   0  0  0  0  0  0  0  0  0  0  0  0
    7.1162   -1.1987   -4.3318 C   0  0  0  0  0  0  0  0  0  0  0  0
    6.5503   -0.5103   -5.4095 C   0  0  0  0  0  0  0  0  0  0  0  0
    7.0504   -0.6932   -6.6970 C   0  0  0  0  0  0  0  0  0  0  0  0
    8.1242   -1.5489   -6.8692 C   0  0  0  0  0  0  0  0  0  0  0  0
    8.7256   -2.2054   -5.8555 N   0  0  0  0  0  0  0  0  0  0  0  0
    8.2136   -2.0102   -4.6146 C   0  0  0  0  0  0  0  0  0  0  0  0
    5.6571   -0.8506   -0.2964 O   0  0  0  0  0  0  0  0  0  0  0  0
   -5.8544    0.8379    0.0740 C   0  0  0  0  0  0  0  0  0  0  0  0
   -7.1958    1.2633    0.1277 C   0  0  0  0  0  0  0  0  0  0  0  0
   -7.5232    2.6011    0.3242 C   0  0  0  0  0  0  0  0  0  0  0  0
   -6.5060    3.5157    0.5329 C   0  0  0  0  0  0  0  0  0  0  0  0
   -5.1686    3.1209    0.5322 C   0  0  0  0  0  0  0  0  0  0  0  0
   -5.6440   -0.5577    0.1079 N   0  0  0  0  0  0  0  0  0  0  0  0
   -6.8114    4.8016    0.7468 F   0  0  0  0  0  0  0  0  0  0  0  0
    0.9342   -2.2708   -0.0081 H   0  0  0  0  0  0  0  0  0  0  0  0
   -1.4813   -1.8726   -0.1971 H   0  0  0  0  0  0  0  0  0  0  0  0
   -0.7968    2.3929   -0.1025 H   0  0  0  0  0  0  0  0  0  0  0  0
    1.6179    1.9874    0.1046 H   0  0  0  0  0  0  0  0  0  0  0  0
   -2.8292    2.2187    0.6781 H   0  0  0  0  0  0  0  0  0  0  0  0
    3.4284    0.3762    0.7505 H   0  0  0  0  0  0  0  0  0  0  0  0
    3.1280   -1.3585    0.7225 H   0  0  0  0  0  0  0  0  0  0  0  0
    2.9437   -0.4752   -1.9343 H   0  0  0  0  0  0  0  0  0  0  0  0
    4.5738   -0.7515   -3.4209 H   0  0  0  0  0  0  0  0  0  0  0  0
    7.3563   -1.1903   -2.1602 H   0  0  0  0  0  0  0  0  0  0  0  0
    5.7215    0.1764   -5.2644 H   0  0  0  0  0  0  0  0  0  0  0  0
    6.6108   -0.1785   -7.5441 H   0  0  0  0  0  0  0  0  0  0  0  0
    8.5424   -1.7309   -7.8549 H   0  0  0  0  0  0  0  0  0  0  0  0
    8.7284   -2.5590   -3.8295 H   0  0  0  0  0  0  0  0  0  0  0  0
   -7.9980    0.5352    0.0280 H   0  0  0  0  0  0  0  0  0  0  0  0
   -8.5591    2.9220    0.3430 H   0  0  0  0  0  0  0  0  0  0  0  0
   -4.4168    3.8834    0.7055 H   0  0  0  0  0  0  0  0  0  0  0  0
   -6.3605   -1.0830   -0.3796 H   0  0  0  0  0  0  0  0  0  0  0  0
   -4.7291   -0.7903   -0.2935 H   0  0  0  0  0  0  0  0  0  0  0  0
  1  2  2  0  0  0  0
  1 11  1  0  0  0  0
  2  3  1  0  0  0  0
  2 30  1  0  0  0  0
  3  4  2  0  0  0  0
  3 31  1  0  0  0  0
  4  5  1  0  0  0  0
  4  7  1  0  0  0  0
  5  6  2  0  0  0  0
  5 32  1  0  0  0  0
  6  1  1  0  0  0  0
  6 33  1  0  0  0  0
  7  8  1  0  0  0  0
  7 10  2  0  0  0  0
  8  9  1  0  0  0  0
  8 34  1  0  0  0  0
  9 23  2  0  0  0  0
 11 12  1  0  0  0  0
 11 35  1  0  0  0  0
 11 36  1  0  0  0  0
 12 13  1  0  0  0  0
 12 37  1  0  0  0  0
 13 14  1  0  0  0  0
 13 22  2  0  0  0  0
 14 15  2  0  0  0  0
 14 38  1  0  0  0  0
 15 16  1  0  0  0  0
 15 39  1  0  0  0  0
 16 17  2  0  0  0  0
 17 18  1  0  0  0  0
 17 40  1  0  0  0  0
 18 19  2  0  0  0  0
 18 41  1  0  0  0  0
 19 20  1  0  0  0  0
 19 42  1  0  0  0  0
 20 21  2  0  0  0  0
 21 16  1  0  0  0  0
 21 43  1  0  0  0  0
 23 24  1  0  0  0  0
 23 28  1  0  0  0  0
 24 25  2  0  0  0  0
 24 44  1  0  0  0  0
 25 26  1  0  0  0  0
 25 45  1  0  0  0  0
 26 27  2  0  0  0  0
 26 29  1  0  0  0  0
 27  9  1  0  0  0  0
 27 46  1  0  0  0  0
 28 47  1  0  0  0  0
 28 48  1  0  0  0  0
M  END
>  <Mol_ID>
4157

>  <Formula>
C22H19FN4O2

>  <MolWeight>
390.4102632

>  <Cat>
S8567

>  <Name>
Tucidinostat (Chidamide)

>  <Synonyms>
HBI-8000, CS-055

>  <Target>
HDAC

>  <Form>
free base

>  <CAS>
1616493-44-7

>  <URL>
http://selleckchem.com/products/tucidinostat-chidamide.html

$$$$
