Tulobuterol hydrochloride
 OpenBabel08302520403D

 33 33  0  0  0  0  0  0  0  0999 V2000
    2.8547   -1.9140    0.5804 C   0  0  0  0  0  0  0  0  0  0  0  0
    2.7729   -0.4110    0.3207 C   0  0  3  0  0  0  0  0  0  0  0  0
    4.0073   -2.6466    0.2373 C   0  0  0  0  0  0  0  0  0  0  0  0
    1.8046   -2.6010    1.2077 C   0  0  0  0  0  0  0  0  0  0  0  0
    3.5711    0.0551   -0.9370 C   0  0  0  0  0  0  0  0  0  0  0  0
    1.3965   -0.0280    0.1715 O   0  0  0  0  0  0  0  0  0  0  0  0
    4.0805   -4.0249    0.4617 C   0  0  0  0  0  0  0  0  0  0  0  0
    1.8740   -3.9826    1.4195 C   0  0  0  0  0  0  0  0  0  0  0  0
    3.4227    1.4942   -1.1920 N   0  0  0  0  0  0  0  0  0  0  0  0
    3.0097   -4.6925    1.0442 C   0  0  0  0  0  0  0  0  0  0  0  0
    4.1551    2.0331   -2.3524 C   0  0  0  0  0  0  0  0  0  0  0  0
    3.6819    1.3904   -3.6656 C   0  0  0  0  0  0  0  0  0  0  0  0
    3.8270    3.5381   -2.4015 C   0  0  0  0  0  0  0  0  0  0  0  0
    5.6793    1.8797   -2.2034 C   0  0  0  0  0  0  0  0  0  0  0  0
    3.1553    0.1092    1.2072 H   0  0  0  0  0  0  0  0  0  0  0  0
    4.8710   -2.1693   -0.2084 H   0  0  0  0  0  0  0  0  0  0  0  0
    0.9150   -2.0656    1.5330 H   0  0  0  0  0  0  0  0  0  0  0  0
    4.6293   -0.1744   -0.7905 H   0  0  0  0  0  0  0  0  0  0  0  0
    3.2070   -0.5132   -1.7999 H   0  0  0  0  0  0  0  0  0  0  0  0
    1.1571   -0.1962   -0.7546 H   0  0  0  0  0  0  0  0  0  0  0  0
    4.9789   -4.5672    0.1792 H   0  0  0  0  0  0  0  0  0  0  0  0
    1.0365   -4.5031    1.8805 H   0  0  0  0  0  0  0  0  0  0  0  0
    2.4288    1.7115   -1.2746 H   0  0  0  0  0  0  0  0  0  0  0  0
    3.0656   -5.7620    1.2142 H   0  0  0  0  0  0  0  0  0  0  0  0
    2.5947    1.4770   -3.7756 H   0  0  0  0  0  0  0  0  0  0  0  0
    4.1411    1.8802   -4.5315 H   0  0  0  0  0  0  0  0  0  0  0  0
    3.9431    0.3283   -3.7207 H   0  0  0  0  0  0  0  0  0  0  0  0
    4.1511    4.0497   -1.4870 H   0  0  0  0  0  0  0  0  0  0  0  0
    4.3266    4.0256   -3.2468 H   0  0  0  0  0  0  0  0  0  0  0  0
    2.7499    3.7087   -2.5152 H   0  0  0  0  0  0  0  0  0  0  0  0
    6.0361    2.3248   -1.2669 H   0  0  0  0  0  0  0  0  0  0  0  0
    5.9953    0.8313   -2.2204 H   0  0  0  0  0  0  0  0  0  0  0  0
    6.2050    2.3837   -3.0237 H   0  0  0  0  0  0  0  0  0  0  0  0
  1  2  1  0  0  0  0
  1  3  2  0  0  0  0
  1  4  1  0  0  0  0
  2  5  1  0  0  0  0
  2  6  1  0  0  0  0
  2 15  1  0  0  0  0
  3  7  1  0  0  0  0
  3 16  1  0  0  0  0
  4  8  2  0  0  0  0
  4 17  1  0  0  0  0
  5  9  1  0  0  0  0
  5 18  1  0  0  0  0
  5 19  1  0  0  0  0
  6 20  1  0  0  0  0
  7 10  2  0  0  0  0
  7 21  1  0  0  0  0
  8 10  1  0  0  0  0
  8 22  1  0  0  0  0
  9 11  1  0  0  0  0
  9 23  1  0  0  0  0
 10 24  1  0  0  0  0
 11 12  1  0  0  0  0
 11 13  1  0  0  0  0
 11 14  1  0  0  0  0
 12 25  1  0  0  0  0
 12 26  1  0  0  0  0
 12 27  1  0  0  0  0
 13 28  1  0  0  0  0
 13 29  1  0  0  0  0
 13 30  1  0  0  0  0
 14 31  1  0  0  0  0
 14 32  1  0  0  0  0
 14 33  1  0  0  0  0
M  END
>  <Mol_ID>
3728

>  <Formula>
C12H19Cl2NO

>  <MolWeight>
264.19136

>  <Cat>
S6407

>  <Name>
Tulobuterol hydrochloride

>  <Synonyms>
N/A

>  <Target>
Androgen Receptor

>  <Form>
hydrochloride

>  <CAS>
56776-01-3

>  <URL>
http://www.selleck.cn/products/tulobuterol-hydrochloride.html

$$$$
