Tuvusertib
 OpenBabel08302521373D

 39 42  0  0  0  0  0  0  0  0999 V2000
    0.8440    0.8910   -1.2776 C   0  0  0  0  0  0  0  0  0  0  0  0
    0.1653    1.2044   -0.1108 N   0  0  0  0  0  0  0  0  0  0  0  0
    0.2884    0.5361   -2.3143 O   0  0  0  0  0  0  0  0  0  0  0  0
    3.0301   -0.6598   -2.8500 N   0  0  0  0  0  0  0  0  0  0  0  0
    5.9182    3.9102    1.6195 F   0  0  0  0  0  0  0  0  0  0  0  0
   -4.1667    0.1439    1.8396 F   0  0  0  0  0  0  0  0  0  0  0  0
   -3.0229   -2.3791    1.7442 C   0  0  0  0  0  0  0  0  0  0  0  0
    3.0172    1.7712   -0.3153 C   0  0  0  0  0  0  0  0  0  0  0  0
    2.2908    0.9576   -1.1682 C   0  0  0  0  0  0  0  0  0  0  0  0
    4.3661    1.5210   -0.6041 N   0  0  0  0  0  0  0  0  0  0  0  0
    2.6252    2.6985    0.6220 N   0  0  0  0  0  0  0  0  0  0  0  0
    3.2755    0.2552   -1.9046 C   0  0  0  0  0  0  0  0  0  0  0  0
    4.5135    0.5791   -1.5519 N   0  0  0  0  0  0  0  0  0  0  0  0
    5.3739    2.2250    0.0506 C   0  0  0  0  0  0  0  0  0  0  0  0
    3.5917    3.3593    1.1952 C   0  0  0  0  0  0  0  0  0  0  0  0
    5.0351    3.1575    0.9447 C   0  0  0  0  0  0  0  0  0  0  0  0
   -1.2404    1.2588   -0.0229 C   0  0  0  0  0  0  0  0  0  0  0  0
   -1.9831    0.5527    0.9488 C   0  0  0  0  0  0  0  0  0  0  0  0
   -1.9266    2.0973   -0.9109 C   0  0  0  0  0  0  0  0  0  0  0  0
   -3.3711    0.7619    0.9528 C   0  0  0  0  0  0  0  0  0  0  0  0
   -3.2652    2.2918   -0.9090 N   0  0  0  0  0  0  0  0  0  0  0  0
   -3.9566    1.6073    0.0225 C   0  0  0  0  0  0  0  0  0  0  0  0
   -1.3739   -0.4147    1.8875 C   0  0  0  0  0  0  0  0  0  0  0  0
   -0.2125   -0.3252    2.6406 C   0  0  0  0  0  0  0  0  0  0  0  0
   -1.8636   -1.6687    2.2309 N   0  0  0  0  0  0  0  0  0  0  0  0
   -0.0006   -1.4287    3.4165 N   0  0  0  0  0  0  0  0  0  0  0  0
   -1.0183   -2.2187    3.1588 C   0  0  0  0  0  0  0  0  0  0  0  0
    0.7153    1.3214    0.7315 H   0  0  0  0  0  0  0  0  0  0  0  0
    3.8161   -0.9839   -3.4037 H   0  0  0  0  0  0  0  0  0  0  0  0
    2.1403   -0.6601   -3.3449 H   0  0  0  0  0  0  0  0  0  0  0  0
   -2.7406   -3.4150    1.5426 H   0  0  0  0  0  0  0  0  0  0  0  0
   -3.7900   -2.3516    2.5269 H   0  0  0  0  0  0  0  0  0  0  0  0
   -3.3965   -1.9343    0.8226 H   0  0  0  0  0  0  0  0  0  0  0  0
    6.3916    1.9870   -0.2256 H   0  0  0  0  0  0  0  0  0  0  0  0
    3.3461    4.1377    1.9362 H   0  0  0  0  0  0  0  0  0  0  0  0
   -1.3872    2.6966   -1.6415 H   0  0  0  0  0  0  0  0  0  0  0  0
   -5.0327    1.7470    0.0067 H   0  0  0  0  0  0  0  0  0  0  0  0
    0.4907    0.4969    2.6817 H   0  0  0  0  0  0  0  0  0  0  0  0
   -1.1912   -3.1894    3.6062 H   0  0  0  0  0  0  0  0  0  0  0  0
  1  2  1  0  0  0  0
  1  3  2  0  0  0  0
  1  9  1  0  0  0  0
  2 17  1  0  0  0  0
  2 28  1  0  0  0  0
  4 12  1  0  0  0  0
  4 29  1  0  0  0  0
  4 30  1  0  0  0  0
  5 16  1  0  0  0  0
  6 20  1  0  0  0  0
  7 25  1  0  0  0  0
  7 31  1  0  0  0  0
  7 32  1  0  0  0  0
  7 33  1  0  0  0  0
  8  9  2  0  0  0  0
  8 10  1  0  0  0  0
  8 11  1  0  0  0  0
  9 12  1  0  0  0  0
 10 13  1  0  0  0  0
 10 14  1  0  0  0  0
 11 15  2  0  0  0  0
 12 13  2  0  0  0  0
 14 16  2  0  0  0  0
 14 34  1  0  0  0  0
 15 16  1  0  0  0  0
 15 35  1  0  0  0  0
 17 18  1  0  0  0  0
 17 19  2  0  0  0  0
 18 20  2  0  0  0  0
 18 23  1  0  0  0  0
 19 21  1  0  0  0  0
 19 36  1  0  0  0  0
 20 22  1  0  0  0  0
 21 22  2  0  0  0  0
 22 37  1  0  0  0  0
 23 24  2  0  0  0  0
 23 25  1  0  0  0  0
 24 26  1  0  0  0  0
 24 38  1  0  0  0  0
 25 27  1  0  0  0  0
 26 27  2  0  0  0  0
 27 39  1  0  0  0  0
M  END
>  <Mol_ID>
7538

>  <Formula>
C16H12F2N8O

>  <MolWeight>
370.3162864

>  <Cat>
E1411

>  <Name>
Tuvusertib

>  <Synonyms>
M1774, ATR inhibitor 1

>  <Target>
ATM/ATR

>  <Form>
free base

>  <CAS>
1613200-51-3

>  <URL>
https://www.selleckchem.com/products/tuvusertib.html

$$$$
