TWS119.cdx
 OpenBabel08302521423D

 38 41  0  0  0  0  0  0  0  0999 V2000
   -0.3021    0.9342    1.8959 C   0  0  0  0  0  0  0  0  0  0  0  0
   -1.6806    0.7605    1.7807 C   0  0  0  0  0  0  0  0  0  0  0  0
   -2.1895   -0.3671    1.1333 C   0  0  0  0  0  0  0  0  0  0  0  0
   -1.3213   -1.3262    0.6043 C   0  0  0  0  0  0  0  0  0  0  0  0
    0.0619   -1.1320    0.6902 C   0  0  0  0  0  0  0  0  0  0  0  0
    0.5576   -0.0127    1.3526 C   0  0  0  0  0  0  0  0  0  0  0  0
    1.8997    0.1930    1.4886 O   0  0  0  0  0  0  0  0  0  0  0  0
   -1.9186   -2.3811   -0.0511 O   0  0  0  0  0  0  0  0  0  0  0  0
   -1.2905   -3.6165   -0.0280 C   0  0  0  0  0  0  0  0  0  0  0  0
   -0.4904   -3.9594    1.0148 N   0  0  0  0  0  0  0  0  0  0  0  0
    0.1288   -5.1507    0.9674 C   0  0  0  0  0  0  0  0  0  0  0  0
    0.0548   -6.0814    0.0034 N   0  0  0  0  0  0  0  0  0  0  0  0
   -0.7877   -5.7125   -0.9724 C   0  0  0  0  0  0  0  0  0  0  0  0
   -1.5016   -4.5312   -1.0611 C   0  0  0  0  0  0  0  0  0  0  0  0
   -1.0736   -6.4621   -2.0732 N   0  0  0  0  0  0  0  0  0  0  0  0
   -2.0039   -5.8258   -2.8673 C   0  0  0  0  0  0  0  0  0  0  0  0
   -2.2681   -4.6063   -2.2552 C   0  0  0  0  0  0  0  0  0  0  0  0
   -2.5100   -6.4104   -4.1091 C   0  0  0  0  0  0  0  0  0  0  0  0
   -2.6053   -7.7999   -4.2607 C   0  0  0  0  0  0  0  0  0  0  0  0
   -3.0381   -8.3513   -5.4649 C   0  0  0  0  0  0  0  0  0  0  0  0
   -3.3936   -7.5172   -6.5249 C   0  0  0  0  0  0  0  0  0  0  0  0
   -3.3677   -6.1288   -6.3783 C   0  0  0  0  0  0  0  0  0  0  0  0
   -2.8852   -5.5877   -5.1818 C   0  0  0  0  0  0  0  0  0  0  0  0
   -3.5852   -5.3021   -7.4882 N   0  0  0  0  0  0  0  0  0  0  0  0
    0.1014    1.8050    2.4044 H   0  0  0  0  0  0  0  0  0  0  0  0
   -2.3576    1.5018    2.1959 H   0  0  0  0  0  0  0  0  0  0  0  0
   -3.2643   -0.5003    1.0447 H   0  0  0  0  0  0  0  0  0  0  0  0
    0.7456   -1.8514    0.2536 H   0  0  0  0  0  0  0  0  0  0  0  0
    2.3663   -0.5749    1.1190 H   0  0  0  0  0  0  0  0  0  0  0  0
    0.7759   -5.3820    1.8077 H   0  0  0  0  0  0  0  0  0  0  0  0
   -0.6429   -7.3542   -2.2662 H   0  0  0  0  0  0  0  0  0  0  0  0
   -2.9544   -3.8530   -2.6198 H   0  0  0  0  0  0  0  0  0  0  0  0
   -2.3400   -8.4730   -3.4495 H   0  0  0  0  0  0  0  0  0  0  0  0
   -3.0830   -9.4307   -5.5835 H   0  0  0  0  0  0  0  0  0  0  0  0
   -3.6921   -7.9629   -7.4696 H   0  0  0  0  0  0  0  0  0  0  0  0
   -2.7841   -4.5093   -5.0936 H   0  0  0  0  0  0  0  0  0  0  0  0
   -3.8468   -4.3512   -7.2484 H   0  0  0  0  0  0  0  0  0  0  0  0
   -4.1982   -5.7067   -8.1882 H   0  0  0  0  0  0  0  0  0  0  0  0
  1  2  2  0  0  0  0
  1 25  1  0  0  0  0
  2  3  1  0  0  0  0
  2 26  1  0  0  0  0
  3  4  2  0  0  0  0
  3 27  1  0  0  0  0
  4  5  1  0  0  0  0
  4  8  1  0  0  0  0
  5  6  2  0  0  0  0
  5 28  1  0  0  0  0
  6  1  1  0  0  0  0
  6  7  1  0  0  0  0
  7 29  1  0  0  0  0
  8  9  1  0  0  0  0
  9 10  2  0  0  0  0
 10 11  1  0  0  0  0
 11 12  2  0  0  0  0
 11 30  1  0  0  0  0
 12 13  1  0  0  0  0
 13 14  2  0  0  0  0
 13 15  1  0  0  0  0
 14  9  1  0  0  0  0
 15 16  1  0  0  0  0
 15 31  1  0  0  0  0
 16 17  2  0  0  0  0
 16 18  1  0  0  0  0
 17 14  1  0  0  0  0
 17 32  1  0  0  0  0
 18 19  2  0  0  0  0
 19 20  1  0  0  0  0
 19 33  1  0  0  0  0
 20 21  2  0  0  0  0
 20 34  1  0  0  0  0
 21 22  1  0  0  0  0
 21 35  1  0  0  0  0
 22 23  2  0  0  0  0
 22 24  1  0  0  0  0
 23 18  1  0  0  0  0
 23 36  1  0  0  0  0
 24 37  1  0  0  0  0
 24 38  1  0  0  0  0
M  END
>  <Mol_ID>
850

>  <Formula>
C18H14N4O2

>  <MolWeight>
318.32936

>  <Cat>
S1590

>  <Name>
TWS119

>  <Synonyms>
N/A

>  <Target>
Autophagy,GSK-3

>  <Form>
free base

>  <CAS>
601514-19-6

>  <URL>
http://selleckchem.com/products/TWS119.html

$$$$
