U-104.cdx
 OpenBabel08302522003D

 33 34  0  0  0  0  0  0  0  0999 V2000
    0.8083    0.0047    0.0494 N   0  0  0  0  0  0  0  0  0  0  0  0
    0.2918    0.8495   -0.9184 C   0  0  0  0  0  0  0  0  0  0  0  0
    2.1832   -0.2027    0.3000 C   0  0  0  0  0  0  0  0  0  0  0  0
   -1.0661    1.0656   -0.7420 N   0  0  0  0  0  0  0  0  0  0  0  0
   -1.8642    1.9377   -1.5238 C   0  0  0  0  0  0  0  0  0  0  0  0
    0.9701    1.3568   -1.8034 O   0  0  0  0  0  0  0  0  0  0  0  0
   -1.4526    2.4426   -2.7638 C   0  0  0  0  0  0  0  0  0  0  0  0
   -2.2204    3.3837   -3.4452 C   0  0  0  0  0  0  0  0  0  0  0  0
   -3.4292    3.8126   -2.9038 C   0  0  0  0  0  0  0  0  0  0  0  0
   -3.8865    3.2876   -1.6936 C   0  0  0  0  0  0  0  0  0  0  0  0
   -3.1054    2.3405   -1.0134 C   0  0  0  0  0  0  0  0  0  0  0  0
    3.1763    0.6852   -0.1379 C   0  0  0  0  0  0  0  0  0  0  0  0
    4.5212    0.4525    0.1538 C   0  0  0  0  0  0  0  0  0  0  0  0
    4.8753   -0.6673    0.8893 C   0  0  0  0  0  0  0  0  0  0  0  0
    3.9086   -1.5571    1.3405 C   0  0  0  0  0  0  0  0  0  0  0  0
    2.5591   -1.3220    1.0518 C   0  0  0  0  0  0  0  0  0  0  0  0
    6.1654   -0.8922    1.1747 F   0  0  0  0  0  0  0  0  0  0  0  0
   -4.3138    5.1020   -3.7318 S   0  0  0  0  0  0  0  0  0  0  0  0
   -5.2707    4.2393   -4.8004 N   0  0  0  0  0  0  0  0  0  0  0  0
   -5.2167    5.7308   -2.7957 O   0  0  0  0  0  0  0  0  0  0  0  0
   -3.3943    5.8616   -4.5479 O   0  0  0  0  0  0  0  0  0  0  0  0
    0.1607   -0.6583    0.4563 H   0  0  0  0  0  0  0  0  0  0  0  0
   -1.4475    0.7890    0.1499 H   0  0  0  0  0  0  0  0  0  0  0  0
   -0.5188    2.1355   -3.2261 H   0  0  0  0  0  0  0  0  0  0  0  0
   -1.8503    3.7895   -4.3865 H   0  0  0  0  0  0  0  0  0  0  0  0
   -4.8282    3.6228   -1.2640 H   0  0  0  0  0  0  0  0  0  0  0  0
   -3.4672    1.9572   -0.0611 H   0  0  0  0  0  0  0  0  0  0  0  0
    2.9324    1.5829   -0.6988 H   0  0  0  0  0  0  0  0  0  0  0  0
    5.2873    1.1420   -0.1891 H   0  0  0  0  0  0  0  0  0  0  0  0
    4.2112   -2.4287    1.9122 H   0  0  0  0  0  0  0  0  0  0  0  0
    1.8180   -2.0321    1.4089 H   0  0  0  0  0  0  0  0  0  0  0  0
   -6.2458    4.5222   -4.6864 H   0  0  0  0  0  0  0  0  0  0  0  0
   -4.9220    4.3550   -5.7533 H   0  0  0  0  0  0  0  0  0  0  0  0
  1  2  1  0  0  0  0
  1  3  1  0  0  0  0
  1 22  1  0  0  0  0
  2  4  1  0  0  0  0
  2  6  2  0  0  0  0
  3 12  2  0  0  0  0
  4  5  1  0  0  0  0
  4 23  1  0  0  0  0
  5  7  2  0  0  0  0
  7  8  1  0  0  0  0
  7 24  1  0  0  0  0
  8  9  2  0  0  0  0
  8 25  1  0  0  0  0
  9 10  1  0  0  0  0
  9 18  1  0  0  0  0
 10 11  2  0  0  0  0
 10 26  1  0  0  0  0
 11  5  1  0  0  0  0
 11 27  1  0  0  0  0
 12 13  1  0  0  0  0
 12 28  1  0  0  0  0
 13 14  2  0  0  0  0
 13 29  1  0  0  0  0
 14 15  1  0  0  0  0
 14 17  1  0  0  0  0
 15 16  2  0  0  0  0
 15 30  1  0  0  0  0
 16  3  1  0  0  0  0
 16 31  1  0  0  0  0
 18 19  1  0  0  0  0
 18 20  2  0  0  0  0
 18 21  2  0  0  0  0
 19 32  1  0  0  0  0
 19 33  1  0  0  0  0
M  END
>  <Mol_ID>
1050

>  <Formula>
C13H12FN3O3S

>  <MolWeight>
309.3160832

>  <Cat>
S2866

>  <Name>
U-104

>  <Synonyms>
MST-104, NSC 213841, SLC-0111, WBI-5111

>  <Target>
Carbonic Anhydrase

>  <Form>
free base

>  <CAS>
178606-66-1

>  <URL>
http://selleckchem.com/products/u-104.html

$$$$
