UAMC-3203
 OpenBabel08302521223D

 70 73  0  0  0  0  0  0  0  0999 V2000
   -1.5797    2.7905    1.1840 C   0  0  0  0  0  0  0  0  0  0  0  0
   -2.0236    1.3930    1.6119 C   0  0  0  0  0  0  0  0  0  0  0  0
   -1.3879    0.3024    0.7523 C   0  0  0  0  0  0  0  0  0  0  0  0
    0.1318    0.4180    0.7452 C   0  0  0  0  0  0  0  0  0  0  0  0
    0.5474    1.8098    0.2668 C   0  0  0  0  0  0  0  0  0  0  0  0
   -0.0555    2.9082    1.1535 C   0  0  0  0  0  0  0  0  0  0  0  0
    2.0014    1.8755    0.2153 N   0  0  0  0  0  0  0  0  0  0  0  0
    2.6728    2.7844   -0.6181 C   0  0  0  0  0  0  0  0  0  0  0  0
    1.9676    3.5670   -1.5544 C   0  0  0  0  0  0  0  0  0  0  0  0
    2.6146    4.3815   -2.4795 C   0  0  0  0  0  0  0  0  0  0  0  0
    3.9968    4.4696   -2.4180 C   0  0  0  0  0  0  0  0  0  0  0  0
    4.7318    3.7103   -1.5047 C   0  0  0  0  0  0  0  0  0  0  0  0
    4.0920    2.8142   -0.6301 C   0  0  0  0  0  0  0  0  0  0  0  0
    4.8181    2.0712    0.3124 N   0  0  0  0  0  0  0  0  0  0  0  0
    6.1730    1.6079    0.0073 C   0  0  0  0  0  0  0  0  0  0  0  0
    6.9304    1.4699    1.3048 C   0  0  0  0  0  0  0  0  0  0  0  0
    7.4390    0.2359    1.7181 C   0  0  0  0  0  0  0  0  0  0  0  0
    8.1929    0.1450    2.8886 C   0  0  0  0  0  0  0  0  0  0  0  0
    8.4373    1.2836    3.6574 C   0  0  0  0  0  0  0  0  0  0  0  0
    7.9132    2.5139    3.2649 C   0  0  0  0  0  0  0  0  0  0  0  0
    7.1621    2.6067    2.0963 C   0  0  0  0  0  0  0  0  0  0  0  0
    4.8853    5.4597   -3.5965 S   0  0  0  0  0  0  0  0  0  0  0  0
    6.1995    4.8808   -3.7264 O   0  0  0  0  0  0  0  0  0  0  0  0
    4.0280    5.6795   -4.7460 O   0  0  0  0  0  0  0  0  0  0  0  0
    5.0667    6.9233   -2.7615 N   0  0  0  0  0  0  0  0  0  0  0  0
    4.0134    7.9367   -2.9953 C   0  0  0  0  0  0  0  0  0  0  0  0
    4.3454    9.2326   -2.2322 C   0  0  0  0  0  0  0  0  0  0  0  0
    3.3833   10.3394   -2.4416 N   0  0  0  0  0  0  0  0  0  0  0  0
    3.2445   10.7257   -3.8648 C   0  0  0  0  0  0  0  0  0  0  0  0
    4.5267   11.3374   -4.4729 C   0  0  0  0  0  0  0  0  0  0  0  0
    4.9985   12.5180   -3.7267 N   0  0  0  0  0  0  0  0  0  0  0  0
    5.0993   12.2102   -2.2876 C   0  0  0  0  0  0  0  0  0  0  0  0
    3.8242   11.5494   -1.7046 C   0  0  0  0  0  0  0  0  0  0  0  0
   -1.9794    3.0113    0.1858 H   0  0  0  0  0  0  0  0  0  0  0  0
   -1.9996    3.5394    1.8650 H   0  0  0  0  0  0  0  0  0  0  0  0
   -1.7450    1.2329    2.6602 H   0  0  0  0  0  0  0  0  0  0  0  0
   -3.1146    1.3185    1.5513 H   0  0  0  0  0  0  0  0  0  0  0  0
   -1.6802   -0.6858    1.1200 H   0  0  0  0  0  0  0  0  0  0  0  0
   -1.7622    0.3860   -0.2765 H   0  0  0  0  0  0  0  0  0  0  0  0
    0.5341    0.2171    1.7459 H   0  0  0  0  0  0  0  0  0  0  0  0
    0.5557   -0.3403    0.0751 H   0  0  0  0  0  0  0  0  0  0  0  0
    0.1332    1.8969   -0.7452 H   0  0  0  0  0  0  0  0  0  0  0  0
    0.2150    3.9045    0.7840 H   0  0  0  0  0  0  0  0  0  0  0  0
    0.3411    2.8420    2.1749 H   0  0  0  0  0  0  0  0  0  0  0  0
    2.4857    1.6122    1.0645 H   0  0  0  0  0  0  0  0  0  0  0  0
    0.8835    3.5628   -1.5983 H   0  0  0  0  0  0  0  0  0  0  0  0
    2.0349    4.9195   -3.2190 H   0  0  0  0  0  0  0  0  0  0  0  0
    5.8061    3.8259   -1.4874 H   0  0  0  0  0  0  0  0  0  0  0  0
    4.2692    1.2928    0.6612 H   0  0  0  0  0  0  0  0  0  0  0  0
    6.1185    0.6460   -0.5181 H   0  0  0  0  0  0  0  0  0  0  0  0
    6.7542    2.2798   -0.6288 H   0  0  0  0  0  0  0  0  0  0  0  0
    7.2627   -0.6605    1.1276 H   0  0  0  0  0  0  0  0  0  0  0  0
    8.5958   -0.8145    3.1998 H   0  0  0  0  0  0  0  0  0  0  0  0
    9.0349    1.2125    4.5592 H   0  0  0  0  0  0  0  0  0  0  0  0
    8.0940    3.4019    3.8659 H   0  0  0  0  0  0  0  0  0  0  0  0
    6.7487    3.5693    1.7970 H   0  0  0  0  0  0  0  0  0  0  0  0
    5.2730    6.7592   -1.7754 H   0  0  0  0  0  0  0  0  0  0  0  0
    4.0012    8.1428   -4.0700 H   0  0  0  0  0  0  0  0  0  0  0  0
    3.0356    7.5588   -2.6817 H   0  0  0  0  0  0  0  0  0  0  0  0
    4.3624    8.9932   -1.1598 H   0  0  0  0  0  0  0  0  0  0  0  0
    5.3717    9.5244   -2.4851 H   0  0  0  0  0  0  0  0  0  0  0  0
    2.8920    9.8860   -4.4720 H   0  0  0  0  0  0  0  0  0  0  0  0
    2.4374   11.4687   -3.9359 H   0  0  0  0  0  0  0  0  0  0  0  0
    5.3256   10.5876   -4.5208 H   0  0  0  0  0  0  0  0  0  0  0  0
    4.3250   11.6351   -5.5076 H   0  0  0  0  0  0  0  0  0  0  0  0
    4.2987   13.2535   -3.8385 H   0  0  0  0  0  0  0  0  0  0  0  0
    5.9709   11.5679   -2.1187 H   0  0  0  0  0  0  0  0  0  0  0  0
    5.3016   13.1399   -1.7451 H   0  0  0  0  0  0  0  0  0  0  0  0
    3.0060   12.2831   -1.7368 H   0  0  0  0  0  0  0  0  0  0  0  0
    3.9679   11.3186   -0.6424 H   0  0  0  0  0  0  0  0  0  0  0  0
  1  2  1  0  0  0  0
  1 34  1  0  0  0  0
  1 35  1  0  0  0  0
  2  3  1  0  0  0  0
  2 36  1  0  0  0  0
  2 37  1  0  0  0  0
  3  4  1  0  0  0  0
  3 38  1  0  0  0  0
  3 39  1  0  0  0  0
  4  5  1  0  0  0  0
  4 40  1  0  0  0  0
  4 41  1  0  0  0  0
  5  6  1  0  0  0  0
  5  7  1  0  0  0  0
  5 42  1  0  0  0  0
  6  1  1  0  0  0  0
  6 43  1  0  0  0  0
  6 44  1  0  0  0  0
  7  8  1  0  0  0  0
  7 45  1  0  0  0  0
  8  9  2  0  0  0  0
  9 10  1  0  0  0  0
  9 46  1  0  0  0  0
 10 11  2  0  0  0  0
 10 47  1  0  0  0  0
 11 12  1  0  0  0  0
 11 22  1  0  0  0  0
 12 13  2  0  0  0  0
 12 48  1  0  0  0  0
 13  8  1  0  0  0  0
 13 14  1  0  0  0  0
 14 15  1  0  0  0  0
 14 49  1  0  0  0  0
 15 16  1  0  0  0  0
 15 50  1  0  0  0  0
 15 51  1  0  0  0  0
 16 17  2  0  0  0  0
 17 18  1  0  0  0  0
 17 52  1  0  0  0  0
 18 19  2  0  0  0  0
 18 53  1  0  0  0  0
 19 20  1  0  0  0  0
 19 54  1  0  0  0  0
 20 21  2  0  0  0  0
 20 55  1  0  0  0  0
 21 16  1  0  0  0  0
 21 56  1  0  0  0  0
 22 23  2  0  0  0  0
 22 24  2  0  0  0  0
 22 25  1  0  0  0  0
 25 26  1  0  0  0  0
 25 57  1  0  0  0  0
 26 27  1  0  0  0  0
 26 58  1  0  0  0  0
 26 59  1  0  0  0  0
 27 28  1  0  0  0  0
 27 60  1  0  0  0  0
 27 61  1  0  0  0  0
 28 29  1  0  0  0  0
 29 30  1  0  0  0  0
 29 62  1  0  0  0  0
 29 63  1  0  0  0  0
 30 31  1  0  0  0  0
 30 64  1  0  0  0  0
 30 65  1  0  0  0  0
 31 32  1  0  0  0  0
 31 66  1  0  0  0  0
 32 33  1  0  0  0  0
 32 67  1  0  0  0  0
 32 68  1  0  0  0  0
 33 28  1  0  0  0  0
 33 69  1  0  0  0  0
 33 70  1  0  0  0  0
M  END
>  <Mol_ID>
4690

>  <Formula>
C25H37N5O2S

>  <MolWeight>
471.65858

>  <Cat>
S8792

>  <Name>
UAMC-3203

>  <Synonyms>
N/A

>  <Target>
Ferroptosis

>  <Form>
Free Base

>  <CAS>
2271358-64-4

>  <URL>
http://www.selleck.cn/products/uamc-3203.html

$$$$
