UBCS039
 OpenBabel08302521233D

 32 35  0  0  0  0  0  0  0  0999 V2000
   -0.9253   -0.5309   -0.1180 N   0  0  0  0  0  0  0  0  0  0  0  0
    0.2847    2.0071   -0.2145 N   0  0  0  0  0  0  0  0  0  0  0  0
   -2.6828    4.0459    2.8293 N   0  0  0  0  0  0  0  0  0  0  0  0
   -1.1480    1.9289    0.0691 C   0  0  3  0  0  0  0  0  0  0  0  0
   -1.7464    0.5743   -0.1041 C   0  0  0  0  0  0  0  0  0  0  0  0
    0.4853   -0.4423   -0.0700 C   0  0  0  0  0  0  0  0  0  0  0  0
    1.0526    0.8462   -0.0687 C   0  0  0  0  0  0  0  0  0  0  0  0
   -1.4344    2.4763    1.4590 C   0  0  0  0  0  0  0  0  0  0  0  0
   -3.0574    0.1548   -0.2170 C   0  0  0  0  0  0  0  0  0  0  0  0
   -1.7238   -1.6539   -0.1437 C   0  0  0  0  0  0  0  0  0  0  0  0
   -3.0426   -1.2566   -0.2142 C   0  0  0  0  0  0  0  0  0  0  0  0
    1.2901   -1.5868   -0.0131 C   0  0  0  0  0  0  0  0  0  0  0  0
    2.4490    0.9528   -0.0557 C   0  0  0  0  0  0  0  0  0  0  0  0
   -0.8894    1.9140    2.6217 C   0  0  0  0  0  0  0  0  0  0  0  0
   -2.3195    3.5358    1.6271 C   0  0  0  0  0  0  0  0  0  0  0  0
    2.6776   -1.4513    0.0367 C   0  0  0  0  0  0  0  0  0  0  0  0
    3.2566   -0.1850    0.0135 C   0  0  0  0  0  0  0  0  0  0  0  0
   -1.2500    2.4106    3.8719 C   0  0  0  0  0  0  0  0  0  0  0  0
   -2.1444    3.4634    3.9215 C   0  0  0  0  0  0  0  0  0  0  0  0
    0.7282    2.8436    0.1517 H   0  0  0  0  0  0  0  0  0  0  0  0
   -1.6292    2.5906   -0.6637 H   0  0  0  0  0  0  0  0  0  0  0  0
   -3.9300    0.7953   -0.2444 H   0  0  0  0  0  0  0  0  0  0  0  0
   -1.3077   -2.6494   -0.1112 H   0  0  0  0  0  0  0  0  0  0  0  0
   -3.9007   -1.9166   -0.2434 H   0  0  0  0  0  0  0  0  0  0  0  0
    0.8703   -2.5870   -0.0084 H   0  0  0  0  0  0  0  0  0  0  0  0
    2.9221    1.9307   -0.1001 H   0  0  0  0  0  0  0  0  0  0  0  0
   -0.2007    1.0757    2.5618 H   0  0  0  0  0  0  0  0  0  0  0  0
   -2.7929    4.0217    0.7772 H   0  0  0  0  0  0  0  0  0  0  0  0
    3.3086   -2.3356    0.0826 H   0  0  0  0  0  0  0  0  0  0  0  0
    4.3380   -0.0803    0.0372 H   0  0  0  0  0  0  0  0  0  0  0  0
   -0.8520    1.9754    4.7799 H   0  0  0  0  0  0  0  0  0  0  0  0
   -2.4680    3.8779    4.8742 H   0  0  0  0  0  0  0  0  0  0  0  0
  1  5  1  0  0  0  0
  1  6  1  0  0  0  0
  1 10  1  0  0  0  0
  2  4  1  0  0  0  0
  2  7  1  0  0  0  0
  2 20  1  0  0  0  0
  3 15  2  0  0  0  0
  3 19  1  0  0  0  0
  4  5  1  0  0  0  0
  4  8  1  0  0  0  0
  4 21  1  0  0  0  0
  5  9  2  0  0  0  0
  6  7  2  0  0  0  0
  6 12  1  0  0  0  0
  7 13  1  0  0  0  0
  8 14  2  0  0  0  0
  8 15  1  0  0  0  0
  9 11  1  0  0  0  0
  9 22  1  0  0  0  0
 10 11  2  0  0  0  0
 10 23  1  0  0  0  0
 11 24  1  0  0  0  0
 12 16  2  0  0  0  0
 12 25  1  0  0  0  0
 13 17  2  0  0  0  0
 13 26  1  0  0  0  0
 14 18  1  0  0  0  0
 14 27  1  0  0  0  0
 15 28  1  0  0  0  0
 16 17  1  0  0  0  0
 16 29  1  0  0  0  0
 17 30  1  0  0  0  0
 18 19  2  0  0  0  0
 18 31  1  0  0  0  0
 19 32  1  0  0  0  0
M  END
>  <Mol_ID>
4858

>  <Formula>
C16H13N3

>  <MolWeight>
247.29452

>  <Cat>
S8909

>  <Name>
UBCS039

>  <Synonyms>
N/A

>  <Target>
Sirtuin

>  <Form>
Free Base

>  <CAS>
358721-70-7

>  <URL>
http://www.selleck.cn/products/ubcs039.html

$$$$
