UCB-9260
 OpenBabel08302521303D

 57 61  0  0  0  0  0  0  0  0999 V2000
   -0.0865    0.0453    0.5711 O   0  0  0  0  0  0  0  0  0  0  0  0
    1.5216    1.7526    3.3277 N   0  0  0  0  0  0  0  0  0  0  0  0
    1.3291   -0.4054    2.8220 N   0  0  0  0  0  0  0  0  0  0  0  0
    3.8951    0.9091   10.0334 N   0  0  0  0  0  0  0  0  0  0  0  0
    3.4282    2.1598    9.8787 N   0  0  0  0  0  0  0  0  0  0  0  0
    3.5239    1.5883   -2.3855 N   0  0  0  0  0  0  0  0  0  0  0  0
    1.9655    1.0545    4.4357 C   0  0  0  0  0  0  0  0  0  0  0  0
    1.5307    3.2049    3.2178 C   0  0  0  0  0  0  0  0  0  0  0  0
    1.2461    0.8268    2.3362 C   0  0  0  0  0  0  0  0  0  0  0  0
    1.7377   -0.2765    4.1202 C   0  0  0  0  0  0  0  0  0  0  0  0
    0.7625    1.1397    0.9437 C   0  0  3  0  0  0  0  0  0  0  0  0
    0.3601    4.0371    3.7365 C   0  0  0  0  0  0  0  0  0  0  0  0
    2.4666    1.4613    5.6785 C   0  0  0  0  0  0  0  0  0  0  0  0
    2.6520    0.4803    6.6691 C   0  0  0  0  0  0  0  0  0  0  0  0
    1.9287   -1.2581    5.1057 C   0  0  0  0  0  0  0  0  0  0  0  0
   -0.8756    3.6480    4.2941 C   0  0  0  0  0  0  0  0  0  0  0  0
    1.7823    1.2895   -0.1740 C   0  0  0  0  0  0  0  0  0  0  0  0
    2.3699   -0.8632    6.3791 C   0  0  0  0  0  0  0  0  0  0  0  0
    0.6024    5.4374    3.6252 C   0  0  0  0  0  0  0  0  0  0  0  0
    3.0718    0.8991    7.9972 C   0  0  0  0  0  0  0  0  0  0  0  0
   -0.3273    6.4156    4.0051 C   0  0  0  0  0  0  0  0  0  0  0  0
   -1.8340    4.6468    4.6066 C   0  0  0  0  0  0  0  0  0  0  0  0
   -1.3342    2.2502    4.6052 C   0  0  0  0  0  0  0  0  0  0  0  0
   -1.5667    6.0064    4.4710 C   0  0  0  0  0  0  0  0  0  0  0  0
    1.3005    1.6094   -1.4551 C   0  0  0  0  0  0  0  0  0  0  0  0
    3.1582    1.0982   -0.0435 C   0  0  0  0  0  0  0  0  0  0  0  0
    3.7197    0.1212    8.9314 C   0  0  0  0  0  0  0  0  0  0  0  0
    2.9221    2.1517    8.6452 C   0  0  0  0  0  0  0  0  0  0  0  0
    0.0122    7.8761    3.9620 C   0  0  0  0  0  0  0  0  0  0  0  0
    2.1903    1.7450   -2.5090 C   0  0  0  0  0  0  0  0  0  0  0  0
    3.9738    1.2528   -1.1606 C   0  0  0  0  0  0  0  0  0  0  0  0
    4.4857    0.5337   11.2938 C   0  0  0  0  0  0  0  0  0  0  0  0
    0.2413   -0.7157    1.0945 H   0  0  0  0  0  0  0  0  0  0  0  0
    2.4334    3.5335    3.7514 H   0  0  0  0  0  0  0  0  0  0  0  0
    1.6954    3.4437    2.1613 H   0  0  0  0  0  0  0  0  0  0  0  0
    0.1355    2.0373    0.9699 H   0  0  0  0  0  0  0  0  0  0  0  0
    2.6721    2.5076    5.8777 H   0  0  0  0  0  0  0  0  0  0  0  0
    1.7071   -2.2973    4.8879 H   0  0  0  0  0  0  0  0  0  0  0  0
    2.4659   -1.6278    7.1467 H   0  0  0  0  0  0  0  0  0  0  0  0
    1.5641    5.7771    3.2376 H   0  0  0  0  0  0  0  0  0  0  0  0
   -2.8126    4.3593    4.9933 H   0  0  0  0  0  0  0  0  0  0  0  0
   -1.9238    2.2555    5.5327 H   0  0  0  0  0  0  0  0  0  0  0  0
   -1.9668    1.8626    3.8024 H   0  0  0  0  0  0  0  0  0  0  0  0
   -0.5235    1.5603    4.8053 H   0  0  0  0  0  0  0  0  0  0  0  0
   -2.3233    6.7349    4.7543 H   0  0  0  0  0  0  0  0  0  0  0  0
    0.2354    1.7222   -1.6348 H   0  0  0  0  0  0  0  0  0  0  0  0
    3.6066    0.7955    0.8969 H   0  0  0  0  0  0  0  0  0  0  0  0
    4.0651   -0.9046    8.9142 H   0  0  0  0  0  0  0  0  0  0  0  0
    2.4547    3.0522    8.2709 H   0  0  0  0  0  0  0  0  0  0  0  0
   -0.7518    8.4337    3.4112 H   0  0  0  0  0  0  0  0  0  0  0  0
    0.0760    8.2697    4.9823 H   0  0  0  0  0  0  0  0  0  0  0  0
    0.9752    8.0518    3.4724 H   0  0  0  0  0  0  0  0  0  0  0  0
    1.8401    1.9835   -3.5099 H   0  0  0  0  0  0  0  0  0  0  0  0
    5.0500    1.1000   -1.0944 H   0  0  0  0  0  0  0  0  0  0  0  0
    5.3684    1.1540   11.4591 H   0  0  0  0  0  0  0  0  0  0  0  0
    3.7463    0.6993   12.0803 H   0  0  0  0  0  0  0  0  0  0  0  0
    4.7663   -0.5229   11.2632 H   0  0  0  0  0  0  0  0  0  0  0  0
  1 11  1  0  0  0  0
  1 33  1  0  0  0  0
  2  7  1  0  0  0  0
  2  8  1  0  0  0  0
  2  9  1  0  0  0  0
  3  9  2  0  0  0  0
  3 10  1  0  0  0  0
  4  5  1  0  0  0  0
  4 27  1  0  0  0  0
  4 32  1  0  0  0  0
  5 28  2  0  0  0  0
  6 30  2  0  0  0  0
  6 31  1  0  0  0  0
  7 10  2  0  0  0  0
  7 13  1  0  0  0  0
  8 12  1  0  0  0  0
  8 34  1  0  0  0  0
  8 35  1  0  0  0  0
  9 11  1  0  0  0  0
 10 15  1  0  0  0  0
 11 17  1  0  0  0  0
 11 36  1  0  0  0  0
 12 16  2  0  0  0  0
 12 19  1  0  0  0  0
 13 14  2  0  0  0  0
 13 37  1  0  0  0  0
 14 18  1  0  0  0  0
 14 20  1  0  0  0  0
 15 18  2  0  0  0  0
 15 38  1  0  0  0  0
 16 22  1  0  0  0  0
 16 23  1  0  0  0  0
 17 25  2  0  0  0  0
 17 26  1  0  0  0  0
 18 39  1  0  0  0  0
 19 21  2  0  0  0  0
 19 40  1  0  0  0  0
 20 27  2  0  0  0  0
 20 28  1  0  0  0  0
 21 24  1  0  0  0  0
 21 29  1  0  0  0  0
 22 24  2  0  0  0  0
 22 41  1  0  0  0  0
 23 42  1  0  0  0  0
 23 43  1  0  0  0  0
 23 44  1  0  0  0  0
 24 45  1  0  0  0  0
 25 30  1  0  0  0  0
 25 46  1  0  0  0  0
 26 31  2  0  0  0  0
 26 47  1  0  0  0  0
 27 48  1  0  0  0  0
 28 49  1  0  0  0  0
 29 50  1  0  0  0  0
 29 51  1  0  0  0  0
 29 52  1  0  0  0  0
 30 53  1  0  0  0  0
 31 54  1  0  0  0  0
 32 55  1  0  0  0  0
 32 56  1  0  0  0  0
 32 57  1  0  0  0  0
M  END
>  <Mol_ID>
5726

>  <Formula>
C26H25N5O

>  <MolWeight>
423.5096

>  <Cat>
S3231

>  <Name>
UCB-9260

>  <Synonyms>
N/A

>  <Target>
NF-¦ÊB,TNF-alpha

>  <Form>
Free Base

>  <CAS>
1515888-53-5

>  <URL>
http://www.selleckchem.com/products/ucb-9260.html

$$$$
