UCLA GP130 2
 OpenBabel08302521323D

 30 32  0  0  0  0  0  0  0  0999 V2000
   -1.1400   -0.0407    0.1606 S   0  0  0  0  0  0  0  0  0  0  0  0
    0.1911   -1.1391    0.0759 C   0  0  0  0  0  0  0  0  0  0  0  0
    1.3651   -0.5528   -0.0042 N   0  0  0  0  0  0  0  0  0  0  0  0
    1.2440    0.8247    0.0280 C   0  0  0  0  0  0  0  0  0  0  0  0
   -0.0553    1.2824    0.1016 C   0  0  0  0  0  0  0  0  0  0  0  0
   -0.0529   -2.4711    0.0559 N   0  0  0  0  0  0  0  0  0  0  0  0
    2.4173    1.6867   -0.0526 C   0  0  0  0  0  0  0  0  0  0  0  0
    3.5637    1.2410   -0.7271 C   0  0  0  0  0  0  0  0  0  0  0  0
    4.6874    2.0643   -0.8426 C   0  0  0  0  0  0  0  0  0  0  0  0
    4.6806    3.3364   -0.2748 C   0  0  0  0  0  0  0  0  0  0  0  0
    3.5570    3.7806    0.4207 C   0  0  0  0  0  0  0  0  0  0  0  0
    2.4329    2.9600    0.5333 C   0  0  0  0  0  0  0  0  0  0  0  0
    0.8948   -3.5092    0.0242 C   0  0  0  0  0  0  0  0  0  0  0  0
    2.2168   -3.3533    0.4676 C   0  0  0  0  0  0  0  0  0  0  0  0
    3.1511   -4.3835    0.3391 C   0  0  0  0  0  0  0  0  0  0  0  0
    2.7696   -5.5795   -0.2495 C   0  0  0  0  0  0  0  0  0  0  0  0
    1.4704   -5.7659   -0.7014 C   0  0  0  0  0  0  0  0  0  0  0  0
    0.5362   -4.7346   -0.5630 C   0  0  0  0  0  0  0  0  0  0  0  0
    3.6677   -6.5622   -0.3912 F   0  0  0  0  0  0  0  0  0  0  0  0
   -0.4191    2.2988    0.1086 H   0  0  0  0  0  0  0  0  0  0  0  0
   -1.0184   -2.7674    0.0046 H   0  0  0  0  0  0  0  0  0  0  0  0
    3.5833    0.2489   -1.1755 H   0  0  0  0  0  0  0  0  0  0  0  0
    5.5655    1.7111   -1.3774 H   0  0  0  0  0  0  0  0  0  0  0  0
    5.5520    3.9797   -0.3687 H   0  0  0  0  0  0  0  0  0  0  0  0
    3.5563    4.7677    0.8757 H   0  0  0  0  0  0  0  0  0  0  0  0
    1.5790    3.3255    1.0968 H   0  0  0  0  0  0  0  0  0  0  0  0
    2.5385   -2.4245    0.9335 H   0  0  0  0  0  0  0  0  0  0  0  0
    4.1696   -4.2480    0.6865 H   0  0  0  0  0  0  0  0  0  0  0  0
    1.1955   -6.7043   -1.1711 H   0  0  0  0  0  0  0  0  0  0  0  0
   -0.4694   -4.8871   -0.9460 H   0  0  0  0  0  0  0  0  0  0  0  0
  1  2  1  0  0  0  0
  1  5  1  0  0  0  0
  2  3  2  0  0  0  0
  2  6  1  0  0  0  0
  3  4  1  0  0  0  0
  4  5  2  0  0  0  0
  4  7  1  0  0  0  0
  5 20  1  0  0  0  0
  6 13  1  0  0  0  0
  6 21  1  0  0  0  0
  7  8  2  0  0  0  0
  7 12  1  0  0  0  0
  8  9  1  0  0  0  0
  8 22  1  0  0  0  0
  9 10  2  0  0  0  0
  9 23  1  0  0  0  0
 10 11  1  0  0  0  0
 10 24  1  0  0  0  0
 11 12  2  0  0  0  0
 11 25  1  0  0  0  0
 12 26  1  0  0  0  0
 13 14  2  0  0  0  0
 13 18  1  0  0  0  0
 14 15  1  0  0  0  0
 14 27  1  0  0  0  0
 15 16  2  0  0  0  0
 15 28  1  0  0  0  0
 16 17  1  0  0  0  0
 16 19  1  0  0  0  0
 17 18  2  0  0  0  0
 17 29  1  0  0  0  0
 18 30  1  0  0  0  0
M  END
>  <Mol_ID>
6116

>  <Formula>
C15H11FN2S

>  <MolWeight>
270.3246432

>  <Cat>
E0080

>  <Name>
UCLA GP130 2

>  <Synonyms>
GP130 receptor agonist-1

>  <Target>
P-gp

>  <Form>
free base

>  <CAS>
339303-87-6

>  <URL>
http://www.selleckchem.com/products/ucla-gp130-2.html

$$$$
