UF010
 OpenBabel08302520383D

 30 30  0  0  0  0  0  0  0  0999 V2000
    0.8248    0.1627   -0.0334 C   0  0  0  0  0  0  0  0  0  0  0  0
    0.0955    0.4054    1.2519 C   0  0  0  0  0  0  0  0  0  0  0  0
   -1.2348    0.8529    1.1868 C   0  0  0  0  0  0  0  0  0  0  0  0
   -1.9564    1.1240    2.3570 C   0  0  0  0  0  0  0  0  0  0  0  0
   -1.3510    0.9464    3.5982 C   0  0  0  0  0  0  0  0  0  0  0  0
   -0.0432    0.4755    3.6802 C   0  0  0  0  0  0  0  0  0  0  0  0
    0.6762    0.1967    2.5120 C   0  0  0  0  0  0  0  0  0  0  0  0
    0.2177    0.1488   -1.1027 O   0  0  0  0  0  0  0  0  0  0  0  0
    2.2035   -0.0209    0.0464 N   0  0  0  0  0  0  0  0  0  0  0  0
    2.9610   -0.1490   -1.1435 N   0  0  0  0  0  0  0  0  0  0  0  0
    3.5494   -1.4906   -1.2375 C   0  0  0  0  0  0  0  0  0  0  0  0
    4.4400   -1.6455   -2.4769 C   0  0  0  0  0  0  0  0  0  0  0  0
    5.6603   -0.7199   -2.4630 C   0  0  0  0  0  0  0  0  0  0  0  0
    6.5483   -0.9295   -3.6812 C   0  0  0  0  0  0  0  0  0  0  0  0
   -2.3019    1.3531    5.1795 Br  0  0  0  0  0  0  0  0  0  0  0  0
   -1.7194    0.9973    0.2225 H   0  0  0  0  0  0  0  0  0  0  0  0
   -2.9827    1.4769    2.2853 H   0  0  0  0  0  0  0  0  0  0  0  0
    0.4271    0.3158    4.6495 H   0  0  0  0  0  0  0  0  0  0  0  0
    1.6842   -0.1943    2.6191 H   0  0  0  0  0  0  0  0  0  0  0  0
    2.7107    0.2183    0.8907 H   0  0  0  0  0  0  0  0  0  0  0  0
    2.3119   -0.0164   -1.9323 H   0  0  0  0  0  0  0  0  0  0  0  0
    4.1483   -1.6973   -0.3418 H   0  0  0  0  0  0  0  0  0  0  0  0
    2.7511   -2.2417   -1.2796 H   0  0  0  0  0  0  0  0  0  0  0  0
    4.7831   -2.6858   -2.5243 H   0  0  0  0  0  0  0  0  0  0  0  0
    3.8485   -1.4690   -3.3846 H   0  0  0  0  0  0  0  0  0  0  0  0
    5.3399    0.3298   -2.4385 H   0  0  0  0  0  0  0  0  0  0  0  0
    6.2509   -0.9003   -1.5574 H   0  0  0  0  0  0  0  0  0  0  0  0
    5.9969   -0.7433   -4.6086 H   0  0  0  0  0  0  0  0  0  0  0  0
    7.4003   -0.2422   -3.6499 H   0  0  0  0  0  0  0  0  0  0  0  0
    6.9408   -1.9508   -3.7130 H   0  0  0  0  0  0  0  0  0  0  0  0
  1  2  1  0  0  0  0
  1  8  2  0  0  0  0
  1  9  1  0  0  0  0
  2  3  2  0  0  0  0
  2  7  1  0  0  0  0
  3  4  1  0  0  0  0
  3 16  1  0  0  0  0
  4  5  2  0  0  0  0
  4 17  1  0  0  0  0
  5  6  1  0  0  0  0
  5 15  1  0  0  0  0
  6  7  2  0  0  0  0
  6 18  1  0  0  0  0
  7 19  1  0  0  0  0
  9 10  1  0  0  0  0
  9 20  1  0  0  0  0
 10 11  1  0  0  0  0
 10 21  1  0  0  0  0
 11 12  1  0  0  0  0
 11 22  1  0  0  0  0
 11 23  1  0  0  0  0
 12 13  1  0  0  0  0
 12 24  1  0  0  0  0
 12 25  1  0  0  0  0
 13 14  1  0  0  0  0
 13 26  1  0  0  0  0
 13 27  1  0  0  0  0
 14 28  1  0  0  0  0
 14 29  1  0  0  0  0
 14 30  1  0  0  0  0
M  END
>  <Mol_ID>
3437

>  <Formula>
C11H15BrN2O

>  <MolWeight>
271.1536

>  <Cat>
S5810

>  <Name>
UF010

>  <Synonyms>
N/A

>  <Target>
HDAC

>  <Form>
Free Base

>  <CAS>
537672-41-6

>  <URL>
http://www.selleckchem.com/products/uf010.html

$$$$
