Ufiprazole
 OpenBabel08302520403D

 42 44  0  0  0  0  0  0  0  0999 V2000
   -5.4576    0.9135    3.4175 C   0  0  0  0  0  0  0  0  0  0  0  0
   -4.9172    2.1626    3.1282 C   0  0  0  0  0  0  0  0  0  0  0  0
   -5.2260    0.0234    2.3922 N   0  0  0  0  0  0  0  0  0  0  0  0
   -6.1382    0.7274    4.6283 C   0  0  0  0  0  0  0  0  0  0  0  0
   -4.3453    2.0013    1.8902 N   0  0  0  0  0  0  0  0  0  0  0  0
   -5.0053    3.2515    3.9981 C   0  0  0  0  0  0  0  0  0  0  0  0
   -4.5542    0.7095    1.5008 C   0  0  0  0  0  0  0  0  0  0  0  0
   -6.2485    1.8002    5.5246 C   0  0  0  0  0  0  0  0  0  0  0  0
   -5.6845    3.0401    5.2090 C   0  0  0  0  0  0  0  0  0  0  0  0
   -3.9454    0.1644   -0.0139 S   0  0  0  0  0  0  0  0  0  0  0  0
   -6.9343    1.5005    6.6732 O   0  0  0  0  0  0  0  0  0  0  0  0
   -4.4958   -1.5745    0.0146 C   0  0  0  0  0  0  0  0  0  0  0  0
   -7.1125    2.5480    7.6181 C   0  0  0  0  0  0  0  0  0  0  0  0
   -4.1403   -2.4116   -1.2110 C   0  0  0  0  0  0  0  0  0  0  0  0
   -4.5359   -3.7661   -1.3084 C   0  0  0  0  0  0  0  0  0  0  0  0
   -3.4726   -1.7818   -2.2119 N   0  0  0  0  0  0  0  0  0  0  0  0
   -4.2232   -4.4535   -2.5023 C   0  0  0  0  0  0  0  0  0  0  0  0
   -5.2985   -4.4256   -0.1929 C   0  0  0  0  0  0  0  0  0  0  0  0
   -3.1980   -2.4687   -3.3347 C   0  0  0  0  0  0  0  0  0  0  0  0
   -3.5484   -3.7908   -3.5394 C   0  0  0  0  0  0  0  0  0  0  0  0
   -4.6588   -5.7143   -2.8338 O   0  0  0  0  0  0  0  0  0  0  0  0
   -3.2176   -4.4607   -4.8392 C   0  0  0  0  0  0  0  0  0  0  0  0
   -4.4801   -6.7571   -1.8853 C   0  0  0  0  0  0  0  0  0  0  0  0
   -6.5671   -0.2387    4.8637 H   0  0  0  0  0  0  0  0  0  0  0  0
   -3.8555    2.6971    1.3493 H   0  0  0  0  0  0  0  0  0  0  0  0
   -4.5753    4.2172    3.7564 H   0  0  0  0  0  0  0  0  0  0  0  0
   -5.7584    3.8827    5.8921 H   0  0  0  0  0  0  0  0  0  0  0  0
   -4.0528   -2.0494    0.8965 H   0  0  0  0  0  0  0  0  0  0  0  0
   -5.5872   -1.5658    0.1136 H   0  0  0  0  0  0  0  0  0  0  0  0
   -6.1508    2.8768    8.0249 H   0  0  0  0  0  0  0  0  0  0  0  0
   -7.6675    3.3860    7.1836 H   0  0  0  0  0  0  0  0  0  0  0  0
   -7.7070    2.1513    8.4470 H   0  0  0  0  0  0  0  0  0  0  0  0
   -6.2295   -4.8541   -0.5733 H   0  0  0  0  0  0  0  0  0  0  0  0
   -4.6851   -5.2017    0.2765 H   0  0  0  0  0  0  0  0  0  0  0  0
   -5.5843   -3.7429    0.6102 H   0  0  0  0  0  0  0  0  0  0  0  0
   -2.6827   -1.8922   -4.0984 H   0  0  0  0  0  0  0  0  0  0  0  0
   -2.5740   -5.3293   -4.6673 H   0  0  0  0  0  0  0  0  0  0  0  0
   -4.1322   -4.7780   -5.3497 H   0  0  0  0  0  0  0  0  0  0  0  0
   -2.6813   -3.7838   -5.5141 H   0  0  0  0  0  0  0  0  0  0  0  0
   -3.5539   -6.6554   -1.3114 H   0  0  0  0  0  0  0  0  0  0  0  0
   -5.3517   -6.8284   -1.2299 H   0  0  0  0  0  0  0  0  0  0  0  0
   -4.4335   -7.7025   -2.4362 H   0  0  0  0  0  0  0  0  0  0  0  0
  1  2  2  0  0  0  0
  1  3  1  0  0  0  0
  1  4  1  0  0  0  0
  2  5  1  0  0  0  0
  2  6  1  0  0  0  0
  3  7  2  0  0  0  0
  4  8  2  0  0  0  0
  4 24  1  0  0  0  0
  5  7  1  0  0  0  0
  5 25  1  0  0  0  0
  6  9  2  0  0  0  0
  6 26  1  0  0  0  0
  7 10  1  0  0  0  0
  8 11  1  0  0  0  0
  8  9  1  0  0  0  0
  9 27  1  0  0  0  0
 10 12  1  0  0  0  0
 11 13  1  0  0  0  0
 12 14  1  0  0  0  0
 12 28  1  0  0  0  0
 12 29  1  0  0  0  0
 13 30  1  0  0  0  0
 13 31  1  0  0  0  0
 13 32  1  0  0  0  0
 14 15  2  0  0  0  0
 14 16  1  0  0  0  0
 15 17  1  0  0  0  0
 15 18  1  0  0  0  0
 16 19  2  0  0  0  0
 17 20  2  0  0  0  0
 17 21  1  0  0  0  0
 18 33  1  0  0  0  0
 18 34  1  0  0  0  0
 18 35  1  0  0  0  0
 19 20  1  0  0  0  0
 19 36  1  0  0  0  0
 20 22  1  0  0  0  0
 21 23  1  0  0  0  0
 22 37  1  0  0  0  0
 22 38  1  0  0  0  0
 22 39  1  0  0  0  0
 23 40  1  0  0  0  0
 23 41  1  0  0  0  0
 23 42  1  0  0  0  0
M  END
>  <Mol_ID>
3754

>  <Formula>
C17H19N3O2S

>  <MolWeight>
329.41666

>  <Cat>
S6438

>  <Name>
Ufiprazole

>  <Synonyms>
Omeprazole sulfide

>  <Target>
Proton Pump

>  <Form>
Free Base

>  <CAS>
73590-85-9

>  <URL>
http://www.selleck.cn/products/ufiprazole.html

$$$$
