UNBS5162
 OpenBabel08302521353D

 42 44  0  0  0  0  0  0  0  0999 V2000
    2.1297   -2.3583    0.0004 O   0  0  0  0  0  0  0  0  0  0  0  0
    2.1449    2.0944    1.1477 O   0  0  0  0  0  0  0  0  0  0  0  0
    3.6951   -0.0907    0.3434 C   0  0  0  0  0  0  0  0  0  0  0  0
    4.3538   -0.3718   -1.0307 C   0  0  0  0  0  0  0  0  0  0  0  0
    3.9134    0.4860   -2.1522 N   0  0  0  0  0  0  0  0  0  0  0  0
    4.2538    1.8954   -1.9445 C   0  0  0  0  0  0  0  0  0  0  0  0
    4.5153    0.0276   -3.4107 C   0  0  0  0  0  0  0  0  0  0  0  0
   -2.8812   -3.5364    0.0573 N   0  0  0  0  0  0  0  0  0  0  0  0
   -2.4720   -4.8401    0.1630 C   0  0  0  0  0  0  0  0  0  0  0  0
   -3.5211   -5.7098    0.2263 N   0  0  0  0  0  0  0  0  0  0  0  0
   -1.3358   -5.2756    0.2286 O   0  0  0  0  0  0  0  0  0  0  0  0
   -0.5694    0.0103    0.1726 C   0  0  0  0  0  0  0  0  0  0  0  0
    0.0715   -1.2294    0.1435 C   0  0  0  0  0  0  0  0  0  0  0  0
    0.1486    1.1939    0.3494 C   0  0  0  0  0  0  0  0  0  0  0  0
   -1.9767    0.0689    0.0427 C   0  0  0  0  0  0  0  0  0  0  0  0
    1.5592   -1.2783    0.1361 C   0  0  0  0  0  0  0  0  0  0  0  0
   -0.6681   -2.4195    0.0763 C   0  0  0  0  0  0  0  0  0  0  0  0
    1.5980    1.1277    0.6272 C   0  0  0  0  0  0  0  0  0  0  0  0
   -0.4858    2.4394    0.3003 C   0  0  0  0  0  0  0  0  0  0  0  0
   -2.7059   -1.1346   -0.0110 C   0  0  0  0  0  0  0  0  0  0  0  0
   -2.6012    1.3289   -0.0227 C   0  0  0  0  0  0  0  0  0  0  0  0
    2.2327   -0.0674    0.3127 N   0  0  0  0  0  0  0  0  0  0  0  0
   -2.0641   -2.3806    0.0397 C   0  0  0  0  0  0  0  0  0  0  0  0
   -1.8575    2.5043    0.0832 C   0  0  0  0  0  0  0  0  0  0  0  0
    4.0854    0.8542    0.7364 H   0  0  0  0  0  0  0  0  0  0  0  0
    4.0049   -0.8727    1.0472 H   0  0  0  0  0  0  0  0  0  0  0  0
    5.4438   -0.3100   -0.9123 H   0  0  0  0  0  0  0  0  0  0  0  0
    4.1312   -1.4136   -1.2927 H   0  0  0  0  0  0  0  0  0  0  0  0
    5.3363    2.0509   -1.8634 H   0  0  0  0  0  0  0  0  0  0  0  0
    3.8833    2.4979   -2.7817 H   0  0  0  0  0  0  0  0  0  0  0  0
    3.7826    2.3005   -1.0459 H   0  0  0  0  0  0  0  0  0  0  0  0
    5.5594    0.3452   -3.5135 H   0  0  0  0  0  0  0  0  0  0  0  0
    4.4880   -1.0640   -3.5016 H   0  0  0  0  0  0  0  0  0  0  0  0
    3.9489    0.4265   -4.2590 H   0  0  0  0  0  0  0  0  0  0  0  0
   -3.8762   -3.3936    0.1069 H   0  0  0  0  0  0  0  0  0  0  0  0
   -3.2198   -6.6761    0.2077 H   0  0  0  0  0  0  0  0  0  0  0  0
   -4.3531   -5.5178   -0.3096 H   0  0  0  0  0  0  0  0  0  0  0  0
   -0.1293   -3.3614    0.0692 H   0  0  0  0  0  0  0  0  0  0  0  0
    0.0922    3.3540    0.4184 H   0  0  0  0  0  0  0  0  0  0  0  0
   -3.7924   -1.0892   -0.0719 H   0  0  0  0  0  0  0  0  0  0  0  0
   -3.6809    1.4019   -0.1595 H   0  0  0  0  0  0  0  0  0  0  0  0
   -2.3482    3.4723    0.0107 H   0  0  0  0  0  0  0  0  0  0  0  0
  1 16  2  0  0  0  0
  2 18  2  0  0  0  0
  3  4  1  0  0  0  0
  3 22  1  0  0  0  0
  3 25  1  0  0  0  0
  3 26  1  0  0  0  0
  4  5  1  0  0  0  0
  4 27  1  0  0  0  0
  4 28  1  0  0  0  0
  5  6  1  0  0  0  0
  5  7  1  0  0  0  0
  6 29  1  0  0  0  0
  6 30  1  0  0  0  0
  6 31  1  0  0  0  0
  7 32  1  0  0  0  0
  7 33  1  0  0  0  0
  7 34  1  0  0  0  0
  8  9  1  0  0  0  0
  8 23  1  0  0  0  0
  8 35  1  0  0  0  0
  9 10  1  0  0  0  0
  9 11  2  0  0  0  0
 10 36  1  0  0  0  0
 10 37  1  0  0  0  0
 12 13  1  0  0  0  0
 12 14  2  0  0  0  0
 12 15  1  0  0  0  0
 13 16  1  0  0  0  0
 13 17  2  0  0  0  0
 14 18  1  0  0  0  0
 14 19  1  0  0  0  0
 15 20  1  0  0  0  0
 15 21  2  0  0  0  0
 16 22  1  0  0  0  0
 17 23  1  0  0  0  0
 17 38  1  0  0  0  0
 18 22  1  0  0  0  0
 19 24  2  0  0  0  0
 19 39  1  0  0  0  0
 20 23  2  0  0  0  0
 20 40  1  0  0  0  0
 21 24  1  0  0  0  0
 21 41  1  0  0  0  0
 24 42  1  0  0  0  0
M  END
>  <Mol_ID>
6743

>  <Formula>
C17H18N4O3

>  <MolWeight>
326.34982

>  <Cat>
S8869

>  <Name>
UNBS5162

>  <Synonyms>
N/A

>  <Target>
CXCR

>  <Form>
Free base

>  <CAS>
956590-23-1

>  <URL>
http://www.selleckchem.com/products/unbs5162.html

$$$$
