UNC0379.cdx
 OpenBabel08302519593D

 65 68  0  0  0  0  0  0  0  0999 V2000
    2.5047    0.6742    0.0003 C   0  0  0  0  0  0  0  0  0  0  0  0
    2.4648   -0.7144    0.0278 C   0  0  0  0  0  0  0  0  0  0  0  0
    1.1849   -1.3434    0.0485 C   0  0  0  0  0  0  0  0  0  0  0  0
   -0.0379   -0.6749    0.0405 C   0  0  0  0  0  0  0  0  0  0  0  0
    0.0051    0.7035   -0.0090 C   0  0  0  0  0  0  0  0  0  0  0  0
    1.2639    1.3528   -0.0123 C   0  0  0  0  0  0  0  0  0  0  0  0
   -1.1873   -1.3617    0.0942 N   0  0  0  0  0  0  0  0  0  0  0  0
   -2.3400   -0.6785    0.0681 C   0  0  0  0  0  0  0  0  0  0  0  0
   -2.3898    0.6556   -0.0182 N   0  0  0  0  0  0  0  0  0  0  0  0
   -1.2419    1.3464   -0.0271 C   0  0  0  0  0  0  0  0  0  0  0  0
    3.4662    1.6327   -0.0216 O   0  0  0  0  0  0  0  0  0  0  0  0
    4.8543    1.4448    0.0094 C   0  0  0  0  0  0  0  0  0  0  0  0
    3.3941   -1.7077    0.0466 O   0  0  0  0  0  0  0  0  0  0  0  0
    4.7862   -1.5235    0.0226 C   0  0  0  0  0  0  0  0  0  0  0  0
   -3.5300   -1.3477    0.1588 N   0  0  0  0  0  0  0  0  0  0  0  0
   -1.2922    2.7477    0.0383 N   0  0  0  0  0  0  0  0  0  0  0  0
   -2.6081    3.3669    0.1075 C   0  0  0  0  0  0  0  0  0  0  0  0
   -2.4586    4.6651    0.8983 C   0  0  0  0  0  0  0  0  0  0  0  0
   -3.7834    5.4078    1.0609 C   0  0  0  0  0  0  0  0  0  0  0  0
   -3.5692    6.6664    1.9040 C   0  0  0  0  0  0  0  0  0  0  0  0
   -4.8467    7.5072    2.0128 C   0  0  0  0  0  0  0  0  0  0  0  0
   -4.6509    8.7224    2.8206 N   0  0  0  0  0  0  0  0  0  0  0  0
   -3.6236   -2.7750    0.3712 C   0  0  0  0  0  0  0  0  0  0  0  0
   -4.8035   -3.1858   -0.5048 C   0  0  0  0  0  0  0  0  0  0  0  0
   -5.7007   -1.9553   -0.5008 C   0  0  0  0  0  0  0  0  0  0  0  0
   -4.7207   -0.7829   -0.4493 C   0  0  0  0  0  0  0  0  0  0  0  0
   -5.9175    9.4522    3.0018 C   0  0  0  0  0  0  0  0  0  0  0  0
   -6.0119   10.3719    1.8001 C   0  0  0  0  0  0  0  0  0  0  0  0
   -4.5767   10.8132    1.5987 C   0  0  0  0  0  0  0  0  0  0  0  0
   -3.7331    9.6936    2.1964 C   0  0  0  0  0  0  0  0  0  0  0  0
    1.1470   -2.4335    0.0802 H   0  0  0  0  0  0  0  0  0  0  0  0
    1.2841    2.4422   -0.0123 H   0  0  0  0  0  0  0  0  0  0  0  0
    5.1753    0.9569    0.9283 H   0  0  0  0  0  0  0  0  0  0  0  0
    5.2102    0.9670   -0.9026 H   0  0  0  0  0  0  0  0  0  0  0  0
    5.3134    2.4407    0.0233 H   0  0  0  0  0  0  0  0  0  0  0  0
    5.1079   -1.0392   -0.8933 H   0  0  0  0  0  0  0  0  0  0  0  0
    5.1350   -1.0457    0.9382 H   0  0  0  0  0  0  0  0  0  0  0  0
    5.2437   -2.5220    0.0144 H   0  0  0  0  0  0  0  0  0  0  0  0
   -0.6985    3.1627   -0.6717 H   0  0  0  0  0  0  0  0  0  0  0  0
   -2.9732    3.5711   -0.9058 H   0  0  0  0  0  0  0  0  0  0  0  0
   -3.3490    2.7424    0.6192 H   0  0  0  0  0  0  0  0  0  0  0  0
   -2.0483    4.4350    1.8908 H   0  0  0  0  0  0  0  0  0  0  0  0
   -1.7269    5.3161    0.4023 H   0  0  0  0  0  0  0  0  0  0  0  0
   -4.1755    5.6790    0.0730 H   0  0  0  0  0  0  0  0  0  0  0  0
   -4.5249    4.7589    1.5417 H   0  0  0  0  0  0  0  0  0  0  0  0
   -3.2260    6.3834    2.9068 H   0  0  0  0  0  0  0  0  0  0  0  0
   -2.7612    7.2437    1.4438 H   0  0  0  0  0  0  0  0  0  0  0  0
   -5.2241    7.7454    1.0122 H   0  0  0  0  0  0  0  0  0  0  0  0
   -5.6080    6.8822    2.5026 H   0  0  0  0  0  0  0  0  0  0  0  0
   -3.8530   -2.9602    1.4276 H   0  0  0  0  0  0  0  0  0  0  0  0
   -2.7272   -3.3440    0.1069 H   0  0  0  0  0  0  0  0  0  0  0  0
   -4.4558   -3.3931   -1.5232 H   0  0  0  0  0  0  0  0  0  0  0  0
   -5.3118   -4.0781   -0.1274 H   0  0  0  0  0  0  0  0  0  0  0  0
   -6.3494   -1.9116   -1.3816 H   0  0  0  0  0  0  0  0  0  0  0  0
   -6.3388   -1.9547    0.3900 H   0  0  0  0  0  0  0  0  0  0  0  0
   -4.5195   -0.4202   -1.4647 H   0  0  0  0  0  0  0  0  0  0  0  0
   -5.1319    0.0397    0.1465 H   0  0  0  0  0  0  0  0  0  0  0  0
   -5.8507   10.0481    3.9203 H   0  0  0  0  0  0  0  0  0  0  0  0
   -6.7925    8.8010    3.1040 H   0  0  0  0  0  0  0  0  0  0  0  0
   -6.3647    9.8245    0.9179 H   0  0  0  0  0  0  0  0  0  0  0  0
   -6.6842   11.2177    1.9658 H   0  0  0  0  0  0  0  0  0  0  0  0
   -4.3530   10.9769    0.5399 H   0  0  0  0  0  0  0  0  0  0  0  0
   -4.3882   11.7497    2.1362 H   0  0  0  0  0  0  0  0  0  0  0  0
   -3.0801    9.2698    1.4286 H   0  0  0  0  0  0  0  0  0  0  0  0
   -3.0731   10.1014    2.9712 H   0  0  0  0  0  0  0  0  0  0  0  0
  1  2  2  0  0  0  0
  1 11  1  0  0  0  0
  2  3  1  0  0  0  0
  2 13  1  0  0  0  0
  3  4  2  0  0  0  0
  3 31  1  0  0  0  0
  4  5  1  0  0  0  0
  4  7  1  0  0  0  0
  5  6  2  0  0  0  0
  6  1  1  0  0  0  0
  6 32  1  0  0  0  0
  7  8  2  0  0  0  0
  8  9  1  0  0  0  0
  8 15  1  0  0  0  0
  9 10  2  0  0  0  0
 10  5  1  0  0  0  0
 10 16  1  0  0  0  0
 11 12  1  0  0  0  0
 12 33  1  0  0  0  0
 12 34  1  0  0  0  0
 12 35  1  0  0  0  0
 13 14  1  0  0  0  0
 14 36  1  0  0  0  0
 14 37  1  0  0  0  0
 14 38  1  0  0  0  0
 15 23  1  0  0  0  0
 16 17  1  0  0  0  0
 16 39  1  0  0  0  0
 17 18  1  0  0  0  0
 17 40  1  0  0  0  0
 17 41  1  0  0  0  0
 18 19  1  0  0  0  0
 18 42  1  0  0  0  0
 18 43  1  0  0  0  0
 19 20  1  0  0  0  0
 19 44  1  0  0  0  0
 19 45  1  0  0  0  0
 20 21  1  0  0  0  0
 20 46  1  0  0  0  0
 20 47  1  0  0  0  0
 21 22  1  0  0  0  0
 21 48  1  0  0  0  0
 21 49  1  0  0  0  0
 22 27  1  0  0  0  0
 23 24  1  0  0  0  0
 23 50  1  0  0  0  0
 23 51  1  0  0  0  0
 24 25  1  0  0  0  0
 24 52  1  0  0  0  0
 24 53  1  0  0  0  0
 25 26  1  0  0  0  0
 25 54  1  0  0  0  0
 25 55  1  0  0  0  0
 26 15  1  0  0  0  0
 26 56  1  0  0  0  0
 26 57  1  0  0  0  0
 27 28  1  0  0  0  0
 27 58  1  0  0  0  0
 27 59  1  0  0  0  0
 28 29  1  0  0  0  0
 28 60  1  0  0  0  0
 28 61  1  0  0  0  0
 29 30  1  0  0  0  0
 29 62  1  0  0  0  0
 29 63  1  0  0  0  0
 30 22  1  0  0  0  0
 30 64  1  0  0  0  0
 30 65  1  0  0  0  0
M  END
>  <Mol_ID>
2552

>  <Formula>
C23H35N5O2

>  <MolWeight>
413.5563

>  <Cat>
S7570

>  <Name>
UNC0379

>  <Synonyms>
N/A

>  <Target>
Histone Methyltransferase,SETD

>  <Form>
free base

>  <CAS>
1620401-82-2

>  <URL>
http://selleckchem.com/products/unc0379.html

$$$$
