UNC2250.cdx
 OpenBabel08302521393D

 68 71  0  0  0  0  0  0  0  0999 V2000
   -0.8357    0.8555    0.2934 N   0  0  0  0  0  0  0  0  0  0  0  0
    0.2967    1.4943    0.6136 C   0  0  0  0  0  0  0  0  0  0  0  0
    1.3530    0.8658    1.1049 N   0  0  0  0  0  0  0  0  0  0  0  0
    1.2167   -0.4739    1.2615 C   0  0  0  0  0  0  0  0  0  0  0  0
    0.1019   -1.2533    0.9377 C   0  0  0  0  0  0  0  0  0  0  0  0
   -0.9181   -0.5132    0.3764 C   0  0  0  0  0  0  0  0  0  0  0  0
    0.3157    2.8780    0.4600 N   0  0  0  0  0  0  0  0  0  0  0  0
    1.3806    3.4223   -0.3763 C   0  0  0  0  0  0  0  0  0  0  0  0
    1.0084    3.4933   -1.8735 C   0  0  0  0  0  0  0  0  0  0  0  0
   -0.1615    4.4391   -2.1732 C   0  0  0  0  0  0  0  0  0  0  0  0
   -0.4855    4.5001   -3.6635 C   0  0  0  0  0  0  0  0  0  0  0  0
   -2.0635   -0.8566   -0.2323 N   0  0  0  0  0  0  0  0  0  0  0  0
   -3.0891   -1.8192   -0.6008 C   0  0  2  0  0  0  0  0  0  0  0  0
   -4.3434   -1.4806    0.2027 C   0  0  0  0  0  0  0  0  0  0  0  0
   -4.0762   -1.8113    1.6627 C   0  0  0  0  0  0  0  0  0  0  0  0
   -3.8987   -3.3109    1.8590 C   0  0  2  0  0  0  0  0  0  0  0  0
   -3.2651   -4.0862    0.6952 C   0  0  0  0  0  0  0  0  0  0  0  0
   -2.8596   -3.3193   -0.5725 C   0  0  0  0  0  0  0  0  0  0  0  0
   -5.1844   -3.8850    2.1109 O   0  0  0  0  0  0  0  0  0  0  0  0
    0.2722   -2.7084    0.9977 C   0  0  0  0  0  0  0  0  0  0  0  0
   -0.2397   -3.5785    1.9607 C   0  0  0  0  0  0  0  0  0  0  0  0
    0.0726   -4.9515    1.8768 C   0  0  0  0  0  0  0  0  0  0  0  0
    0.9209   -5.4223    0.8603 C   0  0  0  0  0  0  0  0  0  0  0  0
    1.4645   -4.4564    0.0354 C   0  0  0  0  0  0  0  0  0  0  0  0
    1.1719   -3.1410    0.0863 N   0  0  0  0  0  0  0  0  0  0  0  0
    1.2843   -6.8757    0.6081 C   0  0  0  0  0  0  0  0  0  0  0  0
    0.7832   -7.3468   -0.6966 N   0  0  0  0  0  0  0  0  0  0  0  0
   -0.6367   -7.7603   -0.6735 C   0  0  0  0  0  0  0  0  0  0  0  0
   -0.8863   -9.1647   -0.0887 C   0  0  0  0  0  0  0  0  0  0  0  0
   -0.0801  -10.1634   -0.7260 O   0  0  0  0  0  0  0  0  0  0  0  0
    1.3061   -9.8267   -0.6405 C   0  0  0  0  0  0  0  0  0  0  0  0
    1.5762   -8.4521   -1.2763 C   0  0  0  0  0  0  0  0  0  0  0  0
    2.1247   -0.9513    1.6276 H   0  0  0  0  0  0  0  0  0  0  0  0
   -0.6133    3.1666    0.1832 H   0  0  0  0  0  0  0  0  0  0  0  0
    1.6071    4.4366   -0.0353 H   0  0  0  0  0  0  0  0  0  0  0  0
    2.3176    2.8547   -0.2717 H   0  0  0  0  0  0  0  0  0  0  0  0
    1.8870    3.8509   -2.4291 H   0  0  0  0  0  0  0  0  0  0  0  0
    0.7837    2.4909   -2.2541 H   0  0  0  0  0  0  0  0  0  0  0  0
   -1.0611    4.1087   -1.6459 H   0  0  0  0  0  0  0  0  0  0  0  0
    0.0723    5.4497   -1.8216 H   0  0  0  0  0  0  0  0  0  0  0  0
   -0.7083    3.5049   -4.0613 H   0  0  0  0  0  0  0  0  0  0  0  0
   -1.3635    5.1330   -3.8325 H   0  0  0  0  0  0  0  0  0  0  0  0
    0.3472    4.9218   -4.2353 H   0  0  0  0  0  0  0  0  0  0  0  0
   -2.4217    0.0724   -0.4717 H   0  0  0  0  0  0  0  0  0  0  0  0
   -3.3031   -1.5787   -1.6520 H   0  0  0  0  0  0  0  0  0  0  0  0
   -5.2027   -2.0502   -0.1745 H   0  0  0  0  0  0  0  0  0  0  0  0
   -4.5937   -0.4189    0.0959 H   0  0  0  0  0  0  0  0  0  0  0  0
   -4.8944   -1.4196    2.2747 H   0  0  0  0  0  0  0  0  0  0  0  0
   -3.1679   -1.3022    2.0042 H   0  0  0  0  0  0  0  0  0  0  0  0
   -3.3103   -3.4828    2.7677 H   0  0  0  0  0  0  0  0  0  0  0  0
   -2.3870   -4.6144    1.0626 H   0  0  0  0  0  0  0  0  0  0  0  0
   -3.9284   -4.9134    0.4018 H   0  0  0  0  0  0  0  0  0  0  0  0
   -3.5474   -3.7180   -1.3396 H   0  0  0  0  0  0  0  0  0  0  0  0
   -1.8692   -3.6118   -0.9336 H   0  0  0  0  0  0  0  0  0  0  0  0
   -5.6212   -3.3415    2.7900 H   0  0  0  0  0  0  0  0  0  0  0  0
   -0.8912   -3.2225    2.7562 H   0  0  0  0  0  0  0  0  0  0  0  0
   -0.3779   -5.6490    2.5940 H   0  0  0  0  0  0  0  0  0  0  0  0
    2.2117   -4.7246   -0.7162 H   0  0  0  0  0  0  0  0  0  0  0  0
    2.3824   -6.9048    0.6007 H   0  0  0  0  0  0  0  0  0  0  0  0
    0.9806   -7.5299    1.4358 H   0  0  0  0  0  0  0  0  0  0  0  0
   -0.9808   -7.7678   -1.7165 H   0  0  0  0  0  0  0  0  0  0  0  0
   -1.2577   -7.0215   -0.1564 H   0  0  0  0  0  0  0  0  0  0  0  0
   -0.6992   -9.1926    0.9897 H   0  0  0  0  0  0  0  0  0  0  0  0
   -1.9322   -9.4466   -0.2511 H   0  0  0  0  0  0  0  0  0  0  0  0
    1.8647  -10.5979   -1.1840 H   0  0  0  0  0  0  0  0  0  0  0  0
    1.6287   -9.8584    0.4046 H   0  0  0  0  0  0  0  0  0  0  0  0
    1.3054   -8.5177   -2.3402 H   0  0  0  0  0  0  0  0  0  0  0  0
    2.6477   -8.2238   -1.2564 H   0  0  0  0  0  0  0  0  0  0  0  0
  1  2  2  0  0  0  0
  2  3  1  0  0  0  0
  2  7  1  0  0  0  0
  3  4  2  0  0  0  0
  4  5  1  0  0  0  0
  4 33  1  0  0  0  0
  5  6  2  0  0  0  0
  5 20  1  0  0  0  0
  6  1  1  0  0  0  0
  6 12  1  0  0  0  0
  7  8  1  0  0  0  0
  7 34  1  0  0  0  0
  8  9  1  0  0  0  0
  8 35  1  0  0  0  0
  8 36  1  0  0  0  0
  9 10  1  0  0  0  0
  9 37  1  0  0  0  0
  9 38  1  0  0  0  0
 10 11  1  0  0  0  0
 10 39  1  0  0  0  0
 10 40  1  0  0  0  0
 11 41  1  0  0  0  0
 11 42  1  0  0  0  0
 11 43  1  0  0  0  0
 12 44  1  0  0  0  0
 13 12  1  0  0  0  0
 13 14  1  0  0  0  0
 13 45  1  6  0  0  0
 14 15  1  0  0  0  0
 14 46  1  0  0  0  0
 14 47  1  0  0  0  0
 15 16  1  0  0  0  0
 15 48  1  0  0  0  0
 15 49  1  0  0  0  0
 16 17  1  0  0  0  0
 16 50  1  1  0  0  0
 16 19  1  0  0  0  0
 17 18  1  0  0  0  0
 17 51  1  0  0  0  0
 17 52  1  0  0  0  0
 18 13  1  0  0  0  0
 18 53  1  0  0  0  0
 18 54  1  0  0  0  0
 19 55  1  0  0  0  0
 20 21  2  0  0  0  0
 21 22  1  0  0  0  0
 21 56  1  0  0  0  0
 22 23  2  0  0  0  0
 22 57  1  0  0  0  0
 23 24  1  0  0  0  0
 23 26  1  0  0  0  0
 24 25  2  0  0  0  0
 24 58  1  0  0  0  0
 25 20  1  0  0  0  0
 26 27  1  0  0  0  0
 26 59  1  0  0  0  0
 26 60  1  0  0  0  0
 27 28  1  0  0  0  0
 28 29  1  0  0  0  0
 28 61  1  0  0  0  0
 28 62  1  0  0  0  0
 29 30  1  0  0  0  0
 29 63  1  0  0  0  0
 29 64  1  0  0  0  0
 30 31  1  0  0  0  0
 31 32  1  0  0  0  0
 31 65  1  0  0  0  0
 31 66  1  0  0  0  0
 32 27  1  0  0  0  0
 32 67  1  0  0  0  0
 32 68  1  0  0  0  0
M  END
>  <Mol_ID>
8160

>  <Formula>
C24H36N6O2

>  <MolWeight>
440.58164

>  <Cat>
S7342

>  <Name>
UNC2250

>  <Synonyms>
N/A

>  <Target>
Mertk

>  <Form>
Free Base

>  <CAS>
1493694-70-4

>  <URL>
http://selleckchem.com/products/unc2250.html

$$$$
