UNC669.cdx
 OpenBabel08302519583D

 40 42  0  0  0  0  0  0  0  0999 V2000
    0.3614    0.9779   -2.1560 C   0  0  0  0  0  0  0  0  0  0  0  0
    0.8653   -0.2836   -2.4422 C   0  0  0  0  0  0  0  0  0  0  0  0
    2.0499   -0.7441   -1.9757 N   0  0  0  0  0  0  0  0  0  0  0  0
    2.7575    0.1051   -1.1931 C   0  0  0  0  0  0  0  0  0  0  0  0
    2.3668    1.4079   -0.9073 C   0  0  0  0  0  0  0  0  0  0  0  0
    1.1239    1.8412   -1.3763 C   0  0  0  0  0  0  0  0  0  0  0  0
   -1.3353    1.4996   -2.7892 Br  0  0  0  0  0  0  0  0  0  0  0  0
    3.1702    2.2726   -0.0176 C   0  0  0  0  0  0  0  0  0  0  0  0
    4.5613    2.2199   -0.0604 N   0  0  0  0  0  0  0  0  0  0  0  0
    2.5498    2.9858    0.7726 O   0  0  0  0  0  0  0  0  0  0  0  0
    5.3085    2.8311    1.0273 C   0  0  0  0  0  0  0  0  0  0  0  0
    6.0967    4.0417    0.5507 C   0  0  0  0  0  0  0  0  0  0  0  0
    6.9898    3.7010   -0.6553 C   0  0  0  0  0  0  0  0  0  0  0  0
    6.1789    2.9912   -1.7601 C   0  0  0  0  0  0  0  0  0  0  0  0
    5.3759    1.8146   -1.2094 C   0  0  0  0  0  0  0  0  0  0  0  0
    7.7647    4.8253   -1.2203 N   0  0  0  0  0  0  0  0  0  0  0  0
    8.7406    5.4065   -0.2900 C   0  0  0  0  0  0  0  0  0  0  0  0
    8.0579    6.6046    0.3460 C   0  0  0  0  0  0  0  0  0  0  0  0
    7.0802    7.0867   -0.7086 C   0  0  0  0  0  0  0  0  0  0  0  0
    6.9789    5.9582   -1.7267 C   0  0  0  0  0  0  0  0  0  0  0  0
    0.3148   -0.9888   -3.0584 H   0  0  0  0  0  0  0  0  0  0  0  0
    3.6724   -0.3157   -0.7859 H   0  0  0  0  0  0  0  0  0  0  0  0
    0.7578    2.8313   -1.1161 H   0  0  0  0  0  0  0  0  0  0  0  0
    5.9878    2.0672    1.4239 H   0  0  0  0  0  0  0  0  0  0  0  0
    4.6469    3.1250    1.8493 H   0  0  0  0  0  0  0  0  0  0  0  0
    6.7080    4.3783    1.3930 H   0  0  0  0  0  0  0  0  0  0  0  0
    5.3980    4.8461    0.2954 H   0  0  0  0  0  0  0  0  0  0  0  0
    7.7263    2.9591   -0.3125 H   0  0  0  0  0  0  0  0  0  0  0  0
    5.4765    3.6824   -2.2387 H   0  0  0  0  0  0  0  0  0  0  0  0
    6.8525    2.6271   -2.5465 H   0  0  0  0  0  0  0  0  0  0  0  0
    4.7613    1.4252   -2.0225 H   0  0  0  0  0  0  0  0  0  0  0  0
    6.0458    1.0155   -0.8723 H   0  0  0  0  0  0  0  0  0  0  0  0
    9.6043    5.7533   -0.8707 H   0  0  0  0  0  0  0  0  0  0  0  0
    9.1230    4.6967    0.4513 H   0  0  0  0  0  0  0  0  0  0  0  0
    7.5156    6.3229    1.2538 H   0  0  0  0  0  0  0  0  0  0  0  0
    8.7697    7.3823    0.6315 H   0  0  0  0  0  0  0  0  0  0  0  0
    6.1063    7.3099   -0.2595 H   0  0  0  0  0  0  0  0  0  0  0  0
    7.4480    8.0016   -1.1855 H   0  0  0  0  0  0  0  0  0  0  0  0
    5.9339    5.7275   -1.9519 H   0  0  0  0  0  0  0  0  0  0  0  0
    7.4270    6.2891   -2.6719 H   0  0  0  0  0  0  0  0  0  0  0  0
  1  2  2  0  0  0  0
  1  7  1  0  0  0  0
  2  3  1  0  0  0  0
  2 21  1  0  0  0  0
  3  4  2  0  0  0  0
  4  5  1  0  0  0  0
  4 22  1  0  0  0  0
  5  6  2  0  0  0  0
  5  8  1  0  0  0  0
  6  1  1  0  0  0  0
  6 23  1  0  0  0  0
  8  9  1  0  0  0  0
  8 10  2  0  0  0  0
  9 11  1  0  0  0  0
 11 12  1  0  0  0  0
 11 24  1  0  0  0  0
 11 25  1  0  0  0  0
 12 13  1  0  0  0  0
 12 26  1  0  0  0  0
 12 27  1  0  0  0  0
 13 14  1  0  0  0  0
 13 16  1  0  0  0  0
 13 28  1  0  0  0  0
 14 15  1  0  0  0  0
 14 29  1  0  0  0  0
 14 30  1  0  0  0  0
 15  9  1  0  0  0  0
 15 31  1  0  0  0  0
 15 32  1  0  0  0  0
 16 17  1  0  0  0  0
 17 18  1  0  0  0  0
 17 33  1  0  0  0  0
 17 34  1  0  0  0  0
 18 19  1  0  0  0  0
 18 35  1  0  0  0  0
 18 36  1  0  0  0  0
 19 20  1  0  0  0  0
 19 37  1  0  0  0  0
 19 38  1  0  0  0  0
 20 16  1  0  0  0  0
 20 39  1  0  0  0  0
 20 40  1  0  0  0  0
M  END
>  <Mol_ID>
2372

>  <Formula>
C15H20BrN3O

>  <MolWeight>
338.2428

>  <Cat>
S7373

>  <Name>
UNC669

>  <Synonyms>
N/A

>  <Target>
Epigenetic Reader Domain

>  <Form>
free base

>  <CAS>
1314241-44-5

>  <URL>
http://selleckchem.com/products/unc669.html

$$$$
