UNC 3230
 OpenBabel08302521353D

 44 46  0  0  0  0  0  0  0  0999 V2000
    0.8472   -0.1680    0.0875 N   0  0  0  0  0  0  0  0  0  0  0  0
    0.1959   -1.2976   -0.3983 C   0  0  0  0  0  0  0  0  0  0  0  0
   -0.9722   -1.3256   -0.7780 O   0  0  0  0  0  0  0  0  0  0  0  0
    1.7869    2.4863   -1.2706 C   0  0  0  0  0  0  0  0  0  0  0  0
    2.0051    3.7862   -1.6535 N   0  0  0  0  0  0  0  0  0  0  0  0
    2.5310    1.5850   -1.6246 O   0  0  0  0  0  0  0  0  0  0  0  0
   -2.2677    3.7256    1.0390 N   0  0  0  0  0  0  0  0  0  0  0  0
    0.2090    1.0643    0.0931 C   0  0  0  0  0  0  0  0  0  0  0  0
    0.6212    2.2839   -0.4121 C   0  0  0  0  0  0  0  0  0  0  0  0
   -1.2347    1.2501    0.9832 S   0  0  0  0  0  0  0  0  0  0  0  0
   -0.2130    3.3427   -0.0897 N   0  0  0  0  0  0  0  0  0  0  0  0
   -1.2508    2.9365    0.6051 C   0  0  0  0  0  0  0  0  0  0  0  0
    1.1248   -2.5194   -0.5287 C   0  0  0  0  0  0  0  0  0  0  0  0
    0.3440   -3.7366   -1.0567 C   0  0  0  0  0  0  0  0  0  0  0  0
    1.8186   -2.8534    0.8012 C   0  0  0  0  0  0  0  0  0  0  0  0
    1.1969   -5.0007   -1.1290 C   0  0  0  0  0  0  0  0  0  0  0  0
    2.6647   -4.1233    0.7102 C   0  0  0  0  0  0  0  0  0  0  0  0
    1.8502   -5.3103    0.2119 C   0  0  0  0  0  0  0  0  0  0  0  0
   -2.7412    4.8906    0.3934 C   0  0  0  0  0  0  0  0  0  0  0  0
   -2.2019    5.3816   -0.8045 C   0  0  0  0  0  0  0  0  0  0  0  0
   -3.7584    5.6361    1.0002 C   0  0  0  0  0  0  0  0  0  0  0  0
   -2.6675    6.5604   -1.3894 C   0  0  0  0  0  0  0  0  0  0  0  0
   -4.2374    6.8185    0.4107 C   0  0  0  0  0  0  0  0  0  0  0  0
   -3.6886    7.2786   -0.7825 C   0  0  0  0  0  0  0  0  0  0  0  0
    1.8476   -0.1381   -0.0881 H   0  0  0  0  0  0  0  0  0  0  0  0
    2.8228    3.9951   -2.2060 H   0  0  0  0  0  0  0  0  0  0  0  0
    1.5066    4.5364   -1.1904 H   0  0  0  0  0  0  0  0  0  0  0  0
   -2.9196    3.3224    1.6975 H   0  0  0  0  0  0  0  0  0  0  0  0
    1.8911   -2.2592   -1.2719 H   0  0  0  0  0  0  0  0  0  0  0  0
   -0.5224   -3.9297   -0.4105 H   0  0  0  0  0  0  0  0  0  0  0  0
   -0.0564   -3.5189   -2.0546 H   0  0  0  0  0  0  0  0  0  0  0  0
    2.4677   -2.0272    1.1136 H   0  0  0  0  0  0  0  0  0  0  0  0
    1.0657   -2.9708    1.5908 H   0  0  0  0  0  0  0  0  0  0  0  0
    0.5738   -5.8478   -1.4383 H   0  0  0  0  0  0  0  0  0  0  0  0
    1.9715   -4.8782   -1.8959 H   0  0  0  0  0  0  0  0  0  0  0  0
    3.0886   -4.3548    1.6939 H   0  0  0  0  0  0  0  0  0  0  0  0
    3.5095   -3.9511    0.0319 H   0  0  0  0  0  0  0  0  0  0  0  0
    1.0772   -5.5609    0.9488 H   0  0  0  0  0  0  0  0  0  0  0  0
    2.4964   -6.1901    0.1148 H   0  0  0  0  0  0  0  0  0  0  0  0
   -1.4171    4.8475   -1.3310 H   0  0  0  0  0  0  0  0  0  0  0  0
   -4.2059    5.3104    1.9352 H   0  0  0  0  0  0  0  0  0  0  0  0
   -2.2272    6.9082   -2.3215 H   0  0  0  0  0  0  0  0  0  0  0  0
   -5.0400    7.3759    0.8888 H   0  0  0  0  0  0  0  0  0  0  0  0
   -4.0537    8.1962   -1.2354 H   0  0  0  0  0  0  0  0  0  0  0  0
  1  2  1  0  0  0  0
  1  8  1  0  0  0  0
  1 25  1  0  0  0  0
  2  3  2  0  0  0  0
  2 13  1  0  0  0  0
  4  5  1  0  0  0  0
  4  6  2  0  0  0  0
  4  9  1  0  0  0  0
  5 26  1  0  0  0  0
  5 27  1  0  0  0  0
  7 12  1  0  0  0  0
  7 19  1  0  0  0  0
  7 28  1  0  0  0  0
  8  9  2  0  0  0  0
  8 10  1  0  0  0  0
  9 11  1  0  0  0  0
 10 12  1  0  0  0  0
 11 12  2  0  0  0  0
 13 14  1  0  0  0  0
 13 15  1  0  0  0  0
 13 29  1  0  0  0  0
 14 16  1  0  0  0  0
 14 30  1  0  0  0  0
 14 31  1  0  0  0  0
 15 17  1  0  0  0  0
 15 32  1  0  0  0  0
 15 33  1  0  0  0  0
 16 18  1  0  0  0  0
 16 34  1  0  0  0  0
 16 35  1  0  0  0  0
 17 18  1  0  0  0  0
 17 36  1  0  0  0  0
 17 37  1  0  0  0  0
 18 38  1  0  0  0  0
 18 39  1  0  0  0  0
 19 20  2  0  0  0  0
 19 21  1  0  0  0  0
 20 22  1  0  0  0  0
 20 40  1  0  0  0  0
 21 23  2  0  0  0  0
 21 41  1  0  0  0  0
 22 24  2  0  0  0  0
 22 42  1  0  0  0  0
 23 24  1  0  0  0  0
 23 43  1  0  0  0  0
 24 44  1  0  0  0  0
M  END
>  <Mol_ID>
6934

>  <Formula>
C17H20N4O2S

>  <MolWeight>
344.4313

>  <Cat>
E0305

>  <Name>
UNC 3230

>  <Target>
Others

>  <Form>
Free Base

>  <CAS>
1031602-63-7

>  <URL>
https://www.selleckchem.com/products/unc-3230.html

$$$$
