Undecanedioic acid
 OpenBabel08302520393D

 35 34  0  0  0  0  0  0  0  0999 V2000
    0.9053   -2.2955    1.1950 C   0  0  0  0  0  0  0  0  0  0  0  0
    0.1115   -1.2162    0.4951 C   0  0  0  0  0  0  0  0  0  0  0  0
    1.7255   -2.9597    0.3471 O   0  0  0  0  0  0  0  0  0  0  0  0
    0.8310   -2.5733    2.3809 O   0  0  0  0  0  0  0  0  0  0  0  0
   -0.7917   -0.4515    1.4646 C   0  0  0  0  0  0  0  0  0  0  0  0
   -1.5780    0.6876    0.8072 C   0  0  0  0  0  0  0  0  0  0  0  0
   -2.5265    0.2082   -0.2925 C   0  0  0  0  0  0  0  0  0  0  0  0
   -3.3221    1.3615   -0.9068 C   0  0  0  0  0  0  0  0  0  0  0  0
   -4.2507    0.8424   -2.0071 C   0  0  0  0  0  0  0  0  0  0  0  0
   -5.0683    1.9671   -2.6431 C   0  0  0  0  0  0  0  0  0  0  0  0
   -5.9866    1.4822   -3.7705 C   0  0  0  0  0  0  0  0  0  0  0  0
   -7.0434    0.4765   -3.3105 C   0  0  0  0  0  0  0  0  0  0  0  0
   -7.9481    0.0475   -4.4419 C   0  0  0  0  0  0  0  0  0  0  0  0
   -8.8825   -0.8454   -4.0398 O   0  0  0  0  0  0  0  0  0  0  0  0
   -7.8675    0.4315   -5.5980 O   0  0  0  0  0  0  0  0  0  0  0  0
    0.8140   -0.5231    0.0201 H   0  0  0  0  0  0  0  0  0  0  0  0
   -0.4890   -1.7083   -0.2765 H   0  0  0  0  0  0  0  0  0  0  0  0
    1.6820   -2.6419   -0.5745 H   0  0  0  0  0  0  0  0  0  0  0  0
   -1.4905   -1.1476    1.9454 H   0  0  0  0  0  0  0  0  0  0  0  0
   -0.1781   -0.0276    2.2701 H   0  0  0  0  0  0  0  0  0  0  0  0
   -2.1595    1.1978    1.5859 H   0  0  0  0  0  0  0  0  0  0  0  0
   -0.8789    1.4277    0.3991 H   0  0  0  0  0  0  0  0  0  0  0  0
   -1.9590   -0.2838   -1.0897 H   0  0  0  0  0  0  0  0  0  0  0  0
   -3.2170   -0.5367    0.1219 H   0  0  0  0  0  0  0  0  0  0  0  0
   -3.9123    1.8607   -0.1291 H   0  0  0  0  0  0  0  0  0  0  0  0
   -2.6337    2.1064   -1.3235 H   0  0  0  0  0  0  0  0  0  0  0  0
   -3.6592    0.3390   -2.7820 H   0  0  0  0  0  0  0  0  0  0  0  0
   -4.9175    0.0916   -1.5700 H   0  0  0  0  0  0  0  0  0  0  0  0
   -5.6667    2.4720   -1.8750 H   0  0  0  0  0  0  0  0  0  0  0  0
   -4.3840    2.7189   -3.0559 H   0  0  0  0  0  0  0  0  0  0  0  0
   -6.4863    2.3556   -4.2088 H   0  0  0  0  0  0  0  0  0  0  0  0
   -5.3796    1.0424   -4.5714 H   0  0  0  0  0  0  0  0  0  0  0  0
   -6.5645   -0.4268   -2.9222 H   0  0  0  0  0  0  0  0  0  0  0  0
   -7.6618    0.9251   -2.5245 H   0  0  0  0  0  0  0  0  0  0  0  0
   -8.8308   -1.0681   -3.0910 H   0  0  0  0  0  0  0  0  0  0  0  0
  1  2  1  0  0  0  0
  1  3  1  0  0  0  0
  1  4  2  0  0  0  0
  2  5  1  0  0  0  0
  2 16  1  0  0  0  0
  2 17  1  0  0  0  0
  3 18  1  0  0  0  0
  5  6  1  0  0  0  0
  5 19  1  0  0  0  0
  5 20  1  0  0  0  0
  6  7  1  0  0  0  0
  6 21  1  0  0  0  0
  6 22  1  0  0  0  0
  7  8  1  0  0  0  0
  7 23  1  0  0  0  0
  7 24  1  0  0  0  0
  8  9  1  0  0  0  0
  8 25  1  0  0  0  0
  8 26  1  0  0  0  0
  9 10  1  0  0  0  0
  9 27  1  0  0  0  0
  9 28  1  0  0  0  0
 10 11  1  0  0  0  0
 10 29  1  0  0  0  0
 10 30  1  0  0  0  0
 11 12  1  0  0  0  0
 11 31  1  0  0  0  0
 11 32  1  0  0  0  0
 12 13  1  0  0  0  0
 12 33  1  0  0  0  0
 12 34  1  0  0  0  0
 13 14  1  0  0  0  0
 13 15  2  0  0  0  0
 14 35  1  0  0  0  0
M  END
>  <Mol_ID>
3666

>  <Formula>
C11H20O4

>  <MolWeight>
216.2741

>  <Cat>
S6333

>  <Name>
Undecanedioic acid

>  <Synonyms>
1,9-Nonanedicarboxylic acid; Undecanedionate

>  <Target>
Others

>  <Form>
free base

>  <CAS>
1852-04-6

>  <URL>
http://www.selleck.cn/products/undecanedioic-acid.html

$$$$
