Undecanoic acid
 OpenBabel08302521223D

 35 34  0  0  0  0  0  0  0  0999 V2000
    1.0717   -0.0018    0.1182 C   0  0  0  0  0  0  0  0  0  0  0  0
    0.5494    1.0873   -0.8243 C   0  0  0  0  0  0  0  0  0  0  0  0
    0.5656    0.2234    1.5469 C   0  0  0  0  0  0  0  0  0  0  0  0
    1.0560    0.9578   -2.2646 C   0  0  0  0  0  0  0  0  0  0  0  0
    0.9872   -0.8679    2.5353 C   0  0  0  0  0  0  0  0  0  0  0  0
    0.6779   -0.3333   -2.9975 C   0  0  0  0  0  0  0  0  0  0  0  0
    2.4987   -0.9621    2.7467 C   0  0  0  0  0  0  0  0  0  0  0  0
   -0.8321   -0.5422   -3.1354 C   0  0  0  0  0  0  0  0  0  0  0  0
    2.8547   -1.9962    3.7905 C   0  0  0  0  0  0  0  0  0  0  0  0
   -1.1440   -1.8056   -3.9401 C   0  0  0  0  0  0  0  0  0  0  0  0
    4.1931   -2.0962    3.9774 O   0  0  0  0  0  0  0  0  0  0  0  0
    2.0596   -2.6828    4.4104 O   0  0  0  0  0  0  0  0  0  0  0  0
   -2.6423   -2.0313   -4.0689 C   0  0  0  0  0  0  0  0  0  0  0  0
    2.1671    0.0080    0.0996 H   0  0  0  0  0  0  0  0  0  0  0  0
    0.7449   -0.9891   -0.2256 H   0  0  0  0  0  0  0  0  0  0  0  0
   -0.5463    1.0988   -0.8122 H   0  0  0  0  0  0  0  0  0  0  0  0
    0.8693    2.0657   -0.4429 H   0  0  0  0  0  0  0  0  0  0  0  0
    0.9079    1.1991    1.9126 H   0  0  0  0  0  0  0  0  0  0  0  0
   -0.5307    0.2598    1.5322 H   0  0  0  0  0  0  0  0  0  0  0  0
    0.6787    1.8123   -2.8402 H   0  0  0  0  0  0  0  0  0  0  0  0
    2.1497    1.0475   -2.2648 H   0  0  0  0  0  0  0  0  0  0  0  0
    0.5041   -0.6600    3.4988 H   0  0  0  0  0  0  0  0  0  0  0  0
    0.5984   -1.8377    2.2008 H   0  0  0  0  0  0  0  0  0  0  0  0
    1.1235   -0.2949   -3.9997 H   0  0  0  0  0  0  0  0  0  0  0  0
    1.1296   -1.1964   -2.4949 H   0  0  0  0  0  0  0  0  0  0  0  0
    2.9936   -1.2492    1.8130 H   0  0  0  0  0  0  0  0  0  0  0  0
    2.8867    0.0066    3.0789 H   0  0  0  0  0  0  0  0  0  0  0  0
   -1.2925   -0.6271   -2.1450 H   0  0  0  0  0  0  0  0  0  0  0  0
   -1.2796    0.3281   -3.6299 H   0  0  0  0  0  0  0  0  0  0  0  0
   -0.7053   -1.7275   -4.9417 H   0  0  0  0  0  0  0  0  0  0  0  0
   -0.6907   -2.6779   -3.4546 H   0  0  0  0  0  0  0  0  0  0  0  0
    4.7135   -1.4919    3.4146 H   0  0  0  0  0  0  0  0  0  0  0  0
   -3.1287   -1.1784   -4.5526 H   0  0  0  0  0  0  0  0  0  0  0  0
   -2.8409   -2.9228   -4.6722 H   0  0  0  0  0  0  0  0  0  0  0  0
   -3.1023   -2.1779   -3.0863 H   0  0  0  0  0  0  0  0  0  0  0  0
  1  2  1  0  0  0  0
  1  3  1  0  0  0  0
  1 14  1  0  0  0  0
  1 15  1  0  0  0  0
  2  4  1  0  0  0  0
  2 16  1  0  0  0  0
  2 17  1  0  0  0  0
  3  5  1  0  0  0  0
  3 18  1  0  0  0  0
  3 19  1  0  0  0  0
  4  6  1  0  0  0  0
  4 20  1  0  0  0  0
  4 21  1  0  0  0  0
  5  7  1  0  0  0  0
  5 22  1  0  0  0  0
  5 23  1  0  0  0  0
  6  8  1  0  0  0  0
  6 24  1  0  0  0  0
  6 25  1  0  0  0  0
  7  9  1  0  0  0  0
  7 26  1  0  0  0  0
  7 27  1  0  0  0  0
  8 10  1  0  0  0  0
  8 28  1  0  0  0  0
  8 29  1  0  0  0  0
  9 11  1  0  0  0  0
  9 12  2  0  0  0  0
 10 13  1  0  0  0  0
 10 30  1  0  0  0  0
 10 31  1  0  0  0  0
 11 32  1  0  0  0  0
 13 33  1  0  0  0  0
 13 34  1  0  0  0  0
 13 35  1  0  0  0  0
M  END
>  <Mol_ID>
4617

>  <Formula>
C11H22O2

>  <MolWeight>
186.29118

>  <Cat>
S9454

>  <Name>
Undecanoic acid

>  <Synonyms>
Undecylic acid

>  <Target>
Others

>  <Form>
Free Base

>  <CAS>
112-37-8

>  <URL>
http://www.selleckchem.com/products/undecanoic-acid.html

$$$$
