Undecanoic gamma-lactone
 OpenBabel08302521363D

 33 33  0  0  0  0  0  0  0  0999 V2000
    0.9551    0.2626   -0.0909 C   0  0  0  0  0  0  0  0  0  0  0  0
    0.6330   -0.5422    1.1789 C   0  0  0  0  0  0  0  0  0  0  0  0
    1.0684    0.0593    2.5195 C   0  0  0  0  0  0  0  0  0  0  0  0
    0.5576    1.4748    2.8169 C   0  0  0  0  0  0  0  0  0  0  0  0
   -0.9695    1.5634    2.8721 C   0  0  0  0  0  0  0  0  0  0  0  0
   -1.4519    2.9728    3.2177 C   0  0  0  0  0  0  0  0  0  0  0  0
   -2.9726    3.0381    3.2410 C   0  0  0  0  0  0  0  0  0  0  0  0
    5.3578    1.1355    1.1746 O   0  0  0  0  0  0  0  0  0  0  0  0
    2.4271    0.4188   -0.4914 C   0  0  3  0  0  0  0  0  0  0  0  0
    3.1747    1.1049    0.5091 O   0  0  0  0  0  0  0  0  0  0  0  0
    3.1693   -0.8730   -0.7612 C   0  0  0  0  0  0  0  0  0  0  0  0
    4.4530    0.6334    0.5279 C   0  0  0  0  0  0  0  0  0  0  0  0
    4.5912   -0.5635   -0.3611 C   0  0  0  0  0  0  0  0  0  0  0  0
    0.5161    1.2620    0.0123 H   0  0  0  0  0  0  0  0  0  0  0  0
    0.4306   -0.2165   -0.9272 H   0  0  0  0  0  0  0  0  0  0  0  0
   -0.4540   -0.6937    1.2070 H   0  0  0  0  0  0  0  0  0  0  0  0
    1.0533   -1.5510    1.0994 H   0  0  0  0  0  0  0  0  0  0  0  0
    0.7225   -0.6080    3.3159 H   0  0  0  0  0  0  0  0  0  0  0  0
    2.1611    0.0537    2.5867 H   0  0  0  0  0  0  0  0  0  0  0  0
    0.9668    1.7865    3.7870 H   0  0  0  0  0  0  0  0  0  0  0  0
    0.9498    2.1806    2.0774 H   0  0  0  0  0  0  0  0  0  0  0  0
   -1.3982    1.2709    1.9069 H   0  0  0  0  0  0  0  0  0  0  0  0
   -1.3468    0.8581    3.6224 H   0  0  0  0  0  0  0  0  0  0  0  0
   -1.0625    3.2722    4.1975 H   0  0  0  0  0  0  0  0  0  0  0  0
   -1.0724    3.6929    2.4828 H   0  0  0  0  0  0  0  0  0  0  0  0
   -3.3895    2.2781    3.9098 H   0  0  0  0  0  0  0  0  0  0  0  0
   -3.3092    4.0192    3.5894 H   0  0  0  0  0  0  0  0  0  0  0  0
   -3.3840    2.8744    2.2395 H   0  0  0  0  0  0  0  0  0  0  0  0
    2.4596    1.0458   -1.3927 H   0  0  0  0  0  0  0  0  0  0  0  0
    3.0906   -1.1812   -1.8093 H   0  0  0  0  0  0  0  0  0  0  0  0
    2.7960   -1.7071   -0.1566 H   0  0  0  0  0  0  0  0  0  0  0  0
    5.2104   -0.3090   -1.2257 H   0  0  0  0  0  0  0  0  0  0  0  0
    5.0329   -1.3937    0.1942 H   0  0  0  0  0  0  0  0  0  0  0  0
  1  2  1  0  0  0  0
  1  9  1  0  0  0  0
  1 14  1  0  0  0  0
  1 15  1  0  0  0  0
  2  3  1  0  0  0  0
  2 16  1  0  0  0  0
  2 17  1  0  0  0  0
  3  4  1  0  0  0  0
  3 18  1  0  0  0  0
  3 19  1  0  0  0  0
  4  5  1  0  0  0  0
  4 20  1  0  0  0  0
  4 21  1  0  0  0  0
  5  6  1  0  0  0  0
  5 22  1  0  0  0  0
  5 23  1  0  0  0  0
  6  7  1  0  0  0  0
  6 24  1  0  0  0  0
  6 25  1  0  0  0  0
  7 26  1  0  0  0  0
  7 27  1  0  0  0  0
  7 28  1  0  0  0  0
  8 12  2  0  0  0  0
  9 10  1  0  0  0  0
  9 11  1  0  0  0  0
  9 29  1  0  0  0  0
 10 12  1  0  0  0  0
 11 13  1  0  0  0  0
 11 30  1  0  0  0  0
 11 31  1  0  0  0  0
 12 13  1  0  0  0  0
 13 32  1  0  0  0  0
 13 33  1  0  0  0  0
M  END
>  <Mol_ID>
7264

>  <Formula>
C11H20O2

>  <MolWeight>
184.2753

>  <Cat>
E4281

>  <Name>
Undecanoic gamma-lactone

>  <Synonyms>
Undecanoic gamma-lactone

>  <Target>
Others

>  <Form>
free base

>  <CAS>
104-67-6

>  <URL>
https://www.selleckchem.com/products/undecanoic-gamma-lactone.html

$$$$
