Unesbulin (PTC596)
 OpenBabel08302521233D

 43 46  0  0  0  0  0  0  0  0999 V2000
    2.9340    0.9189    2.8807 C   0  0  0  0  0  0  0  0  0  0  0  0
    2.1861    2.0464    2.5746 C   0  0  0  0  0  0  0  0  0  0  0  0
    1.3132    2.0325    1.4830 C   0  0  0  0  0  0  0  0  0  0  0  0
    1.2031    0.8613    0.7123 C   0  0  0  0  0  0  0  0  0  0  0  0
    1.9570   -0.2658    1.0365 C   0  0  0  0  0  0  0  0  0  0  0  0
    2.8486   -0.2532    2.1245 C   0  0  0  0  0  0  0  0  0  0  0  0
    0.4199    0.6348   -0.3798 N   0  0  0  0  0  0  0  0  0  0  0  0
    0.6584   -0.6096   -0.7464 C   0  0  0  0  0  0  0  0  0  0  0  0
    1.6002   -1.2199    0.0809 N   0  0  0  0  0  0  0  0  0  0  0  0
   -0.0370   -1.2718   -1.8823 C   0  0  0  0  0  0  0  0  0  0  0  0
    3.7645    0.9531    3.9309 F   0  0  0  0  0  0  0  0  0  0  0  0
    2.0963   -2.5626   -0.0233 C   0  0  0  0  0  0  0  0  0  0  0  0
    2.9067   -3.0156    0.9481 N   0  0  0  0  0  0  0  0  0  0  0  0
    3.3810   -4.2773    0.8690 C   0  0  0  0  0  0  0  0  0  0  0  0
    3.0580   -5.0888   -0.1991 C   0  0  0  0  0  0  0  0  0  0  0  0
    2.2005   -4.5657   -1.1487 C   0  0  0  0  0  0  0  0  0  0  0  0
    1.7183   -3.3145   -1.0754 N   0  0  0  0  0  0  0  0  0  0  0  0
    1.8405   -5.2957   -2.2829 N   0  0  0  0  0  0  0  0  0  0  0  0
    3.5125   -6.3489   -0.2860 F   0  0  0  0  0  0  0  0  0  0  0  0
    4.1655   -4.7947    1.9301 N   0  0  0  0  0  0  0  0  0  0  0  0
    4.2679   -4.2063    3.2061 C   0  0  0  0  0  0  0  0  0  0  0  0
    3.1267   -3.7040    3.8485 C   0  0  0  0  0  0  0  0  0  0  0  0
    3.2218   -2.9840    5.0379 C   0  0  0  0  0  0  0  0  0  0  0  0
    4.4701   -2.7603    5.6264 C   0  0  0  0  0  0  0  0  0  0  0  0
    5.6075   -3.3294    5.0316 C   0  0  0  0  0  0  0  0  0  0  0  0
    5.5068   -4.0481    3.8327 C   0  0  0  0  0  0  0  0  0  0  0  0
    4.5915   -1.8965    6.8570 C   0  0  0  0  0  0  0  0  0  0  0  0
    3.4070   -1.3592    7.2648 F   0  0  0  0  0  0  0  0  0  0  0  0
    5.0781   -2.5799    7.9291 F   0  0  0  0  0  0  0  0  0  0  0  0
    5.4336   -0.8426    6.6715 F   0  0  0  0  0  0  0  0  0  0  0  0
    2.2844    2.9383    3.1873 H   0  0  0  0  0  0  0  0  0  0  0  0
    0.7229    2.9061    1.2259 H   0  0  0  0  0  0  0  0  0  0  0  0
    3.4622   -1.1056    2.3904 H   0  0  0  0  0  0  0  0  0  0  0  0
    0.6686   -1.5541   -2.6687 H   0  0  0  0  0  0  0  0  0  0  0  0
   -0.5891   -2.1538   -1.5436 H   0  0  0  0  0  0  0  0  0  0  0  0
   -0.7652   -0.5860   -2.3282 H   0  0  0  0  0  0  0  0  0  0  0  0
    1.1355   -4.7862   -2.8074 H   0  0  0  0  0  0  0  0  0  0  0  0
    1.5695   -6.2497   -2.0671 H   0  0  0  0  0  0  0  0  0  0  0  0
    5.0138   -5.2348    1.5899 H   0  0  0  0  0  0  0  0  0  0  0  0
    2.1464   -3.8419    3.3984 H   0  0  0  0  0  0  0  0  0  0  0  0
    2.3154   -2.5718    5.4797 H   0  0  0  0  0  0  0  0  0  0  0  0
    6.5866   -3.1859    5.4872 H   0  0  0  0  0  0  0  0  0  0  0  0
    6.4127   -4.4411    3.3783 H   0  0  0  0  0  0  0  0  0  0  0  0
  1  2  2  0  0  0  0
  1 11  1  0  0  0  0
  2  3  1  0  0  0  0
  2 31  1  0  0  0  0
  3  4  2  0  0  0  0
  3 32  1  0  0  0  0
  4  5  1  0  0  0  0
  4  7  1  0  0  0  0
  5  6  2  0  0  0  0
  6  1  1  0  0  0  0
  6 33  1  0  0  0  0
  7  8  2  0  0  0  0
  8  9  1  0  0  0  0
  8 10  1  0  0  0  0
  9  5  1  0  0  0  0
  9 12  1  0  0  0  0
 10 34  1  0  0  0  0
 10 35  1  0  0  0  0
 10 36  1  0  0  0  0
 12 13  2  0  0  0  0
 13 14  1  0  0  0  0
 14 15  2  0  0  0  0
 14 20  1  0  0  0  0
 15 16  1  0  0  0  0
 15 19  1  0  0  0  0
 16 17  2  0  0  0  0
 16 18  1  0  0  0  0
 17 12  1  0  0  0  0
 18 37  1  0  0  0  0
 18 38  1  0  0  0  0
 20 21  1  0  0  0  0
 20 39  1  0  0  0  0
 21 22  2  0  0  0  0
 22 23  1  0  0  0  0
 22 40  1  0  0  0  0
 23 24  2  0  0  0  0
 23 41  1  0  0  0  0
 24 25  1  0  0  0  0
 24 27  1  0  0  0  0
 25 26  2  0  0  0  0
 25 42  1  0  0  0  0
 26 21  1  0  0  0  0
 26 43  1  0  0  0  0
 27 28  1  0  0  0  0
 27 29  1  0  0  0  0
 27 30  1  0  0  0  0
M  END
>  <Mol_ID>
4804

>  <Formula>
C19H13F5N6

>  <MolWeight>
420.338736

>  <Cat>
S8820

>  <Name>
Unesbulin (PTC596)

>  <Synonyms>
N/A

>  <Target>
Apoptosis related,Bcl-2,BMI-1

>  <Form>
Free Base

>  <CAS>
1610964-64-1

>  <URL>
http://www.selleck.cn/products/ptc596.html

$$$$
