untitled.cdx
 OpenBabel08302519503D

 46 49  0  0  0  0  0  0  0  0999 V2000
   -2.2535   -0.5398   -0.3572 C   0  0  0  0  0  0  0  0  0  0  0  0
   -1.1584   -1.3971   -0.2319 C   0  0  0  0  0  0  0  0  0  0  0  0
    0.1031   -0.8230   -0.3003 C   0  0  0  0  0  0  0  0  0  0  0  0
    0.2445    0.5550   -0.4609 C   0  0  0  0  0  0  0  0  0  0  0  0
   -0.8612    1.4412   -0.6006 C   0  0  0  0  0  0  0  0  0  0  0  0
   -2.1571    0.8416   -0.5668 C   0  0  0  0  0  0  0  0  0  0  0  0
   -3.5300    1.2350   -0.7083 C   0  0  0  0  0  0  0  0  0  0  0  0
   -4.3834    0.2340   -0.5194 N   0  0  0  0  0  0  0  0  0  0  0  0
   -3.5916   -0.8191   -0.3063 N   0  0  0  0  0  0  0  0  0  0  0  0
   -0.6224    2.9049   -0.6927 C   0  0  0  0  0  0  0  0  0  0  0  0
    0.5245    3.4155   -1.3288 C   0  0  0  0  0  0  0  0  0  0  0  0
    0.8985    4.7659   -1.2211 C   0  0  0  0  0  0  0  0  0  0  0  0
    0.1075    5.6554   -0.5036 C   0  0  0  0  0  0  0  0  0  0  0  0
   -1.1175    5.2080   -0.0100 C   0  0  0  0  0  0  0  0  0  0  0  0
   -1.4438    3.8465   -0.0541 C   0  0  0  0  0  0  0  0  0  0  0  0
    0.4962    6.9660   -0.1549 N   0  0  0  0  0  0  0  0  0  0  0  0
    1.7591    7.4939   -0.2029 C   0  0  0  0  0  0  0  0  0  0  0  0
    2.7342    6.9617   -0.7211 O   0  0  0  0  0  0  0  0  0  0  0  0
    1.9430    8.7576    0.2926 N   0  0  0  0  0  0  0  0  0  0  0  0
    1.0894    9.6694    0.9457 C   0  0  0  0  0  0  0  0  0  0  0  0
   -0.0076    9.3168    1.7365 C   0  0  0  0  0  0  0  0  0  0  0  0
   -0.8829   10.2750    2.2327 C   0  0  0  0  0  0  0  0  0  0  0  0
   -0.6703   11.6192    1.9458 C   0  0  0  0  0  0  0  0  0  0  0  0
    0.4507   12.0092    1.2052 C   0  0  0  0  0  0  0  0  0  0  0  0
    1.3563   11.0321    0.7573 C   0  0  0  0  0  0  0  0  0  0  0  0
    0.6695   13.4542    0.8625 C   0  0  0  0  0  0  0  0  0  0  0  0
   -0.2494    8.0354    2.0446 F   0  0  0  0  0  0  0  0  0  0  0  0
   -3.9819    2.4560   -1.0375 N   0  0  0  0  0  0  0  0  0  0  0  0
   -1.2797   -2.4657   -0.0859 H   0  0  0  0  0  0  0  0  0  0  0  0
    0.9879   -1.4484   -0.2071 H   0  0  0  0  0  0  0  0  0  0  0  0
    1.2595    0.9524   -0.4493 H   0  0  0  0  0  0  0  0  0  0  0  0
   -4.0256   -1.7201   -0.1447 H   0  0  0  0  0  0  0  0  0  0  0  0
    1.1937    2.7567   -1.8774 H   0  0  0  0  0  0  0  0  0  0  0  0
    1.8335    5.0772   -1.6775 H   0  0  0  0  0  0  0  0  0  0  0  0
   -1.7972    5.8867    0.4939 H   0  0  0  0  0  0  0  0  0  0  0  0
   -2.3348    3.5326    0.4834 H   0  0  0  0  0  0  0  0  0  0  0  0
   -0.1636    7.4549    0.4242 H   0  0  0  0  0  0  0  0  0  0  0  0
    2.8454    9.1093   -0.0026 H   0  0  0  0  0  0  0  0  0  0  0  0
   -1.7394    9.9608    2.8214 H   0  0  0  0  0  0  0  0  0  0  0  0
   -1.3879   12.3576    2.2960 H   0  0  0  0  0  0  0  0  0  0  0  0
    2.2302   11.3450    0.1883 H   0  0  0  0  0  0  0  0  0  0  0  0
    1.5005   13.8674    1.4413 H   0  0  0  0  0  0  0  0  0  0  0  0
    0.8847   13.5570   -0.2066 H   0  0  0  0  0  0  0  0  0  0  0  0
   -0.2273   14.0486    1.0688 H   0  0  0  0  0  0  0  0  0  0  0  0
   -3.3955    3.0548   -1.6071 H   0  0  0  0  0  0  0  0  0  0  0  0
   -4.9609    2.4936   -1.2981 H   0  0  0  0  0  0  0  0  0  0  0  0
  1  2  2  0  0  0  0
  2  3  1  0  0  0  0
  2 29  1  0  0  0  0
  3  4  2  0  0  0  0
  3 30  1  0  0  0  0
  4  5  1  0  0  0  0
  4 31  1  0  0  0  0
  5  6  2  0  0  0  0
  5 10  1  0  0  0  0
  6  1  1  0  0  0  0
  6  7  1  0  0  0  0
  7  8  2  0  0  0  0
  7 28  1  0  0  0  0
  8  9  1  0  0  0  0
  9  1  1  0  0  0  0
  9 32  1  0  0  0  0
 10 11  2  0  0  0  0
 11 12  1  0  0  0  0
 11 33  1  0  0  0  0
 12 13  2  0  0  0  0
 12 34  1  0  0  0  0
 13 14  1  0  0  0  0
 13 16  1  0  0  0  0
 14 15  2  0  0  0  0
 14 35  1  0  0  0  0
 15 10  1  0  0  0  0
 15 36  1  0  0  0  0
 16 17  1  0  0  0  0
 16 37  1  0  0  0  0
 17 18  2  0  0  0  0
 17 19  1  0  0  0  0
 19 20  1  0  0  0  0
 19 38  1  0  0  0  0
 20 21  2  0  0  0  0
 21 22  1  0  0  0  0
 21 27  1  0  0  0  0
 22 23  2  0  0  0  0
 22 39  1  0  0  0  0
 23 24  1  0  0  0  0
 23 40  1  0  0  0  0
 24 25  2  0  0  0  0
 24 26  1  0  0  0  0
 25 20  1  0  0  0  0
 25 41  1  0  0  0  0
 26 42  1  0  0  0  0
 26 43  1  0  0  0  0
 26 44  1  0  0  0  0
 28 45  1  0  0  0  0
 28 46  1  0  0  0  0
M  END
>  <Mol_ID>
2

>  <Formula>
C21H18FN5O

>  <MolWeight>
375.3989232

>  <Cat>
S1003

>  <Name>
Linifanib (ABT-869)

>  <Synonyms>
AL39324,RG3635

>  <Target>
Apoptosis related,Autophagy,CSF-1R,FLT3,PDGFR,VEGFR

>  <Form>
free base

>  <CAS>
796967-16-3

>  <URL>
http://selleckchem.com/products/ABT-869.html

$$$$
