untitled.cdx
 OpenBabel08302519593D

 46 49  0  0  0  0  0  0  0  0999 V2000
   -0.6543    1.2601   -0.1642 C   0  0  0  0  0  0  0  0  0  0  0  0
    0.7413    1.2536    0.0232 C   0  0  0  0  0  0  0  0  0  0  0  0
    1.3859    0.0252    0.2556 C   0  0  0  0  0  0  0  0  0  0  0  0
    0.6544   -1.1618    0.2385 C   0  0  0  0  0  0  0  0  0  0  0  0
   -0.6967   -1.0888   -0.0133 C   0  0  0  0  0  0  0  0  0  0  0  0
   -1.3503    0.0765   -0.2000 N   0  0  0  0  0  0  0  0  0  0  0  0
    1.7025    2.7441   -0.0273 S   0  0  0  0  0  0  0  0  0  0  0  0
    1.7405    3.1904   -1.4035 O   0  0  0  0  0  0  0  0  0  0  0  0
    1.2067    3.5962    1.0455 O   0  0  0  0  0  0  0  0  0  0  0  0
    3.2869    2.4222    0.4416 N   0  0  0  0  0  0  0  0  0  0  0  0
   -1.5830    2.4354   -0.2474 C   0  0  0  0  0  0  0  0  0  0  0  0
   -1.2422    3.6777   -0.7897 C   0  0  0  0  0  0  0  0  0  0  0  0
   -2.0664    4.8010   -0.6859 C   0  0  0  0  0  0  0  0  0  0  0  0
   -3.3417    4.7077   -0.1354 C   0  0  0  0  0  0  0  0  0  0  0  0
   -3.7751    3.4510    0.2858 C   0  0  0  0  0  0  0  0  0  0  0  0
   -2.9058    2.3429    0.2438 C   0  0  0  0  0  0  0  0  0  0  0  0
   -3.6085    7.0898   -0.3793 O   0  0  0  0  0  0  0  0  0  0  0  0
   -4.1806    5.8891   -0.0221 C   0  0  0  0  0  0  0  0  0  0  0  0
   -5.4228    6.0364    0.3870 N   0  0  0  0  0  0  0  0  0  0  0  0
   -5.7118    7.3883    0.2998 N   0  0  0  0  0  0  0  0  0  0  0  0
   -4.6252    7.9575   -0.1464 C   0  0  0  0  0  0  0  0  0  0  0  0
    4.2144    2.3238   -0.6403 C   0  0  0  0  0  0  0  0  0  0  0  0
    4.8231    3.4161   -1.2894 C   0  0  0  0  0  0  0  0  0  0  0  0
    4.4789    1.0445   -0.9777 N   0  0  0  0  0  0  0  0  0  0  0  0
    5.7815    3.2338   -2.2339 N   0  0  0  0  0  0  0  0  0  0  0  0
    6.0968    1.9532   -2.5310 C   0  0  0  0  0  0  0  0  0  0  0  0
    5.4275    0.8894   -1.9331 C   0  0  0  0  0  0  0  0  0  0  0  0
    7.2163    1.7362   -3.4970 C   0  0  0  0  0  0  0  0  0  0  0  0
    4.5117    4.7107   -0.9217 O   0  0  0  0  0  0  0  0  0  0  0  0
    5.1518    5.6829   -1.7597 C   0  0  0  0  0  0  0  0  0  0  0  0
    2.4556   -0.0286    0.4484 H   0  0  0  0  0  0  0  0  0  0  0  0
    1.1308   -2.1221    0.4088 H   0  0  0  0  0  0  0  0  0  0  0  0
   -1.3154   -1.9803   -0.0623 H   0  0  0  0  0  0  0  0  0  0  0  0
    3.5492    3.1435    1.1157 H   0  0  0  0  0  0  0  0  0  0  0  0
   -0.3197    3.8458   -1.3207 H   0  0  0  0  0  0  0  0  0  0  0  0
   -1.6771    5.7492   -1.0500 H   0  0  0  0  0  0  0  0  0  0  0  0
   -4.7848    3.3181    0.6726 H   0  0  0  0  0  0  0  0  0  0  0  0
   -3.2817    1.3885    0.6131 H   0  0  0  0  0  0  0  0  0  0  0  0
   -4.4353    9.0064   -0.3542 H   0  0  0  0  0  0  0  0  0  0  0  0
    5.6596   -0.1400   -2.1887 H   0  0  0  0  0  0  0  0  0  0  0  0
    6.9004    1.9954   -4.5115 H   0  0  0  0  0  0  0  0  0  0  0  0
    8.0674    2.3684   -3.2203 H   0  0  0  0  0  0  0  0  0  0  0  0
    7.5592    0.6973   -3.4865 H   0  0  0  0  0  0  0  0  0  0  0  0
    6.2445    5.6207   -1.6813 H   0  0  0  0  0  0  0  0  0  0  0  0
    4.8360    5.5850   -2.8067 H   0  0  0  0  0  0  0  0  0  0  0  0
    4.8599    6.6812   -1.4198 H   0  0  0  0  0  0  0  0  0  0  0  0
  1  2  1  0  0  0  0
  1  6  2  0  0  0  0
  1 11  1  0  0  0  0
  2  3  2  0  0  0  0
  2  7  1  0  0  0  0
  3  4  1  0  0  0  0
  3 31  1  0  0  0  0
  4  5  2  0  0  0  0
  4 32  1  0  0  0  0
  5  6  1  0  0  0  0
  5 33  1  0  0  0  0
  7  8  2  0  0  0  0
  7  9  2  0  0  0  0
  7 10  1  0  0  0  0
 10 22  1  0  0  0  0
 10 34  1  0  0  0  0
 11 12  2  0  0  0  0
 11 16  1  0  0  0  0
 12 13  1  0  0  0  0
 12 35  1  0  0  0  0
 13 14  2  0  0  0  0
 13 36  1  0  0  0  0
 14 15  1  0  0  0  0
 14 18  1  0  0  0  0
 15 16  2  0  0  0  0
 15 37  1  0  0  0  0
 16 38  1  0  0  0  0
 17 18  1  0  0  0  0
 17 21  1  0  0  0  0
 18 19  2  0  0  0  0
 19 20  1  0  0  0  0
 20 21  2  0  0  0  0
 21 39  1  0  0  0  0
 22 23  2  0  0  0  0
 22 24  1  0  0  0  0
 23 25  1  0  0  0  0
 23 29  1  0  0  0  0
 24 27  2  0  0  0  0
 25 26  2  0  0  0  0
 26 27  1  0  0  0  0
 26 28  1  0  0  0  0
 27 40  1  0  0  0  0
 28 41  1  0  0  0  0
 28 42  1  0  0  0  0
 28 43  1  0  0  0  0
 29 30  1  0  0  0  0
 30 44  1  0  0  0  0
 30 45  1  0  0  0  0
 30 46  1  0  0  0  0
M  END
>  <Mol_ID>
267

>  <Formula>
C19H16N6O4S

>  <MolWeight>
424.43314

>  <Cat>
S1456

>  <Name>
Zibotentan (ZD4054)

>  <Synonyms>
N/A

>  <Target>
Endothelin Receptor

>  <Form>
free base

>  <CAS>
186497-07-4

>  <URL>
http://selleckchem.com/products/Zibotentan(ZD4054).html

$$$$
