untitled.cdx
 OpenBabel08302520013D

 47 48  0  0  0  0  0  0  0  0999 V2000
   -4.8294    6.5037    4.6973 C   0  0  0  0  0  0  0  0  0  0  0  0
   -4.2880    5.3482    5.2525 C   0  0  0  0  0  0  0  0  0  0  0  0
   -3.7559    4.3581    4.4208 C   0  0  0  0  0  0  0  0  0  0  0  0
   -3.7388    4.5201    3.0209 C   0  0  0  0  0  0  0  0  0  0  0  0
   -4.2874    5.6867    2.4763 C   0  0  0  0  0  0  0  0  0  0  0  0
   -4.8305    6.6672    3.3132 C   0  0  0  0  0  0  0  0  0  0  0  0
   -2.9888    3.5598    2.1289 C   0  0  0  0  0  0  0  0  0  0  0  0
   -3.4365    3.3877    0.7978 N   0  0  0  0  0  0  0  0  0  0  0  0
   -1.5686    2.8169    2.7046 S   0  0  0  0  0  0  0  0  0  0  0  0
   -4.8394    3.3570    0.5142 N   0  0  0  0  0  0  0  0  0  0  0  0
   -2.6074    2.7463   -0.2321 C   0  0  0  0  0  0  0  0  0  0  0  0
   -5.3587    3.8884   -0.6613 C   0  0  0  0  0  0  0  0  0  0  0  0
   -6.8528    3.7578   -0.8609 C   0  0  0  0  0  0  0  0  0  0  0  0
   -4.6691    4.3747   -1.5587 O   0  0  0  0  0  0  0  0  0  0  0  0
   -7.6724    4.0349    0.3700 C   0  0  0  0  0  0  0  0  0  0  0  0
   -8.4168    5.1994    0.3412 N   0  0  0  0  0  0  0  0  0  0  0  0
   -7.6268    3.2468    1.3250 O   0  0  0  0  0  0  0  0  0  0  0  0
   -9.1935    5.5925    1.4685 N   0  0  0  0  0  0  0  0  0  0  0  0
   -8.4197    5.7430    2.7041 C   0  0  0  0  0  0  0  0  0  0  0  0
  -10.4287    6.2403    1.2618 C   0  0  0  0  0  0  0  0  0  0  0  0
  -10.8208    7.6802    2.0774 S   0  0  0  0  0  0  0  0  0  0  0  0
  -11.4554    5.5179    0.4133 C   0  0  0  0  0  0  0  0  0  0  0  0
  -11.3489    4.1325    0.2178 C   0  0  0  0  0  0  0  0  0  0  0  0
  -12.3897    3.4072   -0.3686 C   0  0  0  0  0  0  0  0  0  0  0  0
  -13.5639    4.0501   -0.7485 C   0  0  0  0  0  0  0  0  0  0  0  0
  -13.6808    5.4271   -0.5889 C   0  0  0  0  0  0  0  0  0  0  0  0
  -12.6279    6.1597   -0.0309 C   0  0  0  0  0  0  0  0  0  0  0  0
   -5.2187    7.2866    5.3437 H   0  0  0  0  0  0  0  0  0  0  0  0
   -4.2507    5.2284    6.3338 H   0  0  0  0  0  0  0  0  0  0  0  0
   -3.3186    3.4802    4.8920 H   0  0  0  0  0  0  0  0  0  0  0  0
   -4.2443    5.8774    1.4094 H   0  0  0  0  0  0  0  0  0  0  0  0
   -5.2366    7.5769    2.8852 H   0  0  0  0  0  0  0  0  0  0  0  0
   -5.4527    2.9948    1.2466 H   0  0  0  0  0  0  0  0  0  0  0  0
   -1.7596    3.4123   -0.4333 H   0  0  0  0  0  0  0  0  0  0  0  0
   -2.2242    1.7881    0.1275 H   0  0  0  0  0  0  0  0  0  0  0  0
   -3.1417    2.5668   -1.1657 H   0  0  0  0  0  0  0  0  0  0  0  0
   -7.1526    4.4374   -1.6662 H   0  0  0  0  0  0  0  0  0  0  0  0
   -7.0766    2.7393   -1.2029 H   0  0  0  0  0  0  0  0  0  0  0  0
   -8.4693    5.7960   -0.4798 H   0  0  0  0  0  0  0  0  0  0  0  0
   -8.2655    6.7958    2.9499 H   0  0  0  0  0  0  0  0  0  0  0  0
   -9.0070    5.2754    3.5011 H   0  0  0  0  0  0  0  0  0  0  0  0
   -7.4484    5.2527    2.6528 H   0  0  0  0  0  0  0  0  0  0  0  0
  -10.4863    3.5787    0.5759 H   0  0  0  0  0  0  0  0  0  0  0  0
  -12.2978    2.3303   -0.4841 H   0  0  0  0  0  0  0  0  0  0  0  0
  -14.3947    3.4748   -1.1488 H   0  0  0  0  0  0  0  0  0  0  0  0
  -14.6050    5.9303   -0.8650 H   0  0  0  0  0  0  0  0  0  0  0  0
  -12.7741    7.2303    0.0977 H   0  0  0  0  0  0  0  0  0  0  0  0
  1  2  2  0  0  0  0
  1 28  1  0  0  0  0
  2  3  1  0  0  0  0
  2 29  1  0  0  0  0
  3  4  2  0  0  0  0
  3 30  1  0  0  0  0
  4  5  1  0  0  0  0
  4  7  1  0  0  0  0
  5  6  2  0  0  0  0
  5 31  1  0  0  0  0
  6  1  1  0  0  0  0
  6 32  1  0  0  0  0
  7  8  1  0  0  0  0
  7  9  2  0  0  0  0
  8 10  1  0  0  0  0
  8 11  1  0  0  0  0
 10 12  1  0  0  0  0
 10 33  1  0  0  0  0
 11 34  1  0  0  0  0
 11 35  1  0  0  0  0
 11 36  1  0  0  0  0
 12 13  1  0  0  0  0
 12 14  2  0  0  0  0
 13 15  1  0  0  0  0
 13 37  1  0  0  0  0
 13 38  1  0  0  0  0
 15 16  1  0  0  0  0
 15 17  2  0  0  0  0
 16 18  1  0  0  0  0
 16 39  1  0  0  0  0
 18 19  1  0  0  0  0
 18 20  1  0  0  0  0
 19 40  1  0  0  0  0
 19 41  1  0  0  0  0
 19 42  1  0  0  0  0
 20 21  2  0  0  0  0
 20 22  1  0  0  0  0
 22 23  2  0  0  0  0
 23 24  1  0  0  0  0
 23 43  1  0  0  0  0
 24 25  2  0  0  0  0
 24 44  1  0  0  0  0
 25 26  1  0  0  0  0
 25 45  1  0  0  0  0
 26 27  2  0  0  0  0
 26 46  1  0  0  0  0
 27 22  1  0  0  0  0
 27 47  1  0  0  0  0
M  END
>  <Mol_ID>
33

>  <Formula>
C19H20N4O2S2

>  <MolWeight>
400.5177

>  <Cat>
S1052

>  <Name>
Elesclomol (STA-4783)

>  <Synonyms>
N/A

>  <Target>
Apoptosis related,HSP (HSP90)

>  <Form>
free base

>  <CAS>
488832-69-5

>  <URL>
http://selleckchem.com/products/Elesclomol.html

$$$$
