untitled.cdx
 OpenBabel08302521223D

 36 37  0  0  0  0  0  0  0  0999 V2000
    1.4254   -0.2297    0.0048 C   0  0  0  0  0  0  0  0  0  0  0  0
    0.5332   -1.3013   -0.0683 C   0  0  0  0  0  0  0  0  0  0  0  0
   -0.8375   -1.0492   -0.0875 C   0  0  0  0  0  0  0  0  0  0  0  0
   -1.3119    0.2643    0.0036 C   0  0  0  0  0  0  0  0  0  0  0  0
   -0.4231    1.3427    0.1187 C   0  0  0  0  0  0  0  0  0  0  0  0
    0.9537    1.0857    0.0847 C   0  0  0  0  0  0  0  0  0  0  0  0
    3.1670   -0.5287    0.1854 S   0  0  0  0  0  0  0  0  0  0  0  0
    3.7097   -0.6898   -1.4017 N   0  0  0  0  0  0  0  0  0  0  0  0
    4.0689    0.4791   -2.1262 C   0  0  0  0  0  0  0  0  0  0  0  0
   -0.9644    2.7007    0.2914 C   0  0  0  0  0  0  0  0  0  0  0  0
   -0.3153    3.6738    0.9516 C   0  0  0  0  0  0  0  0  0  0  0  0
   -0.9434    4.9992    1.1559 C   0  0  0  0  0  0  0  0  0  0  0  0
   -0.1520    5.8627    1.8665 N   0  0  0  0  0  0  0  0  0  0  0  0
   -2.0627    5.2928    0.7539 O   0  0  0  0  0  0  0  0  0  0  0  0
   -0.7084    7.1217    2.1826 O   0  0  0  0  0  0  0  0  0  0  0  0
    5.3677    0.9843   -2.0408 C   0  0  0  0  0  0  0  0  0  0  0  0
    5.7243    2.1113   -2.7836 C   0  0  0  0  0  0  0  0  0  0  0  0
    4.7819    2.7342   -3.6019 C   0  0  0  0  0  0  0  0  0  0  0  0
    3.4789    2.2389   -3.6678 C   0  0  0  0  0  0  0  0  0  0  0  0
    3.1195    1.1136   -2.9238 C   0  0  0  0  0  0  0  0  0  0  0  0
    3.7717    0.6336    0.8012 O   0  0  0  0  0  0  0  0  0  0  0  0
    3.3140   -1.8411    0.7847 O   0  0  0  0  0  0  0  0  0  0  0  0
    0.8945   -2.3276   -0.0899 H   0  0  0  0  0  0  0  0  0  0  0  0
   -1.5432   -1.8754   -0.1417 H   0  0  0  0  0  0  0  0  0  0  0  0
   -2.3879    0.4328    0.0187 H   0  0  0  0  0  0  0  0  0  0  0  0
    1.6729    1.8986    0.1459 H   0  0  0  0  0  0  0  0  0  0  0  0
    4.3440   -1.4851   -1.4772 H   0  0  0  0  0  0  0  0  0  0  0  0
   -1.9648    2.8788   -0.0987 H   0  0  0  0  0  0  0  0  0  0  0  0
    0.6657    3.5226    1.3835 H   0  0  0  0  0  0  0  0  0  0  0  0
    0.7441    5.6404    2.2815 H   0  0  0  0  0  0  0  0  0  0  0  0
   -1.6028    7.0614    1.7777 H   0  0  0  0  0  0  0  0  0  0  0  0
    6.1078    0.5110   -1.4016 H   0  0  0  0  0  0  0  0  0  0  0  0
    6.7375    2.5025   -2.7269 H   0  0  0  0  0  0  0  0  0  0  0  0
    5.0631    3.6056   -4.1890 H   0  0  0  0  0  0  0  0  0  0  0  0
    2.7463    2.7241   -4.3078 H   0  0  0  0  0  0  0  0  0  0  0  0
    2.1080    0.7234   -2.9960 H   0  0  0  0  0  0  0  0  0  0  0  0
  1  2  2  0  0  0  0
  1  7  1  0  0  0  0
  2  3  1  0  0  0  0
  2 23  1  0  0  0  0
  3  4  2  0  0  0  0
  3 24  1  0  0  0  0
  4  5  1  0  0  0  0
  4 25  1  0  0  0  0
  5  6  2  0  0  0  0
  5 10  1  0  0  0  0
  6  1  1  0  0  0  0
  6 26  1  0  0  0  0
  7  8  1  0  0  0  0
  7 21  2  0  0  0  0
  7 22  2  0  0  0  0
  8  9  1  0  0  0  0
  8 27  1  0  0  0  0
  9 16  2  0  0  0  0
 10 11  2  0  0  0  0
 10 28  1  0  0  0  0
 11 12  1  0  0  0  0
 11 29  1  0  0  0  0
 12 13  1  0  0  0  0
 12 14  2  0  0  0  0
 13 15  1  0  0  0  0
 13 30  1  0  0  0  0
 15 31  1  0  0  0  0
 16 17  1  0  0  0  0
 16 32  1  0  0  0  0
 17 18  2  0  0  0  0
 17 33  1  0  0  0  0
 18 19  1  0  0  0  0
 18 34  1  0  0  0  0
 19 20  2  0  0  0  0
 19 35  1  0  0  0  0
 20  9  1  0  0  0  0
 20 36  1  0  0  0  0
M  END
>  <Mol_ID>
51

>  <Formula>
C15H14N2O4S

>  <MolWeight>
318.34766

>  <Cat>
S1085

>  <Name>
Belinostat (PXD101)

>  <Synonyms>
PXD101,NSC726630, PX-105684

>  <Target>
Autophagy,HDAC

>  <Form>
free base

>  <CAS>
866323-14-0

>  <URL>
http://selleckchem.com/products/Belinostat.html

$$$$
