untitled.cdx
 OpenBabel08302519503D

 40 41  0  0  0  0  0  0  0  0999 V2000
   -1.5790   -0.5472    0.4225 C   0  0  0  0  0  0  0  0  0  0  0  0
   -0.3223   -1.1573    0.3823 C   0  0  0  0  0  0  0  0  0  0  0  0
    0.8019   -0.3822    0.1497 C   0  0  0  0  0  0  0  0  0  0  0  0
    0.6759    0.9903   -0.0364 C   0  0  0  0  0  0  0  0  0  0  0  0
   -0.5899    1.6190   -0.0762 C   0  0  0  0  0  0  0  0  0  0  0  0
   -1.7367    0.8388    0.1883 C   0  0  0  0  0  0  0  0  0  0  0  0
   -3.1493    1.3601    0.1886 C   0  0  0  0  0  0  0  0  0  0  0  0
    2.0074   -0.9634    0.1106 F   0  0  0  0  0  0  0  0  0  0  0  0
    1.8012    1.7132   -0.1768 F   0  0  0  0  0  0  0  0  0  0  0  0
   -0.6794    3.0409   -0.2108 N   0  0  0  0  0  0  0  0  0  0  0  0
    0.1072    3.8217   -1.1104 C   0  0  0  0  0  0  0  0  0  0  0  0
    0.3393    5.1708   -0.8084 C   0  0  0  0  0  0  0  0  0  0  0  0
    0.9790    6.0102   -1.7277 C   0  0  0  0  0  0  0  0  0  0  0  0
    1.3807    5.5111   -2.9668 C   0  0  0  0  0  0  0  0  0  0  0  0
    1.1725    4.1742   -3.2860 C   0  0  0  0  0  0  0  0  0  0  0  0
    0.5244    3.3500   -2.3698 C   0  0  0  0  0  0  0  0  0  0  0  0
    0.2777    2.0828   -2.7380 F   0  0  0  0  0  0  0  0  0  0  0  0
    2.2329    6.7850   -4.3682 I   0  0  0  0  0  0  0  0  0  0  0  0
   -4.0190    0.7294    0.7834 O   0  0  0  0  0  0  0  0  0  0  0  0
   -3.3891    2.5008   -0.5358 N   0  0  0  0  0  0  0  0  0  0  0  0
   -4.7211    2.9934   -0.6285 O   0  0  0  0  0  0  0  0  0  0  0  0
   -5.0270    3.1496   -2.0230 C   0  0  0  0  0  0  0  0  0  0  0  0
   -6.3276    3.9187   -2.3290 C   0  0  2  0  0  0  0  0  0  0  0  0
   -6.2010    5.2930   -1.9353 O   0  0  0  0  0  0  0  0  0  0  0  0
   -7.6194    3.3192   -1.7597 C   0  0  0  0  0  0  0  0  0  0  0  0
   -7.7207    3.5248   -0.3569 O   0  0  0  0  0  0  0  0  0  0  0  0
   -2.4518   -1.1642    0.6337 H   0  0  0  0  0  0  0  0  0  0  0  0
   -0.2154   -2.2282    0.5364 H   0  0  0  0  0  0  0  0  0  0  0  0
   -0.6345    3.4527    0.7248 H   0  0  0  0  0  0  0  0  0  0  0  0
    0.0179    5.5890    0.1429 H   0  0  0  0  0  0  0  0  0  0  0  0
    1.1368    7.0549   -1.4690 H   0  0  0  0  0  0  0  0  0  0  0  0
    1.4768    3.7583   -4.2413 H   0  0  0  0  0  0  0  0  0  0  0  0
   -2.6432    3.0576   -0.9449 H   0  0  0  0  0  0  0  0  0  0  0  0
   -4.2021    3.6997   -2.4911 H   0  0  0  0  0  0  0  0  0  0  0  0
   -5.0864    2.1512   -2.4704 H   0  0  0  0  0  0  0  0  0  0  0  0
   -6.4314    3.9303   -3.4199 H   0  0  0  0  0  0  0  0  0  0  0  0
   -6.9527    5.4901   -1.3419 H   0  0  0  0  0  0  0  0  0  0  0  0
   -8.4769    3.8401   -2.2049 H   0  0  0  0  0  0  0  0  0  0  0  0
   -7.7201    2.2553   -1.9902 H   0  0  0  0  0  0  0  0  0  0  0  0
   -6.9929    3.0240    0.0618 H   0  0  0  0  0  0  0  0  0  0  0  0
  1  2  2  0  0  0  0
  1 27  1  0  0  0  0
  2  3  1  0  0  0  0
  2 28  1  0  0  0  0
  3  4  2  0  0  0  0
  3  8  1  0  0  0  0
  4  5  1  0  0  0  0
  4  9  1  0  0  0  0
  5  6  2  0  0  0  0
  5 10  1  0  0  0  0
  6  1  1  0  0  0  0
  6  7  1  0  0  0  0
  7 19  2  0  0  0  0
  7 20  1  0  0  0  0
 10 11  1  0  0  0  0
 10 29  1  0  0  0  0
 11 12  2  0  0  0  0
 12 13  1  0  0  0  0
 12 30  1  0  0  0  0
 13 14  2  0  0  0  0
 13 31  1  0  0  0  0
 14 15  1  0  0  0  0
 14 18  1  0  0  0  0
 15 16  2  0  0  0  0
 15 32  1  0  0  0  0
 16 11  1  0  0  0  0
 16 17  1  0  0  0  0
 20 21  1  0  0  0  0
 20 33  1  0  0  0  0
 21 22  1  0  0  0  0
 22 34  1  0  0  0  0
 22 35  1  0  0  0  0
 23 24  1  0  0  0  0
 23 22  1  0  0  0  0
 23 36  1  6  0  0  0
 23 25  1  0  0  0  0
 24 37  1  0  0  0  0
 25 26  1  0  0  0  0
 25 38  1  0  0  0  0
 25 39  1  0  0  0  0
 26 40  1  0  0  0  0
M  END
>  <Mol_ID>
22

>  <Formula>
C16H14F3IN2O4

>  <MolWeight>
482.1930396

>  <Cat>
S1036

>  <Name>
Mirdametinib (PD0325901)

>  <Synonyms>
N/A

>  <Target>
MEK

>  <Form>
free base

>  <CAS>
391210-10-9

>  <URL>
http://selleckchem.com/products/PD-0325901.html

$$$$
