untitled.cdx
 OpenBabel08302521373D

 49 51  0  0  0  0  0  0  0  0999 V2000
   -3.2516    2.5573    0.5871 C   0  0  0  0  0  0  0  0  0  0  0  0
   -2.9857    3.5986   -0.2766 C   0  0  0  0  0  0  0  0  0  0  0  0
   -1.6531    3.6205   -0.6032 N   0  0  0  0  0  0  0  0  0  0  0  0
   -1.1482    2.6175    0.0840 C   0  0  0  0  0  0  0  0  0  0  0  0
   -2.0682    1.9014    0.8012 O   0  0  0  0  0  0  0  0  0  0  0  0
   -4.4607    2.0455    1.3113 C   0  0  0  0  0  0  0  0  0  0  0  0
   -5.6886    2.9208    1.0062 C   0  0  0  0  0  0  0  0  0  0  0  0
   -4.7612    0.6010    0.8759 C   0  0  0  0  0  0  0  0  0  0  0  0
   -4.2053    2.0721    2.8285 C   0  0  0  0  0  0  0  0  0  0  0  0
    0.2639    2.1702    0.1946 C   0  0  0  0  0  0  0  0  0  0  0  0
    1.1420    2.9648    1.5790 S   0  0  0  0  0  0  0  0  0  0  0  0
    0.2334    2.3944    2.9652 C   0  0  0  0  0  0  0  0  0  0  0  0
    0.0494    1.0944    3.3901 C   0  0  0  0  0  0  0  0  0  0  0  0
   -0.6806    0.9422    4.5569 N   0  0  0  0  0  0  0  0  0  0  0  0
   -1.0884    2.1214    4.9667 C   0  0  0  0  0  0  0  0  0  0  0  0
   -0.5579    3.4557    4.0527 S   0  0  0  0  0  0  0  0  0  0  0  0
   -1.8639    2.2392    6.0933 N   0  0  0  0  0  0  0  0  0  0  0  0
   -2.5916    3.3421    6.4899 C   0  0  0  0  0  0  0  0  0  0  0  0
   -2.6562    4.4134    5.8976 O   0  0  0  0  0  0  0  0  0  0  0  0
   -3.3595    3.1019    7.8000 C   0  0  0  0  0  0  0  0  0  0  0  0
   -4.4034    1.9844    7.6652 C   0  0  0  0  0  0  0  0  0  0  0  0
   -5.6625    2.4528    6.9387 C   0  0  0  0  0  0  0  0  0  0  0  0
   -6.2454    3.6045    7.6182 N   0  0  0  0  0  0  0  0  0  0  0  0
   -5.3177    4.7360    7.6125 C   0  0  0  0  0  0  0  0  0  0  0  0
   -4.0158    4.3869    8.3337 C   0  0  0  0  0  0  0  0  0  0  0  0
   -3.6731    4.3366   -0.6672 H   0  0  0  0  0  0  0  0  0  0  0  0
   -5.9372    2.9033   -0.0617 H   0  0  0  0  0  0  0  0  0  0  0  0
   -6.5707    2.5736    1.5566 H   0  0  0  0  0  0  0  0  0  0  0  0
   -5.5149    3.9667    1.2868 H   0  0  0  0  0  0  0  0  0  0  0  0
   -3.9145   -0.0661    1.0774 H   0  0  0  0  0  0  0  0  0  0  0  0
   -5.6302    0.2002    1.4106 H   0  0  0  0  0  0  0  0  0  0  0  0
   -4.9737    0.5441   -0.1980 H   0  0  0  0  0  0  0  0  0  0  0  0
   -3.3674    1.4208    3.1027 H   0  0  0  0  0  0  0  0  0  0  0  0
   -3.9644    3.0841    3.1750 H   0  0  0  0  0  0  0  0  0  0  0  0
   -5.0822    1.7267    3.3865 H   0  0  0  0  0  0  0  0  0  0  0  0
    0.3230    1.0809    0.2936 H   0  0  0  0  0  0  0  0  0  0  0  0
    0.7958    2.4339   -0.7266 H   0  0  0  0  0  0  0  0  0  0  0  0
    0.4341    0.2112    2.8954 H   0  0  0  0  0  0  0  0  0  0  0  0
   -1.9722    1.3621    6.5825 H   0  0  0  0  0  0  0  0  0  0  0  0
   -2.6029    2.7898    8.5332 H   0  0  0  0  0  0  0  0  0  0  0  0
   -4.0011    1.1092    7.1442 H   0  0  0  0  0  0  0  0  0  0  0  0
   -4.6810    1.6405    8.6708 H   0  0  0  0  0  0  0  0  0  0  0  0
   -5.4436    2.6920    5.8913 H   0  0  0  0  0  0  0  0  0  0  0  0
   -6.3947    1.6377    6.9337 H   0  0  0  0  0  0  0  0  0  0  0  0
   -7.1057    3.8789    7.1433 H   0  0  0  0  0  0  0  0  0  0  0  0
   -5.7946    5.5788    8.1294 H   0  0  0  0  0  0  0  0  0  0  0  0
   -5.1278    5.0648    6.5855 H   0  0  0  0  0  0  0  0  0  0  0  0
   -4.2336    4.2500    9.4014 H   0  0  0  0  0  0  0  0  0  0  0  0
   -3.3250    5.2361    8.2657 H   0  0  0  0  0  0  0  0  0  0  0  0
  1  2  2  0  0  0  0
  1  6  1  0  0  0  0
  2  3  1  0  0  0  0
  2 26  1  0  0  0  0
  3  4  2  0  0  0  0
  4  5  1  0  0  0  0
  4 10  1  0  0  0  0
  5  1  1  0  0  0  0
  6  7  1  0  0  0  0
  6  8  1  0  0  0  0
  6  9  1  0  0  0  0
  7 27  1  0  0  0  0
  7 28  1  0  0  0  0
  7 29  1  0  0  0  0
  8 30  1  0  0  0  0
  8 31  1  0  0  0  0
  8 32  1  0  0  0  0
  9 33  1  0  0  0  0
  9 34  1  0  0  0  0
  9 35  1  0  0  0  0
 10 11  1  0  0  0  0
 10 36  1  0  0  0  0
 10 37  1  0  0  0  0
 11 12  1  0  0  0  0
 12 13  2  0  0  0  0
 13 14  1  0  0  0  0
 13 38  1  0  0  0  0
 14 15  2  0  0  0  0
 15 16  1  0  0  0  0
 15 17  1  0  0  0  0
 16 12  1  0  0  0  0
 17 18  1  0  0  0  0
 17 39  1  0  0  0  0
 18 19  2  0  0  0  0
 18 20  1  0  0  0  0
 20 21  1  0  0  0  0
 20 40  1  0  0  0  0
 21 22  1  0  0  0  0
 21 41  1  0  0  0  0
 21 42  1  0  0  0  0
 22 23  1  0  0  0  0
 22 43  1  0  0  0  0
 22 44  1  0  0  0  0
 23 24  1  0  0  0  0
 23 45  1  0  0  0  0
 24 25  1  0  0  0  0
 24 46  1  0  0  0  0
 24 47  1  0  0  0  0
 25 20  1  0  0  0  0
 25 48  1  0  0  0  0
 25 49  1  0  0  0  0
M  END
>  <Mol_ID>
85

>  <Formula>
C17H24N4O2S2

>  <MolWeight>
380.52806

>  <Cat>
S1145

>  <Name>
SNS-032 (BMS-387032)

>  <Synonyms>
N/A

>  <Target>
Apoptosis related,CDK

>  <Form>
free base

>  <CAS>
345627-80-7

>  <URL>
http://selleckchem.com/products/SNS-032.html

$$$$
