untitled.cdx
 OpenBabel08302521213D

 46 49  0  0  0  0  0  0  0  0999 V2000
    3.0718    0.2323    0.0757 C   0  0  0  0  0  0  0  0  0  0  0  0
    3.8113   -0.2173   -1.0444 C   0  0  0  0  0  0  0  0  0  0  0  0
    3.8685    0.5127   -2.2310 C   0  0  0  0  0  0  0  0  0  0  0  0
    3.1817    1.7078   -2.3416 C   0  0  0  0  0  0  0  0  0  0  0  0
    2.4793    2.1963   -1.2394 C   0  0  0  0  0  0  0  0  0  0  0  0
    2.4322    1.4936   -0.0141 C   0  0  0  0  0  0  0  0  0  0  0  0
    1.7035    2.2346    1.0803 C   0  0  0  0  0  0  0  0  0  0  0  0
    1.0166    3.2193    0.8116 O   0  0  0  0  0  0  0  0  0  0  0  0
    1.8842    1.8163    2.3814 N   0  0  0  0  0  0  0  0  0  0  0  0
    1.3758    2.5564    3.5056 C   0  0  0  0  0  0  0  0  0  0  0  0
    2.9790   -0.8209    1.5296 S   0  0  0  0  0  0  0  0  0  0  0  0
    3.5839   -2.4248    1.0327 C   0  0  0  0  0  0  0  0  0  0  0  0
    2.6793   -3.3847    0.5685 C   0  0  0  0  0  0  0  0  0  0  0  0
    3.1786   -4.6852    0.5997 C   0  0  0  0  0  0  0  0  0  0  0  0
    4.5194   -5.0071    0.3823 C   0  0  0  0  0  0  0  0  0  0  0  0
    5.4123   -4.0603    0.9436 C   0  0  0  0  0  0  0  0  0  0  0  0
    4.9122   -2.7884    1.3035 C   0  0  0  0  0  0  0  0  0  0  0  0
    2.8282   -5.7337    1.4459 N   0  0  0  0  0  0  0  0  0  0  0  0
    3.6839   -6.7806    1.3817 N   0  0  0  0  0  0  0  0  0  0  0  0
    4.4335   -6.4382    0.3127 C   0  0  0  0  0  0  0  0  0  0  0  0
    4.2435   -7.2717   -0.8615 C   0  0  0  0  0  0  0  0  0  0  0  0
    4.1074   -6.8724   -2.1398 C   0  0  0  0  0  0  0  0  0  0  0  0
    3.5369   -7.7438   -3.1900 C   0  0  0  0  0  0  0  0  0  0  0  0
    3.4090   -7.2844   -4.5016 C   0  0  0  0  0  0  0  0  0  0  0  0
    2.7527   -8.0793   -5.4496 C   0  0  0  0  0  0  0  0  0  0  0  0
    2.2294   -9.3040   -5.0481 C   0  0  0  0  0  0  0  0  0  0  0  0
    2.4029   -9.6917   -3.7312 C   0  0  0  0  0  0  0  0  0  0  0  0
    3.0434   -8.9451   -2.8074 N   0  0  0  0  0  0  0  0  0  0  0  0
    4.3702   -1.1476   -1.0185 H   0  0  0  0  0  0  0  0  0  0  0  0
    4.4517    0.1368   -3.0710 H   0  0  0  0  0  0  0  0  0  0  0  0
    3.2015    2.2738   -3.2705 H   0  0  0  0  0  0  0  0  0  0  0  0
    1.9679    3.1518   -1.3434 H   0  0  0  0  0  0  0  0  0  0  0  0
    2.4913    1.0420    2.5684 H   0  0  0  0  0  0  0  0  0  0  0  0
    1.1211    1.8911    4.3157 H   0  0  0  0  0  0  0  0  0  0  0  0
    2.1507    3.2483    3.8494 H   0  0  0  0  0  0  0  0  0  0  0  0
    0.4786    3.1416    3.2213 H   0  0  0  0  0  0  0  0  0  0  0  0
    1.6182   -3.1854    0.4680 H   0  0  0  0  0  0  0  0  0  0  0  0
    6.4133   -4.3562    1.2461 H   0  0  0  0  0  0  0  0  0  0  0  0
    5.5547   -2.1037    1.8553 H   0  0  0  0  0  0  0  0  0  0  0  0
    2.1854   -5.6846    2.2266 H   0  0  0  0  0  0  0  0  0  0  0  0
    4.0017   -8.3083   -0.6232 H   0  0  0  0  0  0  0  0  0  0  0  0
    4.2951   -5.8415   -2.4191 H   0  0  0  0  0  0  0  0  0  0  0  0
    3.7880   -6.3132   -4.7926 H   0  0  0  0  0  0  0  0  0  0  0  0
    2.6278   -7.7363   -6.4669 H   0  0  0  0  0  0  0  0  0  0  0  0
    1.6776   -9.9302   -5.7413 H   0  0  0  0  0  0  0  0  0  0  0  0
    2.0023  -10.6365   -3.3738 H   0  0  0  0  0  0  0  0  0  0  0  0
  1  2  2  0  0  0  0
  1 11  1  0  0  0  0
  2  3  1  0  0  0  0
  2 29  1  0  0  0  0
  3  4  2  0  0  0  0
  3 30  1  0  0  0  0
  4  5  1  0  0  0  0
  4 31  1  0  0  0  0
  5  6  2  0  0  0  0
  5 32  1  0  0  0  0
  6  1  1  0  0  0  0
  6  7  1  0  0  0  0
  7  8  2  0  0  0  0
  7  9  1  0  0  0  0
  9 10  1  0  0  0  0
  9 33  1  0  0  0  0
 10 34  1  0  0  0  0
 10 35  1  0  0  0  0
 10 36  1  0  0  0  0
 11 12  1  0  0  0  0
 12 13  2  0  0  0  0
 13 14  1  0  0  0  0
 13 37  1  0  0  0  0
 14 15  2  0  0  0  0
 14 18  1  0  0  0  0
 15 16  1  0  0  0  0
 16 17  2  0  0  0  0
 16 38  1  0  0  0  0
 17 12  1  0  0  0  0
 17 39  1  0  0  0  0
 18 19  1  0  0  0  0
 18 40  1  0  0  0  0
 19 20  2  0  0  0  0
 20 15  1  0  0  0  0
 20 21  1  0  0  0  0
 21 22  2  0  0  0  0
 21 41  1  0  0  0  0
 22 23  1  0  0  0  0
 22 42  1  0  0  0  0
 23 24  2  0  0  0  0
 24 25  1  0  0  0  0
 24 43  1  0  0  0  0
 25 26  2  0  0  0  0
 25 44  1  0  0  0  0
 26 27  1  0  0  0  0
 26 45  1  0  0  0  0
 27 28  2  0  0  0  0
 27 46  1  0  0  0  0
 28 23  1  0  0  0  0
M  END
>  <Mol_ID>
4

>  <Formula>
C22H18N4OS

>  <MolWeight>
386.46952

>  <Cat>
S1005

>  <Name>
Axitinib (AG 013736)

>  <Synonyms>
AG 013736

>  <Target>
c-Kit,PDGFR,VEGFR

>  <Form>
free base

>  <CAS>
319460-85-0

>  <URL>
http://selleckchem.com/products/Axitinib.html

$$$$
