untitled.cdx
 OpenBabel08302521393D

 47 51  0  0  0  0  0  0  0  0999 V2000
   -2.3619    1.2453   -0.0769 C   0  0  0  0  0  0  0  0  0  0  0  0
   -2.4964   -0.1297   -0.2163 C   0  0  0  0  0  0  0  0  0  0  0  0
   -1.3581   -0.9221   -0.3539 C   0  0  0  0  0  0  0  0  0  0  0  0
   -0.0899   -0.3652   -0.3087 C   0  0  0  0  0  0  0  0  0  0  0  0
    0.0528    1.0365   -0.1895 C   0  0  0  0  0  0  0  0  0  0  0  0
   -1.0910    1.8200   -0.0908 C   0  0  0  0  0  0  0  0  0  0  0  0
    0.9722   -1.1813   -0.2849 N   0  0  0  0  0  0  0  0  0  0  0  0
    2.1585   -0.5854   -0.0547 C   0  0  0  0  0  0  0  0  0  0  0  0
    2.3498    0.8048   -0.0079 C   0  0  0  0  0  0  0  0  0  0  0  0
    1.2665    1.6120   -0.1021 N   0  0  0  0  0  0  0  0  0  0  0  0
    3.6243    1.3616    0.2352 N   0  0  0  0  0  0  0  0  0  0  0  0
    3.0962   -1.5442    0.3930 N   0  0  0  0  0  0  0  0  0  0  0  0
    3.8990    2.6853    0.6579 C   0  0  0  0  0  0  0  0  0  0  0  0
    5.0138    3.3703    0.1285 C   0  0  0  0  0  0  0  0  0  0  0  0
    5.1842    4.7175    0.5405 C   0  0  0  0  0  0  0  0  0  0  0  0
    4.2292    5.3558    1.5113 C   0  0  0  0  0  0  0  0  0  0  0  0
    3.1440    4.6344    2.0456 C   0  0  0  0  0  0  0  0  0  0  0  0
    3.0204    3.3115    1.5908 C   0  0  0  0  0  0  0  0  0  0  0  0
    6.1572    5.5521    0.1353 N   0  0  0  0  0  0  0  0  0  0  0  0
    5.8804    7.0030    0.9000 S   0  0  0  0  0  0  0  0  0  0  0  0
    4.5258    6.6367    1.7883 N   0  0  0  0  0  0  0  0  0  0  0  0
    3.3039   -1.6312    2.0744 S   0  0  0  0  0  0  0  0  0  0  0  0
    3.4630   -3.0384    2.3753 O   0  0  0  0  0  0  0  0  0  0  0  0
    4.3406   -0.6841    2.4330 O   0  0  0  0  0  0  0  0  0  0  0  0
    1.7841   -1.1063    2.8612 C   0  0  0  0  0  0  0  0  0  0  0  0
    0.6003   -1.8370    2.7015 C   0  0  0  0  0  0  0  0  0  0  0  0
   -0.5985   -1.3397    3.2334 C   0  0  0  0  0  0  0  0  0  0  0  0
   -0.6100   -0.1405    3.9573 C   0  0  0  0  0  0  0  0  0  0  0  0
    0.5972    0.5309    4.1876 C   0  0  0  0  0  0  0  0  0  0  0  0
    1.7904    0.0497    3.6455 C   0  0  0  0  0  0  0  0  0  0  0  0
   -1.8948    0.4779    4.4374 C   0  0  0  0  0  0  0  0  0  0  0  0
   -3.2406    1.8704    0.0561 H   0  0  0  0  0  0  0  0  0  0  0  0
   -3.4794   -0.5927   -0.1939 H   0  0  0  0  0  0  0  0  0  0  0  0
   -1.4598   -2.0017   -0.4375 H   0  0  0  0  0  0  0  0  0  0  0  0
   -0.9839    2.8958    0.0254 H   0  0  0  0  0  0  0  0  0  0  0  0
    4.3599    0.9087   -0.2969 H   0  0  0  0  0  0  0  0  0  0  0  0
    2.8544   -2.4714    0.0478 H   0  0  0  0  0  0  0  0  0  0  0  0
    5.7010    2.9232   -0.5788 H   0  0  0  0  0  0  0  0  0  0  0  0
    2.4450    5.0683    2.7482 H   0  0  0  0  0  0  0  0  0  0  0  0
    2.1874    2.7304    1.9873 H   0  0  0  0  0  0  0  0  0  0  0  0
    0.5872   -2.7564    2.1221 H   0  0  0  0  0  0  0  0  0  0  0  0
   -1.5261   -1.8801    3.0547 H   0  0  0  0  0  0  0  0  0  0  0  0
    0.6119    1.4458    4.7769 H   0  0  0  0  0  0  0  0  0  0  0  0
    2.7142    0.5931    3.8297 H   0  0  0  0  0  0  0  0  0  0  0  0
   -1.8005    0.8096    5.4769 H   0  0  0  0  0  0  0  0  0  0  0  0
   -2.1403    1.3443    3.8127 H   0  0  0  0  0  0  0  0  0  0  0  0
   -2.7305   -0.2271    4.3866 H   0  0  0  0  0  0  0  0  0  0  0  0
  1  2  2  0  0  0  0
  1 32  1  0  0  0  0
  2  3  1  0  0  0  0
  2 33  1  0  0  0  0
  3  4  2  0  0  0  0
  3 34  1  0  0  0  0
  4  5  1  0  0  0  0
  4  7  1  0  0  0  0
  5  6  2  0  0  0  0
  6  1  1  0  0  0  0
  6 35  1  0  0  0  0
  7  8  2  0  0  0  0
  8  9  1  0  0  0  0
  8 12  1  0  0  0  0
  9 10  2  0  0  0  0
  9 11  1  0  0  0  0
 10  5  1  0  0  0  0
 11 13  1  0  0  0  0
 11 36  1  0  0  0  0
 12 22  1  0  0  0  0
 12 37  1  0  0  0  0
 13 14  2  0  0  0  0
 14 15  1  0  0  0  0
 14 38  1  0  0  0  0
 15 16  1  0  0  0  0
 15 19  2  0  0  0  0
 16 17  1  0  0  0  0
 17 18  2  0  0  0  0
 17 39  1  0  0  0  0
 18 13  1  0  0  0  0
 18 40  1  0  0  0  0
 19 20  1  0  0  0  0
 20 21  1  0  0  0  0
 21 16  2  0  0  0  0
 22 23  2  0  0  0  0
 22 24  2  0  0  0  0
 22 25  1  0  0  0  0
 25 26  2  0  0  0  0
 26 27  1  0  0  0  0
 26 41  1  0  0  0  0
 27 28  2  0  0  0  0
 27 42  1  0  0  0  0
 28 29  1  0  0  0  0
 28 31  1  0  0  0  0
 29 30  2  0  0  0  0
 29 43  1  0  0  0  0
 30 25  1  0  0  0  0
 30 44  1  0  0  0  0
 31 45  1  0  0  0  0
 31 46  1  0  0  0  0
 31 47  1  0  0  0  0
M  END
>  <Mol_ID>
8210

>  <Formula>
C21H16N6O2S2

>  <MolWeight>
448.52074

>  <Cat>
S1118

>  <Name>
XL147 analogue

>  <Synonyms>
SAR245408

>  <Target>
Apoptosis related,PI3K

>  <Form>
Free Base

>  <CAS>
956958-53-5

>  <URL>
http://selleckchem.com/products/XL147.html

$$$$
