untitled.cdx
 OpenBabel08302519503D

 54 57  0  0  0  0  0  0  0  0999 V2000
   -3.3179    3.6020   -0.5881 C   0  0  0  0  0  0  0  0  0  0  0  0
   -4.1694    3.7128   -1.7032 C   0  0  0  0  0  0  0  0  0  0  0  0
   -4.7182    2.5355   -2.2287 C   0  0  0  0  0  0  0  0  0  0  0  0
   -4.4147    1.3009   -1.6319 C   0  0  0  0  0  0  0  0  0  0  0  0
   -3.5877    1.1912   -0.5135 C   0  0  0  0  0  0  0  0  0  0  0  0
   -3.0250    2.3632   -0.0094 C   0  0  0  0  0  0  0  0  0  0  0  0
   -4.4201    5.0671   -2.2913 C   0  0  0  0  0  0  0  0  0  0  0  0
   -5.7581    2.4910   -3.6754 S   0  0  0  0  0  0  0  0  0  0  0  0
   -6.3414    1.1600   -3.7968 O   0  0  0  0  0  0  0  0  0  0  0  0
   -7.0540    3.4719   -3.2481 N   0  0  0  0  0  0  0  0  0  0  0  0
   -5.1066    3.1317   -4.7802 O   0  0  0  0  0  0  0  0  0  0  0  0
   -3.2590   -0.0386    0.0727 N   0  0  0  0  0  0  0  0  0  0  0  0
   -4.0122   -1.2127    0.0222 C   0  0  0  0  0  0  0  0  0  0  0  0
   -4.8466   -1.4313   -0.9900 N   0  0  0  0  0  0  0  0  0  0  0  0
   -5.4837   -2.5913   -1.0431 C   0  0  0  0  0  0  0  0  0  0  0  0
   -5.3405   -3.5577   -0.0831 C   0  0  0  0  0  0  0  0  0  0  0  0
   -4.5079   -3.2660    0.9819 C   0  0  0  0  0  0  0  0  0  0  0  0
   -3.8464   -2.0862    1.0155 N   0  0  0  0  0  0  0  0  0  0  0  0
   -4.2988   -4.1641    2.0497 N   0  0  0  0  0  0  0  0  0  0  0  0
   -3.9750   -3.7848    3.3859 C   0  0  0  0  0  0  0  0  0  0  0  0
   -4.5345   -5.5878    1.8409 C   0  0  0  0  0  0  0  0  0  0  0  0
   -4.5157   -2.5508    3.9038 C   0  0  0  0  0  0  0  0  0  0  0  0
   -4.2837   -2.0470    5.1983 C   0  0  0  0  0  0  0  0  0  0  0  0
   -2.8855   -4.1315    5.4809 C   0  0  0  0  0  0  0  0  0  0  0  0
   -3.1360   -4.6109    4.1846 C   0  0  0  0  0  0  0  0  0  0  0  0
   -3.0251   -2.6724    7.2126 C   0  0  0  0  0  0  0  0  0  0  0  0
   -2.2266   -3.7582    7.4817 N   0  0  0  0  0  0  0  0  0  0  0  0
   -2.1431   -4.6538    6.4715 N   0  0  0  0  0  0  0  0  0  0  0  0
   -3.4579   -2.8873    5.9263 C   0  0  0  0  0  0  0  0  0  0  0  0
   -1.4982   -4.0329    8.7002 C   0  0  0  0  0  0  0  0  0  0  0  0
   -3.2773   -1.5771    8.1800 C   0  0  0  0  0  0  0  0  0  0  0  0
   -2.8479    4.4912   -0.1699 H   0  0  0  0  0  0  0  0  0  0  0  0
   -4.8367    0.4131   -2.0918 H   0  0  0  0  0  0  0  0  0  0  0  0
   -2.3456    2.3233    0.8388 H   0  0  0  0  0  0  0  0  0  0  0  0
   -4.0879    5.0995   -3.3325 H   0  0  0  0  0  0  0  0  0  0  0  0
   -5.4797    5.3242   -2.2199 H   0  0  0  0  0  0  0  0  0  0  0  0
   -3.8656    5.8455   -1.7545 H   0  0  0  0  0  0  0  0  0  0  0  0
   -7.4932    3.7929   -4.1164 H   0  0  0  0  0  0  0  0  0  0  0  0
   -7.7030    2.9723   -2.6482 H   0  0  0  0  0  0  0  0  0  0  0  0
   -2.7841    0.0074    0.9627 H   0  0  0  0  0  0  0  0  0  0  0  0
   -6.0991   -2.7427   -1.9218 H   0  0  0  0  0  0  0  0  0  0  0  0
   -5.8777   -4.4851   -0.1870 H   0  0  0  0  0  0  0  0  0  0  0  0
   -5.5607   -5.7648    1.5132 H   0  0  0  0  0  0  0  0  0  0  0  0
   -3.8375   -6.0004    1.1063 H   0  0  0  0  0  0  0  0  0  0  0  0
   -4.4238   -6.1836    2.7581 H   0  0  0  0  0  0  0  0  0  0  0  0
   -5.1528   -1.9531    3.2497 H   0  0  0  0  0  0  0  0  0  0  0  0
   -4.7020   -1.1111    5.5433 H   0  0  0  0  0  0  0  0  0  0  0  0
   -2.6865   -5.5238    3.8240 H   0  0  0  0  0  0  0  0  0  0  0  0
   -1.8472   -4.9871    9.1018 H   0  0  0  0  0  0  0  0  0  0  0  0
   -0.4323   -4.0788    8.4637 H   0  0  0  0  0  0  0  0  0  0  0  0
   -1.6747   -3.2434    9.4337 H   0  0  0  0  0  0  0  0  0  0  0  0
   -3.7539   -1.9667    9.0855 H   0  0  0  0  0  0  0  0  0  0  0  0
   -2.3402   -1.0855    8.4607 H   0  0  0  0  0  0  0  0  0  0  0  0
   -3.9386   -0.8117    7.7643 H   0  0  0  0  0  0  0  0  0  0  0  0
  1  2  2  0  0  0  0
  1 32  1  0  0  0  0
  2  3  1  0  0  0  0
  2  7  1  0  0  0  0
  3  4  2  0  0  0  0
  3  8  1  0  0  0  0
  4  5  1  0  0  0  0
  4 33  1  0  0  0  0
  5  6  2  0  0  0  0
  5 12  1  0  0  0  0
  6  1  1  0  0  0  0
  6 34  1  0  0  0  0
  7 35  1  0  0  0  0
  7 36  1  0  0  0  0
  7 37  1  0  0  0  0
  8  9  2  0  0  0  0
  8 10  1  0  0  0  0
  8 11  2  0  0  0  0
 10 38  1  0  0  0  0
 10 39  1  0  0  0  0
 12 13  1  0  0  0  0
 12 40  1  0  0  0  0
 13 14  2  0  0  0  0
 14 15  1  0  0  0  0
 15 16  2  0  0  0  0
 15 41  1  0  0  0  0
 16 17  1  0  0  0  0
 16 42  1  0  0  0  0
 17 18  2  0  0  0  0
 17 19  1  0  0  0  0
 18 13  1  0  0  0  0
 19 20  1  0  0  0  0
 19 21  1  0  0  0  0
 20 22  1  0  0  0  0
 21 43  1  0  0  0  0
 21 44  1  0  0  0  0
 21 45  1  0  0  0  0
 22 23  2  0  0  0  0
 22 46  1  0  0  0  0
 23 29  1  0  0  0  0
 23 47  1  0  0  0  0
 24 25  1  0  0  0  0
 24 29  1  0  0  0  0
 25 20  2  0  0  0  0
 25 48  1  0  0  0  0
 26 27  1  0  0  0  0
 26 31  1  0  0  0  0
 27 28  1  0  0  0  0
 27 30  1  0  0  0  0
 28 24  2  0  0  0  0
 29 26  2  0  0  0  0
 30 49  1  0  0  0  0
 30 50  1  0  0  0  0
 30 51  1  0  0  0  0
 31 52  1  0  0  0  0
 31 53  1  0  0  0  0
 31 54  1  0  0  0  0
M  END
>  <Mol_ID>
21

>  <Formula>
C21H24ClN7O2S

>  <MolWeight>
473.97896

>  <Cat>
S1035

>  <Name>
Pazopanib HCl (GW786034 HCl)

>  <Synonyms>
GW786034 HCl

>  <Target>
Autophagy,c-Kit,CSF-1R,FGFR,PDGFR,VEGFR

>  <Form>
Hydrochloride

>  <CAS>
635702-64-6

>  <URL>
http://selleckchem.com/products/Pazopanib-Hydrochloride.html

$$$$
