untitled.cdx
 OpenBabel08302521343D

 41 45  0  0  0  0  0  0  0  0999 V2000
    7.3084   -3.4036   -3.9592 N   0  0  0  0  0  0  0  0  0  0  0  0
    8.5769   -2.9358   -3.9706 C   0  0  0  0  0  0  0  0  0  0  0  0
    9.0562   -1.9831   -3.0921 C   0  0  0  0  0  0  0  0  0  0  0  0
    8.1805   -1.4763   -2.1407 C   0  0  0  0  0  0  0  0  0  0  0  0
    6.8615   -1.9451   -2.0898 C   0  0  0  0  0  0  0  0  0  0  0  0
    6.4662   -2.9191   -3.0299 C   0  0  0  0  0  0  0  0  0  0  0  0
    5.9517   -1.4768   -1.1260 C   0  0  0  0  0  0  0  0  0  0  0  0
    4.6416   -1.9774   -1.0665 C   0  0  0  0  0  0  0  0  0  0  0  0
    4.2530   -2.9400   -2.0046 C   0  0  0  0  0  0  0  0  0  0  0  0
    5.1606   -3.3905   -2.9716 C   0  0  0  0  0  0  0  0  0  0  0  0
    3.6837   -1.4918    0.0121 C   0  0  0  0  0  0  0  0  0  0  0  0
    3.8293   -2.2791    1.2684 C   0  0  0  0  0  0  0  0  0  0  0  0
    3.9110   -0.1671    0.2908 F   0  0  0  0  0  0  0  0  0  0  0  0
    2.3877   -1.5047   -0.4298 F   0  0  0  0  0  0  0  0  0  0  0  0
    3.0292   -3.3495    1.5815 N   0  0  0  0  0  0  0  0  0  0  0  0
    3.4221   -3.7339    2.8492 C   0  0  0  0  0  0  0  0  0  0  0  0
    4.4312   -2.9919    3.2470 N   0  0  0  0  0  0  0  0  0  0  0  0
    4.6909   -2.0781    2.2548 N   0  0  0  0  0  0  0  0  0  0  0  0
    2.0351   -3.9091    0.8284 N   0  0  0  0  0  0  0  0  0  0  0  0
    1.4022   -4.8606    1.4443 C   0  0  0  0  0  0  0  0  0  0  0  0
    1.7038   -5.3668    2.8136 C   0  0  0  0  0  0  0  0  0  0  0  0
    2.7153   -4.7829    3.4681 C   0  0  0  0  0  0  0  0  0  0  0  0
    0.2922   -5.4935    0.7584 C   0  0  0  0  0  0  0  0  0  0  0  0
   -0.1455   -5.2563   -0.5693 C   0  0  0  0  0  0  0  0  0  0  0  0
   -1.2068   -5.9923   -0.9115 N   0  0  0  0  0  0  0  0  0  0  0  0
   -1.4710   -6.6972    0.1988 N   0  0  0  0  0  0  0  0  0  0  0  0
   -0.6059   -6.4381    1.2233 C   0  0  0  0  0  0  0  0  0  0  0  0
   -2.5792   -7.6209    0.2124 C   0  0  0  0  0  0  0  0  0  0  0  0
    9.2203   -3.3676   -4.7317 H   0  0  0  0  0  0  0  0  0  0  0  0
   10.0858   -1.6478   -3.1417 H   0  0  0  0  0  0  0  0  0  0  0  0
    8.5313   -0.7263   -1.4364 H   0  0  0  0  0  0  0  0  0  0  0  0
    6.2663   -0.7208   -0.4060 H   0  0  0  0  0  0  0  0  0  0  0  0
    3.2425   -3.3463   -1.9941 H   0  0  0  0  0  0  0  0  0  0  0  0
    4.8434   -4.1366   -3.6968 H   0  0  0  0  0  0  0  0  0  0  0  0
    1.1336   -6.1711    3.2556 H   0  0  0  0  0  0  0  0  0  0  0  0
    2.9975   -5.0876    4.4708 H   0  0  0  0  0  0  0  0  0  0  0  0
    0.2723   -4.5719   -1.2987 H   0  0  0  0  0  0  0  0  0  0  0  0
   -0.7171   -6.9372    2.1750 H   0  0  0  0  0  0  0  0  0  0  0  0
   -3.4776   -7.0940   -0.1186 H   0  0  0  0  0  0  0  0  0  0  0  0
   -2.3436   -8.4467   -0.4632 H   0  0  0  0  0  0  0  0  0  0  0  0
   -2.7240   -7.9977    1.2285 H   0  0  0  0  0  0  0  0  0  0  0  0
  1  2  2  0  0  0  0
  2  3  1  0  0  0  0
  2 29  1  0  0  0  0
  3  4  2  0  0  0  0
  3 30  1  0  0  0  0
  4  5  1  0  0  0  0
  4 31  1  0  0  0  0
  5  6  2  0  0  0  0
  5  7  1  0  0  0  0
  6  1  1  0  0  0  0
  7  8  2  0  0  0  0
  7 32  1  0  0  0  0
  8  9  1  0  0  0  0
  8 11  1  0  0  0  0
  9 10  2  0  0  0  0
  9 33  1  0  0  0  0
 10  6  1  0  0  0  0
 10 34  1  0  0  0  0
 11 12  1  0  0  0  0
 11 13  1  0  0  0  0
 11 14  1  0  0  0  0
 12 15  1  0  0  0  0
 15 16  1  0  0  0  0
 15 19  1  0  0  0  0
 16 17  2  0  0  0  0
 17 18  1  0  0  0  0
 18 12  2  0  0  0  0
 19 20  2  0  0  0  0
 20 21  1  0  0  0  0
 20 23  1  0  0  0  0
 21 22  2  0  0  0  0
 21 35  1  0  0  0  0
 22 16  1  0  0  0  0
 22 36  1  0  0  0  0
 23 24  1  0  0  0  0
 24 25  2  0  0  0  0
 24 37  1  0  0  0  0
 25 26  1  0  0  0  0
 26 27  1  0  0  0  0
 26 28  1  0  0  0  0
 27 23  2  0  0  0  0
 27 38  1  0  0  0  0
 28 39  1  0  0  0  0
 28 40  1  0  0  0  0
 28 41  1  0  0  0  0
M  END
>  <Mol_ID>
71

>  <Formula>
C19H13F2N7

>  <MolWeight>
377.3502264

>  <Cat>
S1114

>  <Name>
JNJ-38877605

>  <Synonyms>
N/A

>  <Target>
c-Met

>  <Form>
free base

>  <CAS>
943540-75-8

>  <URL>
http://selleckchem.com/products/JNJ-38877605.html

$$$$
