untitled.cdx
 OpenBabel08302521313D

 40 43  0  0  0  0  0  0  0  0999 V2000
    2.3477    1.1478    0.0504 C   0  0  0  0  0  0  0  0  0  0  0  0
    2.7169   -0.2017    0.0727 C   0  0  0  0  0  0  0  0  0  0  0  0
    1.7620   -1.2433    0.0203 C   0  0  0  0  0  0  0  0  0  0  0  0
    0.4019   -0.8596   -0.0440 C   0  0  0  0  0  0  0  0  0  0  0  0
    0.0409    0.4901   -0.0412 C   0  0  0  0  0  0  0  0  0  0  0  0
    1.0054    1.4970   -0.0015 C   0  0  0  0  0  0  0  0  0  0  0  0
   -0.5517   -1.8470   -0.1477 O   0  0  0  0  0  0  0  0  0  0  0  0
   -1.9046   -1.5373   -0.0833 C   0  0  0  0  0  0  0  0  0  0  0  0
   -2.3384   -0.2672   -0.0680 C   0  0  0  0  0  0  0  0  0  0  0  0
   -1.3836    0.8421   -0.0832 C   0  0  0  0  0  0  0  0  0  0  0  0
    2.2090   -2.6649    0.0098 C   0  0  0  0  0  0  0  0  0  0  0  0
    1.4995   -3.6799    0.6800 C   0  0  0  0  0  0  0  0  0  0  0  0
    1.8921   -5.0212    0.6117 C   0  0  0  0  0  0  0  0  0  0  0  0
    3.0341   -5.3776   -0.0958 C   0  0  0  0  0  0  0  0  0  0  0  0
    3.7814   -4.3938   -0.7335 C   0  0  0  0  0  0  0  0  0  0  0  0
    3.3678   -3.0577   -0.6878 C   0  0  0  0  0  0  0  0  0  0  0  0
   -1.7717    2.0035   -0.1128 O   0  0  0  0  0  0  0  0  0  0  0  0
   -2.7614   -2.6328   -0.0764 N   0  0  0  0  0  0  0  0  0  0  0  0
   -2.3471   -3.9782   -0.5230 C   0  0  0  0  0  0  0  0  0  0  0  0
   -3.4708   -4.5954   -1.3753 C   0  0  0  0  0  0  0  0  0  0  0  0
   -4.7239   -4.6311   -0.6689 O   0  0  0  0  0  0  0  0  0  0  0  0
   -5.1135   -3.3052   -0.2721 C   0  0  0  0  0  0  0  0  0  0  0  0
   -4.0540   -2.6683    0.6350 C   0  0  0  0  0  0  0  0  0  0  0  0
    3.1102    1.9228    0.0743 H   0  0  0  0  0  0  0  0  0  0  0  0
    3.7792   -0.4330    0.1336 H   0  0  0  0  0  0  0  0  0  0  0  0
    0.7107    2.5439   -0.0119 H   0  0  0  0  0  0  0  0  0  0  0  0
   -3.3842    0.0049   -0.0788 H   0  0  0  0  0  0  0  0  0  0  0  0
    0.6150   -3.4420    1.2674 H   0  0  0  0  0  0  0  0  0  0  0  0
    1.3018   -5.7834    1.1137 H   0  0  0  0  0  0  0  0  0  0  0  0
    3.3423   -6.4182   -0.1480 H   0  0  0  0  0  0  0  0  0  0  0  0
    4.6825   -4.6629   -1.2783 H   0  0  0  0  0  0  0  0  0  0  0  0
    3.9643   -2.3239   -1.2258 H   0  0  0  0  0  0  0  0  0  0  0  0
   -2.1583   -4.6014    0.3592 H   0  0  0  0  0  0  0  0  0  0  0  0
   -1.4302   -3.9469   -1.1214 H   0  0  0  0  0  0  0  0  0  0  0  0
   -3.6076   -4.0301   -2.3054 H   0  0  0  0  0  0  0  0  0  0  0  0
   -3.2135   -5.6243   -1.6441 H   0  0  0  0  0  0  0  0  0  0  0  0
   -6.0647   -3.3832    0.2631 H   0  0  0  0  0  0  0  0  0  0  0  0
   -5.2794   -2.6959   -1.1689 H   0  0  0  0  0  0  0  0  0  0  0  0
   -3.9305   -3.2753    1.5410 H   0  0  0  0  0  0  0  0  0  0  0  0
   -4.3886   -1.6766    0.9539 H   0  0  0  0  0  0  0  0  0  0  0  0
  1  2  2  0  0  0  0
  1 24  1  0  0  0  0
  2  3  1  0  0  0  0
  2 25  1  0  0  0  0
  3  4  2  0  0  0  0
  3 11  1  0  0  0  0
  4  5  1  0  0  0  0
  4  7  1  0  0  0  0
  5  6  2  0  0  0  0
  6  1  1  0  0  0  0
  6 26  1  0  0  0  0
  7  8  1  0  0  0  0
  8  9  2  0  0  0  0
  8 18  1  0  0  0  0
  9 10  1  0  0  0  0
  9 27  1  0  0  0  0
 10  5  1  0  0  0  0
 10 17  2  0  0  0  0
 11 12  2  0  0  0  0
 12 13  1  0  0  0  0
 12 28  1  0  0  0  0
 13 14  2  0  0  0  0
 13 29  1  0  0  0  0
 14 15  1  0  0  0  0
 14 30  1  0  0  0  0
 15 16  2  0  0  0  0
 15 31  1  0  0  0  0
 16 11  1  0  0  0  0
 16 32  1  0  0  0  0
 18 19  1  0  0  0  0
 19 20  1  0  0  0  0
 19 33  1  0  0  0  0
 19 34  1  0  0  0  0
 20 21  1  0  0  0  0
 20 35  1  0  0  0  0
 20 36  1  0  0  0  0
 21 22  1  0  0  0  0
 22 23  1  0  0  0  0
 22 37  1  0  0  0  0
 22 38  1  0  0  0  0
 23 18  1  0  0  0  0
 23 39  1  0  0  0  0
 23 40  1  0  0  0  0
M  END
>  <Mol_ID>
65

>  <Formula>
C19H17NO3

>  <MolWeight>
307.34318

>  <Cat>
S1105

>  <Name>
LY294002

>  <Synonyms>
SF 1101, NSC 697286

>  <Target>
Apoptosis related,Autophagy,Casein Kinase,DNA-PK,PI3K

>  <Form>
free base

>  <CAS>
154447-36-6

>  <URL>
http://selleckchem.com/products/LY294002.html

$$$$
