untitled.cdx
 OpenBabel08302519513D

 57 61  0  0  0  0  0  0  0  0999 V2000
   -6.7352    0.2858    1.5164 C   0  0  0  0  0  0  0  0  0  0  0  0
   -6.0575   -0.6791    0.7678 C   0  0  0  0  0  0  0  0  0  0  0  0
   -5.1032   -0.2353   -0.1745 C   0  0  0  0  0  0  0  0  0  0  0  0
   -4.8559    1.1342   -0.3246 C   0  0  0  0  0  0  0  0  0  0  0  0
   -5.5363    2.0664    0.4529 C   0  0  0  0  0  0  0  0  0  0  0  0
   -6.4915    1.6597    1.3882 C   0  0  0  0  0  0  0  0  0  0  0  0
   -7.6152   -0.3802    2.3339 N   0  0  0  0  0  0  0  0  0  0  0  0
   -7.4979   -1.7332    2.1594 C   0  0  0  0  0  0  0  0  0  0  0  0
   -6.5194   -1.9684    1.2081 C   0  0  0  0  0  0  0  0  0  0  0  0
   -6.0628   -3.3024    0.8137 C   0  0  0  0  0  0  0  0  0  0  0  0
   -6.2109   -4.3957    1.6373 C   0  0  0  0  0  0  0  0  0  0  0  0
   -5.6162   -5.5544    1.2026 C   0  0  0  0  0  0  0  0  0  0  0  0
   -4.9178   -5.6492    0.0583 N   0  0  0  0  0  0  0  0  0  0  0  0
   -4.8798   -4.5573   -0.7171 C   0  0  0  0  0  0  0  0  0  0  0  0
   -5.4249   -3.3845   -0.3685 N   0  0  0  0  0  0  0  0  0  0  0  0
   -4.1685   -4.6642   -1.9255 N   0  0  0  0  0  0  0  0  0  0  0  0
   -4.4019   -3.8710   -3.0673 C   0  0  0  0  0  0  0  0  0  0  0  0
   -3.3997   -3.3684   -3.9094 C   0  0  0  0  0  0  0  0  0  0  0  0
   -3.7508   -2.5345   -4.9960 C   0  0  0  0  0  0  0  0  0  0  0  0
   -5.0784   -2.2020   -5.3059 C   0  0  0  0  0  0  0  0  0  0  0  0
   -6.0610   -2.7867   -4.5046 C   0  0  0  0  0  0  0  0  0  0  0  0
   -5.7337   -3.6022   -3.4224 C   0  0  0  0  0  0  0  0  0  0  0  0
   -2.0431   -3.4805   -3.7260 O   0  0  0  0  0  0  0  0  0  0  0  0
   -1.5227   -4.7671   -3.4183 C   0  0  0  0  0  0  0  0  0  0  0  0
   -5.4348   -1.3696   -6.3526 N   0  0  0  0  0  0  0  0  0  0  0  0
   -6.5636   -0.4406   -6.2323 C   0  0  0  0  0  0  0  0  0  0  0  0
   -7.4741   -0.6076   -7.4471 C   0  0  0  0  0  0  0  0  0  0  0  0
   -6.6707   -0.4163   -8.7396 C   0  0  0  0  0  0  0  0  0  0  0  0
   -5.4560   -1.3524   -8.7747 C   0  0  0  0  0  0  0  0  0  0  0  0
   -4.5893   -1.1746   -7.5273 C   0  0  0  0  0  0  0  0  0  0  0  0
   -7.5351   -0.6399   -9.9023 N   0  0  0  0  0  0  0  0  0  0  0  0
   -4.5625   -0.9517   -0.7879 H   0  0  0  0  0  0  0  0  0  0  0  0
   -4.1222    1.4666   -1.0548 H   0  0  0  0  0  0  0  0  0  0  0  0
   -5.3240    3.1258    0.3292 H   0  0  0  0  0  0  0  0  0  0  0  0
   -7.0203    2.3894    1.9924 H   0  0  0  0  0  0  0  0  0  0  0  0
   -8.2473    0.0735    2.9809 H   0  0  0  0  0  0  0  0  0  0  0  0
   -8.1201   -2.4034    2.7363 H   0  0  0  0  0  0  0  0  0  0  0  0
   -6.7241   -4.3570    2.5869 H   0  0  0  0  0  0  0  0  0  0  0  0
   -5.6738   -6.4677    1.7873 H   0  0  0  0  0  0  0  0  0  0  0  0
   -3.2021   -4.7397   -1.6584 H   0  0  0  0  0  0  0  0  0  0  0  0
   -2.9375   -2.1083   -5.5772 H   0  0  0  0  0  0  0  0  0  0  0  0
   -7.1148   -2.6338   -4.7151 H   0  0  0  0  0  0  0  0  0  0  0  0
   -6.5495   -4.0188   -2.8355 H   0  0  0  0  0  0  0  0  0  0  0  0
   -1.3702   -4.8524   -2.3386 H   0  0  0  0  0  0  0  0  0  0  0  0
   -2.1363   -5.5890   -3.7989 H   0  0  0  0  0  0  0  0  0  0  0  0
   -0.5298   -4.8452   -3.8745 H   0  0  0  0  0  0  0  0  0  0  0  0
   -7.1528   -0.5763   -5.3181 H   0  0  0  0  0  0  0  0  0  0  0  0
   -6.1830    0.5862   -6.1884 H   0  0  0  0  0  0  0  0  0  0  0  0
   -7.9288   -1.6078   -7.4247 H   0  0  0  0  0  0  0  0  0  0  0  0
   -8.2928    0.1205   -7.3952 H   0  0  0  0  0  0  0  0  0  0  0  0
   -6.3176    0.6204   -8.7813 H   0  0  0  0  0  0  0  0  0  0  0  0
   -5.7933   -2.3971   -8.8250 H   0  0  0  0  0  0  0  0  0  0  0  0
   -4.8526   -1.1644   -9.6698 H   0  0  0  0  0  0  0  0  0  0  0  0
   -4.1456   -0.1693   -7.5050 H   0  0  0  0  0  0  0  0  0  0  0  0
   -3.7676   -1.8947   -7.5856 H   0  0  0  0  0  0  0  0  0  0  0  0
   -6.9843   -0.5644  -10.7564 H   0  0  0  0  0  0  0  0  0  0  0  0
   -7.8870   -1.5977   -9.8824 H   0  0  0  0  0  0  0  0  0  0  0  0
  1  2  1  0  0  0  0
  1  7  1  0  0  0  0
  2  3  2  0  0  0  0
  3  4  1  0  0  0  0
  3 32  1  0  0  0  0
  4  5  2  0  0  0  0
  4 33  1  0  0  0  0
  5  6  1  0  0  0  0
  5 34  1  0  0  0  0
  6  1  2  0  0  0  0
  6 35  1  0  0  0  0
  7  8  1  0  0  0  0
  7 36  1  0  0  0  0
  8  9  2  0  0  0  0
  8 37  1  0  0  0  0
  9  2  1  0  0  0  0
  9 10  1  0  0  0  0
 10 11  2  0  0  0  0
 11 12  1  0  0  0  0
 11 38  1  0  0  0  0
 12 13  2  0  0  0  0
 12 39  1  0  0  0  0
 13 14  1  0  0  0  0
 14 15  2  0  0  0  0
 14 16  1  0  0  0  0
 15 10  1  0  0  0  0
 16 17  1  0  0  0  0
 16 40  1  0  0  0  0
 17 18  2  0  0  0  0
 18 19  1  0  0  0  0
 18 23  1  0  0  0  0
 19 20  2  0  0  0  0
 19 41  1  0  0  0  0
 20 21  1  0  0  0  0
 20 25  1  0  0  0  0
 21 22  2  0  0  0  0
 21 42  1  0  0  0  0
 22 17  1  0  0  0  0
 22 43  1  0  0  0  0
 23 24  1  0  0  0  0
 24 44  1  0  0  0  0
 24 45  1  0  0  0  0
 24 46  1  0  0  0  0
 25 26  1  0  0  0  0
 26 27  1  0  0  0  0
 26 47  1  0  0  0  0
 26 48  1  0  0  0  0
 27 28  1  0  0  0  0
 27 49  1  0  0  0  0
 27 50  1  0  0  0  0
 28 29  1  0  0  0  0
 28 31  1  0  0  0  0
 28 51  1  0  0  0  0
 29 30  1  0  0  0  0
 29 52  1  0  0  0  0
 29 53  1  0  0  0  0
 30 25  1  0  0  0  0
 30 54  1  0  0  0  0
 30 55  1  0  0  0  0
 31 56  1  0  0  0  0
 31 57  1  0  0  0  0
M  END
>  <Mol_ID>
1897

>  <Formula>
C24H25ClN6O

>  <MolWeight>
448.9479

>  <Cat>
S7106

>  <Name>
AZD3463

>  <Synonyms>
N/A

>  <Target>
ALK,Apoptosis related,Autophagy,IGF-1R

>  <Form>
free base

>  <CAS>
1356962-20-3

>  <URL>
http://selleckchem.com/products/azd3463.html

$$$$
