untitled.cdx
 OpenBabel08302521383D

 52 54  0  0  0  0  0  0  0  0999 V2000
   -0.8522   -1.4391    0.1272 N   0  0  0  0  0  0  0  0  0  0  0  0
    0.2631   -0.6960    0.0732 C   0  0  0  0  0  0  0  0  0  0  0  0
    0.3461    0.6842    0.0345 C   0  0  0  0  0  0  0  0  0  0  0  0
   -0.8729    1.3880    0.0354 C   0  0  0  0  0  0  0  0  0  0  0  0
   -2.0211    0.6515    0.0071 N   0  0  0  0  0  0  0  0  0  0  0  0
   -1.9700   -0.6999    0.0421 C   0  0  0  0  0  0  0  0  0  0  0  0
    1.5602   -1.1332    0.0355 N   0  0  0  0  0  0  0  0  0  0  0  0
    2.3641   -0.0236    0.0040 C   0  0  0  0  0  0  0  0  0  0  0  0
    1.6667    1.0900    0.0152 N   0  0  0  0  0  0  0  0  0  0  0  0
    2.0102   -2.5171    0.0190 C   0  0  0  0  0  0  0  0  0  0  0  0
    2.8266   -2.8317   -1.2369 C   0  0  0  0  0  0  0  0  0  0  0  0
    2.7978   -2.8513    1.2856 C   0  0  0  0  0  0  0  0  0  0  0  0
   -3.1338   -1.4453   -0.0726 N   0  0  0  0  0  0  0  0  0  0  0  0
   -4.3599   -0.7861   -0.5234 C   0  0  1  0  0  0  0  0  0  0  0  0
   -4.2210   -0.5465   -2.0504 C   0  0  0  0  0  0  0  0  0  0  0  0
   -3.8767   -1.7687   -2.7132 O   0  0  0  0  0  0  0  0  0  0  0  0
   -5.5774   -1.7058   -0.2754 C   0  0  0  0  0  0  0  0  0  0  0  0
   -5.9270   -1.8867    1.1962 C   0  0  0  0  0  0  0  0  0  0  0  0
   -1.0050    2.7722    0.0885 N   0  0  0  0  0  0  0  0  0  0  0  0
   -0.0482    3.6053   -0.6279 C   0  0  0  0  0  0  0  0  0  0  0  0
   -0.7142    4.4619   -1.6880 C   0  0  0  0  0  0  0  0  0  0  0  0
   -0.1780    5.7244   -1.9943 C   0  0  0  0  0  0  0  0  0  0  0  0
   -0.7332    6.5109   -3.0064 C   0  0  0  0  0  0  0  0  0  0  0  0
   -1.8274    6.0441   -3.7314 C   0  0  0  0  0  0  0  0  0  0  0  0
   -2.3548    4.7865   -3.4554 C   0  0  0  0  0  0  0  0  0  0  0  0
   -1.7951    3.9925   -2.4522 C   0  0  0  0  0  0  0  0  0  0  0  0
    3.4444   -0.0841   -0.0269 H   0  0  0  0  0  0  0  0  0  0  0  0
    1.1133   -3.1483    0.0003 H   0  0  0  0  0  0  0  0  0  0  0  0
    3.7444   -2.2351   -1.2850 H   0  0  0  0  0  0  0  0  0  0  0  0
    3.1153   -3.8879   -1.2580 H   0  0  0  0  0  0  0  0  0  0  0  0
    2.2473   -2.6217   -2.1428 H   0  0  0  0  0  0  0  0  0  0  0  0
    2.1952   -2.6585    2.1801 H   0  0  0  0  0  0  0  0  0  0  0  0
    3.0911   -3.9059    1.2950 H   0  0  0  0  0  0  0  0  0  0  0  0
    3.7094   -2.2483    1.3643 H   0  0  0  0  0  0  0  0  0  0  0  0
   -3.1898   -2.0883    0.7075 H   0  0  0  0  0  0  0  0  0  0  0  0
   -4.5310    0.1668   -0.0080 H   0  0  0  0  0  0  0  0  0  0  0  0
   -5.1526   -0.1733   -2.4854 H   0  0  0  0  0  0  0  0  0  0  0  0
   -3.4299    0.1756   -2.2736 H   0  0  0  0  0  0  0  0  0  0  0  0
   -3.1844   -2.1661   -2.1405 H   0  0  0  0  0  0  0  0  0  0  0  0
   -6.4540   -1.2744   -0.7753 H   0  0  0  0  0  0  0  0  0  0  0  0
   -5.4146   -2.6946   -0.7217 H   0  0  0  0  0  0  0  0  0  0  0  0
   -6.0890   -0.9211    1.6840 H   0  0  0  0  0  0  0  0  0  0  0  0
   -6.8496   -2.4705    1.2898 H   0  0  0  0  0  0  0  0  0  0  0  0
   -5.1403   -2.4228    1.7331 H   0  0  0  0  0  0  0  0  0  0  0  0
   -1.9738    3.0577    0.0315 H   0  0  0  0  0  0  0  0  0  0  0  0
    0.4291    4.2595    0.1124 H   0  0  0  0  0  0  0  0  0  0  0  0
    0.7480    3.0447   -1.1275 H   0  0  0  0  0  0  0  0  0  0  0  0
    0.6884    6.1002   -1.4526 H   0  0  0  0  0  0  0  0  0  0  0  0
   -0.3056    7.4839   -3.2363 H   0  0  0  0  0  0  0  0  0  0  0  0
   -2.2609    6.6554   -4.5170 H   0  0  0  0  0  0  0  0  0  0  0  0
   -3.2022    4.4141   -4.0271 H   0  0  0  0  0  0  0  0  0  0  0  0
   -2.2068    2.9999   -2.2766 H   0  0  0  0  0  0  0  0  0  0  0  0
  1  2  2  0  0  0  0
  2  3  1  0  0  0  0
  2  7  1  0  0  0  0
  3  4  2  0  0  0  0
  4  5  1  0  0  0  0
  4 19  1  0  0  0  0
  5  6  2  0  0  0  0
  6  1  1  0  0  0  0
  6 13  1  0  0  0  0
  7  8  1  0  0  0  0
  7 10  1  0  0  0  0
  8  9  2  0  0  0  0
  8 27  1  0  0  0  0
  9  3  1  0  0  0  0
 10 11  1  0  0  0  0
 10 12  1  0  0  0  0
 10 28  1  0  0  0  0
 11 29  1  0  0  0  0
 11 30  1  0  0  0  0
 11 31  1  0  0  0  0
 12 32  1  0  0  0  0
 12 33  1  0  0  0  0
 12 34  1  0  0  0  0
 13 14  1  0  0  0  0
 13 35  1  0  0  0  0
 14 15  1  0  0  0  0
 14 17  1  0  0  0  0
 14 36  1  1  0  0  0
 15 16  1  0  0  0  0
 15 37  1  0  0  0  0
 15 38  1  0  0  0  0
 16 39  1  0  0  0  0
 17 18  1  0  0  0  0
 17 40  1  0  0  0  0
 17 41  1  0  0  0  0
 18 42  1  0  0  0  0
 18 43  1  0  0  0  0
 18 44  1  0  0  0  0
 19 20  1  0  0  0  0
 19 45  1  0  0  0  0
 20 21  1  0  0  0  0
 20 46  1  0  0  0  0
 20 47  1  0  0  0  0
 21 22  2  0  0  0  0
 22 23  1  0  0  0  0
 22 48  1  0  0  0  0
 23 24  2  0  0  0  0
 23 49  1  0  0  0  0
 24 25  1  0  0  0  0
 24 50  1  0  0  0  0
 25 26  2  0  0  0  0
 25 51  1  0  0  0  0
 26 21  1  0  0  0  0
 26 52  1  0  0  0  0
M  END
>  <Mol_ID>
90

>  <Formula>
C19H26N6O

>  <MolWeight>
354.44934

>  <Cat>
S1153

>  <Name>
Roscovitine (CYC202)

>  <Synonyms>
Seliciclib, R-roscovitine

>  <Target>
CDK

>  <Form>
free base

>  <CAS>
186692-46-6

>  <URL>
http://selleckchem.com/products/Roscovitine.html

$$$$
