untitled.cdx
 OpenBabel08302522043D

 32 34  0  0  0  0  0  0  0  0999 V2000
    1.4700    1.9814   -0.1272 C   0  0  0  0  0  0  0  0  0  0  0  0
    2.3225    0.8637   -0.0436 C   0  0  0  0  0  0  0  0  0  0  0  0
    1.8303   -0.4524   -0.0288 C   0  0  0  0  0  0  0  0  0  0  0  0
    0.4617   -0.6095   -0.1837 C   0  0  0  0  0  0  0  0  0  0  0  0
   -0.3655    0.5078   -0.3022 C   0  0  0  0  0  0  0  0  0  0  0  0
    0.0963    1.8083   -0.2620 C   0  0  0  0  0  0  0  0  0  0  0  0
   -0.3748   -1.8464   -0.1871 C   0  0  0  0  0  0  0  0  0  0  0  0
   -1.7366   -1.3308   -0.2836 N   0  0  0  0  0  0  0  0  0  0  0  0
   -1.7519    0.0519   -0.3774 C   0  0  0  0  0  0  0  0  0  0  0  0
   -2.8762   -2.1176    0.1829 C   0  0  3  0  0  0  0  0  0  0  0  0
   -4.1437   -1.8734   -0.6425 C   0  0  0  0  0  0  0  0  0  0  0  0
   -5.0759   -1.0217   -0.0954 N   0  0  0  0  0  0  0  0  0  0  0  0
   -5.0219   -0.3524    1.1016 C   0  0  0  0  0  0  0  0  0  0  0  0
   -3.8490   -0.6452    2.0100 C   0  0  0  0  0  0  0  0  0  0  0  0
   -3.1639   -1.9607    1.6772 C   0  0  0  0  0  0  0  0  0  0  0  0
   -4.3074   -2.3547   -1.7630 O   0  0  0  0  0  0  0  0  0  0  0  0
   -5.8932    0.4574    1.4120 O   0  0  0  0  0  0  0  0  0  0  0  0
   -2.7134    0.7916   -0.4372 O   0  0  0  0  0  0  0  0  0  0  0  0
    2.7109   -1.5304   -0.0769 N   0  0  0  0  0  0  0  0  0  0  0  0
    1.8872    2.9852   -0.0911 H   0  0  0  0  0  0  0  0  0  0  0  0
    3.3951    1.0391    0.0255 H   0  0  0  0  0  0  0  0  0  0  0  0
   -0.5862    2.6482   -0.3250 H   0  0  0  0  0  0  0  0  0  0  0  0
   -0.2602   -2.3942    0.7532 H   0  0  0  0  0  0  0  0  0  0  0  0
   -0.1747   -2.4891   -1.0471 H   0  0  0  0  0  0  0  0  0  0  0  0
   -2.6132   -3.1698    0.0072 H   0  0  0  0  0  0  0  0  0  0  0  0
   -5.8531   -0.7800   -0.6930 H   0  0  0  0  0  0  0  0  0  0  0  0
   -4.2267   -0.6960    3.0392 H   0  0  0  0  0  0  0  0  0  0  0  0
   -3.1493    0.1922    1.9685 H   0  0  0  0  0  0  0  0  0  0  0  0
   -3.8221   -2.7799    1.9928 H   0  0  0  0  0  0  0  0  0  0  0  0
   -2.2408   -2.0522    2.2623 H   0  0  0  0  0  0  0  0  0  0  0  0
    3.6341   -1.3354    0.2989 H   0  0  0  0  0  0  0  0  0  0  0  0
    2.3451   -2.4201    0.2401 H   0  0  0  0  0  0  0  0  0  0  0  0
  1  2  2  0  0  0  0
  1 20  1  0  0  0  0
  2  3  1  0  0  0  0
  2 21  1  0  0  0  0
  3  4  2  0  0  0  0
  3 19  1  0  0  0  0
  4  5  1  0  0  0  0
  4  7  1  0  0  0  0
  5  6  2  0  0  0  0
  6  1  1  0  0  0  0
  6 22  1  0  0  0  0
  7  8  1  0  0  0  0
  7 23  1  0  0  0  0
  7 24  1  0  0  0  0
  8  9  1  0  0  0  0
  8 10  1  0  0  0  0
  9  5  1  0  0  0  0
  9 18  2  0  0  0  0
 10 11  1  0  0  0  0
 10 25  1  0  0  0  0
 11 12  1  0  0  0  0
 11 16  2  0  0  0  0
 12 13  1  0  0  0  0
 12 26  1  0  0  0  0
 13 14  1  0  0  0  0
 13 17  2  0  0  0  0
 14 15  1  0  0  0  0
 14 27  1  0  0  0  0
 14 28  1  0  0  0  0
 15 10  1  0  0  0  0
 15 29  1  0  0  0  0
 15 30  1  0  0  0  0
 19 31  1  0  0  0  0
 19 32  1  0  0  0  0
M  END
>  <Mol_ID>
17

>  <Formula>
C13H13N3O3

>  <MolWeight>
259.26062

>  <Cat>
S1029

>  <Name>
Lenalidomide (CC-5013)

>  <Synonyms>
CC-5013

>  <Target>
Apoptosis related,Caspase,E3 Ligase ,E3 ligase Ligand,TNF-alpha,VEGFR

>  <Form>
free base

>  <CAS>
191732-72-6

>  <URL>
https://www.selleckchem.com/products/lenalidomide-s1029.html

$$$$
