untitled.cdx
 OpenBabel08302520383D

 45 49  0  0  0  0  0  0  0  0999 V2000
    1.4637   -0.1038    0.0583 C   0  0  0  0  0  0  0  0  0  0  0  0
    0.9072    1.0352   -0.4939 C   0  0  0  0  0  0  0  0  0  0  0  0
   -0.4218    0.9910   -0.8934 C   0  0  0  0  0  0  0  0  0  0  0  0
   -1.1501   -0.1808   -0.7058 C   0  0  0  0  0  0  0  0  0  0  0  0
   -0.5105   -1.2800   -0.1386 C   0  0  0  0  0  0  0  0  0  0  0  0
    0.7883   -1.2600    0.2251 N   0  0  0  0  0  0  0  0  0  0  0  0
   -1.1956   -2.5415    0.1011 C   0  0  0  0  0  0  0  0  0  0  0  0
   -2.1193   -3.0430   -0.7822 N   0  0  0  0  0  0  0  0  0  0  0  0
   -2.5680   -4.2661   -0.3508 C   0  0  0  0  0  0  0  0  0  0  0  0
   -1.9991   -4.5582    0.8027 N   0  0  0  0  0  0  0  0  0  0  0  0
   -1.1503   -3.5008    1.1043 C   0  0  0  0  0  0  0  0  0  0  0  0
   -3.5732   -5.0446   -1.0844 C   0  0  0  0  0  0  0  0  0  0  0  0
   -0.4017   -3.4434    2.3587 C   0  0  0  0  0  0  0  0  0  0  0  0
   -3.7670   -4.8720   -2.4669 C   0  0  0  0  0  0  0  0  0  0  0  0
   -4.7662   -5.5745   -3.1499 C   0  0  0  0  0  0  0  0  0  0  0  0
   -5.5875   -6.4691   -2.4583 C   0  0  0  0  0  0  0  0  0  0  0  0
   -5.3795   -6.6780   -1.0906 C   0  0  0  0  0  0  0  0  0  0  0  0
   -4.3804   -5.9694   -0.4098 C   0  0  0  0  0  0  0  0  0  0  0  0
   -6.6659   -7.2270   -3.1446 C   0  0  0  0  0  0  0  0  0  0  0  0
   -7.0681   -8.3027   -2.7154 O   0  0  0  0  0  0  0  0  0  0  0  0
   -7.2295   -6.6602   -4.2528 N   0  0  0  0  0  0  0  0  0  0  0  0
   -0.1492   -2.2215    3.0031 C   0  0  0  0  0  0  0  0  0  0  0  0
    0.4981   -2.2343    4.2194 C   0  0  0  0  0  0  0  0  0  0  0  0
    0.8908   -3.4042    4.8199 C   0  0  0  0  0  0  0  0  0  0  0  0
    0.6754   -4.6267    4.2229 C   0  0  0  0  0  0  0  0  0  0  0  0
    0.0192   -4.6417    2.9820 C   0  0  0  0  0  0  0  0  0  0  0  0
    0.7937   -1.1365    4.9671 O   0  0  0  0  0  0  0  0  0  0  0  0
    1.3073   -1.7618    6.1593 C   0  0  0  0  0  0  0  0  0  0  0  0
    1.4697   -3.1905    6.0326 O   0  0  0  0  0  0  0  0  0  0  0  0
    2.4946   -0.1202    0.4010 H   0  0  0  0  0  0  0  0  0  0  0  0
    1.4988    1.9375   -0.6131 H   0  0  0  0  0  0  0  0  0  0  0  0
   -0.8921    1.8667   -1.3313 H   0  0  0  0  0  0  0  0  0  0  0  0
   -2.1985   -0.2117   -0.9778 H   0  0  0  0  0  0  0  0  0  0  0  0
   -2.4300   -2.5811   -1.6218 H   0  0  0  0  0  0  0  0  0  0  0  0
   -3.1289   -4.2059   -3.0414 H   0  0  0  0  0  0  0  0  0  0  0  0
   -4.8688   -5.4340   -4.2225 H   0  0  0  0  0  0  0  0  0  0  0  0
   -5.9996   -7.3893   -0.5472 H   0  0  0  0  0  0  0  0  0  0  0  0
   -4.2417   -6.1353    0.6579 H   0  0  0  0  0  0  0  0  0  0  0  0
   -7.1088   -5.6862   -4.4877 H   0  0  0  0  0  0  0  0  0  0  0  0
   -8.0351   -7.1395   -4.6355 H   0  0  0  0  0  0  0  0  0  0  0  0
   -0.4622   -1.2734    2.5854 H   0  0  0  0  0  0  0  0  0  0  0  0
    0.9850   -5.5469    4.7049 H   0  0  0  0  0  0  0  0  0  0  0  0
   -0.1784   -5.5972    2.4981 H   0  0  0  0  0  0  0  0  0  0  0  0
    0.6085   -1.5583    6.9801 H   0  0  0  0  0  0  0  0  0  0  0  0
    2.2763   -1.3140    6.4059 H   0  0  0  0  0  0  0  0  0  0  0  0
  1  2  2  0  0  0  0
  1 30  1  0  0  0  0
  2  3  1  0  0  0  0
  2 31  1  0  0  0  0
  3  4  2  0  0  0  0
  3 32  1  0  0  0  0
  4  5  1  0  0  0  0
  4 33  1  0  0  0  0
  5  6  2  0  0  0  0
  5  7  1  0  0  0  0
  6  1  1  0  0  0  0
  7  8  1  0  0  0  0
  8  9  1  0  0  0  0
  8 34  1  0  0  0  0
  9 10  2  0  0  0  0
  9 12  1  0  0  0  0
 10 11  1  0  0  0  0
 11  7  2  0  0  0  0
 11 13  1  0  0  0  0
 12 14  2  0  0  0  0
 13 22  2  0  0  0  0
 14 15  1  0  0  0  0
 14 35  1  0  0  0  0
 15 16  2  0  0  0  0
 15 36  1  0  0  0  0
 16 17  1  0  0  0  0
 16 19  1  0  0  0  0
 17 18  2  0  0  0  0
 17 37  1  0  0  0  0
 18 12  1  0  0  0  0
 18 38  1  0  0  0  0
 19 20  2  0  0  0  0
 19 21  1  0  0  0  0
 21 39  1  0  0  0  0
 21 40  1  0  0  0  0
 22 23  1  0  0  0  0
 22 41  1  0  0  0  0
 23 24  2  0  0  0  0
 23 27  1  0  0  0  0
 24 25  1  0  0  0  0
 25 26  2  0  0  0  0
 25 42  1  0  0  0  0
 26 13  1  0  0  0  0
 26 43  1  0  0  0  0
 27 28  1  0  0  0  0
 28 29  1  0  0  0  0
 28 44  1  0  0  0  0
 28 45  1  0  0  0  0
 29 24  1  0  0  0  0
M  END
>  <Mol_ID>
41

>  <Formula>
C22H16N4O3

>  <MolWeight>
384.38744

>  <Cat>
S1067

>  <Name>
SB431542

>  <Synonyms>
N/A

>  <Target>
TGF-beta/Smad

>  <Form>
free base

>  <CAS>
301836-41-9

>  <URL>
http://selleckchem.com/products/SB-431542.html

$$$$
