untitled.cdx
 OpenBabel08302521393D

 59 62  0  0  0  0  0  0  0  0999 V2000
    2.4180    0.9011    1.1677 C   0  0  0  0  0  0  0  0  0  0  0  0
    2.5626   -0.4145    0.7030 C   0  0  0  0  0  0  0  0  0  0  0  0
    1.4108   -1.1292    0.3207 C   0  0  0  0  0  0  0  0  0  0  0  0
    0.1402   -0.5688    0.2789 C   0  0  0  0  0  0  0  0  0  0  0  0
    0.0187    0.7894    0.5643 C   0  0  0  0  0  0  0  0  0  0  0  0
    1.1478    1.5001    1.0646 C   0  0  0  0  0  0  0  0  0  0  0  0
   -0.8962   -1.3411   -0.0758 N   0  0  0  0  0  0  0  0  0  0  0  0
   -2.0872   -0.7411   -0.1688 C   0  0  0  0  0  0  0  0  0  0  0  0
   -2.3149    0.5645   -0.0273 N   0  0  0  0  0  0  0  0  0  0  0  0
   -1.2594    1.3298    0.3108 C   0  0  0  0  0  0  0  0  0  0  0  0
   -1.4126    2.7448    0.2696 N   0  0  0  0  0  0  0  0  0  0  0  0
   -2.6304    3.4395    0.4448 C   0  0  0  0  0  0  0  0  0  0  0  0
   -3.5840    2.9872    1.3699 C   0  0  0  0  0  0  0  0  0  0  0  0
   -4.7466    3.7158    1.6213 C   0  0  0  0  0  0  0  0  0  0  0  0
   -4.9511    4.9167    0.9595 C   0  0  0  0  0  0  0  0  0  0  0  0
   -4.0135    5.4027    0.0556 C   0  0  0  0  0  0  0  0  0  0  0  0
   -2.8476    4.6719   -0.1929 C   0  0  0  0  0  0  0  0  0  0  0  0
   -6.0608    5.6245    1.2073 F   0  0  0  0  0  0  0  0  0  0  0  0
    3.4915    1.7193    1.5937 N   0  0  0  0  0  0  0  0  0  0  0  0
    3.6933   -1.1694    0.5171 O   0  0  0  0  0  0  0  0  0  0  0  0
    4.7898   -1.0058    1.4004 C   0  0  0  0  0  0  0  0  0  0  0  0
    5.5597   -2.3279    1.5816 C   0  0  0  0  0  0  0  0  0  0  0  0
    6.1637   -2.9923    0.3187 C   0  0  0  0  0  0  0  0  0  0  0  0
    6.8713   -4.2387    0.6689 N   0  0  0  0  0  0  0  0  0  0  0  0
    3.4928    2.3819    2.8250 C   0  0  0  0  0  0  0  0  0  0  0  0
    4.6350    3.3398    2.9899 C   0  0  0  0  0  0  0  0  0  0  0  0
    2.6802    2.2029    3.7230 O   0  0  0  0  0  0  0  0  0  0  0  0
    4.7806    4.0893    4.0822 C   0  0  0  0  0  0  0  0  0  0  0  0
    8.0726   -4.0892    1.5125 C   0  0  0  0  0  0  0  0  0  0  0  0
    9.4212   -4.0003    0.7796 C   0  0  0  0  0  0  0  0  0  0  0  0
    9.5764   -5.0428   -0.1831 O   0  0  0  0  0  0  0  0  0  0  0  0
    8.5146   -4.9797   -1.1392 C   0  0  0  0  0  0  0  0  0  0  0  0
    7.1432   -5.1484   -0.4629 C   0  0  0  0  0  0  0  0  0  0  0  0
    1.5120   -2.1731    0.0317 H   0  0  0  0  0  0  0  0  0  0  0  0
    1.0220    2.5447    1.3496 H   0  0  0  0  0  0  0  0  0  0  0  0
   -2.9401   -1.3707   -0.3981 H   0  0  0  0  0  0  0  0  0  0  0  0
   -0.9009    3.0832   -0.5415 H   0  0  0  0  0  0  0  0  0  0  0  0
   -3.4193    2.0579    1.9103 H   0  0  0  0  0  0  0  0  0  0  0  0
   -5.4759    3.3533    2.3355 H   0  0  0  0  0  0  0  0  0  0  0  0
   -4.1921    6.3501   -0.4419 H   0  0  0  0  0  0  0  0  0  0  0  0
   -2.1196    5.0690   -0.8943 H   0  0  0  0  0  0  0  0  0  0  0  0
    4.2015    1.9298    0.9142 H   0  0  0  0  0  0  0  0  0  0  0  0
    5.4592   -0.2416    0.9944 H   0  0  0  0  0  0  0  0  0  0  0  0
    4.4469   -0.6976    2.3955 H   0  0  0  0  0  0  0  0  0  0  0  0
    6.3524   -2.1072    2.3009 H   0  0  0  0  0  0  0  0  0  0  0  0
    4.8898   -3.0582    2.0547 H   0  0  0  0  0  0  0  0  0  0  0  0
    5.3300   -3.2399   -0.3523 H   0  0  0  0  0  0  0  0  0  0  0  0
    6.8230   -2.3042   -0.2207 H   0  0  0  0  0  0  0  0  0  0  0  0
    5.3602    3.4130    2.1875 H   0  0  0  0  0  0  0  0  0  0  0  0
    5.6172    4.7759    4.1792 H   0  0  0  0  0  0  0  0  0  0  0  0
    4.0796    4.0457    4.9182 H   0  0  0  0  0  0  0  0  0  0  0  0
    8.1035   -4.9724    2.1623 H   0  0  0  0  0  0  0  0  0  0  0  0
    8.0054   -3.2343    2.1888 H   0  0  0  0  0  0  0  0  0  0  0  0
    9.5467   -3.0307    0.2850 H   0  0  0  0  0  0  0  0  0  0  0  0
   10.2329   -4.1061    1.5082 H   0  0  0  0  0  0  0  0  0  0  0  0
    8.6787   -5.7948   -1.8529 H   0  0  0  0  0  0  0  0  0  0  0  0
    8.5797   -4.0359   -1.6915 H   0  0  0  0  0  0  0  0  0  0  0  0
    7.1063   -6.1688   -0.0573 H   0  0  0  0  0  0  0  0  0  0  0  0
    6.3519   -5.1000   -1.2196 H   0  0  0  0  0  0  0  0  0  0  0  0
  1  2  2  0  0  0  0
  1 19  1  0  0  0  0
  2  3  1  0  0  0  0
  2 20  1  0  0  0  0
  3  4  2  0  0  0  0
  3 34  1  0  0  0  0
  4  5  1  0  0  0  0
  4  7  1  0  0  0  0
  5  6  2  0  0  0  0
  6  1  1  0  0  0  0
  6 35  1  0  0  0  0
  7  8  2  0  0  0  0
  8  9  1  0  0  0  0
  8 36  1  0  0  0  0
  9 10  2  0  0  0  0
 10  5  1  0  0  0  0
 10 11  1  0  0  0  0
 11 12  1  0  0  0  0
 11 37  1  0  0  0  0
 12 13  2  0  0  0  0
 13 14  1  0  0  0  0
 13 38  1  0  0  0  0
 14 15  2  0  0  0  0
 14 39  1  0  0  0  0
 15 16  1  0  0  0  0
 15 18  1  0  0  0  0
 16 17  2  0  0  0  0
 16 40  1  0  0  0  0
 17 12  1  0  0  0  0
 17 41  1  0  0  0  0
 19 25  1  0  0  0  0
 19 42  1  0  0  0  0
 20 21  1  0  0  0  0
 21 22  1  0  0  0  0
 21 43  1  0  0  0  0
 21 44  1  0  0  0  0
 22 23  1  0  0  0  0
 22 45  1  0  0  0  0
 22 46  1  0  0  0  0
 23 24  1  0  0  0  0
 23 47  1  0  0  0  0
 23 48  1  0  0  0  0
 24 29  1  0  0  0  0
 25 26  1  0  0  0  0
 25 27  2  0  0  0  0
 26 28  2  0  0  0  0
 26 49  1  0  0  0  0
 28 50  1  0  0  0  0
 28 51  1  0  0  0  0
 29 30  1  0  0  0  0
 29 52  1  0  0  0  0
 29 53  1  0  0  0  0
 30 31  1  0  0  0  0
 30 54  1  0  0  0  0
 30 55  1  0  0  0  0
 31 32  1  0  0  0  0
 32 33  1  0  0  0  0
 32 56  1  0  0  0  0
 32 57  1  0  0  0  0
 33 24  1  0  0  0  0
 33 58  1  0  0  0  0
 33 59  1  0  0  0  0
M  END
>  <Mol_ID>
8193

>  <Formula>
C24H25ClFN5O3

>  <MolWeight>
485.9384032

>  <Cat>
S1019

>  <Name>
Canertinib (CI-1033)

>  <Synonyms>
PD183805

>  <Target>
EGFR,HER2

>  <Form>
Free Base

>  <CAS>
267243-28-7

>  <URL>
http://selleckchem.com/products/CI-1033(Canertinib).html

$$$$
