untitled.cdx
 OpenBabel08302521323D

 65 69  0  0  0  0  0  0  0  0999 V2000
    2.8860    1.5101    0.7072 C   0  0  0  0  0  0  0  0  0  0  0  0
    3.8669    1.8593    1.6517 C   0  0  0  0  0  0  0  0  0  0  0  0
    4.1581    3.1990    1.9295 C   0  0  0  0  0  0  0  0  0  0  0  0
    3.4462    4.2135    1.2977 C   0  0  0  0  0  0  0  0  0  0  0  0
    2.4248    3.8886    0.4086 C   0  0  0  0  0  0  0  0  0  0  0  0
    2.1522    2.5504    0.1073 C   0  0  0  0  0  0  0  0  0  0  0  0
    2.7044    0.0620    0.2421 C   0  0  2  0  0  0  0  0  0  0  0  0
    1.2284   -0.3937    0.1265 C   0  0  0  0  0  0  0  0  0  0  0  0
    3.5472   -0.8233    0.9899 O   0  0  0  0  0  0  0  0  0  0  0  0
    3.7215   -2.0972    0.3737 C   0  0  0  0  0  0  0  0  0  0  0  0
    0.4639   -0.5660    1.2644 N   0  0  0  0  0  0  0  0  0  0  0  0
    0.7576   -0.6436   -0.9860 O   0  0  0  0  0  0  0  0  0  0  0  0
   -0.8827   -1.1585    1.0972 C   0  0  0  0  0  0  0  0  0  0  0  0
   -1.3431   -1.0483    2.4735 C   0  0  0  0  0  0  0  0  0  0  0  0
   -0.4776   -0.4736    3.3510 C   0  0  0  0  0  0  0  0  0  0  0  0
    0.7723   -0.0963    2.6563 C   0  0  0  0  0  0  0  0  0  0  0  0
   -2.4462   -1.4032    3.1408 N   0  0  0  0  0  0  0  0  0  0  0  0
   -2.3696   -1.0235    4.4386 N   0  0  0  0  0  0  0  0  0  0  0  0
   -1.1509   -0.4715    4.5935 C   0  0  0  0  0  0  0  0  0  0  0  0
   -0.6687    0.0071    5.8021 N   0  0  0  0  0  0  0  0  0  0  0  0
   -1.3928   -0.0128    6.9939 C   0  0  0  0  0  0  0  0  0  0  0  0
   -2.5383   -0.4129    7.1551 O   0  0  0  0  0  0  0  0  0  0  0  0
   -0.7103    0.5707    8.1963 C   0  0  0  0  0  0  0  0  0  0  0  0
   -1.4945    1.1922    9.1738 C   0  0  0  0  0  0  0  0  0  0  0  0
   -0.8904    1.9181   10.2008 C   0  0  0  0  0  0  0  0  0  0  0  0
    0.5025    2.0165   10.3173 C   0  0  0  0  0  0  0  0  0  0  0  0
    1.2681    1.2565    9.4224 C   0  0  0  0  0  0  0  0  0  0  0  0
    0.6763    0.5492    8.3631 C   0  0  0  0  0  0  0  0  0  0  0  0
    1.0503    2.8211   11.2933 N   0  0  0  0  0  0  0  0  0  0  0  0
    2.3803    2.5775   11.8602 C   0  0  0  0  0  0  0  0  0  0  0  0
    2.3660    2.9661   13.3583 C   0  0  0  0  0  0  0  0  0  0  0  0
    1.9476    4.3718   13.5694 N   0  0  0  0  0  0  0  0  0  0  0  0
    0.6000    4.5654   12.9846 C   0  0  0  0  0  0  0  0  0  0  0  0
    0.5516    4.1996   11.4829 C   0  0  0  0  0  0  0  0  0  0  0  0
    1.9516    4.7031   14.9909 C   0  0  0  0  0  0  0  0  0  0  0  0
    4.4390    1.0888    2.1653 H   0  0  0  0  0  0  0  0  0  0  0  0
    4.9551    3.4474    2.6258 H   0  0  0  0  0  0  0  0  0  0  0  0
    3.6894    5.2554    1.4954 H   0  0  0  0  0  0  0  0  0  0  0  0
    1.8538    4.6822   -0.0698 H   0  0  0  0  0  0  0  0  0  0  0  0
    1.3721    2.3308   -0.6202 H   0  0  0  0  0  0  0  0  0  0  0  0
    3.0837    0.0610   -0.7915 H   0  0  0  0  0  0  0  0  0  0  0  0
    2.8793   -2.7442    0.6304 H   0  0  0  0  0  0  0  0  0  0  0  0
    3.8315   -2.0329   -0.7146 H   0  0  0  0  0  0  0  0  0  0  0  0
    4.6332   -2.5519    0.7770 H   0  0  0  0  0  0  0  0  0  0  0  0
   -1.4650   -0.5589    0.3929 H   0  0  0  0  0  0  0  0  0  0  0  0
   -0.7800   -2.1874    0.7442 H   0  0  0  0  0  0  0  0  0  0  0  0
    1.6571   -0.6148    3.0337 H   0  0  0  0  0  0  0  0  0  0  0  0
    0.9163    0.9866    2.6437 H   0  0  0  0  0  0  0  0  0  0  0  0
   -3.2801   -1.8929    2.8260 H   0  0  0  0  0  0  0  0  0  0  0  0
    0.2440    0.4367    5.7754 H   0  0  0  0  0  0  0  0  0  0  0  0
   -2.5801    1.1593    9.1212 H   0  0  0  0  0  0  0  0  0  0  0  0
   -1.5290    2.4267   10.9204 H   0  0  0  0  0  0  0  0  0  0  0  0
    2.3528    1.2537    9.4958 H   0  0  0  0  0  0  0  0  0  0  0  0
    1.3135    0.0018    7.6763 H   0  0  0  0  0  0  0  0  0  0  0  0
    3.1407    3.1613   11.3251 H   0  0  0  0  0  0  0  0  0  0  0  0
    2.6533    1.5187   11.7901 H   0  0  0  0  0  0  0  0  0  0  0  0
    3.3710    2.8106   13.7648 H   0  0  0  0  0  0  0  0  0  0  0  0
    1.6858    2.2861   13.8926 H   0  0  0  0  0  0  0  0  0  0  0  0
   -0.1362    3.9447   13.5142 H   0  0  0  0  0  0  0  0  0  0  0  0
    0.2904    5.6109   13.1001 H   0  0  0  0  0  0  0  0  0  0  0  0
    1.1651    4.9051   10.9043 H   0  0  0  0  0  0  0  0  0  0  0  0
   -0.4778    4.3296   11.1310 H   0  0  0  0  0  0  0  0  0  0  0  0
    1.6698    5.7510   15.1394 H   0  0  0  0  0  0  0  0  0  0  0  0
    1.2674    4.0742   15.5714 H   0  0  0  0  0  0  0  0  0  0  0  0
    2.9600    4.5877   15.4029 H   0  0  0  0  0  0  0  0  0  0  0  0
  1  2  2  0  0  0  0
  2  3  1  0  0  0  0
  2 36  1  0  0  0  0
  3  4  2  0  0  0  0
  3 37  1  0  0  0  0
  4  5  1  0  0  0  0
  4 38  1  0  0  0  0
  5  6  2  0  0  0  0
  5 39  1  0  0  0  0
  6  1  1  0  0  0  0
  6 40  1  0  0  0  0
  7  9  1  0  0  0  0
  7 41  1  6  0  0  0
  7  8  1  0  0  0  0
  7  1  1  0  0  0  0
  8 11  1  0  0  0  0
  8 12  2  0  0  0  0
  9 10  1  0  0  0  0
 10 42  1  0  0  0  0
 10 43  1  0  0  0  0
 10 44  1  0  0  0  0
 11 13  1  0  0  0  0
 13 14  1  0  0  0  0
 13 45  1  0  0  0  0
 13 46  1  0  0  0  0
 14 15  2  0  0  0  0
 14 17  1  0  0  0  0
 15 16  1  0  0  0  0
 16 11  1  0  0  0  0
 16 47  1  0  0  0  0
 16 48  1  0  0  0  0
 17 18  1  0  0  0  0
 17 49  1  0  0  0  0
 18 19  2  0  0  0  0
 19 15  1  0  0  0  0
 19 20  1  0  0  0  0
 20 21  1  0  0  0  0
 20 50  1  0  0  0  0
 21 22  2  0  0  0  0
 21 23  1  0  0  0  0
 23 24  2  0  0  0  0
 24 25  1  0  0  0  0
 24 51  1  0  0  0  0
 25 26  2  0  0  0  0
 25 52  1  0  0  0  0
 26 27  1  0  0  0  0
 26 29  1  0  0  0  0
 27 28  2  0  0  0  0
 27 53  1  0  0  0  0
 28 23  1  0  0  0  0
 28 54  1  0  0  0  0
 29 30  1  0  0  0  0
 30 31  1  0  0  0  0
 30 55  1  0  0  0  0
 30 56  1  0  0  0  0
 31 32  1  0  0  0  0
 31 57  1  0  0  0  0
 31 58  1  0  0  0  0
 32 33  1  0  0  0  0
 32 35  1  0  0  0  0
 33 34  1  0  0  0  0
 33 59  1  0  0  0  0
 33 60  1  0  0  0  0
 34 29  1  0  0  0  0
 34 61  1  0  0  0  0
 34 62  1  0  0  0  0
 35 63  1  0  0  0  0
 35 64  1  0  0  0  0
 35 65  1  0  0  0  0
M  END
>  <Mol_ID>
67

>  <Formula>
C26H30N6O3

>  <MolWeight>
474.5548

>  <Cat>
S1107

>  <Name>
Danusertib (PHA-739358)

>  <Synonyms>
N/A

>  <Target>
Apoptosis related,Aurora Kinase,Autophagy,Bcr-Abl,c-RET,FGFR,Trk receptor

>  <Form>
free base

>  <CAS>
827318-97-8

>  <URL>
http://selleckchem.com/products/PHA-739358(Danusertib).html

$$$$
