untitled.cdx
 OpenBabel08302519553D

 30 32  0  0  0  0  0  0  0  0999 V2000
   -0.3378   -0.8569   -1.0347 C   0  0  0  0  0  0  0  0  0  0  0  0
    0.5217   -1.2908   -0.0131 C   0  0  0  0  0  0  0  0  0  0  0  0
    0.8329   -0.4083    1.0317 C   0  0  0  0  0  0  0  0  0  0  0  0
    0.3090    0.8871    1.0495 C   0  0  0  0  0  0  0  0  0  0  0  0
   -0.5445    1.3084    0.0296 C   0  0  0  0  0  0  0  0  0  0  0  0
   -0.8817    0.4323   -1.0085 C   0  0  0  0  0  0  0  0  0  0  0  0
   -1.8305    0.9012   -2.0466 C   0  0  0  0  0  0  0  0  0  0  0  0
   -2.2862    2.0245   -2.1436 O   0  0  0  0  0  0  0  0  0  0  0  0
   -2.1955   -0.0779   -2.8938 O   0  0  0  0  0  0  0  0  0  0  0  0
    1.0784   -2.6388   -0.0382 C   0  0  0  0  0  0  0  0  0  0  0  0
    0.8896   -3.4956   -1.0543 N   0  0  0  0  0  0  0  0  0  0  0  0
    1.5950   -4.6281   -0.6684 O   0  0  0  0  0  0  0  0  0  0  0  0
    2.1444   -4.3542    0.5496 C   0  0  0  0  0  0  0  0  0  0  0  0
    1.8440   -3.1502    0.9896 N   0  0  0  0  0  0  0  0  0  0  0  0
    2.8841   -5.4275    1.1892 C   0  0  0  0  0  0  0  0  0  0  0  0
    3.0090   -5.4576    2.5866 C   0  0  0  0  0  0  0  0  0  0  0  0
    3.6737   -6.5127    3.2202 C   0  0  0  0  0  0  0  0  0  0  0  0
    4.2328   -7.5429    2.4645 C   0  0  0  0  0  0  0  0  0  0  0  0
    4.1395   -7.5113    1.0751 C   0  0  0  0  0  0  0  0  0  0  0  0
    3.4715   -6.4603    0.4506 C   0  0  0  0  0  0  0  0  0  0  0  0
    3.4188   -6.4595   -0.8902 F   0  0  0  0  0  0  0  0  0  0  0  0
   -0.5900   -1.5303   -1.8522 H   0  0  0  0  0  0  0  0  0  0  0  0
    1.4900   -0.7245    1.8404 H   0  0  0  0  0  0  0  0  0  0  0  0
    0.5619    1.5651    1.8614 H   0  0  0  0  0  0  0  0  0  0  0  0
   -0.9538    2.3169    0.0515 H   0  0  0  0  0  0  0  0  0  0  0  0
   -2.8470    0.3476   -3.4889 H   0  0  0  0  0  0  0  0  0  0  0  0
    2.5719   -4.6645    3.1922 H   0  0  0  0  0  0  0  0  0  0  0  0
    3.7480   -6.5337    4.3051 H   0  0  0  0  0  0  0  0  0  0  0  0
    4.7423   -8.3677    2.9567 H   0  0  0  0  0  0  0  0  0  0  0  0
    4.5794   -8.2992    0.4703 H   0  0  0  0  0  0  0  0  0  0  0  0
  1  2  2  0  0  0  0
  1 22  1  0  0  0  0
  2  3  1  0  0  0  0
  2 10  1  0  0  0  0
  3  4  2  0  0  0  0
  3 23  1  0  0  0  0
  4  5  1  0  0  0  0
  4 24  1  0  0  0  0
  5  6  2  0  0  0  0
  5 25  1  0  0  0  0
  6  1  1  0  0  0  0
  6  7  1  0  0  0  0
  7  8  2  0  0  0  0
  7  9  1  0  0  0  0
  9 26  1  0  0  0  0
 10 11  2  0  0  0  0
 11 12  1  0  0  0  0
 12 13  1  0  0  0  0
 13 14  2  0  0  0  0
 13 15  1  0  0  0  0
 14 10  1  0  0  0  0
 15 16  2  0  0  0  0
 16 17  1  0  0  0  0
 16 27  1  0  0  0  0
 17 18  2  0  0  0  0
 17 28  1  0  0  0  0
 18 19  1  0  0  0  0
 18 29  1  0  0  0  0
 19 20  2  0  0  0  0
 19 30  1  0  0  0  0
 20 15  1  0  0  0  0
 20 21  1  0  0  0  0
M  END
>  <Mol_ID>
2153

>  <Formula>
C15H9FN2O3

>  <MolWeight>
284.2419632

>  <Cat>
S6003

>  <Name>
Ataluren (PTC124)

>  <Synonyms>
N/A

>  <Target>
CFTR

>  <Form>
free base

>  <CAS>
775304-57-9

>  <URL>
http://selleckchem.com/products/PTC124.html

$$$$
