untitled.cdx
 OpenBabel08302519573D

 32 34  0  0  0  0  0  0  0  0999 V2000
   -1.3019    0.0750    0.1344 N   0  0  0  0  0  0  0  0  0  0  0  0
   -0.5464    0.1056    1.2524 C   0  0  0  0  0  0  0  0  0  0  0  0
    0.8372    0.1064    1.2448 C   0  0  0  0  0  0  0  0  0  0  0  0
    1.5010    0.0635    0.0159 C   0  0  0  0  0  0  0  0  0  0  0  0
    0.7405    0.0415   -1.1540 C   0  0  0  0  0  0  0  0  0  0  0  0
   -0.6412    0.0500   -1.0420 C   0  0  0  0  0  0  0  0  0  0  0  0
    2.9569    0.0689   -0.0076 C   0  0  0  0  0  0  0  0  0  0  0  0
    3.7355   -0.5240   -0.9791 C   0  0  0  0  0  0  0  0  0  0  0  0
    5.3952   -0.3285   -0.5948 S   0  0  0  0  0  0  0  0  0  0  0  0
    4.9666    0.6011    0.7989 C   0  0  0  0  0  0  0  0  0  0  0  0
    3.6710    0.6828    1.0054 N   0  0  0  0  0  0  0  0  0  0  0  0
    5.9449    1.1498    1.5608 N   0  0  0  0  0  0  0  0  0  0  0  0
    5.8658    2.3585    2.2875 C   0  0  0  0  0  0  0  0  0  0  0  0
    4.7125    3.1502    2.3547 C   0  0  0  0  0  0  0  0  0  0  0  0
    4.6861    4.3356    3.0915 C   0  0  0  0  0  0  0  0  0  0  0  0
    5.8131    4.7469    3.7964 C   0  0  0  0  0  0  0  0  0  0  0  0
    6.9705    3.9654    3.7792 C   0  0  0  0  0  0  0  0  0  0  0  0
    6.9828    2.7722    3.0353 C   0  0  0  0  0  0  0  0  0  0  0  0
    8.1910    4.3947    4.5383 C   0  0  0  0  0  0  0  0  0  0  0  0
   -1.1004    0.1324    2.1868 H   0  0  0  0  0  0  0  0  0  0  0  0
    1.3873    0.1374    2.1807 H   0  0  0  0  0  0  0  0  0  0  0  0
    1.1950    0.0408   -2.1376 H   0  0  0  0  0  0  0  0  0  0  0  0
   -1.2741    0.0417   -1.9258 H   0  0  0  0  0  0  0  0  0  0  0  0
    3.4317   -1.0702   -1.8594 H   0  0  0  0  0  0  0  0  0  0  0  0
    6.8948    0.9018    1.3150 H   0  0  0  0  0  0  0  0  0  0  0  0
    3.8099    2.8746    1.8166 H   0  0  0  0  0  0  0  0  0  0  0  0
    3.7811    4.9358    3.1090 H   0  0  0  0  0  0  0  0  0  0  0  0
    5.7754    5.6729    4.3624 H   0  0  0  0  0  0  0  0  0  0  0  0
    7.8842    2.1629    3.0387 H   0  0  0  0  0  0  0  0  0  0  0  0
    8.4567    3.6418    5.2869 H   0  0  0  0  0  0  0  0  0  0  0  0
    9.0315    4.5360    3.8514 H   0  0  0  0  0  0  0  0  0  0  0  0
    8.0241    5.3427    5.0604 H   0  0  0  0  0  0  0  0  0  0  0  0
  1  2  2  0  0  0  0
  2  3  1  0  0  0  0
  2 20  1  0  0  0  0
  3  4  2  0  0  0  0
  3 21  1  0  0  0  0
  4  5  1  0  0  0  0
  4  7  1  0  0  0  0
  5  6  2  0  0  0  0
  5 22  1  0  0  0  0
  6  1  1  0  0  0  0
  6 23  1  0  0  0  0
  7  8  2  0  0  0  0
  8  9  1  0  0  0  0
  8 24  1  0  0  0  0
  9 10  1  0  0  0  0
 10 11  2  0  0  0  0
 10 12  1  0  0  0  0
 11  7  1  0  0  0  0
 12 13  1  0  0  0  0
 12 25  1  0  0  0  0
 13 14  2  0  0  0  0
 14 15  1  0  0  0  0
 14 26  1  0  0  0  0
 15 16  2  0  0  0  0
 15 27  1  0  0  0  0
 16 17  1  0  0  0  0
 16 28  1  0  0  0  0
 17 18  2  0  0  0  0
 17 19  1  0  0  0  0
 18 13  1  0  0  0  0
 18 29  1  0  0  0  0
 19 30  1  0  0  0  0
 19 31  1  0  0  0  0
 19 32  1  0  0  0  0
M  END
>  <Mol_ID>
28

>  <Formula>
C15H13N3S

>  <MolWeight>
267.34882

>  <Cat>
S1041

>  <Name>
STF-62247

>  <Synonyms>
N/A

>  <Target>
Autophagy

>  <Form>
free base

>  <CAS>
315702-99-9

>  <URL>
http://selleckchem.com/products/STF-62247.html

$$$$
