untitled.cdx
 OpenBabel08302521373D

 41 43  0  0  0  0  0  0  0  0999 V2000
    5.4196   -5.9472    0.8888 C   0  0  0  0  0  0  0  0  0  0  0  0
    6.4244   -5.3324    1.6196 C   0  0  0  0  0  0  0  0  0  0  0  0
    6.5141   -4.0093    1.8753 N   0  0  0  0  0  0  0  0  0  0  0  0
    5.4939   -3.3037    1.3575 C   0  0  0  0  0  0  0  0  0  0  0  0
    4.4045   -3.7818    0.6292 C   0  0  0  0  0  0  0  0  0  0  0  0
    4.3887   -5.1642    0.3616 C   0  0  0  0  0  0  0  0  0  0  0  0
    5.3675   -1.9504    1.4703 N   0  0  0  0  0  0  0  0  0  0  0  0
    4.2119   -1.5416    0.8568 C   0  0  0  0  0  0  0  0  0  0  0  0
    3.5524   -2.6596    0.3585 C   0  0  0  0  0  0  0  0  0  0  0  0
    2.2414   -2.5893   -0.2910 C   0  0  0  0  0  0  0  0  0  0  0  0
    1.8774   -1.5771   -0.8861 O   0  0  0  0  0  0  0  0  0  0  0  0
    1.2660   -3.6926   -0.1458 C   0  0  0  0  0  0  0  0  0  0  0  0
    0.3588   -3.9709   -1.1755 C   0  0  0  0  0  0  0  0  0  0  0  0
   -0.6902   -4.8874   -0.9818 C   0  0  0  0  0  0  0  0  0  0  0  0
   -0.8080   -5.5621    0.2313 C   0  0  0  0  0  0  0  0  0  0  0  0
    0.0999   -5.2994    1.2577 C   0  0  0  0  0  0  0  0  0  0  0  0
    1.1136   -4.3593    1.0710 C   0  0  0  0  0  0  0  0  0  0  0  0
    0.4425   -3.3365   -2.3552 F   0  0  0  0  0  0  0  0  0  0  0  0
    1.8961   -4.0814    2.1223 F   0  0  0  0  0  0  0  0  0  0  0  0
   -1.6873   -5.1169   -1.9929 N   0  0  0  0  0  0  0  0  0  0  0  0
   -1.3109   -6.2096   -3.2414 S   0  0  0  0  0  0  0  0  0  0  0  0
   -1.8404   -5.5920   -4.4381 O   0  0  0  0  0  0  0  0  0  0  0  0
    0.0731   -6.6104   -3.1277 O   0  0  0  0  0  0  0  0  0  0  0  0
   -2.3630   -7.6012   -2.8241 C   0  0  0  0  0  0  0  0  0  0  0  0
   -2.2370   -8.7830   -3.7874 C   0  0  0  0  0  0  0  0  0  0  0  0
   -2.8468   -8.5509   -5.1637 C   0  0  0  0  0  0  0  0  0  0  0  0
    5.4345   -7.0184    0.7268 H   0  0  0  0  0  0  0  0  0  0  0  0
    7.2234   -5.9303    2.0552 H   0  0  0  0  0  0  0  0  0  0  0  0
    3.6024   -5.6228   -0.2269 H   0  0  0  0  0  0  0  0  0  0  0  0
    6.0356   -1.3639    1.9470 H   0  0  0  0  0  0  0  0  0  0  0  0
    3.9320   -0.4963    0.8513 H   0  0  0  0  0  0  0  0  0  0  0  0
   -1.6293   -6.2520    0.4046 H   0  0  0  0  0  0  0  0  0  0  0  0
    0.0027   -5.7871    2.2241 H   0  0  0  0  0  0  0  0  0  0  0  0
   -1.9867   -4.2488   -2.4526 H   0  0  0  0  0  0  0  0  0  0  0  0
   -2.0523   -7.9286   -1.8264 H   0  0  0  0  0  0  0  0  0  0  0  0
   -3.3970   -7.2454   -2.7758 H   0  0  0  0  0  0  0  0  0  0  0  0
   -1.1874   -9.0747   -3.9051 H   0  0  0  0  0  0  0  0  0  0  0  0
   -2.7546   -9.6400   -3.3383 H   0  0  0  0  0  0  0  0  0  0  0  0
   -2.2338   -7.8738   -5.7651 H   0  0  0  0  0  0  0  0  0  0  0  0
   -2.9113   -9.5000   -5.7080 H   0  0  0  0  0  0  0  0  0  0  0  0
   -3.8581   -8.1392   -5.0915 H   0  0  0  0  0  0  0  0  0  0  0  0
  1  2  2  0  0  0  0
  1 27  1  0  0  0  0
  2  3  1  0  0  0  0
  2 28  1  0  0  0  0
  3  4  2  0  0  0  0
  4  5  1  0  0  0  0
  4  7  1  0  0  0  0
  5  6  2  0  0  0  0
  6  1  1  0  0  0  0
  6 29  1  0  0  0  0
  7  8  1  0  0  0  0
  7 30  1  0  0  0  0
  8  9  2  0  0  0  0
  8 31  1  0  0  0  0
  9  5  1  0  0  0  0
  9 10  1  0  0  0  0
 10 11  2  0  0  0  0
 10 12  1  0  0  0  0
 12 13  2  0  0  0  0
 13 14  1  0  0  0  0
 13 18  1  0  0  0  0
 14 15  2  0  0  0  0
 14 20  1  0  0  0  0
 15 16  1  0  0  0  0
 15 32  1  0  0  0  0
 16 17  2  0  0  0  0
 16 33  1  0  0  0  0
 17 12  1  0  0  0  0
 17 19  1  0  0  0  0
 20 21  1  0  0  0  0
 20 34  1  0  0  0  0
 21 22  2  0  0  0  0
 21 23  2  0  0  0  0
 21 24  1  0  0  0  0
 24 25  1  0  0  0  0
 24 35  1  0  0  0  0
 24 36  1  0  0  0  0
 25 26  1  0  0  0  0
 25 37  1  0  0  0  0
 25 38  1  0  0  0  0
 26 39  1  0  0  0  0
 26 40  1  0  0  0  0
 26 41  1  0  0  0  0
M  END
>  <Mol_ID>
89

>  <Formula>
C17H14ClF2N3O3S

>  <MolWeight>
413.8261664

>  <Cat>
S1152

>  <Name>
PLX-4720

>  <Synonyms>
N/A

>  <Target>
Raf

>  <Form>
free base

>  <CAS>
918505-84-7

>  <URL>
http://selleckchem.com/products/PLX-4720.html

$$$$
