untitled.cdx
 OpenBabel08302521043D

 41 43  0  0  0  0  0  0  0  0999 V2000
    1.3207   -0.2653    0.2346 C   0  0  0  0  0  0  0  0  0  0  0  0
    0.9134    1.0596    0.4473 C   0  0  0  0  0  0  0  0  0  0  0  0
   -0.4621    1.3370    0.3349 C   0  0  0  0  0  0  0  0  0  0  0  0
   -1.4017    0.3631   -0.0309 C   0  0  0  0  0  0  0  0  0  0  0  0
   -0.9594   -0.9441   -0.2402 C   0  0  0  0  0  0  0  0  0  0  0  0
    0.3976   -1.2578   -0.1066 C   0  0  0  0  0  0  0  0  0  0  0  0
    1.8951    2.1217    0.7630 C   0  0  0  0  0  0  0  0  0  0  0  0
    2.9963    1.7299    1.4555 N   0  0  0  0  0  0  0  0  0  0  0  0
    3.9303    2.6661    1.7377 C   0  0  0  0  0  0  0  0  0  0  0  0
    3.8376    3.9925    1.3553 C   0  0  0  0  0  0  0  0  0  0  0  0
    2.7132    4.3878    0.6461 C   0  0  0  0  0  0  0  0  0  0  0  0
    1.7305    3.4460    0.3474 C   0  0  0  0  0  0  0  0  0  0  0  0
   -2.7860    0.6508   -0.1885 N   0  0  0  0  0  0  0  0  0  0  0  0
   -3.3222    1.9251   -0.2931 C   0  0  0  0  0  0  0  0  0  0  0  0
   -4.8046    2.0569   -0.3825 C   0  0  0  0  0  0  0  0  0  0  0  0
   -2.6762    2.9697   -0.3588 O   0  0  0  0  0  0  0  0  0  0  0  0
   -5.7051    1.1563    0.2001 C   0  0  0  0  0  0  0  0  0  0  0  0
   -7.0856    1.4077    0.1350 C   0  0  0  0  0  0  0  0  0  0  0  0
   -7.5594    2.5640   -0.5004 C   0  0  0  0  0  0  0  0  0  0  0  0
   -6.6714    3.4614   -1.0906 C   0  0  0  0  0  0  0  0  0  0  0  0
   -5.3018    3.2071   -1.0243 C   0  0  0  0  0  0  0  0  0  0  0  0
   -9.3103    2.8485   -0.6605 S   0  0  0  0  0  0  0  0  0  0  0  0
   -9.7498    3.7555    0.7971 C   0  0  0  0  0  0  0  0  0  0  0  0
   -9.5057    3.7173   -1.8053 O   0  0  0  0  0  0  0  0  0  0  0  0
   -9.9577    1.5511   -0.5946 O   0  0  0  0  0  0  0  0  0  0  0  0
    2.3745   -0.5263    0.3261 H   0  0  0  0  0  0  0  0  0  0  0  0
   -0.7915    2.3442    0.5659 H   0  0  0  0  0  0  0  0  0  0  0  0
   -1.6479   -1.7335   -0.5274 H   0  0  0  0  0  0  0  0  0  0  0  0
    0.7454   -2.2734   -0.2785 H   0  0  0  0  0  0  0  0  0  0  0  0
    4.7889    2.3055    2.2966 H   0  0  0  0  0  0  0  0  0  0  0  0
    4.6236    4.6975    1.5993 H   0  0  0  0  0  0  0  0  0  0  0  0
    2.6002    5.4174    0.3189 H   0  0  0  0  0  0  0  0  0  0  0  0
    0.8592    3.7513   -0.2247 H   0  0  0  0  0  0  0  0  0  0  0  0
   -3.3907   -0.1401   -0.3661 H   0  0  0  0  0  0  0  0  0  0  0  0
   -5.3559    0.2752    0.7313 H   0  0  0  0  0  0  0  0  0  0  0  0
   -7.7828    0.6989    0.5793 H   0  0  0  0  0  0  0  0  0  0  0  0
   -7.0254    4.3510   -1.6079 H   0  0  0  0  0  0  0  0  0  0  0  0
   -4.6110    3.9176   -1.4785 H   0  0  0  0  0  0  0  0  0  0  0  0
   -9.1913    4.6929    0.8229 H   0  0  0  0  0  0  0  0  0  0  0  0
  -10.8211    3.9684    0.7476 H   0  0  0  0  0  0  0  0  0  0  0  0
   -9.5369    3.1479    1.6782 H   0  0  0  0  0  0  0  0  0  0  0  0
  1  2  2  0  0  0  0
  1 26  1  0  0  0  0
  2  3  1  0  0  0  0
  2  7  1  0  0  0  0
  3  4  2  0  0  0  0
  3 27  1  0  0  0  0
  4  5  1  0  0  0  0
  4 13  1  0  0  0  0
  5  6  2  0  0  0  0
  5 28  1  0  0  0  0
  6  1  1  0  0  0  0
  6 29  1  0  0  0  0
  7  8  2  0  0  0  0
  8  9  1  0  0  0  0
  9 10  2  0  0  0  0
  9 30  1  0  0  0  0
 10 11  1  0  0  0  0
 10 31  1  0  0  0  0
 11 12  2  0  0  0  0
 11 32  1  0  0  0  0
 12  7  1  0  0  0  0
 12 33  1  0  0  0  0
 13 14  1  0  0  0  0
 13 34  1  0  0  0  0
 14 15  1  0  0  0  0
 14 16  2  0  0  0  0
 15 17  2  0  0  0  0
 17 18  1  0  0  0  0
 17 35  1  0  0  0  0
 18 19  2  0  0  0  0
 18 36  1  0  0  0  0
 19 20  1  0  0  0  0
 19 22  1  0  0  0  0
 20 21  2  0  0  0  0
 20 37  1  0  0  0  0
 21 15  1  0  0  0  0
 21 38  1  0  0  0  0
 22 23  1  0  0  0  0
 22 24  2  0  0  0  0
 22 25  2  0  0  0  0
 23 39  1  0  0  0  0
 23 40  1  0  0  0  0
 23 41  1  0  0  0  0
M  END
>  <Mol_ID>
49

>  <Formula>
C19H14Cl2N2O3S

>  <MolWeight>
421.29706

>  <Cat>
S1082

>  <Name>
Vismodegib (GDC-0449)

>  <Synonyms>
GDC-0449

>  <Target>
Hedgehog/Smoothened

>  <Form>
free base

>  <CAS>
879085-55-9

>  <URL>
http://selleckchem.com/products/GDC-0449.html

$$$$
