untitled.cdx
 OpenBabel08302519553D

 41 43  0  0  0  0  0  0  0  0999 V2000
    0.0088   -1.7598   -0.6792 C   0  0  0  0  0  0  0  0  0  0  0  0
    1.1270   -1.1382   -0.1380 C   0  0  0  0  0  0  0  0  0  0  0  0
    1.1196    0.2390    0.1317 C   0  0  0  0  0  0  0  0  0  0  0  0
    0.0176    1.0629   -0.1624 C   0  0  0  0  0  0  0  0  0  0  0  0
   -1.0986    0.3912   -0.7127 C   0  0  0  0  0  0  0  0  0  0  0  0
   -1.1117   -0.9881   -0.9543 C   0  0  0  0  0  0  0  0  0  0  0  0
    2.1938    0.7061    0.7824 F   0  0  0  0  0  0  0  0  0  0  0  0
   -2.2123    1.0513   -1.0641 F   0  0  0  0  0  0  0  0  0  0  0  0
    0.0308    2.4976    0.0631 N   0  0  0  0  0  0  0  0  0  0  0  0
   -1.2219    3.1722    0.0733 C   0  0  0  0  0  0  0  0  0  0  0  0
    1.2047    3.2560    0.0297 C   0  0  0  0  0  0  0  0  0  0  0  0
    2.3438    2.8718   -0.2252 O   0  0  0  0  0  0  0  0  0  0  0  0
    1.0633    4.5808    0.3631 N   0  0  0  0  0  0  0  0  0  0  0  0
   -1.4284    4.1597   -0.8342 N   0  0  0  0  0  0  0  0  0  0  0  0
   -2.6497    4.7674   -0.9270 C   0  0  0  0  0  0  0  0  0  0  0  0
   -3.6534    4.4788    0.0083 C   0  0  0  0  0  0  0  0  0  0  0  0
   -3.3799    3.5433    1.0215 C   0  0  0  0  0  0  0  0  0  0  0  0
   -2.1600    2.8743    1.0488 C   0  0  0  0  0  0  0  0  0  0  0  0
   -5.0201    5.0506   -0.0565 C   0  0  0  0  0  0  0  0  0  0  0  0
   -5.6228    5.3619    1.1344 N   0  0  0  0  0  0  0  0  0  0  0  0
   -5.6014    5.2398   -1.1146 O   0  0  0  0  0  0  0  0  0  0  0  0
   -2.7123    5.7536   -2.0356 C   0  0  0  0  0  0  0  0  0  0  0  0
   -2.0618    5.5034   -3.2690 C   0  0  0  0  0  0  0  0  0  0  0  0
   -2.0343    6.4384   -4.3058 C   0  0  0  0  0  0  0  0  0  0  0  0
   -2.6879    7.6460   -4.1425 C   0  0  0  0  0  0  0  0  0  0  0  0
   -3.3565    7.9335   -2.9620 C   0  0  0  0  0  0  0  0  0  0  0  0
   -3.3517    7.0030   -1.9138 C   0  0  0  0  0  0  0  0  0  0  0  0
   -1.4352    4.3375   -3.4886 F   0  0  0  0  0  0  0  0  0  0  0  0
   -2.6691    8.5504   -5.1297 F   0  0  0  0  0  0  0  0  0  0  0  0
    0.0086   -2.8237   -0.8761 H   0  0  0  0  0  0  0  0  0  0  0  0
    2.0159   -1.7176    0.0990 H   0  0  0  0  0  0  0  0  0  0  0  0
   -2.0044   -1.4445   -1.3721 H   0  0  0  0  0  0  0  0  0  0  0  0
    0.2734    5.0314   -0.0902 H   0  0  0  0  0  0  0  0  0  0  0  0
    1.9271    5.0951    0.2605 H   0  0  0  0  0  0  0  0  0  0  0  0
   -4.1276    3.2889    1.7678 H   0  0  0  0  0  0  0  0  0  0  0  0
   -1.9497    2.1414    1.8203 H   0  0  0  0  0  0  0  0  0  0  0  0
   -6.5535    5.7580    1.0890 H   0  0  0  0  0  0  0  0  0  0  0  0
   -5.1795    5.2922    2.0388 H   0  0  0  0  0  0  0  0  0  0  0  0
   -1.5047    6.2192   -5.2259 H   0  0  0  0  0  0  0  0  0  0  0  0
   -3.8768    8.8810   -2.8575 H   0  0  0  0  0  0  0  0  0  0  0  0
   -3.8696    7.2770   -0.9980 H   0  0  0  0  0  0  0  0  0  0  0  0
  1  2  2  0  0  0  0
  1 30  1  0  0  0  0
  2  3  1  0  0  0  0
  2 31  1  0  0  0  0
  3  4  2  0  0  0  0
  3  7  1  0  0  0  0
  4  5  1  0  0  0  0
  4  9  1  0  0  0  0
  5  6  2  0  0  0  0
  5  8  1  0  0  0  0
  6  1  1  0  0  0  0
  6 32  1  0  0  0  0
  9 10  1  0  0  0  0
  9 11  1  0  0  0  0
 10 14  2  0  0  0  0
 11 12  2  0  0  0  0
 11 13  1  0  0  0  0
 13 33  1  0  0  0  0
 13 34  1  0  0  0  0
 14 15  1  0  0  0  0
 15 16  2  0  0  0  0
 15 22  1  0  0  0  0
 16 17  1  0  0  0  0
 16 19  1  0  0  0  0
 17 18  2  0  0  0  0
 17 35  1  0  0  0  0
 18 10  1  0  0  0  0
 18 36  1  0  0  0  0
 19 20  1  0  0  0  0
 19 21  2  0  0  0  0
 20 37  1  0  0  0  0
 20 38  1  0  0  0  0
 22 23  2  0  0  0  0
 23 24  1  0  0  0  0
 23 28  1  0  0  0  0
 24 25  2  0  0  0  0
 24 39  1  0  0  0  0
 25 26  1  0  0  0  0
 25 29  1  0  0  0  0
 26 27  2  0  0  0  0
 26 40  1  0  0  0  0
 27 22  1  0  0  0  0
 27 41  1  0  0  0  0
M  END
>  <Mol_ID>
2154

>  <Formula>
C19H12F4N4O2

>  <MolWeight>
404.3177928

>  <Cat>
S6005

>  <Name>
VX-702

>  <Synonyms>
N/A

>  <Target>
p38 MAPK

>  <Form>
free base

>  <CAS>
745833-23-2

>  <URL>
http://selleckchem.com/products/VX-702.html

$$$$
