untitled.cdx
 OpenBabel08302521273D

 44 48  0  0  0  0  0  0  0  0999 V2000
    2.4778    2.1137    0.7338 C   0  0  0  0  0  0  0  0  0  0  0  0
    2.9545    3.3816    1.0943 C   0  0  0  0  0  0  0  0  0  0  0  0
    2.0755    4.4552    1.1674 C   0  0  0  0  0  0  0  0  0  0  0  0
    0.7434    4.2228    0.8837 C   0  0  0  0  0  0  0  0  0  0  0  0
    0.2452    3.0146    0.5412 N   0  0  0  0  0  0  0  0  0  0  0  0
    1.0991    1.9772    0.4676 C   0  0  0  0  0  0  0  0  0  0  0  0
    0.6237    0.7229    0.1137 C   0  0  0  0  0  0  0  0  0  0  0  0
    1.4736   -0.3833   -0.0004 C   0  0  0  0  0  0  0  0  0  0  0  0
    2.8443   -0.2500    0.2412 C   0  0  0  0  0  0  0  0  0  0  0  0
    3.3362    1.0032    0.6295 C   0  0  0  0  0  0  0  0  0  0  0  0
    3.7720   -1.4294    0.0944 C   0  0  0  0  0  0  0  0  0  0  0  0
    3.8744   -2.1867    1.3218 N   0  0  0  0  0  0  0  0  0  0  0  0
    4.7885   -2.0298    2.3237 C   0  0  0  0  0  0  0  0  0  0  0  0
    4.4561   -3.0457    3.2116 C   0  0  0  0  0  0  0  0  0  0  0  0
    3.4085   -3.7712    2.7229 N   0  0  0  0  0  0  0  0  0  0  0  0
    3.0611   -3.2449    1.5493 N   0  0  0  0  0  0  0  0  0  0  0  0
    5.7890   -1.1247    2.4544 N   0  0  0  0  0  0  0  0  0  0  0  0
    6.4724   -1.3228    3.6187 C   0  0  0  0  0  0  0  0  0  0  0  0
    6.1435   -2.3379    4.5287 C   0  0  0  0  0  0  0  0  0  0  0  0
    5.1353   -3.2378    4.3696 N   0  0  0  0  0  0  0  0  0  0  0  0
    7.5827   -0.4208    3.8843 C   0  0  0  0  0  0  0  0  0  0  0  0
    7.9907    0.6151    3.0636 C   0  0  0  0  0  0  0  0  0  0  0  0
    9.0571    1.2000    3.6817 N   0  0  0  0  0  0  0  0  0  0  0  0
    9.3731    0.6221    4.8582 N   0  0  0  0  0  0  0  0  0  0  0  0
    8.4845   -0.3658    4.9717 C   0  0  0  0  0  0  0  0  0  0  0  0
    9.8347    2.3434    3.2331 C   0  0  0  0  0  0  0  0  0  0  0  0
    9.7576    3.5011    4.2258 C   0  0  0  0  0  0  0  0  0  0  0  0
   10.3679    3.1820    5.4753 O   0  0  0  0  0  0  0  0  0  0  0  0
    4.0069    3.5384    1.3127 H   0  0  0  0  0  0  0  0  0  0  0  0
    2.4205    5.4472    1.4357 H   0  0  0  0  0  0  0  0  0  0  0  0
    0.0138    5.0269    0.9230 H   0  0  0  0  0  0  0  0  0  0  0  0
   -0.4390    0.6039   -0.0841 H   0  0  0  0  0  0  0  0  0  0  0  0
    1.0484   -1.3462   -0.2812 H   0  0  0  0  0  0  0  0  0  0  0  0
    4.3970    1.1218    0.8464 H   0  0  0  0  0  0  0  0  0  0  0  0
    3.4213   -2.1044   -0.6955 H   0  0  0  0  0  0  0  0  0  0  0  0
    4.7779   -1.1025   -0.1932 H   0  0  0  0  0  0  0  0  0  0  0  0
    6.6964   -2.4729    5.4532 H   0  0  0  0  0  0  0  0  0  0  0  0
    7.6153    0.9686    2.1129 H   0  0  0  0  0  0  0  0  0  0  0  0
    8.5383   -0.9986    5.8483 H   0  0  0  0  0  0  0  0  0  0  0  0
   10.8652    1.9899    3.1169 H   0  0  0  0  0  0  0  0  0  0  0  0
    9.4495    2.6505    2.2556 H   0  0  0  0  0  0  0  0  0  0  0  0
   10.2905    4.3680    3.8238 H   0  0  0  0  0  0  0  0  0  0  0  0
    8.7202    3.7953    4.4155 H   0  0  0  0  0  0  0  0  0  0  0  0
   10.0670    2.2750    5.7117 H   0  0  0  0  0  0  0  0  0  0  0  0
  1  2  2  0  0  0  0
  2  3  1  0  0  0  0
  2 29  1  0  0  0  0
  3  4  2  0  0  0  0
  3 30  1  0  0  0  0
  4  5  1  0  0  0  0
  4 31  1  0  0  0  0
  5  6  2  0  0  0  0
  6  1  1  0  0  0  0
  6  7  1  0  0  0  0
  7  8  2  0  0  0  0
  7 32  1  0  0  0  0
  8  9  1  0  0  0  0
  8 33  1  0  0  0  0
  9 10  2  0  0  0  0
  9 11  1  0  0  0  0
 10  1  1  0  0  0  0
 10 34  1  0  0  0  0
 11 12  1  0  0  0  0
 11 35  1  0  0  0  0
 11 36  1  0  0  0  0
 12 13  1  0  0  0  0
 13 14  2  0  0  0  0
 13 17  1  0  0  0  0
 14 15  1  0  0  0  0
 15 16  2  0  0  0  0
 16 12  1  0  0  0  0
 17 18  2  0  0  0  0
 18 19  1  0  0  0  0
 18 21  1  0  0  0  0
 19 20  2  0  0  0  0
 19 37  1  0  0  0  0
 20 14  1  0  0  0  0
 21 22  2  0  0  0  0
 22 23  1  0  0  0  0
 22 38  1  0  0  0  0
 23 24  1  0  0  0  0
 23 26  1  0  0  0  0
 24 25  2  0  0  0  0
 25 21  1  0  0  0  0
 25 39  1  0  0  0  0
 26 27  1  0  0  0  0
 26 40  1  0  0  0  0
 26 41  1  0  0  0  0
 27 28  1  0  0  0  0
 27 42  1  0  0  0  0
 27 43  1  0  0  0  0
 28 44  1  0  0  0  0
M  END
>  <Mol_ID>
57

>  <Formula>
C19H16N8O

>  <MolWeight>
372.38334

>  <Cat>
S1094

>  <Name>
PF-04217903

>  <Synonyms>
N/A

>  <Target>
c-Met

>  <Form>
free base

>  <CAS>
956905-27-4

>  <URL>
http://selleckchem.com/products/PF-04217903.html

$$$$
