untitled.cdx
 OpenBabel08302522033D

 55 58  0  0  0  0  0  0  0  0999 V2000
    2.4222   -0.3100   -0.7261 C   0  0  0  0  0  0  0  0  0  0  0  0
    2.4558    0.9761   -0.1758 C   0  0  0  0  0  0  0  0  0  0  0  0
    1.2391    1.6690   -0.0716 C   0  0  0  0  0  0  0  0  0  0  0  0
   -0.0083    1.0011   -0.2126 C   0  0  0  0  0  0  0  0  0  0  0  0
   -0.0230   -0.3473   -0.5676 C   0  0  0  0  0  0  0  0  0  0  0  0
    1.1818   -0.9500   -0.8954 C   0  0  0  0  0  0  0  0  0  0  0  0
   -1.2679    1.5589    0.0698 C   0  0  0  0  0  0  0  0  0  0  0  0
   -2.3916    0.8202    0.1024 N   0  0  0  0  0  0  0  0  0  0  0  0
   -2.2655   -0.4740   -0.1928 C   0  0  0  0  0  0  0  0  0  0  0  0
   -1.1444   -1.0839   -0.5730 N   0  0  0  0  0  0  0  0  0  0  0  0
   -1.3753    2.9635    0.2938 N   0  0  0  0  0  0  0  0  0  0  0  0
   -2.4413    3.5842    0.9850 C   0  0  0  0  0  0  0  0  0  0  0  0
   -2.9463    3.0307    2.1708 C   0  0  0  0  0  0  0  0  0  0  0  0
   -3.9726    3.6594    2.8759 C   0  0  0  0  0  0  0  0  0  0  0  0
   -4.4910    4.8570    2.4024 C   0  0  0  0  0  0  0  0  0  0  0  0
   -3.9916    5.4431    1.2451 C   0  0  0  0  0  0  0  0  0  0  0  0
   -2.9545    4.8185    0.5455 C   0  0  0  0  0  0  0  0  0  0  0  0
   -5.4841    5.4566    3.0728 F   0  0  0  0  0  0  0  0  0  0  0  0
    3.4864   -1.1258   -1.0036 O   0  0  0  0  0  0  0  0  0  0  0  0
    4.6043   -0.5275   -1.6483 C   0  0  0  0  0  0  0  0  0  0  0  0
    3.6420    1.4651    0.3356 O   0  0  0  0  0  0  0  0  0  0  0  0
    3.5299    2.4440    1.3885 C   0  0  0  0  0  0  0  0  0  0  0  0
    4.3503    2.1161    2.6422 C   0  0  0  0  0  0  0  0  0  0  0  0
    5.8778    2.1955    2.5234 C   0  0  0  0  0  0  0  0  0  0  0  0
    6.5397    2.1307    3.8481 N   0  0  0  0  0  0  0  0  0  0  0  0
    8.0169    2.2054    3.7439 C   0  0  0  0  0  0  0  0  0  0  0  0
    8.6808    0.9018    3.2600 C   0  0  0  0  0  0  0  0  0  0  0  0
    8.3025   -0.2211    4.0676 O   0  0  0  0  0  0  0  0  0  0  0  0
    6.8751   -0.3573    4.1176 C   0  0  0  0  0  0  0  0  0  0  0  0
    6.2214    0.9253    4.6484 C   0  0  0  0  0  0  0  0  0  0  0  0
    1.2218    2.7124    0.2330 H   0  0  0  0  0  0  0  0  0  0  0  0
    1.1640   -1.9810   -1.2439 H   0  0  0  0  0  0  0  0  0  0  0  0
   -3.1591   -1.0844   -0.1112 H   0  0  0  0  0  0  0  0  0  0  0  0
   -1.1731    3.4269   -0.5871 H   0  0  0  0  0  0  0  0  0  0  0  0
   -2.5378    2.0984    2.5523 H   0  0  0  0  0  0  0  0  0  0  0  0
   -4.3659    3.2220    3.7876 H   0  0  0  0  0  0  0  0  0  0  0  0
   -4.4071    6.3851    0.8995 H   0  0  0  0  0  0  0  0  0  0  0  0
   -2.5713    5.2916   -0.3520 H   0  0  0  0  0  0  0  0  0  0  0  0
    4.3190    0.0507   -2.5344 H   0  0  0  0  0  0  0  0  0  0  0  0
    5.1915    0.0758   -0.9504 H   0  0  0  0  0  0  0  0  0  0  0  0
    5.2507   -1.3426   -1.9906 H   0  0  0  0  0  0  0  0  0  0  0  0
    3.7992    3.4224    0.9794 H   0  0  0  0  0  0  0  0  0  0  0  0
    2.5081    2.5132    1.7762 H   0  0  0  0  0  0  0  0  0  0  0  0
    4.0353    2.8235    3.4228 H   0  0  0  0  0  0  0  0  0  0  0  0
    4.0615    1.1130    2.9700 H   0  0  0  0  0  0  0  0  0  0  0  0
    6.2379    1.4155    1.8451 H   0  0  0  0  0  0  0  0  0  0  0  0
    6.1354    3.1636    2.0734 H   0  0  0  0  0  0  0  0  0  0  0  0
    8.4028    2.4293    4.7476 H   0  0  0  0  0  0  0  0  0  0  0  0
    8.3212    3.0463    3.1109 H   0  0  0  0  0  0  0  0  0  0  0  0
    8.4336    0.6886    2.2158 H   0  0  0  0  0  0  0  0  0  0  0  0
    9.7694    0.9959    3.3291 H   0  0  0  0  0  0  0  0  0  0  0  0
    6.6543   -1.1929    4.7869 H   0  0  0  0  0  0  0  0  0  0  0  0
    6.5021   -0.6243    3.1188 H   0  0  0  0  0  0  0  0  0  0  0  0
    6.5977    1.1034    5.6662 H   0  0  0  0  0  0  0  0  0  0  0  0
    5.1431    0.7873    4.7681 H   0  0  0  0  0  0  0  0  0  0  0  0
  1  2  2  0  0  0  0
  1 19  1  0  0  0  0
  2  3  1  0  0  0  0
  2 21  1  0  0  0  0
  3  4  2  0  0  0  0
  3 31  1  0  0  0  0
  4  5  1  0  0  0  0
  4  7  1  0  0  0  0
  5  6  2  0  0  0  0
  6  1  1  0  0  0  0
  6 32  1  0  0  0  0
  7  8  2  0  0  0  0
  7 11  1  0  0  0  0
  8  9  1  0  0  0  0
  9 10  2  0  0  0  0
  9 33  1  0  0  0  0
 10  5  1  0  0  0  0
 11 12  1  0  0  0  0
 11 34  1  0  0  0  0
 12 13  2  0  0  0  0
 13 14  1  0  0  0  0
 13 35  1  0  0  0  0
 14 15  2  0  0  0  0
 14 36  1  0  0  0  0
 15 16  1  0  0  0  0
 15 18  1  0  0  0  0
 16 17  2  0  0  0  0
 16 37  1  0  0  0  0
 17 12  1  0  0  0  0
 17 38  1  0  0  0  0
 19 20  1  0  0  0  0
 20 39  1  0  0  0  0
 20 40  1  0  0  0  0
 20 41  1  0  0  0  0
 21 22  1  0  0  0  0
 22 23  1  0  0  0  0
 22 42  1  0  0  0  0
 22 43  1  0  0  0  0
 23 24  1  0  0  0  0
 23 44  1  0  0  0  0
 23 45  1  0  0  0  0
 24 25  1  0  0  0  0
 24 46  1  0  0  0  0
 24 47  1  0  0  0  0
 25 26  1  0  0  0  0
 26 27  1  0  0  0  0
 26 48  1  0  0  0  0
 26 49  1  0  0  0  0
 27 28  1  0  0  0  0
 27 50  1  0  0  0  0
 27 51  1  0  0  0  0
 28 29  1  0  0  0  0
 29 30  1  0  0  0  0
 29 52  1  0  0  0  0
 29 53  1  0  0  0  0
 30 25  1  0  0  0  0
 30 54  1  0  0  0  0
 30 55  1  0  0  0  0
M  END
>  <Mol_ID>
14

>  <Formula>
C22H24ClFN4O3

>  <MolWeight>
446.9023632

>  <Cat>
S1025

>  <Name>
Gefitinib (ZD1839)

>  <Synonyms>
Iressa,ZD1839

>  <Target>
Apoptosis related,Autophagy,EGFR

>  <Form>
free base

>  <CAS>
184475-35-2

>  <URL>
http://selleckchem.com/products/Gefitinib.html

$$$$
