untitled.cdx
 OpenBabel08302521243D

 54 56  0  0  0  0  0  0  0  0999 V2000
    1.6044    4.1006    3.4902 C   0  0  0  0  0  0  0  0  0  0  0  0
    0.9336    3.5856    2.3779 C   0  0  0  0  0  0  0  0  0  0  0  0
    1.6512    3.0798    1.2837 C   0  0  0  0  0  0  0  0  0  0  0  0
    3.0471    3.1269    1.3274 C   0  0  0  0  0  0  0  0  0  0  0  0
    3.7219    3.6424    2.4308 C   0  0  0  0  0  0  0  0  0  0  0  0
    2.9985    4.1262    3.5192 C   0  0  0  0  0  0  0  0  0  0  0  0
    3.7641    2.6425    0.3026 F   0  0  0  0  0  0  0  0  0  0  0  0
    0.9406    2.4533    0.1137 C   0  0  0  0  0  0  0  0  0  0  0  0
    0.5822    3.3845   -1.0241 C   0  0  0  0  0  0  0  0  0  0  0  0
    1.4815    3.5631   -2.0850 C   0  0  0  0  0  0  0  0  0  0  0  0
    1.1056    4.2949   -3.2247 C   0  0  0  0  0  0  0  0  0  0  0  0
   -0.1771    4.8646   -3.3463 C   0  0  0  0  0  0  0  0  0  0  0  0
   -1.0050    4.7889   -2.2164 C   0  0  0  0  0  0  0  0  0  0  0  0
   -0.6588    4.0327   -1.0855 C   0  0  0  0  0  0  0  0  0  0  0  0
   -1.4894    3.8827   -0.0038 O   0  0  0  0  0  0  0  0  0  0  0  0
   -2.8804    4.0735   -0.2493 C   0  0  0  0  0  0  0  0  0  0  0  0
    2.0812    4.4430   -4.3298 C   0  0  0  0  0  0  0  0  0  0  0  0
   -0.5799    5.4718   -4.5675 N   0  0  0  0  0  0  0  0  0  0  0  0
    1.6412    5.1523   -5.5501 C   0  0  0  0  0  0  0  0  0  0  0  0
    0.3765    5.6019   -5.5737 C   0  0  0  0  0  0  0  0  0  0  0  0
    3.2250    4.0070   -4.2575 O   0  0  0  0  0  0  0  0  0  0  0  0
   -2.0496    5.7516   -4.7928 C   0  0  1  0  0  0  0  0  0  0  0  0
   -2.4288    7.2206   -4.4493 C   0  0  0  0  0  0  0  0  0  0  0  0
   -2.5287    5.2402   -6.1765 C   0  0  0  0  0  0  0  0  0  0  0  0
   -1.6437    8.2951   -5.2001 C   0  0  0  0  0  0  0  0  0  0  0  0
   -3.9313    7.4792   -4.6369 C   0  0  0  0  0  0  0  0  0  0  0  0
   -2.3747    3.8191   -6.2602 O   0  0  0  0  0  0  0  0  0  0  0  0
    2.5010    5.3494   -6.7351 C   0  0  0  0  0  0  0  0  0  0  0  0
    3.7653    4.8963   -6.5965 O   0  0  0  0  0  0  0  0  0  0  0  0
    2.1075    5.8747   -7.7670 O   0  0  0  0  0  0  0  0  0  0  0  0
    1.0370    4.4751    4.3391 H   0  0  0  0  0  0  0  0  0  0  0  0
   -0.1545    3.5637    2.3758 H   0  0  0  0  0  0  0  0  0  0  0  0
    4.8071    3.6525    2.4386 H   0  0  0  0  0  0  0  0  0  0  0  0
    3.5190    4.5192    4.3887 H   0  0  0  0  0  0  0  0  0  0  0  0
    1.5525    1.6298   -0.2809 H   0  0  0  0  0  0  0  0  0  0  0  0
    0.0360    1.9413    0.4712 H   0  0  0  0  0  0  0  0  0  0  0  0
    2.4663    3.0985   -2.0428 H   0  0  0  0  0  0  0  0  0  0  0  0
   -1.9393    5.3324   -2.2049 H   0  0  0  0  0  0  0  0  0  0  0  0
   -3.1156    5.1379   -0.3502 H   0  0  0  0  0  0  0  0  0  0  0  0
   -3.2114    3.5129   -1.1312 H   0  0  0  0  0  0  0  0  0  0  0  0
   -3.4286    3.6914    0.6148 H   0  0  0  0  0  0  0  0  0  0  0  0
    0.0179    6.1202   -6.4607 H   0  0  0  0  0  0  0  0  0  0  0  0
   -2.6253    5.1160   -4.1084 H   0  0  0  0  0  0  0  0  0  0  0  0
   -2.2164    7.3722   -3.3825 H   0  0  0  0  0  0  0  0  0  0  0  0
   -3.5947    5.4324   -6.3203 H   0  0  0  0  0  0  0  0  0  0  0  0
   -1.9990    5.6961   -7.0158 H   0  0  0  0  0  0  0  0  0  0  0  0
   -1.7840    8.2210   -6.2820 H   0  0  0  0  0  0  0  0  0  0  0  0
   -1.9775    9.2921   -4.8867 H   0  0  0  0  0  0  0  0  0  0  0  0
   -0.5749    8.2395   -4.9758 H   0  0  0  0  0  0  0  0  0  0  0  0
   -4.5288    6.7448   -4.0870 H   0  0  0  0  0  0  0  0  0  0  0  0
   -4.2039    8.4736   -4.2665 H   0  0  0  0  0  0  0  0  0  0  0  0
   -4.2217    7.4411   -5.6921 H   0  0  0  0  0  0  0  0  0  0  0  0
   -1.4943    3.6064   -5.9006 H   0  0  0  0  0  0  0  0  0  0  0  0
    3.9490    4.4748   -5.7208 H   0  0  0  0  0  0  0  0  0  0  0  0
  1  2  2  0  0  0  0
  1 31  1  0  0  0  0
  2  3  1  0  0  0  0
  2 32  1  0  0  0  0
  3  4  2  0  0  0  0
  3  8  1  0  0  0  0
  4  5  1  0  0  0  0
  4  7  1  0  0  0  0
  5  6  2  0  0  0  0
  5 33  1  0  0  0  0
  6  1  1  0  0  0  0
  6 34  1  0  0  0  0
  8  9  1  0  0  0  0
  8 35  1  0  0  0  0
  8 36  1  0  0  0  0
  9 10  2  0  0  0  0
 10 11  1  0  0  0  0
 10 37  1  0  0  0  0
 11 12  2  0  0  0  0
 11 17  1  0  0  0  0
 12 13  1  0  0  0  0
 12 18  1  0  0  0  0
 13 14  2  0  0  0  0
 13 38  1  0  0  0  0
 14  9  1  0  0  0  0
 14 15  1  0  0  0  0
 15 16  1  0  0  0  0
 16 39  1  0  0  0  0
 16 40  1  0  0  0  0
 16 41  1  0  0  0  0
 17 19  1  0  0  0  0
 17 21  2  0  0  0  0
 18 22  1  0  0  0  0
 19 20  2  0  0  0  0
 19 28  1  0  0  0  0
 20 18  1  0  0  0  0
 20 42  1  0  0  0  0
 22 23  1  0  0  0  0
 22 24  1  0  0  0  0
 22 43  1  1  0  0  0
 23 25  1  0  0  0  0
 23 26  1  0  0  0  0
 23 44  1  0  0  0  0
 24 27  1  0  0  0  0
 24 45  1  0  0  0  0
 24 46  1  0  0  0  0
 25 47  1  0  0  0  0
 25 48  1  0  0  0  0
 25 49  1  0  0  0  0
 26 50  1  0  0  0  0
 26 51  1  0  0  0  0
 26 52  1  0  0  0  0
 27 53  1  0  0  0  0
 28 29  1  0  0  0  0
 28 30  2  0  0  0  0
 29 54  1  0  0  0  0
M  END
>  <Mol_ID>
474

>  <Formula>
C23H23ClFNO5

>  <MolWeight>
447.8838232

>  <Cat>
S2001

>  <Name>
Elvitegravir (JTK-303)

>  <Synonyms>
GS-9137,JTK-303,D06677

>  <Target>
Integrase

>  <Form>
free base

>  <CAS>
697761-98-1

>  <URL>
http://selleckchem.com/products/Elvitegravir.html

$$$$
