Upadacitinib (ABT-494)
 OpenBabel08302521343D

 46 49  0  0  0  0  0  0  0  0999 V2000
    2.1626   -0.0719    1.3444 C   0  0  0  0  0  0  0  0  0  0  0  0
    1.6232    1.0339    2.2488 C   0  0  0  0  0  0  0  0  0  0  0  0
    4.1719   -0.2908   -3.2843 C   0  0  0  0  0  0  0  0  0  0  0  0
    4.2797   -1.6289   -3.5145 N   0  0  0  0  0  0  0  0  0  0  0  0
    4.7780    0.5159   -3.9863 O   0  0  0  0  0  0  0  0  0  0  0  0
    5.2517   -2.1172   -4.5033 C   0  0  0  0  0  0  0  0  0  0  0  0
    6.6874   -2.3378   -4.0007 C   0  0  0  0  0  0  0  0  0  0  0  0
    6.8114   -2.1204   -2.6718 F   0  0  0  0  0  0  0  0  0  0  0  0
    7.0586   -3.6244   -4.2228 F   0  0  0  0  0  0  0  0  0  0  0  0
    7.5810   -1.5532   -4.6393 F   0  0  0  0  0  0  0  0  0  0  0  0
    5.8975    2.0679   -0.1562 N   0  0  0  0  0  0  0  0  0  0  0  0
    4.7799    1.2734    0.0733 C   0  0  0  0  0  0  0  0  0  0  0  0
    6.1593    3.3279   -0.7394 C   0  0  0  0  0  0  0  0  0  0  0  0
    6.9929    1.3400    0.2574 C   0  0  0  0  0  0  0  0  0  0  0  0
    5.3219    0.1399    0.6669 C   0  0  0  0  0  0  0  0  0  0  0  0
    7.4954    3.6476   -0.9004 C   0  0  0  0  0  0  0  0  0  0  0  0
    5.3828    4.3975   -1.2176 C   0  0  0  0  0  0  0  0  0  0  0  0
    6.6812    0.1971    0.8113 N   0  0  0  0  0  0  0  0  0  0  0  0
    8.3448    1.8138    0.0447 C   0  0  0  0  0  0  0  0  0  0  0  0
    8.6098    2.9536   -0.5393 N   0  0  0  0  0  0  0  0  0  0  0  0
    7.5569    4.8359   -1.5684 N   0  0  0  0  0  0  0  0  0  0  0  0
    6.2794    5.3175   -1.7426 C   0  0  0  0  0  0  0  0  0  0  0  0
    3.3562    1.5422   -0.3970 C   0  0  2  0  0  0  0  0  0  0  0  0
    2.3451    0.3817   -0.1134 C   0  0  1  0  0  0  0  0  0  0  0  0
    3.2822    1.5172   -1.9324 C   0  0  0  0  0  0  0  0  0  0  0  0
    2.7713   -0.6916   -1.1569 C   0  0  0  0  0  0  0  0  0  0  0  0
    3.3503    0.0977   -2.2567 N   0  0  0  0  0  0  0  0  0  0  0  0
    1.4732   -0.9236    1.3825 H   0  0  0  0  0  0  0  0  0  0  0  0
    3.0853   -0.4309    1.7958 H   0  0  0  0  0  0  0  0  0  0  0  0
    0.5576    1.2007    2.0650 H   0  0  0  0  0  0  0  0  0  0  0  0
    1.7400    0.7515    3.3012 H   0  0  0  0  0  0  0  0  0  0  0  0
    2.1514    1.9808    2.1057 H   0  0  0  0  0  0  0  0  0  0  0  0
    3.8745   -2.2769   -2.8592 H   0  0  0  0  0  0  0  0  0  0  0  0
    4.8504   -3.0580   -4.8920 H   0  0  0  0  0  0  0  0  0  0  0  0
    5.2834   -1.4150   -5.3459 H   0  0  0  0  0  0  0  0  0  0  0  0
    4.8337   -0.7737    0.9556 H   0  0  0  0  0  0  0  0  0  0  0  0
    4.3089    4.5203   -1.2076 H   0  0  0  0  0  0  0  0  0  0  0  0
    9.1718    1.1720    0.3821 H   0  0  0  0  0  0  0  0  0  0  0  0
    8.4188    5.2671   -1.8775 H   0  0  0  0  0  0  0  0  0  0  0  0
    6.1305    6.2712   -2.2338 H   0  0  0  0  0  0  0  0  0  0  0  0
    2.9950    2.4979   -0.0025 H   0  0  0  0  0  0  0  0  0  0  0  0
    1.3511    0.7332   -0.4334 H   0  0  0  0  0  0  0  0  0  0  0  0
    2.3009    1.8697   -2.2803 H   0  0  0  0  0  0  0  0  0  0  0  0
    4.0489    2.1107   -2.4314 H   0  0  0  0  0  0  0  0  0  0  0  0
    3.5205   -1.3956   -0.7799 H   0  0  0  0  0  0  0  0  0  0  0  0
    1.9179   -1.2654   -1.5318 H   0  0  0  0  0  0  0  0  0  0  0  0
  1  2  1  0  0  0  0
  1 28  1  0  0  0  0
  1 29  1  0  0  0  0
  2 30  1  0  0  0  0
  2 31  1  0  0  0  0
  2 32  1  0  0  0  0
  3  4  1  0  0  0  0
  3  5  2  0  0  0  0
  3 27  1  0  0  0  0
  4  6  1  0  0  0  0
  4 33  1  0  0  0  0
  6  7  1  0  0  0  0
  6 34  1  0  0  0  0
  6 35  1  0  0  0  0
  7  8  1  0  0  0  0
  7  9  1  0  0  0  0
  7 10  1  0  0  0  0
 11 12  1  0  0  0  0
 11 13  1  0  0  0  0
 11 14  1  0  0  0  0
 12 15  2  0  0  0  0
 13 16  2  0  0  0  0
 13 17  1  0  0  0  0
 14 18  2  0  0  0  0
 14 19  1  0  0  0  0
 15 18  1  0  0  0  0
 15 36  1  0  0  0  0
 16 20  1  0  0  0  0
 16 21  1  0  0  0  0
 17 22  2  0  0  0  0
 17 37  1  0  0  0  0
 19 20  2  0  0  0  0
 19 38  1  0  0  0  0
 21 22  1  0  0  0  0
 21 39  1  0  0  0  0
 22 40  1  0  0  0  0
 23 12  1  0  0  0  0
 23 24  1  0  0  0  0
 23 25  1  0  0  0  0
 23 41  1  1  0  0  0
 24 26  1  0  0  0  0
 24 42  1  6  0  0  0
 24  1  1  0  0  0  0
 25 27  1  0  0  0  0
 25 43  1  0  0  0  0
 25 44  1  0  0  0  0
 26 27  1  0  0  0  0
 26 45  1  0  0  0  0
 26 46  1  0  0  0  0
M  END
>  <Mol_ID>
6569

>  <Formula>
C17H19F3N6O

>  <MolWeight>
380.3675696

>  <Cat>
S8162

>  <Name>
Upadacitinib (ABT-494)

>  <Synonyms>
N/A

>  <Target>
JAK

>  <Form>
free base

>  <CAS>
1310726-60-3

>  <URL>
http://www.selleckchem.com/products/upadacitinib.html

$$$$
