Uracil.cdx
 OpenBabel08302522043D

 12 12  0  0  0  0  0  0  0  0999 V2000
    0.0433    0.9317    0.0019 N   0  0  0  0  0  0  0  0  0  0  0  0
    1.2419    0.2755   -0.0086 C   0  0  0  0  0  0  0  0  0  0  0  0
   -1.1839    0.3312    0.0141 C   0  0  0  0  0  0  0  0  0  0  0  0
    1.1721   -1.1998   -0.0154 C   0  0  0  0  0  0  0  0  0  0  0  0
    2.3217    0.8547   -0.0116 O   0  0  0  0  0  0  0  0  0  0  0  0
   -1.1718   -1.0382    0.0155 N   0  0  0  0  0  0  0  0  0  0  0  0
   -2.2300    0.9711    0.0231 O   0  0  0  0  0  0  0  0  0  0  0  0
   -0.0276   -1.7851   -0.0008 C   0  0  0  0  0  0  0  0  0  0  0  0
    0.0638    1.9389    0.0051 H   0  0  0  0  0  0  0  0  0  0  0  0
    2.1046   -1.7473   -0.0306 H   0  0  0  0  0  0  0  0  0  0  0  0
   -2.0815   -1.4857    0.0264 H   0  0  0  0  0  0  0  0  0  0  0  0
   -0.1469   -2.8637   -0.0025 H   0  0  0  0  0  0  0  0  0  0  0  0
  1  2  1  0  0  0  0
  1  3  1  0  0  0  0
  1  9  1  0  0  0  0
  2  4  1  0  0  0  0
  2  5  2  0  0  0  0
  3  6  1  0  0  0  0
  3  7  2  0  0  0  0
  4  8  2  0  0  0  0
  4 10  1  0  0  0  0
  6  8  1  0  0  0  0
  6 11  1  0  0  0  0
  8 12  1  0  0  0  0
M  END
>  <Mol_ID>
1297

>  <Formula>
C4H4N2O2

>  <MolWeight>
112.08676

>  <Cat>
S4177

>  <Name>
Uracil

>  <Synonyms>
N/A

>  <Target>
Others

>  <Form>
free base

>  <CAS>
66-22-8

>  <URL>
http://selleckchem.com/products/uracil.html

$$$$
