Urapidil
 OpenBabel08302521303D

 57 59  0  0  0  0  0  0  0  0999 V2000
   -0.9671    2.1840   -1.5642 O   0  0  0  0  0  0  0  0  0  0  0  0
   11.5808   -0.8407   -2.9952 O   0  0  0  0  0  0  0  0  0  0  0  0
   12.0647    3.7183   -2.9794 O   0  0  0  0  0  0  0  0  0  0  0  0
    4.3446    1.6709   -1.6851 N   0  0  0  0  0  0  0  0  0  0  0  0
    1.6730    1.8140   -0.3964 N   0  0  0  0  0  0  0  0  0  0  0  0
    7.7451    1.9734   -2.9426 N   0  0  0  0  0  0  0  0  0  0  0  0
    9.7050    0.4977   -3.1536 N   0  0  0  0  0  0  0  0  0  0  0  0
   11.8616    1.4215   -2.8121 N   0  0  0  0  0  0  0  0  0  0  0  0
    3.1315    1.0102   -2.2290 C   0  0  0  0  0  0  0  0  0  0  0  0
    4.1425    1.9397   -0.2449 C   0  0  0  0  0  0  0  0  0  0  0  0
    1.7559    1.6284   -1.8503 C   0  0  0  0  0  0  0  0  0  0  0  0
    2.7969    2.5791    0.1703 C   0  0  0  0  0  0  0  0  0  0  0  0
    4.7389    2.8296   -2.4923 C   0  0  0  0  0  0  0  0  0  0  0  0
    6.0256    3.5348   -2.0390 C   0  0  0  0  0  0  0  0  0  0  0  0
    0.4740    1.7013    0.3076 C   0  0  0  0  0  0  0  0  0  0  0  0
    7.2033    2.6179   -1.7336 C   0  0  0  0  0  0  0  0  0  0  0  0
   -0.8302    1.8006   -0.2463 C   0  0  0  0  0  0  0  0  0  0  0  0
    0.5424    1.3713    1.6812 C   0  0  0  0  0  0  0  0  0  0  0  0
    9.1217    1.7504   -3.0354 C   0  0  0  0  0  0  0  0  0  0  0  0
   -1.9683    1.5996    0.5627 C   0  0  0  0  0  0  0  0  0  0  0  0
   -0.5916    1.1589    2.4744 C   0  0  0  0  0  0  0  0  0  0  0  0
   -1.8485    1.2690    1.9096 C   0  0  0  0  0  0  0  0  0  0  0  0
    9.9258    2.8234   -3.0063 C   0  0  0  0  0  0  0  0  0  0  0  0
   11.0830    0.2888   -2.9921 C   0  0  0  0  0  0  0  0  0  0  0  0
   11.3805    2.6988   -2.9506 C   0  0  0  0  0  0  0  0  0  0  0  0
    8.9165   -0.7117   -3.3395 C   0  0  0  0  0  0  0  0  0  0  0  0
   -2.1036    1.6524   -2.2443 C   0  0  0  0  0  0  0  0  0  0  0  0
   13.2742    1.2330   -2.5542 C   0  0  0  0  0  0  0  0  0  0  0  0
    7.2006    1.1399   -3.1341 H   0  0  0  0  0  0  0  0  0  0  0  0
    3.2022    0.9213   -3.3202 H   0  0  0  0  0  0  0  0  0  0  0  0
    3.1443   -0.0214   -1.8526 H   0  0  0  0  0  0  0  0  0  0  0  0
    4.2227    0.9698    0.2647 H   0  0  0  0  0  0  0  0  0  0  0  0
    4.9619    2.5361    0.1698 H   0  0  0  0  0  0  0  0  0  0  0  0
    1.6133    2.5862   -2.3646 H   0  0  0  0  0  0  0  0  0  0  0  0
    0.9965    0.9228   -2.2040 H   0  0  0  0  0  0  0  0  0  0  0  0
    2.7478    3.6195   -0.1725 H   0  0  0  0  0  0  0  0  0  0  0  0
    2.7834    2.6125    1.2645 H   0  0  0  0  0  0  0  0  0  0  0  0
    4.9104    2.4885   -3.5220 H   0  0  0  0  0  0  0  0  0  0  0  0
    3.9330    3.5723   -2.5410 H   0  0  0  0  0  0  0  0  0  0  0  0
    6.3190    4.2597   -2.8096 H   0  0  0  0  0  0  0  0  0  0  0  0
    5.8082    4.1255   -1.1405 H   0  0  0  0  0  0  0  0  0  0  0  0
    7.9769    3.2307   -1.2470 H   0  0  0  0  0  0  0  0  0  0  0  0
    6.9448    1.8411   -1.0057 H   0  0  0  0  0  0  0  0  0  0  0  0
    1.5077    1.2220    2.1573 H   0  0  0  0  0  0  0  0  0  0  0  0
   -2.9734    1.7127    0.1707 H   0  0  0  0  0  0  0  0  0  0  0  0
   -0.4778    0.8925    3.5179 H   0  0  0  0  0  0  0  0  0  0  0  0
   -2.7357    1.1028    2.5137 H   0  0  0  0  0  0  0  0  0  0  0  0
    9.5376    3.8329   -2.9774 H   0  0  0  0  0  0  0  0  0  0  0  0
    9.4422   -1.3963   -4.0150 H   0  0  0  0  0  0  0  0  0  0  0  0
    8.7945   -1.2100   -2.3726 H   0  0  0  0  0  0  0  0  0  0  0  0
    7.9413   -0.5160   -3.7901 H   0  0  0  0  0  0  0  0  0  0  0  0
   -2.0124    1.9062   -3.3047 H   0  0  0  0  0  0  0  0  0  0  0  0
   -2.1385    0.5604   -2.1607 H   0  0  0  0  0  0  0  0  0  0  0  0
   -3.0375    2.1023   -1.8920 H   0  0  0  0  0  0  0  0  0  0  0  0
   13.3857    0.6228   -1.6513 H   0  0  0  0  0  0  0  0  0  0  0  0
   13.7289    0.6986   -3.3933 H   0  0  0  0  0  0  0  0  0  0  0  0
   13.7973    2.1807   -2.4007 H   0  0  0  0  0  0  0  0  0  0  0  0
  1 17  1  0  0  0  0
  1 27  1  0  0  0  0
  2 24  2  0  0  0  0
  3 25  2  0  0  0  0
  4  9  1  0  0  0  0
  4 10  1  0  0  0  0
  4 13  1  0  0  0  0
  5 11  1  0  0  0  0
  5 12  1  0  0  0  0
  5 15  1  0  0  0  0
  6 16  1  0  0  0  0
  6 19  1  0  0  0  0
  6 29  1  0  0  0  0
  7 19  1  0  0  0  0
  7 24  1  0  0  0  0
  7 26  1  0  0  0  0
  8 24  1  0  0  0  0
  8 25  1  0  0  0  0
  8 28  1  0  0  0  0
  9 11  1  0  0  0  0
  9 30  1  0  0  0  0
  9 31  1  0  0  0  0
 10 12  1  0  0  0  0
 10 32  1  0  0  0  0
 10 33  1  0  0  0  0
 11 34  1  0  0  0  0
 11 35  1  0  0  0  0
 12 36  1  0  0  0  0
 12 37  1  0  0  0  0
 13 14  1  0  0  0  0
 13 38  1  0  0  0  0
 13 39  1  0  0  0  0
 14 16  1  0  0  0  0
 14 40  1  0  0  0  0
 14 41  1  0  0  0  0
 15 17  2  0  0  0  0
 15 18  1  0  0  0  0
 16 42  1  0  0  0  0
 16 43  1  0  0  0  0
 17 20  1  0  0  0  0
 18 21  2  0  0  0  0
 18 44  1  0  0  0  0
 19 23  2  0  0  0  0
 20 22  2  0  0  0  0
 20 45  1  0  0  0  0
 21 22  1  0  0  0  0
 21 46  1  0  0  0  0
 22 47  1  0  0  0  0
 23 25  1  0  0  0  0
 23 48  1  0  0  0  0
 26 49  1  0  0  0  0
 26 50  1  0  0  0  0
 26 51  1  0  0  0  0
 27 52  1  0  0  0  0
 27 53  1  0  0  0  0
 27 54  1  0  0  0  0
 28 55  1  0  0  0  0
 28 56  1  0  0  0  0
 28 57  1  0  0  0  0
M  END
>  <Mol_ID>
5608

>  <Formula>
C20H29N5O3

>  <MolWeight>
387.47596

>  <Cat>
S5965

>  <Name>
Urapidil

>  <Synonyms>
N/A

>  <Target>
5-HT Receptor,Adrenergic Receptor

>  <Form>
Free Base

>  <CAS>
34661-75-1

>  <URL>
http://www.selleckchem.com/products/urapidil.html

$$$$
