Urapidil hydrochloride.cdx
 OpenBabel08302521443D

 57 59  0  0  0  0  0  0  0  0999 V2000
   -2.6356   -0.8949   -1.2298 N   0  0  0  0  0  0  0  0  0  0  0  0
   -1.3369   -0.4255   -1.1394 C   0  0  0  0  0  0  0  0  0  0  0  0
   -1.1072    0.8786   -1.5971 N   0  0  0  0  0  0  0  0  0  0  0  0
   -2.1034    1.6894   -2.1278 C   0  0  0  0  0  0  0  0  0  0  0  0
   -3.3529    1.2032   -2.1607 C   0  0  0  0  0  0  0  0  0  0  0  0
   -3.6844   -0.1462   -1.6963 C   0  0  0  0  0  0  0  0  0  0  0  0
    0.2577    1.3500   -1.4019 C   0  0  0  0  0  0  0  0  0  0  0  0
   -4.8512   -0.5213   -1.7654 O   0  0  0  0  0  0  0  0  0  0  0  0
   -0.4296   -1.1222   -0.6775 O   0  0  0  0  0  0  0  0  0  0  0  0
   -2.8915   -2.2448   -0.7705 C   0  0  0  0  0  0  0  0  0  0  0  0
   -1.8322    2.9563   -2.6187 N   0  0  0  0  0  0  0  0  0  0  0  0
   -2.7633    3.9850   -3.0489 C   0  0  0  0  0  0  0  0  0  0  0  0
   -3.3395    4.7494   -1.8553 C   0  0  0  0  0  0  0  0  0  0  0  0
   -2.2438    5.5185   -1.1087 C   0  0  0  0  0  0  0  0  0  0  0  0
   -2.7425    6.3373    0.0122 N   0  0  0  0  0  0  0  0  0  0  0  0
   -3.6081    7.4605   -0.4211 C   0  0  0  0  0  0  0  0  0  0  0  0
   -2.9013    8.5246   -1.2934 C   0  0  0  0  0  0  0  0  0  0  0  0
   -1.6664    9.0092   -0.6531 N   0  0  0  0  0  0  0  0  0  0  0  0
   -0.7839    7.9875   -0.0651 C   0  0  0  0  0  0  0  0  0  0  0  0
   -1.5973    6.9436    0.7394 C   0  0  0  0  0  0  0  0  0  0  0  0
   -1.4046   10.3557   -0.4210 C   0  0  0  0  0  0  0  0  0  0  0  0
   -2.4667   11.2424   -0.1621 C   0  0  0  0  0  0  0  0  0  0  0  0
   -2.2588   12.5894    0.1417 C   0  0  0  0  0  0  0  0  0  0  0  0
   -0.9713   13.0985    0.1825 C   0  0  0  0  0  0  0  0  0  0  0  0
    0.1080   12.2643   -0.0926 C   0  0  0  0  0  0  0  0  0  0  0  0
   -0.0916   10.9045   -0.3810 C   0  0  0  0  0  0  0  0  0  0  0  0
    0.9645   10.0754   -0.7032 O   0  0  0  0  0  0  0  0  0  0  0  0
    2.2311   10.4333   -0.1574 C   0  0  0  0  0  0  0  0  0  0  0  0
   -4.1967    1.7581   -2.5463 H   0  0  0  0  0  0  0  0  0  0  0  0
    0.5244    1.2390   -0.3448 H   0  0  0  0  0  0  0  0  0  0  0  0
    0.9352    0.7266   -1.9948 H   0  0  0  0  0  0  0  0  0  0  0  0
    0.4147    2.3956   -1.6693 H   0  0  0  0  0  0  0  0  0  0  0  0
   -2.2774   -2.9385   -1.3535 H   0  0  0  0  0  0  0  0  0  0  0  0
   -2.6007   -2.3246    0.2816 H   0  0  0  0  0  0  0  0  0  0  0  0
   -3.9421   -2.5281   -0.8726 H   0  0  0  0  0  0  0  0  0  0  0  0
   -0.8666    3.1294   -2.8708 H   0  0  0  0  0  0  0  0  0  0  0  0
   -2.2351    4.6826   -3.7099 H   0  0  0  0  0  0  0  0  0  0  0  0
   -3.5718    3.5574   -3.6516 H   0  0  0  0  0  0  0  0  0  0  0  0
   -4.0943    5.4389   -2.2468 H   0  0  0  0  0  0  0  0  0  0  0  0
   -3.8492    4.0673   -1.1647 H   0  0  0  0  0  0  0  0  0  0  0  0
   -1.5351    4.7862   -0.7008 H   0  0  0  0  0  0  0  0  0  0  0  0
   -1.6808    6.1180   -1.8325 H   0  0  0  0  0  0  0  0  0  0  0  0
   -4.4982    7.0840   -0.9355 H   0  0  0  0  0  0  0  0  0  0  0  0
   -3.9973    7.9520    0.4819 H   0  0  0  0  0  0  0  0  0  0  0  0
   -2.6442    8.0908   -2.2672 H   0  0  0  0  0  0  0  0  0  0  0  0
   -3.6159    9.3221   -1.5196 H   0  0  0  0  0  0  0  0  0  0  0  0
   -0.2130    7.5001   -0.8641 H   0  0  0  0  0  0  0  0  0  0  0  0
   -0.0621    8.4131    0.6397 H   0  0  0  0  0  0  0  0  0  0  0  0
   -1.9908    7.4353    1.6401 H   0  0  0  0  0  0  0  0  0  0  0  0
   -0.9254    6.1584    1.1065 H   0  0  0  0  0  0  0  0  0  0  0  0
   -3.4934   10.8849   -0.1462 H   0  0  0  0  0  0  0  0  0  0  0  0
   -3.1102   13.2318    0.3556 H   0  0  0  0  0  0  0  0  0  0  0  0
   -0.8072   14.1438    0.4267 H   0  0  0  0  0  0  0  0  0  0  0  0
    1.0996   12.7042   -0.0869 H   0  0  0  0  0  0  0  0  0  0  0  0
    2.7116   11.1966   -0.7775 H   0  0  0  0  0  0  0  0  0  0  0  0
    2.1539   10.7650    0.8846 H   0  0  0  0  0  0  0  0  0  0  0  0
    2.8666    9.5428   -0.1690 H   0  0  0  0  0  0  0  0  0  0  0  0
  1  2  1  0  0  0  0
  1 10  1  0  0  0  0
  2  3  1  0  0  0  0
  2  9  2  0  0  0  0
  3  4  1  0  0  0  0
  3  7  1  0  0  0  0
  4  5  2  0  0  0  0
  4 11  1  0  0  0  0
  5  6  1  0  0  0  0
  5 29  1  0  0  0  0
  6  1  1  0  0  0  0
  6  8  2  0  0  0  0
  7 30  1  0  0  0  0
  7 31  1  0  0  0  0
  7 32  1  0  0  0  0
 10 33  1  0  0  0  0
 10 34  1  0  0  0  0
 10 35  1  0  0  0  0
 11 12  1  0  0  0  0
 11 36  1  0  0  0  0
 12 13  1  0  0  0  0
 12 37  1  0  0  0  0
 12 38  1  0  0  0  0
 13 14  1  0  0  0  0
 13 39  1  0  0  0  0
 13 40  1  0  0  0  0
 14 15  1  0  0  0  0
 14 41  1  0  0  0  0
 14 42  1  0  0  0  0
 15 16  1  0  0  0  0
 16 17  1  0  0  0  0
 16 43  1  0  0  0  0
 16 44  1  0  0  0  0
 17 18  1  0  0  0  0
 17 45  1  0  0  0  0
 17 46  1  0  0  0  0
 18 19  1  0  0  0  0
 18 21  1  0  0  0  0
 19 20  1  0  0  0  0
 19 47  1  0  0  0  0
 19 48  1  0  0  0  0
 20 15  1  0  0  0  0
 20 49  1  0  0  0  0
 20 50  1  0  0  0  0
 21 22  2  0  0  0  0
 22 23  1  0  0  0  0
 22 51  1  0  0  0  0
 23 24  2  0  0  0  0
 23 52  1  0  0  0  0
 24 25  1  0  0  0  0
 24 53  1  0  0  0  0
 25 26  2  0  0  0  0
 25 54  1  0  0  0  0
 26 21  1  0  0  0  0
 26 27  1  0  0  0  0
 27 28  1  0  0  0  0
 28 55  1  0  0  0  0
 28 56  1  0  0  0  0
 28 57  1  0  0  0  0
M  END
>  <Mol_ID>
918

>  <Formula>
C20H30ClN5O3

>  <MolWeight>
423.9369

>  <Cat>
S2025

>  <Name>
Urapidil HCl

>  <Synonyms>
N/A

>  <Target>
5-HT Receptor

>  <Form>
Hydrochloride

>  <CAS>
64887-14-5

>  <URL>
http://selleckchem.com/products/urapidil-hydrochloride.html

$$$$
