URB597.cdx
 OpenBabel08302521413D

 47 49  0  0  0  0  0  0  0  0999 V2000
    1.4250   -0.0888   -0.0677 C   0  0  0  0  0  0  0  0  0  0  0  0
    0.6535   -1.2612    0.0484 C   0  0  0  0  0  0  0  0  0  0  0  0
   -0.7422   -1.0931    0.1745 C   0  0  0  0  0  0  0  0  0  0  0  0
   -1.3403    0.1612    0.0573 C   0  0  0  0  0  0  0  0  0  0  0  0
   -0.5540    1.3035   -0.0657 C   0  0  0  0  0  0  0  0  0  0  0  0
    0.8318    1.1797   -0.1031 C   0  0  0  0  0  0  0  0  0  0  0  0
    1.2536   -2.6226   -0.0710 C   0  0  0  0  0  0  0  0  0  0  0  0
   -2.7444    0.3720   -0.0279 O   0  0  0  0  0  0  0  0  0  0  0  0
   -3.7361   -0.6128   -0.0415 C   0  0  0  0  0  0  0  0  0  0  0  0
   -4.9600   -0.0298   -0.2513 N   0  0  0  0  0  0  0  0  0  0  0  0
   -6.2012   -0.7261    0.0563 C   0  0  0  0  0  0  0  0  0  0  0  0
   -3.5666   -1.8114    0.1273 O   0  0  0  0  0  0  0  0  0  0  0  0
    0.4815   -3.7045   -0.5440 C   0  0  0  0  0  0  0  0  0  0  0  0
    1.0247   -4.9717   -0.7537 C   0  0  0  0  0  0  0  0  0  0  0  0
    2.3752   -5.1855   -0.5152 C   0  0  0  0  0  0  0  0  0  0  0  0
    3.1875   -4.1441   -0.0546 C   0  0  0  0  0  0  0  0  0  0  0  0
    2.6166   -2.8814    0.1906 C   0  0  0  0  0  0  0  0  0  0  0  0
    4.6433   -4.4385    0.0968 C   0  0  0  0  0  0  0  0  0  0  0  0
    5.4748   -3.4570    0.5559 N   0  0  0  0  0  0  0  0  0  0  0  0
    5.1101   -5.5327   -0.2018 O   0  0  0  0  0  0  0  0  0  0  0  0
   -7.3240   -0.3215   -0.9061 C   0  0  0  0  0  0  0  0  0  0  0  0
   -8.6477   -0.9888   -0.5299 C   0  0  0  0  0  0  0  0  0  0  0  0
   -9.0383   -0.6874    0.9142 C   0  0  0  0  0  0  0  0  0  0  0  0
   -7.9287   -1.0702    1.8881 C   0  0  0  0  0  0  0  0  0  0  0  0
   -6.5962   -0.4327    1.5099 C   0  0  0  0  0  0  0  0  0  0  0  0
    2.5053   -0.1381   -0.1787 H   0  0  0  0  0  0  0  0  0  0  0  0
   -1.3633   -1.9661    0.3331 H   0  0  0  0  0  0  0  0  0  0  0  0
   -1.0147    2.2831   -0.1530 H   0  0  0  0  0  0  0  0  0  0  0  0
    1.4554    2.0647   -0.2058 H   0  0  0  0  0  0  0  0  0  0  0  0
   -4.9559    0.9801   -0.2803 H   0  0  0  0  0  0  0  0  0  0  0  0
   -6.0294   -1.8054   -0.0482 H   0  0  0  0  0  0  0  0  0  0  0  0
   -0.5698   -3.5755   -0.7972 H   0  0  0  0  0  0  0  0  0  0  0  0
    0.3979   -5.7758   -1.1237 H   0  0  0  0  0  0  0  0  0  0  0  0
    2.8002   -6.1696   -0.7114 H   0  0  0  0  0  0  0  0  0  0  0  0
    3.2374   -2.0792    0.5695 H   0  0  0  0  0  0  0  0  0  0  0  0
    6.4568   -3.6948    0.6150 H   0  0  0  0  0  0  0  0  0  0  0  0
    5.1927   -2.5367    0.8480 H   0  0  0  0  0  0  0  0  0  0  0  0
   -7.4521    0.7685   -0.8989 H   0  0  0  0  0  0  0  0  0  0  0  0
   -7.0560   -0.5965   -1.9335 H   0  0  0  0  0  0  0  0  0  0  0  0
   -9.4411   -0.6467   -1.2040 H   0  0  0  0  0  0  0  0  0  0  0  0
   -8.5621   -2.0745   -0.6642 H   0  0  0  0  0  0  0  0  0  0  0  0
   -9.2610    0.3819    1.0155 H   0  0  0  0  0  0  0  0  0  0  0  0
   -9.9556   -1.2295    1.1714 H   0  0  0  0  0  0  0  0  0  0  0  0
   -8.2066   -0.7603    2.9019 H   0  0  0  0  0  0  0  0  0  0  0  0
   -7.8180   -2.1611    1.9062 H   0  0  0  0  0  0  0  0  0  0  0  0
   -5.8139   -0.7889    2.1910 H   0  0  0  0  0  0  0  0  0  0  0  0
   -6.6624    0.6536    1.6581 H   0  0  0  0  0  0  0  0  0  0  0  0
  1  2  2  0  0  0  0
  1 26  1  0  0  0  0
  2  3  1  0  0  0  0
  2  7  1  0  0  0  0
  3  4  2  0  0  0  0
  3 27  1  0  0  0  0
  4  5  1  0  0  0  0
  4  8  1  0  0  0  0
  5  6  2  0  0  0  0
  5 28  1  0  0  0  0
  6  1  1  0  0  0  0
  6 29  1  0  0  0  0
  7 13  2  0  0  0  0
  8  9  1  0  0  0  0
  9 10  1  0  0  0  0
  9 12  2  0  0  0  0
 10 11  1  0  0  0  0
 10 30  1  0  0  0  0
 11 21  1  0  0  0  0
 11 31  1  0  0  0  0
 13 14  1  0  0  0  0
 13 32  1  0  0  0  0
 14 15  2  0  0  0  0
 14 33  1  0  0  0  0
 15 16  1  0  0  0  0
 15 34  1  0  0  0  0
 16 17  2  0  0  0  0
 16 18  1  0  0  0  0
 17  7  1  0  0  0  0
 17 35  1  0  0  0  0
 18 19  1  0  0  0  0
 18 20  2  0  0  0  0
 19 36  1  0  0  0  0
 19 37  1  0  0  0  0
 21 22  1  0  0  0  0
 21 38  1  0  0  0  0
 21 39  1  0  0  0  0
 22 23  1  0  0  0  0
 22 40  1  0  0  0  0
 22 41  1  0  0  0  0
 23 24  1  0  0  0  0
 23 42  1  0  0  0  0
 23 43  1  0  0  0  0
 24 25  1  0  0  0  0
 24 44  1  0  0  0  0
 24 45  1  0  0  0  0
 25 11  1  0  0  0  0
 25 46  1  0  0  0  0
 25 47  1  0  0  0  0
M  END
>  <Mol_ID>
825

>  <Formula>
C20H22N2O3

>  <MolWeight>
338.40028

>  <Cat>
S2631

>  <Name>
URB597

>  <Synonyms>
KDS-4103

>  <Target>
FAAH

>  <Form>
free base

>  <CAS>
546141-08-6

>  <URL>
http://selleckchem.com/products/urb597.html

$$$$
