URB937
 OpenBabel08302521323D

 48 50  0  0  0  0  0  0  0  0999 V2000
    2.3438    0.2594   -0.0843 O   0  0  0  0  0  0  0  0  0  0  0  0
   -3.2197   -0.0202   -0.1053 O   0  0  0  0  0  0  0  0  0  0  0  0
   -4.0849   -1.1037    0.0794 C   0  0  0  0  0  0  0  0  0  0  0  0
   -5.3788   -0.6859   -0.0782 N   0  0  0  0  0  0  0  0  0  0  0  0
   -3.7545   -2.2500    0.3639 O   0  0  0  0  0  0  0  0  0  0  0  0
    0.5069   -5.9576    1.4208 C   0  0  0  0  0  0  0  0  0  0  0  0
   -0.8199   -5.8323    1.7416 N   0  0  0  0  0  0  0  0  0  0  0  0
    1.1375   -6.9727    1.6915 O   0  0  0  0  0  0  0  0  0  0  0  0
    0.3735   -1.1845   -0.0177 C   0  0  0  0  0  0  0  0  0  0  0  0
   -1.0429   -1.2097   -0.0031 C   0  0  0  0  0  0  0  0  0  0  0  0
    0.9864    0.0778   -0.0850 C   0  0  0  0  0  0  0  0  0  0  0  0
   -1.8011   -0.0434   -0.0581 C   0  0  0  0  0  0  0  0  0  0  0  0
    0.2270    1.2514   -0.1476 C   0  0  0  0  0  0  0  0  0  0  0  0
   -1.1672    1.1928   -0.1324 C   0  0  0  0  0  0  0  0  0  0  0  0
    1.0882   -2.4831   -0.0179 C   0  0  0  0  0  0  0  0  0  0  0  0
    0.6249   -3.5318    0.7991 C   0  0  0  0  0  0  0  0  0  0  0  0
    2.1484   -2.7661   -0.8957 C   0  0  0  0  0  0  0  0  0  0  0  0
    1.1256   -4.8318    0.6764 C   0  0  0  0  0  0  0  0  0  0  0  0
    2.7103   -4.0471   -0.9640 C   0  0  0  0  0  0  0  0  0  0  0  0
    2.1891   -5.0841   -0.1906 C   0  0  0  0  0  0  0  0  0  0  0  0
   -6.5168   -1.4927    0.3362 C   0  0  0  0  0  0  0  0  0  0  0  0
   -7.7377   -1.2271   -0.5538 C   0  0  0  0  0  0  0  0  0  0  0  0
   -6.8494   -1.2063    1.8072 C   0  0  0  0  0  0  0  0  0  0  0  0
   -8.9543   -2.0259   -0.0862 C   0  0  0  0  0  0  0  0  0  0  0  0
   -8.0748   -1.9813    2.2812 C   0  0  0  0  0  0  0  0  0  0  0  0
   -9.2823   -1.7480    1.3782 C   0  0  0  0  0  0  0  0  0  0  0  0
    2.7671   -0.5640    0.2108 H   0  0  0  0  0  0  0  0  0  0  0  0
   -5.4975    0.3130   -0.1878 H   0  0  0  0  0  0  0  0  0  0  0  0
   -1.2688   -6.6431    2.1444 H   0  0  0  0  0  0  0  0  0  0  0  0
   -1.4205   -5.1352    1.3233 H   0  0  0  0  0  0  0  0  0  0  0  0
   -1.5433   -2.1719    0.0195 H   0  0  0  0  0  0  0  0  0  0  0  0
    0.7288    2.2139   -0.2101 H   0  0  0  0  0  0  0  0  0  0  0  0
   -1.7485    2.1080   -0.1887 H   0  0  0  0  0  0  0  0  0  0  0  0
   -0.1638   -3.3340    1.5222 H   0  0  0  0  0  0  0  0  0  0  0  0
    2.5258   -2.0015   -1.5732 H   0  0  0  0  0  0  0  0  0  0  0  0
    3.5264   -4.2471   -1.6548 H   0  0  0  0  0  0  0  0  0  0  0  0
    2.5900   -6.0911   -0.2862 H   0  0  0  0  0  0  0  0  0  0  0  0
   -6.2399   -2.5515    0.2395 H   0  0  0  0  0  0  0  0  0  0  0  0
   -7.9822   -0.1569   -0.5472 H   0  0  0  0  0  0  0  0  0  0  0  0
   -7.5089   -1.4867   -1.5945 H   0  0  0  0  0  0  0  0  0  0  0  0
   -5.9913   -1.4548    2.4426 H   0  0  0  0  0  0  0  0  0  0  0  0
   -7.0298   -0.1310    1.9382 H   0  0  0  0  0  0  0  0  0  0  0  0
   -9.8219   -1.7798   -0.7089 H   0  0  0  0  0  0  0  0  0  0  0  0
   -8.7614   -3.0980   -0.2186 H   0  0  0  0  0  0  0  0  0  0  0  0
   -8.3217   -1.6835    3.3073 H   0  0  0  0  0  0  0  0  0  0  0  0
   -7.8403   -3.0522    2.3071 H   0  0  0  0  0  0  0  0  0  0  0  0
   -9.6233   -0.7109    1.4844 H   0  0  0  0  0  0  0  0  0  0  0  0
  -10.1109   -2.3896    1.6997 H   0  0  0  0  0  0  0  0  0  0  0  0
  1 11  1  0  0  0  0
  1 27  1  0  0  0  0
  2  3  1  0  0  0  0
  2 12  1  0  0  0  0
  3  4  1  0  0  0  0
  3  5  2  0  0  0  0
  4 21  1  0  0  0  0
  4 28  1  0  0  0  0
  6  7  1  0  0  0  0
  6  8  2  0  0  0  0
  6 18  1  0  0  0  0
  7 29  1  0  0  0  0
  7 30  1  0  0  0  0
  9 10  2  0  0  0  0
  9 11  1  0  0  0  0
  9 15  1  0  0  0  0
 10 12  1  0  0  0  0
 10 31  1  0  0  0  0
 11 13  2  0  0  0  0
 12 14  2  0  0  0  0
 13 14  1  0  0  0  0
 13 32  1  0  0  0  0
 14 33  1  0  0  0  0
 15 16  2  0  0  0  0
 15 17  1  0  0  0  0
 16 18  1  0  0  0  0
 16 34  1  0  0  0  0
 17 19  2  0  0  0  0
 17 35  1  0  0  0  0
 18 20  2  0  0  0  0
 19 20  1  0  0  0  0
 19 36  1  0  0  0  0
 20 37  1  0  0  0  0
 21 22  1  0  0  0  0
 21 23  1  0  0  0  0
 21 38  1  0  0  0  0
 22 24  1  0  0  0  0
 22 39  1  0  0  0  0
 22 40  1  0  0  0  0
 23 25  1  0  0  0  0
 23 41  1  0  0  0  0
 23 42  1  0  0  0  0
 24 26  1  0  0  0  0
 24 43  1  0  0  0  0
 24 44  1  0  0  0  0
 25 26  1  0  0  0  0
 25 45  1  0  0  0  0
 25 46  1  0  0  0  0
 26 47  1  0  0  0  0
 26 48  1  0  0  0  0
M  END
>  <Mol_ID>
6228

>  <Formula>
C20H22N2O4

>  <MolWeight>
354.39968

>  <Cat>
S3586

>  <Name>
URB937

>  <Target>
FAAH

>  <Form>
free base

>  <CAS>
1357160-72-5

>  <URL>
http://www.selleckchem.com/products/urb937.html

$$$$
