Ureidopropionic acid
 OpenBabel08302520393D

 17 16  0  0  0  0  0  0  0  0999 V2000
    1.2524   -2.1473    1.0968 C   0  0  0  0  0  0  0  0  0  0  0  0
    0.1979   -1.1935    0.6011 C   0  0  0  0  0  0  0  0  0  0  0  0
    2.0422   -2.6071    0.0972 O   0  0  0  0  0  0  0  0  0  0  0  0
    1.4112   -2.4867    2.2574 O   0  0  0  0  0  0  0  0  0  0  0  0
   -0.6432   -0.6593    1.7504 C   0  0  0  0  0  0  0  0  0  0  0  0
   -1.6590    0.2677    1.2760 N   0  0  0  0  0  0  0  0  0  0  0  0
   -2.5631    0.7770    2.1652 C   0  0  0  0  0  0  0  0  0  0  0  0
   -3.3750    1.6977    1.5861 N   0  0  0  0  0  0  0  0  0  0  0  0
   -2.6633    0.4764    3.3433 O   0  0  0  0  0  0  0  0  0  0  0  0
    0.6949   -0.3612    0.0898 H   0  0  0  0  0  0  0  0  0  0  0  0
   -0.4398   -1.7174   -0.1193 H   0  0  0  0  0  0  0  0  0  0  0  0
    1.8135   -2.2616   -0.7860 H   0  0  0  0  0  0  0  0  0  0  0  0
   -1.1464   -1.4766    2.2811 H   0  0  0  0  0  0  0  0  0  0  0  0
   -0.0200   -0.1301    2.4812 H   0  0  0  0  0  0  0  0  0  0  0  0
   -1.3785    0.9516    0.5875 H   0  0  0  0  0  0  0  0  0  0  0  0
   -4.1164    2.0025    2.2057 H   0  0  0  0  0  0  0  0  0  0  0  0
   -3.6852    1.4808    0.6503 H   0  0  0  0  0  0  0  0  0  0  0  0
  1  2  1  0  0  0  0
  1  3  1  0  0  0  0
  1  4  2  0  0  0  0
  2  5  1  0  0  0  0
  2 10  1  0  0  0  0
  2 11  1  0  0  0  0
  3 12  1  0  0  0  0
  5  6  1  0  0  0  0
  5 13  1  0  0  0  0
  5 14  1  0  0  0  0
  6  7  1  0  0  0  0
  6 15  1  0  0  0  0
  7  8  1  0  0  0  0
  7  9  2  0  0  0  0
  8 16  1  0  0  0  0
  8 17  1  0  0  0  0
M  END
>  <Mol_ID>
3587

>  <Formula>
C4H8N2O3

>  <MolWeight>
132.11792

>  <Cat>
S6143

>  <Name>
Ureidopropionic acid

>  <Synonyms>
N/A

>  <Target>
Others

>  <Form>
free base

>  <CAS>
462-88-4

>  <URL>
http://www.selleck.cn/products/ureidopropionic-acid.html

$$$$
