Urethane.cdx
 OpenBabel08302519503D

 13 12  0  0  0  0  0  0  0  0999 V2000
    0.8645   -0.0116    0.0053 O   0  0  0  0  0  0  0  0  0  0  0  0
    0.2445    0.0439    1.2042 C   0  0  0  0  0  0  0  0  0  0  0  0
    2.2993   -0.0303    0.0580 C   0  0  0  0  0  0  0  0  0  0  0  0
   -1.0958    0.0655    1.0389 N   0  0  0  0  0  0  0  0  0  0  0  0
    0.7796    0.0683    2.3013 O   0  0  0  0  0  0  0  0  0  0  0  0
    2.8067   -1.4411    0.2967 C   0  0  0  0  0  0  0  0  0  0  0  0
    2.6617    0.3296   -0.9108 H   0  0  0  0  0  0  0  0  0  0  0  0
    2.6751    0.6648    0.8183 H   0  0  0  0  0  0  0  0  0  0  0  0
   -1.6842    0.0942    1.8570 H   0  0  0  0  0  0  0  0  0  0  0  0
   -1.4947    0.0508    0.1134 H   0  0  0  0  0  0  0  0  0  0  0  0
    2.4327   -2.1200   -0.4765 H   0  0  0  0  0  0  0  0  0  0  0  0
    3.9001   -1.4664    0.2903 H   0  0  0  0  0  0  0  0  0  0  0  0
    2.4563   -1.8298    1.2580 H   0  0  0  0  0  0  0  0  0  0  0  0
  1  2  1  0  0  0  0
  1  3  1  0  0  0  0
  2  4  1  0  0  0  0
  2  5  2  0  0  0  0
  3  6  1  0  0  0  0
  3  7  1  0  0  0  0
  3  8  1  0  0  0  0
  4  9  1  0  0  0  0
  4 10  1  0  0  0  0
  6 11  1  0  0  0  0
  6 12  1  0  0  0  0
  6 13  1  0  0  0  0
M  END
>  <Mol_ID>
1520

>  <Formula>
C3H7NO2

>  <MolWeight>
89.09318

>  <Cat>
S4544

>  <Name>
Urethane

>  <Synonyms>
Carbamic acid ethyl ester, Ethyl carbamate, Ethylurethane

>  <Target>
Bacterial

>  <Form>
free base

>  <CAS>
51-79-6

>  <URL>
http://selleckchem.com/products/urethane.html

$$$$
