Uridine 5'-monophosphate
 OpenBabel08302521223D

 34 35  0  0  0  0  0  0  0  0999 V2000
    0.4385    1.4018    0.3611 C   0  0  2  0  0  0  0  0  0  0  0  0
    0.7882    2.7792    0.0159 N   0  0  0  0  0  0  0  0  0  0  0  0
    1.6132    0.5748    0.2155 O   0  0  0  0  0  0  0  0  0  0  0  0
   -0.6626    0.7624   -0.4959 C   0  0  1  0  0  0  0  0  0  0  0  0
    0.4936    3.7780    0.9386 C   0  0  0  0  0  0  0  0  0  0  0  0
    1.4958    3.0554   -1.1392 C   0  0  0  0  0  0  0  0  0  0  0  0
    1.2588   -0.6702   -0.4286 C   0  0  1  0  0  0  0  0  0  0  0  0
   -0.2670   -0.7096   -0.4469 C   0  0  1  0  0  0  0  0  0  0  0  0
   -1.9835    0.9569    0.0096 O   0  0  0  0  0  0  0  0  0  0  0  0
    0.9528    5.0304    0.6250 N   0  0  0  0  0  0  0  0  0  0  0  0
   -0.1022    3.5966    1.9985 O   0  0  0  0  0  0  0  0  0  0  0  0
    2.0046    4.2629   -1.3879 C   0  0  0  0  0  0  0  0  0  0  0  0
    1.8712   -0.7457   -1.8357 C   0  0  0  0  0  0  0  0  0  0  0  0
   -0.7885   -1.2843    0.7666 O   0  0  0  0  0  0  0  0  0  0  0  0
    1.8195    5.3243   -0.3927 C   0  0  0  0  0  0  0  0  0  0  0  0
    3.2935   -0.6334   -1.7606 O   0  0  0  0  0  0  0  0  0  0  0  0
    2.4326    6.3803   -0.4627 O   0  0  0  0  0  0  0  0  0  0  0  0
    4.1660   -0.7420   -3.2505 P   0  0  0  0  0  0  0  0  0  0  0  0
    3.2791    0.5043   -3.8333 O   0  0  0  0  0  0  0  0  0  0  0  0
    5.3144    0.1685   -2.5299 O   0  0  0  0  0  0  0  0  0  0  0  0
    4.9469   -0.8391   -4.5840 O   0  0  0  0  0  0  0  0  0  0  0  0
    0.1504    1.3513    1.4177 H   0  0  0  0  0  0  0  0  0  0  0  0
   -0.6345    1.1358   -1.5241 H   0  0  0  0  0  0  0  0  0  0  0  0
    1.6703    2.2385   -1.8312 H   0  0  0  0  0  0  0  0  0  0  0  0
    1.6820   -1.4672    0.1916 H   0  0  0  0  0  0  0  0  0  0  0  0
   -0.6892   -1.2865   -1.2750 H   0  0  0  0  0  0  0  0  0  0  0  0
   -2.1532    0.2212    0.6350 H   0  0  0  0  0  0  0  0  0  0  0  0
    0.8352    5.7378    1.3330 H   0  0  0  0  0  0  0  0  0  0  0  0
    2.6022    4.4843   -2.2628 H   0  0  0  0  0  0  0  0  0  0  0  0
    1.6204   -1.7004   -2.3084 H   0  0  0  0  0  0  0  0  0  0  0  0
    1.4730    0.0642   -2.4512 H   0  0  0  0  0  0  0  0  0  0  0  0
   -0.1791   -1.0787    1.5013 H   0  0  0  0  0  0  0  0  0  0  0  0
    3.7963    0.8316   -4.5972 H   0  0  0  0  0  0  0  0  0  0  0  0
    6.1322   -0.3451   -2.4073 H   0  0  0  0  0  0  0  0  0  0  0  0
  1  3  1  0  0  0  0
  1  4  1  0  0  0  0
  1 22  1  1  0  0  0
  1  2  1  0  0  0  0
  2  5  1  0  0  0  0
  2  6  1  0  0  0  0
  3  7  1  0  0  0  0
  4  8  1  0  0  0  0
  4  9  1  0  0  0  0
  4 23  1  6  0  0  0
  5 10  1  0  0  0  0
  5 11  2  0  0  0  0
  6 12  2  0  0  0  0
  6 24  1  0  0  0  0
  7  8  1  0  0  0  0
  7 25  1  1  0  0  0
  7 13  1  0  0  0  0
  8 14  1  0  0  0  0
  8 26  1  6  0  0  0
  9 27  1  0  0  0  0
 10 15  1  0  0  0  0
 10 28  1  0  0  0  0
 12 15  1  0  0  0  0
 12 29  1  0  0  0  0
 13 16  1  0  0  0  0
 13 30  1  0  0  0  0
 13 31  1  0  0  0  0
 14 32  1  0  0  0  0
 15 17  2  0  0  0  0
 16 18  1  0  0  0  0
 18 19  1  0  0  0  0
 18 20  1  0  0  0  0
 18 21  2  0  0  0  0
 19 33  1  0  0  0  0
 20 34  1  0  0  0  0
M  END
>  <Mol_ID>
4615

>  <Formula>
C9H13N2O9P

>  <MolWeight>
324.181281

>  <Cat>
S9451

>  <Name>
Uridine 5'-monophosphate

>  <Synonyms>
Uridylic acid, 5'-Uridylic acid, Uridine phosphate, 5'-UMP, Uridine 5'-phosphoric acid

>  <Target>
DNA/RNA Synthesis

>  <Form>
Free Base

>  <CAS>
58-97-9

>  <URL>
http://www.selleckchem.com/products/uridine-5-monophosphate.html

$$$$
