Uridine.cdx
 OpenBabel08302521443D

 29 30  0  0  0  0  0  0  0  0999 V2000
   -0.6469    0.9684   -0.6140 C   0  0  0  0  0  0  0  0  0  0  0  0
   -1.3340   -0.1100   -0.0902 N   0  0  0  0  0  0  0  0  0  0  0  0
   -0.6684   -1.1523    0.5448 C   0  0  0  0  0  0  0  0  0  0  0  0
    0.6995   -1.0359    0.5982 N   0  0  0  0  0  0  0  0  0  0  0  0
    1.4451   -0.0466    0.0297 C   0  0  0  0  0  0  0  0  0  0  0  0
    0.6841    1.0503   -0.5831 C   0  0  0  0  0  0  0  0  0  0  0  0
    2.6698   -0.0542    0.0109 O   0  0  0  0  0  0  0  0  0  0  0  0
   -1.2165   -2.1475    1.0069 O   0  0  0  0  0  0  0  0  0  0  0  0
   -2.7934   -0.1805   -0.1498 C   0  0  2  0  0  0  0  0  0  0  0  0
   -3.2887    0.4711   -1.3446 O   0  0  0  0  0  0  0  0  0  0  0  0
   -4.4117    1.3131   -0.9937 C   0  0  1  0  0  0  0  0  0  0  0  0
   -4.8209    0.9038    0.4155 C   0  0  2  0  0  0  0  0  0  0  0  0
   -3.5134    0.4564    1.0511 C   0  0  1  0  0  0  0  0  0  0  0  0
   -4.0280    2.7929   -1.1331 C   0  0  0  0  0  0  0  0  0  0  0  0
   -2.9958    3.1771   -0.2311 O   0  0  0  0  0  0  0  0  0  0  0  0
   -5.7251   -0.2201    0.3741 O   0  0  0  0  0  0  0  0  0  0  0  0
   -3.7541   -0.4322    2.1396 O   0  0  0  0  0  0  0  0  0  0  0  0
   -1.2261    1.7574   -1.0797 H   0  0  0  0  0  0  0  0  0  0  0  0
    1.1978   -1.8041    1.0179 H   0  0  0  0  0  0  0  0  0  0  0  0
    1.2355    1.8794   -1.0045 H   0  0  0  0  0  0  0  0  0  0  0  0
   -3.0823   -1.2358   -0.2318 H   0  0  0  0  0  0  0  0  0  0  0  0
   -5.2063    1.0942   -1.7158 H   0  0  0  0  0  0  0  0  0  0  0  0
   -5.3260    1.6935    0.9790 H   0  0  0  0  0  0  0  0  0  0  0  0
   -2.9515    1.3110    1.4395 H   0  0  0  0  0  0  0  0  0  0  0  0
   -3.6554    2.9801   -2.1455 H   0  0  0  0  0  0  0  0  0  0  0  0
   -4.8962    3.4382   -0.9631 H   0  0  0  0  0  0  0  0  0  0  0  0
   -3.3995    3.6220    0.5342 H   0  0  0  0  0  0  0  0  0  0  0  0
   -5.4998   -0.7783   -0.3942 H   0  0  0  0  0  0  0  0  0  0  0  0
   -4.5595   -0.9409    1.9124 H   0  0  0  0  0  0  0  0  0  0  0  0
  1  2  1  0  0  0  0
  1 18  1  0  0  0  0
  2  3  1  0  0  0  0
  3  4  1  0  0  0  0
  3  8  2  0  0  0  0
  4  5  1  0  0  0  0
  4 19  1  0  0  0  0
  5  6  1  0  0  0  0
  5  7  2  0  0  0  0
  6  1  2  0  0  0  0
  6 20  1  0  0  0  0
  9  2  1  0  0  0  0
  9 10  1  0  0  0  0
  9 21  1  6  0  0  0
 10 11  1  0  0  0  0
 11 12  1  0  0  0  0
 11 22  1  6  0  0  0
 11 14  1  0  0  0  0
 12 13  1  0  0  0  0
 12 16  1  0  0  0  0
 12 23  1  1  0  0  0
 13  9  1  0  0  0  0
 13 17  1  0  0  0  0
 13 24  1  1  0  0  0
 14 15  1  0  0  0  0
 14 25  1  0  0  0  0
 14 26  1  0  0  0  0
 15 27  1  0  0  0  0
 16 28  1  0  0  0  0
 17 29  1  0  0  0  0
M  END
>  <Mol_ID>
927

>  <Formula>
C9H12N2O6

>  <MolWeight>
244.20138

>  <Cat>
S2029

>  <Name>
Uridine

>  <Synonyms>
NSC 20256,¦Â-Uridine, Uridin

>  <Target>
DNA/RNA Synthesis

>  <Form>
free base

>  <CAS>
58-96-8

>  <URL>
http://selleckchem.com/products/uridine.html

$$$$
