Urocanic acid
 OpenBabel08302521223D

 16 16  0  0  0  0  0  0  0  0999 V2000
   -0.2982   -1.1882   -0.0009 C   0  0  0  0  0  0  0  0  0  0  0  0
   -0.8187   -2.5110   -0.0063 C   0  0  0  0  0  0  0  0  0  0  0  0
   -1.0058   -0.0078   -0.0030 C   0  0  0  0  0  0  0  0  0  0  0  0
    1.0521   -0.9552    0.0074 N   0  0  0  0  0  0  0  0  0  0  0  0
   -0.0575   -3.6162   -0.0049 C   0  0  0  0  0  0  0  0  0  0  0  0
   -0.0477    0.9712    0.0068 N   0  0  0  0  0  0  0  0  0  0  0  0
    1.1717    0.3531    0.0112 C   0  0  0  0  0  0  0  0  0  0  0  0
   -0.6786   -4.9519   -0.0108 C   0  0  0  0  0  0  0  0  0  0  0  0
    0.2410   -5.9384   -0.0107 O   0  0  0  0  0  0  0  0  0  0  0  0
   -1.8801   -5.1596   -0.0149 O   0  0  0  0  0  0  0  0  0  0  0  0
   -1.9030   -2.6115   -0.0115 H   0  0  0  0  0  0  0  0  0  0  0  0
   -2.0608    0.2254   -0.0096 H   0  0  0  0  0  0  0  0  0  0  0  0
    1.0235   -3.5453    0.0004 H   0  0  0  0  0  0  0  0  0  0  0  0
   -0.2056    1.9701    0.0097 H   0  0  0  0  0  0  0  0  0  0  0  0
    2.1030    0.9028    0.0175 H   0  0  0  0  0  0  0  0  0  0  0  0
    1.1709   -5.6438   -0.0073 H   0  0  0  0  0  0  0  0  0  0  0  0
  1  2  1  0  0  0  0
  1  3  2  0  0  0  0
  1  4  1  0  0  0  0
  2  5  2  0  0  0  0
  2 11  1  0  0  0  0
  3  6  1  0  0  0  0
  3 12  1  0  0  0  0
  4  7  2  0  0  0  0
  5  8  1  0  0  0  0
  5 13  1  0  0  0  0
  6  7  1  0  0  0  0
  6 14  1  0  0  0  0
  7 15  1  0  0  0  0
  8  9  1  0  0  0  0
  8 10  2  0  0  0  0
  9 16  1  0  0  0  0
M  END
>  <Mol_ID>
4614

>  <Formula>
C6H6N2O2

>  <MolWeight>
138.12404

>  <Cat>
S9449

>  <Name>
Urocanic acid

>  <Synonyms>
N/A

>  <Target>
Others

>  <Form>
Free Base

>  <CAS>
104-98-3

>  <URL>
http://www.selleckchem.com/products/urocanic-acid.html

$$$$
