Urokinase inhibitor 1.cdx
 OpenBabel08302520433D

 41 42  0  0  0  0  0  0  0  0999 V2000
   -2.4130   -0.8677    0.3538 C   0  0  0  0  0  0  0  0  0  0  0  0
   -2.4648    0.5183    0.4945 C   0  0  0  0  0  0  0  0  0  0  0  0
   -1.2829    1.2567    0.4287 C   0  0  0  0  0  0  0  0  0  0  0  0
   -0.0455    0.6236    0.2237 C   0  0  0  0  0  0  0  0  0  0  0  0
    0.0281   -0.7856    0.1318 C   0  0  0  0  0  0  0  0  0  0  0  0
   -1.1854   -1.5204    0.1844 C   0  0  0  0  0  0  0  0  0  0  0  0
    1.1178    1.3872    0.1163 C   0  0  0  0  0  0  0  0  0  0  0  0
    2.3248    0.7390   -0.0321 C   0  0  0  0  0  0  0  0  0  0  0  0
    2.4502   -0.5990   -0.0299 N   0  0  0  0  0  0  0  0  0  0  0  0
    1.3222   -1.3575    0.0298 C   0  0  0  0  0  0  0  0  0  0  0  0
    1.4831   -2.7523    0.1051 N   0  0  0  0  0  0  0  0  0  0  0  0
   -3.9382   -1.7757    0.2076 S   0  0  0  0  0  0  0  0  0  0  0  0
   -4.6811   -1.0975   -0.8280 O   0  0  0  0  0  0  0  0  0  0  0  0
   -3.5994   -3.1758    0.0947 O   0  0  0  0  0  0  0  0  0  0  0  0
   -4.7819   -1.5113    1.6414 N   0  0  0  0  0  0  0  0  0  0  0  0
   -4.6656   -2.4306    2.8193 C   0  0  0  0  0  0  0  0  0  0  0  0
   -3.2535   -2.5314    3.3823 C   0  0  0  0  0  0  0  0  0  0  0  0
   -2.7403   -3.4937    3.9285 O   0  0  0  0  0  0  0  0  0  0  0  0
   -2.5823   -1.3573    3.3278 O   0  0  0  0  0  0  0  0  0  0  0  0
   -5.5496   -1.8131    3.9247 C   0  0  0  0  0  0  0  0  0  0  0  0
   -5.2382   -3.8195    2.5087 C   0  0  0  0  0  0  0  0  0  0  0  0
    2.5749   -3.3876    0.6000 C   0  0  0  0  0  0  0  0  0  0  0  0
    3.2544   -2.7538    1.5863 N   0  0  0  0  0  0  0  0  0  0  0  0
    2.8926   -4.5739    0.2096 N   0  0  0  0  0  0  0  0  0  0  0  0
   -3.4121    1.0366    0.6141 H   0  0  0  0  0  0  0  0  0  0  0  0
   -1.3365    2.3397    0.5280 H   0  0  0  0  0  0  0  0  0  0  0  0
   -1.1675   -2.6039    0.0656 H   0  0  0  0  0  0  0  0  0  0  0  0
    1.0945    2.4723    0.1415 H   0  0  0  0  0  0  0  0  0  0  0  0
    3.2522    1.2933   -0.1421 H   0  0  0  0  0  0  0  0  0  0  0  0
    1.0218   -3.2606   -0.6366 H   0  0  0  0  0  0  0  0  0  0  0  0
   -4.6970   -0.5333    1.9257 H   0  0  0  0  0  0  0  0  0  0  0  0
   -1.7211   -1.5660    3.7543 H   0  0  0  0  0  0  0  0  0  0  0  0
   -6.5774   -1.6658    3.5715 H   0  0  0  0  0  0  0  0  0  0  0  0
   -5.5864   -2.4525    4.8138 H   0  0  0  0  0  0  0  0  0  0  0  0
   -5.1710   -0.8345    4.2418 H   0  0  0  0  0  0  0  0  0  0  0  0
   -6.2542   -3.7518    2.1006 H   0  0  0  0  0  0  0  0  0  0  0  0
   -4.6295   -4.3855    1.8026 H   0  0  0  0  0  0  0  0  0  0  0  0
   -5.2845   -4.4332    3.4155 H   0  0  0  0  0  0  0  0  0  0  0  0
    4.1940   -3.0838    1.7520 H   0  0  0  0  0  0  0  0  0  0  0  0
    3.2472   -1.7434    1.4439 H   0  0  0  0  0  0  0  0  0  0  0  0
    3.7011   -4.8892    0.7498 H   0  0  0  0  0  0  0  0  0  0  0  0
  1  2  2  0  0  0  0
  1 12  1  0  0  0  0
  2  3  1  0  0  0  0
  2 25  1  0  0  0  0
  3  4  2  0  0  0  0
  3 26  1  0  0  0  0
  4  5  1  0  0  0  0
  4  7  1  0  0  0  0
  5  6  2  0  0  0  0
  6  1  1  0  0  0  0
  6 27  1  0  0  0  0
  7  8  2  0  0  0  0
  7 28  1  0  0  0  0
  8  9  1  0  0  0  0
  8 29  1  0  0  0  0
  9 10  2  0  0  0  0
 10  5  1  0  0  0  0
 10 11  1  0  0  0  0
 11 22  1  0  0  0  0
 11 30  1  0  0  0  0
 12 13  2  0  0  0  0
 12 14  2  0  0  0  0
 12 15  1  0  0  0  0
 15 16  1  0  0  0  0
 15 31  1  0  0  0  0
 16 17  1  0  0  0  0
 16 20  1  0  0  0  0
 16 21  1  0  0  0  0
 17 18  2  0  0  0  0
 17 19  1  0  0  0  0
 19 32  1  0  0  0  0
 20 33  1  0  0  0  0
 20 34  1  0  0  0  0
 20 35  1  0  0  0  0
 21 36  1  0  0  0  0
 21 37  1  0  0  0  0
 21 38  1  0  0  0  0
 22 23  1  0  0  0  0
 22 24  2  0  0  0  0
 23 39  1  0  0  0  0
 23 40  1  0  0  0  0
 24 41  1  0  0  0  0
M  END
>  <Mol_ID>
4106

>  <Formula>
C14H17Cl2N5O4S

>  <MolWeight>
422.28688

>  <Cat>
S8457

>  <Name>
UK-371804 HCl

>  <Synonyms>
UK-371804 HCl

>  <Target>
Serine Protease

>  <Form>
hydrochloride

>  <CAS>
256476-36-5

>  <URL>
http://selleckchem.com/products/uk-371804-hcl.html

$$$$
