Urolithin B
 OpenBabel08302521283D

 24 26  0  0  0  0  0  0  0  0999 V2000
    0.7310    2.0205    0.0023 O   0  0  0  0  0  0  0  0  0  0  0  0
    4.9191   -0.1971    0.0014 O   0  0  0  0  0  0  0  0  0  0  0  0
   -1.2312    3.1867    0.0017 O   0  0  0  0  0  0  0  0  0  0  0  0
   -0.7260   -0.4096    0.0005 C   0  0  0  0  0  0  0  0  0  0  0  0
    0.7414   -0.4245    0.0002 C   0  0  0  0  0  0  0  0  0  0  0  0
   -1.4009    0.8222    0.0008 C   0  0  0  0  0  0  0  0  0  0  0  0
    1.4266    0.7935    0.0017 C   0  0  0  0  0  0  0  0  0  0  0  0
    1.5257   -1.5918   -0.0005 C   0  0  0  0  0  0  0  0  0  0  0  0
   -1.5117   -1.5785   -0.0000 C   0  0  0  0  0  0  0  0  0  0  0  0
   -0.6538    2.1048    0.0019 C   0  0  0  0  0  0  0  0  0  0  0  0
    2.8204    0.8762    0.0023 C   0  0  0  0  0  0  0  0  0  0  0  0
   -2.8062    0.8776    0.0015 C   0  0  0  0  0  0  0  0  0  0  0  0
    2.9252   -1.5308   -0.0002 C   0  0  0  0  0  0  0  0  0  0  0  0
    3.5604   -0.2956    0.0011 C   0  0  0  0  0  0  0  0  0  0  0  0
   -2.9089   -1.5224    0.0011 C   0  0  0  0  0  0  0  0  0  0  0  0
   -3.5574   -0.2941    0.0013 C   0  0  0  0  0  0  0  0  0  0  0  0
    5.2992   -1.0912   -0.0010 H   0  0  0  0  0  0  0  0  0  0  0  0
    1.0712   -2.5776   -0.0017 H   0  0  0  0  0  0  0  0  0  0  0  0
   -1.0573   -2.5653   -0.0004 H   0  0  0  0  0  0  0  0  0  0  0  0
    3.3180    1.8411    0.0034 H   0  0  0  0  0  0  0  0  0  0  0  0
   -3.3175    1.8393    0.0017 H   0  0  0  0  0  0  0  0  0  0  0  0
    3.4935   -2.4559   -0.0010 H   0  0  0  0  0  0  0  0  0  0  0  0
   -3.4876   -2.4430    0.0014 H   0  0  0  0  0  0  0  0  0  0  0  0
   -4.6436   -0.2476    0.0023 H   0  0  0  0  0  0  0  0  0  0  0  0
  1  7  1  0  0  0  0
  1 10  1  0  0  0  0
  2 14  1  0  0  0  0
  2 17  1  0  0  0  0
  3 10  2  0  0  0  0
  4  5  1  0  0  0  0
  4  6  2  0  0  0  0
  4  9  1  0  0  0  0
  5  7  2  0  0  0  0
  5  8  1  0  0  0  0
  6 10  1  0  0  0  0
  6 12  1  0  0  0  0
  7 11  1  0  0  0  0
  8 13  2  0  0  0  0
  8 18  1  0  0  0  0
  9 15  2  0  0  0  0
  9 19  1  0  0  0  0
 11 14  2  0  0  0  0
 11 20  1  0  0  0  0
 12 16  2  0  0  0  0
 12 21  1  0  0  0  0
 13 14  1  0  0  0  0
 13 22  1  0  0  0  0
 15 16  1  0  0  0  0
 15 23  1  0  0  0  0
 16 24  1  0  0  0  0
M  END
>  <Mol_ID>
5419

>  <Formula>
C13H8O3

>  <MolWeight>
212.20082

>  <Cat>
S1321

>  <Name>
Urolithin B

>  <Synonyms>
N/A

>  <Target>
Akt,AMPK,ERK,I¦ÊB/IKK,JNK,NF-¦ÊB

>  <Form>
Free Base

>  <CAS>
1139-83-9

>  <URL>
https://www.selleckchem.com/products/urolithin-b.html

$$$$
