Ursodeoxycholic acid sodium
 OpenBabel08302521343D

 67 70  0  0  0  0  0  0  0  0999 V2000
    4.3741   -0.8968    1.3386 C   0  0  2  0  0  0  0  0  0  0  0  0
    3.4795   -1.7091    0.3871 C   0  0  0  0  0  0  0  0  0  0  0  0
    2.2424   -0.9355   -0.1471 C   0  0  0  0  0  0  0  0  0  0  0  0
    4.5035    0.5096    0.8116 C   0  0  0  0  0  0  0  0  0  0  0  0
    3.1294    1.2203    0.7244 C   0  0  1  0  0  0  0  0  0  0  0  0
    3.2363    2.1447   -0.5094 C   0  0  0  0  0  0  0  0  0  0  0  0
    1.9467    2.4058   -1.2670 C   0  0  1  0  0  0  0  0  0  0  0  0
    0.7807    2.4256   -0.2811 C   0  0  3  0  0  0  0  0  0  0  0  0
   -0.5255    3.1319   -0.6538 C   0  0  3  0  0  0  0  0  0  0  0  0
   -0.5602    3.6784   -2.1215 C   0  0  0  0  0  0  0  0  0  0  0  0
   -2.0067    4.0540   -2.4015 C   0  0  0  0  0  0  0  0  0  0  0  0
   -2.7380    3.7060   -1.1063 C   0  0  2  0  0  0  0  0  0  0  0  0
   -2.6440    4.9946   -0.0761 C   0  0  1  0  0  0  0  0  0  0  0  0
   -3.3665    6.2721   -0.5577 C   0  0  0  0  0  0  0  0  0  0  0  0
   -2.9587    7.4871    0.2943 C   0  0  0  0  0  0  0  0  0  0  0  0
   -3.6256    8.7234   -0.2665 C   0  0  0  0  0  0  0  0  0  0  0  0
   -2.9732    4.7717    1.4216 C   0  0  0  0  0  0  0  0  0  0  0  0
   -1.9367    2.4302   -0.5654 C   0  0  2  0  0  0  0  0  0  0  0  0
   -2.8778    1.9059    0.5517 C   0  0  0  0  0  0  0  0  0  0  0  0
   -1.5819    1.0684   -1.2578 C   0  0  0  0  0  0  0  0  0  0  0  0
   -0.6201    0.2524   -0.3154 C   0  0  0  0  0  0  0  0  0  0  0  0
    0.5321    1.0642    0.3496 C   0  0  3  0  0  0  0  0  0  0  0  0
    1.8544    0.2690    0.7433 C   0  0  1  0  0  0  0  0  0  0  0  0
    1.5266   -0.2750    2.1740 C   0  0  0  0  0  0  0  0  0  0  0  0
   -4.7938    8.9434    0.1584 O   0  0  0  0  0  0  0  0  0  0  0  0
   -2.9048    9.4042   -1.0479 O   0  5  0  0  0  0  0  0  0  0  0  0
    2.1495    3.6581   -1.9133 O   0  0  0  0  0  0  0  0  0  0  0  0
    5.6725   -1.5042    1.4208 O   0  0  0  0  0  0  0  0  0  0  0  0
    3.9943   -0.8870    2.3555 H   0  0  0  0  0  0  0  0  0  0  0  0
    3.1503   -2.6195    0.9010 H   0  0  0  0  0  0  0  0  0  0  0  0
    4.0665   -2.0832   -0.4601 H   0  0  0  0  0  0  0  0  0  0  0  0
    2.4616   -0.5770   -1.1618 H   0  0  0  0  0  0  0  0  0  0  0  0
    1.4230   -1.6507   -0.2449 H   0  0  0  0  0  0  0  0  0  0  0  0
    4.9833    0.4328   -0.1735 H   0  0  0  0  0  0  0  0  0  0  0  0
    5.2068    1.1026    1.4054 H   0  0  0  0  0  0  0  0  0  0  0  0
    3.0496    1.8726    1.6057 H   0  0  0  0  0  0  0  0  0  0  0  0
    3.6636    3.1001   -0.1670 H   0  0  0  0  0  0  0  0  0  0  0  0
    3.9638    1.7903   -1.2520 H   0  0  0  0  0  0  0  0  0  0  0  0
    1.7785    1.6474   -2.0404 H   0  0  0  0  0  0  0  0  0  0  0  0
    1.1616    3.0631    0.5372 H   0  0  0  0  0  0  0  0  0  0  0  0
   -0.4987    3.9703    0.0280 H   0  0  0  0  0  0  0  0  0  0  0  0
    0.0779    4.5439   -2.2711 H   0  0  0  0  0  0  0  0  0  0  0  0
   -0.2528    2.9175   -2.8581 H   0  0  0  0  0  0  0  0  0  0  0  0
   -2.4072    3.4791   -3.2442 H   0  0  0  0  0  0  0  0  0  0  0  0
   -2.0644    5.1070   -2.6845 H   0  0  0  0  0  0  0  0  0  0  0  0
   -3.7923    3.4895   -1.3125 H   0  0  0  0  0  0  0  0  0  0  0  0
   -1.6068    5.3385   -0.0721 H   0  0  0  0  0  0  0  0  0  0  0  0
   -3.0988    6.4915   -1.5941 H   0  0  0  0  0  0  0  0  0  0  0  0
   -4.4445    6.1191   -0.5295 H   0  0  0  0  0  0  0  0  0  0  0  0
   -3.2732    7.3792    1.3360 H   0  0  0  0  0  0  0  0  0  0  0  0
   -1.8670    7.6052    0.2993 H   0  0  0  0  0  0  0  0  0  0  0  0
   -4.0544    4.7929    1.6016 H   0  0  0  0  0  0  0  0  0  0  0  0
   -2.5216    5.5534    2.0428 H   0  0  0  0  0  0  0  0  0  0  0  0
   -2.5399    3.8712    1.8557 H   0  0  0  0  0  0  0  0  0  0  0  0
   -2.3899    1.4274    1.3974 H   0  0  0  0  0  0  0  0  0  0  0  0
   -3.6281    2.6083    0.9124 H   0  0  0  0  0  0  0  0  0  0  0  0
   -3.5725    1.1700    0.1069 H   0  0  0  0  0  0  0  0  0  0  0  0
   -1.0857    1.1673   -2.2253 H   0  0  0  0  0  0  0  0  0  0  0  0
   -2.4666    0.4544   -1.4690 H   0  0  0  0  0  0  0  0  0  0  0  0
   -1.2133   -0.1754    0.5075 H   0  0  0  0  0  0  0  0  0  0  0  0
   -0.2570   -0.6134   -0.8678 H   0  0  0  0  0  0  0  0  0  0  0  0
    0.0975    1.3786    1.3155 H   0  0  0  0  0  0  0  0  0  0  0  0
    0.4620   -0.5202    2.2702 H   0  0  0  0  0  0  0  0  0  0  0  0
    2.0257   -1.2090    2.4372 H   0  0  0  0  0  0  0  0  0  0  0  0
    1.7594    0.4696    2.9415 H   0  0  0  0  0  0  0  0  0  0  0  0
    2.7809    3.5286   -2.6401 H   0  0  0  0  0  0  0  0  0  0  0  0
    6.1874   -1.0102    2.0610 H   0  0  0  0  0  0  0  0  0  0  0  0
  1  2  1  0  0  0  0
  1  4  1  0  0  0  0
  1 29  1  1  0  0  0
  1 28  1  0  0  0  0
  2  3  1  0  0  0  0
  2 30  1  0  0  0  0
  2 31  1  0  0  0  0
  3 23  1  0  0  0  0
  3 32  1  0  0  0  0
  3 33  1  0  0  0  0
  4 34  1  0  0  0  0
  4 35  1  0  0  0  0
  5  4  1  0  0  0  0
  5  6  1  0  0  0  0
  5 23  1  0  0  0  0
  5 36  1  1  0  0  0
  6  7  1  0  0  0  0
  6 37  1  0  0  0  0
  6 38  1  0  0  0  0
  7  8  1  0  0  0  0
  7 39  1  6  0  0  0
  7 27  1  0  0  0  0
  8  9  1  0  0  0  0
  8 22  1  0  0  0  0
  8 40  1  0  0  0  0
  9 10  1  0  0  0  0
  9 18  1  0  0  0  0
  9 41  1  0  0  0  0
 10 11  1  0  0  0  0
 10 42  1  0  0  0  0
 10 43  1  0  0  0  0
 11 44  1  0  0  0  0
 11 45  1  0  0  0  0
 12 11  1  0  0  0  0
 12 18  1  0  0  0  0
 12 46  1  6  0  0  0
 12 13  1  0  0  0  0
 13 14  1  0  0  0  0
 13 17  1  0  0  0  0
 13 47  1  6  0  0  0
 14 15  1  0  0  0  0
 14 48  1  0  0  0  0
 14 49  1  0  0  0  0
 15 16  1  0  0  0  0
 15 50  1  0  0  0  0
 15 51  1  0  0  0  0
 16 25  2  0  0  0  0
 16 26  1  0  0  0  0
 17 52  1  0  0  0  0
 17 53  1  0  0  0  0
 17 54  1  0  0  0  0
 18 19  1  1  0  0  0
 18 20  1  0  0  0  0
 19 55  1  0  0  0  0
 19 56  1  0  0  0  0
 19 57  1  0  0  0  0
 20 21  1  0  0  0  0
 20 58  1  0  0  0  0
 20 59  1  0  0  0  0
 21 22  1  0  0  0  0
 21 60  1  0  0  0  0
 21 61  1  0  0  0  0
 22 23  1  0  0  0  0
 22 62  1  0  0  0  0
 23 24  1  1  0  0  0
 24 63  1  0  0  0  0
 24 64  1  0  0  0  0
 24 65  1  0  0  0  0
 27 66  1  0  0  0  0
 28 67  1  0  0  0  0
M  CHG  1  26  -1
M  END
>  <Mol_ID>
6492

>  <Formula>
C24H39NaO4

>  <MolWeight>
414.55383

>  <Cat>
E2683

>  <Name>
Ursodeoxycholic acid sodium

>  <Target>
Others

>  <Form>
Sodium salt

>  <CAS>
2898-95-5

>  <URL>
http://www.selleckchem.com/products/ursodeoxycholic-acid-sodium.html

$$$$
