Usaramine
 OpenBabel08302521562D

 50 52  0  0  1  0  0  0  0  0999 V2000
    5.7854    7.7730    0.0000 O   0  0  0  0  0  0  0  0  0  0  0  0
    8.1875    6.2843    0.0000 C   0  0  0  0  0  0  0  0  0  0  0  0
    9.3752    5.5431    0.0000 C   0  0  0  0  0  0  0  0  0  0  0  0
    4.5593    0.0000    0.0000 O   0  0  0  0  0  0  0  0  0  0  0  0
    6.2024    0.8344    0.0000 C   0  0  0  0  0  0  0  0  0  0  0  0
    7.5865    0.6248    0.0000 O   0  0  0  0  0  0  0  0  0  0  0  0
    7.0671    2.3989    0.0000 O   0  0  0  0  0  0  0  0  0  0  0  0
    4.4769    4.2370    0.0000 C   0  0  0  0  0  0  0  0  0  0  0  0
    2.1884    5.5584    0.0000 C   0  0  1  0  0  0  0  0  0  0  0  0
    3.2916    6.3557    0.0000 C   0  0  2  0  0  0  0  0  0  0  0  0
    2.0496    4.2043    0.0000 C   0  0  0  0  0  0  0  0  0  0  0  0
    1.0074    6.2401    0.0000 N   0  0  3  0  0  0  0  0  0  0  0  0
    4.5495    5.7052    0.0000 O   0  0  0  0  0  0  0  0  0  0  0  0
    2.7821    7.6898    0.0000 C   0  0  0  0  0  0  0  0  0  0  0  0
    3.2418    3.4401    0.0000 C   0  0  0  0  0  0  0  0  0  0  0  0
    0.6393    3.9785    0.0000 C   0  0  0  0  0  0  0  0  0  0  0  0
    0.0000    5.2282    0.0000 C   0  0  0  0  0  0  0  0  0  0  0  0
    1.3800    7.6185    0.0000 C   0  0  0  0  0  0  0  0  0  0  0  0
    5.7511    6.3734    0.0000 C   0  0  0  0  0  0  0  0  0  0  0  0
    3.2638    2.0654    0.0000 O   0  0  0  0  0  0  0  0  0  0  0  0
    6.9517    5.6263    0.0000 C   0  0  0  0  0  0  0  0  0  0  0  0
    4.5113    1.3992    0.0000 C   0  0  0  0  0  0  0  0  0  0  0  0
    6.9022    4.2347    0.0000 C   0  0  0  0  0  0  0  0  0  0  0  0
    5.6917    2.1379    0.0000 C   0  0  2  0  0  0  0  0  0  0  0  0
    5.6893    3.5370    0.0000 C   0  0  2  0  0  0  0  0  0  0  0  0
    8.2229    7.3157    0.0000 H   0  0  0  0  0  0  0  0  0  0  0  0
    9.3385    4.4737    0.0000 H   0  0  0  0  0  0  0  0  0  0  0  0
   10.3197    6.0460    0.0000 H   0  0  0  0  0  0  0  0  0  0  0  0
   10.2829    4.9766    0.0000 H   0  0  0  0  0  0  0  0  0  0  0  0
    5.5347   -0.0017    0.0000 H   0  0  0  0  0  0  0  0  0  0  0  0
    5.1444    0.9945    0.0000 H   0  0  0  0  0  0  0  0  0  0  0  0
    7.9403   -0.2784    0.0000 H   0  0  0  0  0  0  0  0  0  0  0  0
    7.7002    1.6640    0.0000 H   0  0  0  0  0  0  0  0  0  0  0  0
    4.4769    5.3070    0.0000 H   0  0  0  0  0  0  0  0  0  0  0  0
    3.5502    3.7020    0.0000 H   0  0  0  0  0  0  0  0  0  0  0  0
    3.5503    4.7720    0.0000 H   0  0  0  0  0  0  0  0  0  0  0  0
    2.1337    6.6270    0.0000 H   0  0  0  0  0  0  0  0  0  0  0  0
    2.2663    6.6618    0.0000 H   0  0  0  0  0  0  0  0  0  0  0  0
    3.3663    8.5862    0.0000 H   0  0  0  0  0  0  0  0  0  0  0  0
    2.2486    8.6173    0.0000 H   0  0  0  0  0  0  0  0  0  0  0  0
    4.1765    3.9609    0.0000 H   0  0  0  0  0  0  0  0  0  0  0  0
    4.1687    2.9055    0.0000 H   0  0  0  0  0  0  0  0  0  0  0  0
    0.1723    3.0582    0.0000 H   0  0  0  0  0  0  0  0  0  0  0  0
   -1.0571    5.3936    0.0000 H   0  0  0  0  0  0  0  0  0  0  0  0
   -0.6274    4.3614    0.0000 H   0  0  0  0  0  0  0  0  0  0  0  0
    0.7082    8.4513    0.0000 H   0  0  0  0  0  0  0  0  0  0  0  0
    1.8169    8.5952    0.0000 H   0  0  0  0  0  0  0  0  0  0  0  0
    7.8188    3.6826    0.0000 H   0  0  0  0  0  0  0  0  0  0  0  0
    6.8914    3.1648    0.0000 H   0  0  0  0  0  0  0  0  0  0  0  0
    5.6902    4.6070    0.0000 H   0  0  0  0  0  0  0  0  0  0  0  0
  1 19  2  0  0  0  0
  2  3  1  0  0  0  0
  2 21  2  0  0  0  0
  2 26  1  0  0  0  0
  3 27  1  0  0  0  0
  3 28  1  0  0  0  0
  3 29  1  0  0  0  0
  4 22  2  0  0  0  0
  5  6  1  0  0  0  0
  5 30  1  0  0  0  0
  5 31  1  0  0  0  0
  6 32  1  0  0  0  0
  7 33  1  0  0  0  0
  8 34  1  0  0  0  0
  8 35  1  0  0  0  0
  8 36  1  0  0  0  0
  9 10  1  0  0  0  0
  9 11  1  0  0  0  0
  9 12  1  0  0  0  0
  9 37  1  6  0  0  0
 10 13  1  0  0  0  0
 10 14  1  0  0  0  0
 10 38  1  6  0  0  0
 11 15  1  0  0  0  0
 11 16  2  0  0  0  0
 12 17  1  0  0  0  0
 12 18  1  0  0  0  0
 13 19  1  0  0  0  0
 14 18  1  0  0  0  0
 14 39  1  0  0  0  0
 14 40  1  0  0  0  0
 15 20  1  0  0  0  0
 15 41  1  0  0  0  0
 15 42  1  0  0  0  0
 16 17  1  0  0  0  0
 16 43  1  0  0  0  0
 17 44  1  0  0  0  0
 17 45  1  0  0  0  0
 18 46  1  0  0  0  0
 18 47  1  0  0  0  0
 19 21  1  0  0  0  0
 20 22  1  0  0  0  0
 21 23  1  0  0  0  0
 22 24  1  0  0  0  0
 23 25  1  0  0  0  0
 23 48  1  0  0  0  0
 23 49  1  0  0  0  0
 24  5  1  0  0  0  0
 24  7  1  1  0  0  0
 24 25  1  0  0  0  0
 25  8  1  0  0  0  0
 25 50  1  1  0  0  0
M  END
>  <Mol_ID>
9684

>  <Formula>
C18H25NO6

>  <MolWeight>
351.3942

>  <Cat>
E0687

>  <Name>
Usaramine

>  <Synonyms>
N/A

>  <Target>
Bacterial

>  <Form>
free base

>  <CAS>
15503-87-4

>  <URL>
https://www.selleckchem.com/products/usaramine.html

$$$$
