UTL-5g
 OpenBabel08302521323D

 25 26  0  0  0  0  0  0  0  0999 V2000
   -6.0383   -0.8670   -0.3150 O   0  0  0  0  0  0  0  0  0  0  0  0
   -4.9513   -1.7309   -0.3450 N   0  0  0  0  0  0  0  0  0  0  0  0
   -3.8710   -0.9584   -0.1356 C   0  0  0  0  0  0  0  0  0  0  0  0
   -4.2364    0.4086   -0.0418 C   0  0  0  0  0  0  0  0  0  0  0  0
   -5.6045    0.4039   -0.0978 C   0  0  0  0  0  0  0  0  0  0  0  0
   -2.5187   -1.4970    0.0253 C   0  0  0  0  0  0  0  0  0  0  0  0
   -1.5769   -0.7392    0.2266 O   0  0  0  0  0  0  0  0  0  0  0  0
   -2.4386   -2.8759   -0.0750 N   0  0  0  0  0  0  0  0  0  0  0  0
   -6.6310    1.4473    0.0695 C   0  0  0  0  0  0  0  0  0  0  0  0
   -1.2790   -3.6557    0.1085 C   0  0  0  0  0  0  0  0  0  0  0  0
   -0.1240   -3.1732    0.7319 C   0  0  0  0  0  0  0  0  0  0  0  0
    1.0183   -3.9709    0.8342 C   0  0  0  0  0  0  0  0  0  0  0  0
    1.0144   -5.2615    0.3151 C   0  0  0  0  0  0  0  0  0  0  0  0
   -0.1436   -5.7669   -0.2726 C   0  0  0  0  0  0  0  0  0  0  0  0
   -1.2923   -4.9729   -0.3611 C   0  0  0  0  0  0  0  0  0  0  0  0
   -3.5820    1.2530    0.1200 H   0  0  0  0  0  0  0  0  0  0  0  0
   -3.2848   -3.3388   -0.3897 H   0  0  0  0  0  0  0  0  0  0  0  0
   -6.9840    1.8089   -0.8996 H   0  0  0  0  0  0  0  0  0  0  0  0
   -7.4859    1.0620    0.6337 H   0  0  0  0  0  0  0  0  0  0  0  0
   -6.2234    2.2983    0.6262 H   0  0  0  0  0  0  0  0  0  0  0  0
   -0.0839   -2.1792    1.1670 H   0  0  0  0  0  0  0  0  0  0  0  0
    1.9092   -3.5752    1.3153 H   0  0  0  0  0  0  0  0  0  0  0  0
    1.9122   -5.8715    0.3719 H   0  0  0  0  0  0  0  0  0  0  0  0
   -0.1483   -6.7767   -0.6745 H   0  0  0  0  0  0  0  0  0  0  0  0
   -2.1782   -5.3878   -0.8338 H   0  0  0  0  0  0  0  0  0  0  0  0
  1  2  1  0  0  0  0
  1  5  1  0  0  0  0
  2  3  2  0  0  0  0
  3  4  1  0  0  0  0
  3  6  1  0  0  0  0
  4  5  2  0  0  0  0
  4 16  1  0  0  0  0
  5  9  1  0  0  0  0
  6  7  2  0  0  0  0
  6  8  1  0  0  0  0
  8 10  1  0  0  0  0
  8 17  1  0  0  0  0
  9 18  1  0  0  0  0
  9 19  1  0  0  0  0
  9 20  1  0  0  0  0
 10 11  2  0  0  0  0
 10 15  1  0  0  0  0
 11 12  1  0  0  0  0
 11 21  1  0  0  0  0
 12 13  2  0  0  0  0
 12 22  1  0  0  0  0
 13 14  1  0  0  0  0
 13 23  1  0  0  0  0
 14 15  2  0  0  0  0
 14 24  1  0  0  0  0
 15 25  1  0  0  0  0
M  END
>  <Mol_ID>
6221

>  <Formula>
C11H8Cl2N2O2

>  <MolWeight>
271.09942

>  <Cat>
S3540

>  <Name>
UTL-5g

>  <Synonyms>
GBL-5g

>  <Target>
TNF-alpha

>  <Form>
free base

>  <CAS>
646530-37-2

>  <URL>
http://www.selleckchem.com/products/utl-5g.html

$$$$
