V-0219
 OpenBabel08302521343D

 54 57  0  0  0  0  0  0  0  0999 V2000
    0.9813   -0.1762   -0.4355 C   0  0  0  0  0  0  0  0  0  0  0  0
    7.3646    1.9896   -6.5546 C   0  0  0  0  0  0  0  0  0  0  0  0
    6.6720    2.6784   -7.5044 F   0  0  0  0  0  0  0  0  0  0  0  0
    8.4160    2.7840   -6.2124 F   0  0  0  0  0  0  0  0  0  0  0  0
    7.9003    0.9125   -7.1926 F   0  0  0  0  0  0  0  0  0  0  0  0
    0.1561    4.0289    2.1169 C   0  0  0  0  0  0  0  0  0  0  0  0
    4.1321    0.4893   -1.9789 C   0  0  0  0  0  0  0  0  0  0  0  0
    2.7690    0.6951   -1.9973 N   0  0  0  0  0  0  0  0  0  0  0  0
    4.5722   -0.1393   -0.8767 N   0  0  0  0  0  0  0  0  0  0  0  0
    2.3752    0.1156   -0.8863 C   0  0  0  0  0  0  0  0  0  0  0  0
    3.4032   -0.3970   -0.1512 O   0  0  0  0  0  0  0  0  0  0  0  0
    4.9716    0.8765   -3.1098 C   0  0  0  0  0  0  0  0  0  0  0  0
    4.4012    1.5748   -4.1849 C   0  0  0  0  0  0  0  0  0  0  0  0
    6.3285    0.5345   -3.1765 C   0  0  0  0  0  0  0  0  0  0  0  0
    5.1669    1.9325   -5.2979 C   0  0  0  0  0  0  0  0  0  0  0  0
    7.0977    0.8914   -4.2923 C   0  0  0  0  0  0  0  0  0  0  0  0
    6.5257    1.5984   -5.3618 C   0  0  0  0  0  0  0  0  0  0  0  0
    0.5755    0.4185    0.8560 N   0  0  0  0  0  0  0  0  0  0  0  0
    0.5207    1.8915    0.8091 C   0  0  0  0  0  0  0  0  0  0  0  0
   -0.7480   -0.1162    1.2259 C   0  0  0  0  0  0  0  0  0  0  0  0
    0.1658    2.4806    2.1988 C   0  0  3  0  0  0  0  0  0  0  0  0
   -1.1672    0.3726    2.6083 C   0  0  0  0  0  0  0  0  0  0  0  0
   -1.1661    1.8965    2.6961 C   0  0  0  0  0  0  0  0  0  0  0  0
   -0.2993    4.7606    3.3123 N   0  0  0  0  0  0  0  0  0  0  0  0
   -0.2790    6.2272    3.0802 C   0  0  0  0  0  0  0  0  0  0  0  0
    0.4749    4.4919    4.5418 C   0  0  0  0  0  0  0  0  0  0  0  0
    1.1299    6.8483    3.1187 C   0  0  0  0  0  0  0  0  0  0  0  0
    1.8636    5.1515    4.5859 C   0  0  0  0  0  0  0  0  0  0  0  0
    1.7886    6.5642    4.3578 O   0  0  0  0  0  0  0  0  0  0  0  0
    0.9165   -1.2692   -0.3588 H   0  0  0  0  0  0  0  0  0  0  0  0
    0.2878    0.1236   -1.2307 H   0  0  0  0  0  0  0  0  0  0  0  0
    1.1592    4.3574    1.8200 H   0  0  0  0  0  0  0  0  0  0  0  0
   -0.5153    4.3063    1.2926 H   0  0  0  0  0  0  0  0  0  0  0  0
    3.3455    1.8426   -4.1669 H   0  0  0  0  0  0  0  0  0  0  0  0
    6.7991   -0.0205   -2.3666 H   0  0  0  0  0  0  0  0  0  0  0  0
    4.6909    2.4721   -6.1152 H   0  0  0  0  0  0  0  0  0  0  0  0
    8.1506    0.6113   -4.3250 H   0  0  0  0  0  0  0  0  0  0  0  0
   -0.2128    2.2249    0.0616 H   0  0  0  0  0  0  0  0  0  0  0  0
    1.4944    2.2938    0.5061 H   0  0  0  0  0  0  0  0  0  0  0  0
   -0.7153   -1.2126    1.2491 H   0  0  0  0  0  0  0  0  0  0  0  0
   -1.5053    0.1673    0.4854 H   0  0  0  0  0  0  0  0  0  0  0  0
    0.9575    2.1759    2.8965 H   0  0  0  0  0  0  0  0  0  0  0  0
   -0.4842   -0.0400    3.3601 H   0  0  0  0  0  0  0  0  0  0  0  0
   -2.1679   -0.0104    2.8431 H   0  0  0  0  0  0  0  0  0  0  0  0
   -1.3497    2.1862    3.7367 H   0  0  0  0  0  0  0  0  0  0  0  0
   -1.9966    2.2951    2.1008 H   0  0  0  0  0  0  0  0  0  0  0  0
   -0.8789    6.6926    3.8735 H   0  0  0  0  0  0  0  0  0  0  0  0
   -0.7765    6.4777    2.1361 H   0  0  0  0  0  0  0  0  0  0  0  0
   -0.1131    4.8940    5.3788 H   0  0  0  0  0  0  0  0  0  0  0  0
    0.5613    3.4191    4.7385 H   0  0  0  0  0  0  0  0  0  0  0  0
    1.7549    6.4991    2.2892 H   0  0  0  0  0  0  0  0  0  0  0  0
    1.0543    7.9373    3.0312 H   0  0  0  0  0  0  0  0  0  0  0  0
    2.2999    5.0104    5.5806 H   0  0  0  0  0  0  0  0  0  0  0  0
    2.5469    4.7015    3.8575 H   0  0  0  0  0  0  0  0  0  0  0  0
  1 10  1  0  0  0  0
  1 18  1  0  0  0  0
  1 30  1  0  0  0  0
  1 31  1  0  0  0  0
  2  3  1  0  0  0  0
  2  4  1  0  0  0  0
  2  5  1  0  0  0  0
  2 17  1  0  0  0  0
  6 21  1  0  0  0  0
  6 24  1  0  0  0  0
  6 32  1  0  0  0  0
  6 33  1  0  0  0  0
  7  8  1  0  0  0  0
  7  9  2  0  0  0  0
  7 12  1  0  0  0  0
  8 10  2  0  0  0  0
  9 11  1  0  0  0  0
 10 11  1  0  0  0  0
 12 13  2  0  0  0  0
 12 14  1  0  0  0  0
 13 15  1  0  0  0  0
 13 34  1  0  0  0  0
 14 16  2  0  0  0  0
 14 35  1  0  0  0  0
 15 17  2  0  0  0  0
 15 36  1  0  0  0  0
 16 17  1  0  0  0  0
 16 37  1  0  0  0  0
 18 19  1  0  0  0  0
 18 20  1  0  0  0  0
 19 21  1  0  0  0  0
 19 38  1  0  0  0  0
 19 39  1  0  0  0  0
 20 22  1  0  0  0  0
 20 40  1  0  0  0  0
 20 41  1  0  0  0  0
 21 23  1  0  0  0  0
 21 42  1  0  0  0  0
 22 23  1  0  0  0  0
 22 43  1  0  0  0  0
 22 44  1  0  0  0  0
 23 45  1  0  0  0  0
 23 46  1  0  0  0  0
 24 25  1  0  0  0  0
 24 26  1  0  0  0  0
 25 27  1  0  0  0  0
 25 47  1  0  0  0  0
 25 48  1  0  0  0  0
 26 28  1  0  0  0  0
 26 49  1  0  0  0  0
 26 50  1  0  0  0  0
 27 29  1  0  0  0  0
 27 51  1  0  0  0  0
 27 52  1  0  0  0  0
 28 29  1  0  0  0  0
 28 53  1  0  0  0  0
 28 54  1  0  0  0  0
M  END
>  <Mol_ID>
6419

>  <Formula>
C20H25F3N4O2

>  <MolWeight>
410.4333096

>  <Cat>
E1173

>  <Name>
V-0219

>  <Target>
Glucagon Receptor

>  <Form>
free base

>  <CAS>
878453-71-5

>  <URL>
http://www.selleckchem.com/products/v-0219.html

$$$$
