Valaciclovir hydrochloride.cdx
 OpenBabel08302521283D

 43 44  0  0  0  0  0  0  0  0999 V2000
    1.4371  -11.3373    2.5938 N   0  0  0  0  0  0  0  0  0  0  0  0
    0.3157  -10.5391    2.6849 C   0  0  0  0  0  0  0  0  0  0  0  0
    0.3329   -9.2450    2.5358 N   0  0  0  0  0  0  0  0  0  0  0  0
    1.5654   -8.7530    2.2575 C   0  0  0  0  0  0  0  0  0  0  0  0
    2.7550   -9.4310    2.1402 C   0  0  0  0  0  0  0  0  0  0  0  0
    2.7198  -10.8701    2.3232 C   0  0  0  0  0  0  0  0  0  0  0  0
    3.6811  -11.6283    2.2576 O   0  0  0  0  0  0  0  0  0  0  0  0
   -0.8633  -11.1514    2.9503 N   0  0  0  0  0  0  0  0  0  0  0  0
    1.8634   -7.4393    2.0199 N   0  0  0  0  0  0  0  0  0  0  0  0
    3.2098   -7.3698    1.7939 C   0  0  0  0  0  0  0  0  0  0  0  0
    3.7830   -8.5637    1.8555 N   0  0  0  0  0  0  0  0  0  0  0  0
    0.8457   -6.4092    2.1046 C   0  0  0  0  0  0  0  0  0  0  0  0
    1.2523   -5.1314    1.5953 O   0  0  0  0  0  0  0  0  0  0  0  0
    0.1225   -4.2361    1.7032 C   0  0  0  0  0  0  0  0  0  0  0  0
    0.4380   -2.8340    1.1803 C   0  0  0  0  0  0  0  0  0  0  0  0
   -0.6124   -1.8666    1.4262 O   0  0  0  0  0  0  0  0  0  0  0  0
   -1.7508   -1.9772    0.6796 C   0  0  0  0  0  0  0  0  0  0  0  0
   -2.6245   -0.6929    0.7660 C   0  0  2  0  0  0  0  0  0  0  0  0
   -3.5028   -0.5436    2.0304 C   0  0  0  0  0  0  0  0  0  0  0  0
   -4.5231   -1.6689    2.2299 C   0  0  0  0  0  0  0  0  0  0  0  0
   -2.0143   -2.9349   -0.0388 O   0  0  0  0  0  0  0  0  0  0  0  0
   -2.6688   -0.3553    3.2986 C   0  0  0  0  0  0  0  0  0  0  0  0
   -3.5039   -0.6182   -0.4351 N   0  0  0  0  0  0  0  0  0  0  0  0
    1.3564  -12.3360    2.6834 H   0  0  0  0  0  0  0  0  0  0  0  0
   -1.5834  -10.4934    3.2329 H   0  0  0  0  0  0  0  0  0  0  0  0
   -0.8478  -11.9948    3.5051 H   0  0  0  0  0  0  0  0  0  0  0  0
    3.7261   -6.4395    1.5951 H   0  0  0  0  0  0  0  0  0  0  0  0
   -0.0113   -6.7708    1.5250 H   0  0  0  0  0  0  0  0  0  0  0  0
    0.5873   -6.3179    3.1652 H   0  0  0  0  0  0  0  0  0  0  0  0
   -0.7183   -4.6626    1.1457 H   0  0  0  0  0  0  0  0  0  0  0  0
   -0.1803   -4.1667    2.7547 H   0  0  0  0  0  0  0  0  0  0  0  0
    1.3312   -2.4580    1.6913 H   0  0  0  0  0  0  0  0  0  0  0  0
    0.6857   -2.8516    0.1124 H   0  0  0  0  0  0  0  0  0  0  0  0
   -1.9456    0.1659    0.6945 H   0  0  0  0  0  0  0  0  0  0  0  0
   -4.0852    0.3833    1.9137 H   0  0  0  0  0  0  0  0  0  0  0  0
   -4.0343   -2.6335    2.3925 H   0  0  0  0  0  0  0  0  0  0  0  0
   -5.1548   -1.4598    3.1016 H   0  0  0  0  0  0  0  0  0  0  0  0
   -5.1957   -1.7611    1.3713 H   0  0  0  0  0  0  0  0  0  0  0  0
   -2.0399    0.5374    3.2150 H   0  0  0  0  0  0  0  0  0  0  0  0
   -3.3173   -0.2184    4.1715 H   0  0  0  0  0  0  0  0  0  0  0  0
   -2.0256   -1.2164    3.4974 H   0  0  0  0  0  0  0  0  0  0  0  0
   -2.9160   -0.6016   -1.2697 H   0  0  0  0  0  0  0  0  0  0  0  0
   -4.0106   -1.5048   -0.5098 H   0  0  0  0  0  0  0  0  0  0  0  0
  1  2  1  0  0  0  0
  1 24  1  0  0  0  0
  2  3  2  0  0  0  0
  2  8  1  0  0  0  0
  3  4  1  0  0  0  0
  4  5  2  0  0  0  0
  4  9  1  0  0  0  0
  6  1  1  0  0  0  0
  6  7  2  0  0  0  0
  6  5  1  0  0  0  0
  8 25  1  0  0  0  0
  8 26  1  0  0  0  0
  9 10  1  0  0  0  0
  9 12  1  0  0  0  0
 10 11  2  0  0  0  0
 10 27  1  0  0  0  0
 11  5  1  0  0  0  0
 12 13  1  0  0  0  0
 12 28  1  0  0  0  0
 12 29  1  0  0  0  0
 13 14  1  0  0  0  0
 14 15  1  0  0  0  0
 14 30  1  0  0  0  0
 14 31  1  0  0  0  0
 15 16  1  0  0  0  0
 15 32  1  0  0  0  0
 15 33  1  0  0  0  0
 16 17  1  0  0  0  0
 17 21  2  0  0  0  0
 18 23  1  0  0  0  0
 18 34  1  6  0  0  0
 18 19  1  0  0  0  0
 18 17  1  0  0  0  0
 19 20  1  0  0  0  0
 19 22  1  0  0  0  0
 19 35  1  0  0  0  0
 20 36  1  0  0  0  0
 20 37  1  0  0  0  0
 20 38  1  0  0  0  0
 22 39  1  0  0  0  0
 22 40  1  0  0  0  0
 22 41  1  0  0  0  0
 23 42  1  0  0  0  0
 23 43  1  0  0  0  0
M  END
>  <Mol_ID>
517

>  <Formula>
C13H21ClN6O4

>  <MolWeight>
360.79664

>  <Cat>
S1876

>  <Name>
Valaciclovir HCl

>  <Synonyms>
N/A

>  <Target>
CMV

>  <Form>
Hydrochloride

>  <CAS>
124832-27-5

>  <URL>
http://selleckchem.com/products/valaciclovir-hcl.html

$$$$
