Valdecoxib
 OpenBabel08302522033D

 36 38  0  0  0  0  0  0  0  0999 V2000
   -0.8572   -1.0840   -0.6337 C   0  0  0  0  0  0  0  0  0  0  0  0
    0.3587   -1.1014   -1.3122 C   0  0  0  0  0  0  0  0  0  0  0  0
    1.0973    0.0730   -1.4470 C   0  0  0  0  0  0  0  0  0  0  0  0
    0.6269    1.2643   -0.8886 C   0  0  0  0  0  0  0  0  0  0  0  0
   -0.5939    1.2948   -0.1988 C   0  0  0  0  0  0  0  0  0  0  0  0
   -1.3394    0.1114   -0.0972 C   0  0  0  0  0  0  0  0  0  0  0  0
   -1.0855    2.5505    0.3770 C   0  0  0  0  0  0  0  0  0  0  0  0
   -0.9234    3.6965   -0.3021 N   0  0  0  0  0  0  0  0  0  0  0  0
   -1.5580    4.6711    0.4214 O   0  0  0  0  0  0  0  0  0  0  0  0
   -2.0914    4.1427    1.5541 C   0  0  0  0  0  0  0  0  0  0  0  0
   -1.7874    2.7931    1.6143 C   0  0  0  0  0  0  0  0  0  0  0  0
   -2.1635    1.8680    2.6844 C   0  0  0  0  0  0  0  0  0  0  0  0
   -3.4034    1.9598    3.3316 C   0  0  0  0  0  0  0  0  0  0  0  0
   -3.8036    0.9930    4.2595 C   0  0  0  0  0  0  0  0  0  0  0  0
   -2.9817   -0.1051    4.5124 C   0  0  0  0  0  0  0  0  0  0  0  0
   -1.7283   -0.2033    3.9110 C   0  0  0  0  0  0  0  0  0  0  0  0
   -1.3141    0.7987    3.0263 C   0  0  0  0  0  0  0  0  0  0  0  0
   -3.5548   -1.3942    5.5808 S   0  0  0  0  0  0  0  0  0  0  0  0
   -3.7330   -2.6807    4.5089 N   0  0  0  0  0  0  0  0  0  0  0  0
   -2.4894   -1.7597    6.4833 O   0  0  0  0  0  0  0  0  0  0  0  0
   -4.8879   -1.0871    6.0283 O   0  0  0  0  0  0  0  0  0  0  0  0
   -2.8297    5.1280    2.3707 C   0  0  0  0  0  0  0  0  0  0  0  0
   -1.4359   -1.9980   -0.5270 H   0  0  0  0  0  0  0  0  0  0  0  0
    0.7262   -2.0282   -1.7461 H   0  0  0  0  0  0  0  0  0  0  0  0
    2.0394    0.0642   -1.9891 H   0  0  0  0  0  0  0  0  0  0  0  0
    1.2204    2.1705   -0.9961 H   0  0  0  0  0  0  0  0  0  0  0  0
   -2.3052    0.1032    0.4025 H   0  0  0  0  0  0  0  0  0  0  0  0
   -4.1023    2.7596    3.1019 H   0  0  0  0  0  0  0  0  0  0  0  0
   -4.7705    1.0895    4.7495 H   0  0  0  0  0  0  0  0  0  0  0  0
   -1.0851   -1.0601    4.0997 H   0  0  0  0  0  0  0  0  0  0  0  0
   -0.3300    0.7017    2.5697 H   0  0  0  0  0  0  0  0  0  0  0  0
   -3.1992   -3.4831    4.8491 H   0  0  0  0  0  0  0  0  0  0  0  0
   -4.7237   -2.8806    4.3688 H   0  0  0  0  0  0  0  0  0  0  0  0
   -2.2203    6.0230    2.5328 H   0  0  0  0  0  0  0  0  0  0  0  0
   -3.7419    5.4338    1.8470 H   0  0  0  0  0  0  0  0  0  0  0  0
   -3.1107    4.7448    3.3527 H   0  0  0  0  0  0  0  0  0  0  0  0
  1  2  2  0  0  0  0
  1 23  1  0  0  0  0
  2  3  1  0  0  0  0
  2 24  1  0  0  0  0
  3  4  2  0  0  0  0
  3 25  1  0  0  0  0
  4  5  1  0  0  0  0
  4 26  1  0  0  0  0
  5  6  2  0  0  0  0
  5  7  1  0  0  0  0
  6  1  1  0  0  0  0
  6 27  1  0  0  0  0
  7  8  2  0  0  0  0
  8  9  1  0  0  0  0
  9 10  1  0  0  0  0
 10 11  2  0  0  0  0
 10 22  1  0  0  0  0
 11  7  1  0  0  0  0
 11 12  1  0  0  0  0
 12 13  2  0  0  0  0
 13 14  1  0  0  0  0
 13 28  1  0  0  0  0
 14 15  2  0  0  0  0
 14 29  1  0  0  0  0
 15 16  1  0  0  0  0
 15 18  1  0  0  0  0
 16 17  2  0  0  0  0
 16 30  1  0  0  0  0
 17 12  1  0  0  0  0
 17 31  1  0  0  0  0
 18 19  1  0  0  0  0
 18 20  2  0  0  0  0
 18 21  2  0  0  0  0
 19 32  1  0  0  0  0
 19 33  1  0  0  0  0
 22 34  1  0  0  0  0
 22 35  1  0  0  0  0
 22 36  1  0  0  0  0
M  END
>  <Mol_ID>
1230

>  <Formula>
C16H14N2O3S

>  <MolWeight>
314.35896

>  <Cat>
S4049

>  <Name>
Valdecoxib

>  <Synonyms>
N/A

>  <Target>
COX

>  <Form>
free base

>  <CAS>
181695-72-7

>  <URL>
http://selleckchem.com/products/valdecoxib.html

$$$$
