Valemetostat (DS-3201)
 OpenBabel08302521353D

 68 71  0  0  0  0  0  0  0  0999 V2000
    3.1127   11.1251   -7.6576 N   0  0  0  0  0  0  0  0  0  0  0  0
    1.9005   10.5062   -7.8325 C   0  0  0  0  0  0  0  0  0  0  0  0
    1.7761    9.2085   -7.5133 C   0  0  0  0  0  0  0  0  0  0  0  0
    2.8937    8.4588   -6.9665 C   0  0  0  0  0  0  0  0  0  0  0  0
    4.0840    9.0680   -6.7731 C   0  0  0  0  0  0  0  0  0  0  0  0
    4.2265   10.5084   -7.1505 C   0  0  0  0  0  0  0  0  0  0  0  0
    0.7616   11.3277   -8.3532 C   0  0  0  0  0  0  0  0  0  0  0  0
    2.6386    7.0250   -6.5883 C   0  0  0  0  0  0  0  0  0  0  0  0
    5.2766   11.1276   -6.9888 O   0  0  0  0  0  0  0  0  0  0  0  0
    5.3198    8.4282   -6.2124 C   0  0  0  0  0  0  0  0  0  0  0  0
    5.4078    8.7359   -4.7993 N   0  0  0  0  0  0  0  0  0  0  0  0
    5.4323    7.7457   -3.8423 C   0  0  0  0  0  0  0  0  0  0  0  0
    5.3668    6.5453   -4.1176 O   0  0  0  0  0  0  0  0  0  0  0  0
    5.5779    8.1877   -2.4308 C   0  0  0  0  0  0  0  0  0  0  0  0
    6.5053    9.2223   -2.1229 C   0  0  0  0  0  0  0  0  0  0  0  0
    6.8452    9.5180   -0.7914 C   0  0  0  0  0  0  0  0  0  0  0  0
    6.1441    8.8693    0.1939 C   0  0  0  0  0  0  0  0  0  0  0  0
    5.0803    8.0679   -0.1347 C   0  0  0  0  0  0  0  0  0  0  0  0
    4.8551    7.5687   -1.4016 C   0  0  0  0  0  0  0  0  0  0  0  0
    6.2585    8.9816    1.5550 O   0  0  0  0  0  0  0  0  0  0  0  0
    4.8763    8.7450    1.9219 C   0  0  1  0  0  0  0  0  0  0  0  0
    4.2186    7.9382    0.9114 O   0  0  0  0  0  0  0  0  0  0  0  0
    4.5636    7.9888    3.2456 C   0  0  1  0  0  0  0  0  0  0  0  0
    4.2970   10.1816    1.9840 C   0  0  0  0  0  0  0  0  0  0  0  0
    4.8978    6.4824    3.2516 C   0  0  0  0  0  0  0  0  0  0  0  0
    6.3408    6.1419    3.6097 C   0  0  0  0  0  0  0  0  0  0  0  0
    6.9256    6.9143    4.8148 C   0  0  1  0  0  0  0  0  0  0  0  0
    6.5370    8.4077    4.7557 C   0  0  0  0  0  0  0  0  0  0  0  0
    5.0614    8.6545    4.5236 C   0  0  0  0  0  0  0  0  0  0  0  0
    6.7534    6.2357    6.1197 N   0  0  0  0  0  0  0  0  0  0  0  0
    7.3918    6.9589    7.2208 C   0  0  0  0  0  0  0  0  0  0  0  0
    5.4156    5.8087    6.4968 C   0  0  0  0  0  0  0  0  0  0  0  0
    3.9375    6.3894   -1.5118 C   0  0  0  0  0  0  0  0  0  0  0  0
    3.2313   12.1019   -7.8924 H   0  0  0  0  0  0  0  0  0  0  0  0
    0.8226    8.6993   -7.6429 H   0  0  0  0  0  0  0  0  0  0  0  0
    0.3562   10.8919   -9.2711 H   0  0  0  0  0  0  0  0  0  0  0  0
   -0.0401   11.3841   -7.6090 H   0  0  0  0  0  0  0  0  0  0  0  0
    1.0717   12.3527   -8.5827 H   0  0  0  0  0  0  0  0  0  0  0  0
    3.2740    6.3503   -7.1726 H   0  0  0  0  0  0  0  0  0  0  0  0
    2.8374    6.8676   -5.5230 H   0  0  0  0  0  0  0  0  0  0  0  0
    1.5998    6.7275   -6.7674 H   0  0  0  0  0  0  0  0  0  0  0  0
    5.3229    7.3457   -6.3789 H   0  0  0  0  0  0  0  0  0  0  0  0
    6.2270    8.8142   -6.6933 H   0  0  0  0  0  0  0  0  0  0  0  0
    5.4331    9.7110   -4.5403 H   0  0  0  0  0  0  0  0  0  0  0  0
    7.0049    9.7690   -2.9194 H   0  0  0  0  0  0  0  0  0  0  0  0
    7.5806   10.2786   -0.5554 H   0  0  0  0  0  0  0  0  0  0  0  0
    3.4630    8.0088    3.3029 H   0  0  0  0  0  0  0  0  0  0  0  0
    4.0993   10.5778    0.9820 H   0  0  0  0  0  0  0  0  0  0  0  0
    3.3663   10.2384    2.5500 H   0  0  0  0  0  0  0  0  0  0  0  0
    5.0298   10.8604    2.4456 H   0  0  0  0  0  0  0  0  0  0  0  0
    4.2266    6.0004    3.9722 H   0  0  0  0  0  0  0  0  0  0  0  0
    4.6474    6.0117    2.2938 H   0  0  0  0  0  0  0  0  0  0  0  0
    6.4269    5.0609    3.7714 H   0  0  0  0  0  0  0  0  0  0  0  0
    6.9632    6.3524    2.7294 H   0  0  0  0  0  0  0  0  0  0  0  0
    8.0128    6.8882    4.6507 H   0  0  0  0  0  0  0  0  0  0  0  0
    6.8480    8.9455    5.6562 H   0  0  0  0  0  0  0  0  0  0  0  0
    7.1068    8.8781    3.9459 H   0  0  0  0  0  0  0  0  0  0  0  0
    4.8611    9.7302    4.5125 H   0  0  0  0  0  0  0  0  0  0  0  0
    4.4760    8.2710    5.3646 H   0  0  0  0  0  0  0  0  0  0  0  0
    6.8465    7.8668    7.4949 H   0  0  0  0  0  0  0  0  0  0  0  0
    7.4483    6.3272    8.1143 H   0  0  0  0  0  0  0  0  0  0  0  0
    8.4221    7.2292    6.9649 H   0  0  0  0  0  0  0  0  0  0  0  0
    4.7209    6.6397    6.6314 H   0  0  0  0  0  0  0  0  0  0  0  0
    4.9990    5.0986    5.7781 H   0  0  0  0  0  0  0  0  0  0  0  0
    5.4469    5.2622    7.4477 H   0  0  0  0  0  0  0  0  0  0  0  0
    4.3626    5.5602   -0.9284 H   0  0  0  0  0  0  0  0  0  0  0  0
    2.9528    6.6268   -1.0983 H   0  0  0  0  0  0  0  0  0  0  0  0
    3.7878    6.0195   -2.5246 H   0  0  0  0  0  0  0  0  0  0  0  0
  1  2  1  0  0  0  0
  1 34  1  0  0  0  0
  2  3  2  0  0  0  0
  2  7  1  0  0  0  0
  3  4  1  0  0  0  0
  3 35  1  0  0  0  0
  4  5  2  0  0  0  0
  4  8  1  0  0  0  0
  5  6  1  0  0  0  0
  5 10  1  0  0  0  0
  6  1  1  0  0  0  0
  6  9  2  0  0  0  0
  7 36  1  0  0  0  0
  7 37  1  0  0  0  0
  7 38  1  0  0  0  0
  8 39  1  0  0  0  0
  8 40  1  0  0  0  0
  8 41  1  0  0  0  0
 10 11  1  0  0  0  0
 10 42  1  0  0  0  0
 10 43  1  0  0  0  0
 11 12  1  0  0  0  0
 11 44  1  0  0  0  0
 12 13  2  0  0  0  0
 12 14  1  0  0  0  0
 14 15  2  0  0  0  0
 15 16  1  0  0  0  0
 15 45  1  0  0  0  0
 16 17  2  0  0  0  0
 16 46  1  0  0  0  0
 17 18  1  0  0  0  0
 17 20  1  0  0  0  0
 18 19  2  0  0  0  0
 19 14  1  0  0  0  0
 19 33  1  0  0  0  0
 20 21  1  0  0  0  0
 21 22  1  0  0  0  0
 21 24  1  1  0  0  0
 22 18  1  0  0  0  0
 23 25  1  0  0  0  0
 23 21  1  0  0  0  0
 23 47  1  1  0  0  0
 24 48  1  0  0  0  0
 24 49  1  0  0  0  0
 24 50  1  0  0  0  0
 25 26  1  0  0  0  0
 25 51  1  0  0  0  0
 25 52  1  0  0  0  0
 26 27  1  0  0  0  0
 26 53  1  0  0  0  0
 26 54  1  0  0  0  0
 27 28  1  0  0  0  0
 27 30  1  0  0  0  0
 27 55  1  6  0  0  0
 28 29  1  0  0  0  0
 28 56  1  0  0  0  0
 28 57  1  0  0  0  0
 29 23  1  0  0  0  0
 29 58  1  0  0  0  0
 29 59  1  0  0  0  0
 30 31  1  0  0  0  0
 30 32  1  0  0  0  0
 31 60  1  0  0  0  0
 31 61  1  0  0  0  0
 31 62  1  0  0  0  0
 32 63  1  0  0  0  0
 32 64  1  0  0  0  0
 32 65  1  0  0  0  0
 33 66  1  0  0  0  0
 33 67  1  0  0  0  0
 33 68  1  0  0  0  0
M  END
>  <Mol_ID>
6750

>  <Formula>
C26H34ClN3O4

>  <MolWeight>
488.01886

>  <Cat>
S8926

>  <Name>
Valemetostat (DS-3201)

>  <Synonyms>
DS-3201b

>  <Target>
EZH1/2

>  <Form>
Free base

>  <CAS>
1809336-39-7

>  <URL>
http://www.selleckchem.com/products/valemetostat-ds-3201.html

$$$$
