Valethamate Bromide
 OpenBabel08302520323D

 55 54  0  0  0  0  0  0  0  0999 V2000
    1.7833   -0.3809    0.5946 C   0  0  0  0  0  0  0  0  0  0  0  0
    3.0103   -1.0547   -0.0493 C   0  0  3  0  0  0  0  0  0  0  0  0
    0.8050    0.2136   -0.2168 C   0  0  0  0  0  0  0  0  0  0  0  0
    1.5158   -0.4114    1.9790 C   0  0  0  0  0  0  0  0  0  0  0  0
    3.9619   -0.1035   -0.8430 C   0  0  0  0  0  0  0  0  0  0  0  0
    3.8626   -1.9452    0.9364 C   0  0  3  0  0  0  0  0  0  0  0  0
   -0.3917    0.7354    0.2823 C   0  0  0  0  0  0  0  0  0  0  0  0
    0.3053    0.0961    2.5022 C   0  0  0  0  0  0  0  0  0  0  0  0
    3.9915    1.1892   -0.4248 O   0  0  0  0  0  0  0  0  0  0  0  0
    4.7384   -0.5192   -1.7012 O   0  0  0  0  0  0  0  0  0  0  0  0
    3.1817   -3.2569    1.4362 C   0  0  0  0  0  0  0  0  0  0  0  0
    5.2808   -2.2941    0.4561 C   0  0  0  0  0  0  0  0  0  0  0  0
   -0.6416    0.6576    1.6612 C   0  0  0  0  0  0  0  0  0  0  0  0
    5.1690    2.0564   -0.5098 C   0  0  0  0  0  0  0  0  0  0  0  0
    2.6467   -4.2311    0.3907 C   0  0  0  0  0  0  0  0  0  0  0  0
    5.7986    2.6532   -1.8401 C   0  0  0  0  0  0  0  0  0  0  0  0
    4.8344    2.9329   -3.0113 N   0  3  0  0  0  0  0  0  0  0  0  0
    3.5643    3.6644   -2.4665 C   0  0  0  0  0  0  0  0  0  0  0  0
    5.3408    3.7969   -4.1965 C   0  0  0  0  0  0  0  0  0  0  0  0
    4.4522    1.5580   -3.5943 C   0  0  0  0  0  0  0  0  0  0  0  0
    3.9010    5.0617   -1.9153 C   0  0  0  0  0  0  0  0  0  0  0  0
    6.5086    3.2786   -5.0218 C   0  0  0  0  0  0  0  0  0  0  0  0
    0.2684    0.2023   -4.2598 Br  0  5  0  0  0  0  0  0  0  0  0  0
    2.5821   -1.7201   -0.8121 H   0  0  0  0  0  0  0  0  0  0  0  0
    0.9378    0.2354   -1.2967 H   0  0  0  0  0  0  0  0  0  0  0  0
    2.1868   -0.8500    2.6949 H   0  0  0  0  0  0  0  0  0  0  0  0
    4.0443   -1.3335    1.8291 H   0  0  0  0  0  0  0  0  0  0  0  0
   -1.1426    1.1319   -0.3837 H   0  0  0  0  0  0  0  0  0  0  0  0
    0.1065    0.0106    3.5543 H   0  0  0  0  0  0  0  0  0  0  0  0
    3.9122   -3.8070    2.0469 H   0  0  0  0  0  0  0  0  0  0  0  0
    2.3592   -3.0240    2.1188 H   0  0  0  0  0  0  0  0  0  0  0  0
    5.8280   -1.4256    0.0841 H   0  0  0  0  0  0  0  0  0  0  0  0
    5.8777   -2.6474    1.3046 H   0  0  0  0  0  0  0  0  0  0  0  0
    5.2802   -3.0704   -0.3141 H   0  0  0  0  0  0  0  0  0  0  0  0
   -1.5856    1.0042    2.0677 H   0  0  0  0  0  0  0  0  0  0  0  0
    4.8517    2.9300    0.0766 H   0  0  0  0  0  0  0  0  0  0  0  0
    5.9684    1.6054    0.0917 H   0  0  0  0  0  0  0  0  0  0  0  0
    3.4223   -4.5557   -0.3077 H   0  0  0  0  0  0  0  0  0  0  0  0
    2.2669   -5.1276    0.8919 H   0  0  0  0  0  0  0  0  0  0  0  0
    1.8136   -3.8039   -0.1742 H   0  0  0  0  0  0  0  0  0  0  0  0
    6.2831    3.6093   -1.5953 H   0  0  0  0  0  0  0  0  0  0  0  0
    6.6094    2.0148   -2.2088 H   0  0  0  0  0  0  0  0  0  0  0  0
    2.8453    3.7306   -3.2852 H   0  0  0  0  0  0  0  0  0  0  0  0
    3.1252    3.0483   -1.6805 H   0  0  0  0  0  0  0  0  0  0  0  0
    4.4762    3.9043   -4.8671 H   0  0  0  0  0  0  0  0  0  0  0  0
    5.6051    4.7874   -3.8189 H   0  0  0  0  0  0  0  0  0  0  0  0
    4.5119    1.5652   -4.6795 H   0  0  0  0  0  0  0  0  0  0  0  0
    5.2329    0.8520   -3.2700 H   0  0  0  0  0  0  0  0  0  0  0  0
    3.4667    1.2770   -3.2514 H   0  0  0  0  0  0  0  0  0  0  0  0
    4.1803    5.7683   -2.7019 H   0  0  0  0  0  0  0  0  0  0  0  0
    3.0204    5.4864   -1.4213 H   0  0  0  0  0  0  0  0  0  0  0  0
    4.7054    5.0524   -1.1764 H   0  0  0  0  0  0  0  0  0  0  0  0
    6.3757    2.2628   -5.4013 H   0  0  0  0  0  0  0  0  0  0  0  0
    6.6058    3.9210   -5.9077 H   0  0  0  0  0  0  0  0  0  0  0  0
    7.4525    3.3389   -4.4760 H   0  0  0  0  0  0  0  0  0  0  0  0
  1  2  1  0  0  0  0
  1  3  2  0  0  0  0
  1  4  1  0  0  0  0
  2  5  1  0  0  0  0
  2  6  1  0  0  0  0
  2 24  1  0  0  0  0
  3  7  1  0  0  0  0
  3 25  1  0  0  0  0
  4  8  2  0  0  0  0
  4 26  1  0  0  0  0
  5  9  1  0  0  0  0
  5 10  2  0  0  0  0
  6 11  1  0  0  0  0
  6 12  1  0  0  0  0
  6 27  1  0  0  0  0
  7 13  2  0  0  0  0
  7 28  1  0  0  0  0
  8 13  1  0  0  0  0
  8 29  1  0  0  0  0
  9 14  1  0  0  0  0
 11 15  1  0  0  0  0
 11 30  1  0  0  0  0
 11 31  1  0  0  0  0
 12 32  1  0  0  0  0
 12 33  1  0  0  0  0
 12 34  1  0  0  0  0
 13 35  1  0  0  0  0
 14 16  1  0  0  0  0
 14 36  1  0  0  0  0
 14 37  1  0  0  0  0
 15 38  1  0  0  0  0
 15 39  1  0  0  0  0
 15 40  1  0  0  0  0
 16 17  1  0  0  0  0
 16 41  1  0  0  0  0
 16 42  1  0  0  0  0
 17 18  1  0  0  0  0
 17 19  1  0  0  0  0
 17 20  1  0  0  0  0
 18 21  1  0  0  0  0
 18 43  1  0  0  0  0
 18 44  1  0  0  0  0
 19 22  1  0  0  0  0
 19 45  1  0  0  0  0
 19 46  1  0  0  0  0
 20 47  1  0  0  0  0
 20 48  1  0  0  0  0
 20 49  1  0  0  0  0
 21 50  1  0  0  0  0
 21 51  1  0  0  0  0
 21 52  1  0  0  0  0
 22 53  1  0  0  0  0
 22 54  1  0  0  0  0
 22 55  1  0  0  0  0
M  CHG  2  17   1  23  -1
M  END
>  <Mol_ID>
3338

>  <Formula>
C19H32BrNO2

>  <MolWeight>
386.36688

>  <Cat>
S5038

>  <Name>
Valethamate Bromide

>  <Synonyms>
Ediposin

>  <Target>
Others

>  <Form>
Bromide

>  <CAS>
90-22-2

>  <URL>
http://www.selleckchem.com/products/valethamate-bromide.html

$$$$
