¦Ä-Valerolactone
 OpenBabel08302521293D

 15 15  0  0  0  0  0  0  0  0999 V2000
   -0.3167    1.1268   -0.0665 O   0  0  0  0  0  0  0  0  0  0  0  0
   -2.1128   -0.2078    0.2440 O   0  0  0  0  0  0  0  0  0  0  0  0
    1.2961   -1.2543    0.1693 C   0  0  0  0  0  0  0  0  0  0  0  0
    1.8321    0.1463    0.4419 C   0  0  0  0  0  0  0  0  0  0  0  0
   -0.0761   -1.2464   -0.4899 C   0  0  0  0  0  0  0  0  0  0  0  0
    1.0838    1.1780   -0.3800 C   0  0  0  0  0  0  0  0  0  0  0  0
   -0.9285   -0.0853   -0.0465 C   0  0  0  0  0  0  0  0  0  0  0  0
    1.2592   -1.8138    1.1120 H   0  0  0  0  0  0  0  0  0  0  0  0
    1.9939   -1.7987   -0.4787 H   0  0  0  0  0  0  0  0  0  0  0  0
    1.6838    0.3692    1.5066 H   0  0  0  0  0  0  0  0  0  0  0  0
    2.9086    0.1923    0.2489 H   0  0  0  0  0  0  0  0  0  0  0  0
   -0.5970   -2.1815   -0.2558 H   0  0  0  0  0  0  0  0  0  0  0  0
    0.0158   -1.1929   -1.5809 H   0  0  0  0  0  0  0  0  0  0  0  0
    1.4392    2.1833   -0.1329 H   0  0  0  0  0  0  0  0  0  0  0  0
    1.2193    1.0320   -1.4576 H   0  0  0  0  0  0  0  0  0  0  0  0
  1  6  1  0  0  0  0
  1  7  1  0  0  0  0
  2  7  2  0  0  0  0
  3  4  1  0  0  0  0
  3  5  1  0  0  0  0
  3  8  1  0  0  0  0
  3  9  1  0  0  0  0
  4  6  1  0  0  0  0
  4 10  1  0  0  0  0
  4 11  1  0  0  0  0
  5  7  1  0  0  0  0
  5 12  1  0  0  0  0
  5 13  1  0  0  0  0
  6 14  1  0  0  0  0
  6 15  1  0  0  0  0
M  END
>  <Mol_ID>
5451

>  <Formula>
C5H8O2

>  <MolWeight>
100.11582

>  <Cat>
S3099

>  <Name>
¦Ä-Valerolactone

>  <Synonyms>
Tetrahydro-2H-pyran-2-one, 5-Valerolactone, oxan-2-one

>  <Target>
Others

>  <Form>
Free Base

>  <CAS>
542-28-9

>  <URL>
https://www.selleckchem.com/products/5-valerolactone.html

$$$$
