Valepotriate
 OpenBabel08302521343D

 60 62  0  0  0  0  0  0  0  0999 V2000
    3.0290   -0.2282   -1.3450 O   0  0  0  0  0  0  0  0  0  0  0  0
    2.5025    0.3702   -2.4366 C   0  0  0  0  0  0  0  0  0  0  0  0
    3.5244    0.5380   -3.5432 C   0  0  0  0  0  0  0  0  0  0  0  0
    1.3619    0.8077   -2.5110 O   0  0  0  0  0  0  0  0  0  0  0  0
    4.6114   -0.5500   -3.6530 C   0  0  0  0  0  0  0  0  0  0  0  0
    4.0164   -1.9396   -3.8665 C   0  0  0  0  0  0  0  0  0  0  0  0
    5.5538   -0.2172   -4.8168 C   0  0  0  0  0  0  0  0  0  0  0  0
    5.0105    2.4384    2.2783 O   0  0  0  0  0  0  0  0  0  0  0  0
    4.6731    3.5724    1.6291 C   0  0  0  0  0  0  0  0  0  0  0  0
    5.8855    4.2887    1.0898 C   0  0  0  0  0  0  0  0  0  0  0  0
    3.5355    3.9915    1.4849 O   0  0  0  0  0  0  0  0  0  0  0  0
    6.7193    3.4741    0.0881 C   0  0  0  0  0  0  0  0  0  0  0  0
    5.9162    3.0558   -1.1468 C   0  0  0  0  0  0  0  0  0  0  0  0
    7.9307    4.3026   -0.3498 C   0  0  0  0  0  0  0  0  0  0  0  0
    4.2802   -2.8787    2.9420 C   0  0  0  0  0  0  0  0  0  0  0  0
    2.9834   -3.4962    3.0263 O   0  0  0  0  0  0  0  0  0  0  0  0
    2.4578   -3.5924    4.2758 C   0  0  0  0  0  0  0  0  0  0  0  0
    1.1148   -4.2603    4.2363 C   0  0  0  0  0  0  0  0  0  0  0  0
    3.0071   -3.2343    5.3086 O   0  0  0  0  0  0  0  0  0  0  0  0
    2.2867    0.9127    0.6606 C   0  0  2  0  0  0  0  0  0  0  0  0
    3.5690    0.6937    1.4569 C   0  0  2  0  0  0  0  0  0  0  0  0
    2.1677   -0.3413   -0.1993 C   0  0  2  0  0  0  0  0  0  0  0  0
    1.3469    2.0961    0.5249 C   0  0  0  0  0  0  0  0  0  0  0  0
    1.1309    1.0968    1.5199 O   0  0  0  0  0  0  0  0  0  0  0  0
    3.5253   -0.8094    1.6573 C   0  0  0  0  0  0  0  0  0  0  0  0
    3.9294    1.5436    2.6845 C   0  0  1  0  0  0  0  0  0  0  0  0
    2.8045   -1.3918    0.6845 C   0  0  0  0  0  0  0  0  0  0  0  0
    4.1553   -1.3790    2.8075 C   0  0  0  0  0  0  0  0  0  0  0  0
    4.4769    0.8119    3.8052 O   0  0  0  0  0  0  0  0  0  0  0  0
    4.5978   -0.5454    3.7617 C   0  0  0  0  0  0  0  0  0  0  0  0
    2.9725    0.5802   -4.4855 H   0  0  0  0  0  0  0  0  0  0  0  0
    3.9986    1.5145   -3.3904 H   0  0  0  0  0  0  0  0  0  0  0  0
    5.2069   -0.5627   -2.7292 H   0  0  0  0  0  0  0  0  0  0  0  0
    3.3857   -1.9684   -4.7611 H   0  0  0  0  0  0  0  0  0  0  0  0
    4.8103   -2.6844   -3.9899 H   0  0  0  0  0  0  0  0  0  0  0  0
    3.4083   -2.2513   -3.0123 H   0  0  0  0  0  0  0  0  0  0  0  0
    6.0308    0.7581   -4.6738 H   0  0  0  0  0  0  0  0  0  0  0  0
    6.3472   -0.9677   -4.9038 H   0  0  0  0  0  0  0  0  0  0  0  0
    5.0126   -0.1919   -5.7698 H   0  0  0  0  0  0  0  0  0  0  0  0
    5.5329    5.2115    0.6114 H   0  0  0  0  0  0  0  0  0  0  0  0
    6.4963    4.5937    1.9472 H   0  0  0  0  0  0  0  0  0  0  0  0
    7.0869    2.5632    0.5766 H   0  0  0  0  0  0  0  0  0  0  0  0
    5.4500    3.9188   -1.6334 H   0  0  0  0  0  0  0  0  0  0  0  0
    6.5638    2.5648   -1.8827 H   0  0  0  0  0  0  0  0  0  0  0  0
    5.1266    2.3457   -0.8870 H   0  0  0  0  0  0  0  0  0  0  0  0
    8.5553    4.5635    0.5108 H   0  0  0  0  0  0  0  0  0  0  0  0
    8.5530    3.7462   -1.0586 H   0  0  0  0  0  0  0  0  0  0  0  0
    7.6179    5.2339   -0.8358 H   0  0  0  0  0  0  0  0  0  0  0  0
    4.7728   -3.2865    2.0513 H   0  0  0  0  0  0  0  0  0  0  0  0
    4.9063   -3.1748    3.7927 H   0  0  0  0  0  0  0  0  0  0  0  0
    1.2169   -5.2974    4.5648 H   0  0  0  0  0  0  0  0  0  0  0  0
    0.4246   -3.7224    4.8919 H   0  0  0  0  0  0  0  0  0  0  0  0
    0.6969   -4.2429    3.2254 H   0  0  0  0  0  0  0  0  0  0  0  0
    4.3820    0.8590    0.7345 H   0  0  0  0  0  0  0  0  0  0  0  0
    1.1376   -0.6089   -0.4593 H   0  0  0  0  0  0  0  0  0  0  0  0
    0.6596    2.1150   -0.3153 H   0  0  0  0  0  0  0  0  0  0  0  0
    1.5961    3.0829    0.8760 H   0  0  0  0  0  0  0  0  0  0  0  0
    3.0875    2.1273    3.0732 H   0  0  0  0  0  0  0  0  0  0  0  0
    2.5988   -2.4436    0.5778 H   0  0  0  0  0  0  0  0  0  0  0  0
    5.0797   -0.8978    4.6687 H   0  0  0  0  0  0  0  0  0  0  0  0
  1  2  1  0  0  0  0
  2  3  1  0  0  0  0
  2  4  2  0  0  0  0
  3  5  1  0  0  0  0
  3 31  1  0  0  0  0
  3 32  1  0  0  0  0
  5  6  1  0  0  0  0
  5  7  1  0  0  0  0
  5 33  1  0  0  0  0
  6 34  1  0  0  0  0
  6 35  1  0  0  0  0
  6 36  1  0  0  0  0
  7 37  1  0  0  0  0
  7 38  1  0  0  0  0
  7 39  1  0  0  0  0
  8  9  1  0  0  0  0
  9 10  1  0  0  0  0
  9 11  2  0  0  0  0
 10 12  1  0  0  0  0
 10 40  1  0  0  0  0
 10 41  1  0  0  0  0
 12 13  1  0  0  0  0
 12 14  1  0  0  0  0
 12 42  1  0  0  0  0
 13 43  1  0  0  0  0
 13 44  1  0  0  0  0
 13 45  1  0  0  0  0
 14 46  1  0  0  0  0
 14 47  1  0  0  0  0
 14 48  1  0  0  0  0
 15 16  1  0  0  0  0
 15 28  1  0  0  0  0
 15 49  1  0  0  0  0
 15 50  1  0  0  0  0
 16 17  1  0  0  0  0
 17 18  1  0  0  0  0
 17 19  2  0  0  0  0
 18 51  1  0  0  0  0
 18 52  1  0  0  0  0
 18 53  1  0  0  0  0
 20 21  1  0  0  0  0
 20 22  1  0  0  0  0
 20 23  1  0  0  0  0
 20 24  1  1  0  0  0
 21 25  1  0  0  0  0
 21 26  1  0  0  0  0
 21 54  1  6  0  0  0
 22 27  1  0  0  0  0
 22 55  1  6  0  0  0
 22  1  1  0  0  0  0
 23 24  1  0  0  0  0
 23 56  1  0  0  0  0
 23 57  1  0  0  0  0
 25 27  2  0  0  0  0
 25 28  1  0  0  0  0
 26 29  1  0  0  0  0
 26 58  1  1  0  0  0
 26  8  1  0  0  0  0
 27 59  1  0  0  0  0
 28 30  2  0  0  0  0
 29 30  1  0  0  0  0
 30 60  1  0  0  0  0
M  END
>  <Mol_ID>
6438

>  <Formula>
C22H30O8

>  <MolWeight>
422.4688

>  <Cat>
E2354

>  <Name>
Valepotriate

>  <Target>
Bcl-2,Caspase,Decarboxylase,GABA Receptor

>  <Form>
free base

>  <CAS>
18296-44-1

>  <URL>
http://www.selleckchem.com/products/valepotriate.html

$$$$
