VALSARTAN (valsartan).cdx
 OpenBabel08302519503D

 61 63  0  0  0  0  0  0  0  0999 V2000
    2.9931   -2.0765    0.1500 C   0  0  0  0  0  0  0  0  0  0  0  0
    4.2357   -2.7045    0.1904 C   0  0  0  0  0  0  0  0  0  0  0  0
    4.3316   -4.0878    0.0427 C   0  0  0  0  0  0  0  0  0  0  0  0
    3.1889   -4.8942   -0.0576 C   0  0  0  0  0  0  0  0  0  0  0  0
    1.9454   -4.2579    0.0922 C   0  0  0  0  0  0  0  0  0  0  0  0
    1.8433   -2.8669    0.1518 C   0  0  0  0  0  0  0  0  0  0  0  0
    2.8910   -0.5777    0.0640 C   0  0  0  0  0  0  0  0  0  0  0  0
    3.6156    0.0355   -1.0762 N   0  0  0  0  0  0  0  0  0  0  0  0
    4.5720    1.1650   -0.7922 C   0  0  1  0  0  0  0  0  0  0  0  0
    4.0427    2.1454    0.3196 C   0  0  0  0  0  0  0  0  0  0  0  0
    5.0064    3.2540    0.7566 C   0  0  0  0  0  0  0  0  0  0  0  0
    2.7263    2.8102   -0.1251 C   0  0  0  0  0  0  0  0  0  0  0  0
    5.9757    0.5687   -0.5501 C   0  0  0  0  0  0  0  0  0  0  0  0
    6.3556   -0.5688   -0.7896 O   0  0  0  0  0  0  0  0  0  0  0  0
    6.9123    1.4574   -0.1710 O   0  0  0  0  0  0  0  0  0  0  0  0
    3.2321   -0.4115   -2.3425 C   0  0  0  0  0  0  0  0  0  0  0  0
    2.2697   -1.1735   -2.4821 O   0  0  0  0  0  0  0  0  0  0  0  0
    3.8770    0.1089   -3.6244 C   0  0  0  0  0  0  0  0  0  0  0  0
    5.3344   -0.1930   -3.9754 C   0  0  0  0  0  0  0  0  0  0  0  0
    5.8531   -1.6288   -3.8375 C   0  0  0  0  0  0  0  0  0  0  0  0
    5.3152   -2.6437   -4.8346 C   0  0  0  0  0  0  0  0  0  0  0  0
    3.3079   -6.3539   -0.3161 C   0  0  0  0  0  0  0  0  0  0  0  0
    4.3669   -7.0641    0.2990 C   0  0  0  0  0  0  0  0  0  0  0  0
    4.5223   -8.4417    0.1565 C   0  0  0  0  0  0  0  0  0  0  0  0
    3.5996   -9.1649   -0.5823 C   0  0  0  0  0  0  0  0  0  0  0  0
    2.5564   -8.4987   -1.2234 C   0  0  0  0  0  0  0  0  0  0  0  0
    2.4176   -7.0980   -1.1355 C   0  0  0  0  0  0  0  0  0  0  0  0
    1.3590   -6.4874   -1.9355 C   0  0  0  0  0  0  0  0  0  0  0  0
    1.5290   -5.3383   -2.6750 N   0  0  0  0  0  0  0  0  0  0  0  0
    0.3581   -5.0599   -3.2300 N   0  0  0  0  0  0  0  0  0  0  0  0
   -0.4448   -6.0476   -2.8321 N   0  0  0  0  0  0  0  0  0  0  0  0
    0.1102   -6.9840   -2.0478 N   0  0  0  0  0  0  0  0  0  0  0  0
    5.1457   -2.1290    0.2778 H   0  0  0  0  0  0  0  0  0  0  0  0
    5.3303   -4.5086   -0.0327 H   0  0  0  0  0  0  0  0  0  0  0  0
    1.0209   -4.8282    0.0879 H   0  0  0  0  0  0  0  0  0  0  0  0
    0.8581   -2.4116    0.1284 H   0  0  0  0  0  0  0  0  0  0  0  0
    1.8400   -0.2679   -0.0178 H   0  0  0  0  0  0  0  0  0  0  0  0
    3.2685   -0.2104    1.0211 H   0  0  0  0  0  0  0  0  0  0  0  0
    4.6712    1.7429   -1.7251 H   0  0  0  0  0  0  0  0  0  0  0  0
    3.8341    1.6007    1.2473 H   0  0  0  0  0  0  0  0  0  0  0  0
    5.4472    3.7714   -0.0991 H   0  0  0  0  0  0  0  0  0  0  0  0
    4.4934    3.9986    1.3774 H   0  0  0  0  0  0  0  0  0  0  0  0
    5.8040    2.8507    1.3898 H   0  0  0  0  0  0  0  0  0  0  0  0
    1.9202    2.0805   -0.2365 H   0  0  0  0  0  0  0  0  0  0  0  0
    2.3852    3.5454    0.6147 H   0  0  0  0  0  0  0  0  0  0  0  0
    2.8541    3.3297   -1.0785 H   0  0  0  0  0  0  0  0  0  0  0  0
    7.7332    0.9149   -0.1362 H   0  0  0  0  0  0  0  0  0  0  0  0
    3.2626   -0.2887   -4.4458 H   0  0  0  0  0  0  0  0  0  0  0  0
    3.7154    1.1917   -3.6577 H   0  0  0  0  0  0  0  0  0  0  0  0
    5.4896    0.1249   -5.0161 H   0  0  0  0  0  0  0  0  0  0  0  0
    5.9794    0.4575   -3.3752 H   0  0  0  0  0  0  0  0  0  0  0  0
    6.9454   -1.5937   -3.9798 H   0  0  0  0  0  0  0  0  0  0  0  0
    5.6838   -1.9967   -2.8261 H   0  0  0  0  0  0  0  0  0  0  0  0
    5.6386   -2.4173   -5.8554 H   0  0  0  0  0  0  0  0  0  0  0  0
    5.7093   -3.6372   -4.5869 H   0  0  0  0  0  0  0  0  0  0  0  0
    4.2237   -2.7044   -4.8135 H   0  0  0  0  0  0  0  0  0  0  0  0
    5.0936   -6.5395    0.9165 H   0  0  0  0  0  0  0  0  0  0  0  0
    5.3564   -8.9452    0.6377 H   0  0  0  0  0  0  0  0  0  0  0  0
    3.6908  -10.2439   -0.6680 H   0  0  0  0  0  0  0  0  0  0  0  0
    1.8475   -9.0770   -1.8101 H   0  0  0  0  0  0  0  0  0  0  0  0
   -1.4207   -6.0805   -3.1110 H   0  0  0  0  0  0  0  0  0  0  0  0
  1  2  2  0  0  0  0
  1  7  1  0  0  0  0
  2  3  1  0  0  0  0
  2 33  1  0  0  0  0
  3  4  2  0  0  0  0
  3 34  1  0  0  0  0
  4  5  1  0  0  0  0
  4 22  1  0  0  0  0
  5  6  2  0  0  0  0
  5 35  1  0  0  0  0
  6  1  1  0  0  0  0
  6 36  1  0  0  0  0
  7  8  1  0  0  0  0
  7 37  1  0  0  0  0
  7 38  1  0  0  0  0
  8  9  1  0  0  0  0
  8 16  1  0  0  0  0
  9 10  1  0  0  0  0
  9 13  1  0  0  0  0
  9 39  1  6  0  0  0
 10 11  1  0  0  0  0
 10 12  1  0  0  0  0
 10 40  1  0  0  0  0
 11 41  1  0  0  0  0
 11 42  1  0  0  0  0
 11 43  1  0  0  0  0
 12 44  1  0  0  0  0
 12 45  1  0  0  0  0
 12 46  1  0  0  0  0
 13 14  2  0  0  0  0
 13 15  1  0  0  0  0
 15 47  1  0  0  0  0
 16 17  2  0  0  0  0
 16 18  1  0  0  0  0
 18 19  1  0  0  0  0
 18 48  1  0  0  0  0
 18 49  1  0  0  0  0
 19 20  1  0  0  0  0
 19 50  1  0  0  0  0
 19 51  1  0  0  0  0
 20 21  1  0  0  0  0
 20 52  1  0  0  0  0
 20 53  1  0  0  0  0
 21 54  1  0  0  0  0
 21 55  1  0  0  0  0
 21 56  1  0  0  0  0
 22 23  2  0  0  0  0
 23 24  1  0  0  0  0
 23 57  1  0  0  0  0
 24 25  2  0  0  0  0
 24 58  1  0  0  0  0
 25 26  1  0  0  0  0
 25 59  1  0  0  0  0
 26 27  2  0  0  0  0
 26 60  1  0  0  0  0
 27 22  1  0  0  0  0
 27 28  1  0  0  0  0
 28 29  1  0  0  0  0
 29 30  2  0  0  0  0
 30 31  1  0  0  0  0
 31 32  1  0  0  0  0
 31 61  1  0  0  0  0
 32 28  2  0  0  0  0
M  END
>  <Mol_ID>
173

>  <Formula>
C24H29N5O3

>  <MolWeight>
435.51876

>  <Cat>
S1894

>  <Name>
Valsartan (CGP-48933)

>  <Synonyms>
CGP-48933

>  <Target>
Angiotensin Receptor

>  <Form>
free base

>  <CAS>
137862-53-4

>  <URL>
http://selleckchem.com/products/Valsartan(Diovan).html

$$$$
