Vanillylacetone.cdx
 OpenBabel08302521253D

 28 28  0  0  0  0  0  0  0  0999 V2000
    0.1881   -1.2634   -0.0196 C   0  0  0  0  0  0  0  0  0  0  0  0
    0.9728   -0.1108   -0.1062 C   0  0  0  0  0  0  0  0  0  0  0  0
    0.3677    1.1467   -0.1854 C   0  0  0  0  0  0  0  0  0  0  0  0
   -1.0356    1.2198   -0.1710 C   0  0  0  0  0  0  0  0  0  0  0  0
   -1.8401    0.0739   -0.0599 C   0  0  0  0  0  0  0  0  0  0  0  0
   -1.2064   -1.1710   -0.0067 C   0  0  0  0  0  0  0  0  0  0  0  0
    2.3314   -0.2597   -0.1176 O   0  0  0  0  0  0  0  0  0  0  0  0
    0.9665    2.3747   -0.2751 O   0  0  0  0  0  0  0  0  0  0  0  0
    2.3851    2.4325   -0.2569 C   0  0  0  0  0  0  0  0  0  0  0  0
   -3.3488    0.2193   -0.0589 C   0  0  0  0  0  0  0  0  0  0  0  0
   -4.0768   -0.8231    0.7912 C   0  0  0  0  0  0  0  0  0  0  0  0
   -5.5741   -0.5974    0.8551 C   0  0  0  0  0  0  0  0  0  0  0  0
   -6.3655   -1.6184    1.6318 C   0  0  0  0  0  0  0  0  0  0  0  0
   -6.1351    0.3248    0.2667 O   0  0  0  0  0  0  0  0  0  0  0  0
    0.6412   -2.2486    0.0340 H   0  0  0  0  0  0  0  0  0  0  0  0
   -1.5021    2.2025   -0.2454 H   0  0  0  0  0  0  0  0  0  0  0  0
   -1.7781   -2.0935    0.0443 H   0  0  0  0  0  0  0  0  0  0  0  0
    2.5484   -1.1992   -0.0073 H   0  0  0  0  0  0  0  0  0  0  0  0
    2.7964    1.9900    0.6558 H   0  0  0  0  0  0  0  0  0  0  0  0
    2.8090    1.9824   -1.1604 H   0  0  0  0  0  0  0  0  0  0  0  0
    2.6725    3.4888   -0.2537 H   0  0  0  0  0  0  0  0  0  0  0  0
   -3.6105    1.2183    0.3154 H   0  0  0  0  0  0  0  0  0  0  0  0
   -3.7012    0.1692   -1.0965 H   0  0  0  0  0  0  0  0  0  0  0  0
   -3.9285   -1.8268    0.3800 H   0  0  0  0  0  0  0  0  0  0  0  0
   -3.6917   -0.8050    1.8172 H   0  0  0  0  0  0  0  0  0  0  0  0
   -7.2408   -1.1411    2.0797 H   0  0  0  0  0  0  0  0  0  0  0  0
   -6.6783   -2.4223    0.9613 H   0  0  0  0  0  0  0  0  0  0  0  0
   -5.7546   -2.0338    2.4388 H   0  0  0  0  0  0  0  0  0  0  0  0
  1  2  2  0  0  0  0
  1 15  1  0  0  0  0
  2  3  1  0  0  0  0
  2  7  1  0  0  0  0
  3  4  2  0  0  0  0
  3  8  1  0  0  0  0
  4  5  1  0  0  0  0
  4 16  1  0  0  0  0
  5  6  2  0  0  0  0
  5 10  1  0  0  0  0
  6  1  1  0  0  0  0
  6 17  1  0  0  0  0
  7 18  1  0  0  0  0
  8  9  1  0  0  0  0
  9 19  1  0  0  0  0
  9 20  1  0  0  0  0
  9 21  1  0  0  0  0
 10 11  1  0  0  0  0
 10 22  1  0  0  0  0
 10 23  1  0  0  0  0
 11 12  1  0  0  0  0
 11 24  1  0  0  0  0
 11 25  1  0  0  0  0
 12 13  1  0  0  0  0
 12 14  2  0  0  0  0
 13 26  1  0  0  0  0
 13 27  1  0  0  0  0
 13 28  1  0  0  0  0
M  END
>  <Mol_ID>
490

>  <Formula>
C11H14O3

>  <MolWeight>
194.22706

>  <Cat>
S2371

>  <Name>
Vanillylacetone

>  <Synonyms>
NSC 15335

>  <Target>
NF-¦ÊB

>  <Form>
free base

>  <CAS>
122-48-5

>  <URL>
http://selleckchem.com/products/Vanillylacetone.html

$$$$
