Vanillylamine
 OpenBabel08302521363D

 22 22  0  0  0  0  0  0  0  0999 V2000
    2.2819    0.0513    0.0146 O   0  0  0  0  0  0  0  0  0  0  0  0
    2.9928   -1.1824    0.0243 C   0  0  0  0  0  0  0  0  0  0  0  0
    0.9392    2.3656    0.0070 O   0  0  0  0  0  0  0  0  0  0  0  0
   -2.0495   -2.4441    0.0151 C   0  0  0  0  0  0  0  0  0  0  0  0
   -1.7582   -3.2650   -1.1543 N   0  0  0  0  0  0  0  0  0  0  0  0
    0.9124   -0.0364    0.0092 C   0  0  0  0  0  0  0  0  0  0  0  0
    0.1656   -1.2133    0.0159 C   0  0  0  0  0  0  0  0  0  0  0  0
    0.2383    1.1902    0.0001 C   0  0  0  0  0  0  0  0  0  0  0  0
   -1.2426   -1.1704    0.0048 C   0  0  0  0  0  0  0  0  0  0  0  0
   -1.1496    1.2568   -0.0095 C   0  0  0  0  0  0  0  0  0  0  0  0
   -1.8888    0.0750   -0.0063 C   0  0  0  0  0  0  0  0  0  0  0  0
    2.7885   -1.7454    0.9412 H   0  0  0  0  0  0  0  0  0  0  0  0
    2.7667   -1.7787   -0.8660 H   0  0  0  0  0  0  0  0  0  0  0  0
    4.0628   -0.9531    0.0068 H   0  0  0  0  0  0  0  0  0  0  0  0
    1.8782    2.0954    0.0292 H   0  0  0  0  0  0  0  0  0  0  0  0
   -1.8248   -3.0052    0.9296 H   0  0  0  0  0  0  0  0  0  0  0  0
   -3.1223   -2.2178    0.0352 H   0  0  0  0  0  0  0  0  0  0  0  0
   -2.3784   -4.0719   -1.1588 H   0  0  0  0  0  0  0  0  0  0  0  0
   -1.9775   -2.7279   -1.9936 H   0  0  0  0  0  0  0  0  0  0  0  0
    0.6448   -2.1884    0.0211 H   0  0  0  0  0  0  0  0  0  0  0  0
   -1.6474    2.2211   -0.0158 H   0  0  0  0  0  0  0  0  0  0  0  0
   -2.9751    0.1297   -0.0111 H   0  0  0  0  0  0  0  0  0  0  0  0
  1  2  1  0  0  0  0
  1  6  1  0  0  0  0
  2 12  1  0  0  0  0
  2 13  1  0  0  0  0
  2 14  1  0  0  0  0
  3  8  1  0  0  0  0
  3 15  1  0  0  0  0
  4  5  1  0  0  0  0
  4  9  1  0  0  0  0
  4 16  1  0  0  0  0
  4 17  1  0  0  0  0
  5 18  1  0  0  0  0
  5 19  1  0  0  0  0
  6  7  2  0  0  0  0
  6  8  1  0  0  0  0
  7  9  1  0  0  0  0
  7 20  1  0  0  0  0
  8 10  2  0  0  0  0
  9 11  2  0  0  0  0
 10 11  1  0  0  0  0
 10 21  1  0  0  0  0
 11 22  1  0  0  0  0
M  END
>  <Mol_ID>
7247

>  <Formula>
C8H11NO2

>  <MolWeight>
153.17844

>  <Cat>
E4257

>  <Name>
Vanillylamine

>  <Target>
Others

>  <Form>
Free base

>  <CAS>
1196-92-5

>  <URL>
https://www.selleckchem.com/products/vanillylamine.html

$$$$
