Varenicline
 OpenBabel08302521313D

 29 32  0  0  0  0  0  0  0  0999 V2000
    3.9193   -0.1380    0.7106 N   0  0  0  0  0  0  0  0  0  0  0  0
   -2.6497    1.2655   -0.0741 N   0  0  0  0  0  0  0  0  0  0  0  0
   -2.8107   -1.3939    0.8702 N   0  0  0  0  0  0  0  0  0  0  0  0
    2.1354    0.4265   -0.9715 C   0  0  3  0  0  0  0  0  0  0  0  0
    2.0813   -1.7446    0.0014 C   0  0  3  0  0  0  0  0  0  0  0  0
    2.4428   -1.0494   -1.3301 C   0  0  0  0  0  0  0  0  0  0  0  0
    0.7815    0.2031   -0.3431 C   0  0  0  0  0  0  0  0  0  0  0  0
    0.7336   -1.0848    0.1953 C   0  0  0  0  0  0  0  0  0  0  0  0
    3.1428    0.9390    0.0790 C   0  0  0  0  0  0  0  0  0  0  0  0
    3.1071   -1.3110    1.0844 C   0  0  0  0  0  0  0  0  0  0  0  0
   -0.3333    1.0179   -0.3612 C   0  0  0  0  0  0  0  0  0  0  0  0
   -0.4611   -1.6084    0.6533 C   0  0  0  0  0  0  0  0  0  0  0  0
   -1.5495    0.4999    0.0592 C   0  0  0  0  0  0  0  0  0  0  0  0
   -1.6215   -0.8421    0.5509 C   0  0  0  0  0  0  0  0  0  0  0  0
   -3.8260    0.6783    0.2309 C   0  0  0  0  0  0  0  0  0  0  0  0
   -3.9038   -0.6224    0.6782 C   0  0  0  0  0  0  0  0  0  0  0  0
    4.4406    0.2150    1.5111 H   0  0  0  0  0  0  0  0  0  0  0  0
    2.0787    1.0633   -1.8587 H   0  0  0  0  0  0  0  0  0  0  0  0
    2.0024   -2.8313   -0.0933 H   0  0  0  0  0  0  0  0  0  0  0  0
    3.4768   -1.2186   -1.6467 H   0  0  0  0  0  0  0  0  0  0  0  0
    1.7864   -1.4008   -2.1406 H   0  0  0  0  0  0  0  0  0  0  0  0
    2.6456    1.5406    0.8497 H   0  0  0  0  0  0  0  0  0  0  0  0
    3.8577    1.6010   -0.4235 H   0  0  0  0  0  0  0  0  0  0  0  0
    3.8140   -2.1358    1.2330 H   0  0  0  0  0  0  0  0  0  0  0  0
    2.6188   -1.1324    2.0493 H   0  0  0  0  0  0  0  0  0  0  0  0
   -0.2879    2.0204   -0.7730 H   0  0  0  0  0  0  0  0  0  0  0  0
   -0.5232   -2.6308    1.0133 H   0  0  0  0  0  0  0  0  0  0  0  0
   -4.7105    1.2883    0.0883 H   0  0  0  0  0  0  0  0  0  0  0  0
   -4.8594   -1.0930    0.8815 H   0  0  0  0  0  0  0  0  0  0  0  0
  1  9  1  0  0  0  0
  1 10  1  0  0  0  0
  1 17  1  0  0  0  0
  2 13  1  0  0  0  0
  2 15  2  0  0  0  0
  3 14  1  0  0  0  0
  3 16  2  0  0  0  0
  4  6  1  0  0  0  0
  4  7  1  0  0  0  0
  4  9  1  0  0  0  0
  4 18  1  0  0  0  0
  5  6  1  0  0  0  0
  5  8  1  0  0  0  0
  5 10  1  0  0  0  0
  5 19  1  0  0  0  0
  6 20  1  0  0  0  0
  6 21  1  0  0  0  0
  7  8  2  0  0  0  0
  7 11  1  0  0  0  0
  8 12  1  0  0  0  0
  9 22  1  0  0  0  0
  9 23  1  0  0  0  0
 10 24  1  0  0  0  0
 10 25  1  0  0  0  0
 11 13  2  0  0  0  0
 11 26  1  0  0  0  0
 12 14  2  0  0  0  0
 12 27  1  0  0  0  0
 13 14  1  0  0  0  0
 15 16  1  0  0  0  0
 15 28  1  0  0  0  0
 16 29  1  0  0  0  0
M  END
>  <Mol_ID>
5914

>  <Formula>
C13H13N3

>  <MolWeight>
211.26242

>  <Cat>
S6985

>  <Name>
Varenicline

>  <Synonyms>
Chantix, Champix,CP 526555

>  <Target>
AChR

>  <Form>
Free Base

>  <CAS>
249296-44-4

>  <URL>
http://www.selleckchem.com/products/varenicline.html

$$$$
