Varenicline (CP 526555) dihydrochloride
 OpenBabel08302521313D

 29 32  0  0  0  0  0  0  0  0999 V2000
   -3.7499    0.7467    0.2066 C   0  0  0  0  0  0  0  0  0  0  0  0
   -3.8142   -0.6276    0.3230 C   0  0  0  0  0  0  0  0  0  0  0  0
   -2.7156   -1.4100    0.2617 N   0  0  0  0  0  0  0  0  0  0  0  0
   -1.5430   -0.7829    0.0580 C   0  0  0  0  0  0  0  0  0  0  0  0
   -1.4787    0.6413   -0.0913 C   0  0  0  0  0  0  0  0  0  0  0  0
   -2.5879    1.4031   -0.0038 N   0  0  0  0  0  0  0  0  0  0  0  0
   -0.3813   -1.5440   -0.0309 C   0  0  0  0  0  0  0  0  0  0  0  0
    0.8195   -0.9156   -0.2989 C   0  0  0  0  0  0  0  0  0  0  0  0
    0.8748    0.4670   -0.4821 C   0  0  0  0  0  0  0  0  0  0  0  0
   -0.2583    1.2476   -0.3505 C   0  0  0  0  0  0  0  0  0  0  0  0
    2.2834    0.8535   -0.8664 C   0  0  3  0  0  0  0  0  0  0  0  0
    2.1938   -1.5007   -0.5306 C   0  0  3  0  0  0  0  0  0  0  0  0
    3.1445    1.0454    0.4062 C   0  0  0  0  0  0  0  0  0  0  0  0
    3.0829   -1.3874    0.7373 C   0  0  0  0  0  0  0  0  0  0  0  0
    2.6765   -0.4684   -1.5738 C   0  0  0  0  0  0  0  0  0  0  0  0
    3.9023   -0.1614    0.7751 N   0  0  0  0  0  0  0  0  0  0  0  0
   -4.6414    1.3609    0.2703 H   0  0  0  0  0  0  0  0  0  0  0  0
   -4.7567   -1.1432    0.4661 H   0  0  0  0  0  0  0  0  0  0  0  0
   -0.4384   -2.6223    0.0712 H   0  0  0  0  0  0  0  0  0  0  0  0
   -0.2126    2.3244   -0.4903 H   0  0  0  0  0  0  0  0  0  0  0  0
    2.3163    1.7120   -1.5427 H   0  0  0  0  0  0  0  0  0  0  0  0
    2.1510   -2.5184   -0.9280 H   0  0  0  0  0  0  0  0  0  0  0  0
    2.5337    1.3695    1.2583 H   0  0  0  0  0  0  0  0  0  0  0  0
    3.8716    1.8436    0.2195 H   0  0  0  0  0  0  0  0  0  0  0  0
    3.7824   -2.2313    0.7445 H   0  0  0  0  0  0  0  0  0  0  0  0
    2.4853   -1.4612    1.6539 H   0  0  0  0  0  0  0  0  0  0  0  0
    3.7450   -0.5448   -1.8011 H   0  0  0  0  0  0  0  0  0  0  0  0
    2.1282   -0.5863   -2.5202 H   0  0  0  0  0  0  0  0  0  0  0  0
    4.3447   -0.0474    1.6851 H   0  0  0  0  0  0  0  0  0  0  0  0
  1  2  2  0  0  0  0
  1 17  1  0  0  0  0
  2  3  1  0  0  0  0
  2 18  1  0  0  0  0
  3  4  2  0  0  0  0
  4  5  1  0  0  0  0
  4  7  1  0  0  0  0
  5  6  2  0  0  0  0
  6  1  1  0  0  0  0
  7  8  2  0  0  0  0
  7 19  1  0  0  0  0
  8  9  1  0  0  0  0
  8 12  1  0  0  0  0
  9 10  2  0  0  0  0
  9 11  1  0  0  0  0
 10  5  1  0  0  0  0
 10 20  1  0  0  0  0
 11 13  1  0  0  0  0
 11 15  1  0  0  0  0
 11 21  1  0  0  0  0
 12 14  1  0  0  0  0
 12 22  1  0  0  0  0
 13 16  1  0  0  0  0
 13 23  1  0  0  0  0
 13 24  1  0  0  0  0
 14 16  1  0  0  0  0
 14 25  1  0  0  0  0
 14 26  1  0  0  0  0
 15 12  1  0  0  0  0
 15 27  1  0  0  0  0
 15 28  1  0  0  0  0
 16 29  1  0  0  0  0
M  END
>  <Mol_ID>
5792

>  <Formula>
C13H15Cl2N3

>  <MolWeight>
284.1843

>  <Cat>
S0717

>  <Name>
Varenicline (CP 526555) dihydrochloride

>  <Synonyms>
Chantix, Champix,CP 526555 dihydrochloride

>  <Target>
AChR

>  <Form>
Dihydrochloride

>  <CAS>
866823-63-4

>  <URL>
http://www.selleckchem.com/products/varenicline-dihydrochloride.html

$$$$
