VAS2870
 OpenBabel08302521233D

 38 42  0  0  0  0  0  0  0  0999 V2000
    1.4056    1.0186   -0.0817 N   0  0  0  0  0  0  0  0  0  0  0  0
    0.2253   -0.7984   -0.1138 C   0  0  0  0  0  0  0  0  0  0  0  0
    0.1090    0.5830   -0.1181 C   0  0  0  0  0  0  0  0  0  0  0  0
    2.2692   -0.0229   -0.0351 N   0  0  0  0  0  0  0  0  0  0  0  0
    1.5520   -1.1427   -0.0661 N   0  0  0  0  0  0  0  0  0  0  0  0
   -0.8243   -3.6778   -1.6963 C   0  0  0  0  0  0  0  0  0  0  0  0
   -0.9701   -1.5155   -0.1318 C   0  0  0  0  0  0  0  0  0  0  0  0
   -0.7996   -4.9327   -2.1093 N   0  0  0  0  0  0  0  0  0  0  0  0
   -0.9711   -3.2699   -0.0090 S   0  0  0  0  0  0  0  0  0  0  0  0
   -0.7090   -2.7511   -2.7055 O   0  0  0  0  0  0  0  0  0  0  0  0
   -1.0260    1.3061   -0.1323 N   0  0  0  0  0  0  0  0  0  0  0  0
   -2.1505   -0.8416   -0.1344 N   0  0  0  0  0  0  0  0  0  0  0  0
   -0.6416   -4.8351   -3.4673 C   0  0  0  0  0  0  0  0  0  0  0  0
   -0.5860   -3.5035   -3.8359 C   0  0  0  0  0  0  0  0  0  0  0  0
    1.8850    2.3823    0.0177 C   0  0  0  0  0  0  0  0  0  0  0  0
   -2.1114    0.5060   -0.1435 C   0  0  0  0  0  0  0  0  0  0  0  0
    2.1402    2.9792   -1.3436 C   0  0  0  0  0  0  0  0  0  0  0  0
   -0.5275   -5.8200   -4.4563 C   0  0  0  0  0  0  0  0  0  0  0  0
   -0.4230   -3.0489   -5.1393 C   0  0  0  0  0  0  0  0  0  0  0  0
    1.1367    3.7037   -2.0020 C   0  0  0  0  0  0  0  0  0  0  0  0
    3.3703    2.7820   -1.9896 C   0  0  0  0  0  0  0  0  0  0  0  0
   -0.3509   -5.4049   -5.7859 C   0  0  0  0  0  0  0  0  0  0  0  0
   -0.2999   -4.0441   -6.1173 C   0  0  0  0  0  0  0  0  0  0  0  0
    3.5816    3.2816   -3.2769 C   0  0  0  0  0  0  0  0  0  0  0  0
    1.3503    4.1997   -3.2898 C   0  0  0  0  0  0  0  0  0  0  0  0
    2.5694    3.9815   -3.9289 C   0  0  0  0  0  0  0  0  0  0  0  0
    1.1429    2.9675    0.5732 H   0  0  0  0  0  0  0  0  0  0  0  0
    2.8010    2.3780    0.6197 H   0  0  0  0  0  0  0  0  0  0  0  0
   -3.0753    1.0073   -0.1516 H   0  0  0  0  0  0  0  0  0  0  0  0
   -0.5656   -6.8722   -4.1955 H   0  0  0  0  0  0  0  0  0  0  0  0
   -0.3838   -1.9938   -5.3768 H   0  0  0  0  0  0  0  0  0  0  0  0
    0.1745    3.8769   -1.5230 H   0  0  0  0  0  0  0  0  0  0  0  0
    4.1679    2.2249   -1.5020 H   0  0  0  0  0  0  0  0  0  0  0  0
   -0.2480   -6.1527   -6.5690 H   0  0  0  0  0  0  0  0  0  0  0  0
   -0.1582   -3.7541   -7.1571 H   0  0  0  0  0  0  0  0  0  0  0  0
    4.5336    3.1129   -3.7741 H   0  0  0  0  0  0  0  0  0  0  0  0
    0.5624    4.7493   -3.7979 H   0  0  0  0  0  0  0  0  0  0  0  0
    2.7285    4.3527   -4.9383 H   0  0  0  0  0  0  0  0  0  0  0  0
  2  3  2  0  0  0  0
  2  5  1  0  0  0  0
  3  1  1  0  0  0  0
  4  1  1  0  0  0  0
  5  4  2  0  0  0  0
  6  9  1  0  0  0  0
  7  2  1  0  0  0  0
  7 12  2  0  0  0  0
  8  6  2  0  0  0  0
  9  7  1  0  0  0  0
 10  6  1  0  0  0  0
 11  3  1  0  0  0  0
 12 16  1  0  0  0  0
 13  8  1  0  0  0  0
 13 14  2  0  0  0  0
 14 10  1  0  0  0  0
 15  1  1  0  0  0  0
 15 27  1  0  0  0  0
 15 28  1  0  0  0  0
 16 11  2  0  0  0  0
 16 29  1  0  0  0  0
 17 15  1  0  0  0  0
 18 13  1  0  0  0  0
 18 30  1  0  0  0  0
 19 14  1  0  0  0  0
 19 31  1  0  0  0  0
 20 17  2  0  0  0  0
 20 32  1  0  0  0  0
 21 17  1  0  0  0  0
 21 33  1  0  0  0  0
 22 18  2  0  0  0  0
 22 23  1  0  0  0  0
 22 34  1  0  0  0  0
 23 19  2  0  0  0  0
 23 35  1  0  0  0  0
 24 21  2  0  0  0  0
 24 36  1  0  0  0  0
 25 20  1  0  0  0  0
 25 26  2  0  0  0  0
 25 37  1  0  0  0  0
 26 24  1  0  0  0  0
 26 38  1  0  0  0  0
M  END
>  <Mol_ID>
4834

>  <Formula>
C18H12N6OS

>  <MolWeight>
360.39248

>  <Cat>
S6656

>  <Name>
VAS2870

>  <Synonyms>
N/A

>  <Target>
NADPH-oxidase

>  <Form>
Free Base

>  <CAS>
722456-31-7

>  <URL>
http://www.selleck.cn/products/vas2870.html

$$$$
