Vasicine
 OpenBabel08302521223D

 26 28  0  0  0  0  0  0  0  0999 V2000
    0.3397   -1.3798   -0.2808 N   0  0  0  0  0  0  0  0  0  0  0  0
    1.4031   -0.6727   -0.0909 C   0  0  0  0  0  0  0  0  0  0  0  0
    1.4395    0.6777    0.1614 N   0  0  0  0  0  0  0  0  0  0  0  0
   -0.8823   -0.6850   -0.1433 C   0  0  0  0  0  0  0  0  0  0  0  0
    0.3389    1.5018   -0.2805 C   0  0  0  0  0  0  0  0  0  0  0  0
   -0.9413    0.7233   -0.1318 C   0  0  0  0  0  0  0  0  0  0  0  0
    2.8234   -1.2330   -0.1552 C   0  0  2  0  0  0  0  0  0  0  0  0
    2.7882    1.1848    0.2481 C   0  0  0  0  0  0  0  0  0  0  0  0
    3.6250   -0.0831    0.4728 C   0  0  0  0  0  0  0  0  0  0  0  0
    3.2934   -1.4774   -1.4684 O   0  0  0  0  0  0  0  0  0  0  0  0
   -2.1756    1.3743    0.0040 C   0  0  0  0  0  0  0  0  0  0  0  0
   -2.0593   -1.4156    0.0232 C   0  0  0  0  0  0  0  0  0  0  0  0
   -3.3417    0.6289    0.1757 C   0  0  0  0  0  0  0  0  0  0  0  0
   -3.2829   -0.7641    0.1931 C   0  0  0  0  0  0  0  0  0  0  0  0
    0.4684    1.7850   -1.3325 H   0  0  0  0  0  0  0  0  0  0  0  0
    0.2990    2.4148    0.3232 H   0  0  0  0  0  0  0  0  0  0  0  0
    2.9042   -2.1525    0.4302 H   0  0  0  0  0  0  0  0  0  0  0  0
    2.8923    1.8757    1.0910 H   0  0  0  0  0  0  0  0  0  0  0  0
    3.0835    1.6967   -0.6736 H   0  0  0  0  0  0  0  0  0  0  0  0
    3.7256   -0.2580    1.5507 H   0  0  0  0  0  0  0  0  0  0  0  0
    4.6277    0.0260    0.0474 H   0  0  0  0  0  0  0  0  0  0  0  0
    2.8996   -0.8032   -2.0469 H   0  0  0  0  0  0  0  0  0  0  0  0
   -2.2313    2.4598   -0.0039 H   0  0  0  0  0  0  0  0  0  0  0  0
   -2.0134   -2.5012    0.0396 H   0  0  0  0  0  0  0  0  0  0  0  0
   -4.2962    1.1330    0.3051 H   0  0  0  0  0  0  0  0  0  0  0  0
   -4.1883   -1.3462    0.3434 H   0  0  0  0  0  0  0  0  0  0  0  0
  2  1  2  0  0  0  0
  3  2  1  0  0  0  0
  4  1  1  0  0  0  0
  5  3  1  0  0  0  0
  5  6  1  0  0  0  0
  5 15  1  0  0  0  0
  5 16  1  0  0  0  0
  6  4  2  0  0  0  0
  7  2  1  0  0  0  0
  7 10  1  0  0  0  0
  7 17  1  1  0  0  0
  8  3  1  0  0  0  0
  8  9  1  0  0  0  0
  8 18  1  0  0  0  0
  8 19  1  0  0  0  0
  9  7  1  0  0  0  0
  9 20  1  0  0  0  0
  9 21  1  0  0  0  0
 10 22  1  0  0  0  0
 11  6  1  0  0  0  0
 11 23  1  0  0  0  0
 12  4  1  0  0  0  0
 12 24  1  0  0  0  0
 13 11  2  0  0  0  0
 13 14  1  0  0  0  0
 13 25  1  0  0  0  0
 14 12  2  0  0  0  0
 14 26  1  0  0  0  0
M  END
>  <Mol_ID>
4710

>  <Formula>
C11H12N2O

>  <MolWeight>
188.22578

>  <Cat>
S5850

>  <Name>
Vasicine

>  <Synonyms>
N/A

>  <Target>
AChR

>  <Form>
Free Base

>  <CAS>
6159-55-3

>  <URL>
http://www.selleck.cn/products/vasicine.html

$$$$
