VBIT-12
 OpenBabel08302521243D

 58 61  0  0  0  0  0  0  0  0999 V2000
    3.0229    4.4122    0.9820 C   0  0  0  0  0  0  0  0  0  0  0  0
    4.3061    4.5126    1.5754 C   0  0  0  0  0  0  0  0  0  0  0  0
    5.1492    3.3900    1.6153 C   0  0  0  0  0  0  0  0  0  0  0  0
    4.7279    2.1689    1.0983 C   0  0  0  0  0  0  0  0  0  0  0  0
    3.4453    2.0421    0.5755 C   0  0  0  0  0  0  0  0  0  0  0  0
    2.5671    3.1438    0.5292 C   0  0  0  0  0  0  0  0  0  0  0  0
    2.2444    5.5891    0.9009 C   0  0  0  0  0  0  0  0  0  0  0  0
    2.6825    6.7958    1.4538 C   0  0  0  0  0  0  0  0  0  0  0  0
    3.9094    6.8556    2.0997 C   0  0  0  0  0  0  0  0  0  0  0  0
    4.7265    5.7257    2.1439 C   0  0  0  0  0  0  0  0  0  0  0  0
    1.1150    2.8737    0.1647 C   0  0  0  0  0  0  0  0  0  0  0  0
    0.5838    3.5080   -1.0645 N   0  0  0  0  0  0  0  0  0  0  0  0
    1.3479    3.0819   -2.2409 C   0  0  0  0  0  0  0  0  0  0  0  0
    0.7047    3.5197   -3.5565 C   0  0  0  0  0  0  0  0  0  0  0  0
   -0.7617    3.0635   -3.6842 C   0  0  0  0  0  0  0  0  0  0  0  0
   -1.5052    3.6439   -2.4656 C   0  0  0  0  0  0  0  0  0  0  0  0
   -0.8517    3.1929   -1.1569 C   0  0  0  0  0  0  0  0  0  0  0  0
   -1.3734    3.6292   -4.9152 N   0  0  0  0  0  0  0  0  0  0  0  0
   -0.9271    1.5092   -3.6669 C   0  0  0  0  0  0  0  0  0  0  0  0
   -0.0283    0.7087   -3.4009 O   0  0  0  0  0  0  0  0  0  0  0  0
   -2.2009    1.0264   -3.8648 N   0  0  0  0  0  0  0  0  0  0  0  0
   -0.8060    3.5370   -6.1785 C   0  0  0  0  0  0  0  0  0  0  0  0
   -2.4720   -0.4048   -3.9113 C   0  0  0  0  0  0  0  0  0  0  0  0
   -2.5686   -1.0201   -2.5176 C   0  0  0  0  0  0  0  0  0  0  0  0
   -1.4589   -0.8409   -1.7600 O   0  0  0  0  0  0  0  0  0  0  0  0
   -3.5297   -1.6682   -2.1269 O   0  0  0  0  0  0  0  0  0  0  0  0
   -0.0688    2.4312   -6.6146 C   0  0  0  0  0  0  0  0  0  0  0  0
    0.5686    2.4233   -7.8595 C   0  0  0  0  0  0  0  0  0  0  0  0
    0.4860    3.5312   -8.6900 C   0  0  0  0  0  0  0  0  0  0  0  0
   -0.2637    4.6334   -8.2905 C   0  0  0  0  0  0  0  0  0  0  0  0
   -0.9152    4.6279   -7.0510 C   0  0  0  0  0  0  0  0  0  0  0  0
    6.1389    3.4600    2.0596 H   0  0  0  0  0  0  0  0  0  0  0  0
    5.3883    1.3065    1.1405 H   0  0  0  0  0  0  0  0  0  0  0  0
    3.1178    1.0619    0.2344 H   0  0  0  0  0  0  0  0  0  0  0  0
    1.2853    5.5837    0.3881 H   0  0  0  0  0  0  0  0  0  0  0  0
    2.0567    7.6796    1.3821 H   0  0  0  0  0  0  0  0  0  0  0  0
    4.2344    7.7804    2.5691 H   0  0  0  0  0  0  0  0  0  0  0  0
    5.6866    5.7943    2.6466 H   0  0  0  0  0  0  0  0  0  0  0  0
    0.9621    1.7868    0.1054 H   0  0  0  0  0  0  0  0  0  0  0  0
    0.5188    3.2015    1.0272 H   0  0  0  0  0  0  0  0  0  0  0  0
    1.5015    1.9985   -2.2375 H   0  0  0  0  0  0  0  0  0  0  0  0
    2.3493    3.5280   -2.2066 H   0  0  0  0  0  0  0  0  0  0  0  0
    1.3204    3.1429   -4.3795 H   0  0  0  0  0  0  0  0  0  0  0  0
    0.7492    4.6174   -3.6220 H   0  0  0  0  0  0  0  0  0  0  0  0
   -1.5105    4.7419   -2.5115 H   0  0  0  0  0  0  0  0  0  0  0  0
   -2.5599    3.3390   -2.4621 H   0  0  0  0  0  0  0  0  0  0  0  0
   -1.3749    3.6945   -0.3330 H   0  0  0  0  0  0  0  0  0  0  0  0
   -1.0230    2.1167   -1.0260 H   0  0  0  0  0  0  0  0  0  0  0  0
   -2.3586    3.8688   -4.8999 H   0  0  0  0  0  0  0  0  0  0  0  0
   -2.9215    1.6678   -4.1728 H   0  0  0  0  0  0  0  0  0  0  0  0
   -3.4187   -0.5514   -4.4376 H   0  0  0  0  0  0  0  0  0  0  0  0
   -1.6783   -0.9219   -4.4624 H   0  0  0  0  0  0  0  0  0  0  0  0
   -0.7402   -0.3832   -2.2606 H   0  0  0  0  0  0  0  0  0  0  0  0
    0.0308    1.5422   -6.0029 H   0  0  0  0  0  0  0  0  0  0  0  0
    1.1414    1.5498   -8.1609 H   0  0  0  0  0  0  0  0  0  0  0  0
    1.0090    3.5364   -9.6421 H   0  0  0  0  0  0  0  0  0  0  0  0
   -0.3241    5.5077   -8.9335 H   0  0  0  0  0  0  0  0  0  0  0  0
   -1.4647    5.5161   -6.7471 H   0  0  0  0  0  0  0  0  0  0  0  0
  1  2  1  0  0  0  0
  1  7  1  0  0  0  0
  2  3  2  0  0  0  0
  3  4  1  0  0  0  0
  3 32  1  0  0  0  0
  4  5  2  0  0  0  0
  4 33  1  0  0  0  0
  5  6  1  0  0  0  0
  5 34  1  0  0  0  0
  6  1  2  0  0  0  0
  6 11  1  0  0  0  0
  7  8  2  0  0  0  0
  7 35  1  0  0  0  0
  8  9  1  0  0  0  0
  8 36  1  0  0  0  0
  9 10  2  0  0  0  0
  9 37  1  0  0  0  0
 10  2  1  0  0  0  0
 10 38  1  0  0  0  0
 11 12  1  0  0  0  0
 11 39  1  0  0  0  0
 11 40  1  0  0  0  0
 12 13  1  0  0  0  0
 13 14  1  0  0  0  0
 13 41  1  0  0  0  0
 13 42  1  0  0  0  0
 14 15  1  0  0  0  0
 14 43  1  0  0  0  0
 14 44  1  0  0  0  0
 15 16  1  0  0  0  0
 15 18  1  0  0  0  0
 15 19  1  0  0  0  0
 16 17  1  0  0  0  0
 16 45  1  0  0  0  0
 16 46  1  0  0  0  0
 17 12  1  0  0  0  0
 17 47  1  0  0  0  0
 17 48  1  0  0  0  0
 18 22  1  0  0  0  0
 18 49  1  0  0  0  0
 19 20  2  0  0  0  0
 19 21  1  0  0  0  0
 21 23  1  0  0  0  0
 21 50  1  0  0  0  0
 22 27  2  0  0  0  0
 23 24  1  0  0  0  0
 23 51  1  0  0  0  0
 23 52  1  0  0  0  0
 24 25  1  0  0  0  0
 24 26  2  0  0  0  0
 25 53  1  0  0  0  0
 27 28  1  0  0  0  0
 27 54  1  0  0  0  0
 28 29  2  0  0  0  0
 28 55  1  0  0  0  0
 29 30  1  0  0  0  0
 29 56  1  0  0  0  0
 30 31  2  0  0  0  0
 30 57  1  0  0  0  0
 31 22  1  0  0  0  0
 31 58  1  0  0  0  0
M  END
>  <Mol_ID>
4958

>  <Formula>
C25H27N3O3

>  <MolWeight>
417.50018

>  <Cat>
S8936

>  <Name>
VBIT-12

>  <Synonyms>
N/A

>  <Target>
VDAC

>  <Form>
Free Base

>  <CAS>
2089227-65-4

>  <URL>
http://www.selleckchem.com/products/vbit-12.html

$$$$
