VE-821.cdx
 OpenBabel08302520403D

 42 44  0  0  0  0  0  0  0  0999 V2000
   -0.0624   -1.0474    0.2026 C   0  0  0  0  0  0  0  0  0  0  0  0
   -0.8017    0.1107    0.5034 C   0  0  0  0  0  0  0  0  0  0  0  0
    1.2760   -1.0200   -0.1104 N   0  0  0  0  0  0  0  0  0  0  0  0
   -0.2707    1.3363    0.3305 N   0  0  0  0  0  0  0  0  0  0  0  0
    1.0365    1.3693   -0.0058 C   0  0  0  0  0  0  0  0  0  0  0  0
    1.8291    0.2279   -0.1530 C   0  0  0  0  0  0  0  0  0  0  0  0
   -0.7610   -2.3808    0.1676 C   0  0  0  0  0  0  0  0  0  0  0  0
   -1.9689   -2.4149    0.3915 O   0  0  0  0  0  0  0  0  0  0  0  0
    0.0217   -3.4779   -0.1609 N   0  0  0  0  0  0  0  0  0  0  0  0
   -0.3833   -4.8368   -0.1399 C   0  0  0  0  0  0  0  0  0  0  0  0
   -1.6999   -5.2496    0.1003 C   0  0  0  0  0  0  0  0  0  0  0  0
   -2.0139   -6.6016    0.2770 C   0  0  0  0  0  0  0  0  0  0  0  0
   -1.0182   -7.5664    0.1858 C   0  0  0  0  0  0  0  0  0  0  0  0
    0.2801   -7.1807   -0.1396 C   0  0  0  0  0  0  0  0  0  0  0  0
    0.5932   -5.8264   -0.3161 C   0  0  0  0  0  0  0  0  0  0  0  0
    3.3025    0.3403   -0.1381 C   0  0  0  0  0  0  0  0  0  0  0  0
    3.9773    1.4384   -0.7117 C   0  0  0  0  0  0  0  0  0  0  0  0
    5.3509    1.6300   -0.5258 C   0  0  0  0  0  0  0  0  0  0  0  0
    6.0733    0.7160    0.2390 C   0  0  0  0  0  0  0  0  0  0  0  0
    5.4456   -0.4065    0.7803 C   0  0  0  0  0  0  0  0  0  0  0  0
    4.0724   -0.5859    0.5912 C   0  0  0  0  0  0  0  0  0  0  0  0
    7.8259    0.9385    0.4660 S   0  0  0  0  0  0  0  0  0  0  0  0
    8.3965   -0.3703    0.7056 O   0  0  0  0  0  0  0  0  0  0  0  0
    8.2945    1.7691   -0.6274 O   0  0  0  0  0  0  0  0  0  0  0  0
    7.9471    1.8796    1.9622 C   0  0  0  0  0  0  0  0  0  0  0  0
   -2.0147    0.1198    1.1805 N   0  0  0  0  0  0  0  0  0  0  0  0
    1.4495    2.3710   -0.0602 H   0  0  0  0  0  0  0  0  0  0  0  0
    1.0050   -3.2775   -0.3379 H   0  0  0  0  0  0  0  0  0  0  0  0
   -2.5169   -4.5412    0.1754 H   0  0  0  0  0  0  0  0  0  0  0  0
   -3.0374   -6.8899    0.5048 H   0  0  0  0  0  0  0  0  0  0  0  0
   -1.2562   -8.6121    0.3648 H   0  0  0  0  0  0  0  0  0  0  0  0
    1.0547   -7.9382   -0.2358 H   0  0  0  0  0  0  0  0  0  0  0  0
    1.6180   -5.5603   -0.5587 H   0  0  0  0  0  0  0  0  0  0  0  0
    3.4377    2.1751   -1.3050 H   0  0  0  0  0  0  0  0  0  0  0  0
    5.8393    2.4934   -0.9758 H   0  0  0  0  0  0  0  0  0  0  0  0
    6.0078   -1.1375    1.3576 H   0  0  0  0  0  0  0  0  0  0  0  0
    3.5905   -1.4451    1.0570 H   0  0  0  0  0  0  0  0  0  0  0  0
    7.4229    2.8295    1.8372 H   0  0  0  0  0  0  0  0  0  0  0  0
    7.5201    1.3046    2.7860 H   0  0  0  0  0  0  0  0  0  0  0  0
    9.0060    2.0670    2.1544 H   0  0  0  0  0  0  0  0  0  0  0  0
   -2.4101    1.0515    1.1937 H   0  0  0  0  0  0  0  0  0  0  0  0
   -2.6407   -0.6364    0.9053 H   0  0  0  0  0  0  0  0  0  0  0  0
  1  2  2  0  0  0  0
  1  3  1  0  0  0  0
  1  7  1  0  0  0  0
  2  4  1  0  0  0  0
  2 26  1  0  0  0  0
  3  6  2  0  0  0  0
  4  5  2  0  0  0  0
  5  6  1  0  0  0  0
  5 27  1  0  0  0  0
  6 16  1  0  0  0  0
  7  8  2  0  0  0  0
  7  9  1  0  0  0  0
  9 10  1  0  0  0  0
  9 28  1  0  0  0  0
 10 11  2  0  0  0  0
 10 15  1  0  0  0  0
 11 12  1  0  0  0  0
 11 29  1  0  0  0  0
 12 13  2  0  0  0  0
 12 30  1  0  0  0  0
 13 14  1  0  0  0  0
 13 31  1  0  0  0  0
 14 15  2  0  0  0  0
 14 32  1  0  0  0  0
 15 33  1  0  0  0  0
 16 17  2  0  0  0  0
 16 21  1  0  0  0  0
 17 18  1  0  0  0  0
 17 34  1  0  0  0  0
 18 19  2  0  0  0  0
 18 35  1  0  0  0  0
 19 20  1  0  0  0  0
 19 22  1  0  0  0  0
 20 21  2  0  0  0  0
 20 36  1  0  0  0  0
 21 37  1  0  0  0  0
 22 23  2  0  0  0  0
 22 24  2  0  0  0  0
 22 25  1  0  0  0  0
 25 38  1  0  0  0  0
 25 39  1  0  0  0  0
 25 40  1  0  0  0  0
 26 41  1  0  0  0  0
 26 42  1  0  0  0  0
M  END
>  <Mol_ID>
3866

>  <Formula>
C18H16N4O3S

>  <MolWeight>
368.40964

>  <Cat>
S8007

>  <Name>
VE-821

>  <Synonyms>
N/A

>  <Target>
ATM/ATR

>  <Form>
Free Base

>  <CAS>
1232410-49-9

>  <URL>
http://selleckchem.com/products/ve-821.html

$$$$
