VE-822.cdx
 OpenBabel08302519583D

 58 61  0  0  0  0  0  0  0  0999 V2000
   -0.5411    1.2102    0.1501 N   0  0  0  0  0  0  0  0  0  0  0  0
    0.8107    1.3187    0.1737 C   0  0  0  0  0  0  0  0  0  0  0  0
    1.6811    0.2332    0.0864 C   0  0  0  0  0  0  0  0  0  0  0  0
    1.1910   -1.0294    0.0031 N   0  0  0  0  0  0  0  0  0  0  0  0
   -0.1701   -1.1497   -0.0304 C   0  0  0  0  0  0  0  0  0  0  0  0
   -1.0326   -0.0386    0.0346 C   0  0  0  0  0  0  0  0  0  0  0  0
    3.1469    0.3828    0.0141 C   0  0  0  0  0  0  0  0  0  0  0  0
   -2.4124   -0.1090   -0.1378 N   0  0  0  0  0  0  0  0  0  0  0  0
   -0.6374   -2.5119   -0.2074 C   0  0  0  0  0  0  0  0  0  0  0  0
    4.0104   -0.5335    0.6446 C   0  0  0  0  0  0  0  0  0  0  0  0
    5.4031   -0.3944    0.5683 C   0  0  0  0  0  0  0  0  0  0  0  0
    5.9530    0.6553   -0.1704 C   0  0  0  0  0  0  0  0  0  0  0  0
    5.1241    1.5835   -0.7975 C   0  0  0  0  0  0  0  0  0  0  0  0
    3.7357    1.4421   -0.7052 C   0  0  0  0  0  0  0  0  0  0  0  0
    7.7207    0.8794   -0.2304 S   0  0  0  0  0  0  0  0  0  0  0  0
    7.9423    2.3077   -0.3817 O   0  0  0  0  0  0  0  0  0  0  0  0
    8.2788    0.1698    0.9033 O   0  0  0  0  0  0  0  0  0  0  0  0
    8.2570    0.0752   -1.7439 C   0  0  0  0  0  0  0  0  0  0  0  0
    9.7692    0.2352   -1.9003 C   0  0  0  0  0  0  0  0  0  0  0  0
    7.8706   -1.3978   -1.7822 C   0  0  0  0  0  0  0  0  0  0  0  0
   -0.0920   -3.6511   -0.7448 C   0  0  0  0  0  0  0  0  0  0  0  0
   -1.1117   -4.6330   -0.6417 C   0  0  0  0  0  0  0  0  0  0  0  0
   -2.1881   -4.1196   -0.0239 N   0  0  0  0  0  0  0  0  0  0  0  0
   -1.8869   -2.8018    0.2451 O   0  0  0  0  0  0  0  0  0  0  0  0
   -1.0644   -6.0227   -1.0869 C   0  0  0  0  0  0  0  0  0  0  0  0
   -1.8610   -6.9922   -0.4658 C   0  0  0  0  0  0  0  0  0  0  0  0
   -1.7581   -8.3359   -0.8308 C   0  0  0  0  0  0  0  0  0  0  0  0
   -0.8736   -8.7381   -1.8422 C   0  0  0  0  0  0  0  0  0  0  0  0
   -0.1084   -7.7592   -2.4937 C   0  0  0  0  0  0  0  0  0  0  0  0
   -0.2013   -6.4162   -2.1181 C   0  0  0  0  0  0  0  0  0  0  0  0
   -0.7068  -10.1972   -2.1903 C   0  0  0  0  0  0  0  0  0  0  0  0
   -1.9517  -10.7903   -2.6774 N   0  0  0  0  0  0  0  0  0  0  0  0
   -1.7728  -12.2071   -2.9589 C   0  0  0  0  0  0  0  0  0  0  0  0
    1.1766    2.3374    0.2527 H   0  0  0  0  0  0  0  0  0  0  0  0
   -2.8102    0.8127    0.0092 H   0  0  0  0  0  0  0  0  0  0  0  0
   -2.8507   -0.8335    0.4224 H   0  0  0  0  0  0  0  0  0  0  0  0
    3.5963   -1.3625    1.2184 H   0  0  0  0  0  0  0  0  0  0  0  0
    6.0424   -1.1032    1.0912 H   0  0  0  0  0  0  0  0  0  0  0  0
    5.5404    2.4260   -1.3466 H   0  0  0  0  0  0  0  0  0  0  0  0
    3.1139    2.1737   -1.2199 H   0  0  0  0  0  0  0  0  0  0  0  0
    7.7632    0.6014   -2.5690 H   0  0  0  0  0  0  0  0  0  0  0  0
   10.3069   -0.1898   -1.0457 H   0  0  0  0  0  0  0  0  0  0  0  0
   10.1268   -0.2621   -2.8077 H   0  0  0  0  0  0  0  0  0  0  0  0
   10.0444    1.2929   -1.9695 H   0  0  0  0  0  0  0  0  0  0  0  0
    6.7836   -1.5201   -1.8224 H   0  0  0  0  0  0  0  0  0  0  0  0
    8.2823   -1.8868   -2.6707 H   0  0  0  0  0  0  0  0  0  0  0  0
    8.2360   -1.9341   -0.9002 H   0  0  0  0  0  0  0  0  0  0  0  0
    0.8973   -3.7463   -1.1658 H   0  0  0  0  0  0  0  0  0  0  0  0
   -2.5552   -6.7124    0.3242 H   0  0  0  0  0  0  0  0  0  0  0  0
   -2.3674   -9.0691   -0.3088 H   0  0  0  0  0  0  0  0  0  0  0  0
    0.5750   -8.0395   -3.2918 H   0  0  0  0  0  0  0  0  0  0  0  0
    0.4090   -5.6881   -2.6459 H   0  0  0  0  0  0  0  0  0  0  0  0
    0.0694  -10.3032   -2.9586 H   0  0  0  0  0  0  0  0  0  0  0  0
   -0.3458  -10.7188   -1.2944 H   0  0  0  0  0  0  0  0  0  0  0  0
   -2.6744  -10.6798   -1.9691 H   0  0  0  0  0  0  0  0  0  0  0  0
   -1.4476  -12.7573   -2.0698 H   0  0  0  0  0  0  0  0  0  0  0  0
   -2.7237  -12.6356   -3.2896 H   0  0  0  0  0  0  0  0  0  0  0  0
   -1.0445  -12.3598   -3.7616 H   0  0  0  0  0  0  0  0  0  0  0  0
  1  2  2  0  0  0  0
  2  3  1  0  0  0  0
  2 34  1  0  0  0  0
  3  4  2  0  0  0  0
  3  7  1  0  0  0  0
  4  5  1  0  0  0  0
  5  6  2  0  0  0  0
  5  9  1  0  0  0  0
  6  1  1  0  0  0  0
  6  8  1  0  0  0  0
  7 10  2  0  0  0  0
  8 35  1  0  0  0  0
  8 36  1  0  0  0  0
  9 21  2  0  0  0  0
 10 11  1  0  0  0  0
 10 37  1  0  0  0  0
 11 12  2  0  0  0  0
 11 38  1  0  0  0  0
 12 13  1  0  0  0  0
 12 15  1  0  0  0  0
 13 14  2  0  0  0  0
 13 39  1  0  0  0  0
 14  7  1  0  0  0  0
 14 40  1  0  0  0  0
 15 16  2  0  0  0  0
 15 17  2  0  0  0  0
 15 18  1  0  0  0  0
 18 19  1  0  0  0  0
 18 20  1  0  0  0  0
 18 41  1  0  0  0  0
 19 42  1  0  0  0  0
 19 43  1  0  0  0  0
 19 44  1  0  0  0  0
 20 45  1  0  0  0  0
 20 46  1  0  0  0  0
 20 47  1  0  0  0  0
 21 22  1  0  0  0  0
 21 48  1  0  0  0  0
 22 23  2  0  0  0  0
 22 25  1  0  0  0  0
 23 24  1  0  0  0  0
 24  9  1  0  0  0  0
 25 26  2  0  0  0  0
 26 27  1  0  0  0  0
 26 49  1  0  0  0  0
 27 28  2  0  0  0  0
 27 50  1  0  0  0  0
 28 29  1  0  0  0  0
 28 31  1  0  0  0  0
 29 30  2  0  0  0  0
 29 51  1  0  0  0  0
 30 25  1  0  0  0  0
 30 52  1  0  0  0  0
 31 32  1  0  0  0  0
 31 53  1  0  0  0  0
 31 54  1  0  0  0  0
 32 33  1  0  0  0  0
 32 55  1  0  0  0  0
 33 56  1  0  0  0  0
 33 57  1  0  0  0  0
 33 58  1  0  0  0  0
M  END
>  <Mol_ID>
2350

>  <Formula>
C24H25N5O3S

>  <MolWeight>
463.552

>  <Cat>
S7102

>  <Name>
Berzosertib (VE-822)

>  <Synonyms>
VX970, M6620

>  <Target>
ATM/ATR

>  <Form>
free base

>  <CAS>
1232416-25-9

>  <URL>
http://selleckchem.com/products/ve-822.html

$$$$
