Venlafaxine hydrochloride.cdx
 OpenBabel08302519583D

 47 48  0  0  0  0  0  0  0  0999 V2000
    0.1807    0.9840    0.6491 C   0  0  0  0  0  0  0  0  0  0  0  0
   -1.2667    0.8551    1.1185 C   0  0  0  0  0  0  0  0  0  0  0  0
   -1.7647   -0.5518    1.4138 C   0  0  0  0  0  0  0  0  0  0  0  0
   -1.2338   -1.6227    0.4783 C   0  0  0  0  0  0  0  0  0  0  0  0
    0.2653   -1.5135    0.2687 C   0  0  0  0  0  0  0  0  0  0  0  0
    0.7735   -0.1429   -0.2256 C   0  0  0  0  0  0  0  0  0  0  0  0
    0.7271    0.0508   -1.8125 C   0  0  3  0  0  0  0  0  0  0  0  0
    2.1905   -0.1908    0.1352 O   0  0  0  0  0  0  0  0  0  0  0  0
   -0.6550   -0.1711   -2.5190 C   0  0  0  0  0  0  0  0  0  0  0  0
    1.5658    1.1988   -2.4309 C   0  0  0  0  0  0  0  0  0  0  0  0
   -1.8219    0.6757   -2.2115 N   0  0  0  0  0  0  0  0  0  0  0  0
   -1.6025    2.0825   -2.5574 C   0  0  0  0  0  0  0  0  0  0  0  0
   -2.9879    0.1851   -2.9666 C   0  0  0  0  0  0  0  0  0  0  0  0
    2.3225    2.1003   -1.6652 C   0  0  0  0  0  0  0  0  0  0  0  0
    3.1345    3.0798   -2.2562 C   0  0  0  0  0  0  0  0  0  0  0  0
    3.1999    3.2047   -3.6383 C   0  0  0  0  0  0  0  0  0  0  0  0
    2.4774    2.3128   -4.4218 C   0  0  0  0  0  0  0  0  0  0  0  0
    1.6812    1.3176   -3.8311 C   0  0  0  0  0  0  0  0  0  0  0  0
    3.9395    4.1266   -4.3274 O   0  0  0  0  0  0  0  0  0  0  0  0
    4.7020    5.0378   -3.5424 C   0  0  0  0  0  0  0  0  0  0  0  0
    0.8022    1.0755    1.5525 H   0  0  0  0  0  0  0  0  0  0  0  0
    0.2816    1.9569    0.1580 H   0  0  0  0  0  0  0  0  0  0  0  0
   -1.9293    1.3330    0.3923 H   0  0  0  0  0  0  0  0  0  0  0  0
   -1.3779    1.4502    2.0369 H   0  0  0  0  0  0  0  0  0  0  0  0
   -2.8612   -0.5545    1.3712 H   0  0  0  0  0  0  0  0  0  0  0  0
   -1.5016   -0.8191    2.4441 H   0  0  0  0  0  0  0  0  0  0  0  0
   -1.7725   -1.5857   -0.4680 H   0  0  0  0  0  0  0  0  0  0  0  0
   -1.4589   -2.6077    0.9056 H   0  0  0  0  0  0  0  0  0  0  0  0
    0.6147   -2.3100   -0.3998 H   0  0  0  0  0  0  0  0  0  0  0  0
    0.7478   -1.7344    1.2343 H   0  0  0  0  0  0  0  0  0  0  0  0
    1.3129   -0.8163   -2.1650 H   0  0  0  0  0  0  0  0  0  0  0  0
    2.6266   -0.8428   -0.4404 H   0  0  0  0  0  0  0  0  0  0  0  0
   -0.5121   -0.1683   -3.6060 H   0  0  0  0  0  0  0  0  0  0  0  0
   -0.9331   -1.2111   -2.3126 H   0  0  0  0  0  0  0  0  0  0  0  0
   -1.2951    2.2117   -3.6008 H   0  0  0  0  0  0  0  0  0  0  0  0
   -2.5215    2.6621   -2.4061 H   0  0  0  0  0  0  0  0  0  0  0  0
   -0.8531    2.5366   -1.9043 H   0  0  0  0  0  0  0  0  0  0  0  0
   -2.8358    0.2574   -4.0516 H   0  0  0  0  0  0  0  0  0  0  0  0
   -3.2012   -0.8613   -2.7216 H   0  0  0  0  0  0  0  0  0  0  0  0
   -3.8875    0.7557   -2.7102 H   0  0  0  0  0  0  0  0  0  0  0  0
    2.3353    2.0545   -0.5827 H   0  0  0  0  0  0  0  0  0  0  0  0
    3.6982    3.7205   -1.5904 H   0  0  0  0  0  0  0  0  0  0  0  0
    2.5328    2.3868   -5.5062 H   0  0  0  0  0  0  0  0  0  0  0  0
    1.1782    0.6291   -4.5043 H   0  0  0  0  0  0  0  0  0  0  0  0
    4.0683    5.5995   -2.8470 H   0  0  0  0  0  0  0  0  0  0  0  0
    5.5044    4.5152   -3.0101 H   0  0  0  0  0  0  0  0  0  0  0  0
    5.1633    5.7595   -4.2221 H   0  0  0  0  0  0  0  0  0  0  0  0
  1  2  1  0  0  0  0
  1 21  1  0  0  0  0
  1 22  1  0  0  0  0
  2  3  1  0  0  0  0
  2 23  1  0  0  0  0
  2 24  1  0  0  0  0
  3  4  1  0  0  0  0
  3 25  1  0  0  0  0
  3 26  1  0  0  0  0
  4  5  1  0  0  0  0
  4 27  1  0  0  0  0
  4 28  1  0  0  0  0
  5  6  1  0  0  0  0
  5 29  1  0  0  0  0
  5 30  1  0  0  0  0
  6  1  1  0  0  0  0
  6  7  1  0  0  0  0
  6  8  1  0  0  0  0
  7  9  1  0  0  0  0
  7 10  1  0  0  0  0
  7 31  1  0  0  0  0
  8 32  1  0  0  0  0
  9 11  1  0  0  0  0
  9 33  1  0  0  0  0
  9 34  1  0  0  0  0
 10 14  2  0  0  0  0
 11 12  1  0  0  0  0
 11 13  1  0  0  0  0
 12 35  1  0  0  0  0
 12 36  1  0  0  0  0
 12 37  1  0  0  0  0
 13 38  1  0  0  0  0
 13 39  1  0  0  0  0
 13 40  1  0  0  0  0
 14 15  1  0  0  0  0
 14 41  1  0  0  0  0
 15 16  2  0  0  0  0
 15 42  1  0  0  0  0
 16 17  1  0  0  0  0
 16 19  1  0  0  0  0
 17 18  2  0  0  0  0
 17 43  1  0  0  0  0
 18 10  1  0  0  0  0
 18 44  1  0  0  0  0
 19 20  1  0  0  0  0
 20 45  1  0  0  0  0
 20 46  1  0  0  0  0
 20 47  1  0  0  0  0
M  END
>  <Mol_ID>
258

>  <Formula>
C17H28ClNO2

>  <MolWeight>
313.86272

>  <Cat>
S1441

>  <Name>
Venlafaxine HCl

>  <Synonyms>
Wy 453 HCl

>  <Target>
Serotonin Transporter

>  <Form>
Hydrochloride

>  <CAS>
99300-78-4

>  <URL>
http://selleckchem.com/products/Venlafaxine-hydrochloride.html

$$$$
