VER-49009.cdx
 OpenBabel08302519583D

 45 47  0  0  0  0  0  0  0  0999 V2000
   -1.0240    1.0039    1.2482 C   0  0  0  0  0  0  0  0  0  0  0  0
    0.1094    1.7222    0.8706 C   0  0  0  0  0  0  0  0  0  0  0  0
    1.2457    1.0748    0.3492 C   0  0  0  0  0  0  0  0  0  0  0  0
    1.2077   -0.3241    0.2251 C   0  0  0  0  0  0  0  0  0  0  0  0
    0.0641   -1.0482    0.5829 C   0  0  0  0  0  0  0  0  0  0  0  0
   -1.0383   -0.3779    1.1024 C   0  0  0  0  0  0  0  0  0  0  0  0
    0.0546    3.0829    1.0316 O   0  0  0  0  0  0  0  0  0  0  0  0
   -2.1583   -1.0524    1.4894 O   0  0  0  0  0  0  0  0  0  0  0  0
    2.4556    1.8275   -0.0241 C   0  0  0  0  0  0  0  0  0  0  0  0
    2.8421    2.8536    0.7506 N   0  0  0  0  0  0  0  0  0  0  0  0
    4.0433    3.1884    0.2680 N   0  0  0  0  0  0  0  0  0  0  0  0
    4.3907    2.5726   -0.9072 C   0  0  0  0  0  0  0  0  0  0  0  0
    3.3549    1.6706   -1.1474 C   0  0  0  0  0  0  0  0  0  0  0  0
    3.2330    0.7450   -2.2738 C   0  0  0  0  0  0  0  0  0  0  0  0
    4.3287    0.0467   -2.7909 C   0  0  0  0  0  0  0  0  0  0  0  0
    4.1712   -0.8345   -3.8717 C   0  0  0  0  0  0  0  0  0  0  0  0
    2.9097   -1.0576   -4.4235 C   0  0  0  0  0  0  0  0  0  0  0  0
    1.8047   -0.4168   -3.8716 C   0  0  0  0  0  0  0  0  0  0  0  0
    1.9677    0.4969   -2.8294 C   0  0  0  0  0  0  0  0  0  0  0  0
    2.6260   -1.8739   -5.4815 O   0  0  0  0  0  0  0  0  0  0  0  0
    3.7316   -2.2858   -6.2745 C   0  0  0  0  0  0  0  0  0  0  0  0
    5.6491    2.9537   -1.5054 C   0  0  0  0  0  0  0  0  0  0  0  0
    6.5676    3.3809   -0.8175 O   0  0  0  0  0  0  0  0  0  0  0  0
    5.7576    2.8730   -2.8733 N   0  0  0  0  0  0  0  0  0  0  0  0
    6.9873    3.1933   -3.5700 C   0  0  0  0  0  0  0  0  0  0  0  0
    7.1152    4.6677   -3.9218 C   0  0  0  0  0  0  0  0  0  0  0  0
   -1.8849    1.5190    1.6648 H   0  0  0  0  0  0  0  0  0  0  0  0
    2.0691   -0.8704   -0.1524 H   0  0  0  0  0  0  0  0  0  0  0  0
    0.0572   -2.1262    0.4533 H   0  0  0  0  0  0  0  0  0  0  0  0
    0.9764    3.4090    0.9438 H   0  0  0  0  0  0  0  0  0  0  0  0
   -2.0043   -2.0050    1.3819 H   0  0  0  0  0  0  0  0  0  0  0  0
    4.5962    3.8819    0.7641 H   0  0  0  0  0  0  0  0  0  0  0  0
    5.3208    0.1670   -2.3618 H   0  0  0  0  0  0  0  0  0  0  0  0
    5.0522   -1.3435   -4.2495 H   0  0  0  0  0  0  0  0  0  0  0  0
    0.8088   -0.6176   -4.2605 H   0  0  0  0  0  0  0  0  0  0  0  0
    1.0779    0.9945   -2.4482 H   0  0  0  0  0  0  0  0  0  0  0  0
    4.3611   -1.4371   -6.5642 H   0  0  0  0  0  0  0  0  0  0  0  0
    4.3143   -3.0486   -5.7496 H   0  0  0  0  0  0  0  0  0  0  0  0
    3.3373   -2.7318   -7.1925 H   0  0  0  0  0  0  0  0  0  0  0  0
    4.9273    2.6590   -3.4154 H   0  0  0  0  0  0  0  0  0  0  0  0
    7.8419    2.8942   -2.9515 H   0  0  0  0  0  0  0  0  0  0  0  0
    7.0052    2.5913   -4.4822 H   0  0  0  0  0  0  0  0  0  0  0  0
    7.2266    5.2850   -3.0251 H   0  0  0  0  0  0  0  0  0  0  0  0
    8.0004    4.8294   -4.5504 H   0  0  0  0  0  0  0  0  0  0  0  0
    6.2384    5.0243   -4.4714 H   0  0  0  0  0  0  0  0  0  0  0  0
  1  2  2  0  0  0  0
  1 27  1  0  0  0  0
  2  3  1  0  0  0  0
  2  7  1  0  0  0  0
  3  4  2  0  0  0  0
  3  9  1  0  0  0  0
  4  5  1  0  0  0  0
  4 28  1  0  0  0  0
  5  6  2  0  0  0  0
  5 29  1  0  0  0  0
  6  1  1  0  0  0  0
  6  8  1  0  0  0  0
  7 30  1  0  0  0  0
  8 31  1  0  0  0  0
  9 10  2  0  0  0  0
 10 11  1  0  0  0  0
 11 12  1  0  0  0  0
 11 32  1  0  0  0  0
 12 13  2  0  0  0  0
 12 22  1  0  0  0  0
 13  9  1  0  0  0  0
 13 14  1  0  0  0  0
 14 15  2  0  0  0  0
 15 16  1  0  0  0  0
 15 33  1  0  0  0  0
 16 17  2  0  0  0  0
 16 34  1  0  0  0  0
 17 18  1  0  0  0  0
 17 20  1  0  0  0  0
 18 19  2  0  0  0  0
 18 35  1  0  0  0  0
 19 14  1  0  0  0  0
 19 36  1  0  0  0  0
 20 21  1  0  0  0  0
 21 37  1  0  0  0  0
 21 38  1  0  0  0  0
 21 39  1  0  0  0  0
 22 23  2  0  0  0  0
 22 24  1  0  0  0  0
 24 25  1  0  0  0  0
 24 40  1  0  0  0  0
 25 26  1  0  0  0  0
 25 41  1  0  0  0  0
 25 42  1  0  0  0  0
 26 43  1  0  0  0  0
 26 44  1  0  0  0  0
 26 45  1  0  0  0  0
M  END
>  <Mol_ID>
2385

>  <Formula>
C19H18ClN3O4

>  <MolWeight>
387.81692

>  <Cat>
S7458

>  <Name>
VER-49009

>  <Synonyms>
CCT0129397

>  <Target>
HSP (HSP90)

>  <Form>
free base

>  <CAS>
940289-57-6

>  <URL>
http://selleckchem.com/products/ver-49009.html

$$$$
