VER-50589.cdx
 OpenBabel08302519583D

 44 46  0  0  0  0  0  0  0  0999 V2000
    0.9202   -0.6063   -0.2139 N   0  0  0  0  0  0  0  0  0  0  0  0
   -0.2213   -1.3014   -0.0660 C   0  0  0  0  0  0  0  0  0  0  0  0
   -1.3475   -0.4209    0.0075 C   0  0  0  0  0  0  0  0  0  0  0  0
   -0.7977    0.8517   -0.1000 C   0  0  0  0  0  0  0  0  0  0  0  0
    0.5578    0.7256   -0.2077 O   0  0  0  0  0  0  0  0  0  0  0  0
   -2.7706   -0.7248    0.0440 C   0  0  0  0  0  0  0  0  0  0  0  0
   -1.3068    2.2303   -0.1624 C   0  0  0  0  0  0  0  0  0  0  0  0
   -0.2331   -2.7687   -0.0169 C   0  0  0  0  0  0  0  0  0  0  0  0
    0.7900   -3.3900   -0.7089 N   0  0  0  0  0  0  0  0  0  0  0  0
    0.8302   -4.8289   -0.8650 C   0  0  0  0  0  0  0  0  0  0  0  0
    0.0119   -5.3018   -2.0560 C   0  0  0  0  0  0  0  0  0  0  0  0
   -1.1176   -3.4055    0.5514 O   0  0  0  0  0  0  0  0  0  0  0  0
   -2.5581    2.4832   -0.7579 C   0  0  0  0  0  0  0  0  0  0  0  0
   -3.1477    3.7506   -0.7313 C   0  0  0  0  0  0  0  0  0  0  0  0
   -2.4611    4.8054   -0.1619 C   0  0  0  0  0  0  0  0  0  0  0  0
   -1.1978    4.6116    0.3884 C   0  0  0  0  0  0  0  0  0  0  0  0
   -0.6271    3.3328    0.3876 C   0  0  0  0  0  0  0  0  0  0  0  0
   -3.6545    0.0113    0.8398 C   0  0  0  0  0  0  0  0  0  0  0  0
   -5.0389   -0.1677    0.7239 C   0  0  0  0  0  0  0  0  0  0  0  0
   -5.5522   -1.1410   -0.1325 C   0  0  0  0  0  0  0  0  0  0  0  0
   -4.6706   -1.9356   -0.8635 C   0  0  0  0  0  0  0  0  0  0  0  0
   -3.2945   -1.7181   -0.7936 C   0  0  0  0  0  0  0  0  0  0  0  0
   -6.8748   -1.4139   -0.3415 O   0  0  0  0  0  0  0  0  0  0  0  0
   -7.8109   -0.5539    0.2939 C   0  0  0  0  0  0  0  0  0  0  0  0
   -2.9908    6.0614   -0.1266 O   0  0  0  0  0  0  0  0  0  0  0  0
    0.6103    3.2467    0.9702 O   0  0  0  0  0  0  0  0  0  0  0  0
    1.4705   -2.8025   -1.1788 H   0  0  0  0  0  0  0  0  0  0  0  0
    1.8773   -5.1207   -0.9861 H   0  0  0  0  0  0  0  0  0  0  0  0
    0.4484   -5.2979    0.0475 H   0  0  0  0  0  0  0  0  0  0  0  0
    0.4388   -4.9348   -2.9954 H   0  0  0  0  0  0  0  0  0  0  0  0
   -0.0043   -6.3963   -2.0957 H   0  0  0  0  0  0  0  0  0  0  0  0
   -1.0237   -4.9492   -2.0004 H   0  0  0  0  0  0  0  0  0  0  0  0
   -3.1135    1.6826   -1.2417 H   0  0  0  0  0  0  0  0  0  0  0  0
   -4.1386    3.8823   -1.1565 H   0  0  0  0  0  0  0  0  0  0  0  0
   -0.6596    5.4489    0.8210 H   0  0  0  0  0  0  0  0  0  0  0  0
   -3.2877    0.7755    1.5215 H   0  0  0  0  0  0  0  0  0  0  0  0
   -5.6840    0.4812    1.3068 H   0  0  0  0  0  0  0  0  0  0  0  0
   -5.0574   -2.7197   -1.5102 H   0  0  0  0  0  0  0  0  0  0  0  0
   -2.6473   -2.3356   -1.4127 H   0  0  0  0  0  0  0  0  0  0  0  0
   -7.6933   -0.5712    1.3820 H   0  0  0  0  0  0  0  0  0  0  0  0
   -7.7304    0.4660   -0.0972 H   0  0  0  0  0  0  0  0  0  0  0  0
   -8.8140   -0.9245    0.0640 H   0  0  0  0  0  0  0  0  0  0  0  0
   -3.8516    6.0548   -0.5852 H   0  0  0  0  0  0  0  0  0  0  0  0
    0.9798    2.3599    0.8133 H   0  0  0  0  0  0  0  0  0  0  0  0
  1  2  2  0  0  0  0
  2  3  1  0  0  0  0
  2  8  1  0  0  0  0
  3  4  2  0  0  0  0
  3  6  1  0  0  0  0
  4  5  1  0  0  0  0
  4  7  1  0  0  0  0
  5  1  1  0  0  0  0
  6 18  2  0  0  0  0
  7 13  2  0  0  0  0
  8  9  1  0  0  0  0
  8 12  2  0  0  0  0
  9 10  1  0  0  0  0
  9 27  1  0  0  0  0
 10 11  1  0  0  0  0
 10 28  1  0  0  0  0
 10 29  1  0  0  0  0
 11 30  1  0  0  0  0
 11 31  1  0  0  0  0
 11 32  1  0  0  0  0
 13 14  1  0  0  0  0
 13 33  1  0  0  0  0
 14 15  2  0  0  0  0
 14 34  1  0  0  0  0
 15 16  1  0  0  0  0
 15 25  1  0  0  0  0
 16 17  2  0  0  0  0
 16 35  1  0  0  0  0
 17  7  1  0  0  0  0
 17 26  1  0  0  0  0
 18 19  1  0  0  0  0
 18 36  1  0  0  0  0
 19 20  2  0  0  0  0
 19 37  1  0  0  0  0
 20 21  1  0  0  0  0
 20 23  1  0  0  0  0
 21 22  2  0  0  0  0
 21 38  1  0  0  0  0
 22  6  1  0  0  0  0
 22 39  1  0  0  0  0
 23 24  1  0  0  0  0
 24 40  1  0  0  0  0
 24 41  1  0  0  0  0
 24 42  1  0  0  0  0
 25 43  1  0  0  0  0
 26 44  1  0  0  0  0
M  END
>  <Mol_ID>
2414

>  <Formula>
C19H17ClN2O5

>  <MolWeight>
388.80168

>  <Cat>
S7459

>  <Name>
VER-50589

>  <Synonyms>
N/A

>  <Target>
HSP (HSP90)

>  <Form>
free base

>  <CAS>
747413-08-7

>  <URL>
http://selleckchem.com/products/ver-50589.html

$$$$
