Veratraldehyde (3,4-Dimethoxybenzaldehyde)
 OpenBabel08302521243D

 22 22  0  0  0  0  0  0  0  0999 V2000
    1.3770   -0.2737    0.0024 C   0  0  0  0  0  0  0  0  0  0  0  0
    0.4574   -1.3345    0.0640 C   0  0  0  0  0  0  0  0  0  0  0  0
   -0.9177   -1.0425    0.0041 C   0  0  0  0  0  0  0  0  0  0  0  0
   -1.3684    0.2817   -0.0513 C   0  0  0  0  0  0  0  0  0  0  0  0
   -0.4683    1.3346   -0.0838 C   0  0  0  0  0  0  0  0  0  0  0  0
    0.9009    1.0476   -0.0726 C   0  0  0  0  0  0  0  0  0  0  0  0
    2.7435   -0.3044   -0.0027 O   0  0  0  0  0  0  0  0  0  0  0  0
    0.9132   -2.6251    0.1493 O   0  0  0  0  0  0  0  0  0  0  0  0
    0.0005   -3.5761    0.7026 C   0  0  0  0  0  0  0  0  0  0  0  0
    3.4405   -1.4856    0.3557 C   0  0  0  0  0  0  0  0  0  0  0  0
   -2.8171    0.5660   -0.0742 C   0  0  0  0  0  0  0  0  0  0  0  0
   -3.6549   -0.3293   -0.0480 O   0  0  0  0  0  0  0  0  0  0  0  0
   -1.6624   -1.8326    0.0007 H   0  0  0  0  0  0  0  0  0  0  0  0
   -0.7939    2.3676   -0.1208 H   0  0  0  0  0  0  0  0  0  0  0  0
    1.6163    1.8666   -0.1144 H   0  0  0  0  0  0  0  0  0  0  0  0
   -0.5324   -3.1789    1.5752 H   0  0  0  0  0  0  0  0  0  0  0  0
   -0.7047   -3.9156   -0.0630 H   0  0  0  0  0  0  0  0  0  0  0  0
    0.5737   -4.4433    1.0410 H   0  0  0  0  0  0  0  0  0  0  0  0
    2.9563   -2.0576    1.1479 H   0  0  0  0  0  0  0  0  0  0  0  0
    3.6316   -2.0955   -0.5322 H   0  0  0  0  0  0  0  0  0  0  0  0
    4.4117   -1.1690    0.7528 H   0  0  0  0  0  0  0  0  0  0  0  0
   -3.1126    1.6261   -0.1181 H   0  0  0  0  0  0  0  0  0  0  0  0
  1  2  2  0  0  0  0
  1  7  1  0  0  0  0
  2  3  1  0  0  0  0
  2  8  1  0  0  0  0
  3  4  2  0  0  0  0
  3 13  1  0  0  0  0
  4  5  1  0  0  0  0
  4 11  1  0  0  0  0
  5  6  2  0  0  0  0
  5 14  1  0  0  0  0
  6  1  1  0  0  0  0
  6 15  1  0  0  0  0
  7 10  1  0  0  0  0
  8  9  1  0  0  0  0
  9 16  1  0  0  0  0
  9 17  1  0  0  0  0
  9 18  1  0  0  0  0
 10 19  1  0  0  0  0
 10 20  1  0  0  0  0
 10 21  1  0  0  0  0
 11 12  2  0  0  0  0
 11 22  1  0  0  0  0
M  END
>  <Mol_ID>
5106

>  <Formula>
C9H10O3

>  <MolWeight>
166.1739

>  <Cat>
S3214

>  <Name>
Veratraldehyde (3,4-Dimethoxybenzaldehyde)

>  <Synonyms>
VD, VAD, VAld, Verapamil Related Compound E, Methylvanillin, NSC 24521, NSC 8500, Vanillin methyl ether, 4-O-methylvanillin, veratric aldehyde

>  <Target>
Others

>  <Form>
free base

>  <CAS>
120-14-9

>  <URL>
http://www.selleckchem.com/products/veratraldehyde.html

$$$$
