Veratryl alcohol
 OpenBabel08302521243D

 24 24  0  0  0  0  0  0  0  0999 V2000
    1.3765   -0.2735    0.0340 C   0  0  0  0  0  0  0  0  0  0  0  0
    0.4707   -1.3449    0.1062 C   0  0  0  0  0  0  0  0  0  0  0  0
   -0.9060   -1.0696    0.0110 C   0  0  0  0  0  0  0  0  0  0  0  0
   -1.3967    0.2394   -0.0907 C   0  0  0  0  0  0  0  0  0  0  0  0
   -0.4886    1.2962   -0.1314 C   0  0  0  0  0  0  0  0  0  0  0  0
    0.8802    1.0322   -0.0867 C   0  0  0  0  0  0  0  0  0  0  0  0
   -2.8794    0.4869   -0.1667 C   0  0  0  0  0  0  0  0  0  0  0  0
   -3.4193   -0.0984   -1.3428 O   0  0  0  0  0  0  0  0  0  0  0  0
    2.7447   -0.2839    0.0581 O   0  0  0  0  0  0  0  0  0  0  0  0
    0.9462   -2.6295    0.2306 O   0  0  0  0  0  0  0  0  0  0  0  0
    0.0471   -3.5687    0.8184 C   0  0  0  0  0  0  0  0  0  0  0  0
    3.4455   -1.4595    0.4249 C   0  0  0  0  0  0  0  0  0  0  0  0
   -1.6356   -1.8793    0.0026 H   0  0  0  0  0  0  0  0  0  0  0  0
   -0.8291    2.3247   -0.2042 H   0  0  0  0  0  0  0  0  0  0  0  0
    1.5829    1.8648   -0.1358 H   0  0  0  0  0  0  0  0  0  0  0  0
   -3.3828    0.0582    0.7062 H   0  0  0  0  0  0  0  0  0  0  0  0
   -3.1029    1.5589   -0.1889 H   0  0  0  0  0  0  0  0  0  0  0  0
   -2.7152   -0.1039   -2.0139 H   0  0  0  0  0  0  0  0  0  0  0  0
   -0.5457   -3.1365    1.6337 H   0  0  0  0  0  0  0  0  0  0  0  0
   -0.6033   -3.9983    0.0493 H   0  0  0  0  0  0  0  0  0  0  0  0
    0.6439   -4.3790    1.2506 H   0  0  0  0  0  0  0  0  0  0  0  0
    2.9719   -2.0076    1.2438 H   0  0  0  0  0  0  0  0  0  0  0  0
    3.6101   -2.0919   -0.4516 H   0  0  0  0  0  0  0  0  0  0  0  0
    4.4264   -1.1421    0.7946 H   0  0  0  0  0  0  0  0  0  0  0  0
  1  2  2  0  0  0  0
  1  9  1  0  0  0  0
  2  3  1  0  0  0  0
  2 10  1  0  0  0  0
  3  4  2  0  0  0  0
  3 13  1  0  0  0  0
  4  5  1  0  0  0  0
  4  7  1  0  0  0  0
  5  6  2  0  0  0  0
  5 14  1  0  0  0  0
  6  1  1  0  0  0  0
  6 15  1  0  0  0  0
  7  8  1  0  0  0  0
  7 16  1  0  0  0  0
  7 17  1  0  0  0  0
  8 18  1  0  0  0  0
  9 12  1  0  0  0  0
 10 11  1  0  0  0  0
 11 19  1  0  0  0  0
 11 20  1  0  0  0  0
 11 21  1  0  0  0  0
 12 22  1  0  0  0  0
 12 23  1  0  0  0  0
 12 24  1  0  0  0  0
M  END
>  <Mol_ID>
5105

>  <Formula>
C9H12O3

>  <MolWeight>
168.18978

>  <Cat>
S3213

>  <Name>
Veratryl alcohol

>  <Synonyms>
VA, Veratrole alcohol, 3,4-Dimethoxybenzyl alcohol

>  <Target>
Others

>  <Form>
free base

>  <CAS>
93-03-8

>  <URL>
http://www.selleckchem.com/products/veratryl-alcohol.html

$$$$
