Verdiperstat
 OpenBabel08302521243D

 32 33  0  0  0  0  0  0  0  0999 V2000
    0.6396    0.2421    0.4743 S   0  0  0  0  0  0  0  0  0  0  0  0
    1.9557   -4.1730   -1.0055 O   0  0  0  0  0  0  0  0  0  0  0  0
    4.7035    2.8026   -0.3327 O   0  0  0  0  0  0  0  0  0  0  0  0
    3.1445   -0.9092    0.5017 N   0  0  0  0  0  0  0  0  0  0  0  0
    6.4129    0.4242    0.0326 N   0  0  0  0  0  0  0  0  0  0  0  0
    2.9234    1.4466    0.1388 N   0  0  0  0  0  0  0  0  0  0  0  0
    2.5951   -2.2884    0.5264 C   0  0  0  0  0  0  0  0  0  0  0  0
    4.5356   -0.7109    0.4266 C   0  0  0  0  0  0  0  0  0  0  0  0
    2.3300   -2.8007   -0.9015 C   0  0  0  0  0  0  0  0  0  0  0  0
    5.0551    0.5283    0.1357 C   0  0  0  0  0  0  0  0  0  0  0  0
    2.3155    0.2227    0.3738 C   0  0  0  0  0  0  0  0  0  0  0  0
    0.6340   -4.5494   -0.6086 C   0  0  0  0  0  0  0  0  0  0  0  0
    5.6331   -1.5839    0.6027 C   0  0  0  0  0  0  0  0  0  0  0  0
    4.2648    1.6953   -0.0440 C   0  0  0  0  0  0  0  0  0  0  0  0
    6.7819   -0.8611    0.3413 C   0  0  0  0  0  0  0  0  0  0  0  0
   -0.4744   -3.7065   -1.2380 C   0  0  0  0  0  0  0  0  0  0  0  0
    0.4559   -6.0064   -1.0451 C   0  0  0  0  0  0  0  0  0  0  0  0
    7.0347    1.1831   -0.2249 H   0  0  0  0  0  0  0  0  0  0  0  0
    2.3219    2.2472    0.0308 H   0  0  0  0  0  0  0  0  0  0  0  0
    3.2854   -2.9583    1.0504 H   0  0  0  0  0  0  0  0  0  0  0  0
    1.6693   -2.3144    1.1107 H   0  0  0  0  0  0  0  0  0  0  0  0
    1.6109   -2.1673   -1.4286 H   0  0  0  0  0  0  0  0  0  0  0  0
    3.2647   -2.7149   -1.4679 H   0  0  0  0  0  0  0  0  0  0  0  0
    0.5693   -4.5035    0.4840 H   0  0  0  0  0  0  0  0  0  0  0  0
    5.6126   -2.6254    0.8955 H   0  0  0  0  0  0  0  0  0  0  0  0
    7.8254   -1.1482    0.3477 H   0  0  0  0  0  0  0  0  0  0  0  0
   -0.2214   -3.4011   -2.2586 H   0  0  0  0  0  0  0  0  0  0  0  0
   -1.4275   -4.2468   -1.2636 H   0  0  0  0  0  0  0  0  0  0  0  0
   -0.6377   -2.7968   -0.6521 H   0  0  0  0  0  0  0  0  0  0  0  0
    1.3225   -6.6139   -0.7647 H   0  0  0  0  0  0  0  0  0  0  0  0
   -0.4421   -6.4470   -0.5995 H   0  0  0  0  0  0  0  0  0  0  0  0
    0.3619   -6.0768   -2.1361 H   0  0  0  0  0  0  0  0  0  0  0  0
  1 11  2  0  0  0  0
  2  9  1  0  0  0  0
  2 12  1  0  0  0  0
  3 14  2  0  0  0  0
  4  7  1  0  0  0  0
  4  8  1  0  0  0  0
  4 11  1  0  0  0  0
  5 10  1  0  0  0  0
  5 15  1  0  0  0  0
  5 18  1  0  0  0  0
  6 11  1  0  0  0  0
  6 14  1  0  0  0  0
  6 19  1  0  0  0  0
  7  9  1  0  0  0  0
  7 20  1  0  0  0  0
  7 21  1  0  0  0  0
  8 10  2  0  0  0  0
  8 13  1  0  0  0  0
  9 22  1  0  0  0  0
  9 23  1  0  0  0  0
 10 14  1  0  0  0  0
 12 16  1  0  0  0  0
 12 17  1  0  0  0  0
 12 24  1  0  0  0  0
 13 15  2  0  0  0  0
 13 25  1  0  0  0  0
 15 26  1  0  0  0  0
 16 27  1  0  0  0  0
 16 28  1  0  0  0  0
 16 29  1  0  0  0  0
 17 30  1  0  0  0  0
 17 31  1  0  0  0  0
 17 32  1  0  0  0  0
M  END
>  <Mol_ID>
5028

>  <Formula>
C11H15N3O2S

>  <MolWeight>
253.3207

>  <Cat>
S0018

>  <Name>
Verdiperstat

>  <Synonyms>
AZD-3241, BHV-3241

>  <Target>
Peroxidases

>  <Form>
free base

>  <CAS>
890655-80-8

>  <URL>
http://www.selleckchem.com/products/verdiperstat.html

$$$$
