Vericiguat
 OpenBabel08302521303D

 47 50  0  0  0  0  0  0  0  0999 V2000
    1.2012    0.9686   -1.3400 C   0  0  0  0  0  0  0  0  0  0  0  0
    0.3243    1.3368   -0.3532 N   0  0  0  0  0  0  0  0  0  0  0  0
    0.9139    0.5877   -2.4663 O   0  0  0  0  0  0  0  0  0  0  0  0
    2.4855    1.1458   -0.9155 O   0  0  0  0  0  0  0  0  0  0  0  0
   -3.7811    1.1828   -0.7771 C   0  0  0  0  0  0  0  0  0  0  0  0
   -3.0904    0.0465   -0.9934 N   0  0  0  0  0  0  0  0  0  0  0  0
   -1.7589    0.1192   -0.8685 C   0  0  0  0  0  0  0  0  0  0  0  0
   -1.0877    1.2947   -0.5487 C   0  0  0  0  0  0  0  0  0  0  0  0
   -1.9014    2.4221   -0.3647 C   0  0  0  0  0  0  0  0  0  0  0  0
   -3.2307    2.3726   -0.4730 N   0  0  0  0  0  0  0  0  0  0  0  0
   -7.3571    0.4442   -1.2447 C   0  0  0  0  0  0  0  0  0  0  0  0
   -6.0349    0.1528   -1.5648 C   0  0  0  0  0  0  0  0  0  0  0  0
   -5.8005   -0.8997   -2.4689 C   0  0  0  0  0  0  0  0  0  0  0  0
   -6.9134   -1.5585   -2.9775 C   0  0  0  0  0  0  0  0  0  0  0  0
   -8.1846   -1.1681   -2.5852 C   0  0  0  0  0  0  0  0  0  0  0  0
   -8.4663   -0.1677   -1.7132 N   0  0  0  0  0  0  0  0  0  0  0  0
   -6.0467    1.9244   -0.1140 N   0  0  0  0  0  0  0  0  0  0  0  0
   -7.3020    1.4760   -0.3486 N   0  0  0  0  0  0  0  0  0  0  0  0
   -5.2508    1.0928   -0.8226 C   0  0  0  0  0  0  0  0  0  0  0  0
   -8.4357    2.1327    0.2881 C   0  0  0  0  0  0  0  0  0  0  0  0
   -8.7545    1.5566    1.6458 C   0  0  0  0  0  0  0  0  0  0  0  0
  -10.0229    1.0304    1.9056 C   0  0  0  0  0  0  0  0  0  0  0  0
  -10.3757    0.5672    3.1719 C   0  0  0  0  0  0  0  0  0  0  0  0
   -9.4415    0.5963    4.2044 C   0  0  0  0  0  0  0  0  0  0  0  0
   -8.1594    1.0864    3.9609 C   0  0  0  0  0  0  0  0  0  0  0  0
   -7.8209    1.5762    2.6952 C   0  0  0  0  0  0  0  0  0  0  0  0
  -10.9350    0.9660    0.9256 F   0  0  0  0  0  0  0  0  0  0  0  0
   -6.7545   -2.5655   -3.8463 F   0  0  0  0  0  0  0  0  0  0  0  0
   -1.3779    3.7011   -0.1653 N   0  0  0  0  0  0  0  0  0  0  0  0
   -1.0813   -1.0843   -1.0592 N   0  0  0  0  0  0  0  0  0  0  0  0
    3.4922    0.8653   -1.9013 C   0  0  0  0  0  0  0  0  0  0  0  0
    0.7008    1.9806    0.3280 H   0  0  0  0  0  0  0  0  0  0  0  0
   -4.7998   -1.1891   -2.7694 H   0  0  0  0  0  0  0  0  0  0  0  0
   -9.0520   -1.6835   -2.9891 H   0  0  0  0  0  0  0  0  0  0  0  0
   -8.1904    3.1979    0.3840 H   0  0  0  0  0  0  0  0  0  0  0  0
   -9.2880    2.0647   -0.3969 H   0  0  0  0  0  0  0  0  0  0  0  0
  -11.3771    0.1844    3.3425 H   0  0  0  0  0  0  0  0  0  0  0  0
   -9.7090    0.2321    5.1931 H   0  0  0  0  0  0  0  0  0  0  0  0
   -7.4197    1.0899    4.7584 H   0  0  0  0  0  0  0  0  0  0  0  0
   -6.8179    1.9696    2.5331 H   0  0  0  0  0  0  0  0  0  0  0  0
   -0.7616    3.7742    0.6229 H   0  0  0  0  0  0  0  0  0  0  0  0
   -2.1796    4.3304   -0.0866 H   0  0  0  0  0  0  0  0  0  0  0  0
   -0.4162   -1.2846   -0.3240 H   0  0  0  0  0  0  0  0  0  0  0  0
   -1.7453   -1.8290   -1.2302 H   0  0  0  0  0  0  0  0  0  0  0  0
    3.6006   -0.2148   -2.0502 H   0  0  0  0  0  0  0  0  0  0  0  0
    3.2775    1.3612   -2.8547 H   0  0  0  0  0  0  0  0  0  0  0  0
    4.4461    1.2543   -1.5314 H   0  0  0  0  0  0  0  0  0  0  0  0
  1  2  1  0  0  0  0
  1  3  2  0  0  0  0
  1  4  1  0  0  0  0
  2  8  1  0  0  0  0
  2 32  1  0  0  0  0
  4 31  1  0  0  0  0
  5  6  2  0  0  0  0
  5 10  1  0  0  0  0
  5 19  1  0  0  0  0
  6  7  1  0  0  0  0
  7  8  2  0  0  0  0
  7 30  1  0  0  0  0
  8  9  1  0  0  0  0
  9 10  2  0  0  0  0
  9 29  1  0  0  0  0
 11 12  1  0  0  0  0
 11 16  2  0  0  0  0
 12 13  2  0  0  0  0
 13 14  1  0  0  0  0
 13 33  1  0  0  0  0
 14 15  2  0  0  0  0
 14 28  1  0  0  0  0
 15 16  1  0  0  0  0
 15 34  1  0  0  0  0
 17 18  1  0  0  0  0
 17 19  2  0  0  0  0
 18 11  1  0  0  0  0
 18 20  1  0  0  0  0
 19 12  1  0  0  0  0
 20 21  1  0  0  0  0
 20 35  1  0  0  0  0
 20 36  1  0  0  0  0
 21 22  2  0  0  0  0
 21 26  1  0  0  0  0
 22 23  1  0  0  0  0
 22 27  1  0  0  0  0
 23 24  2  0  0  0  0
 23 37  1  0  0  0  0
 24 25  1  0  0  0  0
 24 38  1  0  0  0  0
 25 26  2  0  0  0  0
 25 39  1  0  0  0  0
 26 40  1  0  0  0  0
 29 41  1  0  0  0  0
 29 42  1  0  0  0  0
 30 43  1  0  0  0  0
 30 44  1  0  0  0  0
 31 45  1  0  0  0  0
 31 46  1  0  0  0  0
 31 47  1  0  0  0  0
M  END
>  <Mol_ID>
5705

>  <Formula>
C19H16F2N8O2

>  <MolWeight>
426.3795464

>  <Cat>
S9693

>  <Name>
Vericiguat

>  <Synonyms>
BAY1021189, Verquvo

>  <Target>
Guanylate Cyclase

>  <Form>
Free Base

>  <CAS>
1350653-20-1

>  <URL>
http://www.selleckchem.com/products/vericiguat.html

$$$$
