Vernakalant (RSD1235) Hydrochloride
 OpenBabel08302521313D

 56 58  0  0  0  0  0  0  0  0999 V2000
    2.6567    0.3316    1.8800 O   0  0  0  0  0  0  0  0  0  0  0  0
    1.7926    4.3631   -1.2155 O   0  0  0  0  0  0  0  0  0  0  0  0
    0.8991    5.2778    4.3805 O   0  0  0  0  0  0  0  0  0  0  0  0
    2.1902    5.7476    6.8152 O   0  0  0  0  0  0  0  0  0  0  0  0
    2.1021    1.2225   -1.6477 N   0  0  3  0  0  0  0  0  0  0  0  0
    3.0425    1.0400   -0.4964 C   0  0  1  0  0  0  0  0  0  0  0  0
    2.6606   -0.1144    0.4927 C   0  0  1  0  0  0  0  0  0  0  0  0
    4.5599    1.0204   -0.8390 C   0  0  0  0  0  0  0  0  0  0  0  0
    3.3584   -1.4712    0.3051 C   0  0  0  0  0  0  0  0  0  0  0  0
    2.4152    2.3865   -2.5192 C   0  0  0  0  0  0  0  0  0  0  0  0
    0.7094    1.4593   -1.1698 C   0  0  0  0  0  0  0  0  0  0  0  0
    5.3743   -0.2643   -0.7920 C   0  0  0  0  0  0  0  0  0  0  0  0
    4.8210   -1.4874   -0.0926 C   0  0  0  0  0  0  0  0  0  0  0  0
    1.3812    3.4799   -2.2577 C   0  0  1  0  0  0  0  0  0  0  0  0
    0.1522    2.7069   -1.8503 C   0  0  0  0  0  0  0  0  0  0  0  0
    3.8658    0.9625    2.3121 C   0  0  0  0  0  0  0  0  0  0  0  0
    3.9335    1.2171    3.8160 C   0  0  0  0  0  0  0  0  0  0  0  0
    3.3898    2.4800    4.4678 C   0  0  0  0  0  0  0  0  0  0  0  0
    2.3310    3.2802    4.0007 C   0  0  0  0  0  0  0  0  0  0  0  0
    4.0003    2.8330    5.6883 C   0  0  0  0  0  0  0  0  0  0  0  0
    1.8904    4.4065    4.7534 C   0  0  0  0  0  0  0  0  0  0  0  0
    3.5669    3.9237    6.4371 C   0  0  0  0  0  0  0  0  0  0  0  0
    2.4989    4.6950    5.9887 C   0  0  0  0  0  0  0  0  0  0  0  0
    0.3197    5.1610    3.0925 C   0  0  0  0  0  0  0  0  0  0  0  0
    0.8008    5.9131    7.0861 C   0  0  0  0  0  0  0  0  0  0  0  0
    1.8412    3.8538   -0.3905 H   0  0  0  0  0  0  0  0  0  0  0  0
    2.9053    1.9753    0.0593 H   0  0  0  0  0  0  0  0  0  0  0  0
    1.6031   -0.3676    0.3393 H   0  0  0  0  0  0  0  0  0  0  0  0
    4.7596    1.4720   -1.8121 H   0  0  0  0  0  0  0  0  0  0  0  0
    5.0417    1.7194   -0.1420 H   0  0  0  0  0  0  0  0  0  0  0  0
    3.2611   -2.0627    1.2263 H   0  0  0  0  0  0  0  0  0  0  0  0
    2.8174   -2.0372   -0.4649 H   0  0  0  0  0  0  0  0  0  0  0  0
    2.3061    2.0423   -3.5547 H   0  0  0  0  0  0  0  0  0  0  0  0
    3.4223    2.7906   -2.4078 H   0  0  0  0  0  0  0  0  0  0  0  0
    0.0803    0.5906   -1.3887 H   0  0  0  0  0  0  0  0  0  0  0  0
    0.6680    1.6303   -0.0854 H   0  0  0  0  0  0  0  0  0  0  0  0
    6.3344   -0.0227   -0.3122 H   0  0  0  0  0  0  0  0  0  0  0  0
    5.6572   -0.5392   -1.8157 H   0  0  0  0  0  0  0  0  0  0  0  0
    5.4366   -1.6970    0.7932 H   0  0  0  0  0  0  0  0  0  0  0  0
    4.9974   -2.3587   -0.7414 H   0  0  0  0  0  0  0  0  0  0  0  0
    1.2020    4.0907   -3.1479 H   0  0  0  0  0  0  0  0  0  0  0  0
   -0.4930    3.2764   -1.1715 H   0  0  0  0  0  0  0  0  0  0  0  0
   -0.4281    2.4238   -2.7346 H   0  0  0  0  0  0  0  0  0  0  0  0
    4.6835    0.2774    2.0693 H   0  0  0  0  0  0  0  0  0  0  0  0
    4.0171    1.9030    1.7899 H   0  0  0  0  0  0  0  0  0  0  0  0
    3.5294    0.3585    4.3606 H   0  0  0  0  0  0  0  0  0  0  0  0
    5.0161    1.2524    4.0113 H   0  0  0  0  0  0  0  0  0  0  0  0
    1.8540    3.0366    3.0594 H   0  0  0  0  0  0  0  0  0  0  0  0
    4.8230    2.2374    6.0742 H   0  0  0  0  0  0  0  0  0  0  0  0
    4.0598    4.1618    7.3768 H   0  0  0  0  0  0  0  0  0  0  0  0
    1.0742    5.2570    2.3082 H   0  0  0  0  0  0  0  0  0  0  0  0
   -0.2373    4.2220    3.0049 H   0  0  0  0  0  0  0  0  0  0  0  0
   -0.3901    5.9820    2.9815 H   0  0  0  0  0  0  0  0  0  0  0  0
    0.3796    6.6788    6.4283 H   0  0  0  0  0  0  0  0  0  0  0  0
    0.2315    4.9796    7.0141 H   0  0  0  0  0  0  0  0  0  0  0  0
    0.7060    6.2766    8.1156 H   0  0  0  0  0  0  0  0  0  0  0  0
  1 16  1  0  0  0  0
  2 26  1  0  0  0  0
  3 21  1  0  0  0  0
  3 24  1  0  0  0  0
  4 23  1  0  0  0  0
  4 25  1  0  0  0  0
  5 10  1  0  0  0  0
  5 11  1  0  0  0  0
  6  5  1  0  0  0  0
  6  7  1  0  0  0  0
  6  8  1  0  0  0  0
  6 27  1  1  0  0  0
  7  9  1  0  0  0  0
  7 28  1  6  0  0  0
  7  1  1  0  0  0  0
  8 12  1  0  0  0  0
  8 29  1  0  0  0  0
  8 30  1  0  0  0  0
  9 13  1  0  0  0  0
  9 31  1  0  0  0  0
  9 32  1  0  0  0  0
 10 14  1  0  0  0  0
 10 33  1  0  0  0  0
 10 34  1  0  0  0  0
 11 15  1  0  0  0  0
 11 35  1  0  0  0  0
 11 36  1  0  0  0  0
 12 13  1  0  0  0  0
 12 37  1  0  0  0  0
 12 38  1  0  0  0  0
 13 39  1  0  0  0  0
 13 40  1  0  0  0  0
 14  2  1  0  0  0  0
 14 15  1  0  0  0  0
 14 41  1  6  0  0  0
 15 42  1  0  0  0  0
 15 43  1  0  0  0  0
 16 17  1  0  0  0  0
 16 44  1  0  0  0  0
 16 45  1  0  0  0  0
 17 18  1  0  0  0  0
 17 46  1  0  0  0  0
 17 47  1  0  0  0  0
 18 19  2  0  0  0  0
 18 20  1  0  0  0  0
 19 21  1  0  0  0  0
 19 48  1  0  0  0  0
 20 22  2  0  0  0  0
 20 49  1  0  0  0  0
 21 23  2  0  0  0  0
 22 23  1  0  0  0  0
 22 50  1  0  0  0  0
 24 51  1  0  0  0  0
 24 52  1  0  0  0  0
 24 53  1  0  0  0  0
 25 54  1  0  0  0  0
 25 55  1  0  0  0  0
 25 56  1  0  0  0  0
M  END
>  <Mol_ID>
6087

>  <Formula>
C20H32ClNO4

>  <MolWeight>
385.92538

>  <Cat>
E0144

>  <Name>
Vernakalant (RSD1235) Hydrochloride

>  <Synonyms>
MK-6621

>  <Target>
Potassium Channel,Sodium Channel

>  <Form>
Hydrochloride

>  <CAS>
748810-28-8

>  <URL>
http://www.selleckchem.com/products/vernakalant-rsd1235-hydrochloride.html

$$$$
