Verubulin hydrochloride
 OpenBabel08302521323D

 38 40  0  0  0  0  0  0  0  0999 V2000
    1.0186   -1.2948   -0.2198 N   0  0  0  0  0  0  0  0  0  0  0  0
    2.0484   -0.5608   -0.6436 C   0  0  0  0  0  0  0  0  0  0  0  0
    2.1164    0.7703   -0.5501 N   0  0  0  0  0  0  0  0  0  0  0  0
    1.1013    1.4533    0.0310 C   0  0  0  0  0  0  0  0  0  0  0  0
   -0.0220    0.7465    0.5538 C   0  0  0  0  0  0  0  0  0  0  0  0
   -1.1452    1.2639    1.2676 C   0  0  0  0  0  0  0  0  0  0  0  0
   -2.2248    0.4637    1.6465 C   0  0  0  0  0  0  0  0  0  0  0  0
   -2.1885   -0.8921    1.3815 C   0  0  0  0  0  0  0  0  0  0  0  0
   -1.0622   -1.4334    0.7653 C   0  0  0  0  0  0  0  0  0  0  0  0
    0.0065   -0.6478    0.3535 C   0  0  0  0  0  0  0  0  0  0  0  0
    1.2564    2.8684    0.0454 N   0  0  0  0  0  0  0  0  0  0  0  0
    3.1991   -1.2820   -1.2705 C   0  0  0  0  0  0  0  0  0  0  0  0
    0.0664    3.7062   -0.0719 C   0  0  0  0  0  0  0  0  0  0  0  0
    2.5144    3.5355   -0.0225 C   0  0  0  0  0  0  0  0  0  0  0  0
    2.7261    4.7242   -0.7378 C   0  0  0  0  0  0  0  0  0  0  0  0
    3.9871    5.3339   -0.8040 C   0  0  0  0  0  0  0  0  0  0  0  0
    5.0828    4.7710   -0.1571 C   0  0  0  0  0  0  0  0  0  0  0  0
    4.9085    3.5900    0.5518 C   0  0  0  0  0  0  0  0  0  0  0  0
    3.6408    2.9907    0.6200 C   0  0  0  0  0  0  0  0  0  0  0  0
    6.2688    5.4206   -0.3499 O   0  0  0  0  0  0  0  0  0  0  0  0
    7.2253    5.2855    0.6913 C   0  0  0  0  0  0  0  0  0  0  0  0
   -1.1951    2.3061    1.5556 H   0  0  0  0  0  0  0  0  0  0  0  0
   -3.0822    0.9026    2.1492 H   0  0  0  0  0  0  0  0  0  0  0  0
   -3.0179   -1.5344    1.6648 H   0  0  0  0  0  0  0  0  0  0  0  0
   -1.0202   -2.5073    0.5952 H   0  0  0  0  0  0  0  0  0  0  0  0
    3.6547   -1.9627   -0.5452 H   0  0  0  0  0  0  0  0  0  0  0  0
    2.8494   -1.8628   -2.1290 H   0  0  0  0  0  0  0  0  0  0  0  0
    3.9644   -0.5796   -1.6151 H   0  0  0  0  0  0  0  0  0  0  0  0
   -0.2469    4.0422    0.9226 H   0  0  0  0  0  0  0  0  0  0  0  0
    0.1966    4.6195   -0.6566 H   0  0  0  0  0  0  0  0  0  0  0  0
   -0.7620    3.1900   -0.5706 H   0  0  0  0  0  0  0  0  0  0  0  0
    1.9415    5.1953   -1.3194 H   0  0  0  0  0  0  0  0  0  0  0  0
    4.1114    6.2461   -1.3809 H   0  0  0  0  0  0  0  0  0  0  0  0
    5.7342    3.0810    1.0331 H   0  0  0  0  0  0  0  0  0  0  0  0
    3.5481    2.0604    1.1801 H   0  0  0  0  0  0  0  0  0  0  0  0
    6.8565    5.7478    1.6121 H   0  0  0  0  0  0  0  0  0  0  0  0
    7.5173    4.2448    0.8611 H   0  0  0  0  0  0  0  0  0  0  0  0
    8.1300    5.8261    0.3821 H   0  0  0  0  0  0  0  0  0  0  0  0
  1  2  2  0  0  0  0
  1 10  1  0  0  0  0
  2  3  1  0  0  0  0
  2 12  1  0  0  0  0
  3  4  2  0  0  0  0
  4  5  1  0  0  0  0
  4 11  1  0  0  0  0
  5  6  1  0  0  0  0
  5 10  2  0  0  0  0
  6  7  2  0  0  0  0
  6 22  1  0  0  0  0
  7  8  1  0  0  0  0
  7 23  1  0  0  0  0
  8  9  2  0  0  0  0
  8 24  1  0  0  0  0
  9 10  1  0  0  0  0
  9 25  1  0  0  0  0
 11 13  1  0  0  0  0
 11 14  1  0  0  0  0
 12 26  1  0  0  0  0
 12 27  1  0  0  0  0
 12 28  1  0  0  0  0
 13 29  1  0  0  0  0
 13 30  1  0  0  0  0
 13 31  1  0  0  0  0
 14 15  2  0  0  0  0
 14 19  1  0  0  0  0
 15 16  1  0  0  0  0
 15 32  1  0  0  0  0
 16 17  2  0  0  0  0
 16 33  1  0  0  0  0
 17 18  1  0  0  0  0
 17 20  1  0  0  0  0
 18 19  2  0  0  0  0
 18 34  1  0  0  0  0
 19 35  1  0  0  0  0
 20 21  1  0  0  0  0
 21 36  1  0  0  0  0
 21 37  1  0  0  0  0
 21 38  1  0  0  0  0
M  END
>  <Mol_ID>
6213

>  <Formula>
C17H18ClN3O

>  <MolWeight>
315.79732

>  <Cat>
S3374

>  <Name>
Verubulin hydrochloride

>  <Synonyms>
MPC 6827 hydrochloride

>  <Target>
Microtubule Associated

>  <Form>
hydrochloride

>  <CAS>
917369-31-4

>  <URL>
http://www.selleckchem.com/products/verubulin-hydrochloride.html

$$$$
