Verubecestat (MK-8931).cdx
 OpenBabel08302520433D

 45 47  0  0  0  0  0  0  0  0999 V2000
    0.8410    0.1099   -0.1680 C   0  0  0  0  0  0  0  0  0  0  0  0
    0.3140   -1.0693    0.3212 C   0  0  0  0  0  0  0  0  0  0  0  0
   -1.0652   -1.1664    0.4720 C   0  0  0  0  0  0  0  0  0  0  0  0
   -1.8587   -0.0716    0.1229 C   0  0  0  0  0  0  0  0  0  0  0  0
   -1.3724    1.0978   -0.3726 N   0  0  0  0  0  0  0  0  0  0  0  0
   -0.0167    1.1526   -0.5005 C   0  0  0  0  0  0  0  0  0  0  0  0
    2.1645    0.2398   -0.3183 F   0  0  0  0  0  0  0  0  0  0  0  0
   -3.3338   -0.1932    0.3088 C   0  0  0  0  0  0  0  0  0  0  0  0
   -4.1038    0.8959   -0.0638 N   0  0  0  0  0  0  0  0  0  0  0  0
   -3.7646   -1.2658    0.7373 O   0  0  0  0  0  0  0  0  0  0  0  0
   -5.5164    0.9229    0.0204 C   0  0  0  0  0  0  0  0  0  0  0  0
   -6.2190    0.0543    0.8597 C   0  0  0  0  0  0  0  0  0  0  0  0
   -7.6028    0.0018    0.8288 C   0  0  0  0  0  0  0  0  0  0  0  0
   -8.2941    0.8487   -0.0232 C   0  0  0  0  0  0  0  0  0  0  0  0
   -7.6459    1.7955   -0.8402 C   0  0  0  0  0  0  0  0  0  0  0  0
   -6.2337    1.8175   -0.7901 C   0  0  0  0  0  0  0  0  0  0  0  0
   -9.6331    0.7398   -0.0505 F   0  0  0  0  0  0  0  0  0  0  0  0
   -8.4865    2.7038   -1.7517 C   0  0  2  0  0  0  0  0  0  0  0  0
   -7.7603    3.7601   -2.5764 C   0  0  0  0  0  0  0  0  0  0  0  0
   -7.2938    5.1819   -1.6433 S   0  0  0  0  0  0  0  0  0  0  0  0
   -8.6050    5.4301   -0.6321 N   0  0  0  0  0  0  0  0  0  0  0  0
   -9.3670    4.3732   -0.1448 C   0  0  0  0  0  0  0  0  0  0  0  0
   -9.5457    3.3275   -0.9731 N   0  0  0  0  0  0  0  0  0  0  0  0
   -9.9568    4.4177    0.9930 N   0  0  0  0  0  0  0  0  0  0  0  0
   -8.9331    6.8397   -0.3419 C   0  0  0  0  0  0  0  0  0  0  0  0
   -6.1391    4.8710   -0.8283 O   0  0  0  0  0  0  0  0  0  0  0  0
   -7.2244    6.2759   -2.5931 O   0  0  0  0  0  0  0  0  0  0  0  0
   -9.2006    1.8090   -2.8080 C   0  0  0  0  0  0  0  0  0  0  0  0
    0.9592   -1.9016    0.5863 H   0  0  0  0  0  0  0  0  0  0  0  0
   -1.5143   -2.0787    0.8572 H   0  0  0  0  0  0  0  0  0  0  0  0
    0.3852    2.0840   -0.8867 H   0  0  0  0  0  0  0  0  0  0  0  0
   -3.6185    1.6441   -0.5502 H   0  0  0  0  0  0  0  0  0  0  0  0
   -5.7061   -0.6021    1.5582 H   0  0  0  0  0  0  0  0  0  0  0  0
   -8.1364   -0.7041    1.4578 H   0  0  0  0  0  0  0  0  0  0  0  0
   -5.6634    2.5057   -1.4073 H   0  0  0  0  0  0  0  0  0  0  0  0
   -6.8702    3.3734   -3.0819 H   0  0  0  0  0  0  0  0  0  0  0  0
   -8.4231    4.1563   -3.3583 H   0  0  0  0  0  0  0  0  0  0  0  0
  -10.1475    2.6436   -0.5128 H   0  0  0  0  0  0  0  0  0  0  0  0
   -9.6674    5.2623    1.4866 H   0  0  0  0  0  0  0  0  0  0  0  0
   -9.9505    7.0378   -0.6966 H   0  0  0  0  0  0  0  0  0  0  0  0
   -8.8804    7.0424    0.7302 H   0  0  0  0  0  0  0  0  0  0  0  0
   -8.2696    7.5514   -0.8377 H   0  0  0  0  0  0  0  0  0  0  0  0
   -8.4754    1.2995   -3.4523 H   0  0  0  0  0  0  0  0  0  0  0  0
   -9.8447    1.0451   -2.3600 H   0  0  0  0  0  0  0  0  0  0  0  0
   -9.8559    2.4115   -3.4520 H   0  0  0  0  0  0  0  0  0  0  0  0
  1  2  2  0  0  0  0
  1  7  1  0  0  0  0
  2  3  1  0  0  0  0
  2 29  1  0  0  0  0
  3  4  2  0  0  0  0
  3 30  1  0  0  0  0
  4  5  1  0  0  0  0
  4  8  1  0  0  0  0
  5  6  2  0  0  0  0
  6  1  1  0  0  0  0
  6 31  1  0  0  0  0
  8  9  1  0  0  0  0
  8 10  2  0  0  0  0
  9 11  1  0  0  0  0
  9 32  1  0  0  0  0
 11 12  2  0  0  0  0
 12 13  1  0  0  0  0
 12 33  1  0  0  0  0
 13 14  2  0  0  0  0
 13 34  1  0  0  0  0
 14 15  1  0  0  0  0
 14 17  1  0  0  0  0
 15 16  2  0  0  0  0
 16 11  1  0  0  0  0
 16 35  1  0  0  0  0
 18 15  1  0  0  0  0
 18 19  1  0  0  0  0
 18 28  1  6  0  0  0
 19 20  1  0  0  0  0
 19 36  1  0  0  0  0
 19 37  1  0  0  0  0
 20 21  1  0  0  0  0
 20 26  2  0  0  0  0
 20 27  2  0  0  0  0
 21 22  1  0  0  0  0
 21 25  1  0  0  0  0
 22 23  1  0  0  0  0
 22 24  2  0  0  0  0
 23 18  1  0  0  0  0
 23 38  1  0  0  0  0
 24 39  1  0  0  0  0
 25 40  1  0  0  0  0
 25 41  1  0  0  0  0
 25 42  1  0  0  0  0
 28 43  1  0  0  0  0
 28 44  1  0  0  0  0
 28 45  1  0  0  0  0
M  END
>  <Mol_ID>
4136

>  <Formula>
C17H17F2N5O3S

>  <MolWeight>
409.4103864

>  <Cat>
S8564

>  <Name>
Verubecestat (MK-8931)

>  <Synonyms>
N/A

>  <Target>
BACE

>  <Form>
free base

>  <CAS>
1286770-55-5

>  <URL>
http://selleckchem.com/products/verubecestat.html

$$$$
