VGX-1027.cdx
 OpenBabel08302519583D

 26 27  0  0  0  0  0  0  0  0999 V2000
    0.8987   -0.4534    1.0803 C   0  0  0  0  0  0  0  0  0  0  0  0
    0.5331   -1.3203    0.0442 C   0  0  0  0  0  0  0  0  0  0  0  0
   -0.2949   -0.8535   -0.9852 C   0  0  0  0  0  0  0  0  0  0  0  0
   -0.7553    0.4646   -0.9761 C   0  0  0  0  0  0  0  0  0  0  0  0
   -0.3911    1.3226    0.0596 C   0  0  0  0  0  0  0  0  0  0  0  0
    0.4347    0.8651    1.0859 C   0  0  0  0  0  0  0  0  0  0  0  0
    1.0298   -2.7157   -0.0085 C   0  0  0  0  0  0  0  0  0  0  0  0
    1.9726   -3.2569    1.0075 C   0  0  0  0  0  0  0  0  0  0  0  0
    2.0820   -4.6881    0.5289 C   0  0  3  0  0  0  0  0  0  0  0  0
    1.4188   -4.7372   -0.7440 O   0  0  0  0  0  0  0  0  0  0  0  0
    0.7002   -3.5480   -0.9450 N   0  0  0  0  0  0  0  0  0  0  0  0
    1.4036   -5.6811    1.4599 C   0  0  0  0  0  0  0  0  0  0  0  0
    1.5734   -7.0916    0.9599 C   0  0  0  0  0  0  0  0  0  0  0  0
    0.9804   -7.3298   -0.2307 O   0  0  0  0  0  0  0  0  0  0  0  0
    2.1567   -7.9620    1.5891 O   0  0  0  0  0  0  0  0  0  0  0  0
    1.5465   -0.7743    1.8900 H   0  0  0  0  0  0  0  0  0  0  0  0
   -0.5797   -1.5084   -1.8065 H   0  0  0  0  0  0  0  0  0  0  0  0
   -1.3937    0.8217   -1.7808 H   0  0  0  0  0  0  0  0  0  0  0  0
   -0.7481    2.3497    0.0648 H   0  0  0  0  0  0  0  0  0  0  0  0
    0.7214    1.5394    1.8896 H   0  0  0  0  0  0  0  0  0  0  0  0
    1.5757   -3.1712    2.0227 H   0  0  0  0  0  0  0  0  0  0  0  0
    2.9323   -2.7367    0.9390 H   0  0  0  0  0  0  0  0  0  0  0  0
    3.1306   -4.9682    0.3742 H   0  0  0  0  0  0  0  0  0  0  0  0
    1.8497   -5.6242    2.4603 H   0  0  0  0  0  0  0  0  0  0  0  0
    0.3291   -5.4892    1.5612 H   0  0  0  0  0  0  0  0  0  0  0  0
    0.6155   -6.5202   -0.6554 H   0  0  0  0  0  0  0  0  0  0  0  0
  1  2  2  0  0  0  0
  1 16  1  0  0  0  0
  2  3  1  0  0  0  0
  2  7  1  0  0  0  0
  3  4  2  0  0  0  0
  3 17  1  0  0  0  0
  4  5  1  0  0  0  0
  4 18  1  0  0  0  0
  5  6  2  0  0  0  0
  5 19  1  0  0  0  0
  6  1  1  0  0  0  0
  6 20  1  0  0  0  0
  7  8  1  0  0  0  0
  8  9  1  0  0  0  0
  8 21  1  0  0  0  0
  8 22  1  0  0  0  0
  9 10  1  0  0  0  0
  9 12  1  0  0  0  0
  9 23  1  0  0  0  0
 10 11  1  0  0  0  0
 11  7  2  0  0  0  0
 12 13  1  0  0  0  0
 12 24  1  0  0  0  0
 12 25  1  0  0  0  0
 13 14  1  0  0  0  0
 13 15  2  0  0  0  0
 14 26  1  0  0  0  0
M  END
>  <Mol_ID>
2379

>  <Formula>
C11H11NO3

>  <MolWeight>
205.20994

>  <Cat>
S7515

>  <Name>
VGX-1027

>  <Synonyms>
GIT 27

>  <Target>
Immunology & Inflammation related

>  <Form>
free base

>  <CAS>
6501-72-0

>  <URL>
http://selleckchem.com/products/vgx-1027.html

$$$$
