Vidofludimus .cdx
 OpenBabel08302519563D

 44 46  0  0  0  0  0  0  0  0999 V2000
   -1.9282   -0.1492   -0.5390 C   0  0  0  0  0  0  0  0  0  0  0  0
   -1.3192    1.1124   -0.5772 C   0  0  0  0  0  0  0  0  0  0  0  0
    0.0243    1.2446   -0.2518 C   0  0  0  0  0  0  0  0  0  0  0  0
    0.7539    0.0888    0.0477 C   0  0  0  0  0  0  0  0  0  0  0  0
    0.1538   -1.1667    0.0845 C   0  0  0  0  0  0  0  0  0  0  0  0
   -1.2136   -1.3118   -0.1926 C   0  0  0  0  0  0  0  0  0  0  0  0
    0.7064    2.4753   -0.1593 N   0  0  0  0  0  0  0  0  0  0  0  0
    0.1919    3.7369   -0.2877 C   0  0  0  0  0  0  0  0  0  0  0  0
   -0.9499    4.0204   -0.6353 O   0  0  0  0  0  0  0  0  0  0  0  0
    1.1664    4.8542   -0.0744 C   0  0  0  0  0  0  0  0  0  0  0  0
    0.7873    6.1741   -0.6846 C   0  0  0  0  0  0  0  0  0  0  0  0
    1.9339    7.1117   -0.3267 C   0  0  0  0  0  0  0  0  0  0  0  0
    2.9438    6.2949    0.4711 C   0  0  0  0  0  0  0  0  0  0  0  0
    2.3318    4.9357    0.5916 C   0  0  0  0  0  0  0  0  0  0  0  0
    2.9378    3.8892    1.4307 C   0  0  0  0  0  0  0  0  0  0  0  0
    4.2582    4.0338    1.6464 O   0  0  0  0  0  0  0  0  0  0  0  0
    2.3176    2.9405    1.8752 O   0  0  0  0  0  0  0  0  0  0  0  0
    2.0666    0.1822    0.3141 F   0  0  0  0  0  0  0  0  0  0  0  0
   -1.8785   -2.6302   -0.1253 C   0  0  0  0  0  0  0  0  0  0  0  0
   -1.2224   -3.8002   -0.5437 C   0  0  0  0  0  0  0  0  0  0  0  0
   -1.8527   -5.0448   -0.4873 C   0  0  0  0  0  0  0  0  0  0  0  0
   -3.1533   -5.1503   -0.0003 C   0  0  0  0  0  0  0  0  0  0  0  0
   -3.8202   -4.0116    0.4433 C   0  0  0  0  0  0  0  0  0  0  0  0
   -3.1911   -2.7649    0.3633 C   0  0  0  0  0  0  0  0  0  0  0  0
   -5.0953   -3.9953    0.9412 O   0  0  0  0  0  0  0  0  0  0  0  0
   -5.4935   -5.1858    1.6131 C   0  0  0  0  0  0  0  0  0  0  0  0
   -2.9876   -0.2068   -0.7840 H   0  0  0  0  0  0  0  0  0  0  0  0
   -1.9290    1.9684   -0.8470 H   0  0  0  0  0  0  0  0  0  0  0  0
    0.7713   -2.0167    0.3588 H   0  0  0  0  0  0  0  0  0  0  0  0
    1.6409    2.3726    0.2269 H   0  0  0  0  0  0  0  0  0  0  0  0
   -0.1531    6.5506   -0.2642 H   0  0  0  0  0  0  0  0  0  0  0  0
    0.6729    6.0948   -1.7712 H   0  0  0  0  0  0  0  0  0  0  0  0
    2.3954    7.5244   -1.2312 H   0  0  0  0  0  0  0  0  0  0  0  0
    1.5744    7.9648    0.2603 H   0  0  0  0  0  0  0  0  0  0  0  0
    3.8938    6.2488   -0.0733 H   0  0  0  0  0  0  0  0  0  0  0  0
    3.1237    6.7437    1.4531 H   0  0  0  0  0  0  0  0  0  0  0  0
    4.6997    4.7689    1.1887 H   0  0  0  0  0  0  0  0  0  0  0  0
   -0.2105   -3.7533   -0.9410 H   0  0  0  0  0  0  0  0  0  0  0  0
   -1.3277   -5.9321   -0.8333 H   0  0  0  0  0  0  0  0  0  0  0  0
   -3.6265   -6.1261    0.0083 H   0  0  0  0  0  0  0  0  0  0  0  0
   -3.7395   -1.8932    0.7156 H   0  0  0  0  0  0  0  0  0  0  0  0
   -5.7098   -5.9860    0.8985 H   0  0  0  0  0  0  0  0  0  0  0  0
   -4.7398   -5.5032    2.3424 H   0  0  0  0  0  0  0  0  0  0  0  0
   -6.4160   -4.9690    2.1598 H   0  0  0  0  0  0  0  0  0  0  0  0
  1  2  2  0  0  0  0
  1 27  1  0  0  0  0
  2  3  1  0  0  0  0
  2 28  1  0  0  0  0
  3  4  2  0  0  0  0
  3  7  1  0  0  0  0
  4  5  1  0  0  0  0
  4 18  1  0  0  0  0
  5  6  2  0  0  0  0
  5 29  1  0  0  0  0
  6  1  1  0  0  0  0
  6 19  1  0  0  0  0
  7  8  1  0  0  0  0
  7 30  1  0  0  0  0
  8  9  2  0  0  0  0
  8 10  1  0  0  0  0
 10 11  1  0  0  0  0
 11 12  1  0  0  0  0
 11 31  1  0  0  0  0
 11 32  1  0  0  0  0
 12 13  1  0  0  0  0
 12 33  1  0  0  0  0
 12 34  1  0  0  0  0
 13 14  1  0  0  0  0
 13 35  1  0  0  0  0
 13 36  1  0  0  0  0
 14 10  2  0  0  0  0
 14 15  1  0  0  0  0
 15 16  1  0  0  0  0
 15 17  2  0  0  0  0
 16 37  1  0  0  0  0
 19 20  2  0  0  0  0
 20 21  1  0  0  0  0
 20 38  1  0  0  0  0
 21 22  2  0  0  0  0
 21 39  1  0  0  0  0
 22 23  1  0  0  0  0
 22 40  1  0  0  0  0
 23 24  2  0  0  0  0
 23 25  1  0  0  0  0
 24 19  1  0  0  0  0
 24 41  1  0  0  0  0
 25 26  1  0  0  0  0
 26 42  1  0  0  0  0
 26 43  1  0  0  0  0
 26 44  1  0  0  0  0
M  END
>  <Mol_ID>
2196

>  <Formula>
C20H18FNO4

>  <MolWeight>
355.3596232

>  <Cat>
S7262

>  <Name>
Vidofludimus

>  <Synonyms>
SC12267, 4SC-101

>  <Target>
COVID-19,Dehydrogenase

>  <Form>
free base

>  <CAS>
717824-30-1

>  <URL>
http://selleckchem.com/products/vidofludimus.html

$$$$
