Vinpocetine.cdx
 OpenBabel08302521393D

 52 56  0  0  0  0  0  0  0  0999 V2000
   -3.9678    0.1046   -0.6438 C   0  0  0  0  0  0  0  0  0  0  0  0
   -3.4607   -1.1254   -0.2365 C   0  0  0  0  0  0  0  0  0  0  0  0
   -2.1003   -1.3989   -0.3238 C   0  0  0  0  0  0  0  0  0  0  0  0
   -3.1216    1.1132   -1.1249 C   0  0  0  0  0  0  0  0  0  0  0  0
   -1.7312    0.8973   -1.1300 C   0  0  0  0  0  0  0  0  0  0  0  0
   -1.2518   -0.3674   -0.7506 C   0  0  0  0  0  0  0  0  0  0  0  0
    0.1328   -0.2737   -0.6193 N   0  0  0  0  0  0  0  0  0  0  0  0
    0.4262    1.0556   -0.6234 C   0  0  0  0  0  0  0  0  0  0  0  0
   -0.6127    1.7733   -1.1698 C   0  0  0  0  0  0  0  0  0  0  0  0
    1.4595    1.6649    0.2656 C   0  0  1  0  0  0  0  0  0  0  0  0
    0.7212    2.6346    1.1468 N   0  0  3  0  0  0  0  0  0  0  0  0
   -0.0537    3.6485    0.3526 C   0  0  0  0  0  0  0  0  0  0  0  0
   -0.5036    3.2581   -1.0938 C   0  0  0  0  0  0  0  0  0  0  0  0
    1.0016   -1.2451   -0.1443 C   0  0  0  0  0  0  0  0  0  0  0  0
    1.9890   -0.8877    0.6995 C   0  0  0  0  0  0  0  0  0  0  0  0
    2.2960    0.5738    1.0621 C   0  0  2  0  0  0  0  0  0  0  0  0
    2.0367    0.7658    2.5763 C   0  0  0  0  0  0  0  0  0  0  0  0
    0.5332    0.8268    2.8841 C   0  0  0  0  0  0  0  0  0  0  0  0
   -0.1818    1.9170    2.0775 C   0  0  0  0  0  0  0  0  0  0  0  0
    0.9881   -2.6503   -0.6288 C   0  0  0  0  0  0  0  0  0  0  0  0
    1.5005   -3.5913   -0.0479 O   0  0  0  0  0  0  0  0  0  0  0  0
    0.5426   -2.6317   -1.9104 O   0  0  0  0  0  0  0  0  0  0  0  0
    1.0078   -3.6890   -2.7635 C   0  0  0  0  0  0  0  0  0  0  0  0
    2.3294   -3.2561   -3.3753 C   0  0  0  0  0  0  0  0  0  0  0  0
    3.8156    0.7379    0.7452 C   0  0  0  0  0  0  0  0  0  0  0  0
    4.1966    0.4466   -0.7183 C   0  0  0  0  0  0  0  0  0  0  0  0
   -5.0287    0.3076   -0.5271 H   0  0  0  0  0  0  0  0  0  0  0  0
   -4.1202   -1.8686    0.2067 H   0  0  0  0  0  0  0  0  0  0  0  0
   -1.7058   -2.3316    0.0720 H   0  0  0  0  0  0  0  0  0  0  0  0
   -3.5259    2.0944   -1.3512 H   0  0  0  0  0  0  0  0  0  0  0  0
    2.1442    2.2705   -0.3409 H   0  0  0  0  0  0  0  0  0  0  0  0
   -0.9476    3.9571    0.9129 H   0  0  0  0  0  0  0  0  0  0  0  0
    0.5618    4.5539    0.2853 H   0  0  0  0  0  0  0  0  0  0  0  0
   -1.4294    3.7672   -1.3755 H   0  0  0  0  0  0  0  0  0  0  0  0
    0.2759    3.5851   -1.7983 H   0  0  0  0  0  0  0  0  0  0  0  0
    2.6620   -1.6469    1.0942 H   0  0  0  0  0  0  0  0  0  0  0  0
    2.4908   -0.0421    3.1680 H   0  0  0  0  0  0  0  0  0  0  0  0
    2.4988    1.6965    2.9260 H   0  0  0  0  0  0  0  0  0  0  0  0
    0.3809    1.0106    3.9535 H   0  0  0  0  0  0  0  0  0  0  0  0
    0.0695   -0.1465    2.6716 H   0  0  0  0  0  0  0  0  0  0  0  0
   -0.6295    2.6324    2.7790 H   0  0  0  0  0  0  0  0  0  0  0  0
   -1.0409    1.4626    1.5686 H   0  0  0  0  0  0  0  0  0  0  0  0
    1.1033   -4.6374   -2.2239 H   0  0  0  0  0  0  0  0  0  0  0  0
    0.2609   -3.8262   -3.5507 H   0  0  0  0  0  0  0  0  0  0  0  0
    3.0881   -3.1098   -2.5968 H   0  0  0  0  0  0  0  0  0  0  0  0
    2.6985   -3.9945   -4.0908 H   0  0  0  0  0  0  0  0  0  0  0  0
    2.2182   -2.2925   -3.8845 H   0  0  0  0  0  0  0  0  0  0  0  0
    4.1474    1.7503    1.0026 H   0  0  0  0  0  0  0  0  0  0  0  0
    4.3921    0.0536    1.3829 H   0  0  0  0  0  0  0  0  0  0  0  0
    3.8504    1.2438   -1.3825 H   0  0  0  0  0  0  0  0  0  0  0  0
    5.2802    0.3701   -0.8160 H   0  0  0  0  0  0  0  0  0  0  0  0
    3.7724   -0.4953   -1.0846 H   0  0  0  0  0  0  0  0  0  0  0  0
  1  2  2  0  0  0  0
  1 27  1  0  0  0  0
  2  3  1  0  0  0  0
  2 28  1  0  0  0  0
  3  6  2  0  0  0  0
  3 29  1  0  0  0  0
  4  1  1  0  0  0  0
  4 30  1  0  0  0  0
  5  4  2  0  0  0  0
  5  6  1  0  0  0  0
  5  9  1  0  0  0  0
  6  7  1  0  0  0  0
  7  8  1  0  0  0  0
  7 14  1  0  0  0  0
  8  9  2  0  0  0  0
 10  8  1  0  0  0  0
 10 11  1  0  0  0  0
 10 31  1  6  0  0  0
 11 12  1  0  0  0  0
 12 13  1  0  0  0  0
 12 32  1  0  0  0  0
 12 33  1  0  0  0  0
 13  9  1  0  0  0  0
 13 34  1  0  0  0  0
 13 35  1  0  0  0  0
 14 15  2  0  0  0  0
 14 20  1  0  0  0  0
 15 16  1  0  0  0  0
 15 36  1  0  0  0  0
 16 10  1  0  0  0  0
 16 17  1  0  0  0  0
 16 25  1  6  0  0  0
 17 18  1  0  0  0  0
 17 37  1  0  0  0  0
 17 38  1  0  0  0  0
 18 19  1  0  0  0  0
 18 39  1  0  0  0  0
 18 40  1  0  0  0  0
 19 11  1  0  0  0  0
 19 41  1  0  0  0  0
 19 42  1  0  0  0  0
 20 21  2  0  0  0  0
 20 22  1  0  0  0  0
 22 23  1  0  0  0  0
 23 24  1  0  0  0  0
 23 43  1  0  0  0  0
 23 44  1  0  0  0  0
 24 45  1  0  0  0  0
 24 46  1  0  0  0  0
 24 47  1  0  0  0  0
 25 26  1  0  0  0  0
 25 48  1  0  0  0  0
 25 49  1  0  0  0  0
 26 50  1  0  0  0  0
 26 51  1  0  0  0  0
 26 52  1  0  0  0  0
M  END
>  <Mol_ID>
8204

>  <Formula>
C22H26N2O2

>  <MolWeight>
350.45404

>  <Cat>
S2110

>  <Name>
Vinpocetine

>  <Synonyms>
RGH-4405,Ethyl apovincaminate,AY 27255

>  <Target>
Sodium Channel

>  <Form>
free base

>  <CAS>
42971-09-5

>  <URL>
http://selleckchem.com/products/vinpocetine-cavinton.html

$$$$
