VIRA-A (vidarabine).cdx
 OpenBabel08302521213D

 32 34  0  0  0  0  0  0  0  0999 V2000
    5.9702    3.7111    2.1818 C   0  0  0  0  0  0  0  0  0  0  0  0
    6.7552    2.7007    2.6129 N   0  0  0  0  0  0  0  0  0  0  0  0
    6.3601    1.4328    2.3593 C   0  0  0  0  0  0  0  0  0  0  0  0
    5.1923    1.2255    1.6088 C   0  0  0  0  0  0  0  0  0  0  0  0
    4.4725    2.3554    1.2539 C   0  0  0  0  0  0  0  0  0  0  0  0
    4.7937    3.6322    1.5278 N   0  0  0  0  0  0  0  0  0  0  0  0
    4.5725    0.0846    1.1447 N   0  0  0  0  0  0  0  0  0  0  0  0
    3.4846    0.5165    0.5436 C   0  0  0  0  0  0  0  0  0  0  0  0
    3.3474    1.8822    0.6335 N   0  0  0  0  0  0  0  0  0  0  0  0
    7.1313    0.3989    2.8652 N   0  0  0  0  0  0  0  0  0  0  0  0
    2.1608    2.6032    0.2194 C   0  0  1  0  0  0  0  0  0  0  0  0
    1.7787    3.9042    0.9449 C   0  0  2  0  0  0  0  0  0  0  0  0
    2.3716    4.9763    0.0403 C   0  0  1  0  0  0  0  0  0  0  0  0
    2.0908    4.3640   -1.3225 C   0  0  2  0  0  0  0  0  0  0  0  0
    2.2985    2.9351   -1.1849 O   0  0  0  0  0  0  0  0  0  0  0  0
    2.9867    4.9130   -2.4249 C   0  0  0  0  0  0  0  0  0  0  0  0
    2.1292    4.0235    2.3122 O   0  0  0  0  0  0  0  0  0  0  0  0
    1.7788    6.2588    0.1883 O   0  0  0  0  0  0  0  0  0  0  0  0
    2.5884    4.3605   -3.6799 O   0  0  0  0  0  0  0  0  0  0  0  0
    6.3296    4.7137    2.4008 H   0  0  0  0  0  0  0  0  0  0  0  0
    2.7519   -0.1102    0.0487 H   0  0  0  0  0  0  0  0  0  0  0  0
    6.9829   -0.4951    2.4163 H   0  0  0  0  0  0  0  0  0  0  0  0
    8.0803    0.6795    3.0857 H   0  0  0  0  0  0  0  0  0  0  0  0
    1.3268    1.8952    0.3110 H   0  0  0  0  0  0  0  0  0  0  0  0
    0.6837    3.9985    0.9158 H   0  0  0  0  0  0  0  0  0  0  0  0
    3.4448    5.1014    0.2040 H   0  0  0  0  0  0  0  0  0  0  0  0
    1.0403    4.5118   -1.6058 H   0  0  0  0  0  0  0  0  0  0  0  0
    2.9129    6.0024   -2.4940 H   0  0  0  0  0  0  0  0  0  0  0  0
    4.0327    4.6348   -2.2612 H   0  0  0  0  0  0  0  0  0  0  0  0
    3.1028    4.1343    2.3619 H   0  0  0  0  0  0  0  0  0  0  0  0
    0.9772    6.1816    0.7351 H   0  0  0  0  0  0  0  0  0  0  0  0
    2.5658    3.3929   -3.5562 H   0  0  0  0  0  0  0  0  0  0  0  0
  1  2  2  0  0  0  0
  1 20  1  0  0  0  0
  2  3  1  0  0  0  0
  3  4  2  0  0  0  0
  3 10  1  0  0  0  0
  4  5  1  0  0  0  0
  4  7  1  0  0  0  0
  5  6  2  0  0  0  0
  6  1  1  0  0  0  0
  7  8  2  0  0  0  0
  8  9  1  0  0  0  0
  8 21  1  0  0  0  0
  9  5  1  0  0  0  0
 10 22  1  0  0  0  0
 10 23  1  0  0  0  0
 11 12  1  0  0  0  0
 11 24  1  1  0  0  0
 11  9  1  0  0  0  0
 12 13  1  0  0  0  0
 12 17  1  0  0  0  0
 12 25  1  6  0  0  0
 13 14  1  0  0  0  0
 13 18  1  0  0  0  0
 13 26  1  1  0  0  0
 14 15  1  0  0  0  0
 14 16  1  0  0  0  0
 14 27  1  6  0  0  0
 15 11  1  0  0  0  0
 16 19  1  0  0  0  0
 16 28  1  0  0  0  0
 16 29  1  0  0  0  0
 17 30  1  0  0  0  0
 18 31  1  0  0  0  0
 19 32  1  0  0  0  0
M  END
>  <Mol_ID>
439

>  <Formula>
C10H13N5O4

>  <MolWeight>
267.24132

>  <Cat>
S1784

>  <Name>
Vidarabine

>  <Synonyms>
N/A

>  <Target>
DNA/RNA Synthesis

>  <Form>
free base

>  <CAS>
5536-17-4

>  <URL>
http://selleckchem.com/products/Vidarabine(Vira-A).html

$$$$
