Vodobatinib (K0706)
 OpenBabel08302521313D

 53 56  0  0  0  0  0  0  0  0999 V2000
    1.6819   -0.6203    0.9369 O   0  0  0  0  0  0  0  0  0  0  0  0
    2.5590   -1.2620   -3.7570 O   0  0  0  0  0  0  0  0  0  0  0  0
    2.3945   -0.3449   -1.2238 N   0  0  0  0  0  0  0  0  0  0  0  0
    1.7478   -1.5239   -1.6407 N   0  0  0  0  0  0  0  0  0  0  0  0
    1.1126    7.7985    5.8281 N   0  0  0  0  0  0  0  0  0  0  0  0
    4.0742    3.8064    1.2489 C   0  0  0  0  0  0  0  0  0  0  0  0
    2.9409    1.3349    0.4837 C   0  0  0  0  0  0  0  0  0  0  0  0
    2.9691    3.2893    1.9501 C   0  0  0  0  0  0  0  0  0  0  0  0
    1.2711   -3.2324   -3.3540 C   0  0  0  0  0  0  0  0  0  0  0  0
    0.7844   -3.4796   -4.6582 C   0  0  0  0  0  0  0  0  0  0  0  0
    2.4203    2.0524    1.5748 C   0  0  0  0  0  0  0  0  0  0  0  0
    4.6120    3.0661    0.1829 C   0  0  0  0  0  0  0  0  0  0  0  0
    4.0501    1.8427   -0.2009 C   0  0  0  0  0  0  0  0  0  0  0  0
   -0.0613    5.9472    6.8424 C   0  0  0  0  0  0  0  0  0  0  0  0
    0.2779    7.3164    6.7673 C   0  0  0  0  0  0  0  0  0  0  0  0
    2.2954    0.0408    0.1017 C   0  0  0  0  0  0  0  0  0  0  0  0
    1.9052   -1.9288   -2.9581 C   0  0  0  0  0  0  0  0  0  0  0  0
    1.2429   -4.2772   -2.4088 C   0  0  0  0  0  0  0  0  0  0  0  0
    0.2941   -4.7657   -4.9734 C   0  0  0  0  0  0  0  0  0  0  0  0
    0.4929    5.0726    5.8912 C   0  0  0  0  0  0  0  0  0  0  0  0
    4.6773    5.1417    1.6003 C   0  0  0  0  0  0  0  0  0  0  0  0
    1.3441    5.5662    4.9066 C   0  0  0  0  0  0  0  0  0  0  0  0
    0.7233   -2.4660   -5.7690 C   0  0  0  0  0  0  0  0  0  0  0  0
   -0.9429    5.4919    7.8396 C   0  0  0  0  0  0  0  0  0  0  0  0
    0.7543   -5.5437   -2.7458 C   0  0  0  0  0  0  0  0  0  0  0  0
    0.2856   -5.7898   -4.0299 C   0  0  0  0  0  0  0  0  0  0  0  0
   -0.2838    8.1833    7.6968 C   0  0  0  0  0  0  0  0  0  0  0  0
    2.3731    4.0289    3.0309 C   0  0  0  0  0  0  0  0  0  0  0  0
    1.6213    6.9239    4.9247 C   0  0  0  0  0  0  0  0  0  0  0  0
   -1.4988    6.3866    8.7530 C   0  0  0  0  0  0  0  0  0  0  0  0
   -1.1700    7.7353    8.6818 C   0  0  0  0  0  0  0  0  0  0  0  0
    1.8970    4.7078    3.9036 C   0  0  0  0  0  0  0  0  0  0  0  0
    2.7893    0.2279   -1.9672 H   0  0  0  0  0  0  0  0  0  0  0  0
    1.1917   -2.0080   -0.9391 H   0  0  0  0  0  0  0  0  0  0  0  0
    1.5700    1.6496    2.1230 H   0  0  0  0  0  0  0  0  0  0  0  0
    5.4765    3.4430   -0.3617 H   0  0  0  0  0  0  0  0  0  0  0  0
    4.5091    1.2957   -1.0201 H   0  0  0  0  0  0  0  0  0  0  0  0
    1.6392   -4.1382   -1.4061 H   0  0  0  0  0  0  0  0  0  0  0  0
   -0.0782   -4.9748   -5.9761 H   0  0  0  0  0  0  0  0  0  0  0  0
    0.2511    4.0127    5.9154 H   0  0  0  0  0  0  0  0  0  0  0  0
    3.9521    5.9417    1.4173 H   0  0  0  0  0  0  0  0  0  0  0  0
    4.9878    5.1640    2.6501 H   0  0  0  0  0  0  0  0  0  0  0  0
    5.5640    5.3551    0.9940 H   0  0  0  0  0  0  0  0  0  0  0  0
    1.2894   -2.8311   -6.6335 H   0  0  0  0  0  0  0  0  0  0  0  0
   -0.3195   -2.3196   -6.0732 H   0  0  0  0  0  0  0  0  0  0  0  0
    1.1144   -1.4844   -5.5084 H   0  0  0  0  0  0  0  0  0  0  0  0
   -1.2060    4.4388    7.9052 H   0  0  0  0  0  0  0  0  0  0  0  0
    0.7592   -6.3447   -2.0100 H   0  0  0  0  0  0  0  0  0  0  0  0
   -0.0778   -6.7780   -4.3025 H   0  0  0  0  0  0  0  0  0  0  0  0
   -0.0294    9.2396    7.6485 H   0  0  0  0  0  0  0  0  0  0  0  0
    2.2792    7.3727    4.1844 H   0  0  0  0  0  0  0  0  0  0  0  0
   -2.1881    6.0318    9.5152 H   0  0  0  0  0  0  0  0  0  0  0  0
   -1.6011    8.4422    9.3859 H   0  0  0  0  0  0  0  0  0  0  0  0
  1 16  2  0  0  0  0
  2 17  2  0  0  0  0
  3  4  1  0  0  0  0
  3 16  1  0  0  0  0
  3 33  1  0  0  0  0
  4 17  1  0  0  0  0
  4 34  1  0  0  0  0
  5 15  2  0  0  0  0
  5 29  1  0  0  0  0
  6  8  2  0  0  0  0
  6 12  1  0  0  0  0
  6 21  1  0  0  0  0
  7 11  2  0  0  0  0
  7 13  1  0  0  0  0
  7 16  1  0  0  0  0
  8 11  1  0  0  0  0
  8 28  1  0  0  0  0
  9 10  2  0  0  0  0
  9 17  1  0  0  0  0
  9 18  1  0  0  0  0
 10 19  1  0  0  0  0
 10 23  1  0  0  0  0
 11 35  1  0  0  0  0
 12 13  2  0  0  0  0
 12 36  1  0  0  0  0
 13 37  1  0  0  0  0
 14 15  1  0  0  0  0
 14 20  2  0  0  0  0
 14 24  1  0  0  0  0
 15 27  1  0  0  0  0
 18 25  2  0  0  0  0
 18 38  1  0  0  0  0
 19 26  2  0  0  0  0
 19 39  1  0  0  0  0
 20 22  1  0  0  0  0
 20 40  1  0  0  0  0
 21 41  1  0  0  0  0
 21 42  1  0  0  0  0
 21 43  1  0  0  0  0
 22 29  2  0  0  0  0
 22 32  1  0  0  0  0
 23 44  1  0  0  0  0
 23 45  1  0  0  0  0
 23 46  1  0  0  0  0
 24 30  2  0  0  0  0
 24 47  1  0  0  0  0
 25 26  1  0  0  0  0
 25 48  1  0  0  0  0
 26 49  1  0  0  0  0
 27 31  2  0  0  0  0
 27 50  1  0  0  0  0
 28 32  3  0  0  0  0
 29 51  1  0  0  0  0
 30 31  1  0  0  0  0
 30 52  1  0  0  0  0
 31 53  1  0  0  0  0
M  END
>  <Mol_ID>
6058

>  <Formula>
C27H20ClN3O2

>  <MolWeight>
453.9196

>  <Cat>
E0047

>  <Name>
Vodobatinib (K0706)

>  <Synonyms>
SCO-088, SUN K706, SUN-K0706

>  <Target>
Bcr-Abl

>  <Form>
Free Base

>  <CAS>
1388803-90-4

>  <URL>
http://www.selleckchem.com/products/vodobatinib.html

$$$$
