Volinanserin
 OpenBabel08302521353D

 55 57  0  0  0  0  0  0  0  0999 V2000
    3.2630   -0.2664    1.5590 C   0  0  0  0  0  0  0  0  0  0  0  0
    2.4661   -0.2490    2.7478 C   0  0  0  0  0  0  0  0  0  0  0  0
    2.7417   -0.4986    0.1211 C   0  0  1  0  0  0  0  0  0  0  0  0
    4.6521   -0.0550    1.7197 C   0  0  0  0  0  0  0  0  0  0  0  0
    3.0873    0.0274    4.0013 C   0  0  0  0  0  0  0  0  0  0  0  0
    1.0963   -0.3272    2.8059 O   0  0  0  0  0  0  0  0  0  0  0  0
    3.5651    0.0422   -1.1132 C   0  0  0  0  0  0  0  0  0  0  0  0
    5.2336    0.2336    2.9504 C   0  0  0  0  0  0  0  0  0  0  0  0
    4.4527    0.2923    4.0854 C   0  0  0  0  0  0  0  0  0  0  0  0
    2.4535    0.1846    5.2137 O   0  0  0  0  0  0  0  0  0  0  0  0
    3.5570    1.5693   -1.2622 C   0  0  0  0  0  0  0  0  0  0  0  0
    3.1430   -0.5313   -2.4827 C   0  0  0  0  0  0  0  0  0  0  0  0
    1.5362   -0.8359    5.5885 C   0  0  0  0  0  0  0  0  0  0  0  0
    2.2390    2.1185   -1.8337 C   0  0  0  0  0  0  0  0  0  0  0  0
    1.7773   -0.0023   -2.9692 C   0  0  0  0  0  0  0  0  0  0  0  0
    1.7243    1.4615   -3.0620 N   0  0  0  0  0  0  0  0  0  0  0  0
    0.3498    1.9724   -3.3394 C   0  0  0  0  0  0  0  0  0  0  0  0
   -0.5951    1.3491   -4.4178 C   0  0  0  0  0  0  0  0  0  0  0  0
   -0.3505    1.4701   -5.9134 C   0  0  0  0  0  0  0  0  0  0  0  0
    0.7975    2.0619   -6.4500 C   0  0  0  0  0  0  0  0  0  0  0  0
   -1.3300    0.9728   -6.8124 C   0  0  0  0  0  0  0  0  0  0  0  0
    0.9677    2.1375   -7.8399 C   0  0  0  0  0  0  0  0  0  0  0  0
   -1.1530    1.0446   -8.1965 C   0  0  0  0  0  0  0  0  0  0  0  0
    0.0054    1.6253   -8.6994 C   0  0  0  0  0  0  0  0  0  0  0  0
    0.1851    1.6956  -10.0176 F   0  0  0  0  0  0  0  0  0  0  0  0
    0.4295   -1.2969    2.0105 C   0  0  0  0  0  0  0  0  0  0  0  0
    2.6249   -1.9200   -0.0231 O   0  0  0  0  0  0  0  0  0  0  0  0
    1.7435   -0.0686    0.0374 H   0  0  0  0  0  0  0  0  0  0  0  0
    5.3255   -0.0895    0.8747 H   0  0  0  0  0  0  0  0  0  0  0  0
    4.6039   -0.2871   -0.9978 H   0  0  0  0  0  0  0  0  0  0  0  0
    6.3014    0.4281    3.0119 H   0  0  0  0  0  0  0  0  0  0  0  0
    4.8995    0.5467    5.0436 H   0  0  0  0  0  0  0  0  0  0  0  0
    3.7759    2.0536   -0.3046 H   0  0  0  0  0  0  0  0  0  0  0  0
    4.3759    1.8548   -1.9391 H   0  0  0  0  0  0  0  0  0  0  0  0
    3.8992   -0.2536   -3.2216 H   0  0  0  0  0  0  0  0  0  0  0  0
    3.1238   -1.6236   -2.4657 H   0  0  0  0  0  0  0  0  0  0  0  0
    0.5250   -0.5605    5.2786 H   0  0  0  0  0  0  0  0  0  0  0  0
    1.8157   -1.8241    5.2094 H   0  0  0  0  0  0  0  0  0  0  0  0
    1.5322   -0.8939    6.6835 H   0  0  0  0  0  0  0  0  0  0  0  0
    1.4894    2.0736   -1.0340 H   0  0  0  0  0  0  0  0  0  0  0  0
    2.4004    3.1803   -2.0594 H   0  0  0  0  0  0  0  0  0  0  0  0
    1.6081   -0.4207   -3.9682 H   0  0  0  0  0  0  0  0  0  0  0  0
    0.9867   -0.3773   -2.3113 H   0  0  0  0  0  0  0  0  0  0  0  0
   -0.2188    1.8746   -2.4021 H   0  0  0  0  0  0  0  0  0  0  0  0
    0.4264    3.0497   -3.5364 H   0  0  0  0  0  0  0  0  0  0  0  0
   -0.7593    0.2949   -4.1827 H   0  0  0  0  0  0  0  0  0  0  0  0
   -1.5641    1.8497   -4.2548 H   0  0  0  0  0  0  0  0  0  0  0  0
    1.5675    2.4708   -5.8022 H   0  0  0  0  0  0  0  0  0  0  0  0
   -2.2450    0.5246   -6.4262 H   0  0  0  0  0  0  0  0  0  0  0  0
    1.8626    2.5953   -8.2569 H   0  0  0  0  0  0  0  0  0  0  0  0
   -1.8977    0.6607   -8.8719 H   0  0  0  0  0  0  0  0  0  0  0  0
    0.2050   -0.8850    1.0274 H   0  0  0  0  0  0  0  0  0  0  0  0
    0.9636   -2.2476    1.9535 H   0  0  0  0  0  0  0  0  0  0  0  0
   -0.5448   -1.4918    2.4767 H   0  0  0  0  0  0  0  0  0  0  0  0
    3.5042   -2.2596   -0.2647 H   0  0  0  0  0  0  0  0  0  0  0  0
  1  2  2  0  0  0  0
  1  3  1  0  0  0  0
  1  4  1  0  0  0  0
  2  5  1  0  0  0  0
  2  6  1  0  0  0  0
  3  7  1  0  0  0  0
  3 27  1  0  0  0  0
  3 28  1  6  0  0  0
  4  8  2  0  0  0  0
  4 29  1  0  0  0  0
  5  9  2  0  0  0  0
  5 10  1  0  0  0  0
  6 26  1  0  0  0  0
  7 11  1  0  0  0  0
  7 12  1  0  0  0  0
  7 30  1  0  0  0  0
  8  9  1  0  0  0  0
  8 31  1  0  0  0  0
  9 32  1  0  0  0  0
 10 13  1  0  0  0  0
 11 14  1  0  0  0  0
 11 33  1  0  0  0  0
 11 34  1  0  0  0  0
 12 15  1  0  0  0  0
 12 35  1  0  0  0  0
 12 36  1  0  0  0  0
 13 37  1  0  0  0  0
 13 38  1  0  0  0  0
 13 39  1  0  0  0  0
 14 16  1  0  0  0  0
 14 40  1  0  0  0  0
 14 41  1  0  0  0  0
 15 16  1  0  0  0  0
 15 42  1  0  0  0  0
 15 43  1  0  0  0  0
 16 17  1  0  0  0  0
 17 18  1  0  0  0  0
 17 44  1  0  0  0  0
 17 45  1  0  0  0  0
 18 19  1  0  0  0  0
 18 46  1  0  0  0  0
 18 47  1  0  0  0  0
 19 20  2  0  0  0  0
 19 21  1  0  0  0  0
 20 22  1  0  0  0  0
 20 48  1  0  0  0  0
 21 23  2  0  0  0  0
 21 49  1  0  0  0  0
 22 24  2  0  0  0  0
 22 50  1  0  0  0  0
 23 24  1  0  0  0  0
 23 51  1  0  0  0  0
 24 25  1  0  0  0  0
 26 52  1  0  0  0  0
 26 53  1  0  0  0  0
 26 54  1  0  0  0  0
 27 55  1  0  0  0  0
M  END
>  <Mol_ID>
6625

>  <Formula>
C22H28FNO3

>  <MolWeight>
373.4610232

>  <Cat>
S0313

>  <Name>
Volinanserin

>  <Synonyms>
Volinanserin Hydrochloride Salt, MDL100907, M 100907, MDL-100,907

>  <Target>
5-HT Receptor

>  <Form>
Free base

>  <CAS>
139290-65-6

>  <URL>
http://www.selleckchem.com/products/volinanserin.html

$$$$
