Vomicine
 OpenBabel08302521503D

 52 57  0  0  1  0  0  0  0  0999 V2000
    3.5405    0.3657   -1.4545 O   0  0  0  0  0  0  0  0  0  0  0  0
   -2.4092   -0.2019   -0.0468 O   0  0  0  0  0  0  0  0  0  0  0  0
   -1.5174    2.7391    0.5393 O   0  0  0  0  0  0  0  0  0  0  0  0
    7.3068   -1.9807    1.9404 C   0  0  0  0  0  0  0  0  0  0  0  0
    2.4002   -0.0962    1.1142 C   0  0  2  0  0  0  0  0  0  0  0  0
    1.0122   -1.0167    1.3302 C   0  0  2  0  0  0  0  0  0  0  0  0
    1.0614    0.8341    2.1500 C   0  0  0  0  0  0  0  0  0  0  0  0
    3.1480   -0.4038   -0.5710 C   0  0  0  0  0  0  0  0  0  0  0  0
    4.4024    0.1741    0.8422 C   0  0  0  0  0  0  0  0  0  0  0  0
    1.3222   -1.4949    0.0693 C   0  0  3  0  0  0  0  0  0  0  0  0
   -0.4078   -0.2356    1.1517 N   0  0  0  0  0  0  0  0  0  0  0  0
   -0.0283    1.1130    1.4076 C   0  0  0  0  0  0  0  0  0  0  0  0
    0.5853    0.8514    3.5039 C   0  0  0  0  0  0  0  0  0  0  0  0
    3.4057   -1.8863   -0.7029 C   0  0  0  0  0  0  0  0  0  0  0  0
    5.7898   -0.0516    1.7058 C   0  0  0  0  0  0  0  0  0  0  0  0
    2.7600   -2.1858    0.6342 C   0  0  3  0  0  0  0  0  0  0  0  0
    1.1611    0.2795   -0.6176 C   0  0  3  0  0  0  0  0  0  0  0  0
   -1.1860   -0.1708    0.0151 C   0  0  0  0  0  0  0  0  0  0  0  0
   -1.0276    2.0810    1.6041 C   0  0  0  0  0  0  0  0  0  0  0  0
   -0.7030    1.4829    3.8379 C   0  0  0  0  0  0  0  0  0  0  0  0
    6.0410   -1.3486    2.3827 N   0  0  0  0  0  0  0  0  0  0  0  0
    3.5590   -1.5095    2.2209 C   0  0  0  0  0  0  0  0  0  0  0  0
   -0.3025    0.2038   -1.1127 C   0  0  0  0  0  0  0  0  0  0  0  0
    2.0747    1.6449    0.2696 O   0  0  0  0  0  0  0  0  0  0  0  0
   -1.4592    2.1949    2.8889 C   0  0  0  0  0  0  0  0  0  0  0  0
    4.9192   -2.2624    2.2145 C   0  0  0  0  0  0  0  0  0  0  0  0
    3.4976   -0.0630    2.8529 C   0  0  0  0  0  0  0  0  0  0  0  0
    3.0416    1.6403    1.8955 C   0  0  0  0  0  0  0  0  0  0  0  0
   -2.4508    2.9673    0.6815 H   0  0  0  0  0  0  0  0  0  0  0  0
    7.3681   -2.1115    0.8499 H   0  0  0  0  0  0  0  0  0  0  0  0
    8.1781   -1.3915    2.2520 H   0  0  0  0  0  0  0  0  0  0  0  0
    7.4372   -2.9767    2.3855 H   0  0  0  0  0  0  0  0  0  0  0  0
    0.9517   -1.6590    2.2237 H   0  0  0  0  0  0  0  0  0  0  0  0
    4.5478    1.1494    0.3582 H   0  0  0  0  0  0  0  0  0  0  0  0
    4.8659   -0.4984    0.1033 H   0  0  0  0  0  0  0  0  0  0  0  0
    0.6114   -2.2183   -0.3350 H   0  0  0  0  0  0  0  0  0  0  0  0
    1.0503    0.2752    4.2929 H   0  0  0  0  0  0  0  0  0  0  0  0
    2.8273   -2.2298   -1.5722 H   0  0  0  0  0  0  0  0  0  0  0  0
    4.4534   -2.1282   -0.8427 H   0  0  0  0  0  0  0  0  0  0  0  0
    6.5805    0.0753    0.9410 H   0  0  0  0  0  0  0  0  0  0  0  0
    5.9871    0.7742    2.3967 H   0  0  0  0  0  0  0  0  0  0  0  0
    2.6410   -3.2626    0.8025 H   0  0  0  0  0  0  0  0  0  0  0  0
    1.5603    0.4060   -1.6316 H   0  0  0  0  0  0  0  0  0  0  0  0
   -1.1595    1.3536    4.8208 H   0  0  0  0  0  0  0  0  0  0  0  0
   -0.6401    1.0481   -1.6928 H   0  0  0  0  0  0  0  0  0  0  0  0
   -0.3686   -0.6877   -1.7595 H   0  0  0  0  0  0  0  0  0  0  0  0
   -2.3877    2.7100    3.1197 H   0  0  0  0  0  0  0  0  0  0  0  0
    4.9373   -3.1033    2.9113 H   0  0  0  0  0  0  0  0  0  0  0  0
    5.0458   -2.7177    1.2200 H   0  0  0  0  0  0  0  0  0  0  0  0
    4.1552    0.1816    3.6800 H   0  0  0  0  0  0  0  0  0  0  0  0
    2.5052    2.3356    2.5654 H   0  0  0  0  0  0  0  0  0  0  0  0
    3.9390    2.2385    1.6723 H   0  0  0  0  0  0  0  0  0  0  0  0
  1  8  2  0  0  0  0
  2 18  2  0  0  0  0
  3 19  1  0  0  0  0
  3 29  1  0  0  0  0
  4 21  1  0  0  0  0
  4 30  1  0  0  0  0
  4 31  1  0  0  0  0
  4 32  1  0  0  0  0
  5  6  1  0  0  0  0
  5  7  1  6  0  0  0
  5  8  1  0  0  0  0
  5  9  1  0  0  0  0
  6 10  1  0  0  0  0
  6 11  1  0  0  0  0
  6 33  1  1  0  0  0
  7 12  2  0  0  0  0
  7 13  1  0  0  0  0
  8 14  1  0  0  0  0
  9 15  1  0  0  0  0
  9 34  1  0  0  0  0
  9 35  1  0  0  0  0
 10 16  1  0  0  0  0
 10 17  1  0  0  0  0
 10 36  1  0  0  0  0
 11 12  1  0  0  0  0
 11 18  1  0  0  0  0
 12 19  1  0  0  0  0
 13 20  2  0  0  0  0
 13 37  1  0  0  0  0
 14 38  1  0  0  0  0
 14 39  1  0  0  0  0
 15 21  1  0  0  0  0
 15 40  1  0  0  0  0
 15 41  1  0  0  0  0
 16 14  1  0  0  0  0
 16 22  1  0  0  0  0
 16 42  1  0  0  0  0
 17 23  1  0  0  0  0
 17 24  1  0  0  0  0
 17 43  1  0  0  0  0
 18 23  1  0  0  0  0
 19 25  2  0  0  0  0
 20 25  1  0  0  0  0
 20 44  1  0  0  0  0
 21 26  1  0  0  0  0
 22 26  1  0  0  0  0
 22 27  2  0  0  0  0
 23 45  1  0  0  0  0
 23 46  1  0  0  0  0
 24 28  1  0  0  0  0
 25 47  1  0  0  0  0
 26 48  1  0  0  0  0
 26 49  1  0  0  0  0
 27 28  1  0  0  0  0
 27 50  1  0  0  0  0
 28 51  1  0  0  0  0
 28 52  1  0  0  0  0
M  END
>  <Mol_ID>
9868

>  <Formula>
C22H24N2O4

>  <MolWeight>
380.43696

>  <Cat>
E2610

>  <Name>
Vomicine

>  <Synonyms>
Strychnicine

>  <Target>
Inflammation, cGAS-STING-TBK1

>  <Form>
Free Base

>  <CAS>
125-15-5

>  <URL>
https://www.selleckchem.com/products/vomicine.html

$$$$
