Voriconazole.cdx
 OpenBabel08302519583D

 39 41  0  0  0  0  0  0  0  0999 V2000
    3.9413   -0.1109   -3.6815 C   0  0  0  0  0  0  0  0  0  0  0  0
    3.9580   -1.0945   -2.6654 C   0  0  0  0  0  0  0  0  0  0  0  0
    5.1355   -1.1875   -1.9008 C   0  0  0  0  0  0  0  0  0  0  0  0
    6.2220   -0.3398   -2.1008 C   0  0  0  0  0  0  0  0  0  0  0  0
    6.1672    0.6098   -3.1025 C   0  0  0  0  0  0  0  0  0  0  0  0
    5.0397    0.7283   -3.9040 C   0  0  0  0  0  0  0  0  0  0  0  0
    5.2630   -2.0916   -0.9210 F   0  0  0  0  0  0  0  0  0  0  0  0
    2.7213   -1.9995   -2.4619 C   0  0  1  0  0  0  0  0  0  0  0  0
    2.4886   -2.8723   -3.7375 C   0  0  0  0  0  0  0  0  0  0  0  0
    2.6815   -2.8269   -1.1181 C   0  0  2  0  0  0  0  0  0  0  0  0
    1.5188   -3.8078   -1.0159 C   0  0  0  0  0  0  0  0  0  0  0  0
    2.5914   -1.9323    0.1359 C   0  0  0  0  0  0  0  0  0  0  0  0
    7.2092    1.4266   -3.3006 F   0  0  0  0  0  0  0  0  0  0  0  0
    0.3036   -3.4027   -1.4755 N   0  0  0  0  0  0  0  0  0  0  0  0
   -0.7183   -4.2613   -1.2833 C   0  0  0  0  0  0  0  0  0  0  0  0
   -0.6445   -5.4608   -0.6844 N   0  0  0  0  0  0  0  0  0  0  0  0
    0.5782   -5.8125   -0.2322 C   0  0  0  0  0  0  0  0  0  0  0  0
    1.6920   -5.0218   -0.3734 C   0  0  0  0  0  0  0  0  0  0  0  0
    2.8739   -5.4031    0.1263 F   0  0  0  0  0  0  0  0  0  0  0  0
    1.6004   -1.0671   -2.4253 O   0  0  0  0  0  0  0  0  0  0  0  0
    3.4613   -3.8746   -4.0880 N   0  0  0  0  0  0  0  0  0  0  0  0
    3.4310   -4.6697   -5.1950 C   0  0  0  0  0  0  0  0  0  0  0  0
    4.4637   -5.4817   -5.1827 N   0  0  0  0  0  0  0  0  0  0  0  0
    5.1032   -5.1395   -4.0266 C   0  0  0  0  0  0  0  0  0  0  0  0
    4.5165   -4.1743   -3.3168 N   0  0  0  0  0  0  0  0  0  0  0  0
    3.0596    0.0193   -4.3064 H   0  0  0  0  0  0  0  0  0  0  0  0
    7.1016   -0.4274   -1.4723 H   0  0  0  0  0  0  0  0  0  0  0  0
    5.0177    1.4756   -4.6898 H   0  0  0  0  0  0  0  0  0  0  0  0
    1.5249   -3.3916   -3.6830 H   0  0  0  0  0  0  0  0  0  0  0  0
    2.3879   -2.2246   -4.6193 H   0  0  0  0  0  0  0  0  0  0  0  0
    3.5930   -3.4282   -1.0515 H   0  0  0  0  0  0  0  0  0  0  0  0
    2.7569   -2.5285    1.0409 H   0  0  0  0  0  0  0  0  0  0  0  0
    3.3335   -1.1317    0.1393 H   0  0  0  0  0  0  0  0  0  0  0  0
    1.6055   -1.4636    0.2337 H   0  0  0  0  0  0  0  0  0  0  0  0
   -1.6957   -3.9559   -1.6436 H   0  0  0  0  0  0  0  0  0  0  0  0
    0.6393   -6.7707    0.2759 H   0  0  0  0  0  0  0  0  0  0  0  0
    0.8255   -1.5771   -2.1078 H   0  0  0  0  0  0  0  0  0  0  0  0
    2.6589   -4.6202   -5.9503 H   0  0  0  0  0  0  0  0  0  0  0  0
    6.0176   -5.6121   -3.6908 H   0  0  0  0  0  0  0  0  0  0  0  0
  1  2  2  0  0  0  0
  1 26  1  0  0  0  0
  2  3  1  0  0  0  0
  2  8  1  0  0  0  0
  3  4  2  0  0  0  0
  3  7  1  0  0  0  0
  4  5  1  0  0  0  0
  4 27  1  0  0  0  0
  5  6  2  0  0  0  0
  5 13  1  0  0  0  0
  6  1  1  0  0  0  0
  6 28  1  0  0  0  0
  8  9  1  0  0  0  0
  8 20  1  1  0  0  0
  9 21  1  0  0  0  0
  9 29  1  0  0  0  0
  9 30  1  0  0  0  0
 10 12  1  0  0  0  0
 10 31  1  1  0  0  0
 10 11  1  0  0  0  0
 10  8  1  0  0  0  0
 11 14  2  0  0  0  0
 12 32  1  0  0  0  0
 12 33  1  0  0  0  0
 12 34  1  0  0  0  0
 14 15  1  0  0  0  0
 15 16  2  0  0  0  0
 15 35  1  0  0  0  0
 16 17  1  0  0  0  0
 17 18  2  0  0  0  0
 17 36  1  0  0  0  0
 18 11  1  0  0  0  0
 18 19  1  0  0  0  0
 20 37  1  0  0  0  0
 21 22  1  0  0  0  0
 22 23  2  0  0  0  0
 22 38  1  0  0  0  0
 23 24  1  0  0  0  0
 24 25  2  0  0  0  0
 24 39  1  0  0  0  0
 25 21  1  0  0  0  0
M  END
>  <Mol_ID>
259

>  <Formula>
C16H14F3N5O

>  <MolWeight>
349.3104696

>  <Cat>
S1442

>  <Name>
Voriconazole (UK-109496)

>  <Synonyms>
Vfend,UK-109496

>  <Target>
Fungal,P450 (e.g. CYP17)

>  <Form>
free base

>  <CAS>
137234-62-9

>  <URL>
http://selleckchem.com/products/Voriconazole.html

$$$$
