vorinostat.cdx
 OpenBabel08302519583D

 39 39  0  0  0  0  0  0  0  0999 V2000
    0.4893    9.0233    3.3180 C   0  0  0  0  0  0  0  0  0  0  0  0
    0.1927    9.9008    2.2819 C   0  0  0  0  0  0  0  0  0  0  0  0
   -0.0830    9.3974    1.0138 C   0  0  0  0  0  0  0  0  0  0  0  0
   -0.0099    8.0200    0.7751 C   0  0  0  0  0  0  0  0  0  0  0  0
    0.3530    7.1289    1.7903 C   0  0  0  0  0  0  0  0  0  0  0  0
    0.5540    7.6421    3.0792 C   0  0  0  0  0  0  0  0  0  0  0  0
    0.5710    5.7363    1.5845 N   0  0  0  0  0  0  0  0  0  0  0  0
    0.6920    5.1109    0.3620 C   0  0  0  0  0  0  0  0  0  0  0  0
    0.5222    5.6558   -0.7330 O   0  0  0  0  0  0  0  0  0  0  0  0
    0.9945    3.6152    0.3688 C   0  0  0  0  0  0  0  0  0  0  0  0
    2.0030    3.0858    1.3840 C   0  0  0  0  0  0  0  0  0  0  0  0
    2.3093    1.5868    1.1946 C   0  0  0  0  0  0  0  0  0  0  0  0
    2.9266    1.1674   -0.1481 C   0  0  0  0  0  0  0  0  0  0  0  0
    4.2471    1.8437   -0.5259 C   0  0  0  0  0  0  0  0  0  0  0  0
    5.4029    1.5022    0.4143 C   0  0  0  0  0  0  0  0  0  0  0  0
    6.6978    2.1651   -0.0150 C   0  0  0  0  0  0  0  0  0  0  0  0
    7.7656    1.8608    0.7995 N   0  0  0  0  0  0  0  0  0  0  0  0
    6.8121    2.9210   -0.9763 O   0  0  0  0  0  0  0  0  0  0  0  0
    9.0106    2.3881    0.3792 O   0  0  0  0  0  0  0  0  0  0  0  0
    0.6895    9.4124    4.3133 H   0  0  0  0  0  0  0  0  0  0  0  0
    0.1738   10.9752    2.4545 H   0  0  0  0  0  0  0  0  0  0  0  0
   -0.3399   10.0712    0.2015 H   0  0  0  0  0  0  0  0  0  0  0  0
   -0.2439    7.6795   -0.2288 H   0  0  0  0  0  0  0  0  0  0  0  0
    0.7982    6.9884    3.9093 H   0  0  0  0  0  0  0  0  0  0  0  0
    0.7821    5.1993    2.4141 H   0  0  0  0  0  0  0  0  0  0  0  0
    0.0428    3.0813    0.4544 H   0  0  0  0  0  0  0  0  0  0  0  0
    1.3912    3.4096   -0.6345 H   0  0  0  0  0  0  0  0  0  0  0  0
    2.9287    3.6695    1.3495 H   0  0  0  0  0  0  0  0  0  0  0  0
    1.5977    3.2110    2.3954 H   0  0  0  0  0  0  0  0  0  0  0  0
    2.9663    1.2581    2.0080 H   0  0  0  0  0  0  0  0  0  0  0  0
    1.3750    1.0239    1.3198 H   0  0  0  0  0  0  0  0  0  0  0  0
    3.0828    0.0808   -0.1286 H   0  0  0  0  0  0  0  0  0  0  0  0
    2.2026    1.3444   -0.9523 H   0  0  0  0  0  0  0  0  0  0  0  0
    4.5150    1.5218   -1.5403 H   0  0  0  0  0  0  0  0  0  0  0  0
    4.1123    2.9299   -0.5811 H   0  0  0  0  0  0  0  0  0  0  0  0
    5.1789    1.8374    1.4328 H   0  0  0  0  0  0  0  0  0  0  0  0
    5.5613    0.4177    0.4334 H   0  0  0  0  0  0  0  0  0  0  0  0
    7.8048    1.0056    1.3431 H   0  0  0  0  0  0  0  0  0  0  0  0
    8.7581    2.9267   -0.4041 H   0  0  0  0  0  0  0  0  0  0  0  0
  1  2  2  0  0  0  0
  1 20  1  0  0  0  0
  2  3  1  0  0  0  0
  2 21  1  0  0  0  0
  3  4  2  0  0  0  0
  3 22  1  0  0  0  0
  4  5  1  0  0  0  0
  4 23  1  0  0  0  0
  5  6  2  0  0  0  0
  5  7  1  0  0  0  0
  6  1  1  0  0  0  0
  6 24  1  0  0  0  0
  7  8  1  0  0  0  0
  7 25  1  0  0  0  0
  8  9  2  0  0  0  0
  8 10  1  0  0  0  0
 10 11  1  0  0  0  0
 10 26  1  0  0  0  0
 10 27  1  0  0  0  0
 11 12  1  0  0  0  0
 11 28  1  0  0  0  0
 11 29  1  0  0  0  0
 12 13  1  0  0  0  0
 12 30  1  0  0  0  0
 12 31  1  0  0  0  0
 13 14  1  0  0  0  0
 13 32  1  0  0  0  0
 13 33  1  0  0  0  0
 14 15  1  0  0  0  0
 14 34  1  0  0  0  0
 14 35  1  0  0  0  0
 15 16  1  0  0  0  0
 15 36  1  0  0  0  0
 15 37  1  0  0  0  0
 16 17  1  0  0  0  0
 16 18  2  0  0  0  0
 17 19  1  0  0  0  0
 17 38  1  0  0  0  0
 19 39  1  0  0  0  0
M  END
>  <Mol_ID>
30

>  <Formula>
C14H20N2O3

>  <MolWeight>
264.3202

>  <Cat>
S1047

>  <Name>
Vorinostat (SAHA)

>  <Synonyms>
SAHA,MK0683, Suberoylanilide hydroxamic acid, Zolinza

>  <Target>
Autophagy,HDAC,HPV

>  <Form>
free base

>  <CAS>
149647-78-9

>  <URL>
http://selleckchem.com/products/Vorinostat-saha.html

$$$$
