Voxtalisib (XL765, SAR245409).cdx
 OpenBabel08302519593D

 34 36  0  0  0  0  0  0  0  0999 V2000
    2.3863   -0.6503   -0.0542 N   0  0  0  0  0  0  0  0  0  0  0  0
    2.3095    0.6780   -0.1065 C   0  0  0  0  0  0  0  0  0  0  0  0
    1.1768    1.3741   -0.0519 N   0  0  0  0  0  0  0  0  0  0  0  0
    0.0248    0.6750   -0.0084 C   0  0  0  0  0  0  0  0  0  0  0  0
   -0.0117   -0.7121    0.0100 C   0  0  0  0  0  0  0  0  0  0  0  0
    1.2264   -1.3414   -0.0021 C   0  0  0  0  0  0  0  0  0  0  0  0
    1.3702   -2.8361    0.0157 C   0  0  0  0  0  0  0  0  0  0  0  0
   -1.1999    1.3939    0.0084 N   0  0  0  0  0  0  0  0  0  0  0  0
   -2.4324    0.7641    0.0727 C   0  0  0  0  0  0  0  0  0  0  0  0
   -2.4553   -0.7466   -0.0000 C   0  0  0  0  0  0  0  0  0  0  0  0
   -1.2924   -1.4147   -0.0058 C   0  0  0  0  0  0  0  0  0  0  0  0
   -3.4954    1.3837    0.1634 O   0  0  0  0  0  0  0  0  0  0  0  0
   -1.1575    2.8544   -0.0048 C   0  0  0  0  0  0  0  0  0  0  0  0
   -1.1395    3.4470    1.3962 C   0  0  0  0  0  0  0  0  0  0  0  0
    3.4898    1.3775   -0.2152 N   0  0  0  0  0  0  0  0  0  0  0  0
   -3.6812   -1.4746   -0.0999 C   0  0  0  0  0  0  0  0  0  0  0  0
   -4.0340   -2.8059   -0.2244 C   0  0  0  0  0  0  0  0  0  0  0  0
   -5.4373   -2.8128   -0.3256 C   0  0  0  0  0  0  0  0  0  0  0  0
   -5.9553   -1.5874   -0.2583 N   0  0  0  0  0  0  0  0  0  0  0  0
   -4.8783   -0.7947   -0.1146 N   0  0  0  0  0  0  0  0  0  0  0  0
    0.8994   -3.2570    0.9092 H   0  0  0  0  0  0  0  0  0  0  0  0
    0.9166   -3.2731   -0.8789 H   0  0  0  0  0  0  0  0  0  0  0  0
    2.4263   -3.1259    0.0291 H   0  0  0  0  0  0  0  0  0  0  0  0
   -1.2694   -2.4962   -0.0627 H   0  0  0  0  0  0  0  0  0  0  0  0
   -0.3008    3.2110   -0.5872 H   0  0  0  0  0  0  0  0  0  0  0  0
   -2.0474    3.2242   -0.5289 H   0  0  0  0  0  0  0  0  0  0  0  0
   -0.2458    3.1373    1.9466 H   0  0  0  0  0  0  0  0  0  0  0  0
   -1.1473    4.5404    1.3433 H   0  0  0  0  0  0  0  0  0  0  0  0
   -2.0150    3.1289    1.9719 H   0  0  0  0  0  0  0  0  0  0  0  0
    3.3886    2.3178    0.1371 H   0  0  0  0  0  0  0  0  0  0  0  0
    4.2640    0.8248    0.1237 H   0  0  0  0  0  0  0  0  0  0  0  0
   -3.3776   -3.6631   -0.2578 H   0  0  0  0  0  0  0  0  0  0  0  0
   -6.1018   -3.6583   -0.4497 H   0  0  0  0  0  0  0  0  0  0  0  0
   -5.0127    0.2134   -0.0401 H   0  0  0  0  0  0  0  0  0  0  0  0
  1  2  2  0  0  0  0
  2  3  1  0  0  0  0
  2 15  1  0  0  0  0
  3  4  2  0  0  0  0
  4  5  1  0  0  0  0
  4  8  1  0  0  0  0
  5  6  2  0  0  0  0
  6  1  1  0  0  0  0
  6  7  1  0  0  0  0
  7 21  1  0  0  0  0
  7 22  1  0  0  0  0
  7 23  1  0  0  0  0
  8  9  1  0  0  0  0
  8 13  1  0  0  0  0
  9 10  1  0  0  0  0
  9 12  2  0  0  0  0
 10 11  2  0  0  0  0
 10 16  1  0  0  0  0
 11  5  1  0  0  0  0
 11 24  1  0  0  0  0
 13 14  1  0  0  0  0
 13 25  1  0  0  0  0
 13 26  1  0  0  0  0
 14 27  1  0  0  0  0
 14 28  1  0  0  0  0
 14 29  1  0  0  0  0
 15 30  1  0  0  0  0
 15 31  1  0  0  0  0
 16 17  2  0  0  0  0
 17 18  1  0  0  0  0
 17 32  1  0  0  0  0
 18 19  2  0  0  0  0
 18 33  1  0  0  0  0
 19 20  1  0  0  0  0
 20 16  1  0  0  0  0
 20 34  1  0  0  0  0
M  END
>  <Mol_ID>
2639

>  <Formula>
C13H14N6O

>  <MolWeight>
270.28986

>  <Cat>
S7646

>  <Name>
Voxtalisib (XL765)

>  <Synonyms>
SAR245409

>  <Target>
mTOR,PI3K

>  <Form>
free base

>  <CAS>
934493-76-2

>  <URL>
http://selleckchem.com/products/voxtalisib-xl765-sar245409.html

$$$$
