VPS34 inhibitor 1.cdx
 OpenBabel08302520433D

 54 57  0  0  0  0  0  0  0  0999 V2000
    1.1201   -0.7795    0.4773 C   0  0  0  0  0  0  0  0  0  0  0  0
    1.3113    0.4437   -0.0558 N   0  0  0  0  0  0  0  0  0  0  0  0
    0.2406    1.0936   -0.5296 C   0  0  0  0  0  0  0  0  0  0  0  0
   -0.9948    0.5904   -0.5036 N   0  0  0  0  0  0  0  0  0  0  0  0
   -1.1762   -0.6407    0.0174 C   0  0  0  0  0  0  0  0  0  0  0  0
   -0.1159   -1.3610    0.5408 C   0  0  0  0  0  0  0  0  0  0  0  0
   -2.5417   -1.1930   -0.0250 C   0  0  0  0  0  0  0  0  0  0  0  0
    0.4186    2.3532   -1.1057 N   0  0  0  0  0  0  0  0  0  0  0  0
    1.4154    3.2779   -0.7849 C   0  0  0  0  0  0  0  0  0  0  0  0
    1.8526    4.2032   -1.7358 C   0  0  0  0  0  0  0  0  0  0  0  0
    2.9101    5.0386   -1.4085 C   0  0  0  0  0  0  0  0  0  0  0  0
    3.5384    5.0345   -0.2132 N   0  0  0  0  0  0  0  0  0  0  0  0
    3.0937    4.1442    0.6962 C   0  0  0  0  0  0  0  0  0  0  0  0
    2.0510    3.2694    0.4596 C   0  0  0  0  0  0  0  0  0  0  0  0
   -2.9784   -2.0604    0.9649 C   0  0  0  0  0  0  0  0  0  0  0  0
   -4.1554   -2.7101    0.9726 N   0  0  0  0  0  0  0  0  0  0  0  0
   -4.9955   -2.4445   -0.0229 C   0  0  0  0  0  0  0  0  0  0  0  0
   -4.7164   -1.5898   -1.0137 N   0  0  0  0  0  0  0  0  0  0  0  0
   -3.4922   -0.9711   -1.0242 C   0  0  0  0  0  0  0  0  0  0  0  0
   -3.2385   -0.0977   -2.2388 C   0  0  0  0  0  0  0  0  0  0  0  0
   -2.5150   -0.8411   -3.3340 C   0  0  0  0  0  0  0  0  0  0  0  0
   -6.2140   -3.0837   -0.0596 N   0  0  0  0  0  0  0  0  0  0  0  0
   -6.2840   -4.4919    0.3271 C   0  0  0  0  0  0  0  0  0  0  0  0
   -5.9018   -5.5017   -0.7971 C   0  0  0  0  0  0  0  0  0  0  0  0
   -4.5414   -5.3264   -1.2099 O   0  0  0  0  0  0  0  0  0  0  0  0
   -2.1789   -0.1032   -4.6096 C   0  0  0  0  0  0  0  0  0  0  0  0
   -3.2009   -1.2022   -4.6310 C   0  0  0  0  0  0  0  0  0  0  0  0
   -6.0087   -6.9334   -0.2491 C   0  0  0  0  0  0  0  0  0  0  0  0
   -6.7838   -5.3726   -2.0415 C   0  0  0  0  0  0  0  0  0  0  0  0
    2.0062   -1.2697    0.8463 H   0  0  0  0  0  0  0  0  0  0  0  0
   -0.2209   -2.3533    0.9607 H   0  0  0  0  0  0  0  0  0  0  0  0
   -0.4546    2.7215   -1.4740 H   0  0  0  0  0  0  0  0  0  0  0  0
    1.4215    4.2386   -2.7304 H   0  0  0  0  0  0  0  0  0  0  0  0
    3.3099    5.7425   -2.1294 H   0  0  0  0  0  0  0  0  0  0  0  0
    3.6136    4.1385    1.6490 H   0  0  0  0  0  0  0  0  0  0  0  0
    1.7518    2.5822    1.2390 H   0  0  0  0  0  0  0  0  0  0  0  0
   -2.3683   -2.2909    1.8342 H   0  0  0  0  0  0  0  0  0  0  0  0
   -4.1972    0.2887   -2.6055 H   0  0  0  0  0  0  0  0  0  0  0  0
   -2.6777    0.8039   -1.9818 H   0  0  0  0  0  0  0  0  0  0  0  0
   -1.7480   -1.5106   -2.9600 H   0  0  0  0  0  0  0  0  0  0  0  0
   -6.8062   -2.7460   -0.8046 H   0  0  0  0  0  0  0  0  0  0  0  0
   -5.6540   -4.6763    1.2062 H   0  0  0  0  0  0  0  0  0  0  0  0
   -7.3149   -4.6882    0.6437 H   0  0  0  0  0  0  0  0  0  0  0  0
   -4.4616   -4.4111   -1.5350 H   0  0  0  0  0  0  0  0  0  0  0  0
   -2.5313    0.9146   -4.7348 H   0  0  0  0  0  0  0  0  0  0  0  0
   -1.2148   -0.2941   -5.0679 H   0  0  0  0  0  0  0  0  0  0  0  0
   -2.9259   -2.1355   -5.1102 H   0  0  0  0  0  0  0  0  0  0  0  0
   -4.2364   -0.9193   -4.7828 H   0  0  0  0  0  0  0  0  0  0  0  0
   -7.0326   -7.1765    0.0540 H   0  0  0  0  0  0  0  0  0  0  0  0
   -5.6872   -7.6684   -0.9968 H   0  0  0  0  0  0  0  0  0  0  0  0
   -5.3503   -7.0714    0.6165 H   0  0  0  0  0  0  0  0  0  0  0  0
   -7.8420   -5.5254   -1.8070 H   0  0  0  0  0  0  0  0  0  0  0  0
   -6.6643   -4.3913   -2.5127 H   0  0  0  0  0  0  0  0  0  0  0  0
   -6.4904   -6.1082   -2.7999 H   0  0  0  0  0  0  0  0  0  0  0  0
  1  2  2  0  0  0  0
  1 30  1  0  0  0  0
  2  3  1  0  0  0  0
  3  4  2  0  0  0  0
  3  8  1  0  0  0  0
  4  5  1  0  0  0  0
  5  6  2  0  0  0  0
  5  7  1  0  0  0  0
  6  1  1  0  0  0  0
  6 31  1  0  0  0  0
  7 15  2  0  0  0  0
  8  9  1  0  0  0  0
  8 32  1  0  0  0  0
  9 10  2  0  0  0  0
 10 11  1  0  0  0  0
 10 33  1  0  0  0  0
 11 12  2  0  0  0  0
 11 34  1  0  0  0  0
 12 13  1  0  0  0  0
 13 14  2  0  0  0  0
 13 35  1  0  0  0  0
 14  9  1  0  0  0  0
 14 36  1  0  0  0  0
 15 16  1  0  0  0  0
 15 37  1  0  0  0  0
 16 17  2  0  0  0  0
 17 18  1  0  0  0  0
 17 22  1  0  0  0  0
 18 19  2  0  0  0  0
 19  7  1  0  0  0  0
 19 20  1  0  0  0  0
 20 21  1  0  0  0  0
 20 38  1  0  0  0  0
 20 39  1  0  0  0  0
 21 26  1  0  0  0  0
 21 40  1  0  0  0  0
 22 23  1  0  0  0  0
 22 41  1  0  0  0  0
 23 24  1  0  0  0  0
 23 42  1  0  0  0  0
 23 43  1  0  0  0  0
 24 25  1  0  0  0  0
 24 28  1  0  0  0  0
 24 29  1  0  0  0  0
 25 44  1  0  0  0  0
 26 27  1  0  0  0  0
 26 45  1  0  0  0  0
 26 46  1  0  0  0  0
 27 21  1  0  0  0  0
 27 47  1  0  0  0  0
 27 48  1  0  0  0  0
 28 49  1  0  0  0  0
 28 50  1  0  0  0  0
 28 51  1  0  0  0  0
 29 52  1  0  0  0  0
 29 53  1  0  0  0  0
 29 54  1  0  0  0  0
M  END
>  <Mol_ID>
4100

>  <Formula>
C21H25N7O

>  <MolWeight>
391.4695

>  <Cat>
S8456

>  <Name>
VPS34 inhibitor 1 (Compound 19)

>  <Synonyms>
PIK-III analogue

>  <Target>
PI3K

>  <Form>
free base

>  <CAS>
1383716-46-8

>  <URL>
http://selleckchem.com/products/vps34-inhibitor-1.html

$$$$
