VT103
 OpenBabel08302521353D

 45 47  0  0  0  0  0  0  0  0999 V2000
    0.9427   -0.0445   -0.1349 N   0  0  0  0  0  0  0  0  0  0  0  0
   -1.8253   -2.0551    4.7986 S   0  0  0  0  0  0  0  0  0  0  0  0
   -3.3785   -1.4355    4.5945 N   0  0  0  0  0  0  0  0  0  0  0  0
   -1.9223   -3.4889    4.6418 O   0  0  0  0  0  0  0  0  0  0  0  0
   -1.2473   -1.4452    5.9736 O   0  0  0  0  0  0  0  0  0  0  0  0
   -3.5777    0.0036    4.7228 C   0  0  0  0  0  0  0  0  0  0  0  0
    4.8499    2.1165    4.0937 C   0  0  0  0  0  0  0  0  0  0  0  0
   -1.7999    0.5722   -5.1497 C   0  0  0  0  0  0  0  0  0  0  0  0
   -3.0998    0.9635   -5.0194 F   0  0  0  0  0  0  0  0  0  0  0  0
   -1.2193    1.4847   -5.9769 F   0  0  0  0  0  0  0  0  0  0  0  0
   -1.8349   -0.5976   -5.8463 F   0  0  0  0  0  0  0  0  0  0  0  0
    0.7604   -0.0689    2.3506 C   0  0  0  0  0  0  0  0  0  0  0  0
    0.3144   -0.4806    1.0703 C   0  0  0  0  0  0  0  0  0  0  0  0
    0.0801   -0.5352    3.4936 C   0  0  0  0  0  0  0  0  0  0  0  0
   -0.7190   -1.4376    0.9850 C   0  0  0  0  0  0  0  0  0  0  0  0
   -0.9828   -1.4339    3.3669 C   0  0  0  0  0  0  0  0  0  0  0  0
   -1.3733   -1.9056    2.1173 C   0  0  0  0  0  0  0  0  0  0  0  0
    1.9083    0.8174    2.5096 C   0  0  0  0  0  0  0  0  0  0  0  0
    2.7559    0.8535    3.5988 C   0  0  0  0  0  0  0  0  0  0  0  0
    2.3361    1.7111    1.5480 N   0  0  0  0  0  0  0  0  0  0  0  0
    3.7112    1.7756    3.2799 N   0  0  0  0  0  0  0  0  0  0  0  0
    3.4090    2.2821    2.0502 C   0  0  0  0  0  0  0  0  0  0  0  0
    0.2652    0.1373   -1.3657 C   0  0  0  0  0  0  0  0  0  0  0  0
   -1.0467    0.6273   -1.4155 C   0  0  0  0  0  0  0  0  0  0  0  0
    0.9295   -0.1187   -2.5672 C   0  0  0  0  0  0  0  0  0  0  0  0
   -1.7201    0.7576   -2.6301 C   0  0  0  0  0  0  0  0  0  0  0  0
    0.2612    0.0171   -3.7906 C   0  0  0  0  0  0  0  0  0  0  0  0
   -1.0763    0.4434   -3.8328 C   0  0  0  0  0  0  0  0  0  0  0  0
    1.5444    0.7663    0.0717 H   0  0  0  0  0  0  0  0  0  0  0  0
   -3.9014   -1.9144    3.8611 H   0  0  0  0  0  0  0  0  0  0  0  0
   -3.0811    0.5452    3.9148 H   0  0  0  0  0  0  0  0  0  0  0  0
   -4.6493    0.2160    4.6611 H   0  0  0  0  0  0  0  0  0  0  0  0
   -3.2217    0.3609    5.6921 H   0  0  0  0  0  0  0  0  0  0  0  0
    4.4936    2.4337    5.0772 H   0  0  0  0  0  0  0  0  0  0  0  0
    5.4801    1.2278    4.1869 H   0  0  0  0  0  0  0  0  0  0  0  0
    5.4133    2.9247    3.6221 H   0  0  0  0  0  0  0  0  0  0  0  0
    0.3797   -0.2019    4.4852 H   0  0  0  0  0  0  0  0  0  0  0  0
   -1.0148   -1.8308    0.0141 H   0  0  0  0  0  0  0  0  0  0  0  0
   -2.1679   -2.6398    2.0134 H   0  0  0  0  0  0  0  0  0  0  0  0
    2.7797    0.2979    4.5261 H   0  0  0  0  0  0  0  0  0  0  0  0
    4.0037    3.0449    1.5631 H   0  0  0  0  0  0  0  0  0  0  0  0
   -1.5653    0.8914   -0.4969 H   0  0  0  0  0  0  0  0  0  0  0  0
    1.9591   -0.4690   -2.5517 H   0  0  0  0  0  0  0  0  0  0  0  0
   -2.7530    1.1011   -2.6267 H   0  0  0  0  0  0  0  0  0  0  0  0
    0.7870   -0.2236   -4.7134 H   0  0  0  0  0  0  0  0  0  0  0  0
  1 13  1  0  0  0  0
  1 23  1  0  0  0  0
  1 29  1  0  0  0  0
  2  3  1  0  0  0  0
  2  4  2  0  0  0  0
  2  5  2  0  0  0  0
  2 16  1  0  0  0  0
  3  6  1  0  0  0  0
  3 30  1  0  0  0  0
  6 31  1  0  0  0  0
  6 32  1  0  0  0  0
  6 33  1  0  0  0  0
  7 21  1  0  0  0  0
  7 34  1  0  0  0  0
  7 35  1  0  0  0  0
  7 36  1  0  0  0  0
  8  9  1  0  0  0  0
  8 10  1  0  0  0  0
  8 11  1  0  0  0  0
  8 28  1  0  0  0  0
 12 13  1  0  0  0  0
 12 14  2  0  0  0  0
 12 18  1  0  0  0  0
 13 15  2  0  0  0  0
 14 16  1  0  0  0  0
 14 37  1  0  0  0  0
 15 17  1  0  0  0  0
 15 38  1  0  0  0  0
 16 17  2  0  0  0  0
 17 39  1  0  0  0  0
 18 19  2  0  0  0  0
 18 20  1  0  0  0  0
 19 21  1  0  0  0  0
 19 40  1  0  0  0  0
 20 22  2  0  0  0  0
 21 22  1  0  0  0  0
 22 41  1  0  0  0  0
 23 24  2  0  0  0  0
 23 25  1  0  0  0  0
 24 26  1  0  0  0  0
 24 42  1  0  0  0  0
 25 27  2  0  0  0  0
 25 43  1  0  0  0  0
 26 28  2  0  0  0  0
 26 44  1  0  0  0  0
 27 28  1  0  0  0  0
 27 45  1  0  0  0  0
M  END
>  <Mol_ID>
6952

>  <Formula>
C18H17F3N4O2S

>  <MolWeight>
410.4133896

>  <Cat>
E1598

>  <Name>
VT103

>  <Target>
TEAD

>  <Form>
free base

>  <CAS>
2290608-13-6

>  <URL>
https://www.selleckchem.com/products/vt103.html

$$$$
