VU0071063
 OpenBabel08302521323D

 46 48  0  0  0  0  0  0  0  0999 V2000
    1.5008   -1.0801    0.0275 N   0  0  0  0  0  0  0  0  0  0  0  0
    2.1385    0.0551    0.4641 C   0  0  0  0  0  0  0  0  0  0  0  0
    1.3767    1.1246    0.3375 N   0  0  0  0  0  0  0  0  0  0  0  0
    0.2103    0.6489   -0.1788 C   0  0  0  0  0  0  0  0  0  0  0  0
   -0.9072    1.3955   -0.4720 N   0  0  0  0  0  0  0  0  0  0  0  0
   -2.0464    0.7572   -0.9665 C   0  0  0  0  0  0  0  0  0  0  0  0
   -1.9765   -0.6395   -1.1347 N   0  0  0  0  0  0  0  0  0  0  0  0
   -0.8603   -1.4395   -0.8627 C   0  0  0  0  0  0  0  0  0  0  0  0
    0.2458   -0.6993   -0.3661 C   0  0  0  0  0  0  0  0  0  0  0  0
   -3.0727    1.3862   -1.2396 O   0  0  0  0  0  0  0  0  0  0  0  0
   -0.8436   -2.6561   -1.0253 O   0  0  0  0  0  0  0  0  0  0  0  0
   -0.8989    2.8333   -0.2672 C   0  0  0  0  0  0  0  0  0  0  0  0
   -3.1493   -1.3388   -1.6190 C   0  0  0  0  0  0  0  0  0  0  0  0
    2.0461   -2.4256    0.0823 C   0  0  0  0  0  0  0  0  0  0  0  0
    2.8589   -2.7533   -1.1433 C   0  0  0  0  0  0  0  0  0  0  0  0
    4.2243   -2.4614   -1.1806 C   0  0  0  0  0  0  0  0  0  0  0  0
    4.9882   -2.7536   -2.3152 C   0  0  0  0  0  0  0  0  0  0  0  0
    4.4205   -3.3453   -3.4553 C   0  0  0  0  0  0  0  0  0  0  0  0
    3.0468   -3.6378   -3.4050 C   0  0  0  0  0  0  0  0  0  0  0  0
    2.2776   -3.3462   -2.2692 C   0  0  0  0  0  0  0  0  0  0  0  0
    5.2543   -3.6773   -4.7088 C   0  0  0  0  0  0  0  0  0  0  0  0
    6.7421   -3.2807   -4.5643 C   0  0  0  0  0  0  0  0  0  0  0  0
    5.2033   -5.1944   -4.9906 C   0  0  0  0  0  0  0  0  0  0  0  0
    4.7037   -2.9293   -5.9421 C   0  0  0  0  0  0  0  0  0  0  0  0
    3.1431    0.0447    0.8627 H   0  0  0  0  0  0  0  0  0  0  0  0
   -0.6821    3.0457    0.7847 H   0  0  0  0  0  0  0  0  0  0  0  0
   -0.1245    3.2791   -0.8995 H   0  0  0  0  0  0  0  0  0  0  0  0
   -1.8599    3.2876   -0.5218 H   0  0  0  0  0  0  0  0  0  0  0  0
   -2.8930   -1.8631   -2.5457 H   0  0  0  0  0  0  0  0  0  0  0  0
   -3.4462   -2.0845   -0.8746 H   0  0  0  0  0  0  0  0  0  0  0  0
   -3.9947   -0.6740   -1.8090 H   0  0  0  0  0  0  0  0  0  0  0  0
    2.6694   -2.4892    0.9837 H   0  0  0  0  0  0  0  0  0  0  0  0
    1.2306   -3.1409    0.2275 H   0  0  0  0  0  0  0  0  0  0  0  0
    4.7185   -2.0061   -0.3245 H   0  0  0  0  0  0  0  0  0  0  0  0
    6.0444   -2.5017   -2.2714 H   0  0  0  0  0  0  0  0  0  0  0  0
    2.5490   -4.1038   -4.2532 H   0  0  0  0  0  0  0  0  0  0  0  0
    1.2181   -3.5967   -2.2763 H   0  0  0  0  0  0  0  0  0  0  0  0
    7.2219   -3.8194   -3.7384 H   0  0  0  0  0  0  0  0  0  0  0  0
    7.3099   -3.5094   -5.4729 H   0  0  0  0  0  0  0  0  0  0  0  0
    6.8522   -2.2052   -4.3785 H   0  0  0  0  0  0  0  0  0  0  0  0
    4.1814   -5.5477   -5.1681 H   0  0  0  0  0  0  0  0  0  0  0  0
    5.7883   -5.4484   -5.8830 H   0  0  0  0  0  0  0  0  0  0  0  0
    5.6100   -5.7687   -4.1508 H   0  0  0  0  0  0  0  0  0  0  0  0
    3.6702   -3.2106   -6.1711 H   0  0  0  0  0  0  0  0  0  0  0  0
    4.7282   -1.8438   -5.7934 H   0  0  0  0  0  0  0  0  0  0  0  0
    5.3015   -3.1545   -6.8342 H   0  0  0  0  0  0  0  0  0  0  0  0
  1  2  1  0  0  0  0
  1  9  1  0  0  0  0
  1 14  1  0  0  0  0
  2  3  2  0  0  0  0
  2 25  1  0  0  0  0
  3  4  1  0  0  0  0
  4  5  1  0  0  0  0
  4  9  2  0  0  0  0
  5  6  1  0  0  0  0
  5 12  1  0  0  0  0
  6  7  1  0  0  0  0
  6 10  2  0  0  0  0
  7  8  1  0  0  0  0
  7 13  1  0  0  0  0
  8  9  1  0  0  0  0
  8 11  2  0  0  0  0
 12 26  1  0  0  0  0
 12 27  1  0  0  0  0
 12 28  1  0  0  0  0
 13 29  1  0  0  0  0
 13 30  1  0  0  0  0
 13 31  1  0  0  0  0
 14 15  1  0  0  0  0
 14 32  1  0  0  0  0
 14 33  1  0  0  0  0
 15 16  2  0  0  0  0
 15 20  1  0  0  0  0
 16 17  1  0  0  0  0
 16 34  1  0  0  0  0
 17 18  2  0  0  0  0
 17 35  1  0  0  0  0
 18 19  1  0  0  0  0
 18 21  1  0  0  0  0
 19 20  2  0  0  0  0
 19 36  1  0  0  0  0
 20 37  1  0  0  0  0
 21 22  1  0  0  0  0
 21 23  1  0  0  0  0
 21 24  1  0  0  0  0
 22 38  1  0  0  0  0
 22 39  1  0  0  0  0
 22 40  1  0  0  0  0
 23 41  1  0  0  0  0
 23 42  1  0  0  0  0
 23 43  1  0  0  0  0
 24 44  1  0  0  0  0
 24 45  1  0  0  0  0
 24 46  1  0  0  0  0
M  END
>  <Mol_ID>
6243

>  <Formula>
C18H22N4O2

>  <MolWeight>
326.39288

>  <Cat>
S6978

>  <Name>
VU0071063

>  <Synonyms>
N/A

>  <Target>
Potassium Channel

>  <Form>
free base

>  <CAS>
333415-38-6

>  <URL>
http://www.selleckchem.com/products/vu0071063.html

$$$$
