VU0119498
 OpenBabel08302521283D

 29 31  0  0  0  0  0  0  0  0999 V2000
   -0.8071   -2.7835   -0.9539 Br  0  0  0  0  0  0  0  0  0  0  0  0
    4.4270    2.9087   -0.8629 O   0  0  0  0  0  0  0  0  0  0  0  0
    6.1430    3.2844   -3.2705 O   0  0  0  0  0  0  0  0  0  0  0  0
    5.2127    0.7035   -1.0845 N   0  0  0  0  0  0  0  0  0  0  0  0
    6.1028    0.0629   -1.9653 C   0  0  0  0  0  0  0  0  0  0  0  0
    4.5930    0.1015    0.0730 C   0  0  0  0  0  0  0  0  0  0  0  0
    6.5891    0.9583   -2.9195 C   0  0  0  0  0  0  0  0  0  0  0  0
    5.0770    2.0443   -1.4117 C   0  0  0  0  0  0  0  0  0  0  0  0
    3.2920   -0.6091   -0.2257 C   0  0  0  0  0  0  0  0  0  0  0  0
    5.9739    2.2576   -2.6548 C   0  0  0  0  0  0  0  0  0  0  0  0
    6.5358   -1.2491   -1.9668 C   0  0  0  0  0  0  0  0  0  0  0  0
    7.5114    0.6100   -3.8876 C   0  0  0  0  0  0  0  0  0  0  0  0
    7.4740   -1.6309   -2.9368 C   0  0  0  0  0  0  0  0  0  0  0  0
    3.1490   -1.9780    0.0489 C   0  0  0  0  0  0  0  0  0  0  0  0
    2.1826    0.0986   -0.7172 C   0  0  0  0  0  0  0  0  0  0  0  0
    7.9597   -0.7111   -3.8867 C   0  0  0  0  0  0  0  0  0  0  0  0
    1.9296   -2.6259   -0.1703 C   0  0  0  0  0  0  0  0  0  0  0  0
    0.9642   -0.5490   -0.9395 C   0  0  0  0  0  0  0  0  0  0  0  0
    0.8434   -1.9083   -0.6654 C   0  0  0  0  0  0  0  0  0  0  0  0
    4.3865    0.8855    0.8124 H   0  0  0  0  0  0  0  0  0  0  0  0
    5.3128   -0.5779    0.5441 H   0  0  0  0  0  0  0  0  0  0  0  0
    6.1775   -1.9762   -1.2472 H   0  0  0  0  0  0  0  0  0  0  0  0
    7.8760    1.3369   -4.6062 H   0  0  0  0  0  0  0  0  0  0  0  0
    7.8403   -2.6564   -2.9569 H   0  0  0  0  0  0  0  0  0  0  0  0
    3.9805   -2.5516    0.4528 H   0  0  0  0  0  0  0  0  0  0  0  0
    2.2529    1.1678   -0.9129 H   0  0  0  0  0  0  0  0  0  0  0  0
    8.6931   -1.0326   -4.6232 H   0  0  0  0  0  0  0  0  0  0  0  0
    1.8345   -3.6845    0.0574 H   0  0  0  0  0  0  0  0  0  0  0  0
    0.1162    0.0195   -1.3142 H   0  0  0  0  0  0  0  0  0  0  0  0
  1 19  1  0  0  0  0
  2  8  2  0  0  0  0
  3 10  2  0  0  0  0
  4  5  1  0  0  0  0
  4  6  1  0  0  0  0
  4  8  1  0  0  0  0
  5  7  2  0  0  0  0
  5 11  1  0  0  0  0
  6  9  1  0  0  0  0
  6 20  1  0  0  0  0
  6 21  1  0  0  0  0
  7 10  1  0  0  0  0
  7 12  1  0  0  0  0
  8 10  1  0  0  0  0
  9 14  2  0  0  0  0
  9 15  1  0  0  0  0
 11 13  2  0  0  0  0
 11 22  1  0  0  0  0
 12 16  2  0  0  0  0
 12 23  1  0  0  0  0
 13 16  1  0  0  0  0
 13 24  1  0  0  0  0
 14 17  1  0  0  0  0
 14 25  1  0  0  0  0
 15 18  2  0  0  0  0
 15 26  1  0  0  0  0
 16 27  1  0  0  0  0
 17 19  2  0  0  0  0
 17 28  1  0  0  0  0
 18 19  1  0  0  0  0
 18 29  1  0  0  0  0
M  END
>  <Mol_ID>
5396

>  <Formula>
C15H10BrNO2

>  <MolWeight>
316.1494

>  <Cat>
S0783

>  <Name>
VU0119498

>  <Synonyms>
N/A

>  <Target>
AChR

>  <Form>
Free Base

>  <CAS>
79183-37-2

>  <URL>
https://www.selleckchem.com/products/vu0119498.html

$$$$
