VU0238429
 OpenBabel08302521243D

 37 39  0  0  0  0  0  0  0  0999 V2000
    0.7061   -1.4589   -0.0795 N   0  0  0  0  0  0  0  0  0  0  0  0
    1.7476   -0.5752    0.1546 C   0  0  0  0  0  0  0  0  0  0  0  0
    1.0966    0.8246    0.2054 C   0  0  0  0  0  0  0  0  0  0  0  0
   -0.3381    0.5907    0.0332 C   0  0  0  0  0  0  0  0  0  0  0  0
   -1.3748    1.5045    0.0799 C   0  0  0  0  0  0  0  0  0  0  0  0
   -2.6652    0.9981   -0.0410 C   0  0  0  0  0  0  0  0  0  0  0  0
   -2.8603   -0.3669   -0.3465 C   0  0  0  0  0  0  0  0  0  0  0  0
   -1.7857   -1.2692   -0.4080 C   0  0  0  0  0  0  0  0  0  0  0  0
   -0.5192   -0.7766   -0.1655 C   0  0  0  0  0  0  0  0  0  0  0  0
    2.9304   -0.7991    0.3062 O   0  0  0  0  0  0  0  0  0  0  0  0
    1.6434    1.8916    0.3428 O   0  0  0  0  0  0  0  0  0  0  0  0
   -3.7941    1.7559    0.0467 O   0  0  0  0  0  0  0  0  0  0  0  0
   -3.8741    2.7179    1.1004 C   0  0  0  0  0  0  0  0  0  0  0  0
   -2.7349    2.8657    1.8084 F   0  0  0  0  0  0  0  0  0  0  0  0
   -4.2060    3.9145    0.5703 F   0  0  0  0  0  0  0  0  0  0  0  0
   -4.8515    2.3492    1.9581 F   0  0  0  0  0  0  0  0  0  0  0  0
    0.8813   -2.8902   -0.1328 C   0  0  0  0  0  0  0  0  0  0  0  0
    0.6413   -3.6002    1.1836 C   0  0  0  0  0  0  0  0  0  0  0  0
   -0.3715   -4.5660    1.2871 C   0  0  0  0  0  0  0  0  0  0  0  0
   -0.5250   -5.3268    2.4525 C   0  0  0  0  0  0  0  0  0  0  0  0
    0.3228   -5.1308    3.5397 C   0  0  0  0  0  0  0  0  0  0  0  0
    1.3092   -4.1442    3.4608 C   0  0  0  0  0  0  0  0  0  0  0  0
    1.4712   -3.3873    2.2928 C   0  0  0  0  0  0  0  0  0  0  0  0
    0.2932   -5.8327    4.7139 O   0  0  0  0  0  0  0  0  0  0  0  0
   -0.6302   -6.9136    4.7912 C   0  0  0  0  0  0  0  0  0  0  0  0
   -1.1586    2.5565    0.2298 H   0  0  0  0  0  0  0  0  0  0  0  0
   -3.8714   -0.7352   -0.5184 H   0  0  0  0  0  0  0  0  0  0  0  0
   -1.9672   -2.3137   -0.6321 H   0  0  0  0  0  0  0  0  0  0  0  0
    0.2330   -3.2943   -0.9188 H   0  0  0  0  0  0  0  0  0  0  0  0
    1.9107   -3.1082   -0.4448 H   0  0  0  0  0  0  0  0  0  0  0  0
   -1.0355   -4.7591    0.4486 H   0  0  0  0  0  0  0  0  0  0  0  0
   -1.3085   -6.0767    2.4684 H   0  0  0  0  0  0  0  0  0  0  0  0
    1.9741   -3.9786    4.3045 H   0  0  0  0  0  0  0  0  0  0  0  0
    2.2743   -2.6527    2.2546 H   0  0  0  0  0  0  0  0  0  0  0  0
   -1.6611   -6.5574    4.6959 H   0  0  0  0  0  0  0  0  0  0  0  0
   -0.4064   -7.6801    4.0412 H   0  0  0  0  0  0  0  0  0  0  0  0
   -0.5303   -7.3748    5.7786 H   0  0  0  0  0  0  0  0  0  0  0  0
  1  2  1  0  0  0  0
  1  9  1  0  0  0  0
  1 17  1  0  0  0  0
  2  3  1  0  0  0  0
  2 10  2  0  0  0  0
  3  4  1  0  0  0  0
  3 11  2  0  0  0  0
  4  5  1  0  0  0  0
  4  9  2  0  0  0  0
  5  6  2  0  0  0  0
  5 26  1  0  0  0  0
  6  7  1  0  0  0  0
  6 12  1  0  0  0  0
  7  8  2  0  0  0  0
  7 27  1  0  0  0  0
  8  9  1  0  0  0  0
  8 28  1  0  0  0  0
 12 13  1  0  0  0  0
 13 14  1  0  0  0  0
 13 15  1  0  0  0  0
 13 16  1  0  0  0  0
 17 18  1  0  0  0  0
 17 29  1  0  0  0  0
 17 30  1  0  0  0  0
 18 19  2  0  0  0  0
 18 23  1  0  0  0  0
 19 20  1  0  0  0  0
 19 31  1  0  0  0  0
 20 21  2  0  0  0  0
 20 32  1  0  0  0  0
 21 22  1  0  0  0  0
 21 24  1  0  0  0  0
 22 23  2  0  0  0  0
 22 33  1  0  0  0  0
 23 34  1  0  0  0  0
 24 25  1  0  0  0  0
 25 35  1  0  0  0  0
 25 36  1  0  0  0  0
 25 37  1  0  0  0  0
M  END
>  <Mol_ID>
4915

>  <Formula>
C17H12F3NO4

>  <MolWeight>
351.2766896

>  <Cat>
S2646

>  <Name>
VU0238429

>  <Synonyms>
M5 PAM

>  <Target>
AChR

>  <Form>
Free Base

>  <CAS>
1160247-92-6

>  <URL>
http://www.selleckchem.com/products/vu0238429.html

$$$$
