VU0357017 Hydrochloride
 OpenBabel08302521243D

 51 52  0  0  0  0  0  0  0  0999 V2000
    0.5169    1.4373   -1.8967 N   0  0  0  0  0  0  0  0  0  0  0  0
   -0.2754    0.3743   -2.4858 C   0  0  0  0  0  0  0  0  0  0  0  0
   -1.5985    0.2244   -1.7496 C   0  0  0  0  0  0  0  0  0  0  0  0
   -1.3971    0.0184   -0.2391 C   0  0  0  0  0  0  0  0  0  0  0  0
   -0.4434    1.1002    0.3370 C   0  0  0  0  0  0  0  0  0  0  0  0
    0.8411    1.2508   -0.4894 C   0  0  0  0  0  0  0  0  0  0  0  0
    0.7300    2.6164   -2.5922 C   0  0  0  0  0  0  0  0  0  0  0  0
    0.2738    2.8430   -3.7097 O   0  0  0  0  0  0  0  0  0  0  0  0
    1.5173    3.4848   -1.9159 O   0  0  0  0  0  0  0  0  0  0  0  0
   -2.6906    0.0468    0.4696 N   0  0  0  0  0  0  0  0  0  0  0  0
   -3.6889   -0.9517    0.0437 C   0  0  0  0  0  0  0  0  0  0  0  0
   -3.3491   -2.4431    0.2439 C   0  0  0  0  0  0  0  0  0  0  0  0
   -4.5072   -3.8888   -1.4388 C   0  0  0  0  0  0  0  0  0  0  0  0
   -5.6441   -4.8433   -1.7186 C   0  0  0  0  0  0  0  0  0  0  0  0
   -6.2526   -4.9891   -2.9885 C   0  0  0  0  0  0  0  0  0  0  0  0
   -7.2894   -5.9366   -3.1550 C   0  0  0  0  0  0  0  0  0  0  0  0
   -7.6586   -6.7939   -2.1232 C   0  0  0  0  0  0  0  0  0  0  0  0
   -7.0178   -6.6980   -0.8945 C   0  0  0  0  0  0  0  0  0  0  0  0
   -6.0357   -5.7212   -0.6872 C   0  0  0  0  0  0  0  0  0  0  0  0
   -3.6521   -3.6539   -2.2849 O   0  0  0  0  0  0  0  0  0  0  0  0
   -4.4496   -3.3223   -0.1734 N   0  0  0  0  0  0  0  0  0  0  0  0
   -5.8826   -4.2072   -4.2195 C   0  0  0  0  0  0  0  0  0  0  0  0
    1.8048    4.7345   -2.5730 C   0  0  0  0  0  0  0  0  0  0  0  0
    2.9044    4.5629   -3.6062 C   0  0  0  0  0  0  0  0  0  0  0  0
    0.3069   -0.5513   -2.4133 H   0  0  0  0  0  0  0  0  0  0  0  0
   -0.4622    0.5619   -3.5482 H   0  0  0  0  0  0  0  0  0  0  0  0
   -2.1348   -0.6276   -2.1816 H   0  0  0  0  0  0  0  0  0  0  0  0
   -2.2105    1.1203   -1.9197 H   0  0  0  0  0  0  0  0  0  0  0  0
   -0.9174   -0.9526   -0.0648 H   0  0  0  0  0  0  0  0  0  0  0  0
   -0.9542    2.0710    0.3651 H   0  0  0  0  0  0  0  0  0  0  0  0
   -0.1671    0.8519    1.3688 H   0  0  0  0  0  0  0  0  0  0  0  0
    1.4355    2.0838   -0.1004 H   0  0  0  0  0  0  0  0  0  0  0  0
    1.4598    0.3496   -0.4145 H   0  0  0  0  0  0  0  0  0  0  0  0
   -2.5599    0.0259    1.4787 H   0  0  0  0  0  0  0  0  0  0  0  0
   -4.5971   -0.7474    0.6251 H   0  0  0  0  0  0  0  0  0  0  0  0
   -3.9875   -0.7783   -0.9961 H   0  0  0  0  0  0  0  0  0  0  0  0
   -2.4431   -2.7173   -0.3078 H   0  0  0  0  0  0  0  0  0  0  0  0
   -3.1651   -2.6408    1.3065 H   0  0  0  0  0  0  0  0  0  0  0  0
   -7.7888   -6.0352   -4.1190 H   0  0  0  0  0  0  0  0  0  0  0  0
   -8.4210   -7.5515   -2.2916 H   0  0  0  0  0  0  0  0  0  0  0  0
   -7.2662   -7.4030   -0.1037 H   0  0  0  0  0  0  0  0  0  0  0  0
   -5.5329   -5.6977    0.2766 H   0  0  0  0  0  0  0  0  0  0  0  0
   -5.2792   -3.3489    0.4066 H   0  0  0  0  0  0  0  0  0  0  0  0
   -5.8569   -4.8833   -5.0839 H   0  0  0  0  0  0  0  0  0  0  0  0
   -6.6228   -3.4255   -4.4147 H   0  0  0  0  0  0  0  0  0  0  0  0
   -4.8953   -3.7530   -4.1735 H   0  0  0  0  0  0  0  0  0  0  0  0
    0.8966    5.1612   -3.0099 H   0  0  0  0  0  0  0  0  0  0  0  0
    2.1478    5.4309   -1.7957 H   0  0  0  0  0  0  0  0  0  0  0  0
    2.5925    3.8873   -4.4080 H   0  0  0  0  0  0  0  0  0  0  0  0
    3.1701    5.5259   -4.0512 H   0  0  0  0  0  0  0  0  0  0  0  0
    3.7985    4.1244   -3.1509 H   0  0  0  0  0  0  0  0  0  0  0  0
  1  2  1  0  0  0  0
  1  6  1  0  0  0  0
  1  7  1  0  0  0  0
  2  3  1  0  0  0  0
  2 25  1  0  0  0  0
  2 26  1  0  0  0  0
  3  4  1  0  0  0  0
  3 27  1  0  0  0  0
  3 28  1  0  0  0  0
  4  5  1  0  0  0  0
  4 10  1  0  0  0  0
  4 29  1  0  0  0  0
  5  6  1  0  0  0  0
  5 30  1  0  0  0  0
  5 31  1  0  0  0  0
  6 32  1  0  0  0  0
  6 33  1  0  0  0  0
  7  8  2  0  0  0  0
  7  9  1  0  0  0  0
  9 23  1  0  0  0  0
 10 11  1  0  0  0  0
 10 34  1  0  0  0  0
 11 12  1  0  0  0  0
 11 35  1  0  0  0  0
 11 36  1  0  0  0  0
 12 21  1  0  0  0  0
 12 37  1  0  0  0  0
 12 38  1  0  0  0  0
 13 14  1  0  0  0  0
 13 20  2  0  0  0  0
 13 21  1  0  0  0  0
 14 15  2  0  0  0  0
 14 19  1  0  0  0  0
 15 16  1  0  0  0  0
 15 22  1  0  0  0  0
 16 17  2  0  0  0  0
 16 39  1  0  0  0  0
 17 18  1  0  0  0  0
 17 40  1  0  0  0  0
 18 19  2  0  0  0  0
 18 41  1  0  0  0  0
 19 42  1  0  0  0  0
 21 43  1  0  0  0  0
 22 44  1  0  0  0  0
 22 45  1  0  0  0  0
 22 46  1  0  0  0  0
 23 24  1  0  0  0  0
 23 47  1  0  0  0  0
 23 48  1  0  0  0  0
 24 49  1  0  0  0  0
 24 50  1  0  0  0  0
 24 51  1  0  0  0  0
M  END
>  <Mol_ID>
4938

>  <Formula>
C18H28ClN3O3

>  <MolWeight>
369.88622

>  <Cat>
S6795

>  <Name>
VU0357017 Hydrochloride

>  <Synonyms>
CID-25010775

>  <Target>
AChR

>  <Form>
Hydrochloride

>  <CAS>
1135242-13-5

>  <URL>
http://www.selleckchem.com/products/vu0357017-hydrochloride.html

$$$$
