VU 0364770.cdx
 OpenBabel08302522003D

 25 26  0  0  0  0  0  0  0  0999 V2000
   -2.8530    2.2426    0.2573 C   0  0  0  0  0  0  0  0  0  0  0  0
   -3.4934    1.0067    0.2349 C   0  0  0  0  0  0  0  0  0  0  0  0
   -4.8737    0.9709    0.3866 C   0  0  0  0  0  0  0  0  0  0  0  0
   -5.5629    2.1644    0.5662 C   0  0  0  0  0  0  0  0  0  0  0  0
   -4.8381    3.3499    0.6016 C   0  0  0  0  0  0  0  0  0  0  0  0
   -3.4951    3.4278    0.4532 N   0  0  0  0  0  0  0  0  0  0  0  0
   -1.3765    2.2900    0.0161 C   0  0  0  0  0  0  0  0  0  0  0  0
   -0.7845    1.2333   -0.1939 O   0  0  0  0  0  0  0  0  0  0  0  0
   -0.8086    3.5503    0.0825 N   0  0  0  0  0  0  0  0  0  0  0  0
    0.5579    3.8516   -0.0976 C   0  0  0  0  0  0  0  0  0  0  0  0
    1.4624    2.9564   -0.6798 C   0  0  0  0  0  0  0  0  0  0  0  0
    2.8228    3.2626   -0.7635 C   0  0  0  0  0  0  0  0  0  0  0  0
    3.2932    4.4743   -0.2719 C   0  0  0  0  0  0  0  0  0  0  0  0
    2.3958    5.3953    0.2673 C   0  0  0  0  0  0  0  0  0  0  0  0
    1.0305    5.0929    0.3399 C   0  0  0  0  0  0  0  0  0  0  0  0
   -2.9283    0.0906    0.0887 H   0  0  0  0  0  0  0  0  0  0  0  0
   -5.4019    0.0219    0.3547 H   0  0  0  0  0  0  0  0  0  0  0  0
   -6.6425    2.1689    0.6735 H   0  0  0  0  0  0  0  0  0  0  0  0
   -5.3466    4.2998    0.7495 H   0  0  0  0  0  0  0  0  0  0  0  0
   -1.4349    4.2904    0.3910 H   0  0  0  0  0  0  0  0  0  0  0  0
    1.1340    2.0069   -1.0894 H   0  0  0  0  0  0  0  0  0  0  0  0
    3.5085    2.5428   -1.2037 H   0  0  0  0  0  0  0  0  0  0  0  0
    4.3559    4.6986   -0.3093 H   0  0  0  0  0  0  0  0  0  0  0  0
    2.7632    6.3452    0.6460 H   0  0  0  0  0  0  0  0  0  0  0  0
    0.3558    5.8238    0.7768 H   0  0  0  0  0  0  0  0  0  0  0  0
  1  2  2  0  0  0  0
  1  6  1  0  0  0  0
  1  7  1  0  0  0  0
  2  3  1  0  0  0  0
  2 16  1  0  0  0  0
  3  4  2  0  0  0  0
  3 17  1  0  0  0  0
  4  5  1  0  0  0  0
  4 18  1  0  0  0  0
  5  6  2  0  0  0  0
  5 19  1  0  0  0  0
  7  8  2  0  0  0  0
  7  9  1  0  0  0  0
  9 10  1  0  0  0  0
  9 20  1  0  0  0  0
 10 11  2  0  0  0  0
 10 15  1  0  0  0  0
 11 12  1  0  0  0  0
 11 21  1  0  0  0  0
 12 13  2  0  0  0  0
 12 22  1  0  0  0  0
 13 14  1  0  0  0  0
 13 23  1  0  0  0  0
 14 15  2  0  0  0  0
 14 24  1  0  0  0  0
 15 25  1  0  0  0  0
M  END
>  <Mol_ID>
1055

>  <Formula>
C12H9ClN2O

>  <MolWeight>
232.66566

>  <Cat>
S2862

>  <Name>
VU 0364770

>  <Synonyms>
N/A

>  <Target>
GluR

>  <Form>
free base

>  <CAS>
61350-00-3

>  <URL>
http://selleckchem.com/products/vu-0364770.html

$$$$
