VU 0361737.cdx
 OpenBabel08302522003D

 29 30  0  0  0  0  0  0  0  0999 V2000
   -2.9912    2.3917    0.0367 C   0  0  0  0  0  0  0  0  0  0  0  0
   -3.7583    1.2929   -0.3493 C   0  0  0  0  0  0  0  0  0  0  0  0
   -5.1150    1.2948   -0.0620 C   0  0  0  0  0  0  0  0  0  0  0  0
   -5.6588    2.3840    0.6098 C   0  0  0  0  0  0  0  0  0  0  0  0
   -4.8173    3.4246    0.9785 C   0  0  0  0  0  0  0  0  0  0  0  0
   -3.4900    3.4655    0.7135 N   0  0  0  0  0  0  0  0  0  0  0  0
   -1.5409    2.4207   -0.3296 C   0  0  0  0  0  0  0  0  0  0  0  0
   -1.0733    1.4631   -0.9349 O   0  0  0  0  0  0  0  0  0  0  0  0
   -0.8492    3.5471    0.0925 N   0  0  0  0  0  0  0  0  0  0  0  0
    0.5233    3.7947   -0.1298 C   0  0  0  0  0  0  0  0  0  0  0  0
    1.2646    3.1020   -1.0952 C   0  0  0  0  0  0  0  0  0  0  0  0
    2.6425    3.2870   -1.2190 C   0  0  0  0  0  0  0  0  0  0  0  0
    3.2799    4.2076   -0.3889 C   0  0  0  0  0  0  0  0  0  0  0  0
    2.5441    4.9513    0.5354 C   0  0  0  0  0  0  0  0  0  0  0  0
    1.1650    4.7533    0.6572 C   0  0  0  0  0  0  0  0  0  0  0  0
    3.4591    2.6250   -2.0963 O   0  0  0  0  0  0  0  0  0  0  0  0
    2.8411    1.6416   -2.9228 C   0  0  0  0  0  0  0  0  0  0  0  0
   -3.3026    0.4593   -0.8771 H   0  0  0  0  0  0  0  0  0  0  0  0
   -5.7382    0.4591   -0.3665 H   0  0  0  0  0  0  0  0  0  0  0  0
   -6.7190    2.4171    0.8386 H   0  0  0  0  0  0  0  0  0  0  0  0
   -5.2108    4.2867    1.5117 H   0  0  0  0  0  0  0  0  0  0  0  0
   -1.3670    4.1696    0.7067 H   0  0  0  0  0  0  0  0  0  0  0  0
    0.7570    2.4191   -1.7633 H   0  0  0  0  0  0  0  0  0  0  0  0
    4.3559    4.3437   -0.4641 H   0  0  0  0  0  0  0  0  0  0  0  0
    3.0518    5.6700    1.1732 H   0  0  0  0  0  0  0  0  0  0  0  0
    0.6158    5.3272    1.3984 H   0  0  0  0  0  0  0  0  0  0  0  0
    2.3160    0.8847   -2.3301 H   0  0  0  0  0  0  0  0  0  0  0  0
    2.1690    2.1128   -3.6476 H   0  0  0  0  0  0  0  0  0  0  0  0
    3.6297    1.1287   -3.4818 H   0  0  0  0  0  0  0  0  0  0  0  0
  1  2  2  0  0  0  0
  1  6  1  0  0  0  0
  1  7  1  0  0  0  0
  2  3  1  0  0  0  0
  2 18  1  0  0  0  0
  3  4  2  0  0  0  0
  3 19  1  0  0  0  0
  4  5  1  0  0  0  0
  4 20  1  0  0  0  0
  5  6  2  0  0  0  0
  5 21  1  0  0  0  0
  7  8  2  0  0  0  0
  7  9  1  0  0  0  0
  9 10  1  0  0  0  0
  9 22  1  0  0  0  0
 10 11  2  0  0  0  0
 10 15  1  0  0  0  0
 11 12  1  0  0  0  0
 11 23  1  0  0  0  0
 12 13  2  0  0  0  0
 12 16  1  0  0  0  0
 13 14  1  0  0  0  0
 13 24  1  0  0  0  0
 14 15  2  0  0  0  0
 14 25  1  0  0  0  0
 15 26  1  0  0  0  0
 16 17  1  0  0  0  0
 17 27  1  0  0  0  0
 17 28  1  0  0  0  0
 17 29  1  0  0  0  0
M  END
>  <Mol_ID>
1066

>  <Formula>
C13H11ClN2O2

>  <MolWeight>
262.69164

>  <Cat>
S2892

>  <Name>
VU 0361737

>  <Synonyms>
N/A

>  <Target>
GluR

>  <Form>
free base

>  <CAS>
1161205-04-4

>  <URL>
http://selleckchem.com/products/vu-0361737.html

$$$$
