VU 0365114
 OpenBabel08302521333D

 43 46  0  0  0  0  0  0  0  0999 V2000
    0.6922   -1.4750   -0.1739 N   0  0  0  0  0  0  0  0  0  0  0  0
    1.6642   -0.6041    0.2933 C   0  0  0  0  0  0  0  0  0  0  0  0
    1.0033    0.7920    0.2835 C   0  0  0  0  0  0  0  0  0  0  0  0
   -0.3662    0.5733   -0.1743 C   0  0  0  0  0  0  0  0  0  0  0  0
   -1.3982    1.4851   -0.2998 C   0  0  0  0  0  0  0  0  0  0  0  0
   -2.6361    0.9872   -0.6977 C   0  0  0  0  0  0  0  0  0  0  0  0
   -2.7665   -0.3713   -1.0605 C   0  0  0  0  0  0  0  0  0  0  0  0
   -1.6980   -1.2721   -0.9358 C   0  0  0  0  0  0  0  0  0  0  0  0
   -0.4996   -0.7856   -0.4532 C   0  0  0  0  0  0  0  0  0  0  0  0
    2.7948   -0.8402    0.6673 O   0  0  0  0  0  0  0  0  0  0  0  0
    1.5043    1.8477    0.5935 O   0  0  0  0  0  0  0  0  0  0  0  0
   -3.7635    1.7401   -0.8465 O   0  0  0  0  0  0  0  0  0  0  0  0
   -4.0584    2.7326    0.1353 C   0  0  0  0  0  0  0  0  0  0  0  0
   -3.1056    2.8834    1.0782 F   0  0  0  0  0  0  0  0  0  0  0  0
   -4.2396    3.9173   -0.4863 F   0  0  0  0  0  0  0  0  0  0  0  0
   -5.2112    2.4008    0.7576 F   0  0  0  0  0  0  0  0  0  0  0  0
    0.8560   -2.9106   -0.1956 C   0  0  0  0  0  0  0  0  0  0  0  0
   -0.6435   -4.9413    3.3775 C   0  0  0  0  0  0  0  0  0  0  0  0
   -1.2157   -5.1526    2.1101 C   0  0  0  0  0  0  0  0  0  0  0  0
   -0.7416   -4.4979    0.9637 C   0  0  0  0  0  0  0  0  0  0  0  0
    0.3181   -3.5897    1.0461 C   0  0  0  0  0  0  0  0  0  0  0  0
    0.8897   -3.3569    2.3029 C   0  0  0  0  0  0  0  0  0  0  0  0
    0.4184   -4.0228    3.4440 C   0  0  0  0  0  0  0  0  0  0  0  0
   -1.1277   -5.6677    4.5800 C   0  0  0  0  0  0  0  0  0  0  0  0
   -1.6155   -6.9866    4.4946 C   0  0  0  0  0  0  0  0  0  0  0  0
   -2.0758   -7.6764    5.6221 C   0  0  0  0  0  0  0  0  0  0  0  0
   -2.0455   -7.0681    6.8717 C   0  0  0  0  0  0  0  0  0  0  0  0
   -1.5622   -5.7694    6.9908 C   0  0  0  0  0  0  0  0  0  0  0  0
   -1.1155   -5.0776    5.8580 C   0  0  0  0  0  0  0  0  0  0  0  0
   -1.2193    2.5319   -0.0774 H   0  0  0  0  0  0  0  0  0  0  0  0
   -3.7245   -0.7346   -1.4329 H   0  0  0  0  0  0  0  0  0  0  0  0
   -1.8318   -2.3118   -1.2122 H   0  0  0  0  0  0  0  0  0  0  0  0
    0.3806   -3.3077   -1.1001 H   0  0  0  0  0  0  0  0  0  0  0  0
    1.9241   -3.1471   -0.2777 H   0  0  0  0  0  0  0  0  0  0  0  0
   -2.0509   -5.8402    1.9938 H   0  0  0  0  0  0  0  0  0  0  0  0
   -1.2085   -4.7199    0.0072 H   0  0  0  0  0  0  0  0  0  0  0  0
    1.7269   -2.6680    2.4102 H   0  0  0  0  0  0  0  0  0  0  0  0
    0.9192   -3.8255    4.3900 H   0  0  0  0  0  0  0  0  0  0  0  0
   -1.6320   -7.5082    3.5402 H   0  0  0  0  0  0  0  0  0  0  0  0
   -2.4509   -8.6916    5.5202 H   0  0  0  0  0  0  0  0  0  0  0  0
   -2.3960   -7.6045    7.7496 H   0  0  0  0  0  0  0  0  0  0  0  0
   -1.5339   -5.2886    7.9654 H   0  0  0  0  0  0  0  0  0  0  0  0
   -0.7636   -4.0569    5.9919 H   0  0  0  0  0  0  0  0  0  0  0  0
  1  2  1  0  0  0  0
  1  9  1  0  0  0  0
  1 17  1  0  0  0  0
  2  3  1  0  0  0  0
  2 10  2  0  0  0  0
  3  4  1  0  0  0  0
  3 11  2  0  0  0  0
  4  5  1  0  0  0  0
  4  9  2  0  0  0  0
  5  6  2  0  0  0  0
  5 30  1  0  0  0  0
  6  7  1  0  0  0  0
  6 12  1  0  0  0  0
  7  8  2  0  0  0  0
  7 31  1  0  0  0  0
  8  9  1  0  0  0  0
  8 32  1  0  0  0  0
 12 13  1  0  0  0  0
 13 14  1  0  0  0  0
 13 15  1  0  0  0  0
 13 16  1  0  0  0  0
 17 21  1  0  0  0  0
 17 33  1  0  0  0  0
 17 34  1  0  0  0  0
 18 19  2  0  0  0  0
 18 23  1  0  0  0  0
 18 24  1  0  0  0  0
 19 20  1  0  0  0  0
 19 35  1  0  0  0  0
 20 21  2  0  0  0  0
 20 36  1  0  0  0  0
 21 22  1  0  0  0  0
 22 23  2  0  0  0  0
 22 37  1  0  0  0  0
 23 38  1  0  0  0  0
 24 25  2  0  0  0  0
 24 29  1  0  0  0  0
 25 26  1  0  0  0  0
 25 39  1  0  0  0  0
 26 27  2  0  0  0  0
 26 40  1  0  0  0  0
 27 28  1  0  0  0  0
 27 41  1  0  0  0  0
 28 29  2  0  0  0  0
 28 42  1  0  0  0  0
 29 43  1  0  0  0  0
M  END
>  <Mol_ID>
6354

>  <Formula>
C22H14F3NO3

>  <MolWeight>
397.3466696

>  <Cat>
E0799

>  <Name>
VU 0365114

>  <Target>
AChR

>  <Form>
free base

>  <CAS>
1208222-39-2

>  <URL>
http://www.selleckchem.com/products/vu-0365114.html

$$$$
