VUF10460
 OpenBabel08302520403D

 39 41  0  0  0  0  0  0  0  0999 V2000
   -0.8491   -0.0185   -0.2220 C   0  0  0  0  0  0  0  0  0  0  0  0
   -0.2590   -1.2030   -0.0664 N   0  0  0  0  0  0  0  0  0  0  0  0
    1.0791   -1.2427    0.0622 C   0  0  0  0  0  0  0  0  0  0  0  0
    1.8023   -0.0665    0.0466 C   0  0  0  0  0  0  0  0  0  0  0  0
    1.1175    1.1273   -0.0862 C   0  0  0  0  0  0  0  0  0  0  0  0
   -0.2227    1.1541   -0.2224 N   0  0  0  0  0  0  0  0  0  0  0  0
   -2.2285   -0.0052   -0.3035 N   0  0  0  0  0  0  0  0  0  0  0  0
    1.7921    2.4450   -0.0695 C   0  0  0  0  0  0  0  0  0  0  0  0
    1.2252    3.5492   -0.7335 C   0  0  0  0  0  0  0  0  0  0  0  0
    1.8496    4.7994   -0.7399 C   0  0  0  0  0  0  0  0  0  0  0  0
    3.0589    4.9782   -0.0781 C   0  0  0  0  0  0  0  0  0  0  0  0
    3.6401    3.9090    0.5968 C   0  0  0  0  0  0  0  0  0  0  0  0
    3.0111    2.6597    0.6051 C   0  0  0  0  0  0  0  0  0  0  0  0
    1.6896   -2.4645    0.3332 N   0  0  0  0  0  0  0  0  0  0  0  0
    0.8097   -3.6502    0.3283 C   0  0  0  0  0  0  0  0  0  0  0  0
    1.4748   -4.7979    1.1254 C   0  0  0  0  0  0  0  0  0  0  0  0
    2.8401   -5.1281    0.6538 N   0  0  0  0  0  0  0  0  0  0  0  0
    3.6652   -3.9009    0.6494 C   0  0  0  0  0  0  0  0  0  0  0  0
    3.0350   -2.7615   -0.1864 C   0  0  0  0  0  0  0  0  0  0  0  0
    3.4427   -6.1448    1.5138 C   0  0  0  0  0  0  0  0  0  0  0  0
    2.8736   -0.0655    0.1703 H   0  0  0  0  0  0  0  0  0  0  0  0
   -2.5683    0.8695    0.0731 H   0  0  0  0  0  0  0  0  0  0  0  0
   -2.5848   -0.8525    0.1173 H   0  0  0  0  0  0  0  0  0  0  0  0
    0.2783    3.4341   -1.2603 H   0  0  0  0  0  0  0  0  0  0  0  0
    1.3856    5.6310   -1.2642 H   0  0  0  0  0  0  0  0  0  0  0  0
    3.5457    5.9498   -0.0821 H   0  0  0  0  0  0  0  0  0  0  0  0
    4.5803    4.0461    1.1248 H   0  0  0  0  0  0  0  0  0  0  0  0
    3.4855    1.8598    1.1676 H   0  0  0  0  0  0  0  0  0  0  0  0
    0.6166   -3.9704   -0.7036 H   0  0  0  0  0  0  0  0  0  0  0  0
   -0.1553   -3.4459    0.8077 H   0  0  0  0  0  0  0  0  0  0  0  0
    0.8370   -5.6863    1.0474 H   0  0  0  0  0  0  0  0  0  0  0  0
    1.5046   -4.5072    2.1848 H   0  0  0  0  0  0  0  0  0  0  0  0
    3.8118   -3.5395    1.6763 H   0  0  0  0  0  0  0  0  0  0  0  0
    4.6560   -4.1261    0.2359 H   0  0  0  0  0  0  0  0  0  0  0  0
    2.9726   -3.0565   -1.2417 H   0  0  0  0  0  0  0  0  0  0  0  0
    3.7143   -1.9067   -0.1256 H   0  0  0  0  0  0  0  0  0  0  0  0
    4.4468   -6.4010    1.1588 H   0  0  0  0  0  0  0  0  0  0  0  0
    3.5197   -5.8163    2.5566 H   0  0  0  0  0  0  0  0  0  0  0  0
    2.8519   -7.0669    1.4860 H   0  0  0  0  0  0  0  0  0  0  0  0
  1  2  2  0  0  0  0
  1  6  1  0  0  0  0
  1  7  1  0  0  0  0
  2  3  1  0  0  0  0
  3  4  2  0  0  0  0
  3 14  1  0  0  0  0
  4  5  1  0  0  0  0
  4 21  1  0  0  0  0
  5  6  2  0  0  0  0
  5  8  1  0  0  0  0
  7 22  1  0  0  0  0
  7 23  1  0  0  0  0
  8  9  2  0  0  0  0
  8 13  1  0  0  0  0
  9 10  1  0  0  0  0
  9 24  1  0  0  0  0
 10 11  2  0  0  0  0
 10 25  1  0  0  0  0
 11 12  1  0  0  0  0
 11 26  1  0  0  0  0
 12 13  2  0  0  0  0
 12 27  1  0  0  0  0
 13 28  1  0  0  0  0
 14 15  1  0  0  0  0
 14 19  1  0  0  0  0
 15 16  1  0  0  0  0
 15 29  1  0  0  0  0
 15 30  1  0  0  0  0
 16 17  1  0  0  0  0
 16 31  1  0  0  0  0
 16 32  1  0  0  0  0
 17 18  1  0  0  0  0
 17 20  1  0  0  0  0
 18 19  1  0  0  0  0
 18 33  1  0  0  0  0
 18 34  1  0  0  0  0
 19 35  1  0  0  0  0
 19 36  1  0  0  0  0
 20 37  1  0  0  0  0
 20 38  1  0  0  0  0
 20 39  1  0  0  0  0
M  END
>  <Mol_ID>
3840

>  <Formula>
C15H19N5

>  <MolWeight>
269.34486

>  <Cat>
S6569

>  <Name>
VUF10460

>  <Synonyms>
N/A

>  <Target>
Histamine Receptor

>  <Form>
free base

>  <CAS>
1028327-66-3

>  <URL>
http://www.selleck.cn/products/vuf10460.html

$$$$
