VUF 10166.cdx
 OpenBabel08302521593D

 33 35  0  0  0  0  0  0  0  0999 V2000
   -2.2220    0.4148    1.3446 C   0  0  0  0  0  0  0  0  0  0  0  0
   -2.3370   -0.8169    0.7138 C   0  0  0  0  0  0  0  0  0  0  0  0
   -1.2306   -1.3611    0.0585 C   0  0  0  0  0  0  0  0  0  0  0  0
   -0.0116   -0.6928    0.0193 C   0  0  0  0  0  0  0  0  0  0  0  0
    0.1060    0.5550    0.6700 C   0  0  0  0  0  0  0  0  0  0  0  0
   -1.0005    1.0876    1.3199 C   0  0  0  0  0  0  0  0  0  0  0  0
    1.0290   -1.2323   -0.6332 N   0  0  0  0  0  0  0  0  0  0  0  0
    2.1688   -0.4928   -0.6435 C   0  0  0  0  0  0  0  0  0  0  0  0
    2.3164    0.7456   -0.0183 C   0  0  0  0  0  0  0  0  0  0  0  0
    1.2603    1.2487    0.6611 N   0  0  0  0  0  0  0  0  0  0  0  0
    3.4474    1.5192   -0.0973 N   0  0  0  0  0  0  0  0  0  0  0  0
    3.7879    2.3812    1.0426 C   0  0  0  0  0  0  0  0  0  0  0  0
    4.3988    3.7069    0.5424 C   0  0  0  0  0  0  0  0  0  0  0  0
    5.5598    3.4896   -0.3527 N   0  0  0  0  0  0  0  0  0  0  0  0
    5.1291    2.6574   -1.4980 C   0  0  0  0  0  0  0  0  0  0  0  0
    4.5278    1.2971   -1.0580 C   0  0  0  0  0  0  0  0  0  0  0  0
    6.0975    4.7676   -0.8107 C   0  0  0  0  0  0  0  0  0  0  0  0
   -3.0756    0.8560    1.8525 H   0  0  0  0  0  0  0  0  0  0  0  0
   -3.2822   -1.3537    0.7248 H   0  0  0  0  0  0  0  0  0  0  0  0
   -1.3185   -2.3231   -0.4395 H   0  0  0  0  0  0  0  0  0  0  0  0
   -0.9064    2.0535    1.8087 H   0  0  0  0  0  0  0  0  0  0  0  0
    2.9885   -0.9569   -1.1775 H   0  0  0  0  0  0  0  0  0  0  0  0
    4.5140    1.8583    1.6789 H   0  0  0  0  0  0  0  0  0  0  0  0
    2.9273    2.6220    1.6764 H   0  0  0  0  0  0  0  0  0  0  0  0
    4.7112    4.2937    1.4149 H   0  0  0  0  0  0  0  0  0  0  0  0
    3.6196    4.2815    0.0219 H   0  0  0  0  0  0  0  0  0  0  0  0
    4.3778    3.1959   -2.0927 H   0  0  0  0  0  0  0  0  0  0  0  0
    5.9843    2.4595   -2.1549 H   0  0  0  0  0  0  0  0  0  0  0  0
    5.3051    0.6690   -0.6061 H   0  0  0  0  0  0  0  0  0  0  0  0
    4.1693    0.7928   -1.9623 H   0  0  0  0  0  0  0  0  0  0  0  0
    6.9684    4.6067   -1.4554 H   0  0  0  0  0  0  0  0  0  0  0  0
    5.3599    5.3578   -1.3664 H   0  0  0  0  0  0  0  0  0  0  0  0
    6.4432    5.3625    0.0421 H   0  0  0  0  0  0  0  0  0  0  0  0
  1  2  2  0  0  0  0
  1 18  1  0  0  0  0
  2  3  1  0  0  0  0
  2 19  1  0  0  0  0
  3  4  2  0  0  0  0
  3 20  1  0  0  0  0
  4  5  1  0  0  0  0
  4  7  1  0  0  0  0
  5  6  2  0  0  0  0
  6  1  1  0  0  0  0
  6 21  1  0  0  0  0
  7  8  2  0  0  0  0
  8  9  1  0  0  0  0
  8 22  1  0  0  0  0
  9 10  2  0  0  0  0
  9 11  1  0  0  0  0
 10  5  1  0  0  0  0
 11 12  1  0  0  0  0
 12 13  1  0  0  0  0
 12 23  1  0  0  0  0
 12 24  1  0  0  0  0
 13 14  1  0  0  0  0
 13 25  1  0  0  0  0
 13 26  1  0  0  0  0
 14 15  1  0  0  0  0
 14 17  1  0  0  0  0
 15 16  1  0  0  0  0
 15 27  1  0  0  0  0
 15 28  1  0  0  0  0
 16 11  1  0  0  0  0
 16 29  1  0  0  0  0
 16 30  1  0  0  0  0
 17 31  1  0  0  0  0
 17 32  1  0  0  0  0
 17 33  1  0  0  0  0
M  END
>  <Mol_ID>
1032

>  <Formula>
C13H15ClN4

>  <MolWeight>
262.738

>  <Cat>
S2865

>  <Name>
VUF 10166

>  <Synonyms>
N/A

>  <Target>
5-HT Receptor

>  <Form>
free base

>  <CAS>
155584-74-0

>  <URL>
http://selleckchem.com/products/vuf-10166.html

$$$$
