VUT-MK142
 OpenBabel08302521323D

 44 46  0  0  0  0  0  0  0  0999 V2000
    0.0810    1.2548   -0.0558 C   0  0  0  0  0  0  0  0  0  0  0  0
    1.2183    0.5635   -0.1527 N   0  0  0  0  0  0  0  0  0  0  0  0
    1.1120   -0.7697   -0.0933 C   0  0  0  0  0  0  0  0  0  0  0  0
   -0.1087   -1.3987    0.0846 C   0  0  0  0  0  0  0  0  0  0  0  0
   -1.2401   -0.6026    0.0854 C   0  0  0  0  0  0  0  0  0  0  0  0
   -1.1429    0.7343    0.0532 N   0  0  0  0  0  0  0  0  0  0  0  0
    2.2625   -1.5728   -0.2076 N   0  0  0  0  0  0  0  0  0  0  0  0
   -2.5235   -1.2039    0.1845 N   0  0  0  0  0  0  0  0  0  0  0  0
   -3.7042   -0.6024   -0.3308 C   0  0  0  0  0  0  0  0  0  0  0  0
   -3.6964    0.1566   -1.5083 C   0  0  0  0  0  0  0  0  0  0  0  0
   -4.8744    0.7033   -2.0314 C   0  0  0  0  0  0  0  0  0  0  0  0
   -6.0899    0.4768   -1.3924 C   0  0  0  0  0  0  0  0  0  0  0  0
   -6.1179   -0.3340   -0.2536 C   0  0  0  0  0  0  0  0  0  0  0  0
   -4.9374   -0.8850    0.2623 C   0  0  0  0  0  0  0  0  0  0  0  0
   -7.3011    0.9837   -1.7755 O   0  0  0  0  0  0  0  0  0  0  0  0
   -7.3037    1.8462   -2.9086 C   0  0  0  0  0  0  0  0  0  0  0  0
    3.4148   -0.9419   -0.8755 C   0  0  0  0  0  0  0  0  0  0  0  0
    3.1093   -0.7771   -2.3785 C   0  0  0  0  0  0  0  0  0  0  0  0
    4.3236   -0.3253   -3.1806 C   0  0  0  0  0  0  0  0  0  0  0  0
    5.5056   -1.2613   -2.9711 C   0  0  0  0  0  0  0  0  0  0  0  0
    5.8514   -1.3733   -1.4911 C   0  0  0  0  0  0  0  0  0  0  0  0
    4.6506   -1.8375   -0.6683 C   0  0  0  0  0  0  0  0  0  0  0  0
    0.1575    2.3366   -0.0706 H   0  0  0  0  0  0  0  0  0  0  0  0
   -0.1710   -2.4771    0.1263 H   0  0  0  0  0  0  0  0  0  0  0  0
    2.4904   -1.9105    0.7253 H   0  0  0  0  0  0  0  0  0  0  0  0
   -2.4867   -2.1575   -0.1652 H   0  0  0  0  0  0  0  0  0  0  0  0
   -2.7621    0.3495   -2.0311 H   0  0  0  0  0  0  0  0  0  0  0  0
   -4.7968    1.3021   -2.9313 H   0  0  0  0  0  0  0  0  0  0  0  0
   -7.0636   -0.5278    0.2436 H   0  0  0  0  0  0  0  0  0  0  0  0
   -4.9848   -1.5056    1.1531 H   0  0  0  0  0  0  0  0  0  0  0  0
   -6.6224    2.6940   -2.7744 H   0  0  0  0  0  0  0  0  0  0  0  0
   -7.0620    1.2869   -3.8185 H   0  0  0  0  0  0  0  0  0  0  0  0
   -8.3128    2.2515   -3.0204 H   0  0  0  0  0  0  0  0  0  0  0  0
    3.6408    0.0364   -0.4296 H   0  0  0  0  0  0  0  0  0  0  0  0
    2.7392   -1.7266   -2.7875 H   0  0  0  0  0  0  0  0  0  0  0  0
    2.3046   -0.0474   -2.5291 H   0  0  0  0  0  0  0  0  0  0  0  0
    4.0663   -0.2864   -4.2451 H   0  0  0  0  0  0  0  0  0  0  0  0
    4.6018    0.6927   -2.8816 H   0  0  0  0  0  0  0  0  0  0  0  0
    5.2646   -2.2545   -3.3702 H   0  0  0  0  0  0  0  0  0  0  0  0
    6.3727   -0.8929   -3.5304 H   0  0  0  0  0  0  0  0  0  0  0  0
    6.6831   -2.0745   -1.3602 H   0  0  0  0  0  0  0  0  0  0  0  0
    6.1938   -0.3987   -1.1219 H   0  0  0  0  0  0  0  0  0  0  0  0
    4.9244   -1.8472    0.3940 H   0  0  0  0  0  0  0  0  0  0  0  0
    4.4122   -2.8760   -0.9342 H   0  0  0  0  0  0  0  0  0  0  0  0
  1  2  2  0  0  0  0
  1  6  1  0  0  0  0
  1 23  1  0  0  0  0
  2  3  1  0  0  0  0
  3  4  2  0  0  0  0
  3  7  1  0  0  0  0
  4  5  1  0  0  0  0
  4 24  1  0  0  0  0
  5  6  2  0  0  0  0
  5  8  1  0  0  0  0
  7 17  1  0  0  0  0
  7 25  1  0  0  0  0
  8  9  1  0  0  0  0
  8 26  1  0  0  0  0
  9 10  2  0  0  0  0
  9 14  1  0  0  0  0
 10 11  1  0  0  0  0
 10 27  1  0  0  0  0
 11 12  2  0  0  0  0
 11 28  1  0  0  0  0
 12 13  1  0  0  0  0
 12 15  1  0  0  0  0
 13 14  2  0  0  0  0
 13 29  1  0  0  0  0
 14 30  1  0  0  0  0
 15 16  1  0  0  0  0
 16 31  1  0  0  0  0
 16 32  1  0  0  0  0
 16 33  1  0  0  0  0
 17 18  1  0  0  0  0
 17 22  1  0  0  0  0
 17 34  1  0  0  0  0
 18 19  1  0  0  0  0
 18 35  1  0  0  0  0
 18 36  1  0  0  0  0
 19 20  1  0  0  0  0
 19 37  1  0  0  0  0
 19 38  1  0  0  0  0
 20 21  1  0  0  0  0
 20 39  1  0  0  0  0
 20 40  1  0  0  0  0
 21 22  1  0  0  0  0
 21 41  1  0  0  0  0
 21 42  1  0  0  0  0
 22 43  1  0  0  0  0
 22 44  1  0  0  0  0
M  END
>  <Mol_ID>
6214

>  <Formula>
C17H22N4O

>  <MolWeight>
298.38278

>  <Cat>
S3381

>  <Name>
VUT-MK142

>  <Target>
Others

>  <Form>
free base

>  <CAS>
1313491-22-3

>  <URL>
http://www.selleckchem.com/products/vut-mk142.html

$$$$
