VX-809.cdx
 OpenBabel08302520303D

 51 55  0  0  0  0  0  0  0  0999 V2000
    4.5259   -1.7712    3.0877 C   0  0  0  0  0  0  0  0  0  0  0  0
    5.3214   -2.3675    2.1452 C   0  0  0  0  0  0  0  0  0  0  0  0
    5.2537   -2.0222    0.8143 C   0  0  0  0  0  0  0  0  0  0  0  0
    4.2831   -1.0882    0.4028 C   0  0  0  0  0  0  0  0  0  0  0  0
    3.5209   -0.4307    1.4018 C   0  0  0  0  0  0  0  0  0  0  0  0
    3.6453   -0.7627    2.7563 C   0  0  0  0  0  0  0  0  0  0  0  0
    4.6888   -2.3189    4.3217 O   0  0  0  0  0  0  0  0  0  0  0  0
    5.5691   -3.4034    3.9890 C   0  0  0  0  0  0  0  0  0  0  0  0
    6.0984   -3.3578    2.6589 O   0  0  0  0  0  0  0  0  0  0  0  0
    4.8921   -4.5705    4.1385 F   0  0  0  0  0  0  0  0  0  0  0  0
    6.5989   -3.4091    4.8669 F   0  0  0  0  0  0  0  0  0  0  0  0
    3.9768   -0.9732   -1.0843 C   0  0  0  0  0  0  0  0  0  0  0  0
    3.4358   -2.2715   -1.6731 C   0  0  0  0  0  0  0  0  0  0  0  0
    4.9205   -0.1069   -1.9130 C   0  0  0  0  0  0  0  0  0  0  0  0
    3.5073    0.3370   -1.7126 C   0  0  0  0  0  0  0  0  0  0  0  0
    2.0740   -2.3961   -1.5066 N   0  0  0  0  0  0  0  0  0  0  0  0
    4.1942   -3.0550   -2.2268 O   0  0  0  0  0  0  0  0  0  0  0  0
    1.3494   -3.4649   -2.0483 C   0  0  0  0  0  0  0  0  0  0  0  0
    1.5613   -4.7256   -1.6197 N   0  0  0  0  0  0  0  0  0  0  0  0
    0.7860   -5.7364   -2.1306 C   0  0  0  0  0  0  0  0  0  0  0  0
   -0.1453   -5.4966   -3.1514 C   0  0  0  0  0  0  0  0  0  0  0  0
   -0.3656   -4.1653   -3.5408 C   0  0  0  0  0  0  0  0  0  0  0  0
    0.3571   -3.1372   -2.9548 C   0  0  0  0  0  0  0  0  0  0  0  0
   -0.8672   -6.5449   -3.9548 C   0  0  0  0  0  0  0  0  0  0  0  0
    1.0296   -7.0645   -1.5047 C   0  0  0  0  0  0  0  0  0  0  0  0
   -0.0035   -7.9920   -1.2545 C   0  0  0  0  0  0  0  0  0  0  0  0
    0.2595   -9.2823   -0.7820 C   0  0  0  0  0  0  0  0  0  0  0  0
    1.5596   -9.6430   -0.4494 C   0  0  0  0  0  0  0  0  0  0  0  0
    2.5894   -8.7049   -0.5654 C   0  0  0  0  0  0  0  0  0  0  0  0
    2.3290   -7.4397   -1.1156 C   0  0  0  0  0  0  0  0  0  0  0  0
    3.9482   -9.1069   -0.1274 C   0  0  0  0  0  0  0  0  0  0  0  0
    4.6775   -8.0976    0.3924 O   0  0  0  0  0  0  0  0  0  0  0  0
    4.3425  -10.2599   -0.1759 O   0  0  0  0  0  0  0  0  0  0  0  0
    5.8657   -2.5414    0.0804 H   0  0  0  0  0  0  0  0  0  0  0  0
    2.7805    0.3086    1.1178 H   0  0  0  0  0  0  0  0  0  0  0  0
    3.0296   -0.2878    3.5104 H   0  0  0  0  0  0  0  0  0  0  0  0
    5.6928    0.4651   -1.4082 H   0  0  0  0  0  0  0  0  0  0  0  0
    5.2190   -0.4652   -2.8921 H   0  0  0  0  0  0  0  0  0  0  0  0
    2.8638    0.3042   -2.5865 H   0  0  0  0  0  0  0  0  0  0  0  0
    3.3419    1.2074   -1.0889 H   0  0  0  0  0  0  0  0  0  0  0  0
    1.5813   -1.5259   -1.3879 H   0  0  0  0  0  0  0  0  0  0  0  0
   -1.0840   -3.9308   -4.3206 H   0  0  0  0  0  0  0  0  0  0  0  0
    0.1999   -2.1137   -3.2733 H   0  0  0  0  0  0  0  0  0  0  0  0
   -1.9399   -6.3252   -3.9818 H   0  0  0  0  0  0  0  0  0  0  0  0
   -0.4804   -6.5435   -4.9798 H   0  0  0  0  0  0  0  0  0  0  0  0
   -0.7517   -7.5633   -3.5896 H   0  0  0  0  0  0  0  0  0  0  0  0
   -1.0422   -7.7288   -1.4487 H   0  0  0  0  0  0  0  0  0  0  0  0
   -0.5495  -10.0019   -0.6776 H   0  0  0  0  0  0  0  0  0  0  0  0
    1.7676  -10.6484   -0.0861 H   0  0  0  0  0  0  0  0  0  0  0  0
    3.1422   -6.7332   -1.2758 H   0  0  0  0  0  0  0  0  0  0  0  0
    4.2031   -7.2522    0.5077 H   0  0  0  0  0  0  0  0  0  0  0  0
  1  2  1  0  0  0  0
  1  7  1  0  0  0  0
  2  3  2  0  0  0  0
  3  4  1  0  0  0  0
  3 34  1  0  0  0  0
  4  5  2  0  0  0  0
  4 12  1  0  0  0  0
  5  6  1  0  0  0  0
  5 35  1  0  0  0  0
  6  1  2  0  0  0  0
  6 36  1  0  0  0  0
  7  8  1  0  0  0  0
  8  9  1  0  0  0  0
  8 10  1  0  0  0  0
  8 11  1  0  0  0  0
  9  2  1  0  0  0  0
 12 13  1  0  0  0  0
 12 14  1  0  0  0  0
 13 16  1  0  0  0  0
 13 17  2  0  0  0  0
 14 15  1  0  0  0  0
 14 37  1  0  0  0  0
 14 38  1  0  0  0  0
 15 12  1  0  0  0  0
 15 39  1  0  0  0  0
 15 40  1  0  0  0  0
 16 18  1  0  0  0  0
 16 41  1  0  0  0  0
 18 19  2  0  0  0  0
 19 20  1  0  0  0  0
 20 21  2  0  0  0  0
 20 25  1  0  0  0  0
 21 22  1  0  0  0  0
 21 24  1  0  0  0  0
 22 23  2  0  0  0  0
 22 42  1  0  0  0  0
 23 18  1  0  0  0  0
 23 43  1  0  0  0  0
 24 44  1  0  0  0  0
 24 45  1  0  0  0  0
 24 46  1  0  0  0  0
 25 26  2  0  0  0  0
 26 27  1  0  0  0  0
 26 47  1  0  0  0  0
 27 28  2  0  0  0  0
 27 48  1  0  0  0  0
 28 29  1  0  0  0  0
 28 49  1  0  0  0  0
 29 30  2  0  0  0  0
 29 31  1  0  0  0  0
 30 25  1  0  0  0  0
 30 50  1  0  0  0  0
 31 32  1  0  0  0  0
 31 33  2  0  0  0  0
 32 51  1  0  0  0  0
M  END
>  <Mol_ID>
327

>  <Formula>
C24H18F2N2O5

>  <MolWeight>
452.4069264

>  <Cat>
S1565

>  <Name>
Lumacaftor (VX-809)

>  <Synonyms>
VRT 826809

>  <Target>
CFTR

>  <Form>
free base

>  <CAS>
936727-05-8

>  <URL>
http://selleckchem.com/products/VX-809.html

$$$$
