VY-3-135
 OpenBabel08302521333D

 59 62  0  0  1  0  0  0  0  0999 V2000
    0.9867    0.0309   -0.0461 C   0  0  0  0  0  0  0  0  0  0  0  0
    0.0866   -0.1157   -1.1619 O   0  0  0  0  0  0  0  0  0  0  0  0
   -0.6994   -2.7247   -0.2490 C   0  0  0  0  0  0  0  0  0  0  0  0
    0.3162   -3.7236   -0.7752 C   0  0  0  0  0  0  0  0  0  0  0  0
   -1.6073   -5.2885    4.6290 C   0  0  0  0  0  0  0  0  0  0  0  0
   -1.6663   -6.3852    3.7929 N   0  0  0  0  0  0  0  0  0  0  0  0
   -2.0026   -5.3115    5.7919 O   0  0  0  0  0  0  0  0  0  0  0  0
   -2.1467   -7.6747    4.2673 C   0  0  0  0  0  0  0  0  0  0  0  0
   -1.0317   -8.5133    4.9133 C   0  0  1  0  0  0  0  0  0  0  0  0
   -1.5572   -9.8682    5.3764 C   0  0  0  0  0  0  0  0  0  0  0  0
    0.0201   -8.7306    3.9638 O   0  0  0  0  0  0  0  0  0  0  0  0
    0.4179   -0.8424    1.0982 C   0  0  0  0  0  0  0  0  0  0  0  0
   -0.2614   -2.0496    0.9597 N   0  0  0  0  0  0  0  0  0  0  0  0
    0.6296   -0.6038    2.3882 N   0  0  0  0  0  0  0  0  0  0  0  0
   -0.4439   -2.5926    2.2221 C   0  0  0  0  0  0  0  0  0  0  0  0
    0.1269   -1.6687    3.0840 C   0  0  0  0  0  0  0  0  0  0  0  0
   -1.0330   -3.7871    2.6770 C   0  0  0  0  0  0  0  0  0  0  0  0
    0.1305   -1.9211    4.4638 C   0  0  0  0  0  0  0  0  0  0  0  0
   -1.0056   -4.0431    4.0593 C   0  0  0  0  0  0  0  0  0  0  0  0
   -0.4413   -3.1118    4.9401 C   0  0  0  0  0  0  0  0  0  0  0  0
    0.9545    1.5437    0.2804 C   0  0  0  0  0  0  0  0  0  0  0  0
   -0.2729    2.1581    0.6061 C   0  0  0  0  0  0  0  0  0  0  0  0
    2.0829    2.3777    0.1832 C   0  0  0  0  0  0  0  0  0  0  0  0
   -0.3797    3.5413    0.7749 C   0  0  0  0  0  0  0  0  0  0  0  0
    1.9813    3.7660    0.3524 C   0  0  0  0  0  0  0  0  0  0  0  0
    0.7456    4.3486    0.6329 C   0  0  0  0  0  0  0  0  0  0  0  0
    2.3546   -0.5026   -0.5300 C   0  0  0  0  0  0  0  0  0  0  0  0
    2.7626   -0.3799   -1.8754 C   0  0  0  0  0  0  0  0  0  0  0  0
    3.2509   -1.1254    0.3626 C   0  0  0  0  0  0  0  0  0  0  0  0
    3.9700   -0.9256   -2.3210 C   0  0  0  0  0  0  0  0  0  0  0  0
    4.4542   -1.6749   -0.0860 C   0  0  0  0  0  0  0  0  0  0  0  0
    4.8051   -1.5902   -1.4292 C   0  0  0  0  0  0  0  0  0  0  0  0
    0.2364    0.6597   -1.7275 H   0  0  0  0  0  0  0  0  0  0  0  0
   -1.6348   -3.2455   -0.0122 H   0  0  0  0  0  0  0  0  0  0  0  0
   -0.9752   -1.9994   -1.0100 H   0  0  0  0  0  0  0  0  0  0  0  0
    0.4734   -4.5388   -0.0608 H   0  0  0  0  0  0  0  0  0  0  0  0
   -0.0401   -4.1638   -1.7120 H   0  0  0  0  0  0  0  0  0  0  0  0
    1.2852   -3.2558   -0.9653 H   0  0  0  0  0  0  0  0  0  0  0  0
   -1.0649   -6.3975    2.9803 H   0  0  0  0  0  0  0  0  0  0  0  0
   -2.9678   -7.5179    4.9749 H   0  0  0  0  0  0  0  0  0  0  0  0
   -2.5402   -8.1888    3.3839 H   0  0  0  0  0  0  0  0  0  0  0  0
   -0.5963   -7.9784    5.7648 H   0  0  0  0  0  0  0  0  0  0  0  0
   -1.9561  -10.4433    4.5322 H   0  0  0  0  0  0  0  0  0  0  0  0
   -0.7477  -10.4681    5.8071 H   0  0  0  0  0  0  0  0  0  0  0  0
   -2.3470   -9.7573    6.1252 H   0  0  0  0  0  0  0  0  0  0  0  0
   -0.3300   -9.2916    3.2519 H   0  0  0  0  0  0  0  0  0  0  0  0
   -1.5070   -4.4718    1.9836 H   0  0  0  0  0  0  0  0  0  0  0  0
    0.5767   -1.2050    5.1462 H   0  0  0  0  0  0  0  0  0  0  0  0
   -0.4390   -3.3089    6.0110 H   0  0  0  0  0  0  0  0  0  0  0  0
   -1.1716    1.5499    0.7247 H   0  0  0  0  0  0  0  0  0  0  0  0
    3.0661    1.9707   -0.0376 H   0  0  0  0  0  0  0  0  0  0  0  0
   -1.3389    3.9883    1.0162 H   0  0  0  0  0  0  0  0  0  0  0  0
    2.8619    4.3903    0.2549 H   0  0  0  0  0  0  0  0  0  0  0  0
    0.6655    5.4278    0.7401 H   0  0  0  0  0  0  0  0  0  0  0  0
    2.1439    0.1378   -2.6038 H   0  0  0  0  0  0  0  0  0  0  0  0
    3.0154   -1.2016    1.4223 H   0  0  0  0  0  0  0  0  0  0  0  0
    4.2529   -0.8371   -3.3666 H   0  0  0  0  0  0  0  0  0  0  0  0
    5.1132   -2.1749    0.6193 H   0  0  0  0  0  0  0  0  0  0  0  0
    5.7334   -2.0346   -1.7785 H   0  0  0  0  0  0  0  0  0  0  0  0
  1  2  1  0  0  0  0
  1 12  1  0  0  0  0
  1 21  1  0  0  0  0
  1 27  1  0  0  0  0
  2 33  1  0  0  0  0
  3  4  1  0  0  0  0
  3 13  1  0  0  0  0
  3 34  1  0  0  0  0
  3 35  1  0  0  0  0
  4 36  1  0  0  0  0
  4 37  1  0  0  0  0
  4 38  1  0  0  0  0
  5  6  1  0  0  0  0
  5  7  2  0  0  0  0
  5 19  1  0  0  0  0
  6  8  1  0  0  0  0
  6 39  1  0  0  0  0
  8  9  1  0  0  0  0
  8 40  1  0  0  0  0
  8 41  1  0  0  0  0
  9 10  1  0  0  0  0
  9 11  1  0  0  0  0
  9 42  1  1  0  0  0
 10 43  1  0  0  0  0
 10 44  1  0  0  0  0
 10 45  1  0  0  0  0
 11 46  1  0  0  0  0
 12 13  1  0  0  0  0
 12 14  2  0  0  0  0
 13 15  1  0  0  0  0
 14 16  1  0  0  0  0
 15 16  2  0  0  0  0
 15 17  1  0  0  0  0
 16 18  1  0  0  0  0
 17 19  2  0  0  0  0
 17 47  1  0  0  0  0
 18 20  2  0  0  0  0
 18 48  1  0  0  0  0
 19 20  1  0  0  0  0
 20 49  1  0  0  0  0
 21 22  2  0  0  0  0
 21 23  1  0  0  0  0
 22 24  1  0  0  0  0
 22 50  1  0  0  0  0
 23 25  2  0  0  0  0
 23 51  1  0  0  0  0
 24 26  2  0  0  0  0
 24 52  1  0  0  0  0
 25 26  1  0  0  0  0
 25 53  1  0  0  0  0
 26 54  1  0  0  0  0
 27 28  2  0  0  0  0
 27 29  1  0  0  0  0
 28 30  1  0  0  0  0
 28 55  1  0  0  0  0
 29 31  2  0  0  0  0
 29 56  1  0  0  0  0
 30 32  2  0  0  0  0
 30 57  1  0  0  0  0
 31 32  1  0  0  0  0
 31 58  1  0  0  0  0
 32 59  1  0  0  0  0
M  END
>  <Mol_ID>
6409

>  <Formula>
C26H27N3O3

>  <MolWeight>
429.51088

>  <Cat>
E1147

>  <Name>
VY-3-135

>  <Target>
ACSS2

>  <Form>
free base

>  <CAS>
1824637-41-3

>  <URL>
http://www.selleckchem.com/products/vy-3-135.html

$$$$
