WAY-656021
 OpenBabel08302521423D

 33 35  0  0  0  0  0  0  0  0999 V2000
   -2.3888   -0.0589   -0.3850 C   0  0  0  0  0  0  0  0  0  0  0  0
   -1.5189   -1.0143   -0.6085 N   0  0  0  0  0  0  0  0  0  0  0  0
   -1.7529    1.1610   -0.3342 N   0  0  0  0  0  0  0  0  0  0  0  0
   -3.7478   -0.1728   -0.1931 N   0  0  0  0  0  0  0  0  0  0  0  0
   -0.2976   -0.4057   -0.7330 C   0  0  0  0  0  0  0  0  0  0  0  0
   -0.4126    0.9674   -0.5645 C   0  0  0  0  0  0  0  0  0  0  0  0
   -4.3911   -1.4011   -0.2768 C   0  0  0  0  0  0  0  0  0  0  0  0
   -3.8956   -2.4728   -0.6196 O   0  0  0  0  0  0  0  0  0  0  0  0
   -6.7187   -1.0505   -0.9381 O   0  0  0  0  0  0  0  0  0  0  0  0
   -5.8575   -1.3416    0.1545 C   0  0  0  0  0  0  0  0  0  0  0  0
   -8.0582   -0.9805   -0.6482 C   0  0  0  0  0  0  0  0  0  0  0  0
    0.9606   -0.9674   -0.9918 C   0  0  0  0  0  0  0  0  0  0  0  0
    0.6780    1.8398   -0.6405 C   0  0  0  0  0  0  0  0  0  0  0  0
   -8.6328   -1.1903    0.6086 C   0  0  0  0  0  0  0  0  0  0  0  0
   -8.8871   -0.6511   -1.7246 C   0  0  0  0  0  0  0  0  0  0  0  0
    1.9275    1.2611   -0.9042 C   0  0  0  0  0  0  0  0  0  0  0  0
    2.0704   -0.1182   -1.0769 C   0  0  0  0  0  0  0  0  0  0  0  0
  -10.2640   -0.4898   -1.5404 C   0  0  0  0  0  0  0  0  0  0  0  0
  -10.0089   -1.0269    0.7942 C   0  0  0  0  0  0  0  0  0  0  0  0
  -10.8228   -0.6666   -0.2762 C   0  0  0  0  0  0  0  0  0  0  0  0
   -2.1927    2.0509   -0.1631 H   0  0  0  0  0  0  0  0  0  0  0  0
   -4.2928    0.6559   -0.0074 H   0  0  0  0  0  0  0  0  0  0  0  0
   -6.0984   -2.3211    0.5867 H   0  0  0  0  0  0  0  0  0  0  0  0
   -5.9581   -0.5740    0.9319 H   0  0  0  0  0  0  0  0  0  0  0  0
    1.0575   -2.0391   -1.1257 H   0  0  0  0  0  0  0  0  0  0  0  0
    0.5738    2.9104   -0.5081 H   0  0  0  0  0  0  0  0  0  0  0  0
   -8.0433   -1.4827    1.4707 H   0  0  0  0  0  0  0  0  0  0  0  0
   -8.4612   -0.5149   -2.7157 H   0  0  0  0  0  0  0  0  0  0  0  0
    2.8068    1.8986   -0.9783 H   0  0  0  0  0  0  0  0  0  0  0  0
    3.0512   -0.5413   -1.2824 H   0  0  0  0  0  0  0  0  0  0  0  0
  -10.8987   -0.2253   -2.3818 H   0  0  0  0  0  0  0  0  0  0  0  0
  -10.4438   -1.1803    1.7789 H   0  0  0  0  0  0  0  0  0  0  0  0
  -11.8907   -0.5299   -0.1266 H   0  0  0  0  0  0  0  0  0  0  0  0
  2  1  2  0  0  0  0
  3  1  1  0  0  0  0
  3 21  1  0  0  0  0
  4  1  1  0  0  0  0
  4 22  1  0  0  0  0
  5  2  1  0  0  0  0
  6  3  1  0  0  0  0
  6  5  2  0  0  0  0
  7  4  1  0  0  0  0
  8  7  2  0  0  0  0
  9 10  1  0  0  0  0
 10  7  1  0  0  0  0
 10 23  1  0  0  0  0
 10 24  1  0  0  0  0
 11  9  1  0  0  0  0
 12  5  1  0  0  0  0
 12 25  1  0  0  0  0
 13  6  1  0  0  0  0
 13 26  1  0  0  0  0
 14 11  2  0  0  0  0
 14 27  1  0  0  0  0
 15 11  1  0  0  0  0
 15 28  1  0  0  0  0
 16 13  2  0  0  0  0
 16 17  1  0  0  0  0
 16 29  1  0  0  0  0
 17 12  2  0  0  0  0
 17 30  1  0  0  0  0
 18 15  2  0  0  0  0
 18 31  1  0  0  0  0
 19 14  1  0  0  0  0
 19 32  1  0  0  0  0
 20 18  1  0  0  0  0
 20 19  2  0  0  0  0
 20 33  1  0  0  0  0
M  END
>  <Mol_ID>
8524

>  <Formula>
C15H13N3O2

>  <MolWeight>
267.28262

>  <Cat>
P3135

>  <Name>
WAY-656021

>  <Synonyms>
N/A

>  <Target>
Anti-infection

>  <Form>
free base

>  <CAS>
107249-98-9

>  <URL>
N/A

$$$$
