WAY-605650
 OpenBabel08302521413D

 42 44  0  0  0  0  0  0  0  0999 V2000
    1.1007   -0.3357    0.0756 C   0  0  0  0  0  0  0  0  0  0  0  0
    0.5010    0.8580    0.9006 C   0  0  0  0  0  0  0  0  0  0  0  0
    6.4067   -0.8775   -0.9962 C   0  0  0  0  0  0  0  0  0  0  0  0
    2.0572   -0.0266   -0.8743 N   0  0  0  0  0  0  0  0  0  0  0  0
   -0.4872    1.6050    0.1599 O   0  0  0  0  0  0  0  0  0  0  0  0
    6.5424   -1.8004    0.0133 C   0  0  0  0  0  0  0  0  0  0  0  0
    7.5717   -0.2282   -1.2648 O   0  0  0  0  0  0  0  0  0  0  0  0
    7.8048   -1.8362    0.5178 O   0  0  0  0  0  0  0  0  0  0  0  0
    8.4340   -0.7926   -0.2541 C   0  0  0  0  0  0  0  0  0  0  0  0
    5.1947   -0.6444   -1.6135 C   0  0  0  0  0  0  0  0  0  0  0  0
    0.6986   -1.4924    0.2156 O   0  0  0  0  0  0  0  0  0  0  0  0
    5.4797   -2.5637    0.4436 C   0  0  0  0  0  0  0  0  0  0  0  0
   -1.5947    0.9941   -0.3576 C   0  0  0  0  0  0  0  0  0  0  0  0
    4.0737   -1.3639   -1.1651 C   0  0  0  0  0  0  0  0  0  0  0  0
    2.6957   -1.0416   -1.6926 C   0  0  0  0  0  0  0  0  0  0  0  0
   -3.9214   -0.0341   -1.5645 C   0  0  0  0  0  0  0  0  0  0  0  0
    4.2333   -2.3375   -0.1508 C   0  0  0  0  0  0  0  0  0  0  0  0
   -2.3355   -0.0101    0.2529 C   0  0  0  0  0  0  0  0  0  0  0  0
   -2.0656    1.5201   -1.5661 C   0  0  0  0  0  0  0  0  0  0  0  0
   -3.2205    1.0052   -2.1684 C   0  0  0  0  0  0  0  0  0  0  0  0
   -3.4818   -0.5366   -0.3451 C   0  0  0  0  0  0  0  0  0  0  0  0
   -0.0142    0.3672    2.2715 C   0  0  0  0  0  0  0  0  0  0  0  0
    1.5822    1.9064    1.2459 C   0  0  0  0  0  0  0  0  0  0  0  0
    2.4722    0.8925   -0.8899 H   0  0  0  0  0  0  0  0  0  0  0  0
    9.3261   -1.2043   -0.7387 H   0  0  0  0  0  0  0  0  0  0  0  0
    8.7439    0.0105    0.4260 H   0  0  0  0  0  0  0  0  0  0  0  0
    5.1186    0.0965   -2.4020 H   0  0  0  0  0  0  0  0  0  0  0  0
    5.6005   -3.2951    1.2348 H   0  0  0  0  0  0  0  0  0  0  0  0
    2.0819   -1.9471   -1.7457 H   0  0  0  0  0  0  0  0  0  0  0  0
    2.7675   -0.6384   -2.7088 H   0  0  0  0  0  0  0  0  0  0  0  0
   -4.8108   -0.4465   -2.0287 H   0  0  0  0  0  0  0  0  0  0  0  0
    3.3694   -2.9065    0.1925 H   0  0  0  0  0  0  0  0  0  0  0  0
   -2.0841   -0.4113    1.2201 H   0  0  0  0  0  0  0  0  0  0  0  0
   -1.5418    2.3431   -2.0430 H   0  0  0  0  0  0  0  0  0  0  0  0
   -3.5765    1.4146   -3.1126 H   0  0  0  0  0  0  0  0  0  0  0  0
   -4.0333   -1.3311    0.1504 H   0  0  0  0  0  0  0  0  0  0  0  0
    0.7914    0.3304    3.0141 H   0  0  0  0  0  0  0  0  0  0  0  0
   -0.8026    1.0222    2.6589 H   0  0  0  0  0  0  0  0  0  0  0  0
   -0.3975   -0.6561    2.2407 H   0  0  0  0  0  0  0  0  0  0  0  0
    2.4182    1.4590    1.7949 H   0  0  0  0  0  0  0  0  0  0  0  0
    1.9800    2.4077    0.3582 H   0  0  0  0  0  0  0  0  0  0  0  0
    1.1532    2.7060    1.8641 H   0  0  0  0  0  0  0  0  0  0  0  0
  2  1  1  0  0  0  0
  3 10  2  0  0  0  0
  4  1  1  0  0  0  0
  4 24  1  0  0  0  0
  5  2  1  0  0  0  0
  6 12  2  0  0  0  0
  6  3  1  0  0  0  0
  7  3  1  0  0  0  0
  8  6  1  0  0  0  0
  9  7  1  0  0  0  0
  9  8  1  0  0  0  0
  9 25  1  0  0  0  0
  9 26  1  0  0  0  0
 10 14  1  0  0  0  0
 10 27  1  0  0  0  0
 11  1  2  0  0  0  0
 12 17  1  0  0  0  0
 12 28  1  0  0  0  0
 13  5  1  0  0  0  0
 14 15  1  0  0  0  0
 15  4  1  0  0  0  0
 15 29  1  0  0  0  0
 15 30  1  0  0  0  0
 16 20  2  0  0  0  0
 16 21  1  0  0  0  0
 16 31  1  0  0  0  0
 17 14  2  0  0  0  0
 17 32  1  0  0  0  0
 18 13  1  0  0  0  0
 18 33  1  0  0  0  0
 19 13  2  0  0  0  0
 19 34  1  0  0  0  0
 20 19  1  0  0  0  0
 20 35  1  0  0  0  0
 21 18  2  0  0  0  0
 21 36  1  0  0  0  0
 22  2  1  0  0  0  0
 22 37  1  0  0  0  0
 22 38  1  0  0  0  0
 22 39  1  0  0  0  0
 23  2  1  0  0  0  0
 23 40  1  0  0  0  0
 23 41  1  0  0  0  0
 23 42  1  0  0  0  0
M  END
>  <Mol_ID>
8472

>  <Formula>
C18H18ClNO4

>  <MolWeight>
347.79282

>  <Cat>
P2855

>  <Name>
WAY-605650

>  <Synonyms>
N/A

>  <Target>
Anti-infection

>  <Form>
free base

>  <CAS>
380543-06-6

>  <URL>
N/A

$$$$
