WAY-325748
 OpenBabel08302521433D

 47 51  0  0  0  0  0  0  0  0999 V2000
    2.0207   -0.8766   -0.0253 C   0  0  0  0  0  0  0  0  0  0  0  0
    0.5734    0.8711    0.0013 C   0  0  0  0  0  0  0  0  0  0  0  0
    1.9365    0.5319    0.0949 C   0  0  0  0  0  0  0  0  0  0  0  0
   -0.1219   -0.3495   -0.0158 N   0  0  0  0  0  0  0  0  0  0  0  0
    4.3839   -0.8166   -0.0112 N   0  0  0  0  0  0  0  0  0  0  0  0
    4.3856    0.5695    0.1157 C   0  0  0  0  0  0  0  0  0  0  0  0
    3.1443    1.2304    0.2701 N   0  0  0  0  0  0  0  0  0  0  0  0
    3.2528   -1.6223   -0.0460 C   0  0  0  0  0  0  0  0  0  0  0  0
   -0.2607    2.0803   -0.0745 C   0  0  0  0  0  0  0  0  0  0  0  0
   -1.5626    2.0071   -0.0032 N   0  0  0  0  0  0  0  0  0  0  0  0
    0.7540   -1.3929   -0.0779 C   0  0  0  0  0  0  0  0  0  0  0  0
   -1.5305   -0.4379    0.0186 C   0  0  0  0  0  0  0  0  0  0  0  0
   -2.2154    0.7736    0.0504 C   0  0  0  0  0  0  0  0  0  0  0  0
    0.2530    3.4558   -0.2916 C   0  0  0  0  0  0  0  0  0  0  0  0
    5.4463    1.2047    0.1152 O   0  0  0  0  0  0  0  0  0  0  0  0
    3.2783   -2.8480   -0.0893 O   0  0  0  0  0  0  0  0  0  0  0  0
    5.6586   -1.5100   -0.0451 C   0  0  0  0  0  0  0  0  0  0  0  0
    1.2722    3.7233   -1.1999 C   0  0  0  0  0  0  0  0  0  0  0  0
   -0.3822    4.5244    0.3610 C   0  0  0  0  0  0  0  0  0  0  0  0
    3.2854    2.6115    0.6697 C   0  0  0  0  0  0  0  0  0  0  0  0
    1.1684    6.0869   -0.6300 C   0  0  0  0  0  0  0  0  0  0  0  0
    0.0651    5.8366    0.1827 C   0  0  0  0  0  0  0  0  0  0  0  0
    1.7630    5.0276   -1.3211 C   0  0  0  0  0  0  0  0  0  0  0  0
   -2.2267   -1.6527    0.0097 C   0  0  0  0  0  0  0  0  0  0  0  0
   -3.6138    0.7658    0.0760 C   0  0  0  0  0  0  0  0  0  0  0  0
    1.7661    7.3006   -0.8211 O   0  0  0  0  0  0  0  0  0  0  0  0
    1.0630    8.4413   -0.3455 C   0  0  0  0  0  0  0  0  0  0  0  0
   -3.6247   -1.6457    0.0259 C   0  0  0  0  0  0  0  0  0  0  0  0
   -4.3179   -0.4371    0.0578 C   0  0  0  0  0  0  0  0  0  0  0  0
    0.4352   -2.4229   -0.1426 H   0  0  0  0  0  0  0  0  0  0  0  0
    5.7352   -2.1461    0.8436 H   0  0  0  0  0  0  0  0  0  0  0  0
    5.6979   -2.1506   -0.9319 H   0  0  0  0  0  0  0  0  0  0  0  0
    6.5145   -0.8306   -0.0617 H   0  0  0  0  0  0  0  0  0  0  0  0
    1.7342    2.9231   -1.7716 H   0  0  0  0  0  0  0  0  0  0  0  0
   -1.2394    4.3393    1.0064 H   0  0  0  0  0  0  0  0  0  0  0  0
    4.1007    2.7144    1.3977 H   0  0  0  0  0  0  0  0  0  0  0  0
    3.5877    3.1964   -0.2044 H   0  0  0  0  0  0  0  0  0  0  0  0
    2.3895    2.9905    1.1542 H   0  0  0  0  0  0  0  0  0  0  0  0
   -0.4623    6.6295    0.7027 H   0  0  0  0  0  0  0  0  0  0  0  0
    2.6286    5.2184   -1.9519 H   0  0  0  0  0  0  0  0  0  0  0  0
   -1.7192   -2.6117   -0.0161 H   0  0  0  0  0  0  0  0  0  0  0  0
   -4.1526    1.7106    0.0844 H   0  0  0  0  0  0  0  0  0  0  0  0
    0.1071    8.5497   -0.8683 H   0  0  0  0  0  0  0  0  0  0  0  0
    0.9196    8.4063    0.7395 H   0  0  0  0  0  0  0  0  0  0  0  0
    1.6713    9.3231   -0.5676 H   0  0  0  0  0  0  0  0  0  0  0  0
   -4.1746   -2.5841    0.0073 H   0  0  0  0  0  0  0  0  0  0  0  0
   -5.4050   -0.4286    0.0630 H   0  0  0  0  0  0  0  0  0  0  0  0
  2  3  2  0  0  0  0
  3  1  1  0  0  0  0
  4 11  1  0  0  0  0
  4  2  1  0  0  0  0
  5  8  1  0  0  0  0
  6  5  1  0  0  0  0
  7  3  1  0  0  0  0
  7  6  1  0  0  0  0
  8  1  1  0  0  0  0
  9  2  1  0  0  0  0
 10  9  2  0  0  0  0
 10 13  1  0  0  0  0
 11  1  2  0  0  0  0
 11 30  1  0  0  0  0
 12  4  1  0  0  0  0
 13 12  2  0  0  0  0
 14  9  1  0  0  0  0
 15  6  2  0  0  0  0
 16  8  2  0  0  0  0
 17  5  1  0  0  0  0
 17 31  1  0  0  0  0
 17 32  1  0  0  0  0
 17 33  1  0  0  0  0
 18 14  2  0  0  0  0
 18 34  1  0  0  0  0
 19 14  1  0  0  0  0
 19 35  1  0  0  0  0
 20  7  1  0  0  0  0
 20 36  1  0  0  0  0
 20 37  1  0  0  0  0
 20 38  1  0  0  0  0
 21 22  1  0  0  0  0
 22 19  2  0  0  0  0
 22 39  1  0  0  0  0
 23 18  1  0  0  0  0
 23 21  2  0  0  0  0
 23 40  1  0  0  0  0
 24 12  1  0  0  0  0
 24 41  1  0  0  0  0
 25 13  1  0  0  0  0
 25 29  2  0  0  0  0
 25 42  1  0  0  0  0
 26 21  1  0  0  0  0
 27 26  1  0  0  0  0
 27 43  1  0  0  0  0
 27 44  1  0  0  0  0
 27 45  1  0  0  0  0
 28 24  2  0  0  0  0
 28 46  1  0  0  0  0
 29 28  1  0  0  0  0
 29 47  1  0  0  0  0
M  END
>  <Mol_ID>
8877

>  <Formula>
C22H18N4O3

>  <MolWeight>
386.40332

>  <Cat>
P2425

>  <Name>
WAY-325748

>  <Synonyms>
N/A

>  <Target>
folate cycle

>  <Form>
free base

>  <CAS>
869469-29-4

>  <URL>
N/A

$$$$
