WAY-297342
 OpenBabel08302521343D

 36 38  0  0  0  0  0  0  0  0999 V2000
    0.4964    4.5548   -2.1145 C   0  0  0  0  0  0  0  0  0  0  0  0
    1.1916    4.1431   -0.9725 C   0  0  0  0  0  0  0  0  0  0  0  0
    0.8878    4.8058    0.2179 C   0  0  0  0  0  0  0  0  0  0  0  0
   -0.1037    5.7976    0.2216 C   0  0  0  0  0  0  0  0  0  0  0  0
   -0.7504    6.1092   -0.9664 C   0  0  0  0  0  0  0  0  0  0  0  0
   -0.4623    5.5171   -2.1380 N   0  0  0  0  0  0  0  0  0  0  0  0
    2.1846    3.0403   -1.1452 C   0  0  0  0  0  0  0  0  0  0  0  0
    2.3917    2.6742   -2.3077 O   0  0  0  0  0  0  0  0  0  0  0  0
    2.8315    2.5338   -0.0237 N   0  0  0  0  0  0  0  0  0  0  0  0
    4.8607   -0.6362   -0.5210 C   0  0  0  0  0  0  0  0  0  0  0  0
    5.5329    0.0377    0.4852 C   0  0  0  0  0  0  0  0  0  0  0  0
    4.8833    1.3136    0.7859 C   0  0  0  0  0  0  0  0  0  0  0  0
    3.7998    1.5220   -0.0723 C   0  0  0  0  0  0  0  0  0  0  0  0
    3.6473    0.2938   -1.2394 S   0  0  0  0  0  0  0  0  0  0  0  0
    6.6859   -0.6326    1.1880 C   0  0  0  0  0  0  0  0  0  0  0  0
    7.2303   -1.8327    0.3934 C   0  0  0  0  0  0  0  0  0  0  0  0
    6.1017   -2.7579   -0.0622 C   0  0  0  0  0  0  0  0  0  0  0  0
    5.1236   -2.0337   -0.9939 C   0  0  0  0  0  0  0  0  0  0  0  0
    5.2143    2.2919    1.8191 C   0  0  0  0  0  0  0  0  0  0  0  0
    4.3931    3.1151    2.2366 O   0  0  0  0  0  0  0  0  0  0  0  0
    6.4934    2.3226    2.3046 N   0  0  0  0  0  0  0  0  0  0  0  0
    0.6970    4.1106   -3.0868 H   0  0  0  0  0  0  0  0  0  0  0  0
    1.4012    4.5878    1.1488 H   0  0  0  0  0  0  0  0  0  0  0  0
   -0.3720    6.3210    1.1337 H   0  0  0  0  0  0  0  0  0  0  0  0
   -1.5328    6.8603   -1.0068 H   0  0  0  0  0  0  0  0  0  0  0  0
    2.7622    3.0080    0.8703 H   0  0  0  0  0  0  0  0  0  0  0  0
    6.3462   -0.9682    2.1751 H   0  0  0  0  0  0  0  0  0  0  0  0
    7.5231    0.0511    1.3337 H   0  0  0  0  0  0  0  0  0  0  0  0
    7.9461   -2.3869    1.0102 H   0  0  0  0  0  0  0  0  0  0  0  0
    7.7780   -1.4723   -0.4878 H   0  0  0  0  0  0  0  0  0  0  0  0
    6.5127   -3.6348   -0.5750 H   0  0  0  0  0  0  0  0  0  0  0  0
    5.5656   -3.1288    0.8210 H   0  0  0  0  0  0  0  0  0  0  0  0
    5.5313   -2.0082   -2.0109 H   0  0  0  0  0  0  0  0  0  0  0  0
    4.1858   -2.6018   -1.0279 H   0  0  0  0  0  0  0  0  0  0  0  0
    7.2590    1.8625    1.8448 H   0  0  0  0  0  0  0  0  0  0  0  0
    6.7221    3.0944    2.9184 H   0  0  0  0  0  0  0  0  0  0  0  0
  1  2  2  0  0  0  0
  1  6  1  0  0  0  0
  1 22  1  0  0  0  0
  2  3  1  0  0  0  0
  2  7  1  0  0  0  0
  3  4  2  0  0  0  0
  3 23  1  0  0  0  0
  4  5  1  0  0  0  0
  4 24  1  0  0  0  0
  5  6  2  0  0  0  0
  5 25  1  0  0  0  0
  7  8  2  0  0  0  0
  7  9  1  0  0  0  0
  9 13  1  0  0  0  0
  9 26  1  0  0  0  0
 10 11  2  0  0  0  0
 10 14  1  0  0  0  0
 11 12  1  0  0  0  0
 12 13  2  0  0  0  0
 12 19  1  0  0  0  0
 13 14  1  0  0  0  0
 15 16  1  0  0  0  0
 15 11  1  0  0  0  0
 15 27  1  0  0  0  0
 15 28  1  0  0  0  0
 16 17  1  0  0  0  0
 16 29  1  0  0  0  0
 16 30  1  0  0  0  0
 17 18  1  0  0  0  0
 17 31  1  0  0  0  0
 17 32  1  0  0  0  0
 18 10  1  0  0  0  0
 18 33  1  0  0  0  0
 18 34  1  0  0  0  0
 19 20  2  0  0  0  0
 19 21  1  0  0  0  0
 21 35  1  0  0  0  0
 21 36  1  0  0  0  0
M  END
>  <Mol_ID>
6464

>  <Formula>
C15H15N3O2S

>  <MolWeight>
301.3635

>  <Cat>
E2518

>  <Name>
WAY-297342

>  <Target>
Others

>  <Form>
free base

>  <CAS>
298207-49-5

>  <URL>
http://www.selleckchem.com/products/way-297342.html

$$$$
