WAY-330366
 OpenBabel08302521443D

 50 53  0  0  0  0  0  0  0  0999 V2000
   -3.4853   -0.0223    0.0868 C   0  0  0  0  0  0  0  0  0  0  0  0
   -1.3652   -0.3358   -0.4223 C   0  0  0  0  0  0  0  0  0  0  0  0
   -4.9139   -0.2669    0.0575 C   0  0  0  0  0  0  0  0  0  0  0  0
   -5.3860   -1.5829   -0.0413 N   0  0  0  0  0  0  0  0  0  0  0  0
   -2.6246   -0.8011   -0.6396 O   0  0  0  0  0  0  0  0  0  0  0  0
   -0.2738   -0.9079   -0.9507 N   0  0  0  0  0  0  0  0  0  0  0  0
   -2.7767    0.9881    0.7115 C   0  0  0  0  0  0  0  0  0  0  0  0
   -1.4117    0.7793    0.4058 C   0  0  0  0  0  0  0  0  0  0  0  0
   -7.4410   -2.7880    0.6790 C   0  0  3  0  0  0  0  0  0  0  0  0
    0.8809   -0.3077   -0.6304 C   0  0  0  0  0  0  0  0  0  0  0  0
   -6.8107   -1.7987   -0.3001 C   0  0  0  0  0  0  0  0  0  0  0  0
   -7.6041   -2.1674    2.0577 C   0  0  0  0  0  0  0  0  0  0  0  0
   -0.2000    1.3975    0.7248 C   0  0  0  0  0  0  0  0  0  0  0  0
    0.9717    0.8414    0.1940 C   0  0  0  0  0  0  0  0  0  0  0  0
    2.0616   -0.8355   -1.1315 C   0  0  0  0  0  0  0  0  0  0  0  0
   -5.7036    0.6748    0.1523 O   0  0  0  0  0  0  0  0  0  0  0  0
   -7.1481   -2.6352    3.0933 O   0  0  0  0  0  0  0  0  0  0  0  0
    2.2191    1.4135    0.4752 C   0  0  0  0  0  0  0  0  0  0  0  0
    3.3128   -0.2723   -0.8539 C   0  0  0  0  0  0  0  0  0  0  0  0
   -4.5567   -2.7893    0.0249 C   0  0  0  0  0  0  0  0  0  0  0  0
   -8.3778   -1.0459    1.9993 O   0  0  0  0  0  0  0  0  0  0  0  0
    3.3861    0.8594   -0.0481 C   0  0  0  0  0  0  0  0  0  0  0  0
   -6.6193   -4.0854    0.7237 C   0  0  0  0  0  0  0  0  0  0  0  0
    4.3751   -0.9162   -1.4260 O   0  0  0  0  0  0  0  0  0  0  0  0
   -5.1391   -3.8203    0.9868 C   0  0  0  0  0  0  0  0  0  0  0  0
   -8.5212   -0.3824    3.2616 C   0  0  0  0  0  0  0  0  0  0  0  0
    5.6675   -0.3808   -1.1662 C   0  0  0  0  0  0  0  0  0  0  0  0
   -9.3757    0.8556    3.0756 C   0  0  0  0  0  0  0  0  0  0  0  0
   -3.2101    1.7646    1.3268 H   0  0  0  0  0  0  0  0  0  0  0  0
   -8.4531   -3.0442    0.3397 H   0  0  0  0  0  0  0  0  0  0  0  0
   -6.8797   -2.2008   -1.3195 H   0  0  0  0  0  0  0  0  0  0  0  0
   -7.3611   -0.8529   -0.3104 H   0  0  0  0  0  0  0  0  0  0  0  0
   -0.1772    2.2749    1.3641 H   0  0  0  0  0  0  0  0  0  0  0  0
    2.0108   -1.7197   -1.7642 H   0  0  0  0  0  0  0  0  0  0  0  0
    2.2927    2.2983    1.1045 H   0  0  0  0  0  0  0  0  0  0  0  0
   -3.5472   -2.5724    0.3735 H   0  0  0  0  0  0  0  0  0  0  0  0
   -4.4902   -3.1984   -0.9894 H   0  0  0  0  0  0  0  0  0  0  0  0
    4.3310    1.3346    0.1931 H   0  0  0  0  0  0  0  0  0  0  0  0
   -7.0100   -4.7662    1.4884 H   0  0  0  0  0  0  0  0  0  0  0  0
   -6.7168   -4.6015   -0.2400 H   0  0  0  0  0  0  0  0  0  0  0  0
   -5.0051   -3.4591    2.0136 H   0  0  0  0  0  0  0  0  0  0  0  0
   -4.5725   -4.7554    0.9120 H   0  0  0  0  0  0  0  0  0  0  0  0
   -9.0036   -1.0558    3.9790 H   0  0  0  0  0  0  0  0  0  0  0  0
   -7.5331   -0.0912    3.6366 H   0  0  0  0  0  0  0  0  0  0  0  0
    5.7584    0.6368   -1.5603 H   0  0  0  0  0  0  0  0  0  0  0  0
    5.8997   -0.4127   -0.0966 H   0  0  0  0  0  0  0  0  0  0  0  0
    6.4002   -1.0057   -1.6849 H   0  0  0  0  0  0  0  0  0  0  0  0
   -8.9080    1.5450    2.3652 H   0  0  0  0  0  0  0  0  0  0  0  0
  -10.3573    0.5917    2.6687 H   0  0  0  0  0  0  0  0  0  0  0  0
   -9.5163    1.3736    4.0285 H   0  0  0  0  0  0  0  0  0  0  0  0
  2  5  1  0  0  0  0
  2  8  2  0  0  0  0
  3  1  1  0  0  0  0
  4  3  1  0  0  0  0
  5  1  1  0  0  0  0
  6  2  1  0  0  0  0
  7  1  2  0  0  0  0
  7 29  1  0  0  0  0
  8  7  1  0  0  0  0
  9 11  1  0  0  0  0
  9 23  1  0  0  0  0
  9 30  1  0  0  0  0
 10  6  2  0  0  0  0
 10 14  1  0  0  0  0
 11  4  1  0  0  0  0
 11 31  1  0  0  0  0
 11 32  1  0  0  0  0
 12  9  1  0  0  0  0
 13  8  1  0  0  0  0
 13 33  1  0  0  0  0
 14 13  2  0  0  0  0
 15 10  1  0  0  0  0
 15 34  1  0  0  0  0
 16  3  2  0  0  0  0
 17 12  2  0  0  0  0
 18 14  1  0  0  0  0
 18 35  1  0  0  0  0
 19 15  2  0  0  0  0
 19 22  1  0  0  0  0
 20  4  1  0  0  0  0
 20 36  1  0  0  0  0
 20 37  1  0  0  0  0
 21 12  1  0  0  0  0
 22 18  2  0  0  0  0
 22 38  1  0  0  0  0
 23 25  1  0  0  0  0
 23 39  1  0  0  0  0
 23 40  1  0  0  0  0
 24 19  1  0  0  0  0
 25 20  1  0  0  0  0
 25 41  1  0  0  0  0
 25 42  1  0  0  0  0
 26 21  1  0  0  0  0
 26 43  1  0  0  0  0
 26 44  1  0  0  0  0
 27 24  1  0  0  0  0
 27 45  1  0  0  0  0
 27 46  1  0  0  0  0
 27 47  1  0  0  0  0
 28 26  1  0  0  0  0
 28 48  1  0  0  0  0
 28 49  1  0  0  0  0
 28 50  1  0  0  0  0
M  END
>  <Mol_ID>
9156

>  <Formula>
C21H22N2O5

>  <MolWeight>
382.40978

>  <Cat>
P2611

>  <Name>
WAY-330366

>  <Synonyms>
N/A

>  <Target>
Anti-infection

>  <Form>
free base

>  <CAS>
956205-02-0

>  <URL>
N/A

$$$$
