WAY-638847
 OpenBabel08302521433D

 25 26  0  0  0  0  0  0  0  0999 V2000
   -0.1539   -1.0709    0.0146 C   0  0  0  0  0  0  0  0  0  0  0  0
    1.3833   -0.3123    0.0153 S   0  0  0  0  0  0  0  0  0  0  0  0
   -0.6673    1.2148   -0.0043 N   0  0  0  0  0  0  0  0  0  0  0  0
    0.6519    1.2384    0.0075 C   0  0  0  0  0  0  0  0  0  0  0  0
   -1.1422   -0.0951   -0.0005 C   0  0  0  0  0  0  0  0  0  0  0  0
   -0.2692   -2.5232    0.0292 C   0  0  0  0  0  0  0  0  0  0  0  0
    1.4847    2.4538    0.0228 C   0  0  0  0  0  0  0  0  0  0  0  0
    2.8333    2.2764    0.0245 N   0  0  0  0  0  0  0  0  0  0  0  0
   -1.3550   -3.1069    0.0253 O   0  0  0  0  0  0  0  0  0  0  0  0
   -2.6224   -0.2594   -0.0083 C   0  0  0  0  0  0  0  0  0  0  0  0
    3.6094    3.3771    0.0516 C   0  0  0  0  0  0  0  0  0  0  0  0
    0.9996   -3.3506    0.0533 C   0  0  0  0  0  0  0  0  0  0  0  0
    0.9024    3.7190    0.0438 C   0  0  0  0  0  0  0  0  0  0  0  0
    3.1099    4.6678    0.0780 C   0  0  0  0  0  0  0  0  0  0  0  0
    1.7304    4.8384    0.0722 C   0  0  0  0  0  0  0  0  0  0  0  0
   -3.0547    0.2326    0.8697 H   0  0  0  0  0  0  0  0  0  0  0  0
   -3.0434    0.2146   -0.9015 H   0  0  0  0  0  0  0  0  0  0  0  0
   -2.9453   -1.3011    0.0004 H   0  0  0  0  0  0  0  0  0  0  0  0
    4.6790    3.1886    0.0531 H   0  0  0  0  0  0  0  0  0  0  0  0
    1.6055   -3.1468   -0.8349 H   0  0  0  0  0  0  0  0  0  0  0  0
    1.5702   -3.1440    0.9635 H   0  0  0  0  0  0  0  0  0  0  0  0
    0.7456   -4.4144    0.0485 H   0  0  0  0  0  0  0  0  0  0  0  0
   -0.1781    3.8313    0.0418 H   0  0  0  0  0  0  0  0  0  0  0  0
    3.7816    5.5182    0.1029 H   0  0  0  0  0  0  0  0  0  0  0  0
    1.3011    5.8363    0.0925 H   0  0  0  0  0  0  0  0  0  0  0  0
  2  1  1  0  0  0  0
  3  5  1  0  0  0  0
  3  4  2  0  0  0  0
  4  2  1  0  0  0  0
  5  1  2  0  0  0  0
  6  1  1  0  0  0  0
  7  4  1  0  0  0  0
  8  7  2  0  0  0  0
  9  6  2  0  0  0  0
 10  5  1  0  0  0  0
 10 16  1  0  0  0  0
 10 17  1  0  0  0  0
 10 18  1  0  0  0  0
 11  8  1  0  0  0  0
 11 19  1  0  0  0  0
 12  6  1  0  0  0  0
 12 20  1  0  0  0  0
 12 21  1  0  0  0  0
 12 22  1  0  0  0  0
 13  7  1  0  0  0  0
 13 23  1  0  0  0  0
 14 15  1  0  0  0  0
 14 11  2  0  0  0  0
 14 24  1  0  0  0  0
 15 13  2  0  0  0  0
 15 25  1  0  0  0  0
M  END
>  <Mol_ID>
8792

>  <Formula>
C11H10N2OS

>  <MolWeight>
218.2749

>  <Cat>
P3056

>  <Name>
WAY-638847

>  <Synonyms>
N/A

>  <Target>
human methionine aminopeptidase 1

>  <Form>
free base

>  <CAS>
478257-65-7

>  <URL>
N/A

$$$$
