WAY-326687
 OpenBabel08302521433D

 49 52  0  0  0  0  0  0  0  0999 V2000
    1.1281   -0.0253    0.1420 S   0  0  0  0  0  0  0  0  0  0  0  0
    0.0634    0.9229   -0.8168 N   0  0  0  0  0  0  0  0  0  0  0  0
   -2.3735   -7.3375    1.5024 C   0  0  0  0  0  0  0  0  0  0  0  0
   -1.5133   -8.3600    1.8035 O   0  0  0  0  0  0  0  0  0  0  0  0
   -2.3858   -9.3843    2.0788 C   0  0  0  0  0  0  0  0  0  0  0  0
   -3.6438   -9.0282    1.9193 N   0  0  0  0  0  0  0  0  0  0  0  0
   -1.9329   -6.0731    1.2184 N   0  0  0  0  0  0  0  0  0  0  0  0
   -3.6350   -7.7003    1.5661 N   0  0  0  0  0  0  0  0  0  0  0  0
   -0.6159   -5.7607    1.0026 C   0  0  0  0  0  0  0  0  0  0  0  0
   -2.0077  -10.7717    2.5848 C   0  0  0  0  0  0  0  0  0  0  0  0
    0.4321   -1.6651    0.2140 C   0  0  0  0  0  0  0  0  0  0  0  0
   -0.8160  -10.8730    3.5168 C   0  0  0  0  0  0  0  0  0  0  0  0
   -0.7342  -11.4591    2.1494 C   0  0  0  0  0  0  0  0  0  0  0  0
    1.0839    0.5063    1.4887 O   0  0  0  0  0  0  0  0  0  0  0  0
    2.3919   -0.1317   -0.5565 O   0  0  0  0  0  0  0  0  0  0  0  0
   -0.3390   -4.3208    0.6943 C   0  0  0  0  0  0  0  0  0  0  0  0
   -0.3553    0.4010   -2.1533 C   0  0  3  0  0  0  0  0  0  0  0  0
    0.3184   -6.5464    0.9984 O   0  0  0  0  0  0  0  0  0  0  0  0
    1.1147   -2.7151   -0.4111 C   0  0  0  0  0  0  0  0  0  0  0  0
   -0.6513   -1.9317    1.0572 C   0  0  0  0  0  0  0  0  0  0  0  0
    0.7301   -4.0365   -0.1669 C   0  0  0  0  0  0  0  0  0  0  0  0
   -1.0416   -3.2608    1.2921 C   0  0  0  0  0  0  0  0  0  0  0  0
    0.4938    2.3610   -0.8822 C   0  0  0  0  0  0  0  0  0  0  0  0
   -1.6505    1.0938   -2.6064 C   0  0  0  0  0  0  0  0  0  0  0  0
    0.7617    0.5582   -3.1851 C   0  0  0  0  0  0  0  0  0  0  0  0
    1.6101    2.5781   -1.9032 C   0  0  0  0  0  0  0  0  0  0  0  0
    1.2878    1.9892   -3.2738 C   0  0  0  0  0  0  0  0  0  0  0  0
   -2.6688   -5.4001    1.0702 H   0  0  0  0  0  0  0  0  0  0  0  0
   -2.8603  -11.4125    2.7822 H   0  0  0  0  0  0  0  0  0  0  0  0
   -0.2229   -9.9874    3.7156 H   0  0  0  0  0  0  0  0  0  0  0  0
   -0.9083  -11.5410    4.3655 H   0  0  0  0  0  0  0  0  0  0  0  0
   -0.7492  -12.5412    2.0683 H   0  0  0  0  0  0  0  0  0  0  0  0
   -0.0945  -10.9739    1.4216 H   0  0  0  0  0  0  0  0  0  0  0  0
   -0.6053   -0.6607   -2.0565 H   0  0  0  0  0  0  0  0  0  0  0  0
    1.9841   -2.5250   -1.0372 H   0  0  0  0  0  0  0  0  0  0  0  0
   -1.1515   -1.1153    1.5764 H   0  0  0  0  0  0  0  0  0  0  0  0
    1.2987   -4.8495   -0.6185 H   0  0  0  0  0  0  0  0  0  0  0  0
   -1.8445   -3.4473    2.0009 H   0  0  0  0  0  0  0  0  0  0  0  0
   -0.3725    2.9846   -1.1286 H   0  0  0  0  0  0  0  0  0  0  0  0
    0.8177    2.7061    0.1063 H   0  0  0  0  0  0  0  0  0  0  0  0
   -1.5150    2.1610   -2.8085 H   0  0  0  0  0  0  0  0  0  0  0  0
   -2.0258    0.6398   -3.5296 H   0  0  0  0  0  0  0  0  0  0  0  0
   -2.4301    1.0060   -1.8424 H   0  0  0  0  0  0  0  0  0  0  0  0
    1.5906   -0.1131   -2.9348 H   0  0  0  0  0  0  0  0  0  0  0  0
    0.4068    0.2393   -4.1721 H   0  0  0  0  0  0  0  0  0  0  0  0
    2.5446    2.1408   -1.5364 H   0  0  0  0  0  0  0  0  0  0  0  0
    1.8053    3.6522   -2.0077 H   0  0  0  0  0  0  0  0  0  0  0  0
    2.1869    2.0067   -3.9014 H   0  0  0  0  0  0  0  0  0  0  0  0
    0.5485    2.6231   -3.7764 H   0  0  0  0  0  0  0  0  0  0  0  0
  2  1  1  0  0  0  0
  3  7  1  0  0  0  0
  4  3  1  0  0  0  0
  5  4  1  0  0  0  0
  5  6  2  0  0  0  0
  6  8  1  0  0  0  0
  7  9  1  0  0  0  0
  7 28  1  0  0  0  0
  8  3  2  0  0  0  0
  9 16  1  0  0  0  0
 10  5  1  0  0  0  0
 10 29  1  0  0  0  0
 11  1  1  0  0  0  0
 12 10  1  0  0  0  0
 12 30  1  0  0  0  0
 12 31  1  0  0  0  0
 13 10  1  0  0  0  0
 13 12  1  0  0  0  0
 13 32  1  0  0  0  0
 13 33  1  0  0  0  0
 14  1  2  0  0  0  0
 15  1  2  0  0  0  0
 16 22  1  0  0  0  0
 16 21  2  0  0  0  0
 17  2  1  0  0  0  0
 17 34  1  0  0  0  0
 18  9  2  0  0  0  0
 19 11  2  0  0  0  0
 19 35  1  0  0  0  0
 20 11  1  0  0  0  0
 20 36  1  0  0  0  0
 21 19  1  0  0  0  0
 21 37  1  0  0  0  0
 22 20  2  0  0  0  0
 22 38  1  0  0  0  0
 23  2  1  0  0  0  0
 23 39  1  0  0  0  0
 23 40  1  0  0  0  0
 24 17  1  0  0  0  0
 24 41  1  0  0  0  0
 24 42  1  0  0  0  0
 24 43  1  0  0  0  0
 25 17  1  0  0  0  0
 25 27  1  0  0  0  0
 25 44  1  0  0  0  0
 25 45  1  0  0  0  0
 26 23  1  0  0  0  0
 26 46  1  0  0  0  0
 26 47  1  0  0  0  0
 27 26  1  0  0  0  0
 27 48  1  0  0  0  0
 27 49  1  0  0  0  0
M  END
>  <Mol_ID>
8931

>  <Formula>
C18H22N4O4S

>  <MolWeight>
390.45668

>  <Cat>
P2490

>  <Name>
WAY-326687

>  <Synonyms>
N/A

>  <Target>
lipoteichoic acid synthase

>  <Form>
free base

>  <CAS>
850935-88-5

>  <URL>
N/A

$$$$
