WAY-332060
 OpenBabel08302521443D

 49 52  0  0  0  0  0  0  0  0999 V2000
    2.3219    4.4870    0.0403 N   0  0  0  0  0  0  0  0  0  0  0  0
    1.9689    3.1785    0.2569 C   0  0  0  0  0  0  0  0  0  0  0  0
    3.5798    4.5762    0.4101 C   0  0  0  0  0  0  0  0  0  0  0  0
    4.0743    3.4216    0.9526 O   0  0  0  0  0  0  0  0  0  0  0  0
    3.0301    2.5371    0.8710 C   0  0  0  0  0  0  0  0  0  0  0  0
   -0.1148    3.2997   -1.6327 S   0  0  3  0  0  0  0  0  0  0  0  0
    0.5993    2.6890   -0.0603 C   0  0  0  0  0  0  0  0  0  0  0  0
   -0.2012    5.0663   -1.2336 C   0  0  0  0  0  0  0  0  0  0  0  0
   -0.8918    5.9093   -2.2844 C   0  0  0  0  0  0  0  0  0  0  0  0
   -1.2695   11.7975   -2.0405 C   0  0  0  0  0  0  0  0  0  0  0  0
    4.4406    5.7532    0.3685 C   0  0  0  0  0  0  0  0  0  0  0  0
    0.0438   11.9154   -2.4308 C   0  0  0  0  0  0  0  0  0  0  0  0
   -1.7966   12.9831   -1.6294 O   0  0  0  0  0  0  0  0  0  0  0  0
    0.5083   13.1851   -2.3059 O   0  0  0  0  0  0  0  0  0  0  0  0
   -0.6827   13.8691   -1.8661 C   0  0  0  0  0  0  0  0  0  0  0  0
   -1.3011    7.1398   -1.7999 N   0  0  0  0  0  0  0  0  0  0  0  0
    0.8914    3.0659   -2.7188 O   0  0  0  0  0  0  0  0  0  0  0  0
   -1.9403   10.5927   -2.0824 C   0  0  0  0  0  0  0  0  0  0  0  0
   -1.0444    5.5833   -3.4554 O   0  0  0  0  0  0  0  0  0  0  0  0
    3.9515    6.9350   -0.2150 C   0  0  0  0  0  0  0  0  0  0  0  0
    5.7265    5.7598    0.9187 C   0  0  0  0  0  0  0  0  0  0  0  0
    0.7593   10.8339   -2.8935 C   0  0  0  0  0  0  0  0  0  0  0  0
   -1.2452    9.4648   -2.5481 C   0  0  0  0  0  0  0  0  0  0  0  0
   -1.9352    8.1262   -2.6529 C   0  0  0  0  0  0  0  0  0  0  0  0
    5.9872    8.1003    0.3538 C   0  0  0  0  0  0  0  0  0  0  0  0
    0.1029    9.6006   -2.9599 C   0  0  0  0  0  0  0  0  0  0  0  0
    6.4940    6.9293    0.9164 C   0  0  0  0  0  0  0  0  0  0  0  0
    4.7181    8.1024   -0.2175 C   0  0  0  0  0  0  0  0  0  0  0  0
    3.2573    1.2046    1.4568 C   0  0  0  0  0  0  0  0  0  0  0  0
    0.6069    1.5965   -0.1455 H   0  0  0  0  0  0  0  0  0  0  0  0
   -0.0903    2.9520    0.7469 H   0  0  0  0  0  0  0  0  0  0  0  0
   -0.7382    5.1660   -0.2838 H   0  0  0  0  0  0  0  0  0  0  0  0
    0.7936    5.4943   -1.1425 H   0  0  0  0  0  0  0  0  0  0  0  0
   -0.4606   14.4089   -0.9392 H   0  0  0  0  0  0  0  0  0  0  0  0
   -0.9695   14.5963   -2.6350 H   0  0  0  0  0  0  0  0  0  0  0  0
   -1.1404    7.3928   -0.8346 H   0  0  0  0  0  0  0  0  0  0  0  0
   -2.9791   10.5385   -1.7731 H   0  0  0  0  0  0  0  0  0  0  0  0
    2.9620    6.9502   -0.6683 H   0  0  0  0  0  0  0  0  0  0  0  0
    6.1387    4.8565    1.3648 H   0  0  0  0  0  0  0  0  0  0  0  0
    1.7911   10.9398   -3.2086 H   0  0  0  0  0  0  0  0  0  0  0  0
   -1.9516    7.8019   -3.6990 H   0  0  0  0  0  0  0  0  0  0  0  0
   -2.9748    8.2032   -2.3177 H   0  0  0  0  0  0  0  0  0  0  0  0
    6.5765    9.0105    0.3663 H   0  0  0  0  0  0  0  0  0  0  0  0
    0.6401    8.7330   -3.3462 H   0  0  0  0  0  0  0  0  0  0  0  0
    7.4865    6.9229    1.3533 H   0  0  0  0  0  0  0  0  0  0  0  0
    4.3180    9.0111   -0.6641 H   0  0  0  0  0  0  0  0  0  0  0  0
    4.1118    0.7119    0.9842 H   0  0  0  0  0  0  0  0  0  0  0  0
    3.4672    1.2990    2.5280 H   0  0  0  0  0  0  0  0  0  0  0  0
    2.3810    0.5603    1.3430 H   0  0  0  0  0  0  0  0  0  0  0  0
  2  1  1  0  0  0  0
  3  1  2  0  0  0  0
  4  3  1  0  0  0  0
  5  2  2  0  0  0  0
  5  4  1  0  0  0  0
  6  7  1  0  0  0  0
  7  2  1  0  0  0  0
  7 30  1  0  0  0  0
  7 31  1  0  0  0  0
  8  6  1  0  0  0  0
  8 32  1  0  0  0  0
  8 33  1  0  0  0  0
  9  8  1  0  0  0  0
 10 18  2  0  0  0  0
 10 12  1  0  0  0  0
 11  3  1  0  0  0  0
 12 22  2  0  0  0  0
 13 10  1  0  0  0  0
 14 12  1  0  0  0  0
 14 15  1  0  0  0  0
 15 13  1  0  0  0  0
 15 34  1  0  0  0  0
 15 35  1  0  0  0  0
 16  9  1  0  0  0  0
 16 36  1  0  0  0  0
 17  6  2  0  0  0  0
 18 23  1  0  0  0  0
 18 37  1  0  0  0  0
 19  9  2  0  0  0  0
 20 11  2  0  0  0  0
 20 38  1  0  0  0  0
 21 11  1  0  0  0  0
 21 39  1  0  0  0  0
 22 26  1  0  0  0  0
 22 40  1  0  0  0  0
 23 24  1  0  0  0  0
 24 16  1  0  0  0  0
 24 41  1  0  0  0  0
 24 42  1  0  0  0  0
 25 27  1  0  0  0  0
 25 28  2  0  0  0  0
 25 43  1  0  0  0  0
 26 23  2  0  0  0  0
 26 44  1  0  0  0  0
 27 21  2  0  0  0  0
 27 45  1  0  0  0  0
 28 20  1  0  0  0  0
 28 46  1  0  0  0  0
 29  5  1  0  0  0  0
 29 47  1  0  0  0  0
 29 48  1  0  0  0  0
 29 49  1  0  0  0  0
M  END
>  <Mol_ID>
9250

>  <Formula>
C21H19ClN2O5S

>  <MolWeight>
446.90396

>  <Cat>
P2703

>  <Name>
WAY-332060

>  <Synonyms>
N/A

>  <Target>
beta-catenin

>  <Form>
free base

>  <CAS>
1015858-82-8

>  <URL>
N/A

$$$$
