WAY-661798
 OpenBabel08302521443D

 38 41  0  0  0  0  0  0  0  0999 V2000
    0.1248   -1.2808   -0.1530 C   0  0  0  0  0  0  0  0  0  0  0  0
    1.4545   -0.9183   -0.1660 C   0  0  0  0  0  0  0  0  0  0  0  0
    1.4572    0.5106   -0.0526 C   0  0  0  0  0  0  0  0  0  0  0  0
    0.1892    0.9674    0.0367 N   0  0  0  0  0  0  0  0  0  0  0  0
   -0.5782   -0.1242   -0.0372 N   0  0  0  0  0  0  0  0  0  0  0  0
    2.5603    1.4806   -0.1166 C   0  0  0  0  0  0  0  0  0  0  0  0
    3.6957    1.2517   -0.9045 C   0  0  0  0  0  0  0  0  0  0  0  0
    4.6956    2.2225   -1.0226 C   0  0  0  0  0  0  0  0  0  0  0  0
    4.5679    3.4427   -0.3637 C   0  0  0  0  0  0  0  0  0  0  0  0
    3.4454    3.6907    0.4218 C   0  0  0  0  0  0  0  0  0  0  0  0
    2.4496    2.7160    0.5438 C   0  0  0  0  0  0  0  0  0  0  0  0
    2.5932   -1.8859   -0.2389 C   0  0  0  0  0  0  0  0  0  0  0  0
    2.5825   -3.1354   -0.8300 N   0  0  0  0  0  0  0  0  0  0  0  0
    3.7971   -3.7388   -0.5967 C   0  0  0  0  0  0  0  0  0  0  0  0
    4.5244   -2.7746    0.0932 C   0  0  0  0  0  0  0  0  0  0  0  0
    3.7816   -1.6370    0.2759 N   0  0  0  0  0  0  0  0  0  0  0  0
    4.3302   -4.9929   -0.9265 C   0  0  0  0  0  0  0  0  0  0  0  0
    5.6425   -5.2550   -0.5230 C   0  0  0  0  0  0  0  0  0  0  0  0
    6.3902   -4.3040    0.1721 C   0  0  0  0  0  0  0  0  0  0  0  0
    5.8408   -3.0556    0.4889 C   0  0  0  0  0  0  0  0  0  0  0  0
    1.5575   -3.6514   -1.7047 C   0  0  0  0  0  0  0  0  0  0  0  0
   -2.0149    0.0125   -0.0245 C   0  0  0  0  0  0  0  0  0  0  0  0
   -0.3767   -2.2354   -0.1716 H   0  0  0  0  0  0  0  0  0  0  0  0
    3.8153    0.3210   -1.4511 H   0  0  0  0  0  0  0  0  0  0  0  0
    5.5683    2.0236   -1.6382 H   0  0  0  0  0  0  0  0  0  0  0  0
    5.3390    4.2009   -0.4679 H   0  0  0  0  0  0  0  0  0  0  0  0
    3.3341    4.6437    0.9301 H   0  0  0  0  0  0  0  0  0  0  0  0
    1.5696    2.9316    1.1466 H   0  0  0  0  0  0  0  0  0  0  0  0
    3.7572   -5.7389   -1.4664 H   0  0  0  0  0  0  0  0  0  0  0  0
    6.0919   -6.2174   -0.7640 H   0  0  0  0  0  0  0  0  0  0  0  0
    7.4097   -4.5323    0.4738 H   0  0  0  0  0  0  0  0  0  0  0  0
    6.4131   -2.3119    1.0324 H   0  0  0  0  0  0  0  0  0  0  0  0
    0.6915   -3.9373   -1.1059 H   0  0  0  0  0  0  0  0  0  0  0  0
    1.2993   -2.8801   -2.4360 H   0  0  0  0  0  0  0  0  0  0  0  0
    1.9234   -4.5291   -2.2412 H   0  0  0  0  0  0  0  0  0  0  0  0
   -2.3011    0.6199    0.8381 H   0  0  0  0  0  0  0  0  0  0  0  0
   -2.3168    0.4971   -0.9555 H   0  0  0  0  0  0  0  0  0  0  0  0
   -2.4734   -0.9765    0.0478 H   0  0  0  0  0  0  0  0  0  0  0  0
  1  2  2  0  0  0  0
  1 23  1  0  0  0  0
  2  3  1  0  0  0  0
  2 12  1  0  0  0  0
  3  4  2  0  0  0  0
  3  6  1  0  0  0  0
  4  5  1  0  0  0  0
  5  1  1  0  0  0  0
  5 22  1  0  0  0  0
  6  7  2  0  0  0  0
  7  8  1  0  0  0  0
  7 24  1  0  0  0  0
  8  9  2  0  0  0  0
  8 25  1  0  0  0  0
  9 10  1  0  0  0  0
  9 26  1  0  0  0  0
 10 11  2  0  0  0  0
 10 27  1  0  0  0  0
 11  6  1  0  0  0  0
 11 28  1  0  0  0  0
 12 13  1  0  0  0  0
 13 14  1  0  0  0  0
 13 21  1  0  0  0  0
 14 15  2  0  0  0  0
 14 17  1  0  0  0  0
 15 16  1  0  0  0  0
 16 12  2  0  0  0  0
 17 18  2  0  0  0  0
 17 29  1  0  0  0  0
 18 19  1  0  0  0  0
 18 30  1  0  0  0  0
 19 20  2  0  0  0  0
 19 31  1  0  0  0  0
 20 15  1  0  0  0  0
 20 32  1  0  0  0  0
 21 33  1  0  0  0  0
 21 34  1  0  0  0  0
 21 35  1  0  0  0  0
 22 36  1  0  0  0  0
 22 37  1  0  0  0  0
 22 38  1  0  0  0  0
M  END
>  <Mol_ID>
9132

>  <Formula>
C18H16N4

>  <MolWeight>
288.34644

>  <Cat>
P3213

>  <Name>
WAY-661798

>  <Synonyms>
N/A

>  <Target>
Androgen Receptor

>  <Form>
free base

>  <CAS>
896797-56-1

>  <URL>
N/A

$$$$
