WAY-332083
 OpenBabel08302521443D

 46 48  0  0  0  0  0  0  0  0999 V2000
   -0.2588    4.1077    1.8235 N   0  0  0  0  0  0  0  0  0  0  0  0
   -0.3457    2.9245    1.1208 C   0  0  0  0  0  0  0  0  0  0  0  0
   -1.2732    4.0651    2.6657 C   0  0  0  0  0  0  0  0  0  0  0  0
   -2.0093    2.9123    2.5888 O   0  0  0  0  0  0  0  0  0  0  0  0
   -1.4119    2.1887    1.5955 C   0  0  0  0  0  0  0  0  0  0  0  0
   -0.1386    3.2991   -1.5559 S   0  0  3  0  0  0  0  0  0  0  0  0
    0.5708    2.6516   -0.0115 C   0  0  0  0  0  0  0  0  0  0  0  0
   -0.1279    5.0804   -1.1896 C   0  0  0  0  0  0  0  0  0  0  0  0
    1.2187    5.6892   -0.8642 C   0  0  0  0  0  0  0  0  0  0  0  0
   -0.1594    8.6794   -1.6908 C   0  0  0  0  0  0  0  0  0  0  0  0
    1.2745    7.0128   -0.5288 N   0  0  0  0  0  0  0  0  0  0  0  0
   -1.7517    5.1031    3.5720 C   0  0  0  0  0  0  0  0  0  0  0  0
    0.7901    3.0045   -2.6954 O   0  0  0  0  0  0  0  0  0  0  0  0
    0.2041    7.9812   -0.4031 C   0  0  0  0  0  0  0  0  0  0  0  0
   -1.4372    9.2492   -1.8204 C   0  0  0  0  0  0  0  0  0  0  0  0
    2.2856    5.0779   -0.8864 O   0  0  0  0  0  0  0  0  0  0  0  0
   -2.0387    0.9031    1.2419 C   0  0  0  0  0  0  0  0  0  0  0  0
    0.7515    8.8430   -2.7451 C   0  0  0  0  0  0  0  0  0  0  0  0
   -1.0715    6.3297    3.6418 C   0  0  0  0  0  0  0  0  0  0  0  0
   -2.9045    4.9312    4.3524 C   0  0  0  0  0  0  0  0  0  0  0  0
   -1.8119    9.9103   -2.9927 C   0  0  0  0  0  0  0  0  0  0  0  0
    0.3752    9.5035   -3.9180 C   0  0  0  0  0  0  0  0  0  0  0  0
   -1.5378    7.3605    4.4611 C   0  0  0  0  0  0  0  0  0  0  0  0
   -3.3710    5.9619    5.1721 C   0  0  0  0  0  0  0  0  0  0  0  0
   -0.9091   10.0268   -4.0460 C   0  0  0  0  0  0  0  0  0  0  0  0
   -2.6895    7.1761    5.2232 C   0  0  0  0  0  0  0  0  0  0  0  0
    1.5661    3.0589    0.1710 H   0  0  0  0  0  0  0  0  0  0  0  0
    0.6899    1.5704   -0.1449 H   0  0  0  0  0  0  0  0  0  0  0  0
   -0.5231    5.5740   -2.0826 H   0  0  0  0  0  0  0  0  0  0  0  0
   -0.8313    5.2576   -0.3725 H   0  0  0  0  0  0  0  0  0  0  0  0
    2.2223    7.3374   -0.3738 H   0  0  0  0  0  0  0  0  0  0  0  0
   -0.6730    7.4767    0.0133 H   0  0  0  0  0  0  0  0  0  0  0  0
    0.5422    8.7323    0.3196 H   0  0  0  0  0  0  0  0  0  0  0  0
   -2.1556    9.1818   -1.0058 H   0  0  0  0  0  0  0  0  0  0  0  0
   -2.0705    0.2372    2.1095 H   0  0  0  0  0  0  0  0  0  0  0  0
   -3.0639    1.0647    0.8941 H   0  0  0  0  0  0  0  0  0  0  0  0
   -1.4875    0.3970    0.4438 H   0  0  0  0  0  0  0  0  0  0  0  0
    1.7643    8.4525   -2.6723 H   0  0  0  0  0  0  0  0  0  0  0  0
   -0.1714    6.4872    3.0489 H   0  0  0  0  0  0  0  0  0  0  0  0
   -3.4563    3.9941    4.3218 H   0  0  0  0  0  0  0  0  0  0  0  0
   -2.8089   10.3340   -3.0845 H   0  0  0  0  0  0  0  0  0  0  0  0
    1.0866    9.6065   -4.7339 H   0  0  0  0  0  0  0  0  0  0  0  0
   -1.0032    8.3059    4.5037 H   0  0  0  0  0  0  0  0  0  0  0  0
   -4.2684    5.8158    5.7684 H   0  0  0  0  0  0  0  0  0  0  0  0
   -1.2031   10.5293   -4.9640 H   0  0  0  0  0  0  0  0  0  0  0  0
   -3.0557    7.9780    5.8591 H   0  0  0  0  0  0  0  0  0  0  0  0
  2  1  1  0  0  0  0
  3  1  2  0  0  0  0
  4  3  1  0  0  0  0
  5  2  2  0  0  0  0
  5  4  1  0  0  0  0
  6  7  1  0  0  0  0
  7  2  1  0  0  0  0
  7 27  1  0  0  0  0
  7 28  1  0  0  0  0
  8  6  1  0  0  0  0
  8 29  1  0  0  0  0
  8 30  1  0  0  0  0
  9  8  1  0  0  0  0
 10 14  1  0  0  0  0
 11  9  1  0  0  0  0
 11 31  1  0  0  0  0
 12  3  1  0  0  0  0
 13  6  2  0  0  0  0
 14 11  1  0  0  0  0
 14 32  1  0  0  0  0
 14 33  1  0  0  0  0
 15 10  2  0  0  0  0
 15 34  1  0  0  0  0
 16  9  2  0  0  0  0
 17  5  1  0  0  0  0
 17 35  1  0  0  0  0
 17 36  1  0  0  0  0
 17 37  1  0  0  0  0
 18 10  1  0  0  0  0
 18 38  1  0  0  0  0
 19 12  2  0  0  0  0
 19 39  1  0  0  0  0
 20 12  1  0  0  0  0
 20 40  1  0  0  0  0
 21 15  1  0  0  0  0
 21 41  1  0  0  0  0
 22 18  2  0  0  0  0
 22 42  1  0  0  0  0
 23 19  1  0  0  0  0
 23 43  1  0  0  0  0
 24 20  2  0  0  0  0
 24 44  1  0  0  0  0
 25 22  1  0  0  0  0
 25 21  2  0  0  0  0
 25 45  1  0  0  0  0
 26 24  1  0  0  0  0
 26 23  2  0  0  0  0
 26 46  1  0  0  0  0
M  END
>  <Mol_ID>
9199

>  <Formula>
C20H19ClN2O3S

>  <MolWeight>
402.89446

>  <Cat>
P2722

>  <Name>
WAY-332083

>  <Synonyms>
N/A

>  <Target>
beta-catenin

>  <Form>
free base

>  <CAS>
1015859-72-9

>  <URL>
N/A

$$$$
