WAY-386508
 OpenBabel08302521413D

 58 61  0  0  0  0  0  0  0  0999 V2000
   -0.8225   -0.5194    1.2780 C   0  0  0  0  0  0  0  0  0  0  0  0
   -0.9964   -1.4655    0.2104 C   0  0  0  0  0  0  0  0  0  0  0  0
   -0.5237    0.7792    0.8606 C   0  0  0  0  0  0  0  0  0  0  0  0
   -0.9047   -0.5356    2.7452 C   0  0  0  0  0  0  0  0  0  0  0  0
   -1.3014   -2.8651    0.3339 N   0  0  0  0  0  0  0  0  0  0  0  0
   -0.8650   -0.9894   -1.0600 N   0  0  0  0  0  0  0  0  0  0  0  0
   -0.2895    1.8852    2.1210 S   0  0  0  0  0  0  0  0  0  0  0  0
   -0.3963    1.2382   -0.3924 N   0  0  0  0  0  0  0  0  0  0  0  0
   -0.5342    0.6898    3.3027 C   0  0  0  0  0  0  0  0  0  0  0  0
   -1.3274   -1.7058    3.5760 C   0  0  0  0  0  0  0  0  0  0  0  0
   -1.8980   -3.3565   -0.9614 C   0  0  0  0  0  0  0  0  0  0  0  0
   -0.0598   -3.6289    0.6423 C   0  0  0  0  0  0  0  0  0  0  0  0
   -0.5761    0.2917   -1.2961 C   0  0  0  0  0  0  0  0  0  0  0  0
   -0.3487    1.0705    4.7386 C   0  0  0  0  0  0  0  0  0  0  0  0
   -2.1531   -4.8806   -0.9721 C   0  0  0  0  0  0  0  0  0  0  0  0
   -0.3407   -5.1524    0.6602 C   0  0  0  0  0  0  0  0  0  0  0  0
   -0.9180   -5.6449   -0.6269 N   0  0  0  0  0  0  0  0  0  0  0  0
    0.1751   -5.9956   -1.9026 S   0  0  0  0  0  0  0  0  0  0  0  0
   -0.4006   -7.5939   -2.4696 C   0  0  0  0  0  0  0  0  0  0  0  0
   -0.0384   -5.0437   -2.9668 O   0  0  0  0  0  0  0  0  0  0  0  0
    1.4837   -6.2043   -1.3224 O   0  0  0  0  0  0  0  0  0  0  0  0
   -1.3394   -7.6709   -3.4964 C   0  0  0  0  0  0  0  0  0  0  0  0
    0.1400   -8.7672   -1.9423 C   0  0  0  0  0  0  0  0  0  0  0  0
   -1.8108   -8.9239   -3.9189 C   0  0  0  0  0  0  0  0  0  0  0  0
   -0.3375  -10.0170   -2.3709 C   0  0  0  0  0  0  0  0  0  0  0  0
   -1.3534  -10.1256   -3.3423 C   0  0  0  0  0  0  0  0  0  0  0  0
   -1.9543  -11.5005   -3.7113 C   0  0  0  0  0  0  0  0  0  0  0  0
   -3.0447  -11.4178   -4.8058 C   0  0  0  0  0  0  0  0  0  0  0  0
   -0.8657  -12.4689   -4.2215 C   0  0  0  0  0  0  0  0  0  0  0  0
   -2.6180  -12.1290   -2.4650 C   0  0  0  0  0  0  0  0  0  0  0  0
   -2.3689   -1.9630    3.3689 H   0  0  0  0  0  0  0  0  0  0  0  0
   -0.6917   -2.5694    3.4066 H   0  0  0  0  0  0  0  0  0  0  0  0
   -1.2647   -1.4704    4.6503 H   0  0  0  0  0  0  0  0  0  0  0  0
   -2.8518   -2.8432   -1.1376 H   0  0  0  0  0  0  0  0  0  0  0  0
   -1.2317   -3.1382   -1.8050 H   0  0  0  0  0  0  0  0  0  0  0  0
    0.7229   -3.4115   -0.0944 H   0  0  0  0  0  0  0  0  0  0  0  0
    0.3200   -3.3466    1.6302 H   0  0  0  0  0  0  0  0  0  0  0  0
   -0.4835    0.5830   -2.3367 H   0  0  0  0  0  0  0  0  0  0  0  0
   -1.2824    0.9620    5.2980 H   0  0  0  0  0  0  0  0  0  0  0  0
    0.4143    0.4323    5.1976 H   0  0  0  0  0  0  0  0  0  0  0  0
   -0.0103    2.1087    4.8559 H   0  0  0  0  0  0  0  0  0  0  0  0
   -2.9226   -5.1348   -0.2350 H   0  0  0  0  0  0  0  0  0  0  0  0
   -2.5394   -5.1926   -1.9469 H   0  0  0  0  0  0  0  0  0  0  0  0
   -1.0724   -5.3821    1.4457 H   0  0  0  0  0  0  0  0  0  0  0  0
    0.5622   -5.7138    0.9212 H   0  0  0  0  0  0  0  0  0  0  0  0
   -1.7174   -6.7715   -3.9725 H   0  0  0  0  0  0  0  0  0  0  0  0
    0.9272   -8.7273   -1.1901 H   0  0  0  0  0  0  0  0  0  0  0  0
   -2.5581   -8.9273   -4.7082 H   0  0  0  0  0  0  0  0  0  0  0  0
    0.0894  -10.9131   -1.9210 H   0  0  0  0  0  0  0  0  0  0  0  0
   -2.6435  -11.0148   -5.7430 H   0  0  0  0  0  0  0  0  0  0  0  0
   -3.4614  -12.4065   -5.0306 H   0  0  0  0  0  0  0  0  0  0  0  0
   -3.8822  -10.7838   -4.4913 H   0  0  0  0  0  0  0  0  0  0  0  0
   -0.1038  -12.6731   -3.4623 H   0  0  0  0  0  0  0  0  0  0  0  0
   -1.3047  -13.4382   -4.4968 H   0  0  0  0  0  0  0  0  0  0  0  0
   -0.3597  -12.0717   -5.1070 H   0  0  0  0  0  0  0  0  0  0  0  0
   -1.8967  -12.3152   -1.6618 H   0  0  0  0  0  0  0  0  0  0  0  0
   -3.4048  -11.4811   -2.0626 H   0  0  0  0  0  0  0  0  0  0  0  0
   -3.0794  -13.0955   -2.7106 H   0  0  0  0  0  0  0  0  0  0  0  0
  1  2  2  0  0  0  0
  1  3  1  0  0  0  0
  1  4  1  0  0  0  0
  2  5  1  0  0  0  0
  2  6  1  0  0  0  0
  3  7  1  0  0  0  0
  3  8  2  0  0  0  0
  4  9  2  0  0  0  0
  4 10  1  0  0  0  0
  5 11  1  0  0  0  0
  5 12  1  0  0  0  0
  6 13  2  0  0  0  0
  7  9  1  0  0  0  0
  8 13  1  0  0  0  0
  9 14  1  0  0  0  0
 10 31  1  0  0  0  0
 10 32  1  0  0  0  0
 10 33  1  0  0  0  0
 11 15  1  0  0  0  0
 11 34  1  0  0  0  0
 11 35  1  0  0  0  0
 12 16  1  0  0  0  0
 12 36  1  0  0  0  0
 12 37  1  0  0  0  0
 13 38  1  0  0  0  0
 14 39  1  0  0  0  0
 14 40  1  0  0  0  0
 14 41  1  0  0  0  0
 15 17  1  0  0  0  0
 15 42  1  0  0  0  0
 15 43  1  0  0  0  0
 16 17  1  0  0  0  0
 16 44  1  0  0  0  0
 16 45  1  0  0  0  0
 17 18  1  0  0  0  0
 18 19  1  0  0  0  0
 18 20  2  0  0  0  0
 18 21  2  0  0  0  0
 19 22  2  0  0  0  0
 19 23  1  0  0  0  0
 22 24  1  0  0  0  0
 22 46  1  0  0  0  0
 23 25  2  0  0  0  0
 23 47  1  0  0  0  0
 24 26  2  0  0  0  0
 24 48  1  0  0  0  0
 25 26  1  0  0  0  0
 25 49  1  0  0  0  0
 26 27  1  0  0  0  0
 27 28  1  0  0  0  0
 27 29  1  0  0  0  0
 27 30  1  0  0  0  0
 28 50  1  0  0  0  0
 28 51  1  0  0  0  0
 28 52  1  0  0  0  0
 29 53  1  0  0  0  0
 29 54  1  0  0  0  0
 29 55  1  0  0  0  0
 30 56  1  0  0  0  0
 30 57  1  0  0  0  0
 30 58  1  0  0  0  0
M  END
>  <Mol_ID>
8451

>  <Formula>
C22H28N4O2S2

>  <MolWeight>
444.61332

>  <Cat>
P2816

>  <Name>
WAY-386508

>  <Synonyms>
N/A

>  <Target>
histamine receptors

>  <Form>
free base

>  <CAS>
379244-91-4

>  <URL>
N/A

$$$$
