WAY-608284-A
 OpenBabel08302521443D

 59 61  0  0  0  0  0  0  0  0999 V2000
   -2.3889   -0.2839    0.8144 C   0  0  0  0  0  0  0  0  0  0  0  0
   -1.3776   -1.2114    0.9680 C   0  0  0  0  0  0  0  0  0  0  0  0
   -1.8090    1.2975    0.5667 S   0  0  0  0  0  0  0  0  0  0  0  0
   -0.0765   -0.5829    0.7487 C   0  0  0  0  0  0  0  0  0  0  0  0
   -0.1908    0.7721    0.4676 C   0  0  0  0  0  0  0  0  0  0  0  0
   -3.7672   -0.2966    0.8929 N   0  0  0  0  0  0  0  0  0  0  0  0
   -1.5011   -2.5819    1.4490 C   0  0  0  0  0  0  0  0  0  0  0  0
   -4.4933   -0.8076   -0.1768 C   0  0  0  0  0  0  0  0  0  0  0  0
   -5.8728    1.4984    1.5882 N   0  0  0  0  0  0  0  0  0  0  0  0
   -5.8227   -0.0891   -0.4328 C   0  0  0  0  0  0  0  0  0  0  0  0
   -1.2570   -2.8872    2.6065 O   0  0  0  0  0  0  0  0  0  0  0  0
   -4.0849   -1.6749   -0.9496 O   0  0  0  0  0  0  0  0  0  0  0  0
   -6.5712    0.4689    0.7884 C   0  0  0  0  0  0  0  0  0  0  0  0
   -5.6959    2.8125    0.9515 C   0  0  0  0  0  0  0  0  0  0  0  0
   -6.5385    1.6868    2.8925 C   0  0  0  0  0  0  0  0  0  0  0  0
   -1.6683   -3.5013    0.4368 O   0  0  0  0  0  0  0  0  0  0  0  0
    1.2326   -1.3270    0.8175 C   0  0  0  0  0  0  0  0  0  0  0  0
    0.8733    1.7723    0.1003 C   0  0  0  0  0  0  0  0  0  0  0  0
   -7.9208    2.3316    2.7743 C   0  0  0  0  0  0  0  0  0  0  0  0
   -6.9298    3.7211    0.8680 C   0  0  0  0  0  0  0  0  0  0  0  0
   -7.8588    3.7006    2.0918 C   0  0  0  0  0  0  0  0  0  0  0  0
   -1.5158   -4.8794    0.8236 C   0  0  0  0  0  0  0  0  0  0  0  0
   -9.2666    4.1534    1.6883 C   0  0  0  0  0  0  0  0  0  0  0  0
    2.1688   -0.9439   -0.3251 C   0  0  0  0  0  0  0  0  0  0  0  0
    2.2493    1.4518    0.6782 C   0  0  0  0  0  0  0  0  0  0  0  0
   -0.0739   -5.3240    0.6418 C   0  0  0  0  0  0  0  0  0  0  0  0
    2.9857    0.3167   -0.0409 C   0  0  0  0  0  0  0  0  0  0  0  0
   -4.1499    0.6113    1.1781 H   0  0  0  0  0  0  0  0  0  0  0  0
   -5.6577    0.7015   -1.1746 H   0  0  0  0  0  0  0  0  0  0  0  0
   -6.4824   -0.8285   -0.9041 H   0  0  0  0  0  0  0  0  0  0  0  0
   -7.5504    0.8339    0.4545 H   0  0  0  0  0  0  0  0  0  0  0  0
   -6.7638   -0.3931    1.4409 H   0  0  0  0  0  0  0  0  0  0  0  0
   -4.9258    3.3452    1.5274 H   0  0  0  0  0  0  0  0  0  0  0  0
   -5.2633    2.7031   -0.0490 H   0  0  0  0  0  0  0  0  0  0  0  0
   -5.9000    2.3120    3.5311 H   0  0  0  0  0  0  0  0  0  0  0  0
   -6.6216    0.7276    3.4139 H   0  0  0  0  0  0  0  0  0  0  0  0
    1.0479   -2.4034    0.7524 H   0  0  0  0  0  0  0  0  0  0  0  0
    1.7056   -1.1534    1.7932 H   0  0  0  0  0  0  0  0  0  0  0  0
    0.9346    1.8397   -0.9942 H   0  0  0  0  0  0  0  0  0  0  0  0
    0.5817    2.7662    0.4626 H   0  0  0  0  0  0  0  0  0  0  0  0
   -8.3503    2.4469    3.7774 H   0  0  0  0  0  0  0  0  0  0  0  0
   -8.6030    1.6647    2.2336 H   0  0  0  0  0  0  0  0  0  0  0  0
   -7.4918    3.4741   -0.0397 H   0  0  0  0  0  0  0  0  0  0  0  0
   -6.5802    4.7563    0.7317 H   0  0  0  0  0  0  0  0  0  0  0  0
   -7.4725    4.4212    2.8271 H   0  0  0  0  0  0  0  0  0  0  0  0
   -1.8489   -5.0573    1.8517 H   0  0  0  0  0  0  0  0  0  0  0  0
   -2.1632   -5.4752    0.1727 H   0  0  0  0  0  0  0  0  0  0  0  0
   -9.2398    5.1285    1.1915 H   0  0  0  0  0  0  0  0  0  0  0  0
   -9.7243    3.4377    0.9948 H   0  0  0  0  0  0  0  0  0  0  0  0
   -9.9213    4.2349    2.5627 H   0  0  0  0  0  0  0  0  0  0  0  0
    1.5945   -0.8094   -1.2523 H   0  0  0  0  0  0  0  0  0  0  0  0
    2.8644   -1.7687   -0.5176 H   0  0  0  0  0  0  0  0  0  0  0  0
    2.1671    1.2254    1.7494 H   0  0  0  0  0  0  0  0  0  0  0  0
    2.8777    2.3486    0.6082 H   0  0  0  0  0  0  0  0  0  0  0  0
    0.2330   -5.2307   -0.4051 H   0  0  0  0  0  0  0  0  0  0  0  0
    0.6134   -4.7105    1.2323 H   0  0  0  0  0  0  0  0  0  0  0  0
    0.0517   -6.3692    0.9466 H   0  0  0  0  0  0  0  0  0  0  0  0
    3.8580    0.0419    0.5654 H   0  0  0  0  0  0  0  0  0  0  0  0
    3.3832    0.6892   -0.9931 H   0  0  0  0  0  0  0  0  0  0  0  0
  2  1  2  0  0  0  0
  3  1  1  0  0  0  0
  4  2  1  0  0  0  0
  4  5  2  0  0  0  0
  5  3  1  0  0  0  0
  6  1  1  0  0  0  0
  6 28  1  0  0  0  0
  7  2  1  0  0  0  0
  8  6  1  0  0  0  0
  9 13  1  0  0  0  0
 10  8  1  0  0  0  0
 10 29  1  0  0  0  0
 10 30  1  0  0  0  0
 11  7  2  0  0  0  0
 12  8  2  0  0  0  0
 13 10  1  0  0  0  0
 13 31  1  0  0  0  0
 13 32  1  0  0  0  0
 14  9  1  0  0  0  0
 14 33  1  0  0  0  0
 14 34  1  0  0  0  0
 15  9  1  0  0  0  0
 15 35  1  0  0  0  0
 15 36  1  0  0  0  0
 16  7  1  0  0  0  0
 17  4  1  0  0  0  0
 17 37  1  0  0  0  0
 17 38  1  0  0  0  0
 18  5  1  0  0  0  0
 18 39  1  0  0  0  0
 18 40  1  0  0  0  0
 19 15  1  0  0  0  0
 19 41  1  0  0  0  0
 19 42  1  0  0  0  0
 20 14  1  0  0  0  0
 20 43  1  0  0  0  0
 20 44  1  0  0  0  0
 21 19  1  0  0  0  0
 21 20  1  0  0  0  0
 21 45  1  0  0  0  0
 22 16  1  0  0  0  0
 22 46  1  0  0  0  0
 22 47  1  0  0  0  0
 23 21  1  0  0  0  0
 23 48  1  0  0  0  0
 23 49  1  0  0  0  0
 23 50  1  0  0  0  0
 24 17  1  0  0  0  0
 24 27  1  0  0  0  0
 24 51  1  0  0  0  0
 24 52  1  0  0  0  0
 25 18  1  0  0  0  0
 25 53  1  0  0  0  0
 25 54  1  0  0  0  0
 26 22  1  0  0  0  0
 26 55  1  0  0  0  0
 26 56  1  0  0  0  0
 26 57  1  0  0  0  0
 27 25  1  0  0  0  0
 27 58  1  0  0  0  0
 27 59  1  0  0  0  0
M  END
>  <Mol_ID>
9034

>  <Formula>
C21H32N2O3S

>  <MolWeight>
392.55538

>  <Cat>
P2915

>  <Name>
WAY-608284-A

>  <Synonyms>
N/A

>  <Target>
Anti-infection

>  <Form>
free base

>  <CAS>
381731-49-3

>  <URL>
N/A

$$$$
