WAY-324048
 OpenBabel08302521423D

 47 50  0  0  0  0  0  0  0  0999 V2000
    2.8224   -2.8119   -1.1272 N   0  0  0  0  0  0  0  0  0  0  0  0
    3.7941   -2.2438   -0.4809 C   0  0  0  0  0  0  0  0  0  0  0  0
    3.0301   -4.0489   -1.6983 C   0  0  0  0  0  0  0  0  0  0  0  0
    4.3957   -4.6592   -1.6054 C   0  0  0  0  0  0  0  0  0  0  0  0
    4.5166    0.0172    0.0872 C   0  0  0  0  0  0  0  0  0  0  0  0
    5.3267   -4.0267   -0.8714 C   0  0  0  0  0  0  0  0  0  0  0  0
    5.0105   -2.8298   -0.2847 N   0  0  0  0  0  0  0  0  0  0  0  0
    3.5887   -1.0141    0.0586 N   0  0  0  0  0  0  0  0  0  0  0  0
    4.0162    1.2525    0.1194 N   0  0  0  0  0  0  0  0  0  0  0  0
    5.8268   -0.2414    0.0571 N   0  0  0  0  0  0  0  0  0  0  0  0
    6.2728    2.1404    0.0572 C   0  0  0  0  0  0  0  0  0  0  0  0
    4.8750    2.3010    0.1067 C   0  0  0  0  0  0  0  0  0  0  0  0
    6.6672    0.7926    0.0243 C   0  0  0  0  0  0  0  0  0  0  0  0
    2.1444   -4.6564   -2.2922 O   0  0  0  0  0  0  0  0  0  0  0  0
    7.2869    3.1563    0.0147 C   0  0  0  0  0  0  0  0  0  0  0  0
    8.0069    0.4762   -0.0728 C   0  0  0  0  0  0  0  0  0  0  0  0
    8.6335    2.8045   -0.1036 C   0  0  0  0  0  0  0  0  0  0  0  0
    4.6291   -5.9439   -2.3416 C   0  0  0  0  0  0  0  0  0  0  0  0
    8.9829    1.4610   -0.1535 C   0  0  0  0  0  0  0  0  0  0  0  0
    6.7022   -4.6053   -0.6590 C   0  0  0  0  0  0  0  0  0  0  0  0
    9.6982    3.6321   -0.2796 O   0  0  0  0  0  0  0  0  0  0  0  0
    4.1582    3.6166    0.1281 C   0  0  0  0  0  0  0  0  0  0  0  0
    9.6724    4.9327    0.2930 C   0  0  0  0  0  0  0  0  0  0  0  0
    6.1058   -6.3454   -2.3742 C   0  0  0  0  0  0  0  0  0  0  0  0
    6.7669   -6.0936   -1.0221 C   0  0  0  0  0  0  0  0  0  0  0  0
   11.0239    5.5569   -0.0297 C   0  0  0  0  0  0  0  0  0  0  0  0
    5.7622   -2.2463    0.0773 H   0  0  0  0  0  0  0  0  0  0  0  0
    2.6757   -0.6256   -0.1318 H   0  0  0  0  0  0  0  0  0  0  0  0
    7.0013    4.2024    0.0297 H   0  0  0  0  0  0  0  0  0  0  0  0
    8.3113   -0.5665   -0.1106 H   0  0  0  0  0  0  0  0  0  0  0  0
    4.2688   -5.8598   -3.3740 H   0  0  0  0  0  0  0  0  0  0  0  0
    4.0480   -6.7374   -1.8565 H   0  0  0  0  0  0  0  0  0  0  0  0
   10.0268    1.1771   -0.2635 H   0  0  0  0  0  0  0  0  0  0  0  0
    7.0040   -4.4881    0.3890 H   0  0  0  0  0  0  0  0  0  0  0  0
    7.4237   -4.0461   -1.2677 H   0  0  0  0  0  0  0  0  0  0  0  0
    3.5043    3.6883   -0.7495 H   0  0  0  0  0  0  0  0  0  0  0  0
    3.5221    3.6594    1.0198 H   0  0  0  0  0  0  0  0  0  0  0  0
    4.8158    4.4850    0.1367 H   0  0  0  0  0  0  0  0  0  0  0  0
    8.8756    5.5401   -0.1455 H   0  0  0  0  0  0  0  0  0  0  0  0
    9.5460    4.8684    1.3797 H   0  0  0  0  0  0  0  0  0  0  0  0
    6.6285   -5.7672   -3.1473 H   0  0  0  0  0  0  0  0  0  0  0  0
    6.1936   -7.4013   -2.6524 H   0  0  0  0  0  0  0  0  0  0  0  0
    6.2528   -6.6833   -0.2516 H   0  0  0  0  0  0  0  0  0  0  0  0
    7.8090   -6.4303   -1.0401 H   0  0  0  0  0  0  0  0  0  0  0  0
   11.8359    4.9726    0.4192 H   0  0  0  0  0  0  0  0  0  0  0  0
   11.2013    5.5486   -1.1116 H   0  0  0  0  0  0  0  0  0  0  0  0
   11.0901    6.5859    0.3320 H   0  0  0  0  0  0  0  0  0  0  0  0
  2  1  2  0  0  0  0
  3  1  1  0  0  0  0
  4  3  1  0  0  0  0
  5  8  1  0  0  0  0
  6  4  2  0  0  0  0
  6  7  1  0  0  0  0
  7  2  1  0  0  0  0
  7 27  1  0  0  0  0
  8  2  1  0  0  0  0
  8 28  1  0  0  0  0
  9  5  2  0  0  0  0
 10  5  1  0  0  0  0
 11 13  1  0  0  0  0
 11 12  2  0  0  0  0
 12  9  1  0  0  0  0
 13 10  2  0  0  0  0
 14  3  2  0  0  0  0
 15 11  1  0  0  0  0
 15 17  2  0  0  0  0
 15 29  1  0  0  0  0
 16 13  1  0  0  0  0
 16 30  1  0  0  0  0
 17 19  1  0  0  0  0
 18  4  1  0  0  0  0
 18 31  1  0  0  0  0
 18 32  1  0  0  0  0
 19 16  2  0  0  0  0
 19 33  1  0  0  0  0
 20  6  1  0  0  0  0
 20 34  1  0  0  0  0
 20 35  1  0  0  0  0
 21 17  1  0  0  0  0
 22 12  1  0  0  0  0
 22 36  1  0  0  0  0
 22 37  1  0  0  0  0
 22 38  1  0  0  0  0
 23 21  1  0  0  0  0
 23 39  1  0  0  0  0
 23 40  1  0  0  0  0
 24 18  1  0  0  0  0
 24 41  1  0  0  0  0
 24 42  1  0  0  0  0
 25 24  1  0  0  0  0
 25 20  1  0  0  0  0
 25 43  1  0  0  0  0
 25 44  1  0  0  0  0
 26 23  1  0  0  0  0
 26 45  1  0  0  0  0
 26 46  1  0  0  0  0
 26 47  1  0  0  0  0
M  END
>  <Mol_ID>
8598

>  <Formula>
C19H21N5O2

>  <MolWeight>
351.40234

>  <Cat>
P2291

>  <Name>
WAY-324048

>  <Synonyms>
N/A

>  <Target>
others

>  <Form>
free base

>  <CAS>
524055-98-9

>  <URL>
N/A

$$$$
