WAY-332007
 OpenBabel08302521443D

 51 53  0  0  0  0  0  0  0  0999 V2000
   -1.3608    0.6251    0.6380 N   0  0  0  0  0  0  0  0  0  0  0  0
   -1.1714   -0.6653    0.4229 C   0  0  0  0  0  0  0  0  0  0  0  0
   -0.1429    1.2109    0.3216 C   0  0  0  0  0  0  0  0  0  0  0  0
    0.0804   -0.9649   -0.0537 O   0  0  0  0  0  0  0  0  0  0  0  0
    0.7284    0.2268   -0.1033 C   0  0  0  0  0  0  0  0  0  0  0  0
   -2.0435   -1.8200    0.6613 C   0  0  0  0  0  0  0  0  0  0  0  0
   -2.4927    4.7172   -1.9623 C   0  0  0  0  0  0  0  0  0  0  0  0
   -1.8963    5.9601   -2.0342 N   0  0  0  0  0  0  0  0  0  0  0  0
   -3.4542    4.4051   -2.6638 O   0  0  0  0  0  0  0  0  0  0  0  0
   -3.3873   -1.6486    1.0179 C   0  0  0  0  0  0  0  0  0  0  0  0
   -1.5519   -3.1328    0.5547 C   0  0  0  0  0  0  0  0  0  0  0  0
   -0.1246    3.7386   -0.8626 S   0  0  0  0  0  0  0  0  0  0  0  0
    0.1309    2.6527    0.5772 C   0  0  0  0  0  0  0  0  0  0  0  0
   -2.1358    6.8553   -3.1580 C   0  0  0  0  0  0  0  0  0  0  0  0
   -0.9911    6.7540   -4.1382 C   0  0  0  0  0  0  0  0  0  0  0  0
   -2.3727   -4.2388    0.7948 C   0  0  0  0  0  0  0  0  0  0  0  0
   -4.2138   -2.7581    1.2569 C   0  0  0  0  0  0  0  0  0  0  0  0
   -3.7105   -4.0606    1.1544 C   0  0  0  0  0  0  0  0  0  0  0  0
    1.3658    6.3802   -5.6281 C   0  0  0  0  0  0  0  0  0  0  0  0
   -0.7459    5.5402   -4.7948 C   0  0  0  0  0  0  0  0  0  0  0  0
   -0.1042    7.8197   -4.3377 C   0  0  0  0  0  0  0  0  0  0  0  0
    0.4263    5.3514   -5.5251 C   0  0  0  0  0  0  0  0  0  0  0  0
    1.0638    7.6344   -5.0841 C   0  0  0  0  0  0  0  0  0  0  0  0
   -1.9496    3.7690   -0.8941 C   0  0  0  0  0  0  0  0  0  0  0  0
    2.1472    0.1810   -0.5025 C   0  0  0  0  0  0  0  0  0  0  0  0
   -4.5993   -5.2485    1.3833 C   0  0  0  0  0  0  0  0  0  0  0  0
    2.6873    6.1381   -6.2943 C   0  0  0  0  0  0  0  0  0  0  0  0
   -0.9989    6.0514   -1.5707 H   0  0  0  0  0  0  0  0  0  0  0  0
   -3.8026   -0.6468    1.1098 H   0  0  0  0  0  0  0  0  0  0  0  0
   -0.5122   -3.3117    0.2833 H   0  0  0  0  0  0  0  0  0  0  0  0
   -0.4610    3.0148    1.4238 H   0  0  0  0  0  0  0  0  0  0  0  0
    1.1823    2.7622    0.8691 H   0  0  0  0  0  0  0  0  0  0  0  0
   -2.2059    7.8695   -2.7500 H   0  0  0  0  0  0  0  0  0  0  0  0
   -3.0832    6.6248   -3.6565 H   0  0  0  0  0  0  0  0  0  0  0  0
   -1.9528   -5.2375    0.7019 H   0  0  0  0  0  0  0  0  0  0  0  0
   -5.2562   -2.5969    1.5255 H   0  0  0  0  0  0  0  0  0  0  0  0
   -1.4465    4.7132   -4.6917 H   0  0  0  0  0  0  0  0  0  0  0  0
   -0.2914    8.7897   -3.8829 H   0  0  0  0  0  0  0  0  0  0  0  0
    0.6166    4.3792   -5.9730 H   0  0  0  0  0  0  0  0  0  0  0  0
    1.7592    8.4626   -5.2012 H   0  0  0  0  0  0  0  0  0  0  0  0
   -2.3032    2.7619   -1.1319 H   0  0  0  0  0  0  0  0  0  0  0  0
   -2.3443    4.0798    0.0774 H   0  0  0  0  0  0  0  0  0  0  0  0
    2.7544   -0.1984    0.3259 H   0  0  0  0  0  0  0  0  0  0  0  0
    2.2863   -0.4872   -1.3586 H   0  0  0  0  0  0  0  0  0  0  0  0
    2.5207    1.1703   -0.7775 H   0  0  0  0  0  0  0  0  0  0  0  0
   -5.1766   -5.1261    2.3057 H   0  0  0  0  0  0  0  0  0  0  0  0
   -5.2864   -5.3719    0.5399 H   0  0  0  0  0  0  0  0  0  0  0  0
   -4.0150   -6.1698    1.4850 H   0  0  0  0  0  0  0  0  0  0  0  0
    2.7197    6.6116   -7.2783 H   0  0  0  0  0  0  0  0  0  0  0  0
    3.4973    6.5351   -5.6719 H   0  0  0  0  0  0  0  0  0  0  0  0
    2.8762    5.0653   -6.4139 H   0  0  0  0  0  0  0  0  0  0  0  0
  2  1  2  0  0  0  0
  3  1  1  0  0  0  0
  4  2  1  0  0  0  0
  5  3  2  0  0  0  0
  5  4  1  0  0  0  0
  6  2  1  0  0  0  0
  7 24  1  0  0  0  0
  8  7  1  0  0  0  0
  8 28  1  0  0  0  0
  9  7  2  0  0  0  0
 10  6  2  0  0  0  0
 10 29  1  0  0  0  0
 11  6  1  0  0  0  0
 11 30  1  0  0  0  0
 12 13  1  0  0  0  0
 13  3  1  0  0  0  0
 13 31  1  0  0  0  0
 13 32  1  0  0  0  0
 14  8  1  0  0  0  0
 14 33  1  0  0  0  0
 14 34  1  0  0  0  0
 15 14  1  0  0  0  0
 16 11  2  0  0  0  0
 16 35  1  0  0  0  0
 17 10  1  0  0  0  0
 17 36  1  0  0  0  0
 18 16  1  0  0  0  0
 18 17  2  0  0  0  0
 19 23  2  0  0  0  0
 19 22  1  0  0  0  0
 20 15  1  0  0  0  0
 20 37  1  0  0  0  0
 21 15  2  0  0  0  0
 21 38  1  0  0  0  0
 22 20  2  0  0  0  0
 22 39  1  0  0  0  0
 23 21  1  0  0  0  0
 23 40  1  0  0  0  0
 24 12  1  0  0  0  0
 24 41  1  0  0  0  0
 24 42  1  0  0  0  0
 25  5  1  0  0  0  0
 25 43  1  0  0  0  0
 25 44  1  0  0  0  0
 25 45  1  0  0  0  0
 26 18  1  0  0  0  0
 26 46  1  0  0  0  0
 26 47  1  0  0  0  0
 26 48  1  0  0  0  0
 27 19  1  0  0  0  0
 27 49  1  0  0  0  0
 27 50  1  0  0  0  0
 27 51  1  0  0  0  0
M  END
>  <Mol_ID>
9223

>  <Formula>
C22H24N2O2S

>  <MolWeight>
380.50316

>  <Cat>
P2664

>  <Name>
WAY-332007

>  <Synonyms>
N/A

>  <Target>
beta-catenin

>  <Form>
free base

>  <CAS>
901751-87-9

>  <URL>
N/A

$$$$
