WAY-331994
 OpenBabel08302521453D

 57 60  0  0  0  0  0  0  0  0999 V2000
    0.1487    6.0116   -4.2775 N   0  0  0  0  0  0  0  0  0  0  0  0
   -0.5726    6.3506   -5.3314 C   0  0  0  0  0  0  0  0  0  0  0  0
   -0.7805    5.5624   -3.3553 C   0  0  0  0  0  0  0  0  0  0  0  0
   -1.9112    6.1109   -5.1841 O   0  0  0  0  0  0  0  0  0  0  0  0
   -2.0379    5.6100   -3.9227 C   0  0  0  0  0  0  0  0  0  0  0  0
    2.4348    2.9551   -3.9331 N   0  0  0  0  0  0  0  0  0  0  0  0
    4.2733    2.5903   -6.0877 N   0  0  0  0  0  0  0  0  0  0  0  0
    1.6856    2.8826   -2.7709 C   0  0  0  0  0  0  0  0  0  0  0  0
   -0.1561    6.9260   -6.6067 C   0  0  0  0  0  0  0  0  0  0  0  0
    5.1195    2.5593   -7.1771 C   0  0  0  0  0  0  0  0  0  0  0  0
    1.9349    2.7369   -5.2939 C   0  0  0  0  0  0  0  0  0  0  0  0
    3.7520    3.5914   -3.8789 C   0  0  0  0  0  0  0  0  0  0  0  0
    2.9460    1.9584   -6.1520 C   0  0  0  0  0  0  0  0  0  0  0  0
    4.8024    2.8749   -4.7417 C   0  0  0  0  0  0  0  0  0  0  0  0
    1.2038    7.1614   -6.8609 C   0  0  0  0  0  0  0  0  0  0  0  0
    2.2070    3.0562   -1.6663 O   0  0  0  0  0  0  0  0  0  0  0  0
    6.5086    2.3475   -7.0538 C   0  0  0  0  0  0  0  0  0  0  0  0
    4.6301    2.8397   -8.4656 C   0  0  0  0  0  0  0  0  0  0  0  0
   -0.8043    3.3900   -1.6315 S   0  0  0  0  0  0  0  0  0  0  0  0
   -0.3627    5.1271   -1.9922 C   0  0  0  0  0  0  0  0  0  0  0  0
    6.8373    2.7730   -9.3947 C   0  0  0  0  0  0  0  0  0  0  0  0
    0.1999    2.5654   -2.9097 C   0  0  0  0  0  0  0  0  0  0  0  0
    1.6281    7.7153   -8.0779 C   0  0  0  0  0  0  0  0  0  0  0  0
    5.4741    2.9547   -9.5659 C   0  0  0  0  0  0  0  0  0  0  0  0
    7.3617    2.4571   -8.1572 C   0  0  0  0  0  0  0  0  0  0  0  0
    7.6560    2.9199  -10.4449 F   0  0  0  0  0  0  0  0  0  0  0  0
   -3.3996    5.2435   -3.5023 C   0  0  0  0  0  0  0  0  0  0  0  0
   -1.0915    7.2645   -7.5977 C   0  0  0  0  0  0  0  0  0  0  0  0
   -0.6798    7.8221   -8.8087 C   0  0  0  0  0  0  0  0  0  0  0  0
    0.6743    8.0465   -9.0473 C   0  0  0  0  0  0  0  0  0  0  0  0
    3.0828    7.9715   -8.3402 C   0  0  0  0  0  0  0  0  0  0  0  0
    0.9918    2.1883   -5.2967 H   0  0  0  0  0  0  0  0  0  0  0  0
    1.7539    3.7276   -5.7291 H   0  0  0  0  0  0  0  0  0  0  0  0
    3.6098    4.6129   -4.2551 H   0  0  0  0  0  0  0  0  0  0  0  0
    4.1195    3.6804   -2.8518 H   0  0  0  0  0  0  0  0  0  0  0  0
    3.0132    0.9231   -5.7920 H   0  0  0  0  0  0  0  0  0  0  0  0
    2.5416    1.9083   -7.1681 H   0  0  0  0  0  0  0  0  0  0  0  0
    5.1271    1.9474   -4.2562 H   0  0  0  0  0  0  0  0  0  0  0  0
    5.6661    3.5487   -4.8023 H   0  0  0  0  0  0  0  0  0  0  0  0
    1.9391    6.9130   -6.0959 H   0  0  0  0  0  0  0  0  0  0  0  0
    6.9455    2.0920   -6.0921 H   0  0  0  0  0  0  0  0  0  0  0  0
    3.5729    3.0422   -8.6140 H   0  0  0  0  0  0  0  0  0  0  0  0
    0.7129    5.2723   -1.8534 H   0  0  0  0  0  0  0  0  0  0  0  0
   -0.8605    5.7548   -1.2468 H   0  0  0  0  0  0  0  0  0  0  0  0
    0.0700    1.4820   -2.8334 H   0  0  0  0  0  0  0  0  0  0  0  0
   -0.2046    2.8935   -3.8665 H   0  0  0  0  0  0  0  0  0  0  0  0
    5.0763    3.2119  -10.5399 H   0  0  0  0  0  0  0  0  0  0  0  0
    8.4323    2.3118   -8.0434 H   0  0  0  0  0  0  0  0  0  0  0  0
   -4.0849    6.0829   -3.6528 H   0  0  0  0  0  0  0  0  0  0  0  0
   -3.7592    4.3972   -4.0970 H   0  0  0  0  0  0  0  0  0  0  0  0
   -3.4365    4.9608   -2.4474 H   0  0  0  0  0  0  0  0  0  0  0  0
   -2.1545    7.1034   -7.4307 H   0  0  0  0  0  0  0  0  0  0  0  0
   -1.4175    8.0840   -9.5630 H   0  0  0  0  0  0  0  0  0  0  0  0
    0.9826    8.4852   -9.9940 H   0  0  0  0  0  0  0  0  0  0  0  0
    3.3948    7.4697   -9.2619 H   0  0  0  0  0  0  0  0  0  0  0  0
    3.2641    9.0468   -8.4354 H   0  0  0  0  0  0  0  0  0  0  0  0
    3.7093    7.5925   -7.5263 H   0  0  0  0  0  0  0  0  0  0  0  0
  2  1  2  0  0  0  0
  3  1  1  0  0  0  0
  4  2  1  0  0  0  0
  4  5  1  0  0  0  0
  5  3  2  0  0  0  0
  6  8  1  0  0  0  0
  7 14  1  0  0  0  0
  8 22  1  0  0  0  0
  9  2  1  0  0  0  0
 10  7  1  0  0  0  0
 11  6  1  0  0  0  0
 11 32  1  0  0  0  0
 11 33  1  0  0  0  0
 12  6  1  0  0  0  0
 12 34  1  0  0  0  0
 12 35  1  0  0  0  0
 13 11  1  0  0  0  0
 13  7  1  0  0  0  0
 13 36  1  0  0  0  0
 13 37  1  0  0  0  0
 14 12  1  0  0  0  0
 14 38  1  0  0  0  0
 14 39  1  0  0  0  0
 15  9  2  0  0  0  0
 15 40  1  0  0  0  0
 16  8  2  0  0  0  0
 17 10  2  0  0  0  0
 17 41  1  0  0  0  0
 18 10  1  0  0  0  0
 18 42  1  0  0  0  0
 19 20  1  0  0  0  0
 20  3  1  0  0  0  0
 20 43  1  0  0  0  0
 20 44  1  0  0  0  0
 21 24  1  0  0  0  0
 21 25  2  0  0  0  0
 22 19  1  0  0  0  0
 22 45  1  0  0  0  0
 22 46  1  0  0  0  0
 23 15  1  0  0  0  0
 23 30  2  0  0  0  0
 24 18  2  0  0  0  0
 24 47  1  0  0  0  0
 25 17  1  0  0  0  0
 25 48  1  0  0  0  0
 26 21  1  0  0  0  0
 27  5  1  0  0  0  0
 27 49  1  0  0  0  0
 27 50  1  0  0  0  0
 27 51  1  0  0  0  0
 28  9  1  0  0  0  0
 28 52  1  0  0  0  0
 29 28  2  0  0  0  0
 29 53  1  0  0  0  0
 30 29  1  0  0  0  0
 30 54  1  0  0  0  0
 31 23  1  0  0  0  0
 31 55  1  0  0  0  0
 31 56  1  0  0  0  0
 31 57  1  0  0  0  0
M  END
>  <Mol_ID>
9266

>  <Formula>
C24H26FN3O2S

>  <MolWeight>
439.5455432

>  <Cat>
P2652

>  <Name>
WAY-331994

>  <Synonyms>
N/A

>  <Target>
beta-catenin

>  <Form>
free base

>  <CAS>
901751-71-1

>  <URL>
N/A

$$$$
