WAY-299801
 OpenBabel08302521413D

 37 38  0  0  0  0  0  0  0  0999 V2000
    1.2324   -0.3503   -0.3076 C   0  0  0  0  0  0  0  0  0  0  0  0
    0.5000   -1.5071    0.0127 C   0  0  0  0  0  0  0  0  0  0  0  0
    0.5473    0.8403   -0.5905 C   0  0  0  0  0  0  0  0  0  0  0  0
    2.6963   -0.3168   -0.0905 C   0  0  0  0  0  0  0  0  0  0  0  0
   -0.9001   -1.4420    0.0587 C   0  0  0  0  0  0  0  0  0  0  0  0
    1.0000   -2.7149    0.4241 O   0  0  0  0  0  0  0  0  0  0  0  0
   -0.8458    0.9023   -0.4899 C   0  0  0  0  0  0  0  0  0  0  0  0
    3.6356    0.4333   -0.5850 N   0  0  0  0  0  0  0  0  0  0  0  0
   -1.5727   -0.2450   -0.1917 C   0  0  0  0  0  0  0  0  0  0  0  0
    2.0737   -3.2707   -0.3298 C   0  0  0  0  0  0  0  0  0  0  0  0
   -1.3943    2.1408   -0.6771 O   0  0  0  0  0  0  0  0  0  0  0  0
    3.3616    1.3495   -1.5533 N   0  0  0  0  0  0  0  0  0  0  0  0
   -2.5265    2.4307    0.1409 C   0  0  0  0  0  0  0  0  0  0  0  0
    4.2433    2.3923   -1.8082 C   0  0  0  0  0  0  0  0  0  0  0  0
    5.0080    3.0575   -0.6928 C   0  0  0  0  0  0  0  0  0  0  0  0
    4.4093    2.7866   -3.0436 N   0  0  0  0  0  0  0  0  0  0  0  0
    4.5137    3.0828    0.6052 C   0  0  0  0  0  0  0  0  0  0  0  0
    6.1691    3.6544   -1.0718 N   0  0  0  0  0  0  0  0  0  0  0  0
    5.2796    3.6966    1.5903 C   0  0  0  0  0  0  0  0  0  0  0  0
    6.8975    4.2196   -0.0839 C   0  0  0  0  0  0  0  0  0  0  0  0
    6.5009    4.2644    1.2451 C   0  0  0  0  0  0  0  0  0  0  0  0
    1.0809    1.7630   -0.7961 H   0  0  0  0  0  0  0  0  0  0  0  0
    3.0518   -1.0300    0.6644 H   0  0  0  0  0  0  0  0  0  0  0  0
   -1.4706   -2.3293    0.3269 H   0  0  0  0  0  0  0  0  0  0  0  0
   -2.6566   -0.2260   -0.1262 H   0  0  0  0  0  0  0  0  0  0  0  0
    2.1394   -2.8774   -1.3493 H   0  0  0  0  0  0  0  0  0  0  0  0
    3.0147   -3.1193    0.2069 H   0  0  0  0  0  0  0  0  0  0  0  0
    1.9152   -4.3522   -0.3897 H   0  0  0  0  0  0  0  0  0  0  0  0
    3.0260    0.9724   -2.4420 H   0  0  0  0  0  0  0  0  0  0  0  0
   -3.4458    2.1872   -0.3995 H   0  0  0  0  0  0  0  0  0  0  0  0
   -2.5007    1.9158    1.1083 H   0  0  0  0  0  0  0  0  0  0  0  0
   -2.5229    3.5059    0.3465 H   0  0  0  0  0  0  0  0  0  0  0  0
    5.1310    3.5285   -3.0165 H   0  0  0  0  0  0  0  0  0  0  0  0
    3.5586    2.6347    0.8487 H   0  0  0  0  0  0  0  0  0  0  0  0
    4.9271    3.7234    2.6176 H   0  0  0  0  0  0  0  0  0  0  0  0
    7.8472    4.6487   -0.3935 H   0  0  0  0  0  0  0  0  0  0  0  0
    7.1298    4.7298    1.9961 H   0  0  0  0  0  0  0  0  0  0  0  0
  1  2  2  0  0  0  0
  1  3  1  0  0  0  0
  1  4  1  0  0  0  0
  2  5  1  0  0  0  0
  2  6  1  0  0  0  0
  3  7  2  0  0  0  0
  3 22  1  0  0  0  0
  4  8  2  0  0  0  0
  4 23  1  0  0  0  0
  5  9  2  0  0  0  0
  5 24  1  0  0  0  0
  6 10  1  0  0  0  0
  7 11  1  0  0  0  0
  7  9  1  0  0  0  0
  8 12  1  0  0  0  0
  9 25  1  0  0  0  0
 10 26  1  0  0  0  0
 10 27  1  0  0  0  0
 10 28  1  0  0  0  0
 11 13  1  0  0  0  0
 12 14  1  0  0  0  0
 12 29  1  0  0  0  0
 13 30  1  0  0  0  0
 13 31  1  0  0  0  0
 13 32  1  0  0  0  0
 14 15  1  0  0  0  0
 14 16  2  0  0  0  0
 15 17  2  0  0  0  0
 15 18  1  0  0  0  0
 16 33  1  0  0  0  0
 17 19  1  0  0  0  0
 17 34  1  0  0  0  0
 18 20  2  0  0  0  0
 19 21  2  0  0  0  0
 19 35  1  0  0  0  0
 20 21  1  0  0  0  0
 20 36  1  0  0  0  0
 21 37  1  0  0  0  0
M  END
>  <Mol_ID>
8392

>  <Formula>
C15H16N4O2

>  <MolWeight>
284.31314

>  <Cat>
P2118

>  <Name>
WAY-299801

>  <Synonyms>
N/A

>  <Target>
Anti-infection

>  <Form>
free base

>  <CAS>
146430-05-9

>  <URL>
N/A

$$$$
