WAY-217905
 OpenBabel08302521393D

 29 29  0  0  0  0  0  0  0  0999 V2000
   -2.0621    0.2261   -2.0694 N   0  0  0  0  0  0  0  0  0  0  0  0
   -2.3348   -0.5001   -1.0293 C   0  0  0  0  0  0  0  0  0  0  0  0
   -1.6403   -2.5732   -2.1688 N   0  0  0  0  0  0  0  0  0  0  0  0
   -1.5679   -0.3650   -3.2004 C   0  0  0  0  0  0  0  0  0  0  0  0
   -2.1051   -2.0162   -1.0926 C   0  0  0  0  0  0  0  0  0  0  0  0
   -1.3804   -1.7282   -3.1993 N   0  0  0  0  0  0  0  0  0  0  0  0
   -1.2937    0.2776   -4.2110 O   0  0  0  0  0  0  0  0  0  0  0  0
   -2.8248    0.0941    0.1223 N   0  0  0  0  0  0  0  0  0  0  0  0
   -5.5825    0.2604    1.0929 N   0  0  0  0  0  0  0  0  0  0  0  0
   -2.4198   -2.8927    0.0861 C   0  0  0  0  0  0  0  0  0  0  0  0
   -3.5376    1.3693    0.0636 C   0  0  0  0  0  0  0  0  0  0  0  0
   -5.0578    1.1045   -0.0139 C   0  0  0  0  0  0  0  0  0  0  0  0
   -5.4554    0.9356    2.3897 C   0  0  0  0  0  0  0  0  0  0  0  0
   -7.0021   -0.0294    0.8438 C   0  0  0  0  0  0  0  0  0  0  0  0
   -1.0105   -2.1325   -4.0509 H   0  0  0  0  0  0  0  0  0  0  0  0
   -3.2790   -0.5095    0.8018 H   0  0  0  0  0  0  0  0  0  0  0  0
   -3.1520   -3.6450   -0.2228 H   0  0  0  0  0  0  0  0  0  0  0  0
   -1.5049   -3.4054    0.3978 H   0  0  0  0  0  0  0  0  0  0  0  0
   -2.8201   -2.3584    0.9440 H   0  0  0  0  0  0  0  0  0  0  0  0
   -3.2942    1.9489    0.9598 H   0  0  0  0  0  0  0  0  0  0  0  0
   -3.2243    1.9822   -0.7884 H   0  0  0  0  0  0  0  0  0  0  0  0
   -5.5903    2.0622   -0.0610 H   0  0  0  0  0  0  0  0  0  0  0  0
   -5.2488    0.5807   -0.9606 H   0  0  0  0  0  0  0  0  0  0  0  0
   -5.9422    1.9174    2.3942 H   0  0  0  0  0  0  0  0  0  0  0  0
   -5.9007    0.3275    3.1856 H   0  0  0  0  0  0  0  0  0  0  0  0
   -4.4045    1.0644    2.6661 H   0  0  0  0  0  0  0  0  0  0  0  0
   -7.6004    0.8856    0.7568 H   0  0  0  0  0  0  0  0  0  0  0  0
   -7.1213   -0.6102   -0.0772 H   0  0  0  0  0  0  0  0  0  0  0  0
   -7.4229   -0.6365    1.6536 H   0  0  0  0  0  0  0  0  0  0  0  0
  2  1  2  0  0  0  0
  3  6  1  0  0  0  0
  3  5  2  0  0  0  0
  4  1  1  0  0  0  0
  5  2  1  0  0  0  0
  6  4  1  0  0  0  0
  6 15  1  0  0  0  0
  7  4  2  0  0  0  0
  8  2  1  0  0  0  0
  8 16  1  0  0  0  0
  9 12  1  0  0  0  0
 10  5  1  0  0  0  0
 10 17  1  0  0  0  0
 10 18  1  0  0  0  0
 10 19  1  0  0  0  0
 11  8  1  0  0  0  0
 11 20  1  0  0  0  0
 11 21  1  0  0  0  0
 12 11  1  0  0  0  0
 12 22  1  0  0  0  0
 12 23  1  0  0  0  0
 13  9  1  0  0  0  0
 13 24  1  0  0  0  0
 13 25  1  0  0  0  0
 13 26  1  0  0  0  0
 14  9  1  0  0  0  0
 14 27  1  0  0  0  0
 14 28  1  0  0  0  0
 14 29  1  0  0  0  0
M  END
>  <Mol_ID>
8036

>  <Formula>
C8H15N5O

>  <MolWeight>
197.2376

>  <Cat>
P2057

>  <Name>
WAY-217905

>  <Synonyms>
N/A

>  <Target>
others

>  <Form>
free base

>  <CAS>
442554-18-9

>  <URL>
N/A

$$$$
