WAY-326193
 OpenBabel08302521433D

 57 60  0  0  0  0  0  0  0  0999 V2000
    0.1872   -0.7380    0.0615 C   0  0  0  0  0  0  0  0  0  0  0  0
    0.2707    0.6624    0.0512 N   0  0  0  0  0  0  0  0  0  0  0  0
    1.4968   -1.2133    0.0229 C   0  0  0  0  0  0  0  0  0  0  0  0
   -0.8729    1.4525    0.0197 C   0  0  0  0  0  0  0  0  0  0  0  0
   -1.0322   -1.3703    0.0960 N   0  0  0  0  0  0  0  0  0  0  0  0
    1.5550    1.0840    0.0711 N   0  0  0  0  0  0  0  0  0  0  0  0
   -2.0819    0.8705    0.0119 C   0  0  0  0  0  0  0  0  0  0  0  0
    4.3603   -4.6780   -0.8598 C   0  0  0  0  0  0  0  0  0  0  0  0
    1.8990   -2.6194   -0.0668 C   0  0  0  0  0  0  0  0  0  0  0  0
   -2.1025   -0.6250    0.0844 C   0  0  0  0  0  0  0  0  0  0  0  0
    5.0457   -5.2915   -2.9618 N   0  0  0  0  0  0  0  0  0  0  0  0
    2.2701   -0.0365   -0.0106 C   0  0  0  0  0  0  0  0  0  0  0  0
    6.0948   -4.9972   -2.1860 N   0  0  0  0  0  0  0  0  0  0  0  0
    3.9821   -5.1189   -2.1669 C   0  0  0  0  0  0  0  0  0  0  0  0
    5.7434   -4.6233   -0.9221 C   0  0  0  0  0  0  0  0  0  0  0  0
    3.1336   -3.0262    0.4784 N   0  0  0  0  0  0  0  0  0  0  0  0
    3.4979   -4.4418    0.3403 C   0  0  0  0  0  0  0  0  0  0  0  0
   -0.6828    2.9270   -0.0057 C   0  0  0  0  0  0  0  0  0  0  0  0
   -3.4538   -1.2582    0.1453 C   0  0  0  0  0  0  0  0  0  0  0  0
    1.1693   -3.4356   -0.6197 O   0  0  0  0  0  0  0  0  0  0  0  0
   -3.6376   -2.5383   -0.3900 C   0  0  0  0  0  0  0  0  0  0  0  0
   -4.5379   -0.6133    0.7551 C   0  0  0  0  0  0  0  0  0  0  0  0
   -0.5669    3.3759   -1.2837 F   0  0  0  0  0  0  0  0  0  0  0  0
   -1.7762    3.5620    0.5068 F   0  0  0  0  0  0  0  0  0  0  0  0
   -5.9744   -2.5044    0.2616 C   0  0  0  0  0  0  0  0  0  0  0  0
   -4.8943   -3.1580   -0.3338 C   0  0  0  0  0  0  0  0  0  0  0  0
   -5.7881   -1.2324    0.8037 C   0  0  0  0  0  0  0  0  0  0  0  0
    7.4324   -5.1754   -2.7163 C   0  0  0  0  0  0  0  0  0  0  0  0
    3.9300   -2.2295    1.3994 C   0  0  0  0  0  0  0  0  0  0  0  0
    2.6364   -5.4258   -2.7171 C   0  0  0  0  0  0  0  0  0  0  0  0
   -7.2470   -2.9870    0.3847 O   0  0  0  0  0  0  0  0  0  0  0  0
   -7.4892   -4.2928   -0.1215 C   0  0  0  0  0  0  0  0  0  0  0  0
    7.9747   -3.9158   -3.3659 C   0  0  0  0  0  0  0  0  0  0  0  0
   -2.9964    1.4447   -0.0653 H   0  0  0  0  0  0  0  0  0  0  0  0
    3.3413    0.0703   -0.1030 H   0  0  0  0  0  0  0  0  0  0  0  0
    6.4873   -4.3849   -0.1758 H   0  0  0  0  0  0  0  0  0  0  0  0
    4.0357   -4.7560    1.2424 H   0  0  0  0  0  0  0  0  0  0  0  0
    2.5998   -5.0671    0.2994 H   0  0  0  0  0  0  0  0  0  0  0  0
    0.1831    3.2683    0.5696 H   0  0  0  0  0  0  0  0  0  0  0  0
   -2.8043   -3.0622   -0.8568 H   0  0  0  0  0  0  0  0  0  0  0  0
   -4.4348    0.3607    1.2225 H   0  0  0  0  0  0  0  0  0  0  0  0
   -4.9911   -4.1504   -0.7616 H   0  0  0  0  0  0  0  0  0  0  0  0
   -6.6230   -0.7221    1.2789 H   0  0  0  0  0  0  0  0  0  0  0  0
    8.0783   -5.4985   -1.8934 H   0  0  0  0  0  0  0  0  0  0  0  0
    7.3929   -5.9917   -3.4477 H   0  0  0  0  0  0  0  0  0  0  0  0
    4.4433   -1.4365    0.8527 H   0  0  0  0  0  0  0  0  0  0  0  0
    3.2805   -1.7988    2.1683 H   0  0  0  0  0  0  0  0  0  0  0  0
    4.6978   -2.8342    1.8904 H   0  0  0  0  0  0  0  0  0  0  0  0
    2.0839   -6.1004   -2.0568 H   0  0  0  0  0  0  0  0  0  0  0  0
    2.0600   -4.5093   -2.8646 H   0  0  0  0  0  0  0  0  0  0  0  0
    2.7194   -5.9207   -3.6930 H   0  0  0  0  0  0  0  0  0  0  0  0
   -7.2740   -4.3487   -1.1931 H   0  0  0  0  0  0  0  0  0  0  0  0
   -6.9182   -5.0403    0.4386 H   0  0  0  0  0  0  0  0  0  0  0  0
   -8.5527   -4.5106    0.0151 H   0  0  0  0  0  0  0  0  0  0  0  0
    7.3301   -3.5826   -4.1862 H   0  0  0  0  0  0  0  0  0  0  0  0
    8.0461   -3.0979   -2.6417 H   0  0  0  0  0  0  0  0  0  0  0  0
    8.9740   -4.1011   -3.7724 H   0  0  0  0  0  0  0  0  0  0  0  0
  2  1  1  0  0  0  0
  3  1  2  0  0  0  0
  4  2  1  0  0  0  0
  4  7  2  0  0  0  0
  5  1  1  0  0  0  0
  6  2  1  0  0  0  0
  6 12  2  0  0  0  0
  7 10  1  0  0  0  0
  7 34  1  0  0  0  0
  8 17  1  0  0  0  0
  9  3  1  0  0  0  0
 10  5  2  0  0  0  0
 11 14  2  0  0  0  0
 12  3  1  0  0  0  0
 12 35  1  0  0  0  0
 13 15  1  0  0  0  0
 13 11  1  0  0  0  0
 14  8  1  0  0  0  0
 15  8  2  0  0  0  0
 15 36  1  0  0  0  0
 16  9  1  0  0  0  0
 17 16  1  0  0  0  0
 17 37  1  0  0  0  0
 17 38  1  0  0  0  0
 18  4  1  0  0  0  0
 18 39  1  0  0  0  0
 19 10  1  0  0  0  0
 20  9  2  0  0  0  0
 21 19  2  0  0  0  0
 21 40  1  0  0  0  0
 22 19  1  0  0  0  0
 22 41  1  0  0  0  0
 23 18  1  0  0  0  0
 24 18  1  0  0  0  0
 25 27  1  0  0  0  0
 26 21  1  0  0  0  0
 26 25  2  0  0  0  0
 26 42  1  0  0  0  0
 27 22  2  0  0  0  0
 27 43  1  0  0  0  0
 28 13  1  0  0  0  0
 28 44  1  0  0  0  0
 28 45  1  0  0  0  0
 29 16  1  0  0  0  0
 29 46  1  0  0  0  0
 29 47  1  0  0  0  0
 29 48  1  0  0  0  0
 30 14  1  0  0  0  0
 30 49  1  0  0  0  0
 30 50  1  0  0  0  0
 30 51  1  0  0  0  0
 31 25  1  0  0  0  0
 32 31  1  0  0  0  0
 32 52  1  0  0  0  0
 32 53  1  0  0  0  0
 32 54  1  0  0  0  0
 33 28  1  0  0  0  0
 33 55  1  0  0  0  0
 33 56  1  0  0  0  0
 33 57  1  0  0  0  0
M  END
>  <Mol_ID>
8900

>  <Formula>
C23H24F2N6O2

>  <MolWeight>
454.4724664

>  <Cat>
P2458

>  <Name>
WAY-326193

>  <Synonyms>
N/A

>  <Target>
11¦Â-HSD1

>  <Form>
free base

>  <CAS>
869866-06-8

>  <URL>
N/A

$$$$
