WAY-659204
 OpenBabel08302521433D

 30 32  0  0  0  0  0  0  0  0999 V2000
    1.0515   -0.6472   -0.0824 N   0  0  0  0  0  0  0  0  0  0  0  0
   -0.2006   -1.0572   -0.0585 C   0  0  0  0  0  0  0  0  0  0  0  0
   -1.0913   -0.0124   -0.0308 O   0  0  0  0  0  0  0  0  0  0  0  0
    1.0187    0.7333   -0.0470 N   0  0  0  0  0  0  0  0  0  0  0  0
   -1.3294    4.9368   -0.8323 C   0  0  0  0  0  0  0  0  0  0  0  0
   -2.0745    4.9950    0.2494 N   0  0  0  0  0  0  0  0  0  0  0  0
   -0.2540    1.0739   -0.0197 C   0  0  0  0  0  0  0  0  0  0  0  0
   -1.3197    6.3476   -1.8054 S   0  0  0  0  0  0  0  0  0  0  0  0
   -2.6957    6.2332    0.3308 C   0  0  0  0  0  0  0  0  0  0  0  0
   -2.4003    7.0964   -0.7074 C   0  0  0  0  0  0  0  0  0  0  0  0
   -0.4194    3.5059   -1.2618 S   0  0  0  0  0  0  0  0  0  0  0  0
   -0.7487   -2.4069    0.0100 C   0  0  0  0  0  0  0  0  0  0  0  0
   -0.8836    2.4103    0.1077 C   0  0  0  0  0  0  0  0  0  0  0  0
   -3.5931    6.5068    1.4822 C   0  0  0  0  0  0  0  0  0  0  0  0
    0.1176   -3.5081    0.0828 C   0  0  0  0  0  0  0  0  0  0  0  0
   -2.1321   -2.6427    0.0439 C   0  0  0  0  0  0  0  0  0  0  0  0
   -2.6331   -3.9415    0.1726 C   0  0  0  0  0  0  0  0  0  0  0  0
   -0.3830   -4.8072    0.2098 C   0  0  0  0  0  0  0  0  0  0  0  0
   -1.7589   -5.0215    0.2623 C   0  0  0  0  0  0  0  0  0  0  0  0
   -2.7582    8.1032   -0.8700 H   0  0  0  0  0  0  0  0  0  0  0  0
   -1.9738    2.3023    0.1230 H   0  0  0  0  0  0  0  0  0  0  0  0
   -0.5725    2.8571    1.0574 H   0  0  0  0  0  0  0  0  0  0  0  0
   -4.4004    5.7688    1.5164 H   0  0  0  0  0  0  0  0  0  0  0  0
   -3.0332    6.4530    2.4209 H   0  0  0  0  0  0  0  0  0  0  0  0
   -4.0439    7.5017    1.4100 H   0  0  0  0  0  0  0  0  0  0  0  0
    1.1967   -3.3595    0.0521 H   0  0  0  0  0  0  0  0  0  0  0  0
   -2.8363   -1.8161   -0.0181 H   0  0  0  0  0  0  0  0  0  0  0  0
   -3.7072   -4.1071    0.2110 H   0  0  0  0  0  0  0  0  0  0  0  0
    0.3019   -5.6490    0.2792 H   0  0  0  0  0  0  0  0  0  0  0  0
   -2.1487   -6.0303    0.3766 H   0  0  0  0  0  0  0  0  0  0  0  0
  2  1  2  0  0  0  0
  3  2  1  0  0  0  0
  3  7  1  0  0  0  0
  4  1  1  0  0  0  0
  5 11  1  0  0  0  0
  6  5  2  0  0  0  0
  7  4  2  0  0  0  0
  8  5  1  0  0  0  0
  9  6  1  0  0  0  0
 10  8  1  0  0  0  0
 10  9  2  0  0  0  0
 10 20  1  0  0  0  0
 11 13  1  0  0  0  0
 12  2  1  0  0  0  0
 13  7  1  0  0  0  0
 13 21  1  0  0  0  0
 13 22  1  0  0  0  0
 14  9  1  0  0  0  0
 14 23  1  0  0  0  0
 14 24  1  0  0  0  0
 14 25  1  0  0  0  0
 15 12  2  0  0  0  0
 15 26  1  0  0  0  0
 16 12  1  0  0  0  0
 16 27  1  0  0  0  0
 17 16  2  0  0  0  0
 17 28  1  0  0  0  0
 18 15  1  0  0  0  0
 18 29  1  0  0  0  0
 19 17  1  0  0  0  0
 19 18  2  0  0  0  0
 19 30  1  0  0  0  0
M  END
>  <Mol_ID>
8837

>  <Formula>
C13H11N3OS2

>  <MolWeight>
289.37594

>  <Cat>
P3184

>  <Name>
WAY-659204

>  <Synonyms>
N/A

>  <Target>
Androgen Receptor

>  <Form>
free base

>  <CAS>
863763-20-6

>  <URL>
N/A

$$$$
