WAY-300582
 OpenBabel08302521413D

 56 59  0  0  0  0  0  0  0  0999 V2000
   -4.5712    3.2730    0.4019 N   0  0  0  0  0  0  0  0  0  0  0  0
   -2.3613    2.9767    0.0570 C   0  0  0  0  0  0  0  0  0  0  0  0
   -4.3585    3.0266   -0.9031 N   0  0  0  0  0  0  0  0  0  0  0  0
   -3.4083    3.1141    1.0185 C   0  0  0  0  0  0  0  0  0  0  0  0
   -3.0124    2.8878   -1.1613 C   0  0  0  0  0  0  0  0  0  0  0  0
    0.0806    3.6809    0.0394 C   0  0  0  0  0  0  0  0  0  0  0  0
   -0.9539    2.8287    0.2420 C   0  0  0  0  0  0  0  0  0  0  0  0
   -0.0397    5.1118   -0.5248 C   0  0  0  0  0  0  0  0  0  0  0  0
    1.4198    3.2982    0.2979 N   0  0  0  0  0  0  0  0  0  0  0  0
    1.8413    2.1903    1.0268 C   0  0  0  0  0  0  0  0  0  0  0  0
    3.3069    1.9663    1.2049 C   0  0  0  0  0  0  0  0  0  0  0  0
   -5.4781    2.9886   -1.7783 C   0  0  0  0  0  0  0  0  0  0  0  0
   -3.4605    3.0672    2.4830 C   0  0  0  0  0  0  0  0  0  0  0  0
    0.9741    5.6839   -0.9329 O   0  0  0  0  0  0  0  0  0  0  0  0
    1.0966    1.3900    1.5879 O   0  0  0  0  0  0  0  0  0  0  0  0
   -1.3023    5.6962   -0.5123 N   0  0  0  0  0  0  0  0  0  0  0  0
    3.7273    1.3359    2.3896 C   0  0  0  0  0  0  0  0  0  0  0  0
    4.2571    2.2728    0.2294 C   0  0  0  0  0  0  0  0  0  0  0  0
   -1.5105    7.0486   -0.8737 N   0  0  0  0  0  0  0  0  0  0  0  0
    5.6145    1.9963    0.4653 C   0  0  0  0  0  0  0  0  0  0  0  0
    5.0793    1.0700    2.6248 C   0  0  0  0  0  0  0  0  0  0  0  0
    6.0388    1.4187    1.6721 C   0  0  0  0  0  0  0  0  0  0  0  0
   -6.7684    3.1493   -1.2312 C   0  0  0  0  0  0  0  0  0  0  0  0
   -5.3332    2.8236   -3.1560 C   0  0  0  0  0  0  0  0  0  0  0  0
   -4.3192    3.9637    3.1495 C   0  0  0  0  0  0  0  0  0  0  0  0
   -2.9389    1.9802    3.1911 C   0  0  0  0  0  0  0  0  0  0  0  0
    7.4966    1.1586    1.9256 C   0  0  0  0  0  0  0  0  0  0  0  0
   -3.3464    1.7481    4.5118 C   0  0  0  0  0  0  0  0  0  0  0  0
   -7.8915    3.1869   -2.0538 C   0  0  0  0  0  0  0  0  0  0  0  0
   -6.4668    2.8647   -3.9754 C   0  0  0  0  0  0  0  0  0  0  0  0
   -4.7215    3.7306    4.4647 C   0  0  0  0  0  0  0  0  0  0  0  0
   -4.2538    2.6061    5.1369 C   0  0  0  0  0  0  0  0  0  0  0  0
   -7.7394    3.0563   -3.4288 C   0  0  0  0  0  0  0  0  0  0  0  0
   -2.6423    2.6998   -2.1575 H   0  0  0  0  0  0  0  0  0  0  0  0
   -0.7240    1.8204    0.5732 H   0  0  0  0  0  0  0  0  0  0  0  0
    2.1071    4.0035    0.0326 H   0  0  0  0  0  0  0  0  0  0  0  0
   -2.0633    5.2352   -0.0254 H   0  0  0  0  0  0  0  0  0  0  0  0
    2.9959    1.0409    3.1409 H   0  0  0  0  0  0  0  0  0  0  0  0
    3.9622    2.6891   -0.7291 H   0  0  0  0  0  0  0  0  0  0  0  0
   -0.7975    7.3224   -1.5602 H   0  0  0  0  0  0  0  0  0  0  0  0
   -2.4120    7.1251   -1.3553 H   0  0  0  0  0  0  0  0  0  0  0  0
    6.3470    2.2279   -0.3066 H   0  0  0  0  0  0  0  0  0  0  0  0
    5.3716    0.5893    3.5565 H   0  0  0  0  0  0  0  0  0  0  0  0
   -6.9139    3.2525   -0.1550 H   0  0  0  0  0  0  0  0  0  0  0  0
   -4.3641    2.6720   -3.6196 H   0  0  0  0  0  0  0  0  0  0  0  0
   -4.7565    4.8015    2.6078 H   0  0  0  0  0  0  0  0  0  0  0  0
   -2.2940    1.2540    2.7041 H   0  0  0  0  0  0  0  0  0  0  0  0
    7.8655    0.3620    1.2726 H   0  0  0  0  0  0  0  0  0  0  0  0
    8.0795    2.0692    1.7474 H   0  0  0  0  0  0  0  0  0  0  0  0
    7.6767    0.8579    2.9641 H   0  0  0  0  0  0  0  0  0  0  0  0
   -2.9985    0.8619    5.0367 H   0  0  0  0  0  0  0  0  0  0  0  0
   -8.8774    3.3259   -1.6178 H   0  0  0  0  0  0  0  0  0  0  0  0
   -6.3601    2.7524   -5.0511 H   0  0  0  0  0  0  0  0  0  0  0  0
   -5.4431    4.3927    4.9362 H   0  0  0  0  0  0  0  0  0  0  0  0
   -4.6168    2.3845    6.1375 H   0  0  0  0  0  0  0  0  0  0  0  0
   -8.6103    3.1021   -4.0754 H   0  0  0  0  0  0  0  0  0  0  0  0
  2  4  1  0  0  0  0
  3  1  1  0  0  0  0
  4  1  2  0  0  0  0
  5  3  1  0  0  0  0
  5  2  2  0  0  0  0
  5 34  1  0  0  0  0
  6  7  2  0  0  0  0
  7  2  1  0  0  0  0
  7 35  1  0  0  0  0
  8  6  1  0  0  0  0
  9  6  1  0  0  0  0
  9 36  1  0  0  0  0
 10  9  1  0  0  0  0
 11 10  1  0  0  0  0
 12  3  1  0  0  0  0
 13  4  1  0  0  0  0
 14  8  2  0  0  0  0
 15 10  2  0  0  0  0
 16  8  1  0  0  0  0
 16 37  1  0  0  0  0
 17 11  2  0  0  0  0
 17 38  1  0  0  0  0
 18 11  1  0  0  0  0
 18 39  1  0  0  0  0
 19 16  1  0  0  0  0
 19 40  1  0  0  0  0
 19 41  1  0  0  0  0
 20 18  2  0  0  0  0
 20 22  1  0  0  0  0
 20 42  1  0  0  0  0
 21 17  1  0  0  0  0
 21 43  1  0  0  0  0
 22 21  2  0  0  0  0
 23 12  2  0  0  0  0
 23 44  1  0  0  0  0
 24 12  1  0  0  0  0
 24 45  1  0  0  0  0
 25 13  2  0  0  0  0
 25 46  1  0  0  0  0
 26 13  1  0  0  0  0
 26 47  1  0  0  0  0
 27 22  1  0  0  0  0
 27 48  1  0  0  0  0
 27 49  1  0  0  0  0
 27 50  1  0  0  0  0
 28 26  2  0  0  0  0
 28 51  1  0  0  0  0
 29 23  1  0  0  0  0
 29 52  1  0  0  0  0
 30 24  2  0  0  0  0
 30 53  1  0  0  0  0
 31 25  1  0  0  0  0
 31 54  1  0  0  0  0
 32 31  2  0  0  0  0
 32 28  1  0  0  0  0
 32 55  1  0  0  0  0
 33 30  1  0  0  0  0
 33 29  2  0  0  0  0
 33 56  1  0  0  0  0
M  END
>  <Mol_ID>
8415

>  <Formula>
C26H23N5O2

>  <MolWeight>
437.49312

>  <Cat>
P2148

>  <Name>
WAY-300582

>  <Synonyms>
N/A

>  <Target>
ras

>  <Form>
free base

>  <CAS>
306281-21-0

>  <URL>
N/A

$$$$
