WAY-301183
 OpenBabel08302521413D

 42 46  0  0  0  0  0  0  0  0999 V2000
   -0.1809    1.1774   -0.0517 C   0  0  0  0  0  0  0  0  0  0  0  0
    1.1937    1.7503    0.0850 C   0  0  3  0  0  0  0  0  0  0  0  0
   -0.4066   -0.1429   -0.0299 C   0  0  0  0  0  0  0  0  0  0  0  0
   -1.4727    1.8697   -0.1468 C   0  0  0  0  0  0  0  0  0  0  0  0
    2.2432    0.6351   -0.0153 C   0  0  0  0  0  0  0  0  0  0  0  0
    1.3138    2.4985    1.4176 C   0  0  0  0  0  0  0  0  0  0  0  0
   -1.8291   -0.4088   -0.0625 C   0  0  0  0  0  0  0  0  0  0  0  0
    0.6002   -1.0591    0.0736 N   0  0  0  0  0  0  0  0  0  0  0  0
   -2.4934    0.8140   -0.1160 C   0  0  0  0  0  0  0  0  0  0  0  0
   -1.6618    3.0631   -0.2406 O   0  0  0  0  0  0  0  0  0  0  0  0
    1.9440   -0.6891    0.0184 C   0  0  0  0  0  0  0  0  0  0  0  0
    3.6427    1.0411   -0.2227 C   0  0  0  0  0  0  0  0  0  0  0  0
    1.0868    1.8382    2.6411 C   0  0  0  0  0  0  0  0  0  0  0  0
    1.6040    3.8713    1.4437 C   0  0  0  0  0  0  0  0  0  0  0  0
   -2.5516   -1.5902   -0.0111 C   0  0  0  0  0  0  0  0  0  0  0  0
   -3.8703    0.9276   -0.1070 C   0  0  0  0  0  0  0  0  0  0  0  0
    2.9727   -1.6253   -0.0100 N   0  0  0  0  0  0  0  0  0  0  0  0
    4.5705    0.0798    0.0239 N   0  0  0  0  0  0  0  0  0  0  0  0
    3.9488    2.1574   -0.6249 O   0  0  0  0  0  0  0  0  0  0  0  0
    1.1098    2.5442    3.8433 C   0  0  0  0  0  0  0  0  0  0  0  0
    1.6423    4.5688    2.6552 C   0  0  0  0  0  0  0  0  0  0  0  0
   -3.9493   -1.5057    0.0001 C   0  0  0  0  0  0  0  0  0  0  0  0
   -4.6033   -0.2588   -0.0418 C   0  0  0  0  0  0  0  0  0  0  0  0
    4.3132   -1.2590    0.0001 C   0  0  0  0  0  0  0  0  0  0  0  0
    2.6636   -3.0481   -0.0137 C   0  0  0  0  0  0  0  0  0  0  0  0
    1.3858    3.9075    3.8562 C   0  0  0  0  0  0  0  0  0  0  0  0
    0.7283    1.6421    5.4604 Br  0  0  0  0  0  0  0  0  0  0  0  0
    5.2509   -2.0533   -0.0405 O   0  0  0  0  0  0  0  0  0  0  0  0
    1.3463    2.4471   -0.7502 H   0  0  0  0  0  0  0  0  0  0  0  0
    0.3637   -2.0382   -0.0030 H   0  0  0  0  0  0  0  0  0  0  0  0
    0.8639    0.7736    2.6543 H   0  0  0  0  0  0  0  0  0  0  0  0
    1.7873    4.4140    0.5174 H   0  0  0  0  0  0  0  0  0  0  0  0
   -2.0620   -2.5555    0.0324 H   0  0  0  0  0  0  0  0  0  0  0  0
   -4.3537    1.8979   -0.1323 H   0  0  0  0  0  0  0  0  0  0  0  0
    5.5362    0.3371   -0.1104 H   0  0  0  0  0  0  0  0  0  0  0  0
    1.8569    5.6348    2.6602 H   0  0  0  0  0  0  0  0  0  0  0  0
   -4.5428   -2.4170    0.0531 H   0  0  0  0  0  0  0  0  0  0  0  0
   -5.6898   -0.2206   -0.0145 H   0  0  0  0  0  0  0  0  0  0  0  0
    2.0924   -3.2958    0.8870 H   0  0  0  0  0  0  0  0  0  0  0  0
    2.0751   -3.2848   -0.9060 H   0  0  0  0  0  0  0  0  0  0  0  0
    3.5630   -3.6697   -0.0253 H   0  0  0  0  0  0  0  0  0  0  0  0
    1.3943    4.4634    4.7900 H   0  0  0  0  0  0  0  0  0  0  0  0
  1  2  1  0  0  0  0
  1  3  2  0  0  0  0
  1  4  1  0  0  0  0
  2  5  1  0  0  0  0
  2  6  1  0  0  0  0
  2 29  1  0  0  0  0
  3  7  1  0  0  0  0
  3  8  1  0  0  0  0
  4  9  1  0  0  0  0
  4 10  2  0  0  0  0
  5 11  2  0  0  0  0
  5 12  1  0  0  0  0
  6 13  2  0  0  0  0
  6 14  1  0  0  0  0
  7 15  2  0  0  0  0
  7  9  1  0  0  0  0
  8 11  1  0  0  0  0
  8 30  1  0  0  0  0
  9 16  2  0  0  0  0
 11 17  1  0  0  0  0
 12 18  1  0  0  0  0
 12 19  2  0  0  0  0
 13 20  1  0  0  0  0
 13 31  1  0  0  0  0
 14 21  2  0  0  0  0
 14 32  1  0  0  0  0
 15 22  1  0  0  0  0
 15 33  1  0  0  0  0
 16 23  1  0  0  0  0
 16 34  1  0  0  0  0
 17 24  1  0  0  0  0
 17 25  1  0  0  0  0
 18 24  1  0  0  0  0
 18 35  1  0  0  0  0
 20 26  2  0  0  0  0
 20 27  1  0  0  0  0
 21 26  1  0  0  0  0
 21 36  1  0  0  0  0
 22 23  2  0  0  0  0
 22 37  1  0  0  0  0
 23 38  1  0  0  0  0
 24 28  2  0  0  0  0
 25 39  1  0  0  0  0
 25 40  1  0  0  0  0
 25 41  1  0  0  0  0
 26 42  1  0  0  0  0
M  END
>  <Mol_ID>
8426

>  <Formula>
C21H14BrN3O3

>  <MolWeight>
436.25816

>  <Cat>
P2159

>  <Name>
WAY-301183

>  <Synonyms>
N/A

>  <Target>
cyclic nucleotide synthesis

>  <Form>
free base

>  <CAS>
332382-63-5

>  <URL>
N/A

$$$$
