WAY-324284-A
 OpenBabel08302521423D

 50 53  0  0  0  0  0  0  0  0999 V2000
    1.5772    0.3899   -0.1008 S   0  0  0  0  0  0  0  0  0  0  0  0
    0.7034   -0.9518    0.4503 N   0  0  0  0  0  0  0  0  0  0  0  0
   -0.8914   -5.4237   -1.0113 C   0  0  0  0  0  0  0  0  0  0  0  0
   -1.4623   -6.9520   -2.5421 N   0  0  0  0  0  0  0  0  0  0  0  0
   -0.4313   -6.1823   -2.0748 C   0  0  0  0  0  0  0  0  0  0  0  0
   -2.2948   -5.7125   -0.8898 C   0  0  0  0  0  0  0  0  0  0  0  0
    1.2764    1.5889    1.1850 C   0  0  0  0  0  0  0  0  0  0  0  0
    0.8343   -3.6654   -0.7679 N   0  0  0  0  0  0  0  0  0  0  0  0
   -0.0702   -4.5868   -0.0658 C   0  0  0  0  0  0  0  0  0  0  0  0
    0.9433    0.9174   -1.2908 O   0  0  0  0  0  0  0  0  0  0  0  0
    2.9857    0.0653   -0.0779 O   0  0  0  0  0  0  0  0  0  0  0  0
    1.4496   -2.0390    1.1369 C   0  0  0  0  0  0  0  0  0  0  0  0
   -0.3965   -1.4673   -0.4056 C   0  0  0  0  0  0  0  0  0  0  0  0
   -2.5919   -6.7403   -1.7870 C   0  0  0  0  0  0  0  0  0  0  0  0
    1.8869   -3.1414    0.1396 C   0  0  0  0  0  0  0  0  0  0  0  0
    0.1240   -2.5285   -1.3955 C   0  0  0  0  0  0  0  0  0  0  0  0
    2.3404    2.1890    1.8667 C   0  0  0  0  0  0  0  0  0  0  0  0
   -0.0370    1.9892    1.4449 C   0  0  0  0  0  0  0  0  0  0  0  0
    0.7810    3.6339    3.0396 C   0  0  0  0  0  0  0  0  0  0  0  0
    2.0894    3.2094    2.7972 C   0  0  0  0  0  0  0  0  0  0  0  0
   -0.2776    3.0054    2.3744 C   0  0  0  0  0  0  0  0  0  0  0  0
    0.3977    4.6361    3.8875 O   0  0  0  0  0  0  0  0  0  0  0  0
   -3.3256   -5.2471   -0.0466 C   0  0  0  0  0  0  0  0  0  0  0  0
   -3.8347   -7.3875   -1.8172 C   0  0  0  0  0  0  0  0  0  0  0  0
    1.4268    5.4225    4.4744 C   0  0  0  0  0  0  0  0  0  0  0  0
   -4.5777   -5.8731   -0.0724 C   0  0  0  0  0  0  0  0  0  0  0  0
   -4.8162   -6.9479   -0.9244 C   0  0  0  0  0  0  0  0  0  0  0  0
   -1.3950   -7.6230   -3.2947 H   0  0  0  0  0  0  0  0  0  0  0  0
    0.5581   -6.2684   -2.5046 H   0  0  0  0  0  0  0  0  0  0  0  0
    0.5255   -5.3075    0.5118 H   0  0  0  0  0  0  0  0  0  0  0  0
   -0.7092   -4.0703    0.6574 H   0  0  0  0  0  0  0  0  0  0  0  0
    2.3245   -1.6420    1.6646 H   0  0  0  0  0  0  0  0  0  0  0  0
    0.7993   -2.4630    1.9107 H   0  0  0  0  0  0  0  0  0  0  0  0
   -1.1639   -1.8922    0.2517 H   0  0  0  0  0  0  0  0  0  0  0  0
   -0.8924   -0.6540   -0.9437 H   0  0  0  0  0  0  0  0  0  0  0  0
    2.6906   -2.7429   -0.4919 H   0  0  0  0  0  0  0  0  0  0  0  0
    2.3448   -3.9678    0.6988 H   0  0  0  0  0  0  0  0  0  0  0  0
    0.8239   -2.0477   -2.0915 H   0  0  0  0  0  0  0  0  0  0  0  0
   -0.7059   -2.8849   -2.0154 H   0  0  0  0  0  0  0  0  0  0  0  0
    3.3671    1.8899    1.6666 H   0  0  0  0  0  0  0  0  0  0  0  0
   -0.8692    1.5371    0.9116 H   0  0  0  0  0  0  0  0  0  0  0  0
    2.9360    3.6663    3.2994 H   0  0  0  0  0  0  0  0  0  0  0  0
   -1.2989    3.3293    2.5645 H   0  0  0  0  0  0  0  0  0  0  0  0
   -3.1513   -4.4203    0.6340 H   0  0  0  0  0  0  0  0  0  0  0  0
   -4.0274   -8.2194   -2.4868 H   0  0  0  0  0  0  0  0  0  0  0  0
    2.0057    4.8326    5.1919 H   0  0  0  0  0  0  0  0  0  0  0  0
    2.0757    5.8707    3.7144 H   0  0  0  0  0  0  0  0  0  0  0  0
    0.9492    6.2410    5.0232 H   0  0  0  0  0  0  0  0  0  0  0  0
   -5.3633   -5.5293    0.5960 H   0  0  0  0  0  0  0  0  0  0  0  0
   -5.7799   -7.4518   -0.8966 H   0  0  0  0  0  0  0  0  0  0  0  0
  2  1  1  0  0  0  0
  3  9  1  0  0  0  0
  4  5  1  0  0  0  0
  4 28  1  0  0  0  0
  5  3  2  0  0  0  0
  5 29  1  0  0  0  0
  6  3  1  0  0  0  0
  7  1  1  0  0  0  0
  8 16  1  0  0  0  0
  9  8  1  0  0  0  0
  9 30  1  0  0  0  0
  9 31  1  0  0  0  0
 10  1  2  0  0  0  0
 11  1  2  0  0  0  0
 12  2  1  0  0  0  0
 12 32  1  0  0  0  0
 12 33  1  0  0  0  0
 13  2  1  0  0  0  0
 13 34  1  0  0  0  0
 13 35  1  0  0  0  0
 14  6  2  0  0  0  0
 14  4  1  0  0  0  0
 15 12  1  0  0  0  0
 15  8  1  0  0  0  0
 15 36  1  0  0  0  0
 15 37  1  0  0  0  0
 16 13  1  0  0  0  0
 16 38  1  0  0  0  0
 16 39  1  0  0  0  0
 17  7  2  0  0  0  0
 17 40  1  0  0  0  0
 18  7  1  0  0  0  0
 18 41  1  0  0  0  0
 19 21  1  0  0  0  0
 19 20  2  0  0  0  0
 20 17  1  0  0  0  0
 20 42  1  0  0  0  0
 21 18  2  0  0  0  0
 21 43  1  0  0  0  0
 22 19  1  0  0  0  0
 23  6  1  0  0  0  0
 23 44  1  0  0  0  0
 24 14  1  0  0  0  0
 24 45  1  0  0  0  0
 25 22  1  0  0  0  0
 25 46  1  0  0  0  0
 25 47  1  0  0  0  0
 25 48  1  0  0  0  0
 26 23  2  0  0  0  0
 26 49  1  0  0  0  0
 27 26  1  0  0  0  0
 27 24  2  0  0  0  0
 27 50  1  0  0  0  0
M  END
>  <Mol_ID>
8616

>  <Formula>
C20H23N3O3S

>  <MolWeight>
385.47992

>  <Cat>
P2313

>  <Name>
WAY-324284-A

>  <Synonyms>
N/A

>  <Target>
PfENR

>  <Form>
free base

>  <CAS>
524676-05-9

>  <URL>
N/A

$$$$
