WAY-621089
 OpenBabel08302521443D

 36 39  0  0  0  0  0  0  0  0999 V2000
   -0.2509   -0.6829   -0.2678 C   0  0  0  0  0  0  0  0  0  0  0  0
   -0.1375    0.6831   -0.1814 C   0  0  0  0  0  0  0  0  0  0  0  0
    0.8458   -1.5123   -0.2291 C   0  0  0  0  0  0  0  0  0  0  0  0
   -1.5422   -1.0918   -0.3876 O   0  0  0  0  0  0  0  0  0  0  0  0
    1.0895    1.2947   -0.0515 C   0  0  0  0  0  0  0  0  0  0  0  0
   -1.3445    1.3060   -0.2371 O   0  0  0  0  0  0  0  0  0  0  0  0
    2.1093   -0.9323   -0.0914 C   0  0  0  0  0  0  0  0  0  0  0  0
   -2.2321    0.1710   -0.3334 C   0  0  0  0  0  0  0  0  0  0  0  0
    2.2245    0.4739   -0.0046 C   0  0  0  0  0  0  0  0  0  0  0  0
    3.2915   -1.6894   -0.0269 N   0  0  0  0  0  0  0  0  0  0  0  0
    3.4028   -3.0614   -0.1184 C   0  0  0  0  0  0  0  0  0  0  0  0
    4.8559   -3.5428   -0.0056 C   0  0  0  0  0  0  0  0  0  0  0  0
    2.5319   -3.9050   -0.2838 O   0  0  0  0  0  0  0  0  0  0  0  0
    4.9709   -4.8985   -0.2324 N   0  0  0  0  0  0  0  0  0  0  0  0
    5.7267   -2.7146    0.2226 O   0  0  0  0  0  0  0  0  0  0  0  0
    6.1437   -5.6655   -0.1745 C   0  0  0  0  0  0  0  0  0  0  0  0
    7.3279   -5.1866    0.3904 C   0  0  0  0  0  0  0  0  0  0  0  0
    6.0935   -6.9782   -0.6935 C   0  0  0  0  0  0  0  0  0  0  0  0
    8.4170   -6.0286    0.4207 C   0  0  0  0  0  0  0  0  0  0  0  0
    7.2260   -7.8014   -0.6755 C   0  0  0  0  0  0  0  0  0  0  0  0
    8.3719   -7.2980   -0.1020 C   0  0  0  0  0  0  0  0  0  0  0  0
    9.6285   -5.7295    0.9611 O   0  0  0  0  0  0  0  0  0  0  0  0
    9.5552   -7.9535    0.0322 O   0  0  0  0  0  0  0  0  0  0  0  0
   10.3197   -6.9802    0.7757 C   0  0  0  0  0  0  0  0  0  0  0  0
    0.6886   -2.5819   -0.2990 H   0  0  0  0  0  0  0  0  0  0  0  0
    1.1703    2.3736    0.0144 H   0  0  0  0  0  0  0  0  0  0  0  0
   -2.8427    0.2745   -1.2374 H   0  0  0  0  0  0  0  0  0  0  0  0
   -2.8938    0.1672    0.5407 H   0  0  0  0  0  0  0  0  0  0  0  0
    3.2002    0.9439    0.1039 H   0  0  0  0  0  0  0  0  0  0  0  0
    4.1758   -1.1980    0.0961 H   0  0  0  0  0  0  0  0  0  0  0  0
    4.1036   -5.3586   -0.5040 H   0  0  0  0  0  0  0  0  0  0  0  0
    7.4131   -4.2001    0.8297 H   0  0  0  0  0  0  0  0  0  0  0  0
    5.1773   -7.3633   -1.1356 H   0  0  0  0  0  0  0  0  0  0  0  0
    7.2026   -8.8019   -1.0925 H   0  0  0  0  0  0  0  0  0  0  0  0
   11.2589   -6.7856    0.2465 H   0  0  0  0  0  0  0  0  0  0  0  0
   10.5500   -7.3985    1.7626 H   0  0  0  0  0  0  0  0  0  0  0  0
  1  2  1  0  0  0  0
  1  3  2  0  0  0  0
  1  4  1  0  0  0  0
  2  5  2  0  0  0  0
  2  6  1  0  0  0  0
  3  7  1  0  0  0  0
  3 25  1  0  0  0  0
  4  8  1  0  0  0  0
  5  9  1  0  0  0  0
  5 26  1  0  0  0  0
  6  8  1  0  0  0  0
  7 10  1  0  0  0  0
  7  9  2  0  0  0  0
  8 27  1  0  0  0  0
  8 28  1  0  0  0  0
  9 29  1  0  0  0  0
 10 11  1  0  0  0  0
 10 30  1  0  0  0  0
 11 12  1  0  0  0  0
 11 13  2  0  0  0  0
 12 14  1  0  0  0  0
 12 15  2  0  0  0  0
 14 16  1  0  0  0  0
 14 31  1  0  0  0  0
 16 17  2  0  0  0  0
 16 18  1  0  0  0  0
 17 19  1  0  0  0  0
 17 32  1  0  0  0  0
 18 20  2  0  0  0  0
 18 33  1  0  0  0  0
 19 21  2  0  0  0  0
 19 22  1  0  0  0  0
 20 21  1  0  0  0  0
 20 34  1  0  0  0  0
 21 23  1  0  0  0  0
 22 24  1  0  0  0  0
 23 24  1  0  0  0  0
 24 35  1  0  0  0  0
 24 36  1  0  0  0  0
M  END
>  <Mol_ID>
9042

>  <Formula>
C16H12N2O6

>  <MolWeight>
328.27628

>  <Cat>
P2963

>  <Name>
WAY-621089

>  <Synonyms>
N/A

>  <Target>
Others

>  <Form>
free base

>  <CAS>
303790-92-3

>  <URL>
N/A

$$$$
