WAY-332038
 OpenBabel08302521443D

 52 54  0  0  0  0  0  0  0  0999 V2000
   -1.5852    3.5015    1.0120 N   0  0  0  0  0  0  0  0  0  0  0  0
   -0.3758    2.8452    1.0800 C   0  0  0  0  0  0  0  0  0  0  0  0
   -2.0106    3.5580    2.2575 C   0  0  0  0  0  0  0  0  0  0  0  0
   -1.1607    2.9672    3.1568 O   0  0  0  0  0  0  0  0  0  0  0  0
   -0.1265    2.5007    2.3928 C   0  0  0  0  0  0  0  0  0  0  0  0
   -0.1906    3.3097   -1.6618 S   0  0  3  0  0  0  0  0  0  0  0  0
    0.4649    2.6009   -0.1192 C   0  0  0  0  0  0  0  0  0  0  0  0
   -0.0630    5.0719   -1.2040 C   0  0  0  0  0  0  0  0  0  0  0  0
   -3.2340    4.1597    2.7751 C   0  0  0  0  0  0  0  0  0  0  0  0
   -0.7518    5.9654   -2.2191 C   0  0  0  0  0  0  0  0  0  0  0  0
   -0.7410    7.3188   -2.0132 N   0  0  0  0  0  0  0  0  0  0  0  0
    0.8371    3.0334   -2.7239 O   0  0  0  0  0  0  0  0  0  0  0  0
   -4.1248    4.7909    1.8876 C   0  0  0  0  0  0  0  0  0  0  0  0
   -1.3609    5.5577   -3.2056 O   0  0  0  0  0  0  0  0  0  0  0  0
   -0.1472    8.0922   -0.9475 C   0  0  0  0  0  0  0  0  0  0  0  0
    1.2103    8.6635   -1.2820 C   0  0  0  0  0  0  0  0  0  0  0  0
   -5.3220    5.3610    2.3435 C   0  0  0  0  0  0  0  0  0  0  0  0
    3.6999    9.8937   -1.8217 C   0  0  0  0  0  0  0  0  0  0  0  0
    1.6269    8.8947   -2.6004 C   0  0  0  0  0  0  0  0  0  0  0  0
    2.0533    9.0720   -0.2374 C   0  0  0  0  0  0  0  0  0  0  0  0
    2.8605    9.4995   -2.8671 C   0  0  0  0  0  0  0  0  0  0  0  0
    3.2852    9.6777   -0.5040 C   0  0  0  0  0  0  0  0  0  0  0  0
    0.9483    1.7772    3.0968 C   0  0  0  0  0  0  0  0  0  0  0  0
   -3.5578    4.1195    4.1367 C   0  0  0  0  0  0  0  0  0  0  0  0
   -4.7483    4.6829    4.6001 C   0  0  0  0  0  0  0  0  0  0  0  0
   -5.6256    5.2971    3.7073 C   0  0  0  0  0  0  0  0  0  0  0  0
   -6.2799    6.0223    1.3959 C   0  0  0  0  0  0  0  0  0  0  0  0
    5.0178   10.5556   -2.0955 C   0  0  0  0  0  0  0  0  0  0  0  0
    1.4776    2.9891    0.0301 H   0  0  0  0  0  0  0  0  0  0  0  0
    0.5417    1.5204   -0.2857 H   0  0  0  0  0  0  0  0  0  0  0  0
   -0.5555    5.2395   -0.2460 H   0  0  0  0  0  0  0  0  0  0  0  0
    0.9954    5.3324   -1.1200 H   0  0  0  0  0  0  0  0  0  0  0  0
   -1.2136    7.8261   -2.7519 H   0  0  0  0  0  0  0  0  0  0  0  0
   -3.8827    4.8284    0.8252 H   0  0  0  0  0  0  0  0  0  0  0  0
   -0.0877    7.4774   -0.0421 H   0  0  0  0  0  0  0  0  0  0  0  0
   -0.8296    8.9247   -0.7513 H   0  0  0  0  0  0  0  0  0  0  0  0
    0.9981    8.6163   -3.4425 H   0  0  0  0  0  0  0  0  0  0  0  0
    1.7536    8.9334    0.7994 H   0  0  0  0  0  0  0  0  0  0  0  0
    3.1546    9.6634   -3.9017 H   0  0  0  0  0  0  0  0  0  0  0  0
    3.9177    9.9892    0.3246 H   0  0  0  0  0  0  0  0  0  0  0  0
    1.3904    2.4021    3.8787 H   0  0  0  0  0  0  0  0  0  0  0  0
    0.5517    0.8702    3.5636 H   0  0  0  0  0  0  0  0  0  0  0  0
    1.7449    1.4813    2.4074 H   0  0  0  0  0  0  0  0  0  0  0  0
   -2.8892    3.6419    4.8494 H   0  0  0  0  0  0  0  0  0  0  0  0
   -4.9942    4.6357    5.6567 H   0  0  0  0  0  0  0  0  0  0  0  0
   -6.5542    5.7239    4.0807 H   0  0  0  0  0  0  0  0  0  0  0  0
   -7.2452    5.5058    1.4160 H   0  0  0  0  0  0  0  0  0  0  0  0
   -6.4278    7.0693    1.6800 H   0  0  0  0  0  0  0  0  0  0  0  0
   -5.9096    6.0031    0.3659 H   0  0  0  0  0  0  0  0  0  0  0  0
    5.0141   11.5785   -1.7052 H   0  0  0  0  0  0  0  0  0  0  0  0
    5.8286    9.9927   -1.6221 H   0  0  0  0  0  0  0  0  0  0  0  0
    5.2283   10.6049   -3.1690 H   0  0  0  0  0  0  0  0  0  0  0  0
  2  1  1  0  0  0  0
  3  1  2  0  0  0  0
  4  3  1  0  0  0  0
  4  5  1  0  0  0  0
  5  2  2  0  0  0  0
  6  7  1  0  0  0  0
  7  2  1  0  0  0  0
  7 29  1  0  0  0  0
  7 30  1  0  0  0  0
  8  6  1  0  0  0  0
  8 31  1  0  0  0  0
  8 32  1  0  0  0  0
  9  3  1  0  0  0  0
 10  8  1  0  0  0  0
 11 10  1  0  0  0  0
 11 33  1  0  0  0  0
 12  6  2  0  0  0  0
 13  9  2  0  0  0  0
 13 34  1  0  0  0  0
 14 10  2  0  0  0  0
 15 11  1  0  0  0  0
 15 35  1  0  0  0  0
 15 36  1  0  0  0  0
 16 15  1  0  0  0  0
 17 13  1  0  0  0  0
 18 22  2  0  0  0  0
 19 16  1  0  0  0  0
 19 37  1  0  0  0  0
 20 16  2  0  0  0  0
 20 38  1  0  0  0  0
 21 19  2  0  0  0  0
 21 18  1  0  0  0  0
 21 39  1  0  0  0  0
 22 20  1  0  0  0  0
 22 40  1  0  0  0  0
 23  5  1  0  0  0  0
 23 41  1  0  0  0  0
 23 42  1  0  0  0  0
 23 43  1  0  0  0  0
 24  9  1  0  0  0  0
 24 44  1  0  0  0  0
 25 24  2  0  0  0  0
 25 45  1  0  0  0  0
 26 25  1  0  0  0  0
 26 17  2  0  0  0  0
 26 46  1  0  0  0  0
 27 17  1  0  0  0  0
 27 47  1  0  0  0  0
 27 48  1  0  0  0  0
 27 49  1  0  0  0  0
 28 18  1  0  0  0  0
 28 50  1  0  0  0  0
 28 51  1  0  0  0  0
 28 52  1  0  0  0  0
M  END
>  <Mol_ID>
9211

>  <Formula>
C22H24N2O3S

>  <MolWeight>
396.50256

>  <Cat>
P2686

>  <Name>
WAY-332038

>  <Synonyms>
N/A

>  <Target>
beta-catenin

>  <Form>
free base

>  <CAS>
958503-24-7

>  <URL>
N/A

$$$$
