WAY-311462
 OpenBabel08302521393D

 46 48  0  0  0  0  0  0  0  0999 V2000
   -1.9145    0.4196   -0.1489 C   0  0  3  0  0  0  0  0  0  0  0  0
   -0.7223    1.3285   -0.0516 C   0  0  0  0  0  0  0  0  0  0  0  0
   -1.2723   -0.8921   -0.2057 N   0  0  0  0  0  0  0  0  0  0  0  0
   -2.8296    0.6566   -1.3261 C   0  0  0  0  0  0  0  0  0  0  0  0
   -0.9170    2.7790    0.1795 C   0  0  0  0  0  0  0  0  0  0  0  0
    0.4315    0.6546   -0.1346 C   0  0  0  0  0  0  0  0  0  0  0  0
    0.1020   -0.7827   -0.1320 C   0  0  0  0  0  0  0  0  0  0  0  0
   -1.9512   -2.1587    0.0486 C   0  0  0  0  0  0  0  0  0  0  0  0
   -4.1836    0.9620   -1.1282 C   0  0  0  0  0  0  0  0  0  0  0  0
   -2.3936    0.5574   -2.6444 C   0  0  0  0  0  0  0  0  0  0  0  0
    0.1055    3.5715    0.9158 C   0  0  0  0  0  0  0  0  0  0  0  0
   -1.9569    3.3308   -0.1752 O   0  0  0  0  0  0  0  0  0  0  0  0
    1.7157    1.1062   -0.0854 O   0  0  0  0  0  0  0  0  0  0  0  0
    0.9494   -1.6456    0.0077 O   0  0  0  0  0  0  0  0  0  0  0  0
   -2.9535   -2.6004   -1.0122 C   0  0  0  0  0  0  0  0  0  0  0  0
   -5.0284    1.1388   -2.2211 C   0  0  0  0  0  0  0  0  0  0  0  0
   -3.2021    0.6990   -3.7211 N   0  0  0  0  0  0  0  0  0  0  0  0
    0.2823    4.9211    0.5855 C   0  0  0  0  0  0  0  0  0  0  0  0
    0.8438    3.0261    1.9706 C   0  0  0  0  0  0  0  0  0  0  0  0
   -2.3110   -2.8122   -2.3609 C   0  0  0  0  0  0  0  0  0  0  0  0
   -4.4944    1.0034   -3.4885 C   0  0  0  0  0  0  0  0  0  0  0  0
    1.2367    5.6966    1.2587 C   0  0  0  0  0  0  0  0  0  0  0  0
    1.8097    3.7944    2.6213 C   0  0  0  0  0  0  0  0  0  0  0  0
   -3.1463   -2.5759   -3.3967 O   0  0  0  0  0  0  0  0  0  0  0  0
   -1.1696   -3.2105   -2.5301 O   0  0  0  0  0  0  0  0  0  0  0  0
    2.0188    5.1274    2.2651 C   0  0  0  0  0  0  0  0  0  0  0  0
    3.0071    5.7488    2.9751 O   0  0  0  0  0  0  0  0  0  0  0  0
    3.2747    7.1073    2.6573 C   0  0  0  0  0  0  0  0  0  0  0  0
   -2.4731    0.4636    0.7952 H   0  0  0  0  0  0  0  0  0  0  0  0
   -1.1944   -2.9420    0.1766 H   0  0  0  0  0  0  0  0  0  0  0  0
   -2.4596   -2.0593    1.0148 H   0  0  0  0  0  0  0  0  0  0  0  0
   -4.5867    1.0752   -0.1244 H   0  0  0  0  0  0  0  0  0  0  0  0
   -1.3602    0.3196   -2.8904 H   0  0  0  0  0  0  0  0  0  0  0  0
    2.2758    0.3008   -0.0651 H   0  0  0  0  0  0  0  0  0  0  0  0
   -3.3923   -3.5604   -0.7180 H   0  0  0  0  0  0  0  0  0  0  0  0
   -3.7724   -1.8824   -1.0833 H   0  0  0  0  0  0  0  0  0  0  0  0
   -6.0756    1.3883   -2.0868 H   0  0  0  0  0  0  0  0  0  0  0  0
   -0.3180    5.3743   -0.2018 H   0  0  0  0  0  0  0  0  0  0  0  0
    0.7004    1.9993    2.2920 H   0  0  0  0  0  0  0  0  0  0  0  0
   -5.1059    1.1391   -4.3761 H   0  0  0  0  0  0  0  0  0  0  0  0
    1.3468    6.7363    0.9687 H   0  0  0  0  0  0  0  0  0  0  0  0
    2.4099    3.3469    3.4100 H   0  0  0  0  0  0  0  0  0  0  0  0
   -3.9714   -2.1069   -3.1662 H   0  0  0  0  0  0  0  0  0  0  0  0
    3.5421    7.2285    1.6025 H   0  0  0  0  0  0  0  0  0  0  0  0
    2.4246    7.7417    2.9272 H   0  0  0  0  0  0  0  0  0  0  0  0
    4.1348    7.4248    3.2548 H   0  0  0  0  0  0  0  0  0  0  0  0
  1  2  1  0  0  0  0
  1  3  1  0  0  0  0
  1  4  1  0  0  0  0
  1 29  1  0  0  0  0
  2  5  1  0  0  0  0
  2  6  2  0  0  0  0
  3  7  1  0  0  0  0
  3  8  1  0  0  0  0
  4  9  2  0  0  0  0
  4 10  1  0  0  0  0
  5 11  1  0  0  0  0
  5 12  2  0  0  0  0
  6 13  1  0  0  0  0
  6  7  1  0  0  0  0
  7 14  2  0  0  0  0
  8 15  1  0  0  0  0
  8 30  1  0  0  0  0
  8 31  1  0  0  0  0
  9 16  1  0  0  0  0
  9 32  1  0  0  0  0
 10 17  2  0  0  0  0
 10 33  1  0  0  0  0
 11 18  2  0  0  0  0
 11 19  1  0  0  0  0
 13 34  1  0  0  0  0
 15 20  1  0  0  0  0
 15 35  1  0  0  0  0
 15 36  1  0  0  0  0
 16 21  2  0  0  0  0
 16 37  1  0  0  0  0
 17 21  1  0  0  0  0
 18 22  1  0  0  0  0
 18 38  1  0  0  0  0
 19 23  2  0  0  0  0
 19 39  1  0  0  0  0
 20 24  1  0  0  0  0
 20 25  2  0  0  0  0
 21 40  1  0  0  0  0
 22 26  2  0  0  0  0
 22 41  1  0  0  0  0
 23 26  1  0  0  0  0
 23 42  1  0  0  0  0
 24 43  1  0  0  0  0
 26 27  1  0  0  0  0
 27 28  1  0  0  0  0
 28 44  1  0  0  0  0
 28 45  1  0  0  0  0
 28 46  1  0  0  0  0
M  END
>  <Mol_ID>
8145

>  <Formula>
C20H18N2O6

>  <MolWeight>
382.36672

>  <Cat>
P2204

>  <Name>
WAY-311462

>  <Synonyms>
N/A

>  <Target>
others

>  <Form>
free base

>  <CAS>
442640-86-0

>  <URL>
N/A

$$$$
