WAY-325138
 OpenBabel08302521423D

 46 48  0  0  0  0  0  0  0  0999 V2000
   -0.7098   -1.4917   -0.2397 N   0  0  0  0  0  0  0  0  0  0  0  0
    0.5432   -1.6494   -0.4830 C   0  0  0  0  0  0  0  0  0  0  0  0
   -1.1393   -0.1984   -0.4387 C   0  0  0  0  0  0  0  0  0  0  0  0
    1.3855   -0.1949   -1.0253 S   0  0  0  0  0  0  0  0  0  0  0  0
   -0.0087    0.8246   -0.4027 C   0  0  3  0  0  0  0  0  0  0  0  0
   -0.2739    2.0573   -1.2610 C   0  0  0  0  0  0  0  0  0  0  0  0
   -1.1011    3.0915   -0.5080 C   0  0  0  0  0  0  0  0  0  0  0  0
    1.3513   -2.7457   -0.3714 N   0  0  0  0  0  0  0  0  0  0  0  0
   -1.3387    4.3418   -1.0242 N   0  0  0  0  0  0  0  0  0  0  0  0
   -2.3103    0.1013   -0.6380 O   0  0  0  0  0  0  0  0  0  0  0  0
   -1.5031    2.8681    0.6394 O   0  0  0  0  0  0  0  0  0  0  0  0
    1.0381   -4.0728   -0.0255 C   0  0  0  0  0  0  0  0  0  0  0  0
   -0.9871    4.9346   -2.2479 C   0  0  0  0  0  0  0  0  0  0  0  0
   -0.0014    6.1885   -4.5686 C   0  0  0  0  0  0  0  0  0  0  0  0
    0.5175   -6.7926    0.6412 C   0  0  0  0  0  0  0  0  0  0  0  0
   -0.7416    4.2052   -3.4066 C   0  0  0  0  0  0  0  0  0  0  0  0
   -0.2648   -4.5356    0.1777 C   0  0  0  0  0  0  0  0  0  0  0  0
   -0.8902    6.3306   -2.3157 C   0  0  0  0  0  0  0  0  0  0  0  0
    2.0826   -4.9943    0.1603 C   0  0  0  0  0  0  0  0  0  0  0  0
   -0.5255   -5.8779    0.4976 C   0  0  0  0  0  0  0  0  0  0  0  0
   -0.3994    6.9548   -3.4741 C   0  0  0  0  0  0  0  0  0  0  0  0
    1.8252   -6.3352    0.4837 C   0  0  0  0  0  0  0  0  0  0  0  0
   -0.2293    4.8182   -4.5497 C   0  0  0  0  0  0  0  0  0  0  0  0
    0.5581    6.8545   -5.6239 O   0  0  0  0  0  0  0  0  0  0  0  0
    0.3916   -8.1198    0.9281 O   0  0  0  0  0  0  0  0  0  0  0  0
   -0.9346   -8.6317    1.0114 C   0  0  0  0  0  0  0  0  0  0  0  0
    1.5423    6.1021   -6.3363 C   0  0  0  0  0  0  0  0  0  0  0  0
    0.2066    1.0665    0.6405 H   0  0  0  0  0  0  0  0  0  0  0  0
    0.6764    2.5392   -1.5210 H   0  0  0  0  0  0  0  0  0  0  0  0
   -0.8025    1.7480   -2.1635 H   0  0  0  0  0  0  0  0  0  0  0  0
    2.3199   -2.5931   -0.6226 H   0  0  0  0  0  0  0  0  0  0  0  0
   -1.7342    4.9584   -0.3216 H   0  0  0  0  0  0  0  0  0  0  0  0
   -0.9803    3.1552   -3.4849 H   0  0  0  0  0  0  0  0  0  0  0  0
   -1.1172   -3.8712    0.0772 H   0  0  0  0  0  0  0  0  0  0  0  0
   -1.1479    6.9538   -1.4623 H   0  0  0  0  0  0  0  0  0  0  0  0
    3.1207   -4.6864    0.0561 H   0  0  0  0  0  0  0  0  0  0  0  0
   -1.5616   -6.1729    0.6250 H   0  0  0  0  0  0  0  0  0  0  0  0
   -0.2946    8.0371   -3.5061 H   0  0  0  0  0  0  0  0  0  0  0  0
    2.6539   -7.0281    0.6104 H   0  0  0  0  0  0  0  0  0  0  0  0
   -0.0339    4.1937   -5.4138 H   0  0  0  0  0  0  0  0  0  0  0  0
   -1.4869   -8.1624    1.8322 H   0  0  0  0  0  0  0  0  0  0  0  0
   -1.4648   -8.5141    0.0599 H   0  0  0  0  0  0  0  0  0  0  0  0
   -0.8711   -9.7033    1.2255 H   0  0  0  0  0  0  0  0  0  0  0  0
    2.3317    5.7474   -5.6627 H   0  0  0  0  0  0  0  0  0  0  0  0
    1.0955    5.2653   -6.8829 H   0  0  0  0  0  0  0  0  0  0  0  0
    2.0028    6.7613   -7.0775 H   0  0  0  0  0  0  0  0  0  0  0  0
  2  1  2  0  0  0  0
  3  1  1  0  0  0  0
  4  2  1  0  0  0  0
  5  3  1  0  0  0  0
  5  4  1  0  0  0  0
  5 28  1  0  0  0  0
  6  5  1  0  0  0  0
  6 29  1  0  0  0  0
  6 30  1  0  0  0  0
  7  6  1  0  0  0  0
  8  2  1  0  0  0  0
  8 31  1  0  0  0  0
  9  7  1  0  0  0  0
  9 32  1  0  0  0  0
 10  3  2  0  0  0  0
 11  7  2  0  0  0  0
 12  8  1  0  0  0  0
 13  9  1  0  0  0  0
 14 21  2  0  0  0  0
 14 23  1  0  0  0  0
 15 22  2  0  0  0  0
 15 20  1  0  0  0  0
 16 13  1  0  0  0  0
 16 33  1  0  0  0  0
 17 12  1  0  0  0  0
 17 34  1  0  0  0  0
 18 13  2  0  0  0  0
 18 35  1  0  0  0  0
 19 12  2  0  0  0  0
 19 36  1  0  0  0  0
 20 17  2  0  0  0  0
 20 37  1  0  0  0  0
 21 18  1  0  0  0  0
 21 38  1  0  0  0  0
 22 19  1  0  0  0  0
 22 39  1  0  0  0  0
 23 16  2  0  0  0  0
 23 40  1  0  0  0  0
 24 14  1  0  0  0  0
 25 15  1  0  0  0  0
 26 25  1  0  0  0  0
 26 41  1  0  0  0  0
 26 42  1  0  0  0  0
 26 43  1  0  0  0  0
 27 24  1  0  0  0  0
 27 44  1  0  0  0  0
 27 45  1  0  0  0  0
 27 46  1  0  0  0  0
M  END
>  <Mol_ID>
8673

>  <Formula>
C19H19N3O4S

>  <MolWeight>
385.43686

>  <Cat>
P2372

>  <Name>
WAY-325138

>  <Synonyms>
N/A

>  <Target>
Others

>  <Form>
free base

>  <CAS>
444713-31-9

>  <URL>
N/A

$$$$
