WAY-332045
 OpenBabel08302521453D

 58 61  0  0  0  0  0  0  0  0999 V2000
   -3.1749    5.8161   -2.2733 N   0  0  0  0  0  0  0  0  0  0  0  0
   -3.0387    4.4594   -2.4891 C   0  0  0  0  0  0  0  0  0  0  0  0
   -3.6949    6.2759   -3.3962 C   0  0  0  0  0  0  0  0  0  0  0  0
   -3.9256    5.3072   -4.3364 O   0  0  0  0  0  0  0  0  0  0  0  0
   -3.4997    4.1492   -3.7512 C   0  0  0  0  0  0  0  0  0  0  0  0
    1.3042    5.3607   -1.4979 C   0  0  0  0  0  0  0  0  0  0  0  0
    1.7758    6.6404   -1.2368 N   0  0  0  0  0  0  0  0  0  0  0  0
   -0.1943    5.1392   -1.3917 C   0  0  0  0  0  0  0  0  0  0  0  0
   -0.6567    3.3897   -1.6275 S   0  0  3  0  0  0  0  0  0  0  0  0
    2.8180    9.2401   -1.8141 N   0  0  0  0  0  0  0  0  0  0  0  0
   -2.4562    3.5879   -1.4446 C   0  0  0  0  0  0  0  0  0  0  0  0
    3.4086   10.4234   -1.4180 C   0  0  0  0  0  0  0  0  0  0  0  0
   -4.0024    7.6511   -3.7739 C   0  0  0  0  0  0  0  0  0  0  0  0
    2.8198   11.6678   -1.6914 C   0  0  0  0  0  0  0  0  0  0  0  0
    0.9674    7.8321   -0.9315 C   0  0  0  0  0  0  0  0  0  0  0  0
    3.2260    6.8795   -1.2254 C   0  0  0  0  0  0  0  0  0  0  0  0
    3.6073    8.0423   -2.1512 C   0  0  0  0  0  0  0  0  0  0  0  0
    1.3578    9.0490   -1.8092 C   0  0  0  0  0  0  0  0  0  0  0  0
    2.0778    4.4647   -1.8467 O   0  0  0  0  0  0  0  0  0  0  0  0
   -0.1966    2.6174   -0.4233 O   0  0  0  0  0  0  0  0  0  0  0  0
   -3.6880    8.6998   -2.8982 C   0  0  0  0  0  0  0  0  0  0  0  0
   -4.5992    7.9627   -5.0029 C   0  0  0  0  0  0  0  0  0  0  0  0
    3.4224   12.8724   -1.3061 C   0  0  0  0  0  0  0  0  0  0  0  0
   -3.9668   10.0270   -3.2399 C   0  0  0  0  0  0  0  0  0  0  0  0
   -4.8802    9.2881   -5.3449 C   0  0  0  0  0  0  0  0  0  0  0  0
   -4.5718   10.3304   -4.4635 C   0  0  0  0  0  0  0  0  0  0  0  0
   -3.6037    2.9251   -4.5631 C   0  0  0  0  0  0  0  0  0  0  0  0
    4.6340   10.4460   -0.7319 C   0  0  0  0  0  0  0  0  0  0  0  0
    5.2436   11.6435   -0.3420 C   0  0  0  0  0  0  0  0  0  0  0  0
    4.6368   12.8592   -0.6302 C   0  0  0  0  0  0  0  0  0  0  0  0
   -4.8990   11.7450   -4.8361 C   0  0  0  0  0  0  0  0  0  0  0  0
   -0.6550    5.7259   -2.1890 H   0  0  0  0  0  0  0  0  0  0  0  0
   -0.5545    5.4586   -0.4100 H   0  0  0  0  0  0  0  0  0  0  0  0
   -2.6632    3.9792   -0.4439 H   0  0  0  0  0  0  0  0  0  0  0  0
   -2.8909    2.5838   -1.5023 H   0  0  0  0  0  0  0  0  0  0  0  0
    1.8905   11.7227   -2.2513 H   0  0  0  0  0  0  0  0  0  0  0  0
   -0.1003    7.6330   -1.0455 H   0  0  0  0  0  0  0  0  0  0  0  0
    1.1504    8.0690    0.1234 H   0  0  0  0  0  0  0  0  0  0  0  0
    3.4984    7.1165   -0.1896 H   0  0  0  0  0  0  0  0  0  0  0  0
    3.7849    5.9840   -1.5137 H   0  0  0  0  0  0  0  0  0  0  0  0
    3.3846    7.7684   -3.1901 H   0  0  0  0  0  0  0  0  0  0  0  0
    4.6883    8.2111   -2.1102 H   0  0  0  0  0  0  0  0  0  0  0  0
    1.0239    8.8796   -2.8400 H   0  0  0  0  0  0  0  0  0  0  0  0
    0.8183    9.9235   -1.4288 H   0  0  0  0  0  0  0  0  0  0  0  0
   -3.2248    8.4864   -1.9362 H   0  0  0  0  0  0  0  0  0  0  0  0
   -4.8548    7.1747   -5.7084 H   0  0  0  0  0  0  0  0  0  0  0  0
    2.9435   13.8180   -1.5455 H   0  0  0  0  0  0  0  0  0  0  0  0
   -3.7122   10.8195   -2.5398 H   0  0  0  0  0  0  0  0  0  0  0  0
   -5.3472    9.5018   -6.3046 H   0  0  0  0  0  0  0  0  0  0  0  0
   -4.6371    2.7651   -4.8860 H   0  0  0  0  0  0  0  0  0  0  0  0
   -2.9746    3.0092   -5.4547 H   0  0  0  0  0  0  0  0  0  0  0  0
   -3.2815    2.0440   -4.0012 H   0  0  0  0  0  0  0  0  0  0  0  0
    5.1302    9.5205   -0.4573 H   0  0  0  0  0  0  0  0  0  0  0  0
    6.1905   11.6171    0.1902 H   0  0  0  0  0  0  0  0  0  0  0  0
    5.1092   13.7903   -0.3308 H   0  0  0  0  0  0  0  0  0  0  0  0
   -4.3711   12.0285   -5.7522 H   0  0  0  0  0  0  0  0  0  0  0  0
   -5.9771   11.8495   -4.9940 H   0  0  0  0  0  0  0  0  0  0  0  0
   -4.6065   12.4460   -4.0473 H   0  0  0  0  0  0  0  0  0  0  0  0
  2  1  1  0  0  0  0
  3  1  2  0  0  0  0
  4  3  1  0  0  0  0
  5  2  2  0  0  0  0
  5  4  1  0  0  0  0
  6  8  1  0  0  0  0
  7  6  1  0  0  0  0
  8  9  1  0  0  0  0
  8 32  1  0  0  0  0
  8 33  1  0  0  0  0
  9 11  1  0  0  0  0
 10 17  1  0  0  0  0
 10 18  1  0  0  0  0
 11  2  1  0  0  0  0
 11 34  1  0  0  0  0
 11 35  1  0  0  0  0
 12 10  1  0  0  0  0
 13  3  1  0  0  0  0
 14 12  2  0  0  0  0
 14 36  1  0  0  0  0
 15  7  1  0  0  0  0
 15 37  1  0  0  0  0
 15 38  1  0  0  0  0
 16  7  1  0  0  0  0
 16 39  1  0  0  0  0
 16 40  1  0  0  0  0
 17 16  1  0  0  0  0
 17 41  1  0  0  0  0
 17 42  1  0  0  0  0
 18 15  1  0  0  0  0
 18 43  1  0  0  0  0
 18 44  1  0  0  0  0
 19  6  2  0  0  0  0
 20  9  2  0  0  0  0
 21 13  2  0  0  0  0
 21 45  1  0  0  0  0
 22 13  1  0  0  0  0
 22 46  1  0  0  0  0
 23 14  1  0  0  0  0
 23 30  2  0  0  0  0
 23 47  1  0  0  0  0
 24 21  1  0  0  0  0
 24 48  1  0  0  0  0
 25 22  2  0  0  0  0
 25 49  1  0  0  0  0
 26 25  1  0  0  0  0
 26 24  2  0  0  0  0
 27  5  1  0  0  0  0
 27 50  1  0  0  0  0
 27 51  1  0  0  0  0
 27 52  1  0  0  0  0
 28 12  1  0  0  0  0
 28 53  1  0  0  0  0
 29 28  2  0  0  0  0
 29 54  1  0  0  0  0
 30 29  1  0  0  0  0
 30 55  1  0  0  0  0
 31 26  1  0  0  0  0
 31 56  1  0  0  0  0
 31 57  1  0  0  0  0
 31 58  1  0  0  0  0
M  END
>  <Mol_ID>
9273

>  <Formula>
C24H26ClN3O3S

>  <MolWeight>
471.99954

>  <Cat>
P2693

>  <Name>
WAY-332045

>  <Synonyms>
N/A

>  <Target>
beta-catenin

>  <Form>
free base

>  <CAS>
959515-71-0

>  <URL>
N/A

$$$$
