WAY-620275
 OpenBabel08302521433D

 31 32  0  0  0  0  0  0  0  0999 V2000
    0.8412   -0.0624   -0.0415 C   0  0  0  0  0  0  0  0  0  0  0  0
    0.1634    0.9550   -0.8743 C   0  0  0  0  0  0  0  0  0  0  0  0
    0.2304   -1.3106    0.1805 N   0  0  0  0  0  0  0  0  0  0  0  0
   -1.8729    2.1297   -1.4682 N   0  0  0  0  0  0  0  0  0  0  0  0
   -1.1419    2.8879   -2.3125 C   0  0  0  0  0  0  0  0  0  0  0  0
   -1.1942    1.2040   -0.7469 C   0  0  0  0  0  0  0  0  0  0  0  0
    1.9185    0.2512    0.4625 O   0  0  0  0  0  0  0  0  0  0  0  0
    0.8950    1.7825   -1.7274 C   0  0  0  0  0  0  0  0  0  0  0  0
    0.2314    2.7660   -2.4612 C   0  0  0  0  0  0  0  0  0  0  0  0
    0.8747   -2.1477    1.1865 C   0  0  0  0  0  0  0  0  0  0  0  0
   -0.6219   -1.9707   -0.8185 C   0  0  0  0  0  0  0  0  0  0  0  0
   -2.0606   -2.1870   -0.3465 C   0  0  0  0  0  0  0  0  0  0  0  0
    0.0892   -3.3607    1.6817 C   0  0  0  0  0  0  0  0  0  0  0  0
   -1.3814   -3.0751    1.9702 C   0  0  0  0  0  0  0  0  0  0  0  0
   -2.2544   -3.2502    0.7298 C   0  0  0  0  0  0  0  0  0  0  0  0
   -1.7052    3.6301   -2.8713 H   0  0  0  0  0  0  0  0  0  0  0  0
   -1.7964    0.6792   -0.0163 H   0  0  0  0  0  0  0  0  0  0  0  0
    1.9737    1.6755   -1.8057 H   0  0  0  0  0  0  0  0  0  0  0  0
    0.7739    3.4307   -3.1248 H   0  0  0  0  0  0  0  0  0  0  0  0
    1.1189   -1.5120    2.0470 H   0  0  0  0  0  0  0  0  0  0  0  0
    1.8322   -2.4895    0.7698 H   0  0  0  0  0  0  0  0  0  0  0  0
   -0.1539   -2.9228   -1.0990 H   0  0  0  0  0  0  0  0  0  0  0  0
   -0.6374   -1.3719   -1.7348 H   0  0  0  0  0  0  0  0  0  0  0  0
   -2.6663   -2.4758   -1.2148 H   0  0  0  0  0  0  0  0  0  0  0  0
   -2.4898   -1.2542    0.0253 H   0  0  0  0  0  0  0  0  0  0  0  0
    0.5696   -3.7153    2.6024 H   0  0  0  0  0  0  0  0  0  0  0  0
    0.1780   -4.1842    0.9628 H   0  0  0  0  0  0  0  0  0  0  0  0
   -1.5145   -2.0775    2.4054 H   0  0  0  0  0  0  0  0  0  0  0  0
   -1.7289   -3.7940    2.7226 H   0  0  0  0  0  0  0  0  0  0  0  0
   -3.3068   -3.2283    1.0408 H   0  0  0  0  0  0  0  0  0  0  0  0
   -2.0864   -4.2435    0.2962 H   0  0  0  0  0  0  0  0  0  0  0  0
  2  1  1  0  0  0  0
  3  1  1  0  0  0  0
  4  6  2  0  0  0  0
  4  5  1  0  0  0  0
  5  9  2  0  0  0  0
  5 16  1  0  0  0  0
  6  2  1  0  0  0  0
  6 17  1  0  0  0  0
  7  1  2  0  0  0  0
  8  2  2  0  0  0  0
  8 18  1  0  0  0  0
  9  8  1  0  0  0  0
  9 19  1  0  0  0  0
 10  3  1  0  0  0  0
 10 20  1  0  0  0  0
 10 21  1  0  0  0  0
 11  3  1  0  0  0  0
 11 22  1  0  0  0  0
 11 23  1  0  0  0  0
 12 11  1  0  0  0  0
 12 24  1  0  0  0  0
 12 25  1  0  0  0  0
 13 10  1  0  0  0  0
 13 26  1  0  0  0  0
 13 27  1  0  0  0  0
 14 13  1  0  0  0  0
 14 15  1  0  0  0  0
 14 28  1  0  0  0  0
 14 29  1  0  0  0  0
 15 12  1  0  0  0  0
 15 30  1  0  0  0  0
 15 31  1  0  0  0  0
M  END
>  <Mol_ID>
8769

>  <Formula>
C12H15ClN2O

>  <MolWeight>
238.7133

>  <Cat>
P2939

>  <Name>
WAY-620275

>  <Synonyms>
N/A

>  <Target>
TNF receptor,mGluR

>  <Form>
free base

>  <CAS>
731826-33-8

>  <URL>
N/A

$$$$
