WAY-657249
 OpenBabel08302521423D

 35 37  0  0  0  0  0  0  0  0999 V2000
    0.5612   -0.4896   -1.2651 N   0  0  0  0  0  0  0  0  0  0  0  0
    0.4110   -1.2727   -0.2374 C   0  0  0  0  0  0  0  0  0  0  0  0
    0.8022    0.8056   -0.8160 C   0  0  0  0  0  0  0  0  0  0  0  0
    0.1191   -2.6116   -0.2818 N   0  0  0  0  0  0  0  0  0  0  0  0
    0.4670   -0.5581    1.3086 S   0  0  0  0  0  0  0  0  0  0  0  0
    0.8513    0.9435    0.5604 C   0  0  0  0  0  0  0  0  0  0  0  0
    1.2082   -3.4611   -0.4332 C   0  0  0  0  0  0  0  0  0  0  0  0
    0.9710    1.9055   -1.7613 C   0  0  0  0  0  0  0  0  0  0  0  0
    1.3154    3.1222   -1.2638 N   0  0  0  0  0  0  0  0  0  0  0  0
    2.3654   -3.1112   -0.6529 O   0  0  0  0  0  0  0  0  0  0  0  0
    0.0465   -7.6198   -0.1806 C   0  0  0  0  0  0  0  0  0  0  0  0
    0.5013   -5.5555   -1.4361 O   0  0  0  0  0  0  0  0  0  0  0  0
    0.8539   -4.9308   -0.2106 C   0  0  0  0  0  0  0  0  0  0  0  0
    0.1005   -6.8620   -1.3505 C   0  0  0  0  0  0  0  0  0  0  0  0
   -0.4239   -8.9296   -0.2277 C   0  0  0  0  0  0  0  0  0  0  0  0
   -0.4877   -9.6390    0.9072 F   0  0  0  0  0  0  0  0  0  0  0  0
   -0.7656   -8.7653   -2.5936 C   0  0  0  0  0  0  0  0  0  0  0  0
    1.4886    4.1189   -2.1625 C   0  0  0  0  0  0  0  0  0  0  0  0
    0.7694    1.6771   -3.1213 C   0  0  0  0  0  0  0  0  0  0  0  0
   -0.2955   -7.4472   -2.5584 C   0  0  0  0  0  0  0  0  0  0  0  0
   -0.8373   -9.5101   -1.4212 C   0  0  0  0  0  0  0  0  0  0  0  0
    1.3254    3.9709   -3.5305 C   0  0  0  0  0  0  0  0  0  0  0  0
    0.9527    2.7261   -4.0146 C   0  0  0  0  0  0  0  0  0  0  0  0
   -0.5506   -2.9139    0.4086 H   0  0  0  0  0  0  0  0  0  0  0  0
    1.0597    1.8323    1.1431 H   0  0  0  0  0  0  0  0  0  0  0  0
    0.3565   -7.2379    0.7838 H   0  0  0  0  0  0  0  0  0  0  0  0
    1.7320   -5.4146    0.2341 H   0  0  0  0  0  0  0  0  0  0  0  0
    0.0197   -4.9815    0.5000 H   0  0  0  0  0  0  0  0  0  0  0  0
   -1.0644   -9.2089   -3.5394 H   0  0  0  0  0  0  0  0  0  0  0  0
    1.7729    5.0785   -1.7390 H   0  0  0  0  0  0  0  0  0  0  0  0
    0.4794    0.6932   -3.4785 H   0  0  0  0  0  0  0  0  0  0  0  0
   -0.2355   -6.8718   -3.4818 H   0  0  0  0  0  0  0  0  0  0  0  0
   -1.1992  -10.5290   -1.4253 H   0  0  0  0  0  0  0  0  0  0  0  0
    1.4811    4.8045   -4.2048 H   0  0  0  0  0  0  0  0  0  0  0  0
    0.8067    2.5614   -5.0803 H   0  0  0  0  0  0  0  0  0  0  0  0
  2  1  2  0  0  0  0
  3  1  1  0  0  0  0
  4  2  1  0  0  0  0
  4 24  1  0  0  0  0
  5  2  1  0  0  0  0
  5  6  1  0  0  0  0
  6  3  2  0  0  0  0
  6 25  1  0  0  0  0
  7  4  1  0  0  0  0
  8  3  1  0  0  0  0
  9  8  2  0  0  0  0
 10  7  2  0  0  0  0
 11 14  2  0  0  0  0
 11 26  1  0  0  0  0
 12 13  1  0  0  0  0
 13  7  1  0  0  0  0
 13 27  1  0  0  0  0
 13 28  1  0  0  0  0
 14 12  1  0  0  0  0
 15 11  1  0  0  0  0
 16 15  1  0  0  0  0
 17 20  2  0  0  0  0
 17 29  1  0  0  0  0
 18  9  1  0  0  0  0
 18 30  1  0  0  0  0
 19  8  1  0  0  0  0
 19 31  1  0  0  0  0
 20 14  1  0  0  0  0
 20 32  1  0  0  0  0
 21 17  1  0  0  0  0
 21 15  2  0  0  0  0
 21 33  1  0  0  0  0
 22 23  1  0  0  0  0
 22 18  2  0  0  0  0
 22 34  1  0  0  0  0
 23 19  2  0  0  0  0
 23 35  1  0  0  0  0
M  END
>  <Mol_ID>
8544

>  <Formula>
C16H12FN3O2S

>  <MolWeight>
329.3487832

>  <Cat>
P3155

>  <Name>
WAY-657249

>  <Synonyms>
N/A

>  <Target>
Anti-infection

>  <Form>
free base

>  <CAS>
852940-38-6

>  <URL>
N/A

$$$$
