WAY-325444
 OpenBabel08302521433D

 43 45  0  0  0  0  0  0  0  0999 V2000
   -0.2185    1.1311   -0.2191 C   0  0  0  0  0  0  0  0  0  0  0  0
   -0.6866    2.5084   -0.2474 C   0  0  0  0  0  0  0  0  0  0  0  0
   -1.0639    0.0488   -0.1804 O   0  0  0  0  0  0  0  0  0  0  0  0
   -1.8819    2.8690    0.4128 N   0  0  0  0  0  0  0  0  0  0  0  0
    1.0903    0.6766   -0.2558 C   0  0  0  0  0  0  0  0  0  0  0  0
   -0.2855   -1.0782   -0.1518 C   0  0  0  0  0  0  0  0  0  0  0  0
    1.0480   -0.7320   -0.2175 C   0  0  0  0  0  0  0  0  0  0  0  0
    0.0026    3.3806   -0.7768 O   0  0  0  0  0  0  0  0  0  0  0  0
   -1.3435   -2.9507   -1.1797 O   0  0  0  0  0  0  0  0  0  0  0  0
   -2.0351   -4.1384   -1.0946 C   0  0  0  0  0  0  0  0  0  0  0  0
   -2.2479   -4.8708    0.0801 C   0  0  0  0  0  0  0  0  0  0  0  0
   -0.9631   -2.3846    0.0738 C   0  0  0  0  0  0  0  0  0  0  0  0
   -2.7035    1.9280    1.1715 C   0  0  0  0  0  0  0  0  0  0  0  0
   -2.2399    4.2894    0.4303 C   0  0  0  0  0  0  0  0  0  0  0  0
   -2.5591   -4.6250   -2.2952 C   0  0  0  0  0  0  0  0  0  0  0  0
   -2.9956   -6.0526    0.0560 C   0  0  0  0  0  0  0  0  0  0  0  0
   -1.6696    4.9922    1.6636 C   0  0  0  0  0  0  0  0  0  0  0  0
   -3.5031    2.5036    2.3400 C   0  0  0  0  0  0  0  0  0  0  0  0
   -3.5335   -6.5152   -1.1408 C   0  0  0  0  0  0  0  0  0  0  0  0
   -3.3097   -5.8056   -2.3182 C   0  0  0  0  0  0  0  0  0  0  0  0
   -2.6407    3.2864    3.3293 C   0  0  0  0  0  0  0  0  0  0  0  0
   -2.4705    4.7538    2.9412 C   0  0  0  0  0  0  0  0  0  0  0  0
    1.9648    1.3144   -0.2758 H   0  0  0  0  0  0  0  0  0  0  0  0
    1.8857   -1.4149   -0.1900 H   0  0  0  0  0  0  0  0  0  0  0  0
   -1.8473   -4.5573    1.0379 H   0  0  0  0  0  0  0  0  0  0  0  0
   -0.2522   -3.0505    0.5761 H   0  0  0  0  0  0  0  0  0  0  0  0
   -1.8423   -2.2280    0.7099 H   0  0  0  0  0  0  0  0  0  0  0  0
   -2.0678    1.1410    1.5824 H   0  0  0  0  0  0  0  0  0  0  0  0
   -3.3932    1.4645    0.4561 H   0  0  0  0  0  0  0  0  0  0  0  0
   -3.3257    4.4002    0.3556 H   0  0  0  0  0  0  0  0  0  0  0  0
   -1.8258    4.7757   -0.4609 H   0  0  0  0  0  0  0  0  0  0  0  0
   -2.3890   -4.0804   -3.2191 H   0  0  0  0  0  0  0  0  0  0  0  0
   -3.1590   -6.6064    0.9766 H   0  0  0  0  0  0  0  0  0  0  0  0
   -1.6561    6.0740    1.4763 H   0  0  0  0  0  0  0  0  0  0  0  0
   -0.6267    4.6914    1.8258 H   0  0  0  0  0  0  0  0  0  0  0  0
   -3.9575    1.6570    2.8699 H   0  0  0  0  0  0  0  0  0  0  0  0
   -4.3372    3.1185    1.9826 H   0  0  0  0  0  0  0  0  0  0  0  0
   -4.1235   -7.4283   -1.1540 H   0  0  0  0  0  0  0  0  0  0  0  0
   -3.7239   -6.1679   -3.2554 H   0  0  0  0  0  0  0  0  0  0  0  0
   -1.6625    2.8081    3.4585 H   0  0  0  0  0  0  0  0  0  0  0  0
   -3.1341    3.2578    4.3089 H   0  0  0  0  0  0  0  0  0  0  0  0
   -1.9684    5.2753    3.7656 H   0  0  0  0  0  0  0  0  0  0  0  0
   -3.4588    5.2200    2.8410 H   0  0  0  0  0  0  0  0  0  0  0  0
  2  1  1  0  0  0  0
  3  1  1  0  0  0  0
  4  2  1  0  0  0  0
  5  1  2  0  0  0  0
  5 23  1  0  0  0  0
  6  3  1  0  0  0  0
  6  7  2  0  0  0  0
  7  5  1  0  0  0  0
  7 24  1  0  0  0  0
  8  2  2  0  0  0  0
  9 12  1  0  0  0  0
 10  9  1  0  0  0  0
 11 10  2  0  0  0  0
 11 25  1  0  0  0  0
 12  6  1  0  0  0  0
 12 26  1  0  0  0  0
 12 27  1  0  0  0  0
 13  4  1  0  0  0  0
 13 28  1  0  0  0  0
 13 29  1  0  0  0  0
 14  4  1  0  0  0  0
 14 30  1  0  0  0  0
 14 31  1  0  0  0  0
 15 10  1  0  0  0  0
 15 32  1  0  0  0  0
 16 11  1  0  0  0  0
 16 19  2  0  0  0  0
 16 33  1  0  0  0  0
 17 14  1  0  0  0  0
 17 34  1  0  0  0  0
 17 35  1  0  0  0  0
 18 13  1  0  0  0  0
 18 36  1  0  0  0  0
 18 37  1  0  0  0  0
 19 20  1  0  0  0  0
 19 38  1  0  0  0  0
 20 15  2  0  0  0  0
 20 39  1  0  0  0  0
 21 18  1  0  0  0  0
 21 22  1  0  0  0  0
 21 40  1  0  0  0  0
 21 41  1  0  0  0  0
 22 17  1  0  0  0  0
 22 42  1  0  0  0  0
 22 43  1  0  0  0  0
M  END
>  <Mol_ID>
8697

>  <Formula>
C18H20ClNO3

>  <MolWeight>
333.8093

>  <Cat>
P2396

>  <Name>
WAY-325444

>  <Synonyms>
N/A

>  <Target>
11¦Â-HSD1

>  <Form>
free base

>  <CAS>
494852-17-4

>  <URL>
N/A

$$$$
