WAY-327364
 OpenBabel08302521443D

 60 62  0  0  0  0  0  0  0  0999 V2000
    2.0302    0.9132   -0.0011 C   0  0  0  0  0  0  0  0  0  0  0  0
   -3.2813   -2.4928   -0.0845 S   0  0  0  0  0  0  0  0  0  0  0  0
    1.6908   -0.4368    0.0471 C   0  0  0  0  0  0  0  0  0  0  0  0
    0.8851    1.6685    0.0420 O   0  0  0  0  0  0  0  0  0  0  0  0
    3.3352    1.5674   -0.0124 C   0  0  0  0  0  0  0  0  0  0  0  0
    0.2628   -0.4974    0.0648 C   0  0  0  0  0  0  0  0  0  0  0  0
   -2.0556   -1.1862    0.0414 C   0  0  0  0  0  0  0  0  0  0  0  0
    3.4859    2.8046   -0.6653 N   0  0  0  0  0  0  0  0  0  0  0  0
   -0.1745    0.8188    0.0402 C   0  0  0  0  0  0  0  0  0  0  0  0
    3.9258    5.3346   -1.9359 N   0  0  0  0  0  0  0  0  0  0  0  0
    4.2941    6.1784   -2.9635 C   0  0  0  0  0  0  0  0  0  0  0  0
   -0.6942   -1.5316    0.0816 C   0  0  0  0  0  0  0  0  0  0  0  0
   -4.2240   -2.4705    1.3943 N   0  0  0  0  0  0  0  0  0  0  0  0
   -4.1665   -2.1198   -1.1621 O   0  0  0  0  0  0  0  0  0  0  0  0
   -2.5429   -3.7401   -0.1225 O   0  0  0  0  0  0  0  0  0  0  0  0
    4.3072    1.0465    0.5397 O   0  0  0  0  0  0  0  0  0  0  0  0
    4.8296    3.4066   -0.6767 C   0  0  0  0  0  0  0  0  0  0  0  0
    2.6303    3.2357   -1.7838 C   0  0  0  0  0  0  0  0  0  0  0  0
    4.7863    4.9383   -0.8212 C   0  0  0  0  0  0  0  0  0  0  0  0
    2.5794    4.7659   -1.9028 C   0  0  0  0  0  0  0  0  0  0  0  0
    3.5461    6.4875   -3.8845 O   0  0  0  0  0  0  0  0  0  0  0  0
   -2.4510    0.1535   -0.0683 C   0  0  0  0  0  0  0  0  0  0  0  0
   -1.5139    1.1942   -0.0116 C   0  0  0  0  0  0  0  0  0  0  0  0
    5.5769    6.6294   -2.8590 O   0  0  0  0  0  0  0  0  0  0  0  0
    2.5996   -1.6127    0.0483 C   0  0  0  0  0  0  0  0  0  0  0  0
   -4.7858   -1.1066    1.7014 C   0  0  0  0  0  0  0  0  0  0  0  0
   -5.3444   -3.4907    1.3453 C   0  0  0  0  0  0  0  0  0  0  0  0
    5.9738    7.4952   -3.9338 C   0  0  0  0  0  0  0  0  0  0  0  0
   -4.8999   -4.9372    1.2307 C   0  0  0  0  0  0  0  0  0  0  0  0
   -5.5683   -1.0048    3.0002 C   0  0  0  0  0  0  0  0  0  0  0  0
    7.4107    7.9333   -3.7223 C   0  0  0  0  0  0  0  0  0  0  0  0
   -0.3748   -2.5695    0.0764 H   0  0  0  0  0  0  0  0  0  0  0  0
    5.3803    3.1413    0.2326 H   0  0  0  0  0  0  0  0  0  0  0  0
    5.3647    2.9685   -1.5283 H   0  0  0  0  0  0  0  0  0  0  0  0
    3.0689    2.8046   -2.6896 H   0  0  0  0  0  0  0  0  0  0  0  0
    1.6154    2.8468   -1.7133 H   0  0  0  0  0  0  0  0  0  0  0  0
    4.3514    5.3798    0.0843 H   0  0  0  0  0  0  0  0  0  0  0  0
    5.7997    5.3355   -0.9287 H   0  0  0  0  0  0  0  0  0  0  0  0
    2.0746    5.1917   -1.0277 H   0  0  0  0  0  0  0  0  0  0  0  0
    2.0047    5.0484   -2.7889 H   0  0  0  0  0  0  0  0  0  0  0  0
   -3.4992    0.4108   -0.1995 H   0  0  0  0  0  0  0  0  0  0  0  0
   -1.8106    2.2359   -0.0449 H   0  0  0  0  0  0  0  0  0  0  0  0
    2.4192   -2.2258    0.9374 H   0  0  0  0  0  0  0  0  0  0  0  0
    2.4140   -2.2297   -0.8366 H   0  0  0  0  0  0  0  0  0  0  0  0
    3.6544   -1.3300    0.0411 H   0  0  0  0  0  0  0  0  0  0  0  0
   -3.9513   -0.4193    1.8398 H   0  0  0  0  0  0  0  0  0  0  0  0
   -5.4088   -0.7634    0.8687 H   0  0  0  0  0  0  0  0  0  0  0  0
   -5.9091   -3.4397    2.2799 H   0  0  0  0  0  0  0  0  0  0  0  0
   -6.0392   -3.2354    0.5358 H   0  0  0  0  0  0  0  0  0  0  0  0
    5.8962    6.9578   -4.8873 H   0  0  0  0  0  0  0  0  0  0  0  0
    5.3244    8.3771   -3.9564 H   0  0  0  0  0  0  0  0  0  0  0  0
   -4.4118   -5.1565    0.2801 H   0  0  0  0  0  0  0  0  0  0  0  0
   -4.2280   -5.2114    2.0485 H   0  0  0  0  0  0  0  0  0  0  0  0
   -5.7785   -5.5906    1.2808 H   0  0  0  0  0  0  0  0  0  0  0  0
   -6.4804   -1.6063    2.9987 H   0  0  0  0  0  0  0  0  0  0  0  0
   -4.9534   -1.2975    3.8548 H   0  0  0  0  0  0  0  0  0  0  0  0
   -5.8818    0.0354    3.1483 H   0  0  0  0  0  0  0  0  0  0  0  0
    7.5190    8.4645   -2.7716 H   0  0  0  0  0  0  0  0  0  0  0  0
    8.0800    7.0688   -3.6868 H   0  0  0  0  0  0  0  0  0  0  0  0
    7.7376    8.5966   -4.5328 H   0  0  0  0  0  0  0  0  0  0  0  0
  2  7  1  0  0  0  0
  3  1  2  0  0  0  0
  4  1  1  0  0  0  0
  5  1  1  0  0  0  0
  6  3  1  0  0  0  0
  6  9  2  0  0  0  0
  7 12  2  0  0  0  0
  7 22  1  0  0  0  0
  8  5  1  0  0  0  0
  9  4  1  0  0  0  0
 10 20  1  0  0  0  0
 11 10  1  0  0  0  0
 12  6  1  0  0  0  0
 12 32  1  0  0  0  0
 13  2  1  0  0  0  0
 14  2  2  0  0  0  0
 15  2  2  0  0  0  0
 16  5  2  0  0  0  0
 17  8  1  0  0  0  0
 17 33  1  0  0  0  0
 17 34  1  0  0  0  0
 18  8  1  0  0  0  0
 18 35  1  0  0  0  0
 18 36  1  0  0  0  0
 19 17  1  0  0  0  0
 19 10  1  0  0  0  0
 19 37  1  0  0  0  0
 19 38  1  0  0  0  0
 20 18  1  0  0  0  0
 20 39  1  0  0  0  0
 20 40  1  0  0  0  0
 21 11  2  0  0  0  0
 22 23  2  0  0  0  0
 22 41  1  0  0  0  0
 23  9  1  0  0  0  0
 23 42  1  0  0  0  0
 24 11  1  0  0  0  0
 25  3  1  0  0  0  0
 25 43  1  0  0  0  0
 25 44  1  0  0  0  0
 25 45  1  0  0  0  0
 26 13  1  0  0  0  0
 26 46  1  0  0  0  0
 26 47  1  0  0  0  0
 27 13  1  0  0  0  0
 27 48  1  0  0  0  0
 27 49  1  0  0  0  0
 28 24  1  0  0  0  0
 28 50  1  0  0  0  0
 28 51  1  0  0  0  0
 29 27  1  0  0  0  0
 29 52  1  0  0  0  0
 29 53  1  0  0  0  0
 29 54  1  0  0  0  0
 30 26  1  0  0  0  0
 30 55  1  0  0  0  0
 30 56  1  0  0  0  0
 30 57  1  0  0  0  0
 31 28  1  0  0  0  0
 31 58  1  0  0  0  0
 31 59  1  0  0  0  0
 31 60  1  0  0  0  0
M  END
>  <Mol_ID>
8966

>  <Formula>
C21H29N3O6S

>  <MolWeight>
451.53646

>  <Cat>
P2526

>  <Name>
WAY-327364

>  <Synonyms>
N/A

>  <Target>
calcium channel

>  <Form>
free base

>  <CAS>
687568-35-0

>  <URL>
N/A

$$$$
