WAY-359176
 OpenBabel08302521393D

 37 40  0  0  0  0  0  0  0  0999 V2000
    0.7526    0.3190   -0.1691 C   0  0  0  0  0  0  0  0  0  0  0  0
   -0.6805    0.3441   -0.0885 C   0  0  0  0  0  0  0  0  0  0  0  0
    1.2669   -0.9533   -0.1330 C   0  0  0  0  0  0  0  0  0  0  0  0
    1.6982    1.4034   -0.2573 C   0  0  0  0  0  0  0  0  0  0  0  0
   -1.1846   -0.9421   -0.0421 C   0  0  0  0  0  0  0  0  0  0  0  0
   -1.5757    1.5501   -0.0293 C   0  0  0  0  0  0  0  0  0  0  0  0
    2.5793   -1.2786   -0.1245 N   0  0  0  0  0  0  0  0  0  0  0  0
    0.0362   -2.1310   -0.0644 S   0  0  0  0  0  0  0  0  0  0  0  0
    3.0151    1.0533   -0.3116 O   0  0  0  0  0  0  0  0  0  0  0  0
    1.3569    2.5836   -0.2768 O   0  0  0  0  0  0  0  0  0  0  0  0
   -2.6384   -1.2976   -0.0112 C   0  0  0  0  0  0  0  0  0  0  0  0
   -3.0321    1.1892   -0.3659 C   0  0  0  0  0  0  0  0  0  0  0  0
    3.3769   -0.2586   -0.1941 C   0  0  0  0  0  0  0  0  0  0  0  0
   -3.4850   -0.0755    0.3781 C   0  0  0  0  0  0  0  0  0  0  0  0
    4.8701   -0.3215   -0.1215 C   0  0  0  0  0  0  0  0  0  0  0  0
    5.6363   -1.4448   -0.4949 C   0  0  0  0  0  0  0  0  0  0  0  0
    5.5361    0.8123    0.3972 C   0  0  0  0  0  0  0  0  0  0  0  0
    7.0384   -1.3699   -0.3980 C   0  0  0  0  0  0  0  0  0  0  0  0
    5.0049   -2.5565   -0.9948 O   0  0  0  0  0  0  0  0  0  0  0  0
    6.9233    0.8583    0.5032 C   0  0  0  0  0  0  0  0  0  0  0  0
    7.6736   -0.2312    0.0953 C   0  0  0  0  0  0  0  0  0  0  0  0
    5.7234   -3.7884   -0.8921 C   0  0  0  0  0  0  0  0  0  0  0  0
   -1.2316    2.3293   -0.7174 H   0  0  0  0  0  0  0  0  0  0  0  0
   -1.5340    1.9658    0.9858 H   0  0  0  0  0  0  0  0  0  0  0  0
   -2.9379   -1.6403   -1.0094 H   0  0  0  0  0  0  0  0  0  0  0  0
   -2.8306   -2.1142    0.6932 H   0  0  0  0  0  0  0  0  0  0  0  0
   -3.1278    1.0240   -1.4466 H   0  0  0  0  0  0  0  0  0  0  0  0
   -3.6881    2.0294   -0.1109 H   0  0  0  0  0  0  0  0  0  0  0  0
   -4.5400   -0.2791    0.1635 H   0  0  0  0  0  0  0  0  0  0  0  0
   -3.4058    0.0977    1.4591 H   0  0  0  0  0  0  0  0  0  0  0  0
    4.9789    1.6839    0.7359 H   0  0  0  0  0  0  0  0  0  0  0  0
    7.6788   -2.1865   -0.7168 H   0  0  0  0  0  0  0  0  0  0  0  0
    7.4101    1.7456    0.8991 H   0  0  0  0  0  0  0  0  0  0  0  0
    8.7617   -0.1988    0.1583 H   0  0  0  0  0  0  0  0  0  0  0  0
    6.6151   -3.7933   -1.5289 H   0  0  0  0  0  0  0  0  0  0  0  0
    5.9888   -4.0031    0.1497 H   0  0  0  0  0  0  0  0  0  0  0  0
    5.0796   -4.5970   -1.2501 H   0  0  0  0  0  0  0  0  0  0  0  0
  1  2  1  0  0  0  0
  1  3  2  0  0  0  0
  1  4  1  0  0  0  0
  2  5  2  0  0  0  0
  2  6  1  0  0  0  0
  3  7  1  0  0  0  0
  3  8  1  0  0  0  0
  4  9  1  0  0  0  0
  4 10  2  0  0  0  0
  5 11  1  0  0  0  0
  5  8  1  0  0  0  0
  6 12  1  0  0  0  0
  6 23  1  0  0  0  0
  6 24  1  0  0  0  0
  7 13  2  0  0  0  0
  9 13  1  0  0  0  0
 11 14  1  0  0  0  0
 11 25  1  0  0  0  0
 11 26  1  0  0  0  0
 12 14  1  0  0  0  0
 12 27  1  0  0  0  0
 12 28  1  0  0  0  0
 13 15  1  0  0  0  0
 14 29  1  0  0  0  0
 14 30  1  0  0  0  0
 15 16  2  0  0  0  0
 15 17  1  0  0  0  0
 16 18  1  0  0  0  0
 16 19  1  0  0  0  0
 17 20  2  0  0  0  0
 17 31  1  0  0  0  0
 18 21  2  0  0  0  0
 18 32  1  0  0  0  0
 19 22  1  0  0  0  0
 20 21  1  0  0  0  0
 20 33  1  0  0  0  0
 21 34  1  0  0  0  0
 22 35  1  0  0  0  0
 22 36  1  0  0  0  0
 22 37  1  0  0  0  0
M  END
>  <Mol_ID>
8082

>  <Formula>
C17H15NO3S

>  <MolWeight>
313.3709

>  <Cat>
P2785

>  <Name>
WAY-359176

>  <Synonyms>
N/A

>  <Target>
others

>  <Form>
free base

>  <CAS>
271778-10-0

>  <URL>
N/A

$$$$
