WAY-386789
 OpenBabel08302521413D

 21 23  0  0  0  0  0  0  0  0999 V2000
    2.1377   -0.9348   -0.0090 C   0  0  0  0  0  0  0  0  0  0  0  0
    3.4821   -1.4120   -0.0665 C   0  0  0  0  0  0  0  0  0  0  0  0
    1.7726    0.7269    0.1024 S   0  0  0  0  0  0  0  0  0  0  0  0
    0.9895   -1.7005   -0.0203 C   0  0  0  0  0  0  0  0  0  0  0  0
    4.4812   -0.4839   -0.0694 O   0  0  0  0  0  0  0  0  0  0  0  0
    3.8652   -2.6556   -0.1068 N   0  0  0  0  0  0  0  0  0  0  0  0
    5.6004   -1.2436   -0.0873 C   0  0  0  0  0  0  0  0  0  0  0  0
   -0.2104   -0.9202    0.0120 C   0  0  0  0  0  0  0  0  0  0  0  0
    0.0753    0.4454    0.0518 C   0  0  0  0  0  0  0  0  0  0  0  0
    5.2221   -2.5517   -0.1367 N   0  0  0  0  0  0  0  0  0  0  0  0
    7.1032   -0.5879   -0.0189 S   0  0  0  0  0  0  0  0  0  0  0  0
   -1.5652   -1.3253   -0.0091 C   0  0  0  0  0  0  0  0  0  0  0  0
   -0.9490    1.4111    0.0471 C   0  0  0  0  0  0  0  0  0  0  0  0
   -2.5848   -0.3712   -0.0100 C   0  0  0  0  0  0  0  0  0  0  0  0
   -2.2778    0.9823    0.0104 C   0  0  0  0  0  0  0  0  0  0  0  0
    1.0056   -2.7827   -0.0731 H   0  0  0  0  0  0  0  0  0  0  0  0
    5.8268   -3.3630   -0.1296 H   0  0  0  0  0  0  0  0  0  0  0  0
   -1.8138   -2.3826   -0.0346 H   0  0  0  0  0  0  0  0  0  0  0  0
   -0.7124    2.4712    0.0621 H   0  0  0  0  0  0  0  0  0  0  0  0
   -3.6223   -0.6948   -0.0324 H   0  0  0  0  0  0  0  0  0  0  0  0
   -3.0791    1.7176   -0.0010 H   0  0  0  0  0  0  0  0  0  0  0  0
  2  1  1  0  0  0  0
  3  1  1  0  0  0  0
  4  1  2  0  0  0  0
  4 16  1  0  0  0  0
  5  2  1  0  0  0  0
  6  2  2  0  0  0  0
  7  5  1  0  0  0  0
  7 10  1  0  0  0  0
  8  4  1  0  0  0  0
  9  3  1  0  0  0  0
  9  8  2  0  0  0  0
 10  6  1  0  0  0  0
 10 17  1  0  0  0  0
 11  7  2  0  0  0  0
 12  8  1  0  0  0  0
 12 18  1  0  0  0  0
 13  9  1  0  0  0  0
 13 19  1  0  0  0  0
 14 12  2  0  0  0  0
 14 20  1  0  0  0  0
 15 13  2  0  0  0  0
 15 14  1  0  0  0  0
 15 21  1  0  0  0  0
M  END
>  <Mol_ID>
8453

>  <Formula>
C10H5ClN2OS2

>  <MolWeight>
268.7425

>  <Cat>
P2818

>  <Name>
WAY-386789

>  <Synonyms>
N/A

>  <Target>
MAO

>  <Form>
free base

>  <CAS>
144605-30-1

>  <URL>
N/A

$$$$
