WAY-638358
 OpenBabel08302521423D

 36 37  0  0  0  0  0  0  0  0999 V2000
    0.6683   -0.0635   -0.0769 S   0  0  0  0  0  0  0  0  0  0  0  0
   -1.1153    6.7510   -5.7284 C   0  0  0  0  0  0  0  0  0  0  0  0
    0.3233    0.9758   -1.4599 C   0  0  0  0  0  0  0  0  0  0  0  0
    2.0601    0.0574    0.2884 O   0  0  0  0  0  0  0  0  0  0  0  0
    0.0175   -1.3399   -0.2578 O   0  0  0  0  0  0  0  0  0  0  0  0
   -1.6516    7.5184   -6.9024 C   0  0  0  0  0  0  0  0  0  0  0  0
   -0.2038    0.7503    1.1024 N   0  0  0  0  0  0  0  0  0  0  0  0
   -2.8523    7.1071   -7.4022 N   0  0  0  0  0  0  0  0  0  0  0  0
   -0.0519    7.0522   -5.1975 O   0  0  0  0  0  0  0  0  0  0  0  0
   -1.9077    5.7006   -5.3148 N   0  0  0  0  0  0  0  0  0  0  0  0
    1.1697    2.0478   -1.7506 C   0  0  0  0  0  0  0  0  0  0  0  0
   -0.8373    0.7513   -2.2025 C   0  0  0  0  0  0  0  0  0  0  0  0
   -1.1681    1.6274   -3.2346 C   0  0  0  0  0  0  0  0  0  0  0  0
    0.8328    2.9194   -2.7861 C   0  0  0  0  0  0  0  0  0  0  0  0
   -0.3343    2.7137   -3.5391 C   0  0  0  0  0  0  0  0  0  0  0  0
   -1.5502    4.8329   -4.2100 C   0  0  0  0  0  0  0  0  0  0  0  0
   -3.3298    7.8067   -8.4559 C   0  0  0  0  0  0  0  0  0  0  0  0
   -0.9248    8.5852   -7.4158 C   0  0  0  0  0  0  0  0  0  0  0  0
   -0.6908    3.6527   -4.6667 C   0  0  0  0  0  0  0  0  0  0  0  0
   -2.6724    8.8826   -9.0354 C   0  0  0  0  0  0  0  0  0  0  0  0
   -1.4487    9.2772   -8.5035 C   0  0  0  0  0  0  0  0  0  0  0  0
    0.4140    1.1543    1.8036 H   0  0  0  0  0  0  0  0  0  0  0  0
   -0.9686    0.1790    1.4564 H   0  0  0  0  0  0  0  0  0  0  0  0
   -2.7423    5.5228   -5.8684 H   0  0  0  0  0  0  0  0  0  0  0  0
    2.0714    2.2211   -1.1667 H   0  0  0  0  0  0  0  0  0  0  0  0
   -1.4942   -0.0831   -1.9678 H   0  0  0  0  0  0  0  0  0  0  0  0
   -2.0836    1.4592   -3.7967 H   0  0  0  0  0  0  0  0  0  0  0  0
    1.4843    3.7642   -3.0034 H   0  0  0  0  0  0  0  0  0  0  0  0
   -2.4870    4.4838   -3.7620 H   0  0  0  0  0  0  0  0  0  0  0  0
   -1.0195    5.4233   -3.4539 H   0  0  0  0  0  0  0  0  0  0  0  0
   -4.2899    7.4731   -8.8408 H   0  0  0  0  0  0  0  0  0  0  0  0
    0.0375    8.8690   -6.9887 H   0  0  0  0  0  0  0  0  0  0  0  0
    0.2301    4.0127   -5.1422 H   0  0  0  0  0  0  0  0  0  0  0  0
   -1.2200    3.0891   -5.4458 H   0  0  0  0  0  0  0  0  0  0  0  0
   -3.1050    9.4032   -9.8833 H   0  0  0  0  0  0  0  0  0  0  0  0
   -0.9033   10.1141   -8.9291 H   0  0  0  0  0  0  0  0  0  0  0  0
  2 10  1  0  0  0  0
  3  1  1  0  0  0  0
  4  1  2  0  0  0  0
  5  1  2  0  0  0  0
  6  2  1  0  0  0  0
  7  1  1  0  0  0  0
  7 22  1  0  0  0  0
  7 23  1  0  0  0  0
  8  6  2  0  0  0  0
  9  2  2  0  0  0  0
 10 16  1  0  0  0  0
 10 24  1  0  0  0  0
 11  3  2  0  0  0  0
 11 25  1  0  0  0  0
 12  3  1  0  0  0  0
 12 26  1  0  0  0  0
 13 12  2  0  0  0  0
 13 27  1  0  0  0  0
 14 11  1  0  0  0  0
 14 28  1  0  0  0  0
 15 13  1  0  0  0  0
 15 14  2  0  0  0  0
 16 19  1  0  0  0  0
 16 29  1  0  0  0  0
 16 30  1  0  0  0  0
 17  8  1  0  0  0  0
 17 31  1  0  0  0  0
 18  6  1  0  0  0  0
 18 32  1  0  0  0  0
 19 15  1  0  0  0  0
 19 33  1  0  0  0  0
 19 34  1  0  0  0  0
 20 21  1  0  0  0  0
 20 17  2  0  0  0  0
 20 35  1  0  0  0  0
 21 18  2  0  0  0  0
 21 36  1  0  0  0  0
M  END
>  <Mol_ID>
8509

>  <Formula>
C14H15N3O3S

>  <MolWeight>
305.3522

>  <Cat>
P3035

>  <Name>
WAY-638358

>  <Synonyms>
N/A

>  <Target>
carbonic anhydrase

>  <Form>
free base

>  <CAS>
78659-11-7

>  <URL>
N/A

$$$$
