WAY-301368
 OpenBabel08302521413D

 38 39  0  0  0  0  0  0  0  0999 V2000
    3.7002   -2.1218    0.6796 C   0  0  0  0  0  0  0  0  0  0  0  0
    4.2211   -0.7262    0.9047 C   0  0  0  0  0  0  0  0  0  0  0  0
    4.4653   -3.2300    1.0669 C   0  0  0  0  0  0  0  0  0  0  0  0
    2.4586   -2.3337    0.0646 C   0  0  0  0  0  0  0  0  0  0  0  0
    5.0714   -0.2169   -0.2460 C   0  0  0  0  0  0  0  0  0  0  0  0
    3.9868   -4.5254    0.8701 C   0  0  0  0  0  0  0  0  0  0  0  0
    1.9813   -3.6313   -0.1302 C   0  0  0  0  0  0  0  0  0  0  0  0
    4.6025    0.9505   -0.8152 N   0  0  0  0  0  0  0  0  0  0  0  0
    6.1063   -0.7704   -0.6023 O   0  0  0  0  0  0  0  0  0  0  0  0
    2.7425   -4.7258    0.2766 C   0  0  0  0  0  0  0  0  0  0  0  0
    5.2734    1.5397   -1.9634 C   0  0  0  0  0  0  0  0  0  0  0  0
    5.0442    3.0593   -2.0113 C   0  0  0  0  0  0  0  0  0  0  0  0
    5.6776    3.7534   -3.1471 N   0  0  0  0  0  0  0  0  0  0  0  0
    5.4167    5.2119   -3.0794 C   0  0  0  0  0  0  0  0  0  0  0  0
    5.1999    3.2860   -4.4671 C   0  0  0  0  0  0  0  0  0  0  0  0
    3.9580    5.5930   -3.3982 C   0  0  0  0  0  0  0  0  0  0  0  0
    3.7331    3.6516   -4.7415 C   0  0  0  0  0  0  0  0  0  0  0  0
    3.5300    5.0684   -4.6624 O   0  0  0  0  0  0  0  0  0  0  0  0
    3.3798   -0.0487    1.0958 H   0  0  0  0  0  0  0  0  0  0  0  0
    4.8385   -0.6908    1.8104 H   0  0  0  0  0  0  0  0  0  0  0  0
    5.4449   -3.0894    1.5190 H   0  0  0  0  0  0  0  0  0  0  0  0
    1.8532   -1.4939   -0.2659 H   0  0  0  0  0  0  0  0  0  0  0  0
    4.5887   -5.3769    1.1771 H   0  0  0  0  0  0  0  0  0  0  0  0
    1.0155   -3.7901   -0.6023 H   0  0  0  0  0  0  0  0  0  0  0  0
    3.6377    1.2003   -0.6525 H   0  0  0  0  0  0  0  0  0  0  0  0
    2.3700   -5.7355    0.1253 H   0  0  0  0  0  0  0  0  0  0  0  0
    6.3436    1.3164   -1.9258 H   0  0  0  0  0  0  0  0  0  0  0  0
    4.8514    1.0434   -2.8436 H   0  0  0  0  0  0  0  0  0  0  0  0
    3.9645    3.2448   -1.9730 H   0  0  0  0  0  0  0  0  0  0  0  0
    5.4500    3.4788   -1.0807 H   0  0  0  0  0  0  0  0  0  0  0  0
    6.0719    5.6990   -3.8139 H   0  0  0  0  0  0  0  0  0  0  0  0
    5.7097    5.6102   -2.1008 H   0  0  0  0  0  0  0  0  0  0  0  0
    5.8261    3.7650   -5.2321 H   0  0  0  0  0  0  0  0  0  0  0  0
    5.3622    2.2111   -4.5922 H   0  0  0  0  0  0  0  0  0  0  0  0
    3.2703    5.2497   -2.6174 H   0  0  0  0  0  0  0  0  0  0  0  0
    3.8682    6.6828   -3.4496 H   0  0  0  0  0  0  0  0  0  0  0  0
    3.4584    3.3347   -5.7525 H   0  0  0  0  0  0  0  0  0  0  0  0
    3.0512    3.1467   -4.0478 H   0  0  0  0  0  0  0  0  0  0  0  0
  1  2  1  0  0  0  0
  1  3  2  0  0  0  0
  1  4  1  0  0  0  0
  2  5  1  0  0  0  0
  2 19  1  0  0  0  0
  2 20  1  0  0  0  0
  3  6  1  0  0  0  0
  3 21  1  0  0  0  0
  4  7  2  0  0  0  0
  4 22  1  0  0  0  0
  5  8  1  0  0  0  0
  5  9  2  0  0  0  0
  6 10  2  0  0  0  0
  6 23  1  0  0  0  0
  7 10  1  0  0  0  0
  7 24  1  0  0  0  0
  8 11  1  0  0  0  0
  8 25  1  0  0  0  0
 10 26  1  0  0  0  0
 11 12  1  0  0  0  0
 11 27  1  0  0  0  0
 11 28  1  0  0  0  0
 12 13  1  0  0  0  0
 12 29  1  0  0  0  0
 12 30  1  0  0  0  0
 13 14  1  0  0  0  0
 13 15  1  0  0  0  0
 14 16  1  0  0  0  0
 14 31  1  0  0  0  0
 14 32  1  0  0  0  0
 15 17  1  0  0  0  0
 15 33  1  0  0  0  0
 15 34  1  0  0  0  0
 16 18  1  0  0  0  0
 16 35  1  0  0  0  0
 16 36  1  0  0  0  0
 17 18  1  0  0  0  0
 17 37  1  0  0  0  0
 17 38  1  0  0  0  0
M  END
>  <Mol_ID>
8436

>  <Formula>
C14H20N2O2

>  <MolWeight>
248.3208

>  <Cat>
P2169

>  <Name>
WAY-301368

>  <Synonyms>
N/A

>  <Target>
antiinflammatory

>  <Form>
free base

>  <CAS>
49808-89-1

>  <URL>
N/A

$$$$
