WAY-605919-A
 OpenBabel08302521433D

 38 40  0  0  0  0  0  0  0  0999 V2000
   -1.3116   -2.6215    0.0359 C   0  0  0  0  0  0  0  0  0  0  0  0
   -1.9113   -3.7209    0.3281 N   0  0  0  0  0  0  0  0  0  0  0  0
   -3.2829   -3.5827    0.1190 C   0  0  0  0  0  0  0  0  0  0  0  0
    0.0226   -2.3674    0.0146 N   0  0  0  0  0  0  0  0  0  0  0  0
   -2.3002   -1.2957   -0.4077 S   0  0  0  0  0  0  0  0  0  0  0  0
   -3.6773   -2.3176   -0.2800 C   0  0  0  0  0  0  0  0  0  0  0  0
    0.9542   -3.3640   -0.0043 C   0  0  0  0  0  0  0  0  0  0  0  0
    2.8150   -1.7322    0.6136 N   0  0  0  0  0  0  0  0  0  0  0  0
    2.4713   -3.0187   -0.0510 C   0  0  0  0  0  0  0  0  0  0  0  0
   -4.1594   -4.7273    0.3096 C   0  0  0  0  0  0  0  0  0  0  0  0
    0.6545   -4.5635   -0.0358 O   0  0  0  0  0  0  0  0  0  0  0  0
    4.6598   -2.5660    2.7513 O   0  0  0  0  0  0  0  0  0  0  0  0
    2.4631   -1.7424    2.0525 C   0  0  0  0  0  0  0  0  0  0  0  0
    4.2948   -1.5298    0.5491 C   0  0  0  0  0  0  0  0  0  0  0  0
    5.0917   -2.5532    1.3848 C   0  0  0  0  0  0  0  0  0  0  0  0
    3.2476   -2.7777    2.8694 C   0  0  0  0  0  0  0  0  0  0  0  0
   -3.6128   -5.9389    0.7662 C   0  0  0  0  0  0  0  0  0  0  0  0
   -5.5273   -4.6624    0.0285 C   0  0  0  0  0  0  0  0  0  0  0  0
   -6.3404   -5.7701    0.2439 C   0  0  0  0  0  0  0  0  0  0  0  0
   -4.4271   -7.0479    0.9800 C   0  0  0  0  0  0  0  0  0  0  0  0
   -5.7960   -6.9546    0.7337 C   0  0  0  0  0  0  0  0  0  0  0  0
    0.3611   -1.4135    0.0260 H   0  0  0  0  0  0  0  0  0  0  0  0
   -4.6737   -1.9506   -0.4951 H   0  0  0  0  0  0  0  0  0  0  0  0
    3.0031   -3.8825    0.3792 H   0  0  0  0  0  0  0  0  0  0  0  0
    2.8263   -2.9632   -1.0927 H   0  0  0  0  0  0  0  0  0  0  0  0
    2.6820   -0.7398    2.4422 H   0  0  0  0  0  0  0  0  0  0  0  0
    1.3861   -1.8748    2.1850 H   0  0  0  0  0  0  0  0  0  0  0  0
    4.5115   -0.5218    0.9322 H   0  0  0  0  0  0  0  0  0  0  0  0
    4.6435   -1.5357   -0.4915 H   0  0  0  0  0  0  0  0  0  0  0  0
    5.0136   -3.5633    0.9687 H   0  0  0  0  0  0  0  0  0  0  0  0
    6.1543   -2.2904    1.3757 H   0  0  0  0  0  0  0  0  0  0  0  0
    2.9828   -2.6766    3.9258 H   0  0  0  0  0  0  0  0  0  0  0  0
    3.0032   -3.8038    2.5740 H   0  0  0  0  0  0  0  0  0  0  0  0
   -2.5376   -6.0249    0.9411 H   0  0  0  0  0  0  0  0  0  0  0  0
   -5.9652   -3.7591   -0.3782 H   0  0  0  0  0  0  0  0  0  0  0  0
   -7.4018   -5.7098    0.0234 H   0  0  0  0  0  0  0  0  0  0  0  0
   -3.9940   -7.9780    1.3378 H   0  0  0  0  0  0  0  0  0  0  0  0
   -6.4349   -7.8134    0.9130 H   0  0  0  0  0  0  0  0  0  0  0  0
  2  1  2  0  0  0  0
  3  2  1  0  0  0  0
  4  1  1  0  0  0  0
  4 22  1  0  0  0  0
  5  1  1  0  0  0  0
  6  5  1  0  0  0  0
  6  3  2  0  0  0  0
  6 23  1  0  0  0  0
  7  4  1  0  0  0  0
  8  9  1  0  0  0  0
  9  7  1  0  0  0  0
  9 24  1  0  0  0  0
  9 25  1  0  0  0  0
 10  3  1  0  0  0  0
 11  7  2  0  0  0  0
 12 16  1  0  0  0  0
 13  8  1  0  0  0  0
 13 26  1  0  0  0  0
 13 27  1  0  0  0  0
 14  8  1  0  0  0  0
 14 28  1  0  0  0  0
 14 29  1  0  0  0  0
 15 14  1  0  0  0  0
 15 12  1  0  0  0  0
 15 30  1  0  0  0  0
 15 31  1  0  0  0  0
 16 13  1  0  0  0  0
 16 32  1  0  0  0  0
 16 33  1  0  0  0  0
 17 10  2  0  0  0  0
 17 34  1  0  0  0  0
 18 10  1  0  0  0  0
 18 35  1  0  0  0  0
 19 18  2  0  0  0  0
 19 21  1  0  0  0  0
 19 36  1  0  0  0  0
 20 17  1  0  0  0  0
 20 37  1  0  0  0  0
 21 20  2  0  0  0  0
 21 38  1  0  0  0  0
M  END
>  <Mol_ID>
8711

>  <Formula>
C15H17N3O2S

>  <MolWeight>
303.37938

>  <Cat>
P2857

>  <Name>
WAY-605919-A

>  <Synonyms>
N/A

>  <Target>
Others

>  <Form>
free base

>  <CAS>
66180-00-5

>  <URL>
N/A

$$$$
