WAY-606932
 OpenBabel08302521433D

 49 52  0  0  0  0  0  0  0  0999 V2000
   -0.3945    0.7848   -0.0483 C   0  0  0  0  0  0  0  0  0  0  0  0
    0.7109    1.7095   -0.0345 C   0  0  0  0  0  0  0  0  0  0  0  0
   -1.8090    0.8895   -0.0043 C   0  0  0  0  0  0  0  0  0  0  0  0
   -0.0872   -0.5713   -0.0997 C   0  0  0  0  0  0  0  0  0  0  0  0
   -2.3163   -0.4006    0.0640 C   0  0  0  0  0  0  0  0  0  0  0  0
   -1.2590   -1.2927    0.0278 N   0  0  0  0  0  0  0  0  0  0  0  0
    1.9577    1.3229   -0.0467 N   0  0  0  0  0  0  0  0  0  0  0  0
   -2.6961    2.0972   -0.0670 C   0  0  0  0  0  0  0  0  0  0  0  0
    1.2712   -1.0559   -0.2386 C   0  0  0  0  0  0  0  0  0  0  0  0
    0.6374    3.1641    0.1135 N   0  3  0  0  0  0  0  0  0  0  0  0
    2.2392   -0.0416   -0.1324 N   0  0  0  0  0  0  0  0  0  0  0  0
   -3.9289    2.1087    0.4291 N   0  0  0  0  0  0  0  0  0  0  0  0
   -2.3515    3.2666   -0.7087 O   0  0  0  0  0  0  0  0  0  0  0  0
   -4.3954    3.3678    0.1570 C   0  0  0  0  0  0  0  0  0  0  0  0
   -3.4557    4.0616   -0.5837 C   0  0  0  0  0  0  0  0  0  0  0  0
   -0.1281    3.5899    0.9920 O   0  5  0  0  0  0  0  0  0  0  0  0
    1.5635   -2.2303   -0.4338 O   0  0  0  0  0  0  0  0  0  0  0  0
    1.3574    3.8561   -0.6197 O   0  0  0  0  0  0  0  0  0  0  0  0
   -3.6070   -0.7912    0.0925 N   0  0  0  0  0  0  0  0  0  0  0  0
   -1.3745   -2.7457   -0.0108 C   0  0  0  0  0  0  0  0  0  0  0  0
    3.6383   -0.4180   -0.0733 C   0  0  0  0  0  0  0  0  0  0  0  0
   -5.6037    3.9915    0.4896 C   0  0  0  0  0  0  0  0  0  0  0  0
   -3.6466    5.3414   -1.0911 C   0  0  0  0  0  0  0  0  0  0  0  0
   -0.7217   -3.5460    1.1258 C   0  0  0  0  0  0  0  0  0  0  0  0
   -2.5632   -3.4714    2.9004 C   0  0  0  0  0  0  0  0  0  0  0  0
   -1.1085   -3.1670    2.5539 C   0  0  0  0  0  0  0  0  0  0  0  0
   -5.8287    5.2903    0.0106 C   0  0  0  0  0  0  0  0  0  0  0  0
   -4.8737    5.9436   -0.7790 C   0  0  0  0  0  0  0  0  0  0  0  0
   -2.8341   -3.2177    4.3768 C   0  0  0  0  0  0  0  0  0  0  0  0
   -4.3439   -0.0829    0.1523 H   0  0  0  0  0  0  0  0  0  0  0  0
   -3.9531   -1.7427    0.1113 H   0  0  0  0  0  0  0  0  0  0  0  0
   -2.4322   -3.0155   -0.0559 H   0  0  0  0  0  0  0  0  0  0  0  0
   -0.9515   -3.0585   -0.9734 H   0  0  0  0  0  0  0  0  0  0  0  0
    3.7980   -1.0249    0.8258 H   0  0  0  0  0  0  0  0  0  0  0  0
    3.8928   -1.0167   -0.9513 H   0  0  0  0  0  0  0  0  0  0  0  0
    4.2737    0.4697   -0.0289 H   0  0  0  0  0  0  0  0  0  0  0  0
   -6.3399    3.4810    1.0999 H   0  0  0  0  0  0  0  0  0  0  0  0
   -2.8949    5.8375   -1.6917 H   0  0  0  0  0  0  0  0  0  0  0  0
   -0.9536   -4.6070    0.9634 H   0  0  0  0  0  0  0  0  0  0  0  0
    0.3656   -3.4800    1.0612 H   0  0  0  0  0  0  0  0  0  0  0  0
   -3.2354   -2.8507    2.2994 H   0  0  0  0  0  0  0  0  0  0  0  0
   -2.7918   -4.5187    2.6718 H   0  0  0  0  0  0  0  0  0  0  0  0
   -0.4628   -3.7425    3.2310 H   0  0  0  0  0  0  0  0  0  0  0  0
   -0.8860   -2.1104    2.7399 H   0  0  0  0  0  0  0  0  0  0  0  0
   -6.7628    5.7938    0.2530 H   0  0  0  0  0  0  0  0  0  0  0  0
   -5.0867    6.9442   -1.1521 H   0  0  0  0  0  0  0  0  0  0  0  0
   -2.2010   -3.8519    5.0061 H   0  0  0  0  0  0  0  0  0  0  0  0
   -2.6381   -2.1728    4.6377 H   0  0  0  0  0  0  0  0  0  0  0  0
   -3.8784   -3.4398    4.6164 H   0  0  0  0  0  0  0  0  0  0  0  0
  2  1  1  0  0  0  0
  3  1  1  0  0  0  0
  4  1  2  0  0  0  0
  5  3  2  0  0  0  0
  5  6  1  0  0  0  0
  6  4  1  0  0  0  0
  7  2  2  0  0  0  0
  8  3  1  0  0  0  0
  9  4  1  0  0  0  0
 10  2  1  0  0  0  0
 11  9  1  0  0  0  0
 11  7  1  0  0  0  0
 12  8  2  0  0  0  0
 13  8  1  0  0  0  0
 14 12  1  0  0  0  0
 15 13  1  0  0  0  0
 15 14  2  0  0  0  0
 16 10  1  0  0  0  0
 17  9  2  0  0  0  0
 18 10  2  0  0  0  0
 19  5  1  0  0  0  0
 19 30  1  0  0  0  0
 19 31  1  0  0  0  0
 20  6  1  0  0  0  0
 20 32  1  0  0  0  0
 20 33  1  0  0  0  0
 21 11  1  0  0  0  0
 21 34  1  0  0  0  0
 21 35  1  0  0  0  0
 21 36  1  0  0  0  0
 22 14  1  0  0  0  0
 22 37  1  0  0  0  0
 23 15  1  0  0  0  0
 23 38  1  0  0  0  0
 24 20  1  0  0  0  0
 24 39  1  0  0  0  0
 24 40  1  0  0  0  0
 25 26  1  0  0  0  0
 25 41  1  0  0  0  0
 25 42  1  0  0  0  0
 26 24  1  0  0  0  0
 26 43  1  0  0  0  0
 26 44  1  0  0  0  0
 27 22  2  0  0  0  0
 27 45  1  0  0  0  0
 28 23  2  0  0  0  0
 28 27  1  0  0  0  0
 28 46  1  0  0  0  0
 29 25  1  0  0  0  0
 29 47  1  0  0  0  0
 29 48  1  0  0  0  0
 29 49  1  0  0  0  0
M  CHG  2  10   1  16  -1
M  END
>  <Mol_ID>
8734

>  <Formula>
C19H20N6O4

>  <MolWeight>
396.3999

>  <Cat>
P2877

>  <Name>
WAY-606932

>  <Synonyms>
N/A

>  <Target>
Mcl-1

>  <Form>
free base

>  <CAS>
748784-61-4

>  <URL>
N/A

$$$$
