WAY-327366
 OpenBabel08302521443D

 52 54  0  0  0  0  0  0  0  0999 V2000
    2.0055    0.8792    0.1046 C   0  0  0  0  0  0  0  0  0  0  0  0
   -3.3081   -2.4686   -0.1082 S   0  0  0  0  0  0  0  0  0  0  0  0
    1.6766   -0.4738    0.1492 C   0  0  0  0  0  0  0  0  0  0  0  0
    0.8674    1.6265    0.2167 O   0  0  0  0  0  0  0  0  0  0  0  0
    3.3002    1.5459   -0.0021 C   0  0  0  0  0  0  0  0  0  0  0  0
    0.2465   -0.5331    0.1804 C   0  0  0  0  0  0  0  0  0  0  0  0
   -2.0744   -1.1912    0.0782 C   0  0  0  0  0  0  0  0  0  0  0  0
   -0.1877    0.7826    0.1713 C   0  0  0  0  0  0  0  0  0  0  0  0
   -0.7197   -1.5575    0.1712 C   0  0  0  0  0  0  0  0  0  0  0  0
    3.3779    2.8233   -0.5967 N   0  0  0  0  0  0  0  0  0  0  0  0
   -4.2742   -2.4661    1.3590 N   0  0  0  0  0  0  0  0  0  0  0  0
   -4.1788   -2.0512   -1.1896 O   0  0  0  0  0  0  0  0  0  0  0  0
   -2.5947   -3.7247   -0.1736 O   0  0  0  0  0  0  0  0  0  0  0  0
    4.3218    0.9969    0.4136 O   0  0  0  0  0  0  0  0  0  0  0  0
   -2.4539    0.1532   -0.0404 C   0  0  0  0  0  0  0  0  0  0  0  0
   -1.5163    1.1792    0.0764 C   0  0  0  0  0  0  0  0  0  0  0  0
    2.5904   -1.6433    0.0794 C   0  0  0  0  0  0  0  0  0  0  0  0
    4.7080    3.4159   -0.7417 C   0  0  0  0  0  0  0  0  0  0  0  0
    2.3566    3.4251   -1.4625 C   0  0  0  0  0  0  0  0  0  0  0  0
   -4.8408   -1.1037    1.6693 C   0  0  0  0  0  0  0  0  0  0  0  0
   -5.3874   -3.4898    1.2753 C   0  0  0  0  0  0  0  0  0  0  0  0
   -5.6369   -1.0041    2.9603 C   0  0  0  0  0  0  0  0  0  0  0  0
   -4.9245   -4.9339    1.2082 C   0  0  0  0  0  0  0  0  0  0  0  0
    4.6754    4.9297   -0.5464 C   0  0  0  0  0  0  0  0  0  0  0  0
    2.2598    4.9275   -1.2271 C   0  0  0  0  0  0  0  0  0  0  0  0
    3.6169    5.5932   -1.4229 C   0  0  0  0  0  0  0  0  0  0  0  0
   -0.4126   -2.5998    0.1691 H   0  0  0  0  0  0  0  0  0  0  0  0
   -3.4931    0.4200   -0.2198 H   0  0  0  0  0  0  0  0  0  0  0  0
   -1.7927    2.2253    0.0343 H   0  0  0  0  0  0  0  0  0  0  0  0
    2.4379   -2.2935    0.9472 H   0  0  0  0  0  0  0  0  0  0  0  0
    2.3905   -2.2264   -0.8258 H   0  0  0  0  0  0  0  0  0  0  0  0
    3.6443   -1.3565    0.0592 H   0  0  0  0  0  0  0  0  0  0  0  0
    5.0646    3.1674   -1.7492 H   0  0  0  0  0  0  0  0  0  0  0  0
    5.4161    2.9815   -0.0301 H   0  0  0  0  0  0  0  0  0  0  0  0
    1.3703    2.9835   -1.3524 H   0  0  0  0  0  0  0  0  0  0  0  0
    2.6550    3.2182   -2.4988 H   0  0  0  0  0  0  0  0  0  0  0  0
   -4.0092   -0.4140    1.8181 H   0  0  0  0  0  0  0  0  0  0  0  0
   -5.4543   -0.7561    0.8311 H   0  0  0  0  0  0  0  0  0  0  0  0
   -5.9995   -3.4271    2.1784 H   0  0  0  0  0  0  0  0  0  0  0  0
   -6.0413   -3.2528    0.4285 H   0  0  0  0  0  0  0  0  0  0  0  0
   -6.5322   -1.6282    2.9644 H   0  0  0  0  0  0  0  0  0  0  0  0
   -5.0200   -1.2642    3.8250 H   0  0  0  0  0  0  0  0  0  0  0  0
   -5.9784    0.0302    3.0892 H   0  0  0  0  0  0  0  0  0  0  0  0
   -4.3850   -5.1667    0.2893 H   0  0  0  0  0  0  0  0  0  0  0  0
   -4.2921   -5.1884    2.0637 H   0  0  0  0  0  0  0  0  0  0  0  0
   -5.7981   -5.5954    1.2222 H   0  0  0  0  0  0  0  0  0  0  0  0
    5.6608    5.3527   -0.7688 H   0  0  0  0  0  0  0  0  0  0  0  0
    4.4576    5.1502    0.5056 H   0  0  0  0  0  0  0  0  0  0  0  0
    1.9042    5.1142   -0.2034 H   0  0  0  0  0  0  0  0  0  0  0  0
    1.5262    5.3655   -1.9113 H   0  0  0  0  0  0  0  0  0  0  0  0
    3.5478    6.6595   -1.1820 H   0  0  0  0  0  0  0  0  0  0  0  0
    3.9111    5.5171   -2.4767 H   0  0  0  0  0  0  0  0  0  0  0  0
  2  7  1  0  0  0  0
  3  1  2  0  0  0  0
  4  1  1  0  0  0  0
  5  1  1  0  0  0  0
  6  3  1  0  0  0  0
  6  8  2  0  0  0  0
  7  9  2  0  0  0  0
  7 15  1  0  0  0  0
  8  4  1  0  0  0  0
  9  6  1  0  0  0  0
  9 27  1  0  0  0  0
 10  5  1  0  0  0  0
 11  2  1  0  0  0  0
 12  2  2  0  0  0  0
 13  2  2  0  0  0  0
 14  5  2  0  0  0  0
 15 16  2  0  0  0  0
 15 28  1  0  0  0  0
 16  8  1  0  0  0  0
 16 29  1  0  0  0  0
 17  3  1  0  0  0  0
 17 30  1  0  0  0  0
 17 31  1  0  0  0  0
 17 32  1  0  0  0  0
 18 10  1  0  0  0  0
 18 33  1  0  0  0  0
 18 34  1  0  0  0  0
 19 10  1  0  0  0  0
 19 35  1  0  0  0  0
 19 36  1  0  0  0  0
 20 11  1  0  0  0  0
 20 37  1  0  0  0  0
 20 38  1  0  0  0  0
 21 11  1  0  0  0  0
 21 39  1  0  0  0  0
 21 40  1  0  0  0  0
 22 20  1  0  0  0  0
 22 41  1  0  0  0  0
 22 42  1  0  0  0  0
 22 43  1  0  0  0  0
 23 21  1  0  0  0  0
 23 44  1  0  0  0  0
 23 45  1  0  0  0  0
 23 46  1  0  0  0  0
 24 18  1  0  0  0  0
 24 26  1  0  0  0  0
 24 47  1  0  0  0  0
 24 48  1  0  0  0  0
 25 19  1  0  0  0  0
 25 49  1  0  0  0  0
 25 50  1  0  0  0  0
 26 25  1  0  0  0  0
 26 51  1  0  0  0  0
 26 52  1  0  0  0  0
M  END
>  <Mol_ID>
8967

>  <Formula>
C19H26N2O4S

>  <MolWeight>
378.48574

>  <Cat>
P2527

>  <Name>
WAY-327366

>  <Synonyms>
N/A

>  <Target>
calcium channel

>  <Form>
free base

>  <CAS>
687568-55-4

>  <URL>
N/A

$$$$
