WAY-640015
 OpenBabel08302521443D

 38 40  0  0  0  0  0  0  0  0999 V2000
    0.7581   -0.7699   -0.7560 N   0  0  0  0  0  0  0  0  0  0  0  0
    0.1265   -0.9512    0.3875 C   0  0  0  0  0  0  0  0  0  0  0  0
   -0.5497    0.1713    0.7953 O   0  0  0  0  0  0  0  0  0  0  0  0
    0.5069    0.5286   -1.1467 N   0  0  0  0  0  0  0  0  0  0  0  0
   -0.2684    1.0506   -0.2189 C   0  0  0  0  0  0  0  0  0  0  0  0
    0.0958   -2.1147    1.2648 C   0  0  0  0  0  0  0  0  0  0  0  0
   -4.3682    8.6373   -0.0375 C   0  0  0  0  0  0  0  0  0  0  0  0
   -4.7743    7.3937   -0.4985 N   0  0  0  0  0  0  0  0  0  0  0  0
   -3.3459    8.8958    0.5885 O   0  0  0  0  0  0  0  0  0  0  0  0
   -0.7504    2.4446   -0.0741 C   0  0  0  0  0  0  0  0  0  0  0  0
    0.8154   -3.2672    0.9116 C   0  0  0  0  0  0  0  0  0  0  0  0
   -0.6146   -2.1155    2.4750 C   0  0  0  0  0  0  0  0  0  0  0  0
   -2.1804    2.4412   -0.1623 O   0  0  0  0  0  0  0  0  0  0  0  0
   -4.0809    6.1714   -0.3568 C   0  0  0  0  0  0  0  0  0  0  0  0
   -2.7534    3.6872   -0.1842 C   0  0  0  0  0  0  0  0  0  0  0  0
    0.1411   -4.3621    2.9569 C   0  0  0  0  0  0  0  0  0  0  0  0
   -0.5899   -3.2318    3.3166 C   0  0  0  0  0  0  0  0  0  0  0  0
    0.8397   -4.3831    1.7522 C   0  0  0  0  0  0  0  0  0  0  0  0
   -2.8576    6.0571    0.3013 C   0  0  0  0  0  0  0  0  0  0  0  0
   -4.6522    5.0177   -0.9059 C   0  0  0  0  0  0  0  0  0  0  0  0
   -3.9948    3.7815   -0.8128 C   0  0  0  0  0  0  0  0  0  0  0  0
   -2.1984    4.8267    0.3926 C   0  0  0  0  0  0  0  0  0  0  0  0
   -5.3388    9.7337   -0.3893 C   0  0  0  0  0  0  0  0  0  0  0  0
   -5.6517    7.3567   -1.0017 H   0  0  0  0  0  0  0  0  0  0  0  0
   -0.4208    2.8192    0.9012 H   0  0  0  0  0  0  0  0  0  0  0  0
   -0.3250    3.0604   -0.8759 H   0  0  0  0  0  0  0  0  0  0  0  0
    1.3724   -3.2987   -0.0240 H   0  0  0  0  0  0  0  0  0  0  0  0
   -1.1897   -1.2438    2.7802 H   0  0  0  0  0  0  0  0  0  0  0  0
    0.1672   -5.2265    3.6158 H   0  0  0  0  0  0  0  0  0  0  0  0
   -1.1376   -3.2157    4.2556 H   0  0  0  0  0  0  0  0  0  0  0  0
    1.4088   -5.2644    1.4671 H   0  0  0  0  0  0  0  0  0  0  0  0
   -2.3730    6.9114    0.7621 H   0  0  0  0  0  0  0  0  0  0  0  0
   -5.6094    5.0568   -1.4187 H   0  0  0  0  0  0  0  0  0  0  0  0
   -4.4490    2.8948   -1.2461 H   0  0  0  0  0  0  0  0  0  0  0  0
   -1.2589    4.8060    0.9326 H   0  0  0  0  0  0  0  0  0  0  0  0
   -5.4073    9.8392   -1.4753 H   0  0  0  0  0  0  0  0  0  0  0  0
   -6.3235    9.5175    0.0334 H   0  0  0  0  0  0  0  0  0  0  0  0
   -4.9811   10.6800    0.0306 H   0  0  0  0  0  0  0  0  0  0  0  0
  2  1  2  0  0  0  0
  3  2  1  0  0  0  0
  3  5  1  0  0  0  0
  4  1  1  0  0  0  0
  5  4  2  0  0  0  0
  6  2  1  0  0  0  0
  7  8  1  0  0  0  0
  8 14  1  0  0  0  0
  8 24  1  0  0  0  0
  9  7  2  0  0  0  0
 10  5  1  0  0  0  0
 10 25  1  0  0  0  0
 10 26  1  0  0  0  0
 11  6  2  0  0  0  0
 11 27  1  0  0  0  0
 12  6  1  0  0  0  0
 12 28  1  0  0  0  0
 13 10  1  0  0  0  0
 14 19  2  0  0  0  0
 14 20  1  0  0  0  0
 15 13  1  0  0  0  0
 16 17  1  0  0  0  0
 16 18  2  0  0  0  0
 16 29  1  0  0  0  0
 17 12  2  0  0  0  0
 17 30  1  0  0  0  0
 18 11  1  0  0  0  0
 18 31  1  0  0  0  0
 19 22  1  0  0  0  0
 19 32  1  0  0  0  0
 20 21  2  0  0  0  0
 20 33  1  0  0  0  0
 21 15  1  0  0  0  0
 21 34  1  0  0  0  0
 22 15  2  0  0  0  0
 22 35  1  0  0  0  0
 23  7  1  0  0  0  0
 23 36  1  0  0  0  0
 23 37  1  0  0  0  0
 23 38  1  0  0  0  0
M  END
>  <Mol_ID>
9089

>  <Formula>
C17H14ClN3O3

>  <MolWeight>
343.76436

>  <Cat>
P3096

>  <Name>
WAY-640015

>  <Synonyms>
N/A

>  <Target>
Anti-infection

>  <Form>
free base

>  <CAS>
204651-69-4

>  <URL>
N/A

$$$$
