WAY-325641
 OpenBabel08302521433D

 49 51  0  0  0  0  0  0  0  0999 V2000
    0.0835   -2.4098    0.4330 N   0  0  0  0  0  0  0  0  0  0  0  0
   -1.1756   -3.1931    0.6334 C   0  0  3  0  0  0  0  0  0  0  0  0
   -0.2409   -1.1816   -0.2993 C   0  0  3  0  0  0  0  0  0  0  0  0
   -1.8142   -0.6262    0.3937 S   0  0  0  0  0  0  0  0  0  0  0  0
   -1.1292   -3.9373    1.9618 C   0  0  0  0  0  0  0  0  0  0  0  0
   -0.2883   -1.3603   -1.8082 C   0  0  0  0  0  0  0  0  0  0  0  0
   -0.5092   -0.2565   -2.6500 C   0  0  0  0  0  0  0  0  0  0  0  0
   -0.4828   -0.3780   -4.0494 C   0  0  0  0  0  0  0  0  0  0  0  0
   -2.4232   -2.3131    0.5857 C   0  0  0  0  0  0  0  0  0  0  0  0
   -0.3150   -1.6429   -4.6290 C   0  0  0  0  0  0  0  0  0  0  0  0
   -0.3677   -1.7882   -5.9898 O   0  0  0  0  0  0  0  0  0  0  0  0
   -1.8171   -4.8996    2.2700 O   0  0  0  0  0  0  0  0  0  0  0  0
   -0.0677   -2.5996   -2.4173 C   0  0  0  0  0  0  0  0  0  0  0  0
   -0.1273   -2.7483   -3.7988 C   0  0  0  0  0  0  0  0  0  0  0  0
   -0.2644   -3.4022    2.8552 O   0  0  0  0  0  0  0  0  0  0  0  0
    0.5452   -2.7613   -6.5159 C   0  0  0  0  0  0  0  0  0  0  0  0
   -0.7324   -2.9352   -8.6620 C   0  0  0  0  0  0  0  0  0  0  0  0
    0.4949   -2.7257   -8.0181 C   0  0  0  0  0  0  0  0  0  0  0  0
   -0.6000    0.8270   -4.6893 O   0  0  0  0  0  0  0  0  0  0  0  0
   -0.8145   -2.9775  -10.0554 C   0  0  0  0  0  0  0  0  0  0  0  0
    1.5774   -2.6039  -10.1719 C   0  0  0  0  0  0  0  0  0  0  0  0
    1.6521   -2.5568   -8.7860 C   0  0  0  0  0  0  0  0  0  0  0  0
    0.3512   -2.8133  -10.8099 C   0  0  0  0  0  0  0  0  0  0  0  0
    0.0318    1.0067   -5.9573 C   0  0  0  0  0  0  0  0  0  0  0  0
   -2.1390   -3.1873  -10.7251 C   0  0  0  0  0  0  0  0  0  0  0  0
    1.5258    0.6965   -5.9722 C   0  0  0  0  0  0  0  0  0  0  0  0
    0.3844   -2.1200    1.3690 H   0  0  0  0  0  0  0  0  0  0  0  0
   -1.2305   -3.9710   -0.1369 H   0  0  0  0  0  0  0  0  0  0  0  0
    0.5334   -0.4360   -0.0835 H   0  0  0  0  0  0  0  0  0  0  0  0
   -0.6751    0.7308   -2.2182 H   0  0  0  0  0  0  0  0  0  0  0  0
   -3.0258   -2.5524   -0.2966 H   0  0  0  0  0  0  0  0  0  0  0  0
   -3.0552   -2.3869    1.4747 H   0  0  0  0  0  0  0  0  0  0  0  0
    0.1572   -3.4844   -1.8275 H   0  0  0  0  0  0  0  0  0  0  0  0
   -0.0194   -3.7533   -4.1901 H   0  0  0  0  0  0  0  0  0  0  0  0
   -0.3475   -3.9801    3.6422 H   0  0  0  0  0  0  0  0  0  0  0  0
    1.5628   -2.5590   -6.1608 H   0  0  0  0  0  0  0  0  0  0  0  0
    0.2579   -3.7763   -6.2210 H   0  0  0  0  0  0  0  0  0  0  0  0
   -1.6302   -3.0706   -8.0606 H   0  0  0  0  0  0  0  0  0  0  0  0
    2.4786   -2.4780  -10.7724 H   0  0  0  0  0  0  0  0  0  0  0  0
    2.6153   -2.3982   -8.3074 H   0  0  0  0  0  0  0  0  0  0  0  0
    0.3089   -2.8480  -11.8973 H   0  0  0  0  0  0  0  0  0  0  0  0
   -0.5229    0.4857   -6.7446 H   0  0  0  0  0  0  0  0  0  0  0  0
   -0.0697    2.0741   -6.1843 H   0  0  0  0  0  0  0  0  0  0  0  0
   -2.4003   -2.3075  -11.3203 H   0  0  0  0  0  0  0  0  0  0  0  0
   -2.1044   -4.0704  -11.3710 H   0  0  0  0  0  0  0  0  0  0  0  0
   -2.9369   -3.3444   -9.9919 H   0  0  0  0  0  0  0  0  0  0  0  0
    2.0542    1.3049   -5.2318 H   0  0  0  0  0  0  0  0  0  0  0  0
    1.7440   -0.3411   -5.7122 H   0  0  0  0  0  0  0  0  0  0  0  0
    1.9441    0.8828   -6.9614 H   0  0  0  0  0  0  0  0  0  0  0  0
  1 27  1  0  0  0  0
  2  1  1  0  0  0  0
  2 28  1  0  0  0  0
  3  1  1  0  0  0  0
  3 29  1  0  0  0  0
  4  3  1  0  0  0  0
  4  9  1  0  0  0  0
  5  2  1  0  0  0  0
  6  3  1  0  0  0  0
  7  6  2  0  0  0  0
  7 30  1  0  0  0  0
  8  7  1  0  0  0  0
  8 10  2  0  0  0  0
  9  2  1  0  0  0  0
  9 31  1  0  0  0  0
  9 32  1  0  0  0  0
 10 14  1  0  0  0  0
 11 10  1  0  0  0  0
 12  5  2  0  0  0  0
 13  6  1  0  0  0  0
 13 33  1  0  0  0  0
 14 13  2  0  0  0  0
 14 34  1  0  0  0  0
 15  5  1  0  0  0  0
 15 35  1  0  0  0  0
 16 11  1  0  0  0  0
 16 36  1  0  0  0  0
 16 37  1  0  0  0  0
 17 18  2  0  0  0  0
 17 38  1  0  0  0  0
 18 16  1  0  0  0  0
 19  8  1  0  0  0  0
 20 17  1  0  0  0  0
 20 23  2  0  0  0  0
 21 22  2  0  0  0  0
 21 39  1  0  0  0  0
 22 18  1  0  0  0  0
 22 40  1  0  0  0  0
 23 21  1  0  0  0  0
 23 41  1  0  0  0  0
 24 19  1  0  0  0  0
 24 42  1  0  0  0  0
 24 43  1  0  0  0  0
 25 20  1  0  0  0  0
 25 44  1  0  0  0  0
 25 45  1  0  0  0  0
 25 46  1  0  0  0  0
 26 24  1  0  0  0  0
 26 47  1  0  0  0  0
 26 48  1  0  0  0  0
 26 49  1  0  0  0  0
M  END
>  <Mol_ID>
8867

>  <Formula>
C20H23NO4S

>  <MolWeight>
373.46592

>  <Cat>
P2415

>  <Name>
WAY-325641

>  <Synonyms>
N/A

>  <Target>
HIV-1 integrase

>  <Form>
free base

>  <CAS>
869354-47-2

>  <URL>
N/A

$$$$
