WAY-325506
 OpenBabel08302521433D

 38 41  0  0  0  0  0  0  0  0999 V2000
    0.2956   -0.6932    0.0659 C   0  0  0  0  0  0  0  0  0  0  0  0
    1.6153   -1.0881    0.0246 C   0  0  0  0  0  0  0  0  0  0  0  0
    0.2812    0.6891    0.0253 N   0  0  0  0  0  0  0  0  0  0  0  0
   -0.8938   -1.3452    0.1305 N   0  0  0  0  0  0  0  0  0  0  0  0
    2.0861   -2.4623    0.0216 C   0  0  0  0  0  0  0  0  0  0  0  0
    2.3286    0.1362    0.0119 C   0  0  0  0  0  0  0  0  0  0  0  0
   -0.8885    1.4654    0.0010 C   0  0  0  0  0  0  0  0  0  0  0  0
    1.5373    1.2133    0.0184 N   0  0  0  0  0  0  0  0  0  0  0  0
   -2.1069   -0.6755    0.0485 C   0  0  0  0  0  0  0  0  0  0  0  0
    1.3529   -3.4730   -0.6209 C   0  0  0  0  0  0  0  0  0  0  0  0
    3.2816   -2.8063    0.6645 C   0  0  0  0  0  0  0  0  0  0  0  0
   -2.1493    0.6708   -0.0017 C   0  0  0  0  0  0  0  0  0  0  0  0
   -0.8669    2.6918   -0.0215 O   0  0  0  0  0  0  0  0  0  0  0  0
   -3.3751   -1.5137    0.0315 C   0  0  0  0  0  0  0  0  0  0  0  0
    1.7666   -4.8025   -0.5671 C   0  0  0  0  0  0  0  0  0  0  0  0
    3.7028   -4.1389    0.7080 C   0  0  0  0  0  0  0  0  0  0  0  0
   -3.7869   -1.9199   -1.3675 C   0  0  0  0  0  0  0  0  0  0  0  0
    2.9387   -5.1360    0.1037 C   0  0  0  0  0  0  0  0  0  0  0  0
   -3.3171   -3.1078   -1.9478 C   0  0  0  0  0  0  0  0  0  0  0  0
   -4.6152   -1.0797   -2.1273 C   0  0  0  0  0  0  0  0  0  0  0  0
   -3.6452   -3.4297   -3.2676 C   0  0  0  0  0  0  0  0  0  0  0  0
   -4.9427   -1.4051   -3.4448 C   0  0  0  0  0  0  0  0  0  0  0  0
   -4.4491   -2.5744   -4.0180 C   0  0  0  0  0  0  0  0  0  0  0  0
   -0.9403   -2.3556    0.2380 H   0  0  0  0  0  0  0  0  0  0  0  0
    3.4009    0.2857   -0.0117 H   0  0  0  0  0  0  0  0  0  0  0  0
    0.4532   -3.2355   -1.1827 H   0  0  0  0  0  0  0  0  0  0  0  0
    3.8931   -2.0503    1.1511 H   0  0  0  0  0  0  0  0  0  0  0  0
   -3.0693    1.2362   -0.0637 H   0  0  0  0  0  0  0  0  0  0  0  0
   -3.2386   -2.4113    0.6497 H   0  0  0  0  0  0  0  0  0  0  0  0
   -4.1982   -0.9653    0.5078 H   0  0  0  0  0  0  0  0  0  0  0  0
    1.1741   -5.5732   -1.0524 H   0  0  0  0  0  0  0  0  0  0  0  0
    4.6253   -4.3997    1.2210 H   0  0  0  0  0  0  0  0  0  0  0  0
    3.2611   -6.1735    0.1490 H   0  0  0  0  0  0  0  0  0  0  0  0
   -2.6893   -3.7893   -1.3806 H   0  0  0  0  0  0  0  0  0  0  0  0
   -5.0061   -0.1586   -1.7007 H   0  0  0  0  0  0  0  0  0  0  0  0
   -3.2670   -4.3461   -3.7150 H   0  0  0  0  0  0  0  0  0  0  0  0
   -5.5765   -0.7406   -4.0266 H   0  0  0  0  0  0  0  0  0  0  0  0
   -4.6894   -2.8169   -5.0503 H   0  0  0  0  0  0  0  0  0  0  0  0
  1  2  2  0  0  0  0
  1  3  1  0  0  0  0
  1  4  1  0  0  0  0
  2  5  1  0  0  0  0
  2  6  1  0  0  0  0
  3  7  1  0  0  0  0
  3  8  1  0  0  0  0
  4  9  1  0  0  0  0
  4 24  1  0  0  0  0
  5 10  2  0  0  0  0
  5 11  1  0  0  0  0
  6  8  2  0  0  0  0
  6 25  1  0  0  0  0
  7 12  1  0  0  0  0
  7 13  2  0  0  0  0
  9 14  1  0  0  0  0
  9 12  2  0  0  0  0
 10 15  1  0  0  0  0
 10 26  1  0  0  0  0
 11 16  2  0  0  0  0
 11 27  1  0  0  0  0
 12 28  1  0  0  0  0
 14 17  1  0  0  0  0
 14 29  1  0  0  0  0
 14 30  1  0  0  0  0
 15 18  2  0  0  0  0
 15 31  1  0  0  0  0
 16 18  1  0  0  0  0
 16 32  1  0  0  0  0
 17 19  2  0  0  0  0
 17 20  1  0  0  0  0
 18 33  1  0  0  0  0
 19 21  1  0  0  0  0
 19 34  1  0  0  0  0
 20 22  2  0  0  0  0
 20 35  1  0  0  0  0
 21 23  2  0  0  0  0
 21 36  1  0  0  0  0
 22 23  1  0  0  0  0
 22 37  1  0  0  0  0
 23 38  1  0  0  0  0
M  END
>  <Mol_ID>
8710

>  <Formula>
C19H14ClN3O

>  <MolWeight>
335.78696

>  <Cat>
P2409

>  <Name>
WAY-325506

>  <Synonyms>
N/A

>  <Target>
Mycobacterium tuberculosis DXS

>  <Form>
free base

>  <CAS>
419547-73-2

>  <URL>
N/A

$$$$
