WAY-639108
 OpenBabel08302521433D

 56 60  0  0  0  0  0  0  0  0999 V2000
   -2.5665   -1.3610    0.0992 N   0  0  0  0  0  0  0  0  0  0  0  0
   -2.0212    0.1334   -3.9783 C   0  0  0  0  0  0  0  0  0  0  0  0
   -1.6195    1.1349   -4.7121 N   0  0  0  0  0  0  0  0  0  0  0  0
   -1.2227   -1.7312   -0.0689 C   0  0  0  0  0  0  0  0  0  0  0  0
   -1.4116    0.6251   -0.3222 C   0  0  3  0  0  0  0  0  0  0  0  0
   -1.9247   -0.0358   -2.6258 N   0  0  0  0  0  0  0  0  0  0  0  0
   -1.5582    0.9983   -1.7935 C   0  0  0  0  0  0  0  0  0  0  0  0
   -1.9866    0.9230   -6.0276 C   0  0  0  0  0  0  0  0  0  0  0  0
   -2.6898    0.0708    0.2661 C   0  0  0  0  0  0  0  0  0  0  0  0
   -3.6742   -2.2445    0.2284 C   0  0  0  0  0  0  0  0  0  0  0  0
   -2.7737   -1.1600   -4.7964 S   0  0  0  0  0  0  0  0  0  0  0  0
   -0.3876   -0.4734   -0.1017 C   0  0  0  0  0  0  0  0  0  0  0  0
   -2.6432   -0.2720   -6.2618 C   0  0  0  0  0  0  0  0  0  0  0  0
   -3.5701   -3.6067   -0.0820 C   0  0  0  0  0  0  0  0  0  0  0  0
   -4.6695   -4.4609    0.0465 C   0  0  0  0  0  0  0  0  0  0  0  0
   -1.6871    1.9117   -7.0517 C   0  0  0  0  0  0  0  0  0  0  0  0
   -1.3029    5.4328  -11.0215 C   0  0  0  0  0  0  0  0  0  0  0  0
   -5.8896   -3.9725    0.5116 C   0  0  0  0  0  0  0  0  0  0  0  0
   -0.7391   -2.8455   -0.1789 O   0  0  0  0  0  0  0  0  0  0  0  0
   -0.7454    4.9077   -9.8959 N   0  0  0  0  0  0  0  0  0  0  0  0
   -1.3703    2.1657   -2.1267 O   0  0  0  0  0  0  0  0  0  0  0  0
   -4.4682   -5.7745   -0.2943 O   0  0  0  0  0  0  0  0  0  0  0  0
   -4.9224   -1.7654    0.6638 C   0  0  0  0  0  0  0  0  0  0  0  0
   -6.9964   -4.7580    0.6956 O   0  0  0  0  0  0  0  0  0  0  0  0
   -0.7073    6.3548  -11.5871 O   0  0  0  0  0  0  0  0  0  0  0  0
   -6.0211   -2.6216    0.8055 C   0  0  0  0  0  0  0  0  0  0  0  0
   -0.5425    2.7061   -6.9423 C   0  0  0  0  0  0  0  0  0  0  0  0
   -2.5379    2.1143   -8.1412 C   0  0  0  0  0  0  0  0  0  0  0  0
   -1.1142    3.8889   -9.0002 C   0  0  0  0  0  0  0  0  0  0  0  0
   -0.2573    3.6779   -7.9099 C   0  0  0  0  0  0  0  0  0  0  0  0
   -2.2500    3.0904   -9.1049 C   0  0  0  0  0  0  0  0  0  0  0  0
   -2.6044    4.9321  -11.5720 C   0  0  0  0  0  0  0  0  0  0  0  0
   -5.7051   -6.4830   -0.4266 C   0  0  0  0  0  0  0  0  0  0  0  0
   -6.6477   -6.1472    0.7173 C   0  0  0  0  0  0  0  0  0  0  0  0
   -1.1134    1.5420    0.2009 H   0  0  0  0  0  0  0  0  0  0  0  0
   -2.2471   -0.9262   -2.2717 H   0  0  0  0  0  0  0  0  0  0  0  0
   -2.7485    0.2828    1.3401 H   0  0  0  0  0  0  0  0  0  0  0  0
   -3.5780    0.4605   -0.2419 H   0  0  0  0  0  0  0  0  0  0  0  0
    0.1070   -0.3664    0.8690 H   0  0  0  0  0  0  0  0  0  0  0  0
    0.3593   -0.5293   -0.8983 H   0  0  0  0  0  0  0  0  0  0  0  0
   -3.0305   -0.6684   -7.1891 H   0  0  0  0  0  0  0  0  0  0  0  0
   -2.6457   -4.0412   -0.4493 H   0  0  0  0  0  0  0  0  0  0  0  0
    0.1214    5.3927   -9.6807 H   0  0  0  0  0  0  0  0  0  0  0  0
   -5.0723   -0.7243    0.9351 H   0  0  0  0  0  0  0  0  0  0  0  0
   -6.9713   -2.2349    1.1644 H   0  0  0  0  0  0  0  0  0  0  0  0
    0.1327    2.5788   -6.0969 H   0  0  0  0  0  0  0  0  0  0  0  0
   -3.4534    1.5384   -8.2463 H   0  0  0  0  0  0  0  0  0  0  0  0
    0.6446    4.2741   -7.7843 H   0  0  0  0  0  0  0  0  0  0  0  0
   -2.9642    3.1798   -9.9066 H   0  0  0  0  0  0  0  0  0  0  0  0
   -2.5020    3.8924  -11.8913 H   0  0  0  0  0  0  0  0  0  0  0  0
   -3.4043    5.0582  -10.8381 H   0  0  0  0  0  0  0  0  0  0  0  0
   -2.8752    5.5228  -12.4526 H   0  0  0  0  0  0  0  0  0  0  0  0
   -5.4749   -7.5530   -0.4237 H   0  0  0  0  0  0  0  0  0  0  0  0
   -6.1473   -6.2307   -1.3981 H   0  0  0  0  0  0  0  0  0  0  0  0
   -7.5739   -6.7228    0.6245 H   0  0  0  0  0  0  0  0  0  0  0  0
   -6.1976   -6.3787    1.6907 H   0  0  0  0  0  0  0  0  0  0  0  0
  2  6  1  0  0  0  0
  3  2  2  0  0  0  0
  4  1  1  0  0  0  0
  5  9  1  0  0  0  0
  5 35  1  0  0  0  0
  6  7  1  0  0  0  0
  6 36  1  0  0  0  0
  7  5  1  0  0  0  0
  8  3  1  0  0  0  0
  9  1  1  0  0  0  0
  9 37  1  0  0  0  0
  9 38  1  0  0  0  0
 10  1  1  0  0  0  0
 11  2  1  0  0  0  0
 12  4  1  0  0  0  0
 12  5  1  0  0  0  0
 12 39  1  0  0  0  0
 12 40  1  0  0  0  0
 13 11  1  0  0  0  0
 13  8  2  0  0  0  0
 13 41  1  0  0  0  0
 14 10  2  0  0  0  0
 14 42  1  0  0  0  0
 15 14  1  0  0  0  0
 16  8  1  0  0  0  0
 17 20  1  0  0  0  0
 18 26  1  0  0  0  0
 18 15  2  0  0  0  0
 19  4  2  0  0  0  0
 20 29  1  0  0  0  0
 20 43  1  0  0  0  0
 21  7  2  0  0  0  0
 22 15  1  0  0  0  0
 23 10  1  0  0  0  0
 23 44  1  0  0  0  0
 24 18  1  0  0  0  0
 25 17  2  0  0  0  0
 26 23  2  0  0  0  0
 26 45  1  0  0  0  0
 27 16  2  0  0  0  0
 27 46  1  0  0  0  0
 28 16  1  0  0  0  0
 28 47  1  0  0  0  0
 29 31  1  0  0  0  0
 30 27  1  0  0  0  0
 30 29  2  0  0  0  0
 30 48  1  0  0  0  0
 31 28  2  0  0  0  0
 31 49  1  0  0  0  0
 32 17  1  0  0  0  0
 32 50  1  0  0  0  0
 32 51  1  0  0  0  0
 32 52  1  0  0  0  0
 33 22  1  0  0  0  0
 33 34  1  0  0  0  0
 33 53  1  0  0  0  0
 33 54  1  0  0  0  0
 34 24  1  0  0  0  0
 34 55  1  0  0  0  0
 34 56  1  0  0  0  0
M  END
>  <Mol_ID>
8804

>  <Formula>
C24H22N4O5S

>  <MolWeight>
478.52028

>  <Cat>
P3068

>  <Name>
WAY-639108

>  <Synonyms>
N/A

>  <Target>
Mcl-1

>  <Form>
free base

>  <CAS>
790237-66-0

>  <URL>
N/A

$$$$
