WAY-325360
 OpenBabel08302521433D

 32 34  0  0  0  0  0  0  0  0999 V2000
    0.0469   -0.7478    0.0977 C   0  0  0  0  0  0  0  0  0  0  0  0
    1.3049   -1.3986    0.2091 C   0  0  0  0  0  0  0  0  0  0  0  0
    0.0021    0.6694    0.1093 C   0  0  0  0  0  0  0  0  0  0  0  0
   -1.1785   -1.4429   -0.0076 C   0  0  0  0  0  0  0  0  0  0  0  0
    1.3159   -2.7658    0.0434 O   0  0  0  0  0  0  0  0  0  0  0  0
    2.4694   -0.6427    0.3805 C   0  0  0  0  0  0  0  0  0  0  0  0
    1.1905    1.4000    0.2355 C   0  0  0  0  0  0  0  0  0  0  0  0
   -1.2299    1.3361   -0.0014 C   0  0  0  0  0  0  0  0  0  0  0  0
   -2.3993   -0.7662   -0.0894 C   0  0  0  0  0  0  0  0  0  0  0  0
    2.3219   -3.5251    0.7254 C   0  0  0  0  0  0  0  0  0  0  0  0
    2.4115    0.7496    0.3885 C   0  0  0  0  0  0  0  0  0  0  0  0
   -2.4238    0.6231   -0.0920 C   0  0  0  0  0  0  0  0  0  0  0  0
    3.5512   -3.6461   -0.1108 C   0  0  0  0  0  0  0  0  0  0  0  0
    4.7235   -3.8629    0.5643 O   0  0  0  0  0  0  0  0  0  0  0  0
    3.8021   -3.5666   -1.4656 C   0  0  0  0  0  0  0  0  0  0  0  0
    5.7320   -3.8978   -0.3685 C   0  0  0  0  0  0  0  0  0  0  0  0
    5.1987   -3.7097   -1.6294 C   0  0  0  0  0  0  0  0  0  0  0  0
    7.0940   -4.1026    0.0688 C   0  0  0  0  0  0  0  0  0  0  0  0
    7.1582   -4.2965    1.4100 O   0  0  0  0  0  0  0  0  0  0  0  0
    8.0860   -4.1105   -0.6464 O   0  0  0  0  0  0  0  0  0  0  0  0
   -1.1884   -2.5309   -0.0060 H   0  0  0  0  0  0  0  0  0  0  0  0
    3.4463   -1.1023    0.4747 H   0  0  0  0  0  0  0  0  0  0  0  0
    1.1731    2.4880    0.2227 H   0  0  0  0  0  0  0  0  0  0  0  0
   -1.2690    2.4236   -0.0061 H   0  0  0  0  0  0  0  0  0  0  0  0
   -3.3286   -1.3265   -0.1482 H   0  0  0  0  0  0  0  0  0  0  0  0
    2.5276   -3.1163    1.7210 H   0  0  0  0  0  0  0  0  0  0  0  0
    1.9087   -4.5304    0.8683 H   0  0  0  0  0  0  0  0  0  0  0  0
    3.3245    1.3300    0.4959 H   0  0  0  0  0  0  0  0  0  0  0  0
   -3.3703    1.1536   -0.1591 H   0  0  0  0  0  0  0  0  0  0  0  0
    3.0636   -3.3961   -2.2380 H   0  0  0  0  0  0  0  0  0  0  0  0
    5.7686   -3.6787   -2.5489 H   0  0  0  0  0  0  0  0  0  0  0  0
    6.2583   -4.2647    1.7966 H   0  0  0  0  0  0  0  0  0  0  0  0
  1  2  1  0  0  0  0
  1  3  1  0  0  0  0
  1  4  2  0  0  0  0
  2  5  1  0  0  0  0
  2  6  2  0  0  0  0
  3  7  1  0  0  0  0
  3  8  2  0  0  0  0
  4  9  1  0  0  0  0
  4 21  1  0  0  0  0
  5 10  1  0  0  0  0
  6 11  1  0  0  0  0
  6 22  1  0  0  0  0
  7 11  2  0  0  0  0
  7 23  1  0  0  0  0
  8 12  1  0  0  0  0
  8 24  1  0  0  0  0
  9 12  2  0  0  0  0
  9 25  1  0  0  0  0
 10 13  1  0  0  0  0
 10 26  1  0  0  0  0
 10 27  1  0  0  0  0
 11 28  1  0  0  0  0
 12 29  1  0  0  0  0
 13 14  1  0  0  0  0
 13 15  2  0  0  0  0
 14 16  1  0  0  0  0
 15 17  1  0  0  0  0
 15 30  1  0  0  0  0
 16 18  1  0  0  0  0
 16 17  2  0  0  0  0
 17 31  1  0  0  0  0
 18 19  1  0  0  0  0
 18 20  2  0  0  0  0
 19 32  1  0  0  0  0
M  END
>  <Mol_ID>
8682

>  <Formula>
C16H12O4

>  <MolWeight>
268.26408

>  <Cat>
P2381

>  <Name>
WAY-325360

>  <Synonyms>
N/A

>  <Target>
Others

>  <Form>
free base

>  <CAS>
402767-66-2

>  <URL>
N/A

$$$$
