WAY-330252
 OpenBabel08302521443D

 49 53  0  0  0  0  0  0  0  0999 V2000
    5.3475   -0.1950   -1.7994 C   0  0  0  0  0  0  0  0  0  0  0  0
    5.7531   -0.6263   -3.9406 C   0  0  0  0  0  0  0  0  0  0  0  0
    5.5337    0.3827   -3.0351 O   0  0  0  0  0  0  0  0  0  0  0  0
    5.0443    0.5622   -0.5916 C   0  0  0  0  0  0  0  0  0  0  0  0
    5.9798   -0.4332   -5.2560 N   0  0  0  0  0  0  0  0  0  0  0  0
    5.4097   -1.5670   -1.9241 C   0  0  0  0  0  0  0  0  0  0  0  0
    5.6786   -1.8433   -3.2765 C   0  0  0  0  0  0  0  0  0  0  0  0
    5.5419    1.8496   -0.4338 N   0  0  0  0  0  0  0  0  0  0  0  0
    6.0390    4.6377   -0.2403 N   0  0  0  0  0  0  0  0  0  0  0  0
    6.0731   -1.5747   -5.9783 C   0  0  0  0  0  0  0  0  0  0  0  0
    6.5972    5.8698    0.0411 C   0  0  0  0  0  0  0  0  0  0  0  0
    5.8401   -3.0043   -4.0233 C   0  0  0  0  0  0  0  0  0  0  0  0
    6.0012   -2.8659   -5.3980 C   0  0  0  0  0  0  0  0  0  0  0  0
    5.2941    2.5504    0.8388 C   0  0  0  0  0  0  0  0  0  0  0  0
    6.5807    2.4779   -1.2588 C   0  0  0  0  0  0  0  0  0  0  0  0
    4.3765    0.0436    0.3074 O   0  0  0  0  0  0  0  0  0  0  0  0
    6.2601    3.9562   -1.5230 C   0  0  0  0  0  0  0  0  0  0  0  0
    4.9971    4.0429    0.6133 C   0  0  0  0  0  0  0  0  0  0  0  0
    6.2174   -1.5311   -7.3701 C   0  0  0  0  0  0  0  0  0  0  0  0
    6.9550    6.2609    1.3459 C   0  0  0  0  0  0  0  0  0  0  0  0
    6.0464   -4.0261   -6.1728 C   0  0  0  0  0  0  0  0  0  0  0  0
    6.2251   -2.6972   -8.1684 C   0  0  0  0  0  0  0  0  0  0  0  0
    6.7712    5.4239    2.3820 F   0  0  0  0  0  0  0  0  0  0  0  0
    6.1397   -3.9439   -7.5520 C   0  0  0  0  0  0  0  0  0  0  0  0
    6.8830    6.7871   -0.9836 C   0  0  0  0  0  0  0  0  0  0  0  0
    7.5688    7.4849    1.6148 C   0  0  0  0  0  0  0  0  0  0  0  0
    6.3108   -2.6286   -9.6654 C   0  0  0  0  0  0  0  0  0  0  0  0
    7.4977    8.0171   -0.7257 C   0  0  0  0  0  0  0  0  0  0  0  0
    7.8430    8.3663    0.5750 C   0  0  0  0  0  0  0  0  0  0  0  0
    5.2591   -2.2736   -1.1200 H   0  0  0  0  0  0  0  0  0  0  0  0
    5.7854   -3.9755   -3.5459 H   0  0  0  0  0  0  0  0  0  0  0  0
    4.4693    2.0929    1.3945 H   0  0  0  0  0  0  0  0  0  0  0  0
    6.2010    2.4368    1.4469 H   0  0  0  0  0  0  0  0  0  0  0  0
    7.5179    2.3929   -0.6935 H   0  0  0  0  0  0  0  0  0  0  0  0
    6.7507    1.9743   -2.2049 H   0  0  0  0  0  0  0  0  0  0  0  0
    5.3586    4.0450   -2.1409 H   0  0  0  0  0  0  0  0  0  0  0  0
    7.1013    4.3797   -2.0822 H   0  0  0  0  0  0  0  0  0  0  0  0
    4.0336    4.1399    0.0955 H   0  0  0  0  0  0  0  0  0  0  0  0
    4.8786    4.5448    1.5775 H   0  0  0  0  0  0  0  0  0  0  0  0
    6.2949   -0.5574   -7.8522 H   0  0  0  0  0  0  0  0  0  0  0  0
    5.9718   -5.0060   -5.7080 H   0  0  0  0  0  0  0  0  0  0  0  0
    6.1290   -4.8596   -8.1378 H   0  0  0  0  0  0  0  0  0  0  0  0
    6.6098    6.5626   -2.0115 H   0  0  0  0  0  0  0  0  0  0  0  0
    7.8419    7.7283    2.6362 H   0  0  0  0  0  0  0  0  0  0  0  0
    5.5243   -1.9821  -10.0660 H   0  0  0  0  0  0  0  0  0  0  0  0
    7.2918   -2.2612   -9.9789 H   0  0  0  0  0  0  0  0  0  0  0  0
    6.1690   -3.6214  -10.1107 H   0  0  0  0  0  0  0  0  0  0  0  0
    7.7046    8.6964   -1.5485 H   0  0  0  0  0  0  0  0  0  0  0  0
    8.3292    9.3162    0.7756 H   0  0  0  0  0  0  0  0  0  0  0  0
  2  3  1  0  0  0  0
  2  7  2  0  0  0  0
  3  1  1  0  0  0  0
  4  1  1  0  0  0  0
  5  2  1  0  0  0  0
  6  1  2  0  0  0  0
  6 30  1  0  0  0  0
  7  6  1  0  0  0  0
  8  4  1  0  0  0  0
  9 17  1  0  0  0  0
  9 18  1  0  0  0  0
 10  5  2  0  0  0  0
 10 13  1  0  0  0  0
 11  9  1  0  0  0  0
 12  7  1  0  0  0  0
 12 31  1  0  0  0  0
 13 12  2  0  0  0  0
 14  8  1  0  0  0  0
 14 32  1  0  0  0  0
 14 33  1  0  0  0  0
 15  8  1  0  0  0  0
 15 34  1  0  0  0  0
 15 35  1  0  0  0  0
 16  4  2  0  0  0  0
 17 15  1  0  0  0  0
 17 36  1  0  0  0  0
 17 37  1  0  0  0  0
 18 14  1  0  0  0  0
 18 38  1  0  0  0  0
 18 39  1  0  0  0  0
 19 10  1  0  0  0  0
 19 40  1  0  0  0  0
 20 11  2  0  0  0  0
 21 13  1  0  0  0  0
 21 41  1  0  0  0  0
 22 19  2  0  0  0  0
 22 24  1  0  0  0  0
 23 20  1  0  0  0  0
 24 21  2  0  0  0  0
 24 42  1  0  0  0  0
 25 11  1  0  0  0  0
 25 43  1  0  0  0  0
 26 20  1  0  0  0  0
 26 44  1  0  0  0  0
 27 22  1  0  0  0  0
 27 45  1  0  0  0  0
 27 46  1  0  0  0  0
 27 47  1  0  0  0  0
 28 25  2  0  0  0  0
 28 48  1  0  0  0  0
 29 28  1  0  0  0  0
 29 26  2  0  0  0  0
 29 49  1  0  0  0  0
M  END
>  <Mol_ID>
9158

>  <Formula>
C23H20FN3O2

>  <MolWeight>
389.4222032

>  <Cat>
P2602

>  <Name>
WAY-330252

>  <Synonyms>
N/A

>  <Target>
Anti-infection

>  <Form>
free base

>  <CAS>
956234-34-7

>  <URL>
N/A

$$$$
