WAY-638700
 OpenBabel08302521433D

 43 45  0  0  0  0  0  0  0  0999 V2000
   -0.4296    1.1839   -0.0370 C   0  0  0  0  0  0  0  0  0  0  0  0
    0.8852    0.6629    0.0368 C   0  0  0  0  0  0  0  0  0  0  0  0
    0.8915   -0.6761    0.0002 N   0  0  0  0  0  0  0  0  0  0  0  0
   -0.4091   -1.0389   -0.0248 N   0  0  0  0  0  0  0  0  0  0  0  0
   -1.2364    0.0643   -0.0710 C   0  0  0  0  0  0  0  0  0  0  0  0
   -0.8487    2.5645   -0.1785 C   0  0  0  0  0  0  0  0  0  0  0  0
    2.1703    1.4330    0.1785 C   0  0  0  0  0  0  0  0  0  0  0  0
    3.6916    0.8367   -0.3313 S   0  0  0  0  0  0  0  0  0  0  0  0
   -0.7872   -2.4107    0.0001 C   0  0  0  0  0  0  0  0  0  0  0  0
   -5.6175    3.3565   -0.0999 C   0  0  0  0  0  0  0  0  0  0  0  0
    2.2852    2.6755    0.7667 C   0  0  0  0  0  0  0  0  0  0  0  0
    4.4953    2.2508    0.1993 C   0  0  0  0  0  0  0  0  0  0  0  0
   -0.1839    3.3951   -0.7794 O   0  0  0  0  0  0  0  0  0  0  0  0
    3.6315    3.1420    0.7923 C   0  0  0  0  0  0  0  0  0  0  0  0
   -5.6670    4.2019    0.7855 O   0  0  0  0  0  0  0  0  0  0  0  0
   -2.0593    2.8770    0.3943 N   0  0  0  0  0  0  0  0  0  0  0  0
   -4.6040    3.2753   -1.0261 N   0  0  0  0  0  0  0  0  0  0  0  0
   -6.6616    2.2872   -0.2540 C   0  0  0  0  0  0  0  0  0  0  0  0
    0.1981   -3.4025    0.1200 C   0  0  0  0  0  0  0  0  0  0  0  0
   -2.1359   -2.7882   -0.0761 C   0  0  0  0  0  0  0  0  0  0  0  0
   -2.6428    4.1978    0.2008 C   0  0  0  0  0  0  0  0  0  0  0  0
   -3.5116    4.2397   -1.0597 C   0  0  0  0  0  0  0  0  0  0  0  0
   -2.4898   -4.1388   -0.0297 C   0  0  0  0  0  0  0  0  0  0  0  0
   -0.1638   -4.7506    0.1761 C   0  0  0  0  0  0  0  0  0  0  0  0
   -1.5066   -5.1170    0.1011 C   0  0  0  0  0  0  0  0  0  0  0  0
   -2.3042   -0.0306   -0.1641 H   0  0  0  0  0  0  0  0  0  0  0  0
    1.4604    3.2294    1.1956 H   0  0  0  0  0  0  0  0  0  0  0  0
    5.5629    2.3473    0.0687 H   0  0  0  0  0  0  0  0  0  0  0  0
    3.9446    4.0866    1.2249 H   0  0  0  0  0  0  0  0  0  0  0  0
   -2.6186    2.1694    0.8485 H   0  0  0  0  0  0  0  0  0  0  0  0
   -4.6502    2.5802   -1.7598 H   0  0  0  0  0  0  0  0  0  0  0  0
   -7.1914    2.4228   -1.2016 H   0  0  0  0  0  0  0  0  0  0  0  0
   -6.1930    1.2998   -0.2264 H   0  0  0  0  0  0  0  0  0  0  0  0
   -7.3790    2.3572    0.5673 H   0  0  0  0  0  0  0  0  0  0  0  0
    1.2540   -3.1408    0.1806 H   0  0  0  0  0  0  0  0  0  0  0  0
   -2.9371   -2.0634   -0.1755 H   0  0  0  0  0  0  0  0  0  0  0  0
   -3.2133    4.4329    1.1042 H   0  0  0  0  0  0  0  0  0  0  0  0
   -1.8425    4.9397    0.1159 H   0  0  0  0  0  0  0  0  0  0  0  0
   -3.9343    5.2398   -1.1942 H   0  0  0  0  0  0  0  0  0  0  0  0
   -2.9102    3.9989   -1.9438 H   0  0  0  0  0  0  0  0  0  0  0  0
   -3.5359   -4.4269   -0.0937 H   0  0  0  0  0  0  0  0  0  0  0  0
    0.6031   -5.5139    0.2810 H   0  0  0  0  0  0  0  0  0  0  0  0
   -1.7871   -6.1665    0.1455 H   0  0  0  0  0  0  0  0  0  0  0  0
  2  1  1  0  0  0  0
  3  2  2  0  0  0  0
  3  4  1  0  0  0  0
  4  5  1  0  0  0  0
  5  1  2  0  0  0  0
  5 26  1  0  0  0  0
  6  1  1  0  0  0  0
  7  2  1  0  0  0  0
  8  7  1  0  0  0  0
  9  4  1  0  0  0  0
 10 17  1  0  0  0  0
 11  7  2  0  0  0  0
 11 27  1  0  0  0  0
 12  8  1  0  0  0  0
 12 14  2  0  0  0  0
 12 28  1  0  0  0  0
 13  6  2  0  0  0  0
 14 11  1  0  0  0  0
 14 29  1  0  0  0  0
 15 10  2  0  0  0  0
 16  6  1  0  0  0  0
 16 30  1  0  0  0  0
 17 22  1  0  0  0  0
 17 31  1  0  0  0  0
 18 10  1  0  0  0  0
 18 32  1  0  0  0  0
 18 33  1  0  0  0  0
 18 34  1  0  0  0  0
 19  9  2  0  0  0  0
 19 35  1  0  0  0  0
 20  9  1  0  0  0  0
 20 36  1  0  0  0  0
 21 16  1  0  0  0  0
 21 37  1  0  0  0  0
 21 38  1  0  0  0  0
 22 21  1  0  0  0  0
 22 39  1  0  0  0  0
 22 40  1  0  0  0  0
 23 20  2  0  0  0  0
 23 41  1  0  0  0  0
 24 19  1  0  0  0  0
 24 42  1  0  0  0  0
 25 23  1  0  0  0  0
 25 24  2  0  0  0  0
 25 43  1  0  0  0  0
M  END
>  <Mol_ID>
8786

>  <Formula>
C18H18N4O2S

>  <MolWeight>
354.42612

>  <Cat>
P3050

>  <Name>
WAY-638700

>  <Synonyms>
N/A

>  <Target>
PPAR

>  <Form>
free base

>  <CAS>
686770-29-6

>  <URL>
N/A

$$$$
