WAY-352851
 OpenBabel08302521393D

 33 34  0  0  0  0  0  0  0  0999 V2000
    1.1706    0.5461   -0.5103 C   0  0  0  0  0  0  0  0  0  0  0  0
    4.3003    3.3618   -1.6181 C   0  0  0  0  0  0  0  0  0  0  0  0
    3.2351    2.4818   -1.4194 C   0  0  0  0  0  0  0  0  0  0  0  0
    1.1163    1.9060   -0.3133 N   0  0  0  0  0  0  0  0  0  0  0  0
   -0.1728   -0.2857   -1.0325 S   0  0  0  0  0  0  0  0  0  0  0  0
    2.1936    2.7972   -0.5315 C   0  0  0  0  0  0  0  0  0  0  0  0
    4.3162    4.5579   -0.9171 C   0  0  0  0  0  0  0  0  0  0  0  0
    3.8230   -0.6973    2.2451 N   0  0  0  0  0  0  0  0  0  0  0  0
    2.3865   -0.0007   -0.2001 N   0  0  0  0  0  0  0  0  0  0  0  0
    3.2788    4.9000   -0.0528 C   0  0  0  0  0  0  0  0  0  0  0  0
    4.3038   -1.7153    1.4880 C   0  0  0  0  0  0  0  0  0  0  0  0
    2.2001    4.0287    0.1222 C   0  0  0  0  0  0  0  0  0  0  0  0
    5.3464    5.3978   -1.0789 F   0  0  0  0  0  0  0  0  0  0  0  0
    4.3307   -1.5058   -0.0079 C   0  0  0  0  0  0  0  0  0  0  0  0
    2.9240   -1.2948   -0.5798 C   0  0  0  0  0  0  0  0  0  0  0  0
    3.7467   -0.8957    3.5808 C   0  0  0  0  0  0  0  0  0  0  0  0
    4.7505   -2.9104    2.0441 C   0  0  0  0  0  0  0  0  0  0  0  0
    4.1452   -2.0630    4.2087 C   0  0  0  0  0  0  0  0  0  0  0  0
    4.6648   -3.0831    3.4237 C   0  0  0  0  0  0  0  0  0  0  0  0
    5.0993    3.1148   -2.3035 H   0  0  0  0  0  0  0  0  0  0  0  0
    3.2159    1.5596   -1.9957 H   0  0  0  0  0  0  0  0  0  0  0  0
    0.1960    2.3137   -0.1924 H   0  0  0  0  0  0  0  0  0  0  0  0
    2.8053    0.4024    0.6388 H   0  0  0  0  0  0  0  0  0  0  0  0
    3.3279    5.8382    0.4892 H   0  0  0  0  0  0  0  0  0  0  0  0
    1.4060    4.2950    0.8133 H   0  0  0  0  0  0  0  0  0  0  0  0
    4.7840   -2.3750   -0.4979 H   0  0  0  0  0  0  0  0  0  0  0  0
    4.9729   -0.6428   -0.2262 H   0  0  0  0  0  0  0  0  0  0  0  0
    2.2355   -2.0851   -0.2671 H   0  0  0  0  0  0  0  0  0  0  0  0
    2.9755   -1.2931   -1.6746 H   0  0  0  0  0  0  0  0  0  0  0  0
    3.3424   -0.0642    4.1510 H   0  0  0  0  0  0  0  0  0  0  0  0
    5.1502   -3.7036    1.4222 H   0  0  0  0  0  0  0  0  0  0  0  0
    4.0537   -2.1714    5.2837 H   0  0  0  0  0  0  0  0  0  0  0  0
    4.9949   -4.0115    3.8804 H   0  0  0  0  0  0  0  0  0  0  0  0
  2  3  2  0  0  0  0
  2 20  1  0  0  0  0
  3  6  1  0  0  0  0
  3 21  1  0  0  0  0
  4  1  1  0  0  0  0
  4 22  1  0  0  0  0
  5  1  2  0  0  0  0
  6  4  1  0  0  0  0
  7 10  2  0  0  0  0
  7  2  1  0  0  0  0
  8 11  2  0  0  0  0
  9  1  1  0  0  0  0
  9 23  1  0  0  0  0
 10 12  1  0  0  0  0
 10 24  1  0  0  0  0
 11 14  1  0  0  0  0
 12  6  2  0  0  0  0
 12 25  1  0  0  0  0
 13  7  1  0  0  0  0
 14 15  1  0  0  0  0
 14 26  1  0  0  0  0
 14 27  1  0  0  0  0
 15  9  1  0  0  0  0
 15 28  1  0  0  0  0
 15 29  1  0  0  0  0
 16  8  1  0  0  0  0
 16 30  1  0  0  0  0
 17 11  1  0  0  0  0
 17 31  1  0  0  0  0
 18 19  1  0  0  0  0
 18 16  2  0  0  0  0
 18 32  1  0  0  0  0
 19 17  2  0  0  0  0
 19 33  1  0  0  0  0
M  END
>  <Mol_ID>
8054

>  <Formula>
C14H13ClFN3S

>  <MolWeight>
309.7895232

>  <Cat>
P2762

>  <Name>
WAY-352851

>  <Synonyms>
N/A

>  <Target>
adenosine A1 and A3 receptor

>  <Form>
free base

>  <CAS>
685113-18-2

>  <URL>
N/A

$$$$
