WAY-323625
 OpenBabel08302521423D

 37 39  0  0  0  0  0  0  0  0999 V2000
    0.0026   -0.7897   -0.0180 C   0  0  0  0  0  0  0  0  0  0  0  0
   -0.3725    0.5412    0.0399 C   0  0  0  0  0  0  0  0  0  0  0  0
    1.2487   -1.2804    0.0048 N   0  0  0  0  0  0  0  0  0  0  0  0
    1.9618    0.9873    0.1850 N   0  0  0  0  0  0  0  0  0  0  0  0
    0.6983    1.4535    0.1396 C   0  0  0  0  0  0  0  0  0  0  0  0
   -1.3157   -1.8523   -0.1120 S   0  0  0  0  0  0  0  0  0  0  0  0
    2.1819   -0.3343    0.1100 C   0  0  0  0  0  0  0  0  0  0  0  0
   -1.8245    0.6717    0.0012 C   0  0  0  0  0  0  0  0  0  0  0  0
   -2.4426   -0.5724   -0.0469 C   0  0  0  0  0  0  0  0  0  0  0  0
    3.8701   -0.8771    0.2892 S   0  0  0  0  0  0  0  0  0  0  0  0
    3.5724   -2.3511   -2.0509 C   0  0  0  0  0  0  0  0  0  0  0  0
    0.5565    2.8330    0.2119 N   0  0  0  0  0  0  0  0  0  0  0  0
    3.7720   -2.4969   -0.5493 C   0  0  0  0  0  0  0  0  0  0  0  0
    3.8439   -1.3162   -2.6633 O   0  0  0  0  0  0  0  0  0  0  0  0
    3.0794   -3.5249   -2.8390 C   0  0  0  0  0  0  0  0  0  0  0  0
   -2.5617    1.9747    0.0351 C   0  0  0  0  0  0  0  0  0  0  0  0
   -3.9014   -0.8971   -0.0445 C   0  0  0  0  0  0  0  0  0  0  0  0
    2.8684   -4.7927   -2.2825 C   0  0  0  0  0  0  0  0  0  0  0  0
    2.8278   -3.3351   -4.2079 C   0  0  0  0  0  0  0  0  0  0  0  0
    2.3562   -4.3825   -5.0013 C   0  0  0  0  0  0  0  0  0  0  0  0
    2.3925   -5.8407   -3.0809 C   0  0  0  0  0  0  0  0  0  0  0  0
    2.1335   -5.6343   -4.4355 C   0  0  0  0  0  0  0  0  0  0  0  0
   -0.2218    3.2175   -0.3017 H   0  0  0  0  0  0  0  0  0  0  0  0
    1.4527    3.2793    0.0401 H   0  0  0  0  0  0  0  0  0  0  0  0
    4.7228   -3.0153   -0.3855 H   0  0  0  0  0  0  0  0  0  0  0  0
    2.9748   -3.0900   -0.0936 H   0  0  0  0  0  0  0  0  0  0  0  0
   -2.2950    2.5481    0.9279 H   0  0  0  0  0  0  0  0  0  0  0  0
   -2.3238    2.5678   -0.8538 H   0  0  0  0  0  0  0  0  0  0  0  0
   -3.6470    1.8313    0.0481 H   0  0  0  0  0  0  0  0  0  0  0  0
   -4.3808   -0.4749    0.8449 H   0  0  0  0  0  0  0  0  0  0  0  0
   -4.3858   -0.4802   -0.9332 H   0  0  0  0  0  0  0  0  0  0  0  0
   -4.0882   -1.9766   -0.0366 H   0  0  0  0  0  0  0  0  0  0  0  0
    3.0644   -5.0022   -1.2357 H   0  0  0  0  0  0  0  0  0  0  0  0
    2.9979   -2.3621   -4.6666 H   0  0  0  0  0  0  0  0  0  0  0  0
    2.1629   -4.2165   -6.0583 H   0  0  0  0  0  0  0  0  0  0  0  0
    2.2218   -6.8228   -2.6454 H   0  0  0  0  0  0  0  0  0  0  0  0
    1.7600   -6.4492   -5.0513 H   0  0  0  0  0  0  0  0  0  0  0  0
  2  1  1  0  0  0  0
  3  1  2  0  0  0  0
  4  7  2  0  0  0  0
  5  2  2  0  0  0  0
  5  4  1  0  0  0  0
  6  1  1  0  0  0  0
  7  3  1  0  0  0  0
  8  2  1  0  0  0  0
  9  6  1  0  0  0  0
  9  8  2  0  0  0  0
 10  7  1  0  0  0  0
 11 13  1  0  0  0  0
 12  5  1  0  0  0  0
 12 23  1  0  0  0  0
 12 24  1  0  0  0  0
 13 10  1  0  0  0  0
 13 25  1  0  0  0  0
 13 26  1  0  0  0  0
 14 11  2  0  0  0  0
 15 11  1  0  0  0  0
 16  8  1  0  0  0  0
 16 27  1  0  0  0  0
 16 28  1  0  0  0  0
 16 29  1  0  0  0  0
 17  9  1  0  0  0  0
 17 30  1  0  0  0  0
 17 31  1  0  0  0  0
 17 32  1  0  0  0  0
 18 15  2  0  0  0  0
 18 33  1  0  0  0  0
 19 15  1  0  0  0  0
 19 34  1  0  0  0  0
 20 19  2  0  0  0  0
 20 35  1  0  0  0  0
 21 18  1  0  0  0  0
 21 36  1  0  0  0  0
 22 20  1  0  0  0  0
 22 21  2  0  0  0  0
 22 37  1  0  0  0  0
M  END
>  <Mol_ID>
8583

>  <Formula>
C16H15N3OS2

>  <MolWeight>
329.4398

>  <Cat>
P2273

>  <Name>
WAY-323625

>  <Synonyms>
N/A

>  <Target>
P-glycoprotein

>  <Form>
free base

>  <CAS>
854128-16-8

>  <URL>
N/A

$$$$
