WAY-660959
 OpenBabel08302521443D

 45 47  0  0  0  0  0  0  0  0999 V2000
    3.5805    5.6920    1.0061 C   0  0  0  0  0  0  0  0  0  0  0  0
    4.0654    6.5679    1.9682 C   0  0  0  0  0  0  0  0  0  0  0  0
    2.3676    5.0825    0.7170 N   0  0  0  0  0  0  0  0  0  0  0  0
    3.4298    7.1375    3.1508 C   0  0  0  0  0  0  0  0  0  0  0  0
    4.7950    5.1419   -0.0653 S   0  0  0  0  0  0  0  0  0  0  0  0
   -0.4519    5.3559   -1.3893 N   0  0  0  0  0  0  0  0  0  0  0  0
    1.2408    5.8325    0.4180 C   0  0  0  0  0  0  0  0  0  0  0  0
    5.4630    6.8413    1.7060 C   0  0  0  0  0  0  0  0  0  0  0  0
    0.4193    5.0708   -2.5472 C   0  0  0  0  0  0  0  0  0  0  0  0
    5.9530    6.1988    0.5944 C   0  0  0  0  0  0  0  0  0  0  0  0
    4.0553    7.4206    4.1670 O   0  0  0  0  0  0  0  0  0  0  0  0
    1.1635    7.0576    0.5127 O   0  0  0  0  0  0  0  0  0  0  0  0
    0.0570    4.9760   -0.0623 C   0  0  0  0  0  0  0  0  0  0  0  0
    0.8684    3.6075   -2.6210 C   0  0  0  0  0  0  0  0  0  0  0  0
   -0.2654    5.4901   -3.8596 C   0  0  0  0  0  0  0  0  0  0  0  0
    2.1095    7.4676    3.0545 N   0  0  0  0  0  0  0  0  0  0  0  0
   -0.0549    2.5602   -2.7930 C   0  0  0  0  0  0  0  0  0  0  0  0
    2.2315    3.2778   -2.5336 C   0  0  0  0  0  0  0  0  0  0  0  0
    0.4951    5.9578   -4.9455 C   0  0  0  0  0  0  0  0  0  0  0  0
   -1.6526    5.3284   -4.0498 C   0  0  0  0  0  0  0  0  0  0  0  0
    2.6510    1.9447   -2.5856 C   0  0  0  0  0  0  0  0  0  0  0  0
   -0.1049    6.2128   -6.1838 C   0  0  0  0  0  0  0  0  0  0  0  0
   -2.2496    5.5813   -5.2865 C   0  0  0  0  0  0  0  0  0  0  0  0
    0.3679    1.2312   -2.8730 C   0  0  0  0  0  0  0  0  0  0  0  0
    1.7201    0.9231   -2.7578 C   0  0  0  0  0  0  0  0  0  0  0  0
   -1.4729    6.0104   -6.3582 C   0  0  0  0  0  0  0  0  0  0  0  0
    2.4557    4.2345    0.1650 H   0  0  0  0  0  0  0  0  0  0  0  0
   -0.6528    6.3580   -1.3895 H   0  0  0  0  0  0  0  0  0  0  0  0
    6.0631    7.5039    2.3213 H   0  0  0  0  0  0  0  0  0  0  0  0
    1.3088    5.7070   -2.4404 H   0  0  0  0  0  0  0  0  0  0  0  0
    6.9459    6.2721    0.1739 H   0  0  0  0  0  0  0  0  0  0  0  0
    0.2828    3.9068   -0.0045 H   0  0  0  0  0  0  0  0  0  0  0  0
   -0.7496    5.1459    0.6611 H   0  0  0  0  0  0  0  0  0  0  0  0
    1.6891    7.5351    2.1277 H   0  0  0  0  0  0  0  0  0  0  0  0
    1.7964    8.1303    3.7457 H   0  0  0  0  0  0  0  0  0  0  0  0
   -1.1172    2.7754   -2.8820 H   0  0  0  0  0  0  0  0  0  0  0  0
    2.9819    4.0583   -2.4419 H   0  0  0  0  0  0  0  0  0  0  0  0
    1.5678    6.1060   -4.8441 H   0  0  0  0  0  0  0  0  0  0  0  0
   -2.2769    4.9710   -3.2330 H   0  0  0  0  0  0  0  0  0  0  0  0
    3.7082    1.7022   -2.5083 H   0  0  0  0  0  0  0  0  0  0  0  0
    0.4982    6.5533   -7.0224 H   0  0  0  0  0  0  0  0  0  0  0  0
   -3.3174    5.4249   -5.4145 H   0  0  0  0  0  0  0  0  0  0  0  0
   -0.3606    0.4397   -3.0315 H   0  0  0  0  0  0  0  0  0  0  0  0
    2.0483   -0.1121   -2.8156 H   0  0  0  0  0  0  0  0  0  0  0  0
   -1.9330    6.1809   -7.3281 H   0  0  0  0  0  0  0  0  0  0  0  0
  2  1  2  0  0  0  0
  3  1  1  0  0  0  0
  3 27  1  0  0  0  0
  4  2  1  0  0  0  0
  5  1  1  0  0  0  0
  6 13  1  0  0  0  0
  6 28  1  0  0  0  0
  7  3  1  0  0  0  0
  8  2  1  0  0  0  0
  8 29  1  0  0  0  0
  9  6  1  0  0  0  0
  9 30  1  0  0  0  0
 10  5  1  0  0  0  0
 10  8  2  0  0  0  0
 10 31  1  0  0  0  0
 11  4  2  0  0  0  0
 12  7  2  0  0  0  0
 13  7  1  0  0  0  0
 13 32  1  0  0  0  0
 13 33  1  0  0  0  0
 14  9  1  0  0  0  0
 15  9  1  0  0  0  0
 16  4  1  0  0  0  0
 16 34  1  0  0  0  0
 16 35  1  0  0  0  0
 17 14  2  0  0  0  0
 17 36  1  0  0  0  0
 18 14  1  0  0  0  0
 18 37  1  0  0  0  0
 19 15  2  0  0  0  0
 19 38  1  0  0  0  0
 20 15  1  0  0  0  0
 20 39  1  0  0  0  0
 21 18  2  0  0  0  0
 21 40  1  0  0  0  0
 22 19  1  0  0  0  0
 22 41  1  0  0  0  0
 23 20  2  0  0  0  0
 23 42  1  0  0  0  0
 24 17  1  0  0  0  0
 24 43  1  0  0  0  0
 25 21  1  0  0  0  0
 25 24  2  0  0  0  0
 25 44  1  0  0  0  0
 26 23  1  0  0  0  0
 26 22  2  0  0  0  0
 26 45  1  0  0  0  0
M  END
>  <Mol_ID>
9124

>  <Formula>
C20H19N3O2S

>  <MolWeight>
365.44876

>  <Cat>
P3205

>  <Name>
WAY-660959

>  <Synonyms>
N/A

>  <Target>
MAPK

>  <Form>
free base

>  <CAS>
872211-49-9

>  <URL>
N/A

$$$$
