WAY-662152
 OpenBabel08302521443D

 40 42  0  0  0  0  0  0  0  0999 V2000
    1.4140   -0.1319   -0.0825 C   0  0  0  0  0  0  0  0  0  0  0  0
   -1.1718    2.6433    0.2991 C   0  0  0  0  0  0  0  0  0  0  0  0
    3.5526   -0.4606    1.1541 C   0  0  0  0  0  0  0  0  0  0  0  0
    2.8124   -0.1774    0.0201 N   0  0  0  0  0  0  0  0  0  0  0  0
    0.6303   -1.3034   -0.2360 C   0  0  0  0  0  0  0  0  0  0  0  0
    1.1965   -2.5607   -0.2940 N   0  0  0  0  0  0  0  0  0  0  0  0
   -0.5498    1.2831    0.1133 C   0  0  0  0  0  0  0  0  0  0  0  0
    2.9749   -0.4376    2.5211 C   0  0  0  0  0  0  0  0  0  0  0  0
    0.8372    1.1344    0.0692 C   0  0  0  0  0  0  0  0  0  0  0  0
   -0.7618   -1.1312   -0.1618 C   0  0  0  0  0  0  0  0  0  0  0  0
    4.7593   -0.6784    1.0299 O   0  0  0  0  0  0  0  0  0  0  0  0
   -1.3444    0.1351    0.0050 C   0  0  0  0  0  0  0  0  0  0  0  0
    3.3557    0.1560    4.8469 N   0  0  0  0  0  0  0  0  0  0  0  0
   -0.2597    3.6490    0.4161 F   0  0  0  0  0  0  0  0  0  0  0  0
   -1.9790    2.9932   -0.7397 F   0  0  0  0  0  0  0  0  0  0  0  0
   -1.9467    2.7129    1.4167 F   0  0  0  0  0  0  0  0  0  0  0  0
    3.7529    0.0819    3.5485 C   0  0  0  0  0  0  0  0  0  0  0  0
    0.5847   -3.7599    0.2633 C   0  0  0  0  0  0  0  0  0  0  0  0
    2.1643   -2.9308   -1.3279 C   0  0  0  0  0  0  0  0  0  0  0  0
    1.7375   -0.9677    2.8817 C   0  0  0  0  0  0  0  0  0  0  0  0
    2.1284   -0.3259    5.1388 C   0  0  0  0  0  0  0  0  0  0  0  0
    1.2892   -0.8956    4.1999 C   0  0  0  0  0  0  0  0  0  0  0  0
    1.7510   -4.7391    0.2342 C   0  0  0  0  0  0  0  0  0  0  0  0
    2.4300   -4.4226   -1.0931 C   0  0  0  0  0  0  0  0  0  0  0  0
    3.3094   -0.4574   -0.8143 H   0  0  0  0  0  0  0  0  0  0  0  0
    1.4835    2.0050    0.1757 H   0  0  0  0  0  0  0  0  0  0  0  0
   -1.4226   -1.9927   -0.2257 H   0  0  0  0  0  0  0  0  0  0  0  0
   -2.4294    0.2176    0.0627 H   0  0  0  0  0  0  0  0  0  0  0  0
    4.7534    0.4619    3.3584 H   0  0  0  0  0  0  0  0  0  0  0  0
   -0.2330   -4.1183   -0.3720 H   0  0  0  0  0  0  0  0  0  0  0  0
    0.2193   -3.6180    1.2859 H   0  0  0  0  0  0  0  0  0  0  0  0
    3.1048   -2.3846   -1.2496 H   0  0  0  0  0  0  0  0  0  0  0  0
    1.7453   -2.7726   -2.3281 H   0  0  0  0  0  0  0  0  0  0  0  0
    1.1056   -1.4731    2.1707 H   0  0  0  0  0  0  0  0  0  0  0  0
    1.8331   -0.2551    6.1804 H   0  0  0  0  0  0  0  0  0  0  0  0
    0.3207   -1.2910    4.4765 H   0  0  0  0  0  0  0  0  0  0  0  0
    2.4432   -4.5216    1.0592 H   0  0  0  0  0  0  0  0  0  0  0  0
    1.4441   -5.7833    0.3171 H   0  0  0  0  0  0  0  0  0  0  0  0
    3.5019   -4.6431   -1.0666 H   0  0  0  0  0  0  0  0  0  0  0  0
    1.9866   -5.0162   -1.9002 H   0  0  0  0  0  0  0  0  0  0  0  0
  2  7  1  0  0  0  0
  3  4  1  0  0  0  0
  4  1  1  0  0  0  0
  4 25  1  0  0  0  0
  5  1  2  0  0  0  0
  6  5  1  0  0  0  0
  7  9  2  0  0  0  0
  8  3  1  0  0  0  0
  9  1  1  0  0  0  0
  9 26  1  0  0  0  0
 10  5  1  0  0  0  0
 10 12  2  0  0  0  0
 10 27  1  0  0  0  0
 11  3  2  0  0  0  0
 12  7  1  0  0  0  0
 12 28  1  0  0  0  0
 13 17  2  0  0  0  0
 14  2  1  0  0  0  0
 15  2  1  0  0  0  0
 16  2  1  0  0  0  0
 17  8  1  0  0  0  0
 17 29  1  0  0  0  0
 18  6  1  0  0  0  0
 18 30  1  0  0  0  0
 18 31  1  0  0  0  0
 19  6  1  0  0  0  0
 19 32  1  0  0  0  0
 19 33  1  0  0  0  0
 20  8  2  0  0  0  0
 20 34  1  0  0  0  0
 21 22  2  0  0  0  0
 21 13  1  0  0  0  0
 21 35  1  0  0  0  0
 22 20  1  0  0  0  0
 22 36  1  0  0  0  0
 23 18  1  0  0  0  0
 23 37  1  0  0  0  0
 23 38  1  0  0  0  0
 24 19  1  0  0  0  0
 24 23  1  0  0  0  0
 24 39  1  0  0  0  0
 24 40  1  0  0  0  0
M  END
>  <Mol_ID>
9137

>  <Formula>
C17H16F3N3O

>  <MolWeight>
335.3236496

>  <Cat>
P3218

>  <Name>
WAY-662152

>  <Synonyms>
N/A

>  <Target>
SRPK

>  <Form>
free base

>  <CAS>
902155-31-1

>  <URL>
N/A

$$$$
