WAY-301398
 OpenBabel08302521343D

 34 35  0  0  0  0  0  0  0  0999 V2000
   -0.4711   -1.6795   -1.1645 C   0  0  0  0  0  0  0  0  0  0  0  0
    0.2263   -1.2752    0.1124 C   0  0  0  0  0  0  0  0  0  0  0  0
   -0.6275   -1.3247    1.3550 C   0  0  0  0  0  0  0  0  0  0  0  0
   -0.4587   -2.8435   -1.5641 O   0  0  0  0  0  0  0  0  0  0  0  0
   -1.8561   -1.3709    1.3031 O   0  0  0  0  0  0  0  0  0  0  0  0
    0.0366   -1.2942    2.6965 C   0  0  0  0  0  0  0  0  0  0  0  0
    1.2821   -0.6994    2.9309 C   0  0  0  0  0  0  0  0  0  0  0  0
    1.8466   -0.7184    4.2082 C   0  0  0  0  0  0  0  0  0  0  0  0
    1.1630   -1.3154    5.2705 C   0  0  0  0  0  0  0  0  0  0  0  0
   -0.0897   -1.8864    5.0634 C   0  0  0  0  0  0  0  0  0  0  0  0
   -0.6471   -1.8731    3.7793 C   0  0  0  0  0  0  0  0  0  0  0  0
   -0.8625   -2.4765    6.0268 O   0  0  0  0  0  0  0  0  0  0  0  0
   -0.3416   -2.4980    7.3518 C   0  0  0  0  0  0  0  0  0  0  0  0
    1.9578   -0.0585    1.9321 O   0  0  0  0  0  0  0  0  0  0  0  0
   -1.0944   -0.6239   -2.0174 C   0  0  0  0  0  0  0  0  0  0  0  0
   -1.1192   -0.8222   -3.4074 C   0  0  0  0  0  0  0  0  0  0  0  0
   -1.6784    0.1441   -4.2481 C   0  0  0  0  0  0  0  0  0  0  0  0
   -2.2191    1.2992   -3.6966 C   0  0  0  0  0  0  0  0  0  0  0  0
   -2.2071    1.5083   -2.3212 C   0  0  0  0  0  0  0  0  0  0  0  0
   -1.6418    0.5465   -1.4765 C   0  0  0  0  0  0  0  0  0  0  0  0
   -2.7602    2.2247   -4.5011 F   0  0  0  0  0  0  0  0  0  0  0  0
    1.0747   -1.9605    0.2331 H   0  0  0  0  0  0  0  0  0  0  0  0
    0.6252   -0.2665   -0.0261 H   0  0  0  0  0  0  0  0  0  0  0  0
    2.8146   -0.2658    4.4022 H   0  0  0  0  0  0  0  0  0  0  0  0
    1.6388   -1.3130    6.2468 H   0  0  0  0  0  0  0  0  0  0  0  0
   -1.6275   -2.3226    3.6252 H   0  0  0  0  0  0  0  0  0  0  0  0
    0.5563   -3.1225    7.4076 H   0  0  0  0  0  0  0  0  0  0  0  0
   -0.1409   -1.4859    7.7198 H   0  0  0  0  0  0  0  0  0  0  0  0
   -1.0992   -2.9412    8.0051 H   0  0  0  0  0  0  0  0  0  0  0  0
    2.7641    0.3482    2.2944 H   0  0  0  0  0  0  0  0  0  0  0  0
   -0.6982   -1.7287   -3.8393 H   0  0  0  0  0  0  0  0  0  0  0  0
   -1.6982   -0.0012   -5.3239 H   0  0  0  0  0  0  0  0  0  0  0  0
   -2.6474    2.4140   -1.9143 H   0  0  0  0  0  0  0  0  0  0  0  0
   -1.6657    0.7182   -0.4042 H   0  0  0  0  0  0  0  0  0  0  0  0
  1  2  1  0  0  0  0
  1  4  2  0  0  0  0
  1 15  1  0  0  0  0
  2  3  1  0  0  0  0
  2 22  1  0  0  0  0
  2 23  1  0  0  0  0
  3  5  2  0  0  0  0
  3  6  1  0  0  0  0
  6  7  2  0  0  0  0
  6 11  1  0  0  0  0
  7  8  1  0  0  0  0
  7 14  1  0  0  0  0
  8  9  2  0  0  0  0
  8 24  1  0  0  0  0
  9 10  1  0  0  0  0
  9 25  1  0  0  0  0
 10 11  2  0  0  0  0
 10 12  1  0  0  0  0
 11 26  1  0  0  0  0
 12 13  1  0  0  0  0
 13 27  1  0  0  0  0
 13 28  1  0  0  0  0
 13 29  1  0  0  0  0
 14 30  1  0  0  0  0
 15 16  2  0  0  0  0
 15 20  1  0  0  0  0
 16 17  1  0  0  0  0
 16 31  1  0  0  0  0
 17 18  2  0  0  0  0
 17 32  1  0  0  0  0
 18 19  1  0  0  0  0
 18 21  1  0  0  0  0
 19 20  2  0  0  0  0
 19 33  1  0  0  0  0
 20 34  1  0  0  0  0
M  END
>  <Mol_ID>
6461

>  <Formula>
C16H13FO4

>  <MolWeight>
288.2704232

>  <Cat>
E2510

>  <Name>
WAY-301398

>  <Synonyms>
6-methoxynaphthalene

>  <Target>
PKC

>  <Form>
free base

>  <CAS>
312607-68-4

>  <URL>
http://www.selleckchem.com/products/way-301398.html

$$$$
