WAY-607354
 OpenBabel08302521433D

 35 36  0  0  0  0  0  0  0  0999 V2000
   -2.3621   -6.8434    1.9839 C   0  0  0  0  0  0  0  0  0  0  0  0
   -3.2906   -7.9150    2.1713 N   0  3  0  0  0  0  0  0  0  0  0  0
   -2.8437   -5.6403    1.5372 O   0  0  0  0  0  0  0  0  0  0  0  0
   -1.7500   -4.7991    1.4455 C   0  0  0  0  0  0  0  0  0  0  0  0
   -1.0017   -6.8092    2.1751 C   0  0  0  0  0  0  0  0  0  0  0  0
   -1.8350   -3.4188    0.9977 C   0  0  0  0  0  0  0  0  0  0  0  0
   -0.6112   -5.4976    1.8293 C   0  0  0  0  0  0  0  0  0  0  0  0
   -2.8112   -8.9958    2.5331 O   0  5  0  0  0  0  0  0  0  0  0  0
   -3.2437   -0.6298    1.3548 C   0  0  0  0  0  0  0  0  0  0  0  0
   -4.4883   -7.6928    1.9608 O   0  0  0  0  0  0  0  0  0  0  0  0
   -3.0983   -3.0347    0.6591 O   0  0  0  0  0  0  0  0  0  0  0  0
   -3.4209    0.6802    0.9405 N   0  0  0  0  0  0  0  0  0  0  0  0
   -0.8516   -2.6885    0.8899 O   0  0  0  0  0  0  0  0  0  0  0  0
   -3.1689   -0.9484    2.5401 O   0  0  0  0  0  0  0  0  0  0  0  0
   -3.5518    3.5285    0.2006 O   0  0  0  0  0  0  0  0  0  0  0  0
   -3.1863   -1.6689    0.2164 C   0  0  0  0  0  0  0  0  0  0  0  0
   -3.7786    1.7545    1.8693 C   0  0  0  0  0  0  0  0  0  0  0  0
   -3.1132    3.0876    1.5055 C   0  0  3  0  0  0  0  0  0  0  0  0
   -3.6766    4.9615    0.2255 C   0  0  0  0  0  0  0  0  0  0  0  0
   -3.4472    4.2349    2.4506 C   0  0  0  0  0  0  0  0  0  0  0  0
   -3.1754    5.4346    1.5742 C   0  0  0  0  0  0  0  0  0  0  0  0
   -0.3785   -7.6248    2.5186 H   0  0  0  0  0  0  0  0  0  0  0  0
    0.3880   -5.0824    1.8489 H   0  0  0  0  0  0  0  0  0  0  0  0
   -3.5290    0.8943   -0.0443 H   0  0  0  0  0  0  0  0  0  0  0  0
   -2.3639   -1.4202   -0.4678 H   0  0  0  0  0  0  0  0  0  0  0  0
   -4.1138   -1.5808   -0.3595 H   0  0  0  0  0  0  0  0  0  0  0  0
   -4.8685    1.8510    1.7973 H   0  0  0  0  0  0  0  0  0  0  0  0
   -3.5282    1.4642    2.8942 H   0  0  0  0  0  0  0  0  0  0  0  0
   -2.0255    2.9574    1.4492 H   0  0  0  0  0  0  0  0  0  0  0  0
   -4.7350    5.2074    0.0890 H   0  0  0  0  0  0  0  0  0  0  0  0
   -3.1097    5.3939   -0.6041 H   0  0  0  0  0  0  0  0  0  0  0  0
   -4.5067    4.2232    2.7342 H   0  0  0  0  0  0  0  0  0  0  0  0
   -2.8462    4.2296    3.3643 H   0  0  0  0  0  0  0  0  0  0  0  0
   -3.6641    6.3532    1.9120 H   0  0  0  0  0  0  0  0  0  0  0  0
   -2.0966    5.6257    1.5260 H   0  0  0  0  0  0  0  0  0  0  0  0
  2  1  1  0  0  0  0
  3  1  1  0  0  0  0
  4  3  1  0  0  0  0
  4  7  2  0  0  0  0
  5  1  2  0  0  0  0
  5 22  1  0  0  0  0
  6  4  1  0  0  0  0
  7  5  1  0  0  0  0
  7 23  1  0  0  0  0
  8  2  1  0  0  0  0
  9 16  1  0  0  0  0
 10  2  2  0  0  0  0
 11  6  1  0  0  0  0
 12  9  1  0  0  0  0
 12 24  1  0  0  0  0
 13  6  2  0  0  0  0
 14  9  2  0  0  0  0
 15 18  1  0  0  0  0
 16 11  1  0  0  0  0
 16 25  1  0  0  0  0
 16 26  1  0  0  0  0
 17 12  1  0  0  0  0
 17 27  1  0  0  0  0
 17 28  1  0  0  0  0
 18 17  1  0  0  0  0
 18 29  1  0  0  0  0
 19 15  1  0  0  0  0
 19 21  1  0  0  0  0
 19 30  1  0  0  0  0
 19 31  1  0  0  0  0
 20 18  1  0  0  0  0
 20 32  1  0  0  0  0
 20 33  1  0  0  0  0
 21 20  1  0  0  0  0
 21 34  1  0  0  0  0
 21 35  1  0  0  0  0
M  CHG  2   2   1   8  -1
M  END
>  <Mol_ID>
8740

>  <Formula>
C12H14N2O7

>  <MolWeight>
298.24876

>  <Cat>
P2887

>  <Name>
WAY-607354

>  <Synonyms>
N/A

>  <Target>
HIV-1 integrase

>  <Form>
free base

>  <CAS>
452319-21-0

>  <URL>
N/A

$$$$
