WAY-329604
 OpenBabel08302521453D

 45 47  0  0  0  0  0  0  0  0999 V2000
   -0.9086   -0.2389   -0.8095 S   0  0  0  0  0  0  0  0  0  0  0  0
   -2.2349   -0.9939   -1.6864 C   0  0  0  0  0  0  0  0  0  0  0  0
   -2.9914   -2.0647   -1.1620 C   0  0  0  0  0  0  0  0  0  0  0  0
   -2.7676   -2.7493   -0.0293 N   0  0  0  0  0  0  0  0  0  0  0  0
    0.3081   -1.4317   -0.3830 C   0  0  0  0  0  0  0  0  0  0  0  0
   -3.9797   -3.8794    0.0979 S   0  0  0  0  0  0  0  0  0  0  0  0
   -4.2256   -2.5493   -1.8980 C   0  0  0  0  0  0  0  0  0  0  0  0
   -4.8561   -3.5550   -1.2733 N   0  0  0  0  0  0  0  0  0  0  0  0
    0.8072   -2.1607   -1.5886 C   0  0  0  0  0  0  0  0  0  0  0  0
    2.1764   -1.8451   -3.6628 C   0  0  0  0  0  0  0  0  0  0  0  0
    1.7120   -1.4652   -2.3747 N   0  0  0  0  0  0  0  0  0  0  0  0
   -2.6777   -0.4485   -2.9149 C   0  0  0  0  0  0  0  0  0  0  0  0
   -1.4847    0.2743    0.4214 O   0  0  0  0  0  0  0  0  0  0  0  0
   -0.2758    0.7007   -1.7211 O   0  0  0  0  0  0  0  0  0  0  0  0
   -3.8272   -0.9133   -3.5989 C   0  0  0  0  0  0  0  0  0  0  0  0
   -4.6354   -1.9530   -3.1160 C   0  0  0  0  0  0  0  0  0  0  0  0
    0.4590   -3.3216   -1.7834 O   0  0  0  0  0  0  0  0  0  0  0  0
    1.3337   -2.3995   -4.6620 C   0  0  0  0  0  0  0  0  0  0  0  0
    3.5350   -1.5611   -3.9791 C   0  0  0  0  0  0  0  0  0  0  0  0
    3.1861   -2.3379   -6.2574 C   0  0  0  0  0  0  0  0  0  0  0  0
    4.0102   -1.7919   -5.2848 C   0  0  0  0  0  0  0  0  0  0  0  0
    1.8697   -2.6482   -5.9445 C   0  0  0  0  0  0  0  0  0  0  0  0
   -0.1539   -2.6547   -4.5287 C   0  0  0  0  0  0  0  0  0  0  0  0
    4.5689   -1.1422   -2.9489 C   0  0  0  0  0  0  0  0  0  0  0  0
    4.7985    0.3565   -2.8442 C   0  0  0  0  0  0  0  0  0  0  0  0
   -0.5411   -4.1229   -4.6840 C   0  0  0  0  0  0  0  0  0  0  0  0
    1.1302   -0.9043    0.1074 H   0  0  0  0  0  0  0  0  0  0  0  0
   -0.1143   -2.1380    0.3391 H   0  0  0  0  0  0  0  0  0  0  0  0
    2.2183   -0.7046   -1.9365 H   0  0  0  0  0  0  0  0  0  0  0  0
   -2.1296    0.3839   -3.3592 H   0  0  0  0  0  0  0  0  0  0  0  0
   -4.1073   -0.4289   -4.5381 H   0  0  0  0  0  0  0  0  0  0  0  0
   -5.5287   -2.2820   -3.6350 H   0  0  0  0  0  0  0  0  0  0  0  0
    3.5664   -2.5310   -7.2565 H   0  0  0  0  0  0  0  0  0  0  0  0
    5.0458   -1.5758   -5.5407 H   0  0  0  0  0  0  0  0  0  0  0  0
    1.2377   -3.0673   -6.7255 H   0  0  0  0  0  0  0  0  0  0  0  0
   -0.5522   -2.2763   -3.5926 H   0  0  0  0  0  0  0  0  0  0  0  0
   -0.6765   -2.0638   -5.2916 H   0  0  0  0  0  0  0  0  0  0  0  0
    4.3090   -1.5516   -1.9666 H   0  0  0  0  0  0  0  0  0  0  0  0
    5.5252   -1.6207   -3.2024 H   0  0  0  0  0  0  0  0  0  0  0  0
    5.1539    0.7765   -3.7910 H   0  0  0  0  0  0  0  0  0  0  0  0
    3.8873    0.8872   -2.5541 H   0  0  0  0  0  0  0  0  0  0  0  0
    5.5632    0.5583   -2.0849 H   0  0  0  0  0  0  0  0  0  0  0  0
   -0.4513   -4.4466   -5.7266 H   0  0  0  0  0  0  0  0  0  0  0  0
    0.0870   -4.7799   -4.0741 H   0  0  0  0  0  0  0  0  0  0  0  0
   -1.5840   -4.2714   -4.3854 H   0  0  0  0  0  0  0  0  0  0  0  0
  2  1  1  0  0  0  0
  3  2  1  0  0  0  0
  4  3  2  0  0  0  0
  5  1  1  0  0  0  0
  5 27  1  0  0  0  0
  5 28  1  0  0  0  0
  6  4  1  0  0  0  0
  6  8  1  0  0  0  0
  7  3  1  0  0  0  0
  7 16  1  0  0  0  0
  8  7  2  0  0  0  0
  9  5  1  0  0  0  0
 10 11  1  0  0  0  0
 11  9  1  0  0  0  0
 11 29  1  0  0  0  0
 12  2  2  0  0  0  0
 12 30  1  0  0  0  0
 13  1  2  0  0  0  0
 14  1  2  0  0  0  0
 15 12  1  0  0  0  0
 15 31  1  0  0  0  0
 16 15  2  0  0  0  0
 16 32  1  0  0  0  0
 17  9  2  0  0  0  0
 18 10  2  0  0  0  0
 19 10  1  0  0  0  0
 20 21  1  0  0  0  0
 20 33  1  0  0  0  0
 21 19  2  0  0  0  0
 21 34  1  0  0  0  0
 22 18  1  0  0  0  0
 22 20  2  0  0  0  0
 22 35  1  0  0  0  0
 23 18  1  0  0  0  0
 23 36  1  0  0  0  0
 23 37  1  0  0  0  0
 24 19  1  0  0  0  0
 24 38  1  0  0  0  0
 24 39  1  0  0  0  0
 25 24  1  0  0  0  0
 25 40  1  0  0  0  0
 25 41  1  0  0  0  0
 25 42  1  0  0  0  0
 26 23  1  0  0  0  0
 26 43  1  0  0  0  0
 26 44  1  0  0  0  0
 26 45  1  0  0  0  0
M  END
>  <Mol_ID>
9323

>  <Formula>
C18H19N3O3S2

>  <MolWeight>
389.49176

>  <Cat>
P2587

>  <Name>
WAY-329604

>  <Synonyms>
N/A

>  <Target>
others

>  <Form>
free base

>  <CAS>
868963-82-0

>  <URL>
N/A

$$$$
