WAY-605103
 OpenBabel08302521413D

 45 48  0  0  0  0  0  0  0  0999 V2000
    0.9248    2.1442    0.0140 C   0  0  0  0  0  0  0  0  0  0  0  0
    2.1193    0.5648   -1.3713 C   0  0  0  0  0  0  0  0  0  0  0  0
   -0.2019    1.2395    0.0018 C   0  0  0  0  0  0  0  0  0  0  0  0
    1.8155    1.9635   -0.9695 C   0  0  0  0  0  0  0  0  0  0  0  0
    0.0311   -0.0767   -0.3673 C   0  0  0  0  0  0  0  0  0  0  0  0
    1.3061   -0.4421   -0.8338 O   0  0  0  0  0  0  0  0  0  0  0  0
   -1.5132    1.6962    0.1021 C   0  0  0  0  0  0  0  0  0  0  0  0
   -1.0029   -1.0013   -0.4469 C   0  0  0  0  0  0  0  0  0  0  0  0
   -5.4890   -2.0974   -1.3844 C   0  0  0  0  0  0  0  0  0  0  0  0
   -5.5768   -3.2944   -0.7207 N   0  0  0  0  0  0  0  0  0  0  0  0
   -2.3193   -0.5450   -0.3456 C   0  0  0  0  0  0  0  0  0  0  0  0
   -2.5707    0.8098   -0.1013 C   0  0  0  0  0  0  0  0  0  0  0  0
   -3.2817   -1.4914   -0.5606 O   0  0  0  0  0  0  0  0  0  0  0  0
    3.1297    0.2945   -2.0146 O   0  0  0  0  0  0  0  0  0  0  0  0
   -4.5912   -1.0029   -0.8284 C   0  0  0  0  0  0  0  0  0  0  0  0
   -6.1522   -1.8896   -2.4091 O   0  0  0  0  0  0  0  0  0  0  0  0
    1.0935    3.2231    1.0375 C   0  0  0  0  0  0  0  0  0  0  0  0
    2.6437    3.1233   -1.4365 C   0  0  0  0  0  0  0  0  0  0  0  0
   -5.0168   -3.6838    0.5639 C   0  0  0  0  0  0  0  0  0  0  0  0
   -6.1937   -4.4350   -1.3677 C   0  0  0  0  0  0  0  0  0  0  0  0
    2.5737    3.6371    1.0599 C   0  0  0  0  0  0  0  0  0  0  0  0
    2.9959    4.1248   -0.3258 C   0  0  0  0  0  0  0  0  0  0  0  0
   -5.6559   -5.6543   -0.6287 C   0  0  0  0  0  0  0  0  0  0  0  0
   -4.5674   -5.1049    0.2970 C   0  0  0  0  0  0  0  0  0  0  0  0
   -1.7242    2.7555    0.2300 H   0  0  0  0  0  0  0  0  0  0  0  0
   -0.7944   -2.0421   -0.6742 H   0  0  0  0  0  0  0  0  0  0  0  0
   -3.5764    1.2178   -0.0961 H   0  0  0  0  0  0  0  0  0  0  0  0
   -5.0550   -0.5845    0.0720 H   0  0  0  0  0  0  0  0  0  0  0  0
   -4.5366   -0.2400   -1.6159 H   0  0  0  0  0  0  0  0  0  0  0  0
    0.4462    4.0794    0.8305 H   0  0  0  0  0  0  0  0  0  0  0  0
    0.8409    2.8298    2.0307 H   0  0  0  0  0  0  0  0  0  0  0  0
    2.0307    3.6607   -2.1798 H   0  0  0  0  0  0  0  0  0  0  0  0
    3.5392    2.8145   -1.9798 H   0  0  0  0  0  0  0  0  0  0  0  0
   -5.8359   -3.6671    1.2933 H   0  0  0  0  0  0  0  0  0  0  0  0
   -4.2209   -3.0312    0.9216 H   0  0  0  0  0  0  0  0  0  0  0  0
   -5.9371   -4.4483   -2.4313 H   0  0  0  0  0  0  0  0  0  0  0  0
   -7.2819   -4.3512   -1.2738 H   0  0  0  0  0  0  0  0  0  0  0  0
    2.7532    4.4084    1.8129 H   0  0  0  0  0  0  0  0  0  0  0  0
    3.2022    2.7751    1.3345 H   0  0  0  0  0  0  0  0  0  0  0  0
    2.4941    5.0800   -0.5278 H   0  0  0  0  0  0  0  0  0  0  0  0
    4.0705    4.3326   -0.3459 H   0  0  0  0  0  0  0  0  0  0  0  0
   -5.2574   -6.4025   -1.3226 H   0  0  0  0  0  0  0  0  0  0  0  0
   -6.4522   -6.1281   -0.0463 H   0  0  0  0  0  0  0  0  0  0  0  0
   -3.6090   -5.0910   -0.2365 H   0  0  0  0  0  0  0  0  0  0  0  0
   -4.4483   -5.6932    1.2059 H   0  0  0  0  0  0  0  0  0  0  0  0
  2  4  1  0  0  0  0
  3  1  1  0  0  0  0
  4  1  2  0  0  0  0
  5  3  2  0  0  0  0
  5  6  1  0  0  0  0
  6  2  1  0  0  0  0
  7  3  1  0  0  0  0
  7 25  1  0  0  0  0
  8  5  1  0  0  0  0
  8 26  1  0  0  0  0
  9 15  1  0  0  0  0
 10  9  1  0  0  0  0
 11 12  1  0  0  0  0
 11  8  2  0  0  0  0
 12  7  2  0  0  0  0
 12 27  1  0  0  0  0
 13 11  1  0  0  0  0
 14  2  2  0  0  0  0
 15 13  1  0  0  0  0
 15 28  1  0  0  0  0
 15 29  1  0  0  0  0
 16  9  2  0  0  0  0
 17  1  1  0  0  0  0
 17 30  1  0  0  0  0
 17 31  1  0  0  0  0
 18  4  1  0  0  0  0
 18 32  1  0  0  0  0
 18 33  1  0  0  0  0
 19 10  1  0  0  0  0
 19 34  1  0  0  0  0
 19 35  1  0  0  0  0
 20 10  1  0  0  0  0
 20 36  1  0  0  0  0
 20 37  1  0  0  0  0
 21 17  1  0  0  0  0
 21 38  1  0  0  0  0
 21 39  1  0  0  0  0
 22 21  1  0  0  0  0
 22 18  1  0  0  0  0
 22 40  1  0  0  0  0
 22 41  1  0  0  0  0
 23 20  1  0  0  0  0
 23 24  1  0  0  0  0
 23 42  1  0  0  0  0
 23 43  1  0  0  0  0
 24 19  1  0  0  0  0
 24 44  1  0  0  0  0
 24 45  1  0  0  0  0
M  END
>  <Mol_ID>
8465

>  <Formula>
C19H20ClNO4

>  <MolWeight>
361.8194

>  <Cat>
P2847

>  <Name>
WAY-605103

>  <Synonyms>
N/A

>  <Target>
Group I mGluR

>  <Form>
free base

>  <CAS>
380476-01-7

>  <URL>
N/A

$$$$
