WAY-331955
 OpenBabel08302521453D

 58 61  0  0  0  0  0  0  0  0999 V2000
   -4.3136    2.4886   -0.4546 N   0  0  0  0  0  0  0  0  0  0  0  0
   -5.1283    3.3136    0.1766 C   0  0  0  0  0  0  0  0  0  0  0  0
   -3.4900    3.3233   -1.1910 C   0  0  0  0  0  0  0  0  0  0  0  0
   -4.9175    4.6333   -0.1062 O   0  0  0  0  0  0  0  0  0  0  0  0
   -3.8686    4.6343   -0.9805 C   0  0  0  0  0  0  0  0  0  0  0  0
    2.4312    1.9858   -2.0631 N   0  0  0  0  0  0  0  0  0  0  0  0
    4.0595    0.7243   -0.0879 N   0  0  0  0  0  0  0  0  0  0  0  0
    1.6496    2.8460   -2.8171 C   0  0  0  0  0  0  0  0  0  0  0  0
   -6.2078    3.0221    1.1216 C   0  0  0  0  0  0  0  0  0  0  0  0
    1.9535    0.7926   -1.3499 C   0  0  0  0  0  0  0  0  0  0  0  0
    3.8949    2.1063   -2.1295 C   0  0  0  0  0  0  0  0  0  0  0  0
    2.5995    0.6491    0.0417 C   0  0  0  0  0  0  0  0  0  0  0  0
    4.5714    1.9347   -0.7566 C   0  0  0  0  0  0  0  0  0  0  0  0
    4.8857   -0.0493    0.7057 C   0  0  0  0  0  0  0  0  0  0  0  0
    2.1326    3.8198   -3.4022 O   0  0  0  0  0  0  0  0  0  0  0  0
   -6.4609    1.7021    1.5188 C   0  0  0  0  0  0  0  0  0  0  0  0
   -7.0012    4.0434    1.6642 C   0  0  0  0  0  0  0  0  0  0  0  0
   -0.7647    3.3017   -1.5700 S   0  0  0  0  0  0  0  0  0  0  0  0
   -2.4308    2.7686   -2.0735 C   0  0  0  0  0  0  0  0  0  0  0  0
   -8.2707    2.4316    2.9529 C   0  0  0  0  0  0  0  0  0  0  0  0
    0.1614    2.5559   -2.9443 C   0  0  0  0  0  0  0  0  0  0  0  0
   -8.0165    3.7496    2.5781 C   0  0  0  0  0  0  0  0  0  0  0  0
   -7.4849    1.4052    2.4301 C   0  0  0  0  0  0  0  0  0  0  0  0
   -3.4140    5.9525   -1.4518 C   0  0  0  0  0  0  0  0  0  0  0  0
   -9.2778    2.2729    3.8637 O   0  0  0  0  0  0  0  0  0  0  0  0
    4.4962   -0.5313    1.9642 C   0  0  0  0  0  0  0  0  0  0  0  0
    6.1369   -0.4647    0.2244 C   0  0  0  0  0  0  0  0  0  0  0  0
   -9.9458    1.0174    3.8288 C   0  0  0  0  0  0  0  0  0  0  0  0
    5.2997   -1.4176    2.6910 C   0  0  0  0  0  0  0  0  0  0  0  0
    6.9424   -1.3540    0.9399 C   0  0  0  0  0  0  0  0  0  0  0  0
    6.5184   -1.8396    2.1711 C   0  0  0  0  0  0  0  0  0  0  0  0
    0.8695    0.7881   -1.2369 H   0  0  0  0  0  0  0  0  0  0  0  0
    2.2242   -0.0694   -1.9735 H   0  0  0  0  0  0  0  0  0  0  0  0
    4.2374    1.3113   -2.8049 H   0  0  0  0  0  0  0  0  0  0  0  0
    4.1976    3.0592   -2.5744 H   0  0  0  0  0  0  0  0  0  0  0  0
    2.2393    1.4395    0.7112 H   0  0  0  0  0  0  0  0  0  0  0  0
    2.2794   -0.3171    0.4497 H   0  0  0  0  0  0  0  0  0  0  0  0
    4.3587    2.8099   -0.1298 H   0  0  0  0  0  0  0  0  0  0  0  0
    5.6559    1.9088   -0.9083 H   0  0  0  0  0  0  0  0  0  0  0  0
   -5.8541    0.8905    1.1246 H   0  0  0  0  0  0  0  0  0  0  0  0
   -6.8345    5.0816    1.3856 H   0  0  0  0  0  0  0  0  0  0  0  0
   -2.4611    1.6744   -2.0416 H   0  0  0  0  0  0  0  0  0  0  0  0
   -2.6187    3.0830   -3.1054 H   0  0  0  0  0  0  0  0  0  0  0  0
   -0.0223    1.4805   -3.0075 H   0  0  0  0  0  0  0  0  0  0  0  0
   -0.1799    2.9910   -3.8899 H   0  0  0  0  0  0  0  0  0  0  0  0
   -8.6175    4.5544    2.9940 H   0  0  0  0  0  0  0  0  0  0  0  0
   -7.6250    0.3724    2.7301 H   0  0  0  0  0  0  0  0  0  0  0  0
   -4.2556    6.5286   -1.8494 H   0  0  0  0  0  0  0  0  0  0  0  0
   -2.9733    6.5170   -0.6247 H   0  0  0  0  0  0  0  0  0  0  0  0
   -2.6653    5.8610   -2.2435 H   0  0  0  0  0  0  0  0  0  0  0  0
    3.5546   -0.2180    2.4073 H   0  0  0  0  0  0  0  0  0  0  0  0
    6.4745   -0.1441   -0.7570 H   0  0  0  0  0  0  0  0  0  0  0  0
  -10.2963    0.7858    2.8168 H   0  0  0  0  0  0  0  0  0  0  0  0
   -9.3107    0.2167    4.2192 H   0  0  0  0  0  0  0  0  0  0  0  0
  -10.8235    1.0904    4.4780 H   0  0  0  0  0  0  0  0  0  0  0  0
    4.9640   -1.7849    3.6571 H   0  0  0  0  0  0  0  0  0  0  0  0
    7.8875   -1.6822    0.5172 H   0  0  0  0  0  0  0  0  0  0  0  0
    7.1328   -2.5476    2.7193 H   0  0  0  0  0  0  0  0  0  0  0  0
  2  1  2  0  0  0  0
  3  1  1  0  0  0  0
  4  2  1  0  0  0  0
  4  5  1  0  0  0  0
  5  3  2  0  0  0  0
  6  8  1  0  0  0  0
  7 13  1  0  0  0  0
  8 21  1  0  0  0  0
  9  2  1  0  0  0  0
 10  6  1  0  0  0  0
 10 32  1  0  0  0  0
 10 33  1  0  0  0  0
 11  6  1  0  0  0  0
 11 34  1  0  0  0  0
 11 35  1  0  0  0  0
 12 10  1  0  0  0  0
 12  7  1  0  0  0  0
 12 36  1  0  0  0  0
 12 37  1  0  0  0  0
 13 11  1  0  0  0  0
 13 38  1  0  0  0  0
 13 39  1  0  0  0  0
 14  7  1  0  0  0  0
 15  8  2  0  0  0  0
 16  9  2  0  0  0  0
 16 40  1  0  0  0  0
 17  9  1  0  0  0  0
 17 41  1  0  0  0  0
 18 19  1  0  0  0  0
 19  3  1  0  0  0  0
 19 42  1  0  0  0  0
 19 43  1  0  0  0  0
 20 22  1  0  0  0  0
 21 18  1  0  0  0  0
 21 44  1  0  0  0  0
 21 45  1  0  0  0  0
 22 17  2  0  0  0  0
 22 46  1  0  0  0  0
 23 16  1  0  0  0  0
 23 20  2  0  0  0  0
 23 47  1  0  0  0  0
 24  5  1  0  0  0  0
 24 48  1  0  0  0  0
 24 49  1  0  0  0  0
 24 50  1  0  0  0  0
 25 20  1  0  0  0  0
 26 14  2  0  0  0  0
 26 51  1  0  0  0  0
 27 14  1  0  0  0  0
 27 52  1  0  0  0  0
 28 25  1  0  0  0  0
 28 53  1  0  0  0  0
 28 54  1  0  0  0  0
 28 55  1  0  0  0  0
 29 26  1  0  0  0  0
 29 56  1  0  0  0  0
 30 27  2  0  0  0  0
 30 57  1  0  0  0  0
 31 30  1  0  0  0  0
 31 29  2  0  0  0  0
 31 58  1  0  0  0  0
M  END
>  <Mol_ID>
9294

>  <Formula>
C24H27N3O3S

>  <MolWeight>
437.55448

>  <Cat>
P2617

>  <Name>
WAY-331955

>  <Synonyms>
N/A

>  <Target>
beta-catenin

>  <Form>
free base

>  <CAS>
901736-76-3

>  <URL>
N/A

$$$$
