WAY-327955
 OpenBabel08302521443D

 50 53  0  0  0  0  0  0  0  0999 V2000
    0.5064    0.0433    0.0359 S   0  0  0  0  0  0  0  0  0  0  0  0
   -1.6348    0.1877   -4.6968 C   0  0  0  0  0  0  0  0  0  0  0  0
   -1.1582    0.9411   -3.5144 C   0  0  0  0  0  0  0  0  0  0  0  0
   -0.1302    1.0100   -1.3222 C   0  0  0  0  0  0  0  0  0  0  0  0
    1.9610   -0.5522   -0.5872 N   0  0  0  0  0  0  0  0  0  0  0  0
   -0.9880    2.9171   -4.9102 N   0  0  0  0  0  0  0  0  0  0  0  0
   -1.4480    2.2697   -6.0202 C   0  0  0  0  0  0  0  0  0  0  0  0
   -0.7845    2.2883   -3.6780 C   0  0  0  0  0  0  0  0  0  0  0  0
   -1.7467    0.8304   -5.8742 C   0  0  0  0  0  0  0  0  0  0  0  0
   -1.6301   -1.3061   -4.8381 C   0  0  0  0  0  0  0  0  0  0  0  0
   -0.8956    0.3456   -2.2824 C   0  0  0  0  0  0  0  0  0  0  0  0
   -2.0950   -2.0598   -3.7870 N   0  0  0  0  0  0  0  0  0  0  0  0
   -0.3939   -1.0725    0.2236 O   0  0  0  0  0  0  0  0  0  0  0  0
    0.8076    0.9626    1.1126 O   0  0  0  0  0  0  0  0  0  0  0  0
   -2.0980   -4.2119   -2.4845 C   0  0  0  0  0  0  0  0  0  0  0  0
   -1.5807   -3.4087   -3.6497 C   0  0  0  0  0  0  0  0  0  0  0  0
    0.2161    2.3495   -1.4794 C   0  0  0  0  0  0  0  0  0  0  0  0
   -0.1412    3.0016   -2.6577 C   0  0  0  0  0  0  0  0  0  0  0  0
   -1.5526    2.8315   -7.1033 O   0  0  0  0  0  0  0  0  0  0  0  0
   -1.1427   -1.8303   -5.8399 O   0  0  0  0  0  0  0  0  0  0  0  0
   -3.3873   -4.0568   -1.9618 C   0  0  0  0  0  0  0  0  0  0  0  0
    3.0944    0.3727   -0.7805 C   0  0  0  0  0  0  0  0  0  0  0  0
    1.9425   -1.5475   -1.6856 C   0  0  0  0  0  0  0  0  0  0  0  0
   -1.2957   -5.2556   -1.9848 C   0  0  0  0  0  0  0  0  0  0  0  0
   -3.8605   -4.9229   -0.9705 C   0  0  0  0  0  0  0  0  0  0  0  0
    3.5496    0.1317   -2.2111 C   0  0  0  0  0  0  0  0  0  0  0  0
    3.2697   -1.3453   -2.4102 C   0  0  0  0  0  0  0  0  0  0  0  0
   -1.7722   -6.1245   -1.0016 C   0  0  0  0  0  0  0  0  0  0  0  0
   -3.0586   -5.9611   -0.4990 C   0  0  0  0  0  0  0  0  0  0  0  0
   -0.7205    3.8837   -5.0501 H   0  0  0  0  0  0  0  0  0  0  0  0
   -1.9583    0.3181   -6.8083 H   0  0  0  0  0  0  0  0  0  0  0  0
   -1.1728   -0.6756   -2.0609 H   0  0  0  0  0  0  0  0  0  0  0  0
   -2.5641   -1.6330   -3.0016 H   0  0  0  0  0  0  0  0  0  0  0  0
   -1.7789   -3.9570   -4.5769 H   0  0  0  0  0  0  0  0  0  0  0  0
   -0.4910   -3.3049   -3.5518 H   0  0  0  0  0  0  0  0  0  0  0  0
    0.7971    2.8687   -0.7208 H   0  0  0  0  0  0  0  0  0  0  0  0
    0.1535    4.0384   -2.8030 H   0  0  0  0  0  0  0  0  0  0  0  0
   -4.0508   -3.2808   -2.3336 H   0  0  0  0  0  0  0  0  0  0  0  0
    3.8801    0.0952   -0.0696 H   0  0  0  0  0  0  0  0  0  0  0  0
    2.8423    1.4220   -0.6162 H   0  0  0  0  0  0  0  0  0  0  0  0
    1.1221   -1.3769   -2.3853 H   0  0  0  0  0  0  0  0  0  0  0  0
    1.8613   -2.5632   -1.2891 H   0  0  0  0  0  0  0  0  0  0  0  0
   -0.2940   -5.4167   -2.3794 H   0  0  0  0  0  0  0  0  0  0  0  0
   -4.8671   -4.7990   -0.5784 H   0  0  0  0  0  0  0  0  0  0  0  0
    2.9481    0.7276   -2.9081 H   0  0  0  0  0  0  0  0  0  0  0  0
    4.6022    0.3878   -2.3616 H   0  0  0  0  0  0  0  0  0  0  0  0
    3.2168   -1.6245   -3.4674 H   0  0  0  0  0  0  0  0  0  0  0  0
    4.0558   -1.9455   -1.9380 H   0  0  0  0  0  0  0  0  0  0  0  0
   -1.1460   -6.9368   -0.6413 H   0  0  0  0  0  0  0  0  0  0  0  0
   -3.4406   -6.6475    0.2521 H   0  0  0  0  0  0  0  0  0  0  0  0
  2  3  1  0  0  0  0
  3 11  2  0  0  0  0
  4  1  1  0  0  0  0
  5  1  1  0  0  0  0
  6  8  1  0  0  0  0
  6 30  1  0  0  0  0
  7  6  1  0  0  0  0
  7  9  1  0  0  0  0
  8 18  2  0  0  0  0
  8  3  1  0  0  0  0
  9  2  2  0  0  0  0
  9 31  1  0  0  0  0
 10  2  1  0  0  0  0
 11  4  1  0  0  0  0
 11 32  1  0  0  0  0
 12 10  1  0  0  0  0
 12 33  1  0  0  0  0
 13  1  2  0  0  0  0
 14  1  2  0  0  0  0
 15 16  1  0  0  0  0
 16 12  1  0  0  0  0
 16 34  1  0  0  0  0
 16 35  1  0  0  0  0
 17  4  2  0  0  0  0
 17 36  1  0  0  0  0
 18 17  1  0  0  0  0
 18 37  1  0  0  0  0
 19  7  2  0  0  0  0
 20 10  2  0  0  0  0
 21 15  2  0  0  0  0
 21 38  1  0  0  0  0
 22  5  1  0  0  0  0
 22 39  1  0  0  0  0
 22 40  1  0  0  0  0
 23  5  1  0  0  0  0
 23 41  1  0  0  0  0
 23 42  1  0  0  0  0
 24 15  1  0  0  0  0
 24 43  1  0  0  0  0
 25 21  1  0  0  0  0
 25 44  1  0  0  0  0
 26 22  1  0  0  0  0
 26 27  1  0  0  0  0
 26 45  1  0  0  0  0
 26 46  1  0  0  0  0
 27 23  1  0  0  0  0
 27 47  1  0  0  0  0
 27 48  1  0  0  0  0
 28 24  2  0  0  0  0
 28 49  1  0  0  0  0
 29 28  1  0  0  0  0
 29 25  2  0  0  0  0
 29 50  1  0  0  0  0
M  END
>  <Mol_ID>
8993

>  <Formula>
C21H20ClN3O4S

>  <MolWeight>
445.9192

>  <Cat>
P2556

>  <Name>
WAY-327955

>  <Synonyms>
N/A

>  <Target>
caspase

>  <Form>
free base

>  <CAS>
687591-06-6

>  <URL>
N/A

$$$$
