WAY-110969
 OpenBabel08302521443D

 33 34  0  0  0  0  0  0  0  0999 V2000
    1.3672   -0.1872   -0.0683 C   0  0  0  0  0  0  0  0  0  0  0  0
    2.7009   -0.4993   -0.1344 O   0  0  0  0  0  0  0  0  0  0  0  0
    0.4790   -1.2620   -0.0322 C   0  0  0  0  0  0  0  0  0  0  0  0
    0.8573    1.1102   -0.0440 C   0  0  0  0  0  0  0  0  0  0  0  0
    3.5522    0.5853   -0.5234 C   0  0  0  0  0  0  0  0  0  0  0  0
   -0.9051   -1.0429    0.0150 C   0  0  0  0  0  0  0  0  0  0  0  0
   -0.5189    1.3301   -0.0223 C   0  0  0  0  0  0  0  0  0  0  0  0
    4.9060    0.1040   -0.9804 C   0  0  0  0  0  0  0  0  0  0  0  0
   -1.4103    0.2589    0.0401 C   0  0  0  0  0  0  0  0  0  0  0  0
    5.5378    0.7582   -2.0508 C   0  0  0  0  0  0  0  0  0  0  0  0
    5.5802   -0.9335   -0.3275 C   0  0  0  0  0  0  0  0  0  0  0  0
   -2.7740    0.3898    0.1427 O   0  0  0  0  0  0  0  0  0  0  0  0
    6.8022    0.3609   -2.4813 C   0  0  0  0  0  0  0  0  0  0  0  0
    6.8464   -1.3317   -0.7615 C   0  0  0  0  0  0  0  0  0  0  0  0
   -3.2069    1.6986    0.5350 C   0  0  0  0  0  0  0  0  0  0  0  0
    7.4549   -0.6871   -1.8386 C   0  0  0  0  0  0  0  0  0  0  0  0
   -4.6416    1.6937    1.0242 C   0  0  0  0  0  0  0  0  0  0  0  0
   -5.2656    0.5040    0.8536 O   0  0  0  0  0  0  0  0  0  0  0  0
   -5.1898    2.6679    1.5186 O   0  0  0  0  0  0  0  0  0  0  0  0
    0.8644   -2.2790   -0.0443 H   0  0  0  0  0  0  0  0  0  0  0  0
    1.5008    1.9827   -0.0385 H   0  0  0  0  0  0  0  0  0  0  0  0
    3.0957    1.1240   -1.3640 H   0  0  0  0  0  0  0  0  0  0  0  0
    3.6949    1.2684    0.3232 H   0  0  0  0  0  0  0  0  0  0  0  0
   -1.5784   -1.8956    0.0420 H   0  0  0  0  0  0  0  0  0  0  0  0
   -0.8538    2.3621   -0.0502 H   0  0  0  0  0  0  0  0  0  0  0  0
    5.0439    1.5829   -2.5614 H   0  0  0  0  0  0  0  0  0  0  0  0
    5.1206   -1.4414    0.5178 H   0  0  0  0  0  0  0  0  0  0  0  0
    7.2748    0.8681   -3.3182 H   0  0  0  0  0  0  0  0  0  0  0  0
    7.3575   -2.1480   -0.2590 H   0  0  0  0  0  0  0  0  0  0  0  0
   -2.6053    2.0655    1.3753 H   0  0  0  0  0  0  0  0  0  0  0  0
   -3.1575    2.3700   -0.3297 H   0  0  0  0  0  0  0  0  0  0  0  0
    8.4380   -1.0026   -2.1765 H   0  0  0  0  0  0  0  0  0  0  0  0
   -4.6439   -0.1441    0.4607 H   0  0  0  0  0  0  0  0  0  0  0  0
  1  2  1  0  0  0  0
  1  3  2  0  0  0  0
  1  4  1  0  0  0  0
  2  5  1  0  0  0  0
  3  6  1  0  0  0  0
  3 20  1  0  0  0  0
  4  7  2  0  0  0  0
  4 21  1  0  0  0  0
  5  8  1  0  0  0  0
  5 22  1  0  0  0  0
  5 23  1  0  0  0  0
  6  9  2  0  0  0  0
  6 24  1  0  0  0  0
  7  9  1  0  0  0  0
  7 25  1  0  0  0  0
  8 10  2  0  0  0  0
  8 11  1  0  0  0  0
  9 12  1  0  0  0  0
 10 13  1  0  0  0  0
 10 26  1  0  0  0  0
 11 14  2  0  0  0  0
 11 27  1  0  0  0  0
 12 15  1  0  0  0  0
 13 16  2  0  0  0  0
 13 28  1  0  0  0  0
 14 16  1  0  0  0  0
 14 29  1  0  0  0  0
 15 17  1  0  0  0  0
 15 30  1  0  0  0  0
 15 31  1  0  0  0  0
 16 32  1  0  0  0  0
 17 18  1  0  0  0  0
 17 19  2  0  0  0  0
 18 33  1  0  0  0  0
M  END
>  <Mol_ID>
9143

>  <Formula>
C15H14O4

>  <MolWeight>
258.26926

>  <Cat>
P2039

>  <Name>
WAY-110969

>  <Synonyms>
N/A

>  <Target>
tyrosinase

>  <Form>
free base

>  <CAS>
913492-03-3

>  <URL>
N/A

$$$$
