WAY-639497
 OpenBabel08302521433D

 57 60  0  0  0  0  0  0  0  0999 V2000
   -0.7491   -0.6142   -0.0081 N   0  0  0  0  0  0  0  0  0  0  0  0
    0.5960   -0.3752    0.1042 C   0  0  0  0  0  0  0  0  0  0  0  0
    0.7900    1.0191   -0.0035 N   0  0  0  0  0  0  0  0  0  0  0  0
   -1.4100    0.5219    0.3381 C   0  0  0  0  0  0  0  0  0  0  0  0
   -0.4741    1.7123    0.1844 C   0  0  3  0  0  0  0  0  0  0  0  0
   -1.3822   -1.9140    0.0102 C   0  0  0  0  0  0  0  0  0  0  0  0
   -0.6924   -3.0462   -0.7678 C   0  0  0  0  0  0  0  0  0  0  0  0
   -0.8000   -4.2876   -0.1526 N   0  0  0  0  0  0  0  0  0  0  0  0
   -0.6453   -5.5298   -0.8999 C   0  0  0  0  0  0  0  0  0  0  0  0
    2.0383    1.6683   -0.2513 C   0  0  0  0  0  0  0  0  0  0  0  0
    1.4246   -1.2402    0.3364 O   0  0  0  0  0  0  0  0  0  0  0  0
   -2.5846    0.5909    0.6895 O   0  0  0  0  0  0  0  0  0  0  0  0
   -0.2039   -2.8791   -1.8795 O   0  0  0  0  0  0  0  0  0  0  0  0
    0.4548   -6.4203   -0.3336 C   0  0  0  0  0  0  0  0  0  0  0  0
   -2.0136   -6.1692   -1.1536 C   0  0  0  0  0  0  0  0  0  0  0  0
    3.1997    0.9350   -0.5270 C   0  0  0  0  0  0  0  0  0  0  0  0
    2.1426    3.0666   -0.3159 C   0  0  0  0  0  0  0  0  0  0  0  0
   -1.0167    2.5096   -0.9960 C   0  0  0  0  0  0  0  0  0  0  0  0
    3.3337    3.6980   -0.7148 C   0  0  0  0  0  0  0  0  0  0  0  0
    4.3992    1.5620   -0.8971 C   0  0  0  0  0  0  0  0  0  0  0  0
    4.4720    2.9501   -1.0136 C   0  0  0  0  0  0  0  0  0  0  0  0
   -2.3292   -6.5836   -2.4613 C   0  0  0  0  0  0  0  0  0  0  0  0
   -3.0255   -6.2390   -0.1785 C   0  0  0  0  0  0  0  0  0  0  0  0
    0.2924   -7.3368    0.7056 C   0  0  0  0  0  0  0  0  0  0  0  0
    1.7479   -6.2830   -0.8928 C   0  0  0  0  0  0  0  0  0  0  0  0
    5.7454    3.6056   -1.4612 C   0  0  0  0  0  0  0  0  0  0  0  0
    1.3732   -8.1130    1.1575 C   0  0  0  0  0  0  0  0  0  0  0  0
    2.8250   -7.0587   -0.4508 C   0  0  0  0  0  0  0  0  0  0  0  0
   -3.6295   -6.9575   -2.8069 C   0  0  0  0  0  0  0  0  0  0  0  0
   -4.3287   -6.6154   -0.5275 C   0  0  0  0  0  0  0  0  0  0  0  0
    2.6354   -7.9774    0.5769 C   0  0  0  0  0  0  0  0  0  0  0  0
   -4.6347   -6.9490   -1.8449 C   0  0  0  0  0  0  0  0  0  0  0  0
   -0.4372    2.2853    1.1168 H   0  0  0  0  0  0  0  0  0  0  0  0
   -1.6381   -2.1938    1.0320 H   0  0  0  0  0  0  0  0  0  0  0  0
   -2.3355   -1.7771   -0.5234 H   0  0  0  0  0  0  0  0  0  0  0  0
   -1.1485   -4.3532    0.7912 H   0  0  0  0  0  0  0  0  0  0  0  0
   -0.2985   -5.2389   -1.8970 H   0  0  0  0  0  0  0  0  0  0  0  0
    3.2106   -0.1502   -0.4923 H   0  0  0  0  0  0  0  0  0  0  0  0
    1.3033    3.7134   -0.0867 H   0  0  0  0  0  0  0  0  0  0  0  0
   -1.3588    1.8514   -1.8032 H   0  0  0  0  0  0  0  0  0  0  0  0
   -1.8889    3.0900   -0.6691 H   0  0  0  0  0  0  0  0  0  0  0  0
   -0.3005    3.2085   -1.4280 H   0  0  0  0  0  0  0  0  0  0  0  0
    3.3544    4.7834   -0.8014 H   0  0  0  0  0  0  0  0  0  0  0  0
    5.2691    0.9460   -1.1148 H   0  0  0  0  0  0  0  0  0  0  0  0
   -1.5679   -6.5654   -3.2390 H   0  0  0  0  0  0  0  0  0  0  0  0
   -2.8276   -5.9620    0.8533 H   0  0  0  0  0  0  0  0  0  0  0  0
   -0.6756   -7.4821    1.1852 H   0  0  0  0  0  0  0  0  0  0  0  0
    1.9237   -5.5585   -1.6852 H   0  0  0  0  0  0  0  0  0  0  0  0
    6.5609    3.3592   -0.7746 H   0  0  0  0  0  0  0  0  0  0  0  0
    6.0107    3.2694   -2.4691 H   0  0  0  0  0  0  0  0  0  0  0  0
    5.6482    4.6962   -1.4884 H   0  0  0  0  0  0  0  0  0  0  0  0
    1.2384   -8.8307    1.9627 H   0  0  0  0  0  0  0  0  0  0  0  0
    3.7998   -6.9387   -0.9065 H   0  0  0  0  0  0  0  0  0  0  0  0
   -3.8603   -7.2239   -3.8351 H   0  0  0  0  0  0  0  0  0  0  0  0
   -5.1160   -6.6196    0.2227 H   0  0  0  0  0  0  0  0  0  0  0  0
    3.4698   -8.5777    0.9238 H   0  0  0  0  0  0  0  0  0  0  0  0
   -5.6554   -7.1967   -2.1253 H   0  0  0  0  0  0  0  0  0  0  0  0
  2  1  1  0  0  0  0
  3  2  1  0  0  0  0
  3  5  1  0  0  0  0
  4  1  1  0  0  0  0
  5  4  1  0  0  0  0
  5 33  1  0  0  0  0
  6  1  1  0  0  0  0
  6 34  1  0  0  0  0
  6 35  1  0  0  0  0
  7  6  1  0  0  0  0
  8  7  1  0  0  0  0
  8 36  1  0  0  0  0
  9  8  1  0  0  0  0
  9 37  1  0  0  0  0
 10  3  1  0  0  0  0
 11  2  2  0  0  0  0
 12  4  2  0  0  0  0
 13  7  2  0  0  0  0
 14  9  1  0  0  0  0
 15  9  1  0  0  0  0
 16 10  2  0  0  0  0
 16 38  1  0  0  0  0
 17 10  1  0  0  0  0
 17 39  1  0  0  0  0
 18  5  1  0  0  0  0
 18 40  1  0  0  0  0
 18 41  1  0  0  0  0
 18 42  1  0  0  0  0
 19 17  2  0  0  0  0
 19 43  1  0  0  0  0
 20 16  1  0  0  0  0
 20 44  1  0  0  0  0
 21 19  1  0  0  0  0
 21 20  2  0  0  0  0
 22 15  2  0  0  0  0
 22 45  1  0  0  0  0
 23 15  1  0  0  0  0
 23 46  1  0  0  0  0
 24 14  2  0  0  0  0
 24 47  1  0  0  0  0
 25 14  1  0  0  0  0
 25 48  1  0  0  0  0
 26 21  1  0  0  0  0
 26 49  1  0  0  0  0
 26 50  1  0  0  0  0
 26 51  1  0  0  0  0
 27 24  1  0  0  0  0
 27 52  1  0  0  0  0
 28 25  2  0  0  0  0
 28 53  1  0  0  0  0
 29 22  1  0  0  0  0
 29 54  1  0  0  0  0
 30 23  2  0  0  0  0
 30 55  1  0  0  0  0
 31 28  1  0  0  0  0
 31 27  2  0  0  0  0
 31 56  1  0  0  0  0
 32 30  1  0  0  0  0
 32 29  2  0  0  0  0
 32 57  1  0  0  0  0
M  END
>  <Mol_ID>
8816

>  <Formula>
C26H25N3O3

>  <MolWeight>
427.495

>  <Cat>
P3081

>  <Name>
WAY-639497

>  <Synonyms>
N/A

>  <Target>
Anti-infection

>  <Form>
free base

>  <CAS>
1031873-45-6

>  <URL>
N/A

$$$$
