WAY-313356
 OpenBabel08302521393D

 43 46  0  0  0  0  0  0  0  0999 V2000
   -0.4646   -1.1717   -0.7960 C   0  0  0  0  0  0  0  0  0  0  0  0
   -1.3205   -0.2870   -0.2414 N   0  0  0  0  0  0  0  0  0  0  0  0
   -0.7749    0.8013    0.3346 C   0  0  0  0  0  0  0  0  0  0  0  0
    0.5886    1.0338    0.3922 C   0  0  0  0  0  0  0  0  0  0  0  0
    1.4684    0.0615   -0.0942 C   0  0  0  0  0  0  0  0  0  0  0  0
    0.9180   -1.0474   -0.7487 C   0  0  0  0  0  0  0  0  0  0  0  0
    2.9234    0.1809    0.0929 C   0  0  0  0  0  0  0  0  0  0  0  0
    3.5942    0.6381    1.2445 N   0  0  0  0  0  0  0  0  0  0  0  0
    4.9258    0.7344    0.8363 C   0  0  0  0  0  0  0  0  0  0  0  0
    5.0508    0.2923   -0.3923 N   0  0  0  0  0  0  0  0  0  0  0  0
    3.8164   -0.0857   -0.8461 N   0  0  0  0  0  0  0  0  0  0  0  0
    3.0325    0.9056    2.5341 C   0  0  0  0  0  0  0  0  0  0  0  0
    1.9330    0.1665    3.0034 C   0  0  0  0  0  0  0  0  0  0  0  0
    1.3420    0.4693    4.2334 C   0  0  0  0  0  0  0  0  0  0  0  0
    1.8809    1.4660    5.0388 C   0  0  0  0  0  0  0  0  0  0  0  0
    2.9861    2.1875    4.5969 C   0  0  0  0  0  0  0  0  0  0  0  0
    3.5447    1.9269    3.3426 C   0  0  0  0  0  0  0  0  0  0  0  0
    6.2893    1.1226    1.8448 S   0  0  0  0  0  0  0  0  0  0  0  0
    7.4860    1.8616    0.6860 C   0  0  0  0  0  0  0  0  0  0  0  0
    7.0743    3.2356    0.1723 C   0  0  0  0  0  0  0  0  0  0  0  0
    6.1777    3.9021    0.6913 O   0  0  0  0  0  0  0  0  0  0  0  0
    7.8387    3.8326   -0.9796 C   0  0  0  0  0  0  0  0  0  0  0  0
    8.9702    3.2302   -1.5405 C   0  0  0  0  0  0  0  0  0  0  0  0
    9.6258    3.8287   -2.6295 C   0  0  0  0  0  0  0  0  0  0  0  0
    7.3954    5.0563   -1.5092 C   0  0  0  0  0  0  0  0  0  0  0  0
    8.0515    5.6522   -2.5914 C   0  0  0  0  0  0  0  0  0  0  0  0
    9.1643    5.0344   -3.1559 C   0  0  0  0  0  0  0  0  0  0  0  0
   -0.9365   -2.0208   -1.2831 H   0  0  0  0  0  0  0  0  0  0  0  0
   -1.4783    1.4976    0.7826 H   0  0  0  0  0  0  0  0  0  0  0  0
    0.9468    1.9401    0.8691 H   0  0  0  0  0  0  0  0  0  0  0  0
    1.5458   -1.8097   -1.1963 H   0  0  0  0  0  0  0  0  0  0  0  0
    1.5058   -0.6596    2.4403 H   0  0  0  0  0  0  0  0  0  0  0  0
    0.4625   -0.0792    4.5636 H   0  0  0  0  0  0  0  0  0  0  0  0
    1.4377    1.6869    6.0060 H   0  0  0  0  0  0  0  0  0  0  0  0
    3.4107    2.9689    5.2226 H   0  0  0  0  0  0  0  0  0  0  0  0
    4.3501    2.5790    3.0147 H   0  0  0  0  0  0  0  0  0  0  0  0
    8.4168    2.0006    1.2503 H   0  0  0  0  0  0  0  0  0  0  0  0
    7.6699    1.1701   -0.1376 H   0  0  0  0  0  0  0  0  0  0  0  0
    9.3795    2.2980   -1.1599 H   0  0  0  0  0  0  0  0  0  0  0  0
   10.5009    3.3523   -3.0677 H   0  0  0  0  0  0  0  0  0  0  0  0
    6.5276    5.5556   -1.0815 H   0  0  0  0  0  0  0  0  0  0  0  0
    7.6876    6.5938   -2.9964 H   0  0  0  0  0  0  0  0  0  0  0  0
    9.6687    5.4883   -4.0049 H   0  0  0  0  0  0  0  0  0  0  0  0
  1  2  2  0  0  0  0
  1 28  1  0  0  0  0
  2  3  1  0  0  0  0
  3  4  2  0  0  0  0
  3 29  1  0  0  0  0
  4  5  1  0  0  0  0
  4 30  1  0  0  0  0
  5  7  1  0  0  0  0
  5  6  2  0  0  0  0
  6  1  1  0  0  0  0
  6 31  1  0  0  0  0
  7  8  1  0  0  0  0
  8  9  1  0  0  0  0
  8 12  1  0  0  0  0
  9 18  1  0  0  0  0
  9 10  2  0  0  0  0
 10 11  1  0  0  0  0
 11  7  2  0  0  0  0
 12 13  2  0  0  0  0
 13 14  1  0  0  0  0
 13 32  1  0  0  0  0
 14 15  2  0  0  0  0
 14 33  1  0  0  0  0
 15 16  1  0  0  0  0
 15 34  1  0  0  0  0
 16 17  2  0  0  0  0
 16 35  1  0  0  0  0
 17 12  1  0  0  0  0
 17 36  1  0  0  0  0
 18 19  1  0  0  0  0
 19 20  1  0  0  0  0
 19 37  1  0  0  0  0
 19 38  1  0  0  0  0
 20 21  2  0  0  0  0
 20 22  1  0  0  0  0
 22 23  2  0  0  0  0
 23 24  1  0  0  0  0
 23 39  1  0  0  0  0
 24 27  2  0  0  0  0
 24 40  1  0  0  0  0
 25 22  1  0  0  0  0
 25 41  1  0  0  0  0
 26 25  2  0  0  0  0
 26 27  1  0  0  0  0
 26 42  1  0  0  0  0
 27 43  1  0  0  0  0
M  END
>  <Mol_ID>
8143

>  <Formula>
C21H16N4OS

>  <MolWeight>
372.44294

>  <Cat>
P2248

>  <Name>
WAY-313356

>  <Synonyms>
N/A

>  <Target>
others

>  <Form>
free base

>  <CAS>
325694-03-9

>  <URL>
N/A

$$$$
