WAY-112895
 OpenBabel08302521403D

 44 46  0  0  0  0  0  0  0  0999 V2000
   -0.2356   -1.1576    0.0388 N   0  0  0  0  0  0  0  0  0  0  0  0
   -0.5036   -2.5399   -0.0007 C   0  0  0  0  0  0  0  0  0  0  0  0
    1.0415   -0.6196    0.1466 C   0  0  0  0  0  0  0  0  0  0  0  0
   -1.1255   -0.1296   -0.3590 N   0  0  0  0  0  0  0  0  0  0  0  0
   -0.0936   -3.3381    1.0753 C   0  0  0  0  0  0  0  0  0  0  0  0
   -1.1403   -3.1456   -1.0884 C   0  0  0  0  0  0  0  0  0  0  0  0
    0.9065    0.8544   -0.0294 C   0  0  0  0  0  0  0  0  0  0  0  0
    2.1188   -1.1565    0.3861 O   0  0  0  0  0  0  0  0  0  0  0  0
   -0.4133    1.0888   -0.1762 C   0  0  0  0  0  0  0  0  0  0  0  0
   -2.5439   -0.2711   -0.0185 C   0  0  0  0  0  0  0  0  0  0  0  0
   -0.3502   -4.7129    1.0852 C   0  0  0  0  0  0  0  0  0  0  0  0
   -1.3485   -4.5298   -1.1024 C   0  0  0  0  0  0  0  0  0  0  0  0
    1.9544    1.7064    0.3978 N   0  0  0  0  0  0  0  0  0  0  0  0
   -1.1701    2.3664    0.0073 C   0  0  0  0  0  0  0  0  0  0  0  0
   -0.9715   -5.3116   -0.0070 C   0  0  0  0  0  0  0  0  0  0  0  0
    2.5232    2.9722   -0.5500 S   0  0  0  0  0  0  0  0  0  0  0  0
    1.7219    4.3746    0.1812 C   0  0  0  0  0  0  0  0  0  0  0  0
    3.9261    3.0993   -0.2483 O   0  0  0  0  0  0  0  0  0  0  0  0
    2.0653    2.8239   -1.9163 O   0  0  0  0  0  0  0  0  0  0  0  0
    1.8696    4.6079    1.5526 C   0  0  0  0  0  0  0  0  0  0  0  0
    0.8933    5.1842   -0.5980 C   0  0  0  0  0  0  0  0  0  0  0  0
    1.1552    5.6466    2.1522 C   0  0  0  0  0  0  0  0  0  0  0  0
    0.1819    6.2186    0.0094 C   0  0  0  0  0  0  0  0  0  0  0  0
    0.3004    6.4522    1.3875 C   0  0  0  0  0  0  0  0  0  0  0  0
   -0.4934    7.5570    2.0213 C   0  0  0  0  0  0  0  0  0  0  0  0
    0.3966   -2.8890    1.9370 H   0  0  0  0  0  0  0  0  0  0  0  0
   -1.4257   -2.5508   -1.9516 H   0  0  0  0  0  0  0  0  0  0  0  0
   -2.7679    0.1322    0.9758 H   0  0  0  0  0  0  0  0  0  0  0  0
   -3.1453    0.2739   -0.7556 H   0  0  0  0  0  0  0  0  0  0  0  0
   -2.8885   -1.3077   -0.0352 H   0  0  0  0  0  0  0  0  0  0  0  0
   -0.0571   -5.3146    1.9413 H   0  0  0  0  0  0  0  0  0  0  0  0
   -1.8162   -5.0027   -1.9631 H   0  0  0  0  0  0  0  0  0  0  0  0
    2.7802    1.1432    0.6455 H   0  0  0  0  0  0  0  0  0  0  0  0
   -1.6037    2.7050   -0.9368 H   0  0  0  0  0  0  0  0  0  0  0  0
   -1.9863    2.2414    0.7291 H   0  0  0  0  0  0  0  0  0  0  0  0
   -0.5575    3.1585    0.4261 H   0  0  0  0  0  0  0  0  0  0  0  0
   -1.1590   -6.3827   -0.0084 H   0  0  0  0  0  0  0  0  0  0  0  0
    2.5190    3.9778    2.1555 H   0  0  0  0  0  0  0  0  0  0  0  0
    0.7694    4.9945   -1.6618 H   0  0  0  0  0  0  0  0  0  0  0  0
    1.2628    5.8160    3.2219 H   0  0  0  0  0  0  0  0  0  0  0  0
   -0.4788    6.8363   -0.5955 H   0  0  0  0  0  0  0  0  0  0  0  0
   -0.2193    8.5195    1.5778 H   0  0  0  0  0  0  0  0  0  0  0  0
   -1.5641    7.3836    1.8708 H   0  0  0  0  0  0  0  0  0  0  0  0
   -0.3122    7.6172    3.0993 H   0  0  0  0  0  0  0  0  0  0  0  0
  1  2  1  0  0  0  0
  1  3  1  0  0  0  0
  1  4  1  0  0  0  0
  2  5  2  0  0  0  0
  2  6  1  0  0  0  0
  3  7  1  0  0  0  0
  3  8  2  0  0  0  0
  4  9  1  0  0  0  0
  4 10  1  0  0  0  0
  5 11  1  0  0  0  0
  5 26  1  0  0  0  0
  6 12  2  0  0  0  0
  6 27  1  0  0  0  0
  7 13  1  0  0  0  0
  7  9  2  0  0  0  0
  9 14  1  0  0  0  0
 10 28  1  0  0  0  0
 10 29  1  0  0  0  0
 10 30  1  0  0  0  0
 11 15  2  0  0  0  0
 11 31  1  0  0  0  0
 12 15  1  0  0  0  0
 12 32  1  0  0  0  0
 13 16  1  0  0  0  0
 13 33  1  0  0  0  0
 14 34  1  0  0  0  0
 14 35  1  0  0  0  0
 14 36  1  0  0  0  0
 15 37  1  0  0  0  0
 16 17  1  0  0  0  0
 16 18  2  0  0  0  0
 16 19  2  0  0  0  0
 17 20  2  0  0  0  0
 17 21  1  0  0  0  0
 20 22  1  0  0  0  0
 20 38  1  0  0  0  0
 21 23  2  0  0  0  0
 21 39  1  0  0  0  0
 22 24  2  0  0  0  0
 22 40  1  0  0  0  0
 23 24  1  0  0  0  0
 23 41  1  0  0  0  0
 24 25  1  0  0  0  0
 25 42  1  0  0  0  0
 25 43  1  0  0  0  0
 25 44  1  0  0  0  0
M  END
>  <Mol_ID>
8272

>  <Formula>
C18H19N3O3S

>  <MolWeight>
357.42676

>  <Cat>
P2044

>  <Name>
WAY-112895

>  <Synonyms>
N/A

>  <Target>
Anti-infection

>  <Form>
free base

>  <CAS>
78439-89-1

>  <URL>
N/A

$$$$
