WAY-328141
 OpenBabel08302521443D

 41 43  0  0  0  0  0  0  0  0999 V2000
   -0.0421   -1.2849   -0.4638 C   0  0  0  0  0  0  0  0  0  0  0  0
   -1.1065   -0.6789   -1.0219 N   0  0  0  0  0  0  0  0  0  0  0  0
    1.0536   -0.3887   -0.3876 C   0  0  0  0  0  0  0  0  0  0  0  0
    0.6041    0.7910   -0.9363 C   0  0  0  0  0  0  0  0  0  0  0  0
   -0.6996    0.6113   -1.3126 O   0  0  0  0  0  0  0  0  0  0  0  0
   -0.0902   -2.6877   -0.0373 C   0  0  0  0  0  0  0  0  0  0  0  0
    1.2047    2.0787   -1.2102 C   0  0  0  0  0  0  0  0  0  0  0  0
   -1.4592   -6.5801    1.8193 N   0  0  0  0  0  0  0  0  0  0  0  0
    0.8873   -3.2477    0.4610 O   0  0  0  0  0  0  0  0  0  0  0  0
   -1.3010   -3.3215   -0.2388 N   0  0  0  0  0  0  0  0  0  0  0  0
    1.1357   -7.5968    2.8024 O   0  0  0  0  0  0  0  0  0  0  0  0
    2.5403    2.3238   -0.8465 C   0  0  0  0  0  0  0  0  0  0  0  0
    0.4929    3.0815   -1.8844 C   0  0  0  0  0  0  0  0  0  0  0  0
    2.4373    4.4953   -1.8769 C   0  0  0  0  0  0  0  0  0  0  0  0
    1.1086    4.2867   -2.2226 C   0  0  0  0  0  0  0  0  0  0  0  0
    3.1580    3.5291   -1.1869 C   0  0  0  0  0  0  0  0  0  0  0  0
    3.0339    5.6447   -2.2139 F   0  0  0  0  0  0  0  0  0  0  0  0
   -1.5181   -4.7431    0.0088 C   0  0  0  0  0  0  0  0  0  0  0  0
   -1.2564   -5.1533    1.4760 C   0  0  0  0  0  0  0  0  0  0  0  0
   -1.1623   -6.8089    3.2599 C   0  0  0  0  0  0  0  0  0  0  0  0
   -0.5900   -7.5189    1.0725 C   0  0  0  0  0  0  0  0  0  0  0  0
    0.3382   -6.7270    3.6181 C   0  0  0  0  0  0  0  0  0  0  0  0
    0.9023   -7.3583    1.4068 C   0  0  0  0  0  0  0  0  0  0  0  0
    2.0462   -0.5768   -0.0045 H   0  0  0  0  0  0  0  0  0  0  0  0
   -2.0345   -2.7755   -0.6825 H   0  0  0  0  0  0  0  0  0  0  0  0
    3.1212    1.5746   -0.3123 H   0  0  0  0  0  0  0  0  0  0  0  0
   -0.5467    2.9248   -2.1679 H   0  0  0  0  0  0  0  0  0  0  0  0
    0.5618    5.0556   -2.7594 H   0  0  0  0  0  0  0  0  0  0  0  0
    4.1958    3.7135   -0.9315 H   0  0  0  0  0  0  0  0  0  0  0  0
   -2.5616   -4.9444   -0.2528 H   0  0  0  0  0  0  0  0  0  0  0  0
   -0.8756   -5.2978   -0.6836 H   0  0  0  0  0  0  0  0  0  0  0  0
   -0.2583   -4.8196    1.7659 H   0  0  0  0  0  0  0  0  0  0  0  0
   -1.9542   -4.5643    2.0859 H   0  0  0  0  0  0  0  0  0  0  0  0
   -1.5162   -7.8187    3.5068 H   0  0  0  0  0  0  0  0  0  0  0  0
   -1.7439   -6.1238    3.8874 H   0  0  0  0  0  0  0  0  0  0  0  0
   -0.8927   -8.5372    1.3594 H   0  0  0  0  0  0  0  0  0  0  0  0
   -0.7716   -7.4603   -0.0045 H   0  0  0  0  0  0  0  0  0  0  0  0
    0.7192   -5.7036    3.5324 H   0  0  0  0  0  0  0  0  0  0  0  0
    0.4837   -7.0387    4.6582 H   0  0  0  0  0  0  0  0  0  0  0  0
    1.4889   -8.0921    0.8445 H   0  0  0  0  0  0  0  0  0  0  0  0
    1.2802   -6.3658    1.1386 H   0  0  0  0  0  0  0  0  0  0  0  0
  2  1  2  0  0  0  0
  3  1  1  0  0  0  0
  3 24  1  0  0  0  0
  4  3  2  0  0  0  0
  5  2  1  0  0  0  0
  5  4  1  0  0  0  0
  6  1  1  0  0  0  0
  7  4  1  0  0  0  0
  8 19  1  0  0  0  0
  9  6  2  0  0  0  0
 10  6  1  0  0  0  0
 10 25  1  0  0  0  0
 11 23  1  0  0  0  0
 12  7  2  0  0  0  0
 12 26  1  0  0  0  0
 13  7  1  0  0  0  0
 13 27  1  0  0  0  0
 14 15  1  0  0  0  0
 15 13  2  0  0  0  0
 15 28  1  0  0  0  0
 16 12  1  0  0  0  0
 16 14  2  0  0  0  0
 16 29  1  0  0  0  0
 17 14  1  0  0  0  0
 18 10  1  0  0  0  0
 18 30  1  0  0  0  0
 18 31  1  0  0  0  0
 19 18  1  0  0  0  0
 19 32  1  0  0  0  0
 19 33  1  0  0  0  0
 20  8  1  0  0  0  0
 20 34  1  0  0  0  0
 20 35  1  0  0  0  0
 21  8  1  0  0  0  0
 21 36  1  0  0  0  0
 21 37  1  0  0  0  0
 22 20  1  0  0  0  0
 22 11  1  0  0  0  0
 22 38  1  0  0  0  0
 22 39  1  0  0  0  0
 23 21  1  0  0  0  0
 23 40  1  0  0  0  0
 23 41  1  0  0  0  0
M  END
>  <Mol_ID>
9003

>  <Formula>
C16H18FN3O3

>  <MolWeight>
319.3308232

>  <Cat>
P2567

>  <Name>
WAY-328141

>  <Synonyms>
N/A

>  <Target>
CFTR

>  <Form>
free base

>  <CAS>
688050-36-4

>  <URL>
N/A

$$$$
