WAY-329609
 OpenBabel08302521453D

 37 39  0  0  0  0  0  0  0  0999 V2000
   -0.5314   -0.0912   -0.2009 S   0  0  0  0  0  0  0  0  0  0  0  0
   -1.8426   -0.3200   -1.3531 C   0  0  0  0  0  0  0  0  0  0  0  0
   -3.0006   -1.0635   -1.0415 C   0  0  0  0  0  0  0  0  0  0  0  0
   -3.2733   -1.7202    0.0974 N   0  0  0  0  0  0  0  0  0  0  0  0
    0.0702   -1.6630    0.2652 C   0  0  0  0  0  0  0  0  0  0  0  0
   -4.7752   -2.4054   -0.0878 S   0  0  0  0  0  0  0  0  0  0  0  0
   -4.1134   -1.1806   -2.0571 C   0  0  0  0  0  0  0  0  0  0  0  0
   -5.1496   -1.9159   -1.6283 N   0  0  0  0  0  0  0  0  0  0  0  0
    0.5399   -2.5508   -0.8567 C   0  0  0  0  0  0  0  0  0  0  0  0
    1.7640   -2.2621   -1.4365 N   0  0  0  0  0  0  0  0  0  0  0  0
   -1.8002    0.3032   -2.6168 C   0  0  0  0  0  0  0  0  0  0  0  0
   -1.1127    0.5472    0.9689 O   0  0  0  0  0  0  0  0  0  0  0  0
    0.5512    0.5801   -0.9039 O   0  0  0  0  0  0  0  0  0  0  0  0
    2.4785   -3.1649   -2.2733 C   0  0  0  0  0  0  0  0  0  0  0  0
   -2.8444    0.1866   -3.5620 C   0  0  0  0  0  0  0  0  0  0  0  0
   -4.0157   -0.5524   -3.3224 C   0  0  0  0  0  0  0  0  0  0  0  0
   -0.0934   -3.5830   -1.0946 O   0  0  0  0  0  0  0  0  0  0  0  0
    3.8784   -3.3089   -2.1844 C   0  0  0  0  0  0  0  0  0  0  0  0
    4.7035   -2.7605   -1.2321 O   0  0  0  0  0  0  0  0  0  0  0  0
    1.8224   -3.8631   -3.2886 C   0  0  0  0  0  0  0  0  0  0  0  0
    4.5751   -4.0563   -3.1480 C   0  0  0  0  0  0  0  0  0  0  0  0
    4.2327   -2.7260    0.1099 C   0  0  0  0  0  0  0  0  0  0  0  0
    2.5122   -4.5977   -4.2575 C   0  0  0  0  0  0  0  0  0  0  0  0
    3.8977   -4.6838   -4.2021 C   0  0  0  0  0  0  0  0  0  0  0  0
    0.8759   -1.5100    0.9926 H   0  0  0  0  0  0  0  0  0  0  0  0
   -0.7421   -2.1752    0.7905 H   0  0  0  0  0  0  0  0  0  0  0  0
    2.2791   -1.4306   -1.1561 H   0  0  0  0  0  0  0  0  0  0  0  0
   -0.9385    0.9192   -2.8838 H   0  0  0  0  0  0  0  0  0  0  0  0
   -2.7391    0.6989   -4.5197 H   0  0  0  0  0  0  0  0  0  0  0  0
   -4.8084   -0.6323   -4.0569 H   0  0  0  0  0  0  0  0  0  0  0  0
    0.7287   -3.7949   -3.3992 H   0  0  0  0  0  0  0  0  0  0  0  0
    5.6539   -4.1557   -3.0851 H   0  0  0  0  0  0  0  0  0  0  0  0
    3.6284   -1.8316    0.2726 H   0  0  0  0  0  0  0  0  0  0  0  0
    3.6909   -3.6314    0.4053 H   0  0  0  0  0  0  0  0  0  0  0  0
    5.1037   -2.6277    0.7665 H   0  0  0  0  0  0  0  0  0  0  0  0
    1.9779   -5.0838   -5.0740 H   0  0  0  0  0  0  0  0  0  0  0  0
    4.4514   -5.2279   -4.9569 H   0  0  0  0  0  0  0  0  0  0  0  0
  2  1  1  0  0  0  0
  3  2  1  0  0  0  0
  4  3  2  0  0  0  0
  5  1  1  0  0  0  0
  5 25  1  0  0  0  0
  5 26  1  0  0  0  0
  6  4  1  0  0  0  0
  6  8  1  0  0  0  0
  7  3  1  0  0  0  0
  7 16  1  0  0  0  0
  8  7  2  0  0  0  0
  9  5  1  0  0  0  0
 10  9  1  0  0  0  0
 10 27  1  0  0  0  0
 11  2  2  0  0  0  0
 11 28  1  0  0  0  0
 12  1  2  0  0  0  0
 13  1  2  0  0  0  0
 14 10  1  0  0  0  0
 15 11  1  0  0  0  0
 15 29  1  0  0  0  0
 16 15  2  0  0  0  0
 16 30  1  0  0  0  0
 17  9  2  0  0  0  0
 18 14  2  0  0  0  0
 19 18  1  0  0  0  0
 20 14  1  0  0  0  0
 20 31  1  0  0  0  0
 21 18  1  0  0  0  0
 21 32  1  0  0  0  0
 22 19  1  0  0  0  0
 22 33  1  0  0  0  0
 22 34  1  0  0  0  0
 22 35  1  0  0  0  0
 23 20  2  0  0  0  0
 23 36  1  0  0  0  0
 24 23  1  0  0  0  0
 24 21  2  0  0  0  0
 24 37  1  0  0  0  0
M  END
>  <Mol_ID>
9313

>  <Formula>
C15H13N3O4S2

>  <MolWeight>
363.41142

>  <Cat>
P2591

>  <Name>
WAY-329609

>  <Synonyms>
N/A

>  <Target>
others

>  <Form>
free base

>  <CAS>
956963-03-4

>  <URL>
N/A

$$$$
