WAY-298000
 OpenBabel08302521403D

 24 25  0  0  0  0  0  0  0  0999 V2000
   -0.5844    0.0056   -2.7483 S   0  0  0  0  0  0  0  0  0  0  0  0
    0.0140   -0.8452   -1.5142 N   0  0  0  0  0  0  0  0  0  0  0  0
    1.1249   -0.4902   -0.9849 C   0  0  0  0  0  0  0  0  0  0  0  0
    1.8900    0.5982   -1.2425 N   0  0  0  0  0  0  0  0  0  0  0  0
    1.8641   -1.4741    0.2504 S   0  0  0  0  0  0  0  0  0  0  0  0
    3.1411    0.6428   -0.7002 C   0  0  0  0  0  0  0  0  0  0  0  0
    0.0682   -0.4184   -3.9702 O   0  0  0  0  0  0  0  0  0  0  0  0
   -0.5624    1.4128   -2.3813 O   0  0  0  0  0  0  0  0  0  0  0  0
   -2.2813   -0.5026   -2.8652 C   0  0  0  0  0  0  0  0  0  0  0  0
    3.9876    1.4638   -1.0279 O   0  0  0  0  0  0  0  0  0  0  0  0
    3.3629   -0.4542    0.3069 C   0  0  0  0  0  0  0  0  0  0  0  0
   -3.3065    0.4243   -2.6578 C   0  0  0  0  0  0  0  0  0  0  0  0
   -2.5722   -1.8257   -3.2143 C   0  0  0  0  0  0  0  0  0  0  0  0
   -3.9032   -2.2209   -3.3556 C   0  0  0  0  0  0  0  0  0  0  0  0
   -4.6340    0.0213   -2.8027 C   0  0  0  0  0  0  0  0  0  0  0  0
   -4.9308   -1.2973   -3.1530 C   0  0  0  0  0  0  0  0  0  0  0  0
    1.6191    1.3138   -1.9060 H   0  0  0  0  0  0  0  0  0  0  0  0
    4.2367   -1.0471    0.0267 H   0  0  0  0  0  0  0  0  0  0  0  0
    3.4901   -0.0191    1.3012 H   0  0  0  0  0  0  0  0  0  0  0  0
   -3.0847    1.4566   -2.3970 H   0  0  0  0  0  0  0  0  0  0  0  0
   -1.7735   -2.5434   -3.3884 H   0  0  0  0  0  0  0  0  0  0  0  0
   -4.1417   -3.2452   -3.6324 H   0  0  0  0  0  0  0  0  0  0  0  0
   -5.4389    0.7370   -2.6514 H   0  0  0  0  0  0  0  0  0  0  0  0
   -5.9671   -1.6050   -3.2742 H   0  0  0  0  0  0  0  0  0  0  0  0
  2  1  1  0  0  0  0
  3  2  2  0  0  0  0
  4  3  1  0  0  0  0
  4 17  1  0  0  0  0
  5  3  1  0  0  0  0
  6  4  1  0  0  0  0
  6 11  1  0  0  0  0
  7  1  2  0  0  0  0
  8  1  2  0  0  0  0
  9  1  1  0  0  0  0
 10  6  2  0  0  0  0
 11  5  1  0  0  0  0
 11 18  1  0  0  0  0
 11 19  1  0  0  0  0
 12  9  2  0  0  0  0
 12 20  1  0  0  0  0
 13  9  1  0  0  0  0
 13 21  1  0  0  0  0
 14 13  2  0  0  0  0
 14 22  1  0  0  0  0
 15 12  1  0  0  0  0
 15 16  2  0  0  0  0
 15 23  1  0  0  0  0
 16 14  1  0  0  0  0
 16 24  1  0  0  0  0
M  END
>  <Mol_ID>
8348

>  <Formula>
C9H8N2O3S2

>  <MolWeight>
256.30142

>  <Cat>
P2098

>  <Name>
WAY-298000

>  <Synonyms>
N/A

>  <Target>
Anti-infection

>  <Form>
free base

>  <CAS>
1804-39-3

>  <URL>
N/A

$$$$
