WAY-327956
 OpenBabel08302521443D

 54 57  0  0  0  0  0  0  0  0999 V2000
    0.2415    0.4133    0.3930 S   0  0  0  0  0  0  0  0  0  0  0  0
    0.3967   -4.1312    3.2187 C   0  0  0  0  0  0  0  0  0  0  0  0
    0.1124   -2.6593    3.0911 C   0  0  0  0  0  0  0  0  0  0  0  0
    0.0246   -0.5136    1.9059 C   0  0  0  0  0  0  0  0  0  0  0  0
    1.9215    0.3902    0.1436 N   0  0  0  0  0  0  0  0  0  0  0  0
   -0.7088   -2.6756    5.3842 N   0  0  0  0  0  0  0  0  0  0  0  0
   -0.4547   -3.9983    5.5513 C   0  0  0  0  0  0  0  0  0  0  0  0
   -0.4554   -1.9841    4.1980 C   0  0  0  0  0  0  0  0  0  0  0  0
    0.0889   -4.7260    4.3878 C   0  0  0  0  0  0  0  0  0  0  0  0
    0.9082   -5.0070    2.0813 C   0  0  0  0  0  0  0  0  0  0  0  0
    0.3496   -1.8852    1.9401 C   0  0  0  0  0  0  0  0  0  0  0  0
   -0.1459    1.7852    0.6408 O   0  0  0  0  0  0  0  0  0  0  0  0
   -0.3883   -0.3612   -0.6543 O   0  0  0  0  0  0  0  0  0  0  0  0
    1.4247   -6.2487    2.4072 N   0  0  0  0  0  0  0  0  0  0  0  0
   -0.5535    0.1187    3.0101 C   0  0  0  0  0  0  0  0  0  0  0  0
   -0.7884   -0.6223    4.1625 C   0  0  0  0  0  0  0  0  0  0  0  0
   -0.6661   -4.5807    6.6082 O   0  0  0  0  0  0  0  0  0  0  0  0
    0.8630   -4.6230    0.9170 O   0  0  0  0  0  0  0  0  0  0  0  0
    1.9353   -7.1944    1.4145 C   0  0  0  0  0  0  0  0  0  0  0  0
    0.9704   -8.3131    1.0682 C   0  0  0  0  0  0  0  0  0  0  0  0
   -0.8260  -10.3968    0.3992 C   0  0  0  0  0  0  0  0  0  0  0  0
   -0.4042   -8.0763    0.9582 C   0  0  0  0  0  0  0  0  0  0  0  0
    1.4405   -9.6017    0.7549 C   0  0  0  0  0  0  0  0  0  0  0  0
    0.5483  -10.6316    0.4151 C   0  0  0  0  0  0  0  0  0  0  0  0
   -1.2943   -9.1096    0.6412 C   0  0  0  0  0  0  0  0  0  0  0  0
    2.7636    1.1982    1.0678 C   0  0  0  0  0  0  0  0  0  0  0  0
    2.3077    0.7334   -1.2544 C   0  0  0  0  0  0  0  0  0  0  0  0
   -1.6212  -11.4655    0.0838 O   0  0  0  0  0  0  0  0  0  0  0  0
   -2.9063  -11.4579    0.7022 C   0  0  0  0  0  0  0  0  0  0  0  0
    3.4316    2.2455    0.1868 C   0  0  0  0  0  0  0  0  0  0  0  0
    3.5981    1.5259   -1.1351 C   0  0  0  0  0  0  0  0  0  0  0  0
   -1.1041   -2.1985    6.1843 H   0  0  0  0  0  0  0  0  0  0  0  0
    0.1840   -5.7846    4.5833 H   0  0  0  0  0  0  0  0  0  0  0  0
    0.7649   -2.3303    1.0379 H   0  0  0  0  0  0  0  0  0  0  0  0
    1.5060   -6.5497    3.3641 H   0  0  0  0  0  0  0  0  0  0  0  0
   -0.8432    1.1666    2.9739 H   0  0  0  0  0  0  0  0  0  0  0  0
   -1.2486   -0.1355    5.0204 H   0  0  0  0  0  0  0  0  0  0  0  0
    2.2358   -6.6692    0.5028 H   0  0  0  0  0  0  0  0  0  0  0  0
    2.8329   -7.6314    1.8693 H   0  0  0  0  0  0  0  0  0  0  0  0
   -0.8008   -7.0740    1.1010 H   0  0  0  0  0  0  0  0  0  0  0  0
    2.5061   -9.8225    0.7595 H   0  0  0  0  0  0  0  0  0  0  0  0
    0.9262  -11.6211    0.1679 H   0  0  0  0  0  0  0  0  0  0  0  0
   -2.3479   -8.8627    0.5612 H   0  0  0  0  0  0  0  0  0  0  0  0
    3.5138    0.5347    1.5133 H   0  0  0  0  0  0  0  0  0  0  0  0
    2.2035    1.6644    1.8831 H   0  0  0  0  0  0  0  0  0  0  0  0
    1.5400    1.3502   -1.7349 H   0  0  0  0  0  0  0  0  0  0  0  0
    2.4489   -0.1795   -1.8397 H   0  0  0  0  0  0  0  0  0  0  0  0
   -2.8149  -11.4078    1.7928 H   0  0  0  0  0  0  0  0  0  0  0  0
   -3.5354  -10.6443    0.3272 H   0  0  0  0  0  0  0  0  0  0  0  0
   -3.4110  -12.3960    0.4491 H   0  0  0  0  0  0  0  0  0  0  0  0
    2.7729    3.1133    0.0629 H   0  0  0  0  0  0  0  0  0  0  0  0
    4.3837    2.5958    0.5961 H   0  0  0  0  0  0  0  0  0  0  0  0
    3.7358    2.2134   -1.9750 H   0  0  0  0  0  0  0  0  0  0  0  0
    4.4614    0.8518   -1.0995 H   0  0  0  0  0  0  0  0  0  0  0  0
  2  3  1  0  0  0  0
  3 11  2  0  0  0  0
  4  1  1  0  0  0  0
  5  1  1  0  0  0  0
  6  8  1  0  0  0  0
  6 32  1  0  0  0  0
  7  6  1  0  0  0  0
  7  9  1  0  0  0  0
  8 16  2  0  0  0  0
  8  3  1  0  0  0  0
  9  2  2  0  0  0  0
  9 33  1  0  0  0  0
 10  2  1  0  0  0  0
 11  4  1  0  0  0  0
 11 34  1  0  0  0  0
 12  1  2  0  0  0  0
 13  1  2  0  0  0  0
 14 10  1  0  0  0  0
 14 35  1  0  0  0  0
 15  4  2  0  0  0  0
 15 36  1  0  0  0  0
 16 15  1  0  0  0  0
 16 37  1  0  0  0  0
 17  7  2  0  0  0  0
 18 10  2  0  0  0  0
 19 14  1  0  0  0  0
 19 38  1  0  0  0  0
 19 39  1  0  0  0  0
 20 19  1  0  0  0  0
 21 24  2  0  0  0  0
 21 25  1  0  0  0  0
 22 20  1  0  0  0  0
 22 40  1  0  0  0  0
 23 20  2  0  0  0  0
 23 41  1  0  0  0  0
 24 23  1  0  0  0  0
 24 42  1  0  0  0  0
 25 22  2  0  0  0  0
 25 43  1  0  0  0  0
 26  5  1  0  0  0  0
 26 44  1  0  0  0  0
 26 45  1  0  0  0  0
 27  5  1  0  0  0  0
 27 46  1  0  0  0  0
 27 47  1  0  0  0  0
 28 21  1  0  0  0  0
 29 28  1  0  0  0  0
 29 48  1  0  0  0  0
 29 49  1  0  0  0  0
 29 50  1  0  0  0  0
 30 26  1  0  0  0  0
 30 51  1  0  0  0  0
 30 52  1  0  0  0  0
 31 27  1  0  0  0  0
 31 30  1  0  0  0  0
 31 53  1  0  0  0  0
 31 54  1  0  0  0  0
M  END
>  <Mol_ID>
8994

>  <Formula>
C22H23N3O5S

>  <MolWeight>
441.50012

>  <Cat>
P2557

>  <Name>
WAY-327956

>  <Synonyms>
N/A

>  <Target>
caspase

>  <Form>
free base

>  <CAS>
687591-13-5

>  <URL>
N/A

$$$$
