WAY-323468
 OpenBabel08302521423D

 53 57  0  0  0  0  0  0  0  0999 V2000
   -1.2307    0.6037   -0.0045 C   0  0  0  0  0  0  0  0  0  0  0  0
   -1.2524   -0.7486    0.0241 C   0  0  0  0  0  0  0  0  0  0  0  0
   -3.6996   -0.8761    0.0294 C   0  0  0  0  0  0  0  0  0  0  0  0
   -2.4641    1.3073   -0.0786 N   0  0  0  0  0  0  0  0  0  0  0  0
   -0.0396    1.2913    0.0298 N   0  0  0  0  0  0  0  0  0  0  0  0
   -5.1353   -1.8359    0.1058 S   0  0  0  0  0  0  0  0  0  0  0  0
   -3.6996    0.6256   -0.0359 C   0  0  0  0  0  0  0  0  0  0  0  0
    0.0373   -1.4964    0.0306 C   0  0  0  0  0  0  0  0  0  0  0  0
    1.1886   -0.7307    0.0229 N   0  0  0  0  0  0  0  0  0  0  0  0
   -2.5038   -1.4864    0.0496 C   0  0  0  0  0  0  0  0  0  0  0  0
    1.0813    0.6473    0.0285 C   0  0  0  0  0  0  0  0  0  0  0  0
   -2.4490    2.7978   -0.0287 C   0  0  0  0  0  0  0  0  0  0  0  0
   -5.4980   -2.1497   -1.6137 C   0  0  0  0  0  0  0  0  0  0  0  0
   -4.8114    1.3025   -0.0413 N   0  0  0  0  0  0  0  0  0  0  0  0
   -4.8538   -3.1264    0.7098 O   0  0  0  0  0  0  0  0  0  0  0  0
   -6.2343   -1.0310    0.6128 O   0  0  0  0  0  0  0  0  0  0  0  0
    2.4314   -1.3523    0.0121 C   0  0  0  0  0  0  0  0  0  0  0  0
    0.0310   -2.7300    0.0262 O   0  0  0  0  0  0  0  0  0  0  0  0
    2.3496    1.4282    0.0210 C   0  0  0  0  0  0  0  0  0  0  0  0
    3.5705   -0.6488    0.0021 C   0  0  0  0  0  0  0  0  0  0  0  0
    3.5252    0.7892    0.0044 C   0  0  0  0  0  0  0  0  0  0  0  0
   -4.9644   -3.2797   -2.2424 C   0  0  0  0  0  0  0  0  0  0  0  0
   -6.3776   -1.3032   -2.2966 C   0  0  0  0  0  0  0  0  0  0  0  0
   -1.7894    3.4220   -1.2723 C   0  0  0  0  0  0  0  0  0  0  0  0
   -6.1341   -2.6742   -4.2717 C   0  0  0  0  0  0  0  0  0  0  0  0
   -5.2789   -3.5329   -3.5785 C   0  0  0  0  0  0  0  0  0  0  0  0
   -6.6892   -1.5665   -3.6301 C   0  0  0  0  0  0  0  0  0  0  0  0
   -1.7346    4.9356   -1.2612 C   0  0  0  0  0  0  0  0  0  0  0  0
   -0.5005    5.6040   -1.2022 C   0  0  0  0  0  0  0  0  0  0  0  0
   -2.9059    5.6968   -1.3676 C   0  0  0  0  0  0  0  0  0  0  0  0
   -2.8434    7.0911   -1.4273 C   0  0  0  0  0  0  0  0  0  0  0  0
   -0.4393    6.9986   -1.2648 C   0  0  0  0  0  0  0  0  0  0  0  0
   -1.6119    7.7419   -1.3810 C   0  0  0  0  0  0  0  0  0  0  0  0
   -2.4287   -2.5710    0.1178 H   0  0  0  0  0  0  0  0  0  0  0  0
   -3.4632    3.2025    0.0632 H   0  0  0  0  0  0  0  0  0  0  0  0
   -1.9319    3.1187    0.8850 H   0  0  0  0  0  0  0  0  0  0  0  0
   -5.6457    0.7087    0.0832 H   0  0  0  0  0  0  0  0  0  0  0  0
    2.4405   -2.4398    0.0107 H   0  0  0  0  0  0  0  0  0  0  0  0
    2.2711    2.5082    0.0183 H   0  0  0  0  0  0  0  0  0  0  0  0
    4.5357   -1.1437   -0.0071 H   0  0  0  0  0  0  0  0  0  0  0  0
    4.4613    1.3383   -0.0092 H   0  0  0  0  0  0  0  0  0  0  0  0
   -4.3192   -3.9712   -1.7047 H   0  0  0  0  0  0  0  0  0  0  0  0
   -6.8330   -0.4472   -1.8037 H   0  0  0  0  0  0  0  0  0  0  0  0
   -0.7657    3.0563   -1.3939 H   0  0  0  0  0  0  0  0  0  0  0  0
   -2.3161    3.0984   -2.1779 H   0  0  0  0  0  0  0  0  0  0  0  0
   -6.3799   -2.8757   -5.3120 H   0  0  0  0  0  0  0  0  0  0  0  0
   -4.8670   -4.4060   -4.0797 H   0  0  0  0  0  0  0  0  0  0  0  0
   -7.3722   -0.9124   -4.1672 H   0  0  0  0  0  0  0  0  0  0  0  0
    0.4277    5.0421   -1.1251 H   0  0  0  0  0  0  0  0  0  0  0  0
   -3.8758    5.2071   -1.4229 H   0  0  0  0  0  0  0  0  0  0  0  0
   -3.7583    7.6698   -1.5237 H   0  0  0  0  0  0  0  0  0  0  0  0
    0.5221    7.5044   -1.2346 H   0  0  0  0  0  0  0  0  0  0  0  0
   -1.5660    8.8263   -1.4433 H   0  0  0  0  0  0  0  0  0  0  0  0
  2  1  2  0  0  0  0
  3  7  1  0  0  0  0
  3 10  2  0  0  0  0
  4  1  1  0  0  0  0
  5  1  1  0  0  0  0
  6  3  1  0  0  0  0
  7  4  1  0  0  0  0
  8  2  1  0  0  0  0
  9 11  1  0  0  0  0
  9  8  1  0  0  0  0
 10  2  1  0  0  0  0
 10 34  1  0  0  0  0
 11  5  2  0  0  0  0
 12  4  1  0  0  0  0
 12 35  1  0  0  0  0
 12 36  1  0  0  0  0
 13  6  1  0  0  0  0
 14  7  2  0  0  0  0
 14 37  1  0  0  0  0
 15  6  2  0  0  0  0
 16  6  2  0  0  0  0
 17  9  1  0  0  0  0
 17 20  2  0  0  0  0
 17 38  1  0  0  0  0
 18  8  2  0  0  0  0
 19 11  1  0  0  0  0
 19 39  1  0  0  0  0
 20 21  1  0  0  0  0
 20 40  1  0  0  0  0
 21 19  2  0  0  0  0
 21 41  1  0  0  0  0
 22 13  2  0  0  0  0
 22 42  1  0  0  0  0
 23 13  1  0  0  0  0
 23 43  1  0  0  0  0
 24 12  1  0  0  0  0
 24 44  1  0  0  0  0
 24 45  1  0  0  0  0
 25 27  1  0  0  0  0
 25 26  2  0  0  0  0
 25 46  1  0  0  0  0
 26 22  1  0  0  0  0
 26 47  1  0  0  0  0
 27 23  2  0  0  0  0
 27 48  1  0  0  0  0
 28 24  1  0  0  0  0
 29 28  2  0  0  0  0
 29 49  1  0  0  0  0
 30 28  1  0  0  0  0
 30 50  1  0  0  0  0
 31 30  2  0  0  0  0
 31 51  1  0  0  0  0
 32 29  1  0  0  0  0
 32 52  1  0  0  0  0
 33 31  1  0  0  0  0
 33 32  2  0  0  0  0
 33 53  1  0  0  0  0
M  END
>  <Mol_ID>
8552

>  <Formula>
C25H19ClN4O3S

>  <MolWeight>
490.96136

>  <Cat>
P2266

>  <Name>
WAY-323468

>  <Synonyms>
N/A

>  <Target>
others

>  <Form>
free base

>  <CAS>
853596-29-9

>  <URL>
N/A

$$$$
