WAY-325909
 OpenBabel08302521433D

 45 47  0  0  0  0  0  0  0  0999 V2000
    2.0015    0.2781   -0.3320 C   0  0  0  0  0  0  0  0  0  0  0  0
    1.5035   -0.9468   -0.5745 N   0  0  0  0  0  0  0  0  0  0  0  0
    1.6140   -1.6150    0.5953 N   0  0  0  0  0  0  0  0  0  0  0  0
    2.5045    0.3555    0.9905 C   0  0  0  0  0  0  0  0  0  0  0  0
    2.0761   -0.8020    1.6062 C   0  0  0  0  0  0  0  0  0  0  0  0
    1.9710    1.3922   -1.3420 C   0  0  0  0  0  0  0  0  0  0  0  0
    1.3475   -3.0526    0.5682 C   0  0  0  0  0  0  0  0  0  0  0  0
   -0.1260   -3.3315    0.6756 C   0  0  0  0  0  0  0  0  0  0  0  0
   -0.9324   -3.5291   -0.4108 N   0  0  0  0  0  0  0  0  0  0  0  0
   -0.8742   -4.5522   -1.4812 C   0  0  3  0  0  0  0  0  0  0  0  0
   -0.6903   -3.2758    1.7739 O   0  0  0  0  0  0  0  0  0  0  0  0
    1.2893    1.0818   -2.4773 F   0  0  0  0  0  0  0  0  0  0  0  0
    1.3747    2.5055   -0.8292 F   0  0  0  0  0  0  0  0  0  0  0  0
    3.2202    1.7715   -1.7225 F   0  0  0  0  0  0  0  0  0  0  0  0
    0.0979   -4.3410   -2.6311 C   0  0  0  0  0  0  0  0  0  0  0  0
    3.2223    1.4648    1.6654 C   0  0  0  0  0  0  0  0  0  0  0  0
    2.1141   -1.0451    3.0739 C   0  0  0  0  0  0  0  0  0  0  0  0
   -1.0427   -5.9511   -0.8653 C   0  0  0  0  0  0  0  0  0  0  0  0
    0.5297   -5.4055   -3.4639 C   0  0  0  0  0  0  0  0  0  0  0  0
    0.3819   -3.0418   -3.0821 C   0  0  0  0  0  0  0  0  0  0  0  0
    3.4644    1.2037    3.1594 C   0  0  0  0  0  0  0  0  0  0  0  0
    2.4516    0.2635    3.8400 C   0  0  0  0  0  0  0  0  0  0  0  0
    1.1897   -5.1643   -4.6885 C   0  0  0  0  0  0  0  0  0  0  0  0
    1.0435   -2.7997   -4.2906 C   0  0  0  0  0  0  0  0  0  0  0  0
    1.4385   -3.8513   -5.0972 C   0  0  0  0  0  0  0  0  0  0  0  0
    1.7728   -3.4590   -0.3540 H   0  0  0  0  0  0  0  0  0  0  0  0
    1.8751   -3.5113    1.4126 H   0  0  0  0  0  0  0  0  0  0  0  0
   -1.8807   -3.4785   -0.0576 H   0  0  0  0  0  0  0  0  0  0  0  0
   -1.8350   -4.3856   -1.9924 H   0  0  0  0  0  0  0  0  0  0  0  0
    2.6725    2.4036    1.5306 H   0  0  0  0  0  0  0  0  0  0  0  0
    4.1982    1.6022    1.1787 H   0  0  0  0  0  0  0  0  0  0  0  0
    2.8468   -1.8204    3.3181 H   0  0  0  0  0  0  0  0  0  0  0  0
    1.1323   -1.3896    3.4211 H   0  0  0  0  0  0  0  0  0  0  0  0
   -0.2336   -6.2059   -0.1767 H   0  0  0  0  0  0  0  0  0  0  0  0
   -1.9776   -5.9760   -0.2881 H   0  0  0  0  0  0  0  0  0  0  0  0
   -1.1307   -6.7386   -1.6182 H   0  0  0  0  0  0  0  0  0  0  0  0
    0.3175   -6.4432   -3.2229 H   0  0  0  0  0  0  0  0  0  0  0  0
    0.0363   -2.1853   -2.5072 H   0  0  0  0  0  0  0  0  0  0  0  0
    3.4691    2.1704    3.6816 H   0  0  0  0  0  0  0  0  0  0  0  0
    4.4734    0.7934    3.2935 H   0  0  0  0  0  0  0  0  0  0  0  0
    2.8288    0.0072    4.8383 H   0  0  0  0  0  0  0  0  0  0  0  0
    1.5266    0.8310    4.0072 H   0  0  0  0  0  0  0  0  0  0  0  0
    1.4741   -5.9888   -5.3292 H   0  0  0  0  0  0  0  0  0  0  0  0
    1.2128   -1.7717   -4.6122 H   0  0  0  0  0  0  0  0  0  0  0  0
    1.9139   -3.6635   -6.0596 H   0  0  0  0  0  0  0  0  0  0  0  0
  2  1  2  0  0  0  0
  3  2  1  0  0  0  0
  4  1  1  0  0  0  0
  5  4  2  0  0  0  0
  5  3  1  0  0  0  0
  6  1  1  0  0  0  0
  7  3  1  0  0  0  0
  7 26  1  0  0  0  0
  7 27  1  0  0  0  0
  8  7  1  0  0  0  0
  9  8  1  0  0  0  0
  9 28  1  0  0  0  0
 10  9  1  0  0  0  0
 10 29  1  0  0  0  0
 11  8  2  0  0  0  0
 12  6  1  0  0  0  0
 13  6  1  0  0  0  0
 14  6  1  0  0  0  0
 15 10  1  0  0  0  0
 16  4  1  0  0  0  0
 16 30  1  0  0  0  0
 16 31  1  0  0  0  0
 17  5  1  0  0  0  0
 17 22  1  0  0  0  0
 17 32  1  0  0  0  0
 17 33  1  0  0  0  0
 18 10  1  0  0  0  0
 18 34  1  0  0  0  0
 18 35  1  0  0  0  0
 18 36  1  0  0  0  0
 19 15  2  0  0  0  0
 19 37  1  0  0  0  0
 20 15  1  0  0  0  0
 20 38  1  0  0  0  0
 21 16  1  0  0  0  0
 21 39  1  0  0  0  0
 21 40  1  0  0  0  0
 22 21  1  0  0  0  0
 22 41  1  0  0  0  0
 22 42  1  0  0  0  0
 23 19  1  0  0  0  0
 23 25  2  0  0  0  0
 23 43  1  0  0  0  0
 24 20  2  0  0  0  0
 24 44  1  0  0  0  0
 25 24  1  0  0  0  0
 25 45  1  0  0  0  0
M  END
>  <Mol_ID>
8857

>  <Formula>
C18H20F3N3O

>  <MolWeight>
351.3661096

>  <Cat>
P2435

>  <Name>
WAY-325909

>  <Synonyms>
N/A

>  <Target>
Trypanothione synthetase

>  <Form>
free base

>  <CAS>
868970-90-5

>  <URL>
N/A

$$$$
