WAY-311636
 OpenBabel08302521403D

 37 39  0  0  0  0  0  0  0  0999 V2000
   -0.0651    0.9142   -0.2363 N   0  0  0  0  0  0  0  0  0  0  0  0
    0.0232    2.3354   -0.1879 C   0  0  0  0  0  0  0  0  0  0  0  0
   -1.2384    0.2072   -0.0805 C   0  0  0  0  0  0  0  0  0  0  0  0
    0.9978    0.0749   -0.5012 C   0  0  0  0  0  0  0  0  0  0  0  0
   -0.9271    3.1039    0.5012 C   0  0  0  0  0  0  0  0  0  0  0  0
    1.0570    3.0197   -0.8486 C   0  0  0  0  0  0  0  0  0  0  0  0
   -0.9426   -1.2825   -0.1636 C   0  0  3  0  0  0  0  0  0  0  0  0
   -2.3762    0.6426    0.0497 O   0  0  0  0  0  0  0  0  0  0  0  0
    0.4857   -1.3210   -0.6788 C   0  0  0  0  0  0  0  0  0  0  0  0
    2.1826    0.3472   -0.6219 O   0  0  0  0  0  0  0  0  0  0  0  0
   -0.8389    4.5000    0.5445 C   0  0  0  0  0  0  0  0  0  0  0  0
    1.1383    4.4165   -0.8183 C   0  0  0  0  0  0  0  0  0  0  0  0
   -1.0967   -1.9511    1.1445 N   0  0  0  0  0  0  0  0  0  0  0  0
    0.1939    5.1556   -0.1161 C   0  0  0  0  0  0  0  0  0  0  0  0
   -2.5035   -1.9673    1.5904 C   0  0  0  0  0  0  0  0  0  0  0  0
   -2.6671   -2.8004    2.8417 C   0  0  0  0  0  0  0  0  0  0  0  0
   -1.9699   -2.4638    4.0115 C   0  0  0  0  0  0  0  0  0  0  0  0
   -3.5127   -3.9190    2.8576 C   0  0  0  0  0  0  0  0  0  0  0  0
   -2.0512   -3.2736    5.1446 C   0  0  0  0  0  0  0  0  0  0  0  0
   -3.5995   -4.7242    3.9956 C   0  0  0  0  0  0  0  0  0  0  0  0
   -2.8505   -4.4146    5.1295 C   0  0  0  0  0  0  0  0  0  0  0  0
   -1.7424    2.6397    1.0504 H   0  0  0  0  0  0  0  0  0  0  0  0
    1.8046    2.4913   -1.4325 H   0  0  0  0  0  0  0  0  0  0  0  0
   -1.5990   -1.7491   -0.9061 H   0  0  0  0  0  0  0  0  0  0  0  0
    1.1271   -2.0401   -0.1614 H   0  0  0  0  0  0  0  0  0  0  0  0
    0.5028   -1.5455   -1.7531 H   0  0  0  0  0  0  0  0  0  0  0  0
   -1.5801    5.0706    1.0995 H   0  0  0  0  0  0  0  0  0  0  0  0
    1.9415    4.9201   -1.3501 H   0  0  0  0  0  0  0  0  0  0  0  0
   -0.7912   -2.9237    1.0715 H   0  0  0  0  0  0  0  0  0  0  0  0
    0.2622    6.2396   -0.0847 H   0  0  0  0  0  0  0  0  0  0  0  0
   -2.8614   -0.9596    1.8225 H   0  0  0  0  0  0  0  0  0  0  0  0
   -3.1392   -2.3760    0.7950 H   0  0  0  0  0  0  0  0  0  0  0  0
   -1.3452   -1.5730    4.0326 H   0  0  0  0  0  0  0  0  0  0  0  0
   -4.1057   -4.1767    1.9832 H   0  0  0  0  0  0  0  0  0  0  0  0
   -1.4819   -3.0182    6.0342 H   0  0  0  0  0  0  0  0  0  0  0  0
   -4.2447   -5.5990    3.9948 H   0  0  0  0  0  0  0  0  0  0  0  0
   -2.8924   -5.0598    6.0029 H   0  0  0  0  0  0  0  0  0  0  0  0
  1  2  1  0  0  0  0
  1  3  1  0  0  0  0
  1  4  1  0  0  0  0
  2  5  2  0  0  0  0
  2  6  1  0  0  0  0
  3  7  1  0  0  0  0
  3  8  2  0  0  0  0
  4  9  1  0  0  0  0
  4 10  2  0  0  0  0
  5 11  1  0  0  0  0
  5 22  1  0  0  0  0
  6 12  2  0  0  0  0
  6 23  1  0  0  0  0
  7 13  1  0  0  0  0
  7  9  1  0  0  0  0
  7 24  1  0  0  0  0
  9 25  1  0  0  0  0
  9 26  1  0  0  0  0
 11 14  2  0  0  0  0
 11 27  1  0  0  0  0
 12 14  1  0  0  0  0
 12 28  1  0  0  0  0
 13 15  1  0  0  0  0
 13 29  1  0  0  0  0
 14 30  1  0  0  0  0
 15 16  1  0  0  0  0
 15 31  1  0  0  0  0
 15 32  1  0  0  0  0
 16 17  2  0  0  0  0
 16 18  1  0  0  0  0
 17 19  1  0  0  0  0
 17 33  1  0  0  0  0
 18 20  2  0  0  0  0
 18 34  1  0  0  0  0
 19 21  2  0  0  0  0
 19 35  1  0  0  0  0
 20 21  1  0  0  0  0
 20 36  1  0  0  0  0
 21 37  1  0  0  0  0
M  END
>  <Mol_ID>
8300

>  <Formula>
C17H16N2O2

>  <MolWeight>
280.32114

>  <Cat>
P2211

>  <Name>
WAY-311636

>  <Synonyms>
N/A

>  <Target>
others

>  <Form>
free base

>  <CAS>
7685-88-3

>  <URL>
N/A

$$$$
