WAY-658459
 OpenBabel08302521433D

 53 56  0  0  0  0  0  0  0  0999 V2000
    0.2776   -1.2139    0.0019 C   0  0  0  0  0  0  0  0  0  0  0  0
    1.4478   -0.6062    0.0092 N   0  0  0  0  0  0  0  0  0  0  0  0
    1.3123    0.7685   -0.0098 C   0  0  0  0  0  0  0  0  0  0  0  0
   -1.0606   -0.1211    0.0366 S   0  0  0  0  0  0  0  0  0  0  0  0
    0.0008    1.2414    0.0387 C   0  0  0  0  0  0  0  0  0  0  0  0
    0.1637   -2.5743   -0.0787 N   0  0  0  0  0  0  0  0  0  0  0  0
    2.5155    1.6070   -0.0445 C   0  0  0  0  0  0  0  0  0  0  0  0
   -0.5577    2.6095    0.0981 C   0  0  0  0  0  0  0  0  0  0  0  0
    0.1492   -5.4914    0.1547 N   0  0  0  0  0  0  0  0  0  0  0  0
   -1.0310   -3.2718    0.4300 C   0  0  0  0  0  0  0  0  0  0  0  0
    1.4142   -3.3318    0.1279 C   0  0  0  0  0  0  0  0  0  0  0  0
    2.5415    2.8067   -0.7583 C   0  0  0  0  0  0  0  0  0  0  0  0
    3.6574    1.2324    0.6699 C   0  0  0  0  0  0  0  0  0  0  0  0
    0.0859    3.6053    0.8529 C   0  0  0  0  0  0  0  0  0  0  0  0
   -1.6777    2.9912   -0.6573 C   0  0  0  0  0  0  0  0  0  0  0  0
    1.2871   -4.7589   -0.4362 C   0  0  0  0  0  0  0  0  0  0  0  0
   -1.0906   -4.7273   -0.1096 C   0  0  0  0  0  0  0  0  0  0  0  0
   -1.4312    5.3023    0.0478 C   0  0  0  0  0  0  0  0  0  0  0  0
    4.7193    3.3580    0.1341 C   0  0  0  0  0  0  0  0  0  0  0  0
   -2.1123    4.3235   -0.6749 C   0  0  0  0  0  0  0  0  0  0  0  0
    3.6029    3.7090   -0.6217 C   0  0  0  0  0  0  0  0  0  0  0  0
   -0.3129    4.9434    0.7912 C   0  0  0  0  0  0  0  0  0  0  0  0
    4.7570    2.1067    0.7540 C   0  0  0  0  0  0  0  0  0  0  0  0
    5.8220    4.1464    0.3246 O   0  0  0  0  0  0  0  0  0  0  0  0
   -1.9151    6.5767   -0.0638 O   0  0  0  0  0  0  0  0  0  0  0  0
    0.0657   -6.8382   -0.4028 C   0  0  0  0  0  0  0  0  0  0  0  0
   -1.6576    7.4148    1.0603 C   0  0  0  0  0  0  0  0  0  0  0  0
    5.7808    5.4417   -0.2654 C   0  0  0  0  0  0  0  0  0  0  0  0
   -1.0087   -3.2889    1.5274 H   0  0  0  0  0  0  0  0  0  0  0  0
   -1.9552   -2.7747    0.1196 H   0  0  0  0  0  0  0  0  0  0  0  0
    1.6470   -3.3712    1.2004 H   0  0  0  0  0  0  0  0  0  0  0  0
    2.2597   -2.8531   -0.3821 H   0  0  0  0  0  0  0  0  0  0  0  0
    1.6971    3.1095   -1.3815 H   0  0  0  0  0  0  0  0  0  0  0  0
    3.6952    0.2852    1.1929 H   0  0  0  0  0  0  0  0  0  0  0  0
    0.9572    3.3636    1.4581 H   0  0  0  0  0  0  0  0  0  0  0  0
   -2.2172    2.2655   -1.2619 H   0  0  0  0  0  0  0  0  0  0  0  0
    2.2227   -5.2934   -0.2268 H   0  0  0  0  0  0  0  0  0  0  0  0
    1.1801   -4.7011   -1.5288 H   0  0  0  0  0  0  0  0  0  0  0  0
   -1.2915   -4.6938   -1.1892 H   0  0  0  0  0  0  0  0  0  0  0  0
   -1.9407   -5.2347    0.3646 H   0  0  0  0  0  0  0  0  0  0  0  0
   -2.9841    4.5976   -1.2631 H   0  0  0  0  0  0  0  0  0  0  0  0
    3.5085    4.6712   -1.1075 H   0  0  0  0  0  0  0  0  0  0  0  0
    0.2898    5.6795    1.3124 H   0  0  0  0  0  0  0  0  0  0  0  0
    5.6373    1.8109    1.3236 H   0  0  0  0  0  0  0  0  0  0  0  0
   -0.7556   -7.3946    0.0533 H   0  0  0  0  0  0  0  0  0  0  0  0
   -0.0721   -6.8348   -1.4878 H   0  0  0  0  0  0  0  0  0  0  0  0
    0.9874   -7.3975   -0.1774 H   0  0  0  0  0  0  0  0  0  0  0  0
   -1.9899    6.9399    1.9902 H   0  0  0  0  0  0  0  0  0  0  0  0
   -0.5998    7.6908    1.1174 H   0  0  0  0  0  0  0  0  0  0  0  0
   -2.2314    8.3373    0.9307 H   0  0  0  0  0  0  0  0  0  0  0  0
    5.5857    5.3914   -1.3429 H   0  0  0  0  0  0  0  0  0  0  0  0
    5.0376    6.0728    0.2375 H   0  0  0  0  0  0  0  0  0  0  0  0
    6.7614    5.9060   -0.1358 H   0  0  0  0  0  0  0  0  0  0  0  0
  2  1  2  0  0  0  0
  3  2  1  0  0  0  0
  4  1  1  0  0  0  0
  5  4  1  0  0  0  0
  5  3  2  0  0  0  0
  6  1  1  0  0  0  0
  7  3  1  0  0  0  0
  8  5  1  0  0  0  0
  9 16  1  0  0  0  0
  9 17  1  0  0  0  0
 10  6  1  0  0  0  0
 10 29  1  0  0  0  0
 10 30  1  0  0  0  0
 11  6  1  0  0  0  0
 11 31  1  0  0  0  0
 11 32  1  0  0  0  0
 12  7  2  0  0  0  0
 12 33  1  0  0  0  0
 13  7  1  0  0  0  0
 13 34  1  0  0  0  0
 14  8  2  0  0  0  0
 14 35  1  0  0  0  0
 15  8  1  0  0  0  0
 15 36  1  0  0  0  0
 16 11  1  0  0  0  0
 16 37  1  0  0  0  0
 16 38  1  0  0  0  0
 17 10  1  0  0  0  0
 17 39  1  0  0  0  0
 17 40  1  0  0  0  0
 18 20  1  0  0  0  0
 18 22  2  0  0  0  0
 19 23  1  0  0  0  0
 20 15  2  0  0  0  0
 20 41  1  0  0  0  0
 21 12  1  0  0  0  0
 21 19  2  0  0  0  0
 21 42  1  0  0  0  0
 22 14  1  0  0  0  0
 22 43  1  0  0  0  0
 23 13  2  0  0  0  0
 23 44  1  0  0  0  0
 24 19  1  0  0  0  0
 25 18  1  0  0  0  0
 26  9  1  0  0  0  0
 26 45  1  0  0  0  0
 26 46  1  0  0  0  0
 26 47  1  0  0  0  0
 27 25  1  0  0  0  0
 27 48  1  0  0  0  0
 27 49  1  0  0  0  0
 27 50  1  0  0  0  0
 28 24  1  0  0  0  0
 28 51  1  0  0  0  0
 28 52  1  0  0  0  0
 28 53  1  0  0  0  0
M  END
>  <Mol_ID>
8823

>  <Formula>
C22H25N3O2S

>  <MolWeight>
395.5178

>  <Cat>
P3169

>  <Name>
WAY-658459

>  <Synonyms>
N/A

>  <Target>
antiinflammatory

>  <Form>
free base

>  <CAS>
130717-29-2

>  <URL>
N/A

$$$$
