WAY-607108
 OpenBabel08302521433D

 34 35  0  0  0  0  0  0  0  0999 V2000
    0.0293    0.1881    0.1907 C   0  0  0  0  0  0  0  0  0  0  0  0
   -0.9987    1.0145   -0.3477 O   0  0  0  0  0  0  0  0  0  0  0  0
   -0.5620   -0.8452    0.9824 O   0  0  0  0  0  0  0  0  0  0  0  0
   -2.2361    0.3135   -0.1210 C   0  0  3  0  0  0  0  0  0  0  0  0
   -1.8296   -1.0650    0.3572 C   0  0  0  0  0  0  0  0  0  0  0  0
   -4.3244   -0.4358   -1.3377 N   0  0  0  0  0  0  0  0  0  0  0  0
   -7.2851   -0.6944   -1.6516 N   0  0  0  0  0  0  0  0  0  0  0  0
    1.0492    0.9838    1.0055 C   0  0  0  0  0  0  0  0  0  0  0  0
    0.8665   -0.4165   -0.9379 C   0  0  0  0  0  0  0  0  0  0  0  0
   -3.0642    0.3121   -1.4153 C   0  0  0  0  0  0  0  0  0  0  0  0
   -5.0080   -0.3864   -2.6463 C   0  0  0  0  0  0  0  0  0  0  0  0
   -6.3352   -1.1711   -2.6594 C   0  0  0  0  0  0  0  0  0  0  0  0
    2.1535   -0.8137   -0.2361 C   0  0  0  0  0  0  0  0  0  0  0  0
    2.4100    0.3258    0.7418 C   0  0  0  0  0  0  0  0  0  0  0  0
   -2.7675    0.8502    0.6744 H   0  0  0  0  0  0  0  0  0  0  0  0
   -2.5350   -1.4919    1.0753 H   0  0  0  0  0  0  0  0  0  0  0  0
   -1.6926   -1.7786   -0.4624 H   0  0  0  0  0  0  0  0  0  0  0  0
   -4.9436    0.0158   -0.6622 H   0  0  0  0  0  0  0  0  0  0  0  0
   -8.1645   -1.2002   -1.7680 H   0  0  0  0  0  0  0  0  0  0  0  0
   -6.9362   -0.9655   -0.7334 H   0  0  0  0  0  0  0  0  0  0  0  0
    0.8194    0.9693    2.0780 H   0  0  0  0  0  0  0  0  0  0  0  0
    1.0819    2.0328    0.6903 H   0  0  0  0  0  0  0  0  0  0  0  0
    1.0618    0.3288   -1.7182 H   0  0  0  0  0  0  0  0  0  0  0  0
    0.3930   -1.2816   -1.4114 H   0  0  0  0  0  0  0  0  0  0  0  0
   -3.2624    1.3579   -1.6929 H   0  0  0  0  0  0  0  0  0  0  0  0
   -2.4378   -0.0950   -2.2206 H   0  0  0  0  0  0  0  0  0  0  0  0
   -5.2164    0.6579   -2.9130 H   0  0  0  0  0  0  0  0  0  0  0  0
   -4.3585   -0.8062   -3.4240 H   0  0  0  0  0  0  0  0  0  0  0  0
   -6.7890   -1.0698   -3.6510 H   0  0  0  0  0  0  0  0  0  0  0  0
   -6.1411   -2.2378   -2.4936 H   0  0  0  0  0  0  0  0  0  0  0  0
    2.9810   -0.9551   -0.9373 H   0  0  0  0  0  0  0  0  0  0  0  0
    2.0127   -1.7527    0.3122 H   0  0  0  0  0  0  0  0  0  0  0  0
    2.8769   -0.0381    1.6630 H   0  0  0  0  0  0  0  0  0  0  0  0
    3.0945    1.0587    0.2975 H   0  0  0  0  0  0  0  0  0  0  0  0
  2  1  1  0  0  0  0
  3  1  1  0  0  0  0
  4  2  1  0  0  0  0
  4 15  1  0  0  0  0
  5  3  1  0  0  0  0
  5  4  1  0  0  0  0
  5 16  1  0  0  0  0
  5 17  1  0  0  0  0
  6 10  1  0  0  0  0
  6 18  1  0  0  0  0
  7 12  1  0  0  0  0
  7 19  1  0  0  0  0
  7 20  1  0  0  0  0
  8  1  1  0  0  0  0
  8 21  1  0  0  0  0
  8 22  1  0  0  0  0
  9  1  1  0  0  0  0
  9 23  1  0  0  0  0
  9 24  1  0  0  0  0
 10  4  1  0  0  0  0
 10 25  1  0  0  0  0
 10 26  1  0  0  0  0
 11  6  1  0  0  0  0
 11 27  1  0  0  0  0
 11 28  1  0  0  0  0
 12 11  1  0  0  0  0
 12 29  1  0  0  0  0
 12 30  1  0  0  0  0
 13  9  1  0  0  0  0
 13 31  1  0  0  0  0
 13 32  1  0  0  0  0
 14  8  1  0  0  0  0
 14 13  1  0  0  0  0
 14 33  1  0  0  0  0
 14 34  1  0  0  0  0
M  END
>  <Mol_ID>
8720

>  <Formula>
C10H20N2O2

>  <MolWeight>
200.278

>  <Cat>
P2879

>  <Name>
WAY-607108

>  <Synonyms>
N/A

>  <Target>
fat metab,Apobec-1

>  <Form>
free base

>  <CAS>
247109-17-7

>  <URL>
N/A

$$$$
