WAY-323753
 OpenBabel08302521423D

 49 52  0  0  0  0  0  0  0  0999 V2000
   -0.1738   -0.7901    0.0025 C   0  0  0  0  0  0  0  0  0  0  0  0
   -0.4637    0.5408   -0.0111 C   0  0  0  0  0  0  0  0  0  0  0  0
   -1.2804   -1.5645    0.0001 N   0  0  0  0  0  0  0  0  0  0  0  0
   -1.8413    0.5972   -0.0385 N   0  0  0  0  0  0  0  0  0  0  0  0
    1.1114   -1.2699    0.0103 N   0  0  0  0  0  0  0  0  0  0  0  0
    1.8480    1.0007   -0.0053 N   0  0  0  0  0  0  0  0  0  0  0  0
   -2.2829   -0.7101   -0.0563 C   0  0  0  0  0  0  0  0  0  0  0  0
    2.1727   -0.3707   -0.0053 C   0  0  0  0  0  0  0  0  0  0  0  0
    0.5491    1.5394   -0.0030 C   0  0  0  0  0  0  0  0  0  0  0  0
   -2.6796    1.7856    0.0066 C   0  0  0  0  0  0  0  0  0  0  0  0
   -3.5666   -1.0686   -0.1492 O   0  0  0  0  0  0  0  0  0  0  0  0
   -2.9901    2.3478   -1.3615 C   0  0  0  0  0  0  0  0  0  0  0  0
    3.3456   -0.7606   -0.0084 O   0  0  0  0  0  0  0  0  0  0  0  0
    0.3068    2.7418    0.0182 O   0  0  0  0  0  0  0  0  0  0  0  0
   -3.7486    1.6210   -2.2927 C   0  0  0  0  0  0  0  0  0  0  0  0
   -3.0771   -5.3725   -4.4281 N   0  0  0  0  0  0  0  0  0  0  0  0
   -3.8841   -2.3030   -0.6821 C   0  0  0  0  0  0  0  0  0  0  0  0
    1.3422   -2.7050    0.0082 C   0  0  0  0  0  0  0  0  0  0  0  0
    2.9395    1.9550   -0.0056 C   0  0  0  0  0  0  0  0  0  0  0  0
   -2.7581   -4.5956   -3.4337 C   0  0  0  0  0  0  0  0  0  0  0  0
   -3.2133   -2.8314   -1.7932 C   0  0  0  0  0  0  0  0  0  0  0  0
   -3.5822   -4.0737   -2.3195 C   0  0  0  0  0  0  0  0  0  0  0  0
   -4.4348   -5.6912   -4.4640 O   0  0  0  0  0  0  0  0  0  0  0  0
   -2.5665    3.6398   -1.7122 C   0  0  0  0  0  0  0  0  0  0  0  0
   -5.3105   -4.2541   -0.6395 C   0  0  0  0  0  0  0  0  0  0  0  0
   -4.9424   -3.0096   -0.1143 C   0  0  0  0  0  0  0  0  0  0  0  0
   -4.0434    2.1546   -3.5493 C   0  0  0  0  0  0  0  0  0  0  0  0
   -4.6289   -4.7889   -1.7372 C   0  0  0  0  0  0  0  0  0  0  0  0
   -2.8724    4.1770   -2.9664 C   0  0  0  0  0  0  0  0  0  0  0  0
   -3.6023    3.4305   -3.8879 C   0  0  0  0  0  0  0  0  0  0  0  0
   -3.6097    1.5315    0.5262 H   0  0  0  0  0  0  0  0  0  0  0  0
   -2.1676    2.5244    0.6337 H   0  0  0  0  0  0  0  0  0  0  0  0
   -4.1291    0.6320   -2.0522 H   0  0  0  0  0  0  0  0  0  0  0  0
    0.8798   -3.1412    0.8985 H   0  0  0  0  0  0  0  0  0  0  0  0
    0.8874   -3.1376   -0.8881 H   0  0  0  0  0  0  0  0  0  0  0  0
    2.4090   -2.9475    0.0118 H   0  0  0  0  0  0  0  0  0  0  0  0
    2.8581    2.5895   -0.8939 H   0  0  0  0  0  0  0  0  0  0  0  0
    2.8587    2.5879    0.8836 H   0  0  0  0  0  0  0  0  0  0  0  0
    3.9233    1.4752   -0.0060 H   0  0  0  0  0  0  0  0  0  0  0  0
   -1.7054   -4.2593   -3.4217 H   0  0  0  0  0  0  0  0  0  0  0  0
   -2.3901   -2.2804   -2.2441 H   0  0  0  0  0  0  0  0  0  0  0  0
   -4.4980   -6.2287   -5.2764 H   0  0  0  0  0  0  0  0  0  0  0  0
   -1.9936    4.2449   -1.0108 H   0  0  0  0  0  0  0  0  0  0  0  0
   -6.1230   -4.8155   -0.1854 H   0  0  0  0  0  0  0  0  0  0  0  0
   -5.4693   -2.6093    0.7472 H   0  0  0  0  0  0  0  0  0  0  0  0
   -4.6224    1.5728   -4.2625 H   0  0  0  0  0  0  0  0  0  0  0  0
   -4.9081   -5.7685   -2.1108 H   0  0  0  0  0  0  0  0  0  0  0  0
   -2.5396    5.1796   -3.2248 H   0  0  0  0  0  0  0  0  0  0  0  0
   -3.8317    3.8438   -4.8667 H   0  0  0  0  0  0  0  0  0  0  0  0
  2  1  2  0  0  0  0
  3  1  1  0  0  0  0
  4  2  1  0  0  0  0
  5  1  1  0  0  0  0
  6  8  1  0  0  0  0
  7  3  2  0  0  0  0
  7  4  1  0  0  0  0
  8  5  1  0  0  0  0
  9  2  1  0  0  0  0
  9  6  1  0  0  0  0
 10  4  1  0  0  0  0
 10 31  1  0  0  0  0
 10 32  1  0  0  0  0
 11  7  1  0  0  0  0
 12 10  1  0  0  0  0
 13  8  2  0  0  0  0
 14  9  2  0  0  0  0
 15 12  2  0  0  0  0
 15 33  1  0  0  0  0
 16 20  2  0  0  0  0
 17 11  1  0  0  0  0
 18  5  1  0  0  0  0
 18 34  1  0  0  0  0
 18 35  1  0  0  0  0
 18 36  1  0  0  0  0
 19  6  1  0  0  0  0
 19 37  1  0  0  0  0
 19 38  1  0  0  0  0
 19 39  1  0  0  0  0
 20 22  1  0  0  0  0
 20 40  1  0  0  0  0
 21 17  2  0  0  0  0
 21 41  1  0  0  0  0
 22 21  1  0  0  0  0
 22 28  2  0  0  0  0
 23 16  1  0  0  0  0
 23 42  1  0  0  0  0
 24 12  1  0  0  0  0
 24 43  1  0  0  0  0
 25 26  2  0  0  0  0
 25 44  1  0  0  0  0
 26 17  1  0  0  0  0
 26 45  1  0  0  0  0
 27 15  1  0  0  0  0
 27 30  2  0  0  0  0
 27 46  1  0  0  0  0
 28 25  1  0  0  0  0
 28 47  1  0  0  0  0
 29 24  2  0  0  0  0
 29 48  1  0  0  0  0
 30 29  1  0  0  0  0
 30 49  1  0  0  0  0
M  END
>  <Mol_ID>
8585

>  <Formula>
C21H18ClN5O4

>  <MolWeight>
439.85172

>  <Cat>
P2277

>  <Name>
WAY-323753

>  <Synonyms>
N/A

>  <Target>
PDE5

>  <Form>
free base

>  <CAS>
854135-23-2

>  <URL>
N/A

$$$$
