WAY-605030
 OpenBabel08302521413D

 39 41  0  0  0  0  0  0  0  0999 V2000
    2.5261   -0.7232    0.0454 C   0  0  0  0  0  0  0  0  0  0  0  0
    1.2789   -1.5262    0.0215 C   0  0  0  0  0  0  0  0  0  0  0  0
    2.4360    0.6223    0.0414 C   0  0  0  0  0  0  0  0  0  0  0  0
   -0.0052   -0.7854    0.0375 C   0  0  0  0  0  0  0  0  0  0  0  0
    0.0552    0.6095    0.0400 C   0  0  0  0  0  0  0  0  0  0  0  0
    1.2346    1.3134    0.0478 O   0  0  0  0  0  0  0  0  0  0  0  0
   -1.2580   -1.4262    0.0214 C   0  0  0  0  0  0  0  0  0  0  0  0
   -1.1153    1.3813    0.0266 C   0  0  0  0  0  0  0  0  0  0  0  0
    3.8131   -1.4258   -0.0020 C   0  0  0  0  0  0  0  0  0  0  0  0
    1.3190   -2.7496   -0.0536 O   0  0  0  0  0  0  0  0  0  0  0  0
   -2.4221   -0.6375    0.0072 C   0  0  0  0  0  0  0  0  0  0  0  0
    4.4076   -1.6938    1.1853 N   0  0  0  0  0  0  0  0  0  0  0  0
   -2.3586    0.7578    0.0074 C   0  0  0  0  0  0  0  0  0  0  0  0
    3.6160    1.5550    0.0083 C   0  0  0  0  0  0  0  0  0  0  0  0
   -3.5775    1.3794   -0.0128 O   0  0  0  0  0  0  0  0  0  0  0  0
   -1.4103   -2.9235    0.0141 C   0  0  0  0  0  0  0  0  0  0  0  0
    5.6098   -2.3105    1.1393 C   0  0  0  0  0  0  0  0  0  0  0  0
    4.3960   -1.7272   -1.2303 C   0  0  0  0  0  0  0  0  0  0  0  0
   -3.5884    2.8062   -0.0162 C   0  0  0  0  0  0  0  0  0  0  0  0
   -5.0370    3.2658   -0.0334 C   0  0  0  0  0  0  0  0  0  0  0  0
    6.2712   -2.6270   -0.0365 C   0  0  0  0  0  0  0  0  0  0  0  0
    5.6513   -2.3237   -1.2443 C   0  0  0  0  0  0  0  0  0  0  0  0
   -1.0179    2.4626    0.0213 H   0  0  0  0  0  0  0  0  0  0  0  0
   -3.4020   -1.1127   -0.0061 H   0  0  0  0  0  0  0  0  0  0  0  0
    3.5494    2.2031   -0.8724 H   0  0  0  0  0  0  0  0  0  0  0  0
    3.6213    2.1874    0.9013 H   0  0  0  0  0  0  0  0  0  0  0  0
    4.5829    1.0461   -0.0394 H   0  0  0  0  0  0  0  0  0  0  0  0
   -0.9602   -3.3496   -0.8891 H   0  0  0  0  0  0  0  0  0  0  0  0
   -0.9517   -3.3589    0.9074 H   0  0  0  0  0  0  0  0  0  0  0  0
   -2.4639   -3.2229    0.0165 H   0  0  0  0  0  0  0  0  0  0  0  0
    6.0449   -2.5479    2.1058 H   0  0  0  0  0  0  0  0  0  0  0  0
    3.8879   -1.4932   -2.1600 H   0  0  0  0  0  0  0  0  0  0  0  0
   -3.1022    3.1917    0.8865 H   0  0  0  0  0  0  0  0  0  0  0  0
   -3.0825    3.1866   -0.9104 H   0  0  0  0  0  0  0  0  0  0  0  0
   -5.5567    2.8760   -0.9149 H   0  0  0  0  0  0  0  0  0  0  0  0
   -5.5727    2.8892    0.8443 H   0  0  0  0  0  0  0  0  0  0  0  0
   -5.0985    4.3577   -0.0418 H   0  0  0  0  0  0  0  0  0  0  0  0
    7.2460   -3.1014   -0.0124 H   0  0  0  0  0  0  0  0  0  0  0  0
    6.1371   -2.5576   -2.1862 H   0  0  0  0  0  0  0  0  0  0  0  0
  2  1  1  0  0  0  0
  3  1  2  0  0  0  0
  4  2  1  0  0  0  0
  5  6  1  0  0  0  0
  5  4  2  0  0  0  0
  6  3  1  0  0  0  0
  7  4  1  0  0  0  0
  8  5  1  0  0  0  0
  8 23  1  0  0  0  0
  9  1  1  0  0  0  0
 10  2  2  0  0  0  0
 11  7  2  0  0  0  0
 11 13  1  0  0  0  0
 11 24  1  0  0  0  0
 12  9  2  0  0  0  0
 13  8  2  0  0  0  0
 14  3  1  0  0  0  0
 14 25  1  0  0  0  0
 14 26  1  0  0  0  0
 14 27  1  0  0  0  0
 15 13  1  0  0  0  0
 16  7  1  0  0  0  0
 16 28  1  0  0  0  0
 16 29  1  0  0  0  0
 16 30  1  0  0  0  0
 17 12  1  0  0  0  0
 17 31  1  0  0  0  0
 18  9  1  0  0  0  0
 18 32  1  0  0  0  0
 19 15  1  0  0  0  0
 19 33  1  0  0  0  0
 19 34  1  0  0  0  0
 20 19  1  0  0  0  0
 20 35  1  0  0  0  0
 20 36  1  0  0  0  0
 20 37  1  0  0  0  0
 21 22  1  0  0  0  0
 21 17  2  0  0  0  0
 21 38  1  0  0  0  0
 22 18  2  0  0  0  0
 22 39  1  0  0  0  0
M  END
>  <Mol_ID>
8463

>  <Formula>
C18H17NO3

>  <MolWeight>
295.33248

>  <Cat>
P2845

>  <Name>
WAY-605030

>  <Synonyms>
N/A

>  <Target>
Androgen Receptor

>  <Form>
free base

>  <CAS>
380160-70-3

>  <URL>
N/A

$$$$
