WAY-325416
 OpenBabel08302521433D

 45 47  0  0  0  0  0  0  0  0999 V2000
    1.6653    0.1536   -0.1707 C   0  0  0  0  0  0  0  0  0  0  0  0
    3.0025    0.6273    0.1474 C   0  0  0  0  0  0  0  0  0  0  0  0
    1.2235   -1.0946    0.1981 O   0  0  0  0  0  0  0  0  0  0  0  0
    0.6673    0.8127   -0.8641 C   0  0  0  0  0  0  0  0  0  0  0  0
    3.9426   -0.3579    0.3991 N   0  0  0  0  0  0  0  0  0  0  0  0
   -0.0750   -1.2029   -0.2404 C   0  0  0  0  0  0  0  0  0  0  0  0
   -0.4437   -0.0520   -0.9096 C   0  0  0  0  0  0  0  0  0  0  0  0
    3.2600    1.8274    0.1109 O   0  0  0  0  0  0  0  0  0  0  0  0
   -3.6032   -6.1212    1.9454 C   0  0  0  0  0  0  0  0  0  0  0  0
    7.2118    1.3077    1.1886 N   0  0  0  0  0  0  0  0  0  0  0  0
   -3.3234   -5.1679    2.9356 C   0  0  0  0  0  0  0  0  0  0  0  0
   -3.2364   -5.8260    0.6280 C   0  0  0  0  0  0  0  0  0  0  0  0
   -1.5833   -2.5200    1.0913 O   0  0  0  0  0  0  0  0  0  0  0  0
   -0.7713   -2.5148   -0.0911 C   0  0  0  0  0  0  0  0  0  0  0  0
    5.3193   -0.1384    0.6560 C   0  0  0  0  0  0  0  0  0  0  0  0
   -2.2593   -3.7022    1.3037 C   0  0  0  0  0  0  0  0  0  0  0  0
   -4.2674   -7.4543    2.2512 C   0  0  0  0  0  0  0  0  0  0  0  0
   -2.6679   -3.9686    2.6124 C   0  0  0  0  0  0  0  0  0  0  0  0
   -2.5799   -4.6310    0.3112 C   0  0  0  0  0  0  0  0  0  0  0  0
    5.8904    1.1026    0.9437 C   0  0  0  0  0  0  0  0  0  0  0  0
    8.0153    0.2288    1.1404 C   0  0  0  0  0  0  0  0  0  0  0  0
   -3.4268   -8.3016    3.2101 C   0  0  0  0  0  0  0  0  0  0  0  0
   -5.6934   -7.2871    2.7779 C   0  0  0  0  0  0  0  0  0  0  0  0
    6.1943   -1.2306    0.6236 C   0  0  0  0  0  0  0  0  0  0  0  0
    7.5568   -1.0464    0.8593 C   0  0  0  0  0  0  0  0  0  0  0  0
    0.7645    1.7959   -1.3065 H   0  0  0  0  0  0  0  0  0  0  0  0
    3.6237   -1.3132    0.2896 H   0  0  0  0  0  0  0  0  0  0  0  0
   -1.3874    0.1209   -1.4098 H   0  0  0  0  0  0  0  0  0  0  0  0
   -3.6040   -5.3513    3.9701 H   0  0  0  0  0  0  0  0  0  0  0  0
   -3.4533   -6.5293   -0.1729 H   0  0  0  0  0  0  0  0  0  0  0  0
   -1.4057   -2.6279   -0.9779 H   0  0  0  0  0  0  0  0  0  0  0  0
   -0.0367   -3.3258   -0.0480 H   0  0  0  0  0  0  0  0  0  0  0  0
   -4.3436   -8.0255    1.3155 H   0  0  0  0  0  0  0  0  0  0  0  0
   -2.4550   -3.2474    3.4028 H   0  0  0  0  0  0  0  0  0  0  0  0
   -2.3399   -4.4669   -0.7326 H   0  0  0  0  0  0  0  0  0  0  0  0
    5.3054    2.0119    1.0112 H   0  0  0  0  0  0  0  0  0  0  0  0
    9.0659    0.4252    1.3380 H   0  0  0  0  0  0  0  0  0  0  0  0
   -3.2904   -7.8119    4.1799 H   0  0  0  0  0  0  0  0  0  0  0  0
   -3.9055   -9.2707    3.3903 H   0  0  0  0  0  0  0  0  0  0  0  0
   -2.4337   -8.4950    2.7893 H   0  0  0  0  0  0  0  0  0  0  0  0
   -5.7185   -6.7468    3.7296 H   0  0  0  0  0  0  0  0  0  0  0  0
   -6.3132   -6.7377    2.0608 H   0  0  0  0  0  0  0  0  0  0  0  0
   -6.1604   -8.2661    2.9371 H   0  0  0  0  0  0  0  0  0  0  0  0
    5.8328   -2.2295    0.3907 H   0  0  0  0  0  0  0  0  0  0  0  0
    8.2524   -1.8777    0.8224 H   0  0  0  0  0  0  0  0  0  0  0  0
  2  1  1  0  0  0  0
  3  1  1  0  0  0  0
  4  1  2  0  0  0  0
  4 26  1  0  0  0  0
  5  2  1  0  0  0  0
  5 27  1  0  0  0  0
  6  3  1  0  0  0  0
  6  7  2  0  0  0  0
  7  4  1  0  0  0  0
  7 28  1  0  0  0  0
  8  2  2  0  0  0  0
  9 12  2  0  0  0  0
  9 11  1  0  0  0  0
 10 20  2  0  0  0  0
 10 21  1  0  0  0  0
 11 18  2  0  0  0  0
 11 29  1  0  0  0  0
 12 19  1  0  0  0  0
 12 30  1  0  0  0  0
 13 14  1  0  0  0  0
 14  6  1  0  0  0  0
 14 31  1  0  0  0  0
 14 32  1  0  0  0  0
 15  5  1  0  0  0  0
 16 13  1  0  0  0  0
 17  9  1  0  0  0  0
 17 33  1  0  0  0  0
 18 16  1  0  0  0  0
 18 34  1  0  0  0  0
 19 16  2  0  0  0  0
 19 35  1  0  0  0  0
 20 15  1  0  0  0  0
 20 36  1  0  0  0  0
 21 25  2  0  0  0  0
 21 37  1  0  0  0  0
 22 17  1  0  0  0  0
 22 38  1  0  0  0  0
 22 39  1  0  0  0  0
 22 40  1  0  0  0  0
 23 17  1  0  0  0  0
 23 41  1  0  0  0  0
 23 42  1  0  0  0  0
 23 43  1  0  0  0  0
 24 15  2  0  0  0  0
 24 44  1  0  0  0  0
 25 24  1  0  0  0  0
 25 45  1  0  0  0  0
M  END
>  <Mol_ID>
8690

>  <Formula>
C20H20N2O3

>  <MolWeight>
336.3844

>  <Cat>
P2389

>  <Name>
WAY-325416

>  <Synonyms>
N/A

>  <Target>
Others

>  <Form>
free base

>  <CAS>
693231-81-1

>  <URL>
N/A

$$$$
