WAY-332040
 OpenBabel08302521443D

 52 54  0  0  0  0  0  0  0  0999 V2000
   -0.1349    4.4348    1.7191 N   0  0  0  0  0  0  0  0  0  0  0  0
   -0.6255    3.2845    1.1379 C   0  0  0  0  0  0  0  0  0  0  0  0
   -0.9691    4.6839    2.7102 C   0  0  0  0  0  0  0  0  0  0  0  0
   -1.9709    3.7570    2.8373 O   0  0  0  0  0  0  0  0  0  0  0  0
   -1.7425    2.8633    1.8280 C   0  0  0  0  0  0  0  0  0  0  0  0
   -0.7127    3.3341   -1.6041 S   0  0  3  0  0  0  0  0  0  0  0  0
    0.0304    2.7167   -0.0594 C   0  0  0  0  0  0  0  0  0  0  0  0
   -0.8449    5.9635   -2.5142 C   0  0  0  0  0  0  0  0  0  0  0  0
   -0.3232    5.0996   -1.3800 C   0  0  0  0  0  0  0  0  0  0  0  0
   -0.5601    7.3093   -2.3513 N   0  0  0  0  0  0  0  0  0  0  0  0
   -0.9752    5.8102    3.6370 C   0  0  0  0  0  0  0  0  0  0  0  0
   -0.9477    8.3094   -3.3395 C   0  0  3  0  0  0  0  0  0  0  0  0
    0.1443    2.8030   -2.7197 O   0  0  0  0  0  0  0  0  0  0  0  0
   -0.0119    6.8252    3.4974 C   0  0  0  0  0  0  0  0  0  0  0  0
   -1.4833    5.5407   -3.4728 O   0  0  0  0  0  0  0  0  0  0  0  0
   -1.8515    9.3667   -2.7259 C   0  0  0  0  0  0  0  0  0  0  0  0
    0.0204    7.9218    4.3697 C   0  0  0  0  0  0  0  0  0  0  0  0
   -2.6942    1.7460    1.6992 C   0  0  0  0  0  0  0  0  0  0  0  0
   -1.9186    5.9172    4.6669 C   0  0  0  0  0  0  0  0  0  0  0  0
   -1.8923    7.0040    5.5427 C   0  0  0  0  0  0  0  0  0  0  0  0
    0.2968    8.9325   -3.9737 C   0  0  0  0  0  0  0  0  0  0  0  0
   -1.4343   10.1702   -1.6524 C   0  0  0  0  0  0  0  0  0  0  0  0
   -3.1379    9.5743   -3.2520 C   0  0  0  0  0  0  0  0  0  0  0  0
   -0.9260    7.9988    5.3964 C   0  0  0  0  0  0  0  0  0  0  0  0
    1.0588    8.9947    4.2258 C   0  0  0  0  0  0  0  0  0  0  0  0
   -3.9781   10.5564   -2.7230 C   0  0  0  0  0  0  0  0  0  0  0  0
   -2.2776   11.1492   -1.1219 C   0  0  0  0  0  0  0  0  0  0  0  0
   -3.5490   11.3436   -1.6576 C   0  0  0  0  0  0  0  0  0  0  0  0
    1.1004    2.9478   -0.0696 H   0  0  0  0  0  0  0  0  0  0  0  0
   -0.0711    1.6260   -0.0690 H   0  0  0  0  0  0  0  0  0  0  0  0
   -0.8095    5.4560   -0.4690 H   0  0  0  0  0  0  0  0  0  0  0  0
    0.7616    5.2137   -1.2966 H   0  0  0  0  0  0  0  0  0  0  0  0
   -0.1097    7.6264   -1.5057 H   0  0  0  0  0  0  0  0  0  0  0  0
   -1.4971    7.8067   -4.1451 H   0  0  0  0  0  0  0  0  0  0  0  0
    0.7239    6.7535    2.6972 H   0  0  0  0  0  0  0  0  0  0  0  0
   -2.7318    1.1638    2.6250 H   0  0  0  0  0  0  0  0  0  0  0  0
   -3.6991    2.1242    1.4883 H   0  0  0  0  0  0  0  0  0  0  0  0
   -2.4081    1.0719    0.8863 H   0  0  0  0  0  0  0  0  0  0  0  0
   -2.6816    5.1529    4.7986 H   0  0  0  0  0  0  0  0  0  0  0  0
   -2.6252    7.0731    6.3424 H   0  0  0  0  0  0  0  0  0  0  0  0
    0.9040    9.4748   -3.2402 H   0  0  0  0  0  0  0  0  0  0  0  0
    0.9347    8.1585   -4.4146 H   0  0  0  0  0  0  0  0  0  0  0  0
    0.0213    9.6373   -4.7663 H   0  0  0  0  0  0  0  0  0  0  0  0
   -0.4421   10.0475   -1.2228 H   0  0  0  0  0  0  0  0  0  0  0  0
   -3.4950    8.9718   -4.0859 H   0  0  0  0  0  0  0  0  0  0  0  0
   -0.9141    8.8363    6.0910 H   0  0  0  0  0  0  0  0  0  0  0  0
    0.5794    9.9707    4.0988 H   0  0  0  0  0  0  0  0  0  0  0  0
    1.6979    9.0201    5.1141 H   0  0  0  0  0  0  0  0  0  0  0  0
    1.6990    8.8215    3.3544 H   0  0  0  0  0  0  0  0  0  0  0  0
   -4.9688   10.7080   -3.1453 H   0  0  0  0  0  0  0  0  0  0  0  0
   -1.9408   11.7661   -0.2917 H   0  0  0  0  0  0  0  0  0  0  0  0
   -4.2032   12.1078   -1.2468 H   0  0  0  0  0  0  0  0  0  0  0  0
  2  1  1  0  0  0  0
  3  1  2  0  0  0  0
  4  3  1  0  0  0  0
  4  5  1  0  0  0  0
  5  2  2  0  0  0  0
  6  7  1  0  0  0  0
  7  2  1  0  0  0  0
  7 29  1  0  0  0  0
  7 30  1  0  0  0  0
  8  9  1  0  0  0  0
  9  6  1  0  0  0  0
  9 31  1  0  0  0  0
  9 32  1  0  0  0  0
 10  8  1  0  0  0  0
 10 33  1  0  0  0  0
 11  3  1  0  0  0  0
 12 10  1  0  0  0  0
 12 34  1  0  0  0  0
 13  6  2  0  0  0  0
 14 11  2  0  0  0  0
 14 35  1  0  0  0  0
 15  8  2  0  0  0  0
 16 12  1  0  0  0  0
 17 14  1  0  0  0  0
 18  5  1  0  0  0  0
 18 36  1  0  0  0  0
 18 37  1  0  0  0  0
 18 38  1  0  0  0  0
 19 11  1  0  0  0  0
 19 39  1  0  0  0  0
 20 19  2  0  0  0  0
 20 40  1  0  0  0  0
 21 12  1  0  0  0  0
 21 41  1  0  0  0  0
 21 42  1  0  0  0  0
 21 43  1  0  0  0  0
 22 16  2  0  0  0  0
 22 44  1  0  0  0  0
 23 16  1  0  0  0  0
 23 45  1  0  0  0  0
 24 20  1  0  0  0  0
 24 17  2  0  0  0  0
 24 46  1  0  0  0  0
 25 17  1  0  0  0  0
 25 47  1  0  0  0  0
 25 48  1  0  0  0  0
 25 49  1  0  0  0  0
 26 23  2  0  0  0  0
 26 50  1  0  0  0  0
 27 22  1  0  0  0  0
 27 28  2  0  0  0  0
 27 51  1  0  0  0  0
 28 26  1  0  0  0  0
 28 52  1  0  0  0  0
M  END
>  <Mol_ID>
9214

>  <Formula>
C22H24N2O3S

>  <MolWeight>
396.50256

>  <Cat>
P2688

>  <Name>
WAY-332040

>  <Synonyms>
N/A

>  <Target>
beta-catenin

>  <Form>
free base

>  <CAS>
1015858-35-1

>  <URL>
N/A

$$$$
