WAY-658941
 OpenBabel08302521433D

 44 46  0  0  0  0  0  0  0  0999 V2000
    1.0325    0.0424   -0.0654 S   0  0  0  0  0  0  0  0  0  0  0  0
    0.4948    1.5526    0.7217 C   0  0  0  0  0  0  0  0  0  0  0  0
    1.7294    0.4963   -1.5415 N   0  0  0  0  0  0  0  0  0  0  0  0
   -0.0965    1.4611    1.9935 C   0  0  0  0  0  0  0  0  0  0  0  0
   -1.0577    2.5298    4.0406 C   0  0  0  0  0  0  0  0  0  0  0  0
   -0.5432    2.6224    2.6440 C   0  0  0  0  0  0  0  0  0  0  0  0
   -0.1722   -0.7216   -0.3224 O   0  0  0  0  0  0  0  0  0  0  0  0
    2.0917   -0.4763    0.7777 O   0  0  0  0  0  0  0  0  0  0  0  0
    0.6643    2.7988    0.1193 C   0  0  0  0  0  0  0  0  0  0  0  0
   -1.9421    3.5032    4.4448 N   0  0  0  0  0  0  0  0  0  0  0  0
   -3.4737    4.6148    5.9466 C   0  0  0  0  0  0  0  0  0  0  0  0
   -3.8285    5.3185    4.8256 O   0  0  0  0  0  0  0  0  0  0  0  0
    0.9902    0.4058   -2.7587 C   0  0  0  0  0  0  0  0  0  0  0  0
   -0.6739    1.6276    4.7780 O   0  0  0  0  0  0  0  0  0  0  0  0
   -4.2338    5.0419    7.0186 C   0  0  0  0  0  0  0  0  0  0  0  0
   -4.8197    6.1728    5.1875 C   0  0  0  0  0  0  0  0  0  0  0  0
   -0.4058    3.8648    2.0089 C   0  0  0  0  0  0  0  0  0  0  0  0
   -5.1066    6.0407    6.5251 C   0  0  0  0  0  0  0  0  0  0  0  0
    0.1993    3.9499    0.7541 C   0  0  0  0  0  0  0  0  0  0  0  0
   -2.4107    3.5792    5.8115 C   0  0  0  0  0  0  0  0  0  0  0  0
    3.1325    0.9260   -1.5847 C   0  0  0  0  0  0  0  0  0  0  0  0
    0.1238    1.4210   -3.1658 C   0  0  0  0  0  0  0  0  0  0  0  0
    1.2128   -0.6870   -3.6024 C   0  0  0  0  0  0  0  0  0  0  0  0
    0.5784   -0.7589   -4.8452 C   0  0  0  0  0  0  0  0  0  0  0  0
   -0.5092    1.3498   -4.4100 C   0  0  0  0  0  0  0  0  0  0  0  0
   -0.2794    0.2622   -5.2505 C   0  0  0  0  0  0  0  0  0  0  0  0
   -0.1948    0.4922    2.4833 H   0  0  0  0  0  0  0  0  0  0  0  0
    1.1667    2.9061   -0.8339 H   0  0  0  0  0  0  0  0  0  0  0  0
   -2.3574    4.1500    3.7873 H   0  0  0  0  0  0  0  0  0  0  0  0
   -4.1722    4.6690    8.0328 H   0  0  0  0  0  0  0  0  0  0  0  0
   -5.2140    6.7945    4.3957 H   0  0  0  0  0  0  0  0  0  0  0  0
   -0.7166    4.7835    2.4977 H   0  0  0  0  0  0  0  0  0  0  0  0
   -5.8561    6.5952    7.0732 H   0  0  0  0  0  0  0  0  0  0  0  0
    0.3304    4.9198    0.2794 H   0  0  0  0  0  0  0  0  0  0  0  0
   -2.7896    2.5979    6.1149 H   0  0  0  0  0  0  0  0  0  0  0  0
   -1.5544    3.8292    6.4483 H   0  0  0  0  0  0  0  0  0  0  0  0
    3.2493    1.9181   -1.1421 H   0  0  0  0  0  0  0  0  0  0  0  0
    3.7760    0.2171   -1.0559 H   0  0  0  0  0  0  0  0  0  0  0  0
    3.5001    0.9775   -2.6161 H   0  0  0  0  0  0  0  0  0  0  0  0
   -0.0699    2.2838   -2.5422 H   0  0  0  0  0  0  0  0  0  0  0  0
    1.8843   -1.4848   -3.2975 H   0  0  0  0  0  0  0  0  0  0  0  0
    0.7562   -1.6099   -5.4977 H   0  0  0  0  0  0  0  0  0  0  0  0
   -1.1789    2.1465   -4.7249 H   0  0  0  0  0  0  0  0  0  0  0  0
   -0.7700    0.2100   -6.2193 H   0  0  0  0  0  0  0  0  0  0  0  0
  2  1  1  0  0  0  0
  3  1  1  0  0  0  0
  4  2  2  0  0  0  0
  4 27  1  0  0  0  0
  5  6  1  0  0  0  0
  6  4  1  0  0  0  0
  7  1  2  0  0  0  0
  8  1  2  0  0  0  0
  9  2  1  0  0  0  0
  9 28  1  0  0  0  0
 10  5  1  0  0  0  0
 10 29  1  0  0  0  0
 11 20  1  0  0  0  0
 12 11  1  0  0  0  0
 13  3  1  0  0  0  0
 14  5  2  0  0  0  0
 15 11  2  0  0  0  0
 15 30  1  0  0  0  0
 16 12  1  0  0  0  0
 16 18  2  0  0  0  0
 16 31  1  0  0  0  0
 17 19  1  0  0  0  0
 17  6  2  0  0  0  0
 17 32  1  0  0  0  0
 18 15  1  0  0  0  0
 18 33  1  0  0  0  0
 19  9  2  0  0  0  0
 19 34  1  0  0  0  0
 20 10  1  0  0  0  0
 20 35  1  0  0  0  0
 20 36  1  0  0  0  0
 21  3  1  0  0  0  0
 21 37  1  0  0  0  0
 21 38  1  0  0  0  0
 21 39  1  0  0  0  0
 22 13  2  0  0  0  0
 22 40  1  0  0  0  0
 23 13  1  0  0  0  0
 23 41  1  0  0  0  0
 24 23  2  0  0  0  0
 24 42  1  0  0  0  0
 25 22  1  0  0  0  0
 25 43  1  0  0  0  0
 26 24  1  0  0  0  0
 26 25  2  0  0  0  0
 26 44  1  0  0  0  0
M  END
>  <Mol_ID>
8835

>  <Formula>
C19H17ClN2O4S

>  <MolWeight>
404.86728

>  <Cat>
P3179

>  <Name>
WAY-658941

>  <Synonyms>
N/A

>  <Target>
Others

>  <Form>
free base

>  <CAS>
863592-53-4

>  <URL>
N/A

$$$$
