WAY-311994
 OpenBabel08302521393D

 38 41  0  0  0  0  0  0  0  0999 V2000
    2.4241   -0.6918    0.0265 N   0  0  0  0  0  0  0  0  0  0  0  0
    2.3800    0.7014   -0.0981 C   0  0  0  0  0  0  0  0  0  0  0  0
    3.6340   -1.4288   -0.0612 C   0  0  0  0  0  0  0  0  0  0  0  0
    1.2582   -1.4580    0.1083 C   0  0  0  0  0  0  0  0  0  0  0  0
    3.5942    1.4902   -0.2686 C   0  0  0  0  0  0  0  0  0  0  0  0
    1.2602    1.3661   -0.0955 N   0  0  0  0  0  0  0  0  0  0  0  0
    4.1756   -1.7376   -1.3126 C   0  0  0  0  0  0  0  0  0  0  0  0
    4.2482   -1.8961    1.1027 C   0  0  0  0  0  0  0  0  0  0  0  0
   -0.0103   -0.7165    0.0629 C   0  0  0  0  0  0  0  0  0  0  0  0
    1.2152   -2.6853    0.1881 O   0  0  0  0  0  0  0  0  0  0  0  0
    3.7754    2.7618   -0.7902 C   0  0  0  0  0  0  0  0  0  0  0  0
    4.8152    0.9986    0.1066 O   0  0  0  0  0  0  0  0  0  0  0  0
    0.0500    0.6705   -0.0028 C   0  0  0  0  0  0  0  0  0  0  0  0
    5.3289   -2.5204   -1.3876 C   0  0  0  0  0  0  0  0  0  0  0  0
    5.4162   -2.6600    1.0216 C   0  0  0  0  0  0  0  0  0  0  0  0
   -1.2378   -1.3931    0.0565 C   0  0  0  0  0  0  0  0  0  0  0  0
    5.1695    3.0110   -0.8074 C   0  0  0  0  0  0  0  0  0  0  0  0
    5.7578    1.9051   -0.2465 C   0  0  0  0  0  0  0  0  0  0  0  0
   -1.1489    1.3889   -0.0299 C   0  0  0  0  0  0  0  0  0  0  0  0
    5.9561   -2.9799   -0.2260 C   0  0  0  0  0  0  0  0  0  0  0  0
   -2.4251   -0.6671   -0.0008 C   0  0  0  0  0  0  0  0  0  0  0  0
   -2.3809    0.7257   -0.0318 C   0  0  0  0  0  0  0  0  0  0  0  0
    7.0461   -3.7772   -0.4410 O   0  0  0  0  0  0  0  0  0  0  0  0
    7.9991   -3.8488    0.6115 C   0  0  0  0  0  0  0  0  0  0  0  0
    3.6992   -1.3933   -2.2250 H   0  0  0  0  0  0  0  0  0  0  0  0
    3.8230   -1.6668    2.0786 H   0  0  0  0  0  0  0  0  0  0  0  0
    2.9867    3.4063   -1.1542 H   0  0  0  0  0  0  0  0  0  0  0  0
    5.7402   -2.7790   -2.3599 H   0  0  0  0  0  0  0  0  0  0  0  0
    5.8560   -3.0153    1.9463 H   0  0  0  0  0  0  0  0  0  0  0  0
   -1.2666   -2.4805    0.0800 H   0  0  0  0  0  0  0  0  0  0  0  0
    5.6822    3.8834   -1.1867 H   0  0  0  0  0  0  0  0  0  0  0  0
    6.7801    1.6166   -0.0443 H   0  0  0  0  0  0  0  0  0  0  0  0
   -1.1225    2.4752   -0.0661 H   0  0  0  0  0  0  0  0  0  0  0  0
   -3.3802   -1.1865   -0.0239 H   0  0  0  0  0  0  0  0  0  0  0  0
   -3.3051    1.2974   -0.0711 H   0  0  0  0  0  0  0  0  0  0  0  0
    8.4745   -2.8741    0.7612 H   0  0  0  0  0  0  0  0  0  0  0  0
    7.5691   -4.2259    1.5431 H   0  0  0  0  0  0  0  0  0  0  0  0
    8.7736   -4.5600    0.3061 H   0  0  0  0  0  0  0  0  0  0  0  0
  1  2  1  0  0  0  0
  1  3  1  0  0  0  0
  1  4  1  0  0  0  0
  2  5  1  0  0  0  0
  2  6  2  0  0  0  0
  3  7  2  0  0  0  0
  3  8  1  0  0  0  0
  4  9  1  0  0  0  0
  4 10  2  0  0  0  0
  5 11  2  0  0  0  0
  5 12  1  0  0  0  0
  6 13  1  0  0  0  0
  7 14  1  0  0  0  0
  7 25  1  0  0  0  0
  8 15  2  0  0  0  0
  8 26  1  0  0  0  0
  9 16  2  0  0  0  0
  9 13  1  0  0  0  0
 11 17  1  0  0  0  0
 11 27  1  0  0  0  0
 12 18  1  0  0  0  0
 13 19  2  0  0  0  0
 14 20  2  0  0  0  0
 14 28  1  0  0  0  0
 15 20  1  0  0  0  0
 15 29  1  0  0  0  0
 16 21  1  0  0  0  0
 16 30  1  0  0  0  0
 17 18  2  0  0  0  0
 17 31  1  0  0  0  0
 18 32  1  0  0  0  0
 19 22  1  0  0  0  0
 19 33  1  0  0  0  0
 20 23  1  0  0  0  0
 21 22  2  0  0  0  0
 21 34  1  0  0  0  0
 22 35  1  0  0  0  0
 23 24  1  0  0  0  0
 24 36  1  0  0  0  0
 24 37  1  0  0  0  0
 24 38  1  0  0  0  0
M  END
>  <Mol_ID>
8134

>  <Formula>
C19H14N2O3

>  <MolWeight>
318.32606

>  <Cat>
P2220

>  <Name>
WAY-311994

>  <Synonyms>
N/A

>  <Target>
Anti-infection

>  <Form>
free base

>  <CAS>
35868-41-8

>  <URL>
N/A

$$$$
