WAY-299033
 OpenBabel08302521413D

 43 46  0  0  0  0  0  0  0  0999 V2000
   -0.1303   -1.2926    0.1626 N   0  0  0  0  0  0  0  0  0  0  0  0
    1.0798   -0.6099    0.0160 C   0  0  0  0  0  0  0  0  0  0  0  0
   -1.0873   -0.2876    0.0142 C   0  0  0  0  0  0  0  0  0  0  0  0
   -0.2966   -2.6955    0.3888 C   0  0  0  0  0  0  0  0  0  0  0  0
    2.3842   -1.2001   -0.1027 C   0  0  0  0  0  0  0  0  0  0  0  0
    0.8545    0.6842   -0.1068 N   0  0  0  0  0  0  0  0  0  0  0  0
   -0.5026    0.8825   -0.1309 N   0  0  0  0  0  0  0  0  0  0  0  0
   -2.8020   -0.4572    0.2862 S   0  0  0  0  0  0  0  0  0  0  0  0
    0.6444   -3.4169    1.1481 C   0  0  0  0  0  0  0  0  0  0  0  0
   -1.3450   -3.3929   -0.2181 C   0  0  0  0  0  0  0  0  0  0  0  0
    3.6124   -0.7127    0.3183 C   0  0  0  0  0  0  0  0  0  0  0  0
    2.5933   -2.4288   -0.6824 O   0  0  0  0  0  0  0  0  0  0  0  0
   -3.5185    0.7084   -0.9278 C   0  0  0  0  0  0  0  0  0  0  0  0
    0.5791   -4.8098    1.2316 C   0  0  0  0  0  0  0  0  0  0  0  0
   -1.4267   -4.7844   -0.0998 C   0  0  0  0  0  0  0  0  0  0  0  0
    4.5836   -1.7099    0.0370 C   0  0  0  0  0  0  0  0  0  0  0  0
    3.9053   -2.7395   -0.5641 C   0  0  0  0  0  0  0  0  0  0  0  0
   -3.3547    0.2372   -2.3751 C   0  0  0  0  0  0  0  0  0  0  0  0
   -0.4578   -5.4934    0.6074 C   0  0  0  0  0  0  0  0  0  0  0  0
   -4.0916    0.9943   -3.2863 N   0  0  0  0  0  0  0  0  0  0  0  0
   -2.6601   -0.7383   -2.6599 O   0  0  0  0  0  0  0  0  0  0  0  0
   -4.1961    0.7625   -4.6825 C   0  0  0  0  0  0  0  0  0  0  0  0
   -3.4400   -0.1996   -5.3574 C   0  0  0  0  0  0  0  0  0  0  0  0
   -5.1269    1.5195   -5.4156 C   0  0  0  0  0  0  0  0  0  0  0  0
   -3.6539   -0.4575   -6.7126 C   0  0  0  0  0  0  0  0  0  0  0  0
   -5.3388    1.2604   -6.7762 C   0  0  0  0  0  0  0  0  0  0  0  0
   -4.6135    0.2616   -7.4070 C   0  0  0  0  0  0  0  0  0  0  0  0
   -4.8403   -0.0148   -8.6982 F   0  0  0  0  0  0  0  0  0  0  0  0
    1.4636   -2.9246    1.6675 H   0  0  0  0  0  0  0  0  0  0  0  0
   -2.0731   -2.8968   -0.8537 H   0  0  0  0  0  0  0  0  0  0  0  0
    3.7794    0.2392    0.8038 H   0  0  0  0  0  0  0  0  0  0  0  0
   -4.5926    0.7579   -0.7122 H   0  0  0  0  0  0  0  0  0  0  0  0
   -3.0983    1.7104   -0.8061 H   0  0  0  0  0  0  0  0  0  0  0  0
    1.3513   -5.3595    1.7647 H   0  0  0  0  0  0  0  0  0  0  0  0
   -2.2310   -5.3193   -0.5979 H   0  0  0  0  0  0  0  0  0  0  0  0
    5.6430   -1.6862    0.2504 H   0  0  0  0  0  0  0  0  0  0  0  0
    4.1889   -3.7114   -0.9448 H   0  0  0  0  0  0  0  0  0  0  0  0
   -0.5044   -6.5782    0.6591 H   0  0  0  0  0  0  0  0  0  0  0  0
   -4.6792    1.7293   -2.9151 H   0  0  0  0  0  0  0  0  0  0  0  0
   -2.6693   -0.7773   -4.8589 H   0  0  0  0  0  0  0  0  0  0  0  0
   -5.7133    2.3041   -4.9447 H   0  0  0  0  0  0  0  0  0  0  0  0
   -3.0804   -1.2228   -7.2221 H   0  0  0  0  0  0  0  0  0  0  0  0
   -6.0717    1.8225   -7.3464 H   0  0  0  0  0  0  0  0  0  0  0  0
  1  2  1  0  0  0  0
  1  3  1  0  0  0  0
  1  4  1  0  0  0  0
  2  5  1  0  0  0  0
  2  6  2  0  0  0  0
  3  7  2  0  0  0  0
  3  8  1  0  0  0  0
  4  9  2  0  0  0  0
  4 10  1  0  0  0  0
  5 11  2  0  0  0  0
  5 12  1  0  0  0  0
  6  7  1  0  0  0  0
  8 13  1  0  0  0  0
  9 14  1  0  0  0  0
  9 29  1  0  0  0  0
 10 15  2  0  0  0  0
 10 30  1  0  0  0  0
 11 16  1  0  0  0  0
 11 31  1  0  0  0  0
 12 17  1  0  0  0  0
 13 18  1  0  0  0  0
 13 32  1  0  0  0  0
 13 33  1  0  0  0  0
 14 19  2  0  0  0  0
 14 34  1  0  0  0  0
 15 19  1  0  0  0  0
 15 35  1  0  0  0  0
 16 17  2  0  0  0  0
 16 36  1  0  0  0  0
 17 37  1  0  0  0  0
 18 20  1  0  0  0  0
 18 21  2  0  0  0  0
 19 38  1  0  0  0  0
 20 22  1  0  0  0  0
 20 39  1  0  0  0  0
 22 23  2  0  0  0  0
 22 24  1  0  0  0  0
 23 25  1  0  0  0  0
 23 40  1  0  0  0  0
 24 26  2  0  0  0  0
 24 41  1  0  0  0  0
 25 27  2  0  0  0  0
 25 42  1  0  0  0  0
 26 27  1  0  0  0  0
 26 43  1  0  0  0  0
 27 28  1  0  0  0  0
M  END
>  <Mol_ID>
8355

>  <Formula>
C20H15FN4O2S

>  <MolWeight>
394.4221032

>  <Cat>
P2105

>  <Name>
WAY-299033

>  <Synonyms>
N/A

>  <Target>
others

>  <Form>
free base

>  <CAS>
331710-55-5

>  <URL>
N/A

$$$$
