WAY-332036
 OpenBabel08302521443D

 49 51  0  0  0  0  0  0  0  0999 V2000
   -0.5376    0.2903   -0.9954 N   0  0  0  0  0  0  0  0  0  0  0  0
    0.1827    0.9995   -0.0580 C   0  0  0  0  0  0  0  0  0  0  0  0
   -0.5584   -0.9460   -0.5384 C   0  0  0  0  0  0  0  0  0  0  0  0
    0.1098   -1.1098    0.6457 O   0  0  0  0  0  0  0  0  0  0  0  0
    0.5910    0.1368    0.9407 C   0  0  0  0  0  0  0  0  0  0  0  0
   -0.3386    3.2441   -1.6311 S   0  0  3  0  0  0  0  0  0  0  0  0
    0.4197    2.4602   -0.1710 C   0  0  0  0  0  0  0  0  0  0  0  0
   -2.0829    3.0102   -1.1537 C   0  0  0  0  0  0  0  0  0  0  0  0
   -1.1941   -2.1210   -1.1222 C   0  0  0  0  0  0  0  0  0  0  0  0
   -3.0343    3.3708   -2.2814 C   0  0  0  0  0  0  0  0  0  0  0  0
   -4.2603    2.7298   -2.2120 N   0  0  0  0  0  0  0  0  0  0  0  0
   -0.0214    4.7100   -1.5236 O   0  0  0  0  0  0  0  0  0  0  0  0
   -1.8809   -1.9966   -2.3435 C   0  0  0  0  0  0  0  0  0  0  0  0
   -2.7721    4.1690   -3.1784 O   0  0  0  0  0  0  0  0  0  0  0  0
   -5.2365    2.8547   -3.2748 C   0  0  0  0  0  0  0  0  0  0  0  0
   -9.1606    4.1503   -2.0361 C   0  0  0  0  0  0  0  0  0  0  0  0
   -6.5954    3.2712   -2.7739 C   0  0  0  0  0  0  0  0  0  0  0  0
   -2.4906   -3.1037   -2.9492 C   0  0  0  0  0  0  0  0  0  0  0  0
   -8.0496    4.9504   -1.7810 C   0  0  0  0  0  0  0  0  0  0  0  0
   -8.9979    2.9082   -2.6461 C   0  0  0  0  0  0  0  0  0  0  0  0
   -6.7733    4.5145   -2.1477 C   0  0  0  0  0  0  0  0  0  0  0  0
   -7.7230    2.4698   -3.0113 C   0  0  0  0  0  0  0  0  0  0  0  0
    1.3826    0.2649    2.1764 C   0  0  0  0  0  0  0  0  0  0  0  0
   -1.1385   -3.3769   -0.5074 C   0  0  0  0  0  0  0  0  0  0  0  0
   -1.7420   -4.4862   -1.1031 C   0  0  0  0  0  0  0  0  0  0  0  0
   -2.4118   -4.3508   -2.3179 C   0  0  0  0  0  0  0  0  0  0  0  0
   -3.2089   -2.9716   -4.2597 C   0  0  0  0  0  0  0  0  0  0  0  0
    0.0583    2.9820    0.7204 H   0  0  0  0  0  0  0  0  0  0  0  0
    1.4969    2.6417   -0.2527 H   0  0  0  0  0  0  0  0  0  0  0  0
   -2.2520    1.9636   -0.8983 H   0  0  0  0  0  0  0  0  0  0  0  0
   -2.2998    3.6290   -0.2804 H   0  0  0  0  0  0  0  0  0  0  0  0
   -4.4287    2.0291   -1.5038 H   0  0  0  0  0  0  0  0  0  0  0  0
   -1.9297   -1.0241   -2.8303 H   0  0  0  0  0  0  0  0  0  0  0  0
   -5.2900    1.8724   -3.7553 H   0  0  0  0  0  0  0  0  0  0  0  0
   -4.9066    3.5671   -4.0398 H   0  0  0  0  0  0  0  0  0  0  0  0
  -10.1552    4.4998   -1.7702 H   0  0  0  0  0  0  0  0  0  0  0  0
   -8.1758    5.9232   -1.3144 H   0  0  0  0  0  0  0  0  0  0  0  0
   -9.8657    2.2884   -2.8535 H   0  0  0  0  0  0  0  0  0  0  0  0
   -5.9168    5.1619   -1.9701 H   0  0  0  0  0  0  0  0  0  0  0  0
   -7.6205    1.5071   -3.5080 H   0  0  0  0  0  0  0  0  0  0  0  0
    0.7987   -0.0566    3.0436 H   0  0  0  0  0  0  0  0  0  0  0  0
    2.2824   -0.3549    2.1179 H   0  0  0  0  0  0  0  0  0  0  0  0
    1.6955    1.3011    2.3423 H   0  0  0  0  0  0  0  0  0  0  0  0
   -0.6178   -3.5068    0.4398 H   0  0  0  0  0  0  0  0  0  0  0  0
   -1.6849   -5.4579   -0.6213 H   0  0  0  0  0  0  0  0  0  0  0  0
   -2.8710   -5.2243   -2.7751 H   0  0  0  0  0  0  0  0  0  0  0  0
   -2.7269   -3.5989   -5.0168 H   0  0  0  0  0  0  0  0  0  0  0  0
   -4.2532   -3.2789   -4.1490 H   0  0  0  0  0  0  0  0  0  0  0  0
   -3.1994   -1.9391   -4.6224 H   0  0  0  0  0  0  0  0  0  0  0  0
  2  1  1  0  0  0  0
  3  1  2  0  0  0  0
  4  3  1  0  0  0  0
  4  5  1  0  0  0  0
  5  2  2  0  0  0  0
  6  7  1  0  0  0  0
  7  2  1  0  0  0  0
  7 28  1  0  0  0  0
  7 29  1  0  0  0  0
  8  6  1  0  0  0  0
  8 30  1  0  0  0  0
  8 31  1  0  0  0  0
  9  3  1  0  0  0  0
 10  8  1  0  0  0  0
 11 10  1  0  0  0  0
 11 32  1  0  0  0  0
 12  6  2  0  0  0  0
 13  9  2  0  0  0  0
 13 33  1  0  0  0  0
 14 10  2  0  0  0  0
 15 11  1  0  0  0  0
 15 34  1  0  0  0  0
 15 35  1  0  0  0  0
 16 20  2  0  0  0  0
 16 36  1  0  0  0  0
 17 15  1  0  0  0  0
 18 13  1  0  0  0  0
 19 21  2  0  0  0  0
 19 16  1  0  0  0  0
 19 37  1  0  0  0  0
 20 22  1  0  0  0  0
 20 38  1  0  0  0  0
 21 17  1  0  0  0  0
 21 39  1  0  0  0  0
 22 17  2  0  0  0  0
 22 40  1  0  0  0  0
 23  5  1  0  0  0  0
 23 41  1  0  0  0  0
 23 42  1  0  0  0  0
 23 43  1  0  0  0  0
 24  9  1  0  0  0  0
 24 44  1  0  0  0  0
 25 24  2  0  0  0  0
 25 45  1  0  0  0  0
 26 25  1  0  0  0  0
 26 18  2  0  0  0  0
 26 46  1  0  0  0  0
 27 18  1  0  0  0  0
 27 47  1  0  0  0  0
 27 48  1  0  0  0  0
 27 49  1  0  0  0  0
M  END
>  <Mol_ID>
9213

>  <Formula>
C21H21ClN2O3S

>  <MolWeight>
416.92104

>  <Cat>
P2684

>  <Name>
WAY-332036

>  <Synonyms>
N/A

>  <Target>
beta-catenin

>  <Form>
free base

>  <CAS>
959563-12-3

>  <URL>
N/A

$$$$
