WAY-658876
 OpenBabel08302521433D

 49 52  0  0  0  0  0  0  0  0999 V2000
   -1.4550    0.2701    0.0966 C   0  0  3  0  0  0  0  0  0  0  0  0
   -2.9826    0.4517    0.2073 C   0  0  0  0  0  0  0  0  0  0  0  0
   -6.4642    7.5009   -0.8650 C   0  0  0  0  0  0  0  0  0  0  0  0
   -0.7233    1.0414    1.2199 C   0  0  0  0  0  0  0  0  0  0  0  0
   -0.9375    0.7655   -1.2748 C   0  0  0  0  0  0  0  0  0  0  0  0
   -1.0865   -1.2348    0.2309 C   0  0  0  0  0  0  0  0  0  0  0  0
   -3.4601    1.7397    0.0712 N   0  0  0  0  0  0  0  0  0  0  0  0
    0.5852    0.5648   -1.3856 C   0  0  3  0  0  0  0  0  0  0  0  0
    0.8005    0.8407    1.1116 C   0  0  3  0  0  0  0  0  0  0  0  0
    0.4344   -1.4439    0.1220 C   0  0  3  0  0  0  0  0  0  0  0  0
   -6.0307    6.1099   -0.5714 C   0  0  0  0  0  0  0  0  0  0  0  0
   -3.7426   -0.4945    0.4069 O   0  0  0  0  0  0  0  0  0  0  0  0
   -6.2940    8.0415   -1.9460 O   0  0  0  0  0  0  0  0  0  0  0  0
    1.2826    1.3463   -0.2587 C   0  0  0  0  0  0  0  0  0  0  0  0
    0.9173   -0.9291   -1.2427 C   0  0  0  0  0  0  0  0  0  0  0  0
    1.1322   -0.6549    1.2406 C   0  0  0  0  0  0  0  0  0  0  0  0
   -5.7938    5.6601    0.7354 C   0  0  0  0  0  0  0  0  0  0  0  0
   -5.8521    5.2291   -1.6423 C   0  0  0  0  0  0  0  0  0  0  0  0
   -4.8837    1.9931    0.1354 C   0  0  0  0  0  0  0  0  0  0  0  0
   -5.2436    3.4390   -0.1075 C   0  0  0  0  0  0  0  0  0  0  0  0
   -7.1058    8.0361    0.2036 O   0  0  0  0  0  0  0  0  0  0  0  0
   -5.4638    3.9046   -1.4119 C   0  0  0  0  0  0  0  0  0  0  0  0
   -5.3966    4.3364    0.9613 C   0  0  0  0  0  0  0  0  0  0  0  0
   -7.6154    9.3520   -0.0264 C   0  0  0  0  0  0  0  0  0  0  0  0
   -0.9515    2.1132    1.1689 H   0  0  0  0  0  0  0  0  0  0  0  0
   -1.0748    0.6990    2.2022 H   0  0  0  0  0  0  0  0  0  0  0  0
   -1.4450    0.2261   -2.0853 H   0  0  0  0  0  0  0  0  0  0  0  0
   -1.1706    1.8268   -1.4206 H   0  0  0  0  0  0  0  0  0  0  0  0
   -1.4409   -1.6296    1.1924 H   0  0  0  0  0  0  0  0  0  0  0  0
   -1.5923   -1.8210   -0.5478 H   0  0  0  0  0  0  0  0  0  0  0  0
   -2.8310    2.5143   -0.0866 H   0  0  0  0  0  0  0  0  0  0  0  0
    0.9353    0.9279   -2.3584 H   0  0  0  0  0  0  0  0  0  0  0  0
    1.3039    1.3988    1.9094 H   0  0  0  0  0  0  0  0  0  0  0  0
    0.6714   -2.5094    0.2189 H   0  0  0  0  0  0  0  0  0  0  0  0
    2.3704    1.2275   -0.3392 H   0  0  0  0  0  0  0  0  0  0  0  0
    1.0713    2.4178   -0.3588 H   0  0  0  0  0  0  0  0  0  0  0  0
    0.4409   -1.4992   -2.0496 H   0  0  0  0  0  0  0  0  0  0  0  0
    1.9991   -1.0840   -1.3404 H   0  0  0  0  0  0  0  0  0  0  0  0
    2.2176   -0.8048    1.1837 H   0  0  0  0  0  0  0  0  0  0  0  0
    0.8113   -1.0286    2.2207 H   0  0  0  0  0  0  0  0  0  0  0  0
   -5.9184    6.3310    1.5821 H   0  0  0  0  0  0  0  0  0  0  0  0
   -6.0345    5.5665   -2.6612 H   0  0  0  0  0  0  0  0  0  0  0  0
   -5.3811    1.3562   -0.6067 H   0  0  0  0  0  0  0  0  0  0  0  0
   -5.2501    1.6674    1.1167 H   0  0  0  0  0  0  0  0  0  0  0  0
   -5.3591    3.2297   -2.2604 H   0  0  0  0  0  0  0  0  0  0  0  0
   -5.2289    4.0013    1.9843 H   0  0  0  0  0  0  0  0  0  0  0  0
   -6.7910   10.0568   -0.1727 H   0  0  0  0  0  0  0  0  0  0  0  0
   -8.2930    9.3654   -0.8869 H   0  0  0  0  0  0  0  0  0  0  0  0
   -8.1805    9.6578    0.8587 H   0  0  0  0  0  0  0  0  0  0  0  0
  2  1  1  0  0  0  0
  3 11  1  0  0  0  0
  4  1  1  0  0  0  0
  4 25  1  0  0  0  0
  4 26  1  0  0  0  0
  5  1  1  0  0  0  0
  5 27  1  0  0  0  0
  5 28  1  0  0  0  0
  6  1  1  0  0  0  0
  6 29  1  0  0  0  0
  6 30  1  0  0  0  0
  7  2  1  0  0  0  0
  7 31  1  0  0  0  0
  8  5  1  0  0  0  0
  8 15  1  0  0  0  0
  8 32  1  0  0  0  0
  9  4  1  0  0  0  0
  9 33  1  0  0  0  0
 10  6  1  0  0  0  0
 10 34  1  0  0  0  0
 11 17  2  0  0  0  0
 11 18  1  0  0  0  0
 12  2  2  0  0  0  0
 13  3  2  0  0  0  0
 14  8  1  0  0  0  0
 14  9  1  0  0  0  0
 14 35  1  0  0  0  0
 14 36  1  0  0  0  0
 15 10  1  0  0  0  0
 15 37  1  0  0  0  0
 15 38  1  0  0  0  0
 16 10  1  0  0  0  0
 16  9  1  0  0  0  0
 16 39  1  0  0  0  0
 16 40  1  0  0  0  0
 17 23  1  0  0  0  0
 17 41  1  0  0  0  0
 18 22  2  0  0  0  0
 18 42  1  0  0  0  0
 19  7  1  0  0  0  0
 19 43  1  0  0  0  0
 19 44  1  0  0  0  0
 20 19  1  0  0  0  0
 21  3  1  0  0  0  0
 22 20  1  0  0  0  0
 22 45  1  0  0  0  0
 23 20  2  0  0  0  0
 23 46  1  0  0  0  0
 24 21  1  0  0  0  0
 24 47  1  0  0  0  0
 24 48  1  0  0  0  0
 24 49  1  0  0  0  0
M  END
>  <Mol_ID>
8834

>  <Formula>
C20H25NO3

>  <MolWeight>
327.4174

>  <Cat>
P3178

>  <Name>
WAY-658876

>  <Synonyms>
N/A

>  <Target>
epoxide hydrolase

>  <Form>
free base

>  <CAS>
863558-02-5

>  <URL>
N/A

$$$$
