WAY-327939
 OpenBabel08302521443D

 19 20  0  0  0  0  0  0  0  0999 V2000
    0.9254    0.0141   -0.0894 S   0  0  0  0  0  0  0  0  0  0  0  0
    0.3160    0.1175    1.5689 C   0  0  0  0  0  0  0  0  0  0  0  0
    0.4506    1.3793   -1.0227 N   0  0  0  0  0  0  0  0  0  0  0  0
    0.8115    1.4735    2.4921 S   0  0  0  0  0  0  0  0  0  0  0  0
   -0.0509    0.9331    3.8463 C   0  0  0  0  0  0  0  0  0  0  0  0
   -0.3452    2.4058   -0.6116 N   0  0  0  0  0  0  0  0  0  0  0  0
   -0.4841   -0.7335    2.3124 C   0  0  0  0  0  0  0  0  0  0  0  0
    0.2366   -1.1150   -0.6895 O   0  0  0  0  0  0  0  0  0  0  0  0
    2.3746    0.0755   -0.0092 O   0  0  0  0  0  0  0  0  0  0  0  0
   -0.7001   -0.2576    3.6398 C   0  0  0  0  0  0  0  0  0  0  0  0
    0.8483    1.5133   -2.3337 C   0  0  0  0  0  0  0  0  0  0  0  0
    0.3303    2.7082   -2.7738 C   0  0  0  0  0  0  0  0  0  0  0  0
   -0.3875    3.2148   -1.6741 C   0  0  0  0  0  0  0  0  0  0  0  0
   -0.0999    1.8671    5.4695 Br  0  0  0  0  0  0  0  0  0  0  0  0
   -0.8857   -1.6589    1.9150 H   0  0  0  0  0  0  0  0  0  0  0  0
   -1.2932   -0.7692    4.3886 H   0  0  0  0  0  0  0  0  0  0  0  0
    1.4616    0.7621   -2.8132 H   0  0  0  0  0  0  0  0  0  0  0  0
    0.4525    3.1525   -3.7521 H   0  0  0  0  0  0  0  0  0  0  0  0
   -0.9444    4.1419   -1.6070 H   0  0  0  0  0  0  0  0  0  0  0  0
  2  1  1  0  0  0  0
  3  1  1  0  0  0  0
  4  2  1  0  0  0  0
  5  4  1  0  0  0  0
  5 10  2  0  0  0  0
  6  3  1  0  0  0  0
  7  2  2  0  0  0  0
  7 15  1  0  0  0  0
  8  1  2  0  0  0  0
  9  1  2  0  0  0  0
 10  7  1  0  0  0  0
 10 16  1  0  0  0  0
 11  3  1  0  0  0  0
 11 17  1  0  0  0  0
 12 11  2  0  0  0  0
 12 18  1  0  0  0  0
 13  6  2  0  0  0  0
 13 12  1  0  0  0  0
 13 19  1  0  0  0  0
 14  5  1  0  0  0  0
M  END
>  <Mol_ID>
8986

>  <Formula>
C7H5BrN2O2S2

>  <MolWeight>
293.1608

>  <Cat>
P2549

>  <Name>
WAY-327939

>  <Synonyms>
N/A

>  <Target>
Others

>  <Form>
free base

>  <CAS>
902688-24-8

>  <URL>
N/A

$$$$
