WAY-359820
 OpenBabel08302521393D

 47 50  0  0  0  0  0  0  0  0999 V2000
   -0.9646   -1.6884    0.1057 C   0  0  0  0  0  0  0  0  0  0  0  0
   -0.8284    1.1199    0.2487 N   0  0  0  0  0  0  0  0  0  0  0  0
   -2.0149    0.4810    0.2830 C   0  0  0  0  0  0  0  0  0  0  0  0
   -2.1259   -0.8983    0.1961 C   0  0  0  0  0  0  0  0  0  0  0  0
   -1.1182   -3.2180    0.1403 C   0  0  0  0  0  0  0  0  0  0  0  0
   -3.1517    1.3840    0.4263 C   0  0  0  0  0  0  0  0  0  0  0  0
    0.3102   -1.0178    0.0488 C   0  0  0  0  0  0  0  0  0  0  0  0
    0.2894    0.4006    0.1155 C   0  0  0  0  0  0  0  0  0  0  0  0
   -2.4799   -6.3359    0.5523 C   0  0  0  0  0  0  0  0  0  0  0  0
   -4.4005    0.8351    0.3236 O   0  0  0  0  0  0  0  0  0  0  0  0
   -2.4320   -3.5738    0.1408 O   0  0  0  0  0  0  0  0  0  0  0  0
   -3.4539   -7.2416    0.0953 N   0  0  0  0  0  0  0  0  0  0  0  0
   -3.2700    2.7447    0.6474 C   0  0  0  0  0  0  0  0  0  0  0  0
   -0.1938   -4.0047    0.2096 O   0  0  0  0  0  0  0  0  0  0  0  0
   -5.2954    1.8484    0.4631 C   0  0  0  0  0  0  0  0  0  0  0  0
   -4.6513    3.0428    0.6610 C   0  0  0  0  0  0  0  0  0  0  0  0
   -1.3843   -6.7196    0.9540 O   0  0  0  0  0  0  0  0  0  0  0  0
   -2.9430   -4.8199    0.6548 C   0  0  0  0  0  0  0  0  0  0  0  0
   -3.1398   -8.6560   -0.1628 C   0  0  0  0  0  0  0  0  0  0  0  0
   -4.3358   -9.5940   -0.3038 C   0  0  0  0  0  0  0  0  0  0  0  0
    1.5960   -1.6138   -0.0768 C   0  0  0  0  0  0  0  0  0  0  0  0
    1.4581    1.1438    0.0517 C   0  0  0  0  0  0  0  0  0  0  0  0
   -4.3667  -10.5838   -1.3173 C   0  0  0  0  0  0  0  0  0  0  0  0
   -5.3707   -9.6217    0.6409 C   0  0  0  0  0  0  0  0  0  0  0  0
    2.7676   -0.8503   -0.1470 C   0  0  0  0  0  0  0  0  0  0  0  0
    2.6985    0.5355   -0.0875 C   0  0  0  0  0  0  0  0  0  0  0  0
   -5.4002  -11.5325   -1.3883 C   0  0  0  0  0  0  0  0  0  0  0  0
   -6.4035  -10.5704    0.5699 C   0  0  0  0  0  0  0  0  0  0  0  0
   -6.4224  -11.5263   -0.4455 C   0  0  0  0  0  0  0  0  0  0  0  0
   -3.1141   -1.3445    0.2177 H   0  0  0  0  0  0  0  0  0  0  0  0
   -4.2965   -6.8840   -0.3309 H   0  0  0  0  0  0  0  0  0  0  0  0
   -2.4459    3.4379    0.7777 H   0  0  0  0  0  0  0  0  0  0  0  0
   -6.3375    1.5614    0.3957 H   0  0  0  0  0  0  0  0  0  0  0  0
   -5.1187    4.0049    0.7961 H   0  0  0  0  0  0  0  0  0  0  0  0
   -3.0613   -4.6489    1.7340 H   0  0  0  0  0  0  0  0  0  0  0  0
   -3.9730   -4.8253    0.2759 H   0  0  0  0  0  0  0  0  0  0  0  0
   -2.5599   -8.6678   -1.0933 H   0  0  0  0  0  0  0  0  0  0  0  0
   -2.4889   -9.0388    0.6320 H   0  0  0  0  0  0  0  0  0  0  0  0
    1.7060   -2.6945   -0.1316 H   0  0  0  0  0  0  0  0  0  0  0  0
    1.4029    2.2306    0.1049 H   0  0  0  0  0  0  0  0  0  0  0  0
   -3.5683  -10.6502   -2.0548 H   0  0  0  0  0  0  0  0  0  0  0  0
   -5.3636   -8.9189    1.4718 H   0  0  0  0  0  0  0  0  0  0  0  0
    3.7381   -1.3341   -0.2524 H   0  0  0  0  0  0  0  0  0  0  0  0
    3.5991    1.1338   -0.1468 H   0  0  0  0  0  0  0  0  0  0  0  0
   -5.3993  -12.2950   -2.1691 H   0  0  0  0  0  0  0  0  0  0  0  0
   -7.1865  -10.5822    1.3250 H   0  0  0  0  0  0  0  0  0  0  0  0
   -7.2165  -12.2696   -0.4865 H   0  0  0  0  0  0  0  0  0  0  0  0
  2  8  2  0  0  0  0
  3  4  2  0  0  0  0
  3  2  1  0  0  0  0
  4  1  1  0  0  0  0
  4 30  1  0  0  0  0
  5  1  1  0  0  0  0
  6  3  1  0  0  0  0
  7  1  2  0  0  0  0
  8  7  1  0  0  0  0
  9 18  1  0  0  0  0
 10  6  1  0  0  0  0
 11  5  1  0  0  0  0
 12  9  1  0  0  0  0
 12 31  1  0  0  0  0
 13  6  2  0  0  0  0
 13 32  1  0  0  0  0
 14  5  2  0  0  0  0
 15 10  1  0  0  0  0
 15 33  1  0  0  0  0
 16 13  1  0  0  0  0
 16 15  2  0  0  0  0
 16 34  1  0  0  0  0
 17  9  2  0  0  0  0
 18 11  1  0  0  0  0
 18 35  1  0  0  0  0
 18 36  1  0  0  0  0
 19 12  1  0  0  0  0
 19 37  1  0  0  0  0
 19 38  1  0  0  0  0
 20 19  1  0  0  0  0
 21  7  1  0  0  0  0
 21 39  1  0  0  0  0
 22  8  1  0  0  0  0
 22 26  2  0  0  0  0
 22 40  1  0  0  0  0
 23 20  2  0  0  0  0
 23 41  1  0  0  0  0
 24 20  1  0  0  0  0
 24 42  1  0  0  0  0
 25 21  2  0  0  0  0
 25 43  1  0  0  0  0
 26 25  1  0  0  0  0
 26 44  1  0  0  0  0
 27 23  1  0  0  0  0
 27 29  2  0  0  0  0
 27 45  1  0  0  0  0
 28 24  2  0  0  0  0
 28 46  1  0  0  0  0
 29 28  1  0  0  0  0
 29 47  1  0  0  0  0
M  END
>  <Mol_ID>
8090

>  <Formula>
C23H18N2O4

>  <MolWeight>
386.40002

>  <Cat>
P2794

>  <Name>
WAY-359820

>  <Synonyms>
N/A

>  <Target>
Bcl-2

>  <Form>
free base

>  <CAS>
380173-16-0

>  <URL>
N/A

$$$$
