WAY-636833
 OpenBabel08302521423D

 38 40  0  0  0  0  0  0  0  0999 V2000
    0.6859    0.0651   -0.4085 N   0  0  0  0  0  0  0  0  0  0  0  0
   -0.0090   -1.0883   -0.1311 C   0  0  0  0  0  0  0  0  0  0  0  0
   -0.1944    1.1133   -0.1848 C   0  0  0  0  0  0  0  0  0  0  0  0
   -1.3606    0.5892    0.1547 N   0  0  0  0  0  0  0  0  0  0  0  0
   -1.2467   -0.7809    0.1664 N   0  0  0  0  0  0  0  0  0  0  0  0
    0.7259   -2.6594   -0.0645 S   0  0  0  0  0  0  0  0  0  0  0  0
    0.1072    2.5610   -0.2012 C   0  0  0  0  0  0  0  0  0  0  0  0
   -0.6575   -3.8549   -0.1907 C   0  0  3  0  0  0  0  0  0  0  0  0
    2.0678    0.1756   -0.7957 C   0  0  0  0  0  0  0  0  0  0  0  0
    1.0156    3.1391   -1.0963 C   0  0  0  0  0  0  0  0  0  0  0  0
   -0.5292    3.4065    0.7239 C   0  0  0  0  0  0  0  0  0  0  0  0
   -0.1435   -5.3001   -0.1837 C   0  0  0  0  0  0  0  0  0  0  0  0
    0.7508    5.3049   -0.0581 C   0  0  0  0  0  0  0  0  0  0  0  0
    1.3537    4.4944   -1.0109 C   0  0  0  0  0  0  0  0  0  0  0  0
   -0.2088    4.7682    0.7965 C   0  0  0  0  0  0  0  0  0  0  0  0
   -1.6924   -3.7294    0.9326 C   0  0  0  0  0  0  0  0  0  0  0  0
    0.5140   -5.8371    0.9424 C   0  0  0  0  0  0  0  0  0  0  0  0
   -0.4373   -6.1678   -1.2488 C   0  0  0  0  0  0  0  0  0  0  0  0
   -0.1381   -7.5294   -1.1666 C   0  0  0  0  0  0  0  0  0  0  0  0
    0.8074   -7.1991    1.0246 C   0  0  0  0  0  0  0  0  0  0  0  0
    0.4654   -8.0502   -0.0225 C   0  0  0  0  0  0  0  0  0  0  0  0
   -1.1538   -3.6635   -1.1500 H   0  0  0  0  0  0  0  0  0  0  0  0
    2.1056    0.5394   -1.8251 H   0  0  0  0  0  0  0  0  0  0  0  0
    2.5755    0.8608   -0.1125 H   0  0  0  0  0  0  0  0  0  0  0  0
    2.5729   -0.7892   -0.7655 H   0  0  0  0  0  0  0  0  0  0  0  0
    1.4753    2.5608   -1.8904 H   0  0  0  0  0  0  0  0  0  0  0  0
   -1.2759    3.0060    1.4075 H   0  0  0  0  0  0  0  0  0  0  0  0
    1.0211    6.3562    0.0143 H   0  0  0  0  0  0  0  0  0  0  0  0
    2.0901    4.9131   -1.6936 H   0  0  0  0  0  0  0  0  0  0  0  0
   -0.7040    5.4040    1.5264 H   0  0  0  0  0  0  0  0  0  0  0  0
   -1.2393   -3.8197    1.9261 H   0  0  0  0  0  0  0  0  0  0  0  0
   -2.2442   -2.7912    0.8944 H   0  0  0  0  0  0  0  0  0  0  0  0
   -2.4432   -4.5266    0.8450 H   0  0  0  0  0  0  0  0  0  0  0  0
    0.7671   -5.1973    1.7851 H   0  0  0  0  0  0  0  0  0  0  0  0
   -0.9376   -5.7952   -2.1423 H   0  0  0  0  0  0  0  0  0  0  0  0
   -0.4000   -8.1967   -1.9850 H   0  0  0  0  0  0  0  0  0  0  0  0
    1.2758   -7.5992    1.9208 H   0  0  0  0  0  0  0  0  0  0  0  0
    0.6611   -9.1163    0.0579 H   0  0  0  0  0  0  0  0  0  0  0  0
  2  1  1  0  0  0  0
  3  1  1  0  0  0  0
  4  3  2  0  0  0  0
  4  5  1  0  0  0  0
  5  2  2  0  0  0  0
  6  2  1  0  0  0  0
  7  3  1  0  0  0  0
  8  6  1  0  0  0  0
  8 22  1  0  0  0  0
  9  1  1  0  0  0  0
  9 23  1  0  0  0  0
  9 24  1  0  0  0  0
  9 25  1  0  0  0  0
 10  7  2  0  0  0  0
 10 26  1  0  0  0  0
 11  7  1  0  0  0  0
 11 27  1  0  0  0  0
 12  8  1  0  0  0  0
 13 15  1  0  0  0  0
 13 14  2  0  0  0  0
 13 28  1  0  0  0  0
 14 10  1  0  0  0  0
 14 29  1  0  0  0  0
 15 11  2  0  0  0  0
 15 30  1  0  0  0  0
 16  8  1  0  0  0  0
 16 31  1  0  0  0  0
 16 32  1  0  0  0  0
 16 33  1  0  0  0  0
 17 12  2  0  0  0  0
 17 34  1  0  0  0  0
 18 12  1  0  0  0  0
 18 35  1  0  0  0  0
 19 18  2  0  0  0  0
 19 36  1  0  0  0  0
 20 17  1  0  0  0  0
 20 37  1  0  0  0  0
 21 19  1  0  0  0  0
 21 20  2  0  0  0  0
 21 38  1  0  0  0  0
M  END
>  <Mol_ID>
8475

>  <Formula>
C17H16ClN3S

>  <MolWeight>
329.84704

>  <Cat>
P3001

>  <Name>
WAY-636833

>  <Synonyms>
N/A

>  <Target>
others

>  <Form>
free base

>  <CAS>
792960-68-0

>  <URL>
N/A

$$$$
