WAY-297344
 OpenBabel08302521403D

 44 46  0  0  0  0  0  0  0  0999 V2000
    2.3529   -0.8467    2.9896 C   0  0  0  0  0  0  0  0  0  0  0  0
    2.4679   -0.5632    1.5789 N   0  0  0  0  0  0  0  0  0  0  0  0
    2.1497   -2.1567    3.4274 C   0  0  0  0  0  0  0  0  0  0  0  0
    2.3594    0.1897    3.9358 C   0  0  0  0  0  0  0  0  0  0  0  0
    3.4142    0.5031    1.1659 C   0  0  0  0  0  0  0  0  0  0  0  0
    1.0165   -0.6181    0.6770 S   0  0  0  0  0  0  0  0  0  0  0  0
    2.0230   -2.4340    4.7888 C   0  0  0  0  0  0  0  0  0  0  0  0
    2.2400   -0.0860    5.2969 C   0  0  0  0  0  0  0  0  0  0  0  0
    4.8273    0.2865    1.6953 C   0  0  0  0  0  0  0  0  0  0  0  0
    0.0619    0.6993    1.4135 C   0  0  0  0  0  0  0  0  0  0  0  0
    1.3306   -0.2315   -0.6851 O   0  0  0  0  0  0  0  0  0  0  0  0
    0.3314   -1.8675    0.9479 O   0  0  0  0  0  0  0  0  0  0  0  0
    2.0822   -1.3992    5.7264 C   0  0  0  0  0  0  0  0  0  0  0  0
    5.6569   -0.6333    1.0411 N   0  0  0  0  0  0  0  0  0  0  0  0
    5.2154    0.9457    2.6663 O   0  0  0  0  0  0  0  0  0  0  0  0
    7.0845   -0.4954    1.3051 C   0  0  0  0  0  0  0  0  0  0  0  0
    5.3976   -1.0982   -0.3176 C   0  0  0  0  0  0  0  0  0  0  0  0
    7.6014    0.6181    0.4184 C   0  0  0  0  0  0  0  0  0  0  0  0
    5.8789   -0.0557   -1.3454 C   0  0  0  0  0  0  0  0  0  0  0  0
    6.9821    0.8548   -0.8314 C   0  0  0  0  0  0  0  0  0  0  0  0
    8.5986    1.4832    0.8825 C   0  0  0  0  0  0  0  0  0  0  0  0
    7.3171    2.0085   -1.5492 C   0  0  0  0  0  0  0  0  0  0  0  0
    8.9100    2.6343    0.1622 C   0  0  0  0  0  0  0  0  0  0  0  0
    8.2553    2.9067   -1.0384 C   0  0  0  0  0  0  0  0  0  0  0  0
    2.0972   -2.9729    2.7075 H   0  0  0  0  0  0  0  0  0  0  0  0
    2.4829    1.2252    3.6371 H   0  0  0  0  0  0  0  0  0  0  0  0
    3.4654    0.5965    0.0795 H   0  0  0  0  0  0  0  0  0  0  0  0
    3.0659    1.4816    1.5159 H   0  0  0  0  0  0  0  0  0  0  0  0
    1.8850   -3.4595    5.1245 H   0  0  0  0  0  0  0  0  0  0  0  0
    2.2807    0.7264    6.0189 H   0  0  0  0  0  0  0  0  0  0  0  0
    0.6232    1.6331    1.3546 H   0  0  0  0  0  0  0  0  0  0  0  0
   -0.8670    0.7941    0.8453 H   0  0  0  0  0  0  0  0  0  0  0  0
   -0.1755    0.4424    2.4465 H   0  0  0  0  0  0  0  0  0  0  0  0
    2.0039   -1.6180    6.7875 H   0  0  0  0  0  0  0  0  0  0  0  0
    7.2555   -0.2714    2.3636 H   0  0  0  0  0  0  0  0  0  0  0  0
    7.5931   -1.4375    1.0691 H   0  0  0  0  0  0  0  0  0  0  0  0
    5.9465   -2.0392   -0.4520 H   0  0  0  0  0  0  0  0  0  0  0  0
    4.3404   -1.3366   -0.4643 H   0  0  0  0  0  0  0  0  0  0  0  0
    6.2147   -0.5690   -2.2542 H   0  0  0  0  0  0  0  0  0  0  0  0
    5.0261    0.5744   -1.6246 H   0  0  0  0  0  0  0  0  0  0  0  0
    9.0863    1.3006    1.8374 H   0  0  0  0  0  0  0  0  0  0  0  0
    6.8104    2.2412   -2.4828 H   0  0  0  0  0  0  0  0  0  0  0  0
    9.6365    3.3392    0.5577 H   0  0  0  0  0  0  0  0  0  0  0  0
    8.4637    3.8321   -1.5690 H   0  0  0  0  0  0  0  0  0  0  0  0
  1  2  1  0  0  0  0
  1  3  2  0  0  0  0
  1  4  1  0  0  0  0
  2  5  1  0  0  0  0
  2  6  1  0  0  0  0
  3  7  1  0  0  0  0
  3 25  1  0  0  0  0
  4  8  2  0  0  0  0
  4 26  1  0  0  0  0
  5  9  1  0  0  0  0
  5 27  1  0  0  0  0
  5 28  1  0  0  0  0
  6 10  1  0  0  0  0
  6 11  2  0  0  0  0
  6 12  2  0  0  0  0
  7 13  2  0  0  0  0
  7 29  1  0  0  0  0
  8 13  1  0  0  0  0
  8 30  1  0  0  0  0
  9 14  1  0  0  0  0
  9 15  2  0  0  0  0
 10 31  1  0  0  0  0
 10 32  1  0  0  0  0
 10 33  1  0  0  0  0
 13 34  1  0  0  0  0
 14 16  1  0  0  0  0
 14 17  1  0  0  0  0
 16 18  1  0  0  0  0
 16 35  1  0  0  0  0
 16 36  1  0  0  0  0
 17 19  1  0  0  0  0
 17 37  1  0  0  0  0
 17 38  1  0  0  0  0
 18 20  2  0  0  0  0
 18 21  1  0  0  0  0
 19 20  1  0  0  0  0
 19 39  1  0  0  0  0
 19 40  1  0  0  0  0
 20 22  1  0  0  0  0
 21 23  2  0  0  0  0
 21 41  1  0  0  0  0
 22 24  2  0  0  0  0
 22 42  1  0  0  0  0
 23 24  1  0  0  0  0
 23 43  1  0  0  0  0
 24 44  1  0  0  0  0
M  END
>  <Mol_ID>
8338

>  <Formula>
C18H19ClN2O3S

>  <MolWeight>
378.87306

>  <Cat>
P2093

>  <Name>
WAY-297344

>  <Synonyms>
N/A

>  <Target>
others

>  <Form>
free base

>  <CAS>
425666-42-8

>  <URL>
N/A

$$$$
