WAY-327950
 OpenBabel08302521443D

 53 56  0  0  0  0  0  0  0  0999 V2000
    0.6882    0.4213    0.4038 S   0  0  0  0  0  0  0  0  0  0  0  0
    0.4818   -4.3994    2.6175 C   0  0  0  0  0  0  0  0  0  0  0  0
    0.1528   -2.9310    2.6429 C   0  0  0  0  0  0  0  0  0  0  0  0
    0.1096   -0.6762    1.6930 C   0  0  0  0  0  0  0  0  0  0  0  0
   -0.5766    0.4489   -0.7332 N   0  0  0  0  0  0  0  0  0  0  0  0
   -0.5902   -3.1742    4.9453 N   0  0  0  0  0  0  0  0  0  0  0  0
   -0.3420   -4.5101    4.9613 C   0  0  0  0  0  0  0  0  0  0  0  0
   -0.3650   -2.3655    3.8282 C   0  0  0  0  0  0  0  0  0  0  0  0
    0.2050   -5.1104    3.7285 C   0  0  0  0  0  0  0  0  0  0  0  0
    1.0336   -5.1405    1.3975 C   0  0  0  0  0  0  0  0  0  0  0  0
    0.3612   -2.0571    1.5703 C   0  0  0  0  0  0  0  0  0  0  0  0
    1.8392   -0.2159   -0.1990 O   0  0  0  0  0  0  0  0  0  0  0  0
    0.7981    1.7421    0.9887 O   0  0  0  0  0  0  0  0  0  0  0  0
    1.6036   -6.3875    1.5962 N   0  0  0  0  0  0  0  0  0  0  0  0
   -0.3987   -0.1408    2.8807 C   0  0  0  0  0  0  0  0  0  0  0  0
   -0.6534   -0.9940    3.9478 C   0  0  0  0  0  0  0  0  0  0  0  0
   -0.5614   -5.2013    5.9425 O   0  0  0  0  0  0  0  0  0  0  0  0
    0.9629   -4.6460    0.2755 O   0  0  0  0  0  0  0  0  0  0  0  0
    2.0413   -7.2661    0.5047 C   0  0  0  0  0  0  0  0  0  0  0  0
   -0.8006   -0.7961   -1.5067 C   0  0  0  0  0  0  0  0  0  0  0  0
   -1.8314    1.1082   -0.3072 C   0  0  0  0  0  0  0  0  0  0  0  0
    0.9933   -8.3005    0.1427 C   0  0  0  0  0  0  0  0  0  0  0  0
   -0.2457   -7.8683   -0.3459 C   0  0  0  0  0  0  0  0  0  0  0  0
    1.2176   -9.6870    0.2444 C   0  0  0  0  0  0  0  0  0  0  0  0
   -1.6329   -0.4886   -2.7494 C   0  0  0  0  0  0  0  0  0  0  0  0
   -2.6795    1.4440   -1.5314 C   0  0  0  0  0  0  0  0  0  0  0  0
   -1.2681   -8.7751   -0.6285 C   0  0  0  0  0  0  0  0  0  0  0  0
    0.1980  -10.5987   -0.0679 C   0  0  0  0  0  0  0  0  0  0  0  0
   -2.9407    0.2077   -2.3861 C   0  0  0  0  0  0  0  0  0  0  0  0
   -1.0531  -10.1413   -0.4758 C   0  0  0  0  0  0  0  0  0  0  0  0
   -0.9548   -2.7838    5.8052 H   0  0  0  0  0  0  0  0  0  0  0  0
    0.3441   -6.1781    3.8172 H   0  0  0  0  0  0  0  0  0  0  0  0
    0.7590   -2.4160    0.6248 H   0  0  0  0  0  0  0  0  0  0  0  0
    1.7223   -6.7654    2.5214 H   0  0  0  0  0  0  0  0  0  0  0  0
   -0.5581    0.9308    2.9922 H   0  0  0  0  0  0  0  0  0  0  0  0
   -1.0311   -0.5784    4.8842 H   0  0  0  0  0  0  0  0  0  0  0  0
    2.2910   -6.6769   -0.3841 H   0  0  0  0  0  0  0  0  0  0  0  0
    2.9588   -7.7605    0.8456 H   0  0  0  0  0  0  0  0  0  0  0  0
   -1.3188   -1.5324   -0.8834 H   0  0  0  0  0  0  0  0  0  0  0  0
    0.1527   -1.2250   -1.8313 H   0  0  0  0  0  0  0  0  0  0  0  0
   -1.6151    2.0404    0.2245 H   0  0  0  0  0  0  0  0  0  0  0  0
   -2.3866    0.4473    0.3671 H   0  0  0  0  0  0  0  0  0  0  0  0
   -0.4172   -6.8069   -0.5116 H   0  0  0  0  0  0  0  0  0  0  0  0
    2.1821  -10.0811    0.5579 H   0  0  0  0  0  0  0  0  0  0  0  0
   -1.8480   -1.4188   -3.2873 H   0  0  0  0  0  0  0  0  0  0  0  0
   -1.0581    0.1517   -3.4306 H   0  0  0  0  0  0  0  0  0  0  0  0
   -2.1684    2.2023   -2.1383 H   0  0  0  0  0  0  0  0  0  0  0  0
   -3.6328    1.8783   -1.2101 H   0  0  0  0  0  0  0  0  0  0  0  0
   -2.2314   -8.4082   -0.9706 H   0  0  0  0  0  0  0  0  0  0  0  0
    0.3739  -11.6705    0.0071 H   0  0  0  0  0  0  0  0  0  0  0  0
   -3.4782    0.4913   -3.2978 H   0  0  0  0  0  0  0  0  0  0  0  0
   -3.5849   -0.4883   -1.8352 H   0  0  0  0  0  0  0  0  0  0  0  0
   -1.8555  -10.8442   -0.6877 H   0  0  0  0  0  0  0  0  0  0  0  0
  2  3  1  0  0  0  0
  3 11  2  0  0  0  0
  4  1  1  0  0  0  0
  5  1  1  0  0  0  0
  6  8  1  0  0  0  0
  6 31  1  0  0  0  0
  7  6  1  0  0  0  0
  7  9  1  0  0  0  0
  8 16  2  0  0  0  0
  8  3  1  0  0  0  0
  9  2  2  0  0  0  0
  9 32  1  0  0  0  0
 10  2  1  0  0  0  0
 11  4  1  0  0  0  0
 11 33  1  0  0  0  0
 12  1  2  0  0  0  0
 13  1  2  0  0  0  0
 14 10  1  0  0  0  0
 14 34  1  0  0  0  0
 15  4  2  0  0  0  0
 15 35  1  0  0  0  0
 16 15  1  0  0  0  0
 16 36  1  0  0  0  0
 17  7  2  0  0  0  0
 18 10  2  0  0  0  0
 19 14  1  0  0  0  0
 19 37  1  0  0  0  0
 19 38  1  0  0  0  0
 20  5  1  0  0  0  0
 20 39  1  0  0  0  0
 20 40  1  0  0  0  0
 21  5  1  0  0  0  0
 21 41  1  0  0  0  0
 21 42  1  0  0  0  0
 22 19  1  0  0  0  0
 23 22  2  0  0  0  0
 23 43  1  0  0  0  0
 24 22  1  0  0  0  0
 24 44  1  0  0  0  0
 25 20  1  0  0  0  0
 25 45  1  0  0  0  0
 25 46  1  0  0  0  0
 26 21  1  0  0  0  0
 26 47  1  0  0  0  0
 26 48  1  0  0  0  0
 27 23  1  0  0  0  0
 27 49  1  0  0  0  0
 28 24  2  0  0  0  0
 28 50  1  0  0  0  0
 29 26  1  0  0  0  0
 29 25  1  0  0  0  0
 29 51  1  0  0  0  0
 29 52  1  0  0  0  0
 30 28  1  0  0  0  0
 30 27  2  0  0  0  0
 30 53  1  0  0  0  0
M  END
>  <Mol_ID>
8989

>  <Formula>
C22H23N3O4S

>  <MolWeight>
425.50072

>  <Cat>
P2552

>  <Name>
WAY-327950

>  <Synonyms>
N/A

>  <Target>
caspase

>  <Form>
free base

>  <CAS>
687590-49-4

>  <URL>
N/A

$$$$
