WAY-621924
 OpenBabel08302521443D

 36 38  0  0  0  0  0  0  0  0999 V2000
    1.9391    3.9221    2.0227 C   0  0  0  0  0  0  0  0  0  0  0  0
    2.7058    2.8862    1.5510 N   0  0  0  0  0  0  0  0  0  0  0  0
    1.7158    4.0672    3.3128 N   0  0  0  0  0  0  0  0  0  0  0  0
    2.8384    2.4965    0.2372 C   0  0  0  0  0  0  0  0  0  0  0  0
    1.2582    5.1117    1.0154 S   0  0  0  0  0  0  0  0  0  0  0  0
    0.9078    5.1744    3.5283 C   0  0  0  0  0  0  0  0  0  0  0  0
    3.6892    1.2901    0.0224 C   0  0  0  0  0  0  0  0  0  0  0  0
    0.5820    5.8799    2.3857 C   0  0  0  0  0  0  0  0  0  0  0  0
    2.2806    2.9829   -0.7400 O   0  0  0  0  0  0  0  0  0  0  0  0
    3.3278    0.4070   -1.0026 C   0  0  0  0  0  0  0  0  0  0  0  0
    3.9893   -0.8158   -1.1432 C   0  0  0  0  0  0  0  0  0  0  0  0
    3.6179   -1.7811   -2.0539 O   0  0  0  0  0  0  0  0  0  0  0  0
    2.2741   -2.0111   -2.2698 C   0  0  0  0  0  0  0  0  0  0  0  0
    4.7983    0.9956    0.8287 C   0  0  0  0  0  0  0  0  0  0  0  0
    5.5121   -0.1892    0.6278 C   0  0  0  0  0  0  0  0  0  0  0  0
    0.4757    5.4858    4.9134 C   0  0  0  0  0  0  0  0  0  0  0  0
    5.1017   -1.0977   -0.3499 C   0  0  0  0  0  0  0  0  0  0  0  0
    1.9218   -2.4750   -3.5385 C   0  0  0  0  0  0  0  0  0  0  0  0
    1.2814   -1.8398   -1.2984 C   0  0  0  0  0  0  0  0  0  0  0  0
   -0.0615   -2.0209   -1.6275 C   0  0  0  0  0  0  0  0  0  0  0  0
    0.5784   -2.6872   -3.8577 C   0  0  0  0  0  0  0  0  0  0  0  0
   -0.4133   -2.4371   -2.9096 C   0  0  0  0  0  0  0  0  0  0  0  0
    3.0647    2.3026    2.2928 H   0  0  0  0  0  0  0  0  0  0  0  0
   -0.0129    6.7783    2.2911 H   0  0  0  0  0  0  0  0  0  0  0  0
    2.4949    0.6591   -1.6564 H   0  0  0  0  0  0  0  0  0  0  0  0
    5.1337    1.6865    1.5979 H   0  0  0  0  0  0  0  0  0  0  0  0
    6.3821   -0.4127    1.2413 H   0  0  0  0  0  0  0  0  0  0  0  0
   -0.2884    4.7727    5.2377 H   0  0  0  0  0  0  0  0  0  0  0  0
    1.3218    5.4255    5.6043 H   0  0  0  0  0  0  0  0  0  0  0  0
    0.0522    6.4943    4.9813 H   0  0  0  0  0  0  0  0  0  0  0  0
    5.6434   -2.0307   -0.4877 H   0  0  0  0  0  0  0  0  0  0  0  0
    2.6901   -2.6589   -4.2849 H   0  0  0  0  0  0  0  0  0  0  0  0
    1.5335   -1.5382   -0.2863 H   0  0  0  0  0  0  0  0  0  0  0  0
   -0.8309   -1.8289   -0.8842 H   0  0  0  0  0  0  0  0  0  0  0  0
    0.3039   -3.0358   -4.8500 H   0  0  0  0  0  0  0  0  0  0  0  0
   -1.4609   -2.5713   -3.1670 H   0  0  0  0  0  0  0  0  0  0  0  0
  2  1  1  0  0  0  0
  2 23  1  0  0  0  0
  3  1  2  0  0  0  0
  4  2  1  0  0  0  0
  5  1  1  0  0  0  0
  6  3  1  0  0  0  0
  6  8  2  0  0  0  0
  7  4  1  0  0  0  0
  8  5  1  0  0  0  0
  8 24  1  0  0  0  0
  9  4  2  0  0  0  0
 10  7  2  0  0  0  0
 10 25  1  0  0  0  0
 11 10  1  0  0  0  0
 11 17  2  0  0  0  0
 12 11  1  0  0  0  0
 13 12  1  0  0  0  0
 14  7  1  0  0  0  0
 14 26  1  0  0  0  0
 15 14  2  0  0  0  0
 15 27  1  0  0  0  0
 16  6  1  0  0  0  0
 16 28  1  0  0  0  0
 16 29  1  0  0  0  0
 16 30  1  0  0  0  0
 17 15  1  0  0  0  0
 17 31  1  0  0  0  0
 18 13  2  0  0  0  0
 18 32  1  0  0  0  0
 19 13  1  0  0  0  0
 19 33  1  0  0  0  0
 20 19  2  0  0  0  0
 20 34  1  0  0  0  0
 21 18  1  0  0  0  0
 21 22  2  0  0  0  0
 21 35  1  0  0  0  0
 22 20  1  0  0  0  0
 22 36  1  0  0  0  0
M  END
>  <Mol_ID>
9063

>  <Formula>
C17H14N2O2S

>  <MolWeight>
310.37026

>  <Cat>
P2984

>  <Name>
WAY-621924

>  <Synonyms>
N/A

>  <Target>
glucokinase

>  <Form>
free base

>  <CAS>
745789-70-2

>  <URL>
N/A

$$$$
