WAY-299899
 OpenBabel08302521413D

 41 44  0  0  0  0  0  0  0  0999 V2000
    0.7453    0.3883    0.1552 C   0  0  0  0  0  0  0  0  0  0  0  0
   -0.6802    0.3514    0.0742 C   0  0  0  0  0  0  0  0  0  0  0  0
    1.3187   -0.8540    0.0642 C   0  0  0  0  0  0  0  0  0  0  0  0
    1.6240    1.5221    0.3096 C   0  0  0  0  0  0  0  0  0  0  0  0
   -1.1354   -0.9509   -0.0018 C   0  0  0  0  0  0  0  0  0  0  0  0
   -1.6099    1.5280    0.0967 C   0  0  0  0  0  0  0  0  0  0  0  0
    0.1373   -2.0833   -0.0635 S   0  0  0  0  0  0  0  0  0  0  0  0
    2.6440   -1.1255    0.0753 N   0  0  0  0  0  0  0  0  0  0  0  0
    2.9826    1.2352    0.1292 N   0  0  0  0  0  0  0  0  0  0  0  0
    1.1872    2.6295    0.6141 O   0  0  0  0  0  0  0  0  0  0  0  0
   -2.5775   -1.3520   -0.0642 C   0  0  0  0  0  0  0  0  0  0  0  0
   -3.0329    1.1355   -0.3266 C   0  0  0  0  0  0  0  0  0  0  0  0
    3.4508   -0.0877    0.0793 C   0  0  0  0  0  0  0  0  0  0  0  0
    3.8641    2.3994    0.1319 C   0  0  0  0  0  0  0  0  0  0  0  0
   -3.4763   -0.1714    0.3457 C   0  0  0  0  0  0  0  0  0  0  0  0
    4.8240   -0.3188    0.0611 N   0  0  0  0  0  0  0  0  0  0  0  0
    3.9178    3.0807   -1.2232 C   0  0  0  0  0  0  0  0  0  0  0  0
    5.2635   -1.6620   -0.0527 N   0  0  0  0  0  0  0  0  0  0  0  0
    2.9796    4.0742   -1.5530 C   0  0  0  0  0  0  0  0  0  0  0  0
    4.8776    2.7249   -2.1808 C   0  0  0  0  0  0  0  0  0  0  0  0
    3.0006    4.6974   -2.8002 C   0  0  0  0  0  0  0  0  0  0  0  0
    4.9013    3.3539   -3.4289 C   0  0  0  0  0  0  0  0  0  0  0  0
    3.9646    4.3375   -3.7382 C   0  0  0  0  0  0  0  0  0  0  0  0
   -1.2425    2.3138   -0.5735 H   0  0  0  0  0  0  0  0  0  0  0  0
   -1.6304    1.9410    1.1123 H   0  0  0  0  0  0  0  0  0  0  0  0
   -2.8230   -1.6560   -1.0890 H   0  0  0  0  0  0  0  0  0  0  0  0
   -2.7774   -2.2044    0.5947 H   0  0  0  0  0  0  0  0  0  0  0  0
   -3.0712    1.0095   -1.4165 H   0  0  0  0  0  0  0  0  0  0  0  0
   -3.7247    1.9467   -0.0740 H   0  0  0  0  0  0  0  0  0  0  0  0
    3.5185    3.1228    0.8817 H   0  0  0  0  0  0  0  0  0  0  0  0
    4.8765    2.1322    0.4483 H   0  0  0  0  0  0  0  0  0  0  0  0
   -4.5172   -0.3930    0.0858 H   0  0  0  0  0  0  0  0  0  0  0  0
   -3.4383   -0.0410    1.4352 H   0  0  0  0  0  0  0  0  0  0  0  0
    5.4272    0.3786   -0.3623 H   0  0  0  0  0  0  0  0  0  0  0  0
    5.6595   -1.9602    0.8433 H   0  0  0  0  0  0  0  0  0  0  0  0
    4.4263   -2.2584   -0.1531 H   0  0  0  0  0  0  0  0  0  0  0  0
    2.2139    4.3711   -0.8383 H   0  0  0  0  0  0  0  0  0  0  0  0
    5.6218    1.9625   -1.9751 H   0  0  0  0  0  0  0  0  0  0  0  0
    2.2628    5.4589   -3.0410 H   0  0  0  0  0  0  0  0  0  0  0  0
    5.6502    3.0747   -4.1655 H   0  0  0  0  0  0  0  0  0  0  0  0
    3.9829    4.8218   -4.7104 H   0  0  0  0  0  0  0  0  0  0  0  0
  1  2  1  0  0  0  0
  1  3  2  0  0  0  0
  1  4  1  0  0  0  0
  2  5  2  0  0  0  0
  2  6  1  0  0  0  0
  3  7  1  0  0  0  0
  3  8  1  0  0  0  0
  4  9  1  0  0  0  0
  4 10  2  0  0  0  0
  5 11  1  0  0  0  0
  5  7  1  0  0  0  0
  6 12  1  0  0  0  0
  6 24  1  0  0  0  0
  6 25  1  0  0  0  0
  8 13  2  0  0  0  0
  9 14  1  0  0  0  0
  9 13  1  0  0  0  0
 11 15  1  0  0  0  0
 11 26  1  0  0  0  0
 11 27  1  0  0  0  0
 12 15  1  0  0  0  0
 12 28  1  0  0  0  0
 12 29  1  0  0  0  0
 13 16  1  0  0  0  0
 14 17  1  0  0  0  0
 14 30  1  0  0  0  0
 14 31  1  0  0  0  0
 15 32  1  0  0  0  0
 15 33  1  0  0  0  0
 16 18  1  0  0  0  0
 16 34  1  0  0  0  0
 17 19  2  0  0  0  0
 17 20  1  0  0  0  0
 18 35  1  0  0  0  0
 18 36  1  0  0  0  0
 19 21  1  0  0  0  0
 19 37  1  0  0  0  0
 20 22  2  0  0  0  0
 20 38  1  0  0  0  0
 21 23  2  0  0  0  0
 21 39  1  0  0  0  0
 22 23  1  0  0  0  0
 22 40  1  0  0  0  0
 23 41  1  0  0  0  0
M  END
>  <Mol_ID>
8396

>  <Formula>
C17H18N4OS

>  <MolWeight>
326.41602

>  <Cat>
P2122

>  <Name>
WAY-299899

>  <Synonyms>
N/A

>  <Target>
Immunology & Inflammation related

>  <Form>
free base

>  <CAS>
337350-75-1

>  <URL>
N/A

$$$$
