WAY-330322
 OpenBabel08302521443D

 50 53  0  0  0  0  0  0  0  0999 V2000
   -3.5282   -0.0201    0.0618 C   0  0  0  0  0  0  0  0  0  0  0  0
   -1.4029   -0.3606   -0.4048 C   0  0  0  0  0  0  0  0  0  0  0  0
   -2.6590   -0.8370   -0.6074 O   0  0  0  0  0  0  0  0  0  0  0  0
   -4.9603   -0.2565    0.0016 C   0  0  0  0  0  0  0  0  0  0  0  0
   -0.3121   -0.9598   -0.9038 N   0  0  0  0  0  0  0  0  0  0  0  0
   -2.8217    1.0182    0.6465 C   0  0  0  0  0  0  0  0  0  0  0  0
   -1.4516    0.7970    0.3605 C   0  0  0  0  0  0  0  0  0  0  0  0
   -5.4458   -1.5722   -0.0659 N   0  0  0  0  0  0  0  0  0  0  0  0
    0.8381   -0.3409   -0.6196 C   0  0  0  0  0  0  0  0  0  0  0  0
    0.9402    0.8479    0.1412 C   0  0  0  0  0  0  0  0  0  0  0  0
   -7.2815   -4.9917    1.7720 C   0  0  0  0  0  0  0  0  0  0  0  0
   -0.2356    1.4337    0.6423 C   0  0  0  0  0  0  0  0  0  0  0  0
   -5.7422    0.6961    0.0345 O   0  0  0  0  0  0  0  0  0  0  0  0
   -4.6332   -2.7869    0.0130 C   0  0  0  0  0  0  0  0  0  0  0  0
   -6.8634   -1.7836   -0.3455 C   0  0  0  0  0  0  0  0  0  0  0  0
   -6.7089   -4.0697    0.7092 C   0  0  0  0  0  0  0  0  0  0  0  0
    2.2027    1.4199    0.3830 C   0  0  0  0  0  0  0  0  0  0  0  0
   -6.6774   -5.3888    2.7568 O   0  0  0  0  0  0  0  0  0  0  0  0
   -7.4914   -2.7546    0.6489 C   0  0  0  0  0  0  0  0  0  0  0  0
   -5.2286   -3.7926    0.9910 C   0  0  0  0  0  0  0  0  0  0  0  0
    2.0073   -0.9014   -1.1075 C   0  0  0  0  0  0  0  0  0  0  0  0
    3.3674    0.8301   -0.1131 C   0  0  0  0  0  0  0  0  0  0  0  0
   -8.5593   -5.3478    1.4488 O   0  0  0  0  0  0  0  0  0  0  0  0
    3.2646   -0.3335   -0.8657 C   0  0  0  0  0  0  0  0  0  0  0  0
    4.5274    1.4789    0.2052 O   0  0  0  0  0  0  0  0  0  0  0  0
   -9.1641   -6.2506    2.3839 C   0  0  0  0  0  0  0  0  0  0  0  0
    5.7384    0.8935   -0.2609 C   0  0  0  0  0  0  0  0  0  0  0  0
  -10.5721   -6.5616    1.9161 C   0  0  0  0  0  0  0  0  0  0  0  0
   -3.2605    1.8299    1.2108 H   0  0  0  0  0  0  0  0  0  0  0  0
   -0.2116    2.3486    1.2258 H   0  0  0  0  0  0  0  0  0  0  0  0
   -3.6195   -2.5830    0.3550 H   0  0  0  0  0  0  0  0  0  0  0  0
   -4.5761   -3.2103   -0.9963 H   0  0  0  0  0  0  0  0  0  0  0  0
   -6.9352   -2.1854   -1.3636 H   0  0  0  0  0  0  0  0  0  0  0  0
   -7.4220   -0.8423   -0.3351 H   0  0  0  0  0  0  0  0  0  0  0  0
   -6.7819   -4.5934   -0.2530 H   0  0  0  0  0  0  0  0  0  0  0  0
    2.2870    2.3344    0.9668 H   0  0  0  0  0  0  0  0  0  0  0  0
   -8.5332   -2.9420    0.3629 H   0  0  0  0  0  0  0  0  0  0  0  0
   -7.5180   -2.2927    1.6447 H   0  0  0  0  0  0  0  0  0  0  0  0
   -5.1114   -3.4007    2.0106 H   0  0  0  0  0  0  0  0  0  0  0  0
   -4.6532   -4.7256    0.9482 H   0  0  0  0  0  0  0  0  0  0  0  0
    1.9439   -1.8127   -1.6978 H   0  0  0  0  0  0  0  0  0  0  0  0
    4.1340   -0.8317   -1.2811 H   0  0  0  0  0  0  0  0  0  0  0  0
   -8.5795   -7.1766    2.4302 H   0  0  0  0  0  0  0  0  0  0  0  0
   -9.1989   -5.7873    3.3763 H   0  0  0  0  0  0  0  0  0  0  0  0
    5.8679   -0.1205    0.1331 H   0  0  0  0  0  0  0  0  0  0  0  0
    5.7806    0.8996   -1.3553 H   0  0  0  0  0  0  0  0  0  0  0  0
    6.5697    1.5007    0.1090 H   0  0  0  0  0  0  0  0  0  0  0  0
  -11.1656   -5.6446    1.8405 H   0  0  0  0  0  0  0  0  0  0  0  0
  -10.5572   -7.0163    0.9200 H   0  0  0  0  0  0  0  0  0  0  0  0
  -11.0679   -7.2481    2.6086 H   0  0  0  0  0  0  0  0  0  0  0  0
  2  3  1  0  0  0  0
  2  7  2  0  0  0  0
  3  1  1  0  0  0  0
  4  1  1  0  0  0  0
  5  2  1  0  0  0  0
  6  1  2  0  0  0  0
  6 29  1  0  0  0  0
  7  6  1  0  0  0  0
  8  4  1  0  0  0  0
  9  5  2  0  0  0  0
  9 10  1  0  0  0  0
 10 12  2  0  0  0  0
 11 16  1  0  0  0  0
 12  7  1  0  0  0  0
 12 30  1  0  0  0  0
 13  4  2  0  0  0  0
 14  8  1  0  0  0  0
 14 31  1  0  0  0  0
 14 32  1  0  0  0  0
 15  8  1  0  0  0  0
 15 33  1  0  0  0  0
 15 34  1  0  0  0  0
 16 19  1  0  0  0  0
 16 20  1  0  0  0  0
 16 35  1  0  0  0  0
 17 10  1  0  0  0  0
 17 36  1  0  0  0  0
 18 11  2  0  0  0  0
 19 15  1  0  0  0  0
 19 37  1  0  0  0  0
 19 38  1  0  0  0  0
 20 14  1  0  0  0  0
 20 39  1  0  0  0  0
 20 40  1  0  0  0  0
 21  9  1  0  0  0  0
 21 41  1  0  0  0  0
 22 17  2  0  0  0  0
 23 11  1  0  0  0  0
 24 21  2  0  0  0  0
 24 22  1  0  0  0  0
 24 42  1  0  0  0  0
 25 22  1  0  0  0  0
 26 23  1  0  0  0  0
 26 43  1  0  0  0  0
 26 44  1  0  0  0  0
 27 25  1  0  0  0  0
 27 45  1  0  0  0  0
 27 46  1  0  0  0  0
 27 47  1  0  0  0  0
 28 26  1  0  0  0  0
 28 48  1  0  0  0  0
 28 49  1  0  0  0  0
 28 50  1  0  0  0  0
M  END
>  <Mol_ID>
9152

>  <Formula>
C21H22N2O5

>  <MolWeight>
382.40978

>  <Cat>
P2604

>  <Name>
WAY-330322

>  <Synonyms>
N/A

>  <Target>
Anti-infection

>  <Form>
free base

>  <CAS>
956202-97-4

>  <URL>
N/A

$$$$
