WAY-345458
 OpenBabel08302521403D

 48 50  0  0  0  0  0  0  0  0999 V2000
    1.3607   -0.2054    0.0315 C   0  0  0  0  0  0  0  0  0  0  0  0
    0.5912   -1.0736   -0.7570 C   0  0  0  0  0  0  0  0  0  0  0  0
    0.7358    0.8347    0.7097 C   0  0  0  0  0  0  0  0  0  0  0  0
    2.8050   -0.5394    0.1436 C   0  0  0  0  0  0  0  0  0  0  0  0
   -0.7923   -0.9257   -0.8845 C   0  0  0  0  0  0  0  0  0  0  0  0
   -0.6562    0.9937    0.6085 C   0  0  0  0  0  0  0  0  0  0  0  0
    3.7010    0.4927    0.3731 N   0  0  0  0  0  0  0  0  0  0  0  0
    3.0939   -1.7267    0.0216 O   0  0  0  0  0  0  0  0  0  0  0  0
   -1.4331    0.1369   -0.2127 C   0  0  0  0  0  0  0  0  0  0  0  0
   -1.5456   -1.7904   -1.6348 O   0  0  0  0  0  0  0  0  0  0  0  0
   -1.1252    2.0579    1.3478 O   0  0  0  0  0  0  0  0  0  0  0  0
    5.1086    0.3334    0.4386 C   0  0  0  0  0  0  0  0  0  0  0  0
   -2.7662    0.4482   -0.2895 O   0  0  0  0  0  0  0  0  0  0  0  0
   -0.8992   -2.8849   -2.2757 C   0  0  0  0  0  0  0  0  0  0  0  0
   -2.4092    1.8950    1.9459 C   0  0  0  0  0  0  0  0  0  0  0  0
    5.7654   -0.8236    0.0204 C   0  0  0  0  0  0  0  0  0  0  0  0
    5.8807    1.3778    0.9471 C   0  0  0  0  0  0  0  0  0  0  0  0
   -3.6346   -0.3011   -1.1245 C   0  0  0  0  0  0  0  0  0  0  0  0
    7.1492   -0.9684    0.1700 C   0  0  0  0  0  0  0  0  0  0  0  0
    7.2729    1.2323    1.0891 C   0  0  0  0  0  0  0  0  0  0  0  0
    7.9395    0.0476    0.7228 C   0  0  0  0  0  0  0  0  0  0  0  0
    9.3996   -0.1333    0.9146 C   0  0  0  0  0  0  0  0  0  0  0  0
   10.1664   -0.9316    0.0424 C   0  0  0  0  0  0  0  0  0  0  0  0
   10.0808    0.4712    1.9868 C   0  0  0  0  0  0  0  0  0  0  0  0
   11.5418   -1.1101    0.2268 C   0  0  0  0  0  0  0  0  0  0  0  0
   11.4589    0.3073    2.1663 C   0  0  0  0  0  0  0  0  0  0  0  0
   12.1890   -0.4835    1.2855 C   0  0  0  0  0  0  0  0  0  0  0  0
    1.1139   -1.8823   -1.2615 H   0  0  0  0  0  0  0  0  0  0  0  0
    1.2921    1.5000    1.3633 H   0  0  0  0  0  0  0  0  0  0  0  0
    3.3418    1.4162    0.5565 H   0  0  0  0  0  0  0  0  0  0  0  0
   -0.2038   -2.5314   -3.0443 H   0  0  0  0  0  0  0  0  0  0  0  0
   -0.3979   -3.5345   -1.5506 H   0  0  0  0  0  0  0  0  0  0  0  0
   -1.6698   -3.4814   -2.7734 H   0  0  0  0  0  0  0  0  0  0  0  0
   -3.2001    2.1866    1.2489 H   0  0  0  0  0  0  0  0  0  0  0  0
   -2.5648    0.8809    2.3308 H   0  0  0  0  0  0  0  0  0  0  0  0
   -2.4684    2.5819    2.7959 H   0  0  0  0  0  0  0  0  0  0  0  0
    5.2349   -1.6507   -0.4388 H   0  0  0  0  0  0  0  0  0  0  0  0
    5.4211    2.3074    1.2712 H   0  0  0  0  0  0  0  0  0  0  0  0
   -3.3186   -0.2649   -2.1714 H   0  0  0  0  0  0  0  0  0  0  0  0
   -3.7482   -1.3261   -0.7567 H   0  0  0  0  0  0  0  0  0  0  0  0
   -4.6225    0.1668   -1.0739 H   0  0  0  0  0  0  0  0  0  0  0  0
    7.5875   -1.9147   -0.1395 H   0  0  0  0  0  0  0  0  0  0  0  0
    7.8335    2.0698    1.4996 H   0  0  0  0  0  0  0  0  0  0  0  0
    9.7023   -1.4260   -0.8083 H   0  0  0  0  0  0  0  0  0  0  0  0
    9.5405    1.0718    2.7150 H   0  0  0  0  0  0  0  0  0  0  0  0
   12.1031   -1.7370   -0.4613 H   0  0  0  0  0  0  0  0  0  0  0  0
   11.9572    0.7957    2.9995 H   0  0  0  0  0  0  0  0  0  0  0  0
   13.2589   -0.6117    1.4242 H   0  0  0  0  0  0  0  0  0  0  0  0
  1  2  2  0  0  0  0
  1  3  1  0  0  0  0
  1  4  1  0  0  0  0
  2  5  1  0  0  0  0
  2 28  1  0  0  0  0
  3  6  2  0  0  0  0
  3 29  1  0  0  0  0
  4  7  1  0  0  0  0
  4  8  2  0  0  0  0
  5  9  2  0  0  0  0
  5 10  1  0  0  0  0
  6 11  1  0  0  0  0
  6  9  1  0  0  0  0
  7 12  1  0  0  0  0
  7 30  1  0  0  0  0
  9 13  1  0  0  0  0
 10 14  1  0  0  0  0
 11 15  1  0  0  0  0
 12 16  2  0  0  0  0
 12 17  1  0  0  0  0
 13 18  1  0  0  0  0
 14 31  1  0  0  0  0
 14 32  1  0  0  0  0
 14 33  1  0  0  0  0
 15 34  1  0  0  0  0
 15 35  1  0  0  0  0
 15 36  1  0  0  0  0
 16 19  1  0  0  0  0
 16 37  1  0  0  0  0
 17 20  2  0  0  0  0
 17 38  1  0  0  0  0
 18 39  1  0  0  0  0
 18 40  1  0  0  0  0
 18 41  1  0  0  0  0
 19 21  2  0  0  0  0
 19 42  1  0  0  0  0
 20 21  1  0  0  0  0
 20 43  1  0  0  0  0
 21 22  1  0  0  0  0
 22 23  2  0  0  0  0
 22 24  1  0  0  0  0
 23 25  1  0  0  0  0
 23 44  1  0  0  0  0
 24 26  2  0  0  0  0
 24 45  1  0  0  0  0
 25 27  2  0  0  0  0
 25 46  1  0  0  0  0
 26 27  1  0  0  0  0
 26 47  1  0  0  0  0
 27 48  1  0  0  0  0
M  END
>  <Mol_ID>
8284

>  <Formula>
C22H21NO4

>  <MolWeight>
363.40644

>  <Cat>
P2747

>  <Name>
WAY-345458

>  <Synonyms>
N/A

>  <Target>
P-glycoprotein,JNK

>  <Form>
free base

>  <CAS>
95137-66-9

>  <URL>
N/A

$$$$
