WAY-326362
 OpenBabel08302521433D

 40 43  0  0  0  0  0  0  0  0999 V2000
   -1.3706    0.6578    0.1038 C   0  0  0  0  0  0  0  0  0  0  0  0
   -1.4704   -0.7216   -0.0124 C   0  0  0  0  0  0  0  0  0  0  0  0
   -2.8752    1.4132    0.3015 S   0  0  0  0  0  0  0  0  0  0  0  0
   -0.2443    1.3948    0.0966 N   0  0  0  0  0  0  0  0  0  0  0  0
   -2.8470   -1.1218   -0.0535 C   0  0  0  0  0  0  0  0  0  0  0  0
   -0.2534   -1.4318   -0.0771 C   0  0  0  0  0  0  0  0  0  0  0  0
   -3.7244   -0.0523    0.0273 C   0  0  0  0  0  0  0  0  0  0  0  0
    0.8965    0.6792   -0.0004 C   0  0  0  0  0  0  0  0  0  0  0  0
   -3.2556   -2.4038   -0.1999 N   0  0  0  0  0  0  0  0  0  0  0  0
    0.9506   -0.7162   -0.0353 C   0  0  0  0  0  0  0  0  0  0  0  0
   -5.1798   -0.0859   -0.0125 C   0  0  0  0  0  0  0  0  0  0  0  0
    2.1666    1.4929    0.0098 C   0  0  0  0  0  0  0  0  0  0  0  0
    2.2694   -1.4460   -0.0784 C   0  0  0  0  0  0  0  0  0  0  0  0
   -5.9524    1.0675   -0.5659 C   0  0  0  0  0  0  0  0  0  0  0  0
   -5.8316   -1.0610    0.3700 O   0  0  0  0  0  0  0  0  0  0  0  0
    3.4141    0.6536   -0.2783 C   0  0  0  0  0  0  0  0  0  0  0  0
    3.4186   -0.6555    0.3918 N   0  0  0  0  0  0  0  0  0  0  0  0
   -7.2054    1.3673   -0.0165 C   0  0  0  0  0  0  0  0  0  0  0  0
   -5.4729    1.8256   -1.6434 C   0  0  0  0  0  0  0  0  0  0  0  0
    3.4378   -0.5326    1.8512 C   0  0  0  0  0  0  0  0  0  0  0  0
   -7.9473    2.4413   -0.5112 C   0  0  0  0  0  0  0  0  0  0  0  0
   -6.2089    2.9092   -2.1233 C   0  0  0  0  0  0  0  0  0  0  0  0
   -7.4444    3.2169   -1.5560 C   0  0  0  0  0  0  0  0  0  0  0  0
   -0.2552   -2.5147   -0.1525 H   0  0  0  0  0  0  0  0  0  0  0  0
   -4.2370   -2.6403   -0.0292 H   0  0  0  0  0  0  0  0  0  0  0  0
   -2.6300   -3.1881   -0.0488 H   0  0  0  0  0  0  0  0  0  0  0  0
    2.2576    1.9695    0.9935 H   0  0  0  0  0  0  0  0  0  0  0  0
    2.0895    2.2933   -0.7357 H   0  0  0  0  0  0  0  0  0  0  0  0
    2.4552   -1.7489   -1.1172 H   0  0  0  0  0  0  0  0  0  0  0  0
    2.2026   -2.3748    0.5026 H   0  0  0  0  0  0  0  0  0  0  0  0
    4.3129    1.2216   -0.0085 H   0  0  0  0  0  0  0  0  0  0  0  0
    3.4929    0.4864   -1.3616 H   0  0  0  0  0  0  0  0  0  0  0  0
   -7.6051    0.7687    0.8005 H   0  0  0  0  0  0  0  0  0  0  0  0
   -4.5267    1.5884   -2.1233 H   0  0  0  0  0  0  0  0  0  0  0  0
    2.5478   -0.0433    2.2627 H   0  0  0  0  0  0  0  0  0  0  0  0
    3.5170   -1.5209    2.3161 H   0  0  0  0  0  0  0  0  0  0  0  0
    4.3151    0.0390    2.1733 H   0  0  0  0  0  0  0  0  0  0  0  0
   -8.9192    2.6745   -0.0827 H   0  0  0  0  0  0  0  0  0  0  0  0
   -5.8174    3.5115   -2.9398 H   0  0  0  0  0  0  0  0  0  0  0  0
   -8.0185    4.0580   -1.9348 H   0  0  0  0  0  0  0  0  0  0  0  0
  1  2  2  0  0  0  0
  1  3  1  0  0  0  0
  1  4  1  0  0  0  0
  2  5  1  0  0  0  0
  2  6  1  0  0  0  0
  3  7  1  0  0  0  0
  4  8  2  0  0  0  0
  5  9  1  0  0  0  0
  5  7  2  0  0  0  0
  6 10  2  0  0  0  0
  6 24  1  0  0  0  0
  7 11  1  0  0  0  0
  8 12  1  0  0  0  0
  8 10  1  0  0  0  0
  9 25  1  0  0  0  0
  9 26  1  0  0  0  0
 10 13  1  0  0  0  0
 11 14  1  0  0  0  0
 11 15  2  0  0  0  0
 12 16  1  0  0  0  0
 12 27  1  0  0  0  0
 12 28  1  0  0  0  0
 13 17  1  0  0  0  0
 13 29  1  0  0  0  0
 13 30  1  0  0  0  0
 14 18  2  0  0  0  0
 14 19  1  0  0  0  0
 16 17  1  0  0  0  0
 16 31  1  0  0  0  0
 16 32  1  0  0  0  0
 17 20  1  0  0  0  0
 18 21  1  0  0  0  0
 18 33  1  0  0  0  0
 19 22  2  0  0  0  0
 19 34  1  0  0  0  0
 20 35  1  0  0  0  0
 20 36  1  0  0  0  0
 20 37  1  0  0  0  0
 21 23  2  0  0  0  0
 21 38  1  0  0  0  0
 22 23  1  0  0  0  0
 22 39  1  0  0  0  0
 23 40  1  0  0  0  0
M  END
>  <Mol_ID>
8914

>  <Formula>
C18H16ClN3OS

>  <MolWeight>
357.85714

>  <Cat>
P2472

>  <Name>
WAY-326362

>  <Synonyms>
N/A

>  <Target>
SHMT2

>  <Form>
free base

>  <CAS>
870757-54-3

>  <URL>
N/A

$$$$
