WAY-623643
 OpenBabel08302521453D

 44 46  0  0  0  0  0  0  0  0999 V2000
   -6.6203   -0.8982   -2.9027 C   0  0  0  0  0  0  0  0  0  0  0  0
   -3.4561    1.3267    4.9235 S   0  0  0  0  0  0  0  0  0  0  0  0
   -7.7910   -0.9216   -2.2322 N   0  0  0  0  0  0  0  0  0  0  0  0
   -6.8428   -0.6411   -4.2973 C   0  0  0  0  0  0  0  0  0  0  0  0
   -8.7199   -0.6931   -3.1714 N   0  0  0  0  0  0  0  0  0  0  0  0
   -2.8452    1.2204    3.2527 C   0  0  0  0  0  0  0  0  0  0  0  0
   -5.3285   -1.0908   -2.2210 C   0  0  0  0  0  0  0  0  0  0  0  0
   -4.0302    1.5491    2.3227 C   0  0  3  0  0  0  0  0  0  0  0  0
   -4.0198    0.7489    1.0704 N   0  0  0  0  0  0  0  0  0  0  0  0
   -4.1882   -0.6474    1.1665 C   0  0  0  0  0  0  0  0  0  0  0  0
   -8.2171   -0.4872   -4.4245 C   0  0  0  0  0  0  0  0  0  0  0  0
   -3.6381   -0.0061    5.4586 O   0  0  0  0  0  0  0  0  0  0  0  0
   -2.6990    2.3361    5.6358 O   0  0  0  0  0  0  0  0  0  0  0  0
   -5.4542   -1.2290   -0.8654 O   0  0  0  0  0  0  0  0  0  0  0  0
   -5.3461    1.4577    3.1243 C   0  0  0  0  0  0  0  0  0  0  0  0
   -5.0471    2.0006    4.5123 C   0  0  0  0  0  0  0  0  0  0  0  0
   -4.2640   -1.4832   -0.1202 C   0  0  0  0  0  0  0  0  0  0  0  0
   -4.2488   -1.0927   -2.8084 O   0  0  0  0  0  0  0  0  0  0  0  0
   -4.2251   -1.2096    2.2604 O   0  0  0  0  0  0  0  0  0  0  0  0
   -6.0443   -0.5090   -5.4527 C   0  0  0  0  0  0  0  0  0  0  0  0
   -4.0390    1.4259   -0.2324 C   0  0  0  0  0  0  0  0  0  0  0  0
   -8.8526   -0.1889   -5.6366 C   0  0  0  0  0  0  0  0  0  0  0  0
   -3.2287    2.7086   -0.3565 C   0  0  0  0  0  0  0  0  0  0  0  0
   -6.6592   -0.2191   -6.6797 C   0  0  0  0  0  0  0  0  0  0  0  0
   -8.0410   -0.0550   -6.7658 C   0  0  0  0  0  0  0  0  0  0  0  0
   -9.6928   -0.6851   -2.8910 H   0  0  0  0  0  0  0  0  0  0  0  0
   -2.0608    1.9772    3.1355 H   0  0  0  0  0  0  0  0  0  0  0  0
   -2.3970    0.2372    3.1001 H   0  0  0  0  0  0  0  0  0  0  0  0
   -3.9268    2.6050    2.0463 H   0  0  0  0  0  0  0  0  0  0  0  0
   -6.1442    2.0334    2.6438 H   0  0  0  0  0  0  0  0  0  0  0  0
   -5.7057    0.4289    3.2119 H   0  0  0  0  0  0  0  0  0  0  0  0
   -5.7792    1.6987    5.2628 H   0  0  0  0  0  0  0  0  0  0  0  0
   -4.9482    3.0900    4.5028 H   0  0  0  0  0  0  0  0  0  0  0  0
   -4.2955   -2.5365    0.1832 H   0  0  0  0  0  0  0  0  0  0  0  0
   -3.3359   -1.3484   -0.6853 H   0  0  0  0  0  0  0  0  0  0  0  0
   -4.9649   -0.6323   -5.4036 H   0  0  0  0  0  0  0  0  0  0  0  0
   -3.6388    0.7446   -0.9827 H   0  0  0  0  0  0  0  0  0  0  0  0
   -5.0877    1.6138   -0.4879 H   0  0  0  0  0  0  0  0  0  0  0  0
   -9.9279   -0.0593   -5.7025 H   0  0  0  0  0  0  0  0  0  0  0  0
   -3.8677    3.5834   -0.1992 H   0  0  0  0  0  0  0  0  0  0  0  0
   -2.3897    2.7498    0.3431 H   0  0  0  0  0  0  0  0  0  0  0  0
   -2.8213    2.7898   -1.3711 H   0  0  0  0  0  0  0  0  0  0  0  0
   -6.0495   -0.1171   -7.5751 H   0  0  0  0  0  0  0  0  0  0  0  0
   -8.4948    0.1829   -7.7267 H   0  0  0  0  0  0  0  0  0  0  0  0
  2  6  1  0  0  0  0
  2 16  1  0  0  0  0
  3  1  2  0  0  0  0
  4  1  1  0  0  0  0
  5  3  1  0  0  0  0
  5 26  1  0  0  0  0
  6  8  1  0  0  0  0
  6 27  1  0  0  0  0
  6 28  1  0  0  0  0
  7  1  1  0  0  0  0
  8  9  1  0  0  0  0
  8 29  1  0  0  0  0
  9 10  1  0  0  0  0
 10 17  1  0  0  0  0
 11  4  2  0  0  0  0
 11  5  1  0  0  0  0
 12  2  2  0  0  0  0
 13  2  2  0  0  0  0
 14  7  1  0  0  0  0
 15  8  1  0  0  0  0
 15 30  1  0  0  0  0
 15 31  1  0  0  0  0
 16 15  1  0  0  0  0
 16 32  1  0  0  0  0
 16 33  1  0  0  0  0
 17 14  1  0  0  0  0
 17 34  1  0  0  0  0
 17 35  1  0  0  0  0
 18  7  2  0  0  0  0
 19 10  2  0  0  0  0
 20  4  1  0  0  0  0
 20 36  1  0  0  0  0
 21  9  1  0  0  0  0
 21 37  1  0  0  0  0
 21 38  1  0  0  0  0
 22 11  1  0  0  0  0
 22 39  1  0  0  0  0
 23 21  1  0  0  0  0
 23 40  1  0  0  0  0
 23 41  1  0  0  0  0
 23 42  1  0  0  0  0
 24 20  2  0  0  0  0
 24 43  1  0  0  0  0
 25 24  1  0  0  0  0
 25 22  2  0  0  0  0
 25 44  1  0  0  0  0
M  END
>  <Mol_ID>
9301

>  <Formula>
C16H19N3O5S

>  <MolWeight>
365.40416

>  <Cat>
P2996

>  <Name>
WAY-623643

>  <Synonyms>
N/A

>  <Target>
DNA Topoisomerase Iia

>  <Form>
free base

>  <CAS>
956779-13-8

>  <URL>
N/A

$$$$
