WAY-657273
 OpenBabel08302521423D

 58 62  0  0  0  0  0  0  0  0999 V2000
    0.5723   -1.2293    0.3673 N   0  0  0  0  0  0  0  0  0  0  0  0
   -1.5607   -2.4069    0.2676 C   0  0  0  0  0  0  0  0  0  0  0  0
   -0.0410    0.0320    0.2101 C   0  0  0  0  0  0  0  0  0  0  0  0
    0.6877    1.2321    0.2205 C   0  0  0  0  0  0  0  0  0  0  0  0
   -1.4424    0.1239    0.0997 C   0  0  0  0  0  0  0  0  0  0  0  0
   -0.2250   -2.3666    0.3751 C   0  0  0  0  0  0  0  0  0  0  0  0
   -2.2721   -1.1076    0.1469 C   0  0  0  0  0  0  0  0  0  0  0  0
    0.0765    2.5096    0.0726 C   0  0  0  0  0  0  0  0  0  0  0  0
    2.0301    1.2211    0.5306 O   0  0  0  0  0  0  0  0  0  0  0  0
   -1.3223    2.5311   -0.0272 C   0  0  0  0  0  0  0  0  0  0  0  0
   -2.0801    1.3649   -0.0151 C   0  0  0  0  0  0  0  0  0  0  0  0
    0.8607    3.6588    0.0710 N   0  0  0  0  0  0  0  0  0  0  0  0
   -2.2285   -3.7273    0.2517 C   0  0  0  0  0  0  0  0  0  0  0  0
    2.0465   -1.2782    0.2513 C   0  0  3  0  0  0  0  0  0  0  0  0
    2.6621    5.9341    0.0866 N   0  0  0  0  0  0  0  0  0  0  0  0
   -3.3428   -3.6927   -0.5125 O   0  0  0  0  0  0  0  0  0  0  0  0
   -3.4942   -1.0220    0.1322 O   0  0  0  0  0  0  0  0  0  0  0  0
    2.7208    0.0860    0.0319 C   0  0  0  0  0  0  0  0  0  0  0  0
    0.3625    4.9512    0.5562 C   0  0  0  0  0  0  0  0  0  0  0  0
    1.8764    3.8028   -0.9863 C   0  0  0  0  0  0  0  0  0  0  0  0
   -4.0977   -5.4525   -3.0171 N   0  0  0  0  0  0  0  0  0  0  0  0
   -1.7769   -4.7131    0.8214 O   0  0  0  0  0  0  0  0  0  0  0  0
   -1.9818    3.6941   -0.1507 F   0  0  0  0  0  0  0  0  0  0  0  0
    1.5697    5.7769    1.0820 C   0  0  0  0  0  0  0  0  0  0  0  0
    3.0705    4.5966   -0.4129 C   0  0  0  0  0  0  0  0  0  0  0  0
   -3.5978   -5.7445   -1.7885 C   0  0  0  0  0  0  0  0  0  0  0  0
   -4.0855   -4.9146   -0.6233 C   0  0  0  0  0  0  0  0  0  0  0  0
    3.8052    6.6235    0.6809 C   0  0  0  0  0  0  0  0  0  0  0  0
   -3.6141   -6.1472   -4.0702 C   0  0  0  0  0  0  0  0  0  0  0  0
    2.6831   -2.0051    1.4400 C   0  0  0  0  0  0  0  0  0  0  0  0
   -2.6343   -6.7328   -1.5970 C   0  0  0  0  0  0  0  0  0  0  0  0
   -2.6415   -7.1259   -3.9660 C   0  0  0  0  0  0  0  0  0  0  0  0
   -2.1493   -7.4270   -2.7025 C   0  0  0  0  0  0  0  0  0  0  0  0
    0.3391   -3.2918    0.4706 H   0  0  0  0  0  0  0  0  0  0  0  0
   -3.1636    1.4319   -0.0805 H   0  0  0  0  0  0  0  0  0  0  0  0
    2.2868   -1.8789   -0.6371 H   0  0  0  0  0  0  0  0  0  0  0  0
    2.9216    0.2426   -1.0351 H   0  0  0  0  0  0  0  0  0  0  0  0
    3.7066    0.1013    0.5154 H   0  0  0  0  0  0  0  0  0  0  0  0
   -0.1456    5.4993   -0.2495 H   0  0  0  0  0  0  0  0  0  0  0  0
   -0.3450    4.8171    1.3815 H   0  0  0  0  0  0  0  0  0  0  0  0
    1.4498    4.3468   -1.8435 H   0  0  0  0  0  0  0  0  0  0  0  0
    2.2373    2.8468   -1.3768 H   0  0  0  0  0  0  0  0  0  0  0  0
    1.9578    5.2764    1.9806 H   0  0  0  0  0  0  0  0  0  0  0  0
    1.2085    6.7660    1.3867 H   0  0  0  0  0  0  0  0  0  0  0  0
    3.8270    4.7136   -1.1972 H   0  0  0  0  0  0  0  0  0  0  0  0
    3.5232    4.0112    0.4000 H   0  0  0  0  0  0  0  0  0  0  0  0
   -4.0757   -5.4839    0.3150 H   0  0  0  0  0  0  0  0  0  0  0  0
   -5.1302   -4.6343   -0.8007 H   0  0  0  0  0  0  0  0  0  0  0  0
    3.5156    7.6244    1.0193 H   0  0  0  0  0  0  0  0  0  0  0  0
    4.2248    6.0780    1.5340 H   0  0  0  0  0  0  0  0  0  0  0  0
    4.5985    6.7586   -0.0628 H   0  0  0  0  0  0  0  0  0  0  0  0
   -4.0400   -5.8817   -5.0337 H   0  0  0  0  0  0  0  0  0  0  0  0
    2.4200   -1.5354    2.3929 H   0  0  0  0  0  0  0  0  0  0  0  0
    2.3693   -3.0535    1.4780 H   0  0  0  0  0  0  0  0  0  0  0  0
    3.7753   -2.0126    1.3478 H   0  0  0  0  0  0  0  0  0  0  0  0
   -2.2523   -6.9517   -0.6041 H   0  0  0  0  0  0  0  0  0  0  0  0
   -2.2751   -7.6387   -4.8478 H   0  0  0  0  0  0  0  0  0  0  0  0
   -1.3868   -8.1902   -2.5773 H   0  0  0  0  0  0  0  0  0  0  0  0
  2  6  2  0  0  0  0
  3  1  1  0  0  0  0
  4  3  2  0  0  0  0
  5  3  1  0  0  0  0
  6  1  1  0  0  0  0
  6 34  1  0  0  0  0
  7  2  1  0  0  0  0
  7  5  1  0  0  0  0
  8  4  1  0  0  0  0
  9 18  1  0  0  0  0
  9  4  1  0  0  0  0
 10 11  1  0  0  0  0
 10  8  2  0  0  0  0
 11  5  2  0  0  0  0
 11 35  1  0  0  0  0
 12  8  1  0  0  0  0
 13  2  1  0  0  0  0
 14  1  1  0  0  0  0
 14 36  1  0  0  0  0
 15 25  1  0  0  0  0
 15 24  1  0  0  0  0
 16 13  1  0  0  0  0
 17  7  2  0  0  0  0
 18 14  1  0  0  0  0
 18 37  1  0  0  0  0
 18 38  1  0  0  0  0
 19 12  1  0  0  0  0
 19 39  1  0  0  0  0
 19 40  1  0  0  0  0
 20 12  1  0  0  0  0
 20 41  1  0  0  0  0
 20 42  1  0  0  0  0
 21 26  2  0  0  0  0
 22 13  2  0  0  0  0
 23 10  1  0  0  0  0
 24 19  1  0  0  0  0
 24 43  1  0  0  0  0
 24 44  1  0  0  0  0
 25 20  1  0  0  0  0
 25 45  1  0  0  0  0
 25 46  1  0  0  0  0
 26 27  1  0  0  0  0
 27 16  1  0  0  0  0
 27 47  1  0  0  0  0
 27 48  1  0  0  0  0
 28 15  1  0  0  0  0
 28 49  1  0  0  0  0
 28 50  1  0  0  0  0
 28 51  1  0  0  0  0
 29 21  1  0  0  0  0
 29 52  1  0  0  0  0
 30 14  1  0  0  0  0
 30 53  1  0  0  0  0
 30 54  1  0  0  0  0
 30 55  1  0  0  0  0
 31 26  1  0  0  0  0
 31 56  1  0  0  0  0
 32 33  1  0  0  0  0
 32 29  2  0  0  0  0
 32 57  1  0  0  0  0
 33 31  2  0  0  0  0
 33 58  1  0  0  0  0
M  END
>  <Mol_ID>
8545

>  <Formula>
C24H25FN4O4

>  <MolWeight>
452.4781032

>  <Cat>
P3156

>  <Name>
WAY-657273

>  <Synonyms>
N/A

>  <Target>
Anti-infection

>  <Form>
free base

>  <CAS>
852941-46-9

>  <URL>
N/A

$$$$
