WAY-327959
 OpenBabel08302521443D

 50 53  0  0  0  0  0  0  0  0999 V2000
    0.2702    0.3310   -0.0037 S   0  0  0  0  0  0  0  0  0  0  0  0
   -0.1998   -2.7139   -4.3074 C   0  0  0  0  0  0  0  0  0  0  0  0
   -0.1840   -1.3472   -3.6910 C   0  0  0  0  0  0  0  0  0  0  0  0
   -0.0236    0.1483   -1.7607 C   0  0  0  0  0  0  0  0  0  0  0  0
   -0.6986   -0.8253    0.7622 N   0  0  0  0  0  0  0  0  0  0  0  0
   -1.0814   -0.4341   -5.7439 N   0  0  0  0  0  0  0  0  0  0  0  0
   -1.1372   -1.6529   -6.3492 C   0  0  0  0  0  0  0  0  0  0  0  0
   -0.6615   -0.2486   -4.4251 C   0  0  0  0  0  0  0  0  0  0  0  0
   -0.6987   -2.8216   -5.5542 C   0  0  0  0  0  0  0  0  0  0  0  0
    0.0633   -3.9904   -3.5184 C   0  0  0  0  0  0  0  0  0  0  0  0
    0.2255   -1.0869   -2.3807 C   0  0  0  0  0  0  0  0  0  0  0  0
   -0.2324    1.6298    0.3879 O   0  0  0  0  0  0  0  0  0  0  0  0
    1.6580   -0.0271    0.2115 O   0  0  0  0  0  0  0  0  0  0  0  0
    0.2475   -5.1815   -4.2003 N   0  0  0  0  0  0  0  0  0  0  0  0
   -0.4787    1.2288   -2.5143 C   0  0  0  0  0  0  0  0  0  0  0  0
   -0.7617    1.0352   -3.8657 C   0  0  0  0  0  0  0  0  0  0  0  0
   -1.5585   -1.8034   -7.4899 O   0  0  0  0  0  0  0  0  0  0  0  0
    0.0654   -3.9802   -2.2887 O   0  0  0  0  0  0  0  0  0  0  0  0
    0.0233   -6.4336   -3.4866 C   0  0  0  0  0  0  0  0  0  0  0  0
    1.0431  -10.0993   -5.5077 C   0  0  0  0  0  0  0  0  0  0  0  0
    0.4984   -7.7018   -4.1631 C   0  0  0  0  0  0  0  0  0  0  0  0
    1.2255  -11.2206   -6.2176 F   0  0  0  0  0  0  0  0  0  0  0  0
    1.6929   -8.9297   -5.8861 C   0  0  0  0  0  0  0  0  0  0  0  0
    0.1980  -10.1160   -4.4093 C   0  0  0  0  0  0  0  0  0  0  0  0
    1.4376   -7.7335   -5.2028 C   0  0  0  0  0  0  0  0  0  0  0  0
   -0.0589   -8.9241   -3.7295 C   0  0  0  0  0  0  0  0  0  0  0  0
   -0.4457   -2.2666    0.5931 C   0  0  0  0  0  0  0  0  0  0  0  0
   -2.1582   -0.6217    0.8833 C   0  0  0  0  0  0  0  0  0  0  0  0
   -1.6857   -2.7587   -0.1359 C   0  0  0  0  0  0  0  0  0  0  0  0
   -2.8031   -1.9542    0.4959 C   0  0  0  0  0  0  0  0  0  0  0  0
   -1.4190    0.3472   -6.2939 H   0  0  0  0  0  0  0  0  0  0  0  0
   -0.8753   -3.7576   -6.0646 H   0  0  0  0  0  0  0  0  0  0  0  0
    0.7160   -1.8616   -1.8100 H   0  0  0  0  0  0  0  0  0  0  0  0
    0.1817   -5.2175   -5.2047 H   0  0  0  0  0  0  0  0  0  0  0  0
   -0.5972    2.2155   -2.0688 H   0  0  0  0  0  0  0  0  0  0  0  0
   -1.0962    1.8808   -4.4631 H   0  0  0  0  0  0  0  0  0  0  0  0
    0.4190   -6.3777   -2.4671 H   0  0  0  0  0  0  0  0  0  0  0  0
   -1.0708   -6.5076   -3.4133 H   0  0  0  0  0  0  0  0  0  0  0  0
    2.3791   -8.9547   -6.7273 H   0  0  0  0  0  0  0  0  0  0  0  0
   -0.2747  -11.0450   -4.1055 H   0  0  0  0  0  0  0  0  0  0  0  0
    1.9631   -6.8332   -5.5101 H   0  0  0  0  0  0  0  0  0  0  0  0
   -0.7282   -8.9478   -2.8705 H   0  0  0  0  0  0  0  0  0  0  0  0
   -0.3784   -2.7222    1.5872 H   0  0  0  0  0  0  0  0  0  0  0  0
    0.4888   -2.5003    0.0846 H   0  0  0  0  0  0  0  0  0  0  0  0
   -2.5270    0.1960    0.2610 H   0  0  0  0  0  0  0  0  0  0  0  0
   -2.3924   -0.3931    1.9297 H   0  0  0  0  0  0  0  0  0  0  0  0
   -1.6535   -2.5145   -1.2004 H   0  0  0  0  0  0  0  0  0  0  0  0
   -1.8264   -3.8393   -0.0474 H   0  0  0  0  0  0  0  0  0  0  0  0
   -3.6407   -1.8117   -0.1949 H   0  0  0  0  0  0  0  0  0  0  0  0
   -3.1873   -2.4734    1.3808 H   0  0  0  0  0  0  0  0  0  0  0  0
  2  3  1  0  0  0  0
  3 11  2  0  0  0  0
  4  1  1  0  0  0  0
  5  1  1  0  0  0  0
  6  8  1  0  0  0  0
  6 31  1  0  0  0  0
  7  6  1  0  0  0  0
  7  9  1  0  0  0  0
  8 16  2  0  0  0  0
  8  3  1  0  0  0  0
  9  2  2  0  0  0  0
  9 32  1  0  0  0  0
 10  2  1  0  0  0  0
 11  4  1  0  0  0  0
 11 33  1  0  0  0  0
 12  1  2  0  0  0  0
 13  1  2  0  0  0  0
 14 10  1  0  0  0  0
 14 34  1  0  0  0  0
 15  4  2  0  0  0  0
 15 35  1  0  0  0  0
 16 15  1  0  0  0  0
 16 36  1  0  0  0  0
 17  7  2  0  0  0  0
 18 10  2  0  0  0  0
 19 14  1  0  0  0  0
 19 37  1  0  0  0  0
 19 38  1  0  0  0  0
 20 24  2  0  0  0  0
 21 19  1  0  0  0  0
 22 20  1  0  0  0  0
 23 25  2  0  0  0  0
 23 20  1  0  0  0  0
 23 39  1  0  0  0  0
 24 26  1  0  0  0  0
 24 40  1  0  0  0  0
 25 21  1  0  0  0  0
 25 41  1  0  0  0  0
 26 21  2  0  0  0  0
 26 42  1  0  0  0  0
 27  5  1  0  0  0  0
 27 43  1  0  0  0  0
 27 44  1  0  0  0  0
 28  5  1  0  0  0  0
 28 45  1  0  0  0  0
 28 46  1  0  0  0  0
 29 27  1  0  0  0  0
 29 30  1  0  0  0  0
 29 47  1  0  0  0  0
 29 48  1  0  0  0  0
 30 28  1  0  0  0  0
 30 49  1  0  0  0  0
 30 50  1  0  0  0  0
M  END
>  <Mol_ID>
8997

>  <Formula>
C21H20FN3O4S

>  <MolWeight>
429.4646032

>  <Cat>
P2560

>  <Name>
WAY-327959

>  <Synonyms>
N/A

>  <Target>
caspase

>  <Form>
free base

>  <CAS>
687591-26-0

>  <URL>
N/A

$$$$
