WAY-323291
 OpenBabel08302521423D

 37 39  0  0  0  0  0  0  0  0999 V2000
    2.3566   -0.8480   -0.1972 N   0  0  0  0  0  0  0  0  0  0  0  0
    2.3444    0.5163   -0.2385 N   0  0  0  0  0  0  0  0  0  0  0  0
    1.2342   -1.4967   -0.1830 C   0  0  0  0  0  0  0  0  0  0  0  0
    1.1883    1.2922   -0.3023 C   0  0  0  0  0  0  0  0  0  0  0  0
   -0.0962    0.5588   -0.3014 C   0  0  0  0  0  0  0  0  0  0  0  0
   -0.0910   -0.8367   -0.2354 C   0  0  0  0  0  0  0  0  0  0  0  0
    1.3536   -2.9914    0.0529 C   0  0  0  0  0  0  0  0  0  0  0  0
    1.3514   -3.2342    1.5510 C   0  0  0  0  0  0  0  0  0  0  0  0
    2.4447   -3.9456    2.0037 N   0  0  0  0  0  0  0  0  0  0  0  0
    1.1833    2.5215   -0.3134 O   0  0  0  0  0  0  0  0  0  0  0  0
    2.9968   -3.8754    3.3022 C   0  0  0  0  0  0  0  0  0  0  0  0
    0.4561   -2.7688    2.2522 O   0  0  0  0  0  0  0  0  0  0  0  0
    2.5224   -3.0153    4.2966 C   0  0  0  0  0  0  0  0  0  0  0  0
    3.2067   -2.8819    5.5080 C   0  0  0  0  0  0  0  0  0  0  0  0
    3.5976    1.1415    0.1408 C   0  0  0  0  0  0  0  0  0  0  0  0
   -1.3152    1.2505   -0.2739 C   0  0  0  0  0  0  0  0  0  0  0  0
   -1.2965   -1.5374   -0.1295 C   0  0  0  0  0  0  0  0  0  0  0  0
    4.8259   -4.5051    4.7732 C   0  0  0  0  0  0  0  0  0  0  0  0
    4.1432   -4.6365    3.5599 C   0  0  0  0  0  0  0  0  0  0  0  0
    4.3652   -3.6164    5.7415 C   0  0  0  0  0  0  0  0  0  0  0  0
   -2.5164    0.5481   -0.1550 C   0  0  0  0  0  0  0  0  0  0  0  0
   -2.5055   -0.8447   -0.0828 C   0  0  0  0  0  0  0  0  0  0  0  0
    0.5523   -3.5598   -0.4221 H   0  0  0  0  0  0  0  0  0  0  0  0
    2.2941   -3.3344   -0.3967 H   0  0  0  0  0  0  0  0  0  0  0  0
    2.9694   -4.4831    1.3259 H   0  0  0  0  0  0  0  0  0  0  0  0
    1.6382   -2.4028    4.1509 H   0  0  0  0  0  0  0  0  0  0  0  0
    2.8391   -2.1862    6.2582 H   0  0  0  0  0  0  0  0  0  0  0  0
    3.7983    2.0145   -0.4835 H   0  0  0  0  0  0  0  0  0  0  0  0
    3.5131    1.4550    1.1860 H   0  0  0  0  0  0  0  0  0  0  0  0
    4.4183    0.4213    0.0511 H   0  0  0  0  0  0  0  0  0  0  0  0
   -1.3250    2.3374   -0.3013 H   0  0  0  0  0  0  0  0  0  0  0  0
   -1.3291   -2.6180   -0.0282 H   0  0  0  0  0  0  0  0  0  0  0  0
    5.7279   -5.0830    4.9555 H   0  0  0  0  0  0  0  0  0  0  0  0
    4.5350   -5.3248    2.8162 H   0  0  0  0  0  0  0  0  0  0  0  0
    4.9089   -3.4911    6.6741 H   0  0  0  0  0  0  0  0  0  0  0  0
   -3.4577    1.0857   -0.0889 H   0  0  0  0  0  0  0  0  0  0  0  0
   -3.4385   -1.3913    0.0459 H   0  0  0  0  0  0  0  0  0  0  0  0
  2  1  1  0  0  0  0
  3  1  2  0  0  0  0
  4  2  1  0  0  0  0
  5  6  2  0  0  0  0
  5  4  1  0  0  0  0
  6  3  1  0  0  0  0
  7  3  1  0  0  0  0
  7 23  1  0  0  0  0
  7 24  1  0  0  0  0
  8  7  1  0  0  0  0
  9  8  1  0  0  0  0
  9 25  1  0  0  0  0
 10  4  2  0  0  0  0
 11  9  1  0  0  0  0
 12  8  2  0  0  0  0
 13 11  2  0  0  0  0
 13 26  1  0  0  0  0
 14 13  1  0  0  0  0
 14 27  1  0  0  0  0
 15  2  1  0  0  0  0
 15 28  1  0  0  0  0
 15 29  1  0  0  0  0
 15 30  1  0  0  0  0
 16  5  1  0  0  0  0
 16 21  2  0  0  0  0
 16 31  1  0  0  0  0
 17  6  1  0  0  0  0
 17 32  1  0  0  0  0
 18 19  2  0  0  0  0
 18 33  1  0  0  0  0
 19 11  1  0  0  0  0
 19 34  1  0  0  0  0
 20 18  1  0  0  0  0
 20 14  2  0  0  0  0
 20 35  1  0  0  0  0
 21 22  1  0  0  0  0
 21 36  1  0  0  0  0
 22 17  2  0  0  0  0
 22 37  1  0  0  0  0
M  END
>  <Mol_ID>
8572

>  <Formula>
C17H14ClN3O2

>  <MolWeight>
327.76496

>  <Cat>
P2256

>  <Name>
WAY-323291

>  <Synonyms>
N/A

>  <Target>
IMPDH

>  <Form>
free base

>  <CAS>
854023-10-2

>  <URL>
N/A

$$$$
