WAY-637061
 OpenBabel08302521423D

 44 46  0  0  0  0  0  0  0  0999 V2000
   -1.2857    4.8884    0.3599 C   0  0  0  0  0  0  0  0  0  0  0  0
    0.2457    3.0259    0.0923 C   0  0  0  0  0  0  0  0  0  0  0  0
   -0.9539    2.5732    0.3742 N   0  0  0  0  0  0  0  0  0  0  0  0
    3.5529    1.3566   -0.2233 C   0  0  0  0  0  0  0  0  0  0  0  0
    0.3484    4.6976   -0.1574 S   0  0  0  0  0  0  0  0  0  0  0  0
   -1.8391    3.6302    0.5648 C   0  0  0  0  0  0  0  0  0  0  0  0
    1.3148    2.1744   -0.0219 N   0  0  0  0  0  0  0  0  0  0  0  0
    2.9854   -0.2592   -0.2748 S   0  0  0  0  0  0  0  0  0  0  0  0
    5.4723    0.1251   -0.7785 C   0  0  0  0  0  0  0  0  0  0  0  0
    2.6502    2.5041   -0.0663 C   0  0  0  0  0  0  0  0  0  0  0  0
    4.5137   -0.8549   -0.7372 C   0  0  0  0  0  0  0  0  0  0  0  0
    4.9301    1.3899   -0.3754 C   0  0  0  0  0  0  0  0  0  0  0  0
   -1.8023    6.2367    0.5138 C   0  0  0  0  0  0  0  0  0  0  0  0
    6.8667   -0.1079   -1.2528 C   0  0  0  0  0  0  0  0  0  0  0  0
    3.0962    3.6471    0.0096 O   0  0  0  0  0  0  0  0  0  0  0  0
    4.6883   -2.2786   -1.1140 C   0  0  0  0  0  0  0  0  0  0  0  0
   -1.2411    7.2702    0.1687 O   0  0  0  0  0  0  0  0  0  0  0  0
   -3.0051    6.2149    1.1491 O   0  0  0  0  0  0  0  0  0  0  0  0
    6.1236   -2.6536   -1.4876 C   0  0  0  0  0  0  0  0  0  0  0  0
    7.1870   -1.5500   -1.7062 C   0  0  3  0  0  0  0  0  0  0  0  0
   -3.2236    3.2480    0.9724 C   0  0  0  0  0  0  0  0  0  0  0  0
   -3.5677    7.5051    1.4290 C   0  0  0  0  0  0  0  0  0  0  0  0
    7.6728   -1.5612   -3.1636 C   0  0  0  0  0  0  0  0  0  0  0  0
   -4.9045    7.2948    2.1144 C   0  0  0  0  0  0  0  0  0  0  0  0
    1.0677    1.1983    0.0449 H   0  0  0  0  0  0  0  0  0  0  0  0
    5.5026    2.3101   -0.3145 H   0  0  0  0  0  0  0  0  0  0  0  0
    7.5677    0.1811   -0.4596 H   0  0  0  0  0  0  0  0  0  0  0  0
    7.0504    0.5904   -2.0810 H   0  0  0  0  0  0  0  0  0  0  0  0
    4.0299   -2.5014   -1.9630 H   0  0  0  0  0  0  0  0  0  0  0  0
    4.3602   -2.9249   -0.2896 H   0  0  0  0  0  0  0  0  0  0  0  0
    6.0720   -3.3062   -2.3708 H   0  0  0  0  0  0  0  0  0  0  0  0
    6.5031   -3.3171   -0.6980 H   0  0  0  0  0  0  0  0  0  0  0  0
    8.0655   -1.8618   -1.1218 H   0  0  0  0  0  0  0  0  0  0  0  0
   -3.6834    2.6350    0.1896 H   0  0  0  0  0  0  0  0  0  0  0  0
   -3.1857    2.6519    1.8902 H   0  0  0  0  0  0  0  0  0  0  0  0
   -3.8845    4.0925    1.1547 H   0  0  0  0  0  0  0  0  0  0  0  0
   -2.8961    8.0613    2.0913 H   0  0  0  0  0  0  0  0  0  0  0  0
   -3.7130    8.0593    0.4950 H   0  0  0  0  0  0  0  0  0  0  0  0
    6.8834   -1.2372   -3.8494 H   0  0  0  0  0  0  0  0  0  0  0  0
    8.5345   -0.8961   -3.2902 H   0  0  0  0  0  0  0  0  0  0  0  0
    7.9946   -2.5657   -3.4611 H   0  0  0  0  0  0  0  0  0  0  0  0
   -5.5727    6.6986    1.4837 H   0  0  0  0  0  0  0  0  0  0  0  0
   -4.7748    6.7409    3.0506 H   0  0  0  0  0  0  0  0  0  0  0  0
   -5.3865    8.2511    2.3354 H   0  0  0  0  0  0  0  0  0  0  0  0
  2  5  1  0  0  0  0
  3  6  1  0  0  0  0
  3  2  2  0  0  0  0
  4 10  1  0  0  0  0
  5  1  1  0  0  0  0
  6  1  2  0  0  0  0
  7  2  1  0  0  0  0
  7 25  1  0  0  0  0
  8  4  1  0  0  0  0
  9 12  1  0  0  0  0
 10  7  1  0  0  0  0
 11  8  1  0  0  0  0
 11  9  2  0  0  0  0
 12  4  2  0  0  0  0
 12 26  1  0  0  0  0
 13  1  1  0  0  0  0
 14  9  1  0  0  0  0
 14 27  1  0  0  0  0
 14 28  1  0  0  0  0
 15 10  2  0  0  0  0
 16 11  1  0  0  0  0
 16 29  1  0  0  0  0
 16 30  1  0  0  0  0
 17 13  2  0  0  0  0
 18 13  1  0  0  0  0
 19 16  1  0  0  0  0
 19 20  1  0  0  0  0
 19 31  1  0  0  0  0
 19 32  1  0  0  0  0
 20 14  1  0  0  0  0
 20 33  1  0  0  0  0
 21  6  1  0  0  0  0
 21 34  1  0  0  0  0
 21 35  1  0  0  0  0
 21 36  1  0  0  0  0
 22 18  1  0  0  0  0
 22 37  1  0  0  0  0
 22 38  1  0  0  0  0
 23 20  1  0  0  0  0
 23 39  1  0  0  0  0
 23 40  1  0  0  0  0
 23 41  1  0  0  0  0
 24 22  1  0  0  0  0
 24 42  1  0  0  0  0
 24 43  1  0  0  0  0
 24 44  1  0  0  0  0
M  END
>  <Mol_ID>
8478

>  <Formula>
C17H20N2O3S2

>  <MolWeight>
364.4823

>  <Cat>
P3004

>  <Name>
WAY-637061

>  <Synonyms>
N/A

>  <Target>
KLF5

>  <Form>
free base

>  <CAS>
793722-28-8

>  <URL>
N/A

$$$$
