WAY-638137
 OpenBabel08302521423D

 44 45  0  0  0  0  0  0  0  0999 V2000
    0.8660   -0.9303   -2.2294 S   0  0  0  0  0  0  0  0  0  0  0  0
    7.0445    0.2249   -1.4916 S   0  0  0  0  0  0  0  0  0  0  0  0
    0.3705    0.3341   -1.0831 C   0  0  0  0  0  0  0  0  0  0  0  0
    7.4666   -1.0478   -2.6602 C   0  0  0  0  0  0  0  0  0  0  0  0
    0.5070   -0.5049   -3.5644 O   0  0  0  0  0  0  0  0  0  0  0  0
    7.4046    1.4999   -2.0723 O   0  0  0  0  0  0  0  0  0  0  0  0
    7.5091   -0.1844   -0.1854 O   0  0  0  0  0  0  0  0  0  0  0  0
    0.4598   -2.2055   -1.6947 O   0  0  0  0  0  0  0  0  0  0  0  0
    2.5574   -0.8629   -2.1607 N   0  0  0  0  0  0  0  0  0  0  0  0
    5.3488    0.1645   -1.4912 N   0  0  0  0  0  0  0  0  0  0  0  0
    0.1964   -0.0072    0.2640 C   0  0  0  0  0  0  0  0  0  0  0  0
    7.6270   -0.7204   -4.0117 C   0  0  0  0  0  0  0  0  0  0  0  0
    3.1998   -0.9178   -0.8354 C   0  0  0  0  0  0  0  0  0  0  0  0
    4.7231   -1.0476   -0.9255 C   0  0  0  0  0  0  0  0  0  0  0  0
    7.9049   -1.7290   -4.9429 C   0  0  0  0  0  0  0  0  0  0  0  0
   -0.0201    0.9957    1.2179 C   0  0  0  0  0  0  0  0  0  0  0  0
    0.2020    1.6517   -1.5120 C   0  0  0  0  0  0  0  0  0  0  0  0
    7.6401   -2.3628   -2.2191 C   0  0  0  0  0  0  0  0  0  0  0  0
   -0.0825    2.6414   -0.5696 C   0  0  0  0  0  0  0  0  0  0  0  0
    7.8770   -3.3717   -3.1505 C   0  0  0  0  0  0  0  0  0  0  0  0
   -0.1713    2.3199    0.7856 C   0  0  0  0  0  0  0  0  0  0  0  0
    7.9988   -3.0574   -4.5053 C   0  0  0  0  0  0  0  0  0  0  0  0
    8.1023   -1.4119   -6.3963 C   0  0  0  0  0  0  0  0  0  0  0  0
   -0.0639    0.6544    2.6767 C   0  0  0  0  0  0  0  0  0  0  0  0
    2.9486   -0.2746   -2.8905 H   0  0  0  0  0  0  0  0  0  0  0  0
    4.9597    0.5594   -2.3438 H   0  0  0  0  0  0  0  0  0  0  0  0
    0.2681   -1.0478    0.5774 H   0  0  0  0  0  0  0  0  0  0  0  0
    7.5426    0.3146   -4.3382 H   0  0  0  0  0  0  0  0  0  0  0  0
    2.9635   -0.0054   -0.2824 H   0  0  0  0  0  0  0  0  0  0  0  0
    2.8149   -1.7848   -0.2872 H   0  0  0  0  0  0  0  0  0  0  0  0
    5.1021   -1.1888    0.0934 H   0  0  0  0  0  0  0  0  0  0  0  0
    4.9782   -1.9202   -1.5292 H   0  0  0  0  0  0  0  0  0  0  0  0
    0.3042    1.9152   -2.5618 H   0  0  0  0  0  0  0  0  0  0  0  0
    7.5730   -2.6106   -1.1624 H   0  0  0  0  0  0  0  0  0  0  0  0
   -0.2249    3.6727   -0.8915 H   0  0  0  0  0  0  0  0  0  0  0  0
    7.9687   -4.4052   -2.8246 H   0  0  0  0  0  0  0  0  0  0  0  0
   -0.3533    3.1120    1.5119 H   0  0  0  0  0  0  0  0  0  0  0  0
    8.1845   -3.8560   -5.2218 H   0  0  0  0  0  0  0  0  0  0  0  0
    9.0827   -1.7705   -6.7277 H   0  0  0  0  0  0  0  0  0  0  0  0
    7.3226   -1.8912   -6.9962 H   0  0  0  0  0  0  0  0  0  0  0  0
    8.0620   -0.3340   -6.5823 H   0  0  0  0  0  0  0  0  0  0  0  0
    0.6750    1.2488    3.2242 H   0  0  0  0  0  0  0  0  0  0  0  0
   -1.0611    0.8474    3.0901 H   0  0  0  0  0  0  0  0  0  0  0  0
    0.1748   -0.3997    2.8484 H   0  0  0  0  0  0  0  0  0  0  0  0
  2 10  1  0  0  0  0
  3  1  1  0  0  0  0
  4  2  1  0  0  0  0
  5  1  2  0  0  0  0
  6  2  2  0  0  0  0
  7  2  2  0  0  0  0
  8  1  2  0  0  0  0
  9  1  1  0  0  0  0
  9 25  1  0  0  0  0
 10 14  1  0  0  0  0
 10 26  1  0  0  0  0
 11  3  2  0  0  0  0
 11 27  1  0  0  0  0
 12  4  2  0  0  0  0
 12 28  1  0  0  0  0
 13  9  1  0  0  0  0
 13 29  1  0  0  0  0
 13 30  1  0  0  0  0
 14 13  1  0  0  0  0
 14 31  1  0  0  0  0
 14 32  1  0  0  0  0
 15 12  1  0  0  0  0
 16 11  1  0  0  0  0
 17  3  1  0  0  0  0
 17 33  1  0  0  0  0
 18  4  1  0  0  0  0
 18 34  1  0  0  0  0
 19 17  2  0  0  0  0
 19 35  1  0  0  0  0
 20 18  2  0  0  0  0
 20 36  1  0  0  0  0
 21 19  1  0  0  0  0
 21 16  2  0  0  0  0
 21 37  1  0  0  0  0
 22 20  1  0  0  0  0
 22 15  2  0  0  0  0
 22 38  1  0  0  0  0
 23 15  1  0  0  0  0
 23 39  1  0  0  0  0
 23 40  1  0  0  0  0
 23 41  1  0  0  0  0
 24 16  1  0  0  0  0
 24 42  1  0  0  0  0
 24 43  1  0  0  0  0
 24 44  1  0  0  0  0
M  END
>  <Mol_ID>
8505

>  <Formula>
C16H20N2O4S2

>  <MolWeight>
368.471

>  <Cat>
P3031

>  <Name>
WAY-638137

>  <Synonyms>
N/A

>  <Target>
Anti-infection

>  <Form>
free base

>  <CAS>
793713-92-5

>  <URL>
N/A

$$$$
