WAY-324512
 OpenBabel08302521423D

 33 35  0  0  0  0  0  0  0  0999 V2000
    3.4543    3.6765   -0.0466 C   0  0  0  0  0  0  0  0  0  0  0  0
    2.5328    2.7431   -0.2148 N   0  0  0  0  0  0  0  0  0  0  0  0
    2.8219    4.8812    0.0849 N   0  0  0  0  0  0  0  0  0  0  0  0
    1.4898    4.7495    0.0819 N   0  0  0  0  0  0  0  0  0  0  0  0
    4.9032    3.4995   -0.0503 C   0  0  0  0  0  0  0  0  0  0  0  0
    1.3473    3.4288   -0.0809 C   0  0  0  0  0  0  0  0  0  0  0  0
   -1.0919    3.2621    0.0535 C   0  0  0  0  0  0  0  0  0  0  0  0
    0.1228    2.6986   -0.0801 C   0  0  0  0  0  0  0  0  0  0  0  0
    5.5047    2.4799   -0.8035 C   0  0  0  0  0  0  0  0  0  0  0  0
   -2.3711    2.5394    0.1228 C   0  0  0  0  0  0  0  0  0  0  0  0
   -2.4831    1.2540    0.6692 C   0  0  0  0  0  0  0  0  0  0  0  0
    4.7744    1.5905   -1.5478 O   0  0  0  0  0  0  0  0  0  0  0  0
    5.7321    4.3436    0.7075 C   0  0  0  0  0  0  0  0  0  0  0  0
    6.8904    2.3289   -0.8343 C   0  0  0  0  0  0  0  0  0  0  0  0
   -3.5387    3.1967   -0.2905 C   0  0  0  0  0  0  0  0  0  0  0  0
   -3.7309    0.6337    0.7810 C   0  0  0  0  0  0  0  0  0  0  0  0
    7.1208    4.1841    0.6908 C   0  0  0  0  0  0  0  0  0  0  0  0
   -4.7861    2.5772   -0.1776 C   0  0  0  0  0  0  0  0  0  0  0  0
    7.6991    3.1824   -0.0857 C   0  0  0  0  0  0  0  0  0  0  0  0
   -4.8814    1.2953    0.3582 C   0  0  0  0  0  0  0  0  0  0  0  0
    3.2295    5.8046    0.1709 H   0  0  0  0  0  0  0  0  0  0  0  0
   -1.1657    4.3452    0.1281 H   0  0  0  0  0  0  0  0  0  0  0  0
    0.2192    1.6222   -0.1760 H   0  0  0  0  0  0  0  0  0  0  0  0
   -1.6070    0.7253    1.0349 H   0  0  0  0  0  0  0  0  0  0  0  0
    3.8315    1.7050   -1.3032 H   0  0  0  0  0  0  0  0  0  0  0  0
    5.3131    5.1204    1.3424 H   0  0  0  0  0  0  0  0  0  0  0  0
    7.3362    1.5408   -1.4353 H   0  0  0  0  0  0  0  0  0  0  0  0
   -3.4881    4.2019   -0.7040 H   0  0  0  0  0  0  0  0  0  0  0  0
   -3.8033   -0.3622    1.2103 H   0  0  0  0  0  0  0  0  0  0  0  0
    7.7508    4.8379    1.2896 H   0  0  0  0  0  0  0  0  0  0  0  0
   -5.6825    3.0996   -0.5015 H   0  0  0  0  0  0  0  0  0  0  0  0
    8.7791    3.0586   -0.1005 H   0  0  0  0  0  0  0  0  0  0  0  0
   -5.8517    0.8155    0.4541 H   0  0  0  0  0  0  0  0  0  0  0  0
  2  1  2  0  0  0  0
  3  1  1  0  0  0  0
  3 21  1  0  0  0  0
  4  3  1  0  0  0  0
  5  1  1  0  0  0  0
  6  2  1  0  0  0  0
  6  4  2  0  0  0  0
  7  8  2  0  0  0  0
  7 22  1  0  0  0  0
  8  6  1  0  0  0  0
  8 23  1  0  0  0  0
  9  5  2  0  0  0  0
 10  7  1  0  0  0  0
 11 10  2  0  0  0  0
 11 24  1  0  0  0  0
 12  9  1  0  0  0  0
 12 25  1  0  0  0  0
 13  5  1  0  0  0  0
 13 26  1  0  0  0  0
 14  9  1  0  0  0  0
 14 27  1  0  0  0  0
 15 10  1  0  0  0  0
 15 28  1  0  0  0  0
 16 11  1  0  0  0  0
 16 29  1  0  0  0  0
 17 13  2  0  0  0  0
 17 30  1  0  0  0  0
 18 15  2  0  0  0  0
 18 31  1  0  0  0  0
 19 17  1  0  0  0  0
 19 14  2  0  0  0  0
 19 32  1  0  0  0  0
 20 18  1  0  0  0  0
 20 16  2  0  0  0  0
 20 33  1  0  0  0  0
M  END
>  <Mol_ID>
8639

>  <Formula>
C16H12ClN3O

>  <MolWeight>
297.73898

>  <Cat>
P2327

>  <Name>
WAY-324512

>  <Synonyms>
N/A

>  <Target>
glucokinase

>  <Form>
free base

>  <CAS>
939052-77-4

>  <URL>
N/A

$$$$
