WAY-324496
 OpenBabel08302521423D

 40 42  0  0  0  0  0  0  0  0999 V2000
    2.2356   -0.6795   -0.6576 C   0  0  0  0  0  0  0  0  0  0  0  0
    1.8992    0.9182   -0.1674 S   0  0  0  0  0  0  0  0  0  0  0  0
   12.6245   -1.9985   -0.3671 S   0  0  0  0  0  0  0  0  0  0  0  0
    1.1080   -1.2816   -1.1826 C   0  0  0  0  0  0  0  0  0  0  0  0
   -0.0458   -0.4383   -1.1947 C   0  0  0  0  0  0  0  0  0  0  0  0
    0.2483    0.8193   -0.6579 C   0  0  0  0  0  0  0  0  0  0  0  0
    3.5504   -1.2972   -0.5549 C   0  0  0  0  0  0  0  0  0  0  0  0
   10.9804   -1.3653   -0.2402 C   0  0  0  0  0  0  0  0  0  0  0  0
   13.1844   -1.6175   -1.6445 O   0  0  0  0  0  0  0  0  0  0  0  0
   13.3243   -1.7757    0.8792 O   0  0  0  0  0  0  0  0  0  0  0  0
   12.3468   -3.6503   -0.4625 N   0  0  0  0  0  0  0  0  0  0  0  0
    3.7548   -2.4602   -0.8893 O   0  0  0  0  0  0  0  0  0  0  0  0
    4.5744   -0.4997   -0.0820 N   0  0  0  0  0  0  0  0  0  0  0  0
   10.3984   -1.1302    1.0064 C   0  0  0  0  0  0  0  0  0  0  0  0
   10.2828   -1.0770   -1.4162 C   0  0  0  0  0  0  0  0  0  0  0  0
    8.9821   -0.5790   -1.3457 C   0  0  0  0  0  0  0  0  0  0  0  0
    9.0929   -0.6309    1.0721 C   0  0  0  0  0  0  0  0  0  0  0  0
    8.3748   -0.3540   -0.1026 C   0  0  0  0  0  0  0  0  0  0  0  0
   -1.3623   -0.6869   -1.6478 C   0  0  0  0  0  0  0  0  0  0  0  0
    5.9386   -0.9907   -0.0192 C   0  0  0  0  0  0  0  0  0  0  0  0
   -0.7387    1.8207   -0.5619 C   0  0  0  0  0  0  0  0  0  0  0  0
    6.9542    0.1513   -0.0380 C   0  0  0  0  0  0  0  0  0  0  0  0
   -2.3432    0.3044   -1.5552 C   0  0  0  0  0  0  0  0  0  0  0  0
   -2.0317    1.5450   -1.0147 C   0  0  0  0  0  0  0  0  0  0  0  0
    1.1171   -2.2999   -1.5600 H   0  0  0  0  0  0  0  0  0  0  0  0
   12.4162   -3.9724   -1.4281 H   0  0  0  0  0  0  0  0  0  0  0  0
   12.9697   -4.1413    0.1807 H   0  0  0  0  0  0  0  0  0  0  0  0
    4.3346    0.3998    0.3140 H   0  0  0  0  0  0  0  0  0  0  0  0
   10.9454   -1.3350    1.9243 H   0  0  0  0  0  0  0  0  0  0  0  0
   10.7421   -1.2406   -2.3885 H   0  0  0  0  0  0  0  0  0  0  0  0
    8.4457   -0.3695   -2.2694 H   0  0  0  0  0  0  0  0  0  0  0  0
    8.6382   -0.4607    2.0453 H   0  0  0  0  0  0  0  0  0  0  0  0
   -1.6179   -1.6560   -2.0689 H   0  0  0  0  0  0  0  0  0  0  0  0
    6.0388   -1.5936    0.8916 H   0  0  0  0  0  0  0  0  0  0  0  0
    6.1064   -1.6611   -0.8712 H   0  0  0  0  0  0  0  0  0  0  0  0
   -0.5008    2.7950   -0.1434 H   0  0  0  0  0  0  0  0  0  0  0  0
    6.7620    0.8039   -0.8999 H   0  0  0  0  0  0  0  0  0  0  0  0
    6.8247    0.7875    0.8463 H   0  0  0  0  0  0  0  0  0  0  0  0
   -3.3517    0.0982   -1.9021 H   0  0  0  0  0  0  0  0  0  0  0  0
   -2.8030    2.3091   -0.9426 H   0  0  0  0  0  0  0  0  0  0  0  0
  2  1  1  0  0  0  0
  3  8  1  0  0  0  0
  4  1  2  0  0  0  0
  4 25  1  0  0  0  0
  5  4  1  0  0  0  0
  6  2  1  0  0  0  0
  6  5  2  0  0  0  0
  7  1  1  0  0  0  0
  8 14  2  0  0  0  0
  9  3  2  0  0  0  0
 10  3  2  0  0  0  0
 11  3  1  0  0  0  0
 11 26  1  0  0  0  0
 11 27  1  0  0  0  0
 12  7  2  0  0  0  0
 13  7  1  0  0  0  0
 13 28  1  0  0  0  0
 14 17  1  0  0  0  0
 14 29  1  0  0  0  0
 15 16  2  0  0  0  0
 15  8  1  0  0  0  0
 15 30  1  0  0  0  0
 16 18  1  0  0  0  0
 16 31  1  0  0  0  0
 17 18  2  0  0  0  0
 17 32  1  0  0  0  0
 18 22  1  0  0  0  0
 19  5  1  0  0  0  0
 19 33  1  0  0  0  0
 20 13  1  0  0  0  0
 20 34  1  0  0  0  0
 20 35  1  0  0  0  0
 21  6  1  0  0  0  0
 21 36  1  0  0  0  0
 22 20  1  0  0  0  0
 22 37  1  0  0  0  0
 22 38  1  0  0  0  0
 23 19  2  0  0  0  0
 23 39  1  0  0  0  0
 24 21  2  0  0  0  0
 24 23  1  0  0  0  0
 24 40  1  0  0  0  0
M  END
>  <Mol_ID>
8636

>  <Formula>
C17H15ClN2O3S2

>  <MolWeight>
394.8956

>  <Cat>
P2324

>  <Name>
WAY-324496

>  <Synonyms>
N/A

>  <Target>
carbonic anhydrase IX

>  <Form>
free base

>  <CAS>
600122-24-5

>  <URL>
N/A

$$$$
