WAY-278488
 OpenBabel08302521453D

 23 24  0  0  0  0  0  0  0  0999 V2000
    2.4573    0.9979    0.2246 C   0  0  0  0  0  0  0  0  0  0  0  0
    2.5820   -0.3683    0.4429 C   0  0  0  0  0  0  0  0  0  0  0  0
    1.4444   -1.1827    0.4535 C   0  0  0  0  0  0  0  0  0  0  0  0
    1.1914    1.5551    0.0476 C   0  0  0  0  0  0  0  0  0  0  0  0
    0.1475   -0.6441    0.2512 C   0  0  0  0  0  0  0  0  0  0  0  0
   -1.0541   -1.3812    0.1917 C   0  0  0  0  0  0  0  0  0  0  0  0
   -2.2599   -0.7883    0.0220 N   0  0  0  0  0  0  0  0  0  0  0  0
   -2.3507    0.5611   -0.1082 N   0  0  0  0  0  0  0  0  0  0  0  0
   -1.2241    1.2981   -0.0995 C   0  0  0  0  0  0  0  0  0  0  0  0
    0.0392    0.7487    0.0720 C   0  0  0  0  0  0  0  0  0  0  0  0
   -1.1365   -3.1648    0.1125 S   0  0  0  0  0  0  0  0  0  0  0  0
   -1.4048   -3.5793    1.8582 C   0  0  0  0  0  0  0  0  0  0  0  0
   -2.6958   -3.0793    2.4610 C   0  0  0  0  0  0  0  0  0  0  0  0
   -2.8492   -2.9786    3.6724 O   0  0  0  0  0  0  0  0  0  0  0  0
   -3.7109   -2.8547    1.5993 O   0  0  0  0  0  0  0  0  0  0  0  0
    3.3427    1.6300    0.1936 H   0  0  0  0  0  0  0  0  0  0  0  0
    3.5659   -0.8051    0.5980 H   0  0  0  0  0  0  0  0  0  0  0  0
    1.5826   -2.2482    0.6245 H   0  0  0  0  0  0  0  0  0  0  0  0
    1.1162    2.6283   -0.1213 H   0  0  0  0  0  0  0  0  0  0  0  0
   -1.3789    2.3627   -0.2423 H   0  0  0  0  0  0  0  0  0  0  0  0
   -1.4242   -4.6723    1.9259 H   0  0  0  0  0  0  0  0  0  0  0  0
   -0.5621   -3.2101    2.4487 H   0  0  0  0  0  0  0  0  0  0  0  0
   -3.4276   -2.8669    0.6625 H   0  0  0  0  0  0  0  0  0  0  0  0
  1  2  2  0  0  0  0
  1 16  1  0  0  0  0
  2  3  1  0  0  0  0
  2 17  1  0  0  0  0
  3  5  2  0  0  0  0
  3 18  1  0  0  0  0
  4  1  1  0  0  0  0
  4 19  1  0  0  0  0
  5  6  1  0  0  0  0
  5 10  1  0  0  0  0
  6 11  1  0  0  0  0
  6  7  2  0  0  0  0
  7  8  1  0  0  0  0
  8  9  2  0  0  0  0
  9 10  1  0  0  0  0
  9 20  1  0  0  0  0
 10  4  2  0  0  0  0
 11 12  1  0  0  0  0
 12 13  1  0  0  0  0
 12 21  1  0  0  0  0
 12 22  1  0  0  0  0
 13 15  1  0  0  0  0
 13 14  2  0  0  0  0
 15 23  1  0  0  0  0
M  END
>  <Mol_ID>
9335

>  <Formula>
C10H8N2O2S

>  <MolWeight>
220.24772

>  <Cat>
P2080

>  <Name>
WAY-278488

>  <Synonyms>
N/A

>  <Target>
IDO

>  <Form>
free base

>  <CAS>
314027-92-4

>  <URL>
N/A

$$$$
