WAY-328135
 OpenBabel08302521443D

 38 40  0  0  0  0  0  0  0  0999 V2000
   -0.4192   -1.0636    0.1026 C   0  0  0  0  0  0  0  0  0  0  0  0
   -1.3089   -0.5096   -0.7386 N   0  0  0  0  0  0  0  0  0  0  0  0
    0.4026   -0.0779    0.6958 C   0  0  0  0  0  0  0  0  0  0  0  0
    0.0020    1.1043    0.1282 C   0  0  0  0  0  0  0  0  0  0  0  0
   -1.0266    0.8497   -0.7322 O   0  0  0  0  0  0  0  0  0  0  0  0
   -0.3620   -2.4951    0.3687 C   0  0  0  0  0  0  0  0  0  0  0  0
   -3.0570   -5.3020    6.0292 N   0  0  0  0  0  0  0  0  0  0  0  0
   -2.5753   -4.4018    4.0663 N   0  0  0  0  0  0  0  0  0  0  0  0
   -3.1947   -5.4222    4.7281 C   0  0  0  0  0  0  0  0  0  0  0  0
    0.4585    2.4813    0.2281 C   0  0  0  0  0  0  0  0  0  0  0  0
   -2.3055   -4.1693    6.2102 C   0  0  0  0  0  0  0  0  0  0  0  0
   -1.9721   -3.6064    5.0001 C   0  0  0  0  0  0  0  0  0  0  0  0
    0.6191   -3.0176    0.8910 O   0  0  0  0  0  0  0  0  0  0  0  0
   -1.5071   -3.1905    0.0459 N   0  0  0  0  0  0  0  0  0  0  0  0
    1.7627    2.7548    0.6773 C   0  0  0  0  0  0  0  0  0  0  0  0
   -0.3724    3.5547   -0.1285 C   0  0  0  0  0  0  0  0  0  0  0  0
    1.4020    5.1114    0.3597 C   0  0  0  0  0  0  0  0  0  0  0  0
    0.0999    4.8685   -0.0626 C   0  0  0  0  0  0  0  0  0  0  0  0
    2.2357    4.0665    0.7367 C   0  0  0  0  0  0  0  0  0  0  0  0
    1.8600    6.3679    0.4014 F   0  0  0  0  0  0  0  0  0  0  0  0
   -2.6514   -4.1465    2.6404 C   0  0  0  0  0  0  0  0  0  0  0  0
   -1.5979   -4.9131    1.8433 C   0  0  0  0  0  0  0  0  0  0  0  0
   -1.6662   -4.5961    0.3454 C   0  0  0  0  0  0  0  0  0  0  0  0
    1.1745   -0.2323    1.4348 H   0  0  0  0  0  0  0  0  0  0  0  0
   -3.7363   -6.2110    4.2231 H   0  0  0  0  0  0  0  0  0  0  0  0
   -2.0474   -3.8183    7.2009 H   0  0  0  0  0  0  0  0  0  0  0  0
   -1.3959   -2.7287    4.7434 H   0  0  0  0  0  0  0  0  0  0  0  0
   -2.2296   -2.6776   -0.4531 H   0  0  0  0  0  0  0  0  0  0  0  0
    2.4337    1.9467    0.9631 H   0  0  0  0  0  0  0  0  0  0  0  0
   -1.3931    3.3789   -0.4625 H   0  0  0  0  0  0  0  0  0  0  0  0
   -0.5359    5.7002   -0.3459 H   0  0  0  0  0  0  0  0  0  0  0  0
    3.2492    4.2770    1.0642 H   0  0  0  0  0  0  0  0  0  0  0  0
   -2.5396   -3.0644    2.5085 H   0  0  0  0  0  0  0  0  0  0  0  0
   -3.6575   -4.4177    2.3132 H   0  0  0  0  0  0  0  0  0  0  0  0
   -1.7355   -5.9920    1.9824 H   0  0  0  0  0  0  0  0  0  0  0  0
   -0.6011   -4.6843    2.2383 H   0  0  0  0  0  0  0  0  0  0  0  0
   -2.6315   -4.9078   -0.0666 H   0  0  0  0  0  0  0  0  0  0  0  0
   -0.8782   -5.1425   -0.1846 H   0  0  0  0  0  0  0  0  0  0  0  0
  2  1  2  0  0  0  0
  3  1  1  0  0  0  0
  3 24  1  0  0  0  0
  4  3  2  0  0  0  0
  5  2  1  0  0  0  0
  5  4  1  0  0  0  0
  6  1  1  0  0  0  0
  7  9  2  0  0  0  0
  8 21  1  0  0  0  0
  9  8  1  0  0  0  0
  9 25  1  0  0  0  0
 10  4  1  0  0  0  0
 11 12  2  0  0  0  0
 11  7  1  0  0  0  0
 11 26  1  0  0  0  0
 12  8  1  0  0  0  0
 12 27  1  0  0  0  0
 13  6  2  0  0  0  0
 14  6  1  0  0  0  0
 14 28  1  0  0  0  0
 15 10  2  0  0  0  0
 15 29  1  0  0  0  0
 16 10  1  0  0  0  0
 16 30  1  0  0  0  0
 17 18  1  0  0  0  0
 17 19  2  0  0  0  0
 18 16  2  0  0  0  0
 18 31  1  0  0  0  0
 19 15  1  0  0  0  0
 19 32  1  0  0  0  0
 20 17  1  0  0  0  0
 21 22  1  0  0  0  0
 21 33  1  0  0  0  0
 21 34  1  0  0  0  0
 22 23  1  0  0  0  0
 22 35  1  0  0  0  0
 22 36  1  0  0  0  0
 23 14  1  0  0  0  0
 23 37  1  0  0  0  0
 23 38  1  0  0  0  0
M  END
>  <Mol_ID>
9002

>  <Formula>
C16H15FN4O2

>  <MolWeight>
314.3143032

>  <Cat>
P2566

>  <Name>
WAY-328135

>  <Synonyms>
N/A

>  <Target>
CFTR,Wnt/b-catenin

>  <Form>
free base

>  <CAS>
912784-79-3

>  <URL>
N/A

$$$$
