WAY-324829
 OpenBabel08302521423D

 51 54  0  0  0  0  0  0  0  0999 V2000
    0.2830   -0.7075   -0.0127 C   0  0  0  0  0  0  0  0  0  0  0  0
    0.3036    0.6527   -0.0199 N   0  0  0  0  0  0  0  0  0  0  0  0
   -2.1838    0.6949    0.1531 C   0  0  0  0  0  0  0  0  0  0  0  0
    1.5044   -1.1675   -0.0797 N   0  0  0  0  0  0  0  0  0  0  0  0
   -0.8713    1.4978    0.2339 C   0  0  3  0  0  0  0  0  0  0  0  0
   -2.1305   -0.6704    0.1466 C   0  0  0  0  0  0  0  0  0  0  0  0
   -0.8996   -1.3289    0.0986 N   0  0  0  0  0  0  0  0  0  0  0  0
    1.5569    1.1214   -0.2065 N   0  0  0  0  0  0  0  0  0  0  0  0
   -3.4950    1.4594    0.1389 C   0  0  0  0  0  0  0  0  0  0  0  0
    2.2589   -0.0185   -0.1420 C   0  0  0  0  0  0  0  0  0  0  0  0
   -3.4281    2.8376    0.2398 N   0  0  0  0  0  0  0  0  0  0  0  0
   -0.6660    2.2377    1.5709 C   0  0  0  0  0  0  0  0  0  0  0  0
   -4.5601    0.8619    0.0334 O   0  0  0  0  0  0  0  0  0  0  0  0
   -6.8546    4.1562    1.0306 N   0  0  0  0  0  0  0  0  0  0  0  0
    0.3562    3.2006    1.6860 C   0  0  0  0  0  0  0  0  0  0  0  0
   -1.4417    1.9695    2.7137 C   0  0  0  0  0  0  0  0  0  0  0  0
   -4.5242    3.7082    0.4821 C   0  0  0  0  0  0  0  0  0  0  0  0
   -0.1657    3.5542    4.0161 C   0  0  0  0  0  0  0  0  0  0  0  0
   -3.2848   -1.6486    0.2290 C   0  0  0  0  0  0  0  0  0  0  0  0
   -1.2045    2.6351    3.9178 C   0  0  0  0  0  0  0  0  0  0  0  0
    0.6172    3.8350    2.9017 C   0  0  0  0  0  0  0  0  0  0  0  0
    3.7344   -0.0303    0.0248 C   0  0  0  0  0  0  0  0  0  0  0  0
   -5.8347    3.3070    0.7332 C   0  0  0  0  0  0  0  0  0  0  0  0
    4.1109   -0.7554    3.7301 O   0  0  0  0  0  0  0  0  0  0  0  0
   -6.5623    5.4693    1.0744 C   0  0  0  0  0  0  0  0  0  0  0  0
    3.6992   -0.9980    2.3885 C   0  0  0  0  0  0  0  0  0  0  0  0
   -4.2699    5.0823    0.5274 C   0  0  0  0  0  0  0  0  0  0  0  0
    4.1474    0.1516    1.4887 C   0  0  0  0  0  0  0  0  0  0  0  0
   -5.2978    5.9765    0.8266 C   0  0  0  0  0  0  0  0  0  0  0  0
   -0.8632    2.2252   -0.5901 H   0  0  0  0  0  0  0  0  0  0  0  0
   -0.9117   -2.3461    0.0806 H   0  0  0  0  0  0  0  0  0  0  0  0
   -2.5343    3.3063    0.2181 H   0  0  0  0  0  0  0  0  0  0  0  0
    1.0001    3.4310    0.8375 H   0  0  0  0  0  0  0  0  0  0  0  0
   -2.2456    1.2363    2.7023 H   0  0  0  0  0  0  0  0  0  0  0  0
    0.0416    4.0401    4.9657 H   0  0  0  0  0  0  0  0  0  0  0  0
   -3.3519   -2.2308   -0.6966 H   0  0  0  0  0  0  0  0  0  0  0  0
   -3.0991   -2.3513    1.0513 H   0  0  0  0  0  0  0  0  0  0  0  0
   -4.2634   -1.2241    0.4338 H   0  0  0  0  0  0  0  0  0  0  0  0
   -1.8232    2.4180    4.7853 H   0  0  0  0  0  0  0  0  0  0  0  0
    1.4461    4.5337    2.9817 H   0  0  0  0  0  0  0  0  0  0  0  0
    4.1489   -0.9658   -0.3686 H   0  0  0  0  0  0  0  0  0  0  0  0
    4.1728    0.7821   -0.5677 H   0  0  0  0  0  0  0  0  0  0  0  0
   -6.1406    2.2669    0.7326 H   0  0  0  0  0  0  0  0  0  0  0  0
    5.0396   -0.4714    3.7156 H   0  0  0  0  0  0  0  0  0  0  0  0
   -7.3928    6.1220    1.3269 H   0  0  0  0  0  0  0  0  0  0  0  0
    2.6112   -1.1029    2.4020 H   0  0  0  0  0  0  0  0  0  0  0  0
    4.1328   -1.9473    2.0590 H   0  0  0  0  0  0  0  0  0  0  0  0
   -3.2760    5.4776    0.3368 H   0  0  0  0  0  0  0  0  0  0  0  0
    5.2392    0.2442    1.5462 H   0  0  0  0  0  0  0  0  0  0  0  0
    3.7498    1.0940    1.8877 H   0  0  0  0  0  0  0  0  0  0  0  0
   -5.1189    7.0446    0.8679 H   0  0  0  0  0  0  0  0  0  0  0  0
  2  1  1  0  0  0  0
  3  6  2  0  0  0  0
  4  1  2  0  0  0  0
  5  2  1  0  0  0  0
  5  3  1  0  0  0  0
  5 30  1  0  0  0  0
  6  7  1  0  0  0  0
  7  1  1  0  0  0  0
  7 31  1  0  0  0  0
  8  2  1  0  0  0  0
  9  3  1  0  0  0  0
 10  4  1  0  0  0  0
 10  8  2  0  0  0  0
 11  9  1  0  0  0  0
 11 32  1  0  0  0  0
 12  5  1  0  0  0  0
 13  9  2  0  0  0  0
 14 23  2  0  0  0  0
 15 12  2  0  0  0  0
 15 33  1  0  0  0  0
 16 12  1  0  0  0  0
 16 34  1  0  0  0  0
 17 11  1  0  0  0  0
 18 20  1  0  0  0  0
 18 21  2  0  0  0  0
 18 35  1  0  0  0  0
 19  6  1  0  0  0  0
 19 36  1  0  0  0  0
 19 37  1  0  0  0  0
 19 38  1  0  0  0  0
 20 16  2  0  0  0  0
 20 39  1  0  0  0  0
 21 15  1  0  0  0  0
 21 40  1  0  0  0  0
 22 10  1  0  0  0  0
 22 41  1  0  0  0  0
 22 42  1  0  0  0  0
 23 17  1  0  0  0  0
 23 43  1  0  0  0  0
 24 26  1  0  0  0  0
 24 44  1  0  0  0  0
 25 29  2  0  0  0  0
 25 14  1  0  0  0  0
 25 45  1  0  0  0  0
 26 28  1  0  0  0  0
 26 46  1  0  0  0  0
 26 47  1  0  0  0  0
 27 17  2  0  0  0  0
 27 48  1  0  0  0  0
 28 22  1  0  0  0  0
 28 49  1  0  0  0  0
 28 50  1  0  0  0  0
 29 27  1  0  0  0  0
 29 51  1  0  0  0  0
M  END
>  <Mol_ID>
8655

>  <Formula>
C21H21ClN6O2

>  <MolWeight>
424.88344

>  <Cat>
P2354

>  <Name>
WAY-324829

>  <Synonyms>
N/A

>  <Target>
CYP51

>  <Form>
free base

>  <CAS>
539810-41-8

>  <URL>
N/A

$$$$
