WAY-332072
 OpenBabel08302521443D

 46 48  0  0  0  0  0  0  0  0999 V2000
   -1.7556    3.3864    2.2212 C   0  0  0  0  0  0  0  0  0  0  0  0
   -1.5407    3.1406    0.9412 N   0  0  0  0  0  0  0  0  0  0  0  0
   -0.1850    2.8892    0.8606 C   0  0  0  0  0  0  0  0  0  0  0  0
   -0.6350    3.2710    3.0026 O   0  0  0  0  0  0  0  0  0  0  0  0
   -2.9944    3.7671    2.8951 C   0  0  0  0  0  0  0  0  0  0  0  0
    0.3612    2.9486    2.1265 C   0  0  0  0  0  0  0  0  0  0  0  0
   -0.2602    3.4025   -1.8681 S   0  0  3  0  0  0  0  0  0  0  0  0
    0.5089    2.6138   -0.4243 C   0  0  0  0  0  0  0  0  0  0  0  0
   -0.2048    5.1238   -1.3351 C   0  0  0  0  0  0  0  0  0  0  0  0
    1.1839    5.6515   -1.0639 C   0  0  0  0  0  0  0  0  0  0  0  0
   -4.1994    3.7838    2.1754 C   0  0  0  0  0  0  0  0  0  0  0  0
    1.7392    6.3807   -2.0926 N   0  0  0  0  0  0  0  0  0  0  0  0
    0.6566    3.2459   -3.0472 O   0  0  0  0  0  0  0  0  0  0  0  0
    1.7391    5.4854    0.0203 O   0  0  0  0  0  0  0  0  0  0  0  0
    2.9152    7.2047   -1.9073 C   0  0  0  0  0  0  0  0  0  0  0  0
   -3.0221    4.1327    4.2503 C   0  0  0  0  0  0  0  0  0  0  0  0
    1.7108    2.7628    2.6864 C   0  0  0  0  0  0  0  0  0  0  0  0
    4.1014    6.8138   -2.7520 C   0  0  0  0  0  0  0  0  0  0  0  0
   -5.4000    4.1433    2.7938 C   0  0  0  0  0  0  0  0  0  0  0  0
    4.9670    7.8152   -3.2271 C   0  0  0  0  0  0  0  0  0  0  0  0
    4.4426    5.4740   -2.9788 C   0  0  0  0  0  0  0  0  0  0  0  0
   -4.2227    4.4940    4.8692 C   0  0  0  0  0  0  0  0  0  0  0  0
   -5.4107    4.4955    4.1420 C   0  0  0  0  0  0  0  0  0  0  0  0
    6.1387    7.4871   -3.9136 C   0  0  0  0  0  0  0  0  0  0  0  0
    5.6130    5.1450   -3.6690 C   0  0  0  0  0  0  0  0  0  0  0  0
    6.4619    6.1494   -4.1317 C   0  0  0  0  0  0  0  0  0  0  0  0
    1.5587    2.9170   -0.3871 H   0  0  0  0  0  0  0  0  0  0  0  0
    0.4900    1.5344   -0.6137 H   0  0  0  0  0  0  0  0  0  0  0  0
   -0.6790    5.7196   -2.1232 H   0  0  0  0  0  0  0  0  0  0  0  0
   -0.8161    5.2659   -0.4403 H   0  0  0  0  0  0  0  0  0  0  0  0
   -4.2063    3.5112    1.1214 H   0  0  0  0  0  0  0  0  0  0  0  0
    1.3364    6.3261   -3.0206 H   0  0  0  0  0  0  0  0  0  0  0  0
    2.5970    8.2194   -2.1745 H   0  0  0  0  0  0  0  0  0  0  0  0
    3.2170    7.2185   -0.8542 H   0  0  0  0  0  0  0  0  0  0  0  0
   -2.1057    4.1434    4.8371 H   0  0  0  0  0  0  0  0  0  0  0  0
    2.0030    3.6298    3.2846 H   0  0  0  0  0  0  0  0  0  0  0  0
    1.7372    1.8756    3.3265 H   0  0  0  0  0  0  0  0  0  0  0  0
    2.4555    2.6307    1.8955 H   0  0  0  0  0  0  0  0  0  0  0  0
   -6.3242    4.1455    2.2227 H   0  0  0  0  0  0  0  0  0  0  0  0
    4.7450    8.8649   -3.0463 H   0  0  0  0  0  0  0  0  0  0  0  0
    3.8083    4.6733   -2.6031 H   0  0  0  0  0  0  0  0  0  0  0  0
   -4.2280    4.7739    5.9201 H   0  0  0  0  0  0  0  0  0  0  0  0
   -6.3438    4.7727    4.6247 H   0  0  0  0  0  0  0  0  0  0  0  0
    6.8028    8.2705   -4.2647 H   0  0  0  0  0  0  0  0  0  0  0  0
    5.8685    4.1019   -3.8324 H   0  0  0  0  0  0  0  0  0  0  0  0
    7.3799    5.8897   -4.6526 H   0  0  0  0  0  0  0  0  0  0  0  0
  2  1  2  0  0  0  0
  3  2  1  0  0  0  0
  4  1  1  0  0  0  0
  5  1  1  0  0  0  0
  6  4  1  0  0  0  0
  6  3  2  0  0  0  0
  7  8  1  0  0  0  0
  8  3  1  0  0  0  0
  8 27  1  0  0  0  0
  8 28  1  0  0  0  0
  9  7  1  0  0  0  0
  9 29  1  0  0  0  0
  9 30  1  0  0  0  0
 10  9  1  0  0  0  0
 11  5  2  0  0  0  0
 11 31  1  0  0  0  0
 12 10  1  0  0  0  0
 12 32  1  0  0  0  0
 13  7  2  0  0  0  0
 14 10  2  0  0  0  0
 15 12  1  0  0  0  0
 15 33  1  0  0  0  0
 15 34  1  0  0  0  0
 16  5  1  0  0  0  0
 16 35  1  0  0  0  0
 17  6  1  0  0  0  0
 17 36  1  0  0  0  0
 17 37  1  0  0  0  0
 17 38  1  0  0  0  0
 18 15  1  0  0  0  0
 19 11  1  0  0  0  0
 19 39  1  0  0  0  0
 20 18  2  0  0  0  0
 20 40  1  0  0  0  0
 21 18  1  0  0  0  0
 21 41  1  0  0  0  0
 22 16  2  0  0  0  0
 22 42  1  0  0  0  0
 23 22  1  0  0  0  0
 23 19  2  0  0  0  0
 23 43  1  0  0  0  0
 24 20  1  0  0  0  0
 24 26  2  0  0  0  0
 24 44  1  0  0  0  0
 25 21  2  0  0  0  0
 25 45  1  0  0  0  0
 26 25  1  0  0  0  0
 26 46  1  0  0  0  0
M  END
>  <Mol_ID>
9232

>  <Formula>
C20H19ClN2O3S

>  <MolWeight>
402.89446

>  <Cat>
P2714

>  <Name>
WAY-332072

>  <Synonyms>
N/A

>  <Target>
beta-catenin

>  <Form>
free base

>  <CAS>
1015865-10-7

>  <URL>
N/A

$$$$
