WAY-622081
 OpenBabel08302521443D

 28 29  0  0  0  0  0  0  0  0999 V2000
    1.2970   -0.7869    0.2303 C   0  0  0  0  0  0  0  0  0  0  0  0
    2.1160    0.3083    0.3006 N   0  0  0  0  0  0  0  0  0  0  0  0
    0.4339    1.8916   -0.0783 N   0  0  0  0  0  0  0  0  0  0  0  0
    1.6855    1.5809    0.0382 C   0  0  0  0  0  0  0  0  0  0  0  0
   -0.1407   -0.4868    0.1114 C   0  0  0  0  0  0  0  0  0  0  0  0
   -0.5087    0.8572    0.0079 C   0  0  0  0  0  0  0  0  0  0  0  0
    1.7265   -1.9338    0.2320 O   0  0  0  0  0  0  0  0  0  0  0  0
    2.7606    2.6491   -0.0984 C   0  0  0  0  0  0  0  0  0  0  0  0
    4.0483    2.0981   -0.5963 N   0  0  0  0  0  0  0  0  0  0  0  0
   -1.0963   -1.5068    0.1030 C   0  0  0  0  0  0  0  0  0  0  0  0
   -1.8676    1.1757   -0.0492 C   0  0  0  0  0  0  0  0  0  0  0  0
    3.9242    1.5484   -1.9554 C   0  0  0  0  0  0  0  0  0  0  0  0
    5.0331    3.1915   -0.6330 C   0  0  0  0  0  0  0  0  0  0  0  0
   -2.4483   -1.1744    0.0286 C   0  0  0  0  0  0  0  0  0  0  0  0
   -2.8344    0.1660   -0.0337 C   0  0  0  0  0  0  0  0  0  0  0  0
    3.1157    0.1451    0.3194 H   0  0  0  0  0  0  0  0  0  0  0  0
    2.3879    3.4462   -0.7538 H   0  0  0  0  0  0  0  0  0  0  0  0
    2.9034    3.0737    0.9034 H   0  0  0  0  0  0  0  0  0  0  0  0
   -0.7887   -2.5483    0.1530 H   0  0  0  0  0  0  0  0  0  0  0  0
   -2.1712    2.2175   -0.1141 H   0  0  0  0  0  0  0  0  0  0  0  0
    3.5711    2.2936   -2.6754 H   0  0  0  0  0  0  0  0  0  0  0  0
    4.8946    1.1677   -2.2936 H   0  0  0  0  0  0  0  0  0  0  0  0
    3.2439    0.6919   -1.9899 H   0  0  0  0  0  0  0  0  0  0  0  0
    4.7397    3.9829   -1.3346 H   0  0  0  0  0  0  0  0  0  0  0  0
    5.1571    3.6416    0.3579 H   0  0  0  0  0  0  0  0  0  0  0  0
    6.0156    2.8136   -0.9357 H   0  0  0  0  0  0  0  0  0  0  0  0
   -3.2016   -1.9584    0.0224 H   0  0  0  0  0  0  0  0  0  0  0  0
   -3.8889    0.4274   -0.0798 H   0  0  0  0  0  0  0  0  0  0  0  0
  2  1  1  0  0  0  0
  2 16  1  0  0  0  0
  3  6  1  0  0  0  0
  4  2  1  0  0  0  0
  4  3  2  0  0  0  0
  5  1  1  0  0  0  0
  6  5  2  0  0  0  0
  7  1  2  0  0  0  0
  8  4  1  0  0  0  0
  8 17  1  0  0  0  0
  8 18  1  0  0  0  0
  9  8  1  0  0  0  0
 10  5  1  0  0  0  0
 10 19  1  0  0  0  0
 11  6  1  0  0  0  0
 11 15  2  0  0  0  0
 11 20  1  0  0  0  0
 12  9  1  0  0  0  0
 12 21  1  0  0  0  0
 12 22  1  0  0  0  0
 12 23  1  0  0  0  0
 13  9  1  0  0  0  0
 13 24  1  0  0  0  0
 13 25  1  0  0  0  0
 13 26  1  0  0  0  0
 14 10  2  0  0  0  0
 14 27  1  0  0  0  0
 15 14  1  0  0  0  0
 15 28  1  0  0  0  0
M  END
>  <Mol_ID>
9067

>  <Formula>
C11H13N3O

>  <MolWeight>
203.24042

>  <Cat>
P2988

>  <Name>
WAY-622081

>  <Synonyms>
N/A

>  <Target>
Anti-infection

>  <Form>
free base

>  <CAS>
252570-57-3

>  <URL>
N/A

$$$$
