WAY-299185
 OpenBabel08302521413D

 40 42  0  0  0  0  0  0  0  0999 V2000
    1.2084    0.8429    0.2140 C   0  0  0  0  0  0  0  0  0  0  0  0
    2.4040    1.7168    0.0118 C   0  0  0  0  0  0  0  0  0  0  0  0
    1.2827   -0.5092   -0.0588 N   0  0  0  0  0  0  0  0  0  0  0  0
   -0.0363    1.2599    0.6354 C   0  0  0  0  0  0  0  0  0  0  0  0
    3.6825    1.2907   -1.0504 S   0  0  0  0  0  0  0  0  0  0  0  0
    2.7022    2.9212    0.6299 C   0  0  0  0  0  0  0  0  0  0  0  0
    0.1678   -1.1328    0.2568 C   0  0  0  0  0  0  0  0  0  0  0  0
   -1.1080   -0.0782    0.7384 S   0  0  0  0  0  0  0  0  0  0  0  0
    4.4430    2.7750   -0.7345 C   0  0  0  0  0  0  0  0  0  0  0  0
    3.8866    3.5140    0.1958 N   0  0  0  0  0  0  0  0  0  0  0  0
    1.9686    3.6015    1.7302 C   0  0  0  0  0  0  0  0  0  0  0  0
   -0.0136   -2.4744    0.2344 N   0  0  0  0  0  0  0  0  0  0  0  0
    5.5952    3.1776   -1.3629 N   0  0  0  0  0  0  0  0  0  0  0  0
    1.0234   -3.4191    0.4165 C   0  0  0  0  0  0  0  0  0  0  0  0
    6.1438    2.6237   -2.4963 C   0  0  0  0  0  0  0  0  0  0  0  0
    0.9479   -4.7227   -0.1116 C   0  0  0  0  0  0  0  0  0  0  0  0
    2.1629   -3.0884    1.1817 C   0  0  0  0  0  0  0  0  0  0  0  0
    7.4098    3.3180   -2.9408 C   0  0  0  0  0  0  0  0  0  0  0  0
    5.7027    1.6887   -3.1556 O   0  0  0  0  0  0  0  0  0  0  0  0
    1.9899   -5.6354    0.1182 C   0  0  0  0  0  0  0  0  0  0  0  0
   -0.1054   -5.2612   -0.8065 O   0  0  0  0  0  0  0  0  0  0  0  0
    3.1957   -3.9997    1.4056 C   0  0  0  0  0  0  0  0  0  0  0  0
    3.1110   -5.2756    0.8645 C   0  0  0  0  0  0  0  0  0  0  0  0
   -0.7073   -4.4320   -1.7934 C   0  0  0  0  0  0  0  0  0  0  0  0
   -0.3901    2.2577    0.8464 H   0  0  0  0  0  0  0  0  0  0  0  0
    0.9954    3.9615    1.3880 H   0  0  0  0  0  0  0  0  0  0  0  0
    1.8236    2.9188    2.5740 H   0  0  0  0  0  0  0  0  0  0  0  0
    2.5299    4.4667    2.0977 H   0  0  0  0  0  0  0  0  0  0  0  0
   -0.9105   -2.8385    0.5364 H   0  0  0  0  0  0  0  0  0  0  0  0
    5.9620    4.0445   -0.9967 H   0  0  0  0  0  0  0  0  0  0  0  0
    2.2523   -2.1045    1.6382 H   0  0  0  0  0  0  0  0  0  0  0  0
    8.2019    2.5719   -3.0436 H   0  0  0  0  0  0  0  0  0  0  0  0
    7.2296    3.8005   -3.9050 H   0  0  0  0  0  0  0  0  0  0  0  0
    7.7380    4.0745   -2.2243 H   0  0  0  0  0  0  0  0  0  0  0  0
    1.9284   -6.6365   -0.3002 H   0  0  0  0  0  0  0  0  0  0  0  0
    4.0516   -3.7089    2.0050 H   0  0  0  0  0  0  0  0  0  0  0  0
    3.9139   -5.9887    1.0268 H   0  0  0  0  0  0  0  0  0  0  0  0
   -1.5879   -3.9395   -1.3704 H   0  0  0  0  0  0  0  0  0  0  0  0
   -0.0163   -3.7045   -2.2303 H   0  0  0  0  0  0  0  0  0  0  0  0
   -1.0580   -5.0824   -2.6019 H   0  0  0  0  0  0  0  0  0  0  0  0
  1  2  1  0  0  0  0
  1  3  1  0  0  0  0
  1  4  2  0  0  0  0
  2  5  1  0  0  0  0
  2  6  2  0  0  0  0
  3  7  2  0  0  0  0
  4  8  1  0  0  0  0
  4 25  1  0  0  0  0
  5  9  1  0  0  0  0
  6 10  1  0  0  0  0
  6 11  1  0  0  0  0
  7 12  1  0  0  0  0
  7  8  1  0  0  0  0
  9 13  1  0  0  0  0
  9 10  2  0  0  0  0
 11 26  1  0  0  0  0
 11 27  1  0  0  0  0
 11 28  1  0  0  0  0
 12 14  1  0  0  0  0
 12 29  1  0  0  0  0
 13 15  1  0  0  0  0
 13 30  1  0  0  0  0
 14 16  2  0  0  0  0
 14 17  1  0  0  0  0
 15 18  1  0  0  0  0
 15 19  2  0  0  0  0
 16 20  1  0  0  0  0
 16 21  1  0  0  0  0
 17 22  2  0  0  0  0
 17 31  1  0  0  0  0
 18 32  1  0  0  0  0
 18 33  1  0  0  0  0
 18 34  1  0  0  0  0
 20 23  2  0  0  0  0
 20 35  1  0  0  0  0
 21 24  1  0  0  0  0
 22 23  1  0  0  0  0
 22 36  1  0  0  0  0
 23 37  1  0  0  0  0
 24 38  1  0  0  0  0
 24 39  1  0  0  0  0
 24 40  1  0  0  0  0
M  END
>  <Mol_ID>
8358

>  <Formula>
C16H15ClN4O2S2

>  <MolWeight>
394.8989

>  <Cat>
P2108

>  <Name>
WAY-299185

>  <Synonyms>
N/A

>  <Target>
TAOK2,pro-matrix metalloproteinase

>  <Form>
free base

>  <CAS>
333746-76-2

>  <URL>
N/A

$$$$
