WAY-326996
 OpenBabel08302521443D

 63 66  0  0  0  0  0  0  0  0999 V2000
    0.3759    2.2324    0.3757 C   0  0  3  0  0  0  0  0  0  0  0  0
    2.1387    0.4861    0.0405 N   0  0  0  0  0  0  0  0  0  0  0  0
    1.2686   -0.5731    0.3503 C   0  0  0  0  0  0  0  0  0  0  0  0
   -0.6344    1.0769    0.3745 C   0  0  0  0  0  0  0  0  0  0  0  0
   -0.1850   -0.2522    0.2986 C   0  0  0  0  0  0  0  0  0  0  0  0
    1.5923    1.7473   -0.5347 C   0  0  3  0  0  0  0  0  0  0  0  0
   -0.2365    3.5471   -0.1437 C   0  0  0  0  0  0  0  0  0  0  0  0
   -2.0100    1.3318    0.2990 C   0  0  0  0  0  0  0  0  0  0  0  0
   -1.1052   -1.2867    0.0582 C   0  0  0  0  0  0  0  0  0  0  0  0
   -0.4328    4.7279    0.4847 N   0  0  0  0  0  0  0  0  0  0  0  0
   -2.4679   -0.9992   -0.1021 C   0  0  0  0  0  0  0  0  0  0  0  0
   -2.9189    0.3254   -0.0238 C   0  0  0  0  0  0  0  0  0  0  0  0
    1.3220    1.6212   -2.0571 C   0  0  0  0  0  0  0  0  0  0  0  0
    1.6482   -1.7073    0.5965 O   0  0  0  0  0  0  0  0  0  0  0  0
   -0.7161    3.5997   -1.2884 O   0  0  0  0  0  0  0  0  0  0  0  0
   -0.6441    5.2693    1.7643 C   0  0  0  0  0  0  0  0  0  0  0  0
   -0.5898    4.6119    2.9869 C   0  0  0  0  0  0  0  0  0  0  0  0
    0.9816    0.4145   -2.6952 C   0  0  0  0  0  0  0  0  0  0  0  0
    1.3166    2.7739   -2.8600 C   0  0  0  0  0  0  0  0  0  0  0  0
    3.5465    0.1728   -0.1353 C   0  0  0  0  0  0  0  0  0  0  0  0
   -1.0443    5.2632    4.1591 C   0  0  0  0  0  0  0  0  0  0  0  0
    0.4123    1.5515   -4.7590 C   0  0  0  0  0  0  0  0  0  0  0  0
   -4.2320    0.5891   -0.3364 O   0  0  0  0  0  0  0  0  0  0  0  0
   -3.2501   -2.0806   -0.4164 O   0  0  0  0  0  0  0  0  0  0  0  0
    0.5156    0.3806   -4.0185 C   0  0  0  0  0  0  0  0  0  0  0  0
    0.8362    2.7444   -4.1781 C   0  0  0  0  0  0  0  0  0  0  0  0
   -1.0196    4.5026    5.3039 O   0  0  0  0  0  0  0  0  0  0  0  0
   -0.0709    1.6566   -6.0342 O   0  0  0  0  0  0  0  0  0  0  0  0
   -1.5088    7.2667    2.9045 C   0  0  0  0  0  0  0  0  0  0  0  0
   -1.0862    6.6131    1.7514 C   0  0  0  0  0  0  0  0  0  0  0  0
   -1.5007    6.5868    4.1145 C   0  0  0  0  0  0  0  0  0  0  0  0
   -4.4970   -2.1416    0.2726 C   0  0  0  0  0  0  0  0  0  0  0  0
   -4.6146    1.9590   -0.4449 C   0  0  0  0  0  0  0  0  0  0  0  0
   -0.5225    0.4528   -6.6458 C   0  0  0  0  0  0  0  0  0  0  0  0
   -1.7633    4.9932    6.4196 C   0  0  0  0  0  0  0  0  0  0  0  0
    0.7310    2.3693    1.4062 H   0  0  0  0  0  0  0  0  0  0  0  0
    2.3881    2.4964   -0.4179 H   0  0  0  0  0  0  0  0  0  0  0  0
   -2.3498    2.3555    0.4079 H   0  0  0  0  0  0  0  0  0  0  0  0
   -0.7597   -2.3133   -0.0613 H   0  0  0  0  0  0  0  0  0  0  0  0
   -0.7633    5.3536   -0.2479 H   0  0  0  0  0  0  0  0  0  0  0  0
   -0.2431    3.5886    3.0693 H   0  0  0  0  0  0  0  0  0  0  0  0
    1.0371   -0.5412   -2.1836 H   0  0  0  0  0  0  0  0  0  0  0  0
    1.5857    3.7403   -2.4394 H   0  0  0  0  0  0  0  0  0  0  0  0
    3.8922   -0.4230    0.7165 H   0  0  0  0  0  0  0  0  0  0  0  0
    3.6847   -0.4205   -1.0451 H   0  0  0  0  0  0  0  0  0  0  0  0
    4.1401    1.0880   -0.1906 H   0  0  0  0  0  0  0  0  0  0  0  0
    0.2159   -0.5810   -4.4225 H   0  0  0  0  0  0  0  0  0  0  0  0
    0.7497    3.6733   -4.7364 H   0  0  0  0  0  0  0  0  0  0  0  0
   -1.8708    8.2939    2.8539 H   0  0  0  0  0  0  0  0  0  0  0  0
   -1.1447    7.1686    0.8158 H   0  0  0  0  0  0  0  0  0  0  0  0
   -1.8579    7.1110    4.9964 H   0  0  0  0  0  0  0  0  0  0  0  0
   -4.6557   -1.3468    1.0078 H   0  0  0  0  0  0  0  0  0  0  0  0
   -5.3076   -2.1340   -0.4625 H   0  0  0  0  0  0  0  0  0  0  0  0
   -4.5358   -3.0900    0.8170 H   0  0  0  0  0  0  0  0  0  0  0  0
   -4.5975    2.4386    0.5392 H   0  0  0  0  0  0  0  0  0  0  0  0
   -3.9877    2.5042   -1.1603 H   0  0  0  0  0  0  0  0  0  0  0  0
   -5.6428    1.9972   -0.8145 H   0  0  0  0  0  0  0  0  0  0  0  0
    0.2702   -0.3021   -6.6732 H   0  0  0  0  0  0  0  0  0  0  0  0
   -1.4171    0.0681   -6.1440 H   0  0  0  0  0  0  0  0  0  0  0  0
   -0.7908    0.6808   -7.6820 H   0  0  0  0  0  0  0  0  0  0  0  0
   -1.2423    5.8272    6.9034 H   0  0  0  0  0  0  0  0  0  0  0  0
   -2.7836    5.2793    6.1433 H   0  0  0  0  0  0  0  0  0  0  0  0
   -1.8417    4.1810    7.1511 H   0  0  0  0  0  0  0  0  0  0  0  0
  1 36  1  0  0  0  0
  2  6  1  0  0  0  0
  3  2  1  0  0  0  0
  3  5  1  0  0  0  0
  4  1  1  0  0  0  0
  5  4  2  0  0  0  0
  6  1  1  0  0  0  0
  6 37  1  0  0  0  0
  7  1  1  0  0  0  0
  8  4  1  0  0  0  0
  8 38  1  0  0  0  0
  9  5  1  0  0  0  0
  9 39  1  0  0  0  0
 10  7  1  0  0  0  0
 10 40  1  0  0  0  0
 11 12  1  0  0  0  0
 11  9  2  0  0  0  0
 12  8  2  0  0  0  0
 13  6  1  0  0  0  0
 14  3  2  0  0  0  0
 15  7  2  0  0  0  0
 16 10  1  0  0  0  0
 17 16  2  0  0  0  0
 17 41  1  0  0  0  0
 18 13  2  0  0  0  0
 18 42  1  0  0  0  0
 19 13  1  0  0  0  0
 19 43  1  0  0  0  0
 20  2  1  0  0  0  0
 20 44  1  0  0  0  0
 20 45  1  0  0  0  0
 20 46  1  0  0  0  0
 21 17  1  0  0  0  0
 21 31  2  0  0  0  0
 22 26  1  0  0  0  0
 22 25  2  0  0  0  0
 23 12  1  0  0  0  0
 24 11  1  0  0  0  0
 25 18  1  0  0  0  0
 25 47  1  0  0  0  0
 26 19  2  0  0  0  0
 26 48  1  0  0  0  0
 27 21  1  0  0  0  0
 28 22  1  0  0  0  0
 29 30  2  0  0  0  0
 29 49  1  0  0  0  0
 30 16  1  0  0  0  0
 30 50  1  0  0  0  0
 31 29  1  0  0  0  0
 31 51  1  0  0  0  0
 32 24  1  0  0  0  0
 32 52  1  0  0  0  0
 32 53  1  0  0  0  0
 32 54  1  0  0  0  0
 33 23  1  0  0  0  0
 33 55  1  0  0  0  0
 33 56  1  0  0  0  0
 33 57  1  0  0  0  0
 34 28  1  0  0  0  0
 34 58  1  0  0  0  0
 34 59  1  0  0  0  0
 34 60  1  0  0  0  0
 35 27  1  0  0  0  0
 35 61  1  0  0  0  0
 35 62  1  0  0  0  0
 35 63  1  0  0  0  0
M  END
>  <Mol_ID>
8947

>  <Formula>
C27H28N2O6

>  <MolWeight>
476.52102

>  <Cat>
P2506

>  <Name>
WAY-326996

>  <Synonyms>
N/A

>  <Target>
Anti-infection

>  <Form>
free base

>  <CAS>
685868-32-0

>  <URL>
N/A

$$$$
