WAY-326067
 OpenBabel08302521433D

 47 50  0  0  0  0  0  0  0  0999 V2000
    0.2297   -0.7941    0.0928 C   0  0  0  0  0  0  0  0  0  0  0  0
    0.3357    0.6021    0.0811 N   0  0  0  0  0  0  0  0  0  0  0  0
    1.5247   -1.2846    0.0128 C   0  0  0  0  0  0  0  0  0  0  0  0
   -0.7979    1.4064    0.0547 C   0  0  0  0  0  0  0  0  0  0  0  0
   -0.9902   -1.4135    0.1390 N   0  0  0  0  0  0  0  0  0  0  0  0
    1.6301    1.0054    0.1084 N   0  0  0  0  0  0  0  0  0  0  0  0
   -2.0167    0.8379    0.0629 C   0  0  0  0  0  0  0  0  0  0  0  0
    1.9274   -2.6767   -0.1381 C   0  0  0  0  0  0  0  0  0  0  0  0
   -2.0538   -0.6587    0.0959 C   0  0  0  0  0  0  0  0  0  0  0  0
    2.3255   -0.1243    0.0019 C   0  0  0  0  0  0  0  0  0  0  0  0
    3.1101   -3.1010    0.5010 N   0  0  0  0  0  0  0  0  0  0  0  0
   -0.5838    2.8756    0.0247 C   0  0  0  0  0  0  0  0  0  0  0  0
    1.2858   -3.4405   -0.8561 O   0  0  0  0  0  0  0  0  0  0  0  0
   -3.4055   -1.2930    0.1028 C   0  0  0  0  0  0  0  0  0  0  0  0
   -0.4512    3.3129   -1.2571 F   0  0  0  0  0  0  0  0  0  0  0  0
   -1.6732    3.5332    0.5205 F   0  0  0  0  0  0  0  0  0  0  0  0
    3.6582   -4.3986    0.1094 C   0  0  0  0  0  0  0  0  0  0  0  0
    3.7350   -2.3734    1.6041 C   0  0  0  0  0  0  0  0  0  0  0  0
   -4.5068   -0.7054   -0.5371 C   0  0  0  0  0  0  0  0  0  0  0  0
   -3.5649   -2.5295    0.7420 C   0  0  0  0  0  0  0  0  0  0  0  0
    3.1424   -5.5379    0.9848 C   0  0  0  0  0  0  0  0  0  0  0  0
    4.5116   -3.2001    2.6274 C   0  0  0  0  0  0  0  0  0  0  0  0
   -4.8108   -3.1594    0.7578 C   0  0  0  0  0  0  0  0  0  0  0  0
   -5.7518   -1.3386   -0.5188 C   0  0  0  0  0  0  0  0  0  0  0  0
    3.7157   -4.3671    3.2042 C   0  0  0  0  0  0  0  0  0  0  0  0
   -5.9038   -2.5642    0.1301 C   0  0  0  0  0  0  0  0  0  0  0  0
    3.8167   -5.6298    2.3518 C   0  0  0  0  0  0  0  0  0  0  0  0
   -2.9249    1.4255    0.0588 H   0  0  0  0  0  0  0  0  0  0  0  0
    3.4014   -0.0527   -0.0881 H   0  0  0  0  0  0  0  0  0  0  0  0
    0.2828    3.2086    0.6022 H   0  0  0  0  0  0  0  0  0  0  0  0
    4.7530   -4.3442    0.1082 H   0  0  0  0  0  0  0  0  0  0  0  0
    3.3672   -4.6043   -0.9280 H   0  0  0  0  0  0  0  0  0  0  0  0
    2.9630   -1.8067    2.1359 H   0  0  0  0  0  0  0  0  0  0  0  0
    4.4311   -1.6548    1.1582 H   0  0  0  0  0  0  0  0  0  0  0  0
   -4.4157    0.2289   -1.0827 H   0  0  0  0  0  0  0  0  0  0  0  0
   -2.7179   -3.0097    1.2283 H   0  0  0  0  0  0  0  0  0  0  0  0
    3.3245   -6.4856    0.4626 H   0  0  0  0  0  0  0  0  0  0  0  0
    2.0571   -5.4544    1.1168 H   0  0  0  0  0  0  0  0  0  0  0  0
    4.7895   -2.5261    3.4479 H   0  0  0  0  0  0  0  0  0  0  0  0
    5.4562   -3.5551    2.1983 H   0  0  0  0  0  0  0  0  0  0  0  0
   -4.9257   -4.1210    1.2530 H   0  0  0  0  0  0  0  0  0  0  0  0
   -6.6014   -0.8821   -1.0214 H   0  0  0  0  0  0  0  0  0  0  0  0
    2.6668   -4.0879    3.3581 H   0  0  0  0  0  0  0  0  0  0  0  0
    4.1266   -4.6023    4.1939 H   0  0  0  0  0  0  0  0  0  0  0  0
   -6.8706   -3.0595    0.1329 H   0  0  0  0  0  0  0  0  0  0  0  0
    3.3608   -6.4602    2.9048 H   0  0  0  0  0  0  0  0  0  0  0  0
    4.8732   -5.8952    2.2184 H   0  0  0  0  0  0  0  0  0  0  0  0
  2  1  1  0  0  0  0
  3  1  2  0  0  0  0
  4  2  1  0  0  0  0
  4  7  2  0  0  0  0
  5  1  1  0  0  0  0
  6  2  1  0  0  0  0
  6 10  2  0  0  0  0
  7  9  1  0  0  0  0
  7 28  1  0  0  0  0
  8  3  1  0  0  0  0
  9  5  2  0  0  0  0
 10  3  1  0  0  0  0
 10 29  1  0  0  0  0
 11  8  1  0  0  0  0
 12  4  1  0  0  0  0
 12 30  1  0  0  0  0
 13  8  2  0  0  0  0
 14  9  1  0  0  0  0
 15 12  1  0  0  0  0
 16 12  1  0  0  0  0
 17 11  1  0  0  0  0
 17 31  1  0  0  0  0
 17 32  1  0  0  0  0
 18 11  1  0  0  0  0
 18 33  1  0  0  0  0
 18 34  1  0  0  0  0
 19 14  2  0  0  0  0
 19 35  1  0  0  0  0
 20 14  1  0  0  0  0
 20 36  1  0  0  0  0
 21 17  1  0  0  0  0
 21 37  1  0  0  0  0
 21 38  1  0  0  0  0
 22 18  1  0  0  0  0
 22 39  1  0  0  0  0
 22 40  1  0  0  0  0
 23 20  2  0  0  0  0
 23 41  1  0  0  0  0
 24 19  1  0  0  0  0
 24 42  1  0  0  0  0
 25 22  1  0  0  0  0
 25 27  1  0  0  0  0
 25 43  1  0  0  0  0
 25 44  1  0  0  0  0
 26 23  1  0  0  0  0
 26 24  2  0  0  0  0
 26 45  1  0  0  0  0
 27 21  1  0  0  0  0
 27 46  1  0  0  0  0
 27 47  1  0  0  0  0
M  END
>  <Mol_ID>
8883

>  <Formula>
C20H20F2N4O

>  <MolWeight>
370.3958064

>  <Cat>
P2441

>  <Name>
WAY-326067

>  <Synonyms>
N/A

>  <Target>
11¦Â-HSD1

>  <Form>
free base

>  <CAS>
869709-06-8

>  <URL>
N/A

$$$$
