WAY-323759
 OpenBabel08302521423D

 38 40  0  0  0  0  0  0  0  0999 V2000
   -0.0475    1.3301   -0.1086 C   0  0  0  0  0  0  0  0  0  0  0  0
    0.5886    4.7109    2.4806 C   0  0  0  0  0  0  0  0  0  0  0  0
   -1.1501    0.7293   -0.5486 N   0  0  0  0  0  0  0  0  0  0  0  0
    1.0938    0.6946    0.1859 N   0  0  0  0  0  0  0  0  0  0  0  0
    1.5884    4.3276    1.7173 N   0  0  0  0  0  0  0  0  0  0  0  0
    0.6784    4.2716    4.1289 S   0  0  0  0  0  0  0  0  0  0  0  0
   -0.0186    2.7073    0.0318 N   0  0  0  0  0  0  0  0  0  0  0  0
   -1.1188   -0.6022   -0.6691 C   0  0  0  0  0  0  0  0  0  0  0  0
    1.0650   -0.6457    0.0648 C   0  0  0  0  0  0  0  0  0  0  0  0
    2.5148    3.6358    2.4871 C   0  0  0  0  0  0  0  0  0  0  0  0
   -0.0232   -1.3603   -0.3627 C   0  0  0  0  0  0  0  0  0  0  0  0
    2.1726    3.4724    3.8316 C   0  0  0  0  0  0  0  0  0  0  0  0
   -1.1300    3.5203    0.0435 C   0  0  0  0  0  0  0  0  0  0  0  0
   -0.7781    5.5865    1.8291 S   0  0  0  0  0  0  0  0  0  0  0  0
   -2.3027    3.1538    0.0149 O   0  0  0  0  0  0  0  0  0  0  0  0
   -0.7900    4.9991    0.1151 C   0  0  0  0  0  0  0  0  0  0  0  0
   -2.2412   -1.2632   -1.1239 O   0  0  0  0  0  0  0  0  0  0  0  0
    2.1912   -1.3854    0.3809 O   0  0  0  0  0  0  0  0  0  0  0  0
    3.7263    3.0820    2.0249 C   0  0  0  0  0  0  0  0  0  0  0  0
    2.9848    2.7544    4.7234 C   0  0  0  0  0  0  0  0  0  0  0  0
   -3.3121   -0.3670   -1.4313 C   0  0  0  0  0  0  0  0  0  0  0  0
    3.2541   -0.5926    0.9001 C   0  0  0  0  0  0  0  0  0  0  0  0
    4.5453    2.3682    2.9070 C   0  0  0  0  0  0  0  0  0  0  0  0
    4.1723    2.2004    4.2368 C   0  0  0  0  0  0  0  0  0  0  0  0
    0.8771    3.0816    0.3219 H   0  0  0  0  0  0  0  0  0  0  0  0
   -0.0166   -2.4361   -0.4531 H   0  0  0  0  0  0  0  0  0  0  0  0
    0.1592    5.2096   -0.3873 H   0  0  0  0  0  0  0  0  0  0  0  0
   -1.5673    5.5424   -0.4333 H   0  0  0  0  0  0  0  0  0  0  0  0
    4.0138    3.2047    0.9852 H   0  0  0  0  0  0  0  0  0  0  0  0
    2.6966    2.6277    5.7629 H   0  0  0  0  0  0  0  0  0  0  0  0
   -3.6422    0.1777   -0.5383 H   0  0  0  0  0  0  0  0  0  0  0  0
   -3.0288    0.3286   -2.2308 H   0  0  0  0  0  0  0  0  0  0  0  0
   -4.1556   -0.9602   -1.7913 H   0  0  0  0  0  0  0  0  0  0  0  0
    3.6035    0.1346    0.1591 H   0  0  0  0  0  0  0  0  0  0  0  0
    2.9566   -0.0978    1.8306 H   0  0  0  0  0  0  0  0  0  0  0  0
    4.0903   -1.2597    1.1306 H   0  0  0  0  0  0  0  0  0  0  0  0
    5.4761    1.9355    2.5470 H   0  0  0  0  0  0  0  0  0  0  0  0
    4.8121    1.6331    4.9102 H   0  0  0  0  0  0  0  0  0  0  0  0
  2 14  1  0  0  0  0
  3  1  2  0  0  0  0
  4  1  1  0  0  0  0
  5  2  2  0  0  0  0
  6  2  1  0  0  0  0
  7  1  1  0  0  0  0
  7 25  1  0  0  0  0
  8  3  1  0  0  0  0
  8 11  2  0  0  0  0
  9  4  2  0  0  0  0
 10  5  1  0  0  0  0
 10 12  2  0  0  0  0
 11  9  1  0  0  0  0
 11 26  1  0  0  0  0
 12  6  1  0  0  0  0
 13  7  1  0  0  0  0
 14 16  1  0  0  0  0
 15 13  2  0  0  0  0
 16 13  1  0  0  0  0
 16 27  1  0  0  0  0
 16 28  1  0  0  0  0
 17  8  1  0  0  0  0
 18  9  1  0  0  0  0
 19 10  1  0  0  0  0
 19 29  1  0  0  0  0
 20 12  1  0  0  0  0
 20 30  1  0  0  0  0
 21 17  1  0  0  0  0
 21 31  1  0  0  0  0
 21 32  1  0  0  0  0
 21 33  1  0  0  0  0
 22 18  1  0  0  0  0
 22 34  1  0  0  0  0
 22 35  1  0  0  0  0
 22 36  1  0  0  0  0
 23 19  2  0  0  0  0
 23 24  1  0  0  0  0
 23 37  1  0  0  0  0
 24 20  2  0  0  0  0
 24 38  1  0  0  0  0
M  END
>  <Mol_ID>
8587

>  <Formula>
C15H14N4O3S2

>  <MolWeight>
362.42666

>  <Cat>
P2279

>  <Name>
WAY-323759

>  <Synonyms>
N/A

>  <Target>
others

>  <Form>
free base

>  <CAS>
854135-46-9

>  <URL>
N/A

$$$$
