WAY-604612
 OpenBabel08302521393D

 37 39  0  0  0  0  0  0  0  0999 V2000
   -0.2900   -1.1271   -0.0525 N   0  0  0  0  0  0  0  0  0  0  0  0
   -0.7070   -2.4844    0.0043 C   0  0  0  0  0  0  0  0  0  0  0  0
   -1.1227   -0.0086   -0.0396 C   0  0  0  0  0  0  0  0  0  0  0  0
    1.0625   -0.6383   -0.0488 C   0  0  0  0  0  0  0  0  0  0  0  0
    0.0671   -3.5028   -0.5507 C   0  0  0  0  0  0  0  0  0  0  0  0
   -1.9112   -2.8490    0.6221 C   0  0  0  0  0  0  0  0  0  0  0  0
   -0.3846    1.1152   -0.0498 C   0  0  0  0  0  0  0  0  0  0  0  0
    0.9373    0.7574   -0.0725 N   0  0  0  0  0  0  0  0  0  0  0  0
    2.5520   -1.3563    0.0744 S   0  0  0  0  0  0  0  0  0  0  0  0
   -0.2987   -4.8464   -0.4328 C   0  0  0  0  0  0  0  0  0  0  0  0
   -2.2779   -4.2014    0.7492 C   0  0  0  0  0  0  0  0  0  0  0  0
   -0.8014    2.5171   -0.0281 C   0  0  0  0  0  0  0  0  0  0  0  0
   -1.4626   -5.2148    0.2317 C   0  0  0  0  0  0  0  0  0  0  0  0
   -0.0061    3.4741    0.6271 C   0  0  0  0  0  0  0  0  0  0  0  0
   -1.9675    2.9483   -0.6718 C   0  0  0  0  0  0  0  0  0  0  0  0
   -1.8560   -6.5589    0.4157 N   0  0  0  0  0  0  0  0  0  0  0  0
   -0.3615    4.8235    0.6308 C   0  0  0  0  0  0  0  0  0  0  0  0
   -2.3260    4.2998   -0.6644 C   0  0  0  0  0  0  0  0  0  0  0  0
   -1.1755   -7.6836   -0.0232 C   0  0  0  0  0  0  0  0  0  0  0  0
   -1.5214    5.2361   -0.0174 C   0  0  0  0  0  0  0  0  0  0  0  0
   -1.8409   -8.9820    0.3567 C   0  0  0  0  0  0  0  0  0  0  0  0
   -0.1309   -7.7106   -0.6664 O   0  0  0  0  0  0  0  0  0  0  0  0
   -2.1972   -0.0918   -0.0383 H   0  0  0  0  0  0  0  0  0  0  0  0
    0.9644   -3.2893   -1.1217 H   0  0  0  0  0  0  0  0  0  0  0  0
   -2.5559   -2.0991    1.0725 H   0  0  0  0  0  0  0  0  0  0  0  0
    1.7262    1.3865   -0.0686 H   0  0  0  0  0  0  0  0  0  0  0  0
    0.3702   -5.5755   -0.8767 H   0  0  0  0  0  0  0  0  0  0  0  0
   -3.1987   -4.4401    1.2756 H   0  0  0  0  0  0  0  0  0  0  0  0
    0.8994    3.1773    1.1533 H   0  0  0  0  0  0  0  0  0  0  0  0
   -2.6007    2.2422   -1.2020 H   0  0  0  0  0  0  0  0  0  0  0  0
   -2.7129   -6.7054    0.9330 H   0  0  0  0  0  0  0  0  0  0  0  0
    0.2686    5.5490    1.1396 H   0  0  0  0  0  0  0  0  0  0  0  0
   -3.2288    4.6228   -1.1750 H   0  0  0  0  0  0  0  0  0  0  0  0
   -1.7972    6.2875   -0.0190 H   0  0  0  0  0  0  0  0  0  0  0  0
   -2.0839   -9.5270   -0.5606 H   0  0  0  0  0  0  0  0  0  0  0  0
   -1.1404   -9.5694    0.9556 H   0  0  0  0  0  0  0  0  0  0  0  0
   -2.7565   -8.8306    0.9306 H   0  0  0  0  0  0  0  0  0  0  0  0
  1  2  1  0  0  0  0
  1  3  1  0  0  0  0
  1  4  1  0  0  0  0
  2  5  2  0  0  0  0
  2  6  1  0  0  0  0
  3  7  2  0  0  0  0
  3 23  1  0  0  0  0
  4  8  1  0  0  0  0
  4  9  2  0  0  0  0
  5 10  1  0  0  0  0
  5 24  1  0  0  0  0
  6 11  2  0  0  0  0
  6 25  1  0  0  0  0
  7 12  1  0  0  0  0
  7  8  1  0  0  0  0
  8 26  1  0  0  0  0
 10 13  2  0  0  0  0
 10 27  1  0  0  0  0
 11 13  1  0  0  0  0
 11 28  1  0  0  0  0
 12 14  2  0  0  0  0
 12 15  1  0  0  0  0
 13 16  1  0  0  0  0
 14 17  1  0  0  0  0
 14 29  1  0  0  0  0
 15 18  2  0  0  0  0
 15 30  1  0  0  0  0
 16 19  1  0  0  0  0
 16 31  1  0  0  0  0
 17 20  2  0  0  0  0
 17 32  1  0  0  0  0
 18 20  1  0  0  0  0
 18 33  1  0  0  0  0
 19 21  1  0  0  0  0
 19 22  2  0  0  0  0
 20 34  1  0  0  0  0
 21 35  1  0  0  0  0
 21 36  1  0  0  0  0
 21 37  1  0  0  0  0
M  END
>  <Mol_ID>
8123

>  <Formula>
C17H15N3OS

>  <MolWeight>
309.3855

>  <Cat>
P2836

>  <Name>
WAY-604612

>  <Synonyms>
N/A

>  <Target>
Bcl-B

>  <Form>
free base

>  <CAS>
79220-88-5

>  <URL>
N/A

$$$$
