WAY-656494
 OpenBabel08302521423D

 31 33  0  0  0  0  0  0  0  0999 V2000
   -2.2348    0.1695   -0.4028 C   0  0  0  0  0  0  0  0  0  0  0  0
   -1.3981   -0.6847   -0.9389 N   0  0  0  0  0  0  0  0  0  0  0  0
   -3.5070   -0.0357    0.0644 N   0  0  0  0  0  0  0  0  0  0  0  0
   -1.6916    1.4340   -0.4002 N   0  0  0  0  0  0  0  0  0  0  0  0
   -4.1542   -1.2369   -0.0533 C   0  0  0  0  0  0  0  0  0  0  0  0
   -0.3797    0.0668   -1.4645 C   0  0  0  0  0  0  0  0  0  0  0  0
   -0.5750    1.4154   -1.1968 C   0  0  0  0  0  0  0  0  0  0  0  0
   -5.4679   -1.2469    0.3672 N   0  0  0  0  0  0  0  0  0  0  0  0
   -3.6743   -2.3047   -0.4153 O   0  0  0  0  0  0  0  0  0  0  0  0
   -6.3619   -0.2036    0.6451 C   0  0  0  0  0  0  0  0  0  0  0  0
   -6.3206    1.0379    0.0028 C   0  0  0  0  0  0  0  0  0  0  0  0
   -7.2005    2.0552    0.3793 C   0  0  0  0  0  0  0  0  0  0  0  0
    0.7198   -0.3284   -2.2363 C   0  0  0  0  0  0  0  0  0  0  0  0
   -8.2263    0.5729    1.9819 C   0  0  0  0  0  0  0  0  0  0  0  0
    0.2374    2.4273   -1.7101 C   0  0  0  0  0  0  0  0  0  0  0  0
   -7.3560   -0.4474    1.5961 C   0  0  0  0  0  0  0  0  0  0  0  0
   -8.1385    1.8292    1.3851 C   0  0  0  0  0  0  0  0  0  0  0  0
    1.5377    0.6652   -2.7884 C   0  0  0  0  0  0  0  0  0  0  0  0
    1.2872    2.0184   -2.5424 C   0  0  0  0  0  0  0  0  0  0  0  0
   -3.9844    0.7140    0.5277 H   0  0  0  0  0  0  0  0  0  0  0  0
   -2.1205    2.2551   -0.0114 H   0  0  0  0  0  0  0  0  0  0  0  0
   -5.7809   -2.1941    0.5412 H   0  0  0  0  0  0  0  0  0  0  0  0
   -5.6444    1.2188   -0.8295 H   0  0  0  0  0  0  0  0  0  0  0  0
   -7.1649    3.0200   -0.1207 H   0  0  0  0  0  0  0  0  0  0  0  0
    0.8927   -1.3802   -2.4356 H   0  0  0  0  0  0  0  0  0  0  0  0
   -8.9695    0.3887    2.7546 H   0  0  0  0  0  0  0  0  0  0  0  0
    0.0471    3.4769   -1.5178 H   0  0  0  0  0  0  0  0  0  0  0  0
   -7.4324   -1.4166    2.0827 H   0  0  0  0  0  0  0  0  0  0  0  0
   -8.8128    2.6248    1.6909 H   0  0  0  0  0  0  0  0  0  0  0  0
    2.3630    0.3761   -3.4346 H   0  0  0  0  0  0  0  0  0  0  0  0
    1.9176    2.7701   -3.0138 H   0  0  0  0  0  0  0  0  0  0  0  0
  2  1  2  0  0  0  0
  3  1  1  0  0  0  0
  3 20  1  0  0  0  0
  4  1  1  0  0  0  0
  4 21  1  0  0  0  0
  5  3  1  0  0  0  0
  6  2  1  0  0  0  0
  7  4  1  0  0  0  0
  7  6  2  0  0  0  0
  8  5  1  0  0  0  0
  8 22  1  0  0  0  0
  9  5  2  0  0  0  0
 10  8  1  0  0  0  0
 11 10  2  0  0  0  0
 11 23  1  0  0  0  0
 12 11  1  0  0  0  0
 12 24  1  0  0  0  0
 13  6  1  0  0  0  0
 13 25  1  0  0  0  0
 14 16  2  0  0  0  0
 14 26  1  0  0  0  0
 15  7  1  0  0  0  0
 15 27  1  0  0  0  0
 16 10  1  0  0  0  0
 16 28  1  0  0  0  0
 17 14  1  0  0  0  0
 17 12  2  0  0  0  0
 17 29  1  0  0  0  0
 18 13  2  0  0  0  0
 18 30  1  0  0  0  0
 19 15  2  0  0  0  0
 19 18  1  0  0  0  0
 19 31  1  0  0  0  0
M  END
>  <Mol_ID>
8529

>  <Formula>
C14H11ClN4O

>  <MolWeight>
286.71634

>  <Cat>
P3140

>  <Name>
WAY-656494

>  <Synonyms>
N/A

>  <Target>
Immunology & Inflammation related

>  <Form>
free base

>  <CAS>
852830-03-6

>  <URL>
N/A

$$$$
