WAY-347896
 OpenBabel08302521393D

 48 51  0  0  0  0  0  0  0  0999 V2000
   -0.0355   -1.0474   -0.1892 N   0  0  0  0  0  0  0  0  0  0  0  0
    1.1567   -0.3429   -0.1289 C   0  0  0  0  0  0  0  0  0  0  0  0
    0.8508    0.9366    0.0528 N   0  0  0  0  0  0  0  0  0  0  0  0
   -1.0372   -0.1099   -0.0782 C   0  0  0  0  0  0  0  0  0  0  0  0
   -0.5193    1.0794    0.0713 N   0  0  0  0  0  0  0  0  0  0  0  0
   -0.2137   -2.4909   -0.1139 C   0  0  0  0  0  0  0  0  0  0  0  0
   -5.9966    1.5734    0.6554 N   0  0  0  0  0  0  0  0  0  0  0  0
   -2.7035   -0.5461   -0.1987 S   0  0  0  0  0  0  0  0  0  0  0  0
   -5.1109    0.7318   -0.0130 C   0  0  0  0  0  0  0  0  0  0  0  0
   -7.3515    1.7908    0.2707 C   0  0  0  0  0  0  0  0  0  0  0  0
    2.5268   -0.8885   -0.1445 C   0  0  0  0  0  0  0  0  0  0  0  0
   -8.1342    0.9013   -0.4827 C   0  0  0  0  0  0  0  0  0  0  0  0
    5.1348   -1.9533   -0.0076 N   0  0  0  0  0  0  0  0  0  0  0  0
   -5.4244    0.0120   -0.9622 O   0  0  0  0  0  0  0  0  0  0  0  0
   -3.6483    0.8617    0.4496 C   0  0  0  0  0  0  0  0  0  0  0  0
   -7.7642   -0.3693   -0.6890 F   0  0  0  0  0  0  0  0  0  0  0  0
   -0.2540   -3.2100   -1.4453 C   0  0  0  0  0  0  0  0  0  0  0  0
   -7.9270    3.0188    0.6296 C   0  0  0  0  0  0  0  0  0  0  0  0
    4.1826   -2.5143   -0.7736 C   0  0  0  0  0  0  0  0  0  0  0  0
    4.7938   -0.8278    0.6485 C   0  0  0  0  0  0  0  0  0  0  0  0
    2.8952   -2.0099   -0.8918 C   0  0  0  0  0  0  0  0  0  0  0  0
    3.5228   -0.2651    0.6128 C   0  0  0  0  0  0  0  0  0  0  0  0
   -9.3808    1.2772   -0.9863 C   0  0  0  0  0  0  0  0  0  0  0  0
    0.2047   -4.5391   -1.4962 C   0  0  0  0  0  0  0  0  0  0  0  0
   -0.7832   -2.6470   -2.6153 C   0  0  0  0  0  0  0  0  0  0  0  0
   -9.1859    3.3918    0.1367 C   0  0  0  0  0  0  0  0  0  0  0  0
   -9.8976    2.5353   -0.6991 C   0  0  0  0  0  0  0  0  0  0  0  0
   -0.8235   -3.3803   -3.8053 C   0  0  0  0  0  0  0  0  0  0  0  0
    0.1730   -5.2663   -2.6882 C   0  0  0  0  0  0  0  0  0  0  0  0
   -0.3411   -4.6857   -3.8436 C   0  0  0  0  0  0  0  0  0  0  0  0
    0.6052   -2.8777    0.5079 H   0  0  0  0  0  0  0  0  0  0  0  0
   -1.1325   -2.7077    0.4431 H   0  0  0  0  0  0  0  0  0  0  0  0
   -5.5891    2.2707    1.2669 H   0  0  0  0  0  0  0  0  0  0  0  0
   -3.6018    0.8437    1.5421 H   0  0  0  0  0  0  0  0  0  0  0  0
   -3.2588    1.8143    0.0791 H   0  0  0  0  0  0  0  0  0  0  0  0
   -7.3918    3.7255    1.2582 H   0  0  0  0  0  0  0  0  0  0  0  0
    4.4838   -3.4104   -1.3124 H   0  0  0  0  0  0  0  0  0  0  0  0
    5.5911   -0.3690    1.2264 H   0  0  0  0  0  0  0  0  0  0  0  0
    2.2201   -2.4986   -1.5800 H   0  0  0  0  0  0  0  0  0  0  0  0
    3.3217    0.6433    1.1707 H   0  0  0  0  0  0  0  0  0  0  0  0
   -9.9353    0.5737   -1.6003 H   0  0  0  0  0  0  0  0  0  0  0  0
    0.6004   -5.0221   -0.6046 H   0  0  0  0  0  0  0  0  0  0  0  0
   -1.1792   -1.6346   -2.6336 H   0  0  0  0  0  0  0  0  0  0  0  0
   -9.6030    4.3645    0.3894 H   0  0  0  0  0  0  0  0  0  0  0  0
  -10.8571    2.8367   -1.1124 H   0  0  0  0  0  0  0  0  0  0  0  0
   -1.2419   -2.9305   -4.7038 H   0  0  0  0  0  0  0  0  0  0  0  0
    0.5419   -6.2891   -2.7137 H   0  0  0  0  0  0  0  0  0  0  0  0
   -0.3772   -5.2522   -4.7704 H   0  0  0  0  0  0  0  0  0  0  0  0
  2  1  1  0  0  0  0
  3  2  2  0  0  0  0
  3  5  1  0  0  0  0
  4  1  1  0  0  0  0
  5  4  2  0  0  0  0
  6  1  1  0  0  0  0
  6 31  1  0  0  0  0
  6 32  1  0  0  0  0
  7  9  1  0  0  0  0
  7 33  1  0  0  0  0
  8  4  1  0  0  0  0
  9 15  1  0  0  0  0
 10  7  1  0  0  0  0
 11  2  1  0  0  0  0
 12 10  2  0  0  0  0
 13 20  2  0  0  0  0
 14  9  2  0  0  0  0
 15  8  1  0  0  0  0
 15 34  1  0  0  0  0
 15 35  1  0  0  0  0
 16 12  1  0  0  0  0
 17  6  1  0  0  0  0
 18 10  1  0  0  0  0
 18 36  1  0  0  0  0
 19 21  2  0  0  0  0
 19 13  1  0  0  0  0
 19 37  1  0  0  0  0
 20 22  1  0  0  0  0
 20 38  1  0  0  0  0
 21 11  1  0  0  0  0
 21 39  1  0  0  0  0
 22 11  2  0  0  0  0
 22 40  1  0  0  0  0
 23 12  1  0  0  0  0
 23 27  2  0  0  0  0
 23 41  1  0  0  0  0
 24 17  2  0  0  0  0
 24 42  1  0  0  0  0
 25 17  1  0  0  0  0
 25 43  1  0  0  0  0
 26 18  2  0  0  0  0
 26 44  1  0  0  0  0
 27 26  1  0  0  0  0
 27 45  1  0  0  0  0
 28 25  2  0  0  0  0
 28 46  1  0  0  0  0
 29 24  1  0  0  0  0
 29 30  2  0  0  0  0
 29 47  1  0  0  0  0
 30 28  1  0  0  0  0
 30 48  1  0  0  0  0
M  END
>  <Mol_ID>
8044

>  <Formula>
C22H18FN5OS

>  <MolWeight>
419.4746232

>  <Cat>
P2751

>  <Name>
WAY-347896

>  <Synonyms>
N/A

>  <Target>
others

>  <Form>
free base

>  <CAS>
572876-07-4

>  <URL>
N/A

$$$$
