WAY-326812
 OpenBabel08302521433D

 58 61  0  0  0  0  0  0  0  0999 V2000
   -1.9649   -1.4527    0.0890 C   0  0  0  0  0  0  0  0  0  0  0  0
    3.6212    2.6908   -1.4851 C   0  0  0  0  0  0  0  0  0  0  0  0
   -0.6756   -1.8415    0.0673 N   0  0  0  0  0  0  0  0  0  0  0  0
    4.7844    3.6438   -1.3964 C   0  0  0  0  0  0  0  0  0  0  0  0
   -2.9465   -2.4125    0.0566 N   0  0  0  0  0  0  0  0  0  0  0  0
    0.2912   -0.9190   -0.0224 C   0  0  0  0  0  0  0  0  0  0  0  0
    0.0263    0.4652   -0.1366 C   0  0  0  0  0  0  0  0  0  0  0  0
    3.4864    1.7922   -0.4315 N   0  0  0  0  0  0  0  0  0  0  0  0
   -1.3150    0.8719   -0.0587 C   0  0  0  0  0  0  0  0  0  0  0  0
   -2.3028   -0.1059    0.0586 C   0  0  0  0  0  0  0  0  0  0  0  0
   -5.1800   -4.1549   -0.6532 N   0  0  0  0  0  0  0  0  0  0  0  0
    2.4131    0.8959   -0.3190 C   0  0  0  0  0  0  0  0  0  0  0  0
    1.0997    1.3573   -0.3321 C   0  0  0  0  0  0  0  0  0  0  0  0
    2.8663    2.6888   -2.4472 O   0  0  0  0  0  0  0  0  0  0  0  0
    4.8416    4.8953   -2.0419 C   0  0  0  0  0  0  0  0  0  0  0  0
   -2.6581   -3.7132   -0.5433 C   0  0  0  0  0  0  0  0  0  0  0  0
   -4.1715   -2.3306    0.8470 C   0  0  0  0  0  0  0  0  0  0  0  0
    1.6126   -1.3447    0.0029 C   0  0  0  0  0  0  0  0  0  0  0  0
   -5.3669   -2.8286   -0.0042 C   0  0  0  0  0  0  0  0  0  0  0  0
   -3.8874   -4.1310   -1.3889 C   0  0  0  0  0  0  0  0  0  0  0  0
    2.6767   -0.4476   -0.1049 C   0  0  0  0  0  0  0  0  0  0  0  0
    5.9058    3.2455   -0.6288 C   0  0  0  0  0  0  0  0  0  0  0  0
    4.0029    5.4496   -2.9695 O   0  0  0  0  0  0  0  0  0  0  0  0
   -5.2554   -5.2294    0.3469 C   0  0  0  0  0  0  0  0  0  0  0  0
   -1.7301    2.3179   -0.0722 C   0  0  0  0  0  0  0  0  0  0  0  0
    5.9683    5.7179   -1.8352 C   0  0  0  0  0  0  0  0  0  0  0  0
    2.5993    5.3879   -2.7758 C   0  0  0  0  0  0  0  0  0  0  0  0
   -5.1275   -6.6271   -0.2495 C   0  0  0  0  0  0  0  0  0  0  0  0
    7.0018    4.0832   -0.4211 C   0  0  0  0  0  0  0  0  0  0  0  0
    7.0251    5.3323   -1.0126 C   0  0  0  0  0  0  0  0  0  0  0  0
    4.2967    1.5455    0.1140 H   0  0  0  0  0  0  0  0  0  0  0  0
   -3.3461    0.1894    0.0499 H   0  0  0  0  0  0  0  0  0  0  0  0
    0.9168    2.4215   -0.4489 H   0  0  0  0  0  0  0  0  0  0  0  0
   -1.7893   -3.6820   -1.2116 H   0  0  0  0  0  0  0  0  0  0  0  0
   -2.4470   -4.4536    0.2371 H   0  0  0  0  0  0  0  0  0  0  0  0
   -4.0606   -2.9471    1.7468 H   0  0  0  0  0  0  0  0  0  0  0  0
   -4.3880   -1.3165    1.1984 H   0  0  0  0  0  0  0  0  0  0  0  0
    1.8161   -2.4066    0.1095 H   0  0  0  0  0  0  0  0  0  0  0  0
   -5.5479   -2.0916   -0.8000 H   0  0  0  0  0  0  0  0  0  0  0  0
   -6.2780   -2.8294    0.6079 H   0  0  0  0  0  0  0  0  0  0  0  0
   -3.9944   -3.4074   -2.2105 H   0  0  0  0  0  0  0  0  0  0  0  0
   -3.6954   -5.0868   -1.8856 H   0  0  0  0  0  0  0  0  0  0  0  0
    3.6942   -0.8260   -0.0896 H   0  0  0  0  0  0  0  0  0  0  0  0
    5.9875    2.2550   -0.1951 H   0  0  0  0  0  0  0  0  0  0  0  0
   -4.5053   -5.1140    1.1371 H   0  0  0  0  0  0  0  0  0  0  0  0
   -6.2369   -5.1769    0.8345 H   0  0  0  0  0  0  0  0  0  0  0  0
   -1.3416    2.8271    0.8159 H   0  0  0  0  0  0  0  0  0  0  0  0
   -1.3688    2.8182   -0.9751 H   0  0  0  0  0  0  0  0  0  0  0  0
   -2.8204    2.4217   -0.0570 H   0  0  0  0  0  0  0  0  0  0  0  0
    6.0193    6.6846   -2.3340 H   0  0  0  0  0  0  0  0  0  0  0  0
    2.1722    4.5781   -3.3695 H   0  0  0  0  0  0  0  0  0  0  0  0
    2.3119    5.3276   -1.7225 H   0  0  0  0  0  0  0  0  0  0  0  0
    2.1702    6.3066   -3.1907 H   0  0  0  0  0  0  0  0  0  0  0  0
   -5.8587   -6.7852   -1.0486 H   0  0  0  0  0  0  0  0  0  0  0  0
   -4.1259   -6.8100   -0.6501 H   0  0  0  0  0  0  0  0  0  0  0  0
   -5.3049   -7.3786    0.5264 H   0  0  0  0  0  0  0  0  0  0  0  0
    7.8354    3.7476    0.1903 H   0  0  0  0  0  0  0  0  0  0  0  0
    7.8733    5.9944   -0.8617 H   0  0  0  0  0  0  0  0  0  0  0  0
  2  8  1  0  0  0  0
  3  1  2  0  0  0  0
  4  2  1  0  0  0  0
  5  1  1  0  0  0  0
  6  3  1  0  0  0  0
  6  7  2  0  0  0  0
  7  9  1  0  0  0  0
  8 12  1  0  0  0  0
  8 31  1  0  0  0  0
  9 10  2  0  0  0  0
 10  1  1  0  0  0  0
 10 32  1  0  0  0  0
 11 19  1  0  0  0  0
 11 20  1  0  0  0  0
 12 13  2  0  0  0  0
 13  7  1  0  0  0  0
 13 33  1  0  0  0  0
 14  2  2  0  0  0  0
 15  4  2  0  0  0  0
 16  5  1  0  0  0  0
 16 34  1  0  0  0  0
 16 35  1  0  0  0  0
 17  5  1  0  0  0  0
 17 36  1  0  0  0  0
 17 37  1  0  0  0  0
 18  6  1  0  0  0  0
 18 38  1  0  0  0  0
 19 17  1  0  0  0  0
 19 39  1  0  0  0  0
 19 40  1  0  0  0  0
 20 16  1  0  0  0  0
 20 41  1  0  0  0  0
 20 42  1  0  0  0  0
 21 18  2  0  0  0  0
 21 12  1  0  0  0  0
 21 43  1  0  0  0  0
 22  4  1  0  0  0  0
 22 44  1  0  0  0  0
 23 15  1  0  0  0  0
 24 11  1  0  0  0  0
 24 45  1  0  0  0  0
 24 46  1  0  0  0  0
 25  9  1  0  0  0  0
 25 47  1  0  0  0  0
 25 48  1  0  0  0  0
 25 49  1  0  0  0  0
 26 15  1  0  0  0  0
 26 50  1  0  0  0  0
 27 23  1  0  0  0  0
 27 51  1  0  0  0  0
 27 52  1  0  0  0  0
 27 53  1  0  0  0  0
 28 24  1  0  0  0  0
 28 54  1  0  0  0  0
 28 55  1  0  0  0  0
 28 56  1  0  0  0  0
 29 22  2  0  0  0  0
 29 57  1  0  0  0  0
 30 29  1  0  0  0  0
 30 26  2  0  0  0  0
 30 58  1  0  0  0  0
M  END
>  <Mol_ID>
8939

>  <Formula>
C24H28N4O2

>  <MolWeight>
404.50472

>  <Cat>
P2498

>  <Name>
WAY-326812

>  <Synonyms>
N/A

>  <Target>
Hsp90

>  <Form>
free base

>  <CAS>
442898-48-8

>  <URL>
N/A

$$$$
