WAY-332044
 OpenBabel08302521453D

 58 61  0  0  0  0  0  0  0  0999 V2000
   -3.1903    5.7883   -2.3301 N   0  0  0  0  0  0  0  0  0  0  0  0
   -3.0314    4.4290   -2.5186 C   0  0  0  0  0  0  0  0  0  0  0  0
   -3.7001    6.2193   -3.4698 C   0  0  0  0  0  0  0  0  0  0  0  0
   -3.9026    5.2290   -4.3936 O   0  0  0  0  0  0  0  0  0  0  0  0
   -3.4717    4.0880   -3.7803 C   0  0  0  0  0  0  0  0  0  0  0  0
    1.3030    5.3664   -1.5012 C   0  0  0  0  0  0  0  0  0  0  0  0
    1.7600    6.6530   -1.2379 N   0  0  0  0  0  0  0  0  0  0  0  0
   -0.1953    5.1357   -1.4014 C   0  0  0  0  0  0  0  0  0  0  0  0
   -0.6517    3.3829   -1.6167 S   0  0  3  0  0  0  0  0  0  0  0  0
    2.7732    9.2590   -1.8394 N   0  0  0  0  0  0  0  0  0  0  0  0
   -2.4533    3.5842   -1.4497 C   0  0  0  0  0  0  0  0  0  0  0  0
   -4.0037    7.5829   -3.8900 C   0  0  0  0  0  0  0  0  0  0  0  0
    0.9328    7.8404   -0.9598 C   0  0  0  0  0  0  0  0  0  0  0  0
    3.2077    6.9116   -1.2227 C   0  0  0  0  0  0  0  0  0  0  0  0
    1.3161    9.0467   -1.8551 C   0  0  0  0  0  0  0  0  0  0  0  0
    3.5775    8.0678   -2.1631 C   0  0  0  0  0  0  0  0  0  0  0  0
    2.0848    4.4783   -1.8440 O   0  0  0  0  0  0  0  0  0  0  0  0
    3.3426   10.4613   -1.4718 C   0  0  0  0  0  0  0  0  0  0  0  0
   -0.2015    2.6284   -0.3966 O   0  0  0  0  0  0  0  0  0  0  0  0
   -3.7550    8.6556   -3.0218 C   0  0  0  0  0  0  0  0  0  0  0  0
   -4.5095    7.8605   -5.1676 C   0  0  0  0  0  0  0  0  0  0  0  0
   -4.7357    9.1767   -5.5783 C   0  0  0  0  0  0  0  0  0  0  0  0
   -3.9817    9.9742   -3.4314 C   0  0  0  0  0  0  0  0  0  0  0  0
   -4.4645   10.2437   -4.7170 C   0  0  0  0  0  0  0  0  0  0  0  0
   -3.5549    2.8467   -4.5686 C   0  0  0  0  0  0  0  0  0  0  0  0
    2.7322   11.6882   -1.7706 C   0  0  0  0  0  0  0  0  0  0  0  0
    4.5677   10.5240   -0.7857 C   0  0  0  0  0  0  0  0  0  0  0  0
   -4.6673   11.6609   -5.1645 C   0  0  0  0  0  0  0  0  0  0  0  0
    3.3087   12.9136   -1.4084 C   0  0  0  0  0  0  0  0  0  0  0  0
    5.1498   11.7427   -0.4150 C   0  0  0  0  0  0  0  0  0  0  0  0
    4.5205   12.9396   -0.7277 C   0  0  0  0  0  0  0  0  0  0  0  0
   -0.6562    5.7095   -2.2079 H   0  0  0  0  0  0  0  0  0  0  0  0
   -0.5624    5.4641   -0.4253 H   0  0  0  0  0  0  0  0  0  0  0  0
   -2.6657    4.0016   -0.4606 H   0  0  0  0  0  0  0  0  0  0  0  0
   -2.8878    2.5793   -1.4841 H   0  0  0  0  0  0  0  0  0  0  0  0
   -0.1312    7.6264   -1.0818 H   0  0  0  0  0  0  0  0  0  0  0  0
    1.1016    8.0977    0.0928 H   0  0  0  0  0  0  0  0  0  0  0  0
    3.4725    7.1669   -0.1895 H   0  0  0  0  0  0  0  0  0  0  0  0
    3.7778    6.0191   -1.4965 H   0  0  0  0  0  0  0  0  0  0  0  0
    1.0032    8.8502   -2.8879 H   0  0  0  0  0  0  0  0  0  0  0  0
    0.7562    9.9193   -1.5019 H   0  0  0  0  0  0  0  0  0  0  0  0
    3.3532    7.7775   -3.1977 H   0  0  0  0  0  0  0  0  0  0  0  0
    4.6561    8.2504   -2.1272 H   0  0  0  0  0  0  0  0  0  0  0  0
   -3.3745    8.4699   -2.0196 H   0  0  0  0  0  0  0  0  0  0  0  0
   -4.7213    7.0522   -5.8647 H   0  0  0  0  0  0  0  0  0  0  0  0
   -5.1169    9.3586   -6.5807 H   0  0  0  0  0  0  0  0  0  0  0  0
   -3.7718   10.7903   -2.7431 H   0  0  0  0  0  0  0  0  0  0  0  0
   -4.5843    2.6692   -4.8951 H   0  0  0  0  0  0  0  0  0  0  0  0
   -2.9211    2.9194   -5.4580 H   0  0  0  0  0  0  0  0  0  0  0  0
   -3.2274    1.9806   -3.9869 H   0  0  0  0  0  0  0  0  0  0  0  0
    1.8030   11.7143   -2.3353 H   0  0  0  0  0  0  0  0  0  0  0  0
    5.0820    9.6143   -0.4917 H   0  0  0  0  0  0  0  0  0  0  0  0
   -5.3642   12.1752   -4.4958 H   0  0  0  0  0  0  0  0  0  0  0  0
   -3.7101   12.1926   -5.1689 H   0  0  0  0  0  0  0  0  0  0  0  0
   -5.0797   11.7056   -6.1781 H   0  0  0  0  0  0  0  0  0  0  0  0
    2.8114   13.8425   -1.6691 H   0  0  0  0  0  0  0  0  0  0  0  0
    6.0955   11.7470    0.1212 H   0  0  0  0  0  0  0  0  0  0  0  0
    4.9696   13.8870   -0.4461 H   0  0  0  0  0  0  0  0  0  0  0  0
  2  1  1  0  0  0  0
  3  1  2  0  0  0  0
  4  3  1  0  0  0  0
  5  2  2  0  0  0  0
  5  4  1  0  0  0  0
  6  8  1  0  0  0  0
  7  6  1  0  0  0  0
  8  9  1  0  0  0  0
  8 32  1  0  0  0  0
  8 33  1  0  0  0  0
  9 11  1  0  0  0  0
 10 16  1  0  0  0  0
 10 15  1  0  0  0  0
 11  2  1  0  0  0  0
 11 34  1  0  0  0  0
 11 35  1  0  0  0  0
 12  3  1  0  0  0  0
 13  7  1  0  0  0  0
 13 36  1  0  0  0  0
 13 37  1  0  0  0  0
 14  7  1  0  0  0  0
 14 38  1  0  0  0  0
 14 39  1  0  0  0  0
 15 13  1  0  0  0  0
 15 40  1  0  0  0  0
 15 41  1  0  0  0  0
 16 14  1  0  0  0  0
 16 42  1  0  0  0  0
 16 43  1  0  0  0  0
 17  6  2  0  0  0  0
 18 10  1  0  0  0  0
 19  9  2  0  0  0  0
 20 12  2  0  0  0  0
 20 44  1  0  0  0  0
 21 12  1  0  0  0  0
 21 45  1  0  0  0  0
 22 21  2  0  0  0  0
 22 46  1  0  0  0  0
 23 20  1  0  0  0  0
 23 47  1  0  0  0  0
 24 22  1  0  0  0  0
 24 23  2  0  0  0  0
 25  5  1  0  0  0  0
 25 48  1  0  0  0  0
 25 49  1  0  0  0  0
 25 50  1  0  0  0  0
 26 18  2  0  0  0  0
 26 51  1  0  0  0  0
 27 18  1  0  0  0  0
 27 52  1  0  0  0  0
 28 24  1  0  0  0  0
 28 53  1  0  0  0  0
 28 54  1  0  0  0  0
 28 55  1  0  0  0  0
 29 26  1  0  0  0  0
 29 31  2  0  0  0  0
 29 56  1  0  0  0  0
 30 27  2  0  0  0  0
 30 57  1  0  0  0  0
 31 30  1  0  0  0  0
 31 58  1  0  0  0  0
M  END
>  <Mol_ID>
9272

>  <Formula>
C24H27N3O3S

>  <MolWeight>
437.55448

>  <Cat>
P2692

>  <Name>
WAY-332044

>  <Synonyms>
N/A

>  <Target>
beta-catenin

>  <Form>
free base

>  <CAS>
959542-81-5

>  <URL>
N/A

$$$$
