WAY-607584
 OpenBabel08302521433D

 23 24  0  0  0  0  0  0  0  0999 V2000
    0.2653    1.5014    0.7123 C   0  0  0  0  0  0  0  0  0  0  0  0
   -0.7240    0.5442    1.7309 S   0  0  0  0  0  0  0  0  0  0  0  0
   -3.5695    4.5301    1.4632 C   0  0  0  0  0  0  0  0  0  0  0  0
    0.5647   -0.5059    2.1276 C   0  0  0  0  0  0  0  0  0  0  0  0
   -0.2217    2.6842    0.0005 C   0  0  0  0  0  0  0  0  0  0  0  0
   -4.3403    4.0410    0.5517 N   0  0  0  0  0  0  0  0  0  0  0  0
    1.5560    0.9984    0.6683 C   0  0  0  0  0  0  0  0  0  0  0  0
    1.7299   -0.1542    1.4883 C   0  0  0  0  0  0  0  0  0  0  0  0
   -4.2670    5.5938    2.6496 S   0  0  0  0  0  0  0  0  0  0  0  0
   -1.8848    4.1596    1.6004 S   0  0  0  0  0  0  0  0  0  0  0  0
   -1.6733    3.1138    0.1331 C   0  0  0  0  0  0  0  0  0  0  0  0
    0.5324    3.3485   -0.7184 O   0  0  0  0  0  0  0  0  0  0  0  0
   -5.6927    4.6190    0.7042 C   0  0  0  0  0  0  0  0  0  0  0  0
   -5.9127    5.0734    2.1388 C   0  0  0  0  0  0  0  0  0  0  0  0
    0.4066   -1.3298    2.8108 H   0  0  0  0  0  0  0  0  0  0  0  0
    2.3429    1.4524    0.0754 H   0  0  0  0  0  0  0  0  0  0  0  0
    2.6629   -0.6928    1.6026 H   0  0  0  0  0  0  0  0  0  0  0  0
   -1.9279    3.6924   -0.7625 H   0  0  0  0  0  0  0  0  0  0  0  0
   -2.3378    2.2448    0.1515 H   0  0  0  0  0  0  0  0  0  0  0  0
   -6.4434    3.8698    0.4305 H   0  0  0  0  0  0  0  0  0  0  0  0
   -5.8032    5.4572    0.0048 H   0  0  0  0  0  0  0  0  0  0  0  0
   -6.6444    5.8815    2.2111 H   0  0  0  0  0  0  0  0  0  0  0  0
   -6.2366    4.2379    2.7675 H   0  0  0  0  0  0  0  0  0  0  0  0
  2  1  1  0  0  0  0
  3 10  1  0  0  0  0
  4  2  1  0  0  0  0
  4 15  1  0  0  0  0
  5  1  1  0  0  0  0
  6  3  2  0  0  0  0
  7  1  2  0  0  0  0
  7 16  1  0  0  0  0
  8  7  1  0  0  0  0
  8  4  2  0  0  0  0
  8 17  1  0  0  0  0
  9  3  1  0  0  0  0
 10 11  1  0  0  0  0
 11  5  1  0  0  0  0
 11 18  1  0  0  0  0
 11 19  1  0  0  0  0
 12  5  2  0  0  0  0
 13  6  1  0  0  0  0
 13 14  1  0  0  0  0
 13 20  1  0  0  0  0
 13 21  1  0  0  0  0
 14  9  1  0  0  0  0
 14 22  1  0  0  0  0
 14 23  1  0  0  0  0
M  END
>  <Mol_ID>
8747

>  <Formula>
C9H8ClNOS3

>  <MolWeight>
277.81392

>  <Cat>
P2894

>  <Name>
WAY-607584

>  <Synonyms>
N/A

>  <Target>
Others

>  <Form>
free base

>  <CAS>
438481-79-9

>  <URL>
N/A

$$$$
