WAY-357769
 OpenBabel08302521393D

 44 47  0  0  0  0  0  0  0  0999 V2000
   -0.2250   -1.3000   -0.0637 N   0  0  0  0  0  0  0  0  0  0  0  0
    1.0376   -0.6794   -0.0562 C   0  0  0  0  0  0  0  0  0  0  0  0
    0.8662    0.6337   -0.0877 N   0  0  0  0  0  0  0  0  0  0  0  0
   -1.1091   -0.2415   -0.2392 C   0  0  0  0  0  0  0  0  0  0  0  0
   -0.4642    0.9019   -0.2252 N   0  0  0  0  0  0  0  0  0  0  0  0
    2.3619   -1.3214   -0.0787 C   0  0  0  0  0  0  0  0  0  0  0  0
   -2.8455   -0.3391   -0.2574 S   0  0  0  0  0  0  0  0  0  0  0  0
    3.8337   -3.1090   -0.6782 C   0  0  0  0  0  0  0  0  0  0  0  0
    2.6065   -2.4937   -0.8106 C   0  0  0  0  0  0  0  0  0  0  0  0
   -0.5008   -2.6983    0.0589 C   0  0  0  0  0  0  0  0  0  0  0  0
    4.8429   -2.5646    0.0755 C   0  0  0  0  0  0  0  0  0  0  0  0
    4.1796   -4.3043   -1.2276 O   0  0  0  0  0  0  0  0  0  0  0  0
   -2.7999    1.1197   -2.6253 C   0  0  0  0  0  0  0  0  0  0  0  0
    5.9579   -3.3420    0.0862 O   0  0  0  0  0  0  0  0  0  0  0  0
    5.5122   -4.4675   -0.7007 C   0  0  0  0  0  0  0  0  0  0  0  0
    3.4247   -0.7478    0.6628 C   0  0  0  0  0  0  0  0  0  0  0  0
   -2.5190    0.1075   -3.2561 O   0  0  0  0  0  0  0  0  0  0  0  0
    4.6810   -1.3673    0.7353 C   0  0  0  0  0  0  0  0  0  0  0  0
   -3.2694    1.1708   -1.1850 C   0  0  0  0  0  0  0  0  0  0  0  0
   -2.8015    2.3831   -3.1524 O   0  0  0  0  0  0  0  0  0  0  0  0
    0.2874   -3.5039    0.8989 C   0  0  0  0  0  0  0  0  0  0  0  0
   -1.4928   -3.3046   -0.7217 C   0  0  0  0  0  0  0  0  0  0  0  0
   -2.3394    2.4574   -4.5083 C   0  0  0  0  0  0  0  0  0  0  0  0
   -2.2247    3.9169   -4.9090 C   0  0  0  0  0  0  0  0  0  0  0  0
   -1.6657   -4.6912   -0.6888 C   0  0  0  0  0  0  0  0  0  0  0  0
    0.1343   -4.8924    0.8987 C   0  0  0  0  0  0  0  0  0  0  0  0
   -0.8409   -5.4868    0.1045 C   0  0  0  0  0  0  0  0  0  0  0  0
    1.8486   -2.9552   -1.4343 H   0  0  0  0  0  0  0  0  0  0  0  0
    6.2021   -4.6080   -1.5394 H   0  0  0  0  0  0  0  0  0  0  0  0
    5.5340   -5.3663   -0.0716 H   0  0  0  0  0  0  0  0  0  0  0  0
    3.2685    0.1894    1.1954 H   0  0  0  0  0  0  0  0  0  0  0  0
    5.4901   -0.9312    1.3117 H   0  0  0  0  0  0  0  0  0  0  0  0
   -4.3597    1.2685   -1.1934 H   0  0  0  0  0  0  0  0  0  0  0  0
   -2.8433    2.0429   -0.6805 H   0  0  0  0  0  0  0  0  0  0  0  0
    1.0471   -3.0785    1.5523 H   0  0  0  0  0  0  0  0  0  0  0  0
   -2.1070   -2.7394   -1.4186 H   0  0  0  0  0  0  0  0  0  0  0  0
   -1.3567    1.9803   -4.5921 H   0  0  0  0  0  0  0  0  0  0  0  0
   -3.0537    1.9494   -5.1658 H   0  0  0  0  0  0  0  0  0  0  0  0
   -3.2097    4.3951   -4.9166 H   0  0  0  0  0  0  0  0  0  0  0  0
   -1.6057    4.4702   -4.1951 H   0  0  0  0  0  0  0  0  0  0  0  0
   -1.7846    4.0117   -5.9063 H   0  0  0  0  0  0  0  0  0  0  0  0
   -2.4287   -5.1547   -1.3099 H   0  0  0  0  0  0  0  0  0  0  0  0
    0.7886   -5.5116    1.5089 H   0  0  0  0  0  0  0  0  0  0  0  0
   -0.9538   -6.5674    0.0950 H   0  0  0  0  0  0  0  0  0  0  0  0
  2  1  1  0  0  0  0
  3  2  2  0  0  0  0
  4  1  1  0  0  0  0
  5  4  2  0  0  0  0
  5  3  1  0  0  0  0
  6  2  1  0  0  0  0
  7  4  1  0  0  0  0
  8  9  2  0  0  0  0
  8 11  1  0  0  0  0
  9  6  1  0  0  0  0
  9 28  1  0  0  0  0
 10  1  1  0  0  0  0
 11 18  2  0  0  0  0
 12  8  1  0  0  0  0
 13 19  1  0  0  0  0
 14 11  1  0  0  0  0
 14 15  1  0  0  0  0
 15 12  1  0  0  0  0
 15 29  1  0  0  0  0
 15 30  1  0  0  0  0
 16  6  2  0  0  0  0
 16 31  1  0  0  0  0
 17 13  2  0  0  0  0
 18 16  1  0  0  0  0
 18 32  1  0  0  0  0
 19  7  1  0  0  0  0
 19 33  1  0  0  0  0
 19 34  1  0  0  0  0
 20 13  1  0  0  0  0
 21 10  2  0  0  0  0
 21 35  1  0  0  0  0
 22 10  1  0  0  0  0
 22 36  1  0  0  0  0
 23 20  1  0  0  0  0
 23 37  1  0  0  0  0
 23 38  1  0  0  0  0
 24 23  1  0  0  0  0
 24 39  1  0  0  0  0
 24 40  1  0  0  0  0
 24 41  1  0  0  0  0
 25 22  2  0  0  0  0
 25 42  1  0  0  0  0
 26 21  1  0  0  0  0
 26 27  2  0  0  0  0
 26 43  1  0  0  0  0
 27 25  1  0  0  0  0
 27 44  1  0  0  0  0
M  END
>  <Mol_ID>
8071

>  <Formula>
C19H17N3O4S

>  <MolWeight>
383.42098

>  <Cat>
P2774

>  <Name>
WAY-357769

>  <Synonyms>
N/A

>  <Target>
KvI.5 ion channel

>  <Form>
free base

>  <CAS>
610281-88-4

>  <URL>
N/A

$$$$
