WAY-620838
 OpenBabel08302521443D

 45 48  0  0  0  0  0  0  0  0999 V2000
   -3.0594    0.3875   -0.9328 N   0  0  0  0  0  0  0  0  0  0  0  0
   -3.8056    0.3114    0.1973 C   0  0  0  0  0  0  0  0  0  0  0  0
   -1.7304    0.4505   -0.5836 C   0  0  0  0  0  0  0  0  0  0  0  0
   -1.5674    0.0050    0.8929 C   0  0  3  0  0  0  0  0  0  0  0  0
   -2.9587    0.2048    1.2835 N   0  0  0  0  0  0  0  0  0  0  0  0
   -3.5939    0.9411   -2.1651 C   0  0  0  0  0  0  0  0  0  0  0  0
   -4.3474   -0.0096   -3.1358 C   0  0  0  0  0  0  0  0  0  0  0  0
   -0.5767    0.8895    1.6612 C   0  0  0  0  0  0  0  0  0  0  0  0
    0.8451    0.5899    1.2417 C   0  0  0  0  0  0  0  0  0  0  0  0
   -5.0179    0.3961    0.2970 O   0  0  0  0  0  0  0  0  0  0  0  0
   -1.2424   -1.4739    1.0847 C   0  0  0  0  0  0  0  0  0  0  0  0
   -5.0695    0.5550   -4.1858 N   0  0  0  0  0  0  0  0  0  0  0  0
   -0.8392    0.8422   -1.3257 O   0  0  0  0  0  0  0  0  0  0  0  0
    1.2114   -0.7195    0.8910 C   0  0  0  0  0  0  0  0  0  0  0  0
   -4.3574   -1.2316   -2.9816 O   0  0  0  0  0  0  0  0  0  0  0  0
    0.2326   -1.8560    0.9609 C   0  0  0  0  0  0  0  0  0  0  0  0
   -5.1888    1.9330   -4.4290 C   0  0  0  0  0  0  0  0  0  0  0  0
   -5.4686    4.6632   -4.1031 C   0  0  0  0  0  0  0  0  0  0  0  0
   -5.6105    5.9471   -3.7511 F   0  0  0  0  0  0  0  0  0  0  0  0
   -4.0600    2.7569   -4.4219 C   0  0  0  0  0  0  0  0  0  0  0  0
   -6.4581    2.5032   -4.5359 C   0  0  0  0  0  0  0  0  0  0  0  0
   -4.1965    4.1227   -4.2077 C   0  0  0  0  0  0  0  0  0  0  0  0
   -6.5965    3.8811   -4.3386 C   0  0  0  0  0  0  0  0  0  0  0  0
    1.7948    1.6165    1.1445 C   0  0  0  0  0  0  0  0  0  0  0  0
    2.5137   -0.9781    0.4356 C   0  0  0  0  0  0  0  0  0  0  0  0
    3.0737    1.3542    0.6472 C   0  0  0  0  0  0  0  0  0  0  0  0
    3.4321    0.0582    0.2889 C   0  0  0  0  0  0  0  0  0  0  0  0
   -3.3382    0.0524    2.2066 H   0  0  0  0  0  0  0  0  0  0  0  0
   -4.2793    1.7418   -1.8814 H   0  0  0  0  0  0  0  0  0  0  0  0
   -2.7460    1.3553   -2.7147 H   0  0  0  0  0  0  0  0  0  0  0  0
   -0.8001    1.9521    1.4997 H   0  0  0  0  0  0  0  0  0  0  0  0
   -0.6627    0.7101    2.7422 H   0  0  0  0  0  0  0  0  0  0  0  0
   -1.8369   -2.1028    0.4107 H   0  0  0  0  0  0  0  0  0  0  0  0
   -1.5607   -1.7625    2.0985 H   0  0  0  0  0  0  0  0  0  0  0  0
   -5.7959   -0.0690   -4.5184 H   0  0  0  0  0  0  0  0  0  0  0  0
    0.3489   -2.4751    0.0575 H   0  0  0  0  0  0  0  0  0  0  0  0
    0.5078   -2.4959    1.8095 H   0  0  0  0  0  0  0  0  0  0  0  0
   -3.0642    2.3341   -4.5257 H   0  0  0  0  0  0  0  0  0  0  0  0
   -7.3500    1.8941   -4.6538 H   0  0  0  0  0  0  0  0  0  0  0  0
   -3.3205    4.7487   -4.0669 H   0  0  0  0  0  0  0  0  0  0  0  0
   -7.5790    4.3422   -4.3014 H   0  0  0  0  0  0  0  0  0  0  0  0
    1.5341    2.6378    1.4109 H   0  0  0  0  0  0  0  0  0  0  0  0
    2.8068   -1.9887    0.1577 H   0  0  0  0  0  0  0  0  0  0  0  0
    3.7854    2.1655    0.5195 H   0  0  0  0  0  0  0  0  0  0  0  0
    4.4190   -0.1447   -0.1185 H   0  0  0  0  0  0  0  0  0  0  0  0
  2  1  1  0  0  0  0
  3  1  1  0  0  0  0
  4  3  1  0  0  0  0
  5  2  1  0  0  0  0
  5  4  1  0  0  0  0
  5 28  1  0  0  0  0
  6  1  1  0  0  0  0
  6 29  1  0  0  0  0
  6 30  1  0  0  0  0
  7  6  1  0  0  0  0
  8  4  1  0  0  0  0
  8 31  1  0  0  0  0
  8 32  1  0  0  0  0
  9  8  1  0  0  0  0
  9 14  2  0  0  0  0
 10  2  2  0  0  0  0
 11  4  1  0  0  0  0
 11 33  1  0  0  0  0
 11 34  1  0  0  0  0
 12  7  1  0  0  0  0
 12 35  1  0  0  0  0
 13  3  2  0  0  0  0
 14 16  1  0  0  0  0
 15  7  2  0  0  0  0
 16 11  1  0  0  0  0
 16 36  1  0  0  0  0
 16 37  1  0  0  0  0
 17 12  1  0  0  0  0
 18 23  2  0  0  0  0
 18 22  1  0  0  0  0
 19 18  1  0  0  0  0
 20 17  1  0  0  0  0
 20 38  1  0  0  0  0
 21 17  2  0  0  0  0
 21 39  1  0  0  0  0
 22 20  2  0  0  0  0
 22 40  1  0  0  0  0
 23 21  1  0  0  0  0
 23 41  1  0  0  0  0
 24  9  1  0  0  0  0
 24 42  1  0  0  0  0
 25 14  1  0  0  0  0
 25 43  1  0  0  0  0
 26 24  2  0  0  0  0
 26 44  1  0  0  0  0
 27 25  2  0  0  0  0
 27 26  1  0  0  0  0
 27 45  1  0  0  0  0
M  END
>  <Mol_ID>
9036

>  <Formula>
C20H18FN3O3

>  <MolWeight>
367.3736232

>  <Cat>
P2956

>  <Name>
WAY-620838

>  <Synonyms>
N/A

>  <Target>
Mcl-1

>  <Form>
free base

>  <CAS>
731777-60-9

>  <URL>
N/A

$$$$
