WAY-637483
 OpenBabel08302521423D

 36 37  0  0  0  0  0  0  0  0999 V2000
    1.0628   -0.0025    0.0988 S   0  0  0  0  0  0  0  0  0  0  0  0
    0.5288   -1.2593   -0.9007 N   0  0  0  0  0  0  0  0  0  0  0  0
    0.9831   -1.2259   -2.3293 C   0  0  3  0  0  0  0  0  0  0  0  0
    2.4883   -1.3864   -2.4423 C   0  0  0  0  0  0  0  0  0  0  0  0
   -1.8489   -1.3136   -2.5554 N   0  0  0  0  0  0  0  0  0  0  0  0
    0.3452   -2.3937   -3.1003 C   0  0  0  0  0  0  0  0  0  0  0  0
   -0.1337    1.2707   -0.2214 C   0  0  0  0  0  0  0  0  0  0  0  0
   -1.1432   -2.3025   -3.2071 C   0  0  0  0  0  0  0  0  0  0  0  0
    2.3488    0.4665   -0.3740 O   0  0  0  0  0  0  0  0  0  0  0  0
    0.8602   -0.4202    1.4679 O   0  0  0  0  0  0  0  0  0  0  0  0
   -3.2562   -2.6070   -3.6740 N   0  0  0  0  0  0  0  0  0  0  0  0
   -3.1077   -1.5100   -2.8742 C   0  0  0  0  0  0  0  0  0  0  0  0
   -2.0101   -3.1284   -3.8915 C   0  0  0  0  0  0  0  0  0  0  0  0
    3.1940   -2.1825   -1.8431 O   0  0  0  0  0  0  0  0  0  0  0  0
   -1.4533    1.0784    0.1971 C   0  0  0  0  0  0  0  0  0  0  0  0
    0.2522    2.4593   -0.8433 C   0  0  0  0  0  0  0  0  0  0  0  0
    3.0350   -0.5461   -3.3480 O   0  0  0  0  0  0  0  0  0  0  0  0
   -0.7025    3.4502   -1.0799 C   0  0  0  0  0  0  0  0  0  0  0  0
   -2.4031    2.0692   -0.0494 C   0  0  0  0  0  0  0  0  0  0  0  0
   -2.0375    3.2567   -0.6982 C   0  0  0  0  0  0  0  0  0  0  0  0
   -3.0773    4.3011   -0.9792 C   0  0  0  0  0  0  0  0  0  0  0  0
   -0.4989   -1.3050   -0.8973 H   0  0  0  0  0  0  0  0  0  0  0  0
    0.6761   -0.2710   -2.7730 H   0  0  0  0  0  0  0  0  0  0  0  0
    0.7611   -2.4345   -4.1159 H   0  0  0  0  0  0  0  0  0  0  0  0
    0.6008   -3.3475   -2.6190 H   0  0  0  0  0  0  0  0  0  0  0  0
   -4.1295   -2.9630   -4.0379 H   0  0  0  0  0  0  0  0  0  0  0  0
   -3.9458   -0.9018   -2.5602 H   0  0  0  0  0  0  0  0  0  0  0  0
   -1.8544   -4.0118   -4.4952 H   0  0  0  0  0  0  0  0  0  0  0  0
   -1.7446    0.1667    0.7137 H   0  0  0  0  0  0  0  0  0  0  0  0
    1.2854    2.6263   -1.1388 H   0  0  0  0  0  0  0  0  0  0  0  0
    3.9982   -0.6668   -3.2054 H   0  0  0  0  0  0  0  0  0  0  0  0
   -0.3968    4.3751   -1.5645 H   0  0  0  0  0  0  0  0  0  0  0  0
   -3.4317    1.9125    0.2685 H   0  0  0  0  0  0  0  0  0  0  0  0
   -3.8586    3.8850   -1.6237 H   0  0  0  0  0  0  0  0  0  0  0  0
   -3.5282    4.6493   -0.0445 H   0  0  0  0  0  0  0  0  0  0  0  0
   -2.6480    5.1683   -1.4913 H   0  0  0  0  0  0  0  0  0  0  0  0
  2  1  1  0  0  0  0
  2 22  1  0  0  0  0
  3  2  1  0  0  0  0
  3 23  1  0  0  0  0
  4  3  1  0  0  0  0
  5  8  1  0  0  0  0
  6  3  1  0  0  0  0
  6 24  1  0  0  0  0
  6 25  1  0  0  0  0
  7  1  1  0  0  0  0
  8  6  1  0  0  0  0
  9  1  2  0  0  0  0
 10  1  2  0  0  0  0
 11 13  1  0  0  0  0
 11 26  1  0  0  0  0
 12  5  2  0  0  0  0
 12 11  1  0  0  0  0
 12 27  1  0  0  0  0
 13  8  2  0  0  0  0
 13 28  1  0  0  0  0
 14  4  2  0  0  0  0
 15  7  2  0  0  0  0
 15 29  1  0  0  0  0
 16  7  1  0  0  0  0
 16 30  1  0  0  0  0
 17  4  1  0  0  0  0
 17 31  1  0  0  0  0
 18 16  2  0  0  0  0
 18 32  1  0  0  0  0
 19 15  1  0  0  0  0
 19 33  1  0  0  0  0
 20 18  1  0  0  0  0
 20 19  2  0  0  0  0
 21 20  1  0  0  0  0
 21 34  1  0  0  0  0
 21 35  1  0  0  0  0
 21 36  1  0  0  0  0
M  END
>  <Mol_ID>
8495

>  <Formula>
C13H15N3O4S

>  <MolWeight>
309.3409

>  <Cat>
P3015

>  <Name>
WAY-637483

>  <Synonyms>
N/A

>  <Target>
Anti-infection

>  <Form>
free base

>  <CAS>
21013-92-3

>  <URL>
N/A

$$$$
