WAY-658430-A
 OpenBabel08302521433D

 34 36  0  0  0  0  0  0  0  0999 V2000
   -1.1444    0.1243    0.3062 N   0  0  0  0  0  0  0  0  0  0  0  0
    1.4027    1.2736    3.9608 C   0  0  0  0  0  0  0  0  0  0  0  0
    1.7386    0.0964    4.6102 C   0  0  0  0  0  0  0  0  0  0  0  0
    2.6916    0.2431    5.5808 O   0  0  0  0  0  0  0  0  0  0  0  0
    0.4046    1.2946    2.9917 C   0  0  0  0  0  0  0  0  0  0  0  0
   -2.2145   -2.2711   -1.1860 N   0  0  0  0  0  0  0  0  0  0  0  0
   -0.2656    0.0954    2.6895 C   0  0  0  0  0  0  0  0  0  0  0  0
   -1.4551    0.0701    1.7438 C   0  0  0  0  0  0  0  0  0  0  0  0
    1.1219   -1.0979    4.3123 C   0  0  0  0  0  0  0  0  0  0  0  0
    0.1168   -1.0995    3.3433 C   0  0  0  0  0  0  0  0  0  0  0  0
    3.1927    1.5830    5.3767 C   0  0  0  0  0  0  0  0  0  0  0  0
   -2.4040    0.1350   -0.4796 C   0  0  0  0  0  0  0  0  0  0  0  0
   -0.2901   -0.9832   -0.1717 C   0  0  0  0  0  0  0  0  0  0  0  0
    2.1855    2.3860    4.5471 C   0  0  0  0  0  0  0  0  0  0  0  0
   -3.1010   -1.2402   -0.6268 C   0  0  0  0  0  0  0  0  0  0  0  0
   -0.9900   -2.3491   -0.3713 C   0  0  0  0  0  0  0  0  0  0  0  0
    0.1241    2.2264    2.5094 H   0  0  0  0  0  0  0  0  0  0  0  0
   -1.9468   -1.9777   -2.1272 H   0  0  0  0  0  0  0  0  0  0  0  0
   -2.0621    0.9510    1.9983 H   0  0  0  0  0  0  0  0  0  0  0  0
   -2.0828   -0.7952    1.9889 H   0  0  0  0  0  0  0  0  0  0  0  0
    1.3910   -2.0071    4.8355 H   0  0  0  0  0  0  0  0  0  0  0  0
   -0.3920   -2.0302    3.1134 H   0  0  0  0  0  0  0  0  0  0  0  0
    3.3748    2.0507    6.3506 H   0  0  0  0  0  0  0  0  0  0  0  0
    4.1568    1.5002    4.8602 H   0  0  0  0  0  0  0  0  0  0  0  0
   -3.1146    0.8564   -0.0572 H   0  0  0  0  0  0  0  0  0  0  0  0
   -2.1688    0.5102   -1.4843 H   0  0  0  0  0  0  0  0  0  0  0  0
    0.1157   -0.6730   -1.1442 H   0  0  0  0  0  0  0  0  0  0  0  0
    0.5894   -1.1159    0.4672 H   0  0  0  0  0  0  0  0  0  0  0  0
    2.6882    3.0142    3.8076 H   0  0  0  0  0  0  0  0  0  0  0  0
    1.5536    3.0036    5.1938 H   0  0  0  0  0  0  0  0  0  0  0  0
   -3.4904   -1.5838    0.3390 H   0  0  0  0  0  0  0  0  0  0  0  0
   -3.9697   -1.1354   -1.2868 H   0  0  0  0  0  0  0  0  0  0  0  0
   -1.2322   -2.7973    0.5990 H   0  0  0  0  0  0  0  0  0  0  0  0
   -0.2937   -3.0359   -0.8673 H   0  0  0  0  0  0  0  0  0  0  0  0
  2  5  2  0  0  0  0
  3  9  2  0  0  0  0
  3  2  1  0  0  0  0
  4  3  1  0  0  0  0
  5  7  1  0  0  0  0
  5 17  1  0  0  0  0
  6 16  1  0  0  0  0
  6 15  1  0  0  0  0
  6 18  1  0  0  0  0
  7  8  1  0  0  0  0
  8  1  1  0  0  0  0
  8 19  1  0  0  0  0
  8 20  1  0  0  0  0
  9 10  1  0  0  0  0
  9 21  1  0  0  0  0
 10  7  2  0  0  0  0
 10 22  1  0  0  0  0
 11 14  1  0  0  0  0
 11  4  1  0  0  0  0
 11 23  1  0  0  0  0
 11 24  1  0  0  0  0
 12  1  1  0  0  0  0
 12 25  1  0  0  0  0
 12 26  1  0  0  0  0
 13  1  1  0  0  0  0
 13 27  1  0  0  0  0
 13 28  1  0  0  0  0
 14  2  1  0  0  0  0
 14 29  1  0  0  0  0
 14 30  1  0  0  0  0
 15 12  1  0  0  0  0
 15 31  1  0  0  0  0
 15 32  1  0  0  0  0
 16 13  1  0  0  0  0
 16 33  1  0  0  0  0
 16 34  1  0  0  0  0
M  END
>  <Mol_ID>
8822

>  <Formula>
C13H18N2O

>  <MolWeight>
218.29482

>  <Cat>
P3168

>  <Name>
WAY-658430-A

>  <Synonyms>
N/A

>  <Target>
Others

>  <Form>
free base

>  <CAS>
55745-69-2

>  <URL>
N/A

$$$$
