WAY-607877
 OpenBabel08302521443D

 50 53  0  0  0  0  0  0  0  0999 V2000
   -1.0435   -0.2468    0.5177 C   0  0  0  0  0  0  0  0  0  0  0  0
   -0.3347    0.9465    0.5791 N   0  0  0  0  0  0  0  0  0  0  0  0
    5.4324    1.7920   -2.2691 S   0  0  0  0  0  0  0  0  0  0  0  0
    0.9286    0.6087    0.0665 C   0  0  0  0  0  0  0  0  0  0  0  0
    0.8919   -0.6421   -0.3645 N   0  0  0  0  0  0  0  0  0  0  0  0
   -0.3263   -1.1779   -0.0653 N   0  0  0  0  0  0  0  0  0  0  0  0
   -2.7121   -0.4702    0.9289 S   0  0  0  0  0  0  0  0  0  0  0  0
    5.6983    0.1031   -2.1435 N   0  0  0  0  0  0  0  0  0  0  0  0
    4.2523    2.0592   -0.9716 C   0  0  0  0  0  0  0  0  0  0  0  0
    2.1591    1.4184    0.0766 C   0  0  0  0  0  0  0  0  0  0  0  0
   -2.6641   -2.1808    1.4919 C   0  0  0  0  0  0  0  0  0  0  0  0
    3.0539    1.3314   -0.9960 C   0  0  0  0  0  0  0  0  0  0  0  0
    4.7557    2.0720   -3.5188 O   0  0  0  0  0  0  0  0  0  0  0  0
    6.6716    2.4529   -1.9187 O   0  0  0  0  0  0  0  0  0  0  0  0
   -0.7415    2.2213    1.0801 C   0  0  0  0  0  0  0  0  0  0  0  0
   -1.8340   -2.3045    2.5609 F   0  0  0  0  0  0  0  0  0  0  0  0
   -3.8987   -2.5401    1.9388 F   0  0  0  0  0  0  0  0  0  0  0  0
    6.4200   -0.3126   -0.9052 C   0  0  0  0  0  0  0  0  0  0  0  0
    6.2923   -0.4899   -3.3703 C   0  0  0  0  0  0  0  0  0  0  0  0
    4.5573    2.9179    0.0843 C   0  0  0  0  0  0  0  0  0  0  0  0
    2.5085    2.2366    1.1655 C   0  0  0  0  0  0  0  0  0  0  0  0
    3.6744    3.0090    1.1541 C   0  0  0  0  0  0  0  0  0  0  0  0
   -1.5416    2.3216    2.2248 C   0  0  0  0  0  0  0  0  0  0  0  0
   -0.2497    3.3962    0.4880 C   0  0  0  0  0  0  0  0  0  0  0  0
    6.2800   -2.0127   -3.2671 C   0  0  0  0  0  0  0  0  0  0  0  0
    6.4002   -1.8321   -0.7770 C   0  0  0  0  0  0  0  0  0  0  0  0
   -0.4755    4.6378    1.0855 C   0  0  0  0  0  0  0  0  0  0  0  0
   -1.7965    3.5720    2.7957 C   0  0  0  0  0  0  0  0  0  0  0  0
    7.0044   -2.4881   -2.0128 C   0  0  0  0  0  0  0  0  0  0  0  0
   -1.2436    4.7246    2.2424 C   0  0  0  0  0  0  0  0  0  0  0  0
   -2.3636   -2.8846    0.7111 H   0  0  0  0  0  0  0  0  0  0  0  0
    2.8390    0.6771   -1.8414 H   0  0  0  0  0  0  0  0  0  0  0  0
    5.9337    0.1092   -0.0203 H   0  0  0  0  0  0  0  0  0  0  0  0
    7.4543    0.0486   -0.9334 H   0  0  0  0  0  0  0  0  0  0  0  0
    7.3141   -0.1204   -3.5100 H   0  0  0  0  0  0  0  0  0  0  0  0
    5.6965   -0.2067   -4.2446 H   0  0  0  0  0  0  0  0  0  0  0  0
    5.4821    3.4901    0.0937 H   0  0  0  0  0  0  0  0  0  0  0  0
    1.8689    2.2967    2.0441 H   0  0  0  0  0  0  0  0  0  0  0  0
    3.8970    3.6642    1.9932 H   0  0  0  0  0  0  0  0  0  0  0  0
   -1.9287    1.4505    2.7448 H   0  0  0  0  0  0  0  0  0  0  0  0
    0.3361    3.3733   -0.4293 H   0  0  0  0  0  0  0  0  0  0  0  0
    6.7501   -2.4476   -4.1556 H   0  0  0  0  0  0  0  0  0  0  0  0
    5.2428   -2.3708   -3.2414 H   0  0  0  0  0  0  0  0  0  0  0  0
    5.3671   -2.1785   -0.6475 H   0  0  0  0  0  0  0  0  0  0  0  0
    6.9578   -2.1363    0.1157 H   0  0  0  0  0  0  0  0  0  0  0  0
   -0.0363    5.5344    0.6543 H   0  0  0  0  0  0  0  0  0  0  0  0
   -2.4050    3.6418    3.6947 H   0  0  0  0  0  0  0  0  0  0  0  0
    6.9366   -3.5780   -1.9298 H   0  0  0  0  0  0  0  0  0  0  0  0
    8.0690   -2.2331   -2.0827 H   0  0  0  0  0  0  0  0  0  0  0  0
   -1.4091    5.6896    2.7149 H   0  0  0  0  0  0  0  0  0  0  0  0
  2  1  1  0  0  0  0
  3  9  1  0  0  0  0
  4  2  1  0  0  0  0
  4  5  2  0  0  0  0
  5  6  1  0  0  0  0
  6  1  2  0  0  0  0
  7  1  1  0  0  0  0
  8  3  1  0  0  0  0
  9 12  2  0  0  0  0
 10  4  1  0  0  0  0
 11  7  1  0  0  0  0
 11 31  1  0  0  0  0
 12 10  1  0  0  0  0
 12 32  1  0  0  0  0
 13  3  2  0  0  0  0
 14  3  2  0  0  0  0
 15  2  1  0  0  0  0
 16 11  1  0  0  0  0
 17 11  1  0  0  0  0
 18  8  1  0  0  0  0
 18 33  1  0  0  0  0
 18 34  1  0  0  0  0
 19  8  1  0  0  0  0
 19 35  1  0  0  0  0
 19 36  1  0  0  0  0
 20 22  2  0  0  0  0
 20  9  1  0  0  0  0
 20 37  1  0  0  0  0
 21 10  2  0  0  0  0
 21 38  1  0  0  0  0
 22 21  1  0  0  0  0
 22 39  1  0  0  0  0
 23 15  2  0  0  0  0
 23 40  1  0  0  0  0
 24 15  1  0  0  0  0
 24 41  1  0  0  0  0
 25 19  1  0  0  0  0
 25 42  1  0  0  0  0
 25 43  1  0  0  0  0
 26 18  1  0  0  0  0
 26 44  1  0  0  0  0
 26 45  1  0  0  0  0
 27 24  2  0  0  0  0
 27 46  1  0  0  0  0
 28 23  1  0  0  0  0
 28 47  1  0  0  0  0
 29 25  1  0  0  0  0
 29 26  1  0  0  0  0
 29 48  1  0  0  0  0
 29 49  1  0  0  0  0
 30 27  1  0  0  0  0
 30 28  2  0  0  0  0
 30 50  1  0  0  0  0
M  END
>  <Mol_ID>
9021

>  <Formula>
C20H20F2N4O2S2

>  <MolWeight>
450.5252064

>  <Cat>
P2901

>  <Name>
WAY-607877

>  <Synonyms>
N/A

>  <Target>
Mcl-1

>  <Form>
free base

>  <CAS>
748137-22-6

>  <URL>
N/A

$$$$
