WAY-326221
 OpenBabel08302521433D

 56 59  0  0  0  0  0  0  0  0999 V2000
    1.4145    0.9305   -0.0525 C   0  0  0  0  0  0  0  0  0  0  0  0
    3.5906   -0.1969    0.1903 N   0  0  0  0  0  0  0  0  0  0  0  0
    2.9003    1.0001    0.0561 C   0  0  0  0  0  0  0  0  0  0  0  0
    0.8731   -0.2934   -0.1157 C   0  0  0  0  0  0  0  0  0  0  0  0
    2.9099   -1.4027    0.0663 C   0  0  0  0  0  0  0  0  0  0  0  0
    1.6145   -1.4535   -0.1071 N   0  0  0  0  0  0  0  0  0  0  0  0
    0.6417    2.2541    0.0256 C   0  0  3  0  0  0  0  0  0  0  0  0
   -0.6167   -0.4180   -0.1015 C   0  0  0  0  0  0  0  0  0  0  0  0
   -1.4462    0.7134   -0.0657 C   0  0  0  0  0  0  0  0  0  0  0  0
   -0.8946    2.1005   -0.1464 C   0  0  0  0  0  0  0  0  0  0  0  0
    5.0277   -0.0722    0.2262 C   0  0  0  0  0  0  0  0  0  0  0  0
    3.4530    2.1002    0.0053 O   0  0  0  0  0  0  0  0  0  0  0  0
    3.5945   -2.5877    0.1984 N   0  0  0  0  0  0  0  0  0  0  0  0
    0.9146    2.9220    1.4133 C   0  0  0  0  0  0  0  0  0  0  0  0
    1.0645    3.2010   -1.1307 C   0  0  0  0  0  0  0  0  0  0  0  0
   -1.2493   -1.6726   -0.0947 C   0  0  0  0  0  0  0  0  0  0  0  0
    3.0028   -4.8844    0.8943 C   0  0  0  0  0  0  0  0  0  0  0  0
   -2.8505    0.5829   -0.0227 C   0  0  0  0  0  0  0  0  0  0  0  0
    0.6830   -4.4750    1.4292 O   0  0  0  0  0  0  0  0  0  0  0  0
    3.1065   -3.8780   -0.2485 C   0  0  0  0  0  0  0  0  0  0  0  0
    5.6276    0.8200    1.1339 C   0  0  0  0  0  0  0  0  0  0  0  0
    5.8374   -0.6520   -0.7648 C   0  0  0  0  0  0  0  0  0  0  0  0
    1.9927   -4.5157    1.9719 C   0  0  0  0  0  0  0  0  0  0  0  0
    0.5294    2.0547    2.6159 C   0  0  0  0  0  0  0  0  0  0  0  0
   -2.6417   -1.8002   -0.0274 C   0  0  0  0  0  0  0  0  0  0  0  0
   -3.4451   -0.6692    0.0073 C   0  0  0  0  0  0  0  0  0  0  0  0
    6.9726    1.1756    1.0276 C   0  0  0  0  0  0  0  0  0  0  0  0
    7.1900   -0.2850   -0.8726 C   0  0  0  0  0  0  0  0  0  0  0  0
    7.7488    0.6352    0.0076 C   0  0  0  0  0  0  0  0  0  0  0  0
   -1.4152    2.7281    0.5899 H   0  0  0  0  0  0  0  0  0  0  0  0
   -1.2103    2.4925   -1.1244 H   0  0  0  0  0  0  0  0  0  0  0  0
    4.5049   -2.5683    0.6453 H   0  0  0  0  0  0  0  0  0  0  0  0
    1.9697    3.1964    1.5191 H   0  0  0  0  0  0  0  0  0  0  0  0
    0.3630    3.8709    1.4767 H   0  0  0  0  0  0  0  0  0  0  0  0
    0.8589    2.7343   -2.1040 H   0  0  0  0  0  0  0  0  0  0  0  0
    0.5021    4.1407   -1.0895 H   0  0  0  0  0  0  0  0  0  0  0  0
    2.1195    3.4799   -1.1315 H   0  0  0  0  0  0  0  0  0  0  0  0
   -0.6628   -2.5825   -0.1509 H   0  0  0  0  0  0  0  0  0  0  0  0
    2.7033   -5.8456    0.4564 H   0  0  0  0  0  0  0  0  0  0  0  0
    3.9855   -5.0267    1.3567 H   0  0  0  0  0  0  0  0  0  0  0  0
   -3.4792    1.4703   -0.0192 H   0  0  0  0  0  0  0  0  0  0  0  0
    0.6314   -3.6339    0.9395 H   0  0  0  0  0  0  0  0  0  0  0  0
    2.1503   -3.7961   -0.7783 H   0  0  0  0  0  0  0  0  0  0  0  0
    3.8211   -4.2655   -0.9842 H   0  0  0  0  0  0  0  0  0  0  0  0
    5.0244    1.3003    1.9024 H   0  0  0  0  0  0  0  0  0  0  0  0
    5.4114   -1.3018   -1.5211 H   0  0  0  0  0  0  0  0  0  0  0  0
    2.0001   -5.2766    2.7589 H   0  0  0  0  0  0  0  0  0  0  0  0
    2.2163   -3.5517    2.4393 H   0  0  0  0  0  0  0  0  0  0  0  0
   -0.5408    1.8294    2.6249 H   0  0  0  0  0  0  0  0  0  0  0  0
    1.0773    1.1070    2.6286 H   0  0  0  0  0  0  0  0  0  0  0  0
    0.7657    2.5777    3.5467 H   0  0  0  0  0  0  0  0  0  0  0  0
   -3.0954   -2.7880   -0.0051 H   0  0  0  0  0  0  0  0  0  0  0  0
   -4.5270   -0.7598    0.0470 H   0  0  0  0  0  0  0  0  0  0  0  0
    7.3948    1.9117    1.7099 H   0  0  0  0  0  0  0  0  0  0  0  0
    7.7946   -0.6765   -1.6887 H   0  0  0  0  0  0  0  0  0  0  0  0
    8.7810    0.9596   -0.1126 H   0  0  0  0  0  0  0  0  0  0  0  0
  2  3  1  0  0  0  0
  2  5  1  0  0  0  0
  3  1  1  0  0  0  0
  4  1  2  0  0  0  0
  5  6  2  0  0  0  0
  6  4  1  0  0  0  0
  7  1  1  0  0  0  0
  8  4  1  0  0  0  0
  8  9  2  0  0  0  0
  9 10  1  0  0  0  0
 10  7  1  0  0  0  0
 10 30  1  0  0  0  0
 10 31  1  0  0  0  0
 11  2  1  0  0  0  0
 12  3  2  0  0  0  0
 13  5  1  0  0  0  0
 13 32  1  0  0  0  0
 14  7  1  0  0  0  0
 14 33  1  0  0  0  0
 14 34  1  0  0  0  0
 15  7  1  0  0  0  0
 15 35  1  0  0  0  0
 15 36  1  0  0  0  0
 15 37  1  0  0  0  0
 16  8  1  0  0  0  0
 16 38  1  0  0  0  0
 17 20  1  0  0  0  0
 17 39  1  0  0  0  0
 17 40  1  0  0  0  0
 18  9  1  0  0  0  0
 18 41  1  0  0  0  0
 19 23  1  0  0  0  0
 19 42  1  0  0  0  0
 20 13  1  0  0  0  0
 20 43  1  0  0  0  0
 20 44  1  0  0  0  0
 21 11  2  0  0  0  0
 21 45  1  0  0  0  0
 22 11  1  0  0  0  0
 22 46  1  0  0  0  0
 23 17  1  0  0  0  0
 23 47  1  0  0  0  0
 23 48  1  0  0  0  0
 24 14  1  0  0  0  0
 24 49  1  0  0  0  0
 24 50  1  0  0  0  0
 24 51  1  0  0  0  0
 25 16  2  0  0  0  0
 25 26  1  0  0  0  0
 25 52  1  0  0  0  0
 26 18  2  0  0  0  0
 26 53  1  0  0  0  0
 27 21  1  0  0  0  0
 27 29  2  0  0  0  0
 27 54  1  0  0  0  0
 28 22  2  0  0  0  0
 28 55  1  0  0  0  0
 29 28  1  0  0  0  0
 29 56  1  0  0  0  0
M  END
>  <Mol_ID>
8902

>  <Formula>
C24H27N3O2

>  <MolWeight>
389.49008

>  <Cat>
P2460

>  <Name>
WAY-326221

>  <Synonyms>
N/A

>  <Target>
5-HT

>  <Form>
free base

>  <CAS>
869867-40-3

>  <URL>
N/A

$$$$
