WAY-621998
 OpenBabel08302521443D

 36 38  0  0  0  0  0  0  0  0999 V2000
    1.2621   -1.2825    0.0840 C   0  0  0  0  0  0  0  0  0  0  0  0
    2.4384   -0.7272   -0.0240 N   0  0  0  0  0  0  0  0  0  0  0  0
    2.5181    0.6441   -0.1356 N   0  0  0  0  0  0  0  0  0  0  0  0
    1.4284    1.4988   -0.2558 C   0  0  0  0  0  0  0  0  0  0  0  0
   -0.0015   -0.4837    0.1287 C   0  0  0  0  0  0  0  0  0  0  0  0
    0.0963    0.8769   -0.1593 C   0  0  0  0  0  0  0  0  0  0  0  0
    1.2288   -2.8277    0.1252 C   0  0  0  0  0  0  0  0  0  0  0  0
    2.4268   -3.5156   -0.0530 N   0  0  0  0  0  0  0  0  0  0  0  0
    1.5175    2.7154   -0.3924 O   0  0  0  0  0  0  0  0  0  0  0  0
    4.8801   -5.2391   -0.0117 N   0  0  0  0  0  0  0  0  0  0  0  0
    0.1778   -3.4215    0.3325 O   0  0  0  0  0  0  0  0  0  0  0  0
    2.4184   -4.9233    0.3053 C   0  0  0  0  0  0  0  0  0  0  0  0
    3.6425   -5.7867    0.0571 C   0  0  0  0  0  0  0  0  0  0  0  0
    3.8413    1.2346   -0.1310 C   0  0  0  0  0  0  0  0  0  0  0  0
   -1.2726   -0.9950    0.4288 C   0  0  0  0  0  0  0  0  0  0  0  0
   -1.0444    1.6816   -0.2792 C   0  0  0  0  0  0  0  0  0  0  0  0
    5.9292   -6.1032   -0.0716 C   0  0  0  0  0  0  0  0  0  0  0  0
    3.4486   -7.1778    0.0726 C   0  0  0  0  0  0  0  0  0  0  0  0
   -2.4163   -0.1913    0.3254 C   0  0  0  0  0  0  0  0  0  0  0  0
   -2.3087    1.1402   -0.0624 C   0  0  0  0  0  0  0  0  0  0  0  0
    5.8160   -7.4867   -0.0506 C   0  0  0  0  0  0  0  0  0  0  0  0
    4.5447   -8.0340    0.0184 C   0  0  0  0  0  0  0  0  0  0  0  0
    3.3014   -2.9996   -0.0895 H   0  0  0  0  0  0  0  0  0  0  0  0
    2.2086   -4.9672    1.3808 H   0  0  0  0  0  0  0  0  0  0  0  0
    1.5688   -5.3814   -0.2167 H   0  0  0  0  0  0  0  0  0  0  0  0
    3.9456    1.8952   -0.9965 H   0  0  0  0  0  0  0  0  0  0  0  0
    3.9509    1.8353    0.7797 H   0  0  0  0  0  0  0  0  0  0  0  0
    4.6111    0.4597   -0.1588 H   0  0  0  0  0  0  0  0  0  0  0  0
   -1.4235   -2.0155    0.7633 H   0  0  0  0  0  0  0  0  0  0  0  0
   -0.9520    2.7382   -0.5323 H   0  0  0  0  0  0  0  0  0  0  0  0
    6.9104   -5.6415   -0.1240 H   0  0  0  0  0  0  0  0  0  0  0  0
    2.4486   -7.5964    0.1583 H   0  0  0  0  0  0  0  0  0  0  0  0
   -3.3956   -0.6126    0.5461 H   0  0  0  0  0  0  0  0  0  0  0  0
   -3.1962    1.7551   -0.1727 H   0  0  0  0  0  0  0  0  0  0  0  0
    6.6930   -8.1253   -0.0765 H   0  0  0  0  0  0  0  0  0  0  0  0
    4.4037   -9.1127    0.0495 H   0  0  0  0  0  0  0  0  0  0  0  0
  2  1  2  0  0  0  0
  3  2  1  0  0  0  0
  3  4  1  0  0  0  0
  4  6  1  0  0  0  0
  5  1  1  0  0  0  0
  6  5  2  0  0  0  0
  7  1  1  0  0  0  0
  8  7  1  0  0  0  0
  8 23  1  0  0  0  0
  9  4  2  0  0  0  0
 10 13  2  0  0  0  0
 11  7  2  0  0  0  0
 12  8  1  0  0  0  0
 12 24  1  0  0  0  0
 12 25  1  0  0  0  0
 13 12  1  0  0  0  0
 14  3  1  0  0  0  0
 14 26  1  0  0  0  0
 14 27  1  0  0  0  0
 14 28  1  0  0  0  0
 15  5  1  0  0  0  0
 15 29  1  0  0  0  0
 16  6  1  0  0  0  0
 16 20  2  0  0  0  0
 16 30  1  0  0  0  0
 17 10  1  0  0  0  0
 17 21  2  0  0  0  0
 17 31  1  0  0  0  0
 18 13  1  0  0  0  0
 18 32  1  0  0  0  0
 19 15  2  0  0  0  0
 19 33  1  0  0  0  0
 20 19  1  0  0  0  0
 20 34  1  0  0  0  0
 21 22  1  0  0  0  0
 21 35  1  0  0  0  0
 22 18  2  0  0  0  0
 22 36  1  0  0  0  0
M  END
>  <Mol_ID>
9064

>  <Formula>
C16H14N4O2

>  <MolWeight>
294.30796

>  <Cat>
P2985

>  <Name>
WAY-621998

>  <Synonyms>
N/A

>  <Target>
Androgen Receptor

>  <Form>
free base

>  <CAS>
743475-40-3

>  <URL>
N/A

$$$$
