WAY-326814
 OpenBabel08302521433D

 54 57  0  0  0  0  0  0  0  0999 V2000
   -1.9499   -1.4556    0.0492 C   0  0  0  0  0  0  0  0  0  0  0  0
    3.3279    3.3172    0.4697 C   0  0  0  0  0  0  0  0  0  0  0  0
   -0.6473   -1.8159    0.0189 N   0  0  0  0  0  0  0  0  0  0  0  0
    4.5283    4.1956    0.3966 C   0  0  0  0  0  0  0  0  0  0  0  0
   -2.9163   -2.4303   -0.0124 N   0  0  0  0  0  0  0  0  0  0  0  0
    0.3100   -0.8689    0.0236 C   0  0  0  0  0  0  0  0  0  0  0  0
    0.0121    0.5033    0.0348 C   0  0  0  0  0  0  0  0  0  0  0  0
    3.4721    1.9884    0.0929 N   0  0  0  0  0  0  0  0  0  0  0  0
   -1.3416    0.8859    0.0406 C   0  0  0  0  0  0  0  0  0  0  0  0
   -2.3135   -0.1148    0.0587 C   0  0  0  0  0  0  0  0  0  0  0  0
   -5.1132   -4.1587   -0.8705 N   0  0  0  0  0  0  0  0  0  0  0  0
    5.5709    3.9985   -0.5140 C   0  0  0  0  0  0  0  0  0  0  0  0
    2.4102    1.0516    0.0445 C   0  0  0  0  0  0  0  0  0  0  0  0
    1.0680    1.4405    0.0328 C   0  0  0  0  0  0  0  0  0  0  0  0
    2.2984    3.8291    0.9044 O   0  0  0  0  0  0  0  0  0  0  0  0
   -2.6005   -3.7204   -0.6197 C   0  0  0  0  0  0  0  0  0  0  0  0
   -4.1891   -2.3562    0.7053 C   0  0  0  0  0  0  0  0  0  0  0  0
    1.6500   -1.2460    0.0044 C   0  0  0  0  0  0  0  0  0  0  0  0
   -5.3369   -2.8397   -0.2176 C   0  0  0  0  0  0  0  0  0  0  0  0
   -3.7839   -4.1229   -1.5361 C   0  0  0  0  0  0  0  0  0  0  0  0
    2.6964   -0.3081    0.0053 C   0  0  0  0  0  0  0  0  0  0  0  0
    4.5425    5.3288    1.2276 C   0  0  0  0  0  0  0  0  0  0  0  0
   -5.2404   -5.2450    0.1125 C   0  0  0  0  0  0  0  0  0  0  0  0
   -1.7847    2.3226    0.0150 C   0  0  0  0  0  0  0  0  0  0  0  0
    6.6092    4.9344   -0.5895 C   0  0  0  0  0  0  0  0  0  0  0  0
   -5.0832   -6.6353   -0.4927 C   0  0  0  0  0  0  0  0  0  0  0  0
    5.5742    6.2584    1.1486 C   0  0  0  0  0  0  0  0  0  0  0  0
    6.6076    6.0622    0.2358 C   0  0  0  0  0  0  0  0  0  0  0  0
    4.4088    1.6233   -0.0176 H   0  0  0  0  0  0  0  0  0  0  0  0
   -3.3589    0.1655    0.0141 H   0  0  0  0  0  0  0  0  0  0  0  0
    5.5730    3.1587   -1.2019 H   0  0  0  0  0  0  0  0  0  0  0  0
    0.8128    2.4943    0.0054 H   0  0  0  0  0  0  0  0  0  0  0  0
   -1.6975   -3.6824   -1.2399 H   0  0  0  0  0  0  0  0  0  0  0  0
   -2.4330   -4.4743    0.1583 H   0  0  0  0  0  0  0  0  0  0  0  0
   -4.1332   -2.9859    1.6018 H   0  0  0  0  0  0  0  0  0  0  0  0
   -4.4279   -1.3490    1.0615 H   0  0  0  0  0  0  0  0  0  0  0  0
    1.8871   -2.3081   -0.0013 H   0  0  0  0  0  0  0  0  0  0  0  0
   -5.4729   -2.0939   -1.0129 H   0  0  0  0  0  0  0  0  0  0  0  0
   -6.2807   -2.8484    0.3411 H   0  0  0  0  0  0  0  0  0  0  0  0
   -3.8480   -3.3858   -2.3491 H   0  0  0  0  0  0  0  0  0  0  0  0
   -3.5664   -5.0708   -2.0368 H   0  0  0  0  0  0  0  0  0  0  0  0
    3.7211   -0.6683    0.0030 H   0  0  0  0  0  0  0  0  0  0  0  0
    3.7256    5.5005    1.9284 H   0  0  0  0  0  0  0  0  0  0  0  0
   -4.5315   -5.1392    0.9407 H   0  0  0  0  0  0  0  0  0  0  0  0
   -6.2454   -5.1968    0.5508 H   0  0  0  0  0  0  0  0  0  0  0  0
   -1.4256    2.8495    0.9046 H   0  0  0  0  0  0  0  0  0  0  0  0
   -1.4127    2.8194   -0.8868 H   0  0  0  0  0  0  0  0  0  0  0  0
   -2.8771    2.4069    0.0034 H   0  0  0  0  0  0  0  0  0  0  0  0
    7.4121    4.8017   -1.3102 H   0  0  0  0  0  0  0  0  0  0  0  0
   -5.7753   -6.7850   -1.3274 H   0  0  0  0  0  0  0  0  0  0  0  0
   -4.0635   -6.8136   -0.8468 H   0  0  0  0  0  0  0  0  0  0  0  0
   -5.2970   -7.3952    0.2656 H   0  0  0  0  0  0  0  0  0  0  0  0
    5.5592    7.1398    1.7842 H   0  0  0  0  0  0  0  0  0  0  0  0
    7.4035    6.7992    0.1575 H   0  0  0  0  0  0  0  0  0  0  0  0
  2  8  1  0  0  0  0
  3  1  2  0  0  0  0
  4  2  1  0  0  0  0
  5  1  1  0  0  0  0
  6  3  1  0  0  0  0
  6  7  2  0  0  0  0
  7  9  1  0  0  0  0
  8 13  1  0  0  0  0
  8 29  1  0  0  0  0
  9 10  2  0  0  0  0
 10  1  1  0  0  0  0
 10 30  1  0  0  0  0
 11 19  1  0  0  0  0
 11 20  1  0  0  0  0
 12  4  2  0  0  0  0
 12 31  1  0  0  0  0
 13 14  2  0  0  0  0
 14  7  1  0  0  0  0
 14 32  1  0  0  0  0
 15  2  2  0  0  0  0
 16  5  1  0  0  0  0
 16 33  1  0  0  0  0
 16 34  1  0  0  0  0
 17  5  1  0  0  0  0
 17 35  1  0  0  0  0
 17 36  1  0  0  0  0
 18  6  1  0  0  0  0
 18 37  1  0  0  0  0
 19 17  1  0  0  0  0
 19 38  1  0  0  0  0
 19 39  1  0  0  0  0
 20 16  1  0  0  0  0
 20 40  1  0  0  0  0
 20 41  1  0  0  0  0
 21 18  2  0  0  0  0
 21 13  1  0  0  0  0
 21 42  1  0  0  0  0
 22  4  1  0  0  0  0
 22 43  1  0  0  0  0
 23 11  1  0  0  0  0
 23 44  1  0  0  0  0
 23 45  1  0  0  0  0
 24  9  1  0  0  0  0
 24 46  1  0  0  0  0
 24 47  1  0  0  0  0
 24 48  1  0  0  0  0
 25 12  1  0  0  0  0
 25 49  1  0  0  0  0
 26 23  1  0  0  0  0
 26 50  1  0  0  0  0
 26 51  1  0  0  0  0
 26 52  1  0  0  0  0
 27 22  2  0  0  0  0
 27 53  1  0  0  0  0
 28 27  1  0  0  0  0
 28 25  2  0  0  0  0
 28 54  1  0  0  0  0
M  END
>  <Mol_ID>
8941

>  <Formula>
C23H25ClN4O

>  <MolWeight>
408.9238

>  <Cat>
P2500

>  <Name>
WAY-326814

>  <Synonyms>
N/A

>  <Target>
Hsp90

>  <Form>
free base

>  <CAS>
442898-56-8

>  <URL>
N/A

$$$$
