WAY-327525
 OpenBabel08302521443D

 43 47  0  0  0  0  0  0  0  0999 V2000
   -1.6780   -1.1762   -0.1171 C   0  0  0  0  0  0  0  0  0  0  0  0
   -2.3792    0.0314   -0.0709 C   0  0  0  0  0  0  0  0  0  0  0  0
   -0.3431   -0.7894   -0.1104 N   0  0  0  0  0  0  0  0  0  0  0  0
   -2.0679   -2.4764   -0.2611 N   0  0  0  0  0  0  0  0  0  0  0  0
   -3.8258    0.2376   -0.0237 C   0  0  0  0  0  0  0  0  0  0  0  0
   -1.5139    1.1166   -0.0689 N   0  0  0  0  0  0  0  0  0  0  0  0
   -0.3214    0.5791   -0.0589 C   0  0  0  0  0  0  0  0  0  0  0  0
    0.8589   -1.4869   -0.1559 C   0  0  0  0  0  0  0  0  0  0  0  0
   -1.5690   -3.5985    0.4442 C   0  0  0  0  0  0  0  0  0  0  0  0
   -4.3976    1.4259   -0.5181 C   0  0  0  0  0  0  0  0  0  0  0  0
   -4.6825   -0.7025    0.5681 C   0  0  0  0  0  0  0  0  0  0  0  0
    0.9558    1.2451   -0.0234 C   0  0  0  0  0  0  0  0  0  0  0  0
    2.0081   -0.7955   -0.0877 C   0  0  0  0  0  0  0  0  0  0  0  0
   -1.6822   -4.8711   -0.1340 C   0  0  0  0  0  0  0  0  0  0  0  0
   -0.8642   -3.4811    1.6538 C   0  0  0  0  0  0  0  0  0  0  0  0
   -5.7747    1.6449   -0.4756 C   0  0  0  0  0  0  0  0  0  0  0  0
   -3.6452    2.4409   -1.0534 O   0  0  0  0  0  0  0  0  0  0  0  0
   -6.0647   -0.4828    0.6175 C   0  0  0  0  0  0  0  0  0  0  0  0
    2.0823    0.5827   -0.0220 N   0  0  0  0  0  0  0  0  0  0  0  0
   -1.1206   -5.9874    0.4921 C   0  0  0  0  0  0  0  0  0  0  0  0
   -0.2490   -4.5871    2.2475 C   0  0  0  0  0  0  0  0  0  0  0  0
   -6.6104    0.6860    0.0879 C   0  0  0  0  0  0  0  0  0  0  0  0
   -0.3689   -5.8400    1.6611 C   0  0  0  0  0  0  0  0  0  0  0  0
   -1.3486   -7.2104   -0.0900 O   0  0  0  0  0  0  0  0  0  0  0  0
    0.2550   -6.8804    2.2997 O   0  0  0  0  0  0  0  0  0  0  0  0
   -1.1465   -8.2562    0.8706 C   0  0  0  0  0  0  0  0  0  0  0  0
    0.2112   -8.0902    1.5324 C   0  0  0  0  0  0  0  0  0  0  0  0
   -2.9476   -2.6753   -0.7371 H   0  0  0  0  0  0  0  0  0  0  0  0
    0.8319   -2.5612   -0.2293 H   0  0  0  0  0  0  0  0  0  0  0  0
   -4.2877   -1.6045    1.0283 H   0  0  0  0  0  0  0  0  0  0  0  0
    0.9772    2.3451    0.0089 H   0  0  0  0  0  0  0  0  0  0  0  0
    2.9575   -1.3269   -0.0849 H   0  0  0  0  0  0  0  0  0  0  0  0
   -2.2019   -5.0046   -1.0790 H   0  0  0  0  0  0  0  0  0  0  0  0
   -0.7708   -2.5166    2.1475 H   0  0  0  0  0  0  0  0  0  0  0  0
   -6.1881    2.5701   -0.8694 H   0  0  0  0  0  0  0  0  0  0  0  0
   -2.7094    2.2406   -0.8341 H   0  0  0  0  0  0  0  0  0  0  0  0
   -6.7153   -1.2202    1.0813 H   0  0  0  0  0  0  0  0  0  0  0  0
    0.3233   -4.4666    3.1631 H   0  0  0  0  0  0  0  0  0  0  0  0
   -7.6837    0.8570    0.1287 H   0  0  0  0  0  0  0  0  0  0  0  0
   -1.2066   -9.2141    0.3458 H   0  0  0  0  0  0  0  0  0  0  0  0
   -1.9597   -8.2190    1.6078 H   0  0  0  0  0  0  0  0  0  0  0  0
    1.0183   -8.0623    0.7902 H   0  0  0  0  0  0  0  0  0  0  0  0
    0.4039   -8.9217    2.2178 H   0  0  0  0  0  0  0  0  0  0  0  0
  1  2  2  0  0  0  0
  1  3  1  0  0  0  0
  1  4  1  0  0  0  0
  2  5  1  0  0  0  0
  2  6  1  0  0  0  0
  3  7  1  0  0  0  0
  3  8  1  0  0  0  0
  4  9  1  0  0  0  0
  4 28  1  0  0  0  0
  5 10  2  0  0  0  0
  5 11  1  0  0  0  0
  6  7  2  0  0  0  0
  7 12  1  0  0  0  0
  8 13  2  0  0  0  0
  8 29  1  0  0  0  0
  9 14  2  0  0  0  0
  9 15  1  0  0  0  0
 10 16  1  0  0  0  0
 10 17  1  0  0  0  0
 11 18  2  0  0  0  0
 11 30  1  0  0  0  0
 12 19  2  0  0  0  0
 12 31  1  0  0  0  0
 13 19  1  0  0  0  0
 13 32  1  0  0  0  0
 14 20  1  0  0  0  0
 14 33  1  0  0  0  0
 15 21  2  0  0  0  0
 15 34  1  0  0  0  0
 16 22  2  0  0  0  0
 16 35  1  0  0  0  0
 17 36  1  0  0  0  0
 18 22  1  0  0  0  0
 18 37  1  0  0  0  0
 20 23  2  0  0  0  0
 20 24  1  0  0  0  0
 21 23  1  0  0  0  0
 21 38  1  0  0  0  0
 22 39  1  0  0  0  0
 23 25  1  0  0  0  0
 24 26  1  0  0  0  0
 25 27  1  0  0  0  0
 26 27  1  0  0  0  0
 26 40  1  0  0  0  0
 26 41  1  0  0  0  0
 27 42  1  0  0  0  0
 27 43  1  0  0  0  0
M  END
>  <Mol_ID>
8980

>  <Formula>
C20H16N4O3

>  <MolWeight>
360.36604

>  <Cat>
P2543

>  <Name>
WAY-327525

>  <Synonyms>
N/A

>  <Target>
Others

>  <Form>
free base

>  <CAS>
879591-91-0

>  <URL>
N/A

$$$$
