WAY-301276
 OpenBabel08302521413D

 42 44  0  0  0  0  0  0  0  0999 V2000
   -0.1452   -1.0934   -0.2588 C   0  0  0  0  0  0  0  0  0  0  0  0
    0.7635   -0.0558   -0.2169 N   0  0  0  0  0  0  0  0  0  0  0  0
    0.1918   -2.5478   -0.1740 C   0  0  0  0  0  0  0  0  0  0  0  0
   -1.3602   -0.5750   -0.3104 N   0  0  0  0  0  0  0  0  0  0  0  0
    0.0217    1.0975   -0.2348 C   0  0  0  0  0  0  0  0  0  0  0  0
    2.1965   -0.1641   -0.1254 C   0  0  0  0  0  0  0  0  0  0  0  0
    0.3849   -3.2337   -1.5105 C   0  0  0  0  0  0  0  0  0  0  0  0
   -1.2533    0.7991   -0.2991 N   0  0  0  0  0  0  0  0  0  0  0  0
    0.7176    2.6816   -0.1760 S   0  0  0  0  0  0  0  0  0  0  0  0
    1.6170   -3.8074   -1.8602 C   0  0  0  0  0  0  0  0  0  0  0  0
   -0.6957   -3.3744   -2.3969 C   0  0  0  0  0  0  0  0  0  0  0  0
   -0.7573    3.7436   -0.1100 C   0  0  0  0  0  0  0  0  0  0  0  0
    1.7615   -4.5107   -3.0607 C   0  0  0  0  0  0  0  0  0  0  0  0
   -0.5501   -4.0807   -3.5925 C   0  0  0  0  0  0  0  0  0  0  0  0
   -0.3117    5.1951    0.0589 C   0  0  0  0  0  0  0  0  0  0  0  0
    0.6774   -4.6513   -3.9236 C   0  0  0  0  0  0  0  0  0  0  0  0
   -0.1431    5.8806   -1.1394 N   0  0  0  0  0  0  0  0  0  0  0  0
   -0.1342    5.6655    1.1810 O   0  0  0  0  0  0  0  0  0  0  0  0
    0.3417    7.2004   -1.3010 C   0  0  0  0  0  0  0  0  0  0  0  0
    0.9331    7.9416   -0.2721 C   0  0  0  0  0  0  0  0  0  0  0  0
    0.2404    7.7860   -2.5717 C   0  0  0  0  0  0  0  0  0  0  0  0
    1.4005    9.2429   -0.4980 C   0  0  0  0  0  0  0  0  0  0  0  0
    0.6968    9.0925   -2.7983 C   0  0  0  0  0  0  0  0  0  0  0  0
    1.2750    9.8138   -1.7592 C   0  0  0  0  0  0  0  0  0  0  0  0
    1.8959   11.5732   -2.0608 Br  0  0  0  0  0  0  0  0  0  0  0  0
    1.0800   -2.6928    0.4535 H   0  0  0  0  0  0  0  0  0  0  0  0
   -0.6153   -3.0695    0.3565 H   0  0  0  0  0  0  0  0  0  0  0  0
    2.6604    0.5620   -0.7968 H   0  0  0  0  0  0  0  0  0  0  0  0
    2.4889    0.0236    0.9110 H   0  0  0  0  0  0  0  0  0  0  0  0
    2.5200   -1.1617   -0.4258 H   0  0  0  0  0  0  0  0  0  0  0  0
    2.4725   -3.7342   -1.1935 H   0  0  0  0  0  0  0  0  0  0  0  0
   -1.6652   -2.9463   -2.1481 H   0  0  0  0  0  0  0  0  0  0  0  0
   -1.3581    3.6312   -1.0177 H   0  0  0  0  0  0  0  0  0  0  0  0
   -1.3848    3.4813    0.7491 H   0  0  0  0  0  0  0  0  0  0  0  0
    2.7165   -4.9629   -3.3168 H   0  0  0  0  0  0  0  0  0  0  0  0
   -1.4000   -4.1944   -4.2605 H   0  0  0  0  0  0  0  0  0  0  0  0
    0.7848   -5.2118   -4.8499 H   0  0  0  0  0  0  0  0  0  0  0  0
   -0.4392    5.4102   -1.9854 H   0  0  0  0  0  0  0  0  0  0  0  0
    1.0602    7.5282    0.7244 H   0  0  0  0  0  0  0  0  0  0  0  0
   -0.2116    7.2471   -3.4000 H   0  0  0  0  0  0  0  0  0  0  0  0
    1.8600    9.7925    0.3204 H   0  0  0  0  0  0  0  0  0  0  0  0
    0.5913    9.5356   -3.7854 H   0  0  0  0  0  0  0  0  0  0  0  0
  1  2  1  0  0  0  0
  1  3  1  0  0  0  0
  1  4  2  0  0  0  0
  2  5  1  0  0  0  0
  2  6  1  0  0  0  0
  3  7  1  0  0  0  0
  3 26  1  0  0  0  0
  3 27  1  0  0  0  0
  4  8  1  0  0  0  0
  5  9  1  0  0  0  0
  5  8  2  0  0  0  0
  6 28  1  0  0  0  0
  6 29  1  0  0  0  0
  6 30  1  0  0  0  0
  7 10  2  0  0  0  0
  7 11  1  0  0  0  0
  9 12  1  0  0  0  0
 10 13  1  0  0  0  0
 10 31  1  0  0  0  0
 11 14  2  0  0  0  0
 11 32  1  0  0  0  0
 12 15  1  0  0  0  0
 12 33  1  0  0  0  0
 12 34  1  0  0  0  0
 13 16  2  0  0  0  0
 13 35  1  0  0  0  0
 14 16  1  0  0  0  0
 14 36  1  0  0  0  0
 15 17  1  0  0  0  0
 15 18  2  0  0  0  0
 16 37  1  0  0  0  0
 17 19  1  0  0  0  0
 17 38  1  0  0  0  0
 19 20  2  0  0  0  0
 19 21  1  0  0  0  0
 20 22  1  0  0  0  0
 20 39  1  0  0  0  0
 21 23  2  0  0  0  0
 21 40  1  0  0  0  0
 22 24  2  0  0  0  0
 22 41  1  0  0  0  0
 23 24  1  0  0  0  0
 23 42  1  0  0  0  0
 24 25  1  0  0  0  0
M  END
>  <Mol_ID>
8430

>  <Formula>
C18H17BrN4OS

>  <MolWeight>
417.32278

>  <Cat>
P2163

>  <Name>
WAY-301276

>  <Synonyms>
N/A

>  <Target>
11bHSD1

>  <Form>
free base

>  <CAS>
333323-54-9

>  <URL>
N/A

$$$$
