WAY-637471
 OpenBabel08302521423D

 33 36  0  0  0  0  0  0  0  0999 V2000
    0.6245    4.1165   -3.3735 C   0  0  0  0  0  0  0  0  0  0  0  0
    0.7779    3.3196   -2.2653 O   0  0  0  0  0  0  0  0  0  0  0  0
   -0.5105    4.7929   -3.3384 N   0  0  0  0  0  0  0  0  0  0  0  0
   -3.6138    0.3810   -2.7099 N   0  0  0  0  0  0  0  0  0  0  0  0
   -4.1907    1.5060   -3.0828 C   0  0  0  0  0  0  0  0  0  0  0  0
   -0.3797    3.5504   -1.5772 C   0  0  0  0  0  0  0  0  0  0  0  0
   -3.9103    2.5438   -2.2263 O   0  0  0  0  0  0  0  0  0  0  0  0
   -1.1567    4.4277   -2.1768 N   0  0  0  0  0  0  0  0  0  0  0  0
   -2.9065    0.6536   -1.5608 N   0  0  0  0  0  0  0  0  0  0  0  0
   -3.0933    1.9316   -1.3066 C   0  0  0  0  0  0  0  0  0  0  0  0
    1.5674    4.1807   -4.4477 C   0  0  0  0  0  0  0  0  0  0  0  0
   -5.0558    1.7652   -4.2267 C   0  0  0  0  0  0  0  0  0  0  0  0
    2.7226    3.4387   -4.4777 O   0  0  0  0  0  0  0  0  0  0  0  0
   -0.7643    2.7541   -0.0856 S   0  0  0  0  0  0  0  0  0  0  0  0
    1.5020    4.9371   -5.6076 C   0  0  0  0  0  0  0  0  0  0  0  0
    3.3632    3.7157   -5.6414 C   0  0  0  0  0  0  0  0  0  0  0  0
    2.6529    4.6338   -6.3745 C   0  0  0  0  0  0  0  0  0  0  0  0
   -2.5796    2.7490   -0.1810 C   0  0  0  0  0  0  0  0  0  0  0  0
   -5.4225    0.6865   -5.0536 C   0  0  0  0  0  0  0  0  0  0  0  0
   -5.5333    3.0457   -4.5463 C   0  0  0  0  0  0  0  0  0  0  0  0
   -6.6875    2.1588   -6.4735 C   0  0  0  0  0  0  0  0  0  0  0  0
   -6.2343    0.8804   -6.1726 C   0  0  0  0  0  0  0  0  0  0  0  0
   -6.3449    3.2404   -5.6702 C   0  0  0  0  0  0  0  0  0  0  0  0
   -7.4593    2.3511   -7.5504 F   0  0  0  0  0  0  0  0  0  0  0  0
    0.7031    5.6190   -5.8668 H   0  0  0  0  0  0  0  0  0  0  0  0
    4.2931    3.1869   -5.8007 H   0  0  0  0  0  0  0  0  0  0  0  0
    2.9270    5.0317   -7.3415 H   0  0  0  0  0  0  0  0  0  0  0  0
   -2.9518    2.3178    0.7549 H   0  0  0  0  0  0  0  0  0  0  0  0
   -2.9534    3.7767   -0.2285 H   0  0  0  0  0  0  0  0  0  0  0  0
   -5.0693   -0.3195   -4.8276 H   0  0  0  0  0  0  0  0  0  0  0  0
   -5.2707    3.9058   -3.9329 H   0  0  0  0  0  0  0  0  0  0  0  0
   -6.5111    0.0453   -6.8085 H   0  0  0  0  0  0  0  0  0  0  0  0
   -6.7123    4.2317   -5.9250 H   0  0  0  0  0  0  0  0  0  0  0  0
  2  1  1  0  0  0  0
  3  1  2  0  0  0  0
  4  9  1  0  0  0  0
  4  5  2  0  0  0  0
  5  7  1  0  0  0  0
  6  2  1  0  0  0  0
  7 10  1  0  0  0  0
  8  3  1  0  0  0  0
  8  6  2  0  0  0  0
  9 10  2  0  0  0  0
 10 18  1  0  0  0  0
 11  1  1  0  0  0  0
 12  5  1  0  0  0  0
 13 11  1  0  0  0  0
 14  6  1  0  0  0  0
 15 11  2  0  0  0  0
 15 25  1  0  0  0  0
 16 13  1  0  0  0  0
 16 17  2  0  0  0  0
 16 26  1  0  0  0  0
 17 15  1  0  0  0  0
 17 27  1  0  0  0  0
 18 14  1  0  0  0  0
 18 28  1  0  0  0  0
 18 29  1  0  0  0  0
 19 12  2  0  0  0  0
 19 30  1  0  0  0  0
 20 12  1  0  0  0  0
 20 31  1  0  0  0  0
 21 23  1  0  0  0  0
 21 22  2  0  0  0  0
 22 19  1  0  0  0  0
 22 32  1  0  0  0  0
 23 20  2  0  0  0  0
 23 33  1  0  0  0  0
 24 21  1  0  0  0  0
M  END
>  <Mol_ID>
8492

>  <Formula>
C15H9FN4O3S

>  <MolWeight>
344.3203632

>  <Cat>
P3012

>  <Name>
WAY-637471

>  <Synonyms>
N/A

>  <Target>
Anti-infection

>  <Form>
free base

>  <CAS>
793729-44-9

>  <URL>
N/A

$$$$
