WAY-331976
 OpenBabel08302521443D

 48 50  0  0  0  0  0  0  0  0999 V2000
   -5.0910    4.7258    0.0796 C   0  0  0  0  0  0  0  0  0  0  0  0
   -4.3470    4.7081   -1.0156 N   0  0  0  0  0  0  0  0  0  0  0  0
   -3.4134    3.7000   -0.7948 C   0  0  0  0  0  0  0  0  0  0  0  0
   -4.7071    3.8027    1.0144 O   0  0  0  0  0  0  0  0  0  0  0  0
   -6.3072    5.4833    0.3932 C   0  0  0  0  0  0  0  0  0  0  0  0
   -3.6625    3.1366    0.4422 C   0  0  0  0  0  0  0  0  0  0  0  0
    1.6586    2.9607   -2.8744 C   0  0  0  0  0  0  0  0  0  0  0  0
   -6.9249    6.2610   -0.5963 C   0  0  0  0  0  0  0  0  0  0  0  0
    2.2976    2.4140   -3.9864 N   0  0  0  0  0  0  0  0  0  0  0  0
    2.2903    3.4810   -1.9597 O   0  0  0  0  0  0  0  0  0  0  0  0
   -0.6943    3.4708   -1.3961 S   0  0  0  0  0  0  0  0  0  0  0  0
   -2.4503    3.2776   -1.8656 C   0  0  0  0  0  0  0  0  0  0  0  0
   -6.9191    5.4142    1.6578 C   0  0  0  0  0  0  0  0  0  0  0  0
    3.7244    2.6555   -4.2541 C   0  0  0  0  0  0  0  0  0  0  0  0
    0.1204    2.8743   -2.9326 C   0  0  0  0  0  0  0  0  0  0  0  0
   -3.1316    2.0001    1.2112 C   0  0  0  0  0  0  0  0  0  0  0  0
   -8.1335    6.9224   -0.3399 C   0  0  0  0  0  0  0  0  0  0  0  0
    3.8794    3.9585   -5.0547 C   0  0  0  0  0  0  0  0  0  0  0  0
    4.3622    1.4733   -5.0034 C   0  0  0  0  0  0  0  0  0  0  0  0
   -8.1226    6.0808    1.9173 C   0  0  0  0  0  0  0  0  0  0  0  0
   -8.7321    6.8287    0.9175 C   0  0  0  0  0  0  0  0  0  0  0  0
    5.3196    4.2250   -5.4874 C   0  0  0  0  0  0  0  0  0  0  0  0
    5.8053    1.7606   -5.4291 C   0  0  0  0  0  0  0  0  0  0  0  0
    5.9069    3.0424   -6.2487 C   0  0  0  0  0  0  0  0  0  0  0  0
   -6.4815    6.3368   -1.5845 H   0  0  0  0  0  0  0  0  0  0  0  0
    1.7293    2.1115   -4.7664 H   0  0  0  0  0  0  0  0  0  0  0  0
   -2.6315    2.2227   -2.0984 H   0  0  0  0  0  0  0  0  0  0  0  0
   -2.6376    3.8617   -2.7725 H   0  0  0  0  0  0  0  0  0  0  0  0
   -6.4686    4.8271    2.4556 H   0  0  0  0  0  0  0  0  0  0  0  0
    4.2420    2.7723   -3.2933 H   0  0  0  0  0  0  0  0  0  0  0  0
   -0.1683    1.8336   -3.1084 H   0  0  0  0  0  0  0  0  0  0  0  0
   -0.2137    3.4949   -3.7704 H   0  0  0  0  0  0  0  0  0  0  0  0
   -2.6841    2.3438    2.1482 H   0  0  0  0  0  0  0  0  0  0  0  0
   -3.9430    1.3060    1.4561 H   0  0  0  0  0  0  0  0  0  0  0  0
   -2.3775    1.4486    0.6449 H   0  0  0  0  0  0  0  0  0  0  0  0
   -8.6080    7.5086   -1.1221 H   0  0  0  0  0  0  0  0  0  0  0  0
    3.2437    3.9132   -5.9490 H   0  0  0  0  0  0  0  0  0  0  0  0
    3.5168    4.8061   -4.4613 H   0  0  0  0  0  0  0  0  0  0  0  0
    4.3463    0.5782   -4.3698 H   0  0  0  0  0  0  0  0  0  0  0  0
    3.7702    1.2322   -5.8955 H   0  0  0  0  0  0  0  0  0  0  0  0
   -8.5866    6.0042    2.8976 H   0  0  0  0  0  0  0  0  0  0  0  0
   -9.6753    7.3372    1.1106 H   0  0  0  0  0  0  0  0  0  0  0  0
    5.3527    5.1202   -6.1193 H   0  0  0  0  0  0  0  0  0  0  0  0
    5.9366    4.4343   -4.6053 H   0  0  0  0  0  0  0  0  0  0  0  0
    6.1935    0.9204   -6.0168 H   0  0  0  0  0  0  0  0  0  0  0  0
    6.4430    1.8470   -4.5405 H   0  0  0  0  0  0  0  0  0  0  0  0
    5.3746    2.9142   -7.1993 H   0  0  0  0  0  0  0  0  0  0  0  0
    6.9555    3.2450   -6.4969 H   0  0  0  0  0  0  0  0  0  0  0  0
  2  1  2  0  0  0  0
  3  2  1  0  0  0  0
  4  1  1  0  0  0  0
  5  1  1  0  0  0  0
  6  4  1  0  0  0  0
  6  3  2  0  0  0  0
  7 15  1  0  0  0  0
  8  5  2  0  0  0  0
  8 25  1  0  0  0  0
  9  7  1  0  0  0  0
  9 26  1  0  0  0  0
 10  7  2  0  0  0  0
 11 12  1  0  0  0  0
 12  3  1  0  0  0  0
 12 27  1  0  0  0  0
 12 28  1  0  0  0  0
 13  5  1  0  0  0  0
 13 29  1  0  0  0  0
 14  9  1  0  0  0  0
 14 30  1  0  0  0  0
 15 11  1  0  0  0  0
 15 31  1  0  0  0  0
 15 32  1  0  0  0  0
 16  6  1  0  0  0  0
 16 33  1  0  0  0  0
 16 34  1  0  0  0  0
 16 35  1  0  0  0  0
 17  8  1  0  0  0  0
 17 36  1  0  0  0  0
 18 14  1  0  0  0  0
 18 37  1  0  0  0  0
 18 38  1  0  0  0  0
 19 14  1  0  0  0  0
 19 39  1  0  0  0  0
 19 40  1  0  0  0  0
 20 13  2  0  0  0  0
 20 41  1  0  0  0  0
 21 20  1  0  0  0  0
 21 17  2  0  0  0  0
 21 42  1  0  0  0  0
 22 18  1  0  0  0  0
 22 43  1  0  0  0  0
 22 44  1  0  0  0  0
 23 19  1  0  0  0  0
 23 45  1  0  0  0  0
 23 46  1  0  0  0  0
 24 23  1  0  0  0  0
 24 22  1  0  0  0  0
 24 47  1  0  0  0  0
 24 48  1  0  0  0  0
M  END
>  <Mol_ID>
9237

>  <Formula>
C19H23ClN2O2S

>  <MolWeight>
378.91612

>  <Cat>
P2637

>  <Name>
WAY-331976

>  <Synonyms>
N/A

>  <Target>
beta-catenin

>  <Form>
free base

>  <CAS>
901721-69-5

>  <URL>
N/A

$$$$
