WAY-639549
 OpenBabel08302521443D

 52 54  0  0  0  0  0  0  0  0999 V2000
    3.3996    2.4730    4.0775 C   0  0  0  0  0  0  0  0  0  0  0  0
    5.7071   -1.7524    1.0874 N   0  0  0  0  0  0  0  0  0  0  0  0
    5.4797   -3.1933    0.9812 C   0  0  0  0  0  0  0  0  0  0  0  0
    4.7674   -0.8675    1.5523 C   0  0  0  0  0  0  0  0  0  0  0  0
    1.9542    2.5404    4.4332 C   0  0  0  0  0  0  0  0  0  0  0  0
    5.1454    0.5972    1.3683 C   0  0  0  0  0  0  0  0  0  0  0  0
    1.1364    1.4061    4.5277 C   0  0  0  0  0  0  0  0  0  0  0  0
    4.1720    3.3398    4.4716 O   0  0  0  0  0  0  0  0  0  0  0  0
    3.6947   -1.1974    2.0465 O   0  0  0  0  0  0  0  0  0  0  0  0
    5.1198   -3.5791   -0.4562 C   0  0  0  0  0  0  0  0  0  0  0  0
    6.6667   -4.0127    1.4964 C   0  0  0  0  0  0  0  0  0  0  0  0
    3.7817    1.4488    3.2403 N   0  0  0  0  0  0  0  0  0  0  0  0
    5.1132    1.3790    2.6735 C   0  0  0  0  0  0  0  0  0  0  0  0
   -0.2199    1.5386    4.8653 C   0  0  0  0  0  0  0  0  0  0  0  0
    1.4085    3.8086    4.6705 C   0  0  0  0  0  0  0  0  0  0  0  0
    0.0620    3.9458    5.0035 C   0  0  0  0  0  0  0  0  0  0  0  0
    5.9797   -3.3165   -1.5357 C   0  0  0  0  0  0  0  0  0  0  0  0
    3.9220   -4.2624   -0.7164 C   0  0  0  0  0  0  0  0  0  0  0  0
    6.4553   -5.3348    1.9419 C   0  0  0  0  0  0  0  0  0  0  0  0
    7.9820   -3.5280    1.4895 C   0  0  0  0  0  0  0  0  0  0  0  0
   -0.7465    2.8146    5.1075 C   0  0  0  0  0  0  0  0  0  0  0  0
   -1.1023    0.3322    5.0041 C   0  0  0  0  0  0  0  0  0  0  0  0
    3.5993   -4.6869   -2.0092 C   0  0  0  0  0  0  0  0  0  0  0  0
    7.5231   -6.1285    2.3694 C   0  0  0  0  0  0  0  0  0  0  0  0
    9.0498   -4.3207    1.9144 C   0  0  0  0  0  0  0  0  0  0  0  0
    5.6535   -3.7324   -2.8291 C   0  0  0  0  0  0  0  0  0  0  0  0
    4.4654   -4.4244   -3.0648 C   0  0  0  0  0  0  0  0  0  0  0  0
    8.8249   -5.6199    2.3554 C   0  0  0  0  0  0  0  0  0  0  0  0
    6.5418   -1.3881    0.6586 H   0  0  0  0  0  0  0  0  0  0  0  0
    4.6233   -3.4249    1.6312 H   0  0  0  0  0  0  0  0  0  0  0  0
    4.4327    1.0242    0.6522 H   0  0  0  0  0  0  0  0  0  0  0  0
    6.1411    0.6835    0.9195 H   0  0  0  0  0  0  0  0  0  0  0  0
    1.5466    0.4131    4.3649 H   0  0  0  0  0  0  0  0  0  0  0  0
    3.1380    0.6979    3.0098 H   0  0  0  0  0  0  0  0  0  0  0  0
    5.4509    2.4062    2.4810 H   0  0  0  0  0  0  0  0  0  0  0  0
    5.7849    0.9460    3.4219 H   0  0  0  0  0  0  0  0  0  0  0  0
    2.0351    4.6947    4.5886 H   0  0  0  0  0  0  0  0  0  0  0  0
   -0.3527    4.9335    5.1875 H   0  0  0  0  0  0  0  0  0  0  0  0
    6.9249   -2.8030   -1.3789 H   0  0  0  0  0  0  0  0  0  0  0  0
    3.2274   -4.4835    0.0954 H   0  0  0  0  0  0  0  0  0  0  0  0
    5.4559   -5.7605    1.9479 H   0  0  0  0  0  0  0  0  0  0  0  0
    8.2116   -2.5223    1.1473 H   0  0  0  0  0  0  0  0  0  0  0  0
   -1.7918    2.9332    5.3866 H   0  0  0  0  0  0  0  0  0  0  0  0
   -1.4075    0.2108    6.0482 H   0  0  0  0  0  0  0  0  0  0  0  0
   -1.9943    0.4386    4.3784 H   0  0  0  0  0  0  0  0  0  0  0  0
   -0.5848   -0.5816    4.6926 H   0  0  0  0  0  0  0  0  0  0  0  0
    2.6733   -5.2282   -2.1893 H   0  0  0  0  0  0  0  0  0  0  0  0
    7.3495   -7.1443    2.7083 H   0  0  0  0  0  0  0  0  0  0  0  0
   10.0616   -3.9211    1.8991 H   0  0  0  0  0  0  0  0  0  0  0  0
    6.3338   -3.5342   -3.6548 H   0  0  0  0  0  0  0  0  0  0  0  0
    4.2201   -4.7603   -4.0698 H   0  0  0  0  0  0  0  0  0  0  0  0
    9.6544   -6.2359    2.6829 H   0  0  0  0  0  0  0  0  0  0  0  0
  2  4  1  0  0  0  0
  2 29  1  0  0  0  0
  3  2  1  0  0  0  0
  3 30  1  0  0  0  0
  4  6  1  0  0  0  0
  5  1  1  0  0  0  0
  6 13  1  0  0  0  0
  6 31  1  0  0  0  0
  6 32  1  0  0  0  0
  7  5  2  0  0  0  0
  7 33  1  0  0  0  0
  8  1  2  0  0  0  0
  9  4  2  0  0  0  0
 10  3  1  0  0  0  0
 11  3  1  0  0  0  0
 12  1  1  0  0  0  0
 12 34  1  0  0  0  0
 13 12  1  0  0  0  0
 13 35  1  0  0  0  0
 13 36  1  0  0  0  0
 14  7  1  0  0  0  0
 15  5  1  0  0  0  0
 15 37  1  0  0  0  0
 16 15  2  0  0  0  0
 16 38  1  0  0  0  0
 17 10  2  0  0  0  0
 17 39  1  0  0  0  0
 18 10  1  0  0  0  0
 18 40  1  0  0  0  0
 19 11  2  0  0  0  0
 19 41  1  0  0  0  0
 20 11  1  0  0  0  0
 20 42  1  0  0  0  0
 21 16  1  0  0  0  0
 21 14  2  0  0  0  0
 21 43  1  0  0  0  0
 22 14  1  0  0  0  0
 22 44  1  0  0  0  0
 22 45  1  0  0  0  0
 22 46  1  0  0  0  0
 23 18  2  0  0  0  0
 23 47  1  0  0  0  0
 24 19  1  0  0  0  0
 24 48  1  0  0  0  0
 25 20  2  0  0  0  0
 25 49  1  0  0  0  0
 26 17  1  0  0  0  0
 26 50  1  0  0  0  0
 27 23  1  0  0  0  0
 27 26  2  0  0  0  0
 27 51  1  0  0  0  0
 28 25  1  0  0  0  0
 28 24  2  0  0  0  0
 28 52  1  0  0  0  0
M  END
>  <Mol_ID>
9075

>  <Formula>
C24H24N2O2

>  <MolWeight>
372.45956

>  <Cat>
P3082

>  <Name>
WAY-639549

>  <Synonyms>
N/A

>  <Target>
AChE,BuChE

>  <Form>
free base

>  <CAS>
794579-71-8

>  <URL>
N/A

$$$$
