WAY-331974
 OpenBabel08302521443D

 45 47  0  0  0  0  0  0  0  0999 V2000
   -0.2164   -0.8532   -0.6371 C   0  0  0  0  0  0  0  0  0  0  0  0
    0.1613    0.3494   -1.0246 N   0  0  0  0  0  0  0  0  0  0  0  0
   -0.1970    1.1788    0.0201 C   0  0  0  0  0  0  0  0  0  0  0  0
   -0.8013   -0.8778    0.6018 O   0  0  0  0  0  0  0  0  0  0  0  0
   -0.0826   -2.1318   -1.3282 C   0  0  0  0  0  0  0  0  0  0  0  0
   -0.7740    0.4225    1.0206 C   0  0  0  0  0  0  0  0  0  0  0  0
   -3.0128    3.6678    0.3532 C   0  0  0  0  0  0  0  0  0  0  0  0
    0.5972   -2.1890   -2.5545 C   0  0  0  0  0  0  0  0  0  0  0  0
   -4.3607    3.9546    0.4265 N   0  0  0  0  0  0  0  0  0  0  0  0
   -2.2702    3.8620    1.3146 O   0  0  0  0  0  0  0  0  0  0  0  0
   -0.8318    3.4938   -1.3767 S   0  0  0  0  0  0  0  0  0  0  0  0
    0.0689    2.6409   -0.0289 C   0  0  0  0  0  0  0  0  0  0  0  0
   -4.8680    4.7040    1.5551 C   0  0  0  0  0  0  0  0  0  0  0  0
   -8.9728    3.7371    2.3508 C   0  0  0  0  0  0  0  0  0  0  0  0
   -6.3065    4.3735    1.8408 C   0  0  0  0  0  0  0  0  0  0  0  0
  -10.2539    3.4289    2.5903 F   0  0  0  0  0  0  0  0  0  0  0  0
   -0.6124   -3.3186   -0.7997 C   0  0  0  0  0  0  0  0  0  0  0  0
   -7.9686    3.0808    3.0516 C   0  0  0  0  0  0  0  0  0  0  0  0
   -8.6693    4.7084    1.4043 C   0  0  0  0  0  0  0  0  0  0  0  0
   -6.6338    3.3956    2.7950 C   0  0  0  0  0  0  0  0  0  0  0  0
   -7.3360    5.0276    1.1476 C   0  0  0  0  0  0  0  0  0  0  0  0
   -2.5569    3.0624   -0.9690 C   0  0  0  0  0  0  0  0  0  0  0  0
   -1.3301    0.6930    2.3573 C   0  0  0  0  0  0  0  0  0  0  0  0
    0.7498   -3.4003   -3.2333 C   0  0  0  0  0  0  0  0  0  0  0  0
   -0.4612   -4.5296   -1.4789 C   0  0  0  0  0  0  0  0  0  0  0  0
    0.2224   -4.5702   -2.6933 C   0  0  0  0  0  0  0  0  0  0  0  0
    1.0174   -1.2817   -2.9856 H   0  0  0  0  0  0  0  0  0  0  0  0
   -4.9341    3.8961   -0.4053 H   0  0  0  0  0  0  0  0  0  0  0  0
   -0.1364    3.1182    0.9308 H   0  0  0  0  0  0  0  0  0  0  0  0
    1.1387    2.7980   -0.2054 H   0  0  0  0  0  0  0  0  0  0  0  0
   -4.2567    4.5260    2.4475 H   0  0  0  0  0  0  0  0  0  0  0  0
   -4.7631    5.7681    1.3129 H   0  0  0  0  0  0  0  0  0  0  0  0
   -1.1478   -3.3092    0.1472 H   0  0  0  0  0  0  0  0  0  0  0  0
   -8.2312    2.3307    3.7909 H   0  0  0  0  0  0  0  0  0  0  0  0
   -9.4719    5.2114    0.8750 H   0  0  0  0  0  0  0  0  0  0  0  0
   -5.8494    2.8806    3.3472 H   0  0  0  0  0  0  0  0  0  0  0  0
   -7.1029    5.7942    0.4119 H   0  0  0  0  0  0  0  0  0  0  0  0
   -3.1769    3.4622   -1.7791 H   0  0  0  0  0  0  0  0  0  0  0  0
   -2.6993    1.9785   -0.9517 H   0  0  0  0  0  0  0  0  0  0  0  0
   -2.4073    0.5005    2.3684 H   0  0  0  0  0  0  0  0  0  0  0  0
   -0.8587    0.0451    3.1032 H   0  0  0  0  0  0  0  0  0  0  0  0
   -1.1639    1.7291    2.6623 H   0  0  0  0  0  0  0  0  0  0  0  0
    1.2828   -3.4296   -4.1782 H   0  0  0  0  0  0  0  0  0  0  0  0
   -0.8770   -5.4423   -1.0563 H   0  0  0  0  0  0  0  0  0  0  0  0
    0.3393   -5.5150   -3.2176 H   0  0  0  0  0  0  0  0  0  0  0  0
  2  1  2  0  0  0  0
  3  2  1  0  0  0  0
  4  1  1  0  0  0  0
  5  1  1  0  0  0  0
  6  4  1  0  0  0  0
  6  3  2  0  0  0  0
  7 22  1  0  0  0  0
  8  5  2  0  0  0  0
  8 27  1  0  0  0  0
  9  7  1  0  0  0  0
  9 28  1  0  0  0  0
 10  7  2  0  0  0  0
 11 12  1  0  0  0  0
 12  3  1  0  0  0  0
 12 29  1  0  0  0  0
 12 30  1  0  0  0  0
 13  9  1  0  0  0  0
 13 31  1  0  0  0  0
 13 32  1  0  0  0  0
 14 19  2  0  0  0  0
 15 13  1  0  0  0  0
 16 14  1  0  0  0  0
 17  5  1  0  0  0  0
 17 33  1  0  0  0  0
 18 20  2  0  0  0  0
 18 14  1  0  0  0  0
 18 34  1  0  0  0  0
 19 21  1  0  0  0  0
 19 35  1  0  0  0  0
 20 15  1  0  0  0  0
 20 36  1  0  0  0  0
 21 15  2  0  0  0  0
 21 37  1  0  0  0  0
 22 11  1  0  0  0  0
 22 38  1  0  0  0  0
 22 39  1  0  0  0  0
 23  6  1  0  0  0  0
 23 40  1  0  0  0  0
 23 41  1  0  0  0  0
 23 42  1  0  0  0  0
 24  8  1  0  0  0  0
 24 43  1  0  0  0  0
 25 17  2  0  0  0  0
 25 44  1  0  0  0  0
 26 25  1  0  0  0  0
 26 24  2  0  0  0  0
 26 45  1  0  0  0  0
M  END
>  <Mol_ID>
9225

>  <Formula>
C20H18ClFN2O2S

>  <MolWeight>
404.8855232

>  <Cat>
P2635

>  <Name>
WAY-331974

>  <Synonyms>
N/A

>  <Target>
beta-catenin

>  <Form>
free base

>  <CAS>
901750-93-4

>  <URL>
N/A

$$$$
