WAY-332042
 OpenBabel08302521443D

 52 54  0  0  0  0  0  0  0  0999 V2000
   -1.9649    2.9597    1.4493 N   0  0  0  0  0  0  0  0  0  0  0  0
   -0.6106    3.1013    1.2761 C   0  0  0  0  0  0  0  0  0  0  0  0
   -2.2043    3.5364    2.6087 C   0  0  0  0  0  0  0  0  0  0  0  0
   -1.0985    4.1128    3.1844 O   0  0  0  0  0  0  0  0  0  0  0  0
   -0.0796    3.8153    2.3284 C   0  0  0  0  0  0  0  0  0  0  0  0
   -0.6390    3.2768   -1.4315 S   0  0  3  0  0  0  0  0  0  0  0  0
    0.0795    2.5692    0.0814 C   0  0  0  0  0  0  0  0  0  0  0  0
   -0.6842    5.9929   -2.0918 C   0  0  0  0  0  0  0  0  0  0  0  0
   -0.2118    5.0190   -1.0220 C   0  0  0  0  0  0  0  0  0  0  0  0
   -3.4531    3.6225    3.3491 C   0  0  0  0  0  0  0  0  0  0  0  0
   -0.4629    7.3036   -1.9600 N   0  0  0  0  0  0  0  0  0  0  0  0
    0.2041    2.8381   -2.5958 O   0  0  0  0  0  0  0  0  0  0  0  0
   -4.6102    3.0049    2.8467 C   0  0  0  0  0  0  0  0  0  0  0  0
   -1.2614    5.5724   -3.1052 O   0  0  0  0  0  0  0  0  0  0  0  0
   -5.8294    3.0955    3.5313 C   0  0  0  0  0  0  0  0  0  0  0  0
   -0.8555    8.4848   -2.7970 C   0  0  0  0  0  0  0  0  0  0  0  0
    1.2756    4.2568    2.6956 C   0  0  0  0  0  0  0  0  0  0  0  0
   -3.5265    4.3255    4.5559 C   0  0  0  0  0  0  0  0  0  0  0  0
   -4.7374    4.4322    5.2362 C   0  0  0  0  0  0  0  0  0  0  0  0
   -5.8830    3.8209    4.7261 C   0  0  0  0  0  0  0  0  0  0  0  0
   -7.0704    2.4460    2.9937 C   0  0  0  0  0  0  0  0  0  0  0  0
   -2.3748    8.6122   -2.9649 C   0  0  0  0  0  0  0  0  0  0  0  0
   -0.1439    8.5645   -4.1606 C   0  0  0  0  0  0  0  0  0  0  0  0
   -2.7819    9.7800   -3.8730 C   0  0  0  0  0  0  0  0  0  0  0  0
   -0.5444    9.7770   -5.0008 C   0  0  0  0  0  0  0  0  0  0  0  0
   -2.0537    9.7547   -5.2134 C   0  0  0  0  0  0  0  0  0  0  0  0
    1.1447    2.8185    0.1147 H   0  0  0  0  0  0  0  0  0  0  0  0
   -0.0152    1.4799    0.0420 H   0  0  0  0  0  0  0  0  0  0  0  0
   -0.6548    5.2341   -0.0460 H   0  0  0  0  0  0  0  0  0  0  0  0
    0.8696    5.0941   -0.9008 H   0  0  0  0  0  0  0  0  0  0  0  0
    0.0008    7.5700   -1.0921 H   0  0  0  0  0  0  0  0  0  0  0  0
   -4.5554    2.4580    1.9057 H   0  0  0  0  0  0  0  0  0  0  0  0
   -0.5195    9.3551   -2.2106 H   0  0  0  0  0  0  0  0  0  0  0  0
    1.3225    5.3445    2.7943 H   0  0  0  0  0  0  0  0  0  0  0  0
    1.5810    3.8006    3.6416 H   0  0  0  0  0  0  0  0  0  0  0  0
    2.0038    3.9593    1.9340 H   0  0  0  0  0  0  0  0  0  0  0  0
   -2.6405    4.8103    4.9593 H   0  0  0  0  0  0  0  0  0  0  0  0
   -4.7898    5.0004    6.1602 H   0  0  0  0  0  0  0  0  0  0  0  0
   -6.8229    3.9182    5.2649 H   0  0  0  0  0  0  0  0  0  0  0  0
   -7.4916    1.7639    3.7394 H   0  0  0  0  0  0  0  0  0  0  0  0
   -7.8158    3.2079    2.7442 H   0  0  0  0  0  0  0  0  0  0  0  0
   -6.8632    1.8635    2.0901 H   0  0  0  0  0  0  0  0  0  0  0  0
   -2.7752    7.6801   -3.3760 H   0  0  0  0  0  0  0  0  0  0  0  0
   -2.8405    8.7445   -1.9827 H   0  0  0  0  0  0  0  0  0  0  0  0
    0.9445    8.5351   -4.0382 H   0  0  0  0  0  0  0  0  0  0  0  0
   -0.4451    7.7098   -4.7691 H   0  0  0  0  0  0  0  0  0  0  0  0
   -3.8636    9.7480   -4.0445 H   0  0  0  0  0  0  0  0  0  0  0  0
   -2.5646   10.7290   -3.3681 H   0  0  0  0  0  0  0  0  0  0  0  0
   -0.0399    9.7115   -5.9735 H   0  0  0  0  0  0  0  0  0  0  0  0
   -0.2254   10.7165   -4.5296 H   0  0  0  0  0  0  0  0  0  0  0  0
   -2.3332    8.8435   -5.7595 H   0  0  0  0  0  0  0  0  0  0  0  0
   -2.3583   10.6025   -5.8356 H   0  0  0  0  0  0  0  0  0  0  0  0
  2  1  1  0  0  0  0
  3  1  2  0  0  0  0
  4  3  1  0  0  0  0
  5  2  2  0  0  0  0
  5  4  1  0  0  0  0
  6  7  1  0  0  0  0
  7  2  1  0  0  0  0
  7 27  1  0  0  0  0
  7 28  1  0  0  0  0
  8  9  1  0  0  0  0
  9  6  1  0  0  0  0
  9 29  1  0  0  0  0
  9 30  1  0  0  0  0
 10  3  1  0  0  0  0
 11  8  1  0  0  0  0
 11 31  1  0  0  0  0
 12  6  2  0  0  0  0
 13 10  2  0  0  0  0
 13 32  1  0  0  0  0
 14  8  2  0  0  0  0
 15 13  1  0  0  0  0
 15 20  2  0  0  0  0
 16 11  1  0  0  0  0
 16 33  1  0  0  0  0
 17  5  1  0  0  0  0
 17 34  1  0  0  0  0
 17 35  1  0  0  0  0
 17 36  1  0  0  0  0
 18 10  1  0  0  0  0
 18 37  1  0  0  0  0
 19 18  2  0  0  0  0
 19 38  1  0  0  0  0
 20 19  1  0  0  0  0
 20 39  1  0  0  0  0
 21 15  1  0  0  0  0
 21 40  1  0  0  0  0
 21 41  1  0  0  0  0
 21 42  1  0  0  0  0
 22 16  1  0  0  0  0
 22 43  1  0  0  0  0
 22 44  1  0  0  0  0
 23 16  1  0  0  0  0
 23 45  1  0  0  0  0
 23 46  1  0  0  0  0
 24 22  1  0  0  0  0
 24 26  1  0  0  0  0
 24 47  1  0  0  0  0
 24 48  1  0  0  0  0
 25 23  1  0  0  0  0
 25 49  1  0  0  0  0
 25 50  1  0  0  0  0
 26 25  1  0  0  0  0
 26 51  1  0  0  0  0
 26 52  1  0  0  0  0
M  END
>  <Mol_ID>
9217

>  <Formula>
C20H26N2O3S

>  <MolWeight>
374.49704

>  <Cat>
P2690

>  <Name>
WAY-332042

>  <Synonyms>
N/A

>  <Target>
beta-catenin

>  <Form>
free base

>  <CAS>
1015858-52-2

>  <URL>
N/A

$$$$
