WAY-329800
 OpenBabel08302521453D

 44 48  0  0  0  0  0  0  0  0999 V2000
    3.5720    0.2879   -0.2787 C   0  0  0  0  0  0  0  0  0  0  0  0
    1.2680   -0.5994   -0.1018 C   0  0  0  0  0  0  0  0  0  0  0  0
    2.8424   -1.2642   -0.1292 S   0  0  0  0  0  0  0  0  0  0  0  0
    0.1627   -1.3738   -0.0108 N   0  0  0  0  0  0  0  0  0  0  0  0
    5.0223    0.4302   -0.2715 C   0  0  0  0  0  0  0  0  0  0  0  0
    2.6130    1.2738   -0.3834 C   0  0  0  0  0  0  0  0  0  0  0  0
    1.2957    0.7830   -0.1767 C   0  0  0  0  0  0  0  0  0  0  0  0
    5.4368    1.7007    0.1322 N   0  0  0  0  0  0  0  0  0  0  0  0
   -1.0044   -0.7021   -0.0043 C   0  0  0  0  0  0  0  0  0  0  0  0
   -1.0860    0.7036    0.0055 C   0  0  0  0  0  0  0  0  0  0  0  0
    9.1323    1.8664    0.5953 C   0  0  0  0  0  0  0  0  0  0  0  0
    0.0772    1.4578   -0.0740 C   0  0  0  0  0  0  0  0  0  0  0  0
    7.8819    1.3605    0.2427 C   0  0  0  0  0  0  0  0  0  0  0  0
    9.2656    3.1920    1.0214 C   0  0  0  0  0  0  0  0  0  0  0  0
    6.7445    2.1529    0.3806 C   0  0  0  0  0  0  0  0  0  0  0  0
    5.7807   -0.4853   -0.5704 O   0  0  0  0  0  0  0  0  0  0  0  0
   10.1895    0.9958    0.5066 O   0  0  0  0  0  0  0  0  0  0  0  0
   -2.3136    1.3682    0.0416 C   0  0  0  0  0  0  0  0  0  0  0  0
   10.4748    3.7553    1.3456 O   0  0  0  0  0  0  0  0  0  0  0  0
   -2.2147   -1.3907   -0.0363 C   0  0  0  0  0  0  0  0  0  0  0  0
    8.1433    3.9942    1.1500 C   0  0  0  0  0  0  0  0  0  0  0  0
   -3.5058    0.6614   -0.0199 C   0  0  0  0  0  0  0  0  0  0  0  0
    6.8836    3.4758    0.8346 C   0  0  0  0  0  0  0  0  0  0  0  0
   -3.4582   -0.7275   -0.0669 C   0  0  0  0  0  0  0  0  0  0  0  0
   -4.6104    1.4585   -0.0405 O   0  0  0  0  0  0  0  0  0  0  0  0
   11.3170    1.4830    1.2420 C   0  0  0  0  0  0  0  0  0  0  0  0
   11.5674    2.9399    0.8960 C   0  0  0  0  0  0  0  0  0  0  0  0
   -5.8619    0.8350   -0.2756 C   0  0  0  0  0  0  0  0  0  0  0  0
    2.8288    2.3181   -0.5661 H   0  0  0  0  0  0  0  0  0  0  0  0
    4.7103    2.3564    0.3781 H   0  0  0  0  0  0  0  0  0  0  0  0
    0.0505    2.5412   -0.0978 H   0  0  0  0  0  0  0  0  0  0  0  0
    7.8304    0.3345   -0.1037 H   0  0  0  0  0  0  0  0  0  0  0  0
   -2.3504    2.4541    0.0803 H   0  0  0  0  0  0  0  0  0  0  0  0
   -2.1950   -2.4788   -0.0679 H   0  0  0  0  0  0  0  0  0  0  0  0
    8.2412    5.0179    1.4986 H   0  0  0  0  0  0  0  0  0  0  0  0
    6.0176    4.1224    0.9558 H   0  0  0  0  0  0  0  0  0  0  0  0
   -4.3607   -1.3266   -0.1305 H   0  0  0  0  0  0  0  0  0  0  0  0
   12.1793    0.8678    0.9696 H   0  0  0  0  0  0  0  0  0  0  0  0
   11.1226    1.3476    2.3133 H   0  0  0  0  0  0  0  0  0  0  0  0
   11.6816    3.0803   -0.1864 H   0  0  0  0  0  0  0  0  0  0  0  0
   12.4756    3.2983    1.3878 H   0  0  0  0  0  0  0  0  0  0  0  0
   -5.8601    0.2767   -1.2171 H   0  0  0  0  0  0  0  0  0  0  0  0
   -6.1406    0.1974    0.5679 H   0  0  0  0  0  0  0  0  0  0  0  0
   -6.6103    1.6293   -0.3611 H   0  0  0  0  0  0  0  0  0  0  0  0
  2  3  1  0  0  0  0
  2  7  2  0  0  0  0
  3  1  1  0  0  0  0
  4  2  1  0  0  0  0
  5  1  1  0  0  0  0
  6  1  2  0  0  0  0
  6 29  1  0  0  0  0
  7  6  1  0  0  0  0
  8  5  1  0  0  0  0
  8 30  1  0  0  0  0
  9  4  2  0  0  0  0
  9 10  1  0  0  0  0
 10 12  2  0  0  0  0
 11 13  2  0  0  0  0
 11 14  1  0  0  0  0
 12  7  1  0  0  0  0
 12 31  1  0  0  0  0
 13 15  1  0  0  0  0
 13 32  1  0  0  0  0
 14 21  2  0  0  0  0
 15  8  1  0  0  0  0
 16  5  2  0  0  0  0
 17 11  1  0  0  0  0
 18 10  1  0  0  0  0
 18 33  1  0  0  0  0
 19 14  1  0  0  0  0
 20  9  1  0  0  0  0
 20 34  1  0  0  0  0
 21 23  1  0  0  0  0
 21 35  1  0  0  0  0
 22 18  2  0  0  0  0
 23 15  2  0  0  0  0
 23 36  1  0  0  0  0
 24 20  2  0  0  0  0
 24 22  1  0  0  0  0
 24 37  1  0  0  0  0
 25 22  1  0  0  0  0
 26 17  1  0  0  0  0
 26 27  1  0  0  0  0
 26 38  1  0  0  0  0
 26 39  1  0  0  0  0
 27 19  1  0  0  0  0
 27 40  1  0  0  0  0
 27 41  1  0  0  0  0
 28 25  1  0  0  0  0
 28 42  1  0  0  0  0
 28 43  1  0  0  0  0
 28 44  1  0  0  0  0
M  END
>  <Mol_ID>
9321

>  <Formula>
C21H16N2O4S

>  <MolWeight>
392.42774

>  <Cat>
P2600

>  <Name>
WAY-329800

>  <Synonyms>
N/A

>  <Target>
anti-infection

>  <Form>
free base

>  <CAS>
958587-47-8

>  <URL>
N/A

$$$$
