WAY-324050
 OpenBabel08302521423D

 36 39  0  0  0  0  0  0  0  0999 V2000
   -0.2213   -1.5834    0.1703 N   0  0  0  0  0  0  0  0  0  0  0  0
   -0.7515   -2.8915    0.0878 C   0  0  0  0  0  0  0  0  0  0  0  0
    1.1037   -1.1260    0.1803 C   0  0  0  0  0  0  0  0  0  0  0  0
   -1.0998   -0.5451    0.1583 N   0  0  0  0  0  0  0  0  0  0  0  0
    1.0411    0.2646    0.1028 C   0  0  0  0  0  0  0  0  0  0  0  0
   -0.0521   -4.0122    0.0016 N   0  0  0  0  0  0  0  0  0  0  0  0
   -0.3497    0.5547    0.0655 C   0  0  0  0  0  0  0  0  0  0  0  0
   -2.4528   -3.0662   -0.0224 S   0  0  0  0  0  0  0  0  0  0  0  0
   -0.8964   -5.0170   -0.4851 C   0  0  0  0  0  0  0  0  0  0  0  0
   -2.2308   -4.6394   -0.6623 C   0  0  0  0  0  0  0  0  0  0  0  0
    2.1816    1.1891    0.0277 C   0  0  0  0  0  0  0  0  0  0  0  0
    2.1717   -1.9664    0.2354 N   0  0  0  0  0  0  0  0  0  0  0  0
   -1.0699    1.8472   -0.0871 C   0  0  0  0  0  0  0  0  0  0  0  0
   -0.5226   -6.3176   -0.8880 C   0  0  0  0  0  0  0  0  0  0  0  0
   -3.1731   -5.4544   -1.3075 C   0  0  0  0  0  0  0  0  0  0  0  0
    3.3303    0.8823   -0.7120 C   0  0  0  0  0  0  0  0  0  0  0  0
    2.1239    2.4364    0.6676 C   0  0  0  0  0  0  0  0  0  0  0  0
   -2.7236   -6.6505   -1.8643 C   0  0  0  0  0  0  0  0  0  0  0  0
   -1.4270   -7.0964   -1.6272 C   0  0  0  0  0  0  0  0  0  0  0  0
    3.1532    3.3736    0.5192 C   0  0  0  0  0  0  0  0  0  0  0  0
    4.3813    1.8038   -0.8315 C   0  0  0  0  0  0  0  0  0  0  0  0
    4.2865    3.0558   -0.2218 C   0  0  0  0  0  0  0  0  0  0  0  0
    3.0849   -1.6240    0.5244 H   0  0  0  0  0  0  0  0  0  0  0  0
    2.0367   -2.9695    0.3795 H   0  0  0  0  0  0  0  0  0  0  0  0
   -1.8072    1.7839   -0.8954 H   0  0  0  0  0  0  0  0  0  0  0  0
   -1.6021    2.0884    0.8393 H   0  0  0  0  0  0  0  0  0  0  0  0
   -0.4046    2.6775   -0.3297 H   0  0  0  0  0  0  0  0  0  0  0  0
    0.4844   -6.6779   -0.7040 H   0  0  0  0  0  0  0  0  0  0  0  0
   -4.1970   -5.1202   -1.4462 H   0  0  0  0  0  0  0  0  0  0  0  0
    3.4160   -0.0676   -1.2408 H   0  0  0  0  0  0  0  0  0  0  0  0
    1.2592    2.7154    1.2622 H   0  0  0  0  0  0  0  0  0  0  0  0
   -3.3956   -7.2314   -2.4930 H   0  0  0  0  0  0  0  0  0  0  0  0
   -1.1034   -8.0464   -2.0472 H   0  0  0  0  0  0  0  0  0  0  0  0
    3.0616    4.3530    0.9862 H   0  0  0  0  0  0  0  0  0  0  0  0
    5.2639    1.5521   -1.4055 H   0  0  0  0  0  0  0  0  0  0  0  0
    5.1001    3.7792   -0.3324 H   0  0  0  0  0  0  0  0  0  0  0  0
  2  1  1  0  0  0  0
  3  1  1  0  0  0  0
  4  1  1  0  0  0  0
  5  3  2  0  0  0  0
  6  2  2  0  0  0  0
  7  4  2  0  0  0  0
  7  5  1  0  0  0  0
  8  2  1  0  0  0  0
  9  6  1  0  0  0  0
  9 10  2  0  0  0  0
 10  8  1  0  0  0  0
 11  5  1  0  0  0  0
 12  3  1  0  0  0  0
 12 23  1  0  0  0  0
 12 24  1  0  0  0  0
 13  7  1  0  0  0  0
 13 25  1  0  0  0  0
 13 26  1  0  0  0  0
 13 27  1  0  0  0  0
 14  9  1  0  0  0  0
 14 28  1  0  0  0  0
 15 10  1  0  0  0  0
 15 29  1  0  0  0  0
 16 11  2  0  0  0  0
 16 30  1  0  0  0  0
 17 11  1  0  0  0  0
 17 31  1  0  0  0  0
 18 15  2  0  0  0  0
 18 32  1  0  0  0  0
 19 14  2  0  0  0  0
 19 18  1  0  0  0  0
 19 33  1  0  0  0  0
 20 17  2  0  0  0  0
 20 34  1  0  0  0  0
 21 16  1  0  0  0  0
 21 22  2  0  0  0  0
 21 35  1  0  0  0  0
 22 20  1  0  0  0  0
 22 36  1  0  0  0  0
M  END
>  <Mol_ID>
8599

>  <Formula>
C17H14N4S

>  <MolWeight>
306.38486

>  <Cat>
P2292

>  <Name>
WAY-324050

>  <Synonyms>
N/A

>  <Target>
S1P receptor,Anti-infection

>  <Form>
free base

>  <CAS>
524057-05-4

>  <URL>
N/A

$$$$
