WAY-639251
 OpenBabel08302521433D

 36 38  0  0  0  0  0  0  0  0999 V2000
    1.0216   -0.1206   -0.0281 N   0  0  0  0  0  0  0  0  0  0  0  0
    0.2301   -1.1758    0.4351 C   0  0  0  0  0  0  0  0  0  0  0  0
    0.8068   -2.5277    0.6337 C   0  0  0  0  0  0  0  0  0  0  0  0
    0.8825   -4.5366    2.0032 N   0  0  0  0  0  0  0  0  0  0  0  0
    0.4504    2.0945    0.8403 C   0  0  0  0  0  0  0  0  0  0  0  0
    3.0836   -0.0493   -1.3960 C   0  0  0  0  0  0  0  0  0  0  0  0
    1.2311    3.6128    0.6607 S   0  0  0  0  0  0  0  0  0  0  0  0
    0.3553    1.1499   -0.3282 C   0  0  0  0  0  0  0  0  0  0  0  0
    2.4888   -0.1013   -0.0239 C   0  0  0  0  0  0  0  0  0  0  0  0
    0.4009   -3.2934    1.7244 C   0  0  0  0  0  0  0  0  0  0  0  0
    1.7864   -5.0196    1.1348 C   0  0  0  0  0  0  0  0  0  0  0  0
    2.3869   -0.6035   -2.4353 O   0  0  0  0  0  0  0  0  0  0  0  0
   -0.9611   -1.0464    0.7104 O   0  0  0  0  0  0  0  0  0  0  0  0
    0.9005    4.0508    2.2799 C   0  0  0  0  0  0  0  0  0  0  0  0
   -0.0491    1.9389    2.1203 C   0  0  0  0  0  0  0  0  0  0  0  0
    4.2995    0.4211   -1.8541 C   0  0  0  0  0  0  0  0  0  0  0  0
    1.6981   -3.1132   -0.2661 C   0  0  0  0  0  0  0  0  0  0  0  0
    3.1719   -0.5060   -3.5414 C   0  0  0  0  0  0  0  0  0  0  0  0
    0.2156    3.0648    2.9522 C   0  0  0  0  0  0  0  0  0  0  0  0
    4.3587    0.1161   -3.2360 C   0  0  0  0  0  0  0  0  0  0  0  0
    2.2265   -4.3713    0.0021 C   0  0  0  0  0  0  0  0  0  0  0  0
    2.2635   -6.2484    1.4435 O   0  0  0  0  0  0  0  0  0  0  0  0
    0.8056    1.5725   -1.2326 H   0  0  0  0  0  0  0  0  0  0  0  0
   -0.7032    0.9769   -0.5581 H   0  0  0  0  0  0  0  0  0  0  0  0
    2.8217    0.7706    0.5500 H   0  0  0  0  0  0  0  0  0  0  0  0
    2.8889   -0.9674    0.5079 H   0  0  0  0  0  0  0  0  0  0  0  0
   -0.3470   -2.9284    2.4239 H   0  0  0  0  0  0  0  0  0  0  0  0
    1.2187    5.0123    2.6607 H   0  0  0  0  0  0  0  0  0  0  0  0
   -0.5897    1.0555    2.4411 H   0  0  0  0  0  0  0  0  0  0  0  0
    5.0614    0.9013   -1.2543 H   0  0  0  0  0  0  0  0  0  0  0  0
    1.9846   -2.6084   -1.1794 H   0  0  0  0  0  0  0  0  0  0  0  0
    2.7614   -0.9257   -4.4496 H   0  0  0  0  0  0  0  0  0  0  0  0
   -0.0917    3.1500    3.9876 H   0  0  0  0  0  0  0  0  0  0  0  0
    5.1722    0.3146   -3.9204 H   0  0  0  0  0  0  0  0  0  0  0  0
    2.9527   -4.8299   -0.6576 H   0  0  0  0  0  0  0  0  0  0  0  0
    1.7499   -6.4346    2.2493 H   0  0  0  0  0  0  0  0  0  0  0  0
  2  1  1  0  0  0  0
  3  2  1  0  0  0  0
  4 10  2  0  0  0  0
  5  8  1  0  0  0  0
  6  9  1  0  0  0  0
  7  5  1  0  0  0  0
  8  1  1  0  0  0  0
  8 23  1  0  0  0  0
  8 24  1  0  0  0  0
  9  1  1  0  0  0  0
  9 25  1  0  0  0  0
  9 26  1  0  0  0  0
 10  3  1  0  0  0  0
 10 27  1  0  0  0  0
 11 21  2  0  0  0  0
 11  4  1  0  0  0  0
 12  6  1  0  0  0  0
 13  2  2  0  0  0  0
 14  7  1  0  0  0  0
 14 19  2  0  0  0  0
 14 28  1  0  0  0  0
 15  5  2  0  0  0  0
 15 29  1  0  0  0  0
 16  6  2  0  0  0  0
 16 30  1  0  0  0  0
 17  3  2  0  0  0  0
 17 31  1  0  0  0  0
 18 12  1  0  0  0  0
 18 20  2  0  0  0  0
 18 32  1  0  0  0  0
 19 15  1  0  0  0  0
 19 33  1  0  0  0  0
 20 16  1  0  0  0  0
 20 34  1  0  0  0  0
 21 17  1  0  0  0  0
 21 35  1  0  0  0  0
 22 11  1  0  0  0  0
 22 36  1  0  0  0  0
M  END
>  <Mol_ID>
8808

>  <Formula>
C16H14N2O3S

>  <MolWeight>
314.35896

>  <Cat>
P3072

>  <Name>
WAY-639251

>  <Synonyms>
N/A

>  <Target>
Aslfm

>  <Form>
free base

>  <CAS>
796055-86-2

>  <URL>
N/A

$$$$
