WAY-355344
 OpenBabel08302521393D

 49 52  0  0  0  0  0  0  0  0999 V2000
   -2.8862   -0.3709    3.1436 N   0  0  0  0  0  0  0  0  0  0  0  0
   -3.0556    0.6577    4.0734 C   0  0  0  0  0  0  0  0  0  0  0  0
   -3.2845    1.7746    3.4073 N   0  0  0  0  0  0  0  0  0  0  0  0
   -2.9238    0.2406    1.9118 C   0  0  0  0  0  0  0  0  0  0  0  0
   -3.1747    1.5206    2.0632 N   0  0  0  0  0  0  0  0  0  0  0  0
   -2.1162   -3.1171   -1.6504 N   0  0  0  0  0  0  0  0  0  0  0  0
   -3.3158   -2.4696   -1.2726 C   0  0  0  0  0  0  0  0  0  0  0  0
   -1.8645   -3.5816   -3.0029 C   0  0  0  0  0  0  0  0  0  0  0  0
   -2.4543   -0.4338    0.3805 S   0  0  0  0  0  0  0  0  0  0  0  0
   -3.0606    0.5467    5.5421 C   0  0  0  0  0  0  0  0  0  0  0  0
   -3.4335   -1.9327    0.1534 C   0  0  0  0  0  0  0  0  0  0  0  0
   -0.6938   -4.3219   -3.2935 C   0  0  0  0  0  0  0  0  0  0  0  0
   -4.3237   -2.3754   -1.9796 O   0  0  0  0  0  0  0  0  0  0  0  0
   -2.9123   -1.7791    3.4332 C   0  0  0  0  0  0  0  0  0  0  0  0
   -0.9571   -3.2033   -0.7435 C   0  0  0  0  0  0  0  0  0  0  0  0
   -2.7211   -3.2954   -4.0784 C   0  0  0  0  0  0  0  0  0  0  0  0
   -0.2208   -4.5237   -0.8412 C   0  0  0  0  0  0  0  0  0  0  0  0
    0.3147   -4.7049   -2.2429 C   0  0  0  0  0  0  0  0  0  0  0  0
   -2.2350   -0.3546    6.2274 C   0  0  0  0  0  0  0  0  0  0  0  0
   -3.8916    1.3730    6.3064 C   0  0  0  0  0  0  0  0  0  0  0  0
   -0.3981   -4.7057   -4.6172 C   0  0  0  0  0  0  0  0  0  0  0  0
   -1.5580   -2.4760    3.4354 C   0  0  0  0  0  0  0  0  0  0  0  0
   -2.4193   -3.6840   -5.3893 C   0  0  0  0  0  0  0  0  0  0  0  0
   -1.2535   -4.3813   -5.6614 C   0  0  0  0  0  0  0  0  0  0  0  0
   -3.9517    1.2431    7.7033 C   0  0  0  0  0  0  0  0  0  0  0  0
   -2.3181   -0.5232    7.6080 C   0  0  0  0  0  0  0  0  0  0  0  0
   -3.1850    0.2757    8.3474 C   0  0  0  0  0  0  0  0  0  0  0  0
   -3.1466   -2.7378    0.8290 H   0  0  0  0  0  0  0  0  0  0  0  0
   -4.4900   -1.7168    0.3510 H   0  0  0  0  0  0  0  0  0  0  0  0
   -3.4294   -1.9413    4.3872 H   0  0  0  0  0  0  0  0  0  0  0  0
   -3.5781   -2.2480    2.7068 H   0  0  0  0  0  0  0  0  0  0  0  0
   -1.2526   -3.0899    0.2980 H   0  0  0  0  0  0  0  0  0  0  0  0
   -0.2918   -2.3650   -0.9832 H   0  0  0  0  0  0  0  0  0  0  0  0
   -3.6382   -2.7311   -3.9595 H   0  0  0  0  0  0  0  0  0  0  0  0
    0.6069   -4.5496   -0.1244 H   0  0  0  0  0  0  0  0  0  0  0  0
   -0.8991   -5.3488   -0.5824 H   0  0  0  0  0  0  0  0  0  0  0  0
    1.2078   -4.0816   -2.3798 H   0  0  0  0  0  0  0  0  0  0  0  0
    0.6159   -5.7501   -2.3709 H   0  0  0  0  0  0  0  0  0  0  0  0
   -1.4892   -0.9321    5.7027 H   0  0  0  0  0  0  0  0  0  0  0  0
   -4.5041    2.1335    5.8227 H   0  0  0  0  0  0  0  0  0  0  0  0
    0.5160   -5.2550   -4.8350 H   0  0  0  0  0  0  0  0  0  0  0  0
   -0.9402   -2.1905    2.5805 H   0  0  0  0  0  0  0  0  0  0  0  0
   -0.9771   -2.2535    4.3311 H   0  0  0  0  0  0  0  0  0  0  0  0
   -1.6981   -3.5609    3.4194 H   0  0  0  0  0  0  0  0  0  0  0  0
   -3.0990   -3.4200   -6.1960 H   0  0  0  0  0  0  0  0  0  0  0  0
   -1.0084   -4.6646   -6.6809 H   0  0  0  0  0  0  0  0  0  0  0  0
   -4.5962    1.8942    8.2810 H   0  0  0  0  0  0  0  0  0  0  0  0
   -1.6992   -1.2636    8.1025 H   0  0  0  0  0  0  0  0  0  0  0  0
   -3.2434    0.1563    9.4266 H   0  0  0  0  0  0  0  0  0  0  0  0
  2  1  1  0  0  0  0
  3  2  2  0  0  0  0
  4  1  1  0  0  0  0
  5  4  2  0  0  0  0
  5  3  1  0  0  0  0
  6  7  1  0  0  0  0
  7 11  1  0  0  0  0
  8  6  1  0  0  0  0
  9  4  1  0  0  0  0
 10  2  1  0  0  0  0
 11  9  1  0  0  0  0
 11 28  1  0  0  0  0
 11 29  1  0  0  0  0
 12  8  2  0  0  0  0
 13  7  2  0  0  0  0
 14  1  1  0  0  0  0
 14 30  1  0  0  0  0
 14 31  1  0  0  0  0
 15  6  1  0  0  0  0
 15 32  1  0  0  0  0
 15 33  1  0  0  0  0
 16  8  1  0  0  0  0
 16 34  1  0  0  0  0
 17 15  1  0  0  0  0
 17 35  1  0  0  0  0
 17 36  1  0  0  0  0
 18 17  1  0  0  0  0
 18 12  1  0  0  0  0
 18 37  1  0  0  0  0
 18 38  1  0  0  0  0
 19 10  2  0  0  0  0
 19 39  1  0  0  0  0
 20 10  1  0  0  0  0
 20 40  1  0  0  0  0
 21 12  1  0  0  0  0
 21 41  1  0  0  0  0
 22 14  1  0  0  0  0
 22 42  1  0  0  0  0
 22 43  1  0  0  0  0
 22 44  1  0  0  0  0
 23 16  2  0  0  0  0
 23 45  1  0  0  0  0
 24 23  1  0  0  0  0
 24 21  2  0  0  0  0
 24 46  1  0  0  0  0
 25 20  2  0  0  0  0
 25 47  1  0  0  0  0
 26 19  1  0  0  0  0
 26 27  2  0  0  0  0
 26 48  1  0  0  0  0
 27 25  1  0  0  0  0
 27 49  1  0  0  0  0
M  END
>  <Mol_ID>
8065

>  <Formula>
C21H22N4OS

>  <MolWeight>
378.49058

>  <Cat>
P2768

>  <Name>
WAY-355344

>  <Synonyms>
N/A

>  <Target>
11bHSD1

>  <Form>
free base

>  <CAS>
485334-20-1

>  <URL>
N/A

$$$$
