WAY-639921
 OpenBabel08302521443D

 37 40  0  0  0  0  0  0  0  0999 V2000
   -2.2580    0.7369   -0.0821 N   0  0  0  0  0  0  0  0  0  0  0  0
   -2.2324   -0.6049   -0.0210 C   0  0  0  0  0  0  0  0  0  0  0  0
   -1.0775    1.3788   -0.1740 C   0  0  0  0  0  0  0  0  0  0  0  0
   -1.1171   -1.3489   -0.0077 N   0  0  0  0  0  0  0  0  0  0  0  0
    0.1412    0.6810   -0.2614 C   0  0  0  0  0  0  0  0  0  0  0  0
    0.0455   -0.7102   -0.1274 C   0  0  0  0  0  0  0  0  0  0  0  0
   -3.5073   -1.3255    0.0351 C   0  0  0  0  0  0  0  0  0  0  0  0
   -1.0714    2.7969   -0.1724 N   0  0  0  0  0  0  0  0  0  0  0  0
   -3.2525    5.7575   -0.6841 S   0  0  0  0  0  0  0  0  0  0  0  0
   -2.3093    4.8881    0.4565 C   0  0  0  0  0  0  0  0  0  0  0  0
   -2.9546    7.2456    0.1024 C   0  0  0  0  0  0  0  0  0  0  0  0
   -1.7123    5.7424    1.3664 C   0  0  0  0  0  0  0  0  0  0  0  0
   -5.8682   -1.4606   -0.5737 N   0  0  0  0  0  0  0  0  0  0  0  0
   -2.1012    7.1011    1.1728 C   0  0  0  0  0  0  0  0  0  0  0  0
   -2.2810    3.3822    0.4149 C   0  0  0  0  0  0  0  0  0  0  0  0
   -4.6622   -0.8316   -0.5681 C   0  0  0  0  0  0  0  0  0  0  0  0
    1.4205    1.2729   -0.4121 C   0  0  0  0  0  0  0  0  0  0  0  0
   -3.6343   -2.5684    0.6748 C   0  0  0  0  0  0  0  0  0  0  0  0
    1.2079   -1.4681   -0.0972 C   0  0  0  0  0  0  0  0  0  0  0  0
   -5.9349   -2.6486    0.0618 C   0  0  0  0  0  0  0  0  0  0  0  0
   -4.8565   -3.2379    0.6966 C   0  0  0  0  0  0  0  0  0  0  0  0
    2.5752    0.4903   -0.3912 C   0  0  0  0  0  0  0  0  0  0  0  0
    2.4691   -0.8829   -0.2167 C   0  0  0  0  0  0  0  0  0  0  0  0
   -0.9040    3.1278   -1.1186 H   0  0  0  0  0  0  0  0  0  0  0  0
   -3.4194    8.1537   -0.2582 H   0  0  0  0  0  0  0  0  0  0  0  0
   -1.0631    5.4027    2.1655 H   0  0  0  0  0  0  0  0  0  0  0  0
   -1.7891    7.9290    1.7988 H   0  0  0  0  0  0  0  0  0  0  0  0
   -3.1764    3.0262   -0.1047 H   0  0  0  0  0  0  0  0  0  0  0  0
   -2.3545    3.0373    1.4565 H   0  0  0  0  0  0  0  0  0  0  0  0
   -4.6528    0.1145   -1.1053 H   0  0  0  0  0  0  0  0  0  0  0  0
    1.5133    2.3497   -0.5301 H   0  0  0  0  0  0  0  0  0  0  0  0
   -2.7717   -3.0193    1.1634 H   0  0  0  0  0  0  0  0  0  0  0  0
    1.1309   -2.5450    0.0374 H   0  0  0  0  0  0  0  0  0  0  0  0
   -6.9079   -3.1317    0.0452 H   0  0  0  0  0  0  0  0  0  0  0  0
   -4.9586   -4.1956    1.1948 H   0  0  0  0  0  0  0  0  0  0  0  0
    3.5528    0.9535   -0.4941 H   0  0  0  0  0  0  0  0  0  0  0  0
    3.3595   -1.5041   -0.1691 H   0  0  0  0  0  0  0  0  0  0  0  0
  2  1  2  0  0  0  0
  3  1  1  0  0  0  0
  4  2  1  0  0  0  0
  5  3  2  0  0  0  0
  6  5  1  0  0  0  0
  6  4  2  0  0  0  0
  7  2  1  0  0  0  0
  8  3  1  0  0  0  0
  8 24  1  0  0  0  0
  9 10  1  0  0  0  0
 10 15  1  0  0  0  0
 11  9  1  0  0  0  0
 11 14  2  0  0  0  0
 11 25  1  0  0  0  0
 12 10  2  0  0  0  0
 12 26  1  0  0  0  0
 13 16  2  0  0  0  0
 14 12  1  0  0  0  0
 14 27  1  0  0  0  0
 15  8  1  0  0  0  0
 15 28  1  0  0  0  0
 15 29  1  0  0  0  0
 16  7  1  0  0  0  0
 16 30  1  0  0  0  0
 17  5  1  0  0  0  0
 17 31  1  0  0  0  0
 18  7  2  0  0  0  0
 18 32  1  0  0  0  0
 19  6  1  0  0  0  0
 19 23  2  0  0  0  0
 19 33  1  0  0  0  0
 20 21  2  0  0  0  0
 20 13  1  0  0  0  0
 20 34  1  0  0  0  0
 21 18  1  0  0  0  0
 21 35  1  0  0  0  0
 22 17  2  0  0  0  0
 22 36  1  0  0  0  0
 23 22  1  0  0  0  0
 23 37  1  0  0  0  0
M  END
>  <Mol_ID>
9088

>  <Formula>
C18H14N4S

>  <MolWeight>
318.39556

>  <Cat>
P3095

>  <Name>
WAY-639921

>  <Synonyms>
N/A

>  <Target>
PDE-5,cGMP phosphodiesterase and TXA2 synthetase

>  <Form>
free base

>  <CAS>
157862-84-5

>  <URL>
N/A

$$$$
