WAY-637017
 OpenBabel08302521423D

 36 39  0  0  0  0  0  0  0  0999 V2000
   -1.8662   -1.3007    0.0276 C   0  0  0  0  0  0  0  0  0  0  0  0
   -0.5934   -1.7707   -0.0339 C   0  0  0  0  0  0  0  0  0  0  0  0
   -2.1324    0.1827    0.0848 C   0  0  0  0  0  0  0  0  0  0  0  0
    0.5351   -0.7955   -0.0706 C   0  0  0  0  0  0  0  0  0  0  0  0
   -4.1574   -2.1130   -1.1943 C   0  0  0  0  0  0  0  0  0  0  0  0
   -5.6630   -2.9185   -1.4122 S   0  0  0  0  0  0  0  0  0  0  0  0
   -1.0484    1.0176    0.0211 N   0  0  0  0  0  0  0  0  0  0  0  0
   -3.7734   -1.4107   -2.2384 N   0  0  0  0  0  0  0  0  0  0  0  0
   -5.7551   -2.1944   -2.9617 C   0  0  0  0  0  0  0  0  0  0  0  0
   -4.7151   -1.4493   -3.2617 N   0  0  0  0  0  0  0  0  0  0  0  0
    0.2723    0.5768   -0.0379 C   0  0  0  0  0  0  0  0  0  0  0  0
   -3.2574   -2.3242    0.2919 S   0  0  0  0  0  0  0  0  0  0  0  0
    1.8785   -1.2112   -0.0955 C   0  0  0  0  0  0  0  0  0  0  0  0
   -0.3419   -3.2353   -0.0097 C   0  0  0  0  0  0  0  0  0  0  0  0
   -3.2561    0.6610    0.2276 O   0  0  0  0  0  0  0  0  0  0  0  0
    1.3112    1.5136   -0.0343 C   0  0  0  0  0  0  0  0  0  0  0  0
   -6.8113   -2.4180   -3.7691 N   0  0  0  0  0  0  0  0  0  0  0  0
    2.9211   -0.2803   -0.0841 C   0  0  0  0  0  0  0  0  0  0  0  0
    2.6372    1.0816   -0.0544 C   0  0  0  0  0  0  0  0  0  0  0  0
   -0.2940   -3.9591   -1.2069 C   0  0  0  0  0  0  0  0  0  0  0  0
   -0.0805   -3.8852    1.2047 C   0  0  0  0  0  0  0  0  0  0  0  0
    0.2324   -5.2438    1.2192 C   0  0  0  0  0  0  0  0  0  0  0  0
    0.0194   -5.3182   -1.1882 C   0  0  0  0  0  0  0  0  0  0  0  0
    0.2858   -5.9584    0.0229 C   0  0  0  0  0  0  0  0  0  0  0  0
   -1.2565    2.0056    0.0726 H   0  0  0  0  0  0  0  0  0  0  0  0
    2.1394   -2.2675   -0.1116 H   0  0  0  0  0  0  0  0  0  0  0  0
    1.1021    2.5791   -0.0034 H   0  0  0  0  0  0  0  0  0  0  0  0
   -7.3997   -3.2253   -3.6016 H   0  0  0  0  0  0  0  0  0  0  0  0
   -6.7222   -2.1477   -4.7418 H   0  0  0  0  0  0  0  0  0  0  0  0
    3.9532   -0.6235   -0.0939 H   0  0  0  0  0  0  0  0  0  0  0  0
    3.4489    1.8050   -0.0419 H   0  0  0  0  0  0  0  0  0  0  0  0
   -0.4852   -3.4650   -2.1569 H   0  0  0  0  0  0  0  0  0  0  0  0
   -0.1043   -3.3315    2.1395 H   0  0  0  0  0  0  0  0  0  0  0  0
    0.4448   -5.7426    2.1615 H   0  0  0  0  0  0  0  0  0  0  0  0
    0.0648   -5.8768   -2.1195 H   0  0  0  0  0  0  0  0  0  0  0  0
    0.5395   -7.0154    0.0337 H   0  0  0  0  0  0  0  0  0  0  0  0
  2  1  2  0  0  0  0
  3  1  1  0  0  0  0
  4  2  1  0  0  0  0
  5 12  1  0  0  0  0
  6  5  1  0  0  0  0
  7  3  1  0  0  0  0
  7 25  1  0  0  0  0
  8  5  2  0  0  0  0
  9  6  1  0  0  0  0
 10  8  1  0  0  0  0
 10  9  2  0  0  0  0
 11  7  1  0  0  0  0
 11  4  2  0  0  0  0
 12  1  1  0  0  0  0
 13  4  1  0  0  0  0
 13 26  1  0  0  0  0
 14  2  1  0  0  0  0
 15  3  2  0  0  0  0
 16 11  1  0  0  0  0
 16 27  1  0  0  0  0
 17  9  1  0  0  0  0
 17 28  1  0  0  0  0
 17 29  1  0  0  0  0
 18 13  2  0  0  0  0
 18 30  1  0  0  0  0
 19 16  2  0  0  0  0
 19 18  1  0  0  0  0
 19 31  1  0  0  0  0
 20 14  2  0  0  0  0
 20 32  1  0  0  0  0
 21 14  1  0  0  0  0
 21 33  1  0  0  0  0
 22 21  2  0  0  0  0
 22 34  1  0  0  0  0
 23 20  1  0  0  0  0
 23 35  1  0  0  0  0
 24 22  1  0  0  0  0
 24 23  2  0  0  0  0
 24 36  1  0  0  0  0
M  END
>  <Mol_ID>
8477

>  <Formula>
C17H11ClN4OS2

>  <MolWeight>
386.87844

>  <Cat>
P3003

>  <Name>
WAY-637017

>  <Synonyms>
N/A

>  <Target>
AKT,NF-kB

>  <Form>
free base

>  <CAS>
695204-60-5

>  <URL>
N/A

$$$$
