WAY-359374-A
 OpenBabel08302521393D

 60 62  0  0  0  0  0  0  0  0999 V2000
    1.3503   -0.3222    0.0393 C   0  0  0  0  0  0  0  0  0  0  0  0
    0.9937   -0.9101    1.2304 N   0  0  0  0  0  0  0  0  0  0  0  0
    2.0517   -1.0604   -0.8689 N   0  0  0  0  0  0  0  0  0  0  0  0
   -4.6742   -0.3887    4.3338 C   0  0  0  0  0  0  0  0  0  0  0  0
   -5.7239    0.4860    4.4689 N   0  0  0  0  0  0  0  0  0  0  0  0
   -0.2266   -1.9431    3.7028 N   0  0  0  0  0  0  0  0  0  0  0  0
    2.9625   -2.1320   -0.6961 C   0  0  0  0  0  0  0  0  0  0  0  0
    0.9672    1.2551   -0.3964 S   0  0  0  0  0  0  0  0  0  0  0  0
   -6.1538    1.4755    3.5502 C   0  0  0  0  0  0  0  0  0  0  0  0
   -4.9468   -1.9986    4.6495 S   0  0  0  0  0  0  0  0  0  0  0  0
    1.1006   -0.1522    2.4826 C   0  0  0  0  0  0  0  0  0  0  0  0
   -0.1663   -1.8096    1.1637 C   0  0  0  0  0  0  0  0  0  0  0  0
    3.9518   -2.3387   -1.6785 C   0  0  0  0  0  0  0  0  0  0  0  0
   -7.1708    2.3910    3.8958 C   0  0  0  0  0  0  0  0  0  0  0  0
   -3.4869    0.1904    3.9810 N   0  0  0  0  0  0  0  0  0  0  0  0
    0.9393   -1.0512    3.7182 C   0  0  0  0  0  0  0  0  0  0  0  0
   -0.3331   -2.6699    2.4306 C   0  0  0  0  0  0  0  0  0  0  0  0
   -2.3150   -0.4222    3.3492 C   0  0  0  0  0  0  0  0  0  0  0  0
    4.1686   -1.5241   -2.7646 O   0  0  0  0  0  0  0  0  0  0  0  0
   -7.7589    2.5847    5.1197 O   0  0  0  0  0  0  0  0  0  0  0  0
   -1.4825   -1.3821    4.2253 C   0  0  0  0  0  0  0  0  0  0  0  0
    2.9257   -3.0123    0.3886 C   0  0  0  0  0  0  0  0  0  0  0  0
   -5.6890    1.4541    2.2235 C   0  0  0  0  0  0  0  0  0  0  0  0
   -7.7255    3.2145    2.9035 C   0  0  0  0  0  0  0  0  0  0  0  0
    4.7851   -3.4655   -1.6143 C   0  0  0  0  0  0  0  0  0  0  0  0
   -7.0248    2.2706    6.2940 C   0  0  0  0  0  0  0  0  0  0  0  0
    4.3190   -0.1304   -2.4798 C   0  0  0  0  0  0  0  0  0  0  0  0
    3.7555   -4.1342    0.4508 C   0  0  0  0  0  0  0  0  0  0  0  0
   -6.2587    2.2740    1.2477 C   0  0  0  0  0  0  0  0  0  0  0  0
    4.6778   -4.3713   -0.5544 C   0  0  0  0  0  0  0  0  0  0  0  0
   -7.2817    3.1516    1.5846 C   0  0  0  0  0  0  0  0  0  0  0  0
    2.1203   -0.5963   -1.7644 H   0  0  0  0  0  0  0  0  0  0  0  0
   -6.4988    0.0910    4.9965 H   0  0  0  0  0  0  0  0  0  0  0  0
    2.0896    0.3230    2.5038 H   0  0  0  0  0  0  0  0  0  0  0  0
    0.3564    0.6481    2.4860 H   0  0  0  0  0  0  0  0  0  0  0  0
   -1.0507   -1.1888    0.9918 H   0  0  0  0  0  0  0  0  0  0  0  0
   -0.0719   -2.4566    0.2828 H   0  0  0  0  0  0  0  0  0  0  0  0
   -3.4681    1.1972    4.0830 H   0  0  0  0  0  0  0  0  0  0  0  0
    1.8291   -1.6960    3.7738 H   0  0  0  0  0  0  0  0  0  0  0  0
    0.9640   -0.4479    4.6321 H   0  0  0  0  0  0  0  0  0  0  0  0
    0.4657   -3.4238    2.4343 H   0  0  0  0  0  0  0  0  0  0  0  0
   -1.2633   -3.2465    2.3764 H   0  0  0  0  0  0  0  0  0  0  0  0
   -1.6980    0.4227    3.0348 H   0  0  0  0  0  0  0  0  0  0  0  0
   -2.6786   -0.9319    2.4532 H   0  0  0  0  0  0  0  0  0  0  0  0
   -2.1020   -2.2475    4.4753 H   0  0  0  0  0  0  0  0  0  0  0  0
   -1.2806   -0.9005    5.1900 H   0  0  0  0  0  0  0  0  0  0  0  0
    2.2330   -2.8862    1.2042 H   0  0  0  0  0  0  0  0  0  0  0  0
   -4.9475    0.7288    1.9036 H   0  0  0  0  0  0  0  0  0  0  0  0
   -8.5258    3.9047    3.1624 H   0  0  0  0  0  0  0  0  0  0  0  0
    5.5299   -3.6340   -2.3878 H   0  0  0  0  0  0  0  0  0  0  0  0
   -7.2663    1.2513    6.6084 H   0  0  0  0  0  0  0  0  0  0  0  0
   -5.9455    2.4127    6.1846 H   0  0  0  0  0  0  0  0  0  0  0  0
   -7.3615    2.9420    7.0909 H   0  0  0  0  0  0  0  0  0  0  0  0
    3.4576    0.4019   -2.8977 H   0  0  0  0  0  0  0  0  0  0  0  0
    4.4245    0.1021   -1.4140 H   0  0  0  0  0  0  0  0  0  0  0  0
    5.2063    0.2436   -2.9975 H   0  0  0  0  0  0  0  0  0  0  0  0
    3.6626   -4.8253    1.2851 H   0  0  0  0  0  0  0  0  0  0  0  0
   -5.9290    2.1960    0.2146 H   0  0  0  0  0  0  0  0  0  0  0  0
    5.3121   -5.2513   -0.5198 H   0  0  0  0  0  0  0  0  0  0  0  0
   -7.7448    3.7741    0.8225 H   0  0  0  0  0  0  0  0  0  0  0  0
  2  1  1  0  0  0  0
  3  1  1  0  0  0  0
  3 32  1  0  0  0  0
  4 15  1  0  0  0  0
  5  4  1  0  0  0  0
  5 33  1  0  0  0  0
  6 17  1  0  0  0  0
  7  3  1  0  0  0  0
  8  1  2  0  0  0  0
  9  5  1  0  0  0  0
 10  4  2  0  0  0  0
 11  2  1  0  0  0  0
 11 34  1  0  0  0  0
 11 35  1  0  0  0  0
 12  2  1  0  0  0  0
 12 36  1  0  0  0  0
 12 37  1  0  0  0  0
 13  7  2  0  0  0  0
 14  9  2  0  0  0  0
 15 18  1  0  0  0  0
 15 38  1  0  0  0  0
 16 11  1  0  0  0  0
 16  6  1  0  0  0  0
 16 39  1  0  0  0  0
 16 40  1  0  0  0  0
 17 12  1  0  0  0  0
 17 41  1  0  0  0  0
 17 42  1  0  0  0  0
 18 21  1  0  0  0  0
 18 43  1  0  0  0  0
 18 44  1  0  0  0  0
 19 13  1  0  0  0  0
 20 14  1  0  0  0  0
 21  6  1  0  0  0  0
 21 45  1  0  0  0  0
 21 46  1  0  0  0  0
 22  7  1  0  0  0  0
 22 47  1  0  0  0  0
 23  9  1  0  0  0  0
 23 48  1  0  0  0  0
 24 14  1  0  0  0  0
 24 31  2  0  0  0  0
 24 49  1  0  0  0  0
 25 13  1  0  0  0  0
 25 30  2  0  0  0  0
 25 50  1  0  0  0  0
 26 20  1  0  0  0  0
 26 51  1  0  0  0  0
 26 52  1  0  0  0  0
 26 53  1  0  0  0  0
 27 19  1  0  0  0  0
 27 54  1  0  0  0  0
 27 55  1  0  0  0  0
 27 56  1  0  0  0  0
 28 22  2  0  0  0  0
 28 57  1  0  0  0  0
 29 23  2  0  0  0  0
 29 58  1  0  0  0  0
 30 28  1  0  0  0  0
 30 59  1  0  0  0  0
 31 29  1  0  0  0  0
 31 60  1  0  0  0  0
M  END
>  <Mol_ID>
8083

>  <Formula>
C22H29N5O2S2

>  <MolWeight>
459.62796

>  <Cat>
P2787

>  <Name>
WAY-359374-A

>  <Synonyms>
N/A

>  <Target>
Anti-infection Microbiology

>  <Form>
free base

>  <CAS>
62345-62-4

>  <URL>
N/A

$$$$
