WAY-300286
 OpenBabel08302521413D

 52 55  0  0  0  0  0  0  0  0999 V2000
   -1.1722    1.5593    0.0948 C   0  0  3  0  0  0  0  0  0  0  0  0
    0.1084    0.7123    0.1606 C   0  0  0  0  0  0  0  0  0  0  0  0
   -1.1372    2.6430   -1.0327 C   0  0  0  0  0  0  0  0  0  0  0  0
   -2.3700    0.6616   -0.2272 C   0  0  0  0  0  0  0  0  0  0  0  0
   -1.3677    2.2507    1.4751 C   0  0  0  0  0  0  0  0  0  0  0  0
    0.1278   -0.7103    0.0563 C   0  0  0  0  0  0  0  0  0  0  0  0
    1.3265    1.4376    0.3208 C   0  0  0  0  0  0  0  0  0  0  0  0
   -0.4111    2.4343   -2.2229 C   0  0  0  0  0  0  0  0  0  0  0  0
   -1.8707    3.8420   -0.9312 C   0  0  0  0  0  0  0  0  0  0  0  0
   -2.3544   -0.7401    0.4173 C   0  0  0  0  0  0  0  0  0  0  0  0
   -1.1143   -1.4869   -0.0577 N   0  0  0  0  0  0  0  0  0  0  0  0
    1.4032   -1.2912    0.1119 C   0  0  0  0  0  0  0  0  0  0  0  0
    2.5602    0.8071    0.3326 C   0  0  0  0  0  0  0  0  0  0  0  0
   -0.3856    3.3950   -3.2391 C   0  0  0  0  0  0  0  0  0  0  0  0
   -1.8532    4.7978   -1.9524 C   0  0  0  0  0  0  0  0  0  0  0  0
   -2.3643   -0.7524    1.9613 C   0  0  0  0  0  0  0  0  0  0  0  0
   -3.7418   -1.3282    0.0043 C   0  0  0  0  0  0  0  0  0  0  0  0
   -1.2361   -2.8552   -0.3553 C   0  0  0  0  0  0  0  0  0  0  0  0
    2.5968   -0.5631    0.2251 C   0  0  0  0  0  0  0  0  0  0  0  0
   -1.1077    4.5756   -3.1045 C   0  0  0  0  0  0  0  0  0  0  0  0
   -0.0931   -3.7808   -0.7358 C   0  0  0  0  0  0  0  0  0  0  0  0
   -2.3399   -3.4293   -0.3707 O   0  0  0  0  0  0  0  0  0  0  0  0
    0.6012   -4.6407    0.7129 S   0  0  0  0  0  0  0  0  0  0  0  0
   -0.6752   -5.5521    1.4191 C   0  0  0  0  0  0  0  0  0  0  0  0
   -1.9365   -5.6420    0.9214 N   0  0  0  0  0  0  0  0  0  0  0  0
   -0.5875   -6.2741    2.5118 N   0  0  0  0  0  0  0  0  0  0  0  0
   -2.6202   -6.4537    1.7746 C   0  0  0  0  0  0  0  0  0  0  0  0
   -1.8223   -6.8485    2.7356 N   0  0  0  0  0  0  0  0  0  0  0  0
   -2.4176    0.5024   -1.3171 H   0  0  0  0  0  0  0  0  0  0  0  0
   -3.2990    1.1944    0.0218 H   0  0  0  0  0  0  0  0  0  0  0  0
   -1.2154    1.5766    2.3197 H   0  0  0  0  0  0  0  0  0  0  0  0
   -0.6591    3.0757    1.6190 H   0  0  0  0  0  0  0  0  0  0  0  0
   -2.3753    2.6668    1.5855 H   0  0  0  0  0  0  0  0  0  0  0  0
    1.3105    2.5219    0.4072 H   0  0  0  0  0  0  0  0  0  0  0  0
    0.1564    1.5187   -2.3759 H   0  0  0  0  0  0  0  0  0  0  0  0
   -2.4781    4.0628   -0.0578 H   0  0  0  0  0  0  0  0  0  0  0  0
    1.5788   -2.3474    0.1336 H   0  0  0  0  0  0  0  0  0  0  0  0
    3.4770    1.3810    0.4333 H   0  0  0  0  0  0  0  0  0  0  0  0
    0.1989    3.2165   -4.1379 H   0  0  0  0  0  0  0  0  0  0  0  0
   -2.4264    5.7148   -1.8458 H   0  0  0  0  0  0  0  0  0  0  0  0
   -3.1219   -0.0703    2.3619 H   0  0  0  0  0  0  0  0  0  0  0  0
   -2.5874   -1.7574    2.3400 H   0  0  0  0  0  0  0  0  0  0  0  0
   -1.3942   -0.4926    2.3936 H   0  0  0  0  0  0  0  0  0  0  0  0
   -3.8003   -1.5201   -1.0726 H   0  0  0  0  0  0  0  0  0  0  0  0
   -3.9897   -2.2478    0.5462 H   0  0  0  0  0  0  0  0  0  0  0  0
   -4.5524   -0.6329    0.2588 H   0  0  0  0  0  0  0  0  0  0  0  0
    3.5471   -1.0910    0.2519 H   0  0  0  0  0  0  0  0  0  0  0  0
   -1.0953    5.3181   -3.8977 H   0  0  0  0  0  0  0  0  0  0  0  0
   -0.4965   -4.5566   -1.3995 H   0  0  0  0  0  0  0  0  0  0  0  0
    0.6563   -3.2827   -1.3535 H   0  0  0  0  0  0  0  0  0  0  0  0
   -2.3236   -5.1299    0.1398 H   0  0  0  0  0  0  0  0  0  0  0  0
   -3.6628   -6.7024    1.6503 H   0  0  0  0  0  0  0  0  0  0  0  0
  1  2  1  0  0  0  0
  1  3  1  0  0  0  0
  1  4  1  0  0  0  0
  1  5  1  0  0  0  0
  2  6  2  0  0  0  0
  2  7  1  0  0  0  0
  3  8  2  0  0  0  0
  3  9  1  0  0  0  0
  4 10  1  0  0  0  0
  4 29  1  0  0  0  0
  4 30  1  0  0  0  0
  5 31  1  0  0  0  0
  5 32  1  0  0  0  0
  5 33  1  0  0  0  0
  6 11  1  0  0  0  0
  6 12  1  0  0  0  0
  7 13  2  0  0  0  0
  7 34  1  0  0  0  0
  8 14  1  0  0  0  0
  8 35  1  0  0  0  0
  9 15  2  0  0  0  0
  9 36  1  0  0  0  0
 10 16  1  0  0  0  0
 10 17  1  0  0  0  0
 10 11  1  0  0  0  0
 11 18  1  0  0  0  0
 12 19  2  0  0  0  0
 12 37  1  0  0  0  0
 13 19  1  0  0  0  0
 13 38  1  0  0  0  0
 14 20  2  0  0  0  0
 14 39  1  0  0  0  0
 15 20  1  0  0  0  0
 15 40  1  0  0  0  0
 16 41  1  0  0  0  0
 16 42  1  0  0  0  0
 16 43  1  0  0  0  0
 17 44  1  0  0  0  0
 17 45  1  0  0  0  0
 17 46  1  0  0  0  0
 18 21  1  0  0  0  0
 18 22  2  0  0  0  0
 19 47  1  0  0  0  0
 20 48  1  0  0  0  0
 21 23  1  0  0  0  0
 21 49  1  0  0  0  0
 21 50  1  0  0  0  0
 23 24  1  0  0  0  0
 24 25  1  0  0  0  0
 24 26  2  0  0  0  0
 25 27  1  0  0  0  0
 25 51  1  0  0  0  0
 26 28  1  0  0  0  0
 27 28  2  0  0  0  0
 27 52  1  0  0  0  0
M  END
>  <Mol_ID>
8401

>  <Formula>
C22H24N4OS

>  <MolWeight>
392.51716

>  <Cat>
P2134

>  <Name>
WAY-300286

>  <Synonyms>
N/A

>  <Target>
sodium channel

>  <Form>
free base

>  <CAS>
298204-30-5

>  <URL>
N/A

$$$$
