WAY-326760
 OpenBabel08302521433D

 53 55  0  0  0  0  0  0  0  0999 V2000
    0.8843    0.0497    0.0599 C   0  0  0  0  0  0  0  0  0  0  0  0
    0.1543   -0.2978   -1.2828 C   0  0  3  0  0  0  0  0  0  0  0  0
    0.2462   -0.4099    1.2116 N   0  0  0  0  0  0  0  0  0  0  0  0
   -0.6257    0.8495   -1.7279 N   0  0  0  0  0  0  0  0  0  0  0  0
    2.6659   -0.1143    4.0550 C   0  0  0  0  0  0  0  0  0  0  0  0
   -1.8860    1.1104   -1.2545 C   0  0  0  0  0  0  0  0  0  0  0  0
    2.0471    0.1394    2.8306 C   0  0  0  0  0  0  0  0  0  0  0  0
    2.0354   -0.8999    5.0175 C   0  0  0  0  0  0  0  0  0  0  0  0
    0.8184   -0.4478    2.5112 C   0  0  0  0  0  0  0  0  0  0  0  0
   -2.4475    2.7273   -4.1479 C   0  0  0  0  0  0  0  0  0  0  0  0
    1.1408   -0.6997   -2.3757 C   0  0  0  0  0  0  0  0  0  0  0  0
    1.9147    0.7235    0.0631 O   0  0  0  0  0  0  0  0  0  0  0  0
    3.9218    0.4127    4.2269 O   0  0  0  0  0  0  0  0  0  0  0  0
   -3.1188    2.4080   -2.9917 N   0  0  0  0  0  0  0  0  0  0  0  0
    2.6108   -1.2312    6.2157 O   0  0  0  0  0  0  0  0  0  0  0  0
   -2.5035    0.3180   -0.5463 O   0  0  0  0  0  0  0  0  0  0  0  0
   -1.2498    2.9893   -4.1746 O   0  0  0  0  0  0  0  0  0  0  0  0
    0.7661   -1.4198    4.7505 C   0  0  0  0  0  0  0  0  0  0  0  0
    1.0509   -1.9484   -3.0057 C   0  0  0  0  0  0  0  0  0  0  0  0
    2.1549    0.1772   -2.7975 C   0  0  0  0  0  0  0  0  0  0  0  0
   -2.4663    2.4576   -1.6983 C   0  0  0  0  0  0  0  0  0  0  0  0
    0.1603   -1.1879    3.5058 C   0  0  0  0  0  0  0  0  0  0  0  0
    2.9755   -1.4386   -4.4001 C   0  0  0  0  0  0  0  0  0  0  0  0
    1.9638   -2.3143   -4.0114 C   0  0  0  0  0  0  0  0  0  0  0  0
    3.0644   -0.1902   -3.7903 C   0  0  0  0  0  0  0  0  0  0  0  0
    3.9352   -1.6738   -5.3469 O   0  0  0  0  0  0  0  0  0  0  0  0
   -3.3214    2.7502   -5.3732 C   0  0  0  0  0  0  0  0  0  0  0  0
    4.6515   -0.3622    5.1812 C   0  0  0  0  0  0  0  0  0  0  0  0
    3.8352   -0.5206    6.4530 C   0  0  0  0  0  0  0  0  0  0  0  0
    3.8918   -2.9293   -6.0096 C   0  0  0  0  0  0  0  0  0  0  0  0
   -0.5326   -1.1353   -1.0920 H   0  0  0  0  0  0  0  0  0  0  0  0
   -0.6675   -0.8372    1.0971 H   0  0  0  0  0  0  0  0  0  0  0  0
   -0.2143    1.4892   -2.4032 H   0  0  0  0  0  0  0  0  0  0  0  0
    2.5841    0.7716    2.1332 H   0  0  0  0  0  0  0  0  0  0  0  0
   -4.0823    2.1012   -3.0365 H   0  0  0  0  0  0  0  0  0  0  0  0
    0.2678   -2.0233    5.5000 H   0  0  0  0  0  0  0  0  0  0  0  0
    0.2740   -2.6553   -2.7272 H   0  0  0  0  0  0  0  0  0  0  0  0
    2.2651    1.1607   -2.3411 H   0  0  0  0  0  0  0  0  0  0  0  0
   -3.2110    2.7730   -0.9609 H   0  0  0  0  0  0  0  0  0  0  0  0
   -1.6683    3.2087   -1.7085 H   0  0  0  0  0  0  0  0  0  0  0  0
   -0.8108   -1.6386    3.3157 H   0  0  0  0  0  0  0  0  0  0  0  0
    1.8521   -3.2931   -4.4670 H   0  0  0  0  0  0  0  0  0  0  0  0
    3.8475    0.5026   -4.0836 H   0  0  0  0  0  0  0  0  0  0  0  0
   -3.8118    1.7829   -5.5073 H   0  0  0  0  0  0  0  0  0  0  0  0
   -4.0779    3.5364   -5.2762 H   0  0  0  0  0  0  0  0  0  0  0  0
   -2.7131    2.9618   -6.2579 H   0  0  0  0  0  0  0  0  0  0  0  0
    5.5897    0.1620    5.3890 H   0  0  0  0  0  0  0  0  0  0  0  0
    4.8993   -1.3329    4.7318 H   0  0  0  0  0  0  0  0  0  0  0  0
    4.4097   -1.0858    7.1943 H   0  0  0  0  0  0  0  0  0  0  0  0
    3.5844    0.4551    6.8853 H   0  0  0  0  0  0  0  0  0  0  0  0
    3.9967   -3.7572   -5.3017 H   0  0  0  0  0  0  0  0  0  0  0  0
    2.9755   -3.0261   -6.6016 H   0  0  0  0  0  0  0  0  0  0  0  0
    4.7418   -2.9729   -6.6977 H   0  0  0  0  0  0  0  0  0  0  0  0
  2  1  1  0  0  0  0
  2 31  1  0  0  0  0
  3  1  1  0  0  0  0
  3 32  1  0  0  0  0
  4  2  1  0  0  0  0
  4 33  1  0  0  0  0
  5  7  2  0  0  0  0
  5  8  1  0  0  0  0
  6  4  1  0  0  0  0
  7  9  1  0  0  0  0
  7 34  1  0  0  0  0
  8 18  2  0  0  0  0
  9  3  1  0  0  0  0
 10 14  1  0  0  0  0
 11  2  1  0  0  0  0
 12  1  2  0  0  0  0
 13  5  1  0  0  0  0
 14 21  1  0  0  0  0
 14 35  1  0  0  0  0
 15  8  1  0  0  0  0
 16  6  2  0  0  0  0
 17 10  2  0  0  0  0
 18 22  1  0  0  0  0
 18 36  1  0  0  0  0
 19 11  2  0  0  0  0
 19 37  1  0  0  0  0
 20 11  1  0  0  0  0
 20 38  1  0  0  0  0
 21  6  1  0  0  0  0
 21 39  1  0  0  0  0
 21 40  1  0  0  0  0
 22  9  2  0  0  0  0
 22 41  1  0  0  0  0
 23 25  1  0  0  0  0
 23 24  2  0  0  0  0
 24 19  1  0  0  0  0
 24 42  1  0  0  0  0
 25 20  2  0  0  0  0
 25 43  1  0  0  0  0
 26 23  1  0  0  0  0
 27 10  1  0  0  0  0
 27 44  1  0  0  0  0
 27 45  1  0  0  0  0
 27 46  1  0  0  0  0
 28 13  1  0  0  0  0
 28 47  1  0  0  0  0
 28 48  1  0  0  0  0
 29 15  1  0  0  0  0
 29 28  1  0  0  0  0
 29 49  1  0  0  0  0
 29 50  1  0  0  0  0
 30 26  1  0  0  0  0
 30 51  1  0  0  0  0
 30 52  1  0  0  0  0
 30 53  1  0  0  0  0
M  END
>  <Mol_ID>
8932

>  <Formula>
C21H23N3O6

>  <MolWeight>
413.42382

>  <Cat>
P2491

>  <Name>
WAY-326760

>  <Synonyms>
N/A

>  <Target>
differentiation

>  <Form>
free base

>  <CAS>
1008283-29-1

>  <URL>
N/A

$$$$
