WAY-326312
 OpenBabel08302521433D

 41 44  0  0  0  0  0  0  0  0999 V2000
   -1.8118   -1.4119   -0.7107 C   0  0  3  0  0  0  0  0  0  0  0  0
   -1.9695   -1.7383   -2.1795 C   0  0  0  0  0  0  0  0  0  0  0  0
   -2.8281   -0.2688   -0.3310 C   0  0  0  0  0  0  0  0  0  0  0  0
   -2.0782    0.9108   -0.1892 N   0  0  0  0  0  0  0  0  0  0  0  0
   -0.4838   -0.7132   -0.4999 C   0  0  0  0  0  0  0  0  0  0  0  0
   -2.3617   -0.9092   -3.2512 C   0  0  0  0  0  0  0  0  0  0  0  0
   -0.7037    0.6458   -0.2373 C   0  0  0  0  0  0  0  0  0  0  0  0
   -2.8785   -1.8439   -4.1305 N   0  0  0  0  0  0  0  0  0  0  0  0
   -1.4115   -2.8684   -2.8926 C   0  0  0  0  0  0  0  0  0  0  0  0
   -1.7871   -2.6893   -4.2276 C   0  0  0  0  0  0  0  0  0  0  0  0
    0.3426    1.5169    0.0165 C   0  0  0  0  0  0  0  0  0  0  0  0
   -4.0387   -0.3717   -0.1828 O   0  0  0  0  0  0  0  0  0  0  0  0
    0.8003   -1.2440   -0.4237 C   0  0  0  0  0  0  0  0  0  0  0  0
   -1.9123   -2.5681    0.1068 O   0  0  0  0  0  0  0  0  0  0  0  0
    1.8587   -0.3794   -0.1351 C   0  0  0  0  0  0  0  0  0  0  0  0
   -2.6798    2.2023    0.0403 C   0  0  0  0  0  0  0  0  0  0  0  0
    1.6389    0.9926    0.0643 C   0  0  0  0  0  0  0  0  0  0  0  0
   -1.6960    0.2985   -3.8625 C   0  0  0  0  0  0  0  0  0  0  0  0
    3.6121   -1.0738    0.0309 Br  0  0  0  0  0  0  0  0  0  0  0  0
   -0.4982   -3.8889   -2.5989 C   0  0  0  0  0  0  0  0  0  0  0  0
   -1.0698   -3.1786   -5.3130 C   0  0  0  0  0  0  0  0  0  0  0  0
   -2.7990    2.5587    1.5113 C   0  0  0  0  0  0  0  0  0  0  0  0
    0.2375   -4.4114   -3.6727 C   0  0  0  0  0  0  0  0  0  0  0  0
    0.0105   -3.9956   -4.9908 C   0  0  0  0  0  0  0  0  0  0  0  0
   -3.7767   -2.2707   -3.9282 H   0  0  0  0  0  0  0  0  0  0  0  0
    0.1749    2.5686    0.2227 H   0  0  0  0  0  0  0  0  0  0  0  0
    0.9730   -2.3072   -0.5578 H   0  0  0  0  0  0  0  0  0  0  0  0
   -1.5020   -2.3555    0.9598 H   0  0  0  0  0  0  0  0  0  0  0  0
   -2.1064    2.9650   -0.4968 H   0  0  0  0  0  0  0  0  0  0  0  0
   -3.6846    2.1931   -0.4009 H   0  0  0  0  0  0  0  0  0  0  0  0
    2.4728    1.6538    0.2891 H   0  0  0  0  0  0  0  0  0  0  0  0
   -0.6096    0.2408   -3.7270 H   0  0  0  0  0  0  0  0  0  0  0  0
   -1.8622    0.2985   -4.9504 H   0  0  0  0  0  0  0  0  0  0  0  0
   -2.0719    1.2395   -3.4668 H   0  0  0  0  0  0  0  0  0  0  0  0
   -0.2508   -4.1529   -1.5751 H   0  0  0  0  0  0  0  0  0  0  0  0
   -1.2840   -2.8530   -6.3218 H   0  0  0  0  0  0  0  0  0  0  0  0
   -3.3501    1.7899    2.0619 H   0  0  0  0  0  0  0  0  0  0  0  0
   -1.8136    2.6650    1.9755 H   0  0  0  0  0  0  0  0  0  0  0  0
   -3.3296    3.5102    1.6224 H   0  0  0  0  0  0  0  0  0  0  0  0
    1.0562   -5.0936   -3.4664 H   0  0  0  0  0  0  0  0  0  0  0  0
    0.6883   -4.3046   -5.7809 H   0  0  0  0  0  0  0  0  0  0  0  0
  2  1  1  0  0  0  0
  3  1  1  0  0  0  0
  4  3  1  0  0  0  0
  4  7  1  0  0  0  0
  5  1  1  0  0  0  0
  6  2  2  0  0  0  0
  7  5  2  0  0  0  0
  8  6  1  0  0  0  0
  8 10  1  0  0  0  0
  8 25  1  0  0  0  0
  9  2  1  0  0  0  0
 10  9  2  0  0  0  0
 11  7  1  0  0  0  0
 11 17  2  0  0  0  0
 11 26  1  0  0  0  0
 12  3  2  0  0  0  0
 13  5  1  0  0  0  0
 13 27  1  0  0  0  0
 14  1  1  0  0  0  0
 14 28  1  0  0  0  0
 15 13  2  0  0  0  0
 16  4  1  0  0  0  0
 16 29  1  0  0  0  0
 16 30  1  0  0  0  0
 17 15  1  0  0  0  0
 17 31  1  0  0  0  0
 18  6  1  0  0  0  0
 18 32  1  0  0  0  0
 18 33  1  0  0  0  0
 18 34  1  0  0  0  0
 19 15  1  0  0  0  0
 20  9  1  0  0  0  0
 20 35  1  0  0  0  0
 21 10  1  0  0  0  0
 21 24  2  0  0  0  0
 21 36  1  0  0  0  0
 22 16  1  0  0  0  0
 22 37  1  0  0  0  0
 22 38  1  0  0  0  0
 22 39  1  0  0  0  0
 23 20  2  0  0  0  0
 23 40  1  0  0  0  0
 24 23  1  0  0  0  0
 24 41  1  0  0  0  0
M  END
>  <Mol_ID>
8908

>  <Formula>
C19H17BrN2O2

>  <MolWeight>
385.25448

>  <Cat>
P2466

>  <Name>
WAY-326312

>  <Synonyms>
N/A

>  <Target>
Others

>  <Form>
free base

>  <CAS>
869875-89-8

>  <URL>
N/A

$$$$
