WAY-311697
 OpenBabel08302521393D

 35 37  0  0  0  0  0  0  0  0999 V2000
   -0.2011   -1.0762   -0.0039 C   0  0  0  0  0  0  0  0  0  0  0  0
    0.1410   -2.5108    0.0055 C   0  0  0  0  0  0  0  0  0  0  0  0
    0.6884   -0.0392   -0.2412 N   0  0  0  0  0  0  0  0  0  0  0  0
   -1.3934   -0.5422    0.1927 N   0  0  0  0  0  0  0  0  0  0  0  0
    1.3253   -2.9645    0.6110 C   0  0  0  0  0  0  0  0  0  0  0  0
   -0.6973   -3.4622   -0.5897 C   0  0  0  0  0  0  0  0  0  0  0  0
   -0.0096    1.1227   -0.0433 C   0  0  0  0  0  0  0  0  0  0  0  0
    2.0648   -0.1675   -0.6402 C   0  0  0  0  0  0  0  0  0  0  0  0
   -1.2661    0.8371    0.1940 N   0  0  0  0  0  0  0  0  0  0  0  0
    1.7127   -4.3051    0.5406 C   0  0  0  0  0  0  0  0  0  0  0  0
   -0.3185   -4.8152   -0.6438 C   0  0  0  0  0  0  0  0  0  0  0  0
    0.7181    2.7002   -0.1210 S   0  0  0  0  0  0  0  0  0  0  0  0
    0.8948   -5.2304   -0.0922 C   0  0  0  0  0  0  0  0  0  0  0  0
   -0.3437    3.6537    0.9943 C   0  0  0  0  0  0  0  0  0  0  0  0
    0.0951    5.0945    1.1835 C   0  0  0  0  0  0  0  0  0  0  0  0
   -0.3499    6.0992    0.3132 C   0  0  0  0  0  0  0  0  0  0  0  0
    0.8857    5.4667    2.2839 C   0  0  0  0  0  0  0  0  0  0  0  0
   -0.0741    7.4498    0.5765 C   0  0  0  0  0  0  0  0  0  0  0  0
    1.1570    6.8139    2.5471 C   0  0  0  0  0  0  0  0  0  0  0  0
    0.6609    7.8060    1.7045 C   0  0  0  0  0  0  0  0  0  0  0  0
    1.9689   -2.2749    1.1500 H   0  0  0  0  0  0  0  0  0  0  0  0
   -1.6455   -3.1641   -1.0315 H   0  0  0  0  0  0  0  0  0  0  0  0
    2.3703    0.6901   -1.2411 H   0  0  0  0  0  0  0  0  0  0  0  0
    2.6760   -0.2323    0.2638 H   0  0  0  0  0  0  0  0  0  0  0  0
    2.1866   -1.0645   -1.2546 H   0  0  0  0  0  0  0  0  0  0  0  0
    2.6534   -4.6201    0.9850 H   0  0  0  0  0  0  0  0  0  0  0  0
   -0.9731   -5.5446   -1.1145 H   0  0  0  0  0  0  0  0  0  0  0  0
    1.1923   -6.2749   -0.1500 H   0  0  0  0  0  0  0  0  0  0  0  0
   -1.3730    3.6450    0.6186 H   0  0  0  0  0  0  0  0  0  0  0  0
   -0.3610    3.1601    1.9730 H   0  0  0  0  0  0  0  0  0  0  0  0
   -0.9425    5.8492   -0.5629 H   0  0  0  0  0  0  0  0  0  0  0  0
    1.2714    4.7122    2.9645 H   0  0  0  0  0  0  0  0  0  0  0  0
   -0.4539    8.2224   -0.0874 H   0  0  0  0  0  0  0  0  0  0  0  0
    1.7368    7.0919    3.4242 H   0  0  0  0  0  0  0  0  0  0  0  0
    0.8403    8.8549    1.9301 H   0  0  0  0  0  0  0  0  0  0  0  0
  1  2  1  0  0  0  0
  1  3  1  0  0  0  0
  1  4  2  0  0  0  0
  2  5  2  0  0  0  0
  2  6  1  0  0  0  0
  3  7  1  0  0  0  0
  3  8  1  0  0  0  0
  4  9  1  0  0  0  0
  5 10  1  0  0  0  0
  5 21  1  0  0  0  0
  6 11  2  0  0  0  0
  6 22  1  0  0  0  0
  7 12  1  0  0  0  0
  7  9  2  0  0  0  0
  8 23  1  0  0  0  0
  8 24  1  0  0  0  0
  8 25  1  0  0  0  0
 10 13  2  0  0  0  0
 10 26  1  0  0  0  0
 11 13  1  0  0  0  0
 11 27  1  0  0  0  0
 12 14  1  0  0  0  0
 13 28  1  0  0  0  0
 14 15  1  0  0  0  0
 14 29  1  0  0  0  0
 14 30  1  0  0  0  0
 15 16  2  0  0  0  0
 15 17  1  0  0  0  0
 16 18  1  0  0  0  0
 16 31  1  0  0  0  0
 17 19  2  0  0  0  0
 17 32  1  0  0  0  0
 18 20  2  0  0  0  0
 18 33  1  0  0  0  0
 19 20  1  0  0  0  0
 19 34  1  0  0  0  0
 20 35  1  0  0  0  0
M  END
>  <Mol_ID>
8142

>  <Formula>
C16H15N3S

>  <MolWeight>
281.3754

>  <Cat>
P2214

>  <Name>
WAY-311697

>  <Synonyms>
N/A

>  <Target>
11bHSD1

>  <Form>
free base

>  <CAS>
482615-86-1

>  <URL>
N/A

$$$$
