WAY-621302
 OpenBabel08302521443D

 22 23  0  0  0  0  0  0  0  0999 V2000
    1.0470   -0.6691    0.5006 C   0  0  0  0  0  0  0  0  0  0  0  0
   -0.1699   -1.1597    0.0175 N   0  0  0  0  0  0  0  0  0  0  0  0
    1.1115    1.0806    0.2542 S   0  0  0  0  0  0  0  0  0  0  0  0
   -0.4415    1.0963   -0.5133 C   0  0  0  0  0  0  0  0  0  0  0  0
   -0.9163   -0.1753   -0.6455 N   0  0  0  0  0  0  0  0  0  0  0  0
   -0.6611   -2.4993    0.0355 C   0  0  0  0  0  0  0  0  0  0  0  0
    2.3730   -1.4700    1.1300 S   0  0  0  0  0  0  0  0  0  0  0  0
   -1.2875    2.4360   -0.9955 S   0  0  0  0  0  0  0  0  0  0  0  0
   -1.5112   -2.9553   -0.9906 C   0  0  0  0  0  0  0  0  0  0  0  0
   -1.9853   -4.2780   -1.0185 C   0  0  0  0  0  0  0  0  0  0  0  0
   -0.3477   -3.3936    1.0656 C   0  0  0  0  0  0  0  0  0  0  0  0
   -0.8191   -4.7083    1.0517 C   0  0  0  0  0  0  0  0  0  0  0  0
   -1.6251   -5.1526    0.0092 C   0  0  0  0  0  0  0  0  0  0  0  0
   -2.8427   -4.7750   -2.1460 C   0  0  0  0  0  0  0  0  0  0  0  0
   -1.9057   -0.3191   -0.8126 H   0  0  0  0  0  0  0  0  0  0  0  0
   -1.7730   -2.3008   -1.8187 H   0  0  0  0  0  0  0  0  0  0  0  0
    0.2354   -3.0871    1.9298 H   0  0  0  0  0  0  0  0  0  0  0  0
   -0.5521   -5.3868    1.8587 H   0  0  0  0  0  0  0  0  0  0  0  0
   -1.9698   -6.1850    0.0014 H   0  0  0  0  0  0  0  0  0  0  0  0
   -2.3280   -5.5800   -2.6803 H   0  0  0  0  0  0  0  0  0  0  0  0
   -3.7951   -5.1502   -1.7592 H   0  0  0  0  0  0  0  0  0  0  0  0
   -3.0627   -3.9800   -2.8659 H   0  0  0  0  0  0  0  0  0  0  0  0
  2  1  1  0  0  0  0
  3  1  1  0  0  0  0
  4  3  1  0  0  0  0
  5  2  1  0  0  0  0
  5  4  1  0  0  0  0
  5 15  1  0  0  0  0
  6  2  1  0  0  0  0
  7  1  2  0  0  0  0
  8  4  2  0  0  0  0
  9  6  2  0  0  0  0
  9 16  1  0  0  0  0
 10  9  1  0  0  0  0
 10 13  2  0  0  0  0
 11  6  1  0  0  0  0
 11 17  1  0  0  0  0
 12 11  2  0  0  0  0
 12 18  1  0  0  0  0
 13 12  1  0  0  0  0
 13 19  1  0  0  0  0
 14 10  1  0  0  0  0
 14 20  1  0  0  0  0
 14 21  1  0  0  0  0
 14 22  1  0  0  0  0
M  END
>  <Mol_ID>
9045

>  <Formula>
C9H8N2S3

>  <MolWeight>
240.36822

>  <Cat>
P2966

>  <Name>
WAY-621302

>  <Synonyms>
N/A

>  <Target>
soluable adenylyl cyclase

>  <Form>
free base

>  <CAS>
731827-16-0

>  <URL>
N/A

$$$$
