WAY-608168
 OpenBabel08302521443D

 45 48  0  0  0  0  0  0  0  0999 V2000
   -3.6598    0.0548   -0.2421 C   0  0  0  0  0  0  0  0  0  0  0  0
   -1.3757    0.6614   -0.1715 C   0  0  0  0  0  0  0  0  0  0  0  0
   -1.3009   -0.7122    0.0057 C   0  0  0  0  0  0  0  0  0  0  0  0
   -2.8371   -1.4379    0.0575 S   0  0  0  0  0  0  0  0  0  0  0  0
   -2.7359    1.0781   -0.4060 C   0  0  0  0  0  0  0  0  0  0  0  0
   -5.1234    0.0063   -0.3173 C   0  0  0  0  0  0  0  0  0  0  0  0
   -0.1725   -1.4491    0.1226 N   0  0  0  0  0  0  0  0  0  0  0  0
    1.0356    0.6441   -0.0201 C   0  0  0  0  0  0  0  0  0  0  0  0
   -0.1536    1.3681   -0.1291 C   0  0  0  0  0  0  0  0  0  0  0  0
    0.9848   -0.7437    0.0680 C   0  0  0  0  0  0  0  0  0  0  0  0
   -5.7823    1.1388    0.1244 N   0  0  0  0  0  0  0  0  0  0  0  0
    2.3285    1.3636   -0.0584 C   0  0  0  0  0  0  0  0  0  0  0  0
   -5.7480   -0.9883   -0.6785 O   0  0  0  0  0  0  0  0  0  0  0  0
   -3.0228    2.3454   -0.8268 N   0  0  0  0  0  0  0  0  0  0  0  0
    2.3578    2.5866    0.0385 O   0  0  0  0  0  0  0  0  0  0  0  0
   -7.2278    1.2662    0.3242 C   0  0  0  0  0  0  0  0  0  0  0  0
    2.2495   -1.5641   -0.0028 C   0  0  0  0  0  0  0  0  0  0  0  0
    3.5720    0.5469   -0.3076 C   0  0  0  0  0  0  0  0  0  0  0  0
    3.4923   -0.7854    0.4186 C   0  0  0  0  0  0  0  0  0  0  0  0
   -7.8264    0.1801    1.2418 C   0  0  0  0  0  0  0  0  0  0  0  0
   -8.0316    1.3573   -0.9777 C   0  0  0  0  0  0  0  0  0  0  0  0
   -9.4967    1.6892   -0.6736 C   0  0  0  0  0  0  0  0  0  0  0  0
   -9.3070    0.4451    1.5317 C   0  0  0  0  0  0  0  0  0  0  0  0
  -10.1299    0.6623    0.2628 C   0  0  0  0  0  0  0  0  0  0  0  0
   -0.1320    2.4507   -0.2108 H   0  0  0  0  0  0  0  0  0  0  0  0
   -5.2125    1.9393    0.3451 H   0  0  0  0  0  0  0  0  0  0  0  0
   -2.2517    2.8532   -1.2636 H   0  0  0  0  0  0  0  0  0  0  0  0
   -3.4424    2.9844   -0.1574 H   0  0  0  0  0  0  0  0  0  0  0  0
   -7.3370    2.2292    0.8424 H   0  0  0  0  0  0  0  0  0  0  0  0
    2.3688   -1.9021   -1.0402 H   0  0  0  0  0  0  0  0  0  0  0  0
    2.1529   -2.4592    0.6228 H   0  0  0  0  0  0  0  0  0  0  0  0
    4.4407    1.1090    0.0511 H   0  0  0  0  0  0  0  0  0  0  0  0
    3.6766    0.4083   -1.3899 H   0  0  0  0  0  0  0  0  0  0  0  0
    4.3907   -1.3768    0.2055 H   0  0  0  0  0  0  0  0  0  0  0  0
    3.4680   -0.6114    1.5012 H   0  0  0  0  0  0  0  0  0  0  0  0
   -7.7359   -0.8034    0.7775 H   0  0  0  0  0  0  0  0  0  0  0  0
   -7.2708    0.1428    2.1847 H   0  0  0  0  0  0  0  0  0  0  0  0
   -7.6134    2.1306   -1.6334 H   0  0  0  0  0  0  0  0  0  0  0  0
   -7.9792    0.4111   -1.5315 H   0  0  0  0  0  0  0  0  0  0  0  0
  -10.0721    1.7404   -1.6053 H   0  0  0  0  0  0  0  0  0  0  0  0
   -9.5561    2.6828   -0.2112 H   0  0  0  0  0  0  0  0  0  0  0  0
   -9.7226   -0.4009    2.0923 H   0  0  0  0  0  0  0  0  0  0  0  0
   -9.3989    1.3267    2.1775 H   0  0  0  0  0  0  0  0  0  0  0  0
  -10.2406   -0.2911   -0.2678 H   0  0  0  0  0  0  0  0  0  0  0  0
  -11.1408    0.9888    0.5366 H   0  0  0  0  0  0  0  0  0  0  0  0
  2  5  1  0  0  0  0
  2  3  2  0  0  0  0
  3  4  1  0  0  0  0
  4  1  1  0  0  0  0
  5  1  2  0  0  0  0
  6  1  1  0  0  0  0
  7  3  1  0  0  0  0
  8  9  2  0  0  0  0
  8 10  1  0  0  0  0
  9  2  1  0  0  0  0
  9 25  1  0  0  0  0
 10  7  2  0  0  0  0
 11  6  1  0  0  0  0
 11 26  1  0  0  0  0
 12  8  1  0  0  0  0
 13  6  2  0  0  0  0
 14  5  1  0  0  0  0
 14 27  1  0  0  0  0
 14 28  1  0  0  0  0
 15 12  2  0  0  0  0
 16 11  1  0  0  0  0
 16 29  1  0  0  0  0
 17 10  1  0  0  0  0
 17 30  1  0  0  0  0
 17 31  1  0  0  0  0
 18 12  1  0  0  0  0
 18 19  1  0  0  0  0
 18 32  1  0  0  0  0
 18 33  1  0  0  0  0
 19 17  1  0  0  0  0
 19 34  1  0  0  0  0
 19 35  1  0  0  0  0
 20 16  1  0  0  0  0
 20 36  1  0  0  0  0
 20 37  1  0  0  0  0
 21 16  1  0  0  0  0
 21 38  1  0  0  0  0
 21 39  1  0  0  0  0
 22 21  1  0  0  0  0
 22 40  1  0  0  0  0
 22 41  1  0  0  0  0
 23 20  1  0  0  0  0
 23 42  1  0  0  0  0
 23 43  1  0  0  0  0
 24 22  1  0  0  0  0
 24 23  1  0  0  0  0
 24 44  1  0  0  0  0
 24 45  1  0  0  0  0
M  END
>  <Mol_ID>
9031

>  <Formula>
C18H21N3O2S

>  <MolWeight>
343.44324

>  <Cat>
P2911

>  <Name>
WAY-608168

>  <Synonyms>
N/A

>  <Target>
PLC

>  <Form>
free base

>  <CAS>
442557-68-8

>  <URL>
N/A

$$$$
