WAY-332034
 OpenBabel08302521443D

 49 51  0  0  0  0  0  0  0  0999 V2000
   -0.5096    0.2925   -1.0204 N   0  0  0  0  0  0  0  0  0  0  0  0
    0.1934    0.9994   -0.0705 C   0  0  0  0  0  0  0  0  0  0  0  0
   -0.5495   -0.9427   -0.5640 C   0  0  0  0  0  0  0  0  0  0  0  0
    0.0990   -1.1092    0.6316 O   0  0  0  0  0  0  0  0  0  0  0  0
    0.5831    0.1343    0.9335 C   0  0  0  0  0  0  0  0  0  0  0  0
   -0.3386    3.2491   -1.6375 S   0  0  3  0  0  0  0  0  0  0  0  0
    0.4291    2.4618   -0.1816 C   0  0  0  0  0  0  0  0  0  0  0  0
   -2.0744    2.9697   -1.1726 C   0  0  0  0  0  0  0  0  0  0  0  0
   -1.1870   -2.1110   -1.1594 C   0  0  0  0  0  0  0  0  0  0  0  0
   -3.0455    3.2911   -2.2923 C   0  0  0  0  0  0  0  0  0  0  0  0
   -4.3640    3.0466   -1.9460 N   0  0  0  0  0  0  0  0  0  0  0  0
   -0.0627    4.7221   -1.5096 O   0  0  0  0  0  0  0  0  0  0  0  0
   -1.8637   -1.9774   -2.3851 C   0  0  0  0  0  0  0  0  0  0  0  0
   -2.7254    3.6978   -3.4041 O   0  0  0  0  0  0  0  0  0  0  0  0
   -5.4597    3.3052   -2.8554 C   0  0  0  0  0  0  0  0  0  0  0  0
   -2.4736   -3.0784   -3.0014 C   0  0  0  0  0  0  0  0  0  0  0  0
    1.3611    0.2572    2.1793 C   0  0  0  0  0  0  0  0  0  0  0  0
   -6.2797    2.0670   -3.1184 C   0  0  0  0  0  0  0  0  0  0  0  0
   -1.1426   -3.3708   -0.5498 C   0  0  0  0  0  0  0  0  0  0  0  0
   -1.7452   -4.4740   -1.1552 C   0  0  0  0  0  0  0  0  0  0  0  0
   -2.4054   -4.3276   -2.3774 C   0  0  0  0  0  0  0  0  0  0  0  0
   -3.1813   -2.9356   -4.3173 C   0  0  0  0  0  0  0  0  0  0  0  0
   -7.6375    2.0154   -2.7734 C   0  0  0  0  0  0  0  0  0  0  0  0
   -5.7081    0.9658   -3.7742 C   0  0  0  0  0  0  0  0  0  0  0  0
   -8.4089    0.8949   -3.0911 C   0  0  0  0  0  0  0  0  0  0  0  0
   -6.4809   -0.1542   -4.0885 C   0  0  0  0  0  0  0  0  0  0  0  0
   -7.8321   -0.1866   -3.7540 C   0  0  0  0  0  0  0  0  0  0  0  0
    0.0687    2.9808    0.7125 H   0  0  0  0  0  0  0  0  0  0  0  0
    1.5063    2.6454   -0.2650 H   0  0  0  0  0  0  0  0  0  0  0  0
   -2.2331    1.9225   -0.9130 H   0  0  0  0  0  0  0  0  0  0  0  0
   -2.3009    3.5895   -0.3002 H   0  0  0  0  0  0  0  0  0  0  0  0
   -4.5900    2.6627   -1.0388 H   0  0  0  0  0  0  0  0  0  0  0  0
   -1.9072   -1.0004   -2.8660 H   0  0  0  0  0  0  0  0  0  0  0  0
   -5.1032    3.7132   -3.8076 H   0  0  0  0  0  0  0  0  0  0  0  0
   -6.0763    4.0783   -2.3822 H   0  0  0  0  0  0  0  0  0  0  0  0
    0.7691   -0.0687    3.0398 H   0  0  0  0  0  0  0  0  0  0  0  0
    2.2615   -0.3630    2.1270 H   0  0  0  0  0  0  0  0  0  0  0  0
    1.6729    1.2918    2.3533 H   0  0  0  0  0  0  0  0  0  0  0  0
   -0.6313   -3.5074    0.4007 H   0  0  0  0  0  0  0  0  0  0  0  0
   -1.6990   -5.4480   -0.6792 H   0  0  0  0  0  0  0  0  0  0  0  0
   -2.8640   -5.1977   -2.8432 H   0  0  0  0  0  0  0  0  0  0  0  0
   -2.6959   -3.5593   -5.0737 H   0  0  0  0  0  0  0  0  0  0  0  0
   -4.2279   -3.2427   -4.2162 H   0  0  0  0  0  0  0  0  0  0  0  0
   -3.1692   -1.9011   -4.6730 H   0  0  0  0  0  0  0  0  0  0  0  0
   -8.1125    2.8553   -2.2714 H   0  0  0  0  0  0  0  0  0  0  0  0
   -4.6583    0.9885   -4.0613 H   0  0  0  0  0  0  0  0  0  0  0  0
   -9.4656    0.8715   -2.8345 H   0  0  0  0  0  0  0  0  0  0  0  0
   -6.0297   -0.9942   -4.6111 H   0  0  0  0  0  0  0  0  0  0  0  0
   -8.4374   -1.0497   -4.0172 H   0  0  0  0  0  0  0  0  0  0  0  0
  2  1  1  0  0  0  0
  3  1  2  0  0  0  0
  4  3  1  0  0  0  0
  5  2  2  0  0  0  0
  5  4  1  0  0  0  0
  6  7  1  0  0  0  0
  7  2  1  0  0  0  0
  7 28  1  0  0  0  0
  7 29  1  0  0  0  0
  8  6  1  0  0  0  0
  8 30  1  0  0  0  0
  8 31  1  0  0  0  0
  9  3  1  0  0  0  0
 10  8  1  0  0  0  0
 11 10  1  0  0  0  0
 11 32  1  0  0  0  0
 12  6  2  0  0  0  0
 13  9  2  0  0  0  0
 13 33  1  0  0  0  0
 14 10  2  0  0  0  0
 15 11  1  0  0  0  0
 15 34  1  0  0  0  0
 15 35  1  0  0  0  0
 16 13  1  0  0  0  0
 16 21  2  0  0  0  0
 17  5  1  0  0  0  0
 17 36  1  0  0  0  0
 17 37  1  0  0  0  0
 17 38  1  0  0  0  0
 18 15  1  0  0  0  0
 19  9  1  0  0  0  0
 19 39  1  0  0  0  0
 20 19  2  0  0  0  0
 20 40  1  0  0  0  0
 21 20  1  0  0  0  0
 21 41  1  0  0  0  0
 22 16  1  0  0  0  0
 22 42  1  0  0  0  0
 22 43  1  0  0  0  0
 22 44  1  0  0  0  0
 23 18  2  0  0  0  0
 23 45  1  0  0  0  0
 24 18  1  0  0  0  0
 24 46  1  0  0  0  0
 25 23  1  0  0  0  0
 25 47  1  0  0  0  0
 26 24  2  0  0  0  0
 26 48  1  0  0  0  0
 27 26  1  0  0  0  0
 27 25  2  0  0  0  0
 27 49  1  0  0  0  0
M  END
>  <Mol_ID>
9210

>  <Formula>
C21H22N2O3S

>  <MolWeight>
382.47598

>  <Cat>
P2682

>  <Name>
WAY-332034

>  <Synonyms>
N/A

>  <Target>
beta-catenin

>  <Form>
free base

>  <CAS>
1015858-17-9

>  <URL>
N/A

$$$$
