WAY-327376
 OpenBabel08302521443D

 55 58  0  0  0  0  0  0  0  0999 V2000
    0.8814   -0.0065    0.0319 S   0  0  0  0  0  0  0  0  0  0  0  0
    0.0597    4.4862    4.3821 C   0  0  0  0  0  0  0  0  0  0  0  0
    0.4940    4.4299    3.0593 C   0  0  0  0  0  0  0  0  0  0  0  0
   -0.3097    3.2301    4.7973 O   0  0  0  0  0  0  0  0  0  0  0  0
    0.3881    3.0617    2.6547 C   0  0  0  0  0  0  0  0  0  0  0  0
    0.0978    0.7601   -1.2216 N   0  0  0  0  0  0  0  0  0  0  0  0
    0.3970    0.9587    1.4558 C   0  0  0  0  0  0  0  0  0  0  0  0
   -0.1495    2.3835    3.7407 C   0  0  0  0  0  0  0  0  0  0  0  0
   -0.1154    5.6107    5.2937 C   0  0  0  0  0  0  0  0  0  0  0  0
    0.6868    2.3341    1.4827 C   0  0  0  0  0  0  0  0  0  0  0  0
   -0.0817    5.2926    6.6378 N   0  0  0  0  0  0  0  0  0  0  0  0
    2.3088    0.1754   -0.1167 O   0  0  0  0  0  0  0  0  0  0  0  0
    0.2932   -1.3206    0.1796 O   0  0  0  0  0  0  0  0  0  0  0  0
    0.7271    6.7978    8.5122 C   0  0  0  0  0  0  0  0  0  0  0  0
   -0.4160    6.2508    7.6826 C   0  0  0  0  0  0  0  0  0  0  0  0
   -0.1982    0.3186    2.5495 C   0  0  0  0  0  0  0  0  0  0  0  0
   -0.4746    1.0264    3.7275 C   0  0  0  0  0  0  0  0  0  0  0  0
   -0.2854    6.7632    4.9055 O   0  0  0  0  0  0  0  0  0  0  0  0
    0.5572    7.6735    9.6080 C   0  0  0  0  0  0  0  0  0  0  0  0
   -1.3790    2.5729   -2.8287 O   0  0  0  0  0  0  0  0  0  0  0  0
    0.8027    1.6218   -2.1886 C   0  0  0  0  0  0  0  0  0  0  0  0
   -1.3304    0.5272   -1.4940 C   0  0  0  0  0  0  0  0  0  0  0  0
    0.9715    5.5512    2.2091 C   0  0  0  0  0  0  0  0  0  0  0  0
   -0.5715    8.1921   10.1774 O   0  0  0  0  0  0  0  0  0  0  0  0
   -0.0212    2.8819   -2.4833 C   0  0  0  0  0  0  0  0  0  0  0  0
   -2.0209    1.8667   -1.7566 C   0  0  0  0  0  0  0  0  0  0  0  0
    2.0551    6.4561    8.1590 C   0  0  0  0  0  0  0  0  0  0  0  0
    1.6914    8.1662   10.2878 C   0  0  0  0  0  0  0  0  0  0  0  0
   -1.8725    7.8356    9.7632 C   0  0  0  0  0  0  0  0  0  0  0  0
    3.1652    6.9550    8.8487 C   0  0  0  0  0  0  0  0  0  0  0  0
    2.9837    7.8161    9.9151 C   0  0  0  0  0  0  0  0  0  0  0  0
    1.1520    2.8229    0.6328 H   0  0  0  0  0  0  0  0  0  0  0  0
    0.0941    4.3285    6.8937 H   0  0  0  0  0  0  0  0  0  0  0  0
   -0.9476    7.0873    7.2188 H   0  0  0  0  0  0  0  0  0  0  0  0
   -1.1011    5.7015    8.3354 H   0  0  0  0  0  0  0  0  0  0  0  0
   -0.4262   -0.7461    2.5072 H   0  0  0  0  0  0  0  0  0  0  0  0
   -0.9110    0.5417    4.5931 H   0  0  0  0  0  0  0  0  0  0  0  0
    0.9510    1.0491   -3.1114 H   0  0  0  0  0  0  0  0  0  0  0  0
    1.7860    1.9265   -1.8195 H   0  0  0  0  0  0  0  0  0  0  0  0
   -1.4116   -0.1189   -2.3761 H   0  0  0  0  0  0  0  0  0  0  0  0
   -1.8214    0.0249   -0.6554 H   0  0  0  0  0  0  0  0  0  0  0  0
    1.9978    5.3631    1.8773 H   0  0  0  0  0  0  0  0  0  0  0  0
    0.3368    5.6480    1.3219 H   0  0  0  0  0  0  0  0  0  0  0  0
    0.9618    6.5091    2.7338 H   0  0  0  0  0  0  0  0  0  0  0  0
   -0.0235    3.5570   -1.6195 H   0  0  0  0  0  0  0  0  0  0  0  0
    0.4211    3.4250   -3.3245 H   0  0  0  0  0  0  0  0  0  0  0  0
   -3.0647    1.7023   -2.0398 H   0  0  0  0  0  0  0  0  0  0  0  0
   -2.0111    2.4954   -0.8579 H   0  0  0  0  0  0  0  0  0  0  0  0
    2.2515    5.7975    7.3162 H   0  0  0  0  0  0  0  0  0  0  0  0
    1.5496    8.8458   11.1261 H   0  0  0  0  0  0  0  0  0  0  0  0
   -2.0594    8.1317    8.7297 H   0  0  0  0  0  0  0  0  0  0  0  0
   -2.0684    6.7754    9.9394 H   0  0  0  0  0  0  0  0  0  0  0  0
   -2.5780    8.3981   10.3845 H   0  0  0  0  0  0  0  0  0  0  0  0
    4.1693    6.6758    8.5408 H   0  0  0  0  0  0  0  0  0  0  0  0
    3.8362    8.2239   10.4530 H   0  0  0  0  0  0  0  0  0  0  0  0
  2  3  2  0  0  0  0
  3  5  1  0  0  0  0
  4  8  1  0  0  0  0
  4  2  1  0  0  0  0
  5 10  2  0  0  0  0
  5  8  1  0  0  0  0
  6  1  1  0  0  0  0
  7  1  1  0  0  0  0
  8 17  2  0  0  0  0
  9  2  1  0  0  0  0
 10  7  1  0  0  0  0
 10 32  1  0  0  0  0
 11  9  1  0  0  0  0
 11 33  1  0  0  0  0
 12  1  2  0  0  0  0
 13  1  2  0  0  0  0
 14 15  1  0  0  0  0
 15 11  1  0  0  0  0
 15 34  1  0  0  0  0
 15 35  1  0  0  0  0
 16  7  2  0  0  0  0
 16 36  1  0  0  0  0
 17 16  1  0  0  0  0
 17 37  1  0  0  0  0
 18  9  2  0  0  0  0
 19 14  2  0  0  0  0
 20 26  1  0  0  0  0
 20 25  1  0  0  0  0
 21  6  1  0  0  0  0
 21 38  1  0  0  0  0
 21 39  1  0  0  0  0
 22  6  1  0  0  0  0
 22 40  1  0  0  0  0
 22 41  1  0  0  0  0
 23  3  1  0  0  0  0
 23 42  1  0  0  0  0
 23 43  1  0  0  0  0
 23 44  1  0  0  0  0
 24 19  1  0  0  0  0
 25 21  1  0  0  0  0
 25 45  1  0  0  0  0
 25 46  1  0  0  0  0
 26 22  1  0  0  0  0
 26 47  1  0  0  0  0
 26 48  1  0  0  0  0
 27 14  1  0  0  0  0
 27 49  1  0  0  0  0
 28 19  1  0  0  0  0
 28 31  2  0  0  0  0
 28 50  1  0  0  0  0
 29 24  1  0  0  0  0
 29 51  1  0  0  0  0
 29 52  1  0  0  0  0
 29 53  1  0  0  0  0
 30 27  2  0  0  0  0
 30 54  1  0  0  0  0
 31 30  1  0  0  0  0
 31 55  1  0  0  0  0
M  END
>  <Mol_ID>
8971

>  <Formula>
C22H24N2O6S

>  <MolWeight>
444.50076

>  <Cat>
P2531

>  <Name>
WAY-327376

>  <Synonyms>
N/A

>  <Target>
calcium channel

>  <Form>
free base

>  <CAS>
687570-46-3

>  <URL>
N/A

$$$$
