WAY-639917
 OpenBabel08302521443D

 36 39  0  0  0  0  0  0  0  0999 V2000
   -1.2265   -3.5320    0.7775 C   0  0  0  0  0  0  0  0  0  0  0  0
    0.0083   -3.2242    1.4316 C   0  0  0  0  0  0  0  0  0  0  0  0
   -2.1075   -2.6070    0.0362 C   0  0  0  0  0  0  0  0  0  0  0  0
   -1.4795   -4.8569    0.8400 N   0  0  0  0  0  0  0  0  0  0  0  0
    0.4646   -4.4401    1.9338 C   0  0  0  0  0  0  0  0  0  0  0  0
    0.7836   -2.0710    1.6623 C   0  0  0  0  0  0  0  0  0  0  0  0
   -3.4912   -2.8439    0.0539 N   0  0  0  0  0  0  0  0  0  0  0  0
   -1.6323   -1.6672   -0.6080 O   0  0  0  0  0  0  0  0  0  0  0  0
   -0.4713   -5.3576    1.5608 N   0  0  0  0  0  0  0  0  0  0  0  0
    1.6545   -4.5834    2.6503 C   0  0  0  0  0  0  0  0  0  0  0  0
    1.9879   -2.1928    2.3707 C   0  0  0  0  0  0  0  0  0  0  0  0
   -4.1751   -3.6168    1.0928 C   0  0  0  0  0  0  0  0  0  0  0  0
   -4.3141   -2.2324   -0.9948 C   0  0  0  0  0  0  0  0  0  0  0  0
    2.4150   -3.4302    2.8531 C   0  0  0  0  0  0  0  0  0  0  0  0
   -5.3666   -4.3660    0.5578 C   0  0  0  0  0  0  0  0  0  0  0  0
   -5.8316   -2.3086   -0.7592 C   0  0  0  0  0  0  0  0  0  0  0  0
   -6.2247   -3.6998   -0.3335 C   0  0  0  0  0  0  0  0  0  0  0  0
   -5.6588   -5.6705    0.9662 C   0  0  0  0  0  0  0  0  0  0  0  0
   -7.3941   -4.3251   -0.7698 C   0  0  0  0  0  0  0  0  0  0  0  0
   -6.8127   -6.3014    0.5050 C   0  0  0  0  0  0  0  0  0  0  0  0
   -7.6835   -5.6258   -0.3512 C   0  0  0  0  0  0  0  0  0  0  0  0
    0.4632   -1.1017    1.2887 H   0  0  0  0  0  0  0  0  0  0  0  0
   -0.4750   -6.3510    1.7601 H   0  0  0  0  0  0  0  0  0  0  0  0
    1.9844   -5.5473    3.0229 H   0  0  0  0  0  0  0  0  0  0  0  0
    2.6002   -1.3104    2.5420 H   0  0  0  0  0  0  0  0  0  0  0  0
   -3.5201   -4.2849    1.6459 H   0  0  0  0  0  0  0  0  0  0  0  0
   -4.5324   -2.8897    1.8339 H   0  0  0  0  0  0  0  0  0  0  0  0
   -4.0083   -1.1923   -1.1530 H   0  0  0  0  0  0  0  0  0  0  0  0
   -4.0683   -2.7772   -1.9164 H   0  0  0  0  0  0  0  0  0  0  0  0
    3.3576   -3.5020    3.3914 H   0  0  0  0  0  0  0  0  0  0  0  0
   -6.1262   -1.6062    0.0298 H   0  0  0  0  0  0  0  0  0  0  0  0
   -6.3557   -2.0188   -1.6770 H   0  0  0  0  0  0  0  0  0  0  0  0
   -4.9884   -6.1989    1.6396 H   0  0  0  0  0  0  0  0  0  0  0  0
   -8.0797   -3.8132   -1.4398 H   0  0  0  0  0  0  0  0  0  0  0  0
   -7.0360   -7.3179    0.8183 H   0  0  0  0  0  0  0  0  0  0  0  0
   -8.5886   -6.1182   -0.6973 H   0  0  0  0  0  0  0  0  0  0  0  0
  1  2  1  0  0  0  0
  1  3  1  0  0  0  0
  1  4  2  0  0  0  0
  2  5  2  0  0  0  0
  2  6  1  0  0  0  0
  3  7  1  0  0  0  0
  3  8  2  0  0  0  0
  4  9  1  0  0  0  0
  5 10  1  0  0  0  0
  5  9  1  0  0  0  0
  6 11  2  0  0  0  0
  6 22  1  0  0  0  0
  7 12  1  0  0  0  0
  7 13  1  0  0  0  0
  9 23  1  0  0  0  0
 10 14  2  0  0  0  0
 10 24  1  0  0  0  0
 11 14  1  0  0  0  0
 11 25  1  0  0  0  0
 12 15  1  0  0  0  0
 12 26  1  0  0  0  0
 12 27  1  0  0  0  0
 13 16  1  0  0  0  0
 13 28  1  0  0  0  0
 13 29  1  0  0  0  0
 14 30  1  0  0  0  0
 15 17  2  0  0  0  0
 15 18  1  0  0  0  0
 16 17  1  0  0  0  0
 16 31  1  0  0  0  0
 16 32  1  0  0  0  0
 17 19  1  0  0  0  0
 18 20  2  0  0  0  0
 18 33  1  0  0  0  0
 19 21  2  0  0  0  0
 19 34  1  0  0  0  0
 20 21  1  0  0  0  0
 20 35  1  0  0  0  0
 21 36  1  0  0  0  0
M  END
>  <Mol_ID>
9087

>  <Formula>
C17H15N3O

>  <MolWeight>
277.3205

>  <Cat>
P3094

>  <Name>
WAY-639917

>  <Synonyms>
N/A

>  <Target>
Others

>  <Form>
free base

>  <CAS>
159305-08-5

>  <URL>
N/A

$$$$
