WAY-332021
 OpenBabel08302521443D

 55 57  0  0  0  0  0  0  0  0999 V2000
    0.3141    0.3527   -0.9506 N   0  0  0  0  0  0  0  0  0  0  0  0
   -0.2305    1.2160   -0.0221 C   0  0  0  0  0  0  0  0  0  0  0  0
   -0.0816   -0.8453   -0.5706 C   0  0  0  0  0  0  0  0  0  0  0  0
   -0.8455   -0.8383    0.5671 O   0  0  0  0  0  0  0  0  0  0  0  0
   -0.9138    0.4791    0.9236 C   0  0  0  0  0  0  0  0  0  0  0  0
   -0.7013    5.9998   -2.4559 C   0  0  0  0  0  0  0  0  0  0  0  0
    0.1634    6.1923   -3.5246 N   0  0  0  0  0  0  0  0  0  0  0  0
   -0.2484    5.1088   -1.3109 C   0  0  0  0  0  0  0  0  0  0  0  0
   -0.7078    3.3796   -1.6264 S   0  0  3  0  0  0  0  0  0  0  0  0
    0.0078    2.6819   -0.0938 C   0  0  0  0  0  0  0  0  0  0  0  0
    2.1690    7.3313   -5.3583 N   0  0  0  0  0  0  0  0  0  0  0  0
    0.2378   -2.1496   -1.1420 C   0  0  0  0  0  0  0  0  0  0  0  0
   -1.7970    6.5533   -2.3943 O   0  0  0  0  0  0  0  0  0  0  0  0
    1.4714    5.5350   -3.7073 C   0  0  0  0  0  0  0  0  0  0  0  0
   -0.2661    6.9848   -4.6760 C   0  0  0  0  0  0  0  0  0  0  0  0
    0.1179    2.9061   -2.7884 O   0  0  0  0  0  0  0  0  0  0  0  0
    1.1061   -2.2337   -2.2395 C   0  0  0  0  0  0  0  0  0  0  0  0
   -0.2774   -3.3361   -0.6066 C   0  0  0  0  0  0  0  0  0  0  0  0
    2.5364    6.5558   -4.1535 C   0  0  0  0  0  0  0  0  0  0  0  0
    0.8445    7.9648   -5.1183 C   0  0  0  0  0  0  0  0  0  0  0  0
    0.9083   -4.6453   -2.2723 C   0  0  0  0  0  0  0  0  0  0  0  0
    0.0631   -4.5719   -1.1645 C   0  0  0  0  0  0  0  0  0  0  0  0
    1.4465   -3.4730   -2.8001 C   0  0  0  0  0  0  0  0  0  0  0  0
   -1.6266    0.7797    2.1752 C   0  0  0  0  0  0  0  0  0  0  0  0
    1.1686   -5.9105   -2.7202 O   0  0  0  0  0  0  0  0  0  0  0  0
    2.1337    6.5270   -6.5928 C   0  0  0  0  0  0  0  0  0  0  0  0
    1.4423   -6.0305   -4.1119 C   0  0  0  0  0  0  0  0  0  0  0  0
    3.4515    5.8393   -6.9306 C   0  0  0  0  0  0  0  0  0  0  0  0
   -0.7587    5.4393   -0.3977 H   0  0  0  0  0  0  0  0  0  0  0  0
    0.8176    5.2073   -1.1217 H   0  0  0  0  0  0  0  0  0  0  0  0
   -0.4612    3.1853    0.7574 H   0  0  0  0  0  0  0  0  0  0  0  0
    1.0827    2.8889   -0.0639 H   0  0  0  0  0  0  0  0  0  0  0  0
    1.8190    5.0463   -2.7966 H   0  0  0  0  0  0  0  0  0  0  0  0
    1.3465    4.7510   -4.4606 H   0  0  0  0  0  0  0  0  0  0  0  0
   -0.5168    6.2846   -5.4829 H   0  0  0  0  0  0  0  0  0  0  0  0
   -1.1774    7.5460   -4.4504 H   0  0  0  0  0  0  0  0  0  0  0  0
    1.5317   -1.3232   -2.6623 H   0  0  0  0  0  0  0  0  0  0  0  0
   -0.9457   -3.3129    0.2503 H   0  0  0  0  0  0  0  0  0  0  0  0
    2.6951    7.2724   -3.3348 H   0  0  0  0  0  0  0  0  0  0  0  0
    3.5048    6.0605   -4.2763 H   0  0  0  0  0  0  0  0  0  0  0  0
    0.9728    8.7119   -4.3250 H   0  0  0  0  0  0  0  0  0  0  0  0
    0.5234    8.5237   -6.0059 H   0  0  0  0  0  0  0  0  0  0  0  0
   -0.3460   -5.4851   -0.7371 H   0  0  0  0  0  0  0  0  0  0  0  0
    2.1443   -3.4868   -3.6307 H   0  0  0  0  0  0  0  0  0  0  0  0
   -2.6520    0.4019    2.1345 H   0  0  0  0  0  0  0  0  0  0  0  0
   -1.1179    0.3073    3.0223 H   0  0  0  0  0  0  0  0  0  0  0  0
   -1.6642    1.8555    2.3619 H   0  0  0  0  0  0  0  0  0  0  0  0
    1.3468    5.7659   -6.5678 H   0  0  0  0  0  0  0  0  0  0  0  0
    1.8957    7.1965   -7.4291 H   0  0  0  0  0  0  0  0  0  0  0  0
    0.6294   -5.6086   -4.7132 H   0  0  0  0  0  0  0  0  0  0  0  0
    2.4030   -5.5783   -4.3728 H   0  0  0  0  0  0  0  0  0  0  0  0
    1.5085   -7.0984   -4.3443 H   0  0  0  0  0  0  0  0  0  0  0  0
    4.2686    6.5633   -7.0081 H   0  0  0  0  0  0  0  0  0  0  0  0
    3.7208    5.0818   -6.1889 H   0  0  0  0  0  0  0  0  0  0  0  0
    3.3615    5.3247   -7.8929 H   0  0  0  0  0  0  0  0  0  0  0  0
  2  1  1  0  0  0  0
  3  1  2  0  0  0  0
  4  3  1  0  0  0  0
  5  2  2  0  0  0  0
  5  4  1  0  0  0  0
  6  8  1  0  0  0  0
  7  6  1  0  0  0  0
  8  9  1  0  0  0  0
  8 29  1  0  0  0  0
  8 30  1  0  0  0  0
  9 10  1  0  0  0  0
 10  2  1  0  0  0  0
 10 31  1  0  0  0  0
 10 32  1  0  0  0  0
 11 20  1  0  0  0  0
 11 19  1  0  0  0  0
 12  3  1  0  0  0  0
 13  6  2  0  0  0  0
 14  7  1  0  0  0  0
 14 33  1  0  0  0  0
 14 34  1  0  0  0  0
 15  7  1  0  0  0  0
 15 35  1  0  0  0  0
 15 36  1  0  0  0  0
 16  9  2  0  0  0  0
 17 12  2  0  0  0  0
 17 37  1  0  0  0  0
 18 12  1  0  0  0  0
 18 38  1  0  0  0  0
 19 14  1  0  0  0  0
 19 39  1  0  0  0  0
 19 40  1  0  0  0  0
 20 15  1  0  0  0  0
 20 41  1  0  0  0  0
 20 42  1  0  0  0  0
 21 22  1  0  0  0  0
 21 23  2  0  0  0  0
 22 18  2  0  0  0  0
 22 43  1  0  0  0  0
 23 17  1  0  0  0  0
 23 44  1  0  0  0  0
 24  5  1  0  0  0  0
 24 45  1  0  0  0  0
 24 46  1  0  0  0  0
 24 47  1  0  0  0  0
 25 21  1  0  0  0  0
 26 11  1  0  0  0  0
 26 48  1  0  0  0  0
 26 49  1  0  0  0  0
 27 25  1  0  0  0  0
 27 50  1  0  0  0  0
 27 51  1  0  0  0  0
 27 52  1  0  0  0  0
 28 26  1  0  0  0  0
 28 53  1  0  0  0  0
 28 54  1  0  0  0  0
 28 55  1  0  0  0  0
M  END
>  <Mol_ID>
9255

>  <Formula>
C20H27N3O4S

>  <MolWeight>
405.51108

>  <Cat>
P2669

>  <Name>
WAY-332021

>  <Synonyms>
N/A

>  <Target>
beta-catenin

>  <Form>
free base

>  <CAS>
958954-37-5

>  <URL>
N/A

$$$$
