WAY-329601
 OpenBabel08302521453D

 40 42  0  0  0  0  0  0  0  0999 V2000
   -1.0335    0.0904    1.8445 S   0  0  0  0  0  0  0  0  0  0  0  0
   -1.3031    0.2838    3.5759 C   0  0  0  0  0  0  0  0  0  0  0  0
   -0.6172    1.2438    4.3533 C   0  0  0  0  0  0  0  0  0  0  0  0
    0.3843    2.0512    3.9657 N   0  0  0  0  0  0  0  0  0  0  0  0
    0.6693   -0.2254    1.5305 C   0  0  0  0  0  0  0  0  0  0  0  0
    0.7702    3.0014    5.2737 S   0  0  0  0  0  0  0  0  0  0  0  0
   -1.0010    1.4553    5.8039 C   0  0  0  0  0  0  0  0  0  0  0  0
   -0.2857    2.4145    6.4096 N   0  0  0  0  0  0  0  0  0  0  0  0
    1.1359   -1.4912    2.1790 C   0  0  0  0  0  0  0  0  0  0  0  0
   -2.3114   -0.4599    4.2325 C   0  0  0  0  0  0  0  0  0  0  0  0
   -1.3499    1.3763    1.2504 O   0  0  0  0  0  0  0  0  0  0  0  0
   -1.7801   -1.0751    1.4049 O   0  0  0  0  0  0  0  0  0  0  0  0
    2.2576   -2.0388    1.5478 N   0  0  0  0  0  0  0  0  0  0  0  0
   -2.6563   -0.2620    5.5942 C   0  0  0  0  0  0  0  0  0  0  0  0
   -2.0308    0.6937    6.4099 C   0  0  0  0  0  0  0  0  0  0  0  0
    0.6370   -1.8928    3.2247 O   0  0  0  0  0  0  0  0  0  0  0  0
    3.1849   -2.9118    2.1678 C   0  0  0  0  0  0  0  0  0  0  0  0
    5.2671   -4.1134    3.6156 C   0  0  0  0  0  0  0  0  0  0  0  0
    2.9315   -3.5451    3.3812 C   0  0  0  0  0  0  0  0  0  0  0  0
    4.4561   -3.0499    1.5944 C   0  0  0  0  0  0  0  0  0  0  0  0
    5.4973   -3.6443    2.3237 C   0  0  0  0  0  0  0  0  0  0  0  0
    3.9654   -4.1395    4.1039 C   0  0  0  0  0  0  0  0  0  0  0  0
    6.3594   -4.5248    4.3384 O   0  0  0  0  0  0  0  0  0  0  0  0
    6.2484   -4.2544    5.7438 C   0  0  0  0  0  0  0  0  0  0  0  0
    7.5727   -4.5346    6.4261 C   0  0  0  0  0  0  0  0  0  0  0  0
    0.7853   -0.2783    0.4455 H   0  0  0  0  0  0  0  0  0  0  0  0
    1.2689    0.6117    1.9029 H   0  0  0  0  0  0  0  0  0  0  0  0
   -2.8644   -1.2146    3.6740 H   0  0  0  0  0  0  0  0  0  0  0  0
    2.5681   -1.6203    0.6782 H   0  0  0  0  0  0  0  0  0  0  0  0
   -3.4519   -0.8748    6.0206 H   0  0  0  0  0  0  0  0  0  0  0  0
   -2.3181    0.8488    7.4437 H   0  0  0  0  0  0  0  0  0  0  0  0
    1.9410   -3.5693    3.8219 H   0  0  0  0  0  0  0  0  0  0  0  0
    4.6797   -2.6418    0.6118 H   0  0  0  0  0  0  0  0  0  0  0  0
    6.4999   -3.6866    1.9032 H   0  0  0  0  0  0  0  0  0  0  0  0
    3.7207   -4.5859    5.0601 H   0  0  0  0  0  0  0  0  0  0  0  0
    5.9750   -3.2028    5.9108 H   0  0  0  0  0  0  0  0  0  0  0  0
    5.4931   -4.9059    6.1962 H   0  0  0  0  0  0  0  0  0  0  0  0
    7.9058   -5.5551    6.2168 H   0  0  0  0  0  0  0  0  0  0  0  0
    8.3500   -3.8546    6.0654 H   0  0  0  0  0  0  0  0  0  0  0  0
    7.4759   -4.4104    7.5100 H   0  0  0  0  0  0  0  0  0  0  0  0
  2  1  1  0  0  0  0
  3  2  1  0  0  0  0
  4  3  2  0  0  0  0
  5  1  1  0  0  0  0
  5 26  1  0  0  0  0
  5 27  1  0  0  0  0
  6  4  1  0  0  0  0
  6  8  1  0  0  0  0
  7  3  1  0  0  0  0
  7 15  1  0  0  0  0
  8  7  2  0  0  0  0
  9  5  1  0  0  0  0
 10  2  2  0  0  0  0
 10 28  1  0  0  0  0
 11  1  2  0  0  0  0
 12  1  2  0  0  0  0
 13  9  1  0  0  0  0
 13 29  1  0  0  0  0
 14 10  1  0  0  0  0
 14 30  1  0  0  0  0
 15 14  2  0  0  0  0
 15 31  1  0  0  0  0
 16  9  2  0  0  0  0
 17 13  1  0  0  0  0
 18 21  2  0  0  0  0
 19 17  1  0  0  0  0
 19 32  1  0  0  0  0
 20 17  2  0  0  0  0
 20 33  1  0  0  0  0
 21 20  1  0  0  0  0
 21 34  1  0  0  0  0
 22 19  2  0  0  0  0
 22 18  1  0  0  0  0
 22 35  1  0  0  0  0
 23 18  1  0  0  0  0
 24 23  1  0  0  0  0
 24 36  1  0  0  0  0
 24 37  1  0  0  0  0
 25 24  1  0  0  0  0
 25 38  1  0  0  0  0
 25 39  1  0  0  0  0
 25 40  1  0  0  0  0
M  END
>  <Mol_ID>
9315

>  <Formula>
C16H15N3O4S2

>  <MolWeight>
377.438

>  <Cat>
P2585

>  <Name>
WAY-329601

>  <Synonyms>
N/A

>  <Target>
others

>  <Form>
free base

>  <CAS>
956964-95-7

>  <URL>
N/A

$$$$
