WAY-327578
 OpenBabel08302521443D

 54 57  0  0  0  0  0  0  0  0999 V2000
    1.5354   -1.0585    0.0735 N   0  0  0  0  0  0  0  0  0  0  0  0
    2.2774    0.0874   -0.1727 C   0  0  0  0  0  0  0  0  0  0  0  0
    1.4758    1.1321   -0.3133 N   0  0  0  0  0  0  0  0  0  0  0  0
    0.1965   -0.7161   -0.0122 C   0  0  0  0  0  0  0  0  0  0  0  0
    3.7771    0.1505   -0.3478 C   0  0  3  0  0  0  0  0  0  0  0  0
    2.0161   -2.4230    0.3071 C   0  0  0  0  0  0  0  0  0  0  0  0
    0.2012    0.6635   -0.1647 C   0  0  0  0  0  0  0  0  0  0  0  0
    4.0042    0.0248   -1.7882 N   0  0  0  0  0  0  0  0  0  0  0  0
    1.7482   -3.0008    1.6960 C   0  0  0  0  0  0  0  0  0  0  0  0
    5.1954   -0.4251   -2.2973 C   0  0  0  0  0  0  0  0  0  0  0  0
    4.3744    1.4860    0.1628 C   0  0  0  0  0  0  0  0  0  0  0  0
    6.0930   -0.8821   -1.5993 O   0  0  0  0  0  0  0  0  0  0  0  0
    2.0495   -4.3567    1.9834 C   0  0  0  0  0  0  0  0  0  0  0  0
    4.2943    1.6744    1.6602 C   0  0  0  0  0  0  0  0  0  0  0  0
   -0.9862   -1.4613    0.0809 C   0  0  0  0  0  0  0  0  0  0  0  0
   -1.0119    1.3657   -0.1641 C   0  0  0  0  0  0  0  0  0  0  0  0
    1.2378   -2.2114    2.7472 C   0  0  0  0  0  0  0  0  0  0  0  0
    5.2992   -0.3682   -3.8010 C   0  0  0  0  0  0  0  0  0  0  0  0
    2.5188   -5.3488    0.9513 C   0  0  0  0  0  0  0  0  0  0  0  0
    1.9400   -4.8340    3.3058 C   0  0  0  0  0  0  0  0  0  0  0  0
    5.2990    1.1724    2.4964 C   0  0  0  0  0  0  0  0  0  0  0  0
    3.2064    2.3478    2.2337 C   0  0  0  0  0  0  0  0  0  0  0  0
   -2.1896   -0.7484    0.0494 C   0  0  0  0  0  0  0  0  0  0  0  0
   -2.2063    0.6433   -0.0558 C   0  0  0  0  0  0  0  0  0  0  0  0
    1.0778   -2.7199    4.0395 C   0  0  0  0  0  0  0  0  0  0  0  0
    1.4613   -4.0208    4.3275 C   0  0  0  0  0  0  0  0  0  0  0  0
    3.1175    2.5041    3.6166 C   0  0  0  0  0  0  0  0  0  0  0  0
    5.2066    1.3312    3.8779 C   0  0  0  0  0  0  0  0  0  0  0  0
    4.1207    1.9963    4.4390 C   0  0  0  0  0  0  0  0  0  0  0  0
    4.2745   -0.6768    0.1660 H   0  0  0  0  0  0  0  0  0  0  0  0
    1.5212   -3.0345   -0.4562 H   0  0  0  0  0  0  0  0  0  0  0  0
    3.0919   -2.4474    0.1172 H   0  0  0  0  0  0  0  0  0  0  0  0
    3.3973    0.5821   -2.3791 H   0  0  0  0  0  0  0  0  0  0  0  0
    5.4309    1.5532   -0.1324 H   0  0  0  0  0  0  0  0  0  0  0  0
    3.8963    2.3409   -0.3364 H   0  0  0  0  0  0  0  0  0  0  0  0
   -0.9802   -2.5405    0.1922 H   0  0  0  0  0  0  0  0  0  0  0  0
   -1.0103    2.4472   -0.2459 H   0  0  0  0  0  0  0  0  0  0  0  0
    0.9473   -1.1746    2.5897 H   0  0  0  0  0  0  0  0  0  0  0  0
    5.2553   -1.3849   -4.2012 H   0  0  0  0  0  0  0  0  0  0  0  0
    4.4915    0.2211   -4.2416 H   0  0  0  0  0  0  0  0  0  0  0  0
    6.2519    0.0934   -4.0778 H   0  0  0  0  0  0  0  0  0  0  0  0
    3.5965   -5.5072    1.0376 H   0  0  0  0  0  0  0  0  0  0  0  0
    2.0078   -6.3086    1.1021 H   0  0  0  0  0  0  0  0  0  0  0  0
    2.2848   -5.0394   -0.0700 H   0  0  0  0  0  0  0  0  0  0  0  0
    2.2291   -5.8566    3.5442 H   0  0  0  0  0  0  0  0  0  0  0  0
    6.1600    0.6577    2.0748 H   0  0  0  0  0  0  0  0  0  0  0  0
    2.4152    2.7492    1.6025 H   0  0  0  0  0  0  0  0  0  0  0  0
   -3.1294   -1.2889    0.1250 H   0  0  0  0  0  0  0  0  0  0  0  0
   -3.1517    1.1775   -0.0491 H   0  0  0  0  0  0  0  0  0  0  0  0
    0.6696   -2.0863    4.8231 H   0  0  0  0  0  0  0  0  0  0  0  0
    1.3832   -4.4036    5.3415 H   0  0  0  0  0  0  0  0  0  0  0  0
    2.2656    3.0235    4.0478 H   0  0  0  0  0  0  0  0  0  0  0  0
    5.9958    0.9449    4.5222 H   0  0  0  0  0  0  0  0  0  0  0  0
    4.0529    2.1201    5.5164 H   0  0  0  0  0  0  0  0  0  0  0  0
  2  1  1  0  0  0  0
  3  2  2  0  0  0  0
  3  7  1  0  0  0  0
  4  1  1  0  0  0  0
  5  2  1  0  0  0  0
  5 30  1  0  0  0  0
  6  1  1  0  0  0  0
  6 31  1  0  0  0  0
  6 32  1  0  0  0  0
  7  4  2  0  0  0  0
  8  5  1  0  0  0  0
  8 33  1  0  0  0  0
  9  6  1  0  0  0  0
 10  8  1  0  0  0  0
 11  5  1  0  0  0  0
 11 34  1  0  0  0  0
 11 35  1  0  0  0  0
 12 10  2  0  0  0  0
 13  9  2  0  0  0  0
 14 11  1  0  0  0  0
 15  4  1  0  0  0  0
 15 36  1  0  0  0  0
 16  7  1  0  0  0  0
 16 24  2  0  0  0  0
 16 37  1  0  0  0  0
 17  9  1  0  0  0  0
 17 38  1  0  0  0  0
 18 10  1  0  0  0  0
 18 39  1  0  0  0  0
 18 40  1  0  0  0  0
 18 41  1  0  0  0  0
 19 13  1  0  0  0  0
 19 42  1  0  0  0  0
 19 43  1  0  0  0  0
 19 44  1  0  0  0  0
 20 13  1  0  0  0  0
 20 45  1  0  0  0  0
 21 14  2  0  0  0  0
 21 46  1  0  0  0  0
 22 14  1  0  0  0  0
 22 47  1  0  0  0  0
 23 15  2  0  0  0  0
 23 48  1  0  0  0  0
 24 23  1  0  0  0  0
 24 49  1  0  0  0  0
 25 17  2  0  0  0  0
 25 50  1  0  0  0  0
 26 25  1  0  0  0  0
 26 20  2  0  0  0  0
 26 51  1  0  0  0  0
 27 22  2  0  0  0  0
 27 52  1  0  0  0  0
 28 21  1  0  0  0  0
 28 29  2  0  0  0  0
 28 53  1  0  0  0  0
 29 27  1  0  0  0  0
 29 54  1  0  0  0  0
M  END
>  <Mol_ID>
8983

>  <Formula>
C25H25N3O

>  <MolWeight>
383.4855

>  <Cat>
P2546

>  <Name>
WAY-327578

>  <Synonyms>
N/A

>  <Target>
Ral GTPase

>  <Form>
free base

>  <CAS>
686736-52-7

>  <URL>
N/A

$$$$
