WAY-311152-A
 OpenBabel08302521393D

 41 43  0  0  0  0  0  0  0  0999 V2000
   -1.3422    0.0568    0.6110 N   0  0  0  0  0  0  0  0  0  0  0  0
   -1.3735    0.0518    2.0841 C   0  0  0  0  0  0  0  0  0  0  0  0
   -0.7860   -1.1772    0.0247 C   0  0  0  0  0  0  0  0  0  0  0  0
   -0.6652    1.2349    0.0512 C   0  0  0  0  0  0  0  0  0  0  0  0
   -2.2950   -1.0334    2.6250 C   0  0  0  0  0  0  0  0  0  0  0  0
    0.7559   -1.2570   -0.0494 C   0  0  0  0  0  0  0  0  0  0  0  0
    0.8761    1.1476   -0.0764 C   0  0  0  0  0  0  0  0  0  0  0  0
   -1.8183   -1.9974    3.5276 C   0  0  0  0  0  0  0  0  0  0  0  0
   -3.6190   -1.1347    2.1575 C   0  0  0  0  0  0  0  0  0  0  0  0
    1.4231   -0.0924   -0.6633 N   0  0  0  0  0  0  0  0  0  0  0  0
   -2.6205   -3.0844    3.8829 C   0  0  0  0  0  0  0  0  0  0  0  0
   -4.4151   -2.2247    2.5098 C   0  0  0  0  0  0  0  0  0  0  0  0
    1.3349   -0.0934   -2.1339 C   0  0  0  0  0  0  0  0  0  0  0  0
   -3.9004   -3.2001    3.3531 C   0  0  0  0  0  0  0  0  0  0  0  0
    2.2325   -1.1081   -2.8073 C   0  0  0  0  0  0  0  0  0  0  0  0
   -4.6419   -4.2763    3.6473 F   0  0  0  0  0  0  0  0  0  0  0  0
    3.5985   -1.2200   -2.4982 C   0  0  0  0  0  0  0  0  0  0  0  0
    1.7640   -1.9044   -3.8488 C   0  0  0  0  0  0  0  0  0  0  0  0
    4.4061   -2.0992   -3.2168 C   0  0  0  0  0  0  0  0  0  0  0  0
    2.5282   -2.7623   -4.5697 N   0  0  0  0  0  0  0  0  0  0  0  0
    3.8348   -2.8354   -4.2393 C   0  0  0  0  0  0  0  0  0  0  0  0
   -0.3666   -0.0505    2.5068 H   0  0  0  0  0  0  0  0  0  0  0  0
   -1.7736    1.0069    2.4519 H   0  0  0  0  0  0  0  0  0  0  0  0
   -1.1574   -2.0717    0.5408 H   0  0  0  0  0  0  0  0  0  0  0  0
   -1.1929   -1.2599   -0.9919 H   0  0  0  0  0  0  0  0  0  0  0  0
   -1.0851    1.4013   -0.9487 H   0  0  0  0  0  0  0  0  0  0  0  0
   -0.9257    2.1332    0.6250 H   0  0  0  0  0  0  0  0  0  0  0  0
    1.1479   -1.3638    0.9700 H   0  0  0  0  0  0  0  0  0  0  0  0
    1.0378   -2.1822   -0.5657 H   0  0  0  0  0  0  0  0  0  0  0  0
    1.3107    1.2543    0.9251 H   0  0  0  0  0  0  0  0  0  0  0  0
    1.2328    2.0208   -0.6385 H   0  0  0  0  0  0  0  0  0  0  0  0
   -0.8092   -1.9301    3.9267 H   0  0  0  0  0  0  0  0  0  0  0  0
   -4.0090   -0.3882    1.4678 H   0  0  0  0  0  0  0  0  0  0  0  0
   -2.2454   -3.8577    4.5467 H   0  0  0  0  0  0  0  0  0  0  0  0
   -5.4169   -2.3328    2.1074 H   0  0  0  0  0  0  0  0  0  0  0  0
    0.3008   -0.2125   -2.4733 H   0  0  0  0  0  0  0  0  0  0  0  0
    1.6728    0.8791   -2.5202 H   0  0  0  0  0  0  0  0  0  0  0  0
    4.0265   -0.6226   -1.6978 H   0  0  0  0  0  0  0  0  0  0  0  0
    0.7247   -1.8648   -4.1612 H   0  0  0  0  0  0  0  0  0  0  0  0
    5.4651   -2.1900   -2.9932 H   0  0  0  0  0  0  0  0  0  0  0  0
    4.4286   -3.5161   -4.8429 H   0  0  0  0  0  0  0  0  0  0  0  0
  1  2  1  0  0  0  0
  1  3  1  0  0  0  0
  1  4  1  0  0  0  0
  2  5  1  0  0  0  0
  2 22  1  0  0  0  0
  2 23  1  0  0  0  0
  3  6  1  0  0  0  0
  3 24  1  0  0  0  0
  3 25  1  0  0  0  0
  4  7  1  0  0  0  0
  4 26  1  0  0  0  0
  4 27  1  0  0  0  0
  5  8  2  0  0  0  0
  5  9  1  0  0  0  0
  6 10  1  0  0  0  0
  6 28  1  0  0  0  0
  6 29  1  0  0  0  0
  7 10  1  0  0  0  0
  7 30  1  0  0  0  0
  7 31  1  0  0  0  0
  8 11  1  0  0  0  0
  8 32  1  0  0  0  0
  9 12  2  0  0  0  0
  9 33  1  0  0  0  0
 10 13  1  0  0  0  0
 11 14  2  0  0  0  0
 11 34  1  0  0  0  0
 12 14  1  0  0  0  0
 12 35  1  0  0  0  0
 13 15  1  0  0  0  0
 13 36  1  0  0  0  0
 13 37  1  0  0  0  0
 14 16  1  0  0  0  0
 15 17  2  0  0  0  0
 15 18  1  0  0  0  0
 17 19  1  0  0  0  0
 17 38  1  0  0  0  0
 18 20  2  0  0  0  0
 18 39  1  0  0  0  0
 19 21  2  0  0  0  0
 19 40  1  0  0  0  0
 20 21  1  0  0  0  0
 21 41  1  0  0  0  0
M  END
>  <Mol_ID>
8136

>  <Formula>
C17H20FN3

>  <MolWeight>
285.3592032

>  <Cat>
P2195

>  <Name>
WAY-311152-A

>  <Synonyms>
N/A

>  <Target>
Histamine Receptor

>  <Form>
free base

>  <CAS>
160539-86-6

>  <URL>
N/A

$$$$
