WAY-330337
 OpenBabel08302521443D

 41 44  0  0  0  0  0  0  0  0999 V2000
   -3.5116   -0.0300    0.0304 C   0  0  0  0  0  0  0  0  0  0  0  0
   -1.3812   -0.5826   -0.0030 C   0  0  0  0  0  0  0  0  0  0  0  0
   -2.6429   -1.0849   -0.0261 O   0  0  0  0  0  0  0  0  0  0  0  0
   -4.9474   -0.2526   -0.0051 C   0  0  0  0  0  0  0  0  0  0  0  0
   -0.2912   -1.3636   -0.0071 N   0  0  0  0  0  0  0  0  0  0  0  0
   -2.7950    1.1551    0.0251 C   0  0  0  0  0  0  0  0  0  0  0  0
   -1.4224    0.8050    0.0219 C   0  0  0  0  0  0  0  0  0  0  0  0
   -5.4818   -1.4052    0.5901 N   0  0  0  0  0  0  0  0  0  0  0  0
    0.8675   -0.6961    0.0042 C   0  0  0  0  0  0  0  0  0  0  0  0
    0.9759    0.7147    0.0209 C   0  0  0  0  0  0  0  0  0  0  0  0
   -0.1987    1.4861    0.0318 C   0  0  0  0  0  0  0  0  0  0  0  0
   -5.6857    0.5810   -0.5320 O   0  0  0  0  0  0  0  0  0  0  0  0
    2.2437    1.3220    0.0263 C   0  0  0  0  0  0  0  0  0  0  0  0
    2.0388   -1.4364   -0.0045 C   0  0  0  0  0  0  0  0  0  0  0  0
    3.4091    0.5539    0.0170 C   0  0  0  0  0  0  0  0  0  0  0  0
    3.3022   -0.8321    0.0002 C   0  0  0  0  0  0  0  0  0  0  0  0
   -4.7345   -2.3844    1.3862 C   0  0  0  0  0  0  0  0  0  0  0  0
   -6.8761   -1.7496    0.3203 C   0  0  0  0  0  0  0  0  0  0  0  0
    4.5721    1.2711    0.0270 O   0  0  0  0  0  0  0  0  0  0  0  0
    5.7847    0.5268    0.0352 C   0  0  0  0  0  0  0  0  0  0  0  0
   -7.6354   -2.0673    1.6050 C   0  0  0  0  0  0  0  0  0  0  0  0
   -5.4721   -2.7418    2.6757 C   0  0  0  0  0  0  0  0  0  0  0  0
   -6.9185   -3.1434    2.4143 C   0  0  0  0  0  0  0  0  0  0  0  0
   -3.2291    2.1456    0.0299 H   0  0  0  0  0  0  0  0  0  0  0  0
   -0.1673    2.5709    0.0453 H   0  0  0  0  0  0  0  0  0  0  0  0
    2.3325    2.4067    0.0365 H   0  0  0  0  0  0  0  0  0  0  0  0
    1.9714   -2.5226   -0.0173 H   0  0  0  0  0  0  0  0  0  0  0  0
    4.1734   -1.4783   -0.0115 H   0  0  0  0  0  0  0  0  0  0  0  0
   -3.7541   -2.0096    1.6784 H   0  0  0  0  0  0  0  0  0  0  0  0
   -4.5920   -3.2741    0.7619 H   0  0  0  0  0  0  0  0  0  0  0  0
   -6.8693   -2.6254   -0.3405 H   0  0  0  0  0  0  0  0  0  0  0  0
   -7.3924   -0.9487   -0.2180 H   0  0  0  0  0  0  0  0  0  0  0  0
    5.8508   -0.1139    0.9209 H   0  0  0  0  0  0  0  0  0  0  0  0
    5.8925   -0.0574   -0.8847 H   0  0  0  0  0  0  0  0  0  0  0  0
    6.6143    1.2389    0.0784 H   0  0  0  0  0  0  0  0  0  0  0  0
   -8.6523   -2.3972    1.3665 H   0  0  0  0  0  0  0  0  0  0  0  0
   -7.7221   -1.1568    2.2111 H   0  0  0  0  0  0  0  0  0  0  0  0
   -5.4591   -1.8726    3.3457 H   0  0  0  0  0  0  0  0  0  0  0  0
   -4.9447   -3.5522    3.1913 H   0  0  0  0  0  0  0  0  0  0  0  0
   -7.4368   -3.3006    3.3666 H   0  0  0  0  0  0  0  0  0  0  0  0
   -6.9442   -4.0950    1.8700 H   0  0  0  0  0  0  0  0  0  0  0  0
  2  3  1  0  0  0  0
  2  7  2  0  0  0  0
  3  1  1  0  0  0  0
  4  1  1  0  0  0  0
  5  2  1  0  0  0  0
  6  1  2  0  0  0  0
  6 24  1  0  0  0  0
  7  6  1  0  0  0  0
  8  4  1  0  0  0  0
  9  5  2  0  0  0  0
  9 10  1  0  0  0  0
 10 11  2  0  0  0  0
 11  7  1  0  0  0  0
 11 25  1  0  0  0  0
 12  4  2  0  0  0  0
 13 10  1  0  0  0  0
 13 26  1  0  0  0  0
 14  9  1  0  0  0  0
 14 27  1  0  0  0  0
 15 13  2  0  0  0  0
 16 14  2  0  0  0  0
 16 15  1  0  0  0  0
 16 28  1  0  0  0  0
 17  8  1  0  0  0  0
 17 29  1  0  0  0  0
 17 30  1  0  0  0  0
 18  8  1  0  0  0  0
 18 31  1  0  0  0  0
 18 32  1  0  0  0  0
 19 15  1  0  0  0  0
 20 19  1  0  0  0  0
 20 33  1  0  0  0  0
 20 34  1  0  0  0  0
 20 35  1  0  0  0  0
 21 18  1  0  0  0  0
 21 36  1  0  0  0  0
 21 37  1  0  0  0  0
 22 17  1  0  0  0  0
 22 38  1  0  0  0  0
 22 39  1  0  0  0  0
 23 21  1  0  0  0  0
 23 22  1  0  0  0  0
 23 40  1  0  0  0  0
 23 41  1  0  0  0  0
M  END
>  <Mol_ID>
9154

>  <Formula>
C18H18N2O3

>  <MolWeight>
310.34712

>  <Cat>
P2609

>  <Name>
WAY-330337

>  <Synonyms>
N/A

>  <Target>
Others

>  <Form>
free base

>  <CAS>
956204-00-5

>  <URL>
N/A

$$$$
