WAY-621512
 OpenBabel08302521443D

 51 53  0  0  0  0  0  0  0  0999 V2000
    0.9942   -0.2646   -0.2501 N   0  0  0  0  0  0  0  0  0  0  0  0
   -0.1208    0.7017   -0.3677 C   0  0  3  0  0  0  0  0  0  0  0  0
   10.0766   -4.5726   -3.6604 C   0  0  0  0  0  0  0  0  0  0  0  0
    2.3475   -0.0825   -0.4771 C   0  0  0  0  0  0  0  0  0  0  0  0
    5.1548   -1.4804   -1.5434 C   0  0  0  0  0  0  0  0  0  0  0  0
    6.5321   -2.0438   -1.4259 C   0  0  0  0  0  0  0  0  0  0  0  0
   -0.6806    0.8165   -1.8112 C   0  0  3  0  0  0  0  0  0  0  0  0
   11.0623   -4.2368   -2.7639 C   0  0  0  0  0  0  0  0  0  0  0  0
   10.5084   -5.4724   -4.5884 O   0  0  0  0  0  0  0  0  0  0  0  0
    7.1941   -2.4517   -2.5250 C   0  0  0  0  0  0  0  0  0  0  0  0
   12.2374   -4.8759   -3.0186 O   0  0  0  0  0  0  0  0  0  0  0  0
   11.8730   -5.6751   -4.1623 C   0  0  0  0  0  0  0  0  0  0  0  0
    8.8102   -4.0196   -3.5883 C   0  0  0  0  0  0  0  0  0  0  0  0
    2.8625    0.9966   -0.7505 O   0  0  0  0  0  0  0  0  0  0  0  0
    4.5920   -1.2368   -2.5974 O   0  0  0  0  0  0  0  0  0  0  0  0
    4.5869   -1.4404   -0.3092 O   0  0  0  0  0  0  0  0  0  0  0  0
    8.5272   -3.0962   -2.5617 C   0  0  0  0  0  0  0  0  0  0  0  0
   10.8327   -3.3386   -1.7505 C   0  0  0  0  0  0  0  0  0  0  0  0
   -0.0603    2.0017   -2.5899 C   0  0  3  0  0  0  0  0  0  0  0  0
    3.1594   -1.4003   -0.2882 C   0  0  0  0  0  0  0  0  0  0  0  0
    9.5549   -2.7648   -1.6515 C   0  0  0  0  0  0  0  0  0  0  0  0
    0.0325    2.0412    0.3702 C   0  0  0  0  0  0  0  0  0  0  0  0
    0.4882    3.2333   -0.4682 C   0  0  0  0  0  0  0  0  0  0  0  0
   -2.2208    0.8808   -1.7544 C   0  0  0  0  0  0  0  0  0  0  0  0
   -0.2031    3.3196   -1.8220 C   0  0  0  0  0  0  0  0  0  0  0  0
   -0.6226    2.1506   -4.0074 C   0  0  0  0  0  0  0  0  0  0  0  0
    0.6960   -1.2157   -0.0788 H   0  0  0  0  0  0  0  0  0  0  0  0
   -0.8836    0.1670    0.2160 H   0  0  0  0  0  0  0  0  0  0  0  0
    6.9300   -2.1663   -0.4258 H   0  0  0  0  0  0  0  0  0  0  0  0
   -0.4348   -0.1059   -2.3559 H   0  0  0  0  0  0  0  0  0  0  0  0
    6.7222   -2.3330   -3.5014 H   0  0  0  0  0  0  0  0  0  0  0  0
   12.5441   -5.4306   -4.9933 H   0  0  0  0  0  0  0  0  0  0  0  0
   12.0084   -6.7320   -3.9051 H   0  0  0  0  0  0  0  0  0  0  0  0
    8.0607   -4.3033   -4.3215 H   0  0  0  0  0  0  0  0  0  0  0  0
   11.6234   -3.0728   -1.0552 H   0  0  0  0  0  0  0  0  0  0  0  0
    1.0121    1.7978   -2.7005 H   0  0  0  0  0  0  0  0  0  0  0  0
    2.8845   -1.7768    0.7045 H   0  0  0  0  0  0  0  0  0  0  0  0
    2.7683   -2.1371   -1.0036 H   0  0  0  0  0  0  0  0  0  0  0  0
    9.3784   -2.0337   -0.8644 H   0  0  0  0  0  0  0  0  0  0  0  0
   -0.9589    2.3058    0.7657 H   0  0  0  0  0  0  0  0  0  0  0  0
    0.6829    1.9346    1.2461 H   0  0  0  0  0  0  0  0  0  0  0  0
    1.5712    3.1901   -0.6189 H   0  0  0  0  0  0  0  0  0  0  0  0
    0.2939    4.1589    0.0888 H   0  0  0  0  0  0  0  0  0  0  0  0
   -2.5782    1.7812   -1.2446 H   0  0  0  0  0  0  0  0  0  0  0  0
   -2.6636    0.8554   -2.7543 H   0  0  0  0  0  0  0  0  0  0  0  0
   -2.6240    0.0164   -1.2146 H   0  0  0  0  0  0  0  0  0  0  0  0
    0.2442    4.1403   -2.3967 H   0  0  0  0  0  0  0  0  0  0  0  0
   -1.2596    3.5833   -1.6893 H   0  0  0  0  0  0  0  0  0  0  0  0
   -1.6825    2.4230   -4.0079 H   0  0  0  0  0  0  0  0  0  0  0  0
   -0.0879    2.9371   -4.5515 H   0  0  0  0  0  0  0  0  0  0  0  0
   -0.5046    1.2187   -4.5697 H   0  0  0  0  0  0  0  0  0  0  0  0
  1 27  1  0  0  0  0
  2  1  1  0  0  0  0
  2 28  1  0  0  0  0
  3 13  2  0  0  0  0
  3  8  1  0  0  0  0
  4  1  1  0  0  0  0
  5 16  1  0  0  0  0
  6  5  1  0  0  0  0
  6 29  1  0  0  0  0
  7  2  1  0  0  0  0
  7 30  1  0  0  0  0
  8 18  2  0  0  0  0
  9  3  1  0  0  0  0
 10  6  2  0  0  0  0
 10 31  1  0  0  0  0
 11  8  1  0  0  0  0
 11 12  1  0  0  0  0
 12  9  1  0  0  0  0
 12 32  1  0  0  0  0
 12 33  1  0  0  0  0
 13 17  1  0  0  0  0
 13 34  1  0  0  0  0
 14  4  2  0  0  0  0
 15  5  2  0  0  0  0
 16 20  1  0  0  0  0
 17 10  1  0  0  0  0
 18 21  1  0  0  0  0
 18 35  1  0  0  0  0
 19  7  1  0  0  0  0
 19 25  1  0  0  0  0
 19 36  1  0  0  0  0
 20  4  1  0  0  0  0
 20 37  1  0  0  0  0
 20 38  1  0  0  0  0
 21 17  2  0  0  0  0
 21 39  1  0  0  0  0
 22  2  1  0  0  0  0
 22 40  1  0  0  0  0
 22 41  1  0  0  0  0
 23 22  1  0  0  0  0
 23 42  1  0  0  0  0
 23 43  1  0  0  0  0
 24  7  1  0  0  0  0
 24 44  1  0  0  0  0
 24 45  1  0  0  0  0
 24 46  1  0  0  0  0
 25 23  1  0  0  0  0
 25 47  1  0  0  0  0
 25 48  1  0  0  0  0
 26 19  1  0  0  0  0
 26 49  1  0  0  0  0
 26 50  1  0  0  0  0
 26 51  1  0  0  0  0
M  END
>  <Mol_ID>
9049

>  <Formula>
C20H25NO5

>  <MolWeight>
359.4162

>  <Cat>
P2970

>  <Name>
WAY-621512

>  <Synonyms>
N/A

>  <Target>
Lactate dehydrogenase

>  <Form>
free base

>  <CAS>
474652-58-9

>  <URL>
N/A

$$$$
