WAY-608339
 OpenBabel08302521443D

 48 51  0  0  0  0  0  0  0  0999 V2000
    1.2820   -1.0306   -0.0996 N   0  0  0  0  0  0  0  0  0  0  0  0
    1.0091    1.1399   -0.4461 N   0  0  0  0  0  0  0  0  0  0  0  0
    1.8045    0.1161   -0.6755 C   0  0  0  0  0  0  0  0  0  0  0  0
   -0.4187   -3.3655   -1.2624 N   0  0  0  0  0  0  0  0  0  0  0  0
    0.6247   -3.4142   -0.2827 C   0  0  0  0  0  0  0  0  0  0  0  0
    1.7303   -2.3885   -0.3277 C   0  0  0  0  0  0  0  0  0  0  0  0
    0.2218   -0.6588    0.6967 C   0  0  0  0  0  0  0  0  0  0  0  0
    0.0282    0.6801    0.3975 C   0  0  0  0  0  0  0  0  0  0  0  0
   -1.2311   -4.5595   -1.3066 C   0  0  0  0  0  0  0  0  0  0  0  0
    0.6901   -4.2879    0.6027 O   0  0  0  0  0  0  0  0  0  0  0  0
   -0.6717   -5.5679   -2.0921 C   0  0  0  0  0  0  0  0  0  0  0  0
   -0.1088   -2.8468   -2.6020 C   0  0  0  0  0  0  0  0  0  0  0  0
    3.0856    0.1862   -1.4484 C   0  0  0  0  0  0  0  0  0  0  0  0
   -0.5935   -1.3487    1.6014 C   0  0  0  0  0  0  0  0  0  0  0  0
   -2.0758   -4.8834   -0.2565 C   0  0  0  0  0  0  0  0  0  0  0  0
   -1.0575    1.3646    0.9566 C   0  0  0  0  0  0  0  0  0  0  0  0
    0.5986   -3.9180   -3.4435 C   0  0  0  0  0  0  0  0  0  0  0  0
   -0.2424   -5.1939   -3.4753 C   0  0  0  0  0  0  0  0  0  0  0  0
   -0.5050   -6.8198   -1.5038 C   0  0  0  0  0  0  0  0  0  0  0  0
    4.0449    1.2410   -0.8917 C   0  0  0  0  0  0  0  0  0  0  0  0
   -1.6689   -0.6600    2.1466 C   0  0  0  0  0  0  0  0  0  0  0  0
   -2.0605   -6.1883    0.2386 C   0  0  0  0  0  0  0  0  0  0  0  0
   -1.9115    0.6756    1.8214 C   0  0  0  0  0  0  0  0  0  0  0  0
    4.5700    0.9055    0.4981 C   0  0  0  0  0  0  0  0  0  0  0  0
   -1.1568   -7.1041   -0.3066 C   0  0  0  0  0  0  0  0  0  0  0  0
    2.2594   -2.4636   -1.2836 H   0  0  0  0  0  0  0  0  0  0  0  0
    2.4569   -2.6071    0.4639 H   0  0  0  0  0  0  0  0  0  0  0  0
   -1.0526   -2.5361   -3.0645 H   0  0  0  0  0  0  0  0  0  0  0  0
    0.5184   -1.9562   -2.5365 H   0  0  0  0  0  0  0  0  0  0  0  0
    3.6048   -0.7773   -1.4822 H   0  0  0  0  0  0  0  0  0  0  0  0
    2.8384    0.4486   -2.4833 H   0  0  0  0  0  0  0  0  0  0  0  0
   -0.4184   -2.3895    1.8760 H   0  0  0  0  0  0  0  0  0  0  0  0
   -2.6940   -4.1264    0.2160 H   0  0  0  0  0  0  0  0  0  0  0  0
   -1.2247    2.4073    0.7209 H   0  0  0  0  0  0  0  0  0  0  0  0
    0.7664   -3.5496   -4.4578 H   0  0  0  0  0  0  0  0  0  0  0  0
    1.5723   -4.1512   -3.0038 H   0  0  0  0  0  0  0  0  0  0  0  0
   -1.1627   -5.0006   -4.0551 H   0  0  0  0  0  0  0  0  0  0  0  0
    0.2808   -6.0090   -3.9775 H   0  0  0  0  0  0  0  0  0  0  0  0
    0.1667   -7.5539   -1.9454 H   0  0  0  0  0  0  0  0  0  0  0  0
    4.9022    1.3336   -1.5729 H   0  0  0  0  0  0  0  0  0  0  0  0
    3.5599    2.2268   -0.8646 H   0  0  0  0  0  0  0  0  0  0  0  0
   -2.3409   -1.1676    2.8376 H   0  0  0  0  0  0  0  0  0  0  0  0
   -2.6651   -6.4524    1.0988 H   0  0  0  0  0  0  0  0  0  0  0  0
   -2.7656    1.1868    2.2520 H   0  0  0  0  0  0  0  0  0  0  0  0
    3.7632    0.8915    1.2378 H   0  0  0  0  0  0  0  0  0  0  0  0
    5.0621   -0.0725    0.5056 H   0  0  0  0  0  0  0  0  0  0  0  0
    5.3011    1.6552    0.8177 H   0  0  0  0  0  0  0  0  0  0  0  0
   -0.9737   -8.0462    0.2095 H   0  0  0  0  0  0  0  0  0  0  0  0
  2  3  2  0  0  0  0
  3  1  1  0  0  0  0
  4  5  1  0  0  0  0
  5  6  1  0  0  0  0
  6  1  1  0  0  0  0
  6 26  1  0  0  0  0
  6 27  1  0  0  0  0
  7  1  1  0  0  0  0
  8  7  2  0  0  0  0
  8  2  1  0  0  0  0
  9  4  1  0  0  0  0
 10  5  2  0  0  0  0
 11  9  2  0  0  0  0
 12  4  1  0  0  0  0
 12 28  1  0  0  0  0
 12 29  1  0  0  0  0
 13  3  1  0  0  0  0
 13 30  1  0  0  0  0
 13 31  1  0  0  0  0
 14  7  1  0  0  0  0
 14 32  1  0  0  0  0
 15  9  1  0  0  0  0
 15 33  1  0  0  0  0
 16  8  1  0  0  0  0
 16 34  1  0  0  0  0
 17 12  1  0  0  0  0
 17 35  1  0  0  0  0
 17 36  1  0  0  0  0
 18 17  1  0  0  0  0
 18 11  1  0  0  0  0
 18 37  1  0  0  0  0
 18 38  1  0  0  0  0
 19 11  1  0  0  0  0
 19 39  1  0  0  0  0
 20 13  1  0  0  0  0
 20 40  1  0  0  0  0
 20 41  1  0  0  0  0
 21 14  2  0  0  0  0
 21 42  1  0  0  0  0
 22 15  2  0  0  0  0
 22 43  1  0  0  0  0
 23 21  1  0  0  0  0
 23 16  2  0  0  0  0
 23 44  1  0  0  0  0
 24 20  1  0  0  0  0
 24 45  1  0  0  0  0
 24 46  1  0  0  0  0
 24 47  1  0  0  0  0
 25 22  1  0  0  0  0
 25 19  2  0  0  0  0
 25 48  1  0  0  0  0
M  END
>  <Mol_ID>
9015

>  <Formula>
C21H23N3O

>  <MolWeight>
333.42682

>  <Cat>
P2919

>  <Name>
WAY-608339

>  <Synonyms>
N/A

>  <Target>
Others

>  <Form>
free base

>  <CAS>
749212-56-4

>  <URL>
N/A

$$$$
