WAY-326220
 OpenBabel08302521433D

 53 56  0  0  0  0  0  0  0  0999 V2000
    1.4013    0.8657   -0.0787 C   0  0  0  0  0  0  0  0  0  0  0  0
    3.5729   -0.2847   -0.0163 N   0  0  0  0  0  0  0  0  0  0  0  0
    2.8884    0.9224   -0.0133 C   0  0  0  0  0  0  0  0  0  0  0  0
    0.8537   -0.3534   -0.1425 C   0  0  0  0  0  0  0  0  0  0  0  0
    2.8844   -1.4857   -0.1017 C   0  0  0  0  0  0  0  0  0  0  0  0
    1.5833   -1.5254   -0.1702 N   0  0  0  0  0  0  0  0  0  0  0  0
    0.6432    2.1960    0.0162 C   0  0  3  0  0  0  0  0  0  0  0  0
   -0.6358   -0.4713   -0.1034 C   0  0  0  0  0  0  0  0  0  0  0  0
   -1.4569    0.6673   -0.0722 C   0  0  0  0  0  0  0  0  0  0  0  0
   -0.8943    2.0529   -0.1565 C   0  0  0  0  0  0  0  0  0  0  0  0
    5.0012   -0.1808   -0.0577 C   0  0  0  0  0  0  0  0  0  0  0  0
    3.4543    2.0170    0.0269 O   0  0  0  0  0  0  0  0  0  0  0  0
    3.5837   -2.6721   -0.0449 N   0  0  0  0  0  0  0  0  0  0  0  0
    0.9230    2.8651    1.4017 C   0  0  0  0  0  0  0  0  0  0  0  0
    1.0727    3.1600   -1.1263 C   0  0  0  0  0  0  0  0  0  0  0  0
   -1.2716   -1.7251   -0.0789 C   0  0  0  0  0  0  0  0  0  0  0  0
   -2.8593    0.5466   -0.0230 C   0  0  0  0  0  0  0  0  0  0  0  0
    1.1630   -4.2415    0.8501 O   0  0  0  0  0  0  0  0  0  0  0  0
    5.6666    0.5352    0.9527 C   0  0  0  0  0  0  0  0  0  0  0  0
    5.7187   -0.5949   -1.1891 C   0  0  0  0  0  0  0  0  0  0  0  0
    3.1137   -3.9323   -0.6102 C   0  0  0  0  0  0  0  0  0  0  0  0
    2.3970   -4.8062    0.4239 C   0  0  0  0  0  0  0  0  0  0  0  0
    0.5349    2.0099    2.6109 C   0  0  0  0  0  0  0  0  0  0  0  0
   -2.6644   -1.8403   -0.0231 C   0  0  0  0  0  0  0  0  0  0  0  0
   -3.4614   -0.7037    0.0065 C   0  0  0  0  0  0  0  0  0  0  0  0
    7.0696   -0.2482   -1.3219 C   0  0  0  0  0  0  0  0  0  0  0  0
    7.0146    0.8666    0.8201 C   0  0  0  0  0  0  0  0  0  0  0  0
    7.7119    0.4892   -0.3245 C   0  0  0  0  0  0  0  0  0  0  0  0
   -1.4107    2.6849    0.5787 H   0  0  0  0  0  0  0  0  0  0  0  0
   -1.2065    2.4421   -1.1359 H   0  0  0  0  0  0  0  0  0  0  0  0
    4.5821   -2.6218    0.1207 H   0  0  0  0  0  0  0  0  0  0  0  0
    1.9811    3.1294    1.5050 H   0  0  0  0  0  0  0  0  0  0  0  0
    0.3840    3.8182    1.4650 H   0  0  0  0  0  0  0  0  0  0  0  0
    0.8777    2.7065   -2.1072 H   0  0  0  0  0  0  0  0  0  0  0  0
    0.5067    4.0976   -1.0761 H   0  0  0  0  0  0  0  0  0  0  0  0
    2.1264    3.4408   -1.1069 H   0  0  0  0  0  0  0  0  0  0  0  0
   -0.6868   -2.6407   -0.1065 H   0  0  0  0  0  0  0  0  0  0  0  0
   -3.4840    1.4382   -0.0208 H   0  0  0  0  0  0  0  0  0  0  0  0
    1.2966   -3.2698    0.8693 H   0  0  0  0  0  0  0  0  0  0  0  0
    5.1192    0.8895    1.8228 H   0  0  0  0  0  0  0  0  0  0  0  0
    5.2188   -1.0945   -2.0144 H   0  0  0  0  0  0  0  0  0  0  0  0
    2.4625   -3.7383   -1.4685 H   0  0  0  0  0  0  0  0  0  0  0  0
    3.9885   -4.4801   -0.9792 H   0  0  0  0  0  0  0  0  0  0  0  0
    2.1718   -5.7827   -0.0186 H   0  0  0  0  0  0  0  0  0  0  0  0
    3.0198   -4.9719    1.3082 H   0  0  0  0  0  0  0  0  0  0  0  0
   -0.5367    1.7947    2.6251 H   0  0  0  0  0  0  0  0  0  0  0  0
    1.0765    1.0584    2.6283 H   0  0  0  0  0  0  0  0  0  0  0  0
    0.7786    2.5397    3.5364 H   0  0  0  0  0  0  0  0  0  0  0  0
   -3.1249   -2.8261   -0.0032 H   0  0  0  0  0  0  0  0  0  0  0  0
   -4.5440   -0.7867    0.0373 H   0  0  0  0  0  0  0  0  0  0  0  0
    7.6125   -0.5049   -2.2287 H   0  0  0  0  0  0  0  0  0  0  0  0
    7.5014    1.4616    1.5887 H   0  0  0  0  0  0  0  0  0  0  0  0
    8.7475    0.7965   -0.4507 H   0  0  0  0  0  0  0  0  0  0  0  0
  2  3  1  0  0  0  0
  2  5  1  0  0  0  0
  3  1  1  0  0  0  0
  4  1  2  0  0  0  0
  5  6  2  0  0  0  0
  6  4  1  0  0  0  0
  7  1  1  0  0  0  0
  8  4  1  0  0  0  0
  8  9  2  0  0  0  0
  9 10  1  0  0  0  0
 10  7  1  0  0  0  0
 10 29  1  0  0  0  0
 10 30  1  0  0  0  0
 11  2  1  0  0  0  0
 12  3  2  0  0  0  0
 13  5  1  0  0  0  0
 13 31  1  0  0  0  0
 14  7  1  0  0  0  0
 14 32  1  0  0  0  0
 14 33  1  0  0  0  0
 15  7  1  0  0  0  0
 15 34  1  0  0  0  0
 15 35  1  0  0  0  0
 15 36  1  0  0  0  0
 16  8  1  0  0  0  0
 16 37  1  0  0  0  0
 17  9  1  0  0  0  0
 17 38  1  0  0  0  0
 18 22  1  0  0  0  0
 18 39  1  0  0  0  0
 19 11  2  0  0  0  0
 19 40  1  0  0  0  0
 20 11  1  0  0  0  0
 20 41  1  0  0  0  0
 21 13  1  0  0  0  0
 21 42  1  0  0  0  0
 21 43  1  0  0  0  0
 22 21  1  0  0  0  0
 22 44  1  0  0  0  0
 22 45  1  0  0  0  0
 23 14  1  0  0  0  0
 23 46  1  0  0  0  0
 23 47  1  0  0  0  0
 23 48  1  0  0  0  0
 24 16  2  0  0  0  0
 24 25  1  0  0  0  0
 24 49  1  0  0  0  0
 25 17  2  0  0  0  0
 25 50  1  0  0  0  0
 26 20  2  0  0  0  0
 26 51  1  0  0  0  0
 27 19  1  0  0  0  0
 27 28  2  0  0  0  0
 27 52  1  0  0  0  0
 28 26  1  0  0  0  0
 28 53  1  0  0  0  0
M  END
>  <Mol_ID>
8901

>  <Formula>
C23H25N3O2

>  <MolWeight>
375.4635

>  <Cat>
P2459

>  <Name>
WAY-326220

>  <Synonyms>
N/A

>  <Target>
5-HT

>  <Form>
free base

>  <CAS>
869867-36-7

>  <URL>
N/A

$$$$
