WAY-329738
 OpenBabel08302521453D

 38 39  0  0  0  0  0  0  0  0999 V2000
    1.5052   -2.6186    0.1684 N   0  0  0  0  0  0  0  0  0  0  0  0
    2.3402   -3.6742    0.2272 N   0  0  0  0  0  0  0  0  0  0  0  0
    0.1915   -2.9546    0.3826 C   0  0  0  0  0  0  0  0  0  0  0  0
    0.2005   -4.3079    0.6525 C   0  0  0  0  0  0  0  0  0  0  0  0
    1.5517   -4.7021    0.5530 C   0  0  0  0  0  0  0  0  0  0  0  0
    3.4153    0.2607   -1.3794 C   0  0  0  0  0  0  0  0  0  0  0  0
    2.8292   -1.1298   -1.3195 C   0  0  0  0  0  0  0  0  0  0  0  0
    2.0883   -1.3003    0.0054 C   0  0  0  0  0  0  0  0  0  0  0  0
    4.4980    0.3882   -2.2308 N   0  0  0  0  0  0  0  0  0  0  0  0
    2.9058    1.1810   -0.7392 O   0  0  0  0  0  0  0  0  0  0  0  0
    5.3531    1.5162   -2.3032 C   0  0  0  0  0  0  0  0  0  0  0  0
    7.2414    3.6150   -2.4148 C   0  0  0  0  0  0  0  0  0  0  0  0
    5.4228    2.4696   -1.2873 C   0  0  0  0  0  0  0  0  0  0  0  0
    6.2097    1.6446   -3.4033 C   0  0  0  0  0  0  0  0  0  0  0  0
    7.1380    2.6942   -3.4630 C   0  0  0  0  0  0  0  0  0  0  0  0
    6.3609    3.5042   -1.3368 C   0  0  0  0  0  0  0  0  0  0  0  0
   -0.9388   -1.9943    0.3504 C   0  0  0  0  0  0  0  0  0  0  0  0
    2.1408   -6.0401    0.7852 C   0  0  0  0  0  0  0  0  0  0  0  0
    8.2890    4.6877   -2.4050 C   0  0  0  0  0  0  0  0  0  0  0  0
   -0.6514   -4.9233    0.9061 H   0  0  0  0  0  0  0  0  0  0  0  0
    3.6278   -1.8734   -1.4179 H   0  0  0  0  0  0  0  0  0  0  0  0
    2.1386   -1.2569   -2.1644 H   0  0  0  0  0  0  0  0  0  0  0  0
    1.2943   -0.5556    0.1216 H   0  0  0  0  0  0  0  0  0  0  0  0
    2.7783   -1.1639    0.8486 H   0  0  0  0  0  0  0  0  0  0  0  0
    4.6991   -0.3752   -2.8643 H   0  0  0  0  0  0  0  0  0  0  0  0
    4.7901    2.4107   -0.4072 H   0  0  0  0  0  0  0  0  0  0  0  0
    6.1615    0.9469   -4.2338 H   0  0  0  0  0  0  0  0  0  0  0  0
    7.7913    2.7800   -4.3305 H   0  0  0  0  0  0  0  0  0  0  0  0
    6.4109    4.2105   -0.5107 H   0  0  0  0  0  0  0  0  0  0  0  0
   -0.8381   -1.2460    1.1427 H   0  0  0  0  0  0  0  0  0  0  0  0
   -0.9870   -1.4818   -0.6156 H   0  0  0  0  0  0  0  0  0  0  0  0
   -1.8922   -2.5116    0.5002 H   0  0  0  0  0  0  0  0  0  0  0  0
    2.7319   -6.3585   -0.0791 H   0  0  0  0  0  0  0  0  0  0  0  0
    2.7968   -6.0142    1.6618 H   0  0  0  0  0  0  0  0  0  0  0  0
    1.3652   -6.7907    0.9638 H   0  0  0  0  0  0  0  0  0  0  0  0
    7.8245    5.6771   -2.3471 H   0  0  0  0  0  0  0  0  0  0  0  0
    8.9480    4.5528   -1.5401 H   0  0  0  0  0  0  0  0  0  0  0  0
    8.9115    4.6552   -3.3052 H   0  0  0  0  0  0  0  0  0  0  0  0
  2  1  1  0  0  0  0
  3  1  1  0  0  0  0
  4  3  2  0  0  0  0
  4 20  1  0  0  0  0
  5  2  2  0  0  0  0
  5  4  1  0  0  0  0
  6  7  1  0  0  0  0
  7  8  1  0  0  0  0
  7 21  1  0  0  0  0
  7 22  1  0  0  0  0
  8  1  1  0  0  0  0
  8 23  1  0  0  0  0
  8 24  1  0  0  0  0
  9  6  1  0  0  0  0
  9 25  1  0  0  0  0
 10  6  2  0  0  0  0
 11  9  1  0  0  0  0
 12 15  2  0  0  0  0
 12 16  1  0  0  0  0
 13 11  1  0  0  0  0
 13 26  1  0  0  0  0
 14 11  2  0  0  0  0
 14 27  1  0  0  0  0
 15 14  1  0  0  0  0
 15 28  1  0  0  0  0
 16 13  2  0  0  0  0
 16 29  1  0  0  0  0
 17  3  1  0  0  0  0
 17 30  1  0  0  0  0
 17 31  1  0  0  0  0
 17 32  1  0  0  0  0
 18  5  1  0  0  0  0
 18 33  1  0  0  0  0
 18 34  1  0  0  0  0
 18 35  1  0  0  0  0
 19 12  1  0  0  0  0
 19 36  1  0  0  0  0
 19 37  1  0  0  0  0
 19 38  1  0  0  0  0
M  END
>  <Mol_ID>
9337

>  <Formula>
C15H19N3O

>  <MolWeight>
257.33086

>  <Cat>
P2595

>  <Name>
WAY-329738

>  <Synonyms>
N/A

>  <Target>
anti-infection

>  <Form>
free base

>  <CAS>
957511-97-6

>  <URL>
N/A

$$$$
