WAY-112552
 OpenBabel08302521403D

 22 22  0  0  0  0  0  0  0  0999 V2000
   -0.7394    1.1252   -0.1942 C   0  0  0  0  0  0  0  0  0  0  0  0
   -1.4185   -0.0641    0.0431 C   0  0  0  0  0  0  0  0  0  0  0  0
   -1.3223    2.4835   -0.2235 C   0  0  0  0  0  0  0  0  0  0  0  0
    0.6116    0.9891   -0.4661 C   0  0  0  0  0  0  0  0  0  0  0  0
   -0.8043   -1.2656    0.0424 N   0  0  0  0  0  0  0  0  0  0  0  0
   -2.7614   -0.1323    0.3945 N   0  0  0  0  0  0  0  0  0  0  0  0
   -2.6662    2.4543   -0.0284 O   0  0  0  0  0  0  0  0  0  0  0  0
   -0.6614    3.4873   -0.4407 O   0  0  0  0  0  0  0  0  0  0  0  0
    1.2629   -0.1929   -0.4870 N   0  0  0  0  0  0  0  0  0  0  0  0
    0.5055   -1.2518   -0.2204 C   0  0  0  0  0  0  0  0  0  0  0  0
   -3.3689    3.7029   -0.1129 C   0  0  0  0  0  0  0  0  0  0  0  0
    1.1035   -2.4696   -0.1841 O   0  0  0  0  0  0  0  0  0  0  0  0
   -3.3560    4.4352    1.2157 C   0  0  0  0  0  0  0  0  0  0  0  0
    1.2377    1.8509   -0.6855 H   0  0  0  0  0  0  0  0  0  0  0  0
   -3.0742   -1.0973    0.3964 H   0  0  0  0  0  0  0  0  0  0  0  0
   -3.3503    0.4956   -0.1460 H   0  0  0  0  0  0  0  0  0  0  0  0
   -2.9631    4.3228   -0.9194 H   0  0  0  0  0  0  0  0  0  0  0  0
   -4.4027    3.4602   -0.3803 H   0  0  0  0  0  0  0  0  0  0  0  0
    0.3424   -3.0116    0.0765 H   0  0  0  0  0  0  0  0  0  0  0  0
   -2.3390    4.5530    1.6013 H   0  0  0  0  0  0  0  0  0  0  0  0
   -3.8114    5.4247    1.1104 H   0  0  0  0  0  0  0  0  0  0  0  0
   -3.9216    3.8758    1.9686 H   0  0  0  0  0  0  0  0  0  0  0  0
  1  2  2  0  0  0  0
  1  3  1  0  0  0  0
  1  4  1  0  0  0  0
  2  5  1  0  0  0  0
  2  6  1  0  0  0  0
  3  7  1  0  0  0  0
  3  8  2  0  0  0  0
  4  9  2  0  0  0  0
  4 14  1  0  0  0  0
  5 10  2  0  0  0  0
  6 15  1  0  0  0  0
  6 16  1  0  0  0  0
  7 11  1  0  0  0  0
  9 10  1  0  0  0  0
 10 12  1  0  0  0  0
 11 13  1  0  0  0  0
 11 17  1  0  0  0  0
 11 18  1  0  0  0  0
 12 19  1  0  0  0  0
 13 20  1  0  0  0  0
 13 21  1  0  0  0  0
 13 22  1  0  0  0  0
M  END
>  <Mol_ID>
8329

>  <Formula>
C7H9N3O3

>  <MolWeight>
183.16466

>  <Cat>
P2042

>  <Name>
WAY-112552

>  <Synonyms>
N/A

>  <Target>
UHRF1

>  <Form>
free base

>  <CAS>
20187-46-6

>  <URL>
N/A

$$$$
