WAY-332020
 OpenBabel08302521443D

 52 54  0  0  0  0  0  0  0  0999 V2000
   -1.3595    0.6515    0.5956 N   0  0  0  0  0  0  0  0  0  0  0  0
   -0.2279    1.1854    0.0179 C   0  0  0  0  0  0  0  0  0  0  0  0
   -1.2182   -0.6525    0.4339 C   0  0  0  0  0  0  0  0  0  0  0  0
   -0.0445   -1.0154   -0.1672 O   0  0  0  0  0  0  0  0  0  0  0  0
    0.5708    0.1646   -0.4454 C   0  0  0  0  0  0  0  0  0  0  0  0
   -3.3661    3.3601   -2.4520 C   0  0  0  0  0  0  0  0  0  0  0  0
   -4.6961    3.6542   -2.1106 N   0  0  0  0  0  0  0  0  0  0  0  0
   -2.4572    2.8785   -1.3238 C   0  0  0  0  0  0  0  0  0  0  0  0
   -0.7139    3.3614   -1.5908 S   0  0  3  0  0  0  0  0  0  0  0  0
   -0.0350    2.6526   -0.0432 C   0  0  0  0  0  0  0  0  0  0  0  0
   -7.2998    4.8431   -1.3404 N   0  0  0  0  0  0  0  0  0  0  0  0
   -2.1573   -1.7200    0.7443 C   0  0  0  0  0  0  0  0  0  0  0  0
   -2.9691    3.4718   -3.6043 O   0  0  0  0  0  0  0  0  0  0  0  0
   -5.2229    3.4930   -0.7555 C   0  0  0  0  0  0  0  0  0  0  0  0
   -5.2933    4.7405   -2.8915 C   0  0  0  0  0  0  0  0  0  0  0  0
   -0.6191    4.8590   -1.4857 O   0  0  0  0  0  0  0  0  0  0  0  0
   -3.4272   -1.4017    1.2464 C   0  0  0  0  0  0  0  0  0  0  0  0
   -1.8385   -3.0655    0.5311 C   0  0  0  0  0  0  0  0  0  0  0  0
   -6.7529    3.6541   -0.6595 C   0  0  0  0  0  0  0  0  0  0  0  0
   -6.8175    4.8653   -2.7354 C   0  0  0  0  0  0  0  0  0  0  0  0
   -4.0110   -3.7448    1.3702 C   0  0  0  0  0  0  0  0  0  0  0  0
   -2.7645   -4.0672    0.8336 C   0  0  0  0  0  0  0  0  0  0  0  0
   -4.3513   -2.4079    1.5603 C   0  0  0  0  0  0  0  0  0  0  0  0
    1.8555    0.0867   -1.1705 C   0  0  0  0  0  0  0  0  0  0  0  0
   -4.8210   -4.8141    1.6333 O   0  0  0  0  0  0  0  0  0  0  0  0
   -6.9647    6.0820   -0.6397 C   0  0  0  0  0  0  0  0  0  0  0  0
   -5.7464   -4.6487    2.7026 C   0  0  0  0  0  0  0  0  0  0  0  0
   -2.5069    1.7939   -1.3060 H   0  0  0  0  0  0  0  0  0  0  0  0
   -2.7696    3.2913   -0.3637 H   0  0  0  0  0  0  0  0  0  0  0  0
   -0.5115    3.1431    0.8117 H   0  0  0  0  0  0  0  0  0  0  0  0
    1.0376    2.8769    0.0061 H   0  0  0  0  0  0  0  0  0  0  0  0
   -4.9325    2.5082   -0.3685 H   0  0  0  0  0  0  0  0  0  0  0  0
   -4.7292    4.2516   -0.1390 H   0  0  0  0  0  0  0  0  0  0  0  0
   -4.8044    5.6611   -2.5457 H   0  0  0  0  0  0  0  0  0  0  0  0
   -5.0454    4.6282   -3.9511 H   0  0  0  0  0  0  0  0  0  0  0  0
   -3.6977   -0.3600    1.4088 H   0  0  0  0  0  0  0  0  0  0  0  0
   -0.8665   -3.3461    0.1316 H   0  0  0  0  0  0  0  0  0  0  0  0
   -7.2272    2.7682   -1.1020 H   0  0  0  0  0  0  0  0  0  0  0  0
   -7.0528    3.6535    0.3961 H   0  0  0  0  0  0  0  0  0  0  0  0
   -7.2909    4.0334   -3.2718 H   0  0  0  0  0  0  0  0  0  0  0  0
   -7.1620    5.7773   -3.2406 H   0  0  0  0  0  0  0  0  0  0  0  0
   -2.4998   -5.1087    0.6718 H   0  0  0  0  0  0  0  0  0  0  0  0
   -5.3231   -2.1087    1.9350 H   0  0  0  0  0  0  0  0  0  0  0  0
    2.5725   -0.5229   -0.6135 H   0  0  0  0  0  0  0  0  0  0  0  0
    1.7108   -0.3657   -2.1569 H   0  0  0  0  0  0  0  0  0  0  0  0
    2.2921    1.0796   -1.3147 H   0  0  0  0  0  0  0  0  0  0  0  0
   -5.8882    6.2720   -0.5795 H   0  0  0  0  0  0  0  0  0  0  0  0
   -7.4309    6.9380   -1.1406 H   0  0  0  0  0  0  0  0  0  0  0  0
   -7.3628    6.0628    0.3805 H   0  0  0  0  0  0  0  0  0  0  0  0
   -5.2355   -4.3701    3.6305 H   0  0  0  0  0  0  0  0  0  0  0  0
   -6.5252   -3.9244    2.4482 H   0  0  0  0  0  0  0  0  0  0  0  0
   -6.2364   -5.6127    2.8699 H   0  0  0  0  0  0  0  0  0  0  0  0
  2  1  1  0  0  0  0
  3  1  2  0  0  0  0
  4  3  1  0  0  0  0
  5  2  2  0  0  0  0
  5  4  1  0  0  0  0
  6  8  1  0  0  0  0
  7  6  1  0  0  0  0
  8  9  1  0  0  0  0
  8 28  1  0  0  0  0
  8 29  1  0  0  0  0
  9 10  1  0  0  0  0
 10  2  1  0  0  0  0
 10 30  1  0  0  0  0
 10 31  1  0  0  0  0
 11 20  1  0  0  0  0
 11 19  1  0  0  0  0
 12  3  1  0  0  0  0
 13  6  2  0  0  0  0
 14  7  1  0  0  0  0
 14 32  1  0  0  0  0
 14 33  1  0  0  0  0
 15  7  1  0  0  0  0
 15 34  1  0  0  0  0
 15 35  1  0  0  0  0
 16  9  2  0  0  0  0
 17 12  2  0  0  0  0
 17 36  1  0  0  0  0
 18 12  1  0  0  0  0
 18 37  1  0  0  0  0
 19 14  1  0  0  0  0
 19 38  1  0  0  0  0
 19 39  1  0  0  0  0
 20 15  1  0  0  0  0
 20 40  1  0  0  0  0
 20 41  1  0  0  0  0
 21 22  1  0  0  0  0
 21 23  2  0  0  0  0
 22 18  2  0  0  0  0
 22 42  1  0  0  0  0
 23 17  1  0  0  0  0
 23 43  1  0  0  0  0
 24  5  1  0  0  0  0
 24 44  1  0  0  0  0
 24 45  1  0  0  0  0
 24 46  1  0  0  0  0
 25 21  1  0  0  0  0
 26 11  1  0  0  0  0
 26 47  1  0  0  0  0
 26 48  1  0  0  0  0
 26 49  1  0  0  0  0
 27 25  1  0  0  0  0
 27 50  1  0  0  0  0
 27 51  1  0  0  0  0
 27 52  1  0  0  0  0
M  END
>  <Mol_ID>
9254

>  <Formula>
C19H25N3O4S

>  <MolWeight>
391.4845

>  <Cat>
P2668

>  <Name>
WAY-332020

>  <Synonyms>
N/A

>  <Target>
beta-catenin

>  <Form>
free base

>  <CAS>
1015857-03-0

>  <URL>
N/A

$$$$
