WAY-300424
 OpenBabel08302521413D

 31 33  0  0  0  0  0  0  0  0999 V2000
   -1.0036    0.3869   -0.2331 C   0  0  0  0  0  0  0  0  0  0  0  0
    0.4189    0.3401   -0.4483 C   0  0  0  0  0  0  0  0  0  0  0  0
   -1.5552   -0.8650   -0.0307 C   0  0  0  0  0  0  0  0  0  0  0  0
   -1.9196    1.5071   -0.1764 C   0  0  0  0  0  0  0  0  0  0  0  0
    0.8761   -0.9650   -0.3895 C   0  0  0  0  0  0  0  0  0  0  0  0
    1.3273    1.5138   -0.6498 C   0  0  0  0  0  0  0  0  0  0  0  0
   -0.3809   -2.0938   -0.1278 S   0  0  0  0  0  0  0  0  0  0  0  0
   -2.8531   -1.1479    0.2508 N   0  0  0  0  0  0  0  0  0  0  0  0
   -3.2090    1.1701    0.1326 N   0  0  0  0  0  0  0  0  0  0  0  0
   -1.5920    2.6733   -0.3727 O   0  0  0  0  0  0  0  0  0  0  0  0
    2.3014   -1.4228   -0.4930 C   0  0  0  0  0  0  0  0  0  0  0  0
    2.3481    1.6533    0.4833 C   0  0  0  0  0  0  0  0  0  0  0  0
   -3.6483   -0.1160    0.3423 C   0  0  0  0  0  0  0  0  0  0  0  0
    3.1707   -0.8054    0.6070 C   0  0  0  0  0  0  0  0  0  0  0  0
    3.5202    0.6711    0.3879 C   0  0  0  0  0  0  0  0  0  0  0  0
   -4.9604   -0.3219    0.6950 N   0  0  0  0  0  0  0  0  0  0  0  0
   -5.9088    0.7131    0.7764 N   0  0  0  0  0  0  0  0  0  0  0  0
    0.7525    2.4417   -0.7084 H   0  0  0  0  0  0  0  0  0  0  0  0
    1.8400    1.4167   -1.6141 H   0  0  0  0  0  0  0  0  0  0  0  0
   -3.8633    1.9273    0.1233 H   0  0  0  0  0  0  0  0  0  0  0  0
    2.3599   -2.5153   -0.4108 H   0  0  0  0  0  0  0  0  0  0  0  0
    2.6977   -1.1642   -1.4823 H   0  0  0  0  0  0  0  0  0  0  0  0
    1.8567    1.5549    1.4595 H   0  0  0  0  0  0  0  0  0  0  0  0
    2.7627    2.6681    0.4417 H   0  0  0  0  0  0  0  0  0  0  0  0
    4.1144   -1.3644    0.6421 H   0  0  0  0  0  0  0  0  0  0  0  0
    2.6957   -0.9315    1.5880 H   0  0  0  0  0  0  0  0  0  0  0  0
    4.0225    0.7909   -0.5799 H   0  0  0  0  0  0  0  0  0  0  0  0
    4.2550    0.9562    1.1517 H   0  0  0  0  0  0  0  0  0  0  0  0
   -5.2722   -1.2917    0.6057 H   0  0  0  0  0  0  0  0  0  0  0  0
   -6.5405    0.5147    1.5601 H   0  0  0  0  0  0  0  0  0  0  0  0
   -5.4888    1.6025    1.0454 H   0  0  0  0  0  0  0  0  0  0  0  0
  1  2  1  0  0  0  0
  1  3  2  0  0  0  0
  1  4  1  0  0  0  0
  2  5  2  0  0  0  0
  2  6  1  0  0  0  0
  3  7  1  0  0  0  0
  3  8  1  0  0  0  0
  4  9  1  0  0  0  0
  4 10  2  0  0  0  0
  5 11  1  0  0  0  0
  5  7  1  0  0  0  0
  6 12  1  0  0  0  0
  6 18  1  0  0  0  0
  6 19  1  0  0  0  0
  8 13  2  0  0  0  0
  9 13  1  0  0  0  0
  9 20  1  0  0  0  0
 11 14  1  0  0  0  0
 11 21  1  0  0  0  0
 11 22  1  0  0  0  0
 12 15  1  0  0  0  0
 12 23  1  0  0  0  0
 12 24  1  0  0  0  0
 13 16  1  0  0  0  0
 14 15  1  0  0  0  0
 14 25  1  0  0  0  0
 14 26  1  0  0  0  0
 15 27  1  0  0  0  0
 15 28  1  0  0  0  0
 16 17  1  0  0  0  0
 16 29  1  0  0  0  0
 17 30  1  0  0  0  0
 17 31  1  0  0  0  0
M  END
>  <Mol_ID>
8408

>  <Formula>
C11H14N4OS

>  <MolWeight>
250.32006

>  <Cat>
P2141

>  <Name>
WAY-300424

>  <Synonyms>
N/A

>  <Target>
others

>  <Form>
free base

>  <CAS>
351160-28-6

>  <URL>
N/A

$$$$
