WAY-345114
 OpenBabel08302521403D

 30 31  0  0  0  0  0  0  0  0999 V2000
   -0.2104   -1.0829   -0.1484 C   0  0  0  0  0  0  0  0  0  0  0  0
    0.7005    1.1969   -0.0121 C   0  0  0  0  0  0  0  0  0  0  0  0
    1.3570   -0.3853   -0.2083 S   0  0  0  0  0  0  0  0  0  0  0  0
   -0.6110    1.2100    0.0198 N   0  0  0  0  0  0  0  0  0  0  0  0
   -1.1493   -0.0720   -0.0520 C   0  0  0  0  0  0  0  0  0  0  0  0
   -0.3764   -2.5259   -0.1743 C   0  0  0  0  0  0  0  0  0  0  0  0
    1.4779    2.3030    0.1608 N   0  0  0  0  0  0  0  0  0  0  0  0
   -1.3832   -3.1080    0.2267 O   0  0  0  0  0  0  0  0  0  0  0  0
    0.7098   -3.2235   -0.7153 N   0  0  0  0  0  0  0  0  0  0  0  0
    3.0147    4.6504    0.6469 O   0  0  0  0  0  0  0  0  0  0  0  0
    0.8385   -4.6174   -0.5454 N   0  0  0  0  0  0  0  0  0  0  0  0
   -2.6337   -0.1809   -0.0059 C   0  0  0  0  0  0  0  0  0  0  0  0
    2.8674    2.3889   -0.3065 C   0  0  0  0  0  0  0  0  0  0  0  0
    0.8168    3.6106    0.2722 C   0  0  0  0  0  0  0  0  0  0  0  0
    3.6457    3.3604    0.5931 C   0  0  0  0  0  0  0  0  0  0  0  0
    1.6746    4.5290    1.1564 C   0  0  0  0  0  0  0  0  0  0  0  0
    1.5309   -2.6802   -0.9753 H   0  0  0  0  0  0  0  0  0  0  0  0
   -0.1046   -5.0231   -0.5676 H   0  0  0  0  0  0  0  0  0  0  0  0
    1.3371   -5.0096   -1.3456 H   0  0  0  0  0  0  0  0  0  0  0  0
   -3.0172    0.2722    0.9122 H   0  0  0  0  0  0  0  0  0  0  0  0
   -3.0683    0.3627   -0.8560 H   0  0  0  0  0  0  0  0  0  0  0  0
   -2.9835   -1.2114   -0.0562 H   0  0  0  0  0  0  0  0  0  0  0  0
    2.8682    2.7561   -1.3401 H   0  0  0  0  0  0  0  0  0  0  0  0
    3.3884    1.4278   -0.2892 H   0  0  0  0  0  0  0  0  0  0  0  0
    0.7191    4.0459   -0.7302 H   0  0  0  0  0  0  0  0  0  0  0  0
   -0.1840    3.5393    0.7138 H   0  0  0  0  0  0  0  0  0  0  0  0
    3.7338    2.9646    1.6128 H   0  0  0  0  0  0  0  0  0  0  0  0
    4.6576    3.5000    0.2021 H   0  0  0  0  0  0  0  0  0  0  0  0
    1.2380    5.5313    1.1868 H   0  0  0  0  0  0  0  0  0  0  0  0
    1.7177    4.1497    2.1849 H   0  0  0  0  0  0  0  0  0  0  0  0
  2  3  1  0  0  0  0
  3  1  1  0  0  0  0
  4  5  1  0  0  0  0
  4  2  2  0  0  0  0
  5  1  2  0  0  0  0
  6  1  1  0  0  0  0
  7  2  1  0  0  0  0
  8  6  2  0  0  0  0
  9  6  1  0  0  0  0
  9 17  1  0  0  0  0
 10 16  1  0  0  0  0
 11  9  1  0  0  0  0
 11 18  1  0  0  0  0
 11 19  1  0  0  0  0
 12  5  1  0  0  0  0
 12 20  1  0  0  0  0
 12 21  1  0  0  0  0
 12 22  1  0  0  0  0
 13  7  1  0  0  0  0
 13 23  1  0  0  0  0
 13 24  1  0  0  0  0
 14  7  1  0  0  0  0
 14 25  1  0  0  0  0
 14 26  1  0  0  0  0
 15 13  1  0  0  0  0
 15 10  1  0  0  0  0
 15 27  1  0  0  0  0
 15 28  1  0  0  0  0
 16 14  1  0  0  0  0
 16 29  1  0  0  0  0
 16 30  1  0  0  0  0
M  END
>  <Mol_ID>
8289

>  <Formula>
C9H14N4O2S

>  <MolWeight>
242.29806

>  <Cat>
P2743

>  <Name>
WAY-345114

>  <Synonyms>
N/A

>  <Target>
caspase

>  <Form>
free base

>  <CAS>
743444-75-9

>  <URL>
N/A

$$$$
