WAY-327524
 OpenBabel08302521443D

 47 51  0  0  0  0  0  0  0  0999 V2000
   -1.5709   -1.2369    0.0372 C   0  0  0  0  0  0  0  0  0  0  0  0
   -0.2668   -0.7632   -0.0538 N   0  0  0  0  0  0  0  0  0  0  0  0
   -2.3512   -0.0802   -0.0276 C   0  0  0  0  0  0  0  0  0  0  0  0
   -1.5742    1.0606   -0.0681 N   0  0  0  0  0  0  0  0  0  0  0  0
   -0.3411    0.6092   -0.0228 C   0  0  0  0  0  0  0  0  0  0  0  0
   -3.8045   -0.0121   -0.0103 C   0  0  0  0  0  0  0  0  0  0  0  0
   -1.9292   -2.5550    0.0638 N   0  0  0  0  0  0  0  0  0  0  0  0
    2.0580    0.7982   -0.0216 N   0  0  0  0  0  0  0  0  0  0  0  0
    0.4907   -4.5313    2.0879 C   0  0  0  0  0  0  0  0  0  0  0  0
   -4.4668    1.0417   -0.6707 C   0  0  0  0  0  0  0  0  0  0  0  0
    0.9855   -1.3556   -0.1709 C   0  0  0  0  0  0  0  0  0  0  0  0
   -0.3595   -3.4879    1.7262 C   0  0  0  0  0  0  0  0  0  0  0  0
   -5.8592    1.1093   -0.6737 C   0  0  0  0  0  0  0  0  0  0  0  0
    0.8711    1.3756    0.0014 C   0  0  0  0  0  0  0  0  0  0  0  0
    0.3467   -5.7937    1.5023 C   0  0  0  0  0  0  0  0  0  0  0  0
   -1.2470   -3.6417    0.6508 C   0  0  0  0  0  0  0  0  0  0  0  0
    2.0811   -0.5734   -0.1203 C   0  0  0  0  0  0  0  0  0  0  0  0
   -6.5861    0.1276    0.0116 C   0  0  0  0  0  0  0  0  0  0  0  0
    1.5040   -4.2345    2.9691 O   0  0  0  0  0  0  0  0  0  0  0  0
   -4.5616   -0.9715    0.6791 C   0  0  0  0  0  0  0  0  0  0  0  0
    1.0933   -6.8826    1.8770 O   0  0  0  0  0  0  0  0  0  0  0  0
   -5.9496   -0.9039    0.6906 C   0  0  0  0  0  0  0  0  0  0  0  0
   -0.5583   -5.9730    0.4640 C   0  0  0  0  0  0  0  0  0  0  0  0
   -1.3374   -4.8975    0.0292 C   0  0  0  0  0  0  0  0  0  0  0  0
   -6.6286    2.0623   -1.2960 O   0  0  0  0  0  0  0  0  0  0  0  0
   -7.9525    0.1623    0.0370 O   0  0  0  0  0  0  0  0  0  0  0  0
    2.5171   -5.2541    2.9382 C   0  0  0  0  0  0  0  0  0  0  0  0
    1.8480   -6.6105    3.0680 C   0  0  0  0  0  0  0  0  0  0  0  0
   -5.9312    3.0792   -2.0064 C   0  0  0  0  0  0  0  0  0  0  0  0
   -2.7124   -2.8456   -0.5186 H   0  0  0  0  0  0  0  0  0  0  0  0
   -3.8620    1.7931   -1.1724 H   0  0  0  0  0  0  0  0  0  0  0  0
    1.0586   -2.4246   -0.2915 H   0  0  0  0  0  0  0  0  0  0  0  0
   -0.2676   -2.5293    2.2281 H   0  0  0  0  0  0  0  0  0  0  0  0
    0.8129    2.4679    0.0497 H   0  0  0  0  0  0  0  0  0  0  0  0
    3.0694   -1.0298   -0.1648 H   0  0  0  0  0  0  0  0  0  0  0  0
   -4.0718   -1.7669    1.2339 H   0  0  0  0  0  0  0  0  0  0  0  0
   -6.5350   -1.6421    1.2322 H   0  0  0  0  0  0  0  0  0  0  0  0
   -0.6277   -6.9350   -0.0365 H   0  0  0  0  0  0  0  0  0  0  0  0
   -1.9869   -5.0362   -0.8314 H   0  0  0  0  0  0  0  0  0  0  0  0
   -8.1972    0.9580   -0.4750 H   0  0  0  0  0  0  0  0  0  0  0  0
    3.2068   -5.0735    3.7677 H   0  0  0  0  0  0  0  0  0  0  0  0
    3.0847   -5.1744    1.9995 H   0  0  0  0  0  0  0  0  0  0  0  0
    1.1710   -6.6382    3.9318 H   0  0  0  0  0  0  0  0  0  0  0  0
    2.5901   -7.4055    3.1856 H   0  0  0  0  0  0  0  0  0  0  0  0
   -5.3294    3.6902   -1.3255 H   0  0  0  0  0  0  0  0  0  0  0  0
   -5.3173    2.6546   -2.8078 H   0  0  0  0  0  0  0  0  0  0  0  0
   -6.6752    3.7333   -2.4717 H   0  0  0  0  0  0  0  0  0  0  0  0
  2  1  1  0  0  0  0
  3  1  2  0  0  0  0
  4  3  1  0  0  0  0
  4  5  2  0  0  0  0
  5  2  1  0  0  0  0
  6  3  1  0  0  0  0
  7  1  1  0  0  0  0
  7 30  1  0  0  0  0
  8 17  1  0  0  0  0
  9 12  2  0  0  0  0
  9 15  1  0  0  0  0
 10  6  2  0  0  0  0
 10 31  1  0  0  0  0
 11  2  1  0  0  0  0
 11 32  1  0  0  0  0
 12 16  1  0  0  0  0
 12 33  1  0  0  0  0
 13 10  1  0  0  0  0
 13 18  2  0  0  0  0
 14  5  1  0  0  0  0
 14  8  2  0  0  0  0
 14 34  1  0  0  0  0
 15 23  2  0  0  0  0
 16  7  1  0  0  0  0
 17 11  2  0  0  0  0
 17 35  1  0  0  0  0
 18 22  1  0  0  0  0
 19  9  1  0  0  0  0
 20  6  1  0  0  0  0
 20 36  1  0  0  0  0
 21 15  1  0  0  0  0
 22 20  2  0  0  0  0
 22 37  1  0  0  0  0
 23 24  1  0  0  0  0
 23 38  1  0  0  0  0
 24 16  2  0  0  0  0
 24 39  1  0  0  0  0
 25 13  1  0  0  0  0
 26 18  1  0  0  0  0
 26 40  1  0  0  0  0
 27 19  1  0  0  0  0
 27 28  1  0  0  0  0
 27 41  1  0  0  0  0
 27 42  1  0  0  0  0
 28 21  1  0  0  0  0
 28 43  1  0  0  0  0
 28 44  1  0  0  0  0
 29 25  1  0  0  0  0
 29 45  1  0  0  0  0
 29 46  1  0  0  0  0
 29 47  1  0  0  0  0
M  END
>  <Mol_ID>
8979

>  <Formula>
C21H18N4O4

>  <MolWeight>
390.39202

>  <Cat>
P2542

>  <Name>
WAY-327524

>  <Synonyms>
N/A

>  <Target>
cannabinoid CB2 receptor

>  <Form>
free base

>  <CAS>
879591-79-4

>  <URL>
N/A

$$$$
