WAY-331966
 OpenBabel08302521453D

 42 44  0  0  0  0  0  0  0  0999 V2000
   -1.2832   -0.6345    0.0527 C   0  0  0  0  0  0  0  0  0  0  0  0
   -1.4440    0.6744    0.0603 N   0  0  0  0  0  0  0  0  0  0  0  0
   -0.1654    1.1863    0.0356 C   0  0  0  0  0  0  0  0  0  0  0  0
    0.0324   -1.0287    0.0764 O   0  0  0  0  0  0  0  0  0  0  0  0
    0.7409    0.1439    0.0568 C   0  0  0  0  0  0  0  0  0  0  0  0
   -2.2918   -1.6935   -0.0115 C   0  0  0  0  0  0  0  0  0  0  0  0
   -0.4740    3.6235   -5.9734 C   0  0  0  0  0  0  0  0  0  0  0  0
   -0.4983    3.2376   -4.6034 N   0  0  0  0  0  0  0  0  0  0  0  0
   -1.6346    3.2826   -3.8219 C   0  0  0  0  0  0  0  0  0  0  0  0
   -0.6350    2.6041   -7.0657 C   0  0  0  0  0  0  0  0  0  0  0  0
    0.7011    3.2477   -6.8358 C   0  0  0  0  0  0  0  0  0  0  0  0
   -3.5005   -1.5408   -0.7327 C   0  0  0  0  0  0  0  0  0  0  0  0
   -2.7494    3.5640   -4.2600 O   0  0  0  0  0  0  0  0  0  0  0  0
    0.2351    3.2561   -1.7373 S   0  0  0  0  0  0  0  0  0  0  0  0
    0.0502    2.6519   -0.0251 C   0  0  0  0  0  0  0  0  0  0  0  0
   -1.4299    2.8373   -2.3802 C   0  0  0  0  0  0  0  0  0  0  0  0
    2.2090    0.0372    0.0337 C   0  0  0  0  0  0  0  0  0  0  0  0
   -2.0732   -2.8976    0.6837 C   0  0  0  0  0  0  0  0  0  0  0  0
   -3.8521   -0.3254   -1.5471 C   0  0  0  0  0  0  0  0  0  0  0  0
   -4.4561   -2.5737   -0.7063 C   0  0  0  0  0  0  0  0  0  0  0  0
   -3.0312   -3.9148    0.6927 C   0  0  0  0  0  0  0  0  0  0  0  0
   -4.2251   -3.7499    0.0022 C   0  0  0  0  0  0  0  0  0  0  0  0
   -0.9196    4.6002   -6.1494 H   0  0  0  0  0  0  0  0  0  0  0  0
    0.3827    3.1266   -4.1086 H   0  0  0  0  0  0  0  0  0  0  0  0
   -0.7619    1.5660   -6.7822 H   0  0  0  0  0  0  0  0  0  0  0  0
   -1.2002    2.8962   -7.9431 H   0  0  0  0  0  0  0  0  0  0  0  0
    1.0475    3.9770   -7.5585 H   0  0  0  0  0  0  0  0  0  0  0  0
    1.4856    2.6362   -6.4105 H   0  0  0  0  0  0  0  0  0  0  0  0
   -0.7819    3.1820    0.4503 H   0  0  0  0  0  0  0  0  0  0  0  0
    0.9574    2.9204    0.5262 H   0  0  0  0  0  0  0  0  0  0  0  0
   -1.5585    1.7548   -2.3717 H   0  0  0  0  0  0  0  0  0  0  0  0
   -2.1901    3.3185   -1.7573 H   0  0  0  0  0  0  0  0  0  0  0  0
    2.5678   -0.5216    0.9034 H   0  0  0  0  0  0  0  0  0  0  0  0
    2.5407   -0.4829   -0.8719 H   0  0  0  0  0  0  0  0  0  0  0  0
    2.6785    1.0254    0.0493 H   0  0  0  0  0  0  0  0  0  0  0  0
   -1.1514   -3.0450    1.2443 H   0  0  0  0  0  0  0  0  0  0  0  0
   -4.1497   -0.6273   -2.5574 H   0  0  0  0  0  0  0  0  0  0  0  0
   -4.6775    0.2182   -1.0765 H   0  0  0  0  0  0  0  0  0  0  0  0
   -3.0234    0.3640   -1.6760 H   0  0  0  0  0  0  0  0  0  0  0  0
   -5.3932   -2.4579   -1.2490 H   0  0  0  0  0  0  0  0  0  0  0  0
   -2.8475   -4.8321    1.2468 H   0  0  0  0  0  0  0  0  0  0  0  0
   -4.9786   -4.5330    0.0115 H   0  0  0  0  0  0  0  0  0  0  0  0
  2  1  2  0  0  0  0
  3  2  1  0  0  0  0
  4  1  1  0  0  0  0
  5  4  1  0  0  0  0
  5  3  2  0  0  0  0
  6  1  1  0  0  0  0
  7  8  1  0  0  0  0
  7 23  1  0  0  0  0
  8  9  1  0  0  0  0
  8 24  1  0  0  0  0
  9 16  1  0  0  0  0
 10  7  1  0  0  0  0
 10 25  1  0  0  0  0
 10 26  1  0  0  0  0
 11  7  1  0  0  0  0
 11 10  1  0  0  0  0
 11 27  1  0  0  0  0
 11 28  1  0  0  0  0
 12  6  2  0  0  0  0
 13  9  2  0  0  0  0
 14 15  1  0  0  0  0
 15  3  1  0  0  0  0
 15 29  1  0  0  0  0
 15 30  1  0  0  0  0
 16 14  1  0  0  0  0
 16 31  1  0  0  0  0
 16 32  1  0  0  0  0
 17  5  1  0  0  0  0
 17 33  1  0  0  0  0
 17 34  1  0  0  0  0
 17 35  1  0  0  0  0
 18  6  1  0  0  0  0
 18 36  1  0  0  0  0
 19 12  1  0  0  0  0
 19 37  1  0  0  0  0
 19 38  1  0  0  0  0
 19 39  1  0  0  0  0
 20 12  1  0  0  0  0
 20 40  1  0  0  0  0
 21 18  2  0  0  0  0
 21 41  1  0  0  0  0
 22 21  1  0  0  0  0
 22 20  2  0  0  0  0
 22 42  1  0  0  0  0
M  END
>  <Mol_ID>
9276

>  <Formula>
C17H20N2O2S

>  <MolWeight>
316.4179

>  <Cat>
P2628

>  <Name>
WAY-331966

>  <Synonyms>
N/A

>  <Target>
beta-catenin

>  <Form>
free base

>  <CAS>
902167-47-9

>  <URL>
N/A

$$$$
