WAY-327370
 OpenBabel08302521443D

 55 57  0  0  0  0  0  0  0  0999 V2000
    1.0070    0.0415    0.1549 S   0  0  0  0  0  0  0  0  0  0  0  0
   -1.1745    0.0631    6.0522 C   0  0  0  0  0  0  0  0  0  0  0  0
   -1.0073    0.9893    5.0258 C   0  0  0  0  0  0  0  0  0  0  0  0
   -0.8258   -1.1872    5.5932 O   0  0  0  0  0  0  0  0  0  0  0  0
   -0.5553    0.2522    3.8892 C   0  0  0  0  0  0  0  0  0  0  0  0
    0.2928   -0.4118    1.7282 C   0  0  0  0  0  0  0  0  0  0  0  0
   -0.4512   -1.0678    4.2919 C   0  0  0  0  0  0  0  0  0  0  0  0
   -1.5657    0.1766    7.4506 C   0  0  0  0  0  0  0  0  0  0  0  0
   -0.1738    0.5970    2.5795 C   0  0  0  0  0  0  0  0  0  0  0  0
   -0.2989    0.6992   -0.7603 N   0  0  0  0  0  0  0  0  0  0  0  0
    1.4249   -1.2006   -0.4653 O   0  0  0  0  0  0  0  0  0  0  0  0
    1.9516    1.1051    0.4220 O   0  0  0  0  0  0  0  0  0  0  0  0
   -2.4361    1.2108    7.7246 N   0  0  0  0  0  0  0  0  0  0  0  0
    0.3796   -1.7404    2.1691 C   0  0  0  0  0  0  0  0  0  0  0  0
    0.0007   -2.1017    3.4720 C   0  0  0  0  0  0  0  0  0  0  0  0
   -1.1630   -0.5796    8.3320 O   0  0  0  0  0  0  0  0  0  0  0  0
   -2.7828    1.6103    9.0688 C   0  0  0  0  0  0  0  0  0  0  0  0
   -1.1569    2.4700    5.0447 C   0  0  0  0  0  0  0  0  0  0  0  0
   -4.2713    1.5840    9.2997 C   0  0  0  0  0  0  0  0  0  0  0  0
   -7.0341    1.4947    9.8605 C   0  0  0  0  0  0  0  0  0  0  0  0
   -4.9771    0.3767    9.2220 C   0  0  0  0  0  0  0  0  0  0  0  0
   -4.9647    2.7501    9.6515 C   0  0  0  0  0  0  0  0  0  0  0  0
   -6.3469    0.3330    9.4985 C   0  0  0  0  0  0  0  0  0  0  0  0
   -6.3357    2.7038    9.9311 C   0  0  0  0  0  0  0  0  0  0  0  0
   -0.4321    2.1868   -0.6866 C   0  0  0  0  0  0  0  0  0  0  0  0
   -0.5098    0.0708   -2.0960 C   0  0  0  0  0  0  0  0  0  0  0  0
   -8.4976    1.4534   10.1966 C   0  0  0  0  0  0  0  0  0  0  0  0
    0.6541    0.2726   -3.0595 C   0  0  0  0  0  0  0  0  0  0  0  0
   -1.6525    2.7479   -1.4013 C   0  0  0  0  0  0  0  0  0  0  0  0
   -0.1918    1.6342    2.2711 H   0  0  0  0  0  0  0  0  0  0  0  0
   -2.8776    1.7023    6.9626 H   0  0  0  0  0  0  0  0  0  0  0  0
    0.7953   -2.5102    1.5197 H   0  0  0  0  0  0  0  0  0  0  0  0
    0.0972   -3.1141    3.8386 H   0  0  0  0  0  0  0  0  0  0  0  0
   -2.4027    2.6328    9.1841 H   0  0  0  0  0  0  0  0  0  0  0  0
   -2.2782    0.9921    9.8178 H   0  0  0  0  0  0  0  0  0  0  0  0
   -0.2043    2.9399    4.7773 H   0  0  0  0  0  0  0  0  0  0  0  0
   -1.9081    2.7771    4.3098 H   0  0  0  0  0  0  0  0  0  0  0  0
   -1.4455    2.8655    6.0169 H   0  0  0  0  0  0  0  0  0  0  0  0
   -4.4562   -0.5438    8.9623 H   0  0  0  0  0  0  0  0  0  0  0  0
   -4.4461    3.7009    9.7325 H   0  0  0  0  0  0  0  0  0  0  0  0
   -6.8657   -0.6214    9.4423 H   0  0  0  0  0  0  0  0  0  0  0  0
   -6.8495    3.6179   10.2165 H   0  0  0  0  0  0  0  0  0  0  0  0
   -0.5256    2.4813    0.3617 H   0  0  0  0  0  0  0  0  0  0  0  0
    0.4673    2.6638   -1.0898 H   0  0  0  0  0  0  0  0  0  0  0  0
   -0.7025   -0.9971   -1.9509 H   0  0  0  0  0  0  0  0  0  0  0  0
   -1.4246    0.4563   -2.5542 H   0  0  0  0  0  0  0  0  0  0  0  0
   -8.6538    1.7605   11.2352 H   0  0  0  0  0  0  0  0  0  0  0  0
   -9.0577    2.1221    9.5352 H   0  0  0  0  0  0  0  0  0  0  0  0
   -8.9084    0.4449   10.0801 H   0  0  0  0  0  0  0  0  0  0  0  0
    0.8114    1.3299   -3.2857 H   0  0  0  0  0  0  0  0  0  0  0  0
    1.5959   -0.1251   -2.6741 H   0  0  0  0  0  0  0  0  0  0  0  0
    0.4467   -0.2509   -3.9986 H   0  0  0  0  0  0  0  0  0  0  0  0
   -1.6014    2.5932   -2.4829 H   0  0  0  0  0  0  0  0  0  0  0  0
   -2.5782    2.3006   -1.0270 H   0  0  0  0  0  0  0  0  0  0  0  0
   -1.7104    3.8309   -1.2417 H   0  0  0  0  0  0  0  0  0  0  0  0
  2  3  2  0  0  0  0
  3  5  1  0  0  0  0
  4  7  1  0  0  0  0
  4  2  1  0  0  0  0
  5  9  2  0  0  0  0
  5  7  1  0  0  0  0
  6  1  1  0  0  0  0
  7 15  2  0  0  0  0
  8  2  1  0  0  0  0
  9  6  1  0  0  0  0
  9 30  1  0  0  0  0
 10  1  1  0  0  0  0
 11  1  2  0  0  0  0
 12  1  2  0  0  0  0
 13  8  1  0  0  0  0
 13 31  1  0  0  0  0
 14  6  2  0  0  0  0
 14 32  1  0  0  0  0
 15 14  1  0  0  0  0
 15 33  1  0  0  0  0
 16  8  2  0  0  0  0
 17 13  1  0  0  0  0
 17 34  1  0  0  0  0
 17 35  1  0  0  0  0
 18  3  1  0  0  0  0
 18 36  1  0  0  0  0
 18 37  1  0  0  0  0
 18 38  1  0  0  0  0
 19 17  1  0  0  0  0
 20 24  2  0  0  0  0
 21 19  1  0  0  0  0
 21 39  1  0  0  0  0
 22 19  2  0  0  0  0
 22 40  1  0  0  0  0
 23 21  2  0  0  0  0
 23 20  1  0  0  0  0
 23 41  1  0  0  0  0
 24 22  1  0  0  0  0
 24 42  1  0  0  0  0
 25 10  1  0  0  0  0
 25 43  1  0  0  0  0
 25 44  1  0  0  0  0
 26 10  1  0  0  0  0
 26 45  1  0  0  0  0
 26 46  1  0  0  0  0
 27 20  1  0  0  0  0
 27 47  1  0  0  0  0
 27 48  1  0  0  0  0
 27 49  1  0  0  0  0
 28 26  1  0  0  0  0
 28 50  1  0  0  0  0
 28 51  1  0  0  0  0
 28 52  1  0  0  0  0
 29 25  1  0  0  0  0
 29 53  1  0  0  0  0
 29 54  1  0  0  0  0
 29 55  1  0  0  0  0
M  END
>  <Mol_ID>
8970

>  <Formula>
C22H26N2O4S

>  <MolWeight>
414.51784

>  <Cat>
P2530

>  <Name>
WAY-327370

>  <Synonyms>
N/A

>  <Target>
calcium channel

>  <Form>
free base

>  <CAS>
687569-15-9

>  <URL>
N/A

$$$$
