WAY-311191
 OpenBabel08302521393D

 45 47  0  0  0  0  0  0  0  0999 V2000
   -0.2937   -1.1785    0.1603 N   0  0  0  0  0  0  0  0  0  0  0  0
    0.9285   -0.5216    0.0900 C   0  0  0  0  0  0  0  0  0  0  0  0
   -1.2330   -0.1760    0.2221 C   0  0  0  0  0  0  0  0  0  0  0  0
   -0.4045   -2.6231    0.1848 C   0  0  0  0  0  0  0  0  0  0  0  0
    2.2796   -1.1800    0.0564 C   0  0  0  0  0  0  0  0  0  0  0  0
    0.7172    0.7818    0.1014 N   0  0  0  0  0  0  0  0  0  0  0  0
   -0.6361    0.9938    0.1792 N   0  0  0  0  0  0  0  0  0  0  0  0
   -2.9384   -0.3976    0.3964 S   0  0  0  0  0  0  0  0  0  0  0  0
   -1.7648   -3.2970    0.2486 C   0  0  0  0  0  0  0  0  0  0  0  0
    2.8025   -1.4626   -1.3372 C   0  0  0  0  0  0  0  0  0  0  0  0
   -3.6011    1.2673    0.1308 C   0  0  0  0  0  0  0  0  0  0  0  0
    2.9755   -0.4136   -2.2542 C   0  0  0  0  0  0  0  0  0  0  0  0
    3.1848   -2.7579   -1.7197 C   0  0  0  0  0  0  0  0  0  0  0  0
   -5.1274    1.1832    0.1253 C   0  0  0  0  0  0  0  0  0  0  0  0
    3.4989   -0.6555   -3.5255 C   0  0  0  0  0  0  0  0  0  0  0  0
    3.7106   -2.9977   -2.9929 C   0  0  0  0  0  0  0  0  0  0  0  0
   -5.7057    1.3273    1.3818 N   0  0  0  0  0  0  0  0  0  0  0  0
   -5.7369    1.0091   -0.9272 O   0  0  0  0  0  0  0  0  0  0  0  0
    3.8640   -1.9472   -3.8957 C   0  0  0  0  0  0  0  0  0  0  0  0
   -7.0871    1.2879    1.6821 C   0  0  0  0  0  0  0  0  0  0  0  0
   -8.0639    0.8337    0.7921 C   0  0  0  0  0  0  0  0  0  0  0  0
   -7.4938    1.7377    2.9482 C   0  0  0  0  0  0  0  0  0  0  0  0
   -9.4211    0.8712    1.1330 C   0  0  0  0  0  0  0  0  0  0  0  0
   -8.8524    1.7891    3.2878 C   0  0  0  0  0  0  0  0  0  0  0  0
   -9.8110    1.3640    2.3731 C   0  0  0  0  0  0  0  0  0  0  0  0
  -11.6474    1.4710    2.8100 Br  0  0  0  0  0  0  0  0  0  0  0  0
    0.1078   -2.9828   -0.7153 H   0  0  0  0  0  0  0  0  0  0  0  0
    0.1737   -2.9585    1.0546 H   0  0  0  0  0  0  0  0  0  0  0  0
    3.0049   -0.5287    0.5603 H   0  0  0  0  0  0  0  0  0  0  0  0
    2.2648   -2.1041    0.6460 H   0  0  0  0  0  0  0  0  0  0  0  0
   -2.3933   -3.0176   -0.6024 H   0  0  0  0  0  0  0  0  0  0  0  0
   -1.6446   -4.3847    0.2175 H   0  0  0  0  0  0  0  0  0  0  0  0
   -2.2839   -3.0608    1.1829 H   0  0  0  0  0  0  0  0  0  0  0  0
   -3.2611    1.9530    0.9129 H   0  0  0  0  0  0  0  0  0  0  0  0
   -3.2801    1.6672   -0.8380 H   0  0  0  0  0  0  0  0  0  0  0  0
    2.7074    0.6054   -1.9774 H   0  0  0  0  0  0  0  0  0  0  0  0
    3.0951   -3.5916   -1.0270 H   0  0  0  0  0  0  0  0  0  0  0  0
    3.6256    0.1681   -4.2229 H   0  0  0  0  0  0  0  0  0  0  0  0
    4.0083   -4.0027   -3.2802 H   0  0  0  0  0  0  0  0  0  0  0  0
   -5.0884    1.5669    2.1471 H   0  0  0  0  0  0  0  0  0  0  0  0
    4.2742   -2.1332   -4.8851 H   0  0  0  0  0  0  0  0  0  0  0  0
   -7.8014    0.4294   -0.1820 H   0  0  0  0  0  0  0  0  0  0  0  0
   -6.7670    2.0864    3.6766 H   0  0  0  0  0  0  0  0  0  0  0  0
  -10.1597    0.5208    0.4160 H   0  0  0  0  0  0  0  0  0  0  0  0
   -9.1500    2.1727    4.2609 H   0  0  0  0  0  0  0  0  0  0  0  0
  1  2  1  0  0  0  0
  1  3  1  0  0  0  0
  1  4  1  0  0  0  0
  2  5  1  0  0  0  0
  2  6  2  0  0  0  0
  3  7  2  0  0  0  0
  3  8  1  0  0  0  0
  4  9  1  0  0  0  0
  4 27  1  0  0  0  0
  4 28  1  0  0  0  0
  5 10  1  0  0  0  0
  5 29  1  0  0  0  0
  5 30  1  0  0  0  0
  6  7  1  0  0  0  0
  8 11  1  0  0  0  0
  9 31  1  0  0  0  0
  9 32  1  0  0  0  0
  9 33  1  0  0  0  0
 10 12  2  0  0  0  0
 10 13  1  0  0  0  0
 11 14  1  0  0  0  0
 11 34  1  0  0  0  0
 11 35  1  0  0  0  0
 12 15  1  0  0  0  0
 12 36  1  0  0  0  0
 13 16  2  0  0  0  0
 13 37  1  0  0  0  0
 14 17  1  0  0  0  0
 14 18  2  0  0  0  0
 15 19  2  0  0  0  0
 15 38  1  0  0  0  0
 16 19  1  0  0  0  0
 16 39  1  0  0  0  0
 17 20  1  0  0  0  0
 17 40  1  0  0  0  0
 19 41  1  0  0  0  0
 20 21  2  0  0  0  0
 20 22  1  0  0  0  0
 21 23  1  0  0  0  0
 21 42  1  0  0  0  0
 22 24  2  0  0  0  0
 22 43  1  0  0  0  0
 23 25  2  0  0  0  0
 23 44  1  0  0  0  0
 24 25  1  0  0  0  0
 24 45  1  0  0  0  0
 25 26  1  0  0  0  0
M  END
>  <Mol_ID>
8102

>  <Formula>
C19H19BrN4OS

>  <MolWeight>
431.34936

>  <Cat>
P2197

>  <Name>
WAY-311191

>  <Synonyms>
N/A

>  <Target>
11bHSD1

>  <Form>
free base

>  <CAS>
577752-93-3

>  <URL>
N/A

$$$$
