WAY-658262-A
 OpenBabel08302521433D

 29 30  0  0  0  0  0  0  0  0999 V2000
    1.3651   -0.9845    0.6658 C   0  0  0  0  0  0  0  0  0  0  0  0
    1.8076   -2.5534    1.2543 S   0  0  0  0  0  0  0  0  0  0  0  0
    2.2229    0.0440    0.8759 N   0  0  0  0  0  0  0  0  0  0  0  0
    0.2523   -0.7524    0.0382 N   0  0  0  0  0  0  0  0  0  0  0  0
    0.9102   -3.5888    0.0563 C   0  0  0  0  0  0  0  0  0  0  0  0
    1.6493    1.2275    0.2816 C   0  0  0  0  0  0  0  0  0  0  0  0
    0.3671    0.6808   -0.3600 C   0  0  0  0  0  0  0  0  0  0  0  0
    1.4146   -3.4116   -1.3716 C   0  0  0  0  0  0  0  0  0  0  0  0
    2.7813   -3.1969   -1.4701 N   0  0  0  0  0  0  0  0  0  0  0  0
    0.6527   -3.5689   -2.3237 O   0  0  0  0  0  0  0  0  0  0  0  0
    3.5213   -2.9213   -2.6329 C   0  0  0  0  0  0  0  0  0  0  0  0
    2.9338   -2.6185   -3.8623 C   0  0  0  0  0  0  0  0  0  0  0  0
    4.9186   -2.9317   -2.5349 C   0  0  0  0  0  0  0  0  0  0  0  0
    3.7262   -2.3679   -4.9857 C   0  0  0  0  0  0  0  0  0  0  0  0
    5.7112   -2.6885   -3.6605 C   0  0  0  0  0  0  0  0  0  0  0  0
    5.1139   -2.4130   -4.8875 C   0  0  0  0  0  0  0  0  0  0  0  0
    3.1977   -0.1575    0.6891 H   0  0  0  0  0  0  0  0  0  0  0  0
    1.0425   -4.6398    0.3328 H   0  0  0  0  0  0  0  0  0  0  0  0
   -0.1598   -3.3609    0.0914 H   0  0  0  0  0  0  0  0  0  0  0  0
    2.3140    1.6909   -0.4531 H   0  0  0  0  0  0  0  0  0  0  0  0
    1.4144    1.9565    1.0634 H   0  0  0  0  0  0  0  0  0  0  0  0
   -0.5138    1.2394   -0.0289 H   0  0  0  0  0  0  0  0  0  0  0  0
    0.4250    0.7445   -1.4524 H   0  0  0  0  0  0  0  0  0  0  0  0
    3.3027   -3.2801   -0.6024 H   0  0  0  0  0  0  0  0  0  0  0  0
    1.8556   -2.5577   -3.9774 H   0  0  0  0  0  0  0  0  0  0  0  0
    5.4100   -3.1518   -1.5905 H   0  0  0  0  0  0  0  0  0  0  0  0
    3.2515   -2.1403   -5.9368 H   0  0  0  0  0  0  0  0  0  0  0  0
    6.7953   -2.7222   -3.5807 H   0  0  0  0  0  0  0  0  0  0  0  0
    5.7265   -2.2316   -5.7664 H   0  0  0  0  0  0  0  0  0  0  0  0
  1  2  1  0  0  0  0
  1  3  1  0  0  0  0
  1  4  2  0  0  0  0
  2  5  1  0  0  0  0
  3  6  1  0  0  0  0
  3 17  1  0  0  0  0
  4  7  1  0  0  0  0
  5  8  1  0  0  0  0
  5 18  1  0  0  0  0
  5 19  1  0  0  0  0
  6  7  1  0  0  0  0
  6 20  1  0  0  0  0
  6 21  1  0  0  0  0
  7 22  1  0  0  0  0
  7 23  1  0  0  0  0
  8  9  1  0  0  0  0
  8 10  2  0  0  0  0
  9 11  1  0  0  0  0
  9 24  1  0  0  0  0
 11 12  2  0  0  0  0
 11 13  1  0  0  0  0
 12 14  1  0  0  0  0
 12 25  1  0  0  0  0
 13 15  2  0  0  0  0
 13 26  1  0  0  0  0
 14 16  2  0  0  0  0
 14 27  1  0  0  0  0
 15 16  1  0  0  0  0
 15 28  1  0  0  0  0
 16 29  1  0  0  0  0
M  END
>  <Mol_ID>
8821

>  <Formula>
C11H13N3OS

>  <MolWeight>
235.30542

>  <Cat>
P3167

>  <Name>
WAY-658262-A

>  <Synonyms>
N/A

>  <Target>
scavenger receptors SR-BI

>  <Form>
free base

>  <CAS>
63236-62-4

>  <URL>
N/A

$$$$
