WAY-119574
 OpenBabel08302521403D

 37 39  0  0  0  0  0  0  0  0999 V2000
    0.0799    0.7509   -0.1759 C   0  0  0  0  0  0  0  0  0  0  0  0
   -1.1774    1.4515   -0.2876 N   0  0  0  0  0  0  0  0  0  0  0  0
    0.0912   -0.6601   -0.1015 C   0  0  0  0  0  0  0  0  0  0  0  0
    1.3037    1.4277   -0.0596 C   0  0  0  0  0  0  0  0  0  0  0  0
   -1.3263    2.8073   -0.6848 C   0  0  0  0  0  0  0  0  0  0  0  0
   -2.3242    0.6940    0.2640 C   0  0  0  0  0  0  0  0  0  0  0  0
   -1.1738   -1.4800   -0.0418 C   0  0  0  0  0  0  0  0  0  0  0  0
    1.3123   -1.3505   -0.0026 C   0  0  0  0  0  0  0  0  0  0  0  0
    2.5113    0.7306    0.0472 C   0  0  0  0  0  0  0  0  0  0  0  0
   -0.3512    3.2479   -1.5954 N   0  0  0  0  0  0  0  0  0  0  0  0
   -2.6159    3.7749   -0.1815 S   0  0  0  0  0  0  0  0  0  0  0  0
   -2.4146   -0.6777   -0.3756 C   0  0  0  0  0  0  0  0  0  0  0  0
    2.5170   -0.6588    0.0568 C   0  0  0  0  0  0  0  0  0  0  0  0
   -0.0093    4.5628   -1.9061 C   0  0  0  0  0  0  0  0  0  0  0  0
    0.9442    4.7994   -3.0289 C   0  0  0  0  0  0  0  0  0  0  0  0
   -0.3399    5.5376   -1.2436 O   0  0  0  0  0  0  0  0  0  0  0  0
    1.0464    3.9847   -4.1586 C   0  0  0  0  0  0  0  0  0  0  0  0
    1.7302    5.9635   -2.9491 C   0  0  0  0  0  0  0  0  0  0  0  0
    1.9296    4.3365   -5.1906 C   0  0  0  0  0  0  0  0  0  0  0  0
    2.6103    6.3088   -3.9739 C   0  0  0  0  0  0  0  0  0  0  0  0
    2.7087    5.4929   -5.0962 C   0  0  0  0  0  0  0  0  0  0  0  0
    1.3469    2.5111    0.0205 H   0  0  0  0  0  0  0  0  0  0  0  0
   -3.2732    1.2046    0.0831 H   0  0  0  0  0  0  0  0  0  0  0  0
   -2.1931    0.6267    1.3528 H   0  0  0  0  0  0  0  0  0  0  0  0
   -1.2684   -1.8773    0.9769 H   0  0  0  0  0  0  0  0  0  0  0  0
   -1.1047   -2.3343   -0.7246 H   0  0  0  0  0  0  0  0  0  0  0  0
    1.3224   -2.4377    0.0514 H   0  0  0  0  0  0  0  0  0  0  0  0
    3.4457    1.2769    0.1502 H   0  0  0  0  0  0  0  0  0  0  0  0
    0.1378    2.5092   -2.0807 H   0  0  0  0  0  0  0  0  0  0  0  0
   -3.3076   -1.2068   -0.0263 H   0  0  0  0  0  0  0  0  0  0  0  0
   -2.5063   -0.5659   -1.4644 H   0  0  0  0  0  0  0  0  0  0  0  0
    3.4538   -1.2023    0.1477 H   0  0  0  0  0  0  0  0  0  0  0  0
    0.4228    3.1037   -4.2840 H   0  0  0  0  0  0  0  0  0  0  0  0
    1.6459    6.6215   -2.0839 H   0  0  0  0  0  0  0  0  0  0  0  0
    2.0006    3.7203   -6.0834 H   0  0  0  0  0  0  0  0  0  0  0  0
    3.2000    7.2174   -3.8968 H   0  0  0  0  0  0  0  0  0  0  0  0
    3.3811    5.7696   -5.9042 H   0  0  0  0  0  0  0  0  0  0  0  0
  1  2  1  0  0  0  0
  1  3  1  0  0  0  0
  1  4  2  0  0  0  0
  2  5  1  0  0  0  0
  2  6  1  0  0  0  0
  3  7  1  0  0  0  0
  3  8  2  0  0  0  0
  4  9  1  0  0  0  0
  4 22  1  0  0  0  0
  5 10  1  0  0  0  0
  5 11  2  0  0  0  0
  6 12  1  0  0  0  0
  6 23  1  0  0  0  0
  6 24  1  0  0  0  0
  7 12  1  0  0  0  0
  7 25  1  0  0  0  0
  7 26  1  0  0  0  0
  8 13  1  0  0  0  0
  8 27  1  0  0  0  0
  9 13  2  0  0  0  0
  9 28  1  0  0  0  0
 10 14  1  0  0  0  0
 10 29  1  0  0  0  0
 12 30  1  0  0  0  0
 12 31  1  0  0  0  0
 13 32  1  0  0  0  0
 14 15  1  0  0  0  0
 14 16  2  0  0  0  0
 15 17  2  0  0  0  0
 15 18  1  0  0  0  0
 17 19  1  0  0  0  0
 17 33  1  0  0  0  0
 18 20  2  0  0  0  0
 18 34  1  0  0  0  0
 19 21  2  0  0  0  0
 19 35  1  0  0  0  0
 20 21  1  0  0  0  0
 20 36  1  0  0  0  0
 21 37  1  0  0  0  0
M  END
>  <Mol_ID>
8291

>  <Formula>
C17H16N2OS

>  <MolWeight>
296.38674

>  <Cat>
P2053

>  <Name>
WAY-119574

>  <Synonyms>
N/A

>  <Target>
others

>  <Form>
free base

>  <CAS>
25561-81-3

>  <URL>
N/A

$$$$
