WAY-657206
 OpenBabel08302521423D

 40 43  0  0  0  0  0  0  0  0999 V2000
   -2.0352   -2.0437    0.9000 N   0  0  0  0  0  0  0  0  0  0  0  0
   -1.1930   -2.7651    0.1930 C   0  0  0  0  0  0  0  0  0  0  0  0
   -3.3461   -2.4626    0.6426 C   0  0  0  0  0  0  0  0  0  0  0  0
    3.1665   -3.4482    1.1609 C   0  0  0  0  0  0  0  0  0  0  0  0
    0.1713   -2.5831    0.2634 N   0  0  0  0  0  0  0  0  0  0  0  0
   -1.9034   -3.9024   -0.8643 S   0  0  0  0  0  0  0  0  0  0  0  0
    3.2081   -4.7949    1.6480 C   0  0  0  0  0  0  0  0  0  0  0  0
    3.9057   -4.7522    2.8488 C   0  0  0  0  0  0  0  0  0  0  0  0
    4.3107   -3.4797    3.1105 O   0  0  0  0  0  0  0  0  0  0  0  0
   -3.4494   -3.4747   -0.2924 C   0  0  0  0  0  0  0  0  0  0  0  0
    3.8692   -2.7012    2.0890 C   0  0  0  0  0  0  0  0  0  0  0  0
    1.1224   -3.4023   -0.3110 C   0  0  0  0  0  0  0  0  0  0  0  0
    2.5575   -2.9414   -0.1037 C   0  0  0  0  0  0  0  0  0  0  0  0
   -4.5210   -1.8787    1.2880 C   0  0  0  0  0  0  0  0  0  0  0  0
    2.7387   -6.0433    1.2060 C   0  0  0  0  0  0  0  0  0  0  0  0
   -5.7292   -2.3879    0.9252 N   0  0  0  0  0  0  0  0  0  0  0  0
    4.1472   -5.8622    3.6597 C   0  0  0  0  0  0  0  0  0  0  0  0
    0.9084   -4.4313   -0.9493 O   0  0  0  0  0  0  0  0  0  0  0  0
    2.9515   -7.1779    2.0038 C   0  0  0  0  0  0  0  0  0  0  0  0
    3.6372   -7.0960    3.2224 C   0  0  0  0  0  0  0  0  0  0  0  0
   -6.8299   -1.8341    1.4769 C   0  0  0  0  0  0  0  0  0  0  0  0
   -4.3935   -0.8397    2.2025 C   0  0  0  0  0  0  0  0  0  0  0  0
    3.8304   -8.3227    4.0669 C   0  0  0  0  0  0  0  0  0  0  0  0
   -6.7917   -0.7853    2.3784 C   0  0  0  0  0  0  0  0  0  0  0  0
   -5.5497   -0.2868    2.7484 C   0  0  0  0  0  0  0  0  0  0  0  0
    0.4518   -1.8386    0.8854 H   0  0  0  0  0  0  0  0  0  0  0  0
   -4.3415   -3.9607   -0.6603 H   0  0  0  0  0  0  0  0  0  0  0  0
    4.1448   -1.6595    2.1568 H   0  0  0  0  0  0  0  0  0  0  0  0
    3.1448   -3.3102   -0.9547 H   0  0  0  0  0  0  0  0  0  0  0  0
    2.5956   -1.8470   -0.1504 H   0  0  0  0  0  0  0  0  0  0  0  0
    2.2022   -6.1481    0.2665 H   0  0  0  0  0  0  0  0  0  0  0  0
    4.6956   -5.7619    4.5895 H   0  0  0  0  0  0  0  0  0  0  0  0
    2.5630   -8.1356    1.6576 H   0  0  0  0  0  0  0  0  0  0  0  0
   -7.7749   -2.2663    1.1588 H   0  0  0  0  0  0  0  0  0  0  0  0
   -3.4165   -0.4593    2.4792 H   0  0  0  0  0  0  0  0  0  0  0  0
    4.8960   -8.5509    4.1668 H   0  0  0  0  0  0  0  0  0  0  0  0
    3.3970   -8.1676    5.0601 H   0  0  0  0  0  0  0  0  0  0  0  0
    3.3382   -9.1952    3.6236 H   0  0  0  0  0  0  0  0  0  0  0  0
   -7.7091   -0.3694    2.7804 H   0  0  0  0  0  0  0  0  0  0  0  0
   -5.4795    0.5370    3.4568 H   0  0  0  0  0  0  0  0  0  0  0  0
  2  1  2  0  0  0  0
  3  1  1  0  0  0  0
  4 13  1  0  0  0  0
  5  2  1  0  0  0  0
  5 26  1  0  0  0  0
  6  2  1  0  0  0  0
  6 10  1  0  0  0  0
  7  4  1  0  0  0  0
  8  7  2  0  0  0  0
  8  9  1  0  0  0  0
  9 11  1  0  0  0  0
 10  3  2  0  0  0  0
 10 27  1  0  0  0  0
 11  4  2  0  0  0  0
 11 28  1  0  0  0  0
 12  5  1  0  0  0  0
 13 12  1  0  0  0  0
 13 29  1  0  0  0  0
 13 30  1  0  0  0  0
 14  3  1  0  0  0  0
 15  7  1  0  0  0  0
 15 31  1  0  0  0  0
 16 14  2  0  0  0  0
 17  8  1  0  0  0  0
 17 32  1  0  0  0  0
 18 12  2  0  0  0  0
 19 15  2  0  0  0  0
 19 33  1  0  0  0  0
 20 19  1  0  0  0  0
 20 17  2  0  0  0  0
 21 16  1  0  0  0  0
 21 34  1  0  0  0  0
 22 14  1  0  0  0  0
 22 35  1  0  0  0  0
 23 20  1  0  0  0  0
 23 36  1  0  0  0  0
 23 37  1  0  0  0  0
 23 38  1  0  0  0  0
 24 25  1  0  0  0  0
 24 21  2  0  0  0  0
 24 39  1  0  0  0  0
 25 22  2  0  0  0  0
 25 40  1  0  0  0  0
M  END
>  <Mol_ID>
8543

>  <Formula>
C19H15N3O2S

>  <MolWeight>
349.4063

>  <Cat>
P3154

>  <Name>
WAY-657206

>  <Synonyms>
N/A

>  <Target>
Anti-infection

>  <Form>
free base

>  <CAS>
852938-33-1

>  <URL>
N/A

$$$$
