WAY-297579
 OpenBabel08302521403D

 54 56  0  0  0  0  0  0  0  0999 V2000
    0.9212    0.1192   -0.0329 N   0  0  0  0  0  0  0  0  0  0  0  0
    0.1044   -1.0549   -0.0699 C   0  0  0  0  0  0  0  0  0  0  0  0
    0.1585    1.5994    0.2732 S   0  0  0  0  0  0  0  0  0  0  0  0
    2.3950    0.0179    0.0223 C   0  0  0  0  0  0  0  0  0  0  0  0
   -0.3907   -1.4375   -1.3169 C   0  0  0  0  0  0  0  0  0  0  0  0
   -0.2642   -1.7560    1.0803 C   0  0  0  0  0  0  0  0  0  0  0  0
    0.1950    1.8003    2.0460 C   0  0  0  0  0  0  0  0  0  0  0  0
    1.0090    2.6299   -0.2922 O   0  0  0  0  0  0  0  0  0  0  0  0
   -1.2317    1.5013   -0.1221 O   0  0  0  0  0  0  0  0  0  0  0  0
    2.9619   -1.0079   -0.9576 C   0  0  0  0  0  0  0  0  0  0  0  0
   -1.2876   -2.5045   -1.4069 C   0  0  0  0  0  0  0  0  0  0  0  0
   -1.1557   -2.8317    0.9809 C   0  0  0  0  0  0  0  0  0  0  0  0
    1.2629    2.4873    2.6357 C   0  0  0  0  0  0  0  0  0  0  0  0
   -0.9284    1.4634    2.8114 C   0  0  0  0  0  0  0  0  0  0  0  0
    3.1507   -0.5162   -2.2430 N   0  0  0  0  0  0  0  0  0  0  0  0
    3.1615   -2.1667   -0.6090 O   0  0  0  0  0  0  0  0  0  0  0  0
   -1.6752   -3.2085   -0.2619 C   0  0  0  0  0  0  0  0  0  0  0  0
   -1.8478   -2.8549   -2.7211 N   0  3  0  0  0  0  0  0  0  0  0  0
    1.2152    2.8151    3.9934 C   0  0  0  0  0  0  0  0  0  0  0  0
   -0.9680    1.7943    4.1693 C   0  0  0  0  0  0  0  0  0  0  0  0
    3.6009   -1.3377   -3.2420 N   0  0  0  0  0  0  0  0  0  0  0  0
   -1.5238   -2.1604   -3.6907 O   0  0  0  0  0  0  0  0  0  0  0  0
   -2.6207   -3.8254   -2.7731 O   0  5  0  0  0  0  0  0  0  0  0  0
    0.1007    2.4718    4.7593 C   0  0  0  0  0  0  0  0  0  0  0  0
    3.3052   -1.0408   -4.4759 C   0  0  0  0  0  0  0  0  0  0  0  0
    2.3785    0.0635   -4.9258 C   0  0  0  0  0  0  0  0  0  0  0  0
    3.8192   -1.9296   -5.5927 C   0  0  0  0  0  0  0  0  0  0  0  0
    3.0806    0.8606   -6.0161 C   0  0  0  0  0  0  0  0  0  0  0  0
    4.3893   -1.0674   -6.7205 C   0  0  0  0  0  0  0  0  0  0  0  0
    3.4640   -0.0006   -7.1440 N   0  0  0  0  0  0  0  0  0  0  0  0
    4.0646    0.8086   -8.2085 C   0  0  0  0  0  0  0  0  0  0  0  0
    2.8519    0.9830   -0.2249 H   0  0  0  0  0  0  0  0  0  0  0  0
    2.7272   -0.2390    1.0330 H   0  0  0  0  0  0  0  0  0  0  0  0
   -0.0935   -0.8797   -2.2016 H   0  0  0  0  0  0  0  0  0  0  0  0
    0.1132   -1.4684    2.0572 H   0  0  0  0  0  0  0  0  0  0  0  0
   -1.4618   -3.3716    1.8760 H   0  0  0  0  0  0  0  0  0  0  0  0
    2.1131    2.8119    2.0415 H   0  0  0  0  0  0  0  0  0  0  0  0
   -1.7915    0.9823    2.3547 H   0  0  0  0  0  0  0  0  0  0  0  0
    3.0535    0.4758   -2.4336 H   0  0  0  0  0  0  0  0  0  0  0  0
   -2.3798   -4.0365   -0.3196 H   0  0  0  0  0  0  0  0  0  0  0  0
    2.0326    3.3709    4.4492 H   0  0  0  0  0  0  0  0  0  0  0  0
   -1.8484    1.5554    4.7642 H   0  0  0  0  0  0  0  0  0  0  0  0
    0.0539    2.7526    5.8083 H   0  0  0  0  0  0  0  0  0  0  0  0
    2.0795    0.7286   -4.1158 H   0  0  0  0  0  0  0  0  0  0  0  0
    1.4663   -0.4067   -5.3131 H   0  0  0  0  0  0  0  0  0  0  0  0
    4.5843   -2.6168   -5.2168 H   0  0  0  0  0  0  0  0  0  0  0  0
    2.9772   -2.5287   -5.9599 H   0  0  0  0  0  0  0  0  0  0  0  0
    3.9619    1.3659   -5.5994 H   0  0  0  0  0  0  0  0  0  0  0  0
    2.3882    1.6366   -6.3635 H   0  0  0  0  0  0  0  0  0  0  0  0
    4.5995   -1.7218   -7.5765 H   0  0  0  0  0  0  0  0  0  0  0  0
    5.3465   -0.6366   -6.3994 H   0  0  0  0  0  0  0  0  0  0  0  0
    4.9883    1.2999   -7.8809 H   0  0  0  0  0  0  0  0  0  0  0  0
    4.2915    0.1920   -9.0847 H   0  0  0  0  0  0  0  0  0  0  0  0
    3.3659    1.5844   -8.5425 H   0  0  0  0  0  0  0  0  0  0  0  0
  1  2  1  0  0  0  0
  1  3  1  0  0  0  0
  1  4  1  0  0  0  0
  2  5  2  0  0  0  0
  2  6  1  0  0  0  0
  3  7  1  0  0  0  0
  3  8  2  0  0  0  0
  3  9  2  0  0  0  0
  4 10  1  0  0  0  0
  4 32  1  0  0  0  0
  4 33  1  0  0  0  0
  5 11  1  0  0  0  0
  5 34  1  0  0  0  0
  6 12  2  0  0  0  0
  6 35  1  0  0  0  0
  7 13  2  0  0  0  0
  7 14  1  0  0  0  0
 10 15  1  0  0  0  0
 10 16  2  0  0  0  0
 11 17  2  0  0  0  0
 11 18  1  0  0  0  0
 12 17  1  0  0  0  0
 12 36  1  0  0  0  0
 13 19  1  0  0  0  0
 13 37  1  0  0  0  0
 14 20  2  0  0  0  0
 14 38  1  0  0  0  0
 15 21  1  0  0  0  0
 15 39  1  0  0  0  0
 17 40  1  0  0  0  0
 18 22  2  0  0  0  0
 18 23  1  0  0  0  0
 19 24  2  0  0  0  0
 19 41  1  0  0  0  0
 20 24  1  0  0  0  0
 20 42  1  0  0  0  0
 21 25  2  0  0  0  0
 24 43  1  0  0  0  0
 25 26  1  0  0  0  0
 25 27  1  0  0  0  0
 26 28  1  0  0  0  0
 26 44  1  0  0  0  0
 26 45  1  0  0  0  0
 27 29  1  0  0  0  0
 27 46  1  0  0  0  0
 27 47  1  0  0  0  0
 28 30  1  0  0  0  0
 28 48  1  0  0  0  0
 28 49  1  0  0  0  0
 29 30  1  0  0  0  0
 29 50  1  0  0  0  0
 29 51  1  0  0  0  0
 30 31  1  0  0  0  0
 31 52  1  0  0  0  0
 31 53  1  0  0  0  0
 31 54  1  0  0  0  0
M  CHG  2  18   1  23  -1
M  END
>  <Mol_ID>
8339

>  <Formula>
C20H23N5O5S

>  <MolWeight>
445.49212

>  <Cat>
P2095

>  <Name>
WAY-297579

>  <Synonyms>
N/A

>  <Target>
MAP2K4

>  <Form>
free base

>  <CAS>
332034-16-9

>  <URL>
N/A

$$$$
