WAY-300653
 OpenBabel08302521413D

 32 33  0  0  0  0  0  0  0  0999 V2000
   -0.1579   -1.2499   -0.1164 C   0  0  0  0  0  0  0  0  0  0  0  0
    0.6013   -0.6970   -1.1315 N   0  0  0  0  0  0  0  0  0  0  0  0
   -0.4538   -2.7109   -0.0069 C   0  0  0  0  0  0  0  0  0  0  0  0
   -0.4875   -0.2910    0.7272 N   0  0  0  0  0  0  0  0  0  0  0  0
    0.7491    0.6238   -0.8042 C   0  0  0  0  0  0  0  0  0  0  0  0
    1.0969   -1.3904   -2.3019 C   0  0  0  0  0  0  0  0  0  0  0  0
   -1.2421   -2.9466    1.1595 O   0  0  0  0  0  0  0  0  0  0  0  0
    0.0821    0.8815    0.2925 N   0  0  0  0  0  0  0  0  0  0  0  0
    1.6872    1.7856   -1.6764 S   0  0  0  0  0  0  0  0  0  0  0  0
    2.4982   -1.9463   -2.1124 C   0  0  0  0  0  0  0  0  0  0  0  0
   -1.4628   -4.2621    1.4806 C   0  0  0  0  0  0  0  0  0  0  0  0
   -0.6529   -5.3343    1.1052 C   0  0  0  0  0  0  0  0  0  0  0  0
   -2.5758   -4.5059    2.2887 C   0  0  0  0  0  0  0  0  0  0  0  0
   -0.9597   -6.6337    1.5195 C   0  0  0  0  0  0  0  0  0  0  0  0
   -2.8876   -5.8072    2.6984 C   0  0  0  0  0  0  0  0  0  0  0  0
   -2.0808   -6.8837    2.3138 C   0  0  0  0  0  0  0  0  0  0  0  0
   -2.3983   -8.2765    2.7707 C   0  0  0  0  0  0  0  0  0  0  0  0
   -1.0072   -3.0525   -0.8882 H   0  0  0  0  0  0  0  0  0  0  0  0
    0.5116   -3.2195    0.0612 H   0  0  0  0  0  0  0  0  0  0  0  0
    0.4004   -2.1998   -2.5428 H   0  0  0  0  0  0  0  0  0  0  0  0
    1.0639   -0.7003   -3.1510 H   0  0  0  0  0  0  0  0  0  0  0  0
    2.3109    0.9940   -2.5550 H   0  0  0  0  0  0  0  0  0  0  0  0
    2.5189   -2.7043   -1.3228 H   0  0  0  0  0  0  0  0  0  0  0  0
    2.8469   -2.4136   -3.0389 H   0  0  0  0  0  0  0  0  0  0  0  0
    3.2100   -1.1617   -1.8382 H   0  0  0  0  0  0  0  0  0  0  0  0
    0.2460   -5.2041    0.5148 H   0  0  0  0  0  0  0  0  0  0  0  0
   -3.2059   -3.6776    2.6031 H   0  0  0  0  0  0  0  0  0  0  0  0
   -0.3034   -7.4501    1.2239 H   0  0  0  0  0  0  0  0  0  0  0  0
   -3.7608   -5.9722    3.3268 H   0  0  0  0  0  0  0  0  0  0  0  0
   -2.3085   -8.3473    3.8594 H   0  0  0  0  0  0  0  0  0  0  0  0
   -3.4138   -8.5543    2.4709 H   0  0  0  0  0  0  0  0  0  0  0  0
   -1.7114   -9.0071    2.3292 H   0  0  0  0  0  0  0  0  0  0  0  0
  1  2  1  0  0  0  0
  1  3  1  0  0  0  0
  1  4  2  0  0  0  0
  2  5  1  0  0  0  0
  2  6  1  0  0  0  0
  3  7  1  0  0  0  0
  3 18  1  0  0  0  0
  3 19  1  0  0  0  0
  4  8  1  0  0  0  0
  5  9  1  0  0  0  0
  5  8  2  0  0  0  0
  6 10  1  0  0  0  0
  6 20  1  0  0  0  0
  6 21  1  0  0  0  0
  7 11  1  0  0  0  0
  9 22  1  0  0  0  0
 10 23  1  0  0  0  0
 10 24  1  0  0  0  0
 10 25  1  0  0  0  0
 11 12  2  0  0  0  0
 11 13  1  0  0  0  0
 12 14  1  0  0  0  0
 12 26  1  0  0  0  0
 13 15  2  0  0  0  0
 13 27  1  0  0  0  0
 14 16  2  0  0  0  0
 14 28  1  0  0  0  0
 15 16  1  0  0  0  0
 15 29  1  0  0  0  0
 16 17  1  0  0  0  0
 17 30  1  0  0  0  0
 17 31  1  0  0  0  0
 17 32  1  0  0  0  0
M  END
>  <Mol_ID>
8418

>  <Formula>
C12H15N3OS

>  <MolWeight>
249.332

>  <Cat>
P2151

>  <Name>
WAY-300653

>  <Synonyms>
N/A

>  <Target>
metabotropic glutamate receptor

>  <Form>
free base

>  <CAS>
335215-56-0

>  <URL>
N/A

$$$$
