WAY-298681
 OpenBabel08302521413D

 53 56  0  0  0  0  0  0  0  0999 V2000
   -0.2604   -0.4356   -0.2851 C   0  0  0  0  0  0  0  0  0  0  0  0
    0.6710   -1.6129   -0.5844 C   0  0  3  0  0  0  0  0  0  0  0  0
    0.2278    0.8122   -0.1374 C   0  0  0  0  0  0  0  0  0  0  0  0
   -1.7112   -0.6836   -0.0803 C   0  0  0  0  0  0  0  0  0  0  0  0
    2.1279   -1.3109   -0.1677 C   0  0  0  0  0  0  0  0  0  0  0  0
    0.5629   -1.9790   -2.0790 C   0  0  0  0  0  0  0  0  0  0  0  0
   -0.6454    2.0368    0.0556 C   0  0  0  0  0  0  0  0  0  0  0  0
    1.5934    1.0107   -0.1533 N   0  0  0  0  0  0  0  0  0  0  0  0
   -2.5920    0.4785    0.3374 C   0  0  0  0  0  0  0  0  0  0  0  0
   -2.1611   -1.8273   -0.1379 O   0  0  0  0  0  0  0  0  0  0  0  0
    2.5274   -0.0182   -0.0331 C   0  0  0  0  0  0  0  0  0  0  0  0
    2.9507   -2.5317    0.0952 C   0  0  0  0  0  0  0  0  0  0  0  0
   -0.3631   -2.9353   -2.5034 C   0  0  0  0  0  0  0  0  0  0  0  0
    1.3043   -1.2655   -2.9732 N   0  0  0  0  0  0  0  0  0  0  0  0
   -2.1162    1.7767   -0.3138 C   0  0  3  0  0  0  0  0  0  0  0  0
    3.9260    0.4739    0.2462 C   0  0  0  0  0  0  0  0  0  0  0  0
    3.9691   -2.2536    0.9455 O   0  0  0  0  0  0  0  0  0  0  0  0
    2.6617   -3.6516   -0.3009 O   0  0  0  0  0  0  0  0  0  0  0  0
   -0.5374   -3.1602   -3.8692 C   0  0  0  0  0  0  0  0  0  0  0  0
    1.1232   -1.5163   -4.2896 C   0  0  0  0  0  0  0  0  0  0  0  0
   -3.0281    2.9509    0.0174 C   0  0  0  0  0  0  0  0  0  0  0  0
    4.8151   -3.3274    1.3966 C   0  0  0  0  0  0  0  0  0  0  0  0
    0.2184   -2.4380   -4.7828 C   0  0  0  0  0  0  0  0  0  0  0  0
   -3.7536    3.5762   -1.0101 C   0  0  0  0  0  0  0  0  0  0  0  0
   -3.1921    3.4253    1.3276 C   0  0  0  0  0  0  0  0  0  0  0  0
    5.9335   -3.6119    0.4087 C   0  0  0  0  0  0  0  0  0  0  0  0
   -4.6164    4.6418   -0.7364 C   0  0  0  0  0  0  0  0  0  0  0  0
   -4.0575    4.4923    1.6005 C   0  0  0  0  0  0  0  0  0  0  0  0
   -4.7695    5.0993    0.5691 C   0  0  0  0  0  0  0  0  0  0  0  0
    0.3343   -2.4696    0.0175 H   0  0  0  0  0  0  0  0  0  0  0  0
   -0.5473    2.3636    1.0983 H   0  0  0  0  0  0  0  0  0  0  0  0
   -0.2690    2.8590   -0.5683 H   0  0  0  0  0  0  0  0  0  0  0  0
    1.9310    1.9564    0.0089 H   0  0  0  0  0  0  0  0  0  0  0  0
   -2.5739    0.5401    1.4326 H   0  0  0  0  0  0  0  0  0  0  0  0
   -3.6216    0.2612    0.0292 H   0  0  0  0  0  0  0  0  0  0  0  0
   -0.9669   -3.4827   -1.7856 H   0  0  0  0  0  0  0  0  0  0  0  0
   -2.1487    1.6247   -1.4032 H   0  0  0  0  0  0  0  0  0  0  0  0
    4.2074    1.2205   -0.5054 H   0  0  0  0  0  0  0  0  0  0  0  0
    3.9609    0.9551    1.2299 H   0  0  0  0  0  0  0  0  0  0  0  0
    4.7033   -0.2877    0.2074 H   0  0  0  0  0  0  0  0  0  0  0  0
   -1.2687   -3.8854   -4.2147 H   0  0  0  0  0  0  0  0  0  0  0  0
    1.7407   -0.9265   -4.9608 H   0  0  0  0  0  0  0  0  0  0  0  0
    5.2581   -2.9827    2.3378 H   0  0  0  0  0  0  0  0  0  0  0  0
    4.2345   -4.2270    1.6247 H   0  0  0  0  0  0  0  0  0  0  0  0
    0.1012   -2.5854   -5.8501 H   0  0  0  0  0  0  0  0  0  0  0  0
   -3.6599    3.2348   -2.0390 H   0  0  0  0  0  0  0  0  0  0  0  0
   -2.6603    2.9675    2.1570 H   0  0  0  0  0  0  0  0  0  0  0  0
    6.2539   -2.7064   -0.1156 H   0  0  0  0  0  0  0  0  0  0  0  0
    6.7979   -4.0469    0.9226 H   0  0  0  0  0  0  0  0  0  0  0  0
    5.6040   -4.3328   -0.3459 H   0  0  0  0  0  0  0  0  0  0  0  0
   -5.1720    5.1113   -1.5444 H   0  0  0  0  0  0  0  0  0  0  0  0
   -4.1788    4.8469    2.6208 H   0  0  0  0  0  0  0  0  0  0  0  0
   -5.4439    5.9252    0.7827 H   0  0  0  0  0  0  0  0  0  0  0  0
  1  2  1  0  0  0  0
  1  3  2  0  0  0  0
  1  4  1  0  0  0  0
  2  5  1  0  0  0  0
  2  6  1  0  0  0  0
  2 30  1  0  0  0  0
  3  7  1  0  0  0  0
  3  8  1  0  0  0  0
  4  9  1  0  0  0  0
  4 10  2  0  0  0  0
  5 11  2  0  0  0  0
  5 12  1  0  0  0  0
  6 13  2  0  0  0  0
  6 14  1  0  0  0  0
  7 15  1  0  0  0  0
  7 31  1  0  0  0  0
  7 32  1  0  0  0  0
  8 11  1  0  0  0  0
  8 33  1  0  0  0  0
  9 15  1  0  0  0  0
  9 34  1  0  0  0  0
  9 35  1  0  0  0  0
 11 16  1  0  0  0  0
 12 17  1  0  0  0  0
 12 18  2  0  0  0  0
 13 19  1  0  0  0  0
 13 36  1  0  0  0  0
 14 20  2  0  0  0  0
 15 21  1  0  0  0  0
 15 37  1  0  0  0  0
 16 38  1  0  0  0  0
 16 39  1  0  0  0  0
 16 40  1  0  0  0  0
 17 22  1  0  0  0  0
 19 23  2  0  0  0  0
 19 41  1  0  0  0  0
 20 23  1  0  0  0  0
 20 42  1  0  0  0  0
 21 24  2  0  0  0  0
 21 25  1  0  0  0  0
 22 26  1  0  0  0  0
 22 43  1  0  0  0  0
 22 44  1  0  0  0  0
 23 45  1  0  0  0  0
 24 27  1  0  0  0  0
 24 46  1  0  0  0  0
 25 28  2  0  0  0  0
 25 47  1  0  0  0  0
 26 48  1  0  0  0  0
 26 49  1  0  0  0  0
 26 50  1  0  0  0  0
 27 29  2  0  0  0  0
 27 51  1  0  0  0  0
 28 29  1  0  0  0  0
 28 52  1  0  0  0  0
 29 53  1  0  0  0  0
M  END
>  <Mol_ID>
8352

>  <Formula>
C24H24N2O3

>  <MolWeight>
388.45896

>  <Cat>
P2102

>  <Name>
WAY-298681

>  <Synonyms>
N/A

>  <Target>
beta-amyloid

>  <Form>
free base

>  <CAS>
299454-09-4

>  <URL>
N/A

$$$$
