WAY-607413
 OpenBabel08302521433D

 38 40  0  0  0  0  0  0  0  0999 V2000
    2.4502   -1.6985    2.9729 C   0  0  0  0  0  0  0  0  0  0  0  0
    3.4029   -1.8716    3.9899 C   0  0  0  0  0  0  0  0  0  0  0  0
    1.1252   -2.0954    3.1699 C   0  0  0  0  0  0  0  0  0  0  0  0
    3.0276   -2.4997    5.1779 C   0  0  0  0  0  0  0  0  0  0  0  0
    0.7631   -2.7303    4.3589 C   0  0  0  0  0  0  0  0  0  0  0  0
    1.7148   -2.9422    5.3564 C   0  0  0  0  0  0  0  0  0  0  0  0
    0.3335   -5.1024   -0.2107 C   0  0  0  0  0  0  0  0  0  0  0  0
   -0.6969   -6.0143   -0.2314 O   0  0  0  0  0  0  0  0  0  0  0  0
    0.4566   -4.0002   -1.0597 C   0  0  0  0  0  0  0  0  0  0  0  0
    2.9253   -0.9405    1.4270 S   0  0  0  0  0  0  0  0  0  0  0  0
    1.2526   -5.2765    0.8291 C   0  0  0  0  0  0  0  0  0  0  0  0
    1.7568   -0.2968    0.8754 O   0  0  0  0  0  0  0  0  0  0  0  0
    4.1482   -0.2047    1.6637 O   0  0  0  0  0  0  0  0  0  0  0  0
    3.3513   -2.2467    0.4444 N   0  0  0  0  0  0  0  0  0  0  0  0
   -1.3667   -6.3003   -1.3953 C   0  0  0  0  0  0  0  0  0  0  0  0
    1.4957   -3.0836   -0.8698 C   0  0  0  0  0  0  0  0  0  0  0  0
    2.2942   -4.3653    1.0165 C   0  0  0  0  0  0  0  0  0  0  0  0
   -0.7509   -6.4208   -2.6437 C   0  0  0  0  0  0  0  0  0  0  0  0
   -2.7288   -6.5849   -1.2653 C   0  0  0  0  0  0  0  0  0  0  0  0
    2.3956   -3.2593    0.1771 C   0  0  0  0  0  0  0  0  0  0  0  0
   -1.5127   -6.7501   -3.7664 C   0  0  0  0  0  0  0  0  0  0  0  0
   -3.4844   -6.9382   -2.3839 C   0  0  0  0  0  0  0  0  0  0  0  0
   -2.8779   -7.0065   -3.6372 C   0  0  0  0  0  0  0  0  0  0  0  0
    4.4224   -1.5216    3.8623 H   0  0  0  0  0  0  0  0  0  0  0  0
    0.3761   -1.9353    2.3958 H   0  0  0  0  0  0  0  0  0  0  0  0
    3.7587   -2.6439    5.9702 H   0  0  0  0  0  0  0  0  0  0  0  0
   -0.2618   -3.0658    4.5053 H   0  0  0  0  0  0  0  0  0  0  0  0
    1.4314   -3.4433    6.2793 H   0  0  0  0  0  0  0  0  0  0  0  0
   -0.2569   -3.8175   -1.8577 H   0  0  0  0  0  0  0  0  0  0  0  0
    1.1374   -6.1123    1.5156 H   0  0  0  0  0  0  0  0  0  0  0  0
    4.3417   -2.4750    0.4515 H   0  0  0  0  0  0  0  0  0  0  0  0
    1.5834   -2.2220   -1.5276 H   0  0  0  0  0  0  0  0  0  0  0  0
    2.9765   -4.5039    1.8501 H   0  0  0  0  0  0  0  0  0  0  0  0
    0.3169   -6.2633   -2.7551 H   0  0  0  0  0  0  0  0  0  0  0  0
   -3.2020   -6.5389   -0.2874 H   0  0  0  0  0  0  0  0  0  0  0  0
   -1.0375   -6.8155   -4.7414 H   0  0  0  0  0  0  0  0  0  0  0  0
   -4.5422   -7.1628   -2.2775 H   0  0  0  0  0  0  0  0  0  0  0  0
   -3.4658   -7.2722   -4.5118 H   0  0  0  0  0  0  0  0  0  0  0  0
  1  2  2  0  0  0  0
  1  3  1  0  0  0  0
  2  4  1  0  0  0  0
  2 24  1  0  0  0  0
  3  5  2  0  0  0  0
  3 25  1  0  0  0  0
  4  6  2  0  0  0  0
  4 26  1  0  0  0  0
  5  6  1  0  0  0  0
  5 27  1  0  0  0  0
  6 28  1  0  0  0  0
  7  8  1  0  0  0  0
  7  9  2  0  0  0  0
  7 11  1  0  0  0  0
  8 15  1  0  0  0  0
  9 16  1  0  0  0  0
  9 29  1  0  0  0  0
 10  1  1  0  0  0  0
 10 12  2  0  0  0  0
 10 13  2  0  0  0  0
 10 14  1  0  0  0  0
 11 17  2  0  0  0  0
 11 30  1  0  0  0  0
 14 20  1  0  0  0  0
 14 31  1  0  0  0  0
 15 18  2  0  0  0  0
 15 19  1  0  0  0  0
 16 20  2  0  0  0  0
 16 32  1  0  0  0  0
 17 20  1  0  0  0  0
 17 33  1  0  0  0  0
 18 21  1  0  0  0  0
 18 34  1  0  0  0  0
 19 22  2  0  0  0  0
 19 35  1  0  0  0  0
 21 23  2  0  0  0  0
 21 36  1  0  0  0  0
 22 23  1  0  0  0  0
 22 37  1  0  0  0  0
 23 38  1  0  0  0  0
M  END
>  <Mol_ID>
8743

>  <Formula>
C18H15NO3S

>  <MolWeight>
325.3816

>  <Cat>
P2890

>  <Name>
WAY-607413

>  <Synonyms>
N/A

>  <Target>
nonsteroidal progesterone receptor

>  <Form>
free base

>  <CAS>
106149-18-2

>  <URL>
N/A

$$$$
