WAY-328122
 OpenBabel08302521443D

 34 36  0  0  0  0  0  0  0  0999 V2000
   -0.3156   -1.2998    0.2203 C   0  0  0  0  0  0  0  0  0  0  0  0
    0.7194   -0.5625    0.6603 N   0  0  0  0  0  0  0  0  0  0  0  0
   -1.4224   -0.4678   -0.0979 C   0  0  0  0  0  0  0  0  0  0  0  0
   -0.9978    0.8158    0.1642 C   0  0  0  0  0  0  0  0  0  0  0  0
    0.2768    0.7563    0.6447 O   0  0  0  0  0  0  0  0  0  0  0  0
   -0.2605   -2.7626    0.0947 C   0  0  0  0  0  0  0  0  0  0  0  0
    1.0078   -3.3031    0.0714 N   0  0  0  0  0  0  0  0  0  0  0  0
   -1.5951    2.1366    0.0025 C   0  0  0  0  0  0  0  0  0  0  0  0
   -1.2779   -3.4410   -0.0111 O   0  0  0  0  0  0  0  0  0  0  0  0
    1.8554   -5.5296   -3.7560 N   0  0  0  0  0  0  0  0  0  0  0  0
   -1.1785    3.2373    0.7749 C   0  0  0  0  0  0  0  0  0  0  0  0
   -2.6205    2.3377   -0.9404 C   0  0  0  0  0  0  0  0  0  0  0  0
    1.9766   -4.9940   -1.3920 C   0  0  0  0  0  0  0  0  0  0  0  0
    1.2544   -4.7193   -0.1038 C   0  0  0  0  0  0  0  0  0  0  0  0
   -2.7809    4.6602   -0.3314 C   0  0  0  0  0  0  0  0  0  0  0  0
   -3.2089    3.5953   -1.1103 C   0  0  0  0  0  0  0  0  0  0  0  0
   -1.7724    4.4935    0.6096 C   0  0  0  0  0  0  0  0  0  0  0  0
   -3.3468    5.8629   -0.4886 F   0  0  0  0  0  0  0  0  0  0  0  0
    1.2806   -5.3525   -2.5430 C   0  0  0  0  0  0  0  0  0  0  0  0
    3.1893   -5.3388   -3.8309 C   0  0  0  0  0  0  0  0  0  0  0  0
    3.3633   -4.8491   -1.5036 C   0  0  0  0  0  0  0  0  0  0  0  0
    3.9800   -5.0156   -2.7415 C   0  0  0  0  0  0  0  0  0  0  0  0
   -2.3797   -0.7808   -0.4828 H   0  0  0  0  0  0  0  0  0  0  0  0
    1.7893   -2.6585    0.1122 H   0  0  0  0  0  0  0  0  0  0  0  0
   -0.3937    3.1218    1.5208 H   0  0  0  0  0  0  0  0  0  0  0  0
   -2.9647    1.5168   -1.5674 H   0  0  0  0  0  0  0  0  0  0  0  0
    1.8654   -5.0497    0.7435 H   0  0  0  0  0  0  0  0  0  0  0  0
    0.3180   -5.2869   -0.0609 H   0  0  0  0  0  0  0  0  0  0  0  0
   -3.9940    3.7484   -1.8449 H   0  0  0  0  0  0  0  0  0  0  0  0
   -1.4558    5.3411    1.2095 H   0  0  0  0  0  0  0  0  0  0  0  0
    0.2040   -5.5064   -2.5279 H   0  0  0  0  0  0  0  0  0  0  0  0
    3.6191   -5.4500   -4.8226 H   0  0  0  0  0  0  0  0  0  0  0  0
    3.9662   -4.5971   -0.6351 H   0  0  0  0  0  0  0  0  0  0  0  0
    5.0500   -4.8825   -2.8575 H   0  0  0  0  0  0  0  0  0  0  0  0
  2  1  2  0  0  0  0
  3  1  1  0  0  0  0
  3 23  1  0  0  0  0
  4  3  2  0  0  0  0
  5  2  1  0  0  0  0
  5  4  1  0  0  0  0
  6  1  1  0  0  0  0
  7  6  1  0  0  0  0
  7 24  1  0  0  0  0
  8  4  1  0  0  0  0
  9  6  2  0  0  0  0
 10 19  2  0  0  0  0
 11  8  2  0  0  0  0
 11 25  1  0  0  0  0
 12  8  1  0  0  0  0
 12 26  1  0  0  0  0
 13 14  1  0  0  0  0
 14  7  1  0  0  0  0
 14 27  1  0  0  0  0
 14 28  1  0  0  0  0
 15 16  1  0  0  0  0
 15 17  2  0  0  0  0
 16 12  2  0  0  0  0
 16 29  1  0  0  0  0
 17 11  1  0  0  0  0
 17 30  1  0  0  0  0
 18 15  1  0  0  0  0
 19 13  1  0  0  0  0
 19 31  1  0  0  0  0
 20 22  2  0  0  0  0
 20 10  1  0  0  0  0
 20 32  1  0  0  0  0
 21 13  2  0  0  0  0
 21 33  1  0  0  0  0
 22 21  1  0  0  0  0
 22 34  1  0  0  0  0
M  END
>  <Mol_ID>
8999

>  <Formula>
C16H12FN3O2

>  <MolWeight>
297.2837832

>  <Cat>
P2562

>  <Name>
WAY-328122

>  <Synonyms>
N/A

>  <Target>
Others

>  <Form>
free base

>  <CAS>
912784-61-3

>  <URL>
N/A

$$$$
