WAY-639729
 OpenBabel08302521443D

 28 30  0  0  0  0  0  0  0  0999 V2000
   -1.4033   -0.9557   -0.0302 N   0  0  0  0  0  0  0  0  0  0  0  0
   -1.4768    0.3604   -0.0438 C   0  0  0  0  0  0  0  0  0  0  0  0
   -0.0751   -1.3833   -0.0445 C   0  0  0  0  0  0  0  0  0  0  0  0
    0.0401    1.1585   -0.0746 S   0  0  0  0  0  0  0  0  0  0  0  0
    0.8586   -0.3535   -0.0241 C   0  0  0  0  0  0  0  0  0  0  0  0
   -2.7461    1.0579   -0.0153 C   0  0  0  0  0  0  0  0  0  0  0  0
   -2.8890    2.7732   -0.0551 S   0  0  0  0  0  0  0  0  0  0  0  0
    0.2299   -2.8138   -0.0071 C   0  0  0  0  0  0  0  0  0  0  0  0
   -4.0005    0.4732    0.0523 C   0  0  0  0  0  0  0  0  0  0  0  0
   -4.5946    2.7175    0.0220 C   0  0  0  0  0  0  0  0  0  0  0  0
   -5.0624    1.4256    0.0752 C   0  0  0  0  0  0  0  0  0  0  0  0
    2.3466   -0.3296    0.0522 C   0  0  0  0  0  0  0  0  0  0  0  0
    1.3294   -3.3650   -0.6777 C   0  0  0  0  0  0  0  0  0  0  0  0
   -0.6089   -3.6781    0.7145 C   0  0  0  0  0  0  0  0  0  0  0  0
   -0.3213   -5.0430    0.8084 C   0  0  0  0  0  0  0  0  0  0  0  0
    1.6328   -4.7260   -0.5636 C   0  0  0  0  0  0  0  0  0  0  0  0
    0.8099   -5.5636    0.1845 C   0  0  0  0  0  0  0  0  0  0  0  0
   -4.1443   -0.6008    0.0868 H   0  0  0  0  0  0  0  0  0  0  0  0
   -5.1675    3.6333    0.0242 H   0  0  0  0  0  0  0  0  0  0  0  0
   -6.1149    1.1747    0.1274 H   0  0  0  0  0  0  0  0  0  0  0  0
    2.7675    0.1080   -0.8599 H   0  0  0  0  0  0  0  0  0  0  0  0
    2.6747    0.2733    0.9051 H   0  0  0  0  0  0  0  0  0  0  0  0
    2.7872   -1.3186    0.1851 H   0  0  0  0  0  0  0  0  0  0  0  0
    1.9675   -2.7485   -1.3051 H   0  0  0  0  0  0  0  0  0  0  0  0
   -1.4943   -3.2875    1.2116 H   0  0  0  0  0  0  0  0  0  0  0  0
   -0.9790   -5.6976    1.3740 H   0  0  0  0  0  0  0  0  0  0  0  0
    2.5099   -5.1297   -1.0632 H   0  0  0  0  0  0  0  0  0  0  0  0
    1.0456   -6.6213    0.2737 H   0  0  0  0  0  0  0  0  0  0  0  0
  2  1  2  0  0  0  0
  3  1  1  0  0  0  0
  4  2  1  0  0  0  0
  4  5  1  0  0  0  0
  5  3  2  0  0  0  0
  6  2  1  0  0  0  0
  7  6  1  0  0  0  0
  8  3  1  0  0  0  0
  9  6  2  0  0  0  0
  9 18  1  0  0  0  0
 10  7  1  0  0  0  0
 10 11  2  0  0  0  0
 10 19  1  0  0  0  0
 11  9  1  0  0  0  0
 11 20  1  0  0  0  0
 12  5  1  0  0  0  0
 12 21  1  0  0  0  0
 12 22  1  0  0  0  0
 12 23  1  0  0  0  0
 13  8  2  0  0  0  0
 13 24  1  0  0  0  0
 14  8  1  0  0  0  0
 14 25  1  0  0  0  0
 15 14  2  0  0  0  0
 15 26  1  0  0  0  0
 16 13  1  0  0  0  0
 16 27  1  0  0  0  0
 17 15  1  0  0  0  0
 17 16  2  0  0  0  0
 17 28  1  0  0  0  0
M  END
>  <Mol_ID>
9080

>  <Formula>
C14H11NS2

>  <MolWeight>
257.37384

>  <Cat>
P3087

>  <Name>
WAY-639729

>  <Synonyms>
N/A

>  <Target>
Others

>  <Form>
free base

>  <CAS>
113214-30-5

>  <URL>
N/A

$$$$
