WAY-316606
 OpenBabel08302520383D

 48 50  0  0  0  0  0  0  0  0999 V2000
    1.3029   -0.1955    0.2754 C   0  0  0  0  0  0  0  0  0  0  0  0
    0.3762   -1.2569    0.2451 C   0  0  0  0  0  0  0  0  0  0  0  0
   -0.9929   -0.9439    0.0652 C   0  0  0  0  0  0  0  0  0  0  0  0
   -1.4412    0.3753    0.0078 C   0  0  0  0  0  0  0  0  0  0  0  0
   -0.5201    1.4129    0.1318 C   0  0  0  0  0  0  0  0  0  0  0  0
    0.8515    1.1390    0.2279 C   0  0  0  0  0  0  0  0  0  0  0  0
    3.0636   -0.4877    0.1271 S   0  0  0  0  0  0  0  0  0  0  0  0
    3.2076   -1.4990   -0.8925 O   0  0  0  0  0  0  0  0  0  0  0  0
    3.7083    0.7995   -0.0352 O   0  0  0  0  0  0  0  0  0  0  0  0
    3.5635   -1.1613    1.5682 N   0  0  0  0  0  0  0  0  0  0  0  0
    0.6954   -2.7163    0.4798 C   0  0  0  0  0  0  0  0  0  0  0  0
    1.9896   -3.0291    0.7375 F   0  0  0  0  0  0  0  0  0  0  0  0
    0.0175   -3.1724    1.5778 F   0  0  0  0  0  0  0  0  0  0  0  0
    0.2939   -3.5146   -0.5464 F   0  0  0  0  0  0  0  0  0  0  0  0
    6.2669   -0.4563    4.0796 N   0  0  0  0  0  0  0  0  0  0  0  0
    5.9321    0.4353    2.9676 C   0  0  0  0  0  0  0  0  0  0  0  0
    4.4383    0.7514    2.9670 C   0  0  0  0  0  0  0  0  0  0  0  0
    3.5634   -0.5019    2.8912 C   0  0  0  0  0  0  0  0  0  0  0  0
    4.0380   -1.5138    3.9547 C   0  0  0  0  0  0  0  0  0  0  0  0
    5.5553   -1.7248    3.9495 C   0  0  0  0  0  0  0  0  0  0  0  0
   -1.1356    3.0663    0.3960 S   0  0  0  0  0  0  0  0  0  0  0  0
   -2.3356    2.9259    1.2067 O   0  0  0  0  0  0  0  0  0  0  0  0
   -0.0235    3.8520    0.8950 O   0  0  0  0  0  0  0  0  0  0  0  0
   -1.6292    3.7655   -1.1596 C   0  0  0  0  0  0  0  0  0  0  0  0
   -2.9474    3.6112   -1.5960 C   0  0  0  0  0  0  0  0  0  0  0  0
   -3.3697    4.2623   -2.7588 C   0  0  0  0  0  0  0  0  0  0  0  0
   -2.4788    5.0676   -3.4683 C   0  0  0  0  0  0  0  0  0  0  0  0
   -1.1658    5.2276   -3.0220 C   0  0  0  0  0  0  0  0  0  0  0  0
   -0.7368    4.5788   -1.8633 C   0  0  0  0  0  0  0  0  0  0  0  0
   -1.7308   -1.7485    0.0101 H   0  0  0  0  0  0  0  0  0  0  0  0
   -2.5080    0.5769   -0.0701 H   0  0  0  0  0  0  0  0  0  0  0  0
    1.5648    1.9616    0.2754 H   0  0  0  0  0  0  0  0  0  0  0  0
    3.5658   -2.1841    1.5349 H   0  0  0  0  0  0  0  0  0  0  0  0
    7.2728   -0.6277    4.0791 H   0  0  0  0  0  0  0  0  0  0  0  0
    6.2439   -0.0056    2.0136 H   0  0  0  0  0  0  0  0  0  0  0  0
    6.4957    1.3672    3.0889 H   0  0  0  0  0  0  0  0  0  0  0  0
    4.2118    1.4636    2.1720 H   0  0  0  0  0  0  0  0  0  0  0  0
    4.2021    1.2767    3.9027 H   0  0  0  0  0  0  0  0  0  0  0  0
    2.5245   -0.2385    3.1207 H   0  0  0  0  0  0  0  0  0  0  0  0
    3.7464   -1.1428    4.9472 H   0  0  0  0  0  0  0  0  0  0  0  0
    3.5390   -2.4820    3.8248 H   0  0  0  0  0  0  0  0  0  0  0  0
    5.8308   -2.3668    4.7945 H   0  0  0  0  0  0  0  0  0  0  0  0
    5.8732   -2.2475    3.0394 H   0  0  0  0  0  0  0  0  0  0  0  0
   -3.6645    3.0224   -1.0280 H   0  0  0  0  0  0  0  0  0  0  0  0
   -4.3975    4.1596   -3.0995 H   0  0  0  0  0  0  0  0  0  0  0  0
   -2.8141    5.5896   -4.3629 H   0  0  0  0  0  0  0  0  0  0  0  0
   -0.4834    5.8755   -3.5666 H   0  0  0  0  0  0  0  0  0  0  0  0
    0.2778    4.7401   -1.5049 H   0  0  0  0  0  0  0  0  0  0  0  0
  1  2  2  0  0  0  0
  1  6  1  0  0  0  0
  1  7  1  0  0  0  0
  2  3  1  0  0  0  0
  2 11  1  0  0  0  0
  3  4  2  0  0  0  0
  3 30  1  0  0  0  0
  4  5  1  0  0  0  0
  4 31  1  0  0  0  0
  5  6  2  0  0  0  0
  5 21  1  0  0  0  0
  6 32  1  0  0  0  0
  7  8  2  0  0  0  0
  7  9  2  0  0  0  0
  7 10  1  0  0  0  0
 10 18  1  0  0  0  0
 10 33  1  0  0  0  0
 11 12  1  0  0  0  0
 11 13  1  0  0  0  0
 11 14  1  0  0  0  0
 15 16  1  0  0  0  0
 15 20  1  0  0  0  0
 15 34  1  0  0  0  0
 16 17  1  0  0  0  0
 16 35  1  0  0  0  0
 16 36  1  0  0  0  0
 17 18  1  0  0  0  0
 17 37  1  0  0  0  0
 17 38  1  0  0  0  0
 18 19  1  0  0  0  0
 18 39  1  0  0  0  0
 19 20  1  0  0  0  0
 19 40  1  0  0  0  0
 19 41  1  0  0  0  0
 20 42  1  0  0  0  0
 20 43  1  0  0  0  0
 21 22  2  0  0  0  0
 21 23  2  0  0  0  0
 21 24  1  0  0  0  0
 24 25  2  0  0  0  0
 24 29  1  0  0  0  0
 25 26  1  0  0  0  0
 25 44  1  0  0  0  0
 26 27  2  0  0  0  0
 26 45  1  0  0  0  0
 27 28  1  0  0  0  0
 27 46  1  0  0  0  0
 28 29  2  0  0  0  0
 28 47  1  0  0  0  0
 29 48  1  0  0  0  0
M  END
>  <Mol_ID>
3440

>  <Formula>
C18H19F3N2O4S2

>  <MolWeight>
448.4796696

>  <Cat>
S5815

>  <Name>
WAY-316606

>  <Synonyms>
N/A

>  <Target>
SFRP,Wnt/beta-catenin

>  <Form>
Free Base

>  <CAS>
915759-45-4

>  <URL>
http://www.selleckchem.com/products/way-316606.html

$$$$
