WAY-323525
 OpenBabel08302521423D

 44 46  0  0  0  0  0  0  0  0999 V2000
    2.2232   -1.6039    1.1446 C   0  0  0  0  0  0  0  0  0  0  0  0
    1.6255   -0.6183    0.5312 N   0  0  0  0  0  0  0  0  0  0  0  0
   -1.8244   -3.6049    0.3097 N   0  0  0  0  0  0  0  0  0  0  0  0
   -1.5507   -4.4293    1.3591 C   0  0  0  0  0  0  0  0  0  0  0  0
   -2.5528   -4.3976    2.2065 N   0  0  0  0  0  0  0  0  0  0  0  0
   -3.4991   -3.5248    1.7093 N   0  0  0  0  0  0  0  0  0  0  0  0
    2.1777    0.5879    0.9311 C   0  0  0  0  0  0  0  0  0  0  0  0
   -3.0458   -3.0438    0.5711 C   0  0  0  0  0  0  0  0  0  0  0  0
    2.0147   -2.9491    1.0109 N   0  0  0  0  0  0  0  0  0  0  0  0
    3.4276   -1.1762    2.2733 S   0  0  0  0  0  0  0  0  0  0  0  0
    3.1950    0.4783    1.8625 C   0  0  0  0  0  0  0  0  0  0  0  0
    1.1684   -3.4511    0.0508 C   0  0  0  0  0  0  0  0  0  0  0  0
   -0.1010   -5.3486    1.5667 S   0  0  0  0  0  0  0  0  0  0  0  0
    1.6565    1.8531    0.4304 C   0  0  0  0  0  0  0  0  0  0  0  0
    0.5697   -2.8175   -0.8185 O   0  0  0  0  0  0  0  0  0  0  0  0
   -3.6864   -2.0583   -0.3407 C   0  0  0  0  0  0  0  0  0  0  0  0
    0.9352   -4.9453    0.1434 C   0  0  0  0  0  0  0  0  0  0  0  0
   -3.9509   -0.6960    0.3210 C   0  0  0  0  0  0  0  0  0  0  0  0
    0.2805    1.9622    0.2006 C   0  0  0  0  0  0  0  0  0  0  0  0
    2.4674    2.9596    0.1590 C   0  0  0  0  0  0  0  0  0  0  0  0
   -2.6541   -0.0277    0.7600 C   0  0  0  0  0  0  0  0  0  0  0  0
   -4.6631    0.2298   -0.6700 C   0  0  0  0  0  0  0  0  0  0  0  0
    1.9023    4.1393   -0.3402 C   0  0  0  0  0  0  0  0  0  0  0  0
   -0.2866    3.1348   -0.2926 C   0  0  0  0  0  0  0  0  0  0  0  0
    0.5276    4.2274   -0.5631 C   0  0  0  0  0  0  0  0  0  0  0  0
   -1.2271   -3.3722   -0.4737 H   0  0  0  0  0  0  0  0  0  0  0  0
    2.4835   -3.5535    1.6707 H   0  0  0  0  0  0  0  0  0  0  0  0
    3.7723    1.2591    2.3344 H   0  0  0  0  0  0  0  0  0  0  0  0
   -3.0594   -1.9180   -1.2316 H   0  0  0  0  0  0  0  0  0  0  0  0
   -4.6335   -2.4848   -0.6904 H   0  0  0  0  0  0  0  0  0  0  0  0
    0.4519   -5.2905   -0.7776 H   0  0  0  0  0  0  0  0  0  0  0  0
    1.8968   -5.4627    0.2190 H   0  0  0  0  0  0  0  0  0  0  0  0
   -4.5908   -0.8290    1.2018 H   0  0  0  0  0  0  0  0  0  0  0  0
   -0.3481    1.1110    0.4198 H   0  0  0  0  0  0  0  0  0  0  0  0
    3.5414    2.9064    0.3015 H   0  0  0  0  0  0  0  0  0  0  0  0
   -2.0102    0.0996   -0.1143 H   0  0  0  0  0  0  0  0  0  0  0  0
   -2.8441    0.9590    1.1969 H   0  0  0  0  0  0  0  0  0  0  0  0
   -2.1109   -0.6180    1.5043 H   0  0  0  0  0  0  0  0  0  0  0  0
   -4.0405    0.4159   -1.5535 H   0  0  0  0  0  0  0  0  0  0  0  0
   -5.6071   -0.2077   -1.0071 H   0  0  0  0  0  0  0  0  0  0  0  0
   -4.8830    1.1988   -0.2090 H   0  0  0  0  0  0  0  0  0  0  0  0
    2.5393    4.9912   -0.5573 H   0  0  0  0  0  0  0  0  0  0  0  0
   -1.3591    3.1898   -0.4648 H   0  0  0  0  0  0  0  0  0  0  0  0
    0.0940    5.1446   -0.9488 H   0  0  0  0  0  0  0  0  0  0  0  0
  2  1  2  0  0  0  0
  3  4  1  0  0  0  0
  3 26  1  0  0  0  0
  4 13  1  0  0  0  0
  5  4  2  0  0  0  0
  6  5  1  0  0  0  0
  7  2  1  0  0  0  0
  8  3  1  0  0  0  0
  8  6  2  0  0  0  0
  9  1  1  0  0  0  0
  9 27  1  0  0  0  0
 10  1  1  0  0  0  0
 11 10  1  0  0  0  0
 11  7  2  0  0  0  0
 11 28  1  0  0  0  0
 12  9  1  0  0  0  0
 13 17  1  0  0  0  0
 14  7  1  0  0  0  0
 15 12  2  0  0  0  0
 16  8  1  0  0  0  0
 16 29  1  0  0  0  0
 16 30  1  0  0  0  0
 17 12  1  0  0  0  0
 17 31  1  0  0  0  0
 17 32  1  0  0  0  0
 18 16  1  0  0  0  0
 18 33  1  0  0  0  0
 19 14  2  0  0  0  0
 19 34  1  0  0  0  0
 20 14  1  0  0  0  0
 20 35  1  0  0  0  0
 21 18  1  0  0  0  0
 21 36  1  0  0  0  0
 21 37  1  0  0  0  0
 21 38  1  0  0  0  0
 22 18  1  0  0  0  0
 22 39  1  0  0  0  0
 22 40  1  0  0  0  0
 22 41  1  0  0  0  0
 23 20  2  0  0  0  0
 23 42  1  0  0  0  0
 24 19  1  0  0  0  0
 24 43  1  0  0  0  0
 25 23  1  0  0  0  0
 25 24  2  0  0  0  0
 25 44  1  0  0  0  0
M  END
>  <Mol_ID>
8581

>  <Formula>
C17H19N5OS2

>  <MolWeight>
373.49566

>  <Cat>
P2271

>  <Name>
WAY-323525

>  <Synonyms>
N/A

>  <Target>
Anti-infection

>  <Form>
free base

>  <CAS>
854040-46-3

>  <URL>
N/A

$$$$
