WAY-299914
 OpenBabel08302521413D

 28 29  0  0  0  0  0  0  0  0999 V2000
    0.2495    0.5334    0.0413 C   0  0  0  0  0  0  0  0  0  0  0  0
   -0.1660   -0.7841    0.1591 C   0  0  0  0  0  0  0  0  0  0  0  0
   -1.0359    1.6318    0.0292 S   0  0  0  0  0  0  0  0  0  0  0  0
    1.5168    0.9815   -0.0567 N   0  0  0  0  0  0  0  0  0  0  0  0
   -1.6030   -0.8534    0.2772 C   0  0  0  0  0  0  0  0  0  0  0  0
    0.8576   -1.7590    0.1603 C   0  0  0  0  0  0  0  0  0  0  0  0
   -2.2192    0.3880    0.2016 C   0  0  0  0  0  0  0  0  0  0  0  0
    2.4619    0.0226   -0.0395 C   0  0  0  0  0  0  0  0  0  0  0  0
   -2.2432   -2.0354    0.4448 N   0  0  0  0  0  0  0  0  0  0  0  0
    2.1849   -1.3366    0.0579 C   0  0  0  0  0  0  0  0  0  0  0  0
   -3.6355    0.7429    0.2671 C   0  0  0  0  0  0  0  0  0  0  0  0
    3.8798    0.5079   -0.1265 C   0  0  0  0  0  0  0  0  0  0  0  0
   -3.8029    2.0960    0.1140 O   0  0  0  0  0  0  0  0  0  0  0  0
   -4.5537   -0.0402    0.4555 O   0  0  0  0  0  0  0  0  0  0  0  0
   -5.1117    2.6531    0.2892 C   0  0  0  0  0  0  0  0  0  0  0  0
   -5.8407    2.7415   -1.0378 C   0  0  0  0  0  0  0  0  0  0  0  0
    0.6244   -2.8163    0.2403 H   0  0  0  0  0  0  0  0  0  0  0  0
   -3.2208   -2.0808    0.7363 H   0  0  0  0  0  0  0  0  0  0  0  0
   -1.7386   -2.9043    0.5996 H   0  0  0  0  0  0  0  0  0  0  0  0
    2.9851   -2.0693    0.0609 H   0  0  0  0  0  0  0  0  0  0  0  0
    4.0239    1.0661   -1.0569 H   0  0  0  0  0  0  0  0  0  0  0  0
    4.0949    1.1690    0.7196 H   0  0  0  0  0  0  0  0  0  0  0  0
    4.5971   -0.3184   -0.1069 H   0  0  0  0  0  0  0  0  0  0  0  0
   -5.6878    2.0921    1.0320 H   0  0  0  0  0  0  0  0  0  0  0  0
   -4.9725    3.6651    0.6873 H   0  0  0  0  0  0  0  0  0  0  0  0
   -5.7822    1.8004   -1.5913 H   0  0  0  0  0  0  0  0  0  0  0  0
   -6.8921    3.0034   -0.8830 H   0  0  0  0  0  0  0  0  0  0  0  0
   -5.3903    3.5154   -1.6697 H   0  0  0  0  0  0  0  0  0  0  0  0
  1  2  2  0  0  0  0
  1  3  1  0  0  0  0
  1  4  1  0  0  0  0
  2  5  1  0  0  0  0
  2  6  1  0  0  0  0
  3  7  1  0  0  0  0
  4  8  2  0  0  0  0
  5  9  1  0  0  0  0
  5  7  2  0  0  0  0
  6 10  2  0  0  0  0
  6 17  1  0  0  0  0
  7 11  1  0  0  0  0
  8 12  1  0  0  0  0
  8 10  1  0  0  0  0
  9 18  1  0  0  0  0
  9 19  1  0  0  0  0
 10 20  1  0  0  0  0
 11 13  1  0  0  0  0
 11 14  2  0  0  0  0
 12 21  1  0  0  0  0
 12 22  1  0  0  0  0
 12 23  1  0  0  0  0
 13 15  1  0  0  0  0
 15 16  1  0  0  0  0
 15 24  1  0  0  0  0
 15 25  1  0  0  0  0
 16 26  1  0  0  0  0
 16 27  1  0  0  0  0
 16 28  1  0  0  0  0
M  END
>  <Mol_ID>
8398

>  <Formula>
C11H12N2O2S

>  <MolWeight>
236.29018

>  <Cat>
P2124

>  <Name>
WAY-299914

>  <Synonyms>
N/A

>  <Target>
ubiquitin,acetyl-CoA carboxylase

>  <Form>
free base

>  <CAS>
52505-51-8

>  <URL>
N/A

$$$$
