WAY-328229
 OpenBabel08302521443D

 45 47  0  0  0  0  0  0  0  0999 V2000
   -0.1778   -1.2404    0.0488 C   0  0  0  0  0  0  0  0  0  0  0  0
   -0.1578   -2.7109   -0.0097 C   0  0  0  0  0  0  0  0  0  0  0  0
    1.0770   -3.4003    0.0263 N   0  0  0  0  0  0  0  0  0  0  0  0
    0.6608   -0.4895    0.7812 N   0  0  0  0  0  0  0  0  0  0  0  0
   -1.1179   -0.4077   -0.6101 C   0  0  0  0  0  0  0  0  0  0  0  0
   -0.7049    0.8751   -0.3470 C   0  0  0  0  0  0  0  0  0  0  0  0
    0.3765    0.8226    0.4750 O   0  0  0  0  0  0  0  0  0  0  0  0
   -1.1731    2.1945   -0.7297 C   0  0  0  0  0  0  0  0  0  0  0  0
   -1.2399   -3.2870   -0.1669 O   0  0  0  0  0  0  0  0  0  0  0  0
    2.3769   -2.6941    0.1251 C   0  0  3  0  0  0  0  0  0  0  0  0
    1.1673   -4.8810    0.1131 C   0  0  3  0  0  0  0  0  0  0  0  0
   -2.3810    2.3222   -1.4274 C   0  0  0  0  0  0  0  0  0  0  0  0
   -0.4557    3.3564   -0.4102 C   0  0  0  0  0  0  0  0  0  0  0  0
   -2.1411    4.7242   -1.4877 C   0  0  0  0  0  0  0  0  0  0  0  0
   -0.9443    4.6102   -0.7800 C   0  0  0  0  0  0  0  0  0  0  0  0
   -2.8663    3.5777   -1.7987 C   0  0  0  0  0  0  0  0  0  0  0  0
   -2.5271    6.0007   -1.7902 O   0  0  0  0  0  0  0  0  0  0  0  0
    3.5417   -4.7252   -0.8263 C   0  0  0  0  0  0  0  0  0  0  0  0
    2.1872   -5.4208   -0.9103 C   0  0  0  0  0  0  0  0  0  0  0  0
    3.3722   -3.2208   -0.9094 C   0  0  0  0  0  0  0  0  0  0  0  0
   -0.1259   -5.6941   -0.0225 C   0  0  0  0  0  0  0  0  0  0  0  0
    2.9114   -2.7340    1.5600 C   0  0  0  0  0  0  0  0  0  0  0  0
   -3.3272    6.1278   -2.9609 C   0  0  0  0  0  0  0  0  0  0  0  0
   -1.9513   -0.7252   -1.2194 H   0  0  0  0  0  0  0  0  0  0  0  0
    2.2721   -1.6501   -0.1615 H   0  0  0  0  0  0  0  0  0  0  0  0
    1.5464   -5.0927    1.1202 H   0  0  0  0  0  0  0  0  0  0  0  0
   -2.9728    1.4448   -1.6772 H   0  0  0  0  0  0  0  0  0  0  0  0
    0.4866    3.3009    0.1302 H   0  0  0  0  0  0  0  0  0  0  0  0
   -0.3849    5.5053   -0.5179 H   0  0  0  0  0  0  0  0  0  0  0  0
   -3.8225    3.6229   -2.3077 H   0  0  0  0  0  0  0  0  0  0  0  0
    4.1844   -5.0636   -1.6460 H   0  0  0  0  0  0  0  0  0  0  0  0
    4.0474   -4.9946    0.1065 H   0  0  0  0  0  0  0  0  0  0  0  0
    1.7863   -5.2914   -1.9242 H   0  0  0  0  0  0  0  0  0  0  0  0
    2.3378   -6.4964   -0.7598 H   0  0  0  0  0  0  0  0  0  0  0  0
    3.0027   -2.9626   -1.9113 H   0  0  0  0  0  0  0  0  0  0  0  0
    4.3394   -2.7196   -0.7930 H   0  0  0  0  0  0  0  0  0  0  0  0
   -0.6130   -5.5243   -0.9883 H   0  0  0  0  0  0  0  0  0  0  0  0
    0.0852   -6.7669    0.0527 H   0  0  0  0  0  0  0  0  0  0  0  0
   -0.8304   -5.4587    0.7821 H   0  0  0  0  0  0  0  0  0  0  0  0
    3.1668   -3.7486    1.8808 H   0  0  0  0  0  0  0  0  0  0  0  0
    3.8121   -2.1198    1.6543 H   0  0  0  0  0  0  0  0  0  0  0  0
    2.1651   -2.3556    2.2674 H   0  0  0  0  0  0  0  0  0  0  0  0
   -2.8244    5.6870   -3.8291 H   0  0  0  0  0  0  0  0  0  0  0  0
   -4.3211    5.6918   -2.8186 H   0  0  0  0  0  0  0  0  0  0  0  0
   -3.4631    7.1949   -3.1559 H   0  0  0  0  0  0  0  0  0  0  0  0
  2  1  1  0  0  0  0
  3  2  1  0  0  0  0
  4  1  2  0  0  0  0
  5  1  1  0  0  0  0
  5 24  1  0  0  0  0
  6  5  2  0  0  0  0
  7  4  1  0  0  0  0
  7  6  1  0  0  0  0
  8  6  1  0  0  0  0
  9  2  2  0  0  0  0
 10  3  1  0  0  0  0
 10 25  1  0  0  0  0
 11  3  1  0  0  0  0
 11 26  1  0  0  0  0
 12  8  2  0  0  0  0
 12 27  1  0  0  0  0
 13  8  1  0  0  0  0
 13 28  1  0  0  0  0
 14 15  1  0  0  0  0
 15 13  2  0  0  0  0
 15 29  1  0  0  0  0
 16 12  1  0  0  0  0
 16 14  2  0  0  0  0
 16 30  1  0  0  0  0
 17 14  1  0  0  0  0
 18 19  1  0  0  0  0
 18 20  1  0  0  0  0
 18 31  1  0  0  0  0
 18 32  1  0  0  0  0
 19 11  1  0  0  0  0
 19 33  1  0  0  0  0
 19 34  1  0  0  0  0
 20 10  1  0  0  0  0
 20 35  1  0  0  0  0
 20 36  1  0  0  0  0
 21 11  1  0  0  0  0
 21 37  1  0  0  0  0
 21 38  1  0  0  0  0
 21 39  1  0  0  0  0
 22 10  1  0  0  0  0
 22 40  1  0  0  0  0
 22 41  1  0  0  0  0
 22 42  1  0  0  0  0
 23 17  1  0  0  0  0
 23 43  1  0  0  0  0
 23 44  1  0  0  0  0
 23 45  1  0  0  0  0
M  END
>  <Mol_ID>
9009

>  <Formula>
C18H22N2O3

>  <MolWeight>
314.37888

>  <Cat>
P2575

>  <Name>
WAY-328229

>  <Synonyms>
N/A

>  <Target>
ATF6

>  <Form>
free base

>  <CAS>
912777-95-8

>  <URL>
N/A

$$$$
