WAY-637574
 OpenBabel08302521423D

 39 42  0  0  0  0  0  0  0  0999 V2000
   -2.4011   -0.1182    0.0623 C   0  0  0  0  0  0  0  0  0  0  0  0
   -1.5705   -1.2510   -0.0073 C   0  0  0  0  0  0  0  0  0  0  0  0
   -1.5526    0.9708    0.0903 N   0  0  0  0  0  0  0  0  0  0  0  0
    0.5945   -5.3550    4.2126 S   0  0  0  0  0  0  0  0  0  0  0  0
    0.0798   -4.9507    2.6304 C   0  0  0  0  0  0  0  0  0  0  0  0
    1.4346   -6.6836    3.5168 C   0  0  0  0  0  0  0  0  0  0  0  0
    0.5366   -5.7450    1.6906 N   0  0  0  0  0  0  0  0  0  0  0  0
    1.3215   -6.7540    2.2093 N   0  0  0  0  0  0  0  0  0  0  0  0
   -0.1989   -0.7820   -0.0029 C   0  0  0  0  0  0  0  0  0  0  0  0
   -0.2362    0.6078    0.0428 C   0  0  0  0  0  0  0  0  0  0  0  0
   -2.0278   -2.6500   -0.0949 C   0  0  0  0  0  0  0  0  0  0  0  0
   -0.9520   -3.5713    2.2890 S   0  0  0  0  0  0  0  0  0  0  0  0
   -3.8617    0.1007    0.1984 C   0  0  0  0  0  0  0  0  0  0  0  0
   -1.2109   -3.7853    0.5037 C   0  0  0  0  0  0  0  0  0  0  0  0
   -3.0573   -2.9388   -0.7140 O   0  0  0  0  0  0  0  0  0  0  0  0
    2.1410   -7.5490    4.2677 N   0  0  0  0  0  0  0  0  0  0  0  0
    1.0802   -1.3853   -0.0513 C   0  0  0  0  0  0  0  0  0  0  0  0
    0.9057    1.4183    0.0427 C   0  0  0  0  0  0  0  0  0  0  0  0
   -4.7070   -0.8573    0.7707 C   0  0  0  0  0  0  0  0  0  0  0  0
   -4.4376    1.3390   -0.1525 C   0  0  0  0  0  0  0  0  0  0  0  0
    2.2373   -0.5953   -0.0410 C   0  0  0  0  0  0  0  0  0  0  0  0
    2.1492    0.7896    0.0016 C   0  0  0  0  0  0  0  0  0  0  0  0
   -5.7799    1.6277    0.1208 C   0  0  0  0  0  0  0  0  0  0  0  0
   -6.0586   -0.5820    1.0176 C   0  0  0  0  0  0  0  0  0  0  0  0
   -6.5889    0.6678    0.7155 C   0  0  0  0  0  0  0  0  0  0  0  0
   -1.8578    1.9281    0.1726 H   0  0  0  0  0  0  0  0  0  0  0  0
   -1.7699   -4.7159    0.3563 H   0  0  0  0  0  0  0  0  0  0  0  0
   -0.2742   -3.8903   -0.0449 H   0  0  0  0  0  0  0  0  0  0  0  0
    2.4416   -7.2656    5.1922 H   0  0  0  0  0  0  0  0  0  0  0  0
    2.7943   -8.1500    3.7764 H   0  0  0  0  0  0  0  0  0  0  0  0
    1.2088   -2.4600   -0.0964 H   0  0  0  0  0  0  0  0  0  0  0  0
    0.8324    2.5014    0.0711 H   0  0  0  0  0  0  0  0  0  0  0  0
   -4.3355   -1.8352    1.0573 H   0  0  0  0  0  0  0  0  0  0  0  0
   -3.8521    2.1146   -0.6384 H   0  0  0  0  0  0  0  0  0  0  0  0
    3.2129   -1.0737   -0.0712 H   0  0  0  0  0  0  0  0  0  0  0  0
    3.0549    1.3898    0.0007 H   0  0  0  0  0  0  0  0  0  0  0  0
   -6.1875    2.6049   -0.1258 H   0  0  0  0  0  0  0  0  0  0  0  0
   -6.6901   -1.3467    1.4626 H   0  0  0  0  0  0  0  0  0  0  0  0
   -7.6285    0.8899    0.9404 H   0  0  0  0  0  0  0  0  0  0  0  0
  2  1  2  0  0  0  0
  3  1  1  0  0  0  0
  3 26  1  0  0  0  0
  4  5  1  0  0  0  0
  5 12  1  0  0  0  0
  6  4  1  0  0  0  0
  7  5  2  0  0  0  0
  8  7  1  0  0  0  0
  8  6  2  0  0  0  0
  9  2  1  0  0  0  0
  9 10  2  0  0  0  0
 10  3  1  0  0  0  0
 11  2  1  0  0  0  0
 12 14  1  0  0  0  0
 13  1  1  0  0  0  0
 14 11  1  0  0  0  0
 14 27  1  0  0  0  0
 14 28  1  0  0  0  0
 15 11  2  0  0  0  0
 16  6  1  0  0  0  0
 16 29  1  0  0  0  0
 16 30  1  0  0  0  0
 17  9  1  0  0  0  0
 17 31  1  0  0  0  0
 18 10  1  0  0  0  0
 18 32  1  0  0  0  0
 19 13  2  0  0  0  0
 19 33  1  0  0  0  0
 20 13  1  0  0  0  0
 20 34  1  0  0  0  0
 21 17  2  0  0  0  0
 21 22  1  0  0  0  0
 21 35  1  0  0  0  0
 22 18  2  0  0  0  0
 22 36  1  0  0  0  0
 23 20  2  0  0  0  0
 23 37  1  0  0  0  0
 24 19  1  0  0  0  0
 24 38  1  0  0  0  0
 25 23  1  0  0  0  0
 25 24  2  0  0  0  0
 25 39  1  0  0  0  0
M  END
>  <Mol_ID>
8485

>  <Formula>
C18H14N4OS2

>  <MolWeight>
366.45996

>  <Cat>
P3018

>  <Name>
WAY-637574

>  <Synonyms>
N/A

>  <Target>
GPRC6A Receptor

>  <Form>
free base

>  <CAS>
794575-46-5

>  <URL>
N/A

$$$$
