WAY-312237
 OpenBabel08302521393D

 49 51  0  0  0  0  0  0  0  0999 V2000
    1.3524   -0.0098    0.0980 N   0  0  0  0  0  0  0  0  0  0  0  0
    3.0354   -0.0122   -0.2700 S   0  0  0  0  0  0  0  0  0  0  0  0
    0.6440    1.2327   -0.3209 C   0  0  0  0  0  0  0  0  0  0  0  0
    0.6484   -1.2376   -0.3661 C   0  0  0  0  0  0  0  0  0  0  0  0
    3.6893    1.1288    0.9227 C   0  0  0  0  0  0  0  0  0  0  0  0
    3.5725   -1.3128    0.0627 O   0  0  0  0  0  0  0  0  0  0  0  0
    3.1880    0.5543   -1.5921 O   0  0  0  0  0  0  0  0  0  0  0  0
   -0.7495    1.2492    0.2931 C   0  0  0  0  0  0  0  0  0  0  0  0
   -0.7543   -1.2753    0.2322 C   0  0  0  0  0  0  0  0  0  0  0  0
    3.4922    0.8646    2.2809 C   0  0  0  0  0  0  0  0  0  0  0  0
    4.3914    2.2624    0.5108 C   0  0  0  0  0  0  0  0  0  0  0  0
   -1.5397   -0.0030   -0.0961 C   0  0  0  0  0  0  0  0  0  0  0  0
    3.9608    1.7691    3.2341 C   0  0  0  0  0  0  0  0  0  0  0  0
    4.8678    3.1579    1.4715 C   0  0  0  0  0  0  0  0  0  0  0  0
   -2.9042   -0.0152    0.5812 C   0  0  0  0  0  0  0  0  0  0  0  0
    4.6394    2.9289    2.8370 C   0  0  0  0  0  0  0  0  0  0  0  0
   -2.8718   -0.0197    1.9522 N   0  0  0  0  0  0  0  0  0  0  0  0
   -3.9442   -0.0246   -0.0726 O   0  0  0  0  0  0  0  0  0  0  0  0
    5.1289    3.9171    3.8559 C   0  0  0  0  0  0  0  0  0  0  0  0
   -4.0660   -0.0548    2.7643 C   0  0  0  0  0  0  0  0  0  0  0  0
   -4.0807   -1.2753    3.6366 C   0  0  0  0  0  0  0  0  0  0  0  0
   -4.0985   -2.5637    3.0924 C   0  0  0  0  0  0  0  0  0  0  0  0
   -4.0904   -1.1683    5.0232 C   0  0  0  0  0  0  0  0  0  0  0  0
   -4.1198   -3.6703    3.9359 C   0  0  0  0  0  0  0  0  0  0  0  0
   -4.1097   -2.2247    5.8668 N   0  0  0  0  0  0  0  0  0  0  0  0
   -4.1270   -3.4515    5.3031 C   0  0  0  0  0  0  0  0  0  0  0  0
    0.5753    1.2832   -1.4137 H   0  0  0  0  0  0  0  0  0  0  0  0
    1.1851    2.1155    0.0331 H   0  0  0  0  0  0  0  0  0  0  0  0
    1.1796   -2.1281   -0.0130 H   0  0  0  0  0  0  0  0  0  0  0  0
    0.6076   -1.2676   -1.4603 H   0  0  0  0  0  0  0  0  0  0  0  0
   -1.2904    2.1465   -0.0313 H   0  0  0  0  0  0  0  0  0  0  0  0
   -0.6530    1.3227    1.3832 H   0  0  0  0  0  0  0  0  0  0  0  0
   -0.6697   -1.4038    1.3184 H   0  0  0  0  0  0  0  0  0  0  0  0
   -1.2943   -2.1551   -0.1389 H   0  0  0  0  0  0  0  0  0  0  0  0
    2.9787   -0.0408    2.5966 H   0  0  0  0  0  0  0  0  0  0  0  0
    4.5751    2.4534   -0.5439 H   0  0  0  0  0  0  0  0  0  0  0  0
   -1.7203    0.0227   -1.1812 H   0  0  0  0  0  0  0  0  0  0  0  0
    3.7929    1.5630    4.2890 H   0  0  0  0  0  0  0  0  0  0  0  0
    5.4191    4.0402    1.1513 H   0  0  0  0  0  0  0  0  0  0  0  0
   -1.9845   -0.0578    2.4357 H   0  0  0  0  0  0  0  0  0  0  0  0
    6.2217    3.9715    3.8383 H   0  0  0  0  0  0  0  0  0  0  0  0
    4.7143    4.9091    3.6480 H   0  0  0  0  0  0  0  0  0  0  0  0
    4.8197    3.6357    4.8682 H   0  0  0  0  0  0  0  0  0  0  0  0
   -4.0465    0.8555    3.3739 H   0  0  0  0  0  0  0  0  0  0  0  0
   -4.9712   -0.0219    2.1492 H   0  0  0  0  0  0  0  0  0  0  0  0
   -4.0995   -2.7057    2.0137 H   0  0  0  0  0  0  0  0  0  0  0  0
   -4.0805   -0.2003    5.5175 H   0  0  0  0  0  0  0  0  0  0  0  0
   -4.1346   -4.6782    3.5368 H   0  0  0  0  0  0  0  0  0  0  0  0
   -4.1495   -4.2821    6.0028 H   0  0  0  0  0  0  0  0  0  0  0  0
  1  2  1  0  0  0  0
  1  3  1  0  0  0  0
  1  4  1  0  0  0  0
  2  5  1  0  0  0  0
  2  6  2  0  0  0  0
  2  7  2  0  0  0  0
  3  8  1  0  0  0  0
  3 27  1  0  0  0  0
  3 28  1  0  0  0  0
  4  9  1  0  0  0  0
  4 29  1  0  0  0  0
  4 30  1  0  0  0  0
  5 10  2  0  0  0  0
  5 11  1  0  0  0  0
  8 12  1  0  0  0  0
  8 31  1  0  0  0  0
  8 32  1  0  0  0  0
  9 12  1  0  0  0  0
  9 33  1  0  0  0  0
  9 34  1  0  0  0  0
 10 13  1  0  0  0  0
 10 35  1  0  0  0  0
 11 14  2  0  0  0  0
 11 36  1  0  0  0  0
 12 15  1  0  0  0  0
 12 37  1  0  0  0  0
 13 16  2  0  0  0  0
 13 38  1  0  0  0  0
 14 16  1  0  0  0  0
 14 39  1  0  0  0  0
 15 17  1  0  0  0  0
 15 18  2  0  0  0  0
 16 19  1  0  0  0  0
 17 20  1  0  0  0  0
 17 40  1  0  0  0  0
 19 41  1  0  0  0  0
 19 42  1  0  0  0  0
 19 43  1  0  0  0  0
 20 21  1  0  0  0  0
 20 44  1  0  0  0  0
 20 45  1  0  0  0  0
 21 22  2  0  0  0  0
 21 23  1  0  0  0  0
 22 24  1  0  0  0  0
 22 46  1  0  0  0  0
 23 25  2  0  0  0  0
 23 47  1  0  0  0  0
 24 26  2  0  0  0  0
 24 48  1  0  0  0  0
 25 26  1  0  0  0  0
 26 49  1  0  0  0  0
M  END
>  <Mol_ID>
8137

>  <Formula>
C19H23N3O3S

>  <MolWeight>
373.46922

>  <Cat>
P2229

>  <Name>
WAY-312237

>  <Synonyms>
N/A

>  <Target>
others

>  <Form>
free base

>  <CAS>
551931-42-1

>  <URL>
N/A

$$$$
