WAY-657541
 OpenBabel08302521423D

 35 37  0  0  0  0  0  0  0  0999 V2000
    0.6435   -0.5101   -1.2437 N   0  0  0  0  0  0  0  0  0  0  0  0
    0.4335   -1.2511   -0.1886 C   0  0  0  0  0  0  0  0  0  0  0  0
    0.8962    0.7995   -0.8382 C   0  0  0  0  0  0  0  0  0  0  0  0
    0.1224   -2.5868   -0.1927 N   0  0  0  0  0  0  0  0  0  0  0  0
    0.4382   -0.4751    1.3233 S   0  0  0  0  0  0  0  0  0  0  0  0
    0.9069    0.9802    0.5346 C   0  0  0  0  0  0  0  0  0  0  0  0
    1.1912   -3.4512   -0.3782 C   0  0  0  0  0  0  0  0  0  0  0  0
    1.1219    1.8813   -1.7992 C   0  0  0  0  0  0  0  0  0  0  0  0
    1.5053    3.0886   -1.3071 N   0  0  0  0  0  0  0  0  0  0  0  0
    0.5824   -5.6332    0.6525 O   0  0  0  0  0  0  0  0  0  0  0  0
    0.3254   -6.9770    0.4817 C   0  0  0  0  0  0  0  0  0  0  0  0
    2.3761   -3.1258   -0.4100 O   0  0  0  0  0  0  0  0  0  0  0  0
    0.0640   -7.6327   -0.7321 C   0  0  0  0  0  0  0  0  0  0  0  0
    0.7547   -4.9046   -0.5562 C   0  0  0  0  0  0  0  0  0  0  0  0
    0.0260   -6.9644   -1.8992 F   0  0  0  0  0  0  0  0  0  0  0  0
    1.7245    4.0773   -2.2041 C   0  0  0  0  0  0  0  0  0  0  0  0
    0.9262    1.6558   -3.1605 C   0  0  0  0  0  0  0  0  0  0  0  0
    0.3238   -7.7449    1.6519 C   0  0  0  0  0  0  0  0  0  0  0  0
   -0.1858   -8.9963   -0.7838 C   0  0  0  0  0  0  0  0  0  0  0  0
    1.5699    3.9299   -3.5733 C   0  0  0  0  0  0  0  0  0  0  0  0
   -0.1812   -9.7509    0.3827 C   0  0  0  0  0  0  0  0  0  0  0  0
    0.0747   -9.1239    1.6029 C   0  0  0  0  0  0  0  0  0  0  0  0
    1.1567    2.6957   -4.0583 C   0  0  0  0  0  0  0  0  0  0  0  0
   -0.5042   -2.8932    0.5378 H   0  0  0  0  0  0  0  0  0  0  0  0
    1.1212    1.8801    1.0936 H   0  0  0  0  0  0  0  0  0  0  0  0
   -0.1946   -4.8815   -1.1038 H   0  0  0  0  0  0  0  0  0  0  0  0
    1.5308   -5.3697   -1.1757 H   0  0  0  0  0  0  0  0  0  0  0  0
    2.0421    5.0251   -1.7790 H   0  0  0  0  0  0  0  0  0  0  0  0
    0.6003    0.6846   -3.5200 H   0  0  0  0  0  0  0  0  0  0  0  0
    0.5226   -7.2778    2.6134 H   0  0  0  0  0  0  0  0  0  0  0  0
   -0.3773   -9.4672   -1.7470 H   0  0  0  0  0  0  0  0  0  0  0  0
    1.7679    4.7567   -4.2461 H   0  0  0  0  0  0  0  0  0  0  0  0
   -0.3672  -10.8200    0.3426 H   0  0  0  0  0  0  0  0  0  0  0  0
    0.0798   -9.7115    2.5181 H   0  0  0  0  0  0  0  0  0  0  0  0
    1.0178    2.5392   -5.1246 H   0  0  0  0  0  0  0  0  0  0  0  0
  2  1  2  0  0  0  0
  3  1  1  0  0  0  0
  4  2  1  0  0  0  0
  4 24  1  0  0  0  0
  5  2  1  0  0  0  0
  5  6  1  0  0  0  0
  6  3  2  0  0  0  0
  6 25  1  0  0  0  0
  7  4  1  0  0  0  0
  8  3  1  0  0  0  0
  9  8  2  0  0  0  0
 10 14  1  0  0  0  0
 11 10  1  0  0  0  0
 12  7  2  0  0  0  0
 13 11  2  0  0  0  0
 14  7  1  0  0  0  0
 14 26  1  0  0  0  0
 14 27  1  0  0  0  0
 15 13  1  0  0  0  0
 16  9  1  0  0  0  0
 16 28  1  0  0  0  0
 17  8  1  0  0  0  0
 17 29  1  0  0  0  0
 18 11  1  0  0  0  0
 18 30  1  0  0  0  0
 19 13  1  0  0  0  0
 19 31  1  0  0  0  0
 20 23  1  0  0  0  0
 20 16  2  0  0  0  0
 20 32  1  0  0  0  0
 21 22  1  0  0  0  0
 21 19  2  0  0  0  0
 21 33  1  0  0  0  0
 22 18  2  0  0  0  0
 22 34  1  0  0  0  0
 23 17  2  0  0  0  0
 23 35  1  0  0  0  0
M  END
>  <Mol_ID>
8546

>  <Formula>
C16H12FN3O2S

>  <MolWeight>
329.3487832

>  <Cat>
P3157

>  <Name>
WAY-657541

>  <Synonyms>
N/A

>  <Target>
Anti-infection

>  <Form>
free base

>  <CAS>
853339-68-1

>  <URL>
N/A

$$$$
