WAY-235254
 OpenBabel08302521403D

 46 49  0  0  0  0  0  0  0  0999 V2000
   -0.5779   -1.2743   -0.1474 N   0  0  0  0  0  0  0  0  0  0  0  0
   -1.4231   -0.2797   -0.5973 C   0  0  0  0  0  0  0  0  0  0  0  0
   -0.8266    1.0248   -0.0525 C   0  0  0  0  0  0  0  0  0  0  0  0
    0.5864    0.7065    0.1562 C   0  0  0  0  0  0  0  0  0  0  0  0
    0.6726   -0.6957    0.1516 C   0  0  0  0  0  0  0  0  0  0  0  0
   -0.8546   -2.6583   -0.3997 C   0  0  0  0  0  0  0  0  0  0  0  0
   -1.4261    2.1200    0.3043 N   0  0  0  0  0  0  0  0  0  0  0  0
   -1.2272   -3.3773    0.8306 N   0  0  0  0  0  0  0  0  0  0  0  0
   -2.3781   -0.3816   -1.3384 O   0  0  0  0  0  0  0  0  0  0  0  0
   -2.8323    2.2348    0.2198 C   0  0  0  0  0  0  0  0  0  0  0  0
   -3.9506   -4.4919    0.4906 O   0  0  0  0  0  0  0  0  0  0  0  0
    1.6900    1.5282    0.2770 C   0  0  0  0  0  0  0  0  0  0  0  0
   -5.6373    2.5383   -0.0628 C   0  0  0  0  0  0  0  0  0  0  0  0
    1.8919   -1.3172    0.2964 C   0  0  0  0  0  0  0  0  0  0  0  0
   -3.7201    1.2026    0.5519 C   0  0  0  0  0  0  0  0  0  0  0  0
   -3.3859    3.4598   -0.1558 C   0  0  0  0  0  0  0  0  0  0  0  0
   -5.0958    1.3248    0.3526 C   0  0  0  0  0  0  0  0  0  0  0  0
   -4.7742    3.6158   -0.2895 C   0  0  0  0  0  0  0  0  0  0  0  0
   -1.5031   -4.8044    0.5188 C   0  0  0  0  0  0  0  0  0  0  0  0
   -2.4405   -2.8559    1.5087 C   0  0  0  0  0  0  0  0  0  0  0  0
   -2.8395   -5.0546   -0.2143 C   0  0  0  0  0  0  0  0  0  0  0  0
   -3.7552   -3.0958    0.7458 C   0  0  0  0  0  0  0  0  0  0  0  0
   -7.1151    2.6490   -0.2784 C   0  0  0  0  0  0  0  0  0  0  0  0
    2.9396    0.9000    0.3578 C   0  0  0  0  0  0  0  0  0  0  0  0
    3.0371   -0.5090    0.3762 C   0  0  0  0  0  0  0  0  0  0  0  0
   -1.6392   -2.7314   -1.1585 H   0  0  0  0  0  0  0  0  0  0  0  0
    0.0382   -3.1117   -0.8363 H   0  0  0  0  0  0  0  0  0  0  0  0
    1.5989    2.6097    0.2554 H   0  0  0  0  0  0  0  0  0  0  0  0
    1.9972   -2.3992    0.2965 H   0  0  0  0  0  0  0  0  0  0  0  0
   -3.3542    0.2545    0.9264 H   0  0  0  0  0  0  0  0  0  0  0  0
   -2.7304    4.3063   -0.3426 H   0  0  0  0  0  0  0  0  0  0  0  0
   -5.7344    0.4601    0.5172 H   0  0  0  0  0  0  0  0  0  0  0  0
   -5.1712    4.5853   -0.5826 H   0  0  0  0  0  0  0  0  0  0  0  0
   -1.5312   -5.3490    1.4718 H   0  0  0  0  0  0  0  0  0  0  0  0
   -0.6755   -5.2376   -0.0536 H   0  0  0  0  0  0  0  0  0  0  0  0
   -2.5201   -3.3824    2.4719 H   0  0  0  0  0  0  0  0  0  0  0  0
   -2.3323   -1.7990    1.7677 H   0  0  0  0  0  0  0  0  0  0  0  0
   -2.8253   -4.6612   -1.2368 H   0  0  0  0  0  0  0  0  0  0  0  0
   -3.0174   -6.1327   -0.2853 H   0  0  0  0  0  0  0  0  0  0  0  0
   -4.6000   -2.7593    1.3567 H   0  0  0  0  0  0  0  0  0  0  0  0
   -3.7933   -2.5400   -0.1967 H   0  0  0  0  0  0  0  0  0  0  0  0
   -7.4094    2.0781   -1.1665 H   0  0  0  0  0  0  0  0  0  0  0  0
   -7.6556    2.2573    0.5899 H   0  0  0  0  0  0  0  0  0  0  0  0
   -7.4234    3.6887   -0.4206 H   0  0  0  0  0  0  0  0  0  0  0  0
    3.8458    1.5019    0.3794 H   0  0  0  0  0  0  0  0  0  0  0  0
    4.0245   -0.9687    0.4135 H   0  0  0  0  0  0  0  0  0  0  0  0
  2  1  1  0  0  0  0
  3  2  1  0  0  0  0
  3  4  1  0  0  0  0
  4  5  2  0  0  0  0
  5  1  1  0  0  0  0
  6  1  1  0  0  0  0
  6 26  1  0  0  0  0
  6 27  1  0  0  0  0
  7  3  2  0  0  0  0
  8  6  1  0  0  0  0
  9  2  2  0  0  0  0
 10  7  1  0  0  0  0
 11 22  1  0  0  0  0
 11 21  1  0  0  0  0
 12  4  1  0  0  0  0
 12 24  2  0  0  0  0
 12 28  1  0  0  0  0
 13 18  2  0  0  0  0
 14  5  1  0  0  0  0
 14 29  1  0  0  0  0
 15 10  1  0  0  0  0
 15 30  1  0  0  0  0
 16 10  2  0  0  0  0
 16 31  1  0  0  0  0
 17 15  2  0  0  0  0
 17 13  1  0  0  0  0
 17 32  1  0  0  0  0
 18 16  1  0  0  0  0
 18 33  1  0  0  0  0
 19  8  1  0  0  0  0
 19 34  1  0  0  0  0
 19 35  1  0  0  0  0
 20  8  1  0  0  0  0
 20 36  1  0  0  0  0
 20 37  1  0  0  0  0
 21 19  1  0  0  0  0
 21 38  1  0  0  0  0
 21 39  1  0  0  0  0
 22 20  1  0  0  0  0
 22 40  1  0  0  0  0
 22 41  1  0  0  0  0
 23 13  1  0  0  0  0
 23 42  1  0  0  0  0
 23 43  1  0  0  0  0
 23 44  1  0  0  0  0
 24 25  1  0  0  0  0
 24 45  1  0  0  0  0
 25 14  2  0  0  0  0
 25 46  1  0  0  0  0
M  END
>  <Mol_ID>
8270

>  <Formula>
C20H21N3O2

>  <MolWeight>
335.39964

>  <Cat>
P2069

>  <Name>
WAY-235254

>  <Synonyms>
N/A

>  <Target>
Anti-infection

>  <Form>
free base

>  <CAS>
59631-96-8

>  <URL>
N/A

$$$$
