WAY-325431
 OpenBabel08302521433D

 43 45  0  0  0  0  0  0  0  0999 V2000
   -0.1171    1.1707    0.0310 C   0  0  0  0  0  0  0  0  0  0  0  0
   -0.6791    2.5088    0.1386 C   0  0  0  0  0  0  0  0  0  0  0  0
   -0.9658    0.0916    0.0567 O   0  0  0  0  0  0  0  0  0  0  0  0
    0.0752    3.4949   -0.4877 N   0  0  0  0  0  0  0  0  0  0  0  0
    1.1865    0.7108   -0.0583 C   0  0  0  0  0  0  0  0  0  0  0  0
   -0.2058   -1.0431    0.0102 C   0  0  0  0  0  0  0  0  0  0  0  0
   -0.2163    4.8746   -0.4059 C   0  0  0  0  0  0  0  0  0  0  0  0
    1.1298   -0.7060   -0.0451 C   0  0  0  0  0  0  0  0  0  0  0  0
   -1.7503    2.7431    0.6949 O   0  0  0  0  0  0  0  0  0  0  0  0
   -0.1189    5.6555   -1.5618 C   0  0  0  0  0  0  0  0  0  0  0  0
   -1.6660   -4.0627    1.4282 C   0  0  0  0  0  0  0  0  0  0  0  0
   -1.9916   -6.0050    2.8642 C   0  0  0  0  0  0  0  0  0  0  0  0
   -3.0368   -5.9297    0.6671 C   0  0  0  0  0  0  0  0  0  0  0  0
   -1.0654   -2.8323    1.3078 O   0  0  0  0  0  0  0  0  0  0  0  0
   -1.4515   -4.7283    2.6405 C   0  0  0  0  0  0  0  0  0  0  0  0
   -2.4721   -4.6664    0.4562 C   0  0  0  0  0  0  0  0  0  0  0  0
   -2.7810   -6.5976    1.8743 C   0  0  0  0  0  0  0  0  0  0  0  0
   -0.9350   -2.3423   -0.0309 C   0  0  0  0  0  0  0  0  0  0  0  0
    0.1651    5.0675   -2.7338 F   0  0  0  0  0  0  0  0  0  0  0  0
   -0.5330    5.4973    0.8052 C   0  0  0  0  0  0  0  0  0  0  0  0
   -0.3538    7.0290   -1.5315 C   0  0  0  0  0  0  0  0  0  0  0  0
   -3.8939   -6.5723   -0.3833 C   0  0  0  0  0  0  0  0  0  0  0  0
   -1.7315   -6.7490    4.1388 C   0  0  0  0  0  0  0  0  0  0  0  0
   -0.7212    6.8845    0.8499 C   0  0  0  0  0  0  0  0  0  0  0  0
   -0.6417    7.6496   -0.3123 C   0  0  0  0  0  0  0  0  0  0  0  0
    0.5932    3.1978   -1.3064 H   0  0  0  0  0  0  0  0  0  0  0  0
    2.0768    1.3250   -0.0763 H   0  0  0  0  0  0  0  0  0  0  0  0
    1.9584   -1.4004   -0.0749 H   0  0  0  0  0  0  0  0  0  0  0  0
   -0.8403   -4.2511    3.4026 H   0  0  0  0  0  0  0  0  0  0  0  0
   -2.6930   -4.1636   -0.4801 H   0  0  0  0  0  0  0  0  0  0  0  0
   -3.2069   -7.5857    2.0424 H   0  0  0  0  0  0  0  0  0  0  0  0
   -1.9169   -2.1775   -0.4877 H   0  0  0  0  0  0  0  0  0  0  0  0
   -0.3601   -3.0596   -0.6305 H   0  0  0  0  0  0  0  0  0  0  0  0
   -0.5876    4.9243    1.7296 H   0  0  0  0  0  0  0  0  0  0  0  0
   -0.3126    7.6009   -2.4511 H   0  0  0  0  0  0  0  0  0  0  0  0
   -3.4305   -7.5016   -0.7288 H   0  0  0  0  0  0  0  0  0  0  0  0
   -4.8864   -6.7881    0.0211 H   0  0  0  0  0  0  0  0  0  0  0  0
   -4.0185   -5.9161   -1.2496 H   0  0  0  0  0  0  0  0  0  0  0  0
   -2.6739   -7.0065    4.6331 H   0  0  0  0  0  0  0  0  0  0  0  0
   -1.1757   -7.6697    3.9308 H   0  0  0  0  0  0  0  0  0  0  0  0
   -1.1374   -6.1536    4.8443 H   0  0  0  0  0  0  0  0  0  0  0  0
   -0.9238    7.3725    1.8030 H   0  0  0  0  0  0  0  0  0  0  0  0
   -0.8025    8.7233   -0.2776 H   0  0  0  0  0  0  0  0  0  0  0  0
  2  1  1  0  0  0  0
  3  1  1  0  0  0  0
  4  2  1  0  0  0  0
  4 26  1  0  0  0  0
  5  1  2  0  0  0  0
  5 27  1  0  0  0  0
  6  3  1  0  0  0  0
  6  8  2  0  0  0  0
  7  4  1  0  0  0  0
  8  5  1  0  0  0  0
  8 28  1  0  0  0  0
  9  2  2  0  0  0  0
 10  7  2  0  0  0  0
 11 14  1  0  0  0  0
 12 15  2  0  0  0  0
 12 17  1  0  0  0  0
 13 16  1  0  0  0  0
 14 18  1  0  0  0  0
 15 11  1  0  0  0  0
 15 29  1  0  0  0  0
 16 11  2  0  0  0  0
 16 30  1  0  0  0  0
 17 13  2  0  0  0  0
 17 31  1  0  0  0  0
 18  6  1  0  0  0  0
 18 32  1  0  0  0  0
 18 33  1  0  0  0  0
 19 10  1  0  0  0  0
 20  7  1  0  0  0  0
 20 34  1  0  0  0  0
 21 10  1  0  0  0  0
 21 25  2  0  0  0  0
 21 35  1  0  0  0  0
 22 13  1  0  0  0  0
 22 36  1  0  0  0  0
 22 37  1  0  0  0  0
 22 38  1  0  0  0  0
 23 12  1  0  0  0  0
 23 39  1  0  0  0  0
 23 40  1  0  0  0  0
 23 41  1  0  0  0  0
 24 20  2  0  0  0  0
 24 42  1  0  0  0  0
 25 24  1  0  0  0  0
 25 43  1  0  0  0  0
M  END
>  <Mol_ID>
8692

>  <Formula>
C20H18FNO3

>  <MolWeight>
339.3602232

>  <Cat>
P2391

>  <Name>
WAY-325431

>  <Synonyms>
N/A

>  <Target>
Others

>  <Form>
free base

>  <CAS>
445239-19-0

>  <URL>
N/A

$$$$
