WAY-657003
 OpenBabel08302521423D

 56 60  0  0  0  0  0  0  0  0999 V2000
   -0.4287    5.3920    2.7001 C   0  0  0  0  0  0  0  0  0  0  0  0
    0.4553    3.3290    1.6528 C   0  0  0  0  0  0  0  0  0  0  0  0
    0.4738    4.7953    1.8148 C   0  0  0  0  0  0  0  0  0  0  0  0
   -1.1662    4.5958    3.6075 O   0  0  0  0  0  0  0  0  0  0  0  0
   -1.0759    3.2164    3.5980 C   0  0  0  0  0  0  0  0  0  0  0  0
   -0.2668    2.6123    2.5286 C   0  0  0  0  0  0  0  0  0  0  0  0
   -0.6803    6.7788    2.7121 C   0  0  0  0  0  0  0  0  0  0  0  0
    0.6427    3.2228   -0.8350 N   0  0  0  0  0  0  0  0  0  0  0  0
    1.1128    2.6704    0.4476 C   0  0  0  0  0  0  0  0  0  0  0  0
   -0.3703    1.1902   -2.8728 N   0  0  0  0  0  0  0  0  0  0  0  0
    0.2736    1.4621   -7.6483 C   0  0  0  0  0  0  0  0  0  0  0  0
    1.2734    5.6402    1.0445 C   0  0  0  0  0  0  0  0  0  0  0  0
    0.0086    0.1412   -7.9125 C   0  0  0  0  0  0  0  0  0  0  0  0
    0.7554    2.1237   -8.7351 O   0  0  0  0  0  0  0  0  0  0  0  0
    0.2851   -0.1950   -9.2022 O   0  0  0  0  0  0  0  0  0  0  0  0
   -0.0110    7.5793    1.7697 C   0  0  0  0  0  0  0  0  0  0  0  0
    0.7844    1.0594   -9.7100 C   0  0  0  0  0  0  0  0  0  0  0  0
    0.0278    2.0210   -6.4091 C   0  0  0  0  0  0  0  0  0  0  0  0
   -1.6837    2.5113    4.3956 O   0  0  0  0  0  0  0  0  0  0  0  0
   -0.5088    1.2061   -5.3974 C   0  0  0  0  0  0  0  0  0  0  0  0
    1.0266    7.0144    1.0130 C   0  0  0  0  0  0  0  0  0  0  0  0
   -0.9279    1.8292   -4.0766 C   0  0  0  0  0  0  0  0  0  0  0  0
   -0.4968   -0.6997   -6.9449 C   0  0  0  0  0  0  0  0  0  0  0  0
   -0.7848    2.9953   -1.1085 C   0  0  0  0  0  0  0  0  0  0  0  0
    1.4470    2.8072   -1.9959 C   0  0  0  0  0  0  0  0  0  0  0  0
    1.0677    1.4612   -2.6691 C   0  0  0  0  0  0  0  0  0  0  0  0
   -1.1211    1.5937   -1.6646 C   0  0  0  0  0  0  0  0  0  0  0  0
   -0.7545   -0.1564   -5.6771 C   0  0  0  0  0  0  0  0  0  0  0  0
   -1.6863    7.3392    3.6808 C   0  0  0  0  0  0  0  0  0  0  0  0
   -0.3827    9.0137    1.5147 C   0  0  0  0  0  0  0  0  0  0  0  0
   -0.3541    1.5346    2.4562 H   0  0  0  0  0  0  0  0  0  0  0  0
    2.1966    2.8260    0.5461 H   0  0  0  0  0  0  0  0  0  0  0  0
    0.9634    1.5857    0.4660 H   0  0  0  0  0  0  0  0  0  0  0  0
    2.0503    5.2434    0.3967 H   0  0  0  0  0  0  0  0  0  0  0  0
    1.8209    0.9170  -10.0385 H   0  0  0  0  0  0  0  0  0  0  0  0
    0.1829    1.3609  -10.5764 H   0  0  0  0  0  0  0  0  0  0  0  0
    0.2230    3.0765   -6.2475 H   0  0  0  0  0  0  0  0  0  0  0  0
    1.6148    7.6336    0.3380 H   0  0  0  0  0  0  0  0  0  0  0  0
   -2.0236    1.7240   -4.0650 H   0  0  0  0  0  0  0  0  0  0  0  0
   -0.7325    2.9090   -4.0814 H   0  0  0  0  0  0  0  0  0  0  0  0
   -0.7013   -1.7421   -7.1648 H   0  0  0  0  0  0  0  0  0  0  0  0
   -1.3985    3.1870   -0.2209 H   0  0  0  0  0  0  0  0  0  0  0  0
   -1.1043    3.7546   -1.8334 H   0  0  0  0  0  0  0  0  0  0  0  0
    1.3524    3.6011   -2.7490 H   0  0  0  0  0  0  0  0  0  0  0  0
    2.5134    2.7893   -1.7354 H   0  0  0  0  0  0  0  0  0  0  0  0
    1.4544    0.6527   -2.0366 H   0  0  0  0  0  0  0  0  0  0  0  0
    1.6141    1.3741   -3.6159 H   0  0  0  0  0  0  0  0  0  0  0  0
   -0.9274    0.8482   -0.8839 H   0  0  0  0  0  0  0  0  0  0  0  0
   -2.2008    1.5398   -1.8519 H   0  0  0  0  0  0  0  0  0  0  0  0
   -1.1741   -0.7964   -4.9021 H   0  0  0  0  0  0  0  0  0  0  0  0
   -2.6841    6.9477    3.4599 H   0  0  0  0  0  0  0  0  0  0  0  0
   -1.4101    7.0683    4.7059 H   0  0  0  0  0  0  0  0  0  0  0  0
   -1.7386    8.4310    3.6530 H   0  0  0  0  0  0  0  0  0  0  0  0
   -1.4723    9.1324    1.5121 H   0  0  0  0  0  0  0  0  0  0  0  0
    0.0623    9.6746    2.2614 H   0  0  0  0  0  0  0  0  0  0  0  0
   -0.0479    9.3282    0.5191 H   0  0  0  0  0  0  0  0  0  0  0  0
  2  3  1  0  0  0  0
  3  1  2  0  0  0  0
  4  1  1  0  0  0  0
  5  4  1  0  0  0  0
  6  5  1  0  0  0  0
  6  2  2  0  0  0  0
  6 31  1  0  0  0  0
  7  1  1  0  0  0  0
  8  9  1  0  0  0  0
  9  2  1  0  0  0  0
  9 32  1  0  0  0  0
  9 33  1  0  0  0  0
 10 26  1  0  0  0  0
 10 27  1  0  0  0  0
 11 18  2  0  0  0  0
 12  3  1  0  0  0  0
 12 21  2  0  0  0  0
 12 34  1  0  0  0  0
 13 23  2  0  0  0  0
 13 11  1  0  0  0  0
 14 11  1  0  0  0  0
 15 13  1  0  0  0  0
 16  7  2  0  0  0  0
 17 14  1  0  0  0  0
 17 15  1  0  0  0  0
 17 35  1  0  0  0  0
 17 36  1  0  0  0  0
 18 20  1  0  0  0  0
 18 37  1  0  0  0  0
 19  5  2  0  0  0  0
 20 22  1  0  0  0  0
 21 16  1  0  0  0  0
 21 38  1  0  0  0  0
 22 10  1  0  0  0  0
 22 39  1  0  0  0  0
 22 40  1  0  0  0  0
 23 28  1  0  0  0  0
 23 41  1  0  0  0  0
 24  8  1  0  0  0  0
 24 42  1  0  0  0  0
 24 43  1  0  0  0  0
 25  8  1  0  0  0  0
 25 44  1  0  0  0  0
 25 45  1  0  0  0  0
 26 25  1  0  0  0  0
 26 46  1  0  0  0  0
 26 47  1  0  0  0  0
 27 24  1  0  0  0  0
 27 48  1  0  0  0  0
 27 49  1  0  0  0  0
 28 20  2  0  0  0  0
 28 50  1  0  0  0  0
 29  7  1  0  0  0  0
 29 51  1  0  0  0  0
 29 52  1  0  0  0  0
 29 53  1  0  0  0  0
 30 16  1  0  0  0  0
 30 54  1  0  0  0  0
 30 55  1  0  0  0  0
 30 56  1  0  0  0  0
M  END
>  <Mol_ID>
8537

>  <Formula>
C24H26N2O4

>  <MolWeight>
406.47424

>  <Cat>
P3148

>  <Name>
WAY-657003

>  <Synonyms>
N/A

>  <Target>
others

>  <Form>
free base

>  <CAS>
852905-13-6

>  <URL>
N/A

$$$$
