WAY-331995
 OpenBabel08302521443D

 47 49  0  0  0  0  0  0  0  0999 V2000
    0.2731    0.5653    0.0248 N   0  0  0  0  0  0  0  0  0  0  0  0
   -0.0840   -0.6835   -0.1799 C   0  0  0  0  0  0  0  0  0  0  0  0
   -0.7431    1.3227   -0.5215 C   0  0  0  0  0  0  0  0  0  0  0  0
   -1.2868   -0.8163   -0.8147 O   0  0  0  0  0  0  0  0  0  0  0  0
   -1.6994    0.4702   -1.0475 C   0  0  0  0  0  0  0  0  0  0  0  0
    0.6651   -1.9025    0.0909 C   0  0  0  0  0  0  0  0  0  0  0  0
    1.9357    3.3899   -2.4653 C   0  0  0  0  0  0  0  0  0  0  0  0
    2.7339    4.0483   -3.3856 N   0  0  0  0  0  0  0  0  0  0  0  0
    2.0531   -1.8183    0.2914 C   0  0  0  0  0  0  0  0  0  0  0  0
    6.4330    2.0273   -4.6796 N   0  0  0  0  0  0  0  0  0  0  0  0
    2.3458    3.0782   -1.3511 O   0  0  0  0  0  0  0  0  0  0  0  0
   -0.8069    3.7540   -1.9480 S   0  0  0  0  0  0  0  0  0  0  0  0
    5.1203    3.9455   -3.9765 C   0  0  0  0  0  0  0  0  0  0  0  0
   -0.6551    2.8044   -0.4022 C   0  0  0  0  0  0  0  0  0  0  0  0
    4.0690    4.5133   -3.0612 C   0  0  0  0  0  0  0  0  0  0  0  0
    2.8276   -2.9670    0.4921 C   0  0  0  0  0  0  0  0  0  0  0  0
    0.5328    3.0518   -2.9627 C   0  0  0  0  0  0  0  0  0  0  0  0
   -2.9761    0.5925   -1.7734 C   0  0  0  0  0  0  0  0  0  0  0  0
    5.4808    2.6043   -3.9065 C   0  0  0  0  0  0  0  0  0  0  0  0
    0.0532   -3.1618    0.1247 C   0  0  0  0  0  0  0  0  0  0  0  0
    0.8159   -4.3121    0.3349 C   0  0  0  0  0  0  0  0  0  0  0  0
    7.0728    2.8266   -5.5565 C   0  0  0  0  0  0  0  0  0  0  0  0
    5.8147    4.7448   -4.8957 C   0  0  0  0  0  0  0  0  0  0  0  0
    2.1965   -4.2162    0.5091 C   0  0  0  0  0  0  0  0  0  0  0  0
    4.3171   -2.8720    0.6387 C   0  0  0  0  0  0  0  0  0  0  0  0
    6.8058    4.1829   -5.6955 C   0  0  0  0  0  0  0  0  0  0  0  0
    2.3464    4.3283   -4.2765 H   0  0  0  0  0  0  0  0  0  0  0  0
    2.5319   -0.8380    0.2684 H   0  0  0  0  0  0  0  0  0  0  0  0
   -1.4535    3.1439    0.2685 H   0  0  0  0  0  0  0  0  0  0  0  0
    0.2807    3.0863    0.0911 H   0  0  0  0  0  0  0  0  0  0  0  0
    4.0446    5.6050   -3.1514 H   0  0  0  0  0  0  0  0  0  0  0  0
    4.3288    4.2857   -2.0214 H   0  0  0  0  0  0  0  0  0  0  0  0
    0.4248    1.9697   -3.0632 H   0  0  0  0  0  0  0  0  0  0  0  0
    0.3936    3.4795   -3.9614 H   0  0  0  0  0  0  0  0  0  0  0  0
   -2.9439   -0.0168   -2.6845 H   0  0  0  0  0  0  0  0  0  0  0  0
   -3.8054    0.2253   -1.1600 H   0  0  0  0  0  0  0  0  0  0  0  0
   -3.1910    1.6220   -2.0665 H   0  0  0  0  0  0  0  0  0  0  0  0
    5.0082    1.9343   -3.1932 H   0  0  0  0  0  0  0  0  0  0  0  0
   -1.0211   -3.2558   -0.0166 H   0  0  0  0  0  0  0  0  0  0  0  0
    0.3349   -5.2867    0.3519 H   0  0  0  0  0  0  0  0  0  0  0  0
    7.8309    2.3394   -6.1633 H   0  0  0  0  0  0  0  0  0  0  0  0
    5.6072    5.8089   -4.9808 H   0  0  0  0  0  0  0  0  0  0  0  0
    2.7820   -5.1207    0.6518 H   0  0  0  0  0  0  0  0  0  0  0  0
    4.6472   -3.4147    1.5299 H   0  0  0  0  0  0  0  0  0  0  0  0
    4.8055   -3.2972   -0.2440 H   0  0  0  0  0  0  0  0  0  0  0  0
    4.6465   -1.8325    0.7413 H   0  0  0  0  0  0  0  0  0  0  0  0
    7.3610    4.7749   -6.4123 H   0  0  0  0  0  0  0  0  0  0  0  0
  2  1  2  0  0  0  0
  3  1  1  0  0  0  0
  4  2  1  0  0  0  0
  4  5  1  0  0  0  0
  5  3  2  0  0  0  0
  6  2  1  0  0  0  0
  7 17  1  0  0  0  0
  8  7  1  0  0  0  0
  8 27  1  0  0  0  0
  9  6  2  0  0  0  0
  9 28  1  0  0  0  0
 10 19  2  0  0  0  0
 11  7  2  0  0  0  0
 12 14  1  0  0  0  0
 13 15  1  0  0  0  0
 14  3  1  0  0  0  0
 14 29  1  0  0  0  0
 14 30  1  0  0  0  0
 15  8  1  0  0  0  0
 15 31  1  0  0  0  0
 15 32  1  0  0  0  0
 16  9  1  0  0  0  0
 17 12  1  0  0  0  0
 17 33  1  0  0  0  0
 17 34  1  0  0  0  0
 18  5  1  0  0  0  0
 18 35  1  0  0  0  0
 18 36  1  0  0  0  0
 18 37  1  0  0  0  0
 19 13  1  0  0  0  0
 19 38  1  0  0  0  0
 20  6  1  0  0  0  0
 20 39  1  0  0  0  0
 21 20  2  0  0  0  0
 21 40  1  0  0  0  0
 22 26  2  0  0  0  0
 22 10  1  0  0  0  0
 22 41  1  0  0  0  0
 23 13  2  0  0  0  0
 23 42  1  0  0  0  0
 24 21  1  0  0  0  0
 24 16  2  0  0  0  0
 24 43  1  0  0  0  0
 25 16  1  0  0  0  0
 25 44  1  0  0  0  0
 25 45  1  0  0  0  0
 25 46  1  0  0  0  0
 26 23  1  0  0  0  0
 26 47  1  0  0  0  0
M  END
>  <Mol_ID>
9258

>  <Formula>
C20H21N3O2S

>  <MolWeight>
367.46464

>  <Cat>
P2653

>  <Name>
WAY-331995

>  <Synonyms>
N/A

>  <Target>
beta-catenin

>  <Form>
free base

>  <CAS>
902586-09-8

>  <URL>
N/A

$$$$
