WAY-638575
 OpenBabel08302521433D

 31 33  0  0  0  0  0  0  0  0999 V2000
    1.8781    0.0558   -0.1017 N   0  0  0  0  0  0  0  0  0  0  0  0
    1.1127   -0.3291    0.9665 C   0  0  0  0  0  0  0  0  0  0  0  0
    1.1013    0.3621   -1.1871 C   0  0  0  0  0  0  0  0  0  0  0  0
    6.2580    2.9206   -0.4885 C   0  0  0  0  0  0  0  0  0  0  0  0
    7.5449    3.3565   -0.6153 N   0  0  0  0  0  0  0  0  0  0  0  0
    5.4638    3.9661   -0.4909 N   0  0  0  0  0  0  0  0  0  0  0  0
    6.2819    5.0634   -0.6228 N   0  0  0  0  0  0  0  0  0  0  0  0
    7.5571    4.7026   -0.6977 N   0  0  0  0  0  0  0  0  0  0  0  0
   -0.2909    0.2694   -0.7486 C   0  0  0  0  0  0  0  0  0  0  0  0
   -0.2841   -0.1339    0.5740 C   0  0  0  0  0  0  0  0  0  0  0  0
    1.4607   -0.7864    2.0383 O   0  0  0  0  0  0  0  0  0  0  0  0
    1.4479    0.6501   -2.3163 O   0  0  0  0  0  0  0  0  0  0  0  0
    5.7954    1.2606   -0.3405 S   0  0  0  0  0  0  0  0  0  0  0  0
    3.3352    0.0056   -0.1339 C   0  0  0  0  0  0  0  0  0  0  0  0
    8.7920    2.6441   -0.6703 C   0  0  0  0  0  0  0  0  0  0  0  0
    3.9725    1.3923   -0.3036 C   0  0  0  0  0  0  0  0  0  0  0  0
   -1.4667    0.5240   -1.4293 C   0  0  0  0  0  0  0  0  0  0  0  0
   -1.4526   -0.2848    1.2971 C   0  0  0  0  0  0  0  0  0  0  0  0
   -2.6558   -0.0114    0.6362 C   0  0  0  0  0  0  0  0  0  0  0  0
   -2.6629    0.3823   -0.7180 C   0  0  0  0  0  0  0  0  0  0  0  0
    3.6886   -0.4623    0.7923 H   0  0  0  0  0  0  0  0  0  0  0  0
    3.6156   -0.6420   -0.9732 H   0  0  0  0  0  0  0  0  0  0  0  0
    9.2752    2.8646   -1.6258 H   0  0  0  0  0  0  0  0  0  0  0  0
    9.4229    2.9859    0.1544 H   0  0  0  0  0  0  0  0  0  0  0  0
    8.6292    1.5689   -0.5833 H   0  0  0  0  0  0  0  0  0  0  0  0
    3.6340    1.8578   -1.2352 H   0  0  0  0  0  0  0  0  0  0  0  0
    3.6726    2.0422    0.5259 H   0  0  0  0  0  0  0  0  0  0  0  0
   -1.4590    0.8287   -2.4709 H   0  0  0  0  0  0  0  0  0  0  0  0
   -1.4354   -0.5918    2.3379 H   0  0  0  0  0  0  0  0  0  0  0  0
   -3.5996   -0.1009    1.1724 H   0  0  0  0  0  0  0  0  0  0  0  0
   -3.6126    0.5830   -1.2122 H   0  0  0  0  0  0  0  0  0  0  0  0
  2  1  1  0  0  0  0
  3  1  1  0  0  0  0
  4 13  1  0  0  0  0
  5  4  1  0  0  0  0
  6  4  2  0  0  0  0
  7  6  1  0  0  0  0
  7  8  2  0  0  0  0
  8  5  1  0  0  0  0
  9  3  1  0  0  0  0
  9 10  2  0  0  0  0
 10  2  1  0  0  0  0
 11  2  2  0  0  0  0
 12  3  2  0  0  0  0
 13 16  1  0  0  0  0
 14  1  1  0  0  0  0
 14 21  1  0  0  0  0
 14 22  1  0  0  0  0
 15  5  1  0  0  0  0
 15 23  1  0  0  0  0
 15 24  1  0  0  0  0
 15 25  1  0  0  0  0
 16 14  1  0  0  0  0
 16 26  1  0  0  0  0
 16 27  1  0  0  0  0
 17  9  1  0  0  0  0
 17 28  1  0  0  0  0
 18 10  1  0  0  0  0
 18 29  1  0  0  0  0
 19 18  2  0  0  0  0
 19 30  1  0  0  0  0
 20 17  2  0  0  0  0
 20 19  1  0  0  0  0
 20 31  1  0  0  0  0
M  END
>  <Mol_ID>
8781

>  <Formula>
C12H11N5O2S

>  <MolWeight>
289.31304

>  <Cat>
P3045

>  <Name>
WAY-638575

>  <Synonyms>
N/A

>  <Target>
Other

>  <Form>
free base

>  <CAS>
401936-27-4

>  <URL>
N/A

$$$$
