WAY-621552
 OpenBabel08302521443D

 23 24  0  0  0  0  0  0  0  0999 V2000
   -0.5590    1.1416    0.0362 N   0  0  0  0  0  0  0  0  0  0  0  0
   -1.2664   -0.0088    0.2630 C   0  0  0  0  0  0  0  0  0  0  0  0
   -0.4699   -1.0957    0.0684 N   0  0  0  0  0  0  0  0  0  0  0  0
    0.6826    0.8206   -0.4218 C   0  0  0  0  0  0  0  0  0  0  0  0
    0.7532   -0.7131   -0.3437 C   0  0  0  0  0  0  0  0  0  0  0  0
   -2.4416   -0.1041    0.5829 O   0  0  0  0  0  0  0  0  0  0  0  0
   -1.0341    2.5099    0.1360 C   0  0  0  0  0  0  0  0  0  0  0  0
    1.5724    1.5379   -0.8273 O   0  0  0  0  0  0  0  0  0  0  0  0
    1.7200   -1.4034   -0.5899 O   0  0  0  0  0  0  0  0  0  0  0  0
   -1.8597    2.8223    1.3838 C   0  0  0  0  0  0  0  0  0  0  0  0
   -1.9546    2.9580   -0.9947 C   0  0  0  0  0  0  0  0  0  0  0  0
   -2.5214    4.2747   -0.4688 C   0  0  0  0  0  0  0  0  0  0  0  0
   -2.5737    4.1305    1.0534 C   0  0  0  0  0  0  0  0  0  0  0  0
   -0.7615   -2.0474    0.2163 H   0  0  0  0  0  0  0  0  0  0  0  0
   -0.1519    3.1649    0.1348 H   0  0  0  0  0  0  0  0  0  0  0  0
   -2.6156    2.0570    1.5835 H   0  0  0  0  0  0  0  0  0  0  0  0
   -1.2365    2.9006    2.2796 H   0  0  0  0  0  0  0  0  0  0  0  0
   -1.4220    3.0933   -1.9413 H   0  0  0  0  0  0  0  0  0  0  0  0
   -2.7637    2.2378   -1.1644 H   0  0  0  0  0  0  0  0  0  0  0  0
   -3.5033    4.5008   -0.8956 H   0  0  0  0  0  0  0  0  0  0  0  0
   -1.8512    5.1027   -0.7311 H   0  0  0  0  0  0  0  0  0  0  0  0
   -3.6064    4.1099    1.4175 H   0  0  0  0  0  0  0  0  0  0  0  0
   -2.0733    4.9782    1.5344 H   0  0  0  0  0  0  0  0  0  0  0  0
  2  1  1  0  0  0  0
  3  2  1  0  0  0  0
  3  5  1  0  0  0  0
  3 14  1  0  0  0  0
  4  1  1  0  0  0  0
  5  4  1  0  0  0  0
  6  2  2  0  0  0  0
  7  1  1  0  0  0  0
  7 15  1  0  0  0  0
  8  4  2  0  0  0  0
  9  5  2  0  0  0  0
 10  7  1  0  0  0  0
 10 16  1  0  0  0  0
 10 17  1  0  0  0  0
 11  7  1  0  0  0  0
 11 18  1  0  0  0  0
 11 19  1  0  0  0  0
 12 11  1  0  0  0  0
 12 20  1  0  0  0  0
 12 21  1  0  0  0  0
 13 10  1  0  0  0  0
 13 12  1  0  0  0  0
 13 22  1  0  0  0  0
 13 23  1  0  0  0  0
M  END
>  <Mol_ID>
9050

>  <Formula>
C8H10N2O3

>  <MolWeight>
182.1766

>  <Cat>
P2971

>  <Name>
WAY-621552

>  <Synonyms>
N/A

>  <Target>
Others

>  <Form>
free base

>  <CAS>
40408-47-7

>  <URL>
N/A

$$$$
