WAY-326100
 OpenBabel08302521433D

 40 42  0  0  0  0  0  0  0  0999 V2000
    0.2710   -0.4915    0.0892 C   0  0  0  0  0  0  0  0  0  0  0  0
    0.4543    0.9077    0.0344 N   0  0  0  0  0  0  0  0  0  0  0  0
    1.5381   -1.0322    0.2406 C   0  0  0  0  0  0  0  0  0  0  0  0
   -0.6141    1.7652   -0.2050 C   0  0  0  0  0  0  0  0  0  0  0  0
    1.7450    1.2544    0.2408 N   0  0  0  0  0  0  0  0  0  0  0  0
   -0.9760   -1.0544   -0.0238 N   0  0  0  0  0  0  0  0  0  0  0  0
    2.0129   -2.4105    0.2820 C   0  0  0  0  0  0  0  0  0  0  0  0
   -1.8455    1.2532   -0.3596 C   0  0  0  0  0  0  0  0  0  0  0  0
    2.3861    0.0932    0.3291 C   0  0  0  0  0  0  0  0  0  0  0  0
   -1.9712   -0.2296   -0.2173 C   0  0  0  0  0  0  0  0  0  0  0  0
   -0.3210    3.2233   -0.2710 C   0  0  0  0  0  0  0  0  0  0  0  0
    1.0447   -3.3971    0.1989 N   0  0  0  0  0  0  0  0  0  0  0  0
    3.2180   -2.6144    0.3750 O   0  0  0  0  0  0  0  0  0  0  0  0
    1.2717   -4.7879    0.0227 C   0  0  0  0  0  0  0  0  0  0  0  0
    0.0945    3.5735   -1.5180 F   0  0  0  0  0  0  0  0  0  0  0  0
   -1.4563    3.9508   -0.0513 F   0  0  0  0  0  0  0  0  0  0  0  0
    1.5693   -7.5553   -0.5476 C   0  0  0  0  0  0  0  0  0  0  0  0
    2.5356   -5.3567   -0.1676 C   0  0  0  0  0  0  0  0  0  0  0  0
    0.1591   -5.6372   -0.0209 C   0  0  0  0  0  0  0  0  0  0  0  0
    2.6861   -6.7214   -0.4561 C   0  0  0  0  0  0  0  0  0  0  0  0
    0.3061   -7.0051   -0.3040 C   0  0  0  0  0  0  0  0  0  0  0  0
   -3.3717   -0.7827   -0.3190 C   0  0  0  0  0  0  0  0  0  0  0  0
    1.7210   -9.0021   -0.9514 C   0  0  0  0  0  0  0  0  0  0  0  0
    1.7352   -9.1659   -2.4655 C   0  0  0  0  0  0  0  0  0  0  0  0
   -2.7186    1.8564   -0.5768 H   0  0  0  0  0  0  0  0  0  0  0  0
    3.4632    0.0960    0.4529 H   0  0  0  0  0  0  0  0  0  0  0  0
    0.4204    3.5589    0.4594 H   0  0  0  0  0  0  0  0  0  0  0  0
    0.0801   -3.0774    0.2080 H   0  0  0  0  0  0  0  0  0  0  0  0
    3.4433   -4.7646   -0.1303 H   0  0  0  0  0  0  0  0  0  0  0  0
   -0.8410   -5.2482    0.1497 H   0  0  0  0  0  0  0  0  0  0  0  0
    3.6836   -7.1168   -0.6276 H   0  0  0  0  0  0  0  0  0  0  0  0
   -0.5798   -7.6358   -0.3479 H   0  0  0  0  0  0  0  0  0  0  0  0
   -3.5317   -1.1778   -1.3252 H   0  0  0  0  0  0  0  0  0  0  0  0
   -3.5098   -1.5808    0.4146 H   0  0  0  0  0  0  0  0  0  0  0  0
   -4.1147   -0.0025   -0.1224 H   0  0  0  0  0  0  0  0  0  0  0  0
    2.6456   -9.4139   -0.5280 H   0  0  0  0  0  0  0  0  0  0  0  0
    0.9015   -9.5947   -0.5269 H   0  0  0  0  0  0  0  0  0  0  0  0
    0.8435   -8.7255   -2.9255 H   0  0  0  0  0  0  0  0  0  0  0  0
    2.6133   -8.6836   -2.9094 H   0  0  0  0  0  0  0  0  0  0  0  0
    1.7649  -10.2271   -2.7343 H   0  0  0  0  0  0  0  0  0  0  0  0
  2  1  1  0  0  0  0
  3  1  2  0  0  0  0
  4  2  1  0  0  0  0
  5  2  1  0  0  0  0
  6  1  1  0  0  0  0
  7  3  1  0  0  0  0
  8 10  1  0  0  0  0
  8  4  2  0  0  0  0
  8 25  1  0  0  0  0
  9  3  1  0  0  0  0
  9  5  2  0  0  0  0
  9 26  1  0  0  0  0
 10  6  2  0  0  0  0
 11  4  1  0  0  0  0
 11 27  1  0  0  0  0
 12  7  1  0  0  0  0
 12 28  1  0  0  0  0
 13  7  2  0  0  0  0
 14 12  1  0  0  0  0
 15 11  1  0  0  0  0
 16 11  1  0  0  0  0
 17 21  2  0  0  0  0
 18 14  1  0  0  0  0
 18 29  1  0  0  0  0
 19 14  2  0  0  0  0
 19 30  1  0  0  0  0
 20 18  2  0  0  0  0
 20 17  1  0  0  0  0
 20 31  1  0  0  0  0
 21 19  1  0  0  0  0
 21 32  1  0  0  0  0
 22 10  1  0  0  0  0
 22 33  1  0  0  0  0
 22 34  1  0  0  0  0
 22 35  1  0  0  0  0
 23 17  1  0  0  0  0
 23 36  1  0  0  0  0
 23 37  1  0  0  0  0
 24 23  1  0  0  0  0
 24 38  1  0  0  0  0
 24 39  1  0  0  0  0
 24 40  1  0  0  0  0
M  END
>  <Mol_ID>
8888

>  <Formula>
C17H16F2N4O

>  <MolWeight>
330.3319464

>  <Cat>
P2446

>  <Name>
WAY-326100

>  <Synonyms>
N/A

>  <Target>
glucocerebrosidase

>  <Form>
free base

>  <CAS>
869714-20-5

>  <URL>
N/A

$$$$
