WAY-639117
 OpenBabel08302521433D

 36 39  0  0  0  0  0  0  0  0999 V2000
    0.0013   -0.7121    0.1065 N   0  0  0  0  0  0  0  0  0  0  0  0
    0.0355    0.6739    0.0593 C   0  0  0  0  0  0  0  0  0  0  0  0
    1.1894   -1.4241    0.1387 C   0  0  0  0  0  0  0  0  0  0  0  0
    1.1226    1.3851    0.0128 N   0  0  0  0  0  0  0  0  0  0  0  0
    4.1536    1.8356    1.2109 N   0  0  0  0  0  0  0  0  0  0  0  0
    2.4207   -0.6136    0.0760 C   0  0  0  0  0  0  0  0  0  0  0  0
    2.3231    0.7216    0.0111 C   0  0  0  0  0  0  0  0  0  0  0  0
    4.1332    2.2984    3.3773 N   0  0  0  0  0  0  0  0  0  0  0  0
    3.5702    2.5542    2.2184 C   0  0  0  0  0  0  0  0  0  0  0  0
   -1.2091   -1.4017    0.1026 C   0  0  0  0  0  0  0  0  0  0  0  0
   -1.2727    1.3783    0.0438 C   0  0  0  0  0  0  0  0  0  0  0  0
    5.2692    1.2158    1.7208 C   0  0  0  0  0  0  0  0  0  0  0  0
    3.5593    1.5996   -0.0942 C   0  0  0  0  0  0  0  0  0  0  0  0
    5.1600    1.4310    3.0930 C   0  0  0  0  0  0  0  0  0  0  0  0
   -2.3930   -0.7687    0.0547 C   0  0  0  0  0  0  0  0  0  0  0  0
   -2.4145    0.6767    0.0262 C   0  0  0  0  0  0  0  0  0  0  0  0
    1.2928   -2.6492    0.1896 O   0  0  0  0  0  0  0  0  0  0  0  0
    6.2988    0.4581    1.1507 C   0  0  0  0  0  0  0  0  0  0  0  0
   -3.6967   -1.5061    0.0164 C   0  0  0  0  0  0  0  0  0  0  0  0
    6.0412    0.7718    3.9614 C   0  0  0  0  0  0  0  0  0  0  0  0
    7.1883   -0.1649    2.0328 C   0  0  0  0  0  0  0  0  0  0  0  0
    7.0434   -0.0401    3.4159 C   0  0  0  0  0  0  0  0  0  0  0  0
    3.3587   -1.1496    0.0868 H   0  0  0  0  0  0  0  0  0  0  0  0
    2.7110    3.1939    2.0593 H   0  0  0  0  0  0  0  0  0  0  0  0
   -1.1490   -2.4862    0.1280 H   0  0  0  0  0  0  0  0  0  0  0  0
   -1.2553    2.4603    0.0301 H   0  0  0  0  0  0  0  0  0  0  0  0
    4.3082    1.1325   -0.7413 H   0  0  0  0  0  0  0  0  0  0  0  0
    3.3192    2.5749   -0.5304 H   0  0  0  0  0  0  0  0  0  0  0  0
   -3.3658    1.1913   -0.0007 H   0  0  0  0  0  0  0  0  0  0  0  0
    6.4107    0.3465    0.0779 H   0  0  0  0  0  0  0  0  0  0  0  0
   -3.6714   -2.2960   -0.7419 H   0  0  0  0  0  0  0  0  0  0  0  0
   -3.9096   -1.9590    0.9889 H   0  0  0  0  0  0  0  0  0  0  0  0
   -4.5337   -0.8452   -0.2365 H   0  0  0  0  0  0  0  0  0  0  0  0
    5.9289    0.8838    5.0337 H   0  0  0  0  0  0  0  0  0  0  0  0
    7.9979   -0.7725    1.6334 H   0  0  0  0  0  0  0  0  0  0  0  0
    7.7195   -0.5726    4.0802 H   0  0  0  0  0  0  0  0  0  0  0  0
  2  1  1  0  0  0  0
  3  1  1  0  0  0  0
  4  2  2  0  0  0  0
  5 13  1  0  0  0  0
  6  3  1  0  0  0  0
  6 23  1  0  0  0  0
  7  6  2  0  0  0  0
  7  4  1  0  0  0  0
  8  9  2  0  0  0  0
  9  5  1  0  0  0  0
  9 24  1  0  0  0  0
 10  1  1  0  0  0  0
 10 25  1  0  0  0  0
 11  2  1  0  0  0  0
 11 16  2  0  0  0  0
 11 26  1  0  0  0  0
 12  5  1  0  0  0  0
 13  7  1  0  0  0  0
 13 27  1  0  0  0  0
 13 28  1  0  0  0  0
 14 12  2  0  0  0  0
 14  8  1  0  0  0  0
 15 10  2  0  0  0  0
 16 15  1  0  0  0  0
 16 29  1  0  0  0  0
 17  3  2  0  0  0  0
 18 12  1  0  0  0  0
 18 30  1  0  0  0  0
 19 15  1  0  0  0  0
 19 31  1  0  0  0  0
 19 32  1  0  0  0  0
 19 33  1  0  0  0  0
 20 14  1  0  0  0  0
 20 34  1  0  0  0  0
 21 18  2  0  0  0  0
 21 35  1  0  0  0  0
 22 21  1  0  0  0  0
 22 20  2  0  0  0  0
 22 36  1  0  0  0  0
M  END
>  <Mol_ID>
8805

>  <Formula>
C17H14N4O

>  <MolWeight>
290.31926

>  <Cat>
P3069

>  <Name>
WAY-639117

>  <Synonyms>
N/A

>  <Target>
PKM2

>  <Form>
free base

>  <CAS>
785809-41-8

>  <URL>
N/A

$$$$
