WAY-608046
 OpenBabel08302521443D

 32 35  0  0  0  0  0  0  0  0999 V2000
    1.3579    0.4889   -0.3360 S   0  0  0  0  0  0  0  0  0  0  0  0
    1.2871   -1.1756   -0.1310 N   0  0  0  0  0  0  0  0  0  0  0  0
    0.0008   -1.6442    0.2309 C   0  0  0  0  0  0  0  0  0  0  0  0
   -0.9555   -0.5158    0.1971 C   0  0  0  0  0  0  0  0  0  0  0  0
   -0.3485    0.6996   -0.0780 C   0  0  0  0  0  0  0  0  0  0  0  0
    3.4259   -1.7900   -1.2065 C   0  0  0  0  0  0  0  0  0  0  0  0
    2.5351   -1.9402   -0.0039 C   0  0  0  0  0  0  0  0  0  0  0  0
    3.0949   -2.1304   -2.4362 N   0  0  0  0  0  0  0  0  0  0  0  0
    5.0226   -1.1755   -1.0246 S   0  0  0  0  0  0  0  0  0  0  0  0
    2.0581    1.0681    0.7931 O   0  0  0  0  0  0  0  0  0  0  0  0
    1.6225    0.8363   -1.7035 O   0  0  0  0  0  0  0  0  0  0  0  0
    4.0866   -1.7313   -3.3202 C   0  0  0  0  0  0  0  0  0  0  0  0
    5.1761   -1.0826   -2.7371 C   0  0  0  0  0  0  0  0  0  0  0  0
   -0.2773   -2.7798    0.5476 O   0  0  0  0  0  0  0  0  0  0  0  0
   -2.3295   -0.5841    0.3633 C   0  0  0  0  0  0  0  0  0  0  0  0
   -1.0531    1.8801   -0.2307 C   0  0  0  0  0  0  0  0  0  0  0  0
    4.0757   -1.9039   -4.7187 C   0  0  0  0  0  0  0  0  0  0  0  0
    6.1943   -0.4949   -3.5060 C   0  0  0  0  0  0  0  0  0  0  0  0
   -3.0701    0.5974    0.2224 C   0  0  0  0  0  0  0  0  0  0  0  0
   -2.4370    1.8189   -0.0760 C   0  0  0  0  0  0  0  0  0  0  0  0
    5.1104   -1.3648   -5.4926 C   0  0  0  0  0  0  0  0  0  0  0  0
    6.1385   -0.6420   -4.8942 C   0  0  0  0  0  0  0  0  0  0  0  0
    3.0508   -1.6523    0.9206 H   0  0  0  0  0  0  0  0  0  0  0  0
    2.2981   -3.0047    0.1018 H   0  0  0  0  0  0  0  0  0  0  0  0
   -2.8216   -1.5296    0.5730 H   0  0  0  0  0  0  0  0  0  0  0  0
   -0.5501    2.8084   -0.4839 H   0  0  0  0  0  0  0  0  0  0  0  0
    3.2584   -2.4446   -5.1845 H   0  0  0  0  0  0  0  0  0  0  0  0
    6.9999    0.0589   -3.0342 H   0  0  0  0  0  0  0  0  0  0  0  0
   -4.1535    0.5715    0.3294 H   0  0  0  0  0  0  0  0  0  0  0  0
   -3.0339    2.7204   -0.2013 H   0  0  0  0  0  0  0  0  0  0  0  0
    5.1007   -1.5006   -6.5713 H   0  0  0  0  0  0  0  0  0  0  0  0
    6.9168   -0.1968   -5.5101 H   0  0  0  0  0  0  0  0  0  0  0  0
  2  1  1  0  0  0  0
  3  2  1  0  0  0  0
  4  5  2  0  0  0  0
  4  3  1  0  0  0  0
  5  1  1  0  0  0  0
  6  7  1  0  0  0  0
  7  2  1  0  0  0  0
  7 23  1  0  0  0  0
  7 24  1  0  0  0  0
  8  6  2  0  0  0  0
  9  6  1  0  0  0  0
 10  1  2  0  0  0  0
 11  1  2  0  0  0  0
 12  8  1  0  0  0  0
 13  9  1  0  0  0  0
 13 12  2  0  0  0  0
 14  3  2  0  0  0  0
 15  4  1  0  0  0  0
 15 25  1  0  0  0  0
 16  5  1  0  0  0  0
 16 26  1  0  0  0  0
 17 12  1  0  0  0  0
 17 27  1  0  0  0  0
 18 13  1  0  0  0  0
 18 28  1  0  0  0  0
 19 20  1  0  0  0  0
 19 15  2  0  0  0  0
 19 29  1  0  0  0  0
 20 16  2  0  0  0  0
 20 30  1  0  0  0  0
 21 17  2  0  0  0  0
 21 31  1  0  0  0  0
 22 18  2  0  0  0  0
 22 21  1  0  0  0  0
 22 32  1  0  0  0  0
M  END
>  <Mol_ID>
9025

>  <Formula>
C15H10N2O3S2

>  <MolWeight>
330.3815

>  <Cat>
P2905

>  <Name>
WAY-608046

>  <Synonyms>
N/A

>  <Target>
Others

>  <Form>
free base

>  <CAS>
452278-67-0

>  <URL>
N/A

$$$$
