WAY-643198
 OpenBabel08302521453D

 35 38  0  0  0  0  0  0  0  0999 V2000
   -2.5560   -0.0914    0.7032 C   0  0  0  0  0  0  0  0  0  0  0  0
   -2.2012   -1.1862    1.4417 O   0  0  0  0  0  0  0  0  0  0  0  0
   -1.5934    0.8932    0.8413 C   0  0  0  0  0  0  0  0  0  0  0  0
   -6.5258   -3.0644    1.0117 C   0  0  0  0  0  0  0  0  0  0  0  0
   -7.5055   -3.5828    1.8817 C   0  0  0  0  0  0  0  0  0  0  0  0
   -3.7884   -0.1119   -0.0599 C   0  0  0  0  0  0  0  0  0  0  0  0
   -6.1044   -3.7122   -0.0934 N   0  0  0  0  0  0  0  0  0  0  0  0
   -1.0294   -0.8916    2.0670 C   0  0  0  0  0  0  0  0  0  0  0  0
   -0.6079    0.3873    1.7283 C   0  0  0  0  0  0  0  0  0  0  0  0
   -5.7481   -1.4688    1.3151 S   0  0  0  0  0  0  0  0  0  0  0  0
   -7.6020   -5.4909    0.4160 N   0  0  0  0  0  0  0  0  0  0  0  0
   -6.6716   -4.8955   -0.3349 C   0  0  0  0  0  0  0  0  0  0  0  0
   -4.5760   -1.4085   -0.0794 C   0  0  0  0  0  0  0  0  0  0  0  0
   -8.0084   -4.8380    1.5090 C   0  0  0  0  0  0  0  0  0  0  0  0
   -4.1866    0.8727   -0.6875 O   0  0  0  0  0  0  0  0  0  0  0  0
   -8.0060   -2.9636    3.0602 C   0  0  0  0  0  0  0  0  0  0  0  0
   -0.3422   -1.7411    2.9292 C   0  0  0  0  0  0  0  0  0  0  0  0
    0.5902    0.8682    2.2860 C   0  0  0  0  0  0  0  0  0  0  0  0
   -8.9744   -5.4387    2.3076 C   0  0  0  0  0  0  0  0  0  0  0  0
   -8.9765   -3.5871    3.8440 C   0  0  0  0  0  0  0  0  0  0  0  0
    0.8431   -1.2432    3.4797 C   0  0  0  0  0  0  0  0  0  0  0  0
    1.3026    0.0388    3.1653 C   0  0  0  0  0  0  0  0  0  0  0  0
   -9.4607   -4.8312    3.4668 C   0  0  0  0  0  0  0  0  0  0  0  0
   -1.6134    1.8621    0.3607 H   0  0  0  0  0  0  0  0  0  0  0  0
   -6.3478   -5.4245   -1.2248 H   0  0  0  0  0  0  0  0  0  0  0  0
   -5.1265   -1.4446   -1.0259 H   0  0  0  0  0  0  0  0  0  0  0  0
   -3.8925   -2.2630   -0.0568 H   0  0  0  0  0  0  0  0  0  0  0  0
   -7.6410   -1.9884    3.3728 H   0  0  0  0  0  0  0  0  0  0  0  0
   -0.7144   -2.7311    3.1622 H   0  0  0  0  0  0  0  0  0  0  0  0
    0.9572    1.8628    2.0502 H   0  0  0  0  0  0  0  0  0  0  0  0
   -9.3624   -6.4138    2.0183 H   0  0  0  0  0  0  0  0  0  0  0  0
   -9.3499   -3.1021    4.7424 H   0  0  0  0  0  0  0  0  0  0  0  0
    1.4143   -1.8653    4.1658 H   0  0  0  0  0  0  0  0  0  0  0  0
    2.2266    0.4014    3.6115 H   0  0  0  0  0  0  0  0  0  0  0  0
  -10.2154   -5.3326    4.0676 H   0  0  0  0  0  0  0  0  0  0  0  0
  2  1  1  0  0  0  0
  3  1  2  0  0  0  0
  3 24  1  0  0  0  0
  4 10  1  0  0  0  0
  5  4  1  0  0  0  0
  6  1  1  0  0  0  0
  7  4  2  0  0  0  0
  8  2  1  0  0  0  0
  8  9  2  0  0  0  0
  9  3  1  0  0  0  0
 10 13  1  0  0  0  0
 11 12  2  0  0  0  0
 11 14  1  0  0  0  0
 12  7  1  0  0  0  0
 12 25  1  0  0  0  0
 13  6  1  0  0  0  0
 13 26  1  0  0  0  0
 13 27  1  0  0  0  0
 14  5  2  0  0  0  0
 15  6  2  0  0  0  0
 16  5  1  0  0  0  0
 16 28  1  0  0  0  0
 17  8  1  0  0  0  0
 17 29  1  0  0  0  0
 18  9  1  0  0  0  0
 18 30  1  0  0  0  0
 19 14  1  0  0  0  0
 19 31  1  0  0  0  0
 20 16  2  0  0  0  0
 20 32  1  0  0  0  0
 21 17  2  0  0  0  0
 21 22  1  0  0  0  0
 21 33  1  0  0  0  0
 22 18  2  0  0  0  0
 22 34  1  0  0  0  0
 23 20  1  0  0  0  0
 23 19  2  0  0  0  0
 23 35  1  0  0  0  0
M  END
>  <Mol_ID>
9342

>  <Formula>
C18H12N2O2S

>  <MolWeight>
320.36508

>  <Cat>
P3127

>  <Name>
WAY-643198

>  <Synonyms>
N/A

>  <Target>
others

>  <Form>
free base

>  <CAS>
749220-49-3

>  <URL>
N/A

$$$$
