WAY-636782
 OpenBabel08302521423D

 45 48  0  0  0  0  0  0  0  0999 V2000
    0.8839   -2.1916    0.5611 C   0  0  0  0  0  0  0  0  0  0  0  0
    2.2931   -2.0191   -0.0261 C   0  0  0  0  0  0  0  0  0  0  0  0
    4.8833   -1.5648   -0.9916 N   0  0  0  0  0  0  0  0  0  0  0  0
    0.1024   -1.0366    0.6592 N   0  0  0  0  0  0  0  0  0  0  0  0
    3.2188   -3.1103   -0.1317 C   0  0  0  0  0  0  0  0  0  0  0  0
    4.5156   -2.7875   -0.6042 C   0  0  0  0  0  0  0  0  0  0  0  0
    3.9820   -0.5881   -0.9285 C   0  0  0  0  0  0  0  0  0  0  0  0
   -1.2982   -1.1117    0.8428 C   0  0  0  0  0  0  0  0  0  0  0  0
    2.7016   -0.7462   -0.4476 C   0  0  0  0  0  0  0  0  0  0  0  0
   -1.8947   -1.0440    2.1139 C   0  0  0  0  0  0  0  0  0  0  0  0
    0.4696   -3.2902    0.9087 O   0  0  0  0  0  0  0  0  0  0  0  0
   -1.0979   -0.9721    3.3993 C   0  0  0  0  0  0  0  0  0  0  0  0
    4.4237    0.6173   -1.3863 O   0  0  0  0  0  0  0  0  0  0  0  0
   -0.6988    0.4169    3.8742 C   0  0  0  0  0  0  0  0  0  0  0  0
    2.9838   -4.4815    0.1758 C   0  0  0  0  0  0  0  0  0  0  0  0
    5.4947   -3.7663   -0.6958 C   0  0  0  0  0  0  0  0  0  0  0  0
   -2.0892   -1.0293   -0.3120 C   0  0  0  0  0  0  0  0  0  0  0  0
   -3.2963   -0.9153    2.1892 C   0  0  0  0  0  0  0  0  0  0  0  0
   -1.0308    1.5976    3.1914 C   0  0  0  0  0  0  0  0  0  0  0  0
    0.0780    0.5238    5.0403 C   0  0  0  0  0  0  0  0  0  0  0  0
    3.9801   -5.4595    0.0554 C   0  0  0  0  0  0  0  0  0  0  0  0
    5.2454   -5.0952   -0.3673 C   0  0  0  0  0  0  0  0  0  0  0  0
   -4.0765   -0.8400    1.0340 C   0  0  0  0  0  0  0  0  0  0  0  0
   -3.4730   -0.9023   -0.2167 C   0  0  0  0  0  0  0  0  0  0  0  0
    0.5716    1.7603    5.4636 C   0  0  0  0  0  0  0  0  0  0  0  0
   -0.5329    2.8335    3.6122 C   0  0  0  0  0  0  0  0  0  0  0  0
    0.2857    2.9118    4.7352 C   0  0  0  0  0  0  0  0  0  0  0  0
    0.3315   -0.3211   -0.0105 H   0  0  0  0  0  0  0  0  0  0  0  0
    2.0738    0.1286   -0.4154 H   0  0  0  0  0  0  0  0  0  0  0  0
   -1.6776   -1.4576    4.1964 H   0  0  0  0  0  0  0  0  0  0  0  0
   -0.1861   -1.5719    3.2885 H   0  0  0  0  0  0  0  0  0  0  0  0
    3.6882    1.2454   -1.3958 H   0  0  0  0  0  0  0  0  0  0  0  0
    2.0062   -4.8231    0.5090 H   0  0  0  0  0  0  0  0  0  0  0  0
    6.4921   -3.4843   -1.0349 H   0  0  0  0  0  0  0  0  0  0  0  0
   -1.6300   -1.0691   -1.2960 H   0  0  0  0  0  0  0  0  0  0  0  0
   -3.7838   -0.8301    3.1589 H   0  0  0  0  0  0  0  0  0  0  0  0
   -1.6698    1.5765    2.3124 H   0  0  0  0  0  0  0  0  0  0  0  0
    0.3202   -0.3661    5.6184 H   0  0  0  0  0  0  0  0  0  0  0  0
    3.7566   -6.4946    0.2962 H   0  0  0  0  0  0  0  0  0  0  0  0
    6.0359   -5.8377   -0.4499 H   0  0  0  0  0  0  0  0  0  0  0  0
   -5.1537   -0.7162    1.1131 H   0  0  0  0  0  0  0  0  0  0  0  0
   -4.0761   -0.8391   -1.1184 H   0  0  0  0  0  0  0  0  0  0  0  0
    1.1920    1.8212    6.3540 H   0  0  0  0  0  0  0  0  0  0  0  0
   -0.7774    3.7333    3.0539 H   0  0  0  0  0  0  0  0  0  0  0  0
    0.6971    3.8689    5.0439 H   0  0  0  0  0  0  0  0  0  0  0  0
  2  1  1  0  0  0  0
  3  7  2  0  0  0  0
  3  6  1  0  0  0  0
  4  1  1  0  0  0  0
  4 28  1  0  0  0  0
  5  2  1  0  0  0  0
  6  5  2  0  0  0  0
  7  9  1  0  0  0  0
  8  4  1  0  0  0  0
  9  2  2  0  0  0  0
  9 29  1  0  0  0  0
 10  8  1  0  0  0  0
 11  1  2  0  0  0  0
 12 10  1  0  0  0  0
 12 30  1  0  0  0  0
 12 31  1  0  0  0  0
 13  7  1  0  0  0  0
 13 32  1  0  0  0  0
 14 12  1  0  0  0  0
 15  5  1  0  0  0  0
 15 33  1  0  0  0  0
 16  6  1  0  0  0  0
 16 34  1  0  0  0  0
 17  8  2  0  0  0  0
 17 35  1  0  0  0  0
 18 10  2  0  0  0  0
 18 36  1  0  0  0  0
 19 14  2  0  0  0  0
 19 37  1  0  0  0  0
 20 14  1  0  0  0  0
 20 38  1  0  0  0  0
 21 15  2  0  0  0  0
 21 39  1  0  0  0  0
 22 21  1  0  0  0  0
 22 16  2  0  0  0  0
 22 40  1  0  0  0  0
 23 24  2  0  0  0  0
 23 18  1  0  0  0  0
 23 41  1  0  0  0  0
 24 17  1  0  0  0  0
 24 42  1  0  0  0  0
 25 20  2  0  0  0  0
 25 43  1  0  0  0  0
 26 19  1  0  0  0  0
 26 44  1  0  0  0  0
 27 25  1  0  0  0  0
 27 26  2  0  0  0  0
 27 45  1  0  0  0  0
M  END
>  <Mol_ID>
8474

>  <Formula>
C23H18N2O2

>  <MolWeight>
354.40122

>  <Cat>
P3000

>  <Name>
WAY-636782

>  <Synonyms>
N/A

>  <Target>
mPTP

>  <Form>
free base

>  <CAS>
792957-74-5

>  <URL>
N/A

$$$$
