WAY-325417
 OpenBabel08302521433D

 48 50  0  0  0  0  0  0  0  0999 V2000
   -2.3115   -1.5780   -3.2392 C   0  0  0  0  0  0  0  0  0  0  0  0
   -2.7165   -0.5730   -4.1988 C   0  0  0  0  0  0  0  0  0  0  0  0
   -1.7414   -1.2474   -2.0345 O   0  0  0  0  0  0  0  0  0  0  0  0
   -2.4112   -2.9531   -3.3446 C   0  0  0  0  0  0  0  0  0  0  0  0
   -2.0795    0.6541   -4.0955 N   0  0  0  0  0  0  0  0  0  0  0  0
   -1.5182   -2.4261   -1.3655 C   0  0  0  0  0  0  0  0  0  0  0  0
   -1.9031   -3.4959   -2.1489 C   0  0  0  0  0  0  0  0  0  0  0  0
    0.8409   -1.9516    6.2159 C   0  0  0  0  0  0  0  0  0  0  0  0
    0.1598   -2.1244    4.8437 C   0  0  0  0  0  0  0  0  0  0  0  0
   -3.5285   -0.8457   -5.0842 O   0  0  0  0  0  0  0  0  0  0  0  0
   -3.5405    2.9476   -6.6815 N   0  0  0  0  0  0  0  0  0  0  0  0
    0.8505   -2.6494    3.7450 C   0  0  0  0  0  0  0  0  0  0  0  0
   -1.1801   -1.7425    4.6245 C   0  0  0  0  0  0  0  0  0  0  0  0
   -1.6843   -2.3692    1.0373 O   0  0  0  0  0  0  0  0  0  0  0  0
   -0.7767   -2.3786   -0.0749 C   0  0  0  0  0  0  0  0  0  0  0  0
   -2.2856    1.7621   -4.9557 C   0  0  0  0  0  0  0  0  0  0  0  0
   -1.0508   -2.3362    2.2629 C   0  0  0  0  0  0  0  0  0  0  0  0
   -1.7773   -1.8574    3.3524 C   0  0  0  0  0  0  0  0  0  0  0  0
    0.2579   -2.7611    2.4840 C   0  0  0  0  0  0  0  0  0  0  0  0
   -3.3396    1.8796   -5.8633 C   0  0  0  0  0  0  0  0  0  0  0  0
    2.3166   -2.4248    6.2290 C   0  0  0  0  0  0  0  0  0  0  0  0
    0.8439   -0.4613    6.6181 C   0  0  0  0  0  0  0  0  0  0  0  0
    0.0992   -2.7628    7.2958 C   0  0  0  0  0  0  0  0  0  0  0  0
   -2.6459    3.9496   -6.6014 C   0  0  0  0  0  0  0  0  0  0  0  0
   -1.3813    2.8264   -4.9078 C   0  0  0  0  0  0  0  0  0  0  0  0
   -1.5574    3.9311   -5.7458 C   0  0  0  0  0  0  0  0  0  0  0  0
   -2.7869   -3.4828   -4.2108 H   0  0  0  0  0  0  0  0  0  0  0  0
   -1.3434    0.7175   -3.4023 H   0  0  0  0  0  0  0  0  0  0  0  0
   -1.7867   -4.5424   -1.9025 H   0  0  0  0  0  0  0  0  0  0  0  0
    1.8790   -2.9893    3.8276 H   0  0  0  0  0  0  0  0  0  0  0  0
   -1.7748   -1.3388    5.4407 H   0  0  0  0  0  0  0  0  0  0  0  0
   -0.1651   -3.2880   -0.0503 H   0  0  0  0  0  0  0  0  0  0  0  0
   -0.1349   -1.4911   -0.0442 H   0  0  0  0  0  0  0  0  0  0  0  0
   -2.8115   -1.5435    3.2192 H   0  0  0  0  0  0  0  0  0  0  0  0
    0.8708   -3.1918    1.7009 H   0  0  0  0  0  0  0  0  0  0  0  0
   -4.1051    1.1196   -5.9738 H   0  0  0  0  0  0  0  0  0  0  0  0
    2.9284   -1.8563    5.5179 H   0  0  0  0  0  0  0  0  0  0  0  0
    2.7709   -2.2957    7.2180 H   0  0  0  0  0  0  0  0  0  0  0  0
    2.3986   -3.4885    5.9748 H   0  0  0  0  0  0  0  0  0  0  0  0
   -0.1691   -0.0545    6.7057 H   0  0  0  0  0  0  0  0  0  0  0  0
    1.3347   -0.3173    7.5886 H   0  0  0  0  0  0  0  0  0  0  0  0
    1.3826    0.1469    5.8818 H   0  0  0  0  0  0  0  0  0  0  0  0
   -0.9386   -2.4368    7.4197 H   0  0  0  0  0  0  0  0  0  0  0  0
    0.0869   -3.8310    7.0499 H   0  0  0  0  0  0  0  0  0  0  0  0
    0.5898   -2.6543    8.2710 H   0  0  0  0  0  0  0  0  0  0  0  0
   -2.8339    4.7894   -7.2639 H   0  0  0  0  0  0  0  0  0  0  0  0
   -0.5231    2.8060   -4.2423 H   0  0  0  0  0  0  0  0  0  0  0  0
   -0.8626    4.7645   -5.7308 H   0  0  0  0  0  0  0  0  0  0  0  0
  2  1  1  0  0  0  0
  3  1  1  0  0  0  0
  4  1  2  0  0  0  0
  4 27  1  0  0  0  0
  5  2  1  0  0  0  0
  5 28  1  0  0  0  0
  6  3  1  0  0  0  0
  6  7  2  0  0  0  0
  7  4  1  0  0  0  0
  7 29  1  0  0  0  0
  8  9  1  0  0  0  0
  9 12  2  0  0  0  0
  9 13  1  0  0  0  0
 10  2  2  0  0  0  0
 11 20  2  0  0  0  0
 11 24  1  0  0  0  0
 12 19  1  0  0  0  0
 12 30  1  0  0  0  0
 13 18  2  0  0  0  0
 13 31  1  0  0  0  0
 14 15  1  0  0  0  0
 15  6  1  0  0  0  0
 15 32  1  0  0  0  0
 15 33  1  0  0  0  0
 16  5  1  0  0  0  0
 17 14  1  0  0  0  0
 18 17  1  0  0  0  0
 18 34  1  0  0  0  0
 19 17  2  0  0  0  0
 19 35  1  0  0  0  0
 20 16  1  0  0  0  0
 20 36  1  0  0  0  0
 21  8  1  0  0  0  0
 21 37  1  0  0  0  0
 21 38  1  0  0  0  0
 21 39  1  0  0  0  0
 22  8  1  0  0  0  0
 22 40  1  0  0  0  0
 22 41  1  0  0  0  0
 22 42  1  0  0  0  0
 23  8  1  0  0  0  0
 23 43  1  0  0  0  0
 23 44  1  0  0  0  0
 23 45  1  0  0  0  0
 24 26  2  0  0  0  0
 24 46  1  0  0  0  0
 25 16  2  0  0  0  0
 25 47  1  0  0  0  0
 26 25  1  0  0  0  0
 26 48  1  0  0  0  0
M  END
>  <Mol_ID>
8691

>  <Formula>
C21H22N2O3

>  <MolWeight>
350.41098

>  <Cat>
P2390

>  <Name>
WAY-325417

>  <Synonyms>
N/A

>  <Target>
Others

>  <Form>
free base

>  <CAS>
834913-12-1

>  <URL>
N/A

$$$$
