WAY-640169
 OpenBabel08302521443D

 40 43  0  0  0  0  0  0  0  0999 V2000
   -0.2366   -1.2822   -0.2272 C   0  0  0  0  0  0  0  0  0  0  0  0
    0.1575   -2.6832   -0.1052 C   0  0  0  0  0  0  0  0  0  0  0  0
   -0.0677    0.9784   -0.5207 N   0  0  0  0  0  0  0  0  0  0  0  0
    0.5597   -0.1899   -0.7340 C   0  0  0  0  0  0  0  0  0  0  0  0
   -0.8232   -9.0776    1.2796 N   0  0  0  0  0  0  0  0  0  0  0  0
   -1.9777   -9.7496    1.4911 N   0  0  0  0  0  0  0  0  0  0  0  0
   -1.6307  -10.9319    1.9841 N   0  0  0  0  0  0  0  0  0  0  0  0
   -0.2717  -11.0459    2.0752 N   0  0  0  0  0  0  0  0  0  0  0  0
   -1.2890    0.6779    0.0091 O   0  0  0  0  0  0  0  0  0  0  0  0
   -1.4199   -0.6661    0.1525 C   0  0  0  0  0  0  0  0  0  0  0  0
    0.2106   -9.9049    1.6391 C   0  0  0  0  0  0  0  0  0  0  0  0
   -0.8648   -3.6169   -0.1900 N   0  0  0  0  0  0  0  0  0  0  0  0
   -0.7931   -7.7390    0.8178 C   0  0  0  0  0  0  0  0  0  0  0  0
    1.3364   -2.9706    0.0710 O   0  0  0  0  0  0  0  0  0  0  0  0
    1.8205   -0.1885   -1.4891 C   0  0  0  0  0  0  0  0  0  0  0  0
   -0.7774   -5.0055    0.0766 C   0  0  0  0  0  0  0  0  0  0  0  0
    0.4159   -7.0402    0.7101 C   0  0  0  0  0  0  0  0  0  0  0  0
   -1.9847   -7.0855    0.4882 C   0  0  0  0  0  0  0  0  0  0  0  0
    0.4147   -5.6837    0.3478 C   0  0  0  0  0  0  0  0  0  0  0  0
   -1.9738   -5.7348    0.1141 C   0  0  0  0  0  0  0  0  0  0  0  0
   -2.7507   -1.0582    0.6543 C   0  0  0  0  0  0  0  0  0  0  0  0
    2.6557    0.9430   -1.4742 C   0  0  0  0  0  0  0  0  0  0  0  0
    2.1508   -1.2443   -2.3495 C   0  0  0  0  0  0  0  0  0  0  0  0
    3.2801   -1.1749   -3.1701 C   0  0  0  0  0  0  0  0  0  0  0  0
    3.7788    1.0172   -2.3039 C   0  0  0  0  0  0  0  0  0  0  0  0
    4.0886   -0.0417   -3.1532 C   0  0  0  0  0  0  0  0  0  0  0  0
    1.2554   -9.6448    1.5756 H   0  0  0  0  0  0  0  0  0  0  0  0
   -1.7855   -3.2717   -0.4171 H   0  0  0  0  0  0  0  0  0  0  0  0
    1.3767   -7.4990    0.9263 H   0  0  0  0  0  0  0  0  0  0  0  0
   -2.9411   -7.6076    0.5352 H   0  0  0  0  0  0  0  0  0  0  0  0
    1.3787   -5.1855    0.3003 H   0  0  0  0  0  0  0  0  0  0  0  0
   -2.9254   -5.2583   -0.1110 H   0  0  0  0  0  0  0  0  0  0  0  0
   -3.0155   -0.4749    1.5419 H   0  0  0  0  0  0  0  0  0  0  0  0
   -3.5023   -0.8486   -0.1168 H   0  0  0  0  0  0  0  0  0  0  0  0
   -2.8218   -2.1135    0.9173 H   0  0  0  0  0  0  0  0  0  0  0  0
    2.4201    1.7940   -0.8373 H   0  0  0  0  0  0  0  0  0  0  0  0
    1.5235   -2.1278   -2.4214 H   0  0  0  0  0  0  0  0  0  0  0  0
    3.5132   -2.0005   -3.8373 H   0  0  0  0  0  0  0  0  0  0  0  0
    4.3984    1.9105   -2.2993 H   0  0  0  0  0  0  0  0  0  0  0  0
    4.9526    0.0199   -3.8094 H   0  0  0  0  0  0  0  0  0  0  0  0
  2  1  1  0  0  0  0
  3  4  2  0  0  0  0
  3  9  1  0  0  0  0
  4  1  1  0  0  0  0
  5 13  1  0  0  0  0
  6  5  1  0  0  0  0
  7  6  2  0  0  0  0
  7  8  1  0  0  0  0
  8 11  2  0  0  0  0
  9 10  1  0  0  0  0
 10  1  2  0  0  0  0
 11  5  1  0  0  0  0
 11 27  1  0  0  0  0
 12  2  1  0  0  0  0
 12 28  1  0  0  0  0
 13 18  1  0  0  0  0
 13 17  2  0  0  0  0
 14  2  2  0  0  0  0
 15  4  1  0  0  0  0
 16 12  1  0  0  0  0
 17 19  1  0  0  0  0
 17 29  1  0  0  0  0
 18 20  2  0  0  0  0
 18 30  1  0  0  0  0
 19 16  2  0  0  0  0
 19 31  1  0  0  0  0
 20 16  1  0  0  0  0
 20 32  1  0  0  0  0
 21 10  1  0  0  0  0
 21 33  1  0  0  0  0
 21 34  1  0  0  0  0
 21 35  1  0  0  0  0
 22 15  2  0  0  0  0
 22 36  1  0  0  0  0
 23 15  1  0  0  0  0
 23 37  1  0  0  0  0
 24 23  2  0  0  0  0
 24 38  1  0  0  0  0
 25 22  1  0  0  0  0
 25 39  1  0  0  0  0
 26 24  1  0  0  0  0
 26 25  2  0  0  0  0
 26 40  1  0  0  0  0
M  END
>  <Mol_ID>
9093

>  <Formula>
C18H14N6O2

>  <MolWeight>
346.34276

>  <Cat>
P3100

>  <Name>
WAY-640169

>  <Synonyms>
N/A

>  <Target>
GATA4-NKX2-5

>  <Form>
free base

>  <CAS>
796123-56-3

>  <URL>
N/A

$$$$
