WAY-620537
 OpenBabel08302521433D

 49 51  0  0  0  0  0  0  0  0999 V2000
   -1.6766   -7.1341  -16.2297 N   0  3  0  0  0  0  0  0  0  0  0  0
   -1.4927   -4.1114  -12.2422 C   0  0  0  0  0  0  0  0  0  0  0  0
   -1.3399    0.7251   -7.8634 C   0  0  0  0  0  0  0  0  0  0  0  0
   -1.1750   -3.5796  -10.9600 N   0  0  0  0  0  0  0  0  0  0  0  0
   -0.7089   -0.4947   -8.6520 C   0  0  0  0  0  0  0  0  0  0  0  0
   -2.8640    0.6211   -8.0183 C   0  0  0  0  0  0  0  0  0  0  0  0
   -1.6212   -6.9905  -14.7645 C   0  0  0  0  0  0  0  0  0  0  0  0
   -1.4781   -5.5453  -12.7483 C   0  0  0  0  0  0  0  0  0  0  0  0
   -0.7896   -4.0199   -9.6901 C   0  0  0  0  0  0  0  0  0  0  0  0
   -1.5740   -5.7163  -14.1587 C   0  0  0  0  0  0  0  0  0  0  0  0
   -1.5479   -6.1094  -16.9097 O   0  5  0  0  0  0  0  0  0  0  0  0
   -1.8166   -8.2711  -16.6940 O   0  0  0  0  0  0  0  0  0  0  0  0
   -1.1143   -1.7278   -8.1958 O   0  0  0  0  0  0  0  0  0  0  0  0
   -1.8124   -3.2459  -13.0648 O   0  0  0  0  0  0  0  0  0  0  0  0
   -3.5213    1.1887   -9.1249 C   0  0  0  0  0  0  0  0  0  0  0  0
    0.0133   -0.3789   -9.6362 O   0  0  0  0  0  0  0  0  0  0  0  0
   -0.6698   -5.2106   -9.4086 O   0  0  0  0  0  0  0  0  0  0  0  0
   -0.3881   -2.8989   -8.6213 C   0  0  0  0  0  0  0  0  0  0  0  0
   -4.8176    0.7975   -9.4444 C   0  0  0  0  0  0  0  0  0  0  0  0
   -5.3900    1.2856  -10.5438 F   0  0  0  0  0  0  0  0  0  0  0  0
   -0.7790    2.0982   -8.3498 C   0  0  0  0  0  0  0  0  0  0  0  0
   -0.8691    0.8645   -6.3888 C   0  0  0  0  0  0  0  0  0  0  0  0
   -3.6048   -0.2170   -7.1666 C   0  0  0  0  0  0  0  0  0  0  0  0
   -1.6272   -8.1295  -13.9710 C   0  0  0  0  0  0  0  0  0  0  0  0
   -1.4465   -6.7110  -11.9821 C   0  0  0  0  0  0  0  0  0  0  0  0
   -1.5308   -7.9920  -12.5860 C   0  0  0  0  0  0  0  0  0  0  0  0
   -4.8986   -0.6098   -7.5046 C   0  0  0  0  0  0  0  0  0  0  0  0
   -5.4860   -0.1343   -8.6742 C   0  0  0  0  0  0  0  0  0  0  0  0
   -1.2088    3.1063   -7.2752 C   0  0  0  0  0  0  0  0  0  0  0  0
   -1.2718    2.2945   -5.9821 C   0  0  0  0  0  0  0  0  0  0  0  0
   -1.2481   -2.5687  -11.0240 H   0  0  0  0  0  0  0  0  0  0  0  0
   -1.6179   -4.8344  -14.8027 H   0  0  0  0  0  0  0  0  0  0  0  0
   -3.0366    1.8947   -9.7911 H   0  0  0  0  0  0  0  0  0  0  0  0
   -0.3338   -3.4835   -7.6900 H   0  0  0  0  0  0  0  0  0  0  0  0
    0.6552   -2.6319   -8.8287 H   0  0  0  0  0  0  0  0  0  0  0  0
    0.3192    2.0679   -8.3760 H   0  0  0  0  0  0  0  0  0  0  0  0
   -1.0885    2.4099   -9.3499 H   0  0  0  0  0  0  0  0  0  0  0  0
   -1.2624    0.1248   -5.6894 H   0  0  0  0  0  0  0  0  0  0  0  0
    0.2264    0.7861   -6.3339 H   0  0  0  0  0  0  0  0  0  0  0  0
   -3.1638   -0.6387   -6.2669 H   0  0  0  0  0  0  0  0  0  0  0  0
   -1.7021   -9.1348  -14.4094 H   0  0  0  0  0  0  0  0  0  0  0  0
   -1.3807   -6.6864  -10.9022 H   0  0  0  0  0  0  0  0  0  0  0  0
   -1.5239   -8.8872  -11.9670 H   0  0  0  0  0  0  0  0  0  0  0  0
   -5.4254   -1.3235   -6.8773 H   0  0  0  0  0  0  0  0  0  0  0  0
   -6.4568   -0.4942   -8.9930 H   0  0  0  0  0  0  0  0  0  0  0  0
   -0.5151    3.9510   -7.1979 H   0  0  0  0  0  0  0  0  0  0  0  0
   -2.1974    3.5248   -7.5029 H   0  0  0  0  0  0  0  0  0  0  0  0
   -0.6175    2.7086   -5.2073 H   0  0  0  0  0  0  0  0  0  0  0  0
   -2.2934    2.3129   -5.5821 H   0  0  0  0  0  0  0  0  0  0  0  0
  2  8  1  0  0  0  0
  3  5  1  0  0  0  0
  4  2  1  0  0  0  0
  4 31  1  0  0  0  0
  5 13  1  0  0  0  0
  6  3  1  0  0  0  0
  7  1  1  0  0  0  0
  8 10  1  0  0  0  0
  8 25  2  0  0  0  0
  9  4  1  0  0  0  0
 10  7  2  0  0  0  0
 10 32  1  0  0  0  0
 11  1  1  0  0  0  0
 12  1  2  0  0  0  0
 13 18  1  0  0  0  0
 14  2  2  0  0  0  0
 15  6  2  0  0  0  0
 15 33  1  0  0  0  0
 16  5  2  0  0  0  0
 17  9  2  0  0  0  0
 18  9  1  0  0  0  0
 18 34  1  0  0  0  0
 18 35  1  0  0  0  0
 19 15  1  0  0  0  0
 19 28  2  0  0  0  0
 20 19  1  0  0  0  0
 21  3  1  0  0  0  0
 21 36  1  0  0  0  0
 21 37  1  0  0  0  0
 22  3  1  0  0  0  0
 22 38  1  0  0  0  0
 22 39  1  0  0  0  0
 23  6  1  0  0  0  0
 23 40  1  0  0  0  0
 24  7  1  0  0  0  0
 24 41  1  0  0  0  0
 25 26  1  0  0  0  0
 25 42  1  0  0  0  0
 26 24  2  0  0  0  0
 26 43  1  0  0  0  0
 27 23  2  0  0  0  0
 27 44  1  0  0  0  0
 28 27  1  0  0  0  0
 28 45  1  0  0  0  0
 29 21  1  0  0  0  0
 29 30  1  0  0  0  0
 29 46  1  0  0  0  0
 29 47  1  0  0  0  0
 30 22  1  0  0  0  0
 30 48  1  0  0  0  0
 30 49  1  0  0  0  0
M  CHG  2   1   1  11  -1
M  END
>  <Mol_ID>
8779

>  <Formula>
C21H19FN2O6

>  <MolWeight>
414.3837632

>  <Cat>
P2950

>  <Name>
WAY-620537

>  <Synonyms>
N/A

>  <Target>
tubulin

>  <Form>
free base

>  <CAS>
733000-36-7

>  <URL>
N/A

$$$$
