WAY-323697
 OpenBabel08302521423D

 41 44  0  0  0  0  0  0  0  0999 V2000
    0.7618   -0.3306   -0.0077 C   0  0  0  0  0  0  0  0  0  0  0  0
    1.4703   -1.5168    0.0049 O   0  0  0  0  0  0  0  0  0  0  0  0
    2.8601   -1.4752    0.0178 C   0  0  0  0  0  0  0  0  0  0  0  0
    1.4125    0.9046   -0.0202 C   0  0  0  0  0  0  0  0  0  0  0  0
    3.5760   -0.3398   -0.0253 C   0  0  0  0  0  0  0  0  0  0  0  0
    2.8791    0.9478   -0.0371 C   0  0  0  0  0  0  0  0  0  0  0  0
   -0.6554   -0.3860   -0.0017 C   0  0  0  0  0  0  0  0  0  0  0  0
    3.5241   -2.7967    0.1060 C   0  0  0  0  0  0  0  0  0  0  0  0
    0.6913    2.0967   -0.0153 C   0  0  0  0  0  0  0  0  0  0  0  0
    2.9314   -3.9306   -0.4693 C   0  0  0  0  0  0  0  0  0  0  0  0
    3.4903   -5.2073   -0.3020 C   0  0  0  0  0  0  0  0  0  0  0  0
    3.5069    1.9986   -0.0464 O   0  0  0  0  0  0  0  0  0  0  0  0
    4.6852   -5.3579    0.4294 C   0  0  0  0  0  0  0  0  0  0  0  0
    4.7247   -2.9653    0.8120 C   0  0  0  0  0  0  0  0  0  0  0  0
   -1.3822    0.8348   -0.0032 C   0  0  0  0  0  0  0  0  0  0  0  0
   -0.6995    2.0592   -0.0069 C   0  0  0  0  0  0  0  0  0  0  0  0
    5.3072   -4.2271    0.9600 C   0  0  0  0  0  0  0  0  0  0  0  0
    2.9365   -6.3630   -0.7977 O   0  0  0  0  0  0  0  0  0  0  0  0
    5.1535   -6.6392    0.5824 O   0  0  0  0  0  0  0  0  0  0  0  0
   -1.3932   -1.5908    0.0060 C   0  0  0  0  0  0  0  0  0  0  0  0
   -2.7854    0.8190   -0.0008 C   0  0  0  0  0  0  0  0  0  0  0  0
    1.7131   -6.2522   -1.5110 C   0  0  0  0  0  0  0  0  0  0  0  0
    6.3257   -6.8225    1.3654 C   0  0  0  0  0  0  0  0  0  0  0  0
   -2.7904   -1.5883    0.0068 C   0  0  0  0  0  0  0  0  0  0  0  0
   -3.4867   -0.3845    0.0034 C   0  0  0  0  0  0  0  0  0  0  0  0
    4.6568   -0.2962   -0.0343 H   0  0  0  0  0  0  0  0  0  0  0  0
    1.2087    3.0540   -0.0170 H   0  0  0  0  0  0  0  0  0  0  0  0
    2.0198   -3.7975   -1.0432 H   0  0  0  0  0  0  0  0  0  0  0  0
    5.2211   -2.1205    1.2841 H   0  0  0  0  0  0  0  0  0  0  0  0
   -1.2476    2.9994   -0.0040 H   0  0  0  0  0  0  0  0  0  0  0  0
    6.2374   -4.2904    1.5147 H   0  0  0  0  0  0  0  0  0  0  0  0
   -0.8776   -2.5498    0.0119 H   0  0  0  0  0  0  0  0  0  0  0  0
   -3.3477    1.7513   -0.0022 H   0  0  0  0  0  0  0  0  0  0  0  0
    0.9368   -5.7693   -0.9079 H   0  0  0  0  0  0  0  0  0  0  0  0
    1.8644   -5.7245   -2.4583 H   0  0  0  0  0  0  0  0  0  0  0  0
    1.3652   -7.2636   -1.7412 H   0  0  0  0  0  0  0  0  0  0  0  0
    7.1991   -6.4032    0.8555 H   0  0  0  0  0  0  0  0  0  0  0  0
    6.2145   -6.4002    2.3702 H   0  0  0  0  0  0  0  0  0  0  0  0
    6.4887   -7.8983    1.4811 H   0  0  0  0  0  0  0  0  0  0  0  0
   -3.3398   -2.5281    0.0115 H   0  0  0  0  0  0  0  0  0  0  0  0
   -4.5739   -0.3781    0.0035 H   0  0  0  0  0  0  0  0  0  0  0  0
  2  1  1  0  0  0  0
  3  2  1  0  0  0  0
  4  1  2  0  0  0  0
  5  6  1  0  0  0  0
  5  3  2  0  0  0  0
  5 26  1  0  0  0  0
  6  4  1  0  0  0  0
  7  1  1  0  0  0  0
  8  3  1  0  0  0  0
  9  4  1  0  0  0  0
  9 27  1  0  0  0  0
 10  8  2  0  0  0  0
 10 28  1  0  0  0  0
 11 10  1  0  0  0  0
 11 13  2  0  0  0  0
 12  6  2  0  0  0  0
 13 17  1  0  0  0  0
 14  8  1  0  0  0  0
 14 29  1  0  0  0  0
 15  7  2  0  0  0  0
 16 15  1  0  0  0  0
 16  9  2  0  0  0  0
 16 30  1  0  0  0  0
 17 14  2  0  0  0  0
 17 31  1  0  0  0  0
 18 11  1  0  0  0  0
 19 13  1  0  0  0  0
 20  7  1  0  0  0  0
 20 32  1  0  0  0  0
 21 15  1  0  0  0  0
 21 33  1  0  0  0  0
 22 18  1  0  0  0  0
 22 34  1  0  0  0  0
 22 35  1  0  0  0  0
 22 36  1  0  0  0  0
 23 19  1  0  0  0  0
 23 37  1  0  0  0  0
 23 38  1  0  0  0  0
 23 39  1  0  0  0  0
 24 20  2  0  0  0  0
 24 40  1  0  0  0  0
 25 24  1  0  0  0  0
 25 21  2  0  0  0  0
 25 41  1  0  0  0  0
M  END
>  <Mol_ID>
8584

>  <Formula>
C21H16O4

>  <MolWeight>
332.34934

>  <Cat>
P2276

>  <Name>
WAY-323697

>  <Synonyms>
N/A

>  <Target>
cholesterol esterase ,BCRP/ABCG2

>  <Form>
free base

>  <CAS>
854132-69-7

>  <URL>
N/A

$$$$
