WAY-640810
 OpenBabel08302521443D

 46 50  0  0  0  0  0  0  0  0999 V2000
    6.1232   -2.0793    0.7994 C   0  0  0  0  0  0  0  0  0  0  0  0
    6.2794   -0.9769    0.1143 N   0  0  0  0  0  0  0  0  0  0  0  0
    5.0789   -2.9671    0.7550 N   0  0  0  0  0  0  0  0  0  0  0  0
    3.8810   -2.6133    0.1648 C   0  0  0  0  0  0  0  0  0  0  0  0
    2.8255   -3.6760    0.0554 C   0  0  0  0  0  0  0  0  0  0  0  0
    7.4146   -2.5199    1.8380 S   0  0  0  0  0  0  0  0  0  0  0  0
    0.7069   -5.4720    0.1276 N   0  0  0  0  0  0  0  0  0  0  0  0
    7.5328   -0.4728    0.3522 C   0  0  0  0  0  0  0  0  0  0  0  0
    8.2686   -1.1379    1.3129 C   0  0  0  0  0  0  0  0  0  0  0  0
    1.7161   -5.5795    1.0195 C   0  0  0  0  0  0  0  0  0  0  0  0
    2.7816   -4.6909    1.0173 C   0  0  0  0  0  0  0  0  0  0  0  0
    1.7874   -3.5771   -0.9147 C   0  0  0  0  0  0  0  0  0  0  0  0
    0.7230   -4.4904   -0.7880 C   0  0  0  0  0  0  0  0  0  0  0  0
    3.5955   -1.4754   -0.2029 O   0  0  0  0  0  0  0  0  0  0  0  0
    1.5900   -6.6820    1.9953 C   0  0  0  0  0  0  0  0  0  0  0  0
    1.3519   -8.8258    3.8263 N   0  0  0  0  0  0  0  0  0  0  0  0
    8.0542    0.6848   -0.4254 C   0  0  0  0  0  0  0  0  0  0  0  0
    9.6535   -0.7727    1.7342 C   0  0  0  0  0  0  0  0  0  0  0  0
    1.7259   -2.6351   -1.9794 C   0  0  0  0  0  0  0  0  0  0  0  0
   -0.3811   -4.3690   -1.6232 C   0  0  0  0  0  0  0  0  0  0  0  0
    0.8385   -8.8952    2.5816 C   0  0  0  0  0  0  0  0  0  0  0  0
    1.9684   -7.6750    4.1582 C   0  0  0  0  0  0  0  0  0  0  0  0
    0.9308   -7.8714    1.6518 C   0  0  0  0  0  0  0  0  0  0  0  0
    2.1084   -6.5976    3.2957 C   0  0  0  0  0  0  0  0  0  0  0  0
   10.0380    0.6064    1.1550 C   0  0  0  0  0  0  0  0  0  0  0  0
    9.5857    0.7619   -0.3078 C   0  0  0  0  0  0  0  0  0  0  0  0
    0.6086   -2.5308   -2.8066 C   0  0  0  0  0  0  0  0  0  0  0  0
   -0.4620   -3.3854   -2.6101 C   0  0  0  0  0  0  0  0  0  0  0  0
    5.2576   -3.8696    1.1574 H   0  0  0  0  0  0  0  0  0  0  0  0
    3.5412   -4.7767    1.7818 H   0  0  0  0  0  0  0  0  0  0  0  0
    7.6015    1.6091   -0.0503 H   0  0  0  0  0  0  0  0  0  0  0  0
    7.7732    0.5789   -1.4793 H   0  0  0  0  0  0  0  0  0  0  0  0
   10.3529   -1.5276    1.3556 H   0  0  0  0  0  0  0  0  0  0  0  0
    9.7452   -0.7490    2.8258 H   0  0  0  0  0  0  0  0  0  0  0  0
    2.5512   -1.9503   -2.1680 H   0  0  0  0  0  0  0  0  0  0  0  0
   -1.2200   -5.0483   -1.4866 H   0  0  0  0  0  0  0  0  0  0  0  0
    0.3338   -9.8260    2.3377 H   0  0  0  0  0  0  0  0  0  0  0  0
    2.3569   -7.6330    5.1717 H   0  0  0  0  0  0  0  0  0  0  0  0
    0.4921   -8.0022    0.6663 H   0  0  0  0  0  0  0  0  0  0  0  0
    2.5968   -5.7018    3.6624 H   0  0  0  0  0  0  0  0  0  0  0  0
   11.1217    0.7480    1.2308 H   0  0  0  0  0  0  0  0  0  0  0  0
    9.5696    1.3987    1.7541 H   0  0  0  0  0  0  0  0  0  0  0  0
    9.9385    1.7139   -0.7194 H   0  0  0  0  0  0  0  0  0  0  0  0
   10.0417   -0.0372   -0.9079 H   0  0  0  0  0  0  0  0  0  0  0  0
    0.5755   -1.7693   -3.5812 H   0  0  0  0  0  0  0  0  0  0  0  0
   -1.3564   -3.2942   -3.2208 H   0  0  0  0  0  0  0  0  0  0  0  0
  2  1  2  0  0  0  0
  3  1  1  0  0  0  0
  3 29  1  0  0  0  0
  4  3  1  0  0  0  0
  5  4  1  0  0  0  0
  6  1  1  0  0  0  0
  7 13  2  0  0  0  0
  7 10  1  0  0  0  0
  8  2  1  0  0  0  0
  9  6  1  0  0  0  0
  9  8  2  0  0  0  0
 10 11  2  0  0  0  0
 11  5  1  0  0  0  0
 11 30  1  0  0  0  0
 12  5  2  0  0  0  0
 13 12  1  0  0  0  0
 14  4  2  0  0  0  0
 15 10  1  0  0  0  0
 16 22  2  0  0  0  0
 16 21  1  0  0  0  0
 17  8  1  0  0  0  0
 17 31  1  0  0  0  0
 17 32  1  0  0  0  0
 18  9  1  0  0  0  0
 18 33  1  0  0  0  0
 18 34  1  0  0  0  0
 19 12  1  0  0  0  0
 19 35  1  0  0  0  0
 20 13  1  0  0  0  0
 20 36  1  0  0  0  0
 21 23  2  0  0  0  0
 21 37  1  0  0  0  0
 22 24  1  0  0  0  0
 22 38  1  0  0  0  0
 23 15  1  0  0  0  0
 23 39  1  0  0  0  0
 24 15  2  0  0  0  0
 24 40  1  0  0  0  0
 25 18  1  0  0  0  0
 25 26  1  0  0  0  0
 25 41  1  0  0  0  0
 25 42  1  0  0  0  0
 26 17  1  0  0  0  0
 26 43  1  0  0  0  0
 26 44  1  0  0  0  0
 27 19  2  0  0  0  0
 27 45  1  0  0  0  0
 28 27  1  0  0  0  0
 28 20  2  0  0  0  0
 28 46  1  0  0  0  0
M  END
>  <Mol_ID>
9105

>  <Formula>
C22H18N4OS

>  <MolWeight>
386.46952

>  <Cat>
P3113

>  <Name>
WAY-640810

>  <Synonyms>
N/A

>  <Target>
beta2 integrin

>  <Form>
free base

>  <CAS>
851206-31-0

>  <URL>
N/A

$$$$
