WAY-622082
 OpenBabel08302521443D

 24 25  0  0  0  0  0  0  0  0999 V2000
    0.9183   -0.1986    0.6321 N   0  0  0  0  0  0  0  0  0  0  0  0
    0.7067   -1.3120    0.0141 C   0  0  0  0  0  0  0  0  0  0  0  0
   -0.6281   -1.3091   -1.1292 S   0  0  0  0  0  0  0  0  0  0  0  0
    1.3991   -2.4820    0.2196 N   0  0  0  0  0  0  0  0  0  0  0  0
    0.0764    0.8161    0.2405 C   0  0  0  0  0  0  0  0  0  0  0  0
   -0.9346    0.4316   -0.8114 C   0  0  0  0  0  0  0  0  0  0  0  0
    0.1318    1.9552    0.6891 O   0  0  0  0  0  0  0  0  0  0  0  0
    2.2716   -2.6307    1.3893 C   0  0  0  0  0  0  0  0  0  0  0  0
    1.6742   -3.4518   -0.8433 C   0  0  0  0  0  0  0  0  0  0  0  0
    1.4628   -4.8635   -0.3116 C   0  0  0  0  0  0  0  0  0  0  0  0
    2.0620   -4.0235    1.9865 C   0  0  0  0  0  0  0  0  0  0  0  0
    2.2941   -5.1169    0.9446 C   0  0  0  0  0  0  0  0  0  0  0  0
   -0.7668    1.0106   -1.7227 H   0  0  0  0  0  0  0  0  0  0  0  0
   -1.9481    0.5830   -0.4322 H   0  0  0  0  0  0  0  0  0  0  0  0
    2.0496   -1.8861    2.1620 H   0  0  0  0  0  0  0  0  0  0  0  0
    3.3201   -2.4924    1.0950 H   0  0  0  0  0  0  0  0  0  0  0  0
    2.7080   -3.3250   -1.1883 H   0  0  0  0  0  0  0  0  0  0  0  0
    1.0415   -3.3142   -1.7246 H   0  0  0  0  0  0  0  0  0  0  0  0
    1.7254   -5.5951   -1.0843 H   0  0  0  0  0  0  0  0  0  0  0  0
    0.4001   -5.0089   -0.0763 H   0  0  0  0  0  0  0  0  0  0  0  0
    1.0347   -4.1028    2.3653 H   0  0  0  0  0  0  0  0  0  0  0  0
    2.7329   -4.1731    2.8391 H   0  0  0  0  0  0  0  0  0  0  0  0
    2.0394   -6.0953    1.3667 H   0  0  0  0  0  0  0  0  0  0  0  0
    3.3578   -5.1465    0.6782 H   0  0  0  0  0  0  0  0  0  0  0  0
  2  1  2  0  0  0  0
  3  2  1  0  0  0  0
  4  2  1  0  0  0  0
  5  1  1  0  0  0  0
  6  5  1  0  0  0  0
  6  3  1  0  0  0  0
  6 13  1  0  0  0  0
  6 14  1  0  0  0  0
  7  5  2  0  0  0  0
  8  4  1  0  0  0  0
  8 15  1  0  0  0  0
  8 16  1  0  0  0  0
  9  4  1  0  0  0  0
  9 17  1  0  0  0  0
  9 18  1  0  0  0  0
 10  9  1  0  0  0  0
 10 19  1  0  0  0  0
 10 20  1  0  0  0  0
 11  8  1  0  0  0  0
 11 12  1  0  0  0  0
 11 21  1  0  0  0  0
 11 22  1  0  0  0  0
 12 10  1  0  0  0  0
 12 23  1  0  0  0  0
 12 24  1  0  0  0  0
M  END
>  <Mol_ID>
9068

>  <Formula>
C8H12N2OS

>  <MolWeight>
184.25868

>  <Cat>
P2989

>  <Name>
WAY-622082

>  <Synonyms>
N/A

>  <Target>
IDO

>  <Form>
free base

>  <CAS>
31101-37-8

>  <URL>
N/A

$$$$
