WAY-329600
 OpenBabel08302521453D

 33 35  0  0  0  0  0  0  0  0999 V2000
    0.2025    0.0646   -0.2153 S   0  0  0  0  0  0  0  0  0  0  0  0
   -0.7940   -0.2974    1.1811 C   0  0  0  0  0  0  0  0  0  0  0  0
   -2.0690    0.2822    1.3751 C   0  0  0  0  0  0  0  0  0  0  0  0
   -2.6801    1.1983    0.6056 N   0  0  0  0  0  0  0  0  0  0  0  0
    0.4116    1.8083   -0.3024 C   0  0  0  0  0  0  0  0  0  0  0  0
   -4.1736    1.4754    1.2785 S   0  0  0  0  0  0  0  0  0  0  0  0
   -2.9055   -0.1198    2.5679 C   0  0  0  0  0  0  0  0  0  0  0  0
   -4.0946    0.4986    2.6163 N   0  0  0  0  0  0  0  0  0  0  0  0
    1.1154    2.4038    0.8710 C   0  0  0  0  0  0  0  0  0  0  0  0
   -0.3723   -1.2444    2.1386 C   0  0  0  0  0  0  0  0  0  0  0  0
   -0.5736   -0.3437   -1.3795 O   0  0  0  0  0  0  0  0  0  0  0  0
    1.5111   -0.5385   -0.0068 O   0  0  0  0  0  0  0  0  0  0  0  0
    1.6080    3.6887    0.7966 N   0  0  0  0  0  0  0  0  0  0  0  0
   -1.1573   -1.6077    3.2571 C   0  0  0  0  0  0  0  0  0  0  0  0
   -2.4300   -1.0657    3.5078 C   0  0  0  0  0  0  0  0  0  0  0  0
    1.5726    4.6737   -0.2134 C   0  0  0  0  0  0  0  0  0  0  0  0
    1.2790    1.7989    1.9325 O   0  0  0  0  0  0  0  0  0  0  0  0
    0.7352    4.6522   -1.3287 C   0  0  0  0  0  0  0  0  0  0  0  0
    0.8643    5.6150   -2.3276 C   0  0  0  0  0  0  0  0  0  0  0  0
    0.0764    5.5405   -3.4058 F   0  0  0  0  0  0  0  0  0  0  0  0
    2.5803    6.7222   -1.0837 C   0  0  0  0  0  0  0  0  0  0  0  0
    2.4613    5.7528   -0.0798 C   0  0  0  0  0  0  0  0  0  0  0  0
    1.7938    6.6365   -2.2265 C   0  0  0  0  0  0  0  0  0  0  0  0
    1.0024    1.9711   -1.2085 H   0  0  0  0  0  0  0  0  0  0  0  0
   -0.5766    2.2539   -0.4020 H   0  0  0  0  0  0  0  0  0  0  0  0
    0.6006   -1.7262    2.0171 H   0  0  0  0  0  0  0  0  0  0  0  0
    2.1594    3.9116    1.6183 H   0  0  0  0  0  0  0  0  0  0  0  0
   -0.7587   -2.3465    3.9524 H   0  0  0  0  0  0  0  0  0  0  0  0
   -3.0218   -1.3571    4.3671 H   0  0  0  0  0  0  0  0  0  0  0  0
   -0.0543    3.9311   -1.4788 H   0  0  0  0  0  0  0  0  0  0  0  0
    3.2976    7.5325   -0.9792 H   0  0  0  0  0  0  0  0  0  0  0  0
    3.1041    5.8396    0.7963 H   0  0  0  0  0  0  0  0  0  0  0  0
    1.8878    7.3599   -3.0321 H   0  0  0  0  0  0  0  0  0  0  0  0
  2  1  1  0  0  0  0
  3  2  1  0  0  0  0
  4  3  2  0  0  0  0
  5  1  1  0  0  0  0
  5 24  1  0  0  0  0
  5 25  1  0  0  0  0
  6  4  1  0  0  0  0
  6  8  1  0  0  0  0
  7  3  1  0  0  0  0
  7 15  1  0  0  0  0
  8  7  2  0  0  0  0
  9  5  1  0  0  0  0
 10  2  2  0  0  0  0
 10 26  1  0  0  0  0
 11  1  2  0  0  0  0
 12  1  2  0  0  0  0
 13  9  1  0  0  0  0
 13 27  1  0  0  0  0
 14 10  1  0  0  0  0
 14 28  1  0  0  0  0
 15 14  2  0  0  0  0
 15 29  1  0  0  0  0
 16 13  1  0  0  0  0
 17  9  2  0  0  0  0
 18 16  2  0  0  0  0
 18 30  1  0  0  0  0
 19 18  1  0  0  0  0
 20 19  1  0  0  0  0
 21 22  2  0  0  0  0
 21 31  1  0  0  0  0
 22 16  1  0  0  0  0
 22 32  1  0  0  0  0
 23 21  1  0  0  0  0
 23 19  2  0  0  0  0
 23 33  1  0  0  0  0
M  END
>  <Mol_ID>
9312

>  <Formula>
C14H10FN3O3S2

>  <MolWeight>
351.3759032

>  <Cat>
P2584

>  <Name>
WAY-329600

>  <Synonyms>
N/A

>  <Target>
others

>  <Form>
free base

>  <CAS>
956959-79-8

>  <URL>
N/A

$$$$
