WAY-325456
 OpenBabel08302521433D

 43 45  0  0  0  0  0  0  0  0999 V2000
   -0.2110    1.1541   -0.3493 C   0  0  0  0  0  0  0  0  0  0  0  0
   -0.7065    2.5358   -0.3469 C   0  0  0  0  0  0  0  0  0  0  0  0
   -1.0838    0.1118   -0.2454 O   0  0  0  0  0  0  0  0  0  0  0  0
    0.0378    3.4790   -1.1134 N   0  0  0  0  0  0  0  0  0  0  0  0
    1.0787    0.6652   -0.3742 C   0  0  0  0  0  0  0  0  0  0  0  0
   -0.3295   -1.0277   -0.1283 C   0  0  0  0  0  0  0  0  0  0  0  0
    1.0056   -0.7313   -0.2832 C   0  0  0  0  0  0  0  0  0  0  0  0
   -1.6829    2.8701    0.2741 O   0  0  0  0  0  0  0  0  0  0  0  0
   -2.3850   -2.2547   -0.2675 O   0  0  0  0  0  0  0  0  0  0  0  0
   -3.0950   -3.4063   -0.0215 C   0  0  0  0  0  0  0  0  0  0  0  0
   -4.4876   -3.3942    0.1579 C   0  0  0  0  0  0  0  0  0  0  0  0
   -1.0298   -2.2948    0.2206 C   0  0  0  0  0  0  0  0  0  0  0  0
   -5.6023   -1.9250   -0.2920 Br  0  0  0  0  0  0  0  0  0  0  0  0
    1.2210    3.1106   -1.8912 C   0  0  0  0  0  0  0  0  0  0  0  0
   -0.6367    4.7368   -1.3893 C   0  0  0  0  0  0  0  0  0  0  0  0
   -2.4639   -4.6499   -0.0759 C   0  0  0  0  0  0  0  0  0  0  0  0
   -5.1839   -4.5667    0.4694 C   0  0  0  0  0  0  0  0  0  0  0  0
   -1.5042    4.6716   -2.6498 C   0  0  0  0  0  0  0  0  0  0  0  0
    1.4886    3.8654   -3.1819 C   0  0  0  0  0  0  0  0  0  0  0  0
   -3.1845   -5.8324    0.0801 C   0  0  0  0  0  0  0  0  0  0  0  0
   -4.5346   -5.7918    0.4020 C   0  0  0  0  0  0  0  0  0  0  0  0
    0.3449    3.7849   -4.1880 C   0  0  0  0  0  0  0  0  0  0  0  0
   -0.7285    4.8412   -3.9522 C   0  0  0  0  0  0  0  0  0  0  0  0
    1.9642    1.2726   -0.4254 H   0  0  0  0  0  0  0  0  0  0  0  0
    1.8395   -1.4133   -0.2331 H   0  0  0  0  0  0  0  0  0  0  0  0
   -0.4639   -3.1105   -0.2474 H   0  0  0  0  0  0  0  0  0  0  0  0
   -1.0058   -2.4537    1.3073 H   0  0  0  0  0  0  0  0  0  0  0  0
    1.1245    2.0668   -2.1688 H   0  0  0  0  0  0  0  0  0  0  0  0
    2.0931    3.2067   -1.2304 H   0  0  0  0  0  0  0  0  0  0  0  0
    0.0933    5.5532   -1.4380 H   0  0  0  0  0  0  0  0  0  0  0  0
   -1.3001    4.9619   -0.5473 H   0  0  0  0  0  0  0  0  0  0  0  0
   -1.4175   -4.7277   -0.3313 H   0  0  0  0  0  0  0  0  0  0  0  0
   -6.2518   -4.5392    0.6688 H   0  0  0  0  0  0  0  0  0  0  0  0
   -2.2362    5.4858   -2.5976 H   0  0  0  0  0  0  0  0  0  0  0  0
   -2.0797    3.7364   -2.6930 H   0  0  0  0  0  0  0  0  0  0  0  0
    2.3766    3.4140   -3.6407 H   0  0  0  0  0  0  0  0  0  0  0  0
    1.7511    4.9037   -2.9677 H   0  0  0  0  0  0  0  0  0  0  0  0
   -2.6988   -6.7874   -0.0790 H   0  0  0  0  0  0  0  0  0  0  0  0
   -5.1059   -6.7059    0.5272 H   0  0  0  0  0  0  0  0  0  0  0  0
   -0.0995    2.7811   -4.2044 H   0  0  0  0  0  0  0  0  0  0  0  0
    0.7594    3.9564   -5.1886 H   0  0  0  0  0  0  0  0  0  0  0  0
   -1.4413    4.8093   -4.7867 H   0  0  0  0  0  0  0  0  0  0  0  0
   -0.2732    5.8393   -3.9783 H   0  0  0  0  0  0  0  0  0  0  0  0
  2  1  1  0  0  0  0
  3  1  1  0  0  0  0
  4  2  1  0  0  0  0
  5  1  2  0  0  0  0
  5 24  1  0  0  0  0
  6  3  1  0  0  0  0
  6  7  2  0  0  0  0
  7  5  1  0  0  0  0
  7 25  1  0  0  0  0
  8  2  2  0  0  0  0
  9 12  1  0  0  0  0
 10  9  1  0  0  0  0
 11 10  2  0  0  0  0
 12  6  1  0  0  0  0
 12 26  1  0  0  0  0
 12 27  1  0  0  0  0
 13 11  1  0  0  0  0
 14  4  1  0  0  0  0
 14 28  1  0  0  0  0
 14 29  1  0  0  0  0
 15  4  1  0  0  0  0
 15 30  1  0  0  0  0
 15 31  1  0  0  0  0
 16 10  1  0  0  0  0
 16 32  1  0  0  0  0
 17 11  1  0  0  0  0
 17 21  2  0  0  0  0
 17 33  1  0  0  0  0
 18 15  1  0  0  0  0
 18 34  1  0  0  0  0
 18 35  1  0  0  0  0
 19 14  1  0  0  0  0
 19 36  1  0  0  0  0
 19 37  1  0  0  0  0
 20 16  2  0  0  0  0
 20 38  1  0  0  0  0
 21 20  1  0  0  0  0
 21 39  1  0  0  0  0
 22 19  1  0  0  0  0
 22 23  1  0  0  0  0
 22 40  1  0  0  0  0
 22 41  1  0  0  0  0
 23 18  1  0  0  0  0
 23 42  1  0  0  0  0
 23 43  1  0  0  0  0
M  END
>  <Mol_ID>
8701

>  <Formula>
C18H20BrNO3

>  <MolWeight>
378.2603

>  <Cat>
P2400

>  <Name>
WAY-325456

>  <Synonyms>
N/A

>  <Target>
Others

>  <Form>
free base

>  <CAS>
438467-71-1

>  <URL>
N/A

$$$$
