WAY-616204
 OpenBabel08302521453D

 28 30  0  0  0  0  0  0  0  0999 V2000
   -6.7517   -2.8272   -0.2403 C   0  0  0  0  0  0  0  0  0  0  0  0
   -6.0172   -3.9831   -0.1751 O   0  0  0  0  0  0  0  0  0  0  0  0
   -8.0954   -3.1418   -0.3501 C   0  0  0  0  0  0  0  0  0  0  0  0
   -6.0996   -1.5315   -0.1933 C   0  0  0  0  0  0  0  0  0  0  0  0
   -6.8937   -5.0252   -0.2451 C   0  0  0  0  0  0  0  0  0  0  0  0
   -4.6036   -1.4950   -0.1296 C   0  0  0  0  0  0  0  0  0  0  0  0
   -8.1964   -4.5563   -0.3580 C   0  0  0  0  0  0  0  0  0  0  0  0
   -2.5396   -0.2045   -0.0731 C   0  0  0  0  0  0  0  0  0  0  0  0
   -3.9625   -0.3151   -0.0929 C   0  0  0  0  0  0  0  0  0  0  0  0
   -1.8298    1.3684    0.0469 S   0  0  0  0  0  0  0  0  0  0  0  0
   -0.2410    0.7540   -0.0312 C   0  0  0  0  0  0  0  0  0  0  0  0
   -1.5418   -1.1645   -0.1497 C   0  0  0  0  0  0  0  0  0  0  0  0
   -0.2245   -0.6160   -0.1339 C   0  0  0  0  0  0  0  0  0  0  0  0
   -6.7362   -0.4782   -0.2185 O   0  0  0  0  0  0  0  0  0  0  0  0
   -6.5537   -6.3764   -0.2119 C   0  0  0  0  0  0  0  0  0  0  0  0
   -9.2443   -5.4901   -0.4491 C   0  0  0  0  0  0  0  0  0  0  0  0
   -7.6098   -7.2916   -0.3039 C   0  0  0  0  0  0  0  0  0  0  0  0
   -8.9327   -6.8574   -0.4214 C   0  0  0  0  0  0  0  0  0  0  0  0
   -8.9016   -2.4243   -0.4205 H   0  0  0  0  0  0  0  0  0  0  0  0
   -4.0881   -2.4462   -0.1295 H   0  0  0  0  0  0  0  0  0  0  0  0
   -4.5421    0.6081   -0.0912 H   0  0  0  0  0  0  0  0  0  0  0  0
    0.6060    1.4267    0.0005 H   0  0  0  0  0  0  0  0  0  0  0  0
   -1.7365   -2.2275   -0.2307 H   0  0  0  0  0  0  0  0  0  0  0  0
    0.6864   -1.1984   -0.1985 H   0  0  0  0  0  0  0  0  0  0  0  0
   -5.5237   -6.6987   -0.1204 H   0  0  0  0  0  0  0  0  0  0  0  0
  -10.2762   -5.1642   -0.5402 H   0  0  0  0  0  0  0  0  0  0  0  0
   -7.3959   -8.3580   -0.2837 H   0  0  0  0  0  0  0  0  0  0  0  0
   -9.7344   -7.5898   -0.4924 H   0  0  0  0  0  0  0  0  0  0  0  0
  2  1  1  0  0  0  0
  3  1  2  0  0  0  0
  3 19  1  0  0  0  0
  4  1  1  0  0  0  0
  5  2  1  0  0  0  0
  6  4  1  0  0  0  0
  6 20  1  0  0  0  0
  7  3  1  0  0  0  0
  7  5  2  0  0  0  0
  8  9  1  0  0  0  0
  9  6  2  0  0  0  0
  9 21  1  0  0  0  0
 10  8  1  0  0  0  0
 11 10  1  0  0  0  0
 11 22  1  0  0  0  0
 12  8  2  0  0  0  0
 12 23  1  0  0  0  0
 13 12  1  0  0  0  0
 13 11  2  0  0  0  0
 13 24  1  0  0  0  0
 14  4  2  0  0  0  0
 15  5  1  0  0  0  0
 15 25  1  0  0  0  0
 16  7  1  0  0  0  0
 16 26  1  0  0  0  0
 17 15  2  0  0  0  0
 17 27  1  0  0  0  0
 18 16  2  0  0  0  0
 18 17  1  0  0  0  0
 18 28  1  0  0  0  0
M  END
>  <Mol_ID>
9320

>  <Formula>
C15H10O2S

>  <MolWeight>
254.3037

>  <Cat>
P2920

>  <Name>
WAY-616204

>  <Synonyms>
N/A

>  <Target>
anti-infection

>  <Form>
free base

>  <CAS>
957624-87-2

>  <URL>
N/A

$$$$
