WAY-332039
 OpenBabel08302521443D

 52 55  0  0  0  0  0  0  0  0999 V2000
   -1.6448    3.5421    0.9793 N   0  0  0  0  0  0  0  0  0  0  0  0
   -0.4421    2.8776    1.0676 C   0  0  0  0  0  0  0  0  0  0  0  0
   -2.1068    3.5725    2.2126 C   0  0  0  0  0  0  0  0  0  0  0  0
   -1.2876    2.9628    3.1243 O   0  0  0  0  0  0  0  0  0  0  0  0
   -0.2307    2.5117    2.3833 C   0  0  0  0  0  0  0  0  0  0  0  0
   -0.2240    3.3187   -1.6780 S   0  0  3  0  0  0  0  0  0  0  0  0
    0.4308    2.6535   -0.1114 C   0  0  0  0  0  0  0  0  0  0  0  0
   -0.1156    5.0900   -1.2632 C   0  0  0  0  0  0  0  0  0  0  0  0
   -3.3379    4.1787    2.7039 C   0  0  0  0  0  0  0  0  0  0  0  0
   -0.8197    5.9628   -2.2909 C   0  0  0  0  0  0  0  0  0  0  0  0
   -2.2968   11.3994   -0.8122 C   0  0  0  0  0  0  0  0  0  0  0  0
   -1.2809   12.1035   -1.4147 C   0  0  0  0  0  0  0  0  0  0  0  0
   -2.9167   12.1195    0.1619 O   0  0  0  0  0  0  0  0  0  0  0  0
   -1.1296   13.3496   -0.8918 O   0  0  0  0  0  0  0  0  0  0  0  0
   -2.1230   13.3255    0.1533 C   0  0  0  0  0  0  0  0  0  0  0  0
   -1.2773    7.1678   -1.7828 N   0  0  0  0  0  0  0  0  0  0  0  0
    0.8196    3.0220   -2.7186 O   0  0  0  0  0  0  0  0  0  0  0  0
   -2.6049   10.1043   -1.1786 C   0  0  0  0  0  0  0  0  0  0  0  0
   -4.1965    4.8217    1.7960 C   0  0  0  0  0  0  0  0  0  0  0  0
   -0.9625    5.6663   -3.4725 O   0  0  0  0  0  0  0  0  0  0  0  0
   -0.5213   11.5573   -2.4247 C   0  0  0  0  0  0  0  0  0  0  0  0
   -1.8380    9.5036   -2.1912 C   0  0  0  0  0  0  0  0  0  0  0  0
   -2.0724    8.0697   -2.5932 C   0  0  0  0  0  0  0  0  0  0  0  0
   -5.3922    5.4120    2.2205 C   0  0  0  0  0  0  0  0  0  0  0  0
   -0.8009   10.2420   -2.8090 C   0  0  0  0  0  0  0  0  0  0  0  0
    0.8254    1.7871    3.1150 C   0  0  0  0  0  0  0  0  0  0  0  0
   -3.6972    4.1408    4.0580 C   0  0  0  0  0  0  0  0  0  0  0  0
   -4.8891    4.7242    4.4910 C   0  0  0  0  0  0  0  0  0  0  0  0
   -5.7335    5.3559    3.5760 C   0  0  0  0  0  0  0  0  0  0  0  0
   -6.3113    6.0857    1.2445 C   0  0  0  0  0  0  0  0  0  0  0  0
    1.4254    3.0795    0.0524 H   0  0  0  0  0  0  0  0  0  0  0  0
    0.5495    1.5747   -0.2660 H   0  0  0  0  0  0  0  0  0  0  0  0
   -0.5849    5.2664   -0.2944 H   0  0  0  0  0  0  0  0  0  0  0  0
    0.9374    5.3770   -1.1999 H   0  0  0  0  0  0  0  0  0  0  0  0
   -1.6138   13.4133    1.1208 H   0  0  0  0  0  0  0  0  0  0  0  0
   -2.7872   14.1879    0.0279 H   0  0  0  0  0  0  0  0  0  0  0  0
   -1.2538    7.3347   -0.7859 H   0  0  0  0  0  0  0  0  0  0  0  0
   -3.4129    9.5748   -0.6850 H   0  0  0  0  0  0  0  0  0  0  0  0
   -3.9257    4.8553    0.7406 H   0  0  0  0  0  0  0  0  0  0  0  0
    0.2738   12.1240   -2.8959 H   0  0  0  0  0  0  0  0  0  0  0  0
   -3.1251    7.7991   -2.4514 H   0  0  0  0  0  0  0  0  0  0  0  0
   -1.8498    7.9321   -3.6574 H   0  0  0  0  0  0  0  0  0  0  0  0
   -0.2037    9.7820   -3.5955 H   0  0  0  0  0  0  0  0  0  0  0  0
    1.2552    2.4191    3.8987 H   0  0  0  0  0  0  0  0  0  0  0  0
    0.4143    0.8887    3.5866 H   0  0  0  0  0  0  0  0  0  0  0  0
    1.6347    1.4777    2.4466 H   0  0  0  0  0  0  0  0  0  0  0  0
   -3.0533    3.6539    4.7870 H   0  0  0  0  0  0  0  0  0  0  0  0
   -5.1625    4.6823    5.5425 H   0  0  0  0  0  0  0  0  0  0  0  0
   -6.6637    5.7968    3.9267 H   0  0  0  0  0  0  0  0  0  0  0  0
   -7.2798    5.5762    1.2238 H   0  0  0  0  0  0  0  0  0  0  0  0
   -6.4596    7.1320    1.5295 H   0  0  0  0  0  0  0  0  0  0  0  0
   -5.9005    6.0707    0.2291 H   0  0  0  0  0  0  0  0  0  0  0  0
  2  1  1  0  0  0  0
  3  1  2  0  0  0  0
  4  3  1  0  0  0  0
  4  5  1  0  0  0  0
  5  2  2  0  0  0  0
  6  7  1  0  0  0  0
  7  2  1  0  0  0  0
  7 31  1  0  0  0  0
  7 32  1  0  0  0  0
  8  6  1  0  0  0  0
  8 33  1  0  0  0  0
  8 34  1  0  0  0  0
  9  3  1  0  0  0  0
 10  8  1  0  0  0  0
 11 18  2  0  0  0  0
 12 21  2  0  0  0  0
 12 11  1  0  0  0  0
 13 11  1  0  0  0  0
 14 12  1  0  0  0  0
 15 13  1  0  0  0  0
 15 14  1  0  0  0  0
 15 35  1  0  0  0  0
 15 36  1  0  0  0  0
 16 10  1  0  0  0  0
 16 37  1  0  0  0  0
 17  6  2  0  0  0  0
 18 22  1  0  0  0  0
 18 38  1  0  0  0  0
 19  9  2  0  0  0  0
 19 39  1  0  0  0  0
 20 10  2  0  0  0  0
 21 25  1  0  0  0  0
 21 40  1  0  0  0  0
 22 23  1  0  0  0  0
 23 16  1  0  0  0  0
 23 41  1  0  0  0  0
 23 42  1  0  0  0  0
 24 19  1  0  0  0  0
 25 22  2  0  0  0  0
 25 43  1  0  0  0  0
 26  5  1  0  0  0  0
 26 44  1  0  0  0  0
 26 45  1  0  0  0  0
 26 46  1  0  0  0  0
 27  9  1  0  0  0  0
 27 47  1  0  0  0  0
 28 27  2  0  0  0  0
 28 48  1  0  0  0  0
 29 28  1  0  0  0  0
 29 24  2  0  0  0  0
 29 49  1  0  0  0  0
 30 24  1  0  0  0  0
 30 50  1  0  0  0  0
 30 51  1  0  0  0  0
 30 52  1  0  0  0  0
M  END
>  <Mol_ID>
9251

>  <Formula>
C22H22N2O5S

>  <MolWeight>
426.48548

>  <Cat>
P2687

>  <Name>
WAY-332039

>  <Synonyms>
N/A

>  <Target>
beta-catenin

>  <Form>
free base

>  <CAS>
1015858-29-3

>  <URL>
N/A

$$$$
