WAY-639299
 OpenBabel08302521433D

 45 47  0  0  0  0  0  0  0  0999 V2000
    0.2734   -1.2648    0.1896 C   0  0  0  0  0  0  0  0  0  0  0  0
    1.3951   -0.6040    0.2846 N   0  0  0  0  0  0  0  0  0  0  0  0
    1.1693    0.7437    0.0429 C   0  0  0  0  0  0  0  0  0  0  0  0
    0.0573   -2.6100    0.2730 N   0  0  0  0  0  0  0  0  0  0  0  0
   -1.1295   -0.3327   -0.0954 S   0  0  0  0  0  0  0  0  0  0  0  0
   -0.1588    1.0866   -0.1138 C   0  0  0  0  0  0  0  0  0  0  0  0
    1.0071   -3.4750    0.7838 C   0  0  0  0  0  0  0  0  0  0  0  0
   -3.1700   -6.2172    3.8362 S   0  0  0  0  0  0  0  0  0  0  0  0
    2.2710    1.6880   -0.0114 C   0  0  0  0  0  0  0  0  0  0  0  0
   -1.9974   -4.9703    3.7752 C   0  0  0  0  0  0  0  0  0  0  0  0
    6.8116    4.4032    0.3021 C   0  0  0  0  0  0  0  0  0  0  0  0
    5.5780    4.3253   -0.2637 N   0  0  0  0  0  0  0  0  0  0  0  0
   -3.4802   -5.9274    5.4938 C   0  0  0  0  0  0  0  0  0  0  0  0
   -1.7790   -4.4194    5.0224 C   0  0  0  0  0  0  0  0  0  0  0  0
   -2.6555   -4.9532    6.0099 C   0  0  0  0  0  0  0  0  0  0  0  0
    2.1027   -3.1688    1.2433 O   0  0  0  0  0  0  0  0  0  0  0  0
    7.5550    5.3246   -0.0468 O   0  0  0  0  0  0  0  0  0  0  0  0
    2.2525    2.8209   -0.8327 C   0  0  0  0  0  0  0  0  0  0  0  0
    3.4058    1.4402    0.7558 C   0  0  0  0  0  0  0  0  0  0  0  0
    4.5059    3.4247   -0.1219 C   0  0  0  0  0  0  0  0  0  0  0  0
    3.3669    3.6696   -0.8969 C   0  0  0  0  0  0  0  0  0  0  0  0
    4.5006    2.3103    0.7159 C   0  0  0  0  0  0  0  0  0  0  0  0
    0.5371   -4.9166    0.8160 C   0  0  0  0  0  0  0  0  0  0  0  0
   -1.3830   -4.5580    2.4703 C   0  0  0  0  0  0  0  0  0  0  0  0
   -0.0908   -5.3126    2.1576 C   0  0  0  0  0  0  0  0  0  0  0  0
    7.2787    3.4141    1.3168 C   0  0  0  0  0  0  0  0  0  0  0  0
   -0.8531   -2.9450   -0.0101 H   0  0  0  0  0  0  0  0  0  0  0  0
   -0.5887    2.0672   -0.2550 H   0  0  0  0  0  0  0  0  0  0  0  0
    5.4448    5.0795   -0.9381 H   0  0  0  0  0  0  0  0  0  0  0  0
   -4.2528   -6.4821    6.0085 H   0  0  0  0  0  0  0  0  0  0  0  0
   -1.0609   -3.6291    5.2080 H   0  0  0  0  0  0  0  0  0  0  0  0
   -2.6925   -4.6213    7.0401 H   0  0  0  0  0  0  0  0  0  0  0  0
    1.3895    3.0491   -1.4521 H   0  0  0  0  0  0  0  0  0  0  0  0
    3.4546    0.5611    1.3974 H   0  0  0  0  0  0  0  0  0  0  0  0
    3.3258    4.5246   -1.5694 H   0  0  0  0  0  0  0  0  0  0  0  0
    5.3132    2.0443    1.3711 H   0  0  0  0  0  0  0  0  0  0  0  0
   -0.1606   -5.1020   -0.0094 H   0  0  0  0  0  0  0  0  0  0  0  0
    1.4131   -5.5487    0.6252 H   0  0  0  0  0  0  0  0  0  0  0  0
   -1.1796   -3.4824    2.5287 H   0  0  0  0  0  0  0  0  0  0  0  0
   -2.1076   -4.6909    1.6566 H   0  0  0  0  0  0  0  0  0  0  0  0
   -0.2952   -6.3906    2.1375 H   0  0  0  0  0  0  0  0  0  0  0  0
    0.6338   -5.1470    2.9648 H   0  0  0  0  0  0  0  0  0  0  0  0
    6.6373    3.4483    2.2033 H   0  0  0  0  0  0  0  0  0  0  0  0
    7.3205    2.4095    0.8816 H   0  0  0  0  0  0  0  0  0  0  0  0
    8.2953    3.6608    1.6471 H   0  0  0  0  0  0  0  0  0  0  0  0
  2  1  2  0  0  0  0
  3  2  1  0  0  0  0
  4  1  1  0  0  0  0
  4 27  1  0  0  0  0
  5  1  1  0  0  0  0
  6  5  1  0  0  0  0
  6  3  2  0  0  0  0
  6 28  1  0  0  0  0
  7  4  1  0  0  0  0
  8 10  1  0  0  0  0
  9  3  1  0  0  0  0
 10 24  1  0  0  0  0
 11 12  1  0  0  0  0
 12 20  1  0  0  0  0
 12 29  1  0  0  0  0
 13  8  1  0  0  0  0
 13 15  2  0  0  0  0
 13 30  1  0  0  0  0
 14 10  2  0  0  0  0
 14 31  1  0  0  0  0
 15 14  1  0  0  0  0
 15 32  1  0  0  0  0
 16  7  2  0  0  0  0
 17 11  2  0  0  0  0
 18  9  2  0  0  0  0
 18 33  1  0  0  0  0
 19  9  1  0  0  0  0
 19 34  1  0  0  0  0
 20 22  1  0  0  0  0
 20 21  2  0  0  0  0
 21 18  1  0  0  0  0
 21 35  1  0  0  0  0
 22 19  2  0  0  0  0
 22 36  1  0  0  0  0
 23  7  1  0  0  0  0
 23 37  1  0  0  0  0
 23 38  1  0  0  0  0
 24 25  1  0  0  0  0
 24 39  1  0  0  0  0
 24 40  1  0  0  0  0
 25 23  1  0  0  0  0
 25 41  1  0  0  0  0
 25 42  1  0  0  0  0
 26 11  1  0  0  0  0
 26 43  1  0  0  0  0
 26 44  1  0  0  0  0
 26 45  1  0  0  0  0
M  END
>  <Mol_ID>
8811

>  <Formula>
C19H19N3O2S2

>  <MolWeight>
385.50306

>  <Cat>
P3075

>  <Name>
WAY-639299

>  <Synonyms>
N/A

>  <Target>
Anti-infection

>  <Form>
free base

>  <CAS>
796059-20-6

>  <URL>
N/A

$$$$
