WAY-300916
 OpenBabel08302521413D

 42 44  0  0  0  0  0  0  0  0999 V2000
   -1.2867    1.4266   -0.4032 C   0  0  3  0  0  0  0  0  0  0  0  0
   -0.0014    0.6578   -0.1579 C   0  0  0  0  0  0  0  0  0  0  0  0
   -2.5017    0.6240    0.0228 C   0  0  0  0  0  0  0  0  0  0  0  0
   -1.4076    1.8628   -1.8720 C   0  0  0  0  0  0  0  0  0  0  0  0
   -0.0552   -0.7358   -0.0708 C   0  0  0  0  0  0  0  0  0  0  0  0
    1.2420    1.2998   -0.0626 C   0  0  0  0  0  0  0  0  0  0  0  0
   -2.4304   -0.7206    0.1355 C   0  0  0  0  0  0  0  0  0  0  0  0
   -3.7136    1.4381    0.3251 C   0  0  0  0  0  0  0  0  0  0  0  0
   -1.3826    0.9239   -2.9240 C   0  0  0  0  0  0  0  0  0  0  0  0
   -1.5924    3.2189   -2.1870 C   0  0  0  0  0  0  0  0  0  0  0  0
   -1.2488   -1.4151   -0.1212 O   0  0  0  0  0  0  0  0  0  0  0  0
    1.1098   -1.4940    0.0517 C   0  0  0  0  0  0  0  0  0  0  0  0
    2.4084    0.5473    0.0880 C   0  0  0  0  0  0  0  0  0  0  0  0
   -3.4650   -1.5643    0.4665 N   0  0  0  0  0  0  0  0  0  0  0  0
   -4.8412    0.6789    0.3841 O   0  0  0  0  0  0  0  0  0  0  0  0
   -3.6782    2.6546    0.4677 O   0  0  0  0  0  0  0  0  0  0  0  0
   -1.5607    1.3224   -4.2507 C   0  0  0  0  0  0  0  0  0  0  0  0
   -1.7703    3.6281   -3.5118 C   0  0  0  0  0  0  0  0  0  0  0  0
    2.3353   -0.8410    0.1268 C   0  0  0  0  0  0  0  0  0  0  0  0
   -6.0745    1.3689    0.6479 C   0  0  0  0  0  0  0  0  0  0  0  0
   -1.7632    2.6760   -4.5391 C   0  0  0  0  0  0  0  0  0  0  0  0
    3.5066   -1.5321    0.2361 O   0  0  0  0  0  0  0  0  0  0  0  0
   -6.3459    1.4390    2.1401 C   0  0  0  0  0  0  0  0  0  0  0  0
   -1.9931    3.0952   -5.9272 N   0  3  0  0  0  0  0  0  0  0  0  0
   -1.9840    2.2187   -6.8045 O   0  0  0  0  0  0  0  0  0  0  0  0
   -2.1936    4.2990   -6.1408 O   0  5  0  0  0  0  0  0  0  0  0  0
   -1.2190    2.3184    0.2365 H   0  0  0  0  0  0  0  0  0  0  0  0
    1.3114    2.3839   -0.1128 H   0  0  0  0  0  0  0  0  0  0  0  0
   -1.2302   -0.1351   -2.7179 H   0  0  0  0  0  0  0  0  0  0  0  0
   -1.6202    3.9679   -1.3966 H   0  0  0  0  0  0  0  0  0  0  0  0
    1.0427   -2.5759    0.0972 H   0  0  0  0  0  0  0  0  0  0  0  0
    3.3737    1.0411    0.1620 H   0  0  0  0  0  0  0  0  0  0  0  0
   -3.3758   -2.4638    0.0023 H   0  0  0  0  0  0  0  0  0  0  0  0
   -4.3818   -1.1366    0.3295 H   0  0  0  0  0  0  0  0  0  0  0  0
   -1.5414    0.5710   -5.0383 H   0  0  0  0  0  0  0  0  0  0  0  0
   -1.9246    4.6836   -3.7243 H   0  0  0  0  0  0  0  0  0  0  0  0
   -6.0763    2.3653    0.1937 H   0  0  0  0  0  0  0  0  0  0  0  0
   -6.8700    0.7927    0.1630 H   0  0  0  0  0  0  0  0  0  0  0  0
    3.3180   -2.4829    0.1724 H   0  0  0  0  0  0  0  0  0  0  0  0
   -5.4685    1.7835    2.6955 H   0  0  0  0  0  0  0  0  0  0  0  0
   -7.1850    2.1105    2.3469 H   0  0  0  0  0  0  0  0  0  0  0  0
   -6.6026    0.4474    2.5286 H   0  0  0  0  0  0  0  0  0  0  0  0
  1  2  1  0  0  0  0
  1  3  1  0  0  0  0
  1  4  1  0  0  0  0
  1 27  1  0  0  0  0
  2  5  2  0  0  0  0
  2  6  1  0  0  0  0
  3  7  2  0  0  0  0
  3  8  1  0  0  0  0
  4  9  2  0  0  0  0
  4 10  1  0  0  0  0
  5 11  1  0  0  0  0
  5 12  1  0  0  0  0
  6 13  2  0  0  0  0
  6 28  1  0  0  0  0
  7 14  1  0  0  0  0
  7 11  1  0  0  0  0
  8 15  1  0  0  0  0
  8 16  2  0  0  0  0
  9 17  1  0  0  0  0
  9 29  1  0  0  0  0
 10 18  2  0  0  0  0
 10 30  1  0  0  0  0
 12 19  2  0  0  0  0
 12 31  1  0  0  0  0
 13 19  1  0  0  0  0
 13 32  1  0  0  0  0
 14 33  1  0  0  0  0
 14 34  1  0  0  0  0
 15 20  1  0  0  0  0
 17 21  2  0  0  0  0
 17 35  1  0  0  0  0
 18 21  1  0  0  0  0
 18 36  1  0  0  0  0
 19 22  1  0  0  0  0
 20 23  1  0  0  0  0
 20 37  1  0  0  0  0
 20 38  1  0  0  0  0
 21 24  1  0  0  0  0
 22 39  1  0  0  0  0
 23 40  1  0  0  0  0
 23 41  1  0  0  0  0
 23 42  1  0  0  0  0
 24 25  2  0  0  0  0
 24 26  1  0  0  0  0
M  CHG  2  24   1  26  -1
M  END
>  <Mol_ID>
8423

>  <Formula>
C18H16N2O6

>  <MolWeight>
356.32944

>  <Cat>
P2156

>  <Name>
WAY-300916

>  <Synonyms>
N/A

>  <Target>
insulin-regulated aminopeptidase

>  <Form>
free base

>  <CAS>
374102-08-6

>  <URL>
N/A

$$$$
