WAY-325671-A
 OpenBabel08302521433D

 44 46  0  0  0  0  0  0  0  0999 V2000
   -1.1843   -0.2107    1.0891 N   0  0  0  0  0  0  0  0  0  0  0  0
   -2.5371   -0.0724    1.4435 C   0  0  0  0  0  0  0  0  0  0  0  0
    1.4653   -0.1473   -0.2677 N   0  0  0  0  0  0  0  0  0  0  0  0
    3.4678    1.2748   -2.2586 C   0  0  0  0  0  0  0  0  0  0  0  0
    1.9524    1.2687   -2.3480 C   0  0  0  0  0  0  0  0  0  0  0  0
    4.2045    0.0403   -2.6196 C   0  0  0  0  0  0  0  0  0  0  0  0
   -0.7469   -1.3581    0.2764 C   0  0  0  0  0  0  0  0  0  0  0  0
   -0.5825    1.0771    0.6730 C   0  0  0  0  0  0  0  0  0  0  0  0
   -2.8864    0.6222    2.6205 C   0  0  0  0  0  0  0  0  0  0  0  0
    4.1024    2.2753   -1.9308 O   0  0  0  0  0  0  0  0  0  0  0  0
    1.2458    0.0610   -1.7082 C   0  0  0  0  0  0  0  0  0  0  0  0
    3.8488   -0.7144   -3.7433 C   0  0  0  0  0  0  0  0  0  0  0  0
    5.2105   -0.4029   -1.7565 C   0  0  0  0  0  0  0  0  0  0  0  0
    0.9576    0.9591    0.5823 C   0  0  0  0  0  0  0  0  0  0  0  0
    0.8055   -1.4026    0.2007 C   0  0  0  0  0  0  0  0  0  0  0  0
    5.3634   -2.4492   -3.0242 C   0  0  0  0  0  0  0  0  0  0  0  0
   -1.9231    1.0882    3.4325 F   0  0  0  0  0  0  0  0  0  0  0  0
    4.4246   -1.9701   -3.9392 C   0  0  0  0  0  0  0  0  0  0  0  0
    5.7830   -1.6592   -1.9533 C   0  0  0  0  0  0  0  0  0  0  0  0
    6.0365   -4.2057   -3.2116 Br  0  0  0  0  0  0  0  0  0  0  0  0
   -3.5928   -0.5594    0.6609 C   0  0  0  0  0  0  0  0  0  0  0  0
   -4.2119    0.8482    2.9895 C   0  0  0  0  0  0  0  0  0  0  0  0
   -4.9290   -0.3264    1.0182 C   0  0  0  0  0  0  0  0  0  0  0  0
   -5.2395    0.3834    2.1784 C   0  0  0  0  0  0  0  0  0  0  0  0
    1.6848    1.3218   -3.4115 H   0  0  0  0  0  0  0  0  0  0  0  0
    1.5875    2.1996   -1.9010 H   0  0  0  0  0  0  0  0  0  0  0  0
   -1.1033   -2.2903    0.7276 H   0  0  0  0  0  0  0  0  0  0  0  0
   -1.1619   -1.2959   -0.7393 H   0  0  0  0  0  0  0  0  0  0  0  0
   -0.9936    1.3756   -0.2982 H   0  0  0  0  0  0  0  0  0  0  0  0
   -0.8165    1.8767    1.3858 H   0  0  0  0  0  0  0  0  0  0  0  0
    1.5782   -0.8457   -2.2269 H   0  0  0  0  0  0  0  0  0  0  0  0
    0.1762    0.1509   -1.9295 H   0  0  0  0  0  0  0  0  0  0  0  0
    3.1115   -0.3496   -4.4533 H   0  0  0  0  0  0  0  0  0  0  0  0
    5.5102    0.2088   -0.9080 H   0  0  0  0  0  0  0  0  0  0  0  0
    1.3447    0.7998    1.5978 H   0  0  0  0  0  0  0  0  0  0  0  0
    1.3799    1.9180    0.2656 H   0  0  0  0  0  0  0  0  0  0  0  0
    1.1890   -1.6200    1.2026 H   0  0  0  0  0  0  0  0  0  0  0  0
    1.1206   -2.2461   -0.4241 H   0  0  0  0  0  0  0  0  0  0  0  0
    4.1171   -2.5769   -4.7868 H   0  0  0  0  0  0  0  0  0  0  0  0
    6.5266   -2.0230   -1.2497 H   0  0  0  0  0  0  0  0  0  0  0  0
   -3.4010   -1.1005   -0.2594 H   0  0  0  0  0  0  0  0  0  0  0  0
   -4.4236    1.3918    3.9041 H   0  0  0  0  0  0  0  0  0  0  0  0
   -5.7330   -0.6877    0.3792 H   0  0  0  0  0  0  0  0  0  0  0  0
   -6.2748    0.5743    2.4469 H   0  0  0  0  0  0  0  0  0  0  0  0
  2  1  1  0  0  0  0
  3 14  1  0  0  0  0
  3 15  1  0  0  0  0
  4  5  1  0  0  0  0
  5 11  1  0  0  0  0
  5 25  1  0  0  0  0
  5 26  1  0  0  0  0
  6  4  1  0  0  0  0
  7  1  1  0  0  0  0
  7 27  1  0  0  0  0
  7 28  1  0  0  0  0
  8  1  1  0  0  0  0
  8 29  1  0  0  0  0
  8 30  1  0  0  0  0
  9  2  2  0  0  0  0
 10  4  2  0  0  0  0
 11  3  1  0  0  0  0
 11 31  1  0  0  0  0
 11 32  1  0  0  0  0
 12  6  2  0  0  0  0
 12 33  1  0  0  0  0
 13  6  1  0  0  0  0
 13 34  1  0  0  0  0
 14  8  1  0  0  0  0
 14 35  1  0  0  0  0
 14 36  1  0  0  0  0
 15  7  1  0  0  0  0
 15 37  1  0  0  0  0
 15 38  1  0  0  0  0
 16 19  1  0  0  0  0
 16 18  2  0  0  0  0
 17  9  1  0  0  0  0
 18 12  1  0  0  0  0
 18 39  1  0  0  0  0
 19 13  2  0  0  0  0
 19 40  1  0  0  0  0
 20 16  1  0  0  0  0
 21  2  1  0  0  0  0
 21 41  1  0  0  0  0
 22  9  1  0  0  0  0
 22 42  1  0  0  0  0
 23 21  2  0  0  0  0
 23 43  1  0  0  0  0
 24 23  1  0  0  0  0
 24 22  2  0  0  0  0
 24 44  1  0  0  0  0
M  END
>  <Mol_ID>
8872

>  <Formula>
C19H20BrFN2O

>  <MolWeight>
391.2773032

>  <Cat>
P2420

>  <Name>
WAY-325671-A

>  <Synonyms>
N/A

>  <Target>
adenosine deaminase

>  <Form>
free base

>  <CAS>
869355-88-4

>  <URL>
N/A

$$$$
