WAY-660319
 OpenBabel08302521443D

 62 65  0  0  0  0  0  0  0  0999 V2000
    1.1973    0.0760    0.0847 S   0  0  0  0  0  0  0  0  0  0  0  0
    0.0459    0.0372   -1.1715 N   0  0  0  0  0  0  0  0  0  0  0  0
    0.4993    1.1718    1.3002 C   0  0  0  0  0  0  0  0  0  0  0  0
   -0.5580    1.4576    3.4569 C   0  0  0  0  0  0  0  0  0  0  0  0
   -0.3192    2.8549    3.4439 C   0  0  0  0  0  0  0  0  0  0  0  0
   -0.1732    0.6294    2.3932 C   0  0  0  0  0  0  0  0  0  0  0  0
   -1.2251    0.8503    4.5517 N   0  0  0  0  0  0  0  0  0  0  0  0
   -0.7322    3.6780    4.4803 N   0  0  0  0  0  0  0  0  0  0  0  0
   -0.4480    0.1187    5.4486 C   0  0  0  0  0  0  0  0  0  0  0  0
    2.4046    0.6934   -0.4246 O   0  0  0  0  0  0  0  0  0  0  0  0
    1.2501   -1.2493    0.6734 O   0  0  0  0  0  0  0  0  0  0  0  0
    0.3517    3.3647    2.3182 C   0  0  0  0  0  0  0  0  0  0  0  0
   -1.4187   -1.8458    6.7617 C   0  0  0  0  0  0  0  0  0  0  0  0
   -1.1860   -0.3541    6.7000 C   0  0  0  0  0  0  0  0  0  0  0  0
    0.7785    2.5383    1.2665 C   0  0  0  0  0  0  0  0  0  0  0  0
    0.7541   -0.1039    5.2923 O   0  0  0  0  0  0  0  0  0  0  0  0
   -2.1290   -2.4731    7.8057 C   0  0  0  0  0  0  0  0  0  0  0  0
    0.9928    0.0749   -3.9234 O   0  0  0  0  0  0  0  0  0  0  0  0
   -1.8783    5.1896    6.5886 O   0  0  0  0  0  0  0  0  0  0  0  0
   -0.0557    1.2512   -2.0447 C   0  0  0  0  0  0  0  0  0  0  0  0
    0.1018   -1.1935   -2.0324 C   0  0  0  0  0  0  0  0  0  0  0  0
   -2.7944   -1.8634    8.8357 O   0  0  0  0  0  0  0  0  0  0  0  0
   -1.0296    5.1031    4.2663 C   0  0  0  0  0  0  0  0  0  0  0  0
   -0.2958    3.4513    5.8730 C   0  0  0  0  0  0  0  0  0  0  0  0
    1.1944   -1.0847   -3.1012 C   0  0  0  0  0  0  0  0  0  0  0  0
    1.0350    1.2677   -3.1277 C   0  0  0  0  0  0  0  0  0  0  0  0
   -0.9340   -2.6740    5.7259 C   0  0  0  0  0  0  0  0  0  0  0  0
   -1.4906    3.8146    6.7738 C   0  0  0  0  0  0  0  0  0  0  0  0
   -2.1935    5.4618    5.2079 C   0  0  0  0  0  0  0  0  0  0  0  0
   -2.3355   -3.8643    7.7797 C   0  0  0  0  0  0  0  0  0  0  0  0
   -2.1050   -0.8708    9.5797 C   0  0  0  0  0  0  0  0  0  0  0  0
   -1.1428   -4.0538    5.7087 C   0  0  0  0  0  0  0  0  0  0  0  0
   -1.8437   -4.6543    6.7424 C   0  0  0  0  0  0  0  0  0  0  0  0
   -0.3897   -0.4355    2.4321 H   0  0  0  0  0  0  0  0  0  0  0  0
   -1.9023    1.4587    4.9956 H   0  0  0  0  0  0  0  0  0  0  0  0
    0.6098    4.4206    2.2659 H   0  0  0  0  0  0  0  0  0  0  0  0
   -0.5400   -0.0538    7.5374 H   0  0  0  0  0  0  0  0  0  0  0  0
   -2.1287    0.1811    6.8011 H   0  0  0  0  0  0  0  0  0  0  0  0
    1.3528    2.9691    0.4499 H   0  0  0  0  0  0  0  0  0  0  0  0
   -1.0392    1.2122   -2.5317 H   0  0  0  0  0  0  0  0  0  0  0  0
   -0.0355    2.1684   -1.4528 H   0  0  0  0  0  0  0  0  0  0  0  0
   -0.8775   -1.2929   -2.5170 H   0  0  0  0  0  0  0  0  0  0  0  0
    0.2401   -2.0934   -1.4264 H   0  0  0  0  0  0  0  0  0  0  0  0
   -0.1445    5.7049    4.5152 H   0  0  0  0  0  0  0  0  0  0  0  0
   -1.3207    5.3223    3.2343 H   0  0  0  0  0  0  0  0  0  0  0  0
    0.5528    4.1075    6.1029 H   0  0  0  0  0  0  0  0  0  0  0  0
    0.0378    2.4391    6.0822 H   0  0  0  0  0  0  0  0  0  0  0  0
    2.1969   -1.0477   -2.6610 H   0  0  0  0  0  0  0  0  0  0  0  0
    1.1534   -1.9594   -3.7583 H   0  0  0  0  0  0  0  0  0  0  0  0
    0.8704    2.1155   -3.8005 H   0  0  0  0  0  0  0  0  0  0  0  0
    2.0406    1.3827   -2.7141 H   0  0  0  0  0  0  0  0  0  0  0  0
   -0.3748   -2.2665    4.8849 H   0  0  0  0  0  0  0  0  0  0  0  0
   -2.3524    3.1759    6.5537 H   0  0  0  0  0  0  0  0  0  0  0  0
   -1.2324    3.6762    7.8266 H   0  0  0  0  0  0  0  0  0  0  0  0
   -2.4265    6.5264    5.1250 H   0  0  0  0  0  0  0  0  0  0  0  0
   -3.0916    4.8937    4.9344 H   0  0  0  0  0  0  0  0  0  0  0  0
   -2.8960   -4.3399    8.5801 H   0  0  0  0  0  0  0  0  0  0  0  0
   -1.0169   -0.9540    9.5252 H   0  0  0  0  0  0  0  0  0  0  0  0
   -2.4437    0.1166    9.2521 H   0  0  0  0  0  0  0  0  0  0  0  0
   -2.3915   -0.9810   10.6314 H   0  0  0  0  0  0  0  0  0  0  0  0
   -0.7610   -4.6454    4.8807 H   0  0  0  0  0  0  0  0  0  0  0  0
   -2.0142   -5.7239    6.7366 H   0  0  0  0  0  0  0  0  0  0  0  0
  2  1  1  0  0  0  0
  3  1  1  0  0  0  0
  4  6  2  0  0  0  0
  5 12  2  0  0  0  0
  5  4  1  0  0  0  0
  6  3  1  0  0  0  0
  6 34  1  0  0  0  0
  7  4  1  0  0  0  0
  7 35  1  0  0  0  0
  8  5  1  0  0  0  0
  9  7  1  0  0  0  0
 10  1  2  0  0  0  0
 11  1  2  0  0  0  0
 12 15  1  0  0  0  0
 12 36  1  0  0  0  0
 13 14  1  0  0  0  0
 14  9  1  0  0  0  0
 14 37  1  0  0  0  0
 14 38  1  0  0  0  0
 15  3  2  0  0  0  0
 15 39  1  0  0  0  0
 16  9  2  0  0  0  0
 17 13  2  0  0  0  0
 18 25  1  0  0  0  0
 18 26  1  0  0  0  0
 19 28  1  0  0  0  0
 19 29  1  0  0  0  0
 20  2  1  0  0  0  0
 20 40  1  0  0  0  0
 20 41  1  0  0  0  0
 21  2  1  0  0  0  0
 21 42  1  0  0  0  0
 21 43  1  0  0  0  0
 22 17  1  0  0  0  0
 23  8  1  0  0  0  0
 23 44  1  0  0  0  0
 23 45  1  0  0  0  0
 24  8  1  0  0  0  0
 24 46  1  0  0  0  0
 24 47  1  0  0  0  0
 25 21  1  0  0  0  0
 25 48  1  0  0  0  0
 25 49  1  0  0  0  0
 26 20  1  0  0  0  0
 26 50  1  0  0  0  0
 26 51  1  0  0  0  0
 27 13  1  0  0  0  0
 27 52  1  0  0  0  0
 28 24  1  0  0  0  0
 28 53  1  0  0  0  0
 28 54  1  0  0  0  0
 29 23  1  0  0  0  0
 29 55  1  0  0  0  0
 29 56  1  0  0  0  0
 30 17  1  0  0  0  0
 30 57  1  0  0  0  0
 31 22  1  0  0  0  0
 31 58  1  0  0  0  0
 31 59  1  0  0  0  0
 31 60  1  0  0  0  0
 32 27  2  0  0  0  0
 32 61  1  0  0  0  0
 33 32  1  0  0  0  0
 33 30  2  0  0  0  0
 33 62  1  0  0  0  0
M  END
>  <Mol_ID>
9118

>  <Formula>
C23H29N3O6S

>  <MolWeight>
475.55786

>  <Cat>
P3198

>  <Name>
WAY-660319

>  <Synonyms>
N/A

>  <Target>
¦Á7¦Â1 integrin

>  <Form>
free base

>  <CAS>
849121-82-0

>  <URL>
N/A

$$$$
