WAY-655778
 OpenBabel08302521423D

 31 33  0  0  0  0  0  0  0  0999 V2000
   -1.8168    0.6279    0.1752 N   0  0  0  0  0  0  0  0  0  0  0  0
   -2.1132   -0.6333    0.4157 C   0  0  0  0  0  0  0  0  0  0  0  0
   -0.9904   -1.4754    1.4121 S   0  0  0  0  0  0  0  0  0  0  0  0
   -0.7228    1.0068    0.9357 C   0  0  0  0  0  0  0  0  0  0  0  0
   -0.1430   -0.0028    1.7046 C   0  0  0  0  0  0  0  0  0  0  0  0
   -3.3435   -2.1500   -1.1993 N   0  0  0  0  0  0  0  0  0  0  0  0
   -3.4120   -1.2832   -0.0043 C   0  0  0  0  0  0  0  0  0  0  0  0
   -5.4904   -1.3045   -3.1422 N   0  0  0  0  0  0  0  0  0  0  0  0
   -3.0549   -1.3929   -2.4373 C   0  0  0  0  0  0  0  0  0  0  0  0
   -4.6285   -2.8674   -1.3730 C   0  0  0  0  0  0  0  0  0  0  0  0
   -5.7990   -1.9933   -1.8817 C   0  0  0  0  0  0  0  0  0  0  0  0
   -4.2287   -0.5547   -3.0059 C   0  0  0  0  0  0  0  0  0  0  0  0
   -0.1944    2.3130    1.0196 C   0  0  0  0  0  0  0  0  0  0  0  0
    0.9399    0.2522    2.5622 C   0  0  0  0  0  0  0  0  0  0  0  0
    1.4201    1.5630    2.6573 C   0  0  0  0  0  0  0  0  0  0  0  0
    0.8643    2.5826    1.8923 C   0  0  0  0  0  0  0  0  0  0  0  0
   -3.7536   -1.8877    0.8475 H   0  0  0  0  0  0  0  0  0  0  0  0
   -4.1582   -0.4893   -0.1260 H   0  0  0  0  0  0  0  0  0  0  0  0
   -5.3614   -2.0118   -3.8665 H   0  0  0  0  0  0  0  0  0  0  0  0
   -2.1775   -0.7486   -2.3098 H   0  0  0  0  0  0  0  0  0  0  0  0
   -2.7635   -2.1228   -3.2024 H   0  0  0  0  0  0  0  0  0  0  0  0
   -4.4647   -3.6831   -2.0878 H   0  0  0  0  0  0  0  0  0  0  0  0
   -4.9197   -3.3568   -0.4349 H   0  0  0  0  0  0  0  0  0  0  0  0
   -6.0870   -1.2550   -1.1240 H   0  0  0  0  0  0  0  0  0  0  0  0
   -6.6779   -2.6288   -2.0384 H   0  0  0  0  0  0  0  0  0  0  0  0
   -4.4013    0.3294   -2.3815 H   0  0  0  0  0  0  0  0  0  0  0  0
   -3.9479   -0.1841   -3.9990 H   0  0  0  0  0  0  0  0  0  0  0  0
   -0.6409    3.1054    0.4270 H   0  0  0  0  0  0  0  0  0  0  0  0
    1.3753   -0.5409    3.1641 H   0  0  0  0  0  0  0  0  0  0  0  0
    2.2340    1.7898    3.3430 H   0  0  0  0  0  0  0  0  0  0  0  0
    1.2407    3.5996    1.9787 H   0  0  0  0  0  0  0  0  0  0  0  0
  2  1  2  0  0  0  0
  3  2  1  0  0  0  0
  3  5  1  0  0  0  0
  4  1  1  0  0  0  0
  5  4  2  0  0  0  0
  6  7  1  0  0  0  0
  7  2  1  0  0  0  0
  7 17  1  0  0  0  0
  7 18  1  0  0  0  0
  8 11  1  0  0  0  0
  8 12  1  0  0  0  0
  8 19  1  0  0  0  0
  9  6  1  0  0  0  0
  9 20  1  0  0  0  0
  9 21  1  0  0  0  0
 10  6  1  0  0  0  0
 10 22  1  0  0  0  0
 10 23  1  0  0  0  0
 11 10  1  0  0  0  0
 11 24  1  0  0  0  0
 11 25  1  0  0  0  0
 12  9  1  0  0  0  0
 12 26  1  0  0  0  0
 12 27  1  0  0  0  0
 13  4  1  0  0  0  0
 13 28  1  0  0  0  0
 14  5  1  0  0  0  0
 14 29  1  0  0  0  0
 15 16  1  0  0  0  0
 15 14  2  0  0  0  0
 15 30  1  0  0  0  0
 16 13  2  0  0  0  0
 16 31  1  0  0  0  0
M  END
>  <Mol_ID>
8518

>  <Formula>
C12H15N3S

>  <MolWeight>
233.3326

>  <Cat>
P3129

>  <Name>
WAY-655778

>  <Synonyms>
N/A

>  <Target>
¦Â3-adrenergic receptor,5-HT3 receptor,Anti-infection

>  <Form>
free base

>  <CAS>
232263-03-5

>  <URL>
N/A

$$$$
