WAY-326109
 OpenBabel08302521433D

 51 55  0  0  0  0  0  0  0  0999 V2000
    0.1780   -0.7828    0.0262 C   0  0  0  0  0  0  0  0  0  0  0  0
    0.3147    0.6092    0.0223 N   0  0  0  0  0  0  0  0  0  0  0  0
   -0.8092    1.4281    0.0217 C   0  0  0  0  0  0  0  0  0  0  0  0
    1.4536   -1.3065   -0.0279 C   0  0  0  0  0  0  0  0  0  0  0  0
   -1.0422   -1.3984    0.0549 N   0  0  0  0  0  0  0  0  0  0  0  0
    1.6200    0.9767    0.0345 N   0  0  0  0  0  0  0  0  0  0  0  0
   -2.0351    0.8726    0.0480 C   0  0  0  0  0  0  0  0  0  0  0  0
   -2.0937   -0.6252    0.0596 C   0  0  0  0  0  0  0  0  0  0  0  0
    1.8545   -2.6987   -0.0910 C   0  0  0  0  0  0  0  0  0  0  0  0
    2.2920   -0.1750   -0.0092 C   0  0  0  0  0  0  0  0  0  0  0  0
    1.7209   -7.0190   -0.2188 N   0  0  0  0  0  0  0  0  0  0  0  0
    0.9434   -4.9641   -0.2804 C   0  0  0  0  0  0  0  0  0  0  0  0
    0.4424   -7.1690   -0.6415 N   0  0  0  0  0  0  0  0  0  0  0  0
    2.0611   -5.7142   -0.0035 C   0  0  0  0  0  0  0  0  0  0  0  0
    0.8049   -3.5925   -0.2068 N   0  0  0  0  0  0  0  0  0  0  0  0
   -0.0303   -5.9186   -0.6489 C   0  0  0  0  0  0  0  0  0  0  0  0
   -0.5781    2.8965    0.0076 C   0  0  0  0  0  0  0  0  0  0  0  0
    3.0477   -2.9943   -0.0767 O   0  0  0  0  0  0  0  0  0  0  0  0
   -3.4418   -1.2567    0.0884 C   0  0  0  0  0  0  0  0  0  0  0  0
    2.6005   -8.1732   -0.0782 C   0  0  0  0  0  0  0  0  0  0  0  0
   -0.4697    3.3475   -1.2718 F   0  0  0  0  0  0  0  0  0  0  0  0
   -1.6524    3.5554    0.5331 F   0  0  0  0  0  0  0  0  0  0  0  0
    2.5264   -8.7761    1.3066 C   0  0  0  0  0  0  0  0  0  0  0  0
    2.3707   -9.8704    3.8742 C   0  0  0  0  0  0  0  0  0  0  0  0
    2.2929  -10.3783    5.1112 F   0  0  0  0  0  0  0  0  0  0  0  0
    3.5885   -9.3927    3.4048 C   0  0  0  0  0  0  0  0  0  0  0  0
    1.2335   -9.8288    3.0793 C   0  0  0  0  0  0  0  0  0  0  0  0
    1.3131   -9.2923    1.7944 C   0  0  0  0  0  0  0  0  0  0  0  0
    3.6689   -8.8451    2.1219 C   0  0  0  0  0  0  0  0  0  0  0  0
   -4.5510   -0.6638   -0.5291 C   0  0  0  0  0  0  0  0  0  0  0  0
   -3.5839   -2.5061    0.7113 C   0  0  0  0  0  0  0  0  0  0  0  0
   -5.7868   -1.3104   -0.5118 C   0  0  0  0  0  0  0  0  0  0  0  0
   -4.8223   -3.1489    0.7224 C   0  0  0  0  0  0  0  0  0  0  0  0
   -5.9217   -2.5498    0.1104 C   0  0  0  0  0  0  0  0  0  0  0  0
   -2.9367    1.4706    0.0672 H   0  0  0  0  0  0  0  0  0  0  0  0
    3.3753   -0.1549   -0.0323 H   0  0  0  0  0  0  0  0  0  0  0  0
    3.0480   -5.4402    0.3419 H   0  0  0  0  0  0  0  0  0  0  0  0
   -0.1307   -3.2035   -0.3040 H   0  0  0  0  0  0  0  0  0  0  0  0
   -1.0559   -5.7562   -0.9526 H   0  0  0  0  0  0  0  0  0  0  0  0
    0.3032    3.2134    0.5714 H   0  0  0  0  0  0  0  0  0  0  0  0
    2.3207   -8.9118   -0.8381 H   0  0  0  0  0  0  0  0  0  0  0  0
    3.6160   -7.8298   -0.3077 H   0  0  0  0  0  0  0  0  0  0  0  0
    4.4649   -9.4454    4.0430 H   0  0  0  0  0  0  0  0  0  0  0  0
    0.2917  -10.2074    3.4626 H   0  0  0  0  0  0  0  0  0  0  0  0
    0.4168   -9.2634    1.1754 H   0  0  0  0  0  0  0  0  0  0  0  0
    4.6278   -8.4702    1.7697 H   0  0  0  0  0  0  0  0  0  0  0  0
   -4.4707    0.2832   -1.0542 H   0  0  0  0  0  0  0  0  0  0  0  0
   -2.7352   -2.9845    1.1918 H   0  0  0  0  0  0  0  0  0  0  0  0
   -6.6463   -0.8511   -0.9976 H   0  0  0  0  0  0  0  0  0  0  0  0
   -4.9267   -4.1190    1.2029 H   0  0  0  0  0  0  0  0  0  0  0  0
   -6.8853   -3.0553    0.1115 H   0  0  0  0  0  0  0  0  0  0  0  0
  2  1  1  0  0  0  0
  3  2  1  0  0  0  0
  4  1  2  0  0  0  0
  5  1  1  0  0  0  0
  6  2  1  0  0  0  0
  7  8  1  0  0  0  0
  7  3  2  0  0  0  0
  7 35  1  0  0  0  0
  8  5  2  0  0  0  0
  9  4  1  0  0  0  0
 10  4  1  0  0  0  0
 10  6  2  0  0  0  0
 10 36  1  0  0  0  0
 11 14  1  0  0  0  0
 11 13  1  0  0  0  0
 12 15  1  0  0  0  0
 13 16  2  0  0  0  0
 14 12  2  0  0  0  0
 14 37  1  0  0  0  0
 15  9  1  0  0  0  0
 15 38  1  0  0  0  0
 16 12  1  0  0  0  0
 16 39  1  0  0  0  0
 17  3  1  0  0  0  0
 17 40  1  0  0  0  0
 18  9  2  0  0  0  0
 19  8  1  0  0  0  0
 20 11  1  0  0  0  0
 20 41  1  0  0  0  0
 20 42  1  0  0  0  0
 21 17  1  0  0  0  0
 22 17  1  0  0  0  0
 23 20  1  0  0  0  0
 24 26  2  0  0  0  0
 25 24  1  0  0  0  0
 26 29  1  0  0  0  0
 26 43  1  0  0  0  0
 27 28  2  0  0  0  0
 27 24  1  0  0  0  0
 27 44  1  0  0  0  0
 28 23  1  0  0  0  0
 28 45  1  0  0  0  0
 29 23  2  0  0  0  0
 29 46  1  0  0  0  0
 30 19  2  0  0  0  0
 30 47  1  0  0  0  0
 31 19  1  0  0  0  0
 31 48  1  0  0  0  0
 32 30  1  0  0  0  0
 32 49  1  0  0  0  0
 33 31  2  0  0  0  0
 33 50  1  0  0  0  0
 34 33  1  0  0  0  0
 34 32  2  0  0  0  0
 34 51  1  0  0  0  0
M  END
>  <Mol_ID>
8892

>  <Formula>
C24H17F3N6O

>  <MolWeight>
462.4265896

>  <Cat>
P2450

>  <Name>
WAY-326109

>  <Synonyms>
N/A

>  <Target>
Mcl-1,glucocerebrosidase

>  <Form>
free base

>  <CAS>
869714-67-0

>  <URL>
N/A

$$$$
