WAY-332058
 OpenBabel08302521443D

 46 48  0  0  0  0  0  0  0  0999 V2000
   -0.1807    4.4639    1.7035 N   0  0  0  0  0  0  0  0  0  0  0  0
   -0.6479    3.3043    1.1191 C   0  0  0  0  0  0  0  0  0  0  0  0
   -1.0399    4.7126    2.6741 C   0  0  0  0  0  0  0  0  0  0  0  0
   -2.0275    3.7700    2.7930 O   0  0  0  0  0  0  0  0  0  0  0  0
   -1.7713    2.8739    1.7931 C   0  0  0  0  0  0  0  0  0  0  0  0
   -0.6914    3.3401   -1.6269 S   0  0  3  0  0  0  0  0  0  0  0  0
    0.0329    2.7374   -0.0662 C   0  0  0  0  0  0  0  0  0  0  0  0
   -0.7570    5.9369   -2.5808 C   0  0  0  0  0  0  0  0  0  0  0  0
   -0.2961    5.1013   -1.4033 C   0  0  0  0  0  0  0  0  0  0  0  0
   -1.1099    5.8678    3.5648 C   0  0  0  0  0  0  0  0  0  0  0  0
   -0.0000    7.0817   -2.7755 N   0  0  0  0  0  0  0  0  0  0  0  0
    0.1805    2.8093   -2.7316 O   0  0  0  0  0  0  0  0  0  0  0  0
   -1.7501    5.6764   -3.2536 O   0  0  0  0  0  0  0  0  0  0  0  0
   -0.1860    6.9131    3.4172 C   0  0  0  0  0  0  0  0  0  0  0  0
   -2.0997    5.9815    4.5521 C   0  0  0  0  0  0  0  0  0  0  0  0
   -1.2488    8.1491    5.2002 C   0  0  0  0  0  0  0  0  0  0  0  0
   -2.1692    7.1158    5.3651 C   0  0  0  0  0  0  0  0  0  0  0  0
   -0.2559    8.0484    4.2281 C   0  0  0  0  0  0  0  0  0  0  0  0
   -0.1673    7.9022   -3.9577 C   0  0  0  0  0  0  0  0  0  0  0  0
   -2.7133    1.7501    1.6550 C   0  0  0  0  0  0  0  0  0  0  0  0
    0.7888    7.4895   -5.0750 C   0  0  0  0  0  0  0  0  0  0  0  0
    0.2079    9.3605   -3.7227 C   0  0  0  0  0  0  0  0  0  0  0  0
    0.9170    8.7253   -5.9619 C   0  0  0  0  0  0  0  0  0  0  0  0
    0.4154    9.9055   -5.1298 C   0  0  0  0  0  0  0  0  0  0  0  0
    1.0996    2.9831   -0.0617 H   0  0  0  0  0  0  0  0  0  0  0  0
   -0.0551    1.6459   -0.0730 H   0  0  0  0  0  0  0  0  0  0  0  0
   -0.8174    5.4879   -0.5252 H   0  0  0  0  0  0  0  0  0  0  0  0
    0.7854    5.1951   -1.2657 H   0  0  0  0  0  0  0  0  0  0  0  0
    0.8554    7.1924   -2.2466 H   0  0  0  0  0  0  0  0  0  0  0  0
    0.5904    6.8506    2.6572 H   0  0  0  0  0  0  0  0  0  0  0  0
   -2.8334    5.1904    4.6931 H   0  0  0  0  0  0  0  0  0  0  0  0
   -1.3053    9.0341    5.8296 H   0  0  0  0  0  0  0  0  0  0  0  0
   -2.9428    7.1926    6.1246 H   0  0  0  0  0  0  0  0  0  0  0  0
    0.4611    8.8545    4.0954 H   0  0  0  0  0  0  0  0  0  0  0  0
   -1.2029    7.8371   -4.3145 H   0  0  0  0  0  0  0  0  0  0  0  0
   -2.7696    1.1794    2.5870 H   0  0  0  0  0  0  0  0  0  0  0  0
   -3.7150    2.1218    1.4181 H   0  0  0  0  0  0  0  0  0  0  0  0
   -2.4063    1.0683    0.8566 H   0  0  0  0  0  0  0  0  0  0  0  0
    1.7740    7.2313   -4.6650 H   0  0  0  0  0  0  0  0  0  0  0  0
    0.4303    6.6160   -5.6286 H   0  0  0  0  0  0  0  0  0  0  0  0
   -0.5672    9.9081   -3.1772 H   0  0  0  0  0  0  0  0  0  0  0  0
    1.1390    9.4410   -3.1480 H   0  0  0  0  0  0  0  0  0  0  0  0
    1.9563    8.8706   -6.2756 H   0  0  0  0  0  0  0  0  0  0  0  0
    0.3134    8.6191   -6.8700 H   0  0  0  0  0  0  0  0  0  0  0  0
    1.1167   10.7456   -5.1426 H   0  0  0  0  0  0  0  0  0  0  0  0
   -0.5365   10.2646   -5.5388 H   0  0  0  0  0  0  0  0  0  0  0  0
  2  1  1  0  0  0  0
  3  1  2  0  0  0  0
  4  3  1  0  0  0  0
  5  2  2  0  0  0  0
  5  4  1  0  0  0  0
  6  7  1  0  0  0  0
  7  2  1  0  0  0  0
  7 25  1  0  0  0  0
  7 26  1  0  0  0  0
  8  9  1  0  0  0  0
  9  6  1  0  0  0  0
  9 27  1  0  0  0  0
  9 28  1  0  0  0  0
 10  3  1  0  0  0  0
 11  8  1  0  0  0  0
 11 29  1  0  0  0  0
 12  6  2  0  0  0  0
 13  8  2  0  0  0  0
 14 10  2  0  0  0  0
 14 30  1  0  0  0  0
 15 10  1  0  0  0  0
 15 31  1  0  0  0  0
 16 17  1  0  0  0  0
 16 18  2  0  0  0  0
 16 32  1  0  0  0  0
 17 15  2  0  0  0  0
 17 33  1  0  0  0  0
 18 14  1  0  0  0  0
 18 34  1  0  0  0  0
 19 11  1  0  0  0  0
 19 35  1  0  0  0  0
 20  5  1  0  0  0  0
 20 36  1  0  0  0  0
 20 37  1  0  0  0  0
 20 38  1  0  0  0  0
 21 19  1  0  0  0  0
 21 39  1  0  0  0  0
 21 40  1  0  0  0  0
 22 19  1  0  0  0  0
 22 41  1  0  0  0  0
 22 42  1  0  0  0  0
 23 21  1  0  0  0  0
 23 43  1  0  0  0  0
 23 44  1  0  0  0  0
 24 22  1  0  0  0  0
 24 23  1  0  0  0  0
 24 45  1  0  0  0  0
 24 46  1  0  0  0  0
M  END
>  <Mol_ID>
9194

>  <Formula>
C18H21ClN2O3S

>  <MolWeight>
380.88894

>  <Cat>
P2702

>  <Name>
WAY-332058

>  <Synonyms>
N/A

>  <Target>
beta-catenin

>  <Form>
free base

>  <CAS>
1015858-75-9

>  <URL>
N/A

$$$$
