WAY-328168
 OpenBabel08302521353D

 48 51  0  0  0  0  0  0  0  0999 V2000
    3.0661   -0.5746    2.5407 O   0  0  0  0  0  0  0  0  0  0  0  0
    1.6807   -0.6971    2.8444 C   0  0  0  0  0  0  0  0  0  0  0  0
   -0.4108   -5.6086    0.8174 C   0  0  0  0  0  0  0  0  0  0  0  0
   -0.1486   -6.5008    1.6269 O   0  0  0  0  0  0  0  0  0  0  0  0
    3.0358   -1.1769    0.1424 C   0  0  0  0  0  0  0  0  0  0  0  0
    3.3608   -0.3238    1.2207 C   0  0  0  0  0  0  0  0  0  0  0  0
    3.5357   -0.8120   -1.1282 C   0  0  0  0  0  0  0  0  0  0  0  0
    4.1278    0.8348    1.0117 C   0  0  0  0  0  0  0  0  0  0  0  0
    4.2952    0.3443   -1.3307 C   0  0  0  0  0  0  0  0  0  0  0  0
    4.5821    1.1747   -0.2624 C   0  0  0  0  0  0  0  0  0  0  0  0
    2.2248   -2.3008    0.2868 N   0  0  0  0  0  0  0  0  0  0  0  0
    1.4580   -2.7608   -0.8717 C   0  0  0  0  0  0  0  0  0  0  0  0
    2.7018   -3.4193    1.1278 C   0  0  0  0  0  0  0  0  0  0  0  0
    0.2039   -3.4744   -0.3742 C   0  0  0  0  0  0  0  0  0  0  0  0
    1.4929   -4.2631    1.6143 C   0  0  0  0  0  0  0  0  0  0  0  0
    0.4875   -4.5601    0.5742 N   0  0  0  0  0  0  0  0  0  0  0  0
   -1.6467   -5.6793    0.0216 C   0  0  0  0  0  0  0  0  0  0  0  0
   -2.2630   -6.8455   -0.4921 C   0  0  0  0  0  0  0  0  0  0  0  0
   -2.3719   -4.5952   -0.2967 N   0  0  0  0  0  0  0  0  0  0  0  0
   -3.2986   -6.3894   -1.2698 C   0  0  0  0  0  0  0  0  0  0  0  0
   -3.3743   -5.0353   -1.1314 O   0  0  0  0  0  0  0  0  0  0  0  0
   -4.2670   -7.0051   -2.1663 C   0  0  0  0  0  0  0  0  0  0  0  0
   -4.3791   -8.3987   -2.2309 C   0  0  0  0  0  0  0  0  0  0  0  0
   -5.0861   -6.2258   -3.0013 C   0  0  0  0  0  0  0  0  0  0  0  0
   -5.2898   -9.0020   -3.1005 C   0  0  0  0  0  0  0  0  0  0  0  0
   -5.9973   -6.8290   -3.8706 C   0  0  0  0  0  0  0  0  0  0  0  0
   -6.0995   -8.2165   -3.9179 C   0  0  0  0  0  0  0  0  0  0  0  0
    1.1301    0.2187    2.6177 H   0  0  0  0  0  0  0  0  0  0  0  0
    1.2042   -1.5431    2.3539 H   0  0  0  0  0  0  0  0  0  0  0  0
    1.6063   -0.8863    3.9213 H   0  0  0  0  0  0  0  0  0  0  0  0
    3.3543   -1.4423   -1.9947 H   0  0  0  0  0  0  0  0  0  0  0  0
    4.3650    1.4804    1.8522 H   0  0  0  0  0  0  0  0  0  0  0  0
    4.6561    0.5825   -2.3300 H   0  0  0  0  0  0  0  0  0  0  0  0
    5.1706    2.0750   -0.4129 H   0  0  0  0  0  0  0  0  0  0  0  0
    1.1333   -1.9287   -1.5082 H   0  0  0  0  0  0  0  0  0  0  0  0
    2.0634   -3.4459   -1.4793 H   0  0  0  0  0  0  0  0  0  0  0  0
    3.3689   -4.0546    0.5317 H   0  0  0  0  0  0  0  0  0  0  0  0
    3.2718   -3.0795    1.9982 H   0  0  0  0  0  0  0  0  0  0  0  0
   -0.4506   -2.7596    0.1391 H   0  0  0  0  0  0  0  0  0  0  0  0
   -0.3078   -3.8663   -1.2562 H   0  0  0  0  0  0  0  0  0  0  0  0
    0.9559   -3.7208    2.4023 H   0  0  0  0  0  0  0  0  0  0  0  0
    1.8528   -5.1926    2.0677 H   0  0  0  0  0  0  0  0  0  0  0  0
   -1.9276   -7.8658   -0.3711 H   0  0  0  0  0  0  0  0  0  0  0  0
   -3.7577   -9.0375   -1.6067 H   0  0  0  0  0  0  0  0  0  0  0  0
   -5.0215   -5.1393   -2.9892 H   0  0  0  0  0  0  0  0  0  0  0  0
   -5.3688  -10.0851   -3.1373 H   0  0  0  0  0  0  0  0  0  0  0  0
   -6.6254   -6.2146   -4.5099 H   0  0  0  0  0  0  0  0  0  0  0  0
   -6.8106   -8.6867   -4.5914 H   0  0  0  0  0  0  0  0  0  0  0  0
  1  2  1  0  0  0  0
  1  6  1  0  0  0  0
  2 28  1  0  0  0  0
  2 29  1  0  0  0  0
  2 30  1  0  0  0  0
  3  4  2  0  0  0  0
  3 16  1  0  0  0  0
  3 17  1  0  0  0  0
  5  6  2  0  0  0  0
  5  7  1  0  0  0  0
  5 11  1  0  0  0  0
  6  8  1  0  0  0  0
  7  9  2  0  0  0  0
  7 31  1  0  0  0  0
  8 10  2  0  0  0  0
  8 32  1  0  0  0  0
  9 10  1  0  0  0  0
  9 33  1  0  0  0  0
 10 34  1  0  0  0  0
 11 12  1  0  0  0  0
 11 13  1  0  0  0  0
 12 14  1  0  0  0  0
 12 35  1  0  0  0  0
 12 36  1  0  0  0  0
 13 15  1  0  0  0  0
 13 37  1  0  0  0  0
 13 38  1  0  0  0  0
 14 16  1  0  0  0  0
 14 39  1  0  0  0  0
 14 40  1  0  0  0  0
 15 16  1  0  0  0  0
 15 41  1  0  0  0  0
 15 42  1  0  0  0  0
 17 18  1  0  0  0  0
 17 19  2  0  0  0  0
 18 20  2  0  0  0  0
 18 43  1  0  0  0  0
 19 21  1  0  0  0  0
 20 21  1  0  0  0  0
 20 22  1  0  0  0  0
 22 23  2  0  0  0  0
 22 24  1  0  0  0  0
 23 25  1  0  0  0  0
 23 44  1  0  0  0  0
 24 26  2  0  0  0  0
 24 45  1  0  0  0  0
 25 27  2  0  0  0  0
 25 46  1  0  0  0  0
 26 27  1  0  0  0  0
 26 47  1  0  0  0  0
 27 48  1  0  0  0  0
M  END
>  <Mol_ID>
6925

>  <Formula>
C21H20ClN3O3

>  <MolWeight>
397.8548

>  <Cat>
E2809

>  <Name>
WAY-328168

>  <Target>
Others

>  <Form>
Free base

>  <CAS>
909856-46-8

>  <URL>
https://www.selleckchem.com/products/way-328168.html

$$$$
