WAY-312133
 OpenBabel08302521393D

 31 33  0  0  0  0  0  0  0  0999 V2000
   -1.9630   -0.8353    0.2144 C   0  0  0  0  0  0  0  0  0  0  0  0
   -0.9460   -1.6310   -0.0172 N   0  0  0  0  0  0  0  0  0  0  0  0
   -3.2542   -1.2982    0.1070 N   0  0  0  0  0  0  0  0  0  0  0  0
   -1.5896    0.7936    0.5269 S   0  0  0  0  0  0  0  0  0  0  0  0
   -4.4010   -0.6177    0.4467 C   0  0  0  0  0  0  0  0  0  0  0  0
    0.0785    0.4607    0.2789 C   0  0  0  0  0  0  0  0  0  0  0  0
    0.2333   -0.9049    0.0411 C   0  0  0  0  0  0  0  0  0  0  0  0
   -5.6781   -1.2554    0.0272 C   0  0  0  0  0  0  0  0  0  0  0  0
    1.1729    1.3398    0.2877 C   0  0  0  0  0  0  0  0  0  0  0  0
   -4.4642    0.4537    1.0374 O   0  0  0  0  0  0  0  0  0  0  0  0
   -8.0117   -0.8777   -0.5310 N   0  0  0  0  0  0  0  0  0  0  0  0
    1.5337   -1.4138   -0.1380 C   0  0  0  0  0  0  0  0  0  0  0  0
    2.4551    0.8238    0.0635 C   0  0  0  0  0  0  0  0  0  0  0  0
   -6.8013   -0.4415   -0.1012 C   0  0  0  0  0  0  0  0  0  0  0  0
    2.6346   -0.5441   -0.1271 C   0  0  0  0  0  0  0  0  0  0  0  0
    3.4439    1.7707    0.0546 O   0  0  0  0  0  0  0  0  0  0  0  0
   -5.8280   -2.6119   -0.2727 C   0  0  0  0  0  0  0  0  0  0  0  0
   -8.1115   -2.1868   -0.8399 C   0  0  0  0  0  0  0  0  0  0  0  0
    4.7648    1.3274   -0.2296 C   0  0  0  0  0  0  0  0  0  0  0  0
   -7.0625   -3.0841   -0.7192 C   0  0  0  0  0  0  0  0  0  0  0  0
   -3.2839   -2.2216   -0.2955 H   0  0  0  0  0  0  0  0  0  0  0  0
    1.0278    2.4039    0.4494 H   0  0  0  0  0  0  0  0  0  0  0  0
    1.6745   -2.4783   -0.2990 H   0  0  0  0  0  0  0  0  0  0  0  0
   -6.7613    0.6189    0.1383 H   0  0  0  0  0  0  0  0  0  0  0  0
    3.6190   -0.9754   -0.2796 H   0  0  0  0  0  0  0  0  0  0  0  0
   -5.0179   -3.3239   -0.1536 H   0  0  0  0  0  0  0  0  0  0  0  0
   -9.0875   -2.5064   -1.1951 H   0  0  0  0  0  0  0  0  0  0  0  0
    5.1260    0.6501    0.5498 H   0  0  0  0  0  0  0  0  0  0  0  0
    4.8246    0.8613   -1.2195 H   0  0  0  0  0  0  0  0  0  0  0  0
    5.4171    2.2063   -0.2373 H   0  0  0  0  0  0  0  0  0  0  0  0
   -7.2050   -4.1302   -0.9686 H   0  0  0  0  0  0  0  0  0  0  0  0
  2  1  2  0  0  0  0
  3  1  1  0  0  0  0
  3 21  1  0  0  0  0
  4  1  1  0  0  0  0
  5  3  1  0  0  0  0
  6  4  1  0  0  0  0
  7  2  1  0  0  0  0
  7  6  2  0  0  0  0
  8  5  1  0  0  0  0
  9  6  1  0  0  0  0
  9 22  1  0  0  0  0
 10  5  2  0  0  0  0
 11 14  2  0  0  0  0
 11 18  1  0  0  0  0
 12  7  1  0  0  0  0
 12 23  1  0  0  0  0
 13  9  2  0  0  0  0
 14  8  1  0  0  0  0
 14 24  1  0  0  0  0
 15 12  2  0  0  0  0
 15 13  1  0  0  0  0
 15 25  1  0  0  0  0
 16 13  1  0  0  0  0
 17  8  2  0  0  0  0
 17 26  1  0  0  0  0
 18 20  2  0  0  0  0
 18 27  1  0  0  0  0
 19 16  1  0  0  0  0
 19 28  1  0  0  0  0
 19 29  1  0  0  0  0
 19 30  1  0  0  0  0
 20 17  1  0  0  0  0
 20 31  1  0  0  0  0
M  END
>  <Mol_ID>
8107

>  <Formula>
C14H11N3O2S

>  <MolWeight>
285.32104

>  <Cat>
P2226

>  <Name>
WAY-312133

>  <Synonyms>
N/A

>  <Target>
ubiquitin

>  <Form>
free base

>  <CAS>
63894-03-1

>  <URL>
N/A

$$$$
