WAY-382062
 OpenBabel08302521393D

 41 43  0  0  0  0  0  0  0  0999 V2000
   -0.0692    8.2727   -0.2853 C   0  0  0  0  0  0  0  0  0  0  0  0
   -1.2567    8.7588   -0.8174 C   0  0  0  0  0  0  0  0  0  0  0  0
    0.2518    6.8540   -0.1328 C   0  0  0  0  0  0  0  0  0  0  0  0
   -1.2526   10.1194   -0.8360 O   0  0  0  0  0  0  0  0  0  0  0  0
    0.6823    9.4403    0.0662 C   0  0  0  0  0  0  0  0  0  0  0  0
   -0.0776   10.5321   -0.2985 C   0  0  0  0  0  0  0  0  0  0  0  0
    1.9927    5.2467   -0.0188 N   0  0  0  0  0  0  0  0  0  0  0  0
    1.6122    6.5565   -0.1082 N   0  0  0  0  0  0  0  0  0  0  0  0
    3.5567    3.4432    0.1108 C   0  0  0  0  0  0  0  0  0  0  0  0
    3.2448    4.8992   -0.0458 C   0  0  0  0  0  0  0  0  0  0  0  0
    2.6669    2.4988   -0.4189 C   0  0  0  0  0  0  0  0  0  0  0  0
    2.8509    1.1255   -0.1873 C   0  0  0  0  0  0  0  0  0  0  0  0
   -0.6335    6.0026   -0.0641 O   0  0  0  0  0  0  0  0  0  0  0  0
    4.6614    3.0147    0.8486 C   0  0  0  0  0  0  0  0  0  0  0  0
    3.9558    0.6938    0.5821 C   0  0  0  0  0  0  0  0  0  0  0  0
    4.8612    1.6479    1.0770 C   0  0  0  0  0  0  0  0  0  0  0  0
   -2.4789    8.1398   -1.3780 C   0  0  0  0  0  0  0  0  0  0  0  0
    0.1081   11.9956   -0.2304 C   0  0  0  0  0  0  0  0  0  0  0  0
    4.3991    5.8616   -0.1949 C   0  0  0  0  0  0  0  0  0  0  0  0
    1.9424    0.1735   -0.6788 C   0  0  0  0  0  0  0  0  0  0  0  0
    4.1071   -0.6766    0.8551 C   0  0  0  0  0  0  0  0  0  0  0  0
    2.1034   -1.1831   -0.3920 C   0  0  0  0  0  0  0  0  0  0  0  0
    3.1814   -1.6072    0.3788 C   0  0  0  0  0  0  0  0  0  0  0  0
    1.6498    9.4863    0.5450 H   0  0  0  0  0  0  0  0  0  0  0  0
    2.3032    7.2826   -0.2295 H   0  0  0  0  0  0  0  0  0  0  0  0
    1.8042    2.8395   -0.9904 H   0  0  0  0  0  0  0  0  0  0  0  0
    5.3522    3.7236    1.2952 H   0  0  0  0  0  0  0  0  0  0  0  0
    5.7147    1.3339    1.6743 H   0  0  0  0  0  0  0  0  0  0  0  0
   -3.3640    8.4982   -0.8425 H   0  0  0  0  0  0  0  0  0  0  0  0
   -2.5858    8.4126   -2.4329 H   0  0  0  0  0  0  0  0  0  0  0  0
   -2.4668    7.0503   -1.3155 H   0  0  0  0  0  0  0  0  0  0  0  0
    0.1432   12.4183   -1.2398 H   0  0  0  0  0  0  0  0  0  0  0  0
   -0.7230   12.4651    0.3057 H   0  0  0  0  0  0  0  0  0  0  0  0
    1.0379   12.2565    0.2828 H   0  0  0  0  0  0  0  0  0  0  0  0
    4.2069    6.5512   -1.0214 H   0  0  0  0  0  0  0  0  0  0  0  0
    4.5207    6.4272    0.7329 H   0  0  0  0  0  0  0  0  0  0  0  0
    5.3340    5.3408   -0.4216 H   0  0  0  0  0  0  0  0  0  0  0  0
    1.0877    0.4870   -1.2748 H   0  0  0  0  0  0  0  0  0  0  0  0
    4.9393   -1.0289    1.4603 H   0  0  0  0  0  0  0  0  0  0  0  0
    1.3786   -1.9048   -0.7607 H   0  0  0  0  0  0  0  0  0  0  0  0
    3.2976   -2.6618    0.6170 H   0  0  0  0  0  0  0  0  0  0  0  0
  2  1  2  0  0  0  0
  3  1  1  0  0  0  0
  4  2  1  0  0  0  0
  5  1  1  0  0  0  0
  5 24  1  0  0  0  0
  6  5  2  0  0  0  0
  6  4  1  0  0  0  0
  7  8  1  0  0  0  0
  8  3  1  0  0  0  0
  8 25  1  0  0  0  0
  9 10  1  0  0  0  0
 10  7  2  0  0  0  0
 11  9  2  0  0  0  0
 11 26  1  0  0  0  0
 12 11  1  0  0  0  0
 13  3  2  0  0  0  0
 14  9  1  0  0  0  0
 14 27  1  0  0  0  0
 15 16  1  0  0  0  0
 15 12  2  0  0  0  0
 16 14  2  0  0  0  0
 16 28  1  0  0  0  0
 17  2  1  0  0  0  0
 17 29  1  0  0  0  0
 17 30  1  0  0  0  0
 17 31  1  0  0  0  0
 18  6  1  0  0  0  0
 18 32  1  0  0  0  0
 18 33  1  0  0  0  0
 18 34  1  0  0  0  0
 19 10  1  0  0  0  0
 19 35  1  0  0  0  0
 19 36  1  0  0  0  0
 19 37  1  0  0  0  0
 20 12  1  0  0  0  0
 20 38  1  0  0  0  0
 21 15  1  0  0  0  0
 21 39  1  0  0  0  0
 22 20  2  0  0  0  0
 22 40  1  0  0  0  0
 23 21  2  0  0  0  0
 23 22  1  0  0  0  0
 23 41  1  0  0  0  0
M  END
>  <Mol_ID>
8098

>  <Formula>
C19H18N2O2

>  <MolWeight>
306.35842

>  <Cat>
P2805

>  <Name>
WAY-382062

>  <Synonyms>
N/A

>  <Target>
a7b1 integri

>  <Form>
free base

>  <CAS>
536715-05-6

>  <URL>
N/A

$$$$
