WAY-642555
 OpenBabel08302521453D

 50 53  0  0  0  0  0  0  0  0999 V2000
   -0.9953   -0.9414    0.5332 N   0  0  0  0  0  0  0  0  0  0  0  0
   -0.3906    1.3416    0.1680 C   0  0  3  0  0  0  0  0  0  0  0  0
    0.3087   -0.7984    0.8725 C   0  0  0  0  0  0  0  0  0  0  0  0
   -1.5442    0.2994    0.3024 C   0  0  0  0  0  0  0  0  0  0  0  0
    0.6937    0.4916    0.6155 N   0  0  0  0  0  0  0  0  0  0  0  0
   -2.6228   -7.9530    2.1055 S   0  0  0  0  0  0  0  0  0  0  0  0
   -0.3694    2.6432    0.9684 C   0  0  0  0  0  0  0  0  0  0  0  0
   -2.0297   -6.2791    1.9202 C   0  0  0  0  0  0  0  0  0  0  0  0
   -1.5140   -2.1892   -0.0061 C   0  0  0  0  0  0  0  0  0  0  0  0
   -2.0211   -3.2950    0.9285 C   0  0  0  0  0  0  0  0  0  0  0  0
    0.7693    3.5458    0.8942 C   0  0  0  0  0  0  0  0  0  0  0  0
   -1.6319   -8.8581    1.5534 O   0  0  0  0  0  0  0  0  0  0  0  0
   -3.1805   -8.1337    3.4257 O   0  0  0  0  0  0  0  0  0  0  0  0
    1.0576   -1.6525    1.3135 O   0  0  0  0  0  0  0  0  0  0  0  0
   -2.7257    0.5043    0.0423 O   0  0  0  0  0  0  0  0  0  0  0  0
   -2.4169   -4.4545    0.2508 N   0  0  0  0  0  0  0  0  0  0  0  0
   -3.0076   -5.5916    0.9581 C   0  0  3  0  0  0  0  0  0  0  0  0
   -3.9597   -7.8292    0.9367 C   0  0  0  0  0  0  0  0  0  0  0  0
   -2.0857   -3.1931    2.1467 O   0  0  0  0  0  0  0  0  0  0  0  0
   -3.5419   -6.6881    0.0168 C   0  0  0  0  0  0  0  0  0  0  0  0
    0.7381    4.7537    1.6389 C   0  0  0  0  0  0  0  0  0  0  0  0
   -0.4033    1.6422   -1.3506 C   0  0  0  0  0  0  0  0  0  0  0  0
   -1.4603    2.9897    1.7813 C   0  0  0  0  0  0  0  0  0  0  0  0
    1.9508    3.3347    0.1248 C   0  0  0  0  0  0  0  0  0  0  0  0
   -1.4583    4.1805    2.5054 C   0  0  0  0  0  0  0  0  0  0  0  0
   -0.3735    5.0513    2.4318 C   0  0  0  0  0  0  0  0  0  0  0  0
    1.8140    5.6633    1.5890 C   0  0  0  0  0  0  0  0  0  0  0  0
    3.0064    4.2515    0.0688 C   0  0  0  0  0  0  0  0  0  0  0  0
    2.9391    5.4188    0.8061 C   0  0  0  0  0  0  0  0  0  0  0  0
    1.5560    0.8275    1.0261 H   0  0  0  0  0  0  0  0  0  0  0  0
   -2.0239   -5.7988    2.9012 H   0  0  0  0  0  0  0  0  0  0  0  0
   -1.0132   -6.3220    1.5192 H   0  0  0  0  0  0  0  0  0  0  0  0
   -2.3262   -1.9517   -0.7014 H   0  0  0  0  0  0  0  0  0  0  0  0
   -0.6969   -2.6321   -0.5925 H   0  0  0  0  0  0  0  0  0  0  0  0
   -2.4228   -4.4489   -0.7639 H   0  0  0  0  0  0  0  0  0  0  0  0
   -3.8538   -5.1956    1.5338 H   0  0  0  0  0  0  0  0  0  0  0  0
   -4.0968   -8.7827    0.4218 H   0  0  0  0  0  0  0  0  0  0  0  0
   -4.8670   -7.5754    1.4944 H   0  0  0  0  0  0  0  0  0  0  0  0
   -4.3844   -6.3430   -0.5912 H   0  0  0  0  0  0  0  0  0  0  0  0
   -2.7567   -7.0298   -0.6699 H   0  0  0  0  0  0  0  0  0  0  0  0
   -0.4852    0.7284   -1.9503 H   0  0  0  0  0  0  0  0  0  0  0  0
   -1.2729    2.2676   -1.5993 H   0  0  0  0  0  0  0  0  0  0  0  0
    0.4735    2.1751   -1.7192 H   0  0  0  0  0  0  0  0  0  0  0  0
   -2.3321    2.3452    1.8660 H   0  0  0  0  0  0  0  0  0  0  0  0
    2.0866    2.4349   -0.4687 H   0  0  0  0  0  0  0  0  0  0  0  0
   -2.3095    4.4391    3.1303 H   0  0  0  0  0  0  0  0  0  0  0  0
   -0.4058    5.9762    3.0068 H   0  0  0  0  0  0  0  0  0  0  0  0
    1.7823    6.5858    2.1669 H   0  0  0  0  0  0  0  0  0  0  0  0
    3.8743    4.0452   -0.5535 H   0  0  0  0  0  0  0  0  0  0  0  0
    3.7558    6.1354    0.7757 H   0  0  0  0  0  0  0  0  0  0  0  0
  2  4  1  0  0  0  0
  3  1  1  0  0  0  0
  4  1  1  0  0  0  0
  5  3  1  0  0  0  0
  5  2  1  0  0  0  0
  5 30  1  0  0  0  0
  6  8  1  0  0  0  0
  6 18  1  0  0  0  0
  7  2  1  0  0  0  0
  8 17  1  0  0  0  0
  8 31  1  0  0  0  0
  8 32  1  0  0  0  0
  9  1  1  0  0  0  0
  9 33  1  0  0  0  0
  9 34  1  0  0  0  0
 10  9  1  0  0  0  0
 11  7  1  0  0  0  0
 12  6  2  0  0  0  0
 13  6  2  0  0  0  0
 14  3  2  0  0  0  0
 15  4  2  0  0  0  0
 16 10  1  0  0  0  0
 16 35  1  0  0  0  0
 17 16  1  0  0  0  0
 17 36  1  0  0  0  0
 18 20  1  0  0  0  0
 18 37  1  0  0  0  0
 18 38  1  0  0  0  0
 19 10  2  0  0  0  0
 20 17  1  0  0  0  0
 20 39  1  0  0  0  0
 20 40  1  0  0  0  0
 21 11  2  0  0  0  0
 22  2  1  0  0  0  0
 22 41  1  0  0  0  0
 22 42  1  0  0  0  0
 22 43  1  0  0  0  0
 23  7  2  0  0  0  0
 23 44  1  0  0  0  0
 24 11  1  0  0  0  0
 24 45  1  0  0  0  0
 25 23  1  0  0  0  0
 25 46  1  0  0  0  0
 26 25  2  0  0  0  0
 26 21  1  0  0  0  0
 26 47  1  0  0  0  0
 27 21  1  0  0  0  0
 27 48  1  0  0  0  0
 28 24  2  0  0  0  0
 28 49  1  0  0  0  0
 29 28  1  0  0  0  0
 29 27  2  0  0  0  0
 29 50  1  0  0  0  0
M  END
>  <Mol_ID>
9302

>  <Formula>
C20H21N3O5S

>  <MolWeight>
415.46284

>  <Cat>
P3124

>  <Name>
WAY-642555

>  <Synonyms>
N/A

>  <Target>
Mcl-1

>  <Form>
free base

>  <CAS>
956780-46-4

>  <URL>
N/A

$$$$
