WAY-345057
 OpenBabel08302521403D

 48 51  0  0  0  0  0  0  0  0999 V2000
   -0.6597    0.0889   -0.0092 C   0  0  0  0  0  0  0  0  0  0  0  0
   -0.0308   -1.0422    0.5179 C   0  0  0  0  0  0  0  0  0  0  0  0
    0.0806    1.1845   -0.4498 C   0  0  0  0  0  0  0  0  0  0  0  0
   -2.0710    0.1444   -0.0746 C   0  0  0  0  0  0  0  0  0  0  0  0
    1.4526   -1.1214    0.5215 C   0  0  0  0  0  0  0  0  0  0  0  0
   -0.7933   -2.0999    1.0306 C   0  0  0  0  0  0  0  0  0  0  0  0
    1.5328    1.2101   -0.2126 C   0  0  0  0  0  0  0  0  0  0  0  0
   -0.5433    2.2918   -1.0348 C   0  0  0  0  0  0  0  0  0  0  0  0
   -2.8203   -0.9179    0.4538 C   0  0  0  0  0  0  0  0  0  0  0  0
   -2.6905    1.2660   -0.6528 C   0  0  0  0  0  0  0  0  0  0  0  0
    2.1539   -0.0127    0.0304 N   0  0  0  0  0  0  0  0  0  0  0  0
    1.9831   -2.1256    0.9905 O   0  0  0  0  0  0  0  0  0  0  0  0
   -2.1854   -2.0283    1.0132 C   0  0  0  0  0  0  0  0  0  0  0  0
    2.0879    2.3004   -0.1859 O   0  0  0  0  0  0  0  0  0  0  0  0
   -1.9290    2.3248   -1.1499 C   0  0  0  0  0  0  0  0  0  0  0  0
    3.6153   -0.0332    0.1721 C   0  0  0  0  0  0  0  0  0  0  0  0
    4.3842    0.6967   -0.9450 C   0  0  0  0  0  0  0  0  0  0  0  0
    5.8993    0.6517   -0.7398 C   0  0  0  0  0  0  0  0  0  0  0  0
    6.4769   -0.7262   -0.9904 C   0  0  0  0  0  0  0  0  0  0  0  0
    7.8264   -0.9091   -0.7381 N   0  0  0  0  0  0  0  0  0  0  0  0
    5.7690   -1.6289   -1.4389 O   0  0  0  0  0  0  0  0  0  0  0  0
    8.4331   -2.1803   -1.1210 C   0  0  0  0  0  0  0  0  0  0  0  0
    8.7403    0.0639   -0.1342 C   0  0  0  0  0  0  0  0  0  0  0  0
    9.0958   -2.8358    0.0820 C   0  0  0  0  0  0  0  0  0  0  0  0
    9.4792   -0.5500    1.0583 C   0  0  0  0  0  0  0  0  0  0  0  0
   10.1232   -1.8899    0.6986 C   0  0  0  0  0  0  0  0  0  0  0  0
   -0.3050   -2.9778    1.4507 H   0  0  0  0  0  0  0  0  0  0  0  0
    0.0523    3.1302   -1.3916 H   0  0  0  0  0  0  0  0  0  0  0  0
   -3.9082   -0.8826    0.4440 H   0  0  0  0  0  0  0  0  0  0  0  0
   -3.7744    1.3246   -0.7191 H   0  0  0  0  0  0  0  0  0  0  0  0
   -2.7772   -2.8399    1.4304 H   0  0  0  0  0  0  0  0  0  0  0  0
   -2.4150    3.1852   -1.6042 H   0  0  0  0  0  0  0  0  0  0  0  0
    3.8479    0.4201    1.1435 H   0  0  0  0  0  0  0  0  0  0  0  0
    3.9509   -1.0745    0.2227 H   0  0  0  0  0  0  0  0  0  0  0  0
    4.1061    0.2788   -1.9198 H   0  0  0  0  0  0  0  0  0  0  0  0
    4.1166    1.7553   -0.9764 H   0  0  0  0  0  0  0  0  0  0  0  0
    6.3677    1.3327   -1.4616 H   0  0  0  0  0  0  0  0  0  0  0  0
    6.1337    0.9947    0.2719 H   0  0  0  0  0  0  0  0  0  0  0  0
    9.1727   -1.9655   -1.9017 H   0  0  0  0  0  0  0  0  0  0  0  0
    7.6987   -2.8651   -1.5552 H   0  0  0  0  0  0  0  0  0  0  0  0
    8.2213    0.9672    0.1916 H   0  0  0  0  0  0  0  0  0  0  0  0
    9.4553    0.3643   -0.9088 H   0  0  0  0  0  0  0  0  0  0  0  0
    9.5760   -3.7721   -0.2203 H   0  0  0  0  0  0  0  0  0  0  0  0
    8.3330   -3.0840    0.8309 H   0  0  0  0  0  0  0  0  0  0  0  0
    8.7696   -0.7075    1.8804 H   0  0  0  0  0  0  0  0  0  0  0  0
   10.2451    0.1441    1.4216 H   0  0  0  0  0  0  0  0  0  0  0  0
   10.5611   -2.3481    1.5918 H   0  0  0  0  0  0  0  0  0  0  0  0
   10.9399   -1.7240   -0.0147 H   0  0  0  0  0  0  0  0  0  0  0  0
  1  2  1  0  0  0  0
  1  3  2  0  0  0  0
  1  4  1  0  0  0  0
  2  5  1  0  0  0  0
  2  6  2  0  0  0  0
  3  7  1  0  0  0  0
  3  8  1  0  0  0  0
  4  9  1  0  0  0  0
  4 10  2  0  0  0  0
  5 11  1  0  0  0  0
  5 12  2  0  0  0  0
  6 13  1  0  0  0  0
  6 27  1  0  0  0  0
  7 14  2  0  0  0  0
  7 11  1  0  0  0  0
  8 15  2  0  0  0  0
  8 28  1  0  0  0  0
  9 13  2  0  0  0  0
  9 29  1  0  0  0  0
 10 15  1  0  0  0  0
 10 30  1  0  0  0  0
 11 16  1  0  0  0  0
 13 31  1  0  0  0  0
 15 32  1  0  0  0  0
 16 17  1  0  0  0  0
 16 33  1  0  0  0  0
 16 34  1  0  0  0  0
 17 18  1  0  0  0  0
 17 35  1  0  0  0  0
 17 36  1  0  0  0  0
 18 19  1  0  0  0  0
 18 37  1  0  0  0  0
 18 38  1  0  0  0  0
 19 20  1  0  0  0  0
 19 21  2  0  0  0  0
 20 22  1  0  0  0  0
 20 23  1  0  0  0  0
 22 24  1  0  0  0  0
 22 39  1  0  0  0  0
 22 40  1  0  0  0  0
 23 25  1  0  0  0  0
 23 41  1  0  0  0  0
 23 42  1  0  0  0  0
 24 26  1  0  0  0  0
 24 43  1  0  0  0  0
 24 44  1  0  0  0  0
 25 26  1  0  0  0  0
 25 45  1  0  0  0  0
 25 46  1  0  0  0  0
 26 47  1  0  0  0  0
 26 48  1  0  0  0  0
M  END
>  <Mol_ID>
8288

>  <Formula>
C21H22N2O3

>  <MolWeight>
350.41098

>  <Cat>
P2742

>  <Name>
WAY-345057

>  <Synonyms>
N/A

>  <Target>
PfENT1

>  <Form>
free base

>  <CAS>
312591-60-9

>  <URL>
N/A

$$$$
