WAY-324485
 OpenBabel08302521423D

 32 34  0  0  0  0  0  0  0  0999 V2000
    2.4609    0.6256   -0.0052 C   0  0  0  0  0  0  0  0  0  0  0  0
    2.3740   -0.7679    0.0931 C   0  0  0  0  0  0  0  0  0  0  0  0
    3.6161    1.3652   -0.1151 N   0  0  0  0  0  0  0  0  0  0  0  0
    1.3026    1.3460   -0.0070 N   0  0  0  0  0  0  0  0  0  0  0  0
    1.1630   -1.4257    0.0828 N   0  0  0  0  0  0  0  0  0  0  0  0
    3.5635   -1.6813    0.2825 C   0  0  0  0  0  0  0  0  0  0  0  0
    3.6863    2.7182    0.4679 C   0  0  0  0  0  0  0  0  0  0  0  0
    4.7732    0.9797   -0.9290 C   0  0  0  0  0  0  0  0  0  0  0  0
    0.1103    0.7064    0.0184 C   0  0  0  0  0  0  0  0  0  0  0  0
    0.0461   -0.6934    0.0424 C   0  0  0  0  0  0  0  0  0  0  0  0
    4.7419   -1.0949    0.6359 F   0  0  0  0  0  0  0  0  0  0  0  0
    3.3550   -2.6162    1.2611 F   0  0  0  0  0  0  0  0  0  0  0  0
    3.8455   -2.4023   -0.8454 F   0  0  0  0  0  0  0  0  0  0  0  0
    4.1953    3.7523   -0.5503 C   0  0  0  0  0  0  0  0  0  0  0  0
    5.1847    2.0999   -1.8913 C   0  0  0  0  0  0  0  0  0  0  0  0
   -1.0867    1.4222    0.0153 C   0  0  0  0  0  0  0  0  0  0  0  0
   -1.1865   -1.3379    0.0341 C   0  0  0  0  0  0  0  0  0  0  0  0
    5.4099    3.3288   -1.1884 O   0  0  0  0  0  0  0  0  0  0  0  0
   -2.3264    0.7738    0.0147 C   0  0  0  0  0  0  0  0  0  0  0  0
   -2.3770   -0.6134    0.0173 C   0  0  0  0  0  0  0  0  0  0  0  0
    4.3971    2.6714    1.3029 H   0  0  0  0  0  0  0  0  0  0  0  0
    2.7354    3.0683    0.8858 H   0  0  0  0  0  0  0  0  0  0  0  0
    5.6151    0.7884   -0.2518 H   0  0  0  0  0  0  0  0  0  0  0  0
    4.5818    0.0744   -1.5189 H   0  0  0  0  0  0  0  0  0  0  0  0
    3.4428    3.9556   -1.3210 H   0  0  0  0  0  0  0  0  0  0  0  0
    4.4102    4.6971   -0.0397 H   0  0  0  0  0  0  0  0  0  0  0  0
    6.1187    1.8277   -2.3931 H   0  0  0  0  0  0  0  0  0  0  0  0
    4.4234    2.2600   -2.6645 H   0  0  0  0  0  0  0  0  0  0  0  0
   -1.0509    2.5074    0.0115 H   0  0  0  0  0  0  0  0  0  0  0  0
   -1.2151   -2.4231    0.0437 H   0  0  0  0  0  0  0  0  0  0  0  0
   -3.2472    1.3537    0.0092 H   0  0  0  0  0  0  0  0  0  0  0  0
   -3.3289   -1.1323    0.0099 H   0  0  0  0  0  0  0  0  0  0  0  0
  1  2  2  0  0  0  0
  1  3  1  0  0  0  0
  2  5  1  0  0  0  0
  2  6  1  0  0  0  0
  3  7  1  0  0  0  0
  3  8  1  0  0  0  0
  4  1  1  0  0  0  0
  4  9  2  0  0  0  0
  5 10  2  0  0  0  0
  6 11  1  0  0  0  0
  6 12  1  0  0  0  0
  6 13  1  0  0  0  0
  7 14  1  0  0  0  0
  7 21  1  0  0  0  0
  7 22  1  0  0  0  0
  8 15  1  0  0  0  0
  8 23  1  0  0  0  0
  8 24  1  0  0  0  0
  9 16  1  0  0  0  0
  9 10  1  0  0  0  0
 10 17  1  0  0  0  0
 14 18  1  0  0  0  0
 14 25  1  0  0  0  0
 14 26  1  0  0  0  0
 15 18  1  0  0  0  0
 15 27  1  0  0  0  0
 15 28  1  0  0  0  0
 16 29  1  0  0  0  0
 17 20  2  0  0  0  0
 17 30  1  0  0  0  0
 19 16  2  0  0  0  0
 19 20  1  0  0  0  0
 19 31  1  0  0  0  0
 20 32  1  0  0  0  0
M  END
>  <Mol_ID>
8635

>  <Formula>
C13H12F3N3O

>  <MolWeight>
283.2490896

>  <Cat>
P2323

>  <Name>
WAY-324485

>  <Synonyms>
N/A

>  <Target>
Anti-infection

>  <Form>
free base

>  <CAS>
337920-42-0

>  <URL>
N/A

$$$$
