WAY-638199
 OpenBabel08302521423D

 36 38  0  0  0  0  0  0  0  0999 V2000
    2.2056    0.6187   -0.2150 N   0  0  0  0  0  0  0  0  0  0  0  0
    1.8855    0.1449    1.0178 C   0  0  0  0  0  0  0  0  0  0  0  0
    1.3870    0.0801   -1.1671 C   0  0  0  0  0  0  0  0  0  0  0  0
    0.4744   -0.9635   -0.5016 C   0  0  3  0  0  0  0  0  0  0  0  0
    0.8933   -0.7948    0.8752 N   0  0  0  0  0  0  0  0  0  0  0  0
    3.2818    1.5469   -0.4724 C   0  0  0  0  0  0  0  0  0  0  0  0
    2.3520    0.4819    2.0924 O   0  0  0  0  0  0  0  0  0  0  0  0
    1.3776    0.3578   -2.3609 O   0  0  0  0  0  0  0  0  0  0  0  0
   -0.8007   -3.0917   -1.4958 S   0  0  0  0  0  0  0  0  0  0  0  0
   -1.0125   -0.6299   -0.6534 C   0  0  0  0  0  0  0  0  0  0  0  0
    4.5766    0.8095   -0.7390 C   0  0  0  0  0  0  0  0  0  0  0  0
    0.7968   -2.3506   -1.0674 C   0  0  0  0  0  0  0  0  0  0  0  0
    4.8767    0.3549   -2.0356 C   0  0  0  0  0  0  0  0  0  0  0  0
    6.0413   -0.3747   -2.2840 C   0  0  0  0  0  0  0  0  0  0  0  0
   -1.6055   -1.4980   -1.7467 C   0  0  0  0  0  0  0  0  0  0  0  0
    6.4294   -0.8783   -3.4956 O   0  0  0  0  0  0  0  0  0  0  0  0
    6.6282   -0.2047    0.0624 C   0  0  0  0  0  0  0  0  0  0  0  0
    5.4596    0.5149    0.3090 C   0  0  0  0  0  0  0  0  0  0  0  0
    6.9149   -0.6467   -1.2294 C   0  0  0  0  0  0  0  0  0  0  0  0
    5.5550   -0.6499   -4.5943 C   0  0  0  0  0  0  0  0  0  0  0  0
    0.4997   -1.2659    1.6812 H   0  0  0  0  0  0  0  0  0  0  0  0
    3.0273    2.1686   -1.3386 H   0  0  0  0  0  0  0  0  0  0  0  0
    3.4028    2.2141    0.3889 H   0  0  0  0  0  0  0  0  0  0  0  0
   -1.5436   -0.8329    0.2873 H   0  0  0  0  0  0  0  0  0  0  0  0
   -1.1801    0.4312   -0.8756 H   0  0  0  0  0  0  0  0  0  0  0  0
    1.3995   -2.3019   -1.9808 H   0  0  0  0  0  0  0  0  0  0  0  0
    1.3191   -2.9946   -0.3532 H   0  0  0  0  0  0  0  0  0  0  0  0
    4.1753    0.5779   -2.8348 H   0  0  0  0  0  0  0  0  0  0  0  0
   -2.6905   -1.5896   -1.6457 H   0  0  0  0  0  0  0  0  0  0  0  0
   -1.3709   -1.1131   -2.7426 H   0  0  0  0  0  0  0  0  0  0  0  0
    7.3126   -0.4297    0.8765 H   0  0  0  0  0  0  0  0  0  0  0  0
    5.2371    0.8359    1.3258 H   0  0  0  0  0  0  0  0  0  0  0  0
    7.8237   -1.2141   -1.4157 H   0  0  0  0  0  0  0  0  0  0  0  0
    4.5676   -1.0883   -4.4145 H   0  0  0  0  0  0  0  0  0  0  0  0
    5.4786    0.4193   -4.8178 H   0  0  0  0  0  0  0  0  0  0  0  0
    5.9823   -1.1447   -5.4718 H   0  0  0  0  0  0  0  0  0  0  0  0
  2  1  1  0  0  0  0
  3  1  1  0  0  0  0
  4  3  1  0  0  0  0
  4  5  1  0  0  0  0
  5  2  1  0  0  0  0
  5 21  1  0  0  0  0
  6  1  1  0  0  0  0
  6 22  1  0  0  0  0
  6 23  1  0  0  0  0
  7  2  2  0  0  0  0
  8  3  2  0  0  0  0
  9 12  1  0  0  0  0
  9 15  1  0  0  0  0
 10  4  1  0  0  0  0
 10 24  1  0  0  0  0
 10 25  1  0  0  0  0
 11  6  1  0  0  0  0
 12  4  1  0  0  0  0
 12 26  1  0  0  0  0
 12 27  1  0  0  0  0
 13 11  2  0  0  0  0
 13 28  1  0  0  0  0
 14 13  1  0  0  0  0
 15 10  1  0  0  0  0
 15 29  1  0  0  0  0
 15 30  1  0  0  0  0
 16 14  1  0  0  0  0
 17 18  2  0  0  0  0
 17 31  1  0  0  0  0
 18 11  1  0  0  0  0
 18 32  1  0  0  0  0
 19 17  1  0  0  0  0
 19 14  2  0  0  0  0
 19 33  1  0  0  0  0
 20 16  1  0  0  0  0
 20 34  1  0  0  0  0
 20 35  1  0  0  0  0
 20 36  1  0  0  0  0
M  END
>  <Mol_ID>
8507

>  <Formula>
C14H16N2O3S

>  <MolWeight>
292.35344

>  <Cat>
P3033

>  <Name>
WAY-638199

>  <Synonyms>
N/A

>  <Target>
Androgen Receptor

>  <Form>
free base

>  <CAS>
1351369-16-8

>  <URL>
N/A

$$$$
