WAY-331996
 OpenBabel08302521443D

 48 50  0  0  0  0  0  0  0  0999 V2000
   -1.3734    0.6719    0.6793 N   0  0  0  0  0  0  0  0  0  0  0  0
   -1.2230   -0.6159    0.4181 C   0  0  0  0  0  0  0  0  0  0  0  0
   -0.1473    1.2319    0.3574 C   0  0  0  0  0  0  0  0  0  0  0  0
    0.0127   -0.9382   -0.0781 O   0  0  0  0  0  0  0  0  0  0  0  0
    0.6915    0.2433   -0.1149 C   0  0  0  0  0  0  0  0  0  0  0  0
   -2.1590   -1.7292    0.5853 C   0  0  0  0  0  0  0  0  0  0  0  0
   -2.4857    4.8811   -1.7308 C   0  0  0  0  0  0  0  0  0  0  0  0
   -3.4385    5.6894   -1.1376 N   0  0  0  0  0  0  0  0  0  0  0  0
   -3.4833   -1.4851    0.9828 C   0  0  0  0  0  0  0  0  0  0  0  0
   -2.0990    5.0596   -2.8838 O   0  0  0  0  0  0  0  0  0  0  0  0
   -0.1427    3.7544   -0.8067 S   0  0  0  0  0  0  0  0  0  0  0  0
    0.1509    2.6654    0.6160 C   0  0  0  0  0  0  0  0  0  0  0  0
   -3.8493    6.9541   -1.7231 C   0  0  0  0  0  0  0  0  0  0  0  0
   -4.4110   -2.5334    1.1031 C   0  0  0  0  0  0  0  0  0  0  0  0
   -1.9683    3.7527   -0.8335 C   0  0  0  0  0  0  0  0  0  0  0  0
   -3.2249    8.0911   -0.9515 C   0  0  0  0  0  0  0  0  0  0  0  0
    2.0912    0.1838   -0.5727 C   0  0  0  0  0  0  0  0  0  0  0  0
   -1.7693   -3.0576    0.3479 C   0  0  0  0  0  0  0  0  0  0  0  0
   -2.6772   -4.1092    0.4898 C   0  0  0  0  0  0  0  0  0  0  0  0
   -3.9932   -3.8473    0.8635 C   0  0  0  0  0  0  0  0  0  0  0  0
   -5.8376   -2.2663    1.4830 C   0  0  0  0  0  0  0  0  0  0  0  0
   -1.8304    8.2488   -0.9473 C   0  0  0  0  0  0  0  0  0  0  0  0
   -4.0065    8.9580   -0.1749 C   0  0  0  0  0  0  0  0  0  0  0  0
   -1.2263    9.2068   -0.1337 C   0  0  0  0  0  0  0  0  0  0  0  0
   -3.3997    9.9247    0.6307 C   0  0  0  0  0  0  0  0  0  0  0  0
   -2.0103   10.0352    0.6658 C   0  0  0  0  0  0  0  0  0  0  0  0
   -3.6348    5.5727   -0.1531 H   0  0  0  0  0  0  0  0  0  0  0  0
   -3.7968   -0.4622    1.1867 H   0  0  0  0  0  0  0  0  0  0  0  0
   -0.4143    3.0278    1.4802 H   0  0  0  0  0  0  0  0  0  0  0  0
    1.2106    2.7651    0.8777 H   0  0  0  0  0  0  0  0  0  0  0  0
   -4.9428    6.9959   -1.6524 H   0  0  0  0  0  0  0  0  0  0  0  0
   -3.5792    7.0168   -2.7830 H   0  0  0  0  0  0  0  0  0  0  0  0
   -2.3441    2.8006   -1.2265 H   0  0  0  0  0  0  0  0  0  0  0  0
   -2.3380    3.8921    0.1875 H   0  0  0  0  0  0  0  0  0  0  0  0
    2.7283   -0.2253    0.2178 H   0  0  0  0  0  0  0  0  0  0  0  0
    2.1842   -0.4597   -1.4534 H   0  0  0  0  0  0  0  0  0  0  0  0
    2.4667    1.1764   -0.8371 H   0  0  0  0  0  0  0  0  0  0  0  0
   -0.7493   -3.2879    0.0475 H   0  0  0  0  0  0  0  0  0  0  0  0
   -2.3583   -5.1309    0.2990 H   0  0  0  0  0  0  0  0  0  0  0  0
   -4.6951   -4.6732    0.9597 H   0  0  0  0  0  0  0  0  0  0  0  0
   -6.5117   -2.7440    0.7638 H   0  0  0  0  0  0  0  0  0  0  0  0
   -6.0450   -2.6585    2.4835 H   0  0  0  0  0  0  0  0  0  0  0  0
   -6.0598   -1.1945    1.4791 H   0  0  0  0  0  0  0  0  0  0  0  0
   -1.2070    7.6023   -1.5641 H   0  0  0  0  0  0  0  0  0  0  0  0
   -5.0912    8.8789   -0.1773 H   0  0  0  0  0  0  0  0  0  0  0  0
   -0.1431    9.2948   -0.1162 H   0  0  0  0  0  0  0  0  0  0  0  0
   -4.0097   10.5842    1.2430 H   0  0  0  0  0  0  0  0  0  0  0  0
   -1.5376   10.7672    1.3153 H   0  0  0  0  0  0  0  0  0  0  0  0
  2  1  2  0  0  0  0
  3  1  1  0  0  0  0
  4  2  1  0  0  0  0
  4  5  1  0  0  0  0
  5  3  2  0  0  0  0
  6  2  1  0  0  0  0
  7 15  1  0  0  0  0
  8  7  1  0  0  0  0
  8 27  1  0  0  0  0
  9  6  2  0  0  0  0
  9 28  1  0  0  0  0
 10  7  2  0  0  0  0
 11 12  1  0  0  0  0
 12  3  1  0  0  0  0
 12 29  1  0  0  0  0
 12 30  1  0  0  0  0
 13  8  1  0  0  0  0
 13 31  1  0  0  0  0
 13 32  1  0  0  0  0
 14  9  1  0  0  0  0
 15 11  1  0  0  0  0
 15 33  1  0  0  0  0
 15 34  1  0  0  0  0
 16 13  1  0  0  0  0
 17  5  1  0  0  0  0
 17 35  1  0  0  0  0
 17 36  1  0  0  0  0
 17 37  1  0  0  0  0
 18  6  1  0  0  0  0
 18 38  1  0  0  0  0
 19 18  2  0  0  0  0
 19 39  1  0  0  0  0
 20 19  1  0  0  0  0
 20 14  2  0  0  0  0
 20 40  1  0  0  0  0
 21 14  1  0  0  0  0
 21 41  1  0  0  0  0
 21 42  1  0  0  0  0
 21 43  1  0  0  0  0
 22 16  2  0  0  0  0
 22 44  1  0  0  0  0
 23 16  1  0  0  0  0
 23 45  1  0  0  0  0
 24 22  1  0  0  0  0
 24 26  2  0  0  0  0
 24 46  1  0  0  0  0
 25 23  2  0  0  0  0
 25 47  1  0  0  0  0
 26 25  1  0  0  0  0
 26 48  1  0  0  0  0
M  END
>  <Mol_ID>
9204

>  <Formula>
C21H22N2O2S

>  <MolWeight>
366.47658

>  <Cat>
P2654

>  <Name>
WAY-331996

>  <Synonyms>
N/A

>  <Target>
beta-catenin

>  <Form>
free base

>  <CAS>
902168-07-4

>  <URL>
N/A

$$$$
