WAY-659873
 OpenBabel08302521433D

 47 49  0  0  0  0  0  0  0  0999 V2000
   -0.4037   -1.2281   -0.0842 C   0  0  0  0  0  0  0  0  0  0  0  0
    0.9555    0.5617    0.0346 N   0  0  0  0  0  0  0  0  0  0  0  0
    0.9131   -0.8207    0.1309 C   0  0  0  0  0  0  0  0  0  0  0  0
   -2.4285   -6.0744   -2.7890 C   0  0  0  0  0  0  0  0  0  0  0  0
   -2.1495   -3.8350   -2.0032 N   0  0  0  0  0  0  0  0  0  0  0  0
   -1.1794   -0.0336   -0.1366 C   0  0  0  0  0  0  0  0  0  0  0  0
   -0.3334    1.0514   -0.0411 C   0  0  0  0  0  0  0  0  0  0  0  0
   -2.7457   -7.5285   -2.5647 C   0  0  0  0  0  0  0  0  0  0  0  0
   -2.3860   -5.1848   -1.7791 C   0  0  0  0  0  0  0  0  0  0  0  0
   -0.8757   -2.6218   -0.2141 C   0  0  0  0  0  0  0  0  0  0  0  0
   -1.8847   -3.3300   -3.2748 C   0  0  0  0  0  0  0  0  0  0  0  0
   -2.2061   -5.6003   -4.1441 C   0  0  0  0  0  0  0  0  0  0  0  0
   -2.2273   -2.8743   -0.8960 C   0  0  0  0  0  0  0  0  0  0  0  0
   -1.9358   -4.3152   -4.3877 C   0  0  0  0  0  0  0  0  0  0  0  0
    2.1733    1.3784   -0.0609 C   0  0  0  0  0  0  0  0  0  0  0  0
   -1.6467   -2.1516   -3.5188 O   0  0  0  0  0  0  0  0  0  0  0  0
   -0.2176   -3.5723    0.2133 O   0  0  0  0  0  0  0  0  0  0  0  0
   -2.8747   -8.2284   -3.7205 F   0  0  0  0  0  0  0  0  0  0  0  0
   -1.7839   -8.1496   -1.8359 F   0  0  0  0  0  0  0  0  0  0  0  0
   -3.9141   -7.6835   -1.8880 F   0  0  0  0  0  0  0  0  0  0  0  0
    2.1349   -1.6468    0.3697 C   0  0  0  0  0  0  0  0  0  0  0  0
    2.5944    2.0533    1.2253 C   0  0  0  0  0  0  0  0  0  0  0  0
   -0.6686    2.5034   -0.0328 C   0  0  0  0  0  0  0  0  0  0  0  0
    2.0335    1.7482    2.4736 C   0  0  0  0  0  0  0  0  0  0  0  0
    3.5742    3.0606    1.1648 C   0  0  0  0  0  0  0  0  0  0  0  0
    3.9165    3.7954    2.3024 C   0  0  0  0  0  0  0  0  0  0  0  0
    2.3684    2.4900    3.6075 C   0  0  0  0  0  0  0  0  0  0  0  0
    3.2948    3.5251    3.5183 C   0  0  0  0  0  0  0  0  0  0  0  0
   -2.2544    0.0450   -0.2366 H   0  0  0  0  0  0  0  0  0  0  0  0
   -2.5472   -5.4892   -0.7473 H   0  0  0  0  0  0  0  0  0  0  0  0
   -2.2661   -6.3078   -4.9682 H   0  0  0  0  0  0  0  0  0  0  0  0
   -2.9296   -3.2428   -0.1396 H   0  0  0  0  0  0  0  0  0  0  0  0
   -2.6448   -1.9425   -1.2864 H   0  0  0  0  0  0  0  0  0  0  0  0
   -1.7701   -3.9237   -5.3864 H   0  0  0  0  0  0  0  0  0  0  0  0
    2.9789    0.7517   -0.4573 H   0  0  0  0  0  0  0  0  0  0  0  0
    1.9624    2.1452   -0.8177 H   0  0  0  0  0  0  0  0  0  0  0  0
    2.5828   -1.9460   -0.5822 H   0  0  0  0  0  0  0  0  0  0  0  0
    2.8842   -1.1043    0.9551 H   0  0  0  0  0  0  0  0  0  0  0  0
    1.8982   -2.5476    0.9427 H   0  0  0  0  0  0  0  0  0  0  0  0
   -0.2582    2.9968    0.8532 H   0  0  0  0  0  0  0  0  0  0  0  0
   -0.2793    3.0000   -0.9262 H   0  0  0  0  0  0  0  0  0  0  0  0
   -1.7540    2.6493   -0.0144 H   0  0  0  0  0  0  0  0  0  0  0  0
    1.3005    0.9506    2.5781 H   0  0  0  0  0  0  0  0  0  0  0  0
    4.0629    3.2984    0.2214 H   0  0  0  0  0  0  0  0  0  0  0  0
    4.6546    4.5907    2.2362 H   0  0  0  0  0  0  0  0  0  0  0  0
    1.8890    2.2667    4.5570 H   0  0  0  0  0  0  0  0  0  0  0  0
    3.5310    4.1191    4.3968 H   0  0  0  0  0  0  0  0  0  0  0  0
  2  3  1  0  0  0  0
  2  7  1  0  0  0  0
  3  1  2  0  0  0  0
  4  9  2  0  0  0  0
  5 13  1  0  0  0  0
  6  1  1  0  0  0  0
  6 29  1  0  0  0  0
  7  6  2  0  0  0  0
  8  4  1  0  0  0  0
  9  5  1  0  0  0  0
  9 30  1  0  0  0  0
 10  1  1  0  0  0  0
 11  5  1  0  0  0  0
 12 14  2  0  0  0  0
 12  4  1  0  0  0  0
 12 31  1  0  0  0  0
 13 10  1  0  0  0  0
 13 32  1  0  0  0  0
 13 33  1  0  0  0  0
 14 11  1  0  0  0  0
 14 34  1  0  0  0  0
 15  2  1  0  0  0  0
 15 35  1  0  0  0  0
 15 36  1  0  0  0  0
 16 11  2  0  0  0  0
 17 10  2  0  0  0  0
 18  8  1  0  0  0  0
 19  8  1  0  0  0  0
 20  8  1  0  0  0  0
 21  3  1  0  0  0  0
 21 37  1  0  0  0  0
 21 38  1  0  0  0  0
 21 39  1  0  0  0  0
 22 15  1  0  0  0  0
 23  7  1  0  0  0  0
 23 40  1  0  0  0  0
 23 41  1  0  0  0  0
 23 42  1  0  0  0  0
 24 22  2  0  0  0  0
 24 43  1  0  0  0  0
 25 22  1  0  0  0  0
 25 44  1  0  0  0  0
 26 25  2  0  0  0  0
 26 45  1  0  0  0  0
 27 24  1  0  0  0  0
 27 46  1  0  0  0  0
 28 26  1  0  0  0  0
 28 27  2  0  0  0  0
 28 47  1  0  0  0  0
M  END
>  <Mol_ID>
8845

>  <Formula>
C21H19F3N2O2

>  <MolWeight>
388.3829696

>  <Cat>
P3193

>  <Name>
WAY-659873

>  <Synonyms>
N/A

>  <Target>
S1PR2

>  <Form>
free base

>  <CAS>
868268-81-9

>  <URL>
N/A

$$$$
