WAY-608174
 OpenBabel08302521443D

 36 38  0  0  0  0  0  0  0  0999 V2000
   -0.1572    1.0777    0.2223 N   0  0  0  0  0  0  0  0  0  0  0  0
   -1.1557    0.3759   -0.3297 C   0  0  0  0  0  0  0  0  0  0  0  0
    0.4168    5.7240    1.8596 N   0  0  0  0  0  0  0  0  0  0  0  0
   -0.7427    5.3091    1.1624 C   0  0  0  0  0  0  0  0  0  0  0  0
    0.7300    0.3379    0.8889 C   0  0  0  0  0  0  0  0  0  0  0  0
   -1.3114   -0.9555   -0.2631 N   0  0  0  0  0  0  0  0  0  0  0  0
    1.5151    5.7289    1.0115 C   0  0  0  0  0  0  0  0  0  0  0  0
   -0.1237    6.7746   -0.6344 O   0  0  0  0  0  0  0  0  0  0  0  0
    0.6909   -1.0233    1.0317 C   0  0  0  0  0  0  0  0  0  0  0  0
   -1.4837    4.2376    1.6323 C   0  0  0  0  0  0  0  0  0  0  0  0
   -2.5254    3.7557    0.8369 C   0  0  0  0  0  0  0  0  0  0  0  0
   -1.0123    5.8890   -0.0799 C   0  0  0  0  0  0  0  0  0  0  0  0
   -3.0831    2.4163    1.1763 C   0  0  0  0  0  0  0  0  0  0  0  0
   -2.3710    1.2669   -1.2593 S   0  0  0  0  0  0  0  0  0  0  0  0
   -0.3766   -1.6449    0.4241 C   0  0  0  0  0  0  0  0  0  0  0  0
   -3.5880    1.5131    0.0675 C   0  0  0  0  0  0  0  0  0  0  0  0
    2.5911    5.2204    1.3150 O   0  0  0  0  0  0  0  0  0  0  0  0
   -2.9155    4.4521   -0.3202 C   0  0  0  0  0  0  0  0  0  0  0  0
    1.2320    6.3916   -0.3459 C   0  0  0  0  0  0  0  0  0  0  0  0
   -2.1496    5.5259   -0.7853 C   0  0  0  0  0  0  0  0  0  0  0  0
   -3.1074    2.0627    2.3573 O   0  0  0  0  0  0  0  0  0  0  0  0
    1.7512    1.0373    1.4565 O   0  0  0  0  0  0  0  0  0  0  0  0
   -0.5399   -3.1325    0.4974 C   0  0  0  0  0  0  0  0  0  0  0  0
    0.2588    6.7127    2.0672 H   0  0  0  0  0  0  0  0  0  0  0  0
    1.4468   -1.5619    1.5864 H   0  0  0  0  0  0  0  0  0  0  0  0
   -1.1882    3.7222    2.5429 H   0  0  0  0  0  0  0  0  0  0  0  0
   -4.5042    1.9439   -0.3459 H   0  0  0  0  0  0  0  0  0  0  0  0
   -3.8504    0.5392    0.4943 H   0  0  0  0  0  0  0  0  0  0  0  0
   -3.7660    4.1262   -0.9135 H   0  0  0  0  0  0  0  0  0  0  0  0
    1.8443    7.2983   -0.3933 H   0  0  0  0  0  0  0  0  0  0  0  0
    1.5692    5.7047   -1.1317 H   0  0  0  0  0  0  0  0  0  0  0  0
   -2.3940    6.0062   -1.7277 H   0  0  0  0  0  0  0  0  0  0  0  0
    1.5342    1.9548    1.2121 H   0  0  0  0  0  0  0  0  0  0  0  0
    0.3407   -3.6362    0.0858 H   0  0  0  0  0  0  0  0  0  0  0  0
   -0.6829   -3.4461    1.5362 H   0  0  0  0  0  0  0  0  0  0  0  0
   -1.4137   -3.4551   -0.0790 H   0  0  0  0  0  0  0  0  0  0  0  0
  2  1  2  0  0  0  0
  3  4  1  0  0  0  0
  3 24  1  0  0  0  0
  4 10  2  0  0  0  0
  5  1  1  0  0  0  0
  6  2  1  0  0  0  0
  6 15  2  0  0  0  0
  7  3  1  0  0  0  0
  8 12  1  0  0  0  0
  9  5  2  0  0  0  0
  9 25  1  0  0  0  0
 10 11  1  0  0  0  0
 10 26  1  0  0  0  0
 11 13  1  0  0  0  0
 12 20  2  0  0  0  0
 12  4  1  0  0  0  0
 13 16  1  0  0  0  0
 14  2  1  0  0  0  0
 15  9  1  0  0  0  0
 16 14  1  0  0  0  0
 16 27  1  0  0  0  0
 16 28  1  0  0  0  0
 17  7  2  0  0  0  0
 18 11  2  0  0  0  0
 18 29  1  0  0  0  0
 19  8  1  0  0  0  0
 19  7  1  0  0  0  0
 19 30  1  0  0  0  0
 19 31  1  0  0  0  0
 20 18  1  0  0  0  0
 20 32  1  0  0  0  0
 21 13  2  0  0  0  0
 22  5  1  0  0  0  0
 22 33  1  0  0  0  0
 23 15  1  0  0  0  0
 23 34  1  0  0  0  0
 23 35  1  0  0  0  0
 23 36  1  0  0  0  0
M  END
>  <Mol_ID>
9032

>  <Formula>
C15H13N3O4S

>  <MolWeight>
331.34642

>  <Cat>
P2912

>  <Name>
WAY-608174

>  <Synonyms>
N/A

>  <Target>
Mcl-1

>  <Form>
free base

>  <CAS>
721426-84-2

>  <URL>
N/A

$$$$
