WAY-326135
 OpenBabel08302521433D

 55 59  0  0  0  0  0  0  0  0999 V2000
    0.2013   -0.7546    0.0161 C   0  0  0  0  0  0  0  0  0  0  0  0
    0.2878    0.6427   -0.0259 N   0  0  0  0  0  0  0  0  0  0  0  0
    1.5040   -1.2251   -0.0745 C   0  0  0  0  0  0  0  0  0  0  0  0
   -0.8533    1.4349    0.0055 C   0  0  0  0  0  0  0  0  0  0  0  0
   -1.0116   -1.3900    0.1092 N   0  0  0  0  0  0  0  0  0  0  0  0
    1.5738    1.0661   -0.0880 N   0  0  0  0  0  0  0  0  0  0  0  0
   -2.0620    0.8530    0.0599 C   0  0  0  0  0  0  0  0  0  0  0  0
    1.9334   -2.6144   -0.1187 C   0  0  0  0  0  0  0  0  0  0  0  0
   -2.0825   -0.6440    0.0897 C   0  0  0  0  0  0  0  0  0  0  0  0
    2.2776   -0.0542   -0.2133 C   0  0  0  0  0  0  0  0  0  0  0  0
    3.1350   -2.9540    0.5086 N   0  0  0  0  0  0  0  0  0  0  0  0
    5.7409   -3.6469    1.3366 N   0  0  0  0  0  0  0  0  0  0  0  0
   -0.6435    2.9044   -0.0018 C   0  0  0  0  0  0  0  0  0  0  0  0
    6.9620   -3.9925    1.8734 C   0  0  0  0  0  0  0  0  0  0  0  0
   -3.4384   -1.2754    0.1379 C   0  0  0  0  0  0  0  0  0  0  0  0
    7.8065   -4.7856    1.1854 N   0  0  0  0  0  0  0  0  0  0  0  0
    1.2795   -3.4556   -0.7326 O   0  0  0  0  0  0  0  0  0  0  0  0
    3.8591   -2.1449    1.5060 C   0  0  0  0  0  0  0  0  0  0  0  0
    3.5847   -4.3629    0.4523 C   0  0  0  0  0  0  0  0  0  0  0  0
    5.3742   -2.2315    1.2702 C   0  0  0  0  0  0  0  0  0  0  0  0
    5.1256   -4.4820    0.3032 C   0  0  0  0  0  0  0  0  0  0  0  0
   -4.5432   -0.6947   -0.5006 C   0  0  0  0  0  0  0  0  0  0  0  0
   -3.6074   -2.4723    0.8407 C   0  0  0  0  0  0  0  0  0  0  0  0
   -0.4756    3.3586   -1.2728 F   0  0  0  0  0  0  0  0  0  0  0  0
   -1.7456    3.5539    0.4747 F   0  0  0  0  0  0  0  0  0  0  0  0
   -5.8098   -1.2774   -0.3971 C   0  0  0  0  0  0  0  0  0  0  0  0
   -4.8752   -3.0552    0.9392 C   0  0  0  0  0  0  0  0  0  0  0  0
   -5.9863   -2.4552    0.3324 C   0  0  0  0  0  0  0  0  0  0  0  0
    7.2653   -3.5742    3.1719 C   0  0  0  0  0  0  0  0  0  0  0  0
    8.9667   -5.1426    1.7854 C   0  0  0  0  0  0  0  0  0  0  0  0
   -7.3445   -3.0801    0.4654 C   0  0  0  0  0  0  0  0  0  0  0  0
    8.4523   -3.9662    3.7772 C   0  0  0  0  0  0  0  0  0  0  0  0
    9.3318   -4.7624    3.0631 C   0  0  0  0  0  0  0  0  0  0  0  0
   -2.9765    1.4292    0.1032 H   0  0  0  0  0  0  0  0  0  0  0  0
    3.3450    0.0300   -0.3748 H   0  0  0  0  0  0  0  0  0  0  0  0
    0.2070    3.2269    0.6060 H   0  0  0  0  0  0  0  0  0  0  0  0
    3.5459   -1.1057    1.5387 H   0  0  0  0  0  0  0  0  0  0  0  0
    3.6151   -2.5644    2.4912 H   0  0  0  0  0  0  0  0  0  0  0  0
    3.2820   -4.8183    1.4059 H   0  0  0  0  0  0  0  0  0  0  0  0
    3.0851   -4.9152   -0.3471 H   0  0  0  0  0  0  0  0  0  0  0  0
    5.6275   -1.8293    0.2756 H   0  0  0  0  0  0  0  0  0  0  0  0
    5.8953   -1.6125    2.0048 H   0  0  0  0  0  0  0  0  0  0  0  0
    5.4279   -4.1410   -0.6967 H   0  0  0  0  0  0  0  0  0  0  0  0
    5.4030   -5.5369    0.4041 H   0  0  0  0  0  0  0  0  0  0  0  0
   -4.4404    0.2049   -1.1018 H   0  0  0  0  0  0  0  0  0  0  0  0
   -2.7587   -2.9530    1.3213 H   0  0  0  0  0  0  0  0  0  0  0  0
   -6.6557   -0.8016   -0.8912 H   0  0  0  0  0  0  0  0  0  0  0  0
   -4.9911   -3.9820    1.5000 H   0  0  0  0  0  0  0  0  0  0  0  0
    6.5481   -2.9859    3.7357 H   0  0  0  0  0  0  0  0  0  0  0  0
    9.6263   -5.7597    1.1809 H   0  0  0  0  0  0  0  0  0  0  0  0
   -7.3338   -4.1024    0.0738 H   0  0  0  0  0  0  0  0  0  0  0  0
   -7.6470   -3.0988    1.5173 H   0  0  0  0  0  0  0  0  0  0  0  0
   -8.1013   -2.5159   -0.0903 H   0  0  0  0  0  0  0  0  0  0  0  0
    8.6697   -3.6647    4.7970 H   0  0  0  0  0  0  0  0  0  0  0  0
   10.2669   -5.0911    3.5006 H   0  0  0  0  0  0  0  0  0  0  0  0
  2  1  1  0  0  0  0
  3  1  2  0  0  0  0
  4  2  1  0  0  0  0
  4  7  2  0  0  0  0
  5  1  1  0  0  0  0
  6  2  1  0  0  0  0
  6 10  2  0  0  0  0
  7  9  1  0  0  0  0
  7 34  1  0  0  0  0
  8  3  1  0  0  0  0
  9  5  2  0  0  0  0
 10  3  1  0  0  0  0
 10 35  1  0  0  0  0
 11  8  1  0  0  0  0
 12 21  1  0  0  0  0
 13  4  1  0  0  0  0
 13 36  1  0  0  0  0
 14 12  1  0  0  0  0
 15  9  1  0  0  0  0
 16 14  2  0  0  0  0
 17  8  2  0  0  0  0
 18 11  1  0  0  0  0
 18 37  1  0  0  0  0
 18 38  1  0  0  0  0
 19 11  1  0  0  0  0
 19 39  1  0  0  0  0
 19 40  1  0  0  0  0
 20 18  1  0  0  0  0
 20 12  1  0  0  0  0
 20 41  1  0  0  0  0
 20 42  1  0  0  0  0
 21 19  1  0  0  0  0
 21 43  1  0  0  0  0
 21 44  1  0  0  0  0
 22 15  2  0  0  0  0
 22 45  1  0  0  0  0
 23 15  1  0  0  0  0
 23 46  1  0  0  0  0
 24 13  1  0  0  0  0
 25 13  1  0  0  0  0
 26 22  1  0  0  0  0
 26 28  2  0  0  0  0
 26 47  1  0  0  0  0
 27 23  2  0  0  0  0
 27 48  1  0  0  0  0
 28 27  1  0  0  0  0
 29 14  1  0  0  0  0
 29 49  1  0  0  0  0
 30 16  1  0  0  0  0
 30 33  2  0  0  0  0
 30 50  1  0  0  0  0
 31 28  1  0  0  0  0
 31 51  1  0  0  0  0
 31 52  1  0  0  0  0
 31 53  1  0  0  0  0
 32 29  2  0  0  0  0
 32 54  1  0  0  0  0
 33 32  1  0  0  0  0
 33 55  1  0  0  0  0
M  END
>  <Mol_ID>
8897

>  <Formula>
C24H22F2N6O

>  <MolWeight>
448.4678864

>  <Cat>
P2455

>  <Name>
WAY-326135

>  <Synonyms>
N/A

>  <Target>
11¦Â-hydroxysteroid dehydrogenase type 1

>  <Form>
free base

>  <CAS>
869716-88-1

>  <URL>
N/A

$$$$
