WAY-656238
 OpenBabel08302521423D

 40 42  0  0  0  0  0  0  0  0999 V2000
   -2.4495   -2.7379    0.6089 C   0  0  0  0  0  0  0  0  0  0  0  0
   -1.4846   -1.9707    0.1655 N   0  0  0  0  0  0  0  0  0  0  0  0
   -1.9333   -3.8698    1.1964 N   0  0  0  0  0  0  0  0  0  0  0  0
   -3.8049   -2.5216    0.5369 N   0  0  0  0  0  0  0  0  0  0  0  0
   -4.3201   -1.3703   -0.0413 C   0  0  0  0  0  0  0  0  0  0  0  0
   -0.3154   -2.6080    0.4765 C   0  0  0  0  0  0  0  0  0  0  0  0
   -0.5649   -3.8113    1.1229 C   0  0  0  0  0  0  0  0  0  0  0  0
   -7.9361   -0.6613    3.1001 C   0  0  0  0  0  0  0  0  0  0  0  0
   -7.6286    0.6831    3.3608 C   0  0  0  0  0  0  0  0  0  0  0  0
   -7.2968   -1.3159    2.0342 C   0  0  0  0  0  0  0  0  0  0  0  0
   -3.6927   -0.4388   -0.5353 O   0  0  0  0  0  0  0  0  0  0  0  0
   -6.4103   -0.6388    1.1854 C   0  0  0  0  0  0  0  0  0  0  0  0
   -5.8365   -1.3361   -0.0233 C   0  0  0  0  0  0  0  0  0  0  0  0
   -6.7323    1.3553    2.5202 C   0  0  0  0  0  0  0  0  0  0  0  0
   -6.1296    0.7058    1.4417 C   0  0  0  0  0  0  0  0  0  0  0  0
   -8.8512   -1.3043    3.8928 O   0  0  0  0  0  0  0  0  0  0  0  0
   -8.1696    1.4911    4.3271 O   0  0  0  0  0  0  0  0  0  0  0  0
    1.0071   -2.2137    0.2336 C   0  0  0  0  0  0  0  0  0  0  0  0
    0.4484   -4.6729    1.5495 C   0  0  0  0  0  0  0  0  0  0  0  0
   -9.6207   -2.3187    3.2524 C   0  0  0  0  0  0  0  0  0  0  0  0
   -8.5632    0.8701    5.5428 C   0  0  0  0  0  0  0  0  0  0  0  0
    1.7644   -4.2648    1.2958 C   0  0  0  0  0  0  0  0  0  0  0  0
    2.0429   -3.0572    0.6502 C   0  0  0  0  0  0  0  0  0  0  0  0
   -2.4672   -4.6152    1.6136 H   0  0  0  0  0  0  0  0  0  0  0  0
   -4.4331   -3.2006    0.9371 H   0  0  0  0  0  0  0  0  0  0  0  0
   -7.4969   -2.3643    1.8395 H   0  0  0  0  0  0  0  0  0  0  0  0
   -6.1798   -0.8225   -0.9299 H   0  0  0  0  0  0  0  0  0  0  0  0
   -6.2231   -2.3597   -0.1017 H   0  0  0  0  0  0  0  0  0  0  0  0
   -6.5076    2.4040    2.7047 H   0  0  0  0  0  0  0  0  0  0  0  0
   -5.4472    1.2635    0.8005 H   0  0  0  0  0  0  0  0  0  0  0  0
    1.2062   -1.2732   -0.2668 H   0  0  0  0  0  0  0  0  0  0  0  0
    0.2387   -5.6103    2.0521 H   0  0  0  0  0  0  0  0  0  0  0  0
  -10.0092   -1.9832    2.2839 H   0  0  0  0  0  0  0  0  0  0  0  0
   -9.0346   -3.2368    3.1424 H   0  0  0  0  0  0  0  0  0  0  0  0
  -10.4756   -2.5497    3.8942 H   0  0  0  0  0  0  0  0  0  0  0  0
   -9.5305    0.3715    5.4370 H   0  0  0  0  0  0  0  0  0  0  0  0
   -7.7929    0.1889    5.9191 H   0  0  0  0  0  0  0  0  0  0  0  0
   -8.6964    1.6621    6.2871 H   0  0  0  0  0  0  0  0  0  0  0  0
    2.5911   -4.9006    1.6073 H   0  0  0  0  0  0  0  0  0  0  0  0
    3.0732   -2.7620    0.4667 H   0  0  0  0  0  0  0  0  0  0  0  0
  2  1  2  0  0  0  0
  3  1  1  0  0  0  0
  3 24  1  0  0  0  0
  4  1  1  0  0  0  0
  4 25  1  0  0  0  0
  5  4  1  0  0  0  0
  6  2  1  0  0  0  0
  7  3  1  0  0  0  0
  7  6  2  0  0  0  0
  8 10  2  0  0  0  0
  9 14  2  0  0  0  0
  9  8  1  0  0  0  0
 10 12  1  0  0  0  0
 10 26  1  0  0  0  0
 11  5  2  0  0  0  0
 12 13  1  0  0  0  0
 13  5  1  0  0  0  0
 13 27  1  0  0  0  0
 13 28  1  0  0  0  0
 14 15  1  0  0  0  0
 14 29  1  0  0  0  0
 15 12  2  0  0  0  0
 15 30  1  0  0  0  0
 16  8  1  0  0  0  0
 17  9  1  0  0  0  0
 18  6  1  0  0  0  0
 18 31  1  0  0  0  0
 19  7  1  0  0  0  0
 19 32  1  0  0  0  0
 20 16  1  0  0  0  0
 20 33  1  0  0  0  0
 20 34  1  0  0  0  0
 20 35  1  0  0  0  0
 21 17  1  0  0  0  0
 21 36  1  0  0  0  0
 21 37  1  0  0  0  0
 21 38  1  0  0  0  0
 22 19  2  0  0  0  0
 22 23  1  0  0  0  0
 22 39  1  0  0  0  0
 23 18  2  0  0  0  0
 23 40  1  0  0  0  0
M  END
>  <Mol_ID>
8526

>  <Formula>
C17H17N3O3

>  <MolWeight>
311.33518

>  <Cat>
P3137

>  <Name>
WAY-656238

>  <Synonyms>
N/A

>  <Target>
others

>  <Form>
free base

>  <CAS>
107249-97-8

>  <URL>
N/A

$$$$
