WAY-325604
 OpenBabel08302521433D

 34 37  0  0  0  0  0  0  0  0999 V2000
   -0.2226   -0.7316    0.1311 C   0  0  0  0  0  0  0  0  0  0  0  0
   -0.2809    0.6294   -0.0372 N   0  0  0  0  0  0  0  0  0  0  0  0
    0.8860    1.4902   -0.2008 C   0  0  3  0  0  0  0  0  0  0  0  0
   -1.4381   -1.2093    0.1857 N   0  0  0  0  0  0  0  0  0  0  0  0
    0.9639   -1.3725    0.2146 N   0  0  0  0  0  0  0  0  0  0  0  0
    2.1422    0.7526    0.3092 C   0  0  0  0  0  0  0  0  0  0  0  0
   -1.5547    1.0677   -0.0698 N   0  0  0  0  0  0  0  0  0  0  0  0
    2.1461   -0.6740   -0.2760 C   0  0  3  0  0  0  0  0  0  0  0  0
    1.0758    1.8901   -1.6350 C   0  0  0  0  0  0  0  0  0  0  0  0
   -2.2158   -0.0873    0.0678 C   0  0  0  0  0  0  0  0  0  0  0  0
    2.1333    2.7236   -1.8780 O   0  0  0  0  0  0  0  0  0  0  0  0
    3.3982   -1.4574    0.0563 C   0  0  0  0  0  0  0  0  0  0  0  0
    0.4667    1.5609   -2.8314 C   0  0  0  0  0  0  0  0  0  0  0  0
    2.2093    2.8998   -3.2203 C   0  0  0  0  0  0  0  0  0  0  0  0
    1.2110    2.1996   -3.8527 C   0  0  0  0  0  0  0  0  0  0  0  0
    3.8043   -1.6810    1.3816 C   0  0  0  0  0  0  0  0  0  0  0  0
    4.1810   -1.9810   -0.9904 C   0  0  0  0  0  0  0  0  0  0  0  0
    5.7282   -2.9037    0.6008 C   0  0  0  0  0  0  0  0  0  0  0  0
    5.3436   -2.7022   -0.7178 C   0  0  0  0  0  0  0  0  0  0  0  0
    4.9709   -2.4003    1.6512 C   0  0  0  0  0  0  0  0  0  0  0  0
    6.8466   -3.5920    0.8625 F   0  0  0  0  0  0  0  0  0  0  0  0
    0.7087    2.3851    0.4080 H   0  0  0  0  0  0  0  0  0  0  0  0
    0.9492   -2.3809    0.0836 H   0  0  0  0  0  0  0  0  0  0  0  0
    2.1061    0.7126    1.4070 H   0  0  0  0  0  0  0  0  0  0  0  0
    3.0619    1.2883    0.0449 H   0  0  0  0  0  0  0  0  0  0  0  0
    2.0749   -0.6166   -1.3699 H   0  0  0  0  0  0  0  0  0  0  0  0
   -3.2980   -0.1183    0.0779 H   0  0  0  0  0  0  0  0  0  0  0  0
   -0.3936    0.9160   -2.9552 H   0  0  0  0  0  0  0  0  0  0  0  0
    3.0165    3.5318   -3.5645 H   0  0  0  0  0  0  0  0  0  0  0  0
    1.0422    2.1530   -4.9194 H   0  0  0  0  0  0  0  0  0  0  0  0
    3.2112   -1.3028    2.2117 H   0  0  0  0  0  0  0  0  0  0  0  0
    3.8901   -1.8309   -2.0286 H   0  0  0  0  0  0  0  0  0  0  0  0
    5.9483   -3.1051   -1.5234 H   0  0  0  0  0  0  0  0  0  0  0  0
    5.2916   -2.5728    2.6736 H   0  0  0  0  0  0  0  0  0  0  0  0
  2  1  1  0  0  0  0
  3  2  1  0  0  0  0
  3 22  1  0  0  0  0
  4  1  2  0  0  0  0
  5  1  1  0  0  0  0
  5 23  1  0  0  0  0
  6  8  1  0  0  0  0
  6  3  1  0  0  0  0
  6 24  1  0  0  0  0
  6 25  1  0  0  0  0
  7  2  1  0  0  0  0
  8  5  1  0  0  0  0
  8 26  1  0  0  0  0
  9  3  1  0  0  0  0
 10  4  1  0  0  0  0
 10  7  2  0  0  0  0
 10 27  1  0  0  0  0
 11  9  1  0  0  0  0
 12  8  1  0  0  0  0
 13  9  2  0  0  0  0
 13 28  1  0  0  0  0
 14 11  1  0  0  0  0
 14 15  2  0  0  0  0
 14 29  1  0  0  0  0
 15 13  1  0  0  0  0
 15 30  1  0  0  0  0
 16 12  2  0  0  0  0
 16 31  1  0  0  0  0
 17 12  1  0  0  0  0
 17 32  1  0  0  0  0
 18 19  1  0  0  0  0
 18 20  2  0  0  0  0
 19 17  2  0  0  0  0
 19 33  1  0  0  0  0
 20 16  1  0  0  0  0
 20 34  1  0  0  0  0
 21 18  1  0  0  0  0
M  END
>  <Mol_ID>
8863

>  <Formula>
C15H13FN4O

>  <MolWeight>
284.2883232

>  <Cat>
P2411

>  <Name>
WAY-325604

>  <Synonyms>
N/A

>  <Target>
PfENT1

>  <Form>
free base

>  <CAS>
869351-81-5

>  <URL>
N/A

$$$$
