WAY-332023
 OpenBabel08302521443D

 56 58  0  0  0  0  0  0  0  0999 V2000
    0.0695    3.6056    2.3012 N   0  0  0  0  0  0  0  0  0  0  0  0
   -0.6657    3.3549    1.1575 C   0  0  0  0  0  0  0  0  0  0  0  0
   -0.7769    4.2019    3.1205 C   0  0  0  0  0  0  0  0  0  0  0  0
   -2.0306    4.3507    2.5950 O   0  0  0  0  0  0  0  0  0  0  0  0
   -1.9584    3.8147    1.3411 C   0  0  0  0  0  0  0  0  0  0  0  0
   -0.5688    3.3450   -1.6265 S   0  0  3  0  0  0  0  0  0  0  0  0
    0.0074    2.7351   -0.0168 C   0  0  0  0  0  0  0  0  0  0  0  0
   -0.7626    5.8982   -2.5006 C   0  0  0  0  0  0  0  0  0  0  0  0
   -0.1640    5.0937   -1.3740 C   0  0  0  0  0  0  0  0  0  0  0  0
    0.0943    6.0926   -3.5583 N   0  0  0  0  0  0  0  0  0  0  0  0
   -0.5598    4.7552    4.4539 C   0  0  0  0  0  0  0  0  0  0  0  0
   -0.3270    6.7100   -4.8136 C   0  0  3  0  0  0  0  0  0  0  0  0
    0.3551    2.8109   -2.6836 O   0  0  0  0  0  0  0  0  0  0  0  0
   -1.9155    6.3137   -2.4592 O   0  0  0  0  0  0  0  0  0  0  0  0
    0.7005    4.6636    5.0583 C   0  0  0  0  0  0  0  0  0  0  0  0
   -1.5846    5.4071    5.1532 C   0  0  0  0  0  0  0  0  0  0  0  0
   -0.7822    5.6637   -5.8612 C   0  0  3  0  0  0  0  0  0  0  0  0
   -0.0918    5.8561    7.0151 C   0  0  0  0  0  0  0  0  0  0  0  0
    0.9362    5.2110    6.3280 C   0  0  0  0  0  0  0  0  0  0  0  0
   -1.3500    5.9516    6.4198 C   0  0  0  0  0  0  0  0  0  0  0  0
   -3.1803    3.9354    0.5275 C   0  0  0  0  0  0  0  0  0  0  0  0
   -0.0048    6.4262    8.2540 O   0  0  0  0  0  0  0  0  0  0  0  0
    0.8216    7.5656   -5.3712 C   0  0  0  0  0  0  0  0  0  0  0  0
   -1.9184    4.7650   -5.3707 C   0  0  0  0  0  0  0  0  0  0  0  0
    0.3971    4.8138   -6.3605 C   0  0  0  0  0  0  0  0  0  0  0  0
    1.2509    6.3449    8.9151 C   0  0  0  0  0  0  0  0  0  0  0  0
    1.9868    6.7227   -5.8912 C   0  0  0  0  0  0  0  0  0  0  0  0
    1.5217    5.6879   -6.9095 C   0  0  0  0  0  0  0  0  0  0  0  0
    1.0884    2.9054    0.0312 H   0  0  0  0  0  0  0  0  0  0  0  0
   -0.1593    1.6534   -0.0008 H   0  0  0  0  0  0  0  0  0  0  0  0
   -0.5924    5.4730   -0.4442 H   0  0  0  0  0  0  0  0  0  0  0  0
    0.9219    5.2126   -1.3285 H   0  0  0  0  0  0  0  0  0  0  0  0
    0.9218    5.5062   -3.5911 H   0  0  0  0  0  0  0  0  0  0  0  0
   -1.1720    7.3744   -4.5930 H   0  0  0  0  0  0  0  0  0  0  0  0
    1.5177    4.1647    4.5380 H   0  0  0  0  0  0  0  0  0  0  0  0
   -2.5775    5.5059    4.7204 H   0  0  0  0  0  0  0  0  0  0  0  0
   -1.1728    6.2209   -6.7246 H   0  0  0  0  0  0  0  0  0  0  0  0
    1.9329    5.1167    6.7473 H   0  0  0  0  0  0  0  0  0  0  0  0
   -2.1572    6.4571    6.9450 H   0  0  0  0  0  0  0  0  0  0  0  0
   -4.0480    3.5517    1.0718 H   0  0  0  0  0  0  0  0  0  0  0  0
   -3.3617    4.9885    0.2890 H   0  0  0  0  0  0  0  0  0  0  0  0
   -3.1109    3.3835   -0.4112 H   0  0  0  0  0  0  0  0  0  0  0  0
    0.4394    8.1844   -6.1932 H   0  0  0  0  0  0  0  0  0  0  0  0
    1.1894    8.2541   -4.6008 H   0  0  0  0  0  0  0  0  0  0  0  0
   -2.2631    4.1075   -6.1760 H   0  0  0  0  0  0  0  0  0  0  0  0
   -1.6046    4.1236   -4.5428 H   0  0  0  0  0  0  0  0  0  0  0  0
   -2.7739    5.3631   -5.0410 H   0  0  0  0  0  0  0  0  0  0  0  0
    0.7845    4.1856   -5.5485 H   0  0  0  0  0  0  0  0  0  0  0  0
    0.0575    4.1320   -7.1493 H   0  0  0  0  0  0  0  0  0  0  0  0
    1.5654    5.3046    9.0484 H   0  0  0  0  0  0  0  0  0  0  0  0
    2.0111    6.9238    8.3807 H   0  0  0  0  0  0  0  0  0  0  0  0
    1.1325    6.7843    9.9103 H   0  0  0  0  0  0  0  0  0  0  0  0
    2.7370    7.3773   -6.3487 H   0  0  0  0  0  0  0  0  0  0  0  0
    2.4839    6.2152   -5.0555 H   0  0  0  0  0  0  0  0  0  0  0  0
    1.1724    6.2016   -7.8138 H   0  0  0  0  0  0  0  0  0  0  0  0
    2.3667    5.0574   -7.2082 H   0  0  0  0  0  0  0  0  0  0  0  0
  2  1  1  0  0  0  0
  3  1  2  0  0  0  0
  4  3  1  0  0  0  0
  5  2  2  0  0  0  0
  5  4  1  0  0  0  0
  6  7  1  0  0  0  0
  7  2  1  0  0  0  0
  7 29  1  0  0  0  0
  7 30  1  0  0  0  0
  8  9  1  0  0  0  0
  9  6  1  0  0  0  0
  9 31  1  0  0  0  0
  9 32  1  0  0  0  0
 10  8  1  0  0  0  0
 10 33  1  0  0  0  0
 11  3  1  0  0  0  0
 12 10  1  0  0  0  0
 12 34  1  0  0  0  0
 13  6  2  0  0  0  0
 14  8  2  0  0  0  0
 15 11  2  0  0  0  0
 15 35  1  0  0  0  0
 16 11  1  0  0  0  0
 16 36  1  0  0  0  0
 17 12  1  0  0  0  0
 17 37  1  0  0  0  0
 18 20  1  0  0  0  0
 18 19  2  0  0  0  0
 19 15  1  0  0  0  0
 19 38  1  0  0  0  0
 20 16  2  0  0  0  0
 20 39  1  0  0  0  0
 21  5  1  0  0  0  0
 21 40  1  0  0  0  0
 21 41  1  0  0  0  0
 21 42  1  0  0  0  0
 22 18  1  0  0  0  0
 23 12  1  0  0  0  0
 23 43  1  0  0  0  0
 23 44  1  0  0  0  0
 24 17  1  0  0  0  0
 24 45  1  0  0  0  0
 24 46  1  0  0  0  0
 24 47  1  0  0  0  0
 25 17  1  0  0  0  0
 25 28  1  0  0  0  0
 25 48  1  0  0  0  0
 25 49  1  0  0  0  0
 26 22  1  0  0  0  0
 26 50  1  0  0  0  0
 26 51  1  0  0  0  0
 26 52  1  0  0  0  0
 27 23  1  0  0  0  0
 27 53  1  0  0  0  0
 27 54  1  0  0  0  0
 28 27  1  0  0  0  0
 28 55  1  0  0  0  0
 28 56  1  0  0  0  0
M  END
>  <Mol_ID>
9256

>  <Formula>
C21H28N2O4S

>  <MolWeight>
404.52302

>  <Cat>
P2671

>  <Name>
WAY-332023

>  <Synonyms>
N/A

>  <Target>
beta-catenin

>  <Form>
free base

>  <CAS>
1053086-89-7

>  <URL>
N/A

$$$$
