WAY-344237
 OpenBabel08302521393D

 46 48  0  0  0  0  0  0  0  0999 V2000
    0.8827    0.0584   -0.1498 S   0  0  0  0  0  0  0  0  0  0  0  0
    0.4922    1.6331   -0.8819 C   0  0  0  0  0  0  0  0  0  0  0  0
    2.2082   -0.4504   -1.0488 N   0  0  0  0  0  0  0  0  0  0  0  0
   -0.4759    1.6929   -1.8880 C   0  0  0  0  0  0  0  0  0  0  0  0
   -1.8375    3.0301   -3.5493 C   0  0  0  0  0  0  0  0  0  0  0  0
   -3.7216    1.8706   -4.5049 N   0  0  0  0  0  0  0  0  0  0  0  0
    2.0319   -0.9273   -2.3692 C   0  0  0  0  0  0  0  0  0  0  0  0
   -0.8415    2.9350   -2.4341 C   0  0  0  0  0  0  0  0  0  0  0  0
   -2.7728    2.0090   -3.5405 N   0  0  0  0  0  0  0  0  0  0  0  0
   -0.2443   -0.8236   -0.3731 O   0  0  0  0  0  0  0  0  0  0  0  0
    1.3687    0.3108    1.1856 O   0  0  0  0  0  0  0  0  0  0  0  0
    1.1024    2.7961   -0.4079 C   0  0  0  0  0  0  0  0  0  0  0  0
   -4.2229    0.6865   -4.7312 C   0  0  0  0  0  0  0  0  0  0  0  0
    2.3220   -0.0722   -3.4312 C   0  0  0  0  0  0  0  0  0  0  0  0
   -1.7561    3.9446   -4.3600 O   0  0  0  0  0  0  0  0  0  0  0  0
   -2.7287   -2.9466   -3.0084 N   0  0  0  0  0  0  0  0  0  0  0  0
   -0.2250    4.0982   -1.9646 C   0  0  0  0  0  0  0  0  0  0  0  0
    0.7429    4.0289   -0.9550 C   0  0  0  0  0  0  0  0  0  0  0  0
   -3.8050   -0.6049   -4.0982 C   0  0  0  0  0  0  0  0  0  0  0  0
    1.6292   -2.2397   -2.6107 C   0  0  0  0  0  0  0  0  0  0  0  0
   -3.0372   -1.8877   -2.2344 C   0  0  0  0  0  0  0  0  0  0  0  0
   -3.0038   -2.8423   -4.3244 C   0  0  0  0  0  0  0  0  0  0  0  0
   -5.2689    0.6160   -5.8331 C   0  0  0  0  0  0  0  0  0  0  0  0
   -3.6236   -0.7315   -2.7198 C   0  0  0  0  0  0  0  0  0  0  0  0
   -3.5189   -1.7012   -4.9147 C   0  0  0  0  0  0  0  0  0  0  0  0
    2.2027   -0.5286   -4.7438 C   0  0  0  0  0  0  0  0  0  0  0  0
    1.5124   -2.6964   -3.9257 C   0  0  0  0  0  0  0  0  0  0  0  0
    1.8012   -1.8412   -4.9909 C   0  0  0  0  0  0  0  0  0  0  0  0
    2.9580   -0.8471   -0.4834 H   0  0  0  0  0  0  0  0  0  0  0  0
   -0.9043    0.7656   -2.2606 H   0  0  0  0  0  0  0  0  0  0  0  0
   -2.8816    1.4878   -2.6918 H   0  0  0  0  0  0  0  0  0  0  0  0
    1.8556    2.7510    0.3766 H   0  0  0  0  0  0  0  0  0  0  0  0
    2.6520    0.9469   -3.2472 H   0  0  0  0  0  0  0  0  0  0  0  0
   -0.4974    5.0654   -2.3854 H   0  0  0  0  0  0  0  0  0  0  0  0
    1.2156    4.9415   -0.5969 H   0  0  0  0  0  0  0  0  0  0  0  0
    1.3995   -2.9131   -1.7892 H   0  0  0  0  0  0  0  0  0  0  0  0
   -2.7826   -1.9893   -1.1814 H   0  0  0  0  0  0  0  0  0  0  0  0
   -2.7775   -3.7276   -4.9122 H   0  0  0  0  0  0  0  0  0  0  0  0
   -6.1264    1.2347   -5.5569 H   0  0  0  0  0  0  0  0  0  0  0  0
   -4.8361    1.0086   -6.7604 H   0  0  0  0  0  0  0  0  0  0  0  0
   -5.6231   -0.4005   -6.0173 H   0  0  0  0  0  0  0  0  0  0  0  0
   -3.9140    0.0411   -2.0187 H   0  0  0  0  0  0  0  0  0  0  0  0
   -3.6716   -1.6791   -5.9877 H   0  0  0  0  0  0  0  0  0  0  0  0
    2.4307    0.1367   -5.5733 H   0  0  0  0  0  0  0  0  0  0  0  0
    1.2000   -3.7190   -4.1190 H   0  0  0  0  0  0  0  0  0  0  0  0
    1.7161   -2.1992   -6.0136 H   0  0  0  0  0  0  0  0  0  0  0  0
  2  1  1  0  0  0  0
  3  1  1  0  0  0  0
  3 29  1  0  0  0  0
  4  2  2  0  0  0  0
  4 30  1  0  0  0  0
  5  8  1  0  0  0  0
  6  9  1  0  0  0  0
  7  3  1  0  0  0  0
  8  4  1  0  0  0  0
  9  5  1  0  0  0  0
  9 31  1  0  0  0  0
 10  1  2  0  0  0  0
 11  1  2  0  0  0  0
 12  2  1  0  0  0  0
 12 32  1  0  0  0  0
 13  6  2  0  0  0  0
 14  7  2  0  0  0  0
 14 33  1  0  0  0  0
 15  5  2  0  0  0  0
 16 22  2  0  0  0  0
 16 21  1  0  0  0  0
 17 18  1  0  0  0  0
 17  8  2  0  0  0  0
 17 34  1  0  0  0  0
 18 12  2  0  0  0  0
 18 35  1  0  0  0  0
 19 13  1  0  0  0  0
 20  7  1  0  0  0  0
 20 36  1  0  0  0  0
 21 24  2  0  0  0  0
 21 37  1  0  0  0  0
 22 25  1  0  0  0  0
 22 38  1  0  0  0  0
 23 13  1  0  0  0  0
 23 39  1  0  0  0  0
 23 40  1  0  0  0  0
 23 41  1  0  0  0  0
 24 19  1  0  0  0  0
 24 42  1  0  0  0  0
 25 19  2  0  0  0  0
 25 43  1  0  0  0  0
 26 14  1  0  0  0  0
 26 28  2  0  0  0  0
 26 44  1  0  0  0  0
 27 20  2  0  0  0  0
 27 45  1  0  0  0  0
 28 27  1  0  0  0  0
 28 46  1  0  0  0  0
M  END
>  <Mol_ID>
8133

>  <Formula>
C20H16Cl2N4O3S

>  <MolWeight>
463.33704

>  <Cat>
P2736

>  <Name>
WAY-344237

>  <Synonyms>
N/A

>  <Target>
others

>  <Form>
free base

>  <CAS>
731826-86-1

>  <URL>
N/A

$$$$
