WAY-331527
 OpenBabel08302521453D

 49 51  0  0  0  0  0  0  0  0999 V2000
    0.1251   -0.4073    0.3461 C   0  0  0  0  0  0  0  0  0  0  0  0
   -0.1474    0.6810   -0.3796 C   0  0  0  0  0  0  0  0  0  0  0  0
   -2.0943   -0.3483    0.0365 N   0  0  0  0  0  0  0  0  0  0  0  0
   -1.0906   -1.0515    0.6272 C   0  0  0  0  0  0  0  0  0  0  0  0
   -1.4788    0.7114   -0.5587 N   0  0  0  0  0  0  0  0  0  0  0  0
    1.1672    1.5915   -0.8029 S   0  0  0  0  0  0  0  0  0  0  0  0
    1.4878   -0.6007    0.5938 C   0  0  0  0  0  0  0  0  0  0  0  0
    2.2179    0.4449    0.0071 C   0  0  0  0  0  0  0  0  0  0  0  0
    3.6484    0.7041   -0.0378 C   0  0  0  0  0  0  0  0  0  0  0  0
   -1.3919   -2.2676    1.3857 C   0  0  0  0  0  0  0  0  0  0  0  0
    4.1385    1.8242   -0.1710 O   0  0  0  0  0  0  0  0  0  0  0  0
    4.4474   -0.4180    0.0445 N   0  0  0  0  0  0  0  0  0  0  0  0
   -2.4902   -3.0623    1.0158 C   0  0  0  0  0  0  0  0  0  0  0  0
   -0.6376   -2.6493    2.5025 C   0  0  0  0  0  0  0  0  0  0  0  0
   -2.2452    1.6876   -1.2917 C   0  0  0  0  0  0  0  0  0  0  0  0
   -2.0525   -4.5903    2.8325 C   0  0  0  0  0  0  0  0  0  0  0  0
    6.1116   -1.3492    2.4273 N   0  0  0  0  0  0  0  0  0  0  0  0
   -2.8173   -4.2169    1.7309 C   0  0  0  0  0  0  0  0  0  0  0  0
   -0.9655   -3.8057    3.2203 C   0  0  0  0  0  0  0  0  0  0  0  0
    5.8950   -0.3197    0.0746 C   0  0  0  0  0  0  0  0  0  0  0  0
    6.4479   -0.2202    1.5108 C   0  0  0  0  0  0  0  0  0  0  0  0
    6.6885   -2.6120    1.9077 C   0  0  0  0  0  0  0  0  0  0  0  0
    6.6447   -1.0665    3.7831 C   0  0  0  0  0  0  0  0  0  0  0  0
    6.0519    0.1563    4.4814 C   0  0  0  0  0  0  0  0  0  0  0  0
    6.3367   -3.8667    2.7058 C   0  0  0  0  0  0  0  0  0  0  0  0
    1.9330   -1.4112    1.1539 H   0  0  0  0  0  0  0  0  0  0  0  0
    4.0357   -1.3187    0.2397 H   0  0  0  0  0  0  0  0  0  0  0  0
   -3.1067   -2.7757    0.1653 H   0  0  0  0  0  0  0  0  0  0  0  0
    0.1924   -2.0403    2.8491 H   0  0  0  0  0  0  0  0  0  0  0  0
   -2.0468    2.6732   -0.8650 H   0  0  0  0  0  0  0  0  0  0  0  0
   -1.9275    1.6542   -2.3383 H   0  0  0  0  0  0  0  0  0  0  0  0
   -3.3066    1.4542   -1.2170 H   0  0  0  0  0  0  0  0  0  0  0  0
   -2.3095   -5.4847    3.3948 H   0  0  0  0  0  0  0  0  0  0  0  0
   -3.6726   -4.8152    1.4307 H   0  0  0  0  0  0  0  0  0  0  0  0
   -0.3821   -4.0877    4.0924 H   0  0  0  0  0  0  0  0  0  0  0  0
    6.2977   -1.1829   -0.4628 H   0  0  0  0  0  0  0  0  0  0  0  0
    6.2086    0.5699   -0.4849 H   0  0  0  0  0  0  0  0  0  0  0  0
    7.5370   -0.0939    1.4571 H   0  0  0  0  0  0  0  0  0  0  0  0
    6.0357    0.7081    1.9192 H   0  0  0  0  0  0  0  0  0  0  0  0
    6.3067   -2.7994    0.8989 H   0  0  0  0  0  0  0  0  0  0  0  0
    7.7798   -2.5309    1.8282 H   0  0  0  0  0  0  0  0  0  0  0  0
    6.4207   -1.9067    4.4477 H   0  0  0  0  0  0  0  0  0  0  0  0
    7.7371   -0.9664    3.7500 H   0  0  0  0  0  0  0  0  0  0  0  0
    6.2575    1.0904    3.9530 H   0  0  0  0  0  0  0  0  0  0  0  0
    4.9697    0.0519    4.6066 H   0  0  0  0  0  0  0  0  0  0  0  0
    6.4964    0.2556    5.4782 H   0  0  0  0  0  0  0  0  0  0  0  0
    6.7186   -3.8399    3.7294 H   0  0  0  0  0  0  0  0  0  0  0  0
    5.2538   -4.0230    2.7377 H   0  0  0  0  0  0  0  0  0  0  0  0
    6.7878   -4.7424    2.2259 H   0  0  0  0  0  0  0  0  0  0  0  0
  2  1  2  0  0  0  0
  3  4  2  0  0  0  0
  4  1  1  0  0  0  0
  5  2  1  0  0  0  0
  5  3  1  0  0  0  0
  6  2  1  0  0  0  0
  7  1  1  0  0  0  0
  7 26  1  0  0  0  0
  8  7  2  0  0  0  0
  8  6  1  0  0  0  0
  9  8  1  0  0  0  0
 10  4  1  0  0  0  0
 11  9  2  0  0  0  0
 12  9  1  0  0  0  0
 12 27  1  0  0  0  0
 13 10  2  0  0  0  0
 13 28  1  0  0  0  0
 14 10  1  0  0  0  0
 14 29  1  0  0  0  0
 15  5  1  0  0  0  0
 15 30  1  0  0  0  0
 15 31  1  0  0  0  0
 15 32  1  0  0  0  0
 16 19  1  0  0  0  0
 16 18  2  0  0  0  0
 16 33  1  0  0  0  0
 17 21  1  0  0  0  0
 18 13  1  0  0  0  0
 18 34  1  0  0  0  0
 19 14  2  0  0  0  0
 19 35  1  0  0  0  0
 20 12  1  0  0  0  0
 20 36  1  0  0  0  0
 20 37  1  0  0  0  0
 21 20  1  0  0  0  0
 21 38  1  0  0  0  0
 21 39  1  0  0  0  0
 22 17  1  0  0  0  0
 22 40  1  0  0  0  0
 22 41  1  0  0  0  0
 23 17  1  0  0  0  0
 23 42  1  0  0  0  0
 23 43  1  0  0  0  0
 24 23  1  0  0  0  0
 24 44  1  0  0  0  0
 24 45  1  0  0  0  0
 24 46  1  0  0  0  0
 25 22  1  0  0  0  0
 25 47  1  0  0  0  0
 25 48  1  0  0  0  0
 25 49  1  0  0  0  0
M  END
>  <Mol_ID>
9327

>  <Formula>
C19H23ClN4OS

>  <MolWeight>
390.93012

>  <Cat>
P2615

>  <Name>
WAY-331527

>  <Synonyms>
N/A

>  <Target>
others

>  <Form>
free base

>  <CAS>
902561-80-2

>  <URL>
N/A

$$$$
