WAY-359885
 OpenBabel08302521443D

 36 38  0  0  0  0  0  0  0  0999 V2000
    1.3244   -0.6686    1.2083 N   0  0  0  0  0  0  0  0  0  0  0  0
    1.4740   -1.5043    0.1069 C   0  0  0  0  0  0  0  0  0  0  0  0
    0.4368    0.4132    1.2138 C   0  0  0  0  0  0  0  0  0  0  0  0
    0.8015   -1.3472   -0.9936 N   0  0  0  0  0  0  0  0  0  0  0  0
   -0.3789    0.5736   -0.0050 C   0  0  0  0  0  0  0  0  0  0  0  0
   -0.1485   -0.3180   -1.0570 C   0  0  0  0  0  0  0  0  0  0  0  0
    2.4676   -2.6605    0.2073 C   0  0  0  0  0  0  0  0  0  0  0  0
    0.3233    1.1946    2.1577 O   0  0  0  0  0  0  0  0  0  0  0  0
    2.0503   -0.9087    2.4186 N   0  0  0  0  0  0  0  0  0  0  0  0
    3.7741   -2.2019   -0.1490 O   0  0  0  0  0  0  0  0  0  0  0  0
    4.7808   -3.1294   -0.0218 C   0  0  0  0  0  0  0  0  0  0  0  0
    5.8404   -3.0863   -0.9466 C   0  0  0  0  0  0  0  0  0  0  0  0
   -1.3619    1.5654   -0.0958 C   0  0  0  0  0  0  0  0  0  0  0  0
   -0.9188   -0.1969   -2.2149 C   0  0  0  0  0  0  0  0  0  0  0  0
    4.8334   -4.0480    1.0344 C   0  0  0  0  0  0  0  0  0  0  0  0
    5.8678   -2.1369   -2.1124 C   0  0  0  0  0  0  0  0  0  0  0  0
    6.9001   -4.0046   -0.8210 C   0  0  0  0  0  0  0  0  0  0  0  0
   -2.1268    1.6676   -1.2556 C   0  0  0  0  0  0  0  0  0  0  0  0
   -1.9049    0.7869   -2.3157 C   0  0  0  0  0  0  0  0  0  0  0  0
    6.9314   -4.9233    0.2260 C   0  0  0  0  0  0  0  0  0  0  0  0
    5.8998   -4.9409    1.1558 C   0  0  0  0  0  0  0  0  0  0  0  0
    2.4257   -3.0539    1.2257 H   0  0  0  0  0  0  0  0  0  0  0  0
    2.1534   -3.4501   -0.4855 H   0  0  0  0  0  0  0  0  0  0  0  0
    1.8565   -0.1001    3.0269 H   0  0  0  0  0  0  0  0  0  0  0  0
    3.0469   -0.8371    2.2021 H   0  0  0  0  0  0  0  0  0  0  0  0
   -1.5353    2.2465    0.7340 H   0  0  0  0  0  0  0  0  0  0  0  0
   -0.7530   -0.8872   -3.0376 H   0  0  0  0  0  0  0  0  0  0  0  0
    4.0711   -4.0809    1.8043 H   0  0  0  0  0  0  0  0  0  0  0  0
    6.8881   -1.7700   -2.2775 H   0  0  0  0  0  0  0  0  0  0  0  0
    5.5331   -2.6495   -3.0203 H   0  0  0  0  0  0  0  0  0  0  0  0
    5.2378   -1.2590   -1.9484 H   0  0  0  0  0  0  0  0  0  0  0  0
    7.7153   -4.0009   -1.5423 H   0  0  0  0  0  0  0  0  0  0  0  0
   -2.9002    2.4276   -1.3351 H   0  0  0  0  0  0  0  0  0  0  0  0
   -2.5032    0.8599   -3.2208 H   0  0  0  0  0  0  0  0  0  0  0  0
    7.7631   -5.6164    0.3205 H   0  0  0  0  0  0  0  0  0  0  0  0
    5.9252   -5.6432    1.9849 H   0  0  0  0  0  0  0  0  0  0  0  0
  2  1  1  0  0  0  0
  3  1  1  0  0  0  0
  4  2  2  0  0  0  0
  5  3  1  0  0  0  0
  6  5  2  0  0  0  0
  6  4  1  0  0  0  0
  7  2  1  0  0  0  0
  7 22  1  0  0  0  0
  7 23  1  0  0  0  0
  8  3  2  0  0  0  0
  9  1  1  0  0  0  0
  9 24  1  0  0  0  0
  9 25  1  0  0  0  0
 10  7  1  0  0  0  0
 11 10  1  0  0  0  0
 12 11  2  0  0  0  0
 13  5  1  0  0  0  0
 13 26  1  0  0  0  0
 14  6  1  0  0  0  0
 14 19  2  0  0  0  0
 14 27  1  0  0  0  0
 15 11  1  0  0  0  0
 15 28  1  0  0  0  0
 16 12  1  0  0  0  0
 16 29  1  0  0  0  0
 16 30  1  0  0  0  0
 16 31  1  0  0  0  0
 17 12  1  0  0  0  0
 17 32  1  0  0  0  0
 18 13  2  0  0  0  0
 18 33  1  0  0  0  0
 19 18  1  0  0  0  0
 19 34  1  0  0  0  0
 20 21  1  0  0  0  0
 20 17  2  0  0  0  0
 20 35  1  0  0  0  0
 21 15  2  0  0  0  0
 21 36  1  0  0  0  0
M  END
>  <Mol_ID>
9145

>  <Formula>
C16H15N3O2

>  <MolWeight>
281.3092

>  <Cat>
P2795

>  <Name>
WAY-359885

>  <Synonyms>
N/A

>  <Target>
H1 receptor

>  <Form>
free base

>  <CAS>
913508-09-5

>  <URL>
N/A

$$$$
