WAY-637475
 OpenBabel08302521423D

 42 45  0  0  0  0  0  0  0  0999 V2000
   -1.0232    1.4069   -0.1996 N   0  0  0  0  0  0  0  0  0  0  0  0
   -1.1476    2.7391   -0.6742 C   0  0  0  0  0  0  0  0  0  0  0  0
   -0.0861    3.2978   -1.5063 C   0  0  0  0  0  0  0  0  0  0  0  0
    5.3795    0.6354   -6.3471 N   0  3  0  0  0  0  0  0  0  0  0  0
    0.6634    2.5082   -2.3368 O   0  0  0  0  0  0  0  0  0  0  0  0
    1.6200    3.2918   -2.9175 C   0  0  0  0  0  0  0  0  0  0  0  0
   -2.0884    0.7520    0.5266 C   0  0  0  0  0  0  0  0  0  0  0  0
    0.3191    4.6112   -1.6554 C   0  0  0  0  0  0  0  0  0  0  0  0
    1.4243    4.6046   -2.5402 C   0  0  0  0  0  0  0  0  0  0  0  0
    4.4356    1.3049   -5.4460 C   0  0  0  0  0  0  0  0  0  0  0  0
    6.1340    1.3463   -7.0268 O   0  5  0  0  0  0  0  0  0  0  0  0
    2.5885    2.6047   -3.7677 C   0  0  0  0  0  0  0  0  0  0  0  0
    5.3645   -0.6043   -6.3791 O   0  0  0  0  0  0  0  0  0  0  0  0
   -2.0820    3.4715   -0.3513 O   0  0  0  0  0  0  0  0  0  0  0  0
   -1.7991   -0.3293    1.3888 C   0  0  0  0  0  0  0  0  0  0  0  0
    4.4252    2.7042   -5.3711 C   0  0  0  0  0  0  0  0  0  0  0  0
    3.5484    0.5473   -4.6758 C   0  0  0  0  0  0  0  0  0  0  0  0
    2.6323    1.2003   -3.8415 C   0  0  0  0  0  0  0  0  0  0  0  0
    3.5063    3.3420   -4.5307 C   0  0  0  0  0  0  0  0  0  0  0  0
    0.2260    0.6386   -0.3059 C   0  0  0  0  0  0  0  0  0  0  0  0
   -3.4303    1.1421    0.3971 C   0  0  0  0  0  0  0  0  0  0  0  0
    0.6527    0.0353    1.0167 C   0  0  0  0  0  0  0  0  0  0  0  0
   -0.4152   -0.8990    1.5371 C   0  0  0  0  0  0  0  0  0  0  0  0
   -2.8282   -0.9401    2.1301 C   0  0  0  0  0  0  0  0  0  0  0  0
   -4.4475    0.5193    1.1294 C   0  0  0  0  0  0  0  0  0  0  0  0
   -4.1442   -0.5101    2.0096 C   0  0  0  0  0  0  0  0  0  0  0  0
   -0.1191    5.4620   -1.1501 H   0  0  0  0  0  0  0  0  0  0  0  0
    2.0117    5.4580   -2.8488 H   0  0  0  0  0  0  0  0  0  0  0  0
    5.1118    3.3085   -5.9591 H   0  0  0  0  0  0  0  0  0  0  0  0
    3.5466   -0.5389   -4.7161 H   0  0  0  0  0  0  0  0  0  0  0  0
    1.9456    0.5970   -3.2502 H   0  0  0  0  0  0  0  0  0  0  0  0
    3.5124    4.4298   -4.4907 H   0  0  0  0  0  0  0  0  0  0  0  0
    1.0640    1.2593   -0.6149 H   0  0  0  0  0  0  0  0  0  0  0  0
    0.0747   -0.1321   -1.0727 H   0  0  0  0  0  0  0  0  0  0  0  0
   -3.7303    1.9210   -0.2991 H   0  0  0  0  0  0  0  0  0  0  0  0
    1.5959   -0.5097    0.8939 H   0  0  0  0  0  0  0  0  0  0  0  0
    0.8346    0.8405    1.7391 H   0  0  0  0  0  0  0  0  0  0  0  0
   -0.3751   -1.8479    0.9885 H   0  0  0  0  0  0  0  0  0  0  0  0
   -0.2047   -1.1150    2.5912 H   0  0  0  0  0  0  0  0  0  0  0  0
   -2.5989   -1.7579    2.8100 H   0  0  0  0  0  0  0  0  0  0  0  0
   -5.4775    0.8440    1.0061 H   0  0  0  0  0  0  0  0  0  0  0  0
   -4.9298   -0.9850    2.5908 H   0  0  0  0  0  0  0  0  0  0  0  0
  2  1  1  0  0  0  0
  3  2  1  0  0  0  0
  4 10  1  0  0  0  0
  5  3  1  0  0  0  0
  6  5  1  0  0  0  0
  7  1  1  0  0  0  0
  8  3  2  0  0  0  0
  8 27  1  0  0  0  0
  9  8  1  0  0  0  0
  9  6  2  0  0  0  0
  9 28  1  0  0  0  0
 10 16  2  0  0  0  0
 10 17  1  0  0  0  0
 11  4  1  0  0  0  0
 12  6  1  0  0  0  0
 13  4  2  0  0  0  0
 14  2  2  0  0  0  0
 15  7  2  0  0  0  0
 16 19  1  0  0  0  0
 16 29  1  0  0  0  0
 17 18  2  0  0  0  0
 17 30  1  0  0  0  0
 18 12  1  0  0  0  0
 18 31  1  0  0  0  0
 19 12  2  0  0  0  0
 19 32  1  0  0  0  0
 20  1  1  0  0  0  0
 20 33  1  0  0  0  0
 20 34  1  0  0  0  0
 21  7  1  0  0  0  0
 21 35  1  0  0  0  0
 22 20  1  0  0  0  0
 22 36  1  0  0  0  0
 22 37  1  0  0  0  0
 23 22  1  0  0  0  0
 23 15  1  0  0  0  0
 23 38  1  0  0  0  0
 23 39  1  0  0  0  0
 24 15  1  0  0  0  0
 24 40  1  0  0  0  0
 25 21  2  0  0  0  0
 25 41  1  0  0  0  0
 26 25  1  0  0  0  0
 26 24  2  0  0  0  0
 26 42  1  0  0  0  0
M  CHG  2   4   1  11  -1
M  END
>  <Mol_ID>
8493

>  <Formula>
C20H16N2O4

>  <MolWeight>
348.35204

>  <Cat>
P3013

>  <Name>
WAY-637475

>  <Synonyms>
N/A

>  <Target>
PDE4B,P-glycoprotein

>  <Form>
free base

>  <CAS>
793729-54-1

>  <URL>
N/A

$$$$
