WAY-303290
 OpenBabel08302521323D

 31 33  0  0  0  0  0  0  0  0999 V2000
   -0.0210    0.4472    0.0094 C   0  0  0  0  0  0  0  0  0  0  0  0
   -0.2525   -0.9276    0.0698 C   0  0  0  0  0  0  0  0  0  0  0  0
    0.9809   -1.6589    0.0690 C   0  0  0  0  0  0  0  0  0  0  0  0
    2.1043   -0.8576   -0.0065 C   0  0  0  0  0  0  0  0  0  0  0  0
    1.6692    0.7944   -0.0312 S   0  0  0  0  0  0  0  0  0  0  0  0
   -1.5935   -1.3818    0.1105 C   0  0  0  0  0  0  0  0  0  0  0  0
   -2.6526   -0.4693    0.0822 C   0  0  0  0  0  0  0  0  0  0  0  0
   -2.3998    0.8935    0.0203 C   0  0  0  0  0  0  0  0  0  0  0  0
   -1.0866    1.3689   -0.0118 C   0  0  0  0  0  0  0  0  0  0  0  0
    3.4879   -1.3211   -0.0602 C   0  0  0  0  0  0  0  0  0  0  0  0
    3.7801   -2.5139   -0.0150 O   0  0  0  0  0  0  0  0  0  0  0  0
    4.4610   -0.3494   -0.1708 N   0  0  0  0  0  0  0  0  0  0  0  0
    5.8745   -0.6602   -0.2038 C   0  0  0  0  0  0  0  0  0  0  0  0
    7.5484    0.8069   -1.3937 C   0  0  0  0  0  0  0  0  0  0  0  0
    6.5341   -0.1444   -1.4503 C   0  0  0  0  0  0  0  0  0  0  0  0
    6.1873   -0.6314   -2.7148 C   0  0  0  0  0  0  0  0  0  0  0  0
    6.8427   -0.1527   -3.8465 C   0  0  0  0  0  0  0  0  0  0  0  0
    7.8320    0.8014   -3.6776 C   0  0  0  0  0  0  0  0  0  0  0  0
    8.1997    1.2933   -2.4760 N   0  0  0  0  0  0  0  0  0  0  0  0
    1.0410   -2.7412    0.1043 H   0  0  0  0  0  0  0  0  0  0  0  0
   -1.8043   -2.4477    0.1565 H   0  0  0  0  0  0  0  0  0  0  0  0
   -3.6783   -0.8327    0.1055 H   0  0  0  0  0  0  0  0  0  0  0  0
   -3.2290    1.5975   -0.0058 H   0  0  0  0  0  0  0  0  0  0  0  0
   -0.8925    2.4381   -0.0579 H   0  0  0  0  0  0  0  0  0  0  0  0
    4.1733    0.6200   -0.1977 H   0  0  0  0  0  0  0  0  0  0  0  0
    6.3157   -0.1961    0.6854 H   0  0  0  0  0  0  0  0  0  0  0  0
    6.0486   -1.7388   -0.1227 H   0  0  0  0  0  0  0  0  0  0  0  0
    7.8880    1.2195   -0.4471 H   0  0  0  0  0  0  0  0  0  0  0  0
    5.4154   -1.3904   -2.8186 H   0  0  0  0  0  0  0  0  0  0  0  0
    6.5922   -0.5205   -4.8352 H   0  0  0  0  0  0  0  0  0  0  0  0
    8.3730    1.2046   -4.5298 H   0  0  0  0  0  0  0  0  0  0  0  0
  1  2  2  0  0  0  0
  1  5  1  0  0  0  0
  2  3  1  0  0  0  0
  3  4  2  0  0  0  0
  3 20  1  0  0  0  0
  4  5  1  0  0  0  0
  4 10  1  0  0  0  0
  6  7  2  0  0  0  0
  6  2  1  0  0  0  0
  6 21  1  0  0  0  0
  7  8  1  0  0  0  0
  7 22  1  0  0  0  0
  8  9  2  0  0  0  0
  8 23  1  0  0  0  0
  9  1  1  0  0  0  0
  9 24  1  0  0  0  0
 10 11  2  0  0  0  0
 10 12  1  0  0  0  0
 12 13  1  0  0  0  0
 12 25  1  0  0  0  0
 13 15  1  0  0  0  0
 13 26  1  0  0  0  0
 13 27  1  0  0  0  0
 14 15  2  0  0  0  0
 14 19  1  0  0  0  0
 14 28  1  0  0  0  0
 15 16  1  0  0  0  0
 16 17  2  0  0  0  0
 16 29  1  0  0  0  0
 17 18  1  0  0  0  0
 17 30  1  0  0  0  0
 18 19  2  0  0  0  0
 18 31  1  0  0  0  0
M  END
>  <Mol_ID>
6306

>  <Formula>
C15H11ClN2OS

>  <MolWeight>
302.77864

>  <Cat>
E0535

>  <Name>
WAY-303290

>  <Synonyms>
GluR6 antagonist-1

>  <Target>
GluR

>  <Form>
free base

>  <CAS>
323176-64-3

>  <URL>
http://www.selleckchem.com/products/way-303290.html

$$$$
