WAY-327936
 OpenBabel08302521443D

 26 28  0  0  0  0  0  0  0  0999 V2000
   -2.1194    0.8355   -0.9952 C   0  0  0  0  0  0  0  0  0  0  0  0
   -0.9071    2.0625   -0.5285 S   0  0  0  0  0  0  0  0  0  0  0  0
   -2.1525    0.3911   -2.6495 S   0  0  0  0  0  0  0  0  0  0  0  0
   -3.0742    0.1505   -0.2678 C   0  0  0  0  0  0  0  0  0  0  0  0
   -1.1738    3.4726   -1.4323 N   0  0  0  0  0  0  0  0  0  0  0  0
   -1.1653    2.3251    0.8740 O   0  0  0  0  0  0  0  0  0  0  0  0
    0.3594    1.5136   -0.9696 O   0  0  0  0  0  0  0  0  0  0  0  0
   -3.4511   -0.6956   -2.3973 C   0  0  0  0  0  0  0  0  0  0  0  0
   -3.8474   -0.7312   -1.0782 C   0  0  0  0  0  0  0  0  0  0  0  0
   -2.4756    3.9787   -1.2165 C   0  0  0  0  0  0  0  0  0  0  0  0
   -3.4240    3.6225   -2.0412 N   0  0  0  0  0  0  0  0  0  0  0  0
   -2.8620    5.1631   -0.0567 S   0  0  0  0  0  0  0  0  0  0  0  0
   -4.5970    4.2719   -1.6924 C   0  0  0  0  0  0  0  0  0  0  0  0
   -4.4821    5.1970   -0.6506 C   0  0  0  0  0  0  0  0  0  0  0  0
   -5.8551    4.0859   -2.3000 C   0  0  0  0  0  0  0  0  0  0  0  0
   -5.5729    5.9762   -0.2290 C   0  0  0  0  0  0  0  0  0  0  0  0
   -6.9532    4.8376   -1.8694 C   0  0  0  0  0  0  0  0  0  0  0  0
   -6.8085    5.7790   -0.8549 C   0  0  0  0  0  0  0  0  0  0  0  0
   -3.2076    0.2870    0.7988 H   0  0  0  0  0  0  0  0  0  0  0  0
   -1.0926    3.1952   -2.4098 H   0  0  0  0  0  0  0  0  0  0  0  0
   -3.8592   -1.2585   -3.2266 H   0  0  0  0  0  0  0  0  0  0  0  0
   -4.6512   -1.3589   -0.7125 H   0  0  0  0  0  0  0  0  0  0  0  0
   -5.9633    3.3573   -3.0975 H   0  0  0  0  0  0  0  0  0  0  0  0
   -5.4640    6.7106    0.5640 H   0  0  0  0  0  0  0  0  0  0  0  0
   -7.9238    4.6875   -2.3368 H   0  0  0  0  0  0  0  0  0  0  0  0
   -7.6688    6.3665   -0.5394 H   0  0  0  0  0  0  0  0  0  0  0  0
  1  2  1  0  0  0  0
  1  3  1  0  0  0  0
  1  4  2  0  0  0  0
  2  5  1  0  0  0  0
  2  6  2  0  0  0  0
  2  7  2  0  0  0  0
  3  8  1  0  0  0  0
  4  9  1  0  0  0  0
  4 19  1  0  0  0  0
  5 10  1  0  0  0  0
  5 20  1  0  0  0  0
  8  9  2  0  0  0  0
  8 21  1  0  0  0  0
  9 22  1  0  0  0  0
 10 11  2  0  0  0  0
 10 12  1  0  0  0  0
 11 13  1  0  0  0  0
 12 14  1  0  0  0  0
 13 15  2  0  0  0  0
 13 14  1  0  0  0  0
 14 16  2  0  0  0  0
 15 17  1  0  0  0  0
 15 23  1  0  0  0  0
 16 18  1  0  0  0  0
 16 24  1  0  0  0  0
 17 18  2  0  0  0  0
 17 25  1  0  0  0  0
 18 26  1  0  0  0  0
M  END
>  <Mol_ID>
8985

>  <Formula>
C11H7ClN2O2S3

>  <MolWeight>
330.83348

>  <Cat>
P2548

>  <Name>
WAY-327936

>  <Synonyms>
N/A

>  <Target>
NadD

>  <Form>
free base

>  <CAS>
620103-74-4

>  <URL>
N/A

$$$$
