WAY-331958
 OpenBabel08302521443D

 45 47  0  0  0  0  0  0  0  0999 V2000
   -1.2305    0.6202    0.7120 N   0  0  0  0  0  0  0  0  0  0  0  0
   -1.1058   -0.6810    0.5403 C   0  0  0  0  0  0  0  0  0  0  0  0
   -0.1714    1.1631    0.0041 C   0  0  0  0  0  0  0  0  0  0  0  0
   -0.0412   -1.0393   -0.2446 O   0  0  0  0  0  0  0  0  0  0  0  0
    0.5467    0.1464   -0.5846 C   0  0  0  0  0  0  0  0  0  0  0  0
   -1.9439   -1.7635    1.0472 C   0  0  0  0  0  0  0  0  0  0  0  0
   -2.9895    3.7291    0.3378 C   0  0  0  0  0  0  0  0  0  0  0  0
   -4.3549    3.9260    0.4452 N   0  0  0  0  0  0  0  0  0  0  0  0
   -2.2274    4.0597    1.2415 O   0  0  0  0  0  0  0  0  0  0  0  0
   -3.1120   -1.4610    1.7629 C   0  0  0  0  0  0  0  0  0  0  0  0
   -1.6161   -3.1111    0.8376 C   0  0  0  0  0  0  0  0  0  0  0  0
   -0.8227    3.4375   -1.4164 S   0  0  0  0  0  0  0  0  0  0  0  0
    0.0634    2.6282   -0.0379 C   0  0  0  0  0  0  0  0  0  0  0  0
   -3.5987   -3.8124    2.0305 C   0  0  0  0  0  0  0  0  0  0  0  0
   -4.8634    4.6894    1.5625 C   0  0  0  0  0  0  0  0  0  0  0  0
   -3.9371   -2.4786    2.2499 C   0  0  0  0  0  0  0  0  0  0  0  0
   -2.4384   -4.1298    1.3269 C   0  0  0  0  0  0  0  0  0  0  0  0
   -2.5546    3.0736   -0.9676 C   0  0  0  0  0  0  0  0  0  0  0  0
   -6.3110    4.3998    1.8454 C   0  0  0  0  0  0  0  0  0  0  0  0
    1.7389    0.0744   -1.4455 C   0  0  0  0  0  0  0  0  0  0  0  0
   -6.7127    3.1165    2.2450 C   0  0  0  0  0  0  0  0  0  0  0  0
   -7.2666    5.4227    1.7860 C   0  0  0  0  0  0  0  0  0  0  0  0
   -8.0429    2.8644    2.5823 C   0  0  0  0  0  0  0  0  0  0  0  0
   -8.5967    5.1688    2.1245 C   0  0  0  0  0  0  0  0  0  0  0  0
   -8.9834    3.8911    2.5245 C   0  0  0  0  0  0  0  0  0  0  0  0
   -4.9401    3.8398   -0.3752 H   0  0  0  0  0  0  0  0  0  0  0  0
   -3.3844   -0.4226    1.9446 H   0  0  0  0  0  0  0  0  0  0  0  0
   -0.7149   -3.3815    0.2916 H   0  0  0  0  0  0  0  0  0  0  0  0
   -0.1697    3.0889    0.9229 H   0  0  0  0  0  0  0  0  0  0  0  0
    1.1311    2.8190   -0.1957 H   0  0  0  0  0  0  0  0  0  0  0  0
   -4.2381   -4.6052    2.4095 H   0  0  0  0  0  0  0  0  0  0  0  0
   -4.2748    4.4853    2.4640 H   0  0  0  0  0  0  0  0  0  0  0  0
   -4.7155    5.7465    1.3132 H   0  0  0  0  0  0  0  0  0  0  0  0
   -4.8399   -2.2288    2.8000 H   0  0  0  0  0  0  0  0  0  0  0  0
   -2.1713   -5.1701    1.1585 H   0  0  0  0  0  0  0  0  0  0  0  0
   -3.1695    3.4778   -1.7792 H   0  0  0  0  0  0  0  0  0  0  0  0
   -2.7357    1.9967   -0.9306 H   0  0  0  0  0  0  0  0  0  0  0  0
    2.5673   -0.4000   -0.9114 H   0  0  0  0  0  0  0  0  0  0  0  0
    1.5274   -0.5120   -2.3452 H   0  0  0  0  0  0  0  0  0  0  0  0
    2.0632    1.0704   -1.7616 H   0  0  0  0  0  0  0  0  0  0  0  0
   -5.9812    2.3134    2.3144 H   0  0  0  0  0  0  0  0  0  0  0  0
   -6.9784    6.4309    1.4953 H   0  0  0  0  0  0  0  0  0  0  0  0
   -8.3425    1.8703    2.9039 H   0  0  0  0  0  0  0  0  0  0  0  0
   -9.3279    5.9721    2.0897 H   0  0  0  0  0  0  0  0  0  0  0  0
  -10.0170    3.6979    2.7994 H   0  0  0  0  0  0  0  0  0  0  0  0
  2  1  2  0  0  0  0
  3  1  1  0  0  0  0
  4  2  1  0  0  0  0
  4  5  1  0  0  0  0
  5  3  2  0  0  0  0
  6  2  1  0  0  0  0
  7 18  1  0  0  0  0
  8  7  1  0  0  0  0
  8 26  1  0  0  0  0
  9  7  2  0  0  0  0
 10  6  2  0  0  0  0
 10 27  1  0  0  0  0
 11  6  1  0  0  0  0
 11 28  1  0  0  0  0
 12 13  1  0  0  0  0
 13  3  1  0  0  0  0
 13 29  1  0  0  0  0
 13 30  1  0  0  0  0
 14 17  1  0  0  0  0
 14 31  1  0  0  0  0
 15  8  1  0  0  0  0
 15 32  1  0  0  0  0
 15 33  1  0  0  0  0
 16 10  1  0  0  0  0
 16 14  2  0  0  0  0
 16 34  1  0  0  0  0
 17 11  2  0  0  0  0
 17 35  1  0  0  0  0
 18 12  1  0  0  0  0
 18 36  1  0  0  0  0
 18 37  1  0  0  0  0
 19 15  1  0  0  0  0
 20  5  1  0  0  0  0
 20 38  1  0  0  0  0
 20 39  1  0  0  0  0
 20 40  1  0  0  0  0
 21 19  2  0  0  0  0
 21 41  1  0  0  0  0
 22 19  1  0  0  0  0
 22 42  1  0  0  0  0
 23 21  1  0  0  0  0
 23 25  2  0  0  0  0
 23 43  1  0  0  0  0
 24 22  2  0  0  0  0
 24 44  1  0  0  0  0
 25 24  1  0  0  0  0
 25 45  1  0  0  0  0
M  END
>  <Mol_ID>
9190

>  <Formula>
C20H19ClN2O2S

>  <MolWeight>
386.89506

>  <Cat>
P2620

>  <Name>
WAY-331958

>  <Synonyms>
N/A

>  <Target>
beta-catenin

>  <Form>
free base

>  <CAS>
901737-48-2

>  <URL>
N/A

$$$$
