WAY-658691
 OpenBabel08302521433D

 51 54  0  0  0  0  0  0  0  0999 V2000
   -0.6364   -1.2848    0.5193 C   0  0  0  0  0  0  0  0  0  0  0  0
    3.5292   -5.1857    0.2194 C   0  0  0  0  0  0  0  0  0  0  0  0
    3.0756   -5.1297    1.5292 N   0  0  0  0  0  0  0  0  0  0  0  0
    0.7441   -1.3047    0.0629 C   0  0  0  0  0  0  0  0  0  0  0  0
    3.6645   -6.2766   -0.4738 N   0  0  0  0  0  0  0  0  0  0  0  0
   -1.1104    0.0093    0.3356 C   0  0  0  0  0  0  0  0  0  0  0  0
    1.0368   -0.0108   -0.3737 C   0  0  0  0  0  0  0  0  0  0  0  0
   -0.0829    0.7572   -0.1716 N   0  0  0  0  0  0  0  0  0  0  0  0
    2.1116   -6.1820    1.9175 C   0  0  3  0  0  0  0  0  0  0  0  0
    2.5453   -7.5112    1.3329 C   0  0  0  0  0  0  0  0  0  0  0  0
    3.3514   -7.4797    0.1829 C   0  0  0  0  0  0  0  0  0  0  0  0
    3.9932   -4.9192    2.5608 N   0  0  0  0  0  0  0  0  0  0  0  0
   -1.3786   -2.4105    1.0979 C   0  0  0  0  0  0  0  0  0  0  0  0
    4.0555   -3.6947   -0.5621 S   0  0  0  0  0  0  0  0  0  0  0  0
    1.5814   -2.5220   -0.0179 C   0  0  0  0  0  0  0  0  0  0  0  0
    3.5339   -5.5376    3.5958 C   0  0  0  0  0  0  0  0  0  0  0  0
    3.0691   -2.4439    0.3115 C   0  0  0  0  0  0  0  0  0  0  0  0
   -0.8680   -3.2445    1.8383 O   0  0  0  0  0  0  0  0  0  0  0  0
    2.1758   -6.1238    3.4416 C   0  0  0  0  0  0  0  0  0  0  0  0
    1.0355   -3.5927   -0.2916 O   0  0  0  0  0  0  0  0  0  0  0  0
   -2.7098   -2.3917    0.7732 O   0  0  0  0  0  0  0  0  0  0  0  0
   -2.4263    0.6584    0.5902 C   0  0  0  0  0  0  0  0  0  0  0  0
    2.2047    0.6569   -1.0180 C   0  0  0  0  0  0  0  0  0  0  0  0
    2.1931   -8.7480    1.8983 C   0  0  0  0  0  0  0  0  0  0  0  0
    3.8976   -8.6693   -0.3018 C   0  0  0  0  0  0  0  0  0  0  0  0
   -3.4787   -3.4559    1.3457 C   0  0  0  0  0  0  0  0  0  0  0  0
    2.7501   -9.9284    1.4071 C   0  0  0  0  0  0  0  0  0  0  0  0
    3.6241   -9.8861    0.3244 C   0  0  0  0  0  0  0  0  0  0  0  0
   -4.9383   -3.2584    0.9767 C   0  0  0  0  0  0  0  0  0  0  0  0
   -0.1518    1.7406   -0.4022 H   0  0  0  0  0  0  0  0  0  0  0  0
    1.1041   -5.9417    1.5563 H   0  0  0  0  0  0  0  0  0  0  0  0
    4.0635   -5.5891    4.5570 H   0  0  0  0  0  0  0  0  0  0  0  0
    3.4826   -1.4874    0.0007 H   0  0  0  0  0  0  0  0  0  0  0  0
    3.2091   -2.5031    1.3937 H   0  0  0  0  0  0  0  0  0  0  0  0
    1.4634   -5.4066    3.8611 H   0  0  0  0  0  0  0  0  0  0  0  0
    2.0903   -7.0706    3.9753 H   0  0  0  0  0  0  0  0  0  0  0  0
   -2.3071    1.4934    1.2889 H   0  0  0  0  0  0  0  0  0  0  0  0
   -2.8390    1.0546   -0.3447 H   0  0  0  0  0  0  0  0  0  0  0  0
   -3.1641   -0.0227    1.0187 H   0  0  0  0  0  0  0  0  0  0  0  0
    1.8900    1.1664   -1.9276 H   0  0  0  0  0  0  0  0  0  0  0  0
    2.6356    1.4003   -0.3374 H   0  0  0  0  0  0  0  0  0  0  0  0
    2.9906   -0.0436   -1.3064 H   0  0  0  0  0  0  0  0  0  0  0  0
    1.5070   -8.8083    2.7389 H   0  0  0  0  0  0  0  0  0  0  0  0
    4.5644   -8.6349   -1.1591 H   0  0  0  0  0  0  0  0  0  0  0  0
   -3.1255   -4.4139    0.9495 H   0  0  0  0  0  0  0  0  0  0  0  0
   -3.3768   -3.4459    2.4365 H   0  0  0  0  0  0  0  0  0  0  0  0
    2.5152  -10.8794    1.8788 H   0  0  0  0  0  0  0  0  0  0  0  0
    4.0893  -10.7981   -0.0392 H   0  0  0  0  0  0  0  0  0  0  0  0
   -5.3137   -2.3082    1.3717 H   0  0  0  0  0  0  0  0  0  0  0  0
   -5.0653   -3.2242   -0.1102 H   0  0  0  0  0  0  0  0  0  0  0  0
   -5.5532   -4.0700    1.3775 H   0  0  0  0  0  0  0  0  0  0  0  0
  2 14  1  0  0  0  0
  3  2  1  0  0  0  0
  4  1  1  0  0  0  0
  5  2  2  0  0  0  0
  6  1  2  0  0  0  0
  7  4  2  0  0  0  0
  7  8  1  0  0  0  0
  8  6  1  0  0  0  0
  8 30  1  0  0  0  0
  9  3  1  0  0  0  0
  9 31  1  0  0  0  0
 10 11  2  0  0  0  0
 10  9  1  0  0  0  0
 11  5  1  0  0  0  0
 12  3  1  0  0  0  0
 13  1  1  0  0  0  0
 14 17  1  0  0  0  0
 15  4  1  0  0  0  0
 16 12  2  0  0  0  0
 16 19  1  0  0  0  0
 16 32  1  0  0  0  0
 17 15  1  0  0  0  0
 17 33  1  0  0  0  0
 17 34  1  0  0  0  0
 18 13  2  0  0  0  0
 19  9  1  0  0  0  0
 19 35  1  0  0  0  0
 19 36  1  0  0  0  0
 20 15  2  0  0  0  0
 21 13  1  0  0  0  0
 22  6  1  0  0  0  0
 22 37  1  0  0  0  0
 22 38  1  0  0  0  0
 22 39  1  0  0  0  0
 23  7  1  0  0  0  0
 23 40  1  0  0  0  0
 23 41  1  0  0  0  0
 23 42  1  0  0  0  0
 24 10  1  0  0  0  0
 24 27  2  0  0  0  0
 24 43  1  0  0  0  0
 25 11  1  0  0  0  0
 25 44  1  0  0  0  0
 26 21  1  0  0  0  0
 26 45  1  0  0  0  0
 26 46  1  0  0  0  0
 27 28  1  0  0  0  0
 27 47  1  0  0  0  0
 28 25  2  0  0  0  0
 28 48  1  0  0  0  0
 29 26  1  0  0  0  0
 29 49  1  0  0  0  0
 29 50  1  0  0  0  0
 29 51  1  0  0  0  0
M  END
>  <Mol_ID>
8829

>  <Formula>
C21H22N4O3S

>  <MolWeight>
410.48938

>  <Cat>
P3175

>  <Name>
WAY-658691

>  <Synonyms>
N/A

>  <Target>
Others

>  <Form>
free base

>  <CAS>
868233-37-8

>  <URL>
N/A

$$$$
