WAY-656941
 OpenBabel08302521423D

 42 44  0  0  0  0  0  0  0  0999 V2000
   -6.8925   -2.4100   -2.6156 C   0  0  0  0  0  0  0  0  0  0  0  0
   -7.0950   -3.6994   -2.4878 N   0  0  0  0  0  0  0  0  0  0  0  0
   -6.9671   -1.7970   -4.2041 S   0  0  0  0  0  0  0  0  0  0  0  0
   -6.6003   -1.6076   -1.5328 N   0  0  0  0  0  0  0  0  0  0  0  0
   -7.4141   -3.3451   -4.7920 C   0  0  0  0  0  0  0  0  0  0  0  0
   -7.4378   -4.2434   -3.7217 C   0  0  0  0  0  0  0  0  0  0  0  0
   -6.6845   -0.2294   -1.5138 C   0  0  0  0  0  0  0  0  0  0  0  0
   -7.7275   -3.7302   -6.1042 C   0  0  0  0  0  0  0  0  0  0  0  0
   -7.3789    2.8267    3.6415 C   0  0  0  0  0  0  0  0  0  0  0  0
   -6.3734    3.8080    3.6899 C   0  0  0  0  0  0  0  0  0  0  0  0
   -7.5900    2.1330    2.4384 C   0  0  0  0  0  0  0  0  0  0  0  0
   -6.9787    0.4875   -2.4659 O   0  0  0  0  0  0  0  0  0  0  0  0
   -7.8043   -5.5824   -3.9773 C   0  0  0  0  0  0  0  0  0  0  0  0
   -5.6304    4.0958    2.5376 C   0  0  0  0  0  0  0  0  0  0  0  0
   -8.0859   -5.0564   -6.3180 C   0  0  0  0  0  0  0  0  0  0  0  0
   -6.8384    2.4177    1.2873 C   0  0  0  0  0  0  0  0  0  0  0  0
   -6.3647    0.3814   -0.1618 C   0  0  0  0  0  0  0  0  0  0  0  0
   -8.1315   -5.9775   -5.2814 C   0  0  0  0  0  0  0  0  0  0  0  0
   -5.8520    3.4033    1.3481 C   0  0  0  0  0  0  0  0  0  0  0  0
   -8.1328    2.6242    4.7670 O   0  0  0  0  0  0  0  0  0  0  0  0
   -8.4001   -5.4525   -7.5591 F   0  0  0  0  0  0  0  0  0  0  0  0
   -7.1245    1.7027   -0.0086 C   0  0  0  0  0  0  0  0  0  0  0  0
   -6.0465    4.6109    4.7535 O   0  0  0  0  0  0  0  0  0  0  0  0
   -9.1786    1.6636    4.7080 C   0  0  0  0  0  0  0  0  0  0  0  0
   -6.1746    4.0404    6.0494 C   0  0  0  0  0  0  0  0  0  0  0  0
   -6.4965   -2.1200   -0.6690 H   0  0  0  0  0  0  0  0  0  0  0  0
   -7.7039   -3.0226   -6.9259 H   0  0  0  0  0  0  0  0  0  0  0  0
   -8.3662    1.3786    2.3576 H   0  0  0  0  0  0  0  0  0  0  0  0
   -7.8403   -6.2975   -3.1589 H   0  0  0  0  0  0  0  0  0  0  0  0
   -4.8729    4.8756    2.5706 H   0  0  0  0  0  0  0  0  0  0  0  0
   -6.6326   -0.3094    0.6454 H   0  0  0  0  0  0  0  0  0  0  0  0
   -5.2830    0.5505   -0.1176 H   0  0  0  0  0  0  0  0  0  0  0  0
   -8.4236   -7.0012   -5.4896 H   0  0  0  0  0  0  0  0  0  0  0  0
   -5.2666    3.6586    0.4675 H   0  0  0  0  0  0  0  0  0  0  0  0
   -6.8929    2.3801   -0.8416 H   0  0  0  0  0  0  0  0  0  0  0  0
   -8.2040    1.5162   -0.0840 H   0  0  0  0  0  0  0  0  0  0  0  0
   -9.9167    1.9220    3.9413 H   0  0  0  0  0  0  0  0  0  0  0  0
   -8.7753    0.6580    4.5495 H   0  0  0  0  0  0  0  0  0  0  0  0
   -9.6922    1.6680    5.6740 H   0  0  0  0  0  0  0  0  0  0  0  0
   -7.2110    4.0769    6.3955 H   0  0  0  0  0  0  0  0  0  0  0  0
   -5.7683    3.0241    6.0911 H   0  0  0  0  0  0  0  0  0  0  0  0
   -5.5900    4.6580    6.7392 H   0  0  0  0  0  0  0  0  0  0  0  0
  2  1  2  0  0  0  0
  3  1  1  0  0  0  0
  4  1  1  0  0  0  0
  4 26  1  0  0  0  0
  5  3  1  0  0  0  0
  5  6  2  0  0  0  0
  6  2  1  0  0  0  0
  7  4  1  0  0  0  0
  8  5  1  0  0  0  0
  8 27  1  0  0  0  0
  9 11  2  0  0  0  0
 10 14  2  0  0  0  0
 10  9  1  0  0  0  0
 11 16  1  0  0  0  0
 11 28  1  0  0  0  0
 12  7  2  0  0  0  0
 13  6  1  0  0  0  0
 13 29  1  0  0  0  0
 14 19  1  0  0  0  0
 14 30  1  0  0  0  0
 15  8  2  0  0  0  0
 15 18  1  0  0  0  0
 16 22  1  0  0  0  0
 17  7  1  0  0  0  0
 17 31  1  0  0  0  0
 17 32  1  0  0  0  0
 18 13  2  0  0  0  0
 18 33  1  0  0  0  0
 19 16  2  0  0  0  0
 19 34  1  0  0  0  0
 20  9  1  0  0  0  0
 21 15  1  0  0  0  0
 22 17  1  0  0  0  0
 22 35  1  0  0  0  0
 22 36  1  0  0  0  0
 23 10  1  0  0  0  0
 24 20  1  0  0  0  0
 24 37  1  0  0  0  0
 24 38  1  0  0  0  0
 24 39  1  0  0  0  0
 25 23  1  0  0  0  0
 25 40  1  0  0  0  0
 25 41  1  0  0  0  0
 25 42  1  0  0  0  0
M  END
>  <Mol_ID>
8536

>  <Formula>
C18H17FN2O3S

>  <MolWeight>
360.4025832

>  <Cat>
P3147

>  <Name>
WAY-656941

>  <Synonyms>
N/A

>  <Target>
others

>  <Form>
free base

>  <CAS>
852902-93-3

>  <URL>
N/A

$$$$
