WAY-382524
 OpenBabel08302521413D

 54 57  0  0  0  0  0  0  0  0999 V2000
    2.2499   -0.1370    0.0739 N   0  0  0  0  0  0  0  0  0  0  0  0
    1.6160    1.1111    0.1339 C   0  0  0  0  0  0  0  0  0  0  0  0
    1.5520   -1.3375   -0.0688 C   0  0  0  0  0  0  0  0  0  0  0  0
    3.7281   -0.0745    0.2455 C   0  0  3  0  0  0  0  0  0  0  0  0
    0.0742   -1.2629   -0.1817 C   0  0  0  0  0  0  0  0  0  0  0  0
    0.1421    1.1300    0.2241 C   0  0  0  0  0  0  0  0  0  0  0  0
    4.0182    0.3397    1.7250 C   0  0  0  0  0  0  0  0  0  0  0  0
   -0.5778   -0.0490    0.0313 C   0  0  0  0  0  0  0  0  0  0  0  0
    2.0486   -2.4578   -0.1109 O   0  0  0  0  0  0  0  0  0  0  0  0
    2.2252    2.1806    0.1217 O   0  0  0  0  0  0  0  0  0  0  0  0
    5.1653    1.1029    2.0205 N   0  0  0  0  0  0  0  0  0  0  0  0
    4.5404   -1.3416   -0.1177 C   0  0  0  0  0  0  0  0  0  0  0  0
    3.2475   -0.0153    2.6257 O   0  0  0  0  0  0  0  0  0  0  0  0
   -1.9920   -0.0093    0.0569 C   0  0  0  0  0  0  0  0  0  0  0  0
   -0.5193    2.3357    0.4854 C   0  0  0  0  0  0  0  0  0  0  0  0
   -0.6649   -2.4260   -0.4460 C   0  0  0  0  0  0  0  0  0  0  0  0
    4.5951   -1.7387   -1.5862 C   0  0  0  0  0  0  0  0  0  0  0  0
   -1.9104    2.3694    0.5483 C   0  0  0  0  0  0  0  0  0  0  0  0
   -2.0550   -2.3837   -0.4580 C   0  0  0  0  0  0  0  0  0  0  0  0
    5.3967    1.4882    3.4230 C   0  0  0  0  0  0  0  0  0  0  0  0
    6.1497    1.5709    1.0338 C   0  0  0  0  0  0  0  0  0  0  0  0
   -2.6433    1.2025    0.3250 C   0  0  0  0  0  0  0  0  0  0  0  0
   -2.7190   -1.1883   -0.1924 C   0  0  0  0  0  0  0  0  0  0  0  0
    4.4184   -0.8210   -2.6310 C   0  0  0  0  0  0  0  0  0  0  0  0
    4.9267   -3.0637   -1.9206 C   0  0  0  0  0  0  0  0  0  0  0  0
    5.9509    3.0051    0.5662 C   0  0  0  0  0  0  0  0  0  0  0  0
    4.8801    2.8720    3.8030 C   0  0  0  0  0  0  0  0  0  0  0  0
    5.1253   -3.4433   -3.2520 C   0  0  0  0  0  0  0  0  0  0  0  0
    4.6176   -1.2011   -3.9615 C   0  0  0  0  0  0  0  0  0  0  0  0
    4.9900   -2.5056   -4.2711 C   0  0  0  0  0  0  0  0  0  0  0  0
    4.0659    0.7569   -0.3783 H   0  0  0  0  0  0  0  0  0  0  0  0
    5.5844   -1.1985    0.1882 H   0  0  0  0  0  0  0  0  0  0  0  0
    4.2091   -2.1898    0.4942 H   0  0  0  0  0  0  0  0  0  0  0  0
    0.0486    3.2499    0.6512 H   0  0  0  0  0  0  0  0  0  0  0  0
   -0.1560   -3.3693   -0.6360 H   0  0  0  0  0  0  0  0  0  0  0  0
   -2.4226    3.3019    0.7669 H   0  0  0  0  0  0  0  0  0  0  0  0
   -2.6270   -3.2916   -0.6569 H   0  0  0  0  0  0  0  0  0  0  0  0
    4.9170    0.7572    4.0824 H   0  0  0  0  0  0  0  0  0  0  0  0
    6.4716    1.4265    3.6273 H   0  0  0  0  0  0  0  0  0  0  0  0
    7.1473    1.4605    1.4735 H   0  0  0  0  0  0  0  0  0  0  0  0
    6.1352    0.9232    0.1562 H   0  0  0  0  0  0  0  0  0  0  0  0
   -3.7297    1.2490    0.3693 H   0  0  0  0  0  0  0  0  0  0  0  0
   -3.8057   -1.1776   -0.1795 H   0  0  0  0  0  0  0  0  0  0  0  0
    4.1326    0.2088   -2.4417 H   0  0  0  0  0  0  0  0  0  0  0  0
    5.0343   -3.8153   -1.1403 H   0  0  0  0  0  0  0  0  0  0  0  0
    4.9453    3.1652    0.1693 H   0  0  0  0  0  0  0  0  0  0  0  0
    6.1202    3.7245    1.3695 H   0  0  0  0  0  0  0  0  0  0  0  0
    6.6748    3.2419   -0.2217 H   0  0  0  0  0  0  0  0  0  0  0  0
    5.4662    3.6680    3.3404 H   0  0  0  0  0  0  0  0  0  0  0  0
    3.8329    3.0089    3.5178 H   0  0  0  0  0  0  0  0  0  0  0  0
    4.9640    3.0163    4.8858 H   0  0  0  0  0  0  0  0  0  0  0  0
    5.3947   -4.4690   -3.4912 H   0  0  0  0  0  0  0  0  0  0  0  0
    4.4921   -0.4699   -4.7556 H   0  0  0  0  0  0  0  0  0  0  0  0
    5.1704   -2.7902   -5.3041 H   0  0  0  0  0  0  0  0  0  0  0  0
  2  1  1  0  0  0  0
  3  1  1  0  0  0  0
  4  1  1  0  0  0  0
  4 31  1  0  0  0  0
  5  3  1  0  0  0  0
  6  2  1  0  0  0  0
  6  8  2  0  0  0  0
  7  4  1  0  0  0  0
  8  5  1  0  0  0  0
  9  3  2  0  0  0  0
 10  2  2  0  0  0  0
 11  7  1  0  0  0  0
 12  4  1  0  0  0  0
 12 32  1  0  0  0  0
 12 33  1  0  0  0  0
 13  7  2  0  0  0  0
 14  8  1  0  0  0  0
 14 23  1  0  0  0  0
 15  6  1  0  0  0  0
 15 34  1  0  0  0  0
 16  5  2  0  0  0  0
 16 35  1  0  0  0  0
 17 12  1  0  0  0  0
 18 15  2  0  0  0  0
 18 22  1  0  0  0  0
 18 36  1  0  0  0  0
 19 16  1  0  0  0  0
 19 37  1  0  0  0  0
 20 11  1  0  0  0  0
 20 38  1  0  0  0  0
 20 39  1  0  0  0  0
 21 11  1  0  0  0  0
 21 40  1  0  0  0  0
 21 41  1  0  0  0  0
 22 14  2  0  0  0  0
 22 42  1  0  0  0  0
 23 19  2  0  0  0  0
 23 43  1  0  0  0  0
 24 17  2  0  0  0  0
 24 44  1  0  0  0  0
 25 17  1  0  0  0  0
 25 45  1  0  0  0  0
 26 21  1  0  0  0  0
 26 46  1  0  0  0  0
 26 47  1  0  0  0  0
 26 48  1  0  0  0  0
 27 20  1  0  0  0  0
 27 49  1  0  0  0  0
 27 50  1  0  0  0  0
 27 51  1  0  0  0  0
 28 25  2  0  0  0  0
 28 52  1  0  0  0  0
 29 24  1  0  0  0  0
 29 53  1  0  0  0  0
 30 28  1  0  0  0  0
 30 29  2  0  0  0  0
 30 54  1  0  0  0  0
M  END
>  <Mol_ID>
8364

>  <Formula>
C25H24N2O3

>  <MolWeight>
400.46966

>  <Cat>
P2809

>  <Name>
WAY-382524

>  <Synonyms>
N/A

>  <Target>
others

>  <Form>
free base

>  <CAS>
1008451-85-1

>  <URL>
N/A

$$$$
