WAY-325911
 OpenBabel08302521433D

 50 53  0  0  0  0  0  0  0  0999 V2000
    0.5859    0.4547    0.0154 C   0  0  0  0  0  0  0  0  0  0  0  0
   -0.6521    0.4669    0.6219 C   0  0  0  0  0  0  0  0  0  0  0  0
    1.1196    1.6908    0.2078 N   0  0  0  0  0  0  0  0  0  0  0  0
    1.1946   -0.6949   -0.7052 C   0  0  0  0  0  0  0  0  0  0  0  0
   -0.7994    1.7740    1.1581 C   0  0  0  0  0  0  0  0  0  0  0  0
   -1.5735   -0.7021    0.6035 C   0  0  0  0  0  0  0  0  0  0  0  0
    0.3038    2.5162    0.8993 N   0  0  0  0  0  0  0  0  0  0  0  0
    2.4166    2.1791   -0.2135 C   0  0  0  0  0  0  0  0  0  0  0  0
    0.1115   -1.7434   -1.0144 C   0  0  0  0  0  0  0  0  0  0  0  0
   -1.9907    2.3278    1.9014 C   0  0  0  0  0  0  0  0  0  0  0  0
   -0.8284   -1.9832    0.1837 C   0  0  0  0  0  0  0  0  0  0  0  0
    2.2863    2.9142   -1.5288 C   0  0  0  0  0  0  0  0  0  0  0  0
   -3.0044    1.4234    2.0059 F   0  0  0  0  0  0  0  0  0  0  0  0
   -1.6824    2.7021    3.1722 F   0  0  0  0  0  0  0  0  0  0  0  0
   -2.5194    3.4193    1.2839 F   0  0  0  0  0  0  0  0  0  0  0  0
    2.2312    4.2976   -1.3787 N   0  0  0  0  0  0  0  0  0  0  0  0
    2.2515    2.3121   -2.5996 O   0  0  0  0  0  0  0  0  0  0  0  0
    2.2456    5.0860   -2.5133 C   0  0  0  0  0  0  0  0  0  0  0  0
    1.3141    5.3245   -3.5088 C   0  0  0  0  0  0  0  0  0  0  0  0
    3.6749    5.9868   -2.6606 S   0  0  0  0  0  0  0  0  0  0  0  0
    1.8581    6.2919   -4.4519 C   0  0  0  0  0  0  0  0  0  0  0  0
   -0.0451    4.7764   -3.5670 C   0  0  0  0  0  0  0  0  0  0  0  0
    3.1454    6.6733   -4.1152 C   0  0  0  0  0  0  0  0  0  0  0  0
    1.1353    6.9334   -5.6119 C   0  0  0  0  0  0  0  0  0  0  0  0
   -0.5855    4.3520   -2.3876 N   0  0  0  0  0  0  0  0  0  0  0  0
   -0.7250    4.7551   -4.5900 O   0  0  0  0  0  0  0  0  0  0  0  0
    3.9990    7.6240   -4.8912 C   0  0  0  0  0  0  0  0  0  0  0  0
    2.0745    7.7411   -6.5273 C   0  0  0  0  0  0  0  0  0  0  0  0
    3.1153    8.5454   -5.7375 C   0  0  0  0  0  0  0  0  0  0  0  0
    1.9719   -1.1455   -0.0700 H   0  0  0  0  0  0  0  0  0  0  0  0
    1.6725   -0.3739   -1.6380 H   0  0  0  0  0  0  0  0  0  0  0  0
   -2.3807   -0.4999   -0.1118 H   0  0  0  0  0  0  0  0  0  0  0  0
   -2.0302   -0.8521    1.5868 H   0  0  0  0  0  0  0  0  0  0  0  0
    2.8085    2.8287    0.5787 H   0  0  0  0  0  0  0  0  0  0  0  0
    3.1061    1.3373   -0.3202 H   0  0  0  0  0  0  0  0  0  0  0  0
    0.5848   -2.6848   -1.3126 H   0  0  0  0  0  0  0  0  0  0  0  0
   -0.4904   -1.4035   -1.8696 H   0  0  0  0  0  0  0  0  0  0  0  0
   -1.5577   -2.7637   -0.0612 H   0  0  0  0  0  0  0  0  0  0  0  0
   -0.2349   -2.3535    1.0298 H   0  0  0  0  0  0  0  0  0  0  0  0
    2.8066    4.6571   -0.6255 H   0  0  0  0  0  0  0  0  0  0  0  0
    0.3779    7.6134   -5.2006 H   0  0  0  0  0  0  0  0  0  0  0  0
    0.6120    6.1851   -6.2156 H   0  0  0  0  0  0  0  0  0  0  0  0
   -1.5327    4.0053   -2.3974 H   0  0  0  0  0  0  0  0  0  0  0  0
   -0.0948    4.4113   -1.5065 H   0  0  0  0  0  0  0  0  0  0  0  0
    4.6659    7.0495   -5.5467 H   0  0  0  0  0  0  0  0  0  0  0  0
    4.6282    8.2270   -4.2274 H   0  0  0  0  0  0  0  0  0  0  0  0
    1.4814    8.4183   -7.1532 H   0  0  0  0  0  0  0  0  0  0  0  0
    2.5961    7.0558   -7.2073 H   0  0  0  0  0  0  0  0  0  0  0  0
    3.7435    9.1244   -6.4238 H   0  0  0  0  0  0  0  0  0  0  0  0
    2.6014    9.2643   -5.0864 H   0  0  0  0  0  0  0  0  0  0  0  0
  1  2  2  0  0  0  0
  1  3  1  0  0  0  0
  1  4  1  0  0  0  0
  2  5  1  0  0  0  0
  2  6  1  0  0  0  0
  3  7  1  0  0  0  0
  3  8  1  0  0  0  0
  4  9  1  0  0  0  0
  4 30  1  0  0  0  0
  4 31  1  0  0  0  0
  5 10  1  0  0  0  0
  5  7  2  0  0  0  0
  6 11  1  0  0  0  0
  6 32  1  0  0  0  0
  6 33  1  0  0  0  0
  8 12  1  0  0  0  0
  8 34  1  0  0  0  0
  8 35  1  0  0  0  0
  9 11  1  0  0  0  0
  9 36  1  0  0  0  0
  9 37  1  0  0  0  0
 10 13  1  0  0  0  0
 10 14  1  0  0  0  0
 10 15  1  0  0  0  0
 11 38  1  0  0  0  0
 11 39  1  0  0  0  0
 12 16  1  0  0  0  0
 12 17  2  0  0  0  0
 16 18  1  0  0  0  0
 16 40  1  0  0  0  0
 18 19  2  0  0  0  0
 18 20  1  0  0  0  0
 19 21  1  0  0  0  0
 19 22  1  0  0  0  0
 20 23  1  0  0  0  0
 21 24  1  0  0  0  0
 21 23  2  0  0  0  0
 22 25  1  0  0  0  0
 22 26  2  0  0  0  0
 23 27  1  0  0  0  0
 24 28  1  0  0  0  0
 24 41  1  0  0  0  0
 24 42  1  0  0  0  0
 25 43  1  0  0  0  0
 25 44  1  0  0  0  0
 27 29  1  0  0  0  0
 27 45  1  0  0  0  0
 27 46  1  0  0  0  0
 28 29  1  0  0  0  0
 28 47  1  0  0  0  0
 28 48  1  0  0  0  0
 29 49  1  0  0  0  0
 29 50  1  0  0  0  0
M  END
>  <Mol_ID>
8858

>  <Formula>
C19H21F3N4O2S

>  <MolWeight>
426.4558496

>  <Cat>
P2436

>  <Name>
WAY-325911

>  <Synonyms>
N/A

>  <Target>
AMPA receptor

>  <Form>
free base

>  <CAS>
868970-94-9

>  <URL>
N/A

$$$$
