WAY-381628
 OpenBabel08302521393D

 38 38  0  0  0  0  0  0  0  0999 V2000
    0.7958   -0.8136   -0.2191 C   0  0  0  0  0  0  0  0  0  0  0  0
   -1.7328   -1.1695    0.1220 N   0  0  0  0  0  0  0  0  0  0  0  0
   -0.4112   -1.4204    0.0180 N   0  0  0  0  0  0  0  0  0  0  0  0
    0.8028    0.5136   -0.4299 O   0  0  0  0  0  0  0  0  0  0  0  0
    1.7988   -1.5212   -0.2892 O   0  0  0  0  0  0  0  0  0  0  0  0
   -2.5409   -0.1477    0.2082 C   0  0  0  0  0  0  0  0  0  0  0  0
    1.7073    1.1012   -1.4155 C   0  0  0  0  0  0  0  0  0  0  0  0
    0.6873    1.6861   -2.4059 C   0  0  0  0  0  0  0  0  0  0  0  0
    2.5608    2.1949   -0.7494 C   0  0  0  0  0  0  0  0  0  0  0  0
    2.6498    0.1796   -2.2229 C   0  0  0  0  0  0  0  0  0  0  0  0
   -4.0050   -0.5708    0.3489 C   0  0  0  0  0  0  0  0  0  0  0  0
   -2.2934    1.3332    0.2145 C   0  0  0  0  0  0  0  0  0  0  0  0
   -4.5224   -0.3563    1.7658 C   0  0  0  0  0  0  0  0  0  0  0  0
   -2.6149    1.9388    1.5862 C   0  0  0  0  0  0  0  0  0  0  0  0
   -5.0495    1.0473    2.0388 C   0  0  0  0  0  0  0  0  0  0  0  0
   -4.1063    2.2344    1.8102 C   0  0  0  0  0  0  0  0  0  0  0  0
   -0.2532   -2.4193    0.0118 H   0  0  0  0  0  0  0  0  0  0  0  0
   -0.1437    2.1560   -1.8774 H   0  0  0  0  0  0  0  0  0  0  0  0
    1.1319    2.4112   -3.0888 H   0  0  0  0  0  0  0  0  0  0  0  0
    0.2515    0.8706   -2.9943 H   0  0  0  0  0  0  0  0  0  0  0  0
    3.5976    1.8578   -0.6027 H   0  0  0  0  0  0  0  0  0  0  0  0
    2.6289    3.0921   -1.3754 H   0  0  0  0  0  0  0  0  0  0  0  0
    2.1887    2.4777    0.2379 H   0  0  0  0  0  0  0  0  0  0  0  0
    3.4990   -0.1707   -1.6227 H   0  0  0  0  0  0  0  0  0  0  0  0
    2.1387   -0.7052   -2.6145 H   0  0  0  0  0  0  0  0  0  0  0  0
    3.0730    0.7206   -3.0797 H   0  0  0  0  0  0  0  0  0  0  0  0
   -4.6213   -0.0573   -0.3969 H   0  0  0  0  0  0  0  0  0  0  0  0
   -4.0679   -1.6458    0.1272 H   0  0  0  0  0  0  0  0  0  0  0  0
   -1.2742    1.5639   -0.0614 H   0  0  0  0  0  0  0  0  0  0  0  0
   -2.9475    1.7831   -0.5448 H   0  0  0  0  0  0  0  0  0  0  0  0
   -5.3529   -1.0537    1.9357 H   0  0  0  0  0  0  0  0  0  0  0  0
   -3.7533   -0.6127    2.5030 H   0  0  0  0  0  0  0  0  0  0  0  0
   -2.0816    2.8997    1.6534 H   0  0  0  0  0  0  0  0  0  0  0  0
   -2.2310    1.3118    2.3919 H   0  0  0  0  0  0  0  0  0  0  0  0
   -5.9636    1.2100    1.4498 H   0  0  0  0  0  0  0  0  0  0  0  0
   -5.3855    1.0744    3.0859 H   0  0  0  0  0  0  0  0  0  0  0  0
   -4.4932    2.8342    0.9765 H   0  0  0  0  0  0  0  0  0  0  0  0
   -4.1910    2.8886    2.6888 H   0  0  0  0  0  0  0  0  0  0  0  0
  2  3  1  0  0  0  0
  3  1  1  0  0  0  0
  3 17  1  0  0  0  0
  4  1  1  0  0  0  0
  5  1  2  0  0  0  0
  6  2  2  0  0  0  0
  7  4  1  0  0  0  0
  8  7  1  0  0  0  0
  8 18  1  0  0  0  0
  8 19  1  0  0  0  0
  8 20  1  0  0  0  0
  9  7  1  0  0  0  0
  9 21  1  0  0  0  0
  9 22  1  0  0  0  0
  9 23  1  0  0  0  0
 10  7  1  0  0  0  0
 10 24  1  0  0  0  0
 10 25  1  0  0  0  0
 10 26  1  0  0  0  0
 11  6  1  0  0  0  0
 11 27  1  0  0  0  0
 11 28  1  0  0  0  0
 12  6  1  0  0  0  0
 12 29  1  0  0  0  0
 12 30  1  0  0  0  0
 13 11  1  0  0  0  0
 13 31  1  0  0  0  0
 13 32  1  0  0  0  0
 14 12  1  0  0  0  0
 14 33  1  0  0  0  0
 14 34  1  0  0  0  0
 15 13  1  0  0  0  0
 15 16  1  0  0  0  0
 15 35  1  0  0  0  0
 15 36  1  0  0  0  0
 16 14  1  0  0  0  0
 16 37  1  0  0  0  0
 16 38  1  0  0  0  0
M  END
>  <Mol_ID>
8095

>  <Formula>
C12H22N2O2

>  <MolWeight>
226.31528

>  <Cat>
P2801

>  <Name>
WAY-381628

>  <Synonyms>
N/A

>  <Target>
CB1,CB2

>  <Form>
free base

>  <CAS>
79201-40-4

>  <URL>
N/A

$$$$
