WAY-639621
 OpenBabel08302521443D

 35 37  0  0  0  0  0  0  0  0999 V2000
    1.5439   -0.6617   -0.2756 N   0  0  0  0  0  0  0  0  0  0  0  0
    0.4436   -1.2965    0.0159 C   0  0  0  0  0  0  0  0  0  0  0  0
    1.3462    0.7077   -0.1748 C   0  0  0  0  0  0  0  0  0  0  0  0
    0.2367   -2.6480    0.0543 N   0  0  0  0  0  0  0  0  0  0  0  0
   -0.9109   -0.3302    0.3878 S   0  0  0  0  0  0  0  0  0  0  0  0
    0.0683    1.0749    0.2053 C   0  0  0  0  0  0  0  0  0  0  0  0
    1.2736   -3.5413   -0.1195 C   0  0  0  0  0  0  0  0  0  0  0  0
    2.4357    1.6386   -0.4442 C   0  0  0  0  0  0  0  0  0  0  0  0
    2.2161    2.9583   -0.2106 N   0  0  0  0  0  0  0  0  0  0  0  0
    2.4685   -3.2557   -0.1851 O   0  0  0  0  0  0  0  0  0  0  0  0
   -0.7113   -5.2911   -0.9828 S   0  0  0  0  0  0  0  0  0  0  0  0
    0.8654   -5.0100   -0.1114 C   0  0  0  0  0  0  0  0  0  0  0  0
   -0.7856   -7.0746   -0.9578 C   0  0  0  0  0  0  0  0  0  0  0  0
    3.2500    3.7989   -0.4475 C   0  0  0  0  0  0  0  0  0  0  0  0
    3.6530    1.1527   -0.9252 C   0  0  0  0  0  0  0  0  0  0  0  0
   -1.8621   -7.6943   -0.3153 C   0  0  0  0  0  0  0  0  0  0  0  0
    0.1463   -7.8621   -1.6431 C   0  0  0  0  0  0  0  0  0  0  0  0
    4.4915    3.3963   -0.9152 C   0  0  0  0  0  0  0  0  0  0  0  0
    4.6942    2.0447   -1.1607 C   0  0  0  0  0  0  0  0  0  0  0  0
   -0.0045   -9.2520   -1.6915 C   0  0  0  0  0  0  0  0  0  0  0  0
   -2.0104   -9.0827   -0.3615 C   0  0  0  0  0  0  0  0  0  0  0  0
   -1.0860   -9.8604   -1.0560 C   0  0  0  0  0  0  0  0  0  0  0  0
   -0.7109   -2.9765    0.1739 H   0  0  0  0  0  0  0  0  0  0  0  0
   -0.3237    2.0707    0.3698 H   0  0  0  0  0  0  0  0  0  0  0  0
    1.6600   -5.5736   -0.6099 H   0  0  0  0  0  0  0  0  0  0  0  0
    0.7871   -5.3434    0.9275 H   0  0  0  0  0  0  0  0  0  0  0  0
    3.0477    4.8467   -0.2422 H   0  0  0  0  0  0  0  0  0  0  0  0
    3.7917    0.0900   -1.1061 H   0  0  0  0  0  0  0  0  0  0  0  0
   -2.6058   -7.1021    0.2116 H   0  0  0  0  0  0  0  0  0  0  0  0
    0.9812   -7.4074   -2.1698 H   0  0  0  0  0  0  0  0  0  0  0  0
    5.2834    4.1180   -1.0800 H   0  0  0  0  0  0  0  0  0  0  0  0
    5.6490    1.6837   -1.5282 H   0  0  0  0  0  0  0  0  0  0  0  0
    0.7118   -9.8585   -2.2413 H   0  0  0  0  0  0  0  0  0  0  0  0
   -2.8586   -9.5541    0.1286 H   0  0  0  0  0  0  0  0  0  0  0  0
   -1.2163  -10.9383   -1.1119 H   0  0  0  0  0  0  0  0  0  0  0  0
  2  1  2  0  0  0  0
  3  1  1  0  0  0  0
  4  2  1  0  0  0  0
  4 23  1  0  0  0  0
  5  2  1  0  0  0  0
  5  6  1  0  0  0  0
  6  3  2  0  0  0  0
  6 24  1  0  0  0  0
  7  4  1  0  0  0  0
  8  3  1  0  0  0  0
  9  8  2  0  0  0  0
 10  7  2  0  0  0  0
 11 12  1  0  0  0  0
 12  7  1  0  0  0  0
 12 25  1  0  0  0  0
 12 26  1  0  0  0  0
 13 11  1  0  0  0  0
 14  9  1  0  0  0  0
 14 27  1  0  0  0  0
 15  8  1  0  0  0  0
 15 28  1  0  0  0  0
 16 13  2  0  0  0  0
 16 29  1  0  0  0  0
 17 13  1  0  0  0  0
 17 30  1  0  0  0  0
 18 19  1  0  0  0  0
 18 14  2  0  0  0  0
 18 31  1  0  0  0  0
 19 15  2  0  0  0  0
 19 32  1  0  0  0  0
 20 17  2  0  0  0  0
 20 33  1  0  0  0  0
 21 16  1  0  0  0  0
 21 34  1  0  0  0  0
 22 20  1  0  0  0  0
 22 21  2  0  0  0  0
 22 35  1  0  0  0  0
M  END
>  <Mol_ID>
9076

>  <Formula>
C16H13N3OS2

>  <MolWeight>
327.42392

>  <Cat>
P3083

>  <Name>
WAY-639621

>  <Synonyms>
N/A

>  <Target>
Anti-infection

>  <Form>
free base

>  <CAS>
794582-71-1

>  <URL>
N/A

$$$$
