WAY-608333
 OpenBabel08302521443D

 47 50  0  0  0  0  0  0  0  0999 V2000
   -0.3957    1.1282    0.0043 C   0  0  0  0  0  0  0  0  0  0  0  0
    1.0097   -0.6774    0.1344 N   0  0  0  0  0  0  0  0  0  0  0  0
    0.9601    0.6686    0.0574 C   0  0  0  0  0  0  0  0  0  0  0  0
   -0.2767   -1.0897    0.1172 N   0  0  0  0  0  0  0  0  0  0  0  0
   -1.1329   -0.0259    0.1621 C   0  0  0  0  0  0  0  0  0  0  0  0
   -0.9326    2.4872   -0.0208 C   0  0  0  0  0  0  0  0  0  0  0  0
   -2.1158    2.7374   -0.7427 N   0  0  0  0  0  0  0  0  0  0  0  0
    2.1991    1.4529    0.0622 C   0  0  0  0  0  0  0  0  0  0  0  0
   -4.7600    3.3332   -1.9405 N   0  0  0  0  0  0  0  0  0  0  0  0
   -0.6520   -2.4614    0.0751 C   0  0  0  0  0  0  0  0  0  0  0  0
   -0.3666    3.3873    0.5952 O   0  0  0  0  0  0  0  0  0  0  0  0
   -2.8803    1.7157   -1.4694 C   0  0  0  0  0  0  0  0  0  0  0  0
   -2.8494    3.9523   -0.3703 C   0  0  0  0  0  0  0  0  0  0  0  0
    4.4738    1.7215    0.8988 N   0  0  0  0  0  0  0  0  0  0  0  0
   -3.8962    4.4041   -1.4072 C   0  0  0  0  0  0  0  0  0  0  0  0
   -3.8975    2.2690   -2.4783 C   0  0  0  0  0  0  0  0  0  0  0  0
    3.3067    1.0329    0.7942 C   0  0  0  0  0  0  0  0  0  0  0  0
   -5.6913    2.8288   -0.9310 C   0  0  0  0  0  0  0  0  0  0  0  0
    2.3298    2.6563   -0.6346 C   0  0  0  0  0  0  0  0  0  0  0  0
    4.5396    2.8943    0.2369 C   0  0  0  0  0  0  0  0  0  0  0  0
    0.3179   -3.4578    0.2274 C   0  0  0  0  0  0  0  0  0  0  0  0
   -1.9941   -2.8294   -0.1318 C   0  0  0  0  0  0  0  0  0  0  0  0
    3.5083    3.3958   -0.5393 C   0  0  0  0  0  0  0  0  0  0  0  0
   -2.3607   -4.1756   -0.1648 C   0  0  0  0  0  0  0  0  0  0  0  0
   -0.0599   -4.8044    0.2044 C   0  0  0  0  0  0  0  0  0  0  0  0
   -1.3947   -5.1618    0.0109 C   0  0  0  0  0  0  0  0  0  0  0  0
   -2.1879   -0.1708    0.3121 H   0  0  0  0  0  0  0  0  0  0  0  0
   -2.1902    1.0509   -1.9984 H   0  0  0  0  0  0  0  0  0  0  0  0
   -3.4280    1.1336   -0.7223 H   0  0  0  0  0  0  0  0  0  0  0  0
   -3.3371    3.7408    0.5886 H   0  0  0  0  0  0  0  0  0  0  0  0
   -2.1444    4.7719   -0.1962 H   0  0  0  0  0  0  0  0  0  0  0  0
   -3.3678    4.8568   -2.2562 H   0  0  0  0  0  0  0  0  0  0  0  0
   -4.5112    5.2068   -0.9823 H   0  0  0  0  0  0  0  0  0  0  0  0
   -3.3557    2.6672   -3.3457 H   0  0  0  0  0  0  0  0  0  0  0  0
   -4.5101    1.4449   -2.8653 H   0  0  0  0  0  0  0  0  0  0  0  0
    3.2867    0.0984    1.3532 H   0  0  0  0  0  0  0  0  0  0  0  0
   -5.1984    2.4390   -0.0343 H   0  0  0  0  0  0  0  0  0  0  0  0
   -6.3764    3.6240   -0.6179 H   0  0  0  0  0  0  0  0  0  0  0  0
   -6.3107    2.0261   -1.3471 H   0  0  0  0  0  0  0  0  0  0  0  0
    1.5196    3.0462   -1.2432 H   0  0  0  0  0  0  0  0  0  0  0  0
    5.4711    3.4409    0.3508 H   0  0  0  0  0  0  0  0  0  0  0  0
    1.3645   -3.2037    0.3819 H   0  0  0  0  0  0  0  0  0  0  0  0
   -2.7797   -2.0982   -0.2947 H   0  0  0  0  0  0  0  0  0  0  0  0
    3.6117    4.3465   -1.0503 H   0  0  0  0  0  0  0  0  0  0  0  0
   -3.3993   -4.4520   -0.3291 H   0  0  0  0  0  0  0  0  0  0  0  0
    0.6919   -5.5782    0.3391 H   0  0  0  0  0  0  0  0  0  0  0  0
   -1.6821   -6.2099   -0.0072 H   0  0  0  0  0  0  0  0  0  0  0  0
  2  3  2  0  0  0  0
  2  4  1  0  0  0  0
  3  1  1  0  0  0  0
  4  5  1  0  0  0  0
  5  1  2  0  0  0  0
  5 27  1  0  0  0  0
  6  1  1  0  0  0  0
  7  6  1  0  0  0  0
  8  3  1  0  0  0  0
  9 15  1  0  0  0  0
  9 16  1  0  0  0  0
 10  4  1  0  0  0  0
 11  6  2  0  0  0  0
 12  7  1  0  0  0  0
 12 28  1  0  0  0  0
 12 29  1  0  0  0  0
 13  7  1  0  0  0  0
 13 30  1  0  0  0  0
 13 31  1  0  0  0  0
 14 17  2  0  0  0  0
 15 13  1  0  0  0  0
 15 32  1  0  0  0  0
 15 33  1  0  0  0  0
 16 12  1  0  0  0  0
 16 34  1  0  0  0  0
 16 35  1  0  0  0  0
 17  8  1  0  0  0  0
 17 36  1  0  0  0  0
 18  9  1  0  0  0  0
 18 37  1  0  0  0  0
 18 38  1  0  0  0  0
 18 39  1  0  0  0  0
 19  8  2  0  0  0  0
 19 40  1  0  0  0  0
 20 23  2  0  0  0  0
 20 14  1  0  0  0  0
 20 41  1  0  0  0  0
 21 10  2  0  0  0  0
 21 42  1  0  0  0  0
 22 10  1  0  0  0  0
 22 43  1  0  0  0  0
 23 19  1  0  0  0  0
 23 44  1  0  0  0  0
 24 22  2  0  0  0  0
 24 45  1  0  0  0  0
 25 21  1  0  0  0  0
 25 46  1  0  0  0  0
 26 24  1  0  0  0  0
 26 25  2  0  0  0  0
 26 47  1  0  0  0  0
M  END
>  <Mol_ID>
9014

>  <Formula>
C20H21N5O

>  <MolWeight>
347.41364

>  <Cat>
P2918

>  <Name>
WAY-608333

>  <Synonyms>
N/A

>  <Target>
Others

>  <Form>
free base

>  <CAS>
882222-22-2

>  <URL>
N/A

$$$$
