WAY-391237
 OpenBabel08302521413D

 50 53  0  0  0  0  0  0  0  0999 V2000
    1.1344   -0.0467   -0.0846 S   0  0  0  0  0  0  0  0  0  0  0  0
    0.1739    0.7404   -1.2865 N   0  0  0  0  0  0  0  0  0  0  0  0
    0.4307    0.4675    1.4677 C   0  0  0  0  0  0  0  0  0  0  0  0
   -0.6215   -1.1007    4.7512 C   0  0  0  0  0  0  0  0  0  0  0  0
   -5.3939   -2.0275    7.5593 C   0  0  0  0  0  0  0  0  0  0  0  0
    0.0542   -0.4851    2.4267 C   0  0  0  0  0  0  0  0  0  0  0  0
    2.4640    0.5174   -0.1397 O   0  0  0  0  0  0  0  0  0  0  0  0
    0.9137   -1.4699   -0.2369 O   0  0  0  0  0  0  0  0  0  0  0  0
   -0.3897   -0.0684    3.6941 C   0  0  0  0  0  0  0  0  0  0  0  0
   -1.5184   -0.7943    5.7574 N   0  0  0  0  0  0  0  0  0  0  0  0
   -5.6459   -3.2507    6.9886 C   0  0  0  0  0  0  0  0  0  0  0  0
   -6.5268   -1.4325    8.0263 O   0  0  0  0  0  0  0  0  0  0  0  0
   -6.9698   -3.5716    7.0155 O   0  0  0  0  0  0  0  0  0  0  0  0
   -7.5267   -2.3476    7.5320 C   0  0  0  0  0  0  0  0  0  0  0  0
   -4.1234   -1.4914    7.6035 C   0  0  0  0  0  0  0  0  0  0  0  0
    0.0069   -2.1524    4.7122 O   0  0  0  0  0  0  0  0  0  0  0  0
   -4.6417   -4.0189    6.4441 C   0  0  0  0  0  0  0  0  0  0  0  0
   -3.0764   -2.2185    7.0110 C   0  0  0  0  0  0  0  0  0  0  0  0
   -1.6852   -1.6391    6.9286 C   0  0  0  0  0  0  0  0  0  0  0  0
   -3.3463   -3.4884    6.4472 C   0  0  0  0  0  0  0  0  0  0  0  0
   -1.2273    0.2355   -1.3768 C   0  0  0  0  0  0  0  0  0  0  0  0
    0.8361    0.7061   -2.6309 C   0  0  0  0  0  0  0  0  0  0  0  0
    0.3784    1.8319    1.7644 C   0  0  0  0  0  0  0  0  0  0  0  0
   -0.4655    1.3030    3.9775 C   0  0  0  0  0  0  0  0  0  0  0  0
   -0.0805    2.2469    3.0166 C   0  0  0  0  0  0  0  0  0  0  0  0
    0.0628    1.5657   -3.6296 C   0  0  0  0  0  0  0  0  0  0  0  0
   -2.0294    1.1268   -2.3236 C   0  0  0  0  0  0  0  0  0  0  0  0
   -1.4022    1.1532   -3.7143 C   0  0  0  0  0  0  0  0  0  0  0  0
    0.1519   -1.5487    2.2133 H   0  0  0  0  0  0  0  0  0  0  0  0
   -2.1202    0.0110    5.6719 H   0  0  0  0  0  0  0  0  0  0  0  0
   -8.0816   -1.8494    6.7248 H   0  0  0  0  0  0  0  0  0  0  0  0
   -8.2276   -2.5872    8.3396 H   0  0  0  0  0  0  0  0  0  0  0  0
   -3.9553   -0.5255    8.0678 H   0  0  0  0  0  0  0  0  0  0  0  0
   -4.8516   -4.9875    6.0044 H   0  0  0  0  0  0  0  0  0  0  0  0
   -0.9358   -2.4383    6.9488 H   0  0  0  0  0  0  0  0  0  0  0  0
   -1.4963   -1.0095    7.8061 H   0  0  0  0  0  0  0  0  0  0  0  0
   -2.5375   -4.0624    5.9960 H   0  0  0  0  0  0  0  0  0  0  0  0
   -1.7016    0.2534   -0.3917 H   0  0  0  0  0  0  0  0  0  0  0  0
   -1.2326   -0.7979   -1.7455 H   0  0  0  0  0  0  0  0  0  0  0  0
    0.8975   -0.3278   -2.9904 H   0  0  0  0  0  0  0  0  0  0  0  0
    1.8523    1.1073   -2.5576 H   0  0  0  0  0  0  0  0  0  0  0  0
    0.7327    2.5653    1.0414 H   0  0  0  0  0  0  0  0  0  0  0  0
   -0.7557    1.6564    4.9631 H   0  0  0  0  0  0  0  0  0  0  0  0
   -0.0910    3.3077    3.2601 H   0  0  0  0  0  0  0  0  0  0  0  0
    0.5260    1.4868   -4.6201 H   0  0  0  0  0  0  0  0  0  0  0  0
    0.1238    2.6194   -3.3311 H   0  0  0  0  0  0  0  0  0  0  0  0
   -2.0708    2.1475   -1.9235 H   0  0  0  0  0  0  0  0  0  0  0  0
   -3.0611    0.7637   -2.3937 H   0  0  0  0  0  0  0  0  0  0  0  0
   -1.9494    1.8488   -4.3610 H   0  0  0  0  0  0  0  0  0  0  0  0
   -1.4796    0.1602   -4.1741 H   0  0  0  0  0  0  0  0  0  0  0  0
  2  1  1  0  0  0  0
  3  1  1  0  0  0  0
  4  9  1  0  0  0  0
  5 15  2  0  0  0  0
  6  3  2  0  0  0  0
  6 29  1  0  0  0  0
  7  1  2  0  0  0  0
  8  1  2  0  0  0  0
  9  6  1  0  0  0  0
 10  4  1  0  0  0  0
 10 30  1  0  0  0  0
 11 17  2  0  0  0  0
 11  5  1  0  0  0  0
 12  5  1  0  0  0  0
 13 11  1  0  0  0  0
 13 14  1  0  0  0  0
 14 12  1  0  0  0  0
 14 31  1  0  0  0  0
 14 32  1  0  0  0  0
 15 18  1  0  0  0  0
 15 33  1  0  0  0  0
 16  4  2  0  0  0  0
 17 20  1  0  0  0  0
 17 34  1  0  0  0  0
 18 19  1  0  0  0  0
 19 10  1  0  0  0  0
 19 35  1  0  0  0  0
 19 36  1  0  0  0  0
 20 18  2  0  0  0  0
 20 37  1  0  0  0  0
 21  2  1  0  0  0  0
 21 38  1  0  0  0  0
 21 39  1  0  0  0  0
 22  2  1  0  0  0  0
 22 40  1  0  0  0  0
 22 41  1  0  0  0  0
 23  3  1  0  0  0  0
 23 42  1  0  0  0  0
 24 25  1  0  0  0  0
 24  9  2  0  0  0  0
 24 43  1  0  0  0  0
 25 23  2  0  0  0  0
 25 44  1  0  0  0  0
 26 22  1  0  0  0  0
 26 45  1  0  0  0  0
 26 46  1  0  0  0  0
 27 21  1  0  0  0  0
 27 47  1  0  0  0  0
 27 48  1  0  0  0  0
 28 26  1  0  0  0  0
 28 27  1  0  0  0  0
 28 49  1  0  0  0  0
 28 50  1  0  0  0  0
M  END
>  <Mol_ID>
8366

>  <Formula>
C20H22N2O5S

>  <MolWeight>
402.46408

>  <Cat>
P2825

>  <Name>
WAY-391237

>  <Synonyms>
N/A

>  <Target>
PfENR

>  <Form>
free base

>  <CAS>
1033696-31-9

>  <URL>
N/A

$$$$
