WAY-234759
 OpenBabel08302521413D

 42 44  0  0  0  0  0  0  0  0999 V2000
   -5.6447   10.0235    4.0962 N   0  3  0  0  0  0  0  0  0  0  0  0
   -1.3948    3.8176    2.8427 C   0  0  0  0  0  0  0  0  0  0  0  0
   -2.8434    3.5281    2.5787 C   0  0  0  0  0  0  0  0  0  0  0  0
   -2.8162    6.4060    0.5938 C   0  0  0  0  0  0  0  0  0  0  0  0
   -2.8903    5.0240    0.6116 N   0  0  0  0  0  0  0  0  0  0  0  0
   -3.5358    4.1961    1.5437 C   0  0  0  0  0  0  0  0  0  0  0  0
   -0.6666    2.7571    3.3629 N   0  0  0  0  0  0  0  0  0  0  0  0
   -4.8799    9.1120    3.2352 C   0  0  0  0  0  0  0  0  0  0  0  0
   -5.9397   11.1371    3.6343 O   0  5  0  0  0  0  0  0  0  0  0  0
   -3.5347    7.2990    1.5549 C   0  0  0  0  0  0  0  0  0  0  0  0
   -5.9643    9.6216    5.2209 O   0  0  0  0  0  0  0  0  0  0  0  0
   -0.9573    4.9294    2.5906 O   0  0  0  0  0  0  0  0  0  0  0  0
   -2.1197    6.9342   -0.2774 O   0  0  0  0  0  0  0  0  0  0  0  0
   -4.5103    9.5068    1.9459 C   0  0  0  0  0  0  0  0  0  0  0  0
   -4.5279    7.8451    3.7127 C   0  0  0  0  0  0  0  0  0  0  0  0
   -3.8392    8.6010    1.1161 C   0  0  0  0  0  0  0  0  0  0  0  0
   -3.8383    6.9578    2.8781 C   0  0  0  0  0  0  0  0  0  0  0  0
    0.7324    2.6848    3.5356 C   0  0  0  0  0  0  0  0  0  0  0  0
   -3.5574    2.6586    3.4213 C   0  0  0  0  0  0  0  0  0  0  0  0
   -4.8940    3.9265    1.3247 C   0  0  0  0  0  0  0  0  0  0  0  0
    1.6265    3.6712    3.1244 C   0  0  0  0  0  0  0  0  0  0  0  0
    1.2385    1.5079    4.1053 C   0  0  0  0  0  0  0  0  0  0  0  0
   -4.9054    2.3808    3.1799 C   0  0  0  0  0  0  0  0  0  0  0  0
   -5.5675    3.0051    2.1260 C   0  0  0  0  0  0  0  0  0  0  0  0
    2.6140    1.3054    4.2236 C   0  0  0  0  0  0  0  0  0  0  0  0
    3.0076    3.4671    3.2352 C   0  0  0  0  0  0  0  0  0  0  0  0
    3.5009    2.2806    3.7742 C   0  0  0  0  0  0  0  0  0  0  0  0
   -2.0258    4.6639    0.2159 H   0  0  0  0  0  0  0  0  0  0  0  0
   -1.1611    1.9018    3.5718 H   0  0  0  0  0  0  0  0  0  0  0  0
   -4.7347   10.5035    1.5710 H   0  0  0  0  0  0  0  0  0  0  0  0
   -4.7698    7.5348    4.7272 H   0  0  0  0  0  0  0  0  0  0  0  0
   -3.5431    8.9192    0.1164 H   0  0  0  0  0  0  0  0  0  0  0  0
   -3.5203    6.0180    3.3096 H   0  0  0  0  0  0  0  0  0  0  0  0
   -3.0915    2.1991    4.2890 H   0  0  0  0  0  0  0  0  0  0  0  0
   -5.4192    4.3948    0.4941 H   0  0  0  0  0  0  0  0  0  0  0  0
    1.2896    4.6055    2.6831 H   0  0  0  0  0  0  0  0  0  0  0  0
    0.5701    0.7285    4.4603 H   0  0  0  0  0  0  0  0  0  0  0  0
   -5.4393    1.6783    3.8167 H   0  0  0  0  0  0  0  0  0  0  0  0
   -6.6101    2.7662    1.9224 H   0  0  0  0  0  0  0  0  0  0  0  0
    2.9952    0.3838    4.6555 H   0  0  0  0  0  0  0  0  0  0  0  0
    3.6947    4.2331    2.8873 H   0  0  0  0  0  0  0  0  0  0  0  0
    4.5735    2.1184    3.8434 H   0  0  0  0  0  0  0  0  0  0  0  0
  2  3  1  0  0  0  0
  3  6  1  0  0  0  0
  4 10  1  0  0  0  0
  5  4  1  0  0  0  0
  5 28  1  0  0  0  0
  6  5  1  0  0  0  0
  7  2  1  0  0  0  0
  7 29  1  0  0  0  0
  8  1  1  0  0  0  0
  9  1  1  0  0  0  0
 10 17  1  0  0  0  0
 10 16  2  0  0  0  0
 11  1  2  0  0  0  0
 12  2  2  0  0  0  0
 13  4  2  0  0  0  0
 14  8  2  0  0  0  0
 14 30  1  0  0  0  0
 15  8  1  0  0  0  0
 15 31  1  0  0  0  0
 16 14  1  0  0  0  0
 16 32  1  0  0  0  0
 17 15  2  0  0  0  0
 17 33  1  0  0  0  0
 18  7  1  0  0  0  0
 19  3  2  0  0  0  0
 19 34  1  0  0  0  0
 20  6  2  0  0  0  0
 20 35  1  0  0  0  0
 21 18  2  0  0  0  0
 21 36  1  0  0  0  0
 22 18  1  0  0  0  0
 22 37  1  0  0  0  0
 23 24  2  0  0  0  0
 23 19  1  0  0  0  0
 23 38  1  0  0  0  0
 24 20  1  0  0  0  0
 24 39  1  0  0  0  0
 25 22  2  0  0  0  0
 25 40  1  0  0  0  0
 26 21  1  0  0  0  0
 26 41  1  0  0  0  0
 27 25  1  0  0  0  0
 27 26  2  0  0  0  0
 27 42  1  0  0  0  0
M  CHG  2   1   1   9  -1
M  END
>  <Mol_ID>
8379

>  <Formula>
C20H15N3O4

>  <MolWeight>
361.3508

>  <Cat>
P2068

>  <Name>
WAY-234759

>  <Synonyms>
N/A

>  <Target>
BCRP,CYP1A1

>  <Form>
free base

>  <CAS>
160627-57-6

>  <URL>
N/A

$$$$
