WAY-331973
 OpenBabel08302521443D

 39 41  0  0  0  0  0  0  0  0999 V2000
   -1.2620   -0.6733    0.0096 C   0  0  0  0  0  0  0  0  0  0  0  0
   -1.4594    0.6309   -0.0197 N   0  0  0  0  0  0  0  0  0  0  0  0
   -0.1900    1.1713   -0.0054 C   0  0  0  0  0  0  0  0  0  0  0  0
    0.0599   -1.0336    0.0525 O   0  0  0  0  0  0  0  0  0  0  0  0
   -2.2426   -1.7537   -0.0278 C   0  0  0  0  0  0  0  0  0  0  0  0
    0.7390    0.1523    0.0377 C   0  0  0  0  0  0  0  0  0  0  0  0
   -0.2828    3.6474   -6.0020 C   0  0  0  0  0  0  0  0  0  0  0  0
   -0.3591    3.2414   -4.6392 N   0  0  0  0  0  0  0  0  0  0  0  0
   -1.5311    3.2619   -3.9090 C   0  0  0  0  0  0  0  0  0  0  0  0
   -0.3956    2.6395   -7.1103 C   0  0  0  0  0  0  0  0  0  0  0  0
    0.9243    3.2942   -6.8276 C   0  0  0  0  0  0  0  0  0  0  0  0
   -3.6000   -1.4485   -0.2145 C   0  0  0  0  0  0  0  0  0  0  0  0
   -2.6263    3.5376   -4.3954 O   0  0  0  0  0  0  0  0  0  0  0  0
    0.2535    3.2377   -1.7592 S   0  0  0  0  0  0  0  0  0  0  0  0
    0.0056    2.6410   -0.0562 C   0  0  0  0  0  0  0  0  0  0  0  0
   -1.8720   -3.0999    0.1084 C   0  0  0  0  0  0  0  0  0  0  0  0
   -1.3901    2.8153   -2.4590 C   0  0  0  0  0  0  0  0  0  0  0  0
    2.2095    0.0725    0.0495 C   0  0  0  0  0  0  0  0  0  0  0  0
   -4.5617   -2.4605   -0.2698 C   0  0  0  0  0  0  0  0  0  0  0  0
   -2.8334   -4.1130    0.0556 C   0  0  0  0  0  0  0  0  0  0  0  0
   -4.1758   -3.7928   -0.1353 C   0  0  0  0  0  0  0  0  0  0  0  0
   -0.7305    4.6231   -6.1812 H   0  0  0  0  0  0  0  0  0  0  0  0
    0.5007    3.1404   -4.1071 H   0  0  0  0  0  0  0  0  0  0  0  0
   -0.5224    1.5974   -6.8417 H   0  0  0  0  0  0  0  0  0  0  0  0
   -0.9361    2.9361   -8.0015 H   0  0  0  0  0  0  0  0  0  0  0  0
    1.2871    4.0333   -7.5322 H   0  0  0  0  0  0  0  0  0  0  0  0
    1.7018    2.6852   -6.3818 H   0  0  0  0  0  0  0  0  0  0  0  0
   -3.9146   -0.4120   -0.3245 H   0  0  0  0  0  0  0  0  0  0  0  0
   -0.8494    3.1623    0.3866 H   0  0  0  0  0  0  0  0  0  0  0  0
    0.8883    2.9206    0.5286 H   0  0  0  0  0  0  0  0  0  0  0  0
   -0.8293   -3.3727    0.2560 H   0  0  0  0  0  0  0  0  0  0  0  0
   -1.5463    1.7337   -2.4396 H   0  0  0  0  0  0  0  0  0  0  0  0
   -2.1635    3.3173   -1.8697 H   0  0  0  0  0  0  0  0  0  0  0  0
    2.5549   -0.4788    0.9293 H   0  0  0  0  0  0  0  0  0  0  0  0
    2.5700   -0.4455   -0.8445 H   0  0  0  0  0  0  0  0  0  0  0  0
    2.6626    1.0681    0.0722 H   0  0  0  0  0  0  0  0  0  0  0  0
   -5.6072   -2.2074   -0.4212 H   0  0  0  0  0  0  0  0  0  0  0  0
   -2.5321   -5.1522    0.1620 H   0  0  0  0  0  0  0  0  0  0  0  0
   -4.9229   -4.5814   -0.1799 H   0  0  0  0  0  0  0  0  0  0  0  0
  2  1  2  0  0  0  0
  3  2  1  0  0  0  0
  4  1  1  0  0  0  0
  5  1  1  0  0  0  0
  6  4  1  0  0  0  0
  6  3  2  0  0  0  0
  7  8  1  0  0  0  0
  7 22  1  0  0  0  0
  8  9  1  0  0  0  0
  8 23  1  0  0  0  0
  9 17  1  0  0  0  0
 10  7  1  0  0  0  0
 10 24  1  0  0  0  0
 10 25  1  0  0  0  0
 11  7  1  0  0  0  0
 11 10  1  0  0  0  0
 11 26  1  0  0  0  0
 11 27  1  0  0  0  0
 12  5  2  0  0  0  0
 12 28  1  0  0  0  0
 13  9  2  0  0  0  0
 14 15  1  0  0  0  0
 15  3  1  0  0  0  0
 15 29  1  0  0  0  0
 15 30  1  0  0  0  0
 16  5  1  0  0  0  0
 16 31  1  0  0  0  0
 17 14  1  0  0  0  0
 17 32  1  0  0  0  0
 17 33  1  0  0  0  0
 18  6  1  0  0  0  0
 18 34  1  0  0  0  0
 18 35  1  0  0  0  0
 18 36  1  0  0  0  0
 19 12  1  0  0  0  0
 19 37  1  0  0  0  0
 20 16  2  0  0  0  0
 20 38  1  0  0  0  0
 21 20  1  0  0  0  0
 21 19  2  0  0  0  0
 21 39  1  0  0  0  0
M  END
>  <Mol_ID>
9221

>  <Formula>
C16H17ClN2O2S

>  <MolWeight>
336.83638

>  <Cat>
P2634

>  <Name>
WAY-331973

>  <Synonyms>
N/A

>  <Target>
beta-catenin

>  <Form>
free base

>  <CAS>
901721-65-1

>  <URL>
N/A

$$$$
