WAY-299765
 OpenBabel08302521413D

 26 28  0  0  0  0  0  0  0  0999 V2000
   -1.8158   -1.3167   -0.1047 C   0  0  0  0  0  0  0  0  0  0  0  0
   -2.9252   -2.2333   -0.1819 C   0  0  0  0  0  0  0  0  0  0  0  0
   -0.5418   -1.7502   -0.0624 C   0  0  0  0  0  0  0  0  0  0  0  0
   -2.0868    0.1571   -0.0540 C   0  0  0  0  0  0  0  0  0  0  0  0
   -2.7761   -3.5176    0.3239 N   0  0  0  0  0  0  0  0  0  0  0  0
   -4.1533   -1.9809   -0.7611 C   0  0  0  0  0  0  0  0  0  0  0  0
    0.5816   -0.8286   -0.0159 C   0  0  0  0  0  0  0  0  0  0  0  0
   -0.9911    1.0137   -0.1057 O   0  0  0  0  0  0  0  0  0  0  0  0
   -3.2193    0.6260    0.0198 O   0  0  0  0  0  0  0  0  0  0  0  0
   -3.8963   -4.1945    0.1710 C   0  0  0  0  0  0  0  0  0  0  0  0
   -5.1665   -3.3549   -0.6246 S   0  0  0  0  0  0  0  0  0  0  0  0
    0.3258    0.5347   -0.0625 C   0  0  0  0  0  0  0  0  0  0  0  0
    1.9076   -1.2605    0.0539 C   0  0  0  0  0  0  0  0  0  0  0  0
   -4.1147   -5.5939    0.6275 C   0  0  0  0  0  0  0  0  0  0  0  0
    1.3498    1.4784   -0.0534 C   0  0  0  0  0  0  0  0  0  0  0  0
    2.9491   -0.3249    0.0731 C   0  0  0  0  0  0  0  0  0  0  0  0
    2.6706    1.0425    0.0158 C   0  0  0  0  0  0  0  0  0  0  0  0
   -0.3188   -2.8141   -0.0863 H   0  0  0  0  0  0  0  0  0  0  0  0
   -4.5124   -1.0811   -1.2407 H   0  0  0  0  0  0  0  0  0  0  0  0
    2.1466   -2.3203    0.0953 H   0  0  0  0  0  0  0  0  0  0  0  0
   -4.9399   -5.6438    1.3454 H   0  0  0  0  0  0  0  0  0  0  0  0
   -4.3477   -6.2466   -0.2198 H   0  0  0  0  0  0  0  0  0  0  0  0
   -3.2171   -5.9831    1.1180 H   0  0  0  0  0  0  0  0  0  0  0  0
    1.1199    2.5390   -0.0944 H   0  0  0  0  0  0  0  0  0  0  0  0
    3.9811   -0.6634    0.1328 H   0  0  0  0  0  0  0  0  0  0  0  0
    3.4815    1.7663    0.0291 H   0  0  0  0  0  0  0  0  0  0  0  0
  1  2  1  0  0  0  0
  1  3  2  0  0  0  0
  1  4  1  0  0  0  0
  2  5  1  0  0  0  0
  2  6  2  0  0  0  0
  3  7  1  0  0  0  0
  3 18  1  0  0  0  0
  4  8  1  0  0  0  0
  4  9  2  0  0  0  0
  5 10  2  0  0  0  0
  6 11  1  0  0  0  0
  6 19  1  0  0  0  0
  7 12  2  0  0  0  0
  7 13  1  0  0  0  0
  8 12  1  0  0  0  0
 10 14  1  0  0  0  0
 10 11  1  0  0  0  0
 12 15  1  0  0  0  0
 13 16  2  0  0  0  0
 13 20  1  0  0  0  0
 14 21  1  0  0  0  0
 14 22  1  0  0  0  0
 14 23  1  0  0  0  0
 15 17  2  0  0  0  0
 15 24  1  0  0  0  0
 16 17  1  0  0  0  0
 16 25  1  0  0  0  0
 17 26  1  0  0  0  0
M  END
>  <Mol_ID>
8389

>  <Formula>
C13H9NO2S

>  <MolWeight>
243.28106

>  <Cat>
P2114

>  <Name>
WAY-299765

>  <Synonyms>
N/A

>  <Target>
Anti-infection

>  <Form>
free base

>  <CAS>
106578-02-3

>  <URL>
N/A

$$$$
