WAY-388279
 OpenBabel08302521413D

 35 36  0  0  0  0  0  0  0  0999 V2000
    1.3801   -1.4531    0.2607 C   0  0  0  0  0  0  0  0  0  0  0  0
    0.0243   -0.8588    0.1768 C   0  0  0  0  0  0  0  0  0  0  0  0
    2.6165   -0.6733   -0.7179 S   0  0  0  0  0  0  0  0  0  0  0  0
    2.4400    0.9261   -0.0616 C   0  0  0  0  0  0  0  0  0  0  0  0
    0.0071    0.5573    0.2318 C   0  0  0  0  0  0  0  0  0  0  0  0
    1.2353    1.3664    0.3407 C   0  0  0  0  0  0  0  0  0  0  0  0
   -1.1866   -1.5769    0.0749 C   0  0  0  0  0  0  0  0  0  0  0  0
    3.6667    1.7977   -0.0599 C   0  0  0  0  0  0  0  0  0  0  0  0
    3.6132    2.9104    0.7396 N   0  0  0  0  0  0  0  0  0  0  0  0
    1.6822   -2.3431    1.0415 O   0  0  0  0  0  0  0  0  0  0  0  0
    4.3155    5.0879    1.6205 C   0  0  0  0  0  0  0  0  0  0  0  0
   -2.4040   -0.8373    0.0300 C   0  0  0  0  0  0  0  0  0  0  0  0
   -1.2039    1.2511    0.1778 C   0  0  0  0  0  0  0  0  0  0  0  0
    4.6555    1.5446   -0.7437 O   0  0  0  0  0  0  0  0  0  0  0  0
    4.9887    6.0895    1.8007 O   0  0  0  0  0  0  0  0  0  0  0  0
   -2.4002    0.5587    0.0654 C   0  0  0  0  0  0  0  0  0  0  0  0
    4.6484    3.9305    0.6924 C   0  0  0  0  0  0  0  0  0  0  0  0
   -1.4018   -2.9223   -0.0366 O   0  0  0  0  0  0  0  0  0  0  0  0
    3.1368    4.9367    2.2729 O   0  0  0  0  0  0  0  0  0  0  0  0
   -3.5684   -1.5652   -0.0950 O   0  0  0  0  0  0  0  0  0  0  0  0
   -0.3539   -3.8694    0.0333 C   0  0  0  0  0  0  0  0  0  0  0  0
   -4.7724   -0.9258    0.3179 C   0  0  0  0  0  0  0  0  0  0  0  0
    1.0922    2.3719    0.7199 H   0  0  0  0  0  0  0  0  0  0  0  0
    2.8575    3.0830    1.3903 H   0  0  0  0  0  0  0  0  0  0  0  0
   -1.2291    2.3384    0.1974 H   0  0  0  0  0  0  0  0  0  0  0  0
   -3.3147    1.1376   -0.0148 H   0  0  0  0  0  0  0  0  0  0  0  0
    5.5977    3.4790    0.9924 H   0  0  0  0  0  0  0  0  0  0  0  0
    4.7071    4.3022   -0.3348 H   0  0  0  0  0  0  0  0  0  0  0  0
    3.0784    5.7476    2.8240 H   0  0  0  0  0  0  0  0  0  0  0  0
    0.4146   -3.6783   -0.7198 H   0  0  0  0  0  0  0  0  0  0  0  0
    0.0408   -3.9305    1.0509 H   0  0  0  0  0  0  0  0  0  0  0  0
   -0.7776   -4.8538   -0.1892 H   0  0  0  0  0  0  0  0  0  0  0  0
   -4.6870   -0.5388    1.3392 H   0  0  0  0  0  0  0  0  0  0  0  0
   -5.0607   -0.1331   -0.3801 H   0  0  0  0  0  0  0  0  0  0  0  0
   -5.5724   -1.6728    0.3089 H   0  0  0  0  0  0  0  0  0  0  0  0
  2  1  1  0  0  0  0
  3  1  1  0  0  0  0
  4  3  1  0  0  0  0
  5  2  2  0  0  0  0
  6  4  2  0  0  0  0
  6  5  1  0  0  0  0
  6 23  1  0  0  0  0
  7  2  1  0  0  0  0
  8  4  1  0  0  0  0
  9  8  1  0  0  0  0
  9 24  1  0  0  0  0
 10  1  2  0  0  0  0
 11 17  1  0  0  0  0
 12  7  2  0  0  0  0
 13  5  1  0  0  0  0
 13 16  2  0  0  0  0
 13 25  1  0  0  0  0
 14  8  2  0  0  0  0
 15 11  2  0  0  0  0
 16 12  1  0  0  0  0
 16 26  1  0  0  0  0
 17  9  1  0  0  0  0
 17 27  1  0  0  0  0
 17 28  1  0  0  0  0
 18  7  1  0  0  0  0
 19 11  1  0  0  0  0
 19 29  1  0  0  0  0
 20 12  1  0  0  0  0
 21 18  1  0  0  0  0
 21 30  1  0  0  0  0
 21 31  1  0  0  0  0
 21 32  1  0  0  0  0
 22 20  1  0  0  0  0
 22 33  1  0  0  0  0
 22 34  1  0  0  0  0
 22 35  1  0  0  0  0
M  END
>  <Mol_ID>
8454

>  <Formula>
C14H13NO6S

>  <MolWeight>
323.32112

>  <Cat>
P2820

>  <Name>
WAY-388279

>  <Synonyms>
N/A

>  <Target>
Anti-infection

>  <Form>
free base

>  <CAS>
615282-41-2

>  <URL>
N/A

$$$$
