WAY-299771
 OpenBabel08302521413D

 38 41  0  0  0  0  0  0  0  0999 V2000
   -0.1403   -0.2901   -0.0552 N   0  0  0  0  0  0  0  0  0  0  0  0
    1.2248   -0.3849   -0.0336 C   0  0  0  0  0  0  0  0  0  0  0  0
   -0.4644    1.0257   -0.0417 C   0  0  0  0  0  0  0  0  0  0  0  0
   -1.1631   -1.2081   -0.0884 C   0  0  0  0  0  0  0  0  0  0  0  0
    1.6435    0.9502   -0.0159 C   0  0  0  0  0  0  0  0  0  0  0  0
    2.1063   -1.4692   -0.0254 C   0  0  0  0  0  0  0  0  0  0  0  0
    0.5691    1.8219   -0.0215 N   0  0  0  0  0  0  0  0  0  0  0  0
   -2.1630    1.2989   -0.0618 S   0  0  0  0  0  0  0  0  0  0  0  0
   -2.4409   -0.4348   -0.0764 C   0  0  0  0  0  0  0  0  0  0  0  0
   -0.9546   -2.4048   -0.1270 O   0  0  0  0  0  0  0  0  0  0  0  0
    3.0186    1.2258    0.0058 C   0  0  0  0  0  0  0  0  0  0  0  0
    3.4705   -1.1687   -0.0015 C   0  0  0  0  0  0  0  0  0  0  0  0
   -3.6705   -0.9687   -0.0658 C   0  0  0  0  0  0  0  0  0  0  0  0
    3.9218    0.1533    0.0122 C   0  0  0  0  0  0  0  0  0  0  0  0
   -3.9529   -2.4058   -0.0593 C   0  0  0  0  0  0  0  0  0  0  0  0
   -4.0607   -3.1125   -1.2651 C   0  0  0  0  0  0  0  0  0  0  0  0
   -4.1080   -3.0795    1.1493 C   0  0  0  0  0  0  0  0  0  0  0  0
   -4.3487   -4.4886   -1.2803 C   0  0  0  0  0  0  0  0  0  0  0  0
   -4.3928   -4.4439    1.1454 C   0  0  0  0  0  0  0  0  0  0  0  0
   -4.5294   -5.1577   -0.0555 C   0  0  0  0  0  0  0  0  0  0  0  0
   -4.4628   -5.2115   -2.4378 O   0  0  0  0  0  0  0  0  0  0  0  0
   -4.8400   -6.4745    0.1675 O   0  0  0  0  0  0  0  0  0  0  0  0
   -4.2847   -4.5423   -3.6782 C   0  0  0  0  0  0  0  0  0  0  0  0
   -5.0688   -7.3272   -0.9432 C   0  0  0  0  0  0  0  0  0  0  0  0
    1.7510   -2.4960   -0.0351 H   0  0  0  0  0  0  0  0  0  0  0  0
    3.3698    2.2521    0.0188 H   0  0  0  0  0  0  0  0  0  0  0  0
    4.1922   -1.9836    0.0063 H   0  0  0  0  0  0  0  0  0  0  0  0
   -4.5543   -0.3349   -0.0494 H   0  0  0  0  0  0  0  0  0  0  0  0
    4.9906    0.3545    0.0288 H   0  0  0  0  0  0  0  0  0  0  0  0
   -3.9099   -2.5640   -2.1891 H   0  0  0  0  0  0  0  0  0  0  0  0
   -4.0080   -2.5603    2.0989 H   0  0  0  0  0  0  0  0  0  0  0  0
   -4.5140   -4.9662    2.0923 H   0  0  0  0  0  0  0  0  0  0  0  0
   -5.0231   -3.7445   -3.8085 H   0  0  0  0  0  0  0  0  0  0  0  0
   -3.2631   -4.1614   -3.7766 H   0  0  0  0  0  0  0  0  0  0  0  0
   -4.4460   -5.2733   -4.4764 H   0  0  0  0  0  0  0  0  0  0  0  0
   -5.8829   -6.9594   -1.5757 H   0  0  0  0  0  0  0  0  0  0  0  0
   -4.1460   -7.4899   -1.5086 H   0  0  0  0  0  0  0  0  0  0  0  0
   -5.3859   -8.2994   -0.5527 H   0  0  0  0  0  0  0  0  0  0  0  0
  1  2  1  0  0  0  0
  1  3  1  0  0  0  0
  1  4  1  0  0  0  0
  2  5  2  0  0  0  0
  2  6  1  0  0  0  0
  3  7  2  0  0  0  0
  3  8  1  0  0  0  0
  4  9  1  0  0  0  0
  4 10  2  0  0  0  0
  5 11  1  0  0  0  0
  5  7  1  0  0  0  0
  6 12  2  0  0  0  0
  6 25  1  0  0  0  0
  8  9  1  0  0  0  0
  9 13  2  0  0  0  0
 11 14  2  0  0  0  0
 11 26  1  0  0  0  0
 12 14  1  0  0  0  0
 12 27  1  0  0  0  0
 13 15  1  0  0  0  0
 13 28  1  0  0  0  0
 14 29  1  0  0  0  0
 15 16  2  0  0  0  0
 15 17  1  0  0  0  0
 16 18  1  0  0  0  0
 16 30  1  0  0  0  0
 17 19  2  0  0  0  0
 17 31  1  0  0  0  0
 18 20  2  0  0  0  0
 18 21  1  0  0  0  0
 19 20  1  0  0  0  0
 19 32  1  0  0  0  0
 20 22  1  0  0  0  0
 21 23  1  0  0  0  0
 22 24  1  0  0  0  0
 23 33  1  0  0  0  0
 23 34  1  0  0  0  0
 23 35  1  0  0  0  0
 24 36  1  0  0  0  0
 24 37  1  0  0  0  0
 24 38  1  0  0  0  0
M  END
>  <Mol_ID>
8390

>  <Formula>
C18H14N2O3S

>  <MolWeight>
338.38036

>  <Cat>
P2115

>  <Name>
WAY-299771

>  <Synonyms>
N/A

>  <Target>
GEF

>  <Form>
free base

>  <CAS>
290835-37-9

>  <URL>
N/A

$$$$
