WAY-606816
 OpenBabel08302521433D

 43 46  0  0  0  0  0  0  0  0999 V2000
    2.4898    0.2867   -0.1066 N   0  0  0  0  0  0  0  0  0  0  0  0
    6.8067    1.0091    2.7490 S   0  0  0  0  0  0  0  0  0  0  0  0
    1.6207    1.0539    0.6810 C   0  0  0  0  0  0  0  0  0  0  0  0
    1.6650   -0.7917   -1.1843 S   0  0  0  0  0  0  0  0  0  0  0  0
    0.2127    0.7508    0.3482 C   0  0  0  0  0  0  0  0  0  0  0  0
    7.0355    2.6779    2.8070 N   0  0  0  0  0  0  0  0  0  0  0  0
    0.0918   -0.2428   -0.6142 C   0  0  0  0  0  0  0  0  0  0  0  0
    8.5078    3.7052    1.0931 C   0  0  0  0  0  0  0  0  0  0  0  0
    3.9177    0.3126   -0.0342 C   0  0  0  0  0  0  0  0  0  0  0  0
    5.9952    0.7165    1.1887 C   0  0  0  0  0  0  0  0  0  0  0  0
    8.2898    3.2245    2.3915 C   0  0  0  0  0  0  0  0  0  0  0  0
    7.3801    3.8877    0.1555 C   0  0  0  0  0  0  0  0  0  0  0  0
    4.5906    0.7659    1.1135 C   0  0  0  0  0  0  0  0  0  0  0  0
    5.8499    0.7041    3.7920 O   0  0  0  0  0  0  0  0  0  0  0  0
    8.0924    0.3437    2.7156 O   0  0  0  0  0  0  0  0  0  0  0  0
    1.8835    1.8996    1.5236 O   0  0  0  0  0  0  0  0  0  0  0  0
    6.2303    4.1574    0.4433 O   0  0  0  0  0  0  0  0  0  0  0  0
    7.7622    3.7664   -1.1290 O   0  0  0  0  0  0  0  0  0  0  0  0
   -0.9056    1.3720    0.8926 C   0  0  0  0  0  0  0  0  0  0  0  0
    9.7827    4.1672    0.7225 C   0  0  0  0  0  0  0  0  0  0  0  0
    4.7020   -0.1586   -1.1049 C   0  0  0  0  0  0  0  0  0  0  0  0
   -1.1586   -0.6719   -1.0339 C   0  0  0  0  0  0  0  0  0  0  0  0
    6.7498    0.2460    0.1081 C   0  0  0  0  0  0  0  0  0  0  0  0
    9.3391    3.2605    3.3204 C   0  0  0  0  0  0  0  0  0  0  0  0
    6.0997   -0.1770   -1.0422 C   0  0  0  0  0  0  0  0  0  0  0  0
   -2.1687    0.9604    0.4601 C   0  0  0  0  0  0  0  0  0  0  0  0
   10.8192    4.2016    1.6559 C   0  0  0  0  0  0  0  0  0  0  0  0
   -2.2945   -0.0638   -0.4902 C   0  0  0  0  0  0  0  0  0  0  0  0
   10.5918    3.7656    2.9588 C   0  0  0  0  0  0  0  0  0  0  0  0
    6.6121    3.0734    3.6464 H   0  0  0  0  0  0  0  0  0  0  0  0
    4.0364    1.0980    1.9882 H   0  0  0  0  0  0  0  0  0  0  0  0
    6.9347    3.9527   -1.6219 H   0  0  0  0  0  0  0  0  0  0  0  0
   -0.7973    2.1647    1.6273 H   0  0  0  0  0  0  0  0  0  0  0  0
    9.9635    4.5403   -0.2833 H   0  0  0  0  0  0  0  0  0  0  0  0
    4.2426   -0.5118   -2.0248 H   0  0  0  0  0  0  0  0  0  0  0  0
   -1.2600   -1.4593   -1.7746 H   0  0  0  0  0  0  0  0  0  0  0  0
    7.8323    0.1760    0.1750 H   0  0  0  0  0  0  0  0  0  0  0  0
    9.1911    2.8994    4.3358 H   0  0  0  0  0  0  0  0  0  0  0  0
    6.6743   -0.5519   -1.8870 H   0  0  0  0  0  0  0  0  0  0  0  0
   -3.0609    1.4371    0.8608 H   0  0  0  0  0  0  0  0  0  0  0  0
   11.7952    4.5897    1.3719 H   0  0  0  0  0  0  0  0  0  0  0  0
   -3.2842   -0.3818   -0.8124 H   0  0  0  0  0  0  0  0  0  0  0  0
   11.3915    3.8166    3.6949 H   0  0  0  0  0  0  0  0  0  0  0  0
  2 10  1  0  0  0  0
  3  1  1  0  0  0  0
  4  1  1  0  0  0  0
  5  3  1  0  0  0  0
  5  7  2  0  0  0  0
  6  2  1  0  0  0  0
  6 30  1  0  0  0  0
  7  4  1  0  0  0  0
  8 11  2  0  0  0  0
  9  1  1  0  0  0  0
 10 13  2  0  0  0  0
 11  6  1  0  0  0  0
 12  8  1  0  0  0  0
 13  9  1  0  0  0  0
 13 31  1  0  0  0  0
 14  2  2  0  0  0  0
 15  2  2  0  0  0  0
 16  3  2  0  0  0  0
 17 12  2  0  0  0  0
 18 12  1  0  0  0  0
 18 32  1  0  0  0  0
 19  5  1  0  0  0  0
 19 33  1  0  0  0  0
 20  8  1  0  0  0  0
 20 34  1  0  0  0  0
 21  9  2  0  0  0  0
 21 35  1  0  0  0  0
 22  7  1  0  0  0  0
 22 36  1  0  0  0  0
 23 25  2  0  0  0  0
 23 10  1  0  0  0  0
 23 37  1  0  0  0  0
 24 11  1  0  0  0  0
 24 38  1  0  0  0  0
 25 21  1  0  0  0  0
 25 39  1  0  0  0  0
 26 19  2  0  0  0  0
 26 28  1  0  0  0  0
 26 40  1  0  0  0  0
 27 29  1  0  0  0  0
 27 20  2  0  0  0  0
 27 41  1  0  0  0  0
 28 22  2  0  0  0  0
 28 42  1  0  0  0  0
 29 24  2  0  0  0  0
 29 43  1  0  0  0  0
M  END
>  <Mol_ID>
8732

>  <Formula>
C20H14N2O5S2

>  <MolWeight>
426.46556

>  <Cat>
P2875

>  <Name>
WAY-606816

>  <Synonyms>
N/A

>  <Target>
IDE,PHOSPHO1,CTP synthase

>  <Form>
free base

>  <CAS>
521318-69-4

>  <URL>
N/A

$$$$
