WAY-638359
 OpenBabel08302521423D

 41 42  0  0  0  0  0  0  0  0999 V2000
    2.8455    2.8471   -2.7057 C   0  0  0  0  0  0  0  0  0  0  0  0
    2.2048    4.2607   -0.5614 C   0  0  0  0  0  0  0  0  0  0  0  0
    2.9447    3.0973   -1.2154 C   0  0  0  0  0  0  0  0  0  0  0  0
    0.8257    4.2167   -0.5549 N   0  0  0  0  0  0  0  0  0  0  0  0
    1.6413    2.5388   -3.3294 C   0  0  0  0  0  0  0  0  0  0  0  0
    4.0210    2.7202   -3.4765 C   0  0  0  0  0  0  0  0  0  0  0  0
    2.8278    5.1103    0.0786 O   0  0  0  0  0  0  0  0  0  0  0  0
    0.4990    2.5699   -2.6323 F   0  0  0  0  0  0  0  0  0  0  0  0
   -1.4537    3.1392    1.1742 C   0  0  0  0  0  0  0  0  0  0  0  0
   -2.8102    2.4626    1.2407 C   0  0  0  0  0  0  0  0  0  0  0  0
   -1.4125    4.5254    0.5221 C   0  0  0  0  0  0  0  0  0  0  0  0
    0.0157    5.0753    0.3181 C   0  0  3  0  0  0  0  0  0  0  0  0
    2.7509    1.9900   -5.3995 C   0  0  0  0  0  0  0  0  0  0  0  0
    1.5775    2.1186   -4.6602 C   0  0  0  0  0  0  0  0  0  0  0  0
    3.9732    2.2901   -4.8094 C   0  0  0  0  0  0  0  0  0  0  0  0
   -4.0166    3.0772    0.8773 C   0  0  0  0  0  0  0  0  0  0  0  0
   -2.8464    1.1161    1.6400 C   0  0  0  0  0  0  0  0  0  0  0  0
   -0.0899    6.5076   -0.2141 C   0  0  0  0  0  0  0  0  0  0  0  0
   -4.0320    0.3810    1.5893 C   0  0  0  0  0  0  0  0  0  0  0  0
   -5.2052    2.3401    0.8268 C   0  0  0  0  0  0  0  0  0  0  0  0
   -5.2079    0.9877    1.1596 C   0  0  0  0  0  0  0  0  0  0  0  0
    2.6575    2.1755   -0.6944 H   0  0  0  0  0  0  0  0  0  0  0  0
    4.0050    3.2501   -0.9692 H   0  0  0  0  0  0  0  0  0  0  0  0
    0.3602    3.6219   -1.2336 H   0  0  0  0  0  0  0  0  0  0  0  0
    4.9972    2.9082   -3.0313 H   0  0  0  0  0  0  0  0  0  0  0  0
   -0.8052    2.4707    0.5944 H   0  0  0  0  0  0  0  0  0  0  0  0
   -1.0396    3.2003    2.1880 H   0  0  0  0  0  0  0  0  0  0  0  0
   -1.9749    5.2260    1.1550 H   0  0  0  0  0  0  0  0  0  0  0  0
   -1.9234    4.4926   -0.4489 H   0  0  0  0  0  0  0  0  0  0  0  0
    0.5246    5.1133    1.2899 H   0  0  0  0  0  0  0  0  0  0  0  0
    2.7108    1.6342   -6.4292 H   0  0  0  0  0  0  0  0  0  0  0  0
    0.6180    1.8679   -5.0972 H   0  0  0  0  0  0  0  0  0  0  0  0
    4.8936    2.1671   -5.3770 H   0  0  0  0  0  0  0  0  0  0  0  0
   -4.0566    4.1276    0.6021 H   0  0  0  0  0  0  0  0  0  0  0  0
   -1.9339    0.6218    1.9672 H   0  0  0  0  0  0  0  0  0  0  0  0
    0.8839    6.9222   -0.4881 H   0  0  0  0  0  0  0  0  0  0  0  0
   -0.7359    6.5558   -1.0988 H   0  0  0  0  0  0  0  0  0  0  0  0
   -0.5292    7.1607    0.5497 H   0  0  0  0  0  0  0  0  0  0  0  0
   -4.0304   -0.6696    1.8665 H   0  0  0  0  0  0  0  0  0  0  0  0
   -6.1280    2.8192    0.5085 H   0  0  0  0  0  0  0  0  0  0  0  0
   -6.1241    0.4081    1.0843 H   0  0  0  0  0  0  0  0  0  0  0  0
  2  3  1  0  0  0  0
  3  1  1  0  0  0  0
  3 22  1  0  0  0  0
  3 23  1  0  0  0  0
  4  2  1  0  0  0  0
  4 24  1  0  0  0  0
  5  1  2  0  0  0  0
  6  1  1  0  0  0  0
  6 25  1  0  0  0  0
  7  2  2  0  0  0  0
  8  5  1  0  0  0  0
  9 11  1  0  0  0  0
  9 26  1  0  0  0  0
  9 27  1  0  0  0  0
 10  9  1  0  0  0  0
 11 12  1  0  0  0  0
 11 28  1  0  0  0  0
 11 29  1  0  0  0  0
 12  4  1  0  0  0  0
 12 30  1  0  0  0  0
 13 15  1  0  0  0  0
 13 14  2  0  0  0  0
 13 31  1  0  0  0  0
 14  5  1  0  0  0  0
 14 32  1  0  0  0  0
 15  6  2  0  0  0  0
 15 33  1  0  0  0  0
 16 10  2  0  0  0  0
 16 34  1  0  0  0  0
 17 10  1  0  0  0  0
 17 35  1  0  0  0  0
 18 12  1  0  0  0  0
 18 36  1  0  0  0  0
 18 37  1  0  0  0  0
 18 38  1  0  0  0  0
 19 17  2  0  0  0  0
 19 39  1  0  0  0  0
 20 16  1  0  0  0  0
 20 40  1  0  0  0  0
 21 19  1  0  0  0  0
 21 20  2  0  0  0  0
 21 41  1  0  0  0  0
M  END
>  <Mol_ID>
8510

>  <Formula>
C18H19ClFNO

>  <MolWeight>
319.8009632

>  <Cat>
P3036

>  <Name>
WAY-638359

>  <Synonyms>
N/A

>  <Target>
glucocorticoid receptor

>  <Form>
free base

>  <CAS>
794560-57-9

>  <URL>
N/A

$$$$
