WAY-638948
 OpenBabel08302521433D

 38 39  0  0  0  0  0  0  0  0999 V2000
    1.1936   -0.1005    0.4495 N   0  0  0  0  0  0  0  0  0  0  0  0
   -1.0978    0.8598    0.6343 C   0  0  3  0  0  0  0  0  0  0  0  0
    2.5309    0.0461    0.8451 C   0  0  0  0  0  0  0  0  0  0  0  0
   -1.0936    1.0697    2.1493 C   0  0  0  0  0  0  0  0  0  0  0  0
    0.3238    1.0280    0.0882 C   0  0  0  0  0  0  0  0  0  0  0  0
    6.2245    3.4698    1.8955 C   0  0  0  0  0  0  0  0  0  0  0  0
    7.5273    2.3666    1.7967 S   0  0  0  0  0  0  0  0  0  0  0  0
    4.8308    3.0849    1.6924 C   0  0  0  0  0  0  0  0  0  0  0  0
    6.6870    4.7502    2.1653 C   0  0  0  0  0  0  0  0  0  0  0  0
    3.0043    1.4714    1.0939 C   0  0  0  0  0  0  0  0  0  0  0  0
    8.6913    3.5988    2.0226 C   0  0  0  0  0  0  0  0  0  0  0  0
    3.2900   -0.9120    0.9857 O   0  0  0  0  0  0  0  0  0  0  0  0
   -0.1998    1.6536    2.7532 O   0  0  0  0  0  0  0  0  0  0  0  0
    4.4737    1.6110    1.4752 C   0  0  0  0  0  0  0  0  0  0  0  0
    8.1080    4.8280    2.2249 C   0  0  0  0  0  0  0  0  0  0  0  0
    3.9395    3.9379    1.6874 O   0  0  0  0  0  0  0  0  0  0  0  0
   -2.2043    0.6835    2.8338 N   0  0  0  0  0  0  0  0  0  0  0  0
    0.6968   -1.4250    0.0830 C   0  0  0  0  0  0  0  0  0  0  0  0
   -1.6688   -0.4767    0.1514 C   0  0  0  0  0  0  0  0  0  0  0  0
   -0.7578   -1.6501    0.5063 C   0  0  0  0  0  0  0  0  0  0  0  0
   -1.7191    1.6692    0.2283 H   0  0  0  0  0  0  0  0  0  0  0  0
    0.3017    1.0587   -1.0090 H   0  0  0  0  0  0  0  0  0  0  0  0
    0.7320    1.9860    0.4128 H   0  0  0  0  0  0  0  0  0  0  0  0
    6.0236    5.6021    2.2889 H   0  0  0  0  0  0  0  0  0  0  0  0
    2.8424    2.0432    0.1722 H   0  0  0  0  0  0  0  0  0  0  0  0
    2.3846    1.8961    1.8934 H   0  0  0  0  0  0  0  0  0  0  0  0
    9.7473    3.3636    1.9999 H   0  0  0  0  0  0  0  0  0  0  0  0
    4.6847    1.0589    2.4012 H   0  0  0  0  0  0  0  0  0  0  0  0
    5.0942    1.2015    0.6718 H   0  0  0  0  0  0  0  0  0  0  0  0
    8.6707    5.7394    2.3951 H   0  0  0  0  0  0  0  0  0  0  0  0
   -2.9672    0.1556    2.4406 H   0  0  0  0  0  0  0  0  0  0  0  0
   -2.1880    0.8251    3.8367 H   0  0  0  0  0  0  0  0  0  0  0  0
    1.3235   -2.2120    0.5170 H   0  0  0  0  0  0  0  0  0  0  0  0
    0.7829   -1.5071   -1.0073 H   0  0  0  0  0  0  0  0  0  0  0  0
   -2.6736   -0.6542    0.5492 H   0  0  0  0  0  0  0  0  0  0  0  0
   -1.7828   -0.4344   -0.9399 H   0  0  0  0  0  0  0  0  0  0  0  0
   -0.8006   -1.8202    1.5883 H   0  0  0  0  0  0  0  0  0  0  0  0
   -1.1405   -2.5606    0.0289 H   0  0  0  0  0  0  0  0  0  0  0  0
  2  5  1  0  0  0  0
  2 21  1  0  0  0  0
  3  1  1  0  0  0  0
  4  2  1  0  0  0  0
  5  1  1  0  0  0  0
  5 22  1  0  0  0  0
  5 23  1  0  0  0  0
  6  8  1  0  0  0  0
  7  6  1  0  0  0  0
  8 14  1  0  0  0  0
  9  6  2  0  0  0  0
  9 24  1  0  0  0  0
 10  3  1  0  0  0  0
 10 25  1  0  0  0  0
 10 26  1  0  0  0  0
 11  7  1  0  0  0  0
 11 15  2  0  0  0  0
 11 27  1  0  0  0  0
 12  3  2  0  0  0  0
 13  4  2  0  0  0  0
 14 10  1  0  0  0  0
 14 28  1  0  0  0  0
 14 29  1  0  0  0  0
 15  9  1  0  0  0  0
 15 30  1  0  0  0  0
 16  8  2  0  0  0  0
 17  4  1  0  0  0  0
 17 31  1  0  0  0  0
 17 32  1  0  0  0  0
 18  1  1  0  0  0  0
 18 33  1  0  0  0  0
 18 34  1  0  0  0  0
 19 20  1  0  0  0  0
 19  2  1  0  0  0  0
 19 35  1  0  0  0  0
 19 36  1  0  0  0  0
 20 18  1  0  0  0  0
 20 37  1  0  0  0  0
 20 38  1  0  0  0  0
M  END
>  <Mol_ID>
8799

>  <Formula>
C14H18N2O3S

>  <MolWeight>
294.36932

>  <Cat>
P3063

>  <Name>
WAY-638948

>  <Synonyms>
N/A

>  <Target>
Androgen Receptor

>  <Form>
free base

>  <CAS>
1351448-98-0

>  <URL>
N/A

$$$$
