WAY-332088
 OpenBabel08302521453D

 50 52  0  0  0  0  0  0  0  0999 V2000
   -0.2912   -0.8662    0.2332 C   0  0  0  0  0  0  0  0  0  0  0  0
    0.0716    0.3160   -0.2462 N   0  0  0  0  0  0  0  0  0  0  0  0
   -0.4712    1.2463    0.6090 C   0  0  0  0  0  0  0  0  0  0  0  0
   -0.6073    3.6795   -0.8540 S   0  0  0  0  0  0  0  0  0  0  0  0
   -1.0584   -0.7684    1.3648 O   0  0  0  0  0  0  0  0  0  0  0  0
   -0.1186    2.6872    0.5466 C   0  0  0  0  0  0  0  0  0  0  0  0
   -1.1533    0.5749    1.6070 C   0  0  0  0  0  0  0  0  0  0  0  0
   -2.3771    3.6814   -0.9354 C   0  0  0  0  0  0  0  0  0  0  0  0
    0.1449   -2.2042   -0.2197 C   0  0  0  0  0  0  0  0  0  0  0  0
   -2.9392    2.3185   -1.1562 C   0  0  0  0  0  0  0  0  0  0  0  0
   -0.2623    5.0490   -0.4780 O   0  0  0  0  0  0  0  0  0  0  0  0
   -0.0476    3.1476   -2.0776 O   0  0  0  0  0  0  0  0  0  0  0  0
   -3.8689    1.9381   -0.2125 N   0  0  0  0  0  0  0  0  0  0  0  0
   -2.6366    1.6013   -2.1005 O   0  0  0  0  0  0  0  0  0  0  0  0
   -0.2016   -3.4550    0.3457 C   0  0  0  0  0  0  0  0  0  0  0  0
   -4.3780    0.5835   -0.2090 C   0  0  0  0  0  0  0  0  0  0  0  0
   -6.4820    1.2733    1.0323 C   0  0  0  0  0  0  0  0  0  0  0  0
   -7.4072    1.0839    2.0607 C   0  0  0  0  0  0  0  0  0  0  0  0
   -5.4108    0.3813    0.8670 C   0  0  0  0  0  0  0  0  0  0  0  0
   -1.8505    0.9807    2.8407 C   0  0  0  0  0  0  0  0  0  0  0  0
    1.0491   -2.2138   -1.3081 C   0  0  0  0  0  0  0  0  0  0  0  0
   -6.2491   -0.9219    2.7376 C   0  0  0  0  0  0  0  0  0  0  0  0
   -1.1969   -3.6644    1.4559 C   0  0  0  0  0  0  0  0  0  0  0  0
    0.4435   -4.6282   -0.1177 C   0  0  0  0  0  0  0  0  0  0  0  0
   -7.2866   -0.0091    2.9164 C   0  0  0  0  0  0  0  0  0  0  0  0
   -5.3194   -0.7298    1.7159 C   0  0  0  0  0  0  0  0  0  0  0  0
    1.6410   -3.3873   -1.7823 C   0  0  0  0  0  0  0  0  0  0  0  0
    1.3563   -4.5954   -1.1693 C   0  0  0  0  0  0  0  0  0  0  0  0
   -0.5166    3.2092    1.4243 H   0  0  0  0  0  0  0  0  0  0  0  0
    0.9732    2.7784    0.5959 H   0  0  0  0  0  0  0  0  0  0  0  0
   -2.7489    4.1313   -0.0095 H   0  0  0  0  0  0  0  0  0  0  0  0
   -2.6756    4.3291   -1.7659 H   0  0  0  0  0  0  0  0  0  0  0  0
   -4.1229    2.5446    0.5559 H   0  0  0  0  0  0  0  0  0  0  0  0
   -3.5143   -0.0663   -0.0307 H   0  0  0  0  0  0  0  0  0  0  0  0
   -4.7809    0.3301   -1.1948 H   0  0  0  0  0  0  0  0  0  0  0  0
   -6.6034    2.1207    0.3607 H   0  0  0  0  0  0  0  0  0  0  0  0
   -8.2274    1.7851    2.1896 H   0  0  0  0  0  0  0  0  0  0  0  0
   -2.9289    1.0330    2.6737 H   0  0  0  0  0  0  0  0  0  0  0  0
   -1.6583    0.2710    3.6507 H   0  0  0  0  0  0  0  0  0  0  0  0
   -1.5143    1.9667    3.1755 H   0  0  0  0  0  0  0  0  0  0  0  0
    1.3121   -1.2752   -1.7965 H   0  0  0  0  0  0  0  0  0  0  0  0
   -6.1641   -1.7864    3.3908 H   0  0  0  0  0  0  0  0  0  0  0  0
   -1.7211   -4.6177    1.3068 H   0  0  0  0  0  0  0  0  0  0  0  0
   -0.6876   -3.7044    2.4232 H   0  0  0  0  0  0  0  0  0  0  0  0
   -1.9806   -2.9066    1.4741 H   0  0  0  0  0  0  0  0  0  0  0  0
    0.2288   -5.5898    0.3471 H   0  0  0  0  0  0  0  0  0  0  0  0
   -8.0063   -0.1562    3.7181 H   0  0  0  0  0  0  0  0  0  0  0  0
   -4.5162   -1.4536    1.5873 H   0  0  0  0  0  0  0  0  0  0  0  0
    2.3334   -3.3457   -2.6190 H   0  0  0  0  0  0  0  0  0  0  0  0
    1.8337   -5.5100   -1.5099 H   0  0  0  0  0  0  0  0  0  0  0  0
  2  1  2  0  0  0  0
  3  2  1  0  0  0  0
  4  6  1  0  0  0  0
  5  1  1  0  0  0  0
  6  3  1  0  0  0  0
  6 29  1  0  0  0  0
  6 30  1  0  0  0  0
  7  5  1  0  0  0  0
  7  3  2  0  0  0  0
  8  4  1  0  0  0  0
  8 31  1  0  0  0  0
  8 32  1  0  0  0  0
  9  1  1  0  0  0  0
 10  8  1  0  0  0  0
 11  4  2  0  0  0  0
 12  4  2  0  0  0  0
 13 10  1  0  0  0  0
 13 33  1  0  0  0  0
 14 10  2  0  0  0  0
 15  9  2  0  0  0  0
 16 13  1  0  0  0  0
 16 34  1  0  0  0  0
 16 35  1  0  0  0  0
 17 19  2  0  0  0  0
 17 36  1  0  0  0  0
 18 17  1  0  0  0  0
 18 37  1  0  0  0  0
 19 16  1  0  0  0  0
 20  7  1  0  0  0  0
 20 38  1  0  0  0  0
 20 39  1  0  0  0  0
 20 40  1  0  0  0  0
 21  9  1  0  0  0  0
 21 41  1  0  0  0  0
 22 26  2  0  0  0  0
 22 42  1  0  0  0  0
 23 15  1  0  0  0  0
 23 43  1  0  0  0  0
 23 44  1  0  0  0  0
 23 45  1  0  0  0  0
 24 15  1  0  0  0  0
 24 28  2  0  0  0  0
 24 46  1  0  0  0  0
 25 22  1  0  0  0  0
 25 18  2  0  0  0  0
 25 47  1  0  0  0  0
 26 19  1  0  0  0  0
 26 48  1  0  0  0  0
 27 21  2  0  0  0  0
 27 49  1  0  0  0  0
 28 27  1  0  0  0  0
 28 50  1  0  0  0  0
M  END
>  <Mol_ID>
9281

>  <Formula>
C21H21ClN2O4S

>  <MolWeight>
432.92044

>  <Cat>
P2726

>  <Name>
WAY-332088

>  <Synonyms>
N/A

>  <Target>
beta-catenin

>  <Form>
free base

>  <CAS>
902588-17-4

>  <URL>
N/A

$$$$
