WAY-607475
 OpenBabel08302521433D

 48 51  0  0  0  0  0  0  0  0999 V2000
   -0.3716    1.1819    0.3283 C   0  0  0  0  0  0  0  0  0  0  0  0
    0.9422    0.6384    0.4475 C   0  0  0  0  0  0  0  0  0  0  0  0
    0.9208   -0.7057    0.4782 N   0  0  0  0  0  0  0  0  0  0  0  0
   -0.8464    2.5595   -0.0117 C   0  0  3  0  0  0  0  0  0  0  0  0
   -0.3900   -1.0548    0.4548 N   0  0  0  0  0  0  0  0  0  0  0  0
   -0.4730    3.6357    0.8787 N   0  0  0  0  0  0  0  0  0  0  0  0
   -1.1916    0.0633    0.4028 C   0  0  0  0  0  0  0  0  0  0  0  0
   -0.2850    3.0440   -1.6680 S   0  0  0  0  0  0  0  0  0  0  0  0
   -0.2133    4.8622    0.2766 C   0  0  0  0  0  0  0  0  0  0  0  0
    2.2509    1.3932    0.4173 C   0  0  0  0  0  0  0  0  0  0  0  0
    2.4996    2.9724    1.0161 S   0  0  0  0  0  0  0  0  0  0  0  0
   -0.2238    4.7878   -1.2335 C   0  0  0  0  0  0  0  0  0  0  0  0
   -0.8029   -2.4284    0.4372 C   0  0  0  0  0  0  0  0  0  0  0  0
    3.4293    0.8911   -0.0982 C   0  0  0  0  0  0  0  0  0  0  0  0
   -0.0194    5.9117    0.8826 O   0  0  0  0  0  0  0  0  0  0  0  0
    4.0402    3.0983    0.3231 C   0  0  0  0  0  0  0  0  0  0  0  0
    4.4432    1.8971   -0.2019 C   0  0  0  0  0  0  0  0  0  0  0  0
   -0.5838    3.5328    2.3330 C   0  0  0  0  0  0  0  0  0  0  0  0
   -1.7803    4.2778    2.9165 C   0  0  0  0  0  0  0  0  0  0  0  0
   -3.2458    2.3755    2.7593 O   0  0  0  0  0  0  0  0  0  0  0  0
    0.1626   -3.4441    0.4377 C   0  0  0  0  0  0  0  0  0  0  0  0
   -2.1586   -2.7874    0.4021 C   0  0  0  0  0  0  0  0  0  0  0  0
   -3.1136    3.7533    2.4226 C   0  0  0  0  0  0  0  0  0  0  0  0
   -4.5012    1.8607    2.3363 C   0  0  0  0  0  0  0  0  0  0  0  0
   -2.5344   -4.1392    0.3806 C   0  0  0  0  0  0  0  0  0  0  0  0
   -0.2128   -4.7894    0.4198 C   0  0  0  0  0  0  0  0  0  0  0  0
   -1.5634   -5.1384    0.3959 C   0  0  0  0  0  0  0  0  0  0  0  0
   -1.9400    2.5624   -0.0622 H   0  0  0  0  0  0  0  0  0  0  0  0
   -2.2658   -0.0110    0.3377 H   0  0  0  0  0  0  0  0  0  0  0  0
    0.6685    5.2665   -1.6441 H   0  0  0  0  0  0  0  0  0  0  0  0
   -1.1256    5.2788   -1.6060 H   0  0  0  0  0  0  0  0  0  0  0  0
    3.5263   -0.1208   -0.4849 H   0  0  0  0  0  0  0  0  0  0  0  0
    4.5701    4.0398    0.3625 H   0  0  0  0  0  0  0  0  0  0  0  0
    5.4122    1.7502   -0.6639 H   0  0  0  0  0  0  0  0  0  0  0  0
   -0.5660    2.4837    2.6448 H   0  0  0  0  0  0  0  0  0  0  0  0
    0.3146    4.0009    2.7578 H   0  0  0  0  0  0  0  0  0  0  0  0
   -1.7317    4.1864    4.0083 H   0  0  0  0  0  0  0  0  0  0  0  0
   -1.7134    5.3458    2.6838 H   0  0  0  0  0  0  0  0  0  0  0  0
    1.2280   -3.2034    0.4488 H   0  0  0  0  0  0  0  0  0  0  0  0
   -2.9541   -2.0512    0.3925 H   0  0  0  0  0  0  0  0  0  0  0  0
   -3.9195    4.3260    2.8986 H   0  0  0  0  0  0  0  0  0  0  0  0
   -3.2026    3.8790    1.3388 H   0  0  0  0  0  0  0  0  0  0  0  0
   -5.3217    2.4680    2.7303 H   0  0  0  0  0  0  0  0  0  0  0  0
   -4.5431    1.8338    1.2435 H   0  0  0  0  0  0  0  0  0  0  0  0
   -4.6043    0.8416    2.7175 H   0  0  0  0  0  0  0  0  0  0  0  0
   -3.5869   -4.4108    0.3543 H   0  0  0  0  0  0  0  0  0  0  0  0
    0.5534   -5.5644    0.4255 H   0  0  0  0  0  0  0  0  0  0  0  0
   -1.8574   -6.1837    0.3864 H   0  0  0  0  0  0  0  0  0  0  0  0
  2  1  1  0  0  0  0
  3  2  2  0  0  0  0
  3  5  1  0  0  0  0
  4  1  1  0  0  0  0
  4 28  1  0  0  0  0
  5  7  1  0  0  0  0
  6  4  1  0  0  0  0
  7  1  2  0  0  0  0
  7 29  1  0  0  0  0
  8  4  1  0  0  0  0
  9  6  1  0  0  0  0
  9 12  1  0  0  0  0
 10  2  1  0  0  0  0
 11 10  1  0  0  0  0
 12  8  1  0  0  0  0
 12 30  1  0  0  0  0
 12 31  1  0  0  0  0
 13  5  1  0  0  0  0
 14 10  2  0  0  0  0
 14 32  1  0  0  0  0
 15  9  2  0  0  0  0
 16 11  1  0  0  0  0
 16 17  2  0  0  0  0
 16 33  1  0  0  0  0
 17 14  1  0  0  0  0
 17 34  1  0  0  0  0
 18  6  1  0  0  0  0
 18 35  1  0  0  0  0
 18 36  1  0  0  0  0
 19 18  1  0  0  0  0
 19 37  1  0  0  0  0
 19 38  1  0  0  0  0
 20 23  1  0  0  0  0
 21 13  2  0  0  0  0
 21 39  1  0  0  0  0
 22 13  1  0  0  0  0
 22 40  1  0  0  0  0
 23 19  1  0  0  0  0
 23 41  1  0  0  0  0
 23 42  1  0  0  0  0
 24 20  1  0  0  0  0
 24 43  1  0  0  0  0
 24 44  1  0  0  0  0
 24 45  1  0  0  0  0
 25 22  2  0  0  0  0
 25 46  1  0  0  0  0
 26 21  1  0  0  0  0
 26 47  1  0  0  0  0
 27 25  1  0  0  0  0
 27 26  2  0  0  0  0
 27 48  1  0  0  0  0
M  END
>  <Mol_ID>
8744

>  <Formula>
C20H21N3O2S2

>  <MolWeight>
399.52964

>  <Cat>
P2891

>  <Name>
WAY-607475

>  <Synonyms>
N/A

>  <Target>
hepatitis B

>  <Form>
free base

>  <CAS>
380458-45-7

>  <URL>
N/A

$$$$
