WAY-331985
 OpenBabel08302521453D

 54 57  0  0  0  0  0  0  0  0999 V2000
   -2.5867    0.8652   -5.6955 C   0  0  0  0  0  0  0  0  0  0  0  0
   -2.3571    1.2054   -4.4447 N   0  0  0  0  0  0  0  0  0  0  0  0
   -2.6312    2.5606   -4.4024 C   0  0  0  0  0  0  0  0  0  0  0  0
   -3.0089    1.9031   -6.4863 O   0  0  0  0  0  0  0  0  0  0  0  0
   -2.4411   -0.4185   -6.3636 C   0  0  0  0  0  0  0  0  0  0  0  0
   -3.0177    2.9856   -5.6560 C   0  0  0  0  0  0  0  0  0  0  0  0
    2.5608    1.8372   -2.8385 N   0  0  0  0  0  0  0  0  0  0  0  0
    4.4689   -0.1904   -2.2301 N   0  0  0  0  0  0  0  0  0  0  0  0
    1.6775    2.9077   -2.7986 C   0  0  0  0  0  0  0  0  0  0  0  0
   -1.5138   -1.3612   -5.9136 C   0  0  0  0  0  0  0  0  0  0  0  0
    2.2029    0.4235   -3.0048 C   0  0  0  0  0  0  0  0  0  0  0  0
    3.9956    2.1163   -2.9783 C   0  0  0  0  0  0  0  0  0  0  0  0
    3.0384   -0.4932   -2.0829 C   0  0  0  0  0  0  0  0  0  0  0  0
    4.8571    1.2230   -2.0742 C   0  0  0  0  0  0  0  0  0  0  0  0
    5.4221   -1.1922   -2.1963 C   0  0  0  0  0  0  0  0  0  0  0  0
    2.0953    4.0639   -2.6551 O   0  0  0  0  0  0  0  0  0  0  0  0
   -0.8385    4.0941   -2.9964 S   0  0  0  0  0  0  0  0  0  0  0  0
   -2.4801    3.3359   -3.1462 C   0  0  0  0  0  0  0  0  0  0  0  0
   -0.7229   -1.1014   -4.8590 F   0  0  0  0  0  0  0  0  0  0  0  0
    0.1912    2.5828   -2.9478 C   0  0  0  0  0  0  0  0  0  0  0  0
   -3.2249   -0.7386   -7.4871 C   0  0  0  0  0  0  0  0  0  0  0  0
   -3.4015    4.2749   -6.2541 C   0  0  0  0  0  0  0  0  0  0  0  0
   -1.3563   -2.5857   -6.5643 C   0  0  0  0  0  0  0  0  0  0  0  0
    5.2330   -2.3983   -1.5079 C   0  0  0  0  0  0  0  0  0  0  0  0
    6.6067   -1.0634   -2.9374 C   0  0  0  0  0  0  0  0  0  0  0  0
   -3.0743   -1.9660   -8.1375 C   0  0  0  0  0  0  0  0  0  0  0  0
   -2.1368   -2.8884   -7.6763 C   0  0  0  0  0  0  0  0  0  0  0  0
    6.1621   -3.4442   -1.5905 C   0  0  0  0  0  0  0  0  0  0  0  0
    7.5371   -2.1016   -3.0298 C   0  0  0  0  0  0  0  0  0  0  0  0
    7.3072   -3.2979   -2.3656 C   0  0  0  0  0  0  0  0  0  0  0  0
    1.1395    0.2519   -2.8221 H   0  0  0  0  0  0  0  0  0  0  0  0
    2.4029    0.1713   -4.0534 H   0  0  0  0  0  0  0  0  0  0  0  0
    4.2454    1.9254   -4.0296 H   0  0  0  0  0  0  0  0  0  0  0  0
    4.2245    3.1681   -2.7811 H   0  0  0  0  0  0  0  0  0  0  0  0
    2.7340   -0.3577   -1.0383 H   0  0  0  0  0  0  0  0  0  0  0  0
    2.8178   -1.5284   -2.3694 H   0  0  0  0  0  0  0  0  0  0  0  0
    4.7278    1.5203   -1.0260 H   0  0  0  0  0  0  0  0  0  0  0  0
    5.9075    1.4068   -2.3241 H   0  0  0  0  0  0  0  0  0  0  0  0
   -3.2191    4.1444   -3.1207 H   0  0  0  0  0  0  0  0  0  0  0  0
   -2.6711    2.7037   -2.2730 H   0  0  0  0  0  0  0  0  0  0  0  0
   -0.1250    1.9674   -2.1029 H   0  0  0  0  0  0  0  0  0  0  0  0
    0.0709    2.0423   -3.8900 H   0  0  0  0  0  0  0  0  0  0  0  0
   -3.9626   -0.0308   -7.8603 H   0  0  0  0  0  0  0  0  0  0  0  0
   -2.7857    4.4871   -7.1333 H   0  0  0  0  0  0  0  0  0  0  0  0
   -4.4498    4.2515   -6.5658 H   0  0  0  0  0  0  0  0  0  0  0  0
   -3.2735    5.0981   -5.5450 H   0  0  0  0  0  0  0  0  0  0  0  0
   -0.6162   -3.2929   -6.1991 H   0  0  0  0  0  0  0  0  0  0  0  0
    4.3562   -2.5437   -0.8816 H   0  0  0  0  0  0  0  0  0  0  0  0
    6.7941   -0.1618   -3.5145 H   0  0  0  0  0  0  0  0  0  0  0  0
   -3.6883   -2.1982   -9.0047 H   0  0  0  0  0  0  0  0  0  0  0  0
   -2.0144   -3.8413   -8.1883 H   0  0  0  0  0  0  0  0  0  0  0  0
    5.9810   -4.3730   -1.0576 H   0  0  0  0  0  0  0  0  0  0  0  0
    8.4237   -1.9734   -3.6426 H   0  0  0  0  0  0  0  0  0  0  0  0
    8.0178   -4.1155   -2.4541 H   0  0  0  0  0  0  0  0  0  0  0  0
  2  1  2  0  0  0  0
  3  2  1  0  0  0  0
  4  1  1  0  0  0  0
  5  1  1  0  0  0  0
  6  4  1  0  0  0  0
  6  3  2  0  0  0  0
  7  9  1  0  0  0  0
  8 14  1  0  0  0  0
  9 20  1  0  0  0  0
 10  5  2  0  0  0  0
 11  7  1  0  0  0  0
 11 31  1  0  0  0  0
 11 32  1  0  0  0  0
 12  7  1  0  0  0  0
 12 33  1  0  0  0  0
 12 34  1  0  0  0  0
 13 11  1  0  0  0  0
 13  8  1  0  0  0  0
 13 35  1  0  0  0  0
 13 36  1  0  0  0  0
 14 12  1  0  0  0  0
 14 37  1  0  0  0  0
 14 38  1  0  0  0  0
 15  8  1  0  0  0  0
 16  9  2  0  0  0  0
 17 18  1  0  0  0  0
 18  3  1  0  0  0  0
 18 39  1  0  0  0  0
 18 40  1  0  0  0  0
 19 10  1  0  0  0  0
 20 17  1  0  0  0  0
 20 41  1  0  0  0  0
 20 42  1  0  0  0  0
 21  5  1  0  0  0  0
 21 43  1  0  0  0  0
 22  6  1  0  0  0  0
 22 44  1  0  0  0  0
 22 45  1  0  0  0  0
 22 46  1  0  0  0  0
 23 10  1  0  0  0  0
 23 27  2  0  0  0  0
 23 47  1  0  0  0  0
 24 15  2  0  0  0  0
 24 48  1  0  0  0  0
 25 15  1  0  0  0  0
 25 49  1  0  0  0  0
 26 21  2  0  0  0  0
 26 50  1  0  0  0  0
 27 26  1  0  0  0  0
 27 51  1  0  0  0  0
 28 24  1  0  0  0  0
 28 52  1  0  0  0  0
 29 25  2  0  0  0  0
 29 53  1  0  0  0  0
 30 29  1  0  0  0  0
 30 28  2  0  0  0  0
 30 54  1  0  0  0  0
M  END
>  <Mol_ID>
9286

>  <Formula>
C23H24FN3O2S

>  <MolWeight>
425.5189632

>  <Cat>
P2644

>  <Name>
WAY-331985

>  <Synonyms>
N/A

>  <Target>
beta-catenin

>  <Form>
free base

>  <CAS>
902167-99-1

>  <URL>
N/A

$$$$
