WAY-344846
 OpenBabel08302521403D

 25 26  0  0  0  0  0  0  0  0999 V2000
   -0.1087   -1.2648   -0.0478 C   0  0  0  0  0  0  0  0  0  0  0  0
    1.1291   -0.6654    0.0876 N   0  0  0  0  0  0  0  0  0  0  0  0
   -0.4799   -2.7105   -0.0088 C   0  0  0  0  0  0  0  0  0  0  0  0
   -1.0054   -0.3173   -0.2523 N   0  0  0  0  0  0  0  0  0  0  0  0
    0.8906    0.6857    0.0099 C   0  0  0  0  0  0  0  0  0  0  0  0
   -0.3864    0.9013   -0.1862 N   0  0  0  0  0  0  0  0  0  0  0  0
   -1.6322   -3.2377   -0.5699 C   0  0  0  0  0  0  0  0  0  0  0  0
    0.1882   -3.8047    0.6003 C   0  0  0  0  0  0  0  0  0  0  0  0
   -1.6730   -4.5879   -0.3700 O   0  0  0  0  0  0  0  0  0  0  0  0
   -0.5719   -4.9204    0.3430 C   0  0  0  0  0  0  0  0  0  0  0  0
    2.0758    1.9422    0.1099 S   0  0  0  0  0  0  0  0  0  0  0  0
    2.4217   -1.3104    0.1293 C   0  0  0  0  0  0  0  0  0  0  0  0
   -2.7654   -2.6950   -1.3518 C   0  0  0  0  0  0  0  0  0  0  0  0
    3.0298   -1.5002   -1.2521 C   0  0  0  0  0  0  0  0  0  0  0  0
    1.0861   -3.8123    1.1977 H   0  0  0  0  0  0  0  0  0  0  0  0
   -0.4792   -5.9671    0.5989 H   0  0  0  0  0  0  0  0  0  0  0  0
    3.2029    1.2378   -0.0316 H   0  0  0  0  0  0  0  0  0  0  0  0
    3.0842   -0.7165    0.7656 H   0  0  0  0  0  0  0  0  0  0  0  0
    2.3322   -2.2717    0.6298 H   0  0  0  0  0  0  0  0  0  0  0  0
   -2.7582   -3.1187   -2.3614 H   0  0  0  0  0  0  0  0  0  0  0  0
   -3.7151   -2.9607   -0.8771 H   0  0  0  0  0  0  0  0  0  0  0  0
   -2.7329   -1.6086   -1.4493 H   0  0  0  0  0  0  0  0  0  0  0  0
    2.4284   -2.1867   -1.8573 H   0  0  0  0  0  0  0  0  0  0  0  0
    3.1015   -0.5527   -1.7960 H   0  0  0  0  0  0  0  0  0  0  0  0
    4.0382   -1.9175   -1.1673 H   0  0  0  0  0  0  0  0  0  0  0  0
  2  1  1  0  0  0  0
  3  1  1  0  0  0  0
  4  1  2  0  0  0  0
  5  2  1  0  0  0  0
  5  6  2  0  0  0  0
  6  4  1  0  0  0  0
  7  3  2  0  0  0  0
  8  3  1  0  0  0  0
  8 15  1  0  0  0  0
  9  7  1  0  0  0  0
 10  8  2  0  0  0  0
 10  9  1  0  0  0  0
 10 16  1  0  0  0  0
 11  5  1  0  0  0  0
 11 17  1  0  0  0  0
 12  2  1  0  0  0  0
 12 18  1  0  0  0  0
 12 19  1  0  0  0  0
 13  7  1  0  0  0  0
 13 20  1  0  0  0  0
 13 21  1  0  0  0  0
 13 22  1  0  0  0  0
 14 12  1  0  0  0  0
 14 23  1  0  0  0  0
 14 24  1  0  0  0  0
 14 25  1  0  0  0  0
M  END
>  <Mol_ID>
8297

>  <Formula>
C9H11N3OS

>  <MolWeight>
209.26814

>  <Cat>
P2740

>  <Name>
WAY-344846

>  <Synonyms>
N/A

>  <Target>
MtSk

>  <Form>
free base

>  <CAS>
438230-35-4

>  <URL>
N/A

$$$$
