WAY-301544
 OpenBabel08302521413D

 41 43  0  0  0  0  0  0  0  0999 V2000
    0.3684    0.6923   -0.0079 C   0  0  0  0  0  0  0  0  0  0  0  0
    1.6881    1.0755    0.0182 N   0  0  0  0  0  0  0  0  0  0  0  0
    0.3935   -0.6702   -0.1162 C   0  0  0  0  0  0  0  0  0  0  0  0
   -0.8441    1.4285    0.1032 C   0  0  0  0  0  0  0  0  0  0  0  0
    2.4312   -0.0770   -0.1649 C   0  0  0  0  0  0  0  0  0  0  0  0
    2.1588    2.3973    0.3923 C   0  0  0  0  0  0  0  0  0  0  0  0
    1.6654   -1.1496   -0.2275 N   0  0  0  0  0  0  0  0  0  0  0  0
   -0.7678   -1.4187   -0.0757 N   0  0  0  0  0  0  0  0  0  0  0  0
   -1.9591    0.6219    0.0724 N   0  0  0  0  0  0  0  0  0  0  0  0
   -0.9238    2.6447    0.2224 O   0  0  0  0  0  0  0  0  0  0  0  0
    4.1660   -0.0685   -0.2642 S   0  0  0  0  0  0  0  0  0  0  0  0
    2.2095    3.4367   -0.7281 C   0  0  0  0  0  0  0  0  0  0  0  0
   -1.9909   -0.7589    0.0303 C   0  0  0  0  0  0  0  0  0  0  0  0
   -0.7194   -2.8673   -0.0690 C   0  0  0  0  0  0  0  0  0  0  0  0
    4.5571   -1.7894   -0.7016 C   0  0  0  0  0  0  0  0  0  0  0  0
    3.2416    3.1414   -1.8036 C   0  0  0  0  0  0  0  0  0  0  0  0
   -3.0794   -1.3320    0.0982 O   0  0  0  0  0  0  0  0  0  0  0  0
    6.0499   -1.9950   -0.8808 C   0  0  0  0  0  0  0  0  0  0  0  0
    6.8611   -2.3380    0.2135 C   0  0  0  0  0  0  0  0  0  0  0  0
    6.6579   -1.8294   -2.1362 C   0  0  0  0  0  0  0  0  0  0  0  0
    8.2398   -2.5136    0.0562 C   0  0  0  0  0  0  0  0  0  0  0  0
    8.0377   -2.0061   -2.2886 C   0  0  0  0  0  0  0  0  0  0  0  0
    8.8292   -2.3471   -1.1945 C   0  0  0  0  0  0  0  0  0  0  0  0
    1.4831    2.7580    1.1783 H   0  0  0  0  0  0  0  0  0  0  0  0
    3.1355    2.3004    0.8760 H   0  0  0  0  0  0  0  0  0  0  0  0
   -2.8540    1.0798    0.1544 H   0  0  0  0  0  0  0  0  0  0  0  0
    1.2264    3.5551   -1.1968 H   0  0  0  0  0  0  0  0  0  0  0  0
    2.4596    4.4036   -0.2735 H   0  0  0  0  0  0  0  0  0  0  0  0
   -0.1797   -3.2161   -0.9536 H   0  0  0  0  0  0  0  0  0  0  0  0
   -0.2007   -3.1984    0.8366 H   0  0  0  0  0  0  0  0  0  0  0  0
   -1.7219   -3.3050   -0.0716 H   0  0  0  0  0  0  0  0  0  0  0  0
    4.1922   -2.4580    0.0862 H   0  0  0  0  0  0  0  0  0  0  0  0
    4.0378   -2.0679   -1.6259 H   0  0  0  0  0  0  0  0  0  0  0  0
    2.9042    2.3343   -2.4604 H   0  0  0  0  0  0  0  0  0  0  0  0
    3.4021    4.0308   -2.4221 H   0  0  0  0  0  0  0  0  0  0  0  0
    4.2060    2.8643   -1.3685 H   0  0  0  0  0  0  0  0  0  0  0  0
    6.4226   -2.4717    1.1996 H   0  0  0  0  0  0  0  0  0  0  0  0
    6.0615   -1.5626   -3.0054 H   0  0  0  0  0  0  0  0  0  0  0  0
    8.8550   -2.7797    0.9120 H   0  0  0  0  0  0  0  0  0  0  0  0
    8.4973   -1.8759   -3.2684 H   0  0  0  0  0  0  0  0  0  0  0  0
    9.9010   -2.4792   -1.3165 H   0  0  0  0  0  0  0  0  0  0  0  0
  1  2  1  0  0  0  0
  1  3  2  0  0  0  0
  1  4  1  0  0  0  0
  2  5  1  0  0  0  0
  2  6  1  0  0  0  0
  3  7  1  0  0  0  0
  3  8  1  0  0  0  0
  4  9  1  0  0  0  0
  4 10  2  0  0  0  0
  5 11  1  0  0  0  0
  5  7  2  0  0  0  0
  6 12  1  0  0  0  0
  6 24  1  0  0  0  0
  6 25  1  0  0  0  0
  8 13  1  0  0  0  0
  8 14  1  0  0  0  0
  9 13  1  0  0  0  0
  9 26  1  0  0  0  0
 11 15  1  0  0  0  0
 12 16  1  0  0  0  0
 12 27  1  0  0  0  0
 12 28  1  0  0  0  0
 13 17  2  0  0  0  0
 14 29  1  0  0  0  0
 14 30  1  0  0  0  0
 14 31  1  0  0  0  0
 15 18  1  0  0  0  0
 15 32  1  0  0  0  0
 15 33  1  0  0  0  0
 16 34  1  0  0  0  0
 16 35  1  0  0  0  0
 16 36  1  0  0  0  0
 18 19  2  0  0  0  0
 18 20  1  0  0  0  0
 19 21  1  0  0  0  0
 19 37  1  0  0  0  0
 20 22  2  0  0  0  0
 20 38  1  0  0  0  0
 21 23  2  0  0  0  0
 21 39  1  0  0  0  0
 22 23  1  0  0  0  0
 22 40  1  0  0  0  0
 23 41  1  0  0  0  0
M  END
>  <Mol_ID>
8442

>  <Formula>
C16H18N4O2S

>  <MolWeight>
330.40472

>  <Cat>
P2175

>  <Name>
WAY-301544

>  <Synonyms>
N/A

>  <Target>
LSD1

>  <Form>
free base

>  <CAS>
189149-65-3

>  <URL>
N/A

$$$$
