WAY-607882
 OpenBabel08302521443D

 58 62  0  0  0  0  0  0  0  0999 V2000
    2.1425    0.6648    0.4089 N   0  0  0  0  0  0  0  0  0  0  0  0
    1.0371    1.4996    0.4320 N   0  0  0  0  0  0  0  0  0  0  0  0
    0.0017    0.7552    0.1803 C   0  0  0  0  0  0  0  0  0  0  0  0
    0.3357   -0.6621   -0.2446 C   0  0  3  0  0  0  0  0  0  0  0  0
    1.7916   -0.7548    0.2338 C   0  0  3  0  0  0  0  0  0  0  0  0
    3.4569    1.1255    0.3991 C   0  0  0  0  0  0  0  0  0  0  0  0
   -1.4365    1.1733    0.1635 C   0  0  0  0  0  0  0  0  0  0  0  0
    6.3638    3.8756    2.4953 C   0  0  0  0  0  0  0  0  0  0  0  0
    5.0365    3.3132    2.1150 C   0  0  0  0  0  0  0  0  0  0  0  0
   -1.7756    2.3907   -0.3015 C   0  0  0  0  0  0  0  0  0  0  0  0
    2.0790   -1.6126    1.4597 C   0  0  0  0  0  0  0  0  0  0  0  0
    7.2680    4.2004    1.5294 N   0  0  0  0  0  0  0  0  0  0  0  0
    4.9228    3.1307    0.7747 O   0  0  0  0  0  0  0  0  0  0  0  0
    3.6430    2.6501    0.3392 C   0  0  0  0  0  0  0  0  0  0  0  0
    4.4220    0.3575    0.3500 O   0  0  0  0  0  0  0  0  0  0  0  0
    4.1618    3.0710    2.9372 O   0  0  0  0  0  0  0  0  0  0  0  0
    7.8380    4.5295    4.2948 N   0  0  0  0  0  0  0  0  0  0  0  0
   -3.1609    2.8760   -0.4228 C   0  0  0  0  0  0  0  0  0  0  0  0
    2.8944   -2.7534    1.3247 C   0  0  0  0  0  0  0  0  0  0  0  0
    1.5552   -1.3172    2.7311 C   0  0  0  0  0  0  0  0  0  0  0  0
   -0.6890   -1.7052    0.1826 C   0  0  0  0  0  0  0  0  0  0  0  0
    6.6435    4.0554    3.8436 C   0  0  0  0  0  0  0  0  0  0  0  0
    2.6235   -3.2791    3.6547 C   0  0  0  0  0  0  0  0  0  0  0  0
   -5.7960    3.7933   -0.6402 C   0  0  0  0  0  0  0  0  0  0  0  0
   -2.3894    0.0983    0.6140 C   0  0  0  0  0  0  0  0  0  0  0  0
    1.8206   -2.1564    3.8208 C   0  0  0  0  0  0  0  0  0  0  0  0
    3.1681   -3.5825    2.4144 C   0  0  0  0  0  0  0  0  0  0  0  0
   -7.0532    4.2361   -0.7461 F   0  0  0  0  0  0  0  0  0  0  0  0
    2.8753   -4.0744    4.7024 F   0  0  0  0  0  0  0  0  0  0  0  0
   -3.7492    3.6048    0.6208 C   0  0  0  0  0  0  0  0  0  0  0  0
   -3.9163    2.6045   -1.5745 C   0  0  0  0  0  0  0  0  0  0  0  0
   -5.0651    4.0643    0.5120 C   0  0  0  0  0  0  0  0  0  0  0  0
   -5.2320    3.0651   -1.6821 C   0  0  0  0  0  0  0  0  0  0  0  0
   -2.1103   -1.2172   -0.1145 C   0  0  0  0  0  0  0  0  0  0  0  0
    8.4577    4.6706    1.9831 C   0  0  0  0  0  0  0  0  0  0  0  0
    8.7420    4.8206    3.3301 C   0  0  0  0  0  0  0  0  0  0  0  0
    0.3435   -0.6263   -1.3451 H   0  0  0  0  0  0  0  0  0  0  0  0
    2.4057   -1.1331   -0.5956 H   0  0  0  0  0  0  0  0  0  0  0  0
   -1.0141    3.0960   -0.6303 H   0  0  0  0  0  0  0  0  0  0  0  0
    3.5674    2.9203   -0.7205 H   0  0  0  0  0  0  0  0  0  0  0  0
    2.8416    3.1830    0.8603 H   0  0  0  0  0  0  0  0  0  0  0  0
    3.3428   -3.0003    0.3618 H   0  0  0  0  0  0  0  0  0  0  0  0
    0.9355   -0.4392    2.8853 H   0  0  0  0  0  0  0  0  0  0  0  0
   -0.6294   -1.9322    1.2506 H   0  0  0  0  0  0  0  0  0  0  0  0
   -0.5054   -2.6429   -0.3550 H   0  0  0  0  0  0  0  0  0  0  0  0
    5.9196    3.8203    4.6166 H   0  0  0  0  0  0  0  0  0  0  0  0
   -3.4352    0.3761    0.4491 H   0  0  0  0  0  0  0  0  0  0  0  0
   -2.2739   -0.0444    1.6964 H   0  0  0  0  0  0  0  0  0  0  0  0
    1.4113   -1.9392    4.8026 H   0  0  0  0  0  0  0  0  0  0  0  0
    3.8052   -4.4561    2.3053 H   0  0  0  0  0  0  0  0  0  0  0  0
   -3.1866    3.8197    1.5264 H   0  0  0  0  0  0  0  0  0  0  0  0
   -3.4865    2.0344   -2.3946 H   0  0  0  0  0  0  0  0  0  0  0  0
   -5.5249    4.6321    1.3155 H   0  0  0  0  0  0  0  0  0  0  0  0
   -5.8223    2.8642   -2.5715 H   0  0  0  0  0  0  0  0  0  0  0  0
   -2.8348   -1.9746    0.2043 H   0  0  0  0  0  0  0  0  0  0  0  0
   -2.2414   -1.0808   -1.1957 H   0  0  0  0  0  0  0  0  0  0  0  0
    9.1908    4.9228    1.2255 H   0  0  0  0  0  0  0  0  0  0  0  0
    9.7059    5.1775    3.6755 H   0  0  0  0  0  0  0  0  0  0  0  0
  2  1  1  0  0  0  0
  3  2  2  0  0  0  0
  3  4  1  0  0  0  0
  4  5  1  0  0  0  0
  4 37  1  0  0  0  0
  5  1  1  0  0  0  0
  5 38  1  0  0  0  0
  6  1  1  0  0  0  0
  7  3  1  0  0  0  0
  8  9  1  0  0  0  0
  9 13  1  0  0  0  0
 10  7  2  0  0  0  0
 10 39  1  0  0  0  0
 11  5  1  0  0  0  0
 12  8  2  0  0  0  0
 13 14  1  0  0  0  0
 14  6  1  0  0  0  0
 14 40  1  0  0  0  0
 14 41  1  0  0  0  0
 15  6  2  0  0  0  0
 16  9  2  0  0  0  0
 17 22  2  0  0  0  0
 18 10  1  0  0  0  0
 19 11  2  0  0  0  0
 19 42  1  0  0  0  0
 20 11  1  0  0  0  0
 20 43  1  0  0  0  0
 21  4  1  0  0  0  0
 21 44  1  0  0  0  0
 21 45  1  0  0  0  0
 22  8  1  0  0  0  0
 22 46  1  0  0  0  0
 23 26  1  0  0  0  0
 23 27  2  0  0  0  0
 24 33  2  0  0  0  0
 25  7  1  0  0  0  0
 25 47  1  0  0  0  0
 25 48  1  0  0  0  0
 26 20  2  0  0  0  0
 26 49  1  0  0  0  0
 27 19  1  0  0  0  0
 27 50  1  0  0  0  0
 28 24  1  0  0  0  0
 29 23  1  0  0  0  0
 30 18  1  0  0  0  0
 30 51  1  0  0  0  0
 31 18  2  0  0  0  0
 31 52  1  0  0  0  0
 32 30  2  0  0  0  0
 32 24  1  0  0  0  0
 32 53  1  0  0  0  0
 33 31  1  0  0  0  0
 33 54  1  0  0  0  0
 34 21  1  0  0  0  0
 34 25  1  0  0  0  0
 34 55  1  0  0  0  0
 34 56  1  0  0  0  0
 35 12  1  0  0  0  0
 35 57  1  0  0  0  0
 36 17  1  0  0  0  0
 36 35  2  0  0  0  0
 36 58  1  0  0  0  0
M  END
>  <Mol_ID>
9022

>  <Formula>
C27H22F2N4O3

>  <MolWeight>
488.4853864

>  <Cat>
P2902

>  <Name>
WAY-607882

>  <Synonyms>
N/A

>  <Target>
retroviral

>  <Form>
free base

>  <CAS>
455300-59-1

>  <URL>
N/A

$$$$
