WAY-656522
 OpenBabel08302521423D

 35 37  0  0  0  0  0  0  0  0999 V2000
    1.2680   -1.4155    0.1766 C   0  0  0  0  0  0  0  0  0  0  0  0
    2.4336   -0.7358    0.1420 N   0  0  0  0  0  0  0  0  0  0  0  0
    0.0078   -0.7918    0.0950 C   0  0  0  0  0  0  0  0  0  0  0  0
    1.2028    1.2908   -0.0273 N   0  0  0  0  0  0  0  0  0  0  0  0
    2.3482    0.5971    0.0230 C   0  0  0  0  0  0  0  0  0  0  0  0
    0.0567    0.6045    0.0043 C   0  0  0  0  0  0  0  0  0  0  0  0
    1.4103   -3.2072    0.3268 S   0  0  0  0  0  0  0  0  0  0  0  0
    3.6408   -4.8670    0.5301 C   0  0  0  0  0  0  0  0  0  0  0  0
    3.2202   -3.4055    0.4287 C   0  0  0  0  0  0  0  0  0  0  0  0
    2.9263   -5.8056    0.1809 O   0  0  0  0  0  0  0  0  0  0  0  0
    5.0300   -5.1732    1.0130 C   0  0  0  0  0  0  0  0  0  0  0  0
   -1.2626   -1.4324    0.0910 C   0  0  0  0  0  0  0  0  0  0  0  0
    3.6204    1.3799   -0.0774 C   0  0  0  0  0  0  0  0  0  0  0  0
   -1.1350    1.3194   -0.0688 C   0  0  0  0  0  0  0  0  0  0  0  0
    5.9608   -4.1721    1.3226 C   0  0  0  0  0  0  0  0  0  0  0  0
    5.4201   -6.5175    1.1278 C   0  0  0  0  0  0  0  0  0  0  0  0
   -2.4416   -0.6969   -0.0039 C   0  0  0  0  0  0  0  0  0  0  0  0
   -2.3796    0.6848   -0.0776 C   0  0  0  0  0  0  0  0  0  0  0  0
    6.7185   -6.8522    1.5235 C   0  0  0  0  0  0  0  0  0  0  0  0
    7.2593   -4.5113    1.7198 C   0  0  0  0  0  0  0  0  0  0  0  0
    7.6392   -5.8485    1.8118 C   0  0  0  0  0  0  0  0  0  0  0  0
    3.6840   -2.9891   -0.4715 H   0  0  0  0  0  0  0  0  0  0  0  0
    3.5515   -2.8687    1.3214 H   0  0  0  0  0  0  0  0  0  0  0  0
   -1.3342   -2.5178    0.1493 H   0  0  0  0  0  0  0  0  0  0  0  0
    3.5955    2.0146   -0.9692 H   0  0  0  0  0  0  0  0  0  0  0  0
    3.7396    2.0164    0.8043 H   0  0  0  0  0  0  0  0  0  0  0  0
    4.4871    0.7171   -0.1522 H   0  0  0  0  0  0  0  0  0  0  0  0
   -1.0927    2.4040   -0.1298 H   0  0  0  0  0  0  0  0  0  0  0  0
    5.7155   -3.1169    1.2565 H   0  0  0  0  0  0  0  0  0  0  0  0
    4.7158   -7.3162    0.8998 H   0  0  0  0  0  0  0  0  0  0  0  0
   -3.4050   -1.2052   -0.0199 H   0  0  0  0  0  0  0  0  0  0  0  0
   -3.2899    1.2762   -0.1493 H   0  0  0  0  0  0  0  0  0  0  0  0
    7.0114   -7.8972    1.5982 H   0  0  0  0  0  0  0  0  0  0  0  0
    7.9784   -3.7283    1.9496 H   0  0  0  0  0  0  0  0  0  0  0  0
    8.6541   -6.1076    2.1060 H   0  0  0  0  0  0  0  0  0  0  0  0
  2  1  2  0  0  0  0
  3  1  1  0  0  0  0
  4  6  1  0  0  0  0
  4  5  2  0  0  0  0
  5  2  1  0  0  0  0
  6  3  2  0  0  0  0
  7  1  1  0  0  0  0
  8  9  1  0  0  0  0
  9  7  1  0  0  0  0
  9 22  1  0  0  0  0
  9 23  1  0  0  0  0
 10  8  2  0  0  0  0
 11  8  1  0  0  0  0
 12  3  1  0  0  0  0
 12 24  1  0  0  0  0
 13  5  1  0  0  0  0
 13 25  1  0  0  0  0
 13 26  1  0  0  0  0
 13 27  1  0  0  0  0
 14  6  1  0  0  0  0
 14 28  1  0  0  0  0
 15 11  2  0  0  0  0
 15 29  1  0  0  0  0
 16 11  1  0  0  0  0
 16 30  1  0  0  0  0
 17 12  2  0  0  0  0
 17 31  1  0  0  0  0
 18 17  1  0  0  0  0
 18 14  2  0  0  0  0
 18 32  1  0  0  0  0
 19 16  2  0  0  0  0
 19 33  1  0  0  0  0
 20 15  1  0  0  0  0
 20 34  1  0  0  0  0
 21 19  1  0  0  0  0
 21 20  2  0  0  0  0
 21 35  1  0  0  0  0
M  END
>  <Mol_ID>
8531

>  <Formula>
C17H14N2OS

>  <MolWeight>
294.37086

>  <Cat>
P3142

>  <Name>
WAY-656522

>  <Synonyms>
N/A

>  <Target>
others

>  <Form>
free base

>  <CAS>
852831-10-8

>  <URL>
N/A

$$$$
