WAY-600.cdx
 OpenBabel08302521423D

 67 73  0  0  0  0  0  0  0  0999 V2000
    0.4946    0.7364    1.3231 C   0  0  0  0  0  0  0  0  0  0  0  0
   -0.4100    0.7127    0.2691 C   0  0  0  0  0  0  0  0  0  0  0  0
   -0.1242    0.0173   -0.9200 C   0  0  0  0  0  0  0  0  0  0  0  0
    1.1071   -0.6923   -1.0119 C   0  0  0  0  0  0  0  0  0  0  0  0
    2.0856   -0.7195    0.0062 C   0  0  0  0  0  0  0  0  0  0  0  0
    1.7419    0.0424    1.1693 C   0  0  0  0  0  0  0  0  0  0  0  0
    3.4139   -1.4998   -0.1159 C   0  0  0  0  0  0  0  0  0  0  0  0
    3.6233   -2.3223   -1.2028 N   0  0  0  0  0  0  0  0  0  0  0  0
    4.8408   -2.9495   -1.1784 C   0  0  0  0  0  0  0  0  0  0  0  0
    5.8061   -2.7690   -0.1913 C   0  0  0  0  0  0  0  0  0  0  0  0
    5.5395   -1.9060    0.8831 C   0  0  0  0  0  0  0  0  0  0  0  0
    4.3075   -1.3087    0.9016 N   0  0  0  0  0  0  0  0  0  0  0  0
   -0.1297    1.5047    2.3623 C   0  0  0  0  0  0  0  0  0  0  0  0
   -1.3753    1.9193    1.9276 C   0  0  0  0  0  0  0  0  0  0  0  0
   -1.5171    1.4515    0.6431 N   0  0  0  0  0  0  0  0  0  0  0  0
    5.4179   -3.8855   -2.0600 N   0  0  0  0  0  0  0  0  0  0  0  0
    6.6553   -4.2833   -1.6722 N   0  0  0  0  0  0  0  0  0  0  0  0
    6.8713   -3.6177   -0.5470 C   0  0  0  0  0  0  0  0  0  0  0  0
    6.4501   -1.6789    1.8940 N   0  0  0  0  0  0  0  0  0  0  0  0
    6.0164   -1.5725    3.2867 C   0  0  0  0  0  0  0  0  0  0  0  0
    6.5993   -0.2919    3.9013 C   0  0  0  0  0  0  0  0  0  0  0  0
    8.0348   -0.2534    3.7786 O   0  0  0  0  0  0  0  0  0  0  0  0
    8.4170   -0.2942    2.3937 C   0  0  0  0  0  0  0  0  0  0  0  0
    7.9044   -1.5725    1.7043 C   0  0  0  0  0  0  0  0  0  0  0  0
    4.9057   -4.4902   -3.2950 C   0  0  0  0  0  0  0  0  0  0  0  0
    4.2597   -5.8631   -3.0739 C   0  0  0  0  0  0  0  0  0  0  0  0
    5.2627   -7.0147   -2.8990 C   0  0  0  0  0  0  0  0  0  0  0  0
    6.2231   -7.1640   -4.0030 N   0  0  0  0  0  0  0  0  0  0  0  0
    6.8841   -5.8793   -4.3185 C   0  0  0  0  0  0  0  0  0  0  0  0
    5.9485   -4.6519   -4.4347 C   0  0  0  0  0  0  0  0  0  0  0  0
    7.2638   -8.1797   -3.6495 C   0  0  0  0  0  0  0  0  0  0  0  0
    6.7696   -9.5995   -3.4419 C   0  0  0  0  0  0  0  0  0  0  0  0
    6.8732  -10.2517   -2.2043 C   0  0  0  0  0  0  0  0  0  0  0  0
    6.4236  -11.5663   -2.0618 C   0  0  0  0  0  0  0  0  0  0  0  0
    5.8903  -12.2001   -3.1700 C   0  0  0  0  0  0  0  0  0  0  0  0
    5.7964  -11.6214   -4.3849 N   0  0  0  0  0  0  0  0  0  0  0  0
    6.2380  -10.3415   -4.4916 C   0  0  0  0  0  0  0  0  0  0  0  0
   -0.8349    0.0189   -1.7403 H   0  0  0  0  0  0  0  0  0  0  0  0
    1.2887   -1.2342   -1.9392 H   0  0  0  0  0  0  0  0  0  0  0  0
    2.4426    0.1088    1.9968 H   0  0  0  0  0  0  0  0  0  0  0  0
    0.2716    1.7230    3.3432 H   0  0  0  0  0  0  0  0  0  0  0  0
   -2.1563    2.4939    2.4058 H   0  0  0  0  0  0  0  0  0  0  0  0
   -2.3306    1.6095    0.0627 H   0  0  0  0  0  0  0  0  0  0  0  0
    7.8037   -3.7875   -0.0253 H   0  0  0  0  0  0  0  0  0  0  0  0
    6.4214   -2.4377    3.8310 H   0  0  0  0  0  0  0  0  0  0  0  0
    4.9291   -1.5964    3.4018 H   0  0  0  0  0  0  0  0  0  0  0  0
    6.1786    0.5979    3.4200 H   0  0  0  0  0  0  0  0  0  0  0  0
    6.3625   -0.2479    4.9684 H   0  0  0  0  0  0  0  0  0  0  0  0
    9.5107   -0.2536    2.3486 H   0  0  0  0  0  0  0  0  0  0  0  0
    8.0299    0.5997    1.8906 H   0  0  0  0  0  0  0  0  0  0  0  0
    8.3896   -2.4443    2.1639 H   0  0  0  0  0  0  0  0  0  0  0  0
    8.1982   -1.5333    0.6507 H   0  0  0  0  0  0  0  0  0  0  0  0
    4.1411   -3.7853   -3.6427 H   0  0  0  0  0  0  0  0  0  0  0  0
    3.5942   -5.8372   -2.2048 H   0  0  0  0  0  0  0  0  0  0  0  0
    3.6327   -6.0882   -3.9479 H   0  0  0  0  0  0  0  0  0  0  0  0
    5.7834   -6.9080   -1.9413 H   0  0  0  0  0  0  0  0  0  0  0  0
    4.6708   -7.9367   -2.8432 H   0  0  0  0  0  0  0  0  0  0  0  0
    7.3826   -5.9960   -5.2926 H   0  0  0  0  0  0  0  0  0  0  0  0
    7.6857   -5.6621   -3.6032 H   0  0  0  0  0  0  0  0  0  0  0  0
    5.3967   -4.7510   -5.3799 H   0  0  0  0  0  0  0  0  0  0  0  0
    6.5603   -3.7459   -4.5323 H   0  0  0  0  0  0  0  0  0  0  0  0
    8.0194   -8.2272   -4.4466 H   0  0  0  0  0  0  0  0  0  0  0  0
    7.8058   -7.8587   -2.7483 H   0  0  0  0  0  0  0  0  0  0  0  0
    7.3087   -9.7489   -1.3445 H   0  0  0  0  0  0  0  0  0  0  0  0
    6.4889  -12.0849   -1.1110 H   0  0  0  0  0  0  0  0  0  0  0  0
    5.5176  -13.2200   -3.1091 H   0  0  0  0  0  0  0  0  0  0  0  0
    6.1588   -9.9190   -5.4893 H   0  0  0  0  0  0  0  0  0  0  0  0
  1  2  1  0  0  0  0
  1 13  1  0  0  0  0
  2  3  2  0  0  0  0
  3  4  1  0  0  0  0
  3 38  1  0  0  0  0
  4  5  2  0  0  0  0
  4 39  1  0  0  0  0
  5  6  1  0  0  0  0
  5  7  1  0  0  0  0
  6  1  2  0  0  0  0
  6 40  1  0  0  0  0
  7  8  2  0  0  0  0
  8  9  1  0  0  0  0
  9 10  2  0  0  0  0
  9 16  1  0  0  0  0
 10 11  1  0  0  0  0
 11 12  2  0  0  0  0
 11 19  1  0  0  0  0
 12  7  1  0  0  0  0
 13 14  2  0  0  0  0
 13 41  1  0  0  0  0
 14 15  1  0  0  0  0
 14 42  1  0  0  0  0
 15  2  1  0  0  0  0
 15 43  1  0  0  0  0
 16 17  1  0  0  0  0
 16 25  1  0  0  0  0
 17 18  2  0  0  0  0
 18 10  1  0  0  0  0
 18 44  1  0  0  0  0
 19 20  1  0  0  0  0
 20 21  1  0  0  0  0
 20 45  1  0  0  0  0
 20 46  1  0  0  0  0
 21 22  1  0  0  0  0
 21 47  1  0  0  0  0
 21 48  1  0  0  0  0
 22 23  1  0  0  0  0
 23 24  1  0  0  0  0
 23 49  1  0  0  0  0
 23 50  1  0  0  0  0
 24 19  1  0  0  0  0
 24 51  1  0  0  0  0
 24 52  1  0  0  0  0
 25 26  1  0  0  0  0
 25 53  1  0  0  0  0
 26 27  1  0  0  0  0
 26 54  1  0  0  0  0
 26 55  1  0  0  0  0
 27 28  1  0  0  0  0
 27 56  1  0  0  0  0
 27 57  1  0  0  0  0
 28 29  1  0  0  0  0
 28 31  1  0  0  0  0
 29 30  1  0  0  0  0
 29 58  1  0  0  0  0
 29 59  1  0  0  0  0
 30 25  1  0  0  0  0
 30 60  1  0  0  0  0
 30 61  1  0  0  0  0
 31 32  1  0  0  0  0
 31 62  1  0  0  0  0
 31 63  1  0  0  0  0
 32 33  2  0  0  0  0
 33 34  1  0  0  0  0
 33 64  1  0  0  0  0
 34 35  2  0  0  0  0
 34 65  1  0  0  0  0
 35 36  1  0  0  0  0
 35 66  1  0  0  0  0
 36 37  2  0  0  0  0
 37 32  1  0  0  0  0
 37 67  1  0  0  0  0
M  END
>  <Mol_ID>
846

>  <Formula>
C28H30N8O

>  <MolWeight>
494.5908

>  <Cat>
S2689

>  <Name>
WAY-600

>  <Synonyms>
N/A

>  <Target>
mTOR

>  <Form>
free base

>  <CAS>
1062159-35-6

>  <URL>
http://selleckchem.com/products/way-600.html

$$$$
