WAY-620628
 OpenBabel08302521443D

 27 28  0  0  0  0  0  0  0  0999 V2000
   -1.4448   -0.6530    0.0828 C   0  0  0  0  0  0  0  0  0  0  0  0
   -1.3354    0.6789    0.1107 N   0  0  0  0  0  0  0  0  0  0  0  0
   -0.1578   -1.2470    0.0332 C   0  0  0  0  0  0  0  0  0  0  0  0
   -2.6406   -1.3569    0.1003 N   0  0  0  0  0  0  0  0  0  0  0  0
    0.0077    0.9685    0.0871 O   0  0  0  0  0  0  0  0  0  0  0  0
    0.7165   -0.1857    0.0438 C   0  0  0  0  0  0  0  0  0  0  0  0
   -3.8827   -0.7376    0.1599 C   0  0  0  0  0  0  0  0  0  0  0  0
    2.1805   -0.0330    0.0243 C   0  0  0  0  0  0  0  0  0  0  0  0
   -5.0371   -1.7363    0.1608 C   0  0  0  0  0  0  0  0  0  0  0  0
   -4.0651    0.4766    0.2056 O   0  0  0  0  0  0  0  0  0  0  0  0
   -6.6402   -0.8772    0.2749 S   0  0  0  0  0  0  0  0  0  0  0  0
   -7.7330   -2.2031    0.2611 C   0  0  0  0  0  0  0  0  0  0  0  0
   -9.0904   -2.0842    0.3310 N   0  0  0  0  0  0  0  0  0  0  0  0
   -7.4237   -3.4765    0.1825 N   0  0  0  0  0  0  0  0  0  0  0  0
   -9.6430   -3.3115    0.2820 N   0  0  0  0  0  0  0  0  0  0  0  0
   -9.9370   -0.9311    0.4577 C   0  0  0  0  0  0  0  0  0  0  0  0
   -8.6202   -4.1522    0.1954 N   0  0  0  0  0  0  0  0  0  0  0  0
    0.1020   -2.2940    0.0004 H   0  0  0  0  0  0  0  0  0  0  0  0
   -2.5756   -2.3644    0.0739 H   0  0  0  0  0  0  0  0  0  0  0  0
    2.4930    0.5444   -0.8517 H   0  0  0  0  0  0  0  0  0  0  0  0
    2.5188    0.4977    0.9203 H   0  0  0  0  0  0  0  0  0  0  0  0
    2.6813   -1.0042   -0.0079 H   0  0  0  0  0  0  0  0  0  0  0  0
   -4.9981   -2.3178   -0.7666 H   0  0  0  0  0  0  0  0  0  0  0  0
   -4.9218   -2.4075    1.0184 H   0  0  0  0  0  0  0  0  0  0  0  0
  -10.5918   -0.8839   -0.4165 H   0  0  0  0  0  0  0  0  0  0  0  0
  -10.5340   -1.0413    1.3672 H   0  0  0  0  0  0  0  0  0  0  0  0
   -9.3474   -0.0155    0.5219 H   0  0  0  0  0  0  0  0  0  0  0  0
  1  2  2  0  0  0  0
  1  3  1  0  0  0  0
  1  4  1  0  0  0  0
  2  5  1  0  0  0  0
  3  6  2  0  0  0  0
  3 18  1  0  0  0  0
  4  7  1  0  0  0  0
  4 19  1  0  0  0  0
  5  6  1  0  0  0  0
  6  8  1  0  0  0  0
  7  9  1  0  0  0  0
  7 10  2  0  0  0  0
  8 20  1  0  0  0  0
  8 21  1  0  0  0  0
  8 22  1  0  0  0  0
  9 11  1  0  0  0  0
  9 23  1  0  0  0  0
  9 24  1  0  0  0  0
 11 12  1  0  0  0  0
 12 13  1  0  0  0  0
 12 14  2  0  0  0  0
 13 15  1  0  0  0  0
 13 16  1  0  0  0  0
 14 17  1  0  0  0  0
 15 17  2  0  0  0  0
 16 25  1  0  0  0  0
 16 26  1  0  0  0  0
 16 27  1  0  0  0  0
M  END
>  <Mol_ID>
9017

>  <Formula>
C8H10N6O2S

>  <MolWeight>
254.269

>  <Cat>
P2952

>  <Name>
WAY-620628

>  <Synonyms>
N/A

>  <Target>
DNA synthesis

>  <Form>
free base

>  <CAS>
486408-45-1

>  <URL>
N/A

$$$$
