WAY-332050
 OpenBabel08302521443D

 49 51  0  0  0  0  0  0  0  0999 V2000
   -0.9637    0.6204    0.9773 N   0  0  0  0  0  0  0  0  0  0  0  0
   -0.2064    1.1836   -0.0316 C   0  0  0  0  0  0  0  0  0  0  0  0
   -0.9550   -0.6737    0.7136 C   0  0  0  0  0  0  0  0  0  0  0  0
   -0.2334   -1.0027   -0.4044 O   0  0  0  0  0  0  0  0  0  0  0  0
    0.2363    0.1880   -0.8769 C   0  0  0  0  0  0  0  0  0  0  0  0
   -0.6963    3.3708   -1.6359 S   0  0  3  0  0  0  0  0  0  0  0  0
   -0.0194    2.6520   -0.1046 C   0  0  0  0  0  0  0  0  0  0  0  0
   -3.3065    3.3305   -2.5297 C   0  0  0  0  0  0  0  0  0  0  0  0
   -2.4287    2.8882   -1.3741 C   0  0  0  0  0  0  0  0  0  0  0  0
   -1.6514   -1.7665    1.3862 C   0  0  0  0  0  0  0  0  0  0  0  0
   -4.6192    3.5754   -2.1622 N   0  0  0  0  0  0  0  0  0  0  0  0
   -0.6020    4.8632   -1.4904 O   0  0  0  0  0  0  0  0  0  0  0  0
   -2.9183    3.3998   -3.6915 O   0  0  0  0  0  0  0  0  0  0  0  0
   -2.4384   -1.5067    2.5185 C   0  0  0  0  0  0  0  0  0  0  0  0
   -1.5893   -3.0807    0.9057 C   0  0  0  0  0  0  0  0  0  0  0  0
   -2.3155   -4.1060    1.5192 C   0  0  0  0  0  0  0  0  0  0  0  0
   -3.1638   -2.5305    3.1354 C   0  0  0  0  0  0  0  0  0  0  0  0
   -3.1168   -3.8356    2.6327 C   0  0  0  0  0  0  0  0  0  0  0  0
   -5.5533    4.2175   -3.0653 C   0  0  0  0  0  0  0  0  0  0  0  0
    1.0093    0.1406   -2.1291 C   0  0  0  0  0  0  0  0  0  0  0  0
   -3.9336   -4.9207    3.2696 C   0  0  0  0  0  0  0  0  0  0  0  0
   -5.5779    5.7337   -2.8758 C   0  0  0  0  0  0  0  0  0  0  0  0
   -6.9999    3.8280   -2.7857 C   0  0  0  0  0  0  0  0  0  0  0  0
   -6.9390    6.1778   -3.4076 C   0  0  0  0  0  0  0  0  0  0  0  0
   -7.8050    4.9204   -3.4766 C   0  0  0  0  0  0  0  0  0  0  0  0
   -0.4947    3.1516    0.7463 H   0  0  0  0  0  0  0  0  0  0  0  0
    1.0492    2.8936   -0.0783 H   0  0  0  0  0  0  0  0  0  0  0  0
   -2.5062    1.7997   -1.3058 H   0  0  0  0  0  0  0  0  0  0  0  0
   -2.7700    3.3394   -0.4375 H   0  0  0  0  0  0  0  0  0  0  0  0
   -4.8619    3.5497   -1.1802 H   0  0  0  0  0  0  0  0  0  0  0  0
   -2.5000   -0.4957    2.9193 H   0  0  0  0  0  0  0  0  0  0  0  0
   -0.9846   -3.3222    0.0335 H   0  0  0  0  0  0  0  0  0  0  0  0
   -2.2576   -5.1131    1.1112 H   0  0  0  0  0  0  0  0  0  0  0  0
   -3.7792   -2.3007    4.0030 H   0  0  0  0  0  0  0  0  0  0  0  0
   -5.2940    3.9790   -4.1045 H   0  0  0  0  0  0  0  0  0  0  0  0
    1.8583   -0.5420   -2.0343 H   0  0  0  0  0  0  0  0  0  0  0  0
    0.3741   -0.2096   -2.9496 H   0  0  0  0  0  0  0  0  0  0  0  0
    1.3963    1.1273   -2.3995 H   0  0  0  0  0  0  0  0  0  0  0  0
   -3.6734   -5.0221    4.3276 H   0  0  0  0  0  0  0  0  0  0  0  0
   -4.9998   -4.6887    3.1790 H   0  0  0  0  0  0  0  0  0  0  0  0
   -3.7599   -5.8886    2.7871 H   0  0  0  0  0  0  0  0  0  0  0  0
   -5.5017    5.9919   -1.8113 H   0  0  0  0  0  0  0  0  0  0  0  0
   -4.7495    6.2325   -3.3887 H   0  0  0  0  0  0  0  0  0  0  0  0
   -7.2446    2.8307   -3.1638 H   0  0  0  0  0  0  0  0  0  0  0  0
   -7.2078    3.8356   -1.7084 H   0  0  0  0  0  0  0  0  0  0  0  0
   -7.3835    6.9333   -2.7507 H   0  0  0  0  0  0  0  0  0  0  0  0
   -6.8431    6.6252   -4.4029 H   0  0  0  0  0  0  0  0  0  0  0  0
   -8.7817    5.0675   -3.0049 H   0  0  0  0  0  0  0  0  0  0  0  0
   -7.9824    4.6529   -4.5251 H   0  0  0  0  0  0  0  0  0  0  0  0
  2  1  1  0  0  0  0
  3  1  2  0  0  0  0
  4  3  1  0  0  0  0
  5  2  2  0  0  0  0
  5  4  1  0  0  0  0
  6  7  1  0  0  0  0
  7  2  1  0  0  0  0
  7 26  1  0  0  0  0
  7 27  1  0  0  0  0
  8  9  1  0  0  0  0
  9  6  1  0  0  0  0
  9 28  1  0  0  0  0
  9 29  1  0  0  0  0
 10  3  1  0  0  0  0
 11  8  1  0  0  0  0
 11 30  1  0  0  0  0
 12  6  2  0  0  0  0
 13  8  2  0  0  0  0
 14 10  2  0  0  0  0
 14 31  1  0  0  0  0
 15 10  1  0  0  0  0
 15 32  1  0  0  0  0
 16 15  2  0  0  0  0
 16 33  1  0  0  0  0
 17 14  1  0  0  0  0
 17 34  1  0  0  0  0
 18 16  1  0  0  0  0
 18 17  2  0  0  0  0
 19 11  1  0  0  0  0
 19 35  1  0  0  0  0
 20  5  1  0  0  0  0
 20 36  1  0  0  0  0
 20 37  1  0  0  0  0
 20 38  1  0  0  0  0
 21 18  1  0  0  0  0
 21 39  1  0  0  0  0
 21 40  1  0  0  0  0
 21 41  1  0  0  0  0
 22 19  1  0  0  0  0
 22 42  1  0  0  0  0
 22 43  1  0  0  0  0
 23 19  1  0  0  0  0
 23 44  1  0  0  0  0
 23 45  1  0  0  0  0
 24 22  1  0  0  0  0
 24 46  1  0  0  0  0
 24 47  1  0  0  0  0
 25 23  1  0  0  0  0
 25 24  1  0  0  0  0
 25 48  1  0  0  0  0
 25 49  1  0  0  0  0
M  END
>  <Mol_ID>
9228

>  <Formula>
C19H24N2O3S

>  <MolWeight>
360.47046

>  <Cat>
P2697

>  <Name>
WAY-332050

>  <Synonyms>
N/A

>  <Target>
beta-catenin

>  <Form>
free base

>  <CAS>
958954-32-0

>  <URL>
N/A

$$$$
