WAY-383487
 OpenBabel08302521333D

 41 42  0  0  0  0  0  0  0  0999 V2000
   -1.3653    0.5244   -0.4008 C   0  0  0  0  0  0  0  0  0  0  0  0
   -0.6850   -0.8444   -0.0824 C   0  0  0  0  0  0  0  0  0  0  0  0
    0.7213   -0.9878   -0.6503 C   0  0  0  0  0  0  0  0  0  0  0  0
    1.6163    0.1223   -0.1216 C   0  0  0  0  0  0  0  0  0  0  0  0
    1.0486    1.4933   -0.4672 C   0  0  0  0  0  0  0  0  0  0  0  0
   -0.3951    1.6690    0.0160 C   0  0  0  0  0  0  0  0  0  0  0  0
   -2.5579   -0.4569   -2.4625 C   0  0  0  0  0  0  0  0  0  0  0  0
   -1.6913    0.6479   -1.9117 C   0  0  0  0  0  0  0  0  0  0  0  0
   -2.1606   -1.4970   -2.9615 O   0  0  0  0  0  0  0  0  0  0  0  0
   -3.8695   -0.2142   -2.3408 O   0  0  0  0  0  0  0  0  0  0  0  0
   -2.6400    0.5716    0.4955 C   0  0  0  0  0  0  0  0  0  0  0  0
   -3.5783    1.7627    0.4283 C   0  0  0  0  0  0  0  0  0  0  0  0
   -3.3322    2.7539   -0.2611 O   0  0  0  0  0  0  0  0  0  0  0  0
   -4.7542    1.7525    1.1394 N   0  0  0  0  0  0  0  0  0  0  0  0
   -5.3577    0.8145    2.0042 C   0  0  0  0  0  0  0  0  0  0  0  0
   -4.7045   -0.2662    2.6021 C   0  0  0  0  0  0  0  0  0  0  0  0
   -5.4115   -1.2246    3.3333 C   0  0  0  0  0  0  0  0  0  0  0  0
   -6.7770   -1.0847    3.5068 C   0  0  0  0  0  0  0  0  0  0  0  0
   -7.4381    0.0291    3.0081 C   0  0  0  0  0  0  0  0  0  0  0  0
   -6.7279    0.9823    2.2672 C   0  0  0  0  0  0  0  0  0  0  0  0
   -7.4602   -2.0267    4.1657 F   0  0  0  0  0  0  0  0  0  0  0  0
   -0.6166   -0.9661    1.0082 H   0  0  0  0  0  0  0  0  0  0  0  0
   -1.3046   -1.6790   -0.4298 H   0  0  0  0  0  0  0  0  0  0  0  0
    1.1334   -1.9612   -0.3599 H   0  0  0  0  0  0  0  0  0  0  0  0
    0.7001   -0.9691   -1.7454 H   0  0  0  0  0  0  0  0  0  0  0  0
    1.7113    0.0277    0.9677 H   0  0  0  0  0  0  0  0  0  0  0  0
    2.6242    0.0181   -0.5380 H   0  0  0  0  0  0  0  0  0  0  0  0
    1.6765    2.2670   -0.0100 H   0  0  0  0  0  0  0  0  0  0  0  0
    1.1027    1.6481   -1.5505 H   0  0  0  0  0  0  0  0  0  0  0  0
   -0.7645    2.6344   -0.3497 H   0  0  0  0  0  0  0  0  0  0  0  0
   -0.3722    1.7459    1.1110 H   0  0  0  0  0  0  0  0  0  0  0  0
   -2.1745    1.6028   -2.1466 H   0  0  0  0  0  0  0  0  0  0  0  0
   -0.7765    0.6482   -2.5139 H   0  0  0  0  0  0  0  0  0  0  0  0
   -4.2969   -0.9902   -2.7649 H   0  0  0  0  0  0  0  0  0  0  0  0
   -3.2344   -0.3289    0.3002 H   0  0  0  0  0  0  0  0  0  0  0  0
   -2.2782    0.5461    1.5293 H   0  0  0  0  0  0  0  0  0  0  0  0
   -5.3181    2.5608    0.8932 H   0  0  0  0  0  0  0  0  0  0  0  0
   -3.6366   -0.4092    2.5530 H   0  0  0  0  0  0  0  0  0  0  0  0
   -4.8967   -2.0807    3.7601 H   0  0  0  0  0  0  0  0  0  0  0  0
   -8.5040    0.1385    3.1820 H   0  0  0  0  0  0  0  0  0  0  0  0
   -7.2727    1.8362    1.8724 H   0  0  0  0  0  0  0  0  0  0  0  0
  1  2  1  0  0  0  0
  1  6  1  0  0  0  0
  1  8  1  0  0  0  0
  1 11  1  0  0  0  0
  2  3  1  0  0  0  0
  2 22  1  0  0  0  0
  2 23  1  0  0  0  0
  3  4  1  0  0  0  0
  3 24  1  0  0  0  0
  3 25  1  0  0  0  0
  4  5  1  0  0  0  0
  4 26  1  0  0  0  0
  4 27  1  0  0  0  0
  5  6  1  0  0  0  0
  5 28  1  0  0  0  0
  5 29  1  0  0  0  0
  6 30  1  0  0  0  0
  6 31  1  0  0  0  0
  7  8  1  0  0  0  0
  7  9  2  0  0  0  0
  7 10  1  0  0  0  0
  8 32  1  0  0  0  0
  8 33  1  0  0  0  0
 10 34  1  0  0  0  0
 11 12  1  0  0  0  0
 11 35  1  0  0  0  0
 11 36  1  0  0  0  0
 12 13  2  0  0  0  0
 12 14  1  0  0  0  0
 14 15  1  0  0  0  0
 14 37  1  0  0  0  0
 15 16  2  0  0  0  0
 15 20  1  0  0  0  0
 16 17  1  0  0  0  0
 16 38  1  0  0  0  0
 17 18  2  0  0  0  0
 17 39  1  0  0  0  0
 18 19  1  0  0  0  0
 18 21  1  0  0  0  0
 19 20  2  0  0  0  0
 19 40  1  0  0  0  0
 20 41  1  0  0  0  0
M  END
>  <Mol_ID>
6352

>  <Formula>
C16H20FNO3

>  <MolWeight>
293.3333032

>  <Cat>
E0797

>  <Name>
WAY-383487

>  <Target>
HIV

>  <Form>
free base

>  <CAS>
748146-89-6

>  <URL>
http://www.selleckchem.com/products/way-383487.html

$$$$
