WAY-324047
 OpenBabel08302521423D

 47 50  0  0  0  0  0  0  0  0999 V2000
    1.8101   -1.5708    0.5367 N   0  0  0  0  0  0  0  0  0  0  0  0
    2.6658   -0.6725    0.1423 C   0  0  0  0  0  0  0  0  0  0  0  0
    0.7638   -1.1911    1.3590 C   0  0  0  0  0  0  0  0  0  0  0  0
    0.7585    0.2027    1.9212 C   0  0  0  0  0  0  0  0  0  0  0  0
    4.9800   -0.3998   -0.6076 C   0  0  0  0  0  0  0  0  0  0  0  0
    1.6660    1.0684    1.4423 C   0  0  0  0  0  0  0  0  0  0  0  0
    2.5592    0.6416    0.4973 N   0  0  0  0  0  0  0  0  0  0  0  0
    3.7341   -1.0268   -0.6425 N   0  0  0  0  0  0  0  0  0  0  0  0
    6.0724   -1.1323   -0.8569 N   0  0  0  0  0  0  0  0  0  0  0  0
    5.0449    0.8889   -0.2471 N   0  0  0  0  0  0  0  0  0  0  0  0
    7.2801   -0.6485   -0.4710 C   0  0  0  0  0  0  0  0  0  0  0  0
    7.3816    0.5883    0.1778 C   0  0  0  0  0  0  0  0  0  0  0  0
    6.2404    1.3843    0.1094 C   0  0  0  0  0  0  0  0  0  0  0  0
   -0.1431   -1.9603    1.6677 O   0  0  0  0  0  0  0  0  0  0  0  0
    8.4891   -1.3454   -0.6730 C   0  0  0  0  0  0  0  0  0  0  0  0
   -0.2538    0.5528    2.9719 C   0  0  0  0  0  0  0  0  0  0  0  0
    1.7456    2.4980    1.9120 C   0  0  0  0  0  0  0  0  0  0  0  0
    8.5754    0.9645    0.8385 C   0  0  0  0  0  0  0  0  0  0  0  0
    8.6528   -2.4204   -1.5228 O   0  0  0  0  0  0  0  0  0  0  0  0
    6.2450    2.8549    0.3854 C   0  0  0  0  0  0  0  0  0  0  0  0
    9.6966    0.1480    0.7985 C   0  0  0  0  0  0  0  0  0  0  0  0
    9.6673   -0.9845   -0.0005 C   0  0  0  0  0  0  0  0  0  0  0  0
    7.9118   -2.3274   -2.7469 C   0  0  0  0  0  0  0  0  0  0  0  0
    0.0711    1.8688    3.6891 C   0  0  0  0  0  0  0  0  0  0  0  0
    0.5086    2.9431    2.6976 C   0  0  0  0  0  0  0  0  0  0  0  0
    8.7454   -2.8979   -3.8843 C   0  0  0  0  0  0  0  0  0  0  0  0
    3.3450    1.2489    0.2670 H   0  0  0  0  0  0  0  0  0  0  0  0
    3.8472   -2.0226   -0.7724 H   0  0  0  0  0  0  0  0  0  0  0  0
   -0.3205   -0.2427    3.7230 H   0  0  0  0  0  0  0  0  0  0  0  0
   -1.2388    0.6357    2.4968 H   0  0  0  0  0  0  0  0  0  0  0  0
    1.8773    3.1693    1.0550 H   0  0  0  0  0  0  0  0  0  0  0  0
    2.6354    2.6078    2.5452 H   0  0  0  0  0  0  0  0  0  0  0  0
    8.6171    1.8743    1.4335 H   0  0  0  0  0  0  0  0  0  0  0  0
    5.6484    3.3610   -0.3837 H   0  0  0  0  0  0  0  0  0  0  0  0
    5.8039    3.0603    1.3631 H   0  0  0  0  0  0  0  0  0  0  0  0
    7.2458    3.2909    0.3322 H   0  0  0  0  0  0  0  0  0  0  0  0
   10.5930    0.4127    1.3533 H   0  0  0  0  0  0  0  0  0  0  0  0
   10.5629   -1.5916   -0.1109 H   0  0  0  0  0  0  0  0  0  0  0  0
    6.9972   -2.9176   -2.6366 H   0  0  0  0  0  0  0  0  0  0  0  0
    7.6551   -1.2936   -3.0108 H   0  0  0  0  0  0  0  0  0  0  0  0
    0.8729    1.7023    4.4203 H   0  0  0  0  0  0  0  0  0  0  0  0
   -0.8052    2.2102    4.2520 H   0  0  0  0  0  0  0  0  0  0  0  0
   -0.3140    3.1519    2.0017 H   0  0  0  0  0  0  0  0  0  0  0  0
    0.7236    3.8795    3.2252 H   0  0  0  0  0  0  0  0  0  0  0  0
    9.5737   -2.2233   -4.1286 H   0  0  0  0  0  0  0  0  0  0  0  0
    9.1846   -3.8630   -3.6151 H   0  0  0  0  0  0  0  0  0  0  0  0
    8.1335   -3.0212   -4.7837 H   0  0  0  0  0  0  0  0  0  0  0  0
  2  1  2  0  0  0  0
  3  1  1  0  0  0  0
  4  3  1  0  0  0  0
  5  8  1  0  0  0  0
  6  4  2  0  0  0  0
  7  2  1  0  0  0  0
  7  6  1  0  0  0  0
  7 27  1  0  0  0  0
  8  2  1  0  0  0  0
  8 28  1  0  0  0  0
  9  5  2  0  0  0  0
 10  5  1  0  0  0  0
 11  9  1  0  0  0  0
 12 13  1  0  0  0  0
 12 11  2  0  0  0  0
 13 10  2  0  0  0  0
 14  3  2  0  0  0  0
 15 11  1  0  0  0  0
 16  4  1  0  0  0  0
 16 29  1  0  0  0  0
 16 30  1  0  0  0  0
 17  6  1  0  0  0  0
 17 25  1  0  0  0  0
 17 31  1  0  0  0  0
 17 32  1  0  0  0  0
 18 12  1  0  0  0  0
 18 33  1  0  0  0  0
 19 15  1  0  0  0  0
 20 13  1  0  0  0  0
 20 34  1  0  0  0  0
 20 35  1  0  0  0  0
 20 36  1  0  0  0  0
 21 18  2  0  0  0  0
 21 22  1  0  0  0  0
 21 37  1  0  0  0  0
 22 15  2  0  0  0  0
 22 38  1  0  0  0  0
 23 19  1  0  0  0  0
 23 39  1  0  0  0  0
 23 40  1  0  0  0  0
 24 16  1  0  0  0  0
 24 41  1  0  0  0  0
 24 42  1  0  0  0  0
 25 24  1  0  0  0  0
 25 43  1  0  0  0  0
 25 44  1  0  0  0  0
 26 23  1  0  0  0  0
 26 45  1  0  0  0  0
 26 46  1  0  0  0  0
 26 47  1  0  0  0  0
M  END
>  <Mol_ID>
8597

>  <Formula>
C19H21N5O2

>  <MolWeight>
351.40234

>  <Cat>
P2290

>  <Name>
WAY-324047

>  <Synonyms>
N/A

>  <Target>
Anti-infection

>  <Form>
free base

>  <CAS>
524055-95-6

>  <URL>
N/A

$$$$
