WAY-326817
 OpenBabel08302521433D

 62 65  0  0  0  0  0  0  0  0999 V2000
   -1.9570   -1.4530    0.0635 C   0  0  0  0  0  0  0  0  0  0  0  0
   -0.6564   -1.8159    0.0335 N   0  0  0  0  0  0  0  0  0  0  0  0
   -2.9233   -2.4266    0.0004 N   0  0  0  0  0  0  0  0  0  0  0  0
    3.3649    3.3214    0.3660 C   0  0  0  0  0  0  0  0  0  0  0  0
    0.2998   -0.8695    0.0377 C   0  0  0  0  0  0  0  0  0  0  0  0
    0.0040    0.5059    0.0520 C   0  0  0  0  0  0  0  0  0  0  0  0
   -1.3487    0.8880    0.0572 C   0  0  0  0  0  0  0  0  0  0  0  0
    3.4670    1.9674    0.0817 N   0  0  0  0  0  0  0  0  0  0  0  0
    4.6347    4.1012    0.3944 C   0  0  0  0  0  0  0  0  0  0  0  0
   -2.3180   -0.1116    0.0723 C   0  0  0  0  0  0  0  0  0  0  0  0
   -5.1218   -4.1605   -0.8370 N   0  0  0  0  0  0  0  0  0  0  0  0
    4.5538    5.4857    0.1593 C   0  0  0  0  0  0  0  0  0  0  0  0
    5.6847    6.3101    0.2419 C   0  0  0  0  0  0  0  0  0  0  0  0
    2.3937    1.0499    0.0443 C   0  0  0  0  0  0  0  0  0  0  0  0
    1.0579    1.4426    0.0506 C   0  0  0  0  0  0  0  0  0  0  0  0
    6.9247    5.7217    0.5526 C   0  0  0  0  0  0  0  0  0  0  0  0
    2.3317    3.9373    0.6105 O   0  0  0  0  0  0  0  0  0  0  0  0
   -2.6080   -3.7178   -0.6041 C   0  0  0  0  0  0  0  0  0  0  0  0
   -4.1886   -2.3540    0.7299 C   0  0  0  0  0  0  0  0  0  0  0  0
    5.8596    3.5294    0.7247 C   0  0  0  0  0  0  0  0  0  0  0  0
    1.6364   -1.2514    0.0119 C   0  0  0  0  0  0  0  0  0  0  0  0
    6.9958    4.3385    0.7871 C   0  0  0  0  0  0  0  0  0  0  0  0
   -5.3421   -2.8387   -0.1843 C   0  0  0  0  0  0  0  0  0  0  0  0
   -3.7972   -4.1219   -1.5109 C   0  0  0  0  0  0  0  0  0  0  0  0
    2.6799   -0.3127    0.0025 C   0  0  0  0  0  0  0  0  0  0  0  0
    5.6362    7.6624    0.0413 O   0  0  0  0  0  0  0  0  0  0  0  0
    8.1513    6.3191    0.6754 O   0  0  0  0  0  0  0  0  0  0  0  0
   -5.2434   -5.2436    0.1473 C   0  0  0  0  0  0  0  0  0  0  0  0
   -1.7875    2.3252    0.0196 C   0  0  0  0  0  0  0  0  0  0  0  0
    4.3819    8.2692   -0.2443 C   0  0  0  0  0  0  0  0  0  0  0  0
    8.2479    7.7282    0.5424 C   0  0  0  0  0  0  0  0  0  0  0  0
   -5.0924   -6.6342   -0.4588 C   0  0  0  0  0  0  0  0  0  0  0  0
    4.3841    1.5775   -0.0842 H   0  0  0  0  0  0  0  0  0  0  0  0
   -3.3648    0.1691    0.0252 H   0  0  0  0  0  0  0  0  0  0  0  0
    3.5764    5.8998   -0.0750 H   0  0  0  0  0  0  0  0  0  0  0  0
    0.8035    2.4954    0.0358 H   0  0  0  0  0  0  0  0  0  0  0  0
   -1.7087   -3.6796   -1.2305 H   0  0  0  0  0  0  0  0  0  0  0  0
   -2.4339   -4.4690    0.1750 H   0  0  0  0  0  0  0  0  0  0  0  0
   -4.1234   -2.9828    1.6262 H   0  0  0  0  0  0  0  0  0  0  0  0
   -4.4253   -1.3465    1.0870 H   0  0  0  0  0  0  0  0  0  0  0  0
    5.9617    2.4786    0.9717 H   0  0  0  0  0  0  0  0  0  0  0  0
    1.8740   -2.3125    0.0051 H   0  0  0  0  0  0  0  0  0  0  0  0
    7.9558    3.8928    1.0478 H   0  0  0  0  0  0  0  0  0  0  0  0
   -5.4838   -2.0937   -0.9793 H   0  0  0  0  0  0  0  0  0  0  0  0
   -6.2818   -2.8471    0.3813 H   0  0  0  0  0  0  0  0  0  0  0  0
   -3.8661   -3.3889   -2.3265 H   0  0  0  0  0  0  0  0  0  0  0  0
   -3.5817   -5.0728   -2.0108 H   0  0  0  0  0  0  0  0  0  0  0  0
    3.7044   -0.6734   -0.0073 H   0  0  0  0  0  0  0  0  0  0  0  0
   -4.5286   -5.1379    0.9704 H   0  0  0  0  0  0  0  0  0  0  0  0
   -6.2453   -5.1937    0.5922 H   0  0  0  0  0  0  0  0  0  0  0  0
   -1.4273    2.8583    0.9051 H   0  0  0  0  0  0  0  0  0  0  0  0
   -1.4119    2.8151   -0.8856 H   0  0  0  0  0  0  0  0  0  0  0  0
   -2.8790    2.4129    0.0051 H   0  0  0  0  0  0  0  0  0  0  0  0
    3.9915    7.9264   -1.2079 H   0  0  0  0  0  0  0  0  0  0  0  0
    3.6608    8.1010    0.5622 H   0  0  0  0  0  0  0  0  0  0  0  0
    4.5464    9.3489   -0.3177 H   0  0  0  0  0  0  0  0  0  0  0  0
    7.9474    8.0566   -0.4568 H   0  0  0  0  0  0  0  0  0  0  0  0
    7.6895    8.2404    1.3328 H   0  0  0  0  0  0  0  0  0  0  0  0
    9.3017    7.9972    0.6623 H   0  0  0  0  0  0  0  0  0  0  0  0
   -5.7872   -6.7812   -1.2915 H   0  0  0  0  0  0  0  0  0  0  0  0
   -4.0740   -6.8149   -0.8161 H   0  0  0  0  0  0  0  0  0  0  0  0
   -5.3062   -7.3933    0.2999 H   0  0  0  0  0  0  0  0  0  0  0  0
  2  1  2  0  0  0  0
  3  1  1  0  0  0  0
  4  8  1  0  0  0  0
  5  2  1  0  0  0  0
  6  7  1  0  0  0  0
  6  5  2  0  0  0  0
  7 10  2  0  0  0  0
  8 14  1  0  0  0  0
  8 33  1  0  0  0  0
  9  4  1  0  0  0  0
 10  1  1  0  0  0  0
 10 34  1  0  0  0  0
 11 23  1  0  0  0  0
 11 24  1  0  0  0  0
 12  9  2  0  0  0  0
 12 35  1  0  0  0  0
 13 12  1  0  0  0  0
 13 16  2  0  0  0  0
 14 15  2  0  0  0  0
 14 25  1  0  0  0  0
 15  6  1  0  0  0  0
 15 36  1  0  0  0  0
 16 22  1  0  0  0  0
 17  4  2  0  0  0  0
 18  3  1  0  0  0  0
 18 37  1  0  0  0  0
 18 38  1  0  0  0  0
 19  3  1  0  0  0  0
 19 39  1  0  0  0  0
 19 40  1  0  0  0  0
 20  9  1  0  0  0  0
 20 41  1  0  0  0  0
 21  5  1  0  0  0  0
 21 42  1  0  0  0  0
 22 20  2  0  0  0  0
 22 43  1  0  0  0  0
 23 19  1  0  0  0  0
 23 44  1  0  0  0  0
 23 45  1  0  0  0  0
 24 18  1  0  0  0  0
 24 46  1  0  0  0  0
 24 47  1  0  0  0  0
 25 21  2  0  0  0  0
 25 48  1  0  0  0  0
 26 13  1  0  0  0  0
 27 16  1  0  0  0  0
 28 11  1  0  0  0  0
 28 49  1  0  0  0  0
 28 50  1  0  0  0  0
 29  7  1  0  0  0  0
 29 51  1  0  0  0  0
 29 52  1  0  0  0  0
 29 53  1  0  0  0  0
 30 26  1  0  0  0  0
 30 54  1  0  0  0  0
 30 55  1  0  0  0  0
 30 56  1  0  0  0  0
 31 27  1  0  0  0  0
 31 57  1  0  0  0  0
 31 58  1  0  0  0  0
 31 59  1  0  0  0  0
 32 28  1  0  0  0  0
 32 60  1  0  0  0  0
 32 61  1  0  0  0  0
 32 62  1  0  0  0  0
M  END
>  <Mol_ID>
8942

>  <Formula>
C25H30N4O3

>  <MolWeight>
434.5307

>  <Cat>
P2501

>  <Name>
WAY-326817

>  <Synonyms>
N/A

>  <Target>
Hsp90

>  <Form>
free base

>  <CAS>
442898-75-1

>  <URL>
N/A

$$$$
