WAY-605254-A
 OpenBabel08302521413D

 63 68  0  0  0  0  0  0  0  0999 V2000
   -0.2208    1.3163    0.3730 C   0  0  0  0  0  0  0  0  0  0  0  0
   -0.7226    2.6760   -0.0130 C   0  0  3  0  0  0  0  0  0  0  0  0
    1.0261   -0.5612    0.7927 N   0  0  0  0  0  0  0  0  0  0  0  0
    1.0898    0.7780    0.6452 C   0  0  0  0  0  0  0  0  0  0  0  0
   -0.4400    3.7806    0.8724 N   0  0  0  0  0  0  0  0  0  0  0  0
   -0.2525   -0.9140    0.5325 N   0  0  0  0  0  0  0  0  0  0  0  0
   -1.0414    0.1981    0.3921 C   0  0  0  0  0  0  0  0  0  0  0  0
   -0.0739    3.1448   -1.6372 S   0  0  0  0  0  0  0  0  0  0  0  0
   -0.2791    5.0138    0.2481 C   0  0  0  0  0  0  0  0  0  0  0  0
    2.4042    1.4466    0.7592 C   0  0  0  0  0  0  0  0  0  0  0  0
   -0.6309    3.7197    2.3235 C   0  0  0  0  0  0  0  0  0  0  0  0
    3.7507    3.3936    1.3631 C   0  0  0  0  0  0  0  0  0  0  0  0
    2.5227    2.7557    1.2210 C   0  0  0  0  0  0  0  0  0  0  0  0
   -0.1558    4.9004   -1.2555 C   0  0  0  0  0  0  0  0  0  0  0  0
   -3.1554    3.5930    2.3098 N   0  0  0  0  0  0  0  0  0  0  0  0
    4.9225    2.7111    1.0709 C   0  0  0  0  0  0  0  0  0  0  0  0
   -0.6487   -2.2804    0.3962 C   0  0  0  0  0  0  0  0  0  0  0  0
    3.7013    4.6792    1.8332 O   0  0  0  0  0  0  0  0  0  0  0  0
   -0.2365    6.0883    0.8389 O   0  0  0  0  0  0  0  0  0  0  0  0
    3.5965    0.7714    0.4541 C   0  0  0  0  0  0  0  0  0  0  0  0
    6.1620    3.2692    1.2380 O   0  0  0  0  0  0  0  0  0  0  0  0
   -1.9665    4.2745    2.8441 C   0  0  0  0  0  0  0  0  0  0  0  0
    4.8468    1.4010    0.6012 C   0  0  0  0  0  0  0  0  0  0  0  0
   -4.9932    2.7203    4.4390 O   0  0  0  0  0  0  0  0  0  0  0  0
   -3.2750    2.1896    2.7600 C   0  0  0  0  0  0  0  0  0  0  0  0
   -4.3859    4.3232    2.6995 C   0  0  0  0  0  0  0  0  0  0  0  0
    4.9633    5.3390    1.7254 C   0  0  0  0  0  0  0  0  0  0  0  0
    6.1007    4.4063    2.1118 C   0  0  0  0  0  0  0  0  0  0  0  0
   -4.8008    4.1123    4.1651 C   0  0  0  0  0  0  0  0  0  0  0  0
   -3.7853    1.9931    4.1978 C   0  0  0  0  0  0  0  0  0  0  0  0
    0.2988   -3.3014    0.5432 C   0  0  0  0  0  0  0  0  0  0  0  0
   -1.9667   -2.6257    0.0630 C   0  0  0  0  0  0  0  0  0  0  0  0
   -2.3286   -3.9630   -0.1323 C   0  0  0  0  0  0  0  0  0  0  0  0
   -0.0662   -4.6385    0.3544 C   0  0  0  0  0  0  0  0  0  0  0  0
   -1.3784   -4.9706    0.0095 C   0  0  0  0  0  0  0  0  0  0  0  0
   -1.8132    2.6392   -0.1228 H   0  0  0  0  0  0  0  0  0  0  0  0
   -2.1053    0.1253    0.2200 H   0  0  0  0  0  0  0  0  0  0  0  0
   -0.4436    2.7033    2.6803 H   0  0  0  0  0  0  0  0  0  0  0  0
    0.1548    4.3454    2.7681 H   0  0  0  0  0  0  0  0  0  0  0  0
    1.6696    3.3268    1.5169 H   0  0  0  0  0  0  0  0  0  0  0  0
    0.7517    5.4065   -1.5930 H   0  0  0  0  0  0  0  0  0  0  0  0
   -1.0369    5.3385   -1.7300 H   0  0  0  0  0  0  0  0  0  0  0  0
    3.5657   -0.2617    0.1108 H   0  0  0  0  0  0  0  0  0  0  0  0
   -1.9443    4.2471    3.9405 H   0  0  0  0  0  0  0  0  0  0  0  0
   -2.0143    5.3358    2.5677 H   0  0  0  0  0  0  0  0  0  0  0  0
    5.7579    0.8553    0.3729 H   0  0  0  0  0  0  0  0  0  0  0  0
   -3.9787    1.7015    2.0749 H   0  0  0  0  0  0  0  0  0  0  0  0
   -2.3318    1.6497    2.6425 H   0  0  0  0  0  0  0  0  0  0  0  0
   -5.1948    3.9607    2.0537 H   0  0  0  0  0  0  0  0  0  0  0  0
   -4.2837    5.3950    2.4894 H   0  0  0  0  0  0  0  0  0  0  0  0
    4.9372    6.2007    2.4010 H   0  0  0  0  0  0  0  0  0  0  0  0
    5.0750    5.7136    0.7012 H   0  0  0  0  0  0  0  0  0  0  0  0
    7.0559    4.9352    2.0425 H   0  0  0  0  0  0  0  0  0  0  0  0
    5.9839    4.0479    3.1426 H   0  0  0  0  0  0  0  0  0  0  0  0
   -4.0620    4.5203    4.8650 H   0  0  0  0  0  0  0  0  0  0  0  0
   -5.7496    4.6222    4.3588 H   0  0  0  0  0  0  0  0  0  0  0  0
   -4.0048    0.9324    4.3587 H   0  0  0  0  0  0  0  0  0  0  0  0
   -3.0324    2.2896    4.9366 H   0  0  0  0  0  0  0  0  0  0  0  0
    1.3315   -3.0725    0.8007 H   0  0  0  0  0  0  0  0  0  0  0  0
   -2.7442   -1.8791   -0.0807 H   0  0  0  0  0  0  0  0  0  0  0  0
   -3.3490   -4.2186   -0.4045 H   0  0  0  0  0  0  0  0  0  0  0  0
    0.6773   -5.4242    0.4611 H   0  0  0  0  0  0  0  0  0  0  0  0
   -1.6528   -6.0098   -0.1496 H   0  0  0  0  0  0  0  0  0  0  0  0
  2  1  1  0  0  0  0
  2 36  1  0  0  0  0
  3  4  2  0  0  0  0
  3  6  1  0  0  0  0
  4  1  1  0  0  0  0
  5  2  1  0  0  0  0
  6  7  1  0  0  0  0
  7  1  2  0  0  0  0
  7 37  1  0  0  0  0
  8  2  1  0  0  0  0
  9  5  1  0  0  0  0
 10  4  1  0  0  0  0
 11  5  1  0  0  0  0
 11 38  1  0  0  0  0
 11 39  1  0  0  0  0
 12 13  2  0  0  0  0
 13 10  1  0  0  0  0
 13 40  1  0  0  0  0
 14  8  1  0  0  0  0
 14  9  1  0  0  0  0
 14 41  1  0  0  0  0
 14 42  1  0  0  0  0
 15 22  1  0  0  0  0
 16 23  2  0  0  0  0
 16 12  1  0  0  0  0
 17  6  1  0  0  0  0
 18 12  1  0  0  0  0
 19  9  2  0  0  0  0
 20 10  2  0  0  0  0
 20 43  1  0  0  0  0
 21 16  1  0  0  0  0
 22 11  1  0  0  0  0
 22 44  1  0  0  0  0
 22 45  1  0  0  0  0
 23 20  1  0  0  0  0
 23 46  1  0  0  0  0
 24 30  1  0  0  0  0
 25 15  1  0  0  0  0
 25 47  1  0  0  0  0
 25 48  1  0  0  0  0
 26 15  1  0  0  0  0
 26 49  1  0  0  0  0
 26 50  1  0  0  0  0
 27 18  1  0  0  0  0
 27 28  1  0  0  0  0
 27 51  1  0  0  0  0
 27 52  1  0  0  0  0
 28 21  1  0  0  0  0
 28 53  1  0  0  0  0
 28 54  1  0  0  0  0
 29 26  1  0  0  0  0
 29 24  1  0  0  0  0
 29 55  1  0  0  0  0
 29 56  1  0  0  0  0
 30 25  1  0  0  0  0
 30 57  1  0  0  0  0
 30 58  1  0  0  0  0
 31 17  2  0  0  0  0
 31 59  1  0  0  0  0
 32 17  1  0  0  0  0
 32 60  1  0  0  0  0
 33 32  2  0  0  0  0
 33 35  1  0  0  0  0
 33 61  1  0  0  0  0
 34 31  1  0  0  0  0
 34 62  1  0  0  0  0
 35 34  2  0  0  0  0
 35 63  1  0  0  0  0
M  END
>  <Mol_ID>
8467

>  <Formula>
C26H28N4O4S

>  <MolWeight>
492.58992

>  <Cat>
P2849

>  <Name>
WAY-605254-A

>  <Synonyms>
N/A

>  <Target>
Anti inflammatory

>  <Form>
free base

>  <CAS>
881665-40-3

>  <URL>
N/A

$$$$
