WAY-616296
 OpenBabel08302521453D

 36 38  0  0  0  0  0  0  0  0999 V2000
   -0.8761    4.5991    0.8740 N   0  0  0  0  0  0  0  0  0  0  0  0
   -2.1544    4.7395    1.3497 C   0  0  0  0  0  0  0  0  0  0  0  0
   -2.0403    2.7183    0.3794 C   0  0  0  0  0  0  0  0  0  0  0  0
   -0.7064    3.3881    0.2547 C   0  0  0  0  0  0  0  0  0  0  0  0
   -2.8600    3.5908    1.0423 N   0  0  0  0  0  0  0  0  0  0  0  0
   -2.3401    1.5097   -0.0989 C   0  0  0  0  0  0  0  0  0  0  0  0
   -2.7508    6.0526    2.1489 S   0  0  0  0  0  0  0  0  0  0  0  0
    0.2890    2.9593   -0.2945 O   0  0  0  0  0  0  0  0  0  0  0  0
   -3.6812    0.9313   -0.0325 C   0  0  0  0  0  0  0  0  0  0  0  0
   -5.7329   -0.9778    2.2941 O   0  0  0  0  0  0  0  0  0  0  0  0
   -4.0889    0.1721    1.0704 C   0  0  0  0  0  0  0  0  0  0  0  0
   -5.3941   -0.3221    1.1347 C   0  0  0  0  0  0  0  0  0  0  0  0
   -7.1401   -0.9970    2.5602 C   0  0  0  0  0  0  0  0  0  0  0  0
   -7.4514   -1.2717    4.0116 C   0  0  0  0  0  0  0  0  0  0  0  0
   -5.8651    0.6510   -1.0336 C   0  0  0  0  0  0  0  0  0  0  0  0
   -4.5801    1.1833   -1.0747 C   0  0  0  0  0  0  0  0  0  0  0  0
   -6.2637   -0.1126    0.0611 C   0  0  0  0  0  0  0  0  0  0  0  0
   -8.5611   -0.6390    4.5989 C   0  0  0  0  0  0  0  0  0  0  0  0
   -6.7310   -2.2075    4.7619 C   0  0  0  0  0  0  0  0  0  0  0  0
   -7.1092   -2.4972    6.0747 C   0  0  0  0  0  0  0  0  0  0  0  0
   -8.9355   -0.9291    5.9093 C   0  0  0  0  0  0  0  0  0  0  0  0
   -8.2121   -1.8614    6.6468 C   0  0  0  0  0  0  0  0  0  0  0  0
   -0.1514    5.2936    0.9457 H   0  0  0  0  0  0  0  0  0  0  0  0
   -3.8282    3.4185    1.2820 H   0  0  0  0  0  0  0  0  0  0  0  0
   -1.5884    0.9204   -0.6191 H   0  0  0  0  0  0  0  0  0  0  0  0
   -3.4041   -0.0183    1.8939 H   0  0  0  0  0  0  0  0  0  0  0  0
   -7.5759   -0.0219    2.3091 H   0  0  0  0  0  0  0  0  0  0  0  0
   -7.6144   -1.7821    1.9577 H   0  0  0  0  0  0  0  0  0  0  0  0
   -6.5604    0.8369   -1.8479 H   0  0  0  0  0  0  0  0  0  0  0  0
   -4.2847    1.7925   -1.9260 H   0  0  0  0  0  0  0  0  0  0  0  0
   -7.2682   -0.5283    0.0494 H   0  0  0  0  0  0  0  0  0  0  0  0
   -9.1451    0.0830    4.0325 H   0  0  0  0  0  0  0  0  0  0  0  0
   -5.8771   -2.7202    4.3247 H   0  0  0  0  0  0  0  0  0  0  0  0
   -6.5463   -3.2275    6.6514 H   0  0  0  0  0  0  0  0  0  0  0  0
   -9.7958   -0.4329    6.3487 H   0  0  0  0  0  0  0  0  0  0  0  0
   -8.5089   -2.0962    7.6641 H   0  0  0  0  0  0  0  0  0  0  0  0
  1 23  1  0  0  0  0
  2  1  1  0  0  0  0
  3  4  1  0  0  0  0
  4  1  1  0  0  0  0
  5  2  1  0  0  0  0
  5  3  1  0  0  0  0
  5 24  1  0  0  0  0
  6  3  2  0  0  0  0
  6 25  1  0  0  0  0
  7  2  2  0  0  0  0
  8  4  2  0  0  0  0
  9  6  1  0  0  0  0
 10 12  1  0  0  0  0
 11  9  2  0  0  0  0
 11 26  1  0  0  0  0
 12 11  1  0  0  0  0
 12 17  2  0  0  0  0
 13 10  1  0  0  0  0
 13 27  1  0  0  0  0
 13 28  1  0  0  0  0
 14 13  1  0  0  0  0
 15 16  2  0  0  0  0
 15 29  1  0  0  0  0
 16  9  1  0  0  0  0
 16 30  1  0  0  0  0
 17 15  1  0  0  0  0
 17 31  1  0  0  0  0
 18 14  2  0  0  0  0
 18 32  1  0  0  0  0
 19 14  1  0  0  0  0
 19 33  1  0  0  0  0
 20 19  2  0  0  0  0
 20 34  1  0  0  0  0
 21 18  1  0  0  0  0
 21 22  2  0  0  0  0
 21 35  1  0  0  0  0
 22 20  1  0  0  0  0
 22 36  1  0  0  0  0
M  END
>  <Mol_ID>
9338

>  <Formula>
C17H14N2O2S

>  <MolWeight>
310.37026

>  <Cat>
P2921

>  <Name>
WAY-616296

>  <Synonyms>
N/A

>  <Target>
anti-infection

>  <Form>
free base

>  <CAS>
503065-67-6

>  <URL>
N/A

$$$$
