WAY-326104
 OpenBabel08302521433D

 40 42  0  0  0  0  0  0  0  0999 V2000
    2.3680   -0.0529    0.1150 C   0  0  0  0  0  0  0  0  0  0  0  0
    1.4870    1.0341    0.0602 N   0  0  0  0  0  0  0  0  0  0  0  0
    1.9709    2.3411    0.0600 C   0  0  0  0  0  0  0  0  0  0  0  0
    1.5912   -1.1975    0.0689 C   0  0  0  0  0  0  0  0  0  0  0  0
    0.1980    0.6229   -0.0207 N   0  0  0  0  0  0  0  0  0  0  0  0
    3.7279    0.1120    0.1825 N   0  0  0  0  0  0  0  0  0  0  0  0
    3.2992    2.5524    0.1172 C   0  0  0  0  0  0  0  0  0  0  0  0
    0.2708   -0.7104   -0.0053 C   0  0  0  0  0  0  0  0  0  0  0  0
    2.0224   -2.5816    0.0653 C   0  0  0  0  0  0  0  0  0  0  0  0
    4.1657    1.3381    0.1874 C   0  0  0  0  0  0  0  0  0  0  0  0
    0.9755    3.4381   -0.0357 C   0  0  0  0  0  0  0  0  0  0  0  0
    1.2240   -3.5077   -0.0204 O   0  0  0  0  0  0  0  0  0  0  0  0
    3.3871   -2.7657    0.1271 N   0  0  0  0  0  0  0  0  0  0  0  0
    0.5450    3.8053    1.2013 F   0  0  0  0  0  0  0  0  0  0  0  0
    1.5484    4.5592   -0.5669 F   0  0  0  0  0  0  0  0  0  0  0  0
    7.6320   -7.6816   -0.7613 C   0  0  0  0  0  0  0  0  0  0  0  0
    6.2000   -5.3220   -0.2503 C   0  0  0  0  0  0  0  0  0  0  0  0
    7.2270   -7.3778    0.5369 C   0  0  0  0  0  0  0  0  0  0  0  0
    7.2924   -6.8304   -1.8109 C   0  0  0  0  0  0  0  0  0  0  0  0
    6.5748   -5.6590   -1.5587 C   0  0  0  0  0  0  0  0  0  0  0  0
    6.5075   -6.2081    0.7910 C   0  0  0  0  0  0  0  0  0  0  0  0
    3.9959   -4.0612   -0.1112 C   0  0  0  0  0  0  0  0  0  0  0  0
    5.6560    1.5505    0.2682 C   0  0  0  0  0  0  0  0  0  0  0  0
    5.5147   -4.0092    0.0391 C   0  0  0  0  0  0  0  0  0  0  0  0
    3.7490    3.5374    0.1163 H   0  0  0  0  0  0  0  0  0  0  0  0
   -0.6442   -1.2892   -0.0623 H   0  0  0  0  0  0  0  0  0  0  0  0
    0.1080    3.1975   -0.6572 H   0  0  0  0  0  0  0  0  0  0  0  0
    3.9614   -1.9245    0.1117 H   0  0  0  0  0  0  0  0  0  0  0  0
    8.2121   -8.5803   -0.9543 H   0  0  0  0  0  0  0  0  0  0  0  0
    7.4828   -8.0463    1.3550 H   0  0  0  0  0  0  0  0  0  0  0  0
    7.5987   -7.0731   -2.8254 H   0  0  0  0  0  0  0  0  0  0  0  0
    6.3294   -5.0010   -2.3894 H   0  0  0  0  0  0  0  0  0  0  0  0
    6.2073   -5.9835    1.8120 H   0  0  0  0  0  0  0  0  0  0  0  0
    3.5542   -4.7814    0.5868 H   0  0  0  0  0  0  0  0  0  0  0  0
    3.7153   -4.3725   -1.1239 H   0  0  0  0  0  0  0  0  0  0  0  0
    6.0342    1.1017    1.1921 H   0  0  0  0  0  0  0  0  0  0  0  0
    6.1340    1.0615   -0.5862 H   0  0  0  0  0  0  0  0  0  0  0  0
    5.9133    2.6125    0.2584 H   0  0  0  0  0  0  0  0  0  0  0  0
    5.9293   -3.2411   -0.6278 H   0  0  0  0  0  0  0  0  0  0  0  0
    5.7776   -3.6776    1.0524 H   0  0  0  0  0  0  0  0  0  0  0  0
  2  1  1  0  0  0  0
  3  2  1  0  0  0  0
  3  7  2  0  0  0  0
  4  1  2  0  0  0  0
  5  2  1  0  0  0  0
  5  8  2  0  0  0  0
  6  1  1  0  0  0  0
  7 10  1  0  0  0  0
  7 25  1  0  0  0  0
  8  4  1  0  0  0  0
  8 26  1  0  0  0  0
  9  4  1  0  0  0  0
 10  6  2  0  0  0  0
 11  3  1  0  0  0  0
 11 27  1  0  0  0  0
 12  9  2  0  0  0  0
 13  9  1  0  0  0  0
 13 28  1  0  0  0  0
 14 11  1  0  0  0  0
 15 11  1  0  0  0  0
 16 18  2  0  0  0  0
 16 29  1  0  0  0  0
 17 24  1  0  0  0  0
 18 21  1  0  0  0  0
 18 30  1  0  0  0  0
 19 20  2  0  0  0  0
 19 16  1  0  0  0  0
 19 31  1  0  0  0  0
 20 17  1  0  0  0  0
 20 32  1  0  0  0  0
 21 17  2  0  0  0  0
 21 33  1  0  0  0  0
 22 13  1  0  0  0  0
 22 34  1  0  0  0  0
 22 35  1  0  0  0  0
 23 10  1  0  0  0  0
 23 36  1  0  0  0  0
 23 37  1  0  0  0  0
 23 38  1  0  0  0  0
 24 22  1  0  0  0  0
 24 39  1  0  0  0  0
 24 40  1  0  0  0  0
M  END
>  <Mol_ID>
8891

>  <Formula>
C17H15ClF2N4O

>  <MolWeight>
364.7770064

>  <Cat>
P2449

>  <Name>
WAY-326104

>  <Synonyms>
N/A

>  <Target>
Others

>  <Form>
free base

>  <CAS>
869714-38-5

>  <URL>
N/A

$$$$
