WAY-299026
 OpenBabel08302521413D

 35 37  0  0  0  0  0  0  0  0999 V2000
   -0.0400    1.0657    0.0638 C   0  0  0  0  0  0  0  0  0  0  0  0
   -0.0469    2.5264    0.0188 C   0  0  0  0  0  0  0  0  0  0  0  0
    1.1282    0.3227    0.0139 N   0  0  0  0  0  0  0  0  0  0  0  0
   -1.1624    0.3179    0.1087 N   0  0  0  0  0  0  0  0  0  0  0  0
   -1.2341    3.2834    0.0489 C   0  0  0  0  0  0  0  0  0  0  0  0
    1.1702    3.2157   -0.0918 C   0  0  0  0  0  0  0  0  0  0  0  0
    0.6991   -0.9121    0.0036 C   0  0  0  0  0  0  0  0  0  0  0  0
   -0.6579   -0.9302    0.0557 N   0  0  0  0  0  0  0  0  0  0  0  0
   -1.2022    4.6751   -0.0529 C   0  0  0  0  0  0  0  0  0  0  0  0
   -2.4780    2.7203    0.1671 O   0  0  0  0  0  0  0  0  0  0  0  0
    1.2046    4.6109   -0.1948 C   0  0  0  0  0  0  0  0  0  0  0  0
    1.5947   -2.3761   -0.0946 S   0  0  0  0  0  0  0  0  0  0  0  0
    0.0165    5.3384   -0.1822 C   0  0  0  0  0  0  0  0  0  0  0  0
    3.3106   -1.7662   -0.1691 C   0  0  0  0  0  0  0  0  0  0  0  0
    4.2734   -2.9233   -0.3538 C   0  0  0  0  0  0  0  0  0  0  0  0
    4.5927   -3.3822   -1.6431 C   0  0  0  0  0  0  0  0  0  0  0  0
    4.8041   -3.5994    0.7579 C   0  0  0  0  0  0  0  0  0  0  0  0
    5.3894   -4.5177   -1.8219 C   0  0  0  0  0  0  0  0  0  0  0  0
    5.6053   -4.7341    0.5889 C   0  0  0  0  0  0  0  0  0  0  0  0
    5.8763   -5.2027   -0.7023 C   0  0  0  0  0  0  0  0  0  0  0  0
    6.6480   -6.4401   -0.8844 N   0  3  0  0  0  0  0  0  0  0  0  0
    6.8271   -6.8442   -2.0420 O   0  0  0  0  0  0  0  0  0  0  0  0
    7.0666   -7.0143    0.1313 O   0  5  0  0  0  0  0  0  0  0  0  0
    2.1091    2.6651   -0.1120 H   0  0  0  0  0  0  0  0  0  0  0  0
   -1.2774   -1.7316    0.0415 H   0  0  0  0  0  0  0  0  0  0  0  0
   -2.1317    5.2395   -0.0411 H   0  0  0  0  0  0  0  0  0  0  0  0
   -2.3539    1.7477    0.2060 H   0  0  0  0  0  0  0  0  0  0  0  0
    2.1558    5.1231   -0.2938 H   0  0  0  0  0  0  0  0  0  0  0  0
    0.0384    6.4211   -0.2752 H   0  0  0  0  0  0  0  0  0  0  0  0
    3.4226   -1.0597   -0.9997 H   0  0  0  0  0  0  0  0  0  0  0  0
    3.5507   -1.2253    0.7532 H   0  0  0  0  0  0  0  0  0  0  0  0
    4.2009   -2.8694   -2.5202 H   0  0  0  0  0  0  0  0  0  0  0  0
    4.5773   -3.2589    1.7671 H   0  0  0  0  0  0  0  0  0  0  0  0
    5.6023   -4.8628   -2.8317 H   0  0  0  0  0  0  0  0  0  0  0  0
    5.9899   -5.2482    1.4682 H   0  0  0  0  0  0  0  0  0  0  0  0
  1  2  1  0  0  0  0
  1  3  1  0  0  0  0
  2  5  2  0  0  0  0
  3  7  2  0  0  0  0
  4  1  2  0  0  0  0
  4  8  1  0  0  0  0
  5  9  1  0  0  0  0
  5 10  1  0  0  0  0
  6  2  1  0  0  0  0
  6 11  2  0  0  0  0
  6 24  1  0  0  0  0
  7 12  1  0  0  0  0
  7  8  1  0  0  0  0
  8 25  1  0  0  0  0
  9 13  2  0  0  0  0
  9 26  1  0  0  0  0
 10 27  1  0  0  0  0
 11 28  1  0  0  0  0
 12 14  1  0  0  0  0
 13 11  1  0  0  0  0
 13 29  1  0  0  0  0
 14 15  1  0  0  0  0
 14 30  1  0  0  0  0
 14 31  1  0  0  0  0
 15 16  2  0  0  0  0
 15 17  1  0  0  0  0
 16 32  1  0  0  0  0
 17 19  2  0  0  0  0
 17 33  1  0  0  0  0
 18 16  1  0  0  0  0
 18 20  2  0  0  0  0
 18 34  1  0  0  0  0
 19 20  1  0  0  0  0
 19 35  1  0  0  0  0
 20 21  1  0  0  0  0
 21 22  2  0  0  0  0
 21 23  1  0  0  0  0
M  CHG  2  21   1  23  -1
M  END
>  <Mol_ID>
8354

>  <Formula>
C15H12N4O3S

>  <MolWeight>
328.34578

>  <Cat>
P2104

>  <Name>
WAY-299026

>  <Synonyms>
N/A

>  <Target>
Anti-infection

>  <Form>
free base

>  <CAS>
336180-49-5

>  <URL>
N/A

$$$$
