WAY-324572
 OpenBabel08302521423D

 45 47  0  0  0  0  0  0  0  0999 V2000
    1.0054    0.1365    0.0054 C   0  0  0  0  0  0  0  0  0  0  0  0
    0.5475   -0.7681   -0.9619 N   0  0  0  0  0  0  0  0  0  0  0  0
   -0.4213   -2.9065   -2.7853 N   0  0  0  0  0  0  0  0  0  0  0  0
    0.5189    1.5444    0.0433 C   0  0  0  0  0  0  0  0  0  0  0  0
    1.8310   -0.1865    0.8609 O   0  0  0  0  0  0  0  0  0  0  0  0
   -2.7000   -3.7786   -2.8633 C   0  0  0  0  0  0  0  0  0  0  0  0
    1.0752   -2.1345   -0.8549 C   0  0  0  0  0  0  0  0  0  0  0  0
   -0.7698   -0.6848   -1.6051 C   0  0  0  0  0  0  0  0  0  0  0  0
   -3.9055   -3.4065   -2.4008 C   0  0  0  0  0  0  0  0  0  0  0  0
    0.3850    2.1615    1.2991 C   0  0  0  0  0  0  0  0  0  0  0  0
    0.3013    2.2994   -1.1163 C   0  0  0  0  0  0  0  0  0  0  0  0
    0.9066   -2.9730   -2.1393 C   0  0  0  0  0  0  0  0  0  0  0  0
   -0.8082   -1.4858   -2.9197 C   0  0  0  0  0  0  0  0  0  0  0  0
   -0.2814    4.2122    0.2328 C   0  0  0  0  0  0  0  0  0  0  0  0
   -1.4214   -3.7197   -2.0762 C   0  0  0  0  0  0  0  0  0  0  0  0
   -0.0135    3.4972    1.3932 C   0  0  0  0  0  0  0  0  0  0  0  0
   -0.1285    3.6264   -1.0195 C   0  0  0  0  0  0  0  0  0  0  0  0
   -5.1060   -3.3072   -3.2471 C   0  0  0  0  0  0  0  0  0  0  0  0
   -0.6741    5.4897    0.3191 F   0  0  0  0  0  0  0  0  0  0  0  0
   -6.3699   -3.5543   -2.6937 C   0  0  0  0  0  0  0  0  0  0  0  0
   -5.0292   -2.8650   -4.5764 C   0  0  0  0  0  0  0  0  0  0  0  0
   -7.5265   -3.3736   -3.4590 C   0  0  0  0  0  0  0  0  0  0  0  0
   -6.1848   -2.6880   -5.3404 C   0  0  0  0  0  0  0  0  0  0  0  0
   -7.4335   -2.9418   -4.7807 C   0  0  0  0  0  0  0  0  0  0  0  0
   -2.5867   -4.1035   -3.8960 H   0  0  0  0  0  0  0  0  0  0  0  0
    2.1414   -2.0918   -0.6018 H   0  0  0  0  0  0  0  0  0  0  0  0
    0.5587   -2.6168   -0.0162 H   0  0  0  0  0  0  0  0  0  0  0  0
   -1.5060   -1.0660   -0.8878 H   0  0  0  0  0  0  0  0  0  0  0  0
   -1.0586    0.3437   -1.8140 H   0  0  0  0  0  0  0  0  0  0  0  0
   -4.0284   -3.1036   -1.3639 H   0  0  0  0  0  0  0  0  0  0  0  0
    0.6120    1.6054    2.2075 H   0  0  0  0  0  0  0  0  0  0  0  0
    0.4780    1.8713   -2.0992 H   0  0  0  0  0  0  0  0  0  0  0  0
    1.6412   -2.6181   -2.8743 H   0  0  0  0  0  0  0  0  0  0  0  0
    1.1829   -4.0151   -1.9356 H   0  0  0  0  0  0  0  0  0  0  0  0
   -0.1136   -1.0194   -3.6305 H   0  0  0  0  0  0  0  0  0  0  0  0
   -1.7959   -1.3858   -3.3835 H   0  0  0  0  0  0  0  0  0  0  0  0
   -1.0536   -4.7502   -1.9919 H   0  0  0  0  0  0  0  0  0  0  0  0
   -1.5975   -3.3617   -1.0554 H   0  0  0  0  0  0  0  0  0  0  0  0
   -0.1043    3.9829    2.3598 H   0  0  0  0  0  0  0  0  0  0  0  0
   -0.3280    4.2123   -1.9114 H   0  0  0  0  0  0  0  0  0  0  0  0
   -6.4647   -3.8785   -1.6615 H   0  0  0  0  0  0  0  0  0  0  0  0
   -4.0675   -2.6327   -5.0276 H   0  0  0  0  0  0  0  0  0  0  0  0
   -8.5019   -3.5649   -3.0200 H   0  0  0  0  0  0  0  0  0  0  0  0
   -6.1075   -2.3416   -6.3671 H   0  0  0  0  0  0  0  0  0  0  0  0
   -8.3334   -2.7946   -5.3724 H   0  0  0  0  0  0  0  0  0  0  0  0
  2  1  1  0  0  0  0
  3 13  1  0  0  0  0
  4  1  1  0  0  0  0
  5  1  2  0  0  0  0
  6 15  1  0  0  0  0
  6 25  1  0  0  0  0
  7  2  1  0  0  0  0
  7 26  1  0  0  0  0
  7 27  1  0  0  0  0
  8  2  1  0  0  0  0
  8 28  1  0  0  0  0
  8 29  1  0  0  0  0
  9  6  2  0  0  0  0
  9 30  1  0  0  0  0
 10  4  2  0  0  0  0
 10 31  1  0  0  0  0
 11  4  1  0  0  0  0
 11 32  1  0  0  0  0
 12  7  1  0  0  0  0
 12  3  1  0  0  0  0
 12 33  1  0  0  0  0
 12 34  1  0  0  0  0
 13  8  1  0  0  0  0
 13 35  1  0  0  0  0
 13 36  1  0  0  0  0
 14 17  1  0  0  0  0
 15  3  1  0  0  0  0
 15 37  1  0  0  0  0
 15 38  1  0  0  0  0
 16 10  1  0  0  0  0
 16 14  2  0  0  0  0
 16 39  1  0  0  0  0
 17 11  2  0  0  0  0
 17 40  1  0  0  0  0
 18  9  1  0  0  0  0
 19 14  1  0  0  0  0
 20 18  2  0  0  0  0
 20 41  1  0  0  0  0
 21 18  1  0  0  0  0
 21 42  1  0  0  0  0
 22 20  1  0  0  0  0
 22 24  2  0  0  0  0
 22 43  1  0  0  0  0
 23 21  2  0  0  0  0
 23 44  1  0  0  0  0
 24 23  1  0  0  0  0
 24 45  1  0  0  0  0
M  END
>  <Mol_ID>
8643

>  <Formula>
C20H21FN2O

>  <MolWeight>
324.3919432

>  <Cat>
P2332

>  <Name>
WAY-324572

>  <Synonyms>
N/A

>  <Target>
Others

>  <Form>
free base

>  <CAS>
219988-92-8

>  <URL>
N/A

$$$$
