WAY-638741
 OpenBabel08302521433D

 49 53  0  0  0  0  0  0  0  0999 V2000
   -1.4069    1.0538   -1.3021 N   0  0  0  0  0  0  0  0  0  0  0  0
   -1.3318    1.4144   -0.0103 C   0  0  0  0  0  0  0  0  0  0  0  0
   -1.4913   -0.2625   -1.5530 C   0  0  0  0  0  0  0  0  0  0  0  0
   -1.2955    0.4656    1.0340 C   0  0  0  0  0  0  0  0  0  0  0  0
   -1.4921   -1.2421   -0.6315 N   0  0  0  0  0  0  0  0  0  0  0  0
   -1.3118    2.7817    0.3176 N   0  0  0  0  0  0  0  0  0  0  0  0
   -2.3550    6.8568    0.4807 C   0  0  0  0  0  0  0  0  0  0  0  0
   -1.8151    5.5767    0.5491 N   0  0  0  0  0  0  0  0  0  0  0  0
   -1.6723   -0.7066   -2.9416 C   0  0  0  0  0  0  0  0  0  0  0  0
   -1.3956   -0.8720    0.6467 C   0  0  0  0  0  0  0  0  0  0  0  0
   -1.7854    0.4173   -4.2386 S   0  0  0  0  0  0  0  0  0  0  0  0
   -0.7843    3.6933   -0.7177 C   0  0  0  0  0  0  0  0  0  0  0  0
   -2.6220    3.2503    0.8325 C   0  0  0  0  0  0  0  0  0  0  0  0
   -0.5575    5.0735   -0.0504 C   0  0  0  0  0  0  0  0  0  0  0  0
   -2.4265    4.6269    1.4897 C   0  0  0  0  0  0  0  0  0  0  0  0
   -3.2876    7.2089    1.2054 O   0  0  0  0  0  0  0  0  0  0  0  0
   -1.8007   -2.0045   -3.4162 C   0  0  0  0  0  0  0  0  0  0  0  0
   -1.8312    7.8664   -0.4733 C   0  0  0  0  0  0  0  0  0  0  0  0
   -2.0360   -0.8194   -5.3921 C   0  0  0  0  0  0  0  0  0  0  0  0
   -2.0169   -2.0697   -4.8218 C   0  0  0  0  0  0  0  0  0  0  0  0
   -1.1639    0.7838    2.4119 C   0  0  0  0  0  0  0  0  0  0  0  0
   -1.4102   -1.8491    1.6378 C   0  0  0  0  0  0  0  0  0  0  0  0
   -1.4295    7.5459   -1.7721 C   0  0  0  0  0  0  0  0  0  0  0  0
   -1.8191    9.2103   -0.0674 C   0  0  0  0  0  0  0  0  0  0  0  0
   -1.1984   -0.2062    3.3875 C   0  0  0  0  0  0  0  0  0  0  0  0
   -1.3286   -1.5298    2.9975 C   0  0  0  0  0  0  0  0  0  0  0  0
   -1.3291   10.1995   -0.9167 C   0  0  0  0  0  0  0  0  0  0  0  0
   -0.8976    8.5321   -2.6063 C   0  0  0  0  0  0  0  0  0  0  0  0
   -0.8412    9.8557   -2.1760 C   0  0  0  0  0  0  0  0  0  0  0  0
    0.1678    3.3273   -1.1197 H   0  0  0  0  0  0  0  0  0  0  0  0
   -1.4964    3.7953   -1.5474 H   0  0  0  0  0  0  0  0  0  0  0  0
   -3.3423    3.3301    0.0072 H   0  0  0  0  0  0  0  0  0  0  0  0
   -3.0489    2.5678    1.5750 H   0  0  0  0  0  0  0  0  0  0  0  0
    0.1570    4.9619    0.7757 H   0  0  0  0  0  0  0  0  0  0  0  0
   -0.1003    5.7740   -0.7452 H   0  0  0  0  0  0  0  0  0  0  0  0
   -1.7433    4.5396    2.3446 H   0  0  0  0  0  0  0  0  0  0  0  0
   -3.3855    4.9895    1.8701 H   0  0  0  0  0  0  0  0  0  0  0  0
   -1.7582   -2.8719   -2.7669 H   0  0  0  0  0  0  0  0  0  0  0  0
   -2.1868   -0.5686   -6.4337 H   0  0  0  0  0  0  0  0  0  0  0  0
   -2.1582   -2.9871   -5.3822 H   0  0  0  0  0  0  0  0  0  0  0  0
   -1.0397    1.8194    2.7214 H   0  0  0  0  0  0  0  0  0  0  0  0
   -1.4977   -2.8924    1.3437 H   0  0  0  0  0  0  0  0  0  0  0  0
   -1.5297    6.5339   -2.1523 H   0  0  0  0  0  0  0  0  0  0  0  0
   -2.2038    9.4861    0.9141 H   0  0  0  0  0  0  0  0  0  0  0  0
   -1.1268    0.0595    4.4384 H   0  0  0  0  0  0  0  0  0  0  0  0
   -1.3607   -2.3180    3.7446 H   0  0  0  0  0  0  0  0  0  0  0  0
   -1.3320   11.2406   -0.5981 H   0  0  0  0  0  0  0  0  0  0  0  0
   -0.5296    8.2631   -3.5939 H   0  0  0  0  0  0  0  0  0  0  0  0
   -0.4343   10.6246   -2.8321 H   0  0  0  0  0  0  0  0  0  0  0  0
  2  1  2  0  0  0  0
  3  1  1  0  0  0  0
  4  2  1  0  0  0  0
  4 10  2  0  0  0  0
  5  3  2  0  0  0  0
  6  2  1  0  0  0  0
  7  8  1  0  0  0  0
  8 15  1  0  0  0  0
  9  3  1  0  0  0  0
 10  5  1  0  0  0  0
 11  9  1  0  0  0  0
 12  6  1  0  0  0  0
 12 30  1  0  0  0  0
 12 31  1  0  0  0  0
 13  6  1  0  0  0  0
 13 32  1  0  0  0  0
 13 33  1  0  0  0  0
 14 12  1  0  0  0  0
 14  8  1  0  0  0  0
 14 34  1  0  0  0  0
 14 35  1  0  0  0  0
 15 13  1  0  0  0  0
 15 36  1  0  0  0  0
 15 37  1  0  0  0  0
 16  7  2  0  0  0  0
 17  9  2  0  0  0  0
 17 38  1  0  0  0  0
 18  7  1  0  0  0  0
 19 11  1  0  0  0  0
 19 20  2  0  0  0  0
 19 39  1  0  0  0  0
 20 17  1  0  0  0  0
 20 40  1  0  0  0  0
 21  4  1  0  0  0  0
 21 41  1  0  0  0  0
 22 10  1  0  0  0  0
 22 42  1  0  0  0  0
 23 18  2  0  0  0  0
 23 43  1  0  0  0  0
 24 18  1  0  0  0  0
 24 44  1  0  0  0  0
 25 21  2  0  0  0  0
 25 26  1  0  0  0  0
 25 45  1  0  0  0  0
 26 22  2  0  0  0  0
 26 46  1  0  0  0  0
 27 24  2  0  0  0  0
 27 47  1  0  0  0  0
 28 23  1  0  0  0  0
 28 48  1  0  0  0  0
 29 27  1  0  0  0  0
 29 28  2  0  0  0  0
 29 49  1  0  0  0  0
M  END
>  <Mol_ID>
8787

>  <Formula>
C23H20N4OS

>  <MolWeight>
400.4961

>  <Cat>
P3051

>  <Name>
WAY-638741

>  <Synonyms>
N/A

>  <Target>
glucocerebrosidase

>  <Form>
free base

>  <CAS>
796085-51-3

>  <URL>
N/A

$$$$
