WAY-604846
 OpenBabel08302521393D

 24 25  0  0  0  0  0  0  0  0999 V2000
    1.1700    0.1173   -0.0636 S   0  0  0  0  0  0  0  0  0  0  0  0
    0.3636    0.4228   -1.6245 C   0  0  0  0  0  0  0  0  0  0  0  0
   -1.3108    0.7735   -1.5497 S   0  0  0  0  0  0  0  0  0  0  0  0
   -1.4060    0.9934   -3.2441 C   0  0  0  0  0  0  0  0  0  0  0  0
    0.4075   -1.1977    0.6679 N   0  0  0  0  0  0  0  0  0  0  0  0
    0.8298    0.4501   -2.9255 C   0  0  0  0  0  0  0  0  0  0  0  0
   -0.1942    0.7773   -3.8623 C   0  0  0  0  0  0  0  0  0  0  0  0
    0.8879    1.2870    0.7358 O   0  0  0  0  0  0  0  0  0  0  0  0
    2.5169   -0.2694   -0.4162 O   0  0  0  0  0  0  0  0  0  0  0  0
    0.1027   -3.5640    0.9372 C   0  0  0  0  0  0  0  0  0  0  0  0
   -1.0028   -4.0483    0.2997 O   0  0  0  0  0  0  0  0  0  0  0  0
    0.8766   -2.5148    0.2239 C   0  0  0  0  0  0  0  0  0  0  0  0
    0.2710   -4.2165    2.1419 C   0  0  0  0  0  0  0  0  0  0  0  0
   -1.5188   -5.0270    1.0867 C   0  0  0  0  0  0  0  0  0  0  0  0
   -0.7709   -5.1704    2.2319 C   0  0  0  0  0  0  0  0  0  0  0  0
   -2.3453    1.2694   -3.7050 H   0  0  0  0  0  0  0  0  0  0  0  0
   -0.6082   -1.0988    0.6503 H   0  0  0  0  0  0  0  0  0  0  0  0
    1.8649    0.2573   -3.1841 H   0  0  0  0  0  0  0  0  0  0  0  0
   -0.0478    0.8622   -4.9327 H   0  0  0  0  0  0  0  0  0  0  0  0
    0.7433   -2.6265   -0.8565 H   0  0  0  0  0  0  0  0  0  0  0  0
    1.9378   -2.6348    0.4677 H   0  0  0  0  0  0  0  0  0  0  0  0
    1.0620   -4.0350    2.8598 H   0  0  0  0  0  0  0  0  0  0  0  0
   -2.3989   -5.5237    0.7010 H   0  0  0  0  0  0  0  0  0  0  0  0
   -0.9524   -5.8788    3.0283 H   0  0  0  0  0  0  0  0  0  0  0  0
  2  1  1  0  0  0  0
  3  2  1  0  0  0  0
  4  3  1  0  0  0  0
  4 16  1  0  0  0  0
  5  1  1  0  0  0  0
  5 17  1  0  0  0  0
  6  2  2  0  0  0  0
  6 18  1  0  0  0  0
  7  6  1  0  0  0  0
  7  4  2  0  0  0  0
  7 19  1  0  0  0  0
  8  1  2  0  0  0  0
  9  1  2  0  0  0  0
 10 12  1  0  0  0  0
 11 10  1  0  0  0  0
 12  5  1  0  0  0  0
 12 20  1  0  0  0  0
 12 21  1  0  0  0  0
 13 10  2  0  0  0  0
 13 22  1  0  0  0  0
 14 11  1  0  0  0  0
 14 15  2  0  0  0  0
 14 23  1  0  0  0  0
 15 13  1  0  0  0  0
 15 24  1  0  0  0  0
M  END
>  <Mol_ID>
8127

>  <Formula>
C9H8ClNO3S2

>  <MolWeight>
277.74772

>  <Cat>
P2841

>  <Name>
WAY-604846

>  <Synonyms>
N/A

>  <Target>
Anti-infection

>  <Form>
free base

>  <CAS>
380576-68-1

>  <URL>
N/A

$$$$
