WAY-301336
 OpenBabel08302521413D

 49 51  0  0  0  0  0  0  0  0999 V2000
    2.0079    2.0404   -0.3293 C   0  0  0  0  0  0  0  0  0  0  0  0
    1.6756    3.3404   -0.7539 C   0  0  0  0  0  0  0  0  0  0  0  0
    0.9947    1.0874   -0.2330 C   0  0  0  0  0  0  0  0  0  0  0  0
    3.4352    1.8283    0.0417 C   0  0  0  0  0  0  0  0  0  0  0  0
    0.3603    3.7262   -1.0337 C   0  0  0  0  0  0  0  0  0  0  0  0
   -0.3262    1.4633   -0.5089 C   0  0  0  0  0  0  0  0  0  0  0  0
    3.8768    0.5513    0.3207 N   0  0  0  0  0  0  0  0  0  0  0  0
    4.1664    2.8164    0.1308 O   0  0  0  0  0  0  0  0  0  0  0  0
   -0.6620    2.7774   -0.8883 C   0  0  0  0  0  0  0  0  0  0  0  0
    0.0421    4.9957   -1.4338 O   0  0  0  0  0  0  0  0  0  0  0  0
    5.1866    0.1640    0.5471 C   0  0  0  0  0  0  0  0  0  0  0  0
   -2.0112    2.9472   -1.0639 O   0  0  0  0  0  0  0  0  0  0  0  0
    1.0918    5.9486   -1.5556 C   0  0  0  0  0  0  0  0  0  0  0  0
    6.1211    1.1779    0.5153 N   0  0  0  0  0  0  0  0  0  0  0  0
    5.4564   -1.4530    0.8873 S   0  0  0  0  0  0  0  0  0  0  0  0
   -2.4999    4.2423   -1.3912 C   0  0  0  0  0  0  0  0  0  0  0  0
    7.4827    1.1236    0.1625 C   0  0  0  0  0  0  0  0  0  0  0  0
    7.9711    0.1508   -0.7091 C   0  0  0  0  0  0  0  0  0  0  0  0
    8.3442    2.1184    0.6249 C   0  0  0  0  0  0  0  0  0  0  0  0
    9.3208    0.0982   -1.0575 C   0  0  0  0  0  0  0  0  0  0  0  0
    9.7055    2.0577    0.3152 C   0  0  0  0  0  0  0  0  0  0  0  0
    9.8365   -0.8715   -1.9397 N   0  0  0  0  0  0  0  0  0  0  0  0
   10.1972    1.0340   -0.5022 C   0  0  0  0  0  0  0  0  0  0  0  0
    9.1062   -1.6818   -2.7977 C   0  0  0  0  0  0  0  0  0  0  0  0
    9.9154   -2.6502   -3.5088 C   0  0  0  0  0  0  0  0  0  0  0  0
    7.8980   -1.5976   -2.9977 O   0  0  0  0  0  0  0  0  0  0  0  0
    9.5562   -3.5927   -4.4548 C   0  0  0  0  0  0  0  0  0  0  0  0
   11.2632   -2.7267   -3.2720 O   0  0  0  0  0  0  0  0  0  0  0  0
   10.7401   -4.2807   -4.8119 C   0  0  0  0  0  0  0  0  0  0  0  0
   11.7473   -3.7189   -4.0637 C   0  0  0  0  0  0  0  0  0  0  0  0
    2.4879    4.0549   -0.8485 H   0  0  0  0  0  0  0  0  0  0  0  0
    1.1791    0.0628    0.0738 H   0  0  0  0  0  0  0  0  0  0  0  0
   -1.1247    0.7269   -0.4105 H   0  0  0  0  0  0  0  0  0  0  0  0
    3.2386   -0.2300    0.2854 H   0  0  0  0  0  0  0  0  0  0  0  0
    1.5854    6.1195   -0.5926 H   0  0  0  0  0  0  0  0  0  0  0  0
    1.8110    5.6446   -2.3238 H   0  0  0  0  0  0  0  0  0  0  0  0
    0.6487    6.8967   -1.8729 H   0  0  0  0  0  0  0  0  0  0  0  0
    5.7527    2.1118    0.7144 H   0  0  0  0  0  0  0  0  0  0  0  0
   -2.2254    4.9836   -0.6329 H   0  0  0  0  0  0  0  0  0  0  0  0
   -2.1750    4.5390   -2.3935 H   0  0  0  0  0  0  0  0  0  0  0  0
   -3.5918    4.1933   -1.4052 H   0  0  0  0  0  0  0  0  0  0  0  0
    7.2735   -0.5541   -1.1403 H   0  0  0  0  0  0  0  0  0  0  0  0
    7.9772    2.9202    1.2609 H   0  0  0  0  0  0  0  0  0  0  0  0
   10.3840    2.8103    0.7100 H   0  0  0  0  0  0  0  0  0  0  0  0
   10.8434   -0.9646   -2.0056 H   0  0  0  0  0  0  0  0  0  0  0  0
   11.2598    1.0078   -0.7288 H   0  0  0  0  0  0  0  0  0  0  0  0
    8.5524   -3.7494   -4.8281 H   0  0  0  0  0  0  0  0  0  0  0  0
   10.8393   -5.0870   -5.5241 H   0  0  0  0  0  0  0  0  0  0  0  0
   12.8087   -3.9058   -3.9849 H   0  0  0  0  0  0  0  0  0  0  0  0
  1  2  2  0  0  0  0
  1  3  1  0  0  0  0
  1  4  1  0  0  0  0
  2  5  1  0  0  0  0
  2 31  1  0  0  0  0
  3  6  2  0  0  0  0
  3 32  1  0  0  0  0
  4  7  1  0  0  0  0
  4  8  2  0  0  0  0
  5  9  2  0  0  0  0
  5 10  1  0  0  0  0
  6  9  1  0  0  0  0
  6 33  1  0  0  0  0
  7 11  1  0  0  0  0
  7 34  1  0  0  0  0
  9 12  1  0  0  0  0
 10 13  1  0  0  0  0
 11 14  1  0  0  0  0
 11 15  2  0  0  0  0
 12 16  1  0  0  0  0
 13 35  1  0  0  0  0
 13 36  1  0  0  0  0
 13 37  1  0  0  0  0
 14 17  1  0  0  0  0
 14 38  1  0  0  0  0
 16 39  1  0  0  0  0
 16 40  1  0  0  0  0
 16 41  1  0  0  0  0
 17 18  2  0  0  0  0
 17 19  1  0  0  0  0
 18 20  1  0  0  0  0
 18 42  1  0  0  0  0
 19 21  2  0  0  0  0
 19 43  1  0  0  0  0
 20 22  1  0  0  0  0
 20 23  2  0  0  0  0
 21 23  1  0  0  0  0
 21 44  1  0  0  0  0
 22 24  1  0  0  0  0
 22 45  1  0  0  0  0
 23 46  1  0  0  0  0
 24 25  1  0  0  0  0
 24 26  2  0  0  0  0
 25 27  2  0  0  0  0
 25 28  1  0  0  0  0
 27 29  1  0  0  0  0
 27 47  1  0  0  0  0
 28 30  1  0  0  0  0
 29 30  2  0  0  0  0
 29 48  1  0  0  0  0
 30 49  1  0  0  0  0
M  END
>  <Mol_ID>
8434

>  <Formula>
C21H19N3O5S

>  <MolWeight>
425.45766

>  <Cat>
P2167

>  <Name>
WAY-301336

>  <Synonyms>
N/A

>  <Target>
Smoothened

>  <Form>
free base

>  <CAS>
335214-03-4

>  <URL>
N/A

$$$$
