WAY-656661
 OpenBabel08302521423D

 54 58  0  0  0  0  0  0  0  0999 V2000
   -0.4517    5.3737    2.7249 C   0  0  0  0  0  0  0  0  0  0  0  0
    0.4429    3.3246    1.6586 C   0  0  0  0  0  0  0  0  0  0  0  0
    0.4500    4.7911    1.8265 C   0  0  0  0  0  0  0  0  0  0  0  0
   -1.1853    4.5669    3.6233 O   0  0  0  0  0  0  0  0  0  0  0  0
   -0.6945    6.7577    2.7633 C   0  0  0  0  0  0  0  0  0  0  0  0
   -1.0767    3.1892    3.6109 C   0  0  0  0  0  0  0  0  0  0  0  0
   -0.2702    2.5981    2.5325 C   0  0  0  0  0  0  0  0  0  0  0  0
    0.6441    3.2465   -0.8258 N   0  0  0  0  0  0  0  0  0  0  0  0
    1.1073    2.6748    0.4518 C   0  0  0  0  0  0  0  0  0  0  0  0
   -0.3633    1.2134   -2.8493 N   0  0  0  0  0  0  0  0  0  0  0  0
   -0.3211    1.1276   -7.7699 C   0  0  0  0  0  0  0  0  0  0  0  0
    1.2387    5.6470    1.0507 C   0  0  0  0  0  0  0  0  0  0  0  0
    0.0086    7.5584    1.8631 C   0  0  0  0  0  0  0  0  0  0  0  0
   -0.0593   -0.2197   -7.7778 C   0  0  0  0  0  0  0  0  0  0  0  0
   -0.3559    1.6606   -9.0190 O   0  0  0  0  0  0  0  0  0  0  0  0
    0.1097   -0.7081   -9.0366 O   0  0  0  0  0  0  0  0  0  0  0  0
   -0.0420    0.4988   -9.8136 C   0  0  0  0  0  0  0  0  0  0  0  0
   -0.5541    1.8113   -6.5905 C   0  0  0  0  0  0  0  0  0  0  0  0
   -1.6659    2.4744    4.4135 O   0  0  0  0  0  0  0  0  0  0  0  0
   -0.5133    1.1026   -5.3716 C   0  0  0  0  0  0  0  0  0  0  0  0
    1.0062    7.0236    1.0515 C   0  0  0  0  0  0  0  0  0  0  0  0
   -0.9044    1.8137   -4.0812 C   0  0  0  0  0  0  0  0  0  0  0  0
    0.0032   -0.9556   -6.6136 C   0  0  0  0  0  0  0  0  0  0  0  0
   -0.7851    3.0244   -1.1037 C   0  0  0  0  0  0  0  0  0  0  0  0
    1.4507    2.8306   -1.9832 C   0  0  0  0  0  0  0  0  0  0  0  0
    1.0738    1.4799   -2.6442 C   0  0  0  0  0  0  0  0  0  0  0  0
   -1.1286    1.6263   -1.6583 C   0  0  0  0  0  0  0  0  0  0  0  0
   -0.2383   -0.2840   -5.4047 C   0  0  0  0  0  0  0  0  0  0  0  0
   -0.3050    8.8831    1.7524 O   0  0  0  0  0  0  0  0  0  0  0  0
   -1.7126    7.3268    3.7088 C   0  0  0  0  0  0  0  0  0  0  0  0
   -0.3480    1.5196    2.4572 H   0  0  0  0  0  0  0  0  0  0  0  0
    2.1896    2.8324    0.5577 H   0  0  0  0  0  0  0  0  0  0  0  0
    0.9593    1.5874    0.4614 H   0  0  0  0  0  0  0  0  0  0  0  0
    2.0066    5.2561    0.3887 H   0  0  0  0  0  0  0  0  0  0  0  0
    0.8970    0.6875  -10.3460 H   0  0  0  0  0  0  0  0  0  0  0  0
   -0.8383    0.3470  -10.5516 H   0  0  0  0  0  0  0  0  0  0  0  0
   -0.7940    2.8714   -6.6167 H   0  0  0  0  0  0  0  0  0  0  0  0
    1.5924    7.6574    0.3926 H   0  0  0  0  0  0  0  0  0  0  0  0
   -2.0009    1.7439   -4.0601 H   0  0  0  0  0  0  0  0  0  0  0  0
   -0.6540    2.8795   -4.1447 H   0  0  0  0  0  0  0  0  0  0  0  0
    0.2029   -2.0174   -6.6347 H   0  0  0  0  0  0  0  0  0  0  0  0
   -1.3992    3.2143   -0.2148 H   0  0  0  0  0  0  0  0  0  0  0  0
   -1.1020    3.7841   -1.8277 H   0  0  0  0  0  0  0  0  0  0  0  0
    1.3512    3.6193   -2.7399 H   0  0  0  0  0  0  0  0  0  0  0  0
    2.5168    2.8183   -1.7216 H   0  0  0  0  0  0  0  0  0  0  0  0
    1.4579    0.6750   -2.0055 H   0  0  0  0  0  0  0  0  0  0  0  0
    1.6243    1.3885   -3.5885 H   0  0  0  0  0  0  0  0  0  0  0  0
   -0.9528    0.8803   -0.8736 H   0  0  0  0  0  0  0  0  0  0  0  0
   -2.2066    1.5788   -1.8604 H   0  0  0  0  0  0  0  0  0  0  0  0
   -0.2244   -0.8585   -4.4799 H   0  0  0  0  0  0  0  0  0  0  0  0
   -0.0194    9.1877    0.8743 H   0  0  0  0  0  0  0  0  0  0  0  0
   -2.6987    6.8958    3.5077 H   0  0  0  0  0  0  0  0  0  0  0  0
   -1.4271    7.1084    4.7433 H   0  0  0  0  0  0  0  0  0  0  0  0
   -1.8048    8.4135    3.6207 H   0  0  0  0  0  0  0  0  0  0  0  0
  2  3  1  0  0  0  0
  3  1  2  0  0  0  0
  4  1  1  0  0  0  0
  5  1  1  0  0  0  0
  6  4  1  0  0  0  0
  7  6  1  0  0  0  0
  7  2  2  0  0  0  0
  7 31  1  0  0  0  0
  8  9  1  0  0  0  0
  9  2  1  0  0  0  0
  9 32  1  0  0  0  0
  9 33  1  0  0  0  0
 10 26  1  0  0  0  0
 10 27  1  0  0  0  0
 11 18  2  0  0  0  0
 12  3  1  0  0  0  0
 12 34  1  0  0  0  0
 13  5  2  0  0  0  0
 14 23  2  0  0  0  0
 14 11  1  0  0  0  0
 15 11  1  0  0  0  0
 16 14  1  0  0  0  0
 17 15  1  0  0  0  0
 17 16  1  0  0  0  0
 17 35  1  0  0  0  0
 17 36  1  0  0  0  0
 18 20  1  0  0  0  0
 18 37  1  0  0  0  0
 19  6  2  0  0  0  0
 20 22  1  0  0  0  0
 21 13  1  0  0  0  0
 21 12  2  0  0  0  0
 21 38  1  0  0  0  0
 22 10  1  0  0  0  0
 22 39  1  0  0  0  0
 22 40  1  0  0  0  0
 23 28  1  0  0  0  0
 23 41  1  0  0  0  0
 24  8  1  0  0  0  0
 24 42  1  0  0  0  0
 24 43  1  0  0  0  0
 25  8  1  0  0  0  0
 25 44  1  0  0  0  0
 25 45  1  0  0  0  0
 26 25  1  0  0  0  0
 26 46  1  0  0  0  0
 26 47  1  0  0  0  0
 27 24  1  0  0  0  0
 27 48  1  0  0  0  0
 27 49  1  0  0  0  0
 28 20  2  0  0  0  0
 28 50  1  0  0  0  0
 29 13  1  0  0  0  0
 29 51  1  0  0  0  0
 30  5  1  0  0  0  0
 30 52  1  0  0  0  0
 30 53  1  0  0  0  0
 30 54  1  0  0  0  0
M  END
>  <Mol_ID>
8533

>  <Formula>
C23H24N2O5

>  <MolWeight>
408.44706

>  <Cat>
P3144

>  <Name>
WAY-656661

>  <Synonyms>
N/A

>  <Target>
others

>  <Form>
free base

>  <CAS>
852846-73-2

>  <URL>
N/A

$$$$
