WAY-327006
 OpenBabel08302521443D

 60 64  0  0  0  0  0  0  0  0999 V2000
    1.5397    0.7302    0.0288 C   0  0  0  0  0  0  0  0  0  0  0  0
    1.6136   -0.6343    0.0679 N   0  0  0  0  0  0  0  0  0  0  0  0
    2.7521    1.2224    0.0827 N   0  0  0  0  0  0  0  0  0  0  0  0
   -0.8591   -0.7115   -0.0342 C   0  0  0  0  0  0  0  0  0  0  0  0
    0.4357   -1.5049   -0.0789 C   0  0  3  0  0  0  0  0  0  0  0  0
    2.9003   -1.0600    0.1711 N   0  0  0  0  0  0  0  0  0  0  0  0
   -0.8711    0.6386   -0.0641 C   0  0  0  0  0  0  0  0  0  0  0  0
    0.3352    1.3300   -0.0726 N   0  0  0  0  0  0  0  0  0  0  0  0
    3.5534    0.1050    0.1499 C   0  0  0  0  0  0  0  0  0  0  0  0
    0.5756   -2.2909   -1.3668 C   0  0  0  0  0  0  0  0  0  0  0  0
    0.7975   -3.8123   -3.7232 C   0  0  0  0  0  0  0  0  0  0  0  0
    0.7613   -4.4460   -2.4588 C   0  0  0  0  0  0  0  0  0  0  0  0
    0.7292   -2.4029   -3.8009 C   0  0  0  0  0  0  0  0  0  0  0  0
   -2.1405   -1.4504    0.0652 C   0  0  0  0  0  0  0  0  0  0  0  0
    0.5986   -1.6639   -2.6202 C   0  0  0  0  0  0  0  0  0  0  0  0
    0.6782   -3.6772   -1.2988 C   0  0  0  0  0  0  0  0  0  0  0  0
    5.2891    0.2648    0.2996 S   0  0  0  0  0  0  0  0  0  0  0  0
   -2.1968   -2.6505   -0.1852 O   0  0  0  0  0  0  0  0  0  0  0  0
   -2.1355    1.4574   -0.0908 C   0  0  0  0  0  0  0  0  0  0  0  0
    0.9603   -4.6597   -4.7964 O   0  0  0  0  0  0  0  0  0  0  0  0
    0.8215   -1.8006   -5.0292 O   0  0  0  0  0  0  0  0  0  0  0  0
    0.8169   -5.8218   -2.4132 O   0  0  0  0  0  0  0  0  0  0  0  0
    5.9252   -1.2165   -0.5315 C   0  0  0  0  0  0  0  0  0  0  0  0
    7.4440   -1.2059   -0.6296 C   0  0  0  0  0  0  0  0  0  0  0  0
   -3.3285   -0.7052    0.6190 C   0  0  0  0  0  0  0  0  0  0  0  0
   -3.4560    0.6890    0.0342 C   0  0  0  0  0  0  0  0  0  0  0  0
    0.3271   -4.2899   -6.0144 C   0  0  0  0  0  0  0  0  0  0  0  0
    0.7500   -0.3803   -5.0928 C   0  0  0  0  0  0  0  0  0  0  0  0
    0.2986   -6.4141   -1.2210 C   0  0  0  0  0  0  0  0  0  0  0  0
    8.2373   -1.7385    0.4003 C   0  0  0  0  0  0  0  0  0  0  0  0
    8.0904   -0.6569   -1.7492 C   0  0  0  0  0  0  0  0  0  0  0  0
    9.6337   -1.7398    0.3032 C   0  0  0  0  0  0  0  0  0  0  0  0
    9.4880   -0.6596   -1.8453 C   0  0  0  0  0  0  0  0  0  0  0  0
   10.2589   -1.2035   -0.8203 C   0  0  0  0  0  0  0  0  0  0  0  0
    0.4710   -2.1636    0.7981 H   0  0  0  0  0  0  0  0  0  0  0  0
    0.2989    2.3470   -0.0564 H   0  0  0  0  0  0  0  0  0  0  0  0
    0.5335   -0.5808   -2.6473 H   0  0  0  0  0  0  0  0  0  0  0  0
    0.6832   -4.1388   -0.3167 H   0  0  0  0  0  0  0  0  0  0  0  0
   -2.1639    2.0130   -1.0417 H   0  0  0  0  0  0  0  0  0  0  0  0
   -2.0928    2.2146    0.7011 H   0  0  0  0  0  0  0  0  0  0  0  0
    5.6089   -2.1146    0.0111 H   0  0  0  0  0  0  0  0  0  0  0  0
    5.5038   -1.2884   -1.5409 H   0  0  0  0  0  0  0  0  0  0  0  0
   -3.2132   -0.6679    1.7072 H   0  0  0  0  0  0  0  0  0  0  0  0
   -4.2391   -1.2757    0.3998 H   0  0  0  0  0  0  0  0  0  0  0  0
   -3.9247    0.6192   -0.9555 H   0  0  0  0  0  0  0  0  0  0  0  0
   -4.1541    1.2703    0.6513 H   0  0  0  0  0  0  0  0  0  0  0  0
   -0.7169   -3.9971   -5.8586 H   0  0  0  0  0  0  0  0  0  0  0  0
    0.8894   -3.5147   -6.5415 H   0  0  0  0  0  0  0  0  0  0  0  0
    0.3333   -5.1665   -6.6699 H   0  0  0  0  0  0  0  0  0  0  0  0
   -0.2278   -0.0217   -4.7524 H   0  0  0  0  0  0  0  0  0  0  0  0
    1.5627    0.0873   -4.5260 H   0  0  0  0  0  0  0  0  0  0  0  0
    0.8660   -0.0830   -6.1389 H   0  0  0  0  0  0  0  0  0  0  0  0
    0.9737   -6.2522   -0.3723 H   0  0  0  0  0  0  0  0  0  0  0  0
   -0.7068   -6.0383   -0.9942 H   0  0  0  0  0  0  0  0  0  0  0  0
    0.2251   -7.4936   -1.3735 H   0  0  0  0  0  0  0  0  0  0  0  0
    7.7730   -2.1591    1.2896 H   0  0  0  0  0  0  0  0  0  0  0  0
    7.5118   -0.2233   -2.5609 H   0  0  0  0  0  0  0  0  0  0  0  0
   10.2352   -2.1590    1.1067 H   0  0  0  0  0  0  0  0  0  0  0  0
    9.9741   -0.2367   -2.7218 H   0  0  0  0  0  0  0  0  0  0  0  0
   11.3437   -1.2063   -0.8951 H   0  0  0  0  0  0  0  0  0  0  0  0
  2  1  1  0  0  0  0
  3  1  2  0  0  0  0
  4  7  2  0  0  0  0
  4  5  1  0  0  0  0
  5  2  1  0  0  0  0
  5 35  1  0  0  0  0
  6  2  1  0  0  0  0
  7  8  1  0  0  0  0
  8  1  1  0  0  0  0
  8 36  1  0  0  0  0
  9  3  1  0  0  0  0
  9  6  2  0  0  0  0
 10  5  1  0  0  0  0
 11 12  2  0  0  0  0
 11 13  1  0  0  0  0
 12 16  1  0  0  0  0
 13 15  2  0  0  0  0
 14  4  1  0  0  0  0
 14 25  1  0  0  0  0
 15 10  1  0  0  0  0
 15 37  1  0  0  0  0
 16 10  2  0  0  0  0
 16 38  1  0  0  0  0
 17  9  1  0  0  0  0
 18 14  2  0  0  0  0
 19  7  1  0  0  0  0
 19 39  1  0  0  0  0
 19 40  1  0  0  0  0
 20 11  1  0  0  0  0
 21 13  1  0  0  0  0
 22 12  1  0  0  0  0
 23 17  1  0  0  0  0
 23 41  1  0  0  0  0
 23 42  1  0  0  0  0
 24 23  1  0  0  0  0
 25 26  1  0  0  0  0
 25 43  1  0  0  0  0
 25 44  1  0  0  0  0
 26 19  1  0  0  0  0
 26 45  1  0  0  0  0
 26 46  1  0  0  0  0
 27 20  1  0  0  0  0
 27 47  1  0  0  0  0
 27 48  1  0  0  0  0
 27 49  1  0  0  0  0
 28 21  1  0  0  0  0
 28 50  1  0  0  0  0
 28 51  1  0  0  0  0
 28 52  1  0  0  0  0
 29 22  1  0  0  0  0
 29 53  1  0  0  0  0
 29 54  1  0  0  0  0
 29 55  1  0  0  0  0
 30 24  2  0  0  0  0
 30 56  1  0  0  0  0
 31 24  1  0  0  0  0
 31 57  1  0  0  0  0
 32 30  1  0  0  0  0
 32 58  1  0  0  0  0
 33 31  2  0  0  0  0
 33 59  1  0  0  0  0
 34 33  1  0  0  0  0
 34 32  2  0  0  0  0
 34 60  1  0  0  0  0
M  END
>  <Mol_ID>
8948

>  <Formula>
C25H26N4O4S

>  <MolWeight>
478.56334

>  <Cat>
P2507

>  <Name>
WAY-327006

>  <Synonyms>
N/A

>  <Target>
Anti-infection

>  <Form>
free base

>  <CAS>
536981-11-0

>  <URL>
N/A

$$$$
