WAY-325945
 OpenBabel08302521433D

 43 45  0  0  0  0  0  0  0  0999 V2000
    0.0748    1.2375    0.0315 C   0  0  0  0  0  0  0  0  0  0  0  0
    2.5628   -1.5102    0.0112 C   0  0  0  0  0  0  0  0  0  0  0  0
    1.2552   -0.7386    0.0090 C   0  0  0  0  0  0  0  0  0  0  0  0
    1.2630    0.6118    0.0341 N   0  0  0  0  0  0  0  0  0  0  0  0
   -1.1153    0.6165    0.0693 N   0  0  0  0  0  0  0  0  0  0  0  0
   -1.1085   -0.7335    0.0048 C   0  0  0  0  0  0  0  0  0  0  0  0
    0.0715   -1.4508   -0.0248 C   0  0  0  0  0  0  0  0  0  0  0  0
   -2.1408    3.0874   -1.5716 C   0  0  0  0  0  0  0  0  0  0  0  0
   -2.4201   -1.4127   -0.0964 C   0  0  0  0  0  0  0  0  0  0  0  0
    0.1765    3.0113   -0.0094 S   0  0  0  0  0  0  0  0  0  0  0  0
   -3.2454    3.8383   -1.9390 N   0  0  0  0  0  0  0  0  0  0  0  0
   -8.0924    2.8270   -2.9175 N   0  0  0  0  0  0  0  0  0  0  0  0
   -1.7122    2.1844   -2.2838 O   0  0  0  0  0  0  0  0  0  0  0  0
    3.6816   -0.7370    0.0316 F   0  0  0  0  0  0  0  0  0  0  0  0
    2.6616   -2.3409    1.0913 F   0  0  0  0  0  0  0  0  0  0  0  0
    2.6857   -2.3232   -1.0788 F   0  0  0  0  0  0  0  0  0  0  0  0
   -3.5012   -0.8172   -0.7781 C   0  0  0  0  0  0  0  0  0  0  0  0
   -2.6223   -2.7078    0.4275 C   0  0  0  0  0  0  0  0  0  0  0  0
   -1.5589    3.4841   -0.2208 C   0  0  0  0  0  0  0  0  0  0  0  0
   -4.8558   -2.7868   -0.4561 C   0  0  0  0  0  0  0  0  0  0  0  0
   -3.8715    3.6600   -3.2283 C   0  0  0  0  0  0  0  0  0  0  0  0
   -3.8249   -3.3960    0.2414 C   0  0  0  0  0  0  0  0  0  0  0  0
   -4.7095   -1.5018   -0.9558 C   0  0  0  0  0  0  0  0  0  0  0  0
   -6.0022   -3.4502   -0.6525 F   0  0  0  0  0  0  0  0  0  0  0  0
   -5.3406    3.3777   -3.0965 C   0  0  0  0  0  0  0  0  0  0  0  0
   -7.6262    4.0903   -3.0169 C   0  0  0  0  0  0  0  0  0  0  0  0
   -7.1708    1.8416   -2.8992 C   0  0  0  0  0  0  0  0  0  0  0  0
   -6.2812    4.4131   -3.1008 C   0  0  0  0  0  0  0  0  0  0  0  0
   -5.8057    2.0630   -2.9776 C   0  0  0  0  0  0  0  0  0  0  0  0
    0.0888   -2.5322   -0.1009 H   0  0  0  0  0  0  0  0  0  0  0  0
   -3.5417    4.6143   -1.3647 H   0  0  0  0  0  0  0  0  0  0  0  0
   -3.3868    0.1785   -1.2009 H   0  0  0  0  0  0  0  0  0  0  0  0
   -1.8352   -3.2116    0.9873 H   0  0  0  0  0  0  0  0  0  0  0  0
   -2.1732    3.0866    0.5911 H   0  0  0  0  0  0  0  0  0  0  0  0
   -1.5817    4.5774   -0.1526 H   0  0  0  0  0  0  0  0  0  0  0  0
   -3.7120    4.5860   -3.7937 H   0  0  0  0  0  0  0  0  0  0  0  0
   -3.3920    2.8561   -3.7970 H   0  0  0  0  0  0  0  0  0  0  0  0
   -3.9544   -4.4023    0.6277 H   0  0  0  0  0  0  0  0  0  0  0  0
   -5.5311   -1.0434   -1.4991 H   0  0  0  0  0  0  0  0  0  0  0  0
   -8.3898    4.8628   -3.0352 H   0  0  0  0  0  0  0  0  0  0  0  0
   -7.5724    0.8353   -2.8248 H   0  0  0  0  0  0  0  0  0  0  0  0
   -5.9789    5.4513   -3.1890 H   0  0  0  0  0  0  0  0  0  0  0  0
   -5.1148    1.2255   -2.9657 H   0  0  0  0  0  0  0  0  0  0  0  0
  2  3  1  0  0  0  0
  3  4  2  0  0  0  0
  3  7  1  0  0  0  0
  4  1  1  0  0  0  0
  5  1  2  0  0  0  0
  6  5  1  0  0  0  0
  7  6  2  0  0  0  0
  7 30  1  0  0  0  0
  8 19  1  0  0  0  0
  9  6  1  0  0  0  0
 10  1  1  0  0  0  0
 11  8  1  0  0  0  0
 11 31  1  0  0  0  0
 12 27  2  0  0  0  0
 13  8  2  0  0  0  0
 14  2  1  0  0  0  0
 15  2  1  0  0  0  0
 16  2  1  0  0  0  0
 17  9  2  0  0  0  0
 17 32  1  0  0  0  0
 18  9  1  0  0  0  0
 18 33  1  0  0  0  0
 19 10  1  0  0  0  0
 19 34  1  0  0  0  0
 19 35  1  0  0  0  0
 20 22  1  0  0  0  0
 21 11  1  0  0  0  0
 21 36  1  0  0  0  0
 21 37  1  0  0  0  0
 22 18  2  0  0  0  0
 22 38  1  0  0  0  0
 23 17  1  0  0  0  0
 23 20  2  0  0  0  0
 23 39  1  0  0  0  0
 24 20  1  0  0  0  0
 25 21  1  0  0  0  0
 26 28  2  0  0  0  0
 26 12  1  0  0  0  0
 26 40  1  0  0  0  0
 27 29  1  0  0  0  0
 27 41  1  0  0  0  0
 28 25  1  0  0  0  0
 28 42  1  0  0  0  0
 29 25  2  0  0  0  0
 29 43  1  0  0  0  0
M  END
>  <Mol_ID>
8861

>  <Formula>
C19H14F4N4OS

>  <MolWeight>
422.3992728

>  <Cat>
P2439

>  <Name>
WAY-325945

>  <Synonyms>
N/A

>  <Target>
CYP51

>  <Form>
free base

>  <CAS>
868972-48-9

>  <URL>
N/A

$$$$
