WAY-347453
 OpenBabel08302521413D

 38 40  0  0  0  0  0  0  0  0999 V2000
    1.5884   -0.6278   -0.0417 C   0  0  0  0  0  0  0  0  0  0  0  0
    0.8611    0.5457   -0.0277 N   0  0  0  0  0  0  0  0  0  0  0  0
    1.0068   -1.8844   -0.0041 N   0  0  0  0  0  0  0  0  0  0  0  0
   -0.3837   -1.9804   -0.0177 C   0  0  0  0  0  0  0  0  0  0  0  0
    2.8713   -0.3532   -0.0934 N   0  0  0  0  0  0  0  0  0  0  0  0
   -1.1728   -0.7138   -0.0098 C   0  0  0  0  0  0  0  0  0  0  0  0
   -0.5481    0.5432   -0.0096 C   0  0  0  0  0  0  0  0  0  0  0  0
    1.8154    1.5489   -0.0377 C   0  0  0  0  0  0  0  0  0  0  0  0
    3.0145    1.0020   -0.0820 N   0  0  0  0  0  0  0  0  0  0  0  0
    1.8225   -3.0981   -0.0338 C   0  0  0  0  0  0  0  0  0  0  0  0
   -0.9889   -3.0491   -0.0381 O   0  0  0  0  0  0  0  0  0  0  0  0
   -2.5731   -0.7971   -0.0050 C   0  0  0  0  0  0  0  0  0  0  0  0
    1.5942    3.0105   -0.0056 C   0  0  0  0  0  0  0  0  0  0  0  0
    2.7641   -3.2626    1.1672 C   0  0  0  0  0  0  0  0  0  0  0  0
   -1.3276    1.7041   -0.0026 C   0  0  0  0  0  0  0  0  0  0  0  0
    2.0822   -3.3086    2.5469 C   0  0  0  0  0  0  0  0  0  0  0  0
   -3.3458    0.3616    0.0025 C   0  0  0  0  0  0  0  0  0  0  0  0
   -2.7235    1.6075    0.0048 C   0  0  0  0  0  0  0  0  0  0  0  0
    1.1206   -4.4885    2.6828 C   0  0  0  0  0  0  0  0  0  0  0  0
    3.1554   -3.3902    3.6376 C   0  0  0  0  0  0  0  0  0  0  0  0
    1.1849   -3.9842   -0.1236 H   0  0  0  0  0  0  0  0  0  0  0  0
    2.4180   -3.0631   -0.9550 H   0  0  0  0  0  0  0  0  0  0  0  0
   -3.0674   -1.7679   -0.0086 H   0  0  0  0  0  0  0  0  0  0  0  0
    1.0523    3.3475   -0.8942 H   0  0  0  0  0  0  0  0  0  0  0  0
    1.0580    3.3112    0.8993 H   0  0  0  0  0  0  0  0  0  0  0  0
    2.5558    3.5353    0.0025 H   0  0  0  0  0  0  0  0  0  0  0  0
    3.3438   -4.1831    1.0192 H   0  0  0  0  0  0  0  0  0  0  0  0
    3.4982   -2.4482    1.1682 H   0  0  0  0  0  0  0  0  0  0  0  0
   -0.9096    2.7016   -0.0045 H   0  0  0  0  0  0  0  0  0  0  0  0
    1.5177   -2.3812    2.7032 H   0  0  0  0  0  0  0  0  0  0  0  0
   -4.4312    0.2916    0.0065 H   0  0  0  0  0  0  0  0  0  0  0  0
   -3.3301    2.5111    0.0107 H   0  0  0  0  0  0  0  0  0  0  0  0
    1.6293   -5.4387    2.4900 H   0  0  0  0  0  0  0  0  0  0  0  0
    0.6985   -4.5302    3.6928 H   0  0  0  0  0  0  0  0  0  0  0  0
    0.2826   -4.4041    1.9859 H   0  0  0  0  0  0  0  0  0  0  0  0
    3.7544   -4.3022    3.5354 H   0  0  0  0  0  0  0  0  0  0  0  0
    3.8339   -2.5329    3.5815 H   0  0  0  0  0  0  0  0  0  0  0  0
    2.7022   -3.3930    4.6344 H   0  0  0  0  0  0  0  0  0  0  0  0
  2  1  1  0  0  0  0
  3  1  1  0  0  0  0
  4  3  1  0  0  0  0
  5  1  2  0  0  0  0
  6  4  1  0  0  0  0
  7  2  1  0  0  0  0
  7  6  2  0  0  0  0
  8  2  1  0  0  0  0
  9  5  1  0  0  0  0
  9  8  2  0  0  0  0
 10  3  1  0  0  0  0
 10 21  1  0  0  0  0
 10 22  1  0  0  0  0
 11  4  2  0  0  0  0
 12  6  1  0  0  0  0
 12 23  1  0  0  0  0
 13  8  1  0  0  0  0
 13 24  1  0  0  0  0
 13 25  1  0  0  0  0
 13 26  1  0  0  0  0
 14 10  1  0  0  0  0
 14 27  1  0  0  0  0
 14 28  1  0  0  0  0
 15  7  1  0  0  0  0
 15 29  1  0  0  0  0
 16 14  1  0  0  0  0
 16 30  1  0  0  0  0
 17 12  2  0  0  0  0
 17 31  1  0  0  0  0
 18 15  2  0  0  0  0
 18 17  1  0  0  0  0
 18 32  1  0  0  0  0
 19 16  1  0  0  0  0
 19 33  1  0  0  0  0
 19 34  1  0  0  0  0
 19 35  1  0  0  0  0
 20 16  1  0  0  0  0
 20 36  1  0  0  0  0
 20 37  1  0  0  0  0
 20 38  1  0  0  0  0
M  END
>  <Mol_ID>
8459

>  <Formula>
C15H17ClN4O

>  <MolWeight>
304.77468

>  <Cat>
P2750

>  <Name>
WAY-347453

>  <Synonyms>
N/A

>  <Target>
Glutathione S-Transferase Omega 1

>  <Form>
free base

>  <CAS>
433704-82-6

>  <URL>
N/A

$$$$
