WAY-328226
 OpenBabel08302521443D

 48 50  0  0  0  0  0  0  0  0999 V2000
   -0.3458   -1.1320    0.1247 C   0  0  0  0  0  0  0  0  0  0  0  0
   -1.4563   -0.4154   -0.1155 N   0  0  0  0  0  0  0  0  0  0  0  0
    0.8153   -0.3662   -0.1011 C   0  0  0  0  0  0  0  0  0  0  0  0
    0.3551    0.8230   -0.6071 C   0  0  0  0  0  0  0  0  0  0  0  0
   -1.0071    0.8221   -0.5588 O   0  0  0  0  0  0  0  0  0  0  0  0
   -0.3671   -2.5515    0.4570 C   0  0  0  0  0  0  0  0  0  0  0  0
    1.0111    1.9667   -1.2188 C   0  0  0  0  0  0  0  0  0  0  0  0
   -1.9105   -5.4421    3.9081 N   0  0  0  0  0  0  0  0  0  0  0  0
    0.6129   -3.1340    0.9085 O   0  0  0  0  0  0  0  0  0  0  0  0
   -1.5452   -3.1836    0.1268 N   0  0  0  0  0  0  0  0  0  0  0  0
    0.0886   -7.2991    5.0155 O   0  0  0  0  0  0  0  0  0  0  0  0
    2.3729    1.8773   -1.5462 C   0  0  0  0  0  0  0  0  0  0  0  0
    0.3225    3.1421   -1.5397 C   0  0  0  0  0  0  0  0  0  0  0  0
    2.3533    4.1140   -2.4498 C   0  0  0  0  0  0  0  0  0  0  0  0
    0.9912    4.2042   -2.1599 C   0  0  0  0  0  0  0  0  0  0  0  0
    3.0392    2.9388   -2.1605 C   0  0  0  0  0  0  0  0  0  0  0  0
   -1.3799   -4.8952    2.6456 C   0  0  0  0  0  0  0  0  0  0  0  0
   -2.2686   -5.1661    1.4244 C   0  0  0  0  0  0  0  0  0  0  0  0
    2.9112    5.2112   -3.0449 O   0  0  0  0  0  0  0  0  0  0  0  0
   -1.0085   -5.0914    5.0355 C   0  0  0  0  0  0  0  0  0  0  0  0
   -2.0593   -6.9124    3.9075 C   0  0  0  0  0  0  0  0  0  0  0  0
   -1.6661   -4.6207    0.1334 C   0  0  0  0  0  0  0  0  0  0  0  0
    0.3143   -5.8829    5.0483 C   0  0  0  0  0  0  0  0  0  0  0  0
   -0.7204   -7.6650    3.8904 C   0  0  0  0  0  0  0  0  0  0  0  0
    4.2985    5.3961   -2.7771 C   0  0  0  0  0  0  0  0  0  0  0  0
    1.8390   -0.7011   -0.0187 H   0  0  0  0  0  0  0  0  0  0  0  0
   -2.2880   -2.6106   -0.2601 H   0  0  0  0  0  0  0  0  0  0  0  0
    2.9362    0.9694   -1.3454 H   0  0  0  0  0  0  0  0  0  0  0  0
   -0.7363    3.2465   -1.3196 H   0  0  0  0  0  0  0  0  0  0  0  0
    0.4465    5.1119   -2.4083 H   0  0  0  0  0  0  0  0  0  0  0  0
    4.0847    2.8063   -2.4164 H   0  0  0  0  0  0  0  0  0  0  0  0
   -0.3677   -5.2592    2.4377 H   0  0  0  0  0  0  0  0  0  0  0  0
   -1.3063   -3.8082    2.7729 H   0  0  0  0  0  0  0  0  0  0  0  0
   -3.2630   -4.7335    1.5849 H   0  0  0  0  0  0  0  0  0  0  0  0
   -2.3966   -6.2427    1.2761 H   0  0  0  0  0  0  0  0  0  0  0  0
   -1.5500   -5.3077    5.9659 H   0  0  0  0  0  0  0  0  0  0  0  0
   -0.8046   -4.0142    5.0474 H   0  0  0  0  0  0  0  0  0  0  0  0
   -2.5971   -7.1846    4.8258 H   0  0  0  0  0  0  0  0  0  0  0  0
   -2.7015   -7.2511    3.0895 H   0  0  0  0  0  0  0  0  0  0  0  0
   -2.3085   -4.8869   -0.7133 H   0  0  0  0  0  0  0  0  0  0  0  0
   -0.6835   -5.0721   -0.0485 H   0  0  0  0  0  0  0  0  0  0  0  0
    0.9639   -5.6045    4.2109 H   0  0  0  0  0  0  0  0  0  0  0  0
    0.8629   -5.6623    5.9696 H   0  0  0  0  0  0  0  0  0  0  0  0
   -0.9048   -8.7414    3.9535 H   0  0  0  0  0  0  0  0  0  0  0  0
   -0.1611   -7.4841    2.9647 H   0  0  0  0  0  0  0  0  0  0  0  0
    4.4983    5.3796   -1.6994 H   0  0  0  0  0  0  0  0  0  0  0  0
    4.9080    4.6529   -3.2999 H   0  0  0  0  0  0  0  0  0  0  0  0
    4.5840    6.3825   -3.1565 H   0  0  0  0  0  0  0  0  0  0  0  0
  2  1  2  0  0  0  0
  3  1  1  0  0  0  0
  3 26  1  0  0  0  0
  4  3  2  0  0  0  0
  5  2  1  0  0  0  0
  5  4  1  0  0  0  0
  6  1  1  0  0  0  0
  7  4  1  0  0  0  0
  8 17  1  0  0  0  0
  9  6  2  0  0  0  0
 10  6  1  0  0  0  0
 10 27  1  0  0  0  0
 11 24  1  0  0  0  0
 12  7  2  0  0  0  0
 12 28  1  0  0  0  0
 13  7  1  0  0  0  0
 13 29  1  0  0  0  0
 14 15  1  0  0  0  0
 15 13  2  0  0  0  0
 15 30  1  0  0  0  0
 16 12  1  0  0  0  0
 16 14  2  0  0  0  0
 16 31  1  0  0  0  0
 17 18  1  0  0  0  0
 17 32  1  0  0  0  0
 17 33  1  0  0  0  0
 18 22  1  0  0  0  0
 18 34  1  0  0  0  0
 18 35  1  0  0  0  0
 19 14  1  0  0  0  0
 20  8  1  0  0  0  0
 20 36  1  0  0  0  0
 20 37  1  0  0  0  0
 21  8  1  0  0  0  0
 21 38  1  0  0  0  0
 21 39  1  0  0  0  0
 22 10  1  0  0  0  0
 22 40  1  0  0  0  0
 22 41  1  0  0  0  0
 23 20  1  0  0  0  0
 23 11  1  0  0  0  0
 23 42  1  0  0  0  0
 23 43  1  0  0  0  0
 24 21  1  0  0  0  0
 24 44  1  0  0  0  0
 24 45  1  0  0  0  0
 25 19  1  0  0  0  0
 25 46  1  0  0  0  0
 25 47  1  0  0  0  0
 25 48  1  0  0  0  0
M  END
>  <Mol_ID>
9008

>  <Formula>
C18H23N3O4

>  <MolWeight>
345.39292

>  <Cat>
P2574

>  <Name>
WAY-328226

>  <Synonyms>
N/A

>  <Target>
CFTR

>  <Form>
free base

>  <CAS>
688050-45-5

>  <URL>
N/A

$$$$
