WAY-638106
 OpenBabel08302521423D

 59 62  0  0  0  0  0  0  0  0999 V2000
   -0.1213    0.8728    0.0600 N   0  0  0  0  0  0  0  0  0  0  0  0
   -1.2577    0.1688   -0.2428 C   0  0  0  0  0  0  0  0  0  0  0  0
    0.7961    0.0343    0.5967 C   0  0  0  0  0  0  0  0  0  0  0  0
   -1.0060   -1.3520    0.0338 C   0  0  0  0  0  0  0  0  0  0  0  0
    0.4061   -1.2596    0.3724 N   0  0  0  0  0  0  0  0  0  0  0  0
   -0.0006    2.3166    0.1090 C   0  0  0  0  0  0  0  0  0  0  0  0
    0.3094    2.8952   -1.2786 C   0  0  0  0  0  0  0  0  0  0  0  0
   -2.8016    3.8414   -3.9406 N   0  0  0  0  0  0  0  0  0  0  0  0
   -0.7061    3.4832   -2.0171 N   0  0  0  0  0  0  0  0  0  0  0  0
   -3.8074    4.0595   -4.8725 C   0  0  0  0  0  0  0  0  0  0  0  0
   -2.3253    0.6779   -0.5802 O   0  0  0  0  0  0  0  0  0  0  0  0
    1.7681    0.3269    1.2707 O   0  0  0  0  0  0  0  0  0  0  0  0
   -1.2588   -2.2193   -1.2083 C   0  0  0  0  0  0  0  0  0  0  0  0
   -1.6968   -1.9038    1.2999 C   0  0  0  0  0  0  0  0  0  0  0  0
   -3.1026    3.2868   -2.6187 C   0  0  0  0  0  0  0  0  0  0  0  0
   -1.4235    3.6781   -4.4005 C   0  0  0  0  0  0  0  0  0  0  0  0
   -0.4010    4.0850   -3.3242 C   0  0  0  0  0  0  0  0  0  0  0  0
   -2.0802    3.7201   -1.5654 C   0  0  0  0  0  0  0  0  0  0  0  0
   -3.6150    4.2754   -6.0607 O   0  0  0  0  0  0  0  0  0  0  0  0
    1.4495    2.7807   -1.7391 O   0  0  0  0  0  0  0  0  0  0  0  0
   -5.0356    4.0205   -4.2952 O   0  0  0  0  0  0  0  0  0  0  0  0
   -0.2323   -2.9823   -1.8029 C   0  0  0  0  0  0  0  0  0  0  0  0
   -2.5577   -2.3430   -1.7424 C   0  0  0  0  0  0  0  0  0  0  0  0
   -2.4315   -1.0981    2.1852 C   0  0  0  0  0  0  0  0  0  0  0  0
   -1.4706   -3.2493    1.6721 C   0  0  0  0  0  0  0  0  0  0  0  0
   -6.1470    4.2653   -5.1616 C   0  0  0  0  0  0  0  0  0  0  0  0
   -7.3899    4.3031   -4.2928 C   0  0  0  0  0  0  0  0  0  0  0  0
   -2.8203   -3.2188   -2.8007 C   0  0  0  0  0  0  0  0  0  0  0  0
   -2.8950   -1.6104    3.4024 C   0  0  0  0  0  0  0  0  0  0  0  0
   -1.9331   -3.7563    2.8873 C   0  0  0  0  0  0  0  0  0  0  0  0
   -0.5012   -3.8586   -2.8561 C   0  0  0  0  0  0  0  0  0  0  0  0
   -1.7927   -3.9864   -3.3491 C   0  0  0  0  0  0  0  0  0  0  0  0
   -2.6394   -2.9333    3.7560 C   0  0  0  0  0  0  0  0  0  0  0  0
    0.8677   -1.9734    0.9168 H   0  0  0  0  0  0  0  0  0  0  0  0
   -0.8821    2.7479    0.5765 H   0  0  0  0  0  0  0  0  0  0  0  0
    0.8459    2.5897    0.7520 H   0  0  0  0  0  0  0  0  0  0  0  0
   -4.1002    3.5807   -2.2796 H   0  0  0  0  0  0  0  0  0  0  0  0
   -3.0991    2.1962   -2.7296 H   0  0  0  0  0  0  0  0  0  0  0  0
   -1.2956    2.6186   -4.6525 H   0  0  0  0  0  0  0  0  0  0  0  0
   -1.2566    4.2581   -5.3149 H   0  0  0  0  0  0  0  0  0  0  0  0
   -0.4343    5.1735   -3.1821 H   0  0  0  0  0  0  0  0  0  0  0  0
    0.6089    3.8333   -3.6618 H   0  0  0  0  0  0  0  0  0  0  0  0
   -2.1653    4.7982   -1.3831 H   0  0  0  0  0  0  0  0  0  0  0  0
   -2.3095    3.2187   -0.6289 H   0  0  0  0  0  0  0  0  0  0  0  0
    0.7894   -2.9192   -1.4404 H   0  0  0  0  0  0  0  0  0  0  0  0
   -3.3858   -1.7720   -1.3254 H   0  0  0  0  0  0  0  0  0  0  0  0
   -2.6381   -0.0530    1.9672 H   0  0  0  0  0  0  0  0  0  0  0  0
   -0.9000   -3.9130    1.0238 H   0  0  0  0  0  0  0  0  0  0  0  0
   -6.0228    5.2248   -5.6755 H   0  0  0  0  0  0  0  0  0  0  0  0
   -6.2254    3.4553   -5.8942 H   0  0  0  0  0  0  0  0  0  0  0  0
   -7.5212    3.3484   -3.7691 H   0  0  0  0  0  0  0  0  0  0  0  0
   -7.2954    5.0726   -3.5177 H   0  0  0  0  0  0  0  0  0  0  0  0
   -8.2838    4.5056   -4.8863 H   0  0  0  0  0  0  0  0  0  0  0  0
   -3.8310   -3.3156   -3.1915 H   0  0  0  0  0  0  0  0  0  0  0  0
   -3.4424   -0.9674    4.0878 H   0  0  0  0  0  0  0  0  0  0  0  0
   -1.7243   -4.7878    3.1608 H   0  0  0  0  0  0  0  0  0  0  0  0
    0.3060   -4.4553   -3.2830 H   0  0  0  0  0  0  0  0  0  0  0  0
   -2.0038   -4.6845   -4.1548 H   0  0  0  0  0  0  0  0  0  0  0  0
   -2.9848   -3.3203    4.7114 H   0  0  0  0  0  0  0  0  0  0  0  0
  2  1  1  0  0  0  0
  3  1  1  0  0  0  0
  4  2  1  0  0  0  0
  4  5  1  0  0  0  0
  5  3  1  0  0  0  0
  5 34  1  0  0  0  0
  6  1  1  0  0  0  0
  6 35  1  0  0  0  0
  6 36  1  0  0  0  0
  7  6  1  0  0  0  0
  8 15  1  0  0  0  0
  9  7  1  0  0  0  0
 10  8  1  0  0  0  0
 11  2  2  0  0  0  0
 12  3  2  0  0  0  0
 13  4  1  0  0  0  0
 14  4  1  0  0  0  0
 15 18  1  0  0  0  0
 15 37  1  0  0  0  0
 15 38  1  0  0  0  0
 16 17  1  0  0  0  0
 16  8  1  0  0  0  0
 16 39  1  0  0  0  0
 16 40  1  0  0  0  0
 17  9  1  0  0  0  0
 17 41  1  0  0  0  0
 17 42  1  0  0  0  0
 18  9  1  0  0  0  0
 18 43  1  0  0  0  0
 18 44  1  0  0  0  0
 19 10  2  0  0  0  0
 20  7  2  0  0  0  0
 21 10  1  0  0  0  0
 22 13  2  0  0  0  0
 22 45  1  0  0  0  0
 23 13  1  0  0  0  0
 23 46  1  0  0  0  0
 24 14  2  0  0  0  0
 24 47  1  0  0  0  0
 25 14  1  0  0  0  0
 25 48  1  0  0  0  0
 26 21  1  0  0  0  0
 26 49  1  0  0  0  0
 26 50  1  0  0  0  0
 27 26  1  0  0  0  0
 27 51  1  0  0  0  0
 27 52  1  0  0  0  0
 27 53  1  0  0  0  0
 28 23  2  0  0  0  0
 28 54  1  0  0  0  0
 29 24  1  0  0  0  0
 29 55  1  0  0  0  0
 30 25  2  0  0  0  0
 30 56  1  0  0  0  0
 31 22  1  0  0  0  0
 31 57  1  0  0  0  0
 32 28  1  0  0  0  0
 32 31  2  0  0  0  0
 32 58  1  0  0  0  0
 33 30  1  0  0  0  0
 33 29  2  0  0  0  0
 33 59  1  0  0  0  0
M  END
>  <Mol_ID>
8503

>  <Formula>
C24H26N4O5

>  <MolWeight>
450.48704

>  <Cat>
P3029

>  <Name>
WAY-638106

>  <Synonyms>
N/A

>  <Target>
others

>  <Form>
free base

>  <CAS>
92084-79-2

>  <URL>
N/A

$$$$
