WAY-325439
 OpenBabel08302521433D

 43 45  0  0  0  0  0  0  0  0999 V2000
   -0.0997    1.0523   -0.5022 C   0  0  0  0  0  0  0  0  0  0  0  0
   -0.6598    2.3983   -0.5004 C   0  0  0  0  0  0  0  0  0  0  0  0
   -0.2801    5.2472   -2.7491 C   0  0  0  0  0  0  0  0  0  0  0  0
    0.0583    3.2929   -1.2818 N   0  0  0  0  0  0  0  0  0  0  0  0
   -0.9378   -0.0241   -0.3544 O   0  0  0  0  0  0  0  0  0  0  0  0
   -0.2907    4.6552   -1.4671 C   0  0  0  0  0  0  0  0  0  0  0  0
   -0.1854    4.4833   -4.0312 C   0  0  0  0  0  0  0  0  0  0  0  0
    1.2057    0.5974   -0.5826 C   0  0  0  0  0  0  0  0  0  0  0  0
   -0.1687   -1.1563   -0.3272 C   0  0  0  0  0  0  0  0  0  0  0  0
    1.1613   -0.8141   -0.4597 C   0  0  0  0  0  0  0  0  0  0  0  0
   -1.6928    2.6993    0.0975 O   0  0  0  0  0  0  0  0  0  0  0  0
   -0.1689    5.0077   -5.1335 O   0  0  0  0  0  0  0  0  0  0  0  0
   -1.0520   -3.1850   -1.2254 O   0  0  0  0  0  0  0  0  0  0  0  0
   -0.8616   -2.4410   -0.0180 C   0  0  0  0  0  0  0  0  0  0  0  0
   -1.8073   -4.3337   -1.0851 C   0  0  0  0  0  0  0  0  0  0  0  0
   -0.1849    3.1463   -3.8026 O   0  0  0  0  0  0  0  0  0  0  0  0
   -3.4122   -6.6436   -1.0339 C   0  0  0  0  0  0  0  0  0  0  0  0
   -0.4818    6.6363   -2.8728 C   0  0  0  0  0  0  0  0  0  0  0  0
   -2.1681   -4.9226    0.1292 C   0  0  0  0  0  0  0  0  0  0  0  0
   -2.2237   -4.9371   -2.2756 C   0  0  0  0  0  0  0  0  0  0  0  0
   -3.0283   -6.0846   -2.2508 C   0  0  0  0  0  0  0  0  0  0  0  0
   -2.9733   -6.0675    0.1572 C   0  0  0  0  0  0  0  0  0  0  0  0
   -0.5534    5.4573   -0.3472 C   0  0  0  0  0  0  0  0  0  0  0  0
   -0.3258    2.3346   -4.9698 C   0  0  0  0  0  0  0  0  0  0  0  0
   -0.7024    7.4268   -1.7451 C   0  0  0  0  0  0  0  0  0  0  0  0
   -0.7516    6.8361   -0.4860 C   0  0  0  0  0  0  0  0  0  0  0  0
    0.5254    2.8550   -2.0715 H   0  0  0  0  0  0  0  0  0  0  0  0
    2.0894    1.2168   -0.6508 H   0  0  0  0  0  0  0  0  0  0  0  0
    1.9996   -1.4968   -0.4131 H   0  0  0  0  0  0  0  0  0  0  0  0
   -0.2257   -3.0135    0.6675 H   0  0  0  0  0  0  0  0  0  0  0  0
   -1.8259   -2.2249    0.4574 H   0  0  0  0  0  0  0  0  0  0  0  0
   -4.0455   -7.5249   -1.0089 H   0  0  0  0  0  0  0  0  0  0  0  0
   -0.4842    7.1061   -3.8564 H   0  0  0  0  0  0  0  0  0  0  0  0
   -1.8444   -4.5213    1.0843 H   0  0  0  0  0  0  0  0  0  0  0  0
   -1.9369   -4.5114   -3.2325 H   0  0  0  0  0  0  0  0  0  0  0  0
   -3.3637   -6.5370   -3.1805 H   0  0  0  0  0  0  0  0  0  0  0  0
   -3.2544   -6.5110    1.1081 H   0  0  0  0  0  0  0  0  0  0  0  0
   -0.5718    5.0270    0.6524 H   0  0  0  0  0  0  0  0  0  0  0  0
   -1.2646    2.5638   -5.4841 H   0  0  0  0  0  0  0  0  0  0  0  0
    0.5313    2.4699   -5.6346 H   0  0  0  0  0  0  0  0  0  0  0  0
   -0.3574    1.2901   -4.6457 H   0  0  0  0  0  0  0  0  0  0  0  0
   -0.8517    8.4992   -1.8522 H   0  0  0  0  0  0  0  0  0  0  0  0
   -0.9350    7.4467    0.3934 H   0  0  0  0  0  0  0  0  0  0  0  0
  2  1  1  0  0  0  0
  3  6  2  0  0  0  0
  4  2  1  0  0  0  0
  4 27  1  0  0  0  0
  5  1  1  0  0  0  0
  6  4  1  0  0  0  0
  7  3  1  0  0  0  0
  8  1  2  0  0  0  0
  8 28  1  0  0  0  0
  9  5  1  0  0  0  0
  9 10  2  0  0  0  0
 10  8  1  0  0  0  0
 10 29  1  0  0  0  0
 11  2  2  0  0  0  0
 12  7  2  0  0  0  0
 13 14  1  0  0  0  0
 14  9  1  0  0  0  0
 14 30  1  0  0  0  0
 14 31  1  0  0  0  0
 15 13  1  0  0  0  0
 16  7  1  0  0  0  0
 17 21  2  0  0  0  0
 17 32  1  0  0  0  0
 18  3  1  0  0  0  0
 18 25  2  0  0  0  0
 18 33  1  0  0  0  0
 19 15  1  0  0  0  0
 19 34  1  0  0  0  0
 20 15  2  0  0  0  0
 20 35  1  0  0  0  0
 21 20  1  0  0  0  0
 21 36  1  0  0  0  0
 22 19  2  0  0  0  0
 22 17  1  0  0  0  0
 22 37  1  0  0  0  0
 23  6  1  0  0  0  0
 23 38  1  0  0  0  0
 24 16  1  0  0  0  0
 24 39  1  0  0  0  0
 24 40  1  0  0  0  0
 24 41  1  0  0  0  0
 25 26  1  0  0  0  0
 25 42  1  0  0  0  0
 26 23  2  0  0  0  0
 26 43  1  0  0  0  0
M  END
>  <Mol_ID>
8695

>  <Formula>
C20H16ClNO5

>  <MolWeight>
385.79774

>  <Cat>
P2394

>  <Name>
WAY-325439

>  <Synonyms>
N/A

>  <Target>
Others

>  <Form>
free base

>  <CAS>
445029-92-5

>  <URL>
N/A

$$$$
