WAY-300018
 OpenBabel08302521413D

 44 46  0  0  0  0  0  0  0  0999 V2000
   -1.0549   -1.6737   -0.6246 C   0  0  0  0  0  0  0  0  0  0  0  0
    0.1584   -0.9935   -0.1700 C   0  0  0  0  0  0  0  0  0  0  0  0
   -2.1582   -1.1880    0.0855 C   0  0  0  0  0  0  0  0  0  0  0  0
   -1.0317   -2.6016   -1.7611 C   0  0  0  0  0  0  0  0  0  0  0  0
   -0.0914   -0.0077    0.7707 C   0  0  0  0  0  0  0  0  0  0  0  0
    1.5591   -1.2454   -0.6722 C   0  0  0  0  0  0  0  0  0  0  0  0
   -1.7507    0.1311    1.1036 S   0  0  0  0  0  0  0  0  0  0  0  0
   -3.5210   -1.4211    0.0290 N   0  0  0  0  0  0  0  0  0  0  0  0
   -1.8576   -3.6728   -1.7760 N   0  0  0  0  0  0  0  0  0  0  0  0
   -0.1970   -2.5071   -2.6792 O   0  0  0  0  0  0  0  0  0  0  0  0
    0.9552    0.8465    1.4294 C   0  0  0  0  0  0  0  0  0  0  0  0
    2.6263   -0.6931    0.2812 C   0  0  0  0  0  0  0  0  0  0  0  0
   -4.0807   -2.6286    0.4566 C   0  0  0  0  0  0  0  0  0  0  0  0
    2.3094    0.7441    0.7035 C   0  0  0  0  0  0  0  0  0  0  0  0
   -5.6325   -2.6573    0.3402 C   0  0  0  0  0  0  0  0  0  0  0  0
   -3.4428   -3.6038    0.8297 O   0  0  0  0  0  0  0  0  0  0  0  0
   -6.3690   -2.2660    1.4958 O   0  0  0  0  0  0  0  0  0  0  0  0
   -7.7402   -2.3804    1.3486 C   0  0  0  0  0  0  0  0  0  0  0  0
   -8.3436   -3.3349    0.5219 C   0  0  0  0  0  0  0  0  0  0  0  0
   -8.5589   -1.5314    2.0920 C   0  0  0  0  0  0  0  0  0  0  0  0
   -9.7269   -3.3888    0.3276 C   0  0  0  0  0  0  0  0  0  0  0  0
   -9.9529   -1.5977    1.9482 C   0  0  0  0  0  0  0  0  0  0  0  0
  -10.5319   -2.5047    1.0519 C   0  0  0  0  0  0  0  0  0  0  0  0
  -10.2579   -4.3965   -0.6539 C   0  0  0  0  0  0  0  0  0  0  0  0
  -12.4191   -2.5087    0.8690 Br  0  0  0  0  0  0  0  0  0  0  0  0
    1.6687   -0.7664   -1.6533 H   0  0  0  0  0  0  0  0  0  0  0  0
    1.7362   -2.3184   -0.7961 H   0  0  0  0  0  0  0  0  0  0  0  0
   -4.1215   -0.6035    0.0169 H   0  0  0  0  0  0  0  0  0  0  0  0
   -1.6115   -4.3524   -2.4796 H   0  0  0  0  0  0  0  0  0  0  0  0
   -2.1646   -4.0502   -0.8749 H   0  0  0  0  0  0  0  0  0  0  0  0
    1.0842    0.5094    2.4653 H   0  0  0  0  0  0  0  0  0  0  0  0
    0.6479    1.8975    1.4604 H   0  0  0  0  0  0  0  0  0  0  0  0
    3.6069   -0.7345   -0.2085 H   0  0  0  0  0  0  0  0  0  0  0  0
    2.6887   -1.3275    1.1742 H   0  0  0  0  0  0  0  0  0  0  0  0
    3.1076    1.1224    1.3543 H   0  0  0  0  0  0  0  0  0  0  0  0
    2.3015    1.3839   -0.1883 H   0  0  0  0  0  0  0  0  0  0  0  0
   -5.9027   -1.9899   -0.4864 H   0  0  0  0  0  0  0  0  0  0  0  0
   -5.8657   -3.6785    0.0163 H   0  0  0  0  0  0  0  0  0  0  0  0
   -7.7462   -4.0864    0.0226 H   0  0  0  0  0  0  0  0  0  0  0  0
   -8.1277   -0.8191    2.7915 H   0  0  0  0  0  0  0  0  0  0  0  0
  -10.5844   -0.9387    2.5403 H   0  0  0  0  0  0  0  0  0  0  0  0
  -10.9430   -5.0907   -0.1612 H   0  0  0  0  0  0  0  0  0  0  0  0
  -10.7615   -3.8862   -1.4806 H   0  0  0  0  0  0  0  0  0  0  0  0
   -9.4481   -4.9926   -1.0907 H   0  0  0  0  0  0  0  0  0  0  0  0
  1  2  1  0  0  0  0
  1  3  2  0  0  0  0
  1  4  1  0  0  0  0
  2  5  2  0  0  0  0
  2  6  1  0  0  0  0
  3  7  1  0  0  0  0
  3  8  1  0  0  0  0
  4  9  1  0  0  0  0
  4 10  2  0  0  0  0
  5 11  1  0  0  0  0
  5  7  1  0  0  0  0
  6 12  1  0  0  0  0
  6 26  1  0  0  0  0
  6 27  1  0  0  0  0
  8 13  1  0  0  0  0
  8 28  1  0  0  0  0
  9 29  1  0  0  0  0
  9 30  1  0  0  0  0
 11 14  1  0  0  0  0
 11 31  1  0  0  0  0
 11 32  1  0  0  0  0
 12 14  1  0  0  0  0
 12 33  1  0  0  0  0
 12 34  1  0  0  0  0
 13 15  1  0  0  0  0
 13 16  2  0  0  0  0
 14 35  1  0  0  0  0
 14 36  1  0  0  0  0
 15 17  1  0  0  0  0
 15 37  1  0  0  0  0
 15 38  1  0  0  0  0
 17 18  1  0  0  0  0
 18 19  2  0  0  0  0
 18 20  1  0  0  0  0
 19 21  1  0  0  0  0
 19 39  1  0  0  0  0
 20 22  2  0  0  0  0
 20 40  1  0  0  0  0
 21 23  2  0  0  0  0
 21 24  1  0  0  0  0
 22 23  1  0  0  0  0
 22 41  1  0  0  0  0
 23 25  1  0  0  0  0
 24 42  1  0  0  0  0
 24 43  1  0  0  0  0
 24 44  1  0  0  0  0
M  END
>  <Mol_ID>
8384

>  <Formula>
C18H19BrN2O3S

>  <MolWeight>
423.32406

>  <Cat>
P2128

>  <Name>
WAY-300018

>  <Synonyms>
N/A

>  <Target>
Anti-infection

>  <Form>
free base

>  <CAS>
302553-28-2

>  <URL>
N/A

$$$$
