WAY-324653
 OpenBabel08302521423D

 37 39  0  0  0  0  0  0  0  0999 V2000
    4.1308    2.2655   -0.5024 C   0  0  0  0  0  0  0  0  0  0  0  0
    5.9774    2.7941   -1.9693 C   0  0  0  0  0  0  0  0  0  0  0  0
    4.7697    3.1315   -1.4147 O   0  0  0  0  0  0  0  0  0  0  0  0
    2.7395    2.5761   -0.0560 C   0  0  0  0  0  0  0  0  0  0  0  0
    4.6998    1.1499   -0.0299 C   0  0  0  0  0  0  0  0  0  0  0  0
    6.0713    0.8630   -0.3974 C   0  0  0  0  0  0  0  0  0  0  0  0
    6.7022    1.6484   -1.3626 C   0  0  0  0  0  0  0  0  0  0  0  0
    2.4238    3.9197   -0.1466 N   0  0  0  0  0  0  0  0  0  0  0  0
   -1.2917    4.3318    0.1806 C   0  0  0  0  0  0  0  0  0  0  0  0
    6.4671    3.4372   -2.8899 O   0  0  0  0  0  0  0  0  0  0  0  0
    1.1465    4.4947    0.0251 C   0  0  0  0  0  0  0  0  0  0  0  0
    2.0183    1.6793    0.3672 O   0  0  0  0  0  0  0  0  0  0  0  0
   -0.0153    3.7403    0.2022 C   0  0  0  0  0  0  0  0  0  0  0  0
   -1.4006    5.7245    0.0322 C   0  0  0  0  0  0  0  0  0  0  0  0
   -0.2266    6.4901   -0.0568 C   0  0  0  0  0  0  0  0  0  0  0  0
    1.0331    5.8819   -0.0701 C   0  0  0  0  0  0  0  0  0  0  0  0
    6.7771   -0.1668    0.2354 C   0  0  0  0  0  0  0  0  0  0  0  0
    8.0320    1.3871   -1.7168 C   0  0  0  0  0  0  0  0  0  0  0  0
   -2.4938    3.4326    0.2786 C   0  0  0  0  0  0  0  0  0  0  0  0
   -2.7214    6.4364   -0.0716 C   0  0  0  0  0  0  0  0  0  0  0  0
    8.1125   -0.3992   -0.0881 C   0  0  0  0  0  0  0  0  0  0  0  0
    8.7373    0.3693   -1.0700 C   0  0  0  0  0  0  0  0  0  0  0  0
    4.1748    0.4774    0.6413 H   0  0  0  0  0  0  0  0  0  0  0  0
    3.1732    4.5474   -0.4142 H   0  0  0  0  0  0  0  0  0  0  0  0
    0.0365    2.6619    0.3131 H   0  0  0  0  0  0  0  0  0  0  0  0
   -0.2912    7.5725   -0.1521 H   0  0  0  0  0  0  0  0  0  0  0  0
    1.9134    6.5098   -0.1758 H   0  0  0  0  0  0  0  0  0  0  0  0
    6.3016   -0.7716    1.0059 H   0  0  0  0  0  0  0  0  0  0  0  0
    8.5291    1.9866   -2.4771 H   0  0  0  0  0  0  0  0  0  0  0  0
   -3.0610    3.6494    1.1886 H   0  0  0  0  0  0  0  0  0  0  0  0
   -3.1344    3.5598   -0.5997 H   0  0  0  0  0  0  0  0  0  0  0  0
   -2.2055    2.3759    0.3104 H   0  0  0  0  0  0  0  0  0  0  0  0
   -2.8375    7.1444    0.7545 H   0  0  0  0  0  0  0  0  0  0  0  0
   -2.7710    6.9813   -1.0210 H   0  0  0  0  0  0  0  0  0  0  0  0
   -3.5762    5.7558   -0.0481 H   0  0  0  0  0  0  0  0  0  0  0  0
    8.6670   -1.1773    0.4316 H   0  0  0  0  0  0  0  0  0  0  0  0
    9.7794    0.1834   -1.3211 H   0  0  0  0  0  0  0  0  0  0  0  0
  2  3  1  0  0  0  0
  3  1  1  0  0  0  0
  4  1  1  0  0  0  0
  5  1  2  0  0  0  0
  5 23  1  0  0  0  0
  6  5  1  0  0  0  0
  7  2  1  0  0  0  0
  7  6  2  0  0  0  0
  8  4  1  0  0  0  0
  8 24  1  0  0  0  0
  9 13  2  0  0  0  0
 10  2  2  0  0  0  0
 11  8  1  0  0  0  0
 12  4  2  0  0  0  0
 13 11  1  0  0  0  0
 13 25  1  0  0  0  0
 14 15  2  0  0  0  0
 14  9  1  0  0  0  0
 15 16  1  0  0  0  0
 15 26  1  0  0  0  0
 16 11  2  0  0  0  0
 16 27  1  0  0  0  0
 17  6  1  0  0  0  0
 17 28  1  0  0  0  0
 18  7  1  0  0  0  0
 18 29  1  0  0  0  0
 19  9  1  0  0  0  0
 19 30  1  0  0  0  0
 19 31  1  0  0  0  0
 19 32  1  0  0  0  0
 20 14  1  0  0  0  0
 20 33  1  0  0  0  0
 20 34  1  0  0  0  0
 20 35  1  0  0  0  0
 21 17  2  0  0  0  0
 21 36  1  0  0  0  0
 22 18  2  0  0  0  0
 22 21  1  0  0  0  0
 22 37  1  0  0  0  0
M  END
>  <Mol_ID>
8647

>  <Formula>
C18H15NO3

>  <MolWeight>
293.3166

>  <Cat>
P2337

>  <Name>
WAY-324653

>  <Synonyms>
N/A

>  <Target>
Androgen Receptor

>  <Form>
free base

>  <CAS>
354999-94-3

>  <URL>
N/A

$$$$
