WAY-606724
 OpenBabel08302521433D

 41 44  0  0  0  0  0  0  0  0999 V2000
   -0.9337   -0.9988   -0.1437 C   0  0  0  0  0  0  0  0  0  0  0  0
    0.4166   -1.2930    0.0401 N   0  0  0  0  0  0  0  0  0  0  0  0
   -1.1709    0.7296   -0.3795 S   0  0  0  0  0  0  0  0  0  0  0  0
    0.4770    1.0636   -0.0390 C   0  0  0  0  0  0  0  0  0  0  0  0
   -2.0051   -1.8165   -0.0832 C   0  0  0  0  0  0  0  0  0  0  0  0
    1.2694   -0.1815    0.1275 C   0  0  0  0  0  0  0  0  0  0  0  0
    1.0726    2.2593    0.0763 C   0  0  0  0  0  0  0  0  0  0  0  0
   -2.0871   -3.2412    0.3919 C   0  0  0  0  0  0  0  0  0  0  0  0
    1.0401   -2.5652   -0.1019 C   0  0  0  0  0  0  0  0  0  0  0  0
    2.4864   -0.1654    0.2686 O   0  0  0  0  0  0  0  0  0  0  0  0
   -0.4240    5.4564   -1.2291 N   0  0  0  0  0  0  0  0  0  0  0  0
   -1.2174   -3.8550    0.9855 O   0  0  0  0  0  0  0  0  0  0  0  0
   -3.4394   -1.4507   -0.4147 C   0  0  0  0  0  0  0  0  0  0  0  0
    0.4172    3.5643    0.0304 C   0  0  0  0  0  0  0  0  0  0  0  0
   -3.4524   -3.8076    0.1357 C   0  0  0  0  0  0  0  0  0  0  0  0
    0.1516    4.2313   -1.1604 C   0  0  0  0  0  0  0  0  0  0  0  0
   -4.2970   -2.5503    0.2031 C   0  0  0  0  0  0  0  0  0  0  0  0
   -0.7458    6.0424   -0.0548 C   0  0  0  0  0  0  0  0  0  0  0  0
    1.9792   -2.9981    0.8437 C   0  0  0  0  0  0  0  0  0  0  0  0
    0.7778   -3.3664   -1.2229 C   0  0  0  0  0  0  0  0  0  0  0  0
    0.0703    4.2030    1.2220 C   0  0  0  0  0  0  0  0  0  0  0  0
   -0.5214    5.4621    1.1827 C   0  0  0  0  0  0  0  0  0  0  0  0
    1.4359   -4.5882   -1.3812 C   0  0  0  0  0  0  0  0  0  0  0  0
    2.6187   -4.2290    0.6933 C   0  0  0  0  0  0  0  0  0  0  0  0
    2.3486   -5.0215   -0.4217 C   0  0  0  0  0  0  0  0  0  0  0  0
    2.1432    2.3100    0.2738 H   0  0  0  0  0  0  0  0  0  0  0  0
   -3.7487   -0.4786   -0.0205 H   0  0  0  0  0  0  0  0  0  0  0  0
   -3.5686   -1.4499   -1.5036 H   0  0  0  0  0  0  0  0  0  0  0  0
   -3.4765   -4.2807   -0.8504 H   0  0  0  0  0  0  0  0  0  0  0  0
   -3.7377   -4.5238    0.9105 H   0  0  0  0  0  0  0  0  0  0  0  0
    0.4101    3.7981   -2.1229 H   0  0  0  0  0  0  0  0  0  0  0  0
   -5.2544   -2.6691   -0.3129 H   0  0  0  0  0  0  0  0  0  0  0  0
   -4.5141   -2.3049    1.2512 H   0  0  0  0  0  0  0  0  0  0  0  0
   -1.2017    7.0251   -0.1362 H   0  0  0  0  0  0  0  0  0  0  0  0
    2.1958   -2.3931    1.7207 H   0  0  0  0  0  0  0  0  0  0  0  0
    0.0884   -3.0366   -1.9936 H   0  0  0  0  0  0  0  0  0  0  0  0
    0.2655    3.7303    2.1813 H   0  0  0  0  0  0  0  0  0  0  0  0
   -0.7952    5.9787    2.0956 H   0  0  0  0  0  0  0  0  0  0  0  0
    1.2379   -5.2018   -2.2553 H   0  0  0  0  0  0  0  0  0  0  0  0
    3.3233   -4.5668    1.4484 H   0  0  0  0  0  0  0  0  0  0  0  0
    2.8508   -5.9774   -0.5389 H   0  0  0  0  0  0  0  0  0  0  0  0
  2  1  1  0  0  0  0
  3  1  1  0  0  0  0
  4  3  1  0  0  0  0
  5  1  2  0  0  0  0
  6  2  1  0  0  0  0
  6  4  1  0  0  0  0
  7  4  2  0  0  0  0
  7 26  1  0  0  0  0
  8  5  1  0  0  0  0
  9  2  1  0  0  0  0
 10  6  2  0  0  0  0
 11 16  2  0  0  0  0
 12  8  2  0  0  0  0
 13  5  1  0  0  0  0
 13 27  1  0  0  0  0
 13 28  1  0  0  0  0
 14  7  1  0  0  0  0
 15  8  1  0  0  0  0
 15 29  1  0  0  0  0
 15 30  1  0  0  0  0
 16 14  1  0  0  0  0
 16 31  1  0  0  0  0
 17 13  1  0  0  0  0
 17 15  1  0  0  0  0
 17 32  1  0  0  0  0
 17 33  1  0  0  0  0
 18 22  2  0  0  0  0
 18 11  1  0  0  0  0
 18 34  1  0  0  0  0
 19  9  2  0  0  0  0
 19 35  1  0  0  0  0
 20  9  1  0  0  0  0
 20 36  1  0  0  0  0
 21 14  2  0  0  0  0
 21 37  1  0  0  0  0
 22 21  1  0  0  0  0
 22 38  1  0  0  0  0
 23 20  2  0  0  0  0
 23 39  1  0  0  0  0
 24 19  1  0  0  0  0
 24 40  1  0  0  0  0
 25 23  1  0  0  0  0
 25 24  2  0  0  0  0
 25 41  1  0  0  0  0
M  END
>  <Mol_ID>
8727

>  <Formula>
C20H16N2O2S

>  <MolWeight>
348.41824

>  <Cat>
P2870

>  <Name>
WAY-606724

>  <Synonyms>
N/A

>  <Target>
RNA-binding proteins

>  <Form>
free base

>  <CAS>
519049-15-1

>  <URL>
N/A

$$$$
