WAY-621846
 OpenBabel08302521443D

 36 38  0  0  0  0  0  0  0  0999 V2000
    1.2561   -1.2952   -0.0425 N   0  0  0  0  0  0  0  0  0  0  0  0
    0.0285   -0.5865    0.0290 C   0  0  0  0  0  0  0  0  0  0  0  0
    2.4591   -0.6425   -0.1387 C   0  0  0  0  0  0  0  0  0  0  0  0
    2.4308    0.7105   -0.0019 N   0  0  0  0  0  0  0  0  0  0  0  0
    0.0113    0.8148    0.0212 C   0  0  0  0  0  0  0  0  0  0  0  0
    1.3194    1.5048   -0.0194 C   0  0  0  0  0  0  0  0  0  0  0  0
   -1.1142   -1.3221    0.0436 N   0  0  0  0  0  0  0  0  0  0  0  0
   -1.2321    1.4806    0.0280 C   0  0  0  0  0  0  0  0  0  0  0  0
    1.2450   -2.7580   -0.0277 C   0  0  0  0  0  0  0  0  0  0  0  0
    3.5367   -1.1986   -0.3566 O   0  0  0  0  0  0  0  0  0  0  0  0
    1.4501    2.7197   -0.1006 O   0  0  0  0  0  0  0  0  0  0  0  0
   -2.3968    0.6986    0.0311 C   0  0  0  0  0  0  0  0  0  0  0  0
   -2.3033   -0.6834    0.0407 C   0  0  0  0  0  0  0  0  0  0  0  0
    1.3235   -3.3257    1.3768 C   0  0  0  0  0  0  0  0  0  0  0  0
   -1.4503    2.9713    0.0134 C   0  0  0  0  0  0  0  0  0  0  0  0
   -3.5349   -1.5380    0.0258 C   0  0  0  0  0  0  0  0  0  0  0  0
    0.1530   -3.6124    2.0940 C   0  0  0  0  0  0  0  0  0  0  0  0
    2.5627   -3.5330    2.0024 C   0  0  0  0  0  0  0  0  0  0  0  0
    2.6254   -3.9874    3.3225 C   0  0  0  0  0  0  0  0  0  0  0  0
    0.2168   -4.0604    3.4147 C   0  0  0  0  0  0  0  0  0  0  0  0
    1.4526   -4.2380    4.0324 C   0  0  0  0  0  0  0  0  0  0  0  0
    3.3185    1.1827   -0.0937 H   0  0  0  0  0  0  0  0  0  0  0  0
    0.3667   -3.1473   -0.5563 H   0  0  0  0  0  0  0  0  0  0  0  0
    2.1031   -3.1326   -0.6015 H   0  0  0  0  0  0  0  0  0  0  0  0
   -3.3740    1.1766    0.0179 H   0  0  0  0  0  0  0  0  0  0  0  0
   -2.0015    3.2519   -0.8930 H   0  0  0  0  0  0  0  0  0  0  0  0
   -2.0413    3.2623    0.8906 H   0  0  0  0  0  0  0  0  0  0  0  0
   -0.5475    3.5727    0.0349 H   0  0  0  0  0  0  0  0  0  0  0  0
   -3.5410   -2.1622   -0.8730 H   0  0  0  0  0  0  0  0  0  0  0  0
   -3.5539   -2.1832    0.9093 H   0  0  0  0  0  0  0  0  0  0  0  0
   -4.4471   -0.9328    0.0255 H   0  0  0  0  0  0  0  0  0  0  0  0
   -0.8202   -3.4741    1.6279 H   0  0  0  0  0  0  0  0  0  0  0  0
    3.4892   -3.3326    1.4666 H   0  0  0  0  0  0  0  0  0  0  0  0
    3.5904   -4.1363    3.8005 H   0  0  0  0  0  0  0  0  0  0  0  0
   -0.6995   -4.2607    3.9634 H   0  0  0  0  0  0  0  0  0  0  0  0
    1.5014   -4.5692    5.0664 H   0  0  0  0  0  0  0  0  0  0  0  0
  2  1  1  0  0  0  0
  3  1  1  0  0  0  0
  4  3  1  0  0  0  0
  4 22  1  0  0  0  0
  5  2  2  0  0  0  0
  5  6  1  0  0  0  0
  6  4  1  0  0  0  0
  7  2  1  0  0  0  0
  8  5  1  0  0  0  0
  9  1  1  0  0  0  0
  9 23  1  0  0  0  0
  9 24  1  0  0  0  0
 10  3  2  0  0  0  0
 11  6  2  0  0  0  0
 12 13  1  0  0  0  0
 12  8  2  0  0  0  0
 12 25  1  0  0  0  0
 13  7  2  0  0  0  0
 14  9  1  0  0  0  0
 15  8  1  0  0  0  0
 15 26  1  0  0  0  0
 15 27  1  0  0  0  0
 15 28  1  0  0  0  0
 16 13  1  0  0  0  0
 16 29  1  0  0  0  0
 16 30  1  0  0  0  0
 16 31  1  0  0  0  0
 17 14  2  0  0  0  0
 17 32  1  0  0  0  0
 18 14  1  0  0  0  0
 18 33  1  0  0  0  0
 19 18  2  0  0  0  0
 19 34  1  0  0  0  0
 20 17  1  0  0  0  0
 20 21  2  0  0  0  0
 20 35  1  0  0  0  0
 21 19  1  0  0  0  0
 21 36  1  0  0  0  0
M  END
>  <Mol_ID>
9059

>  <Formula>
C16H15N3O2

>  <MolWeight>
281.3092

>  <Cat>
P2980

>  <Name>
WAY-621846

>  <Synonyms>
N/A

>  <Target>
JAMM

>  <Form>
free base

>  <CAS>
745035-00-1

>  <URL>
N/A

$$$$
