WAY-621360-A
 OpenBabel08302521443D

 46 49  0  0  0  0  0  0  0  0999 V2000
    2.3749   -0.3068   -0.5171 C   0  0  0  0  0  0  0  0  0  0  0  0
    2.0754    1.1092   -0.5267 C   0  0  0  0  0  0  0  0  0  0  0  0
    2.9036   -1.3515    0.4132 C   0  0  0  0  0  0  0  0  0  0  0  0
    2.0564   -0.9424   -1.7266 C   0  0  0  0  0  0  0  0  0  0  0  0
    3.1656   -2.5315   -0.2753 C   0  0  0  0  0  0  0  0  0  0  0  0
    2.5692    2.1113    0.3661 N   0  0  0  0  0  0  0  0  0  0  0  0
    2.5684   -2.5562   -1.8528 S   0  0  0  0  0  0  0  0  0  0  0  0
    1.4162    1.6076   -1.6161 N   0  0  0  0  0  0  0  0  0  0  0  0
    1.4412   -0.4359   -2.8029 N   0  0  0  0  0  0  0  0  0  0  0  0
    2.2427    4.2348    3.3674 N   0  0  0  0  0  0  0  0  0  0  0  0
    3.1570   -1.4073    1.8811 C   0  0  0  0  0  0  0  0  0  0  0  0
    1.5766    3.2275    0.6300 C   0  0  0  0  0  0  0  0  0  0  0  0
    1.1242    0.8380   -2.6586 C   0  0  0  0  0  0  0  0  0  0  0  0
    0.8206    2.8498    1.9003 C   0  0  0  0  0  0  0  0  0  0  0  0
    2.0999    4.6673    0.8701 C   0  0  0  0  0  0  0  0  0  0  0  0
    2.8429    4.8971    2.1980 C   0  0  0  0  0  0  0  0  0  0  0  0
    1.8100    2.8735    3.0605 C   0  0  0  0  0  0  0  0  0  0  0  0
    3.0016   -2.6200    2.5932 C   0  0  0  0  0  0  0  0  0  0  0  0
    3.5727   -0.3004    2.6086 C   0  0  0  0  0  0  0  0  0  0  0  0
    3.6531   -1.5894    4.6732 C   0  0  0  0  0  0  0  0  0  0  0  0
    3.8110   -0.3848    3.9973 C   0  0  0  0  0  0  0  0  0  0  0  0
    3.2629   -2.7195    3.9734 C   0  0  0  0  0  0  0  0  0  0  0  0
    3.9232    2.4613   -0.0723 C   0  0  0  0  0  0  0  0  0  0  0  0
    3.2090    4.1875    4.4753 C   0  0  0  0  0  0  0  0  0  0  0  0
    3.6298   -3.4361    0.0919 H   0  0  0  0  0  0  0  0  0  0  0  0
    0.8597    3.3212   -0.1935 H   0  0  0  0  0  0  0  0  0  0  0  0
    0.6040    1.3064   -3.4849 H   0  0  0  0  0  0  0  0  0  0  0  0
   -0.0001    3.5596    2.0862 H   0  0  0  0  0  0  0  0  0  0  0  0
    0.3622    1.8583    1.8010 H   0  0  0  0  0  0  0  0  0  0  0  0
    1.2194    5.3320    0.8862 H   0  0  0  0  0  0  0  0  0  0  0  0
    2.7012    5.0340    0.0314 H   0  0  0  0  0  0  0  0  0  0  0  0
    2.8617    5.9716    2.3948 H   0  0  0  0  0  0  0  0  0  0  0  0
    3.8858    4.5873    2.0617 H   0  0  0  0  0  0  0  0  0  0  0  0
    2.6837    2.2658    2.8346 H   0  0  0  0  0  0  0  0  0  0  0  0
    1.3244    2.4202    3.9311 H   0  0  0  0  0  0  0  0  0  0  0  0
    2.6846   -3.5356    2.0969 H   0  0  0  0  0  0  0  0  0  0  0  0
    3.7512    0.6378    2.1112 H   0  0  0  0  0  0  0  0  0  0  0  0
    3.8408   -1.6503    5.7392 H   0  0  0  0  0  0  0  0  0  0  0  0
    4.1215    0.5045    4.5343 H   0  0  0  0  0  0  0  0  0  0  0  0
    3.1492   -3.6762    4.4802 H   0  0  0  0  0  0  0  0  0  0  0  0
    4.6458    2.0285    0.6288 H   0  0  0  0  0  0  0  0  0  0  0  0
    4.1770    2.0934   -1.0746 H   0  0  0  0  0  0  0  0  0  0  0  0
    4.1170    3.5347   -0.0869 H   0  0  0  0  0  0  0  0  0  0  0  0
    2.8501    3.5406    5.2843 H   0  0  0  0  0  0  0  0  0  0  0  0
    4.1825    3.8016    4.1598 H   0  0  0  0  0  0  0  0  0  0  0  0
    3.3483    5.1859    4.9042 H   0  0  0  0  0  0  0  0  0  0  0  0
  2  1  1  0  0  0  0
  3  1  1  0  0  0  0
  4  1  2  0  0  0  0
  5  3  2  0  0  0  0
  5 25  1  0  0  0  0
  6  2  1  0  0  0  0
  7  4  1  0  0  0  0
  7  5  1  0  0  0  0
  8  2  2  0  0  0  0
  8 13  1  0  0  0  0
  9  4  1  0  0  0  0
 10 16  1  0  0  0  0
 11  3  1  0  0  0  0
 12  6  1  0  0  0  0
 12 26  1  0  0  0  0
 13  9  2  0  0  0  0
 13 27  1  0  0  0  0
 14 12  1  0  0  0  0
 14 28  1  0  0  0  0
 14 29  1  0  0  0  0
 15 12  1  0  0  0  0
 15 30  1  0  0  0  0
 15 31  1  0  0  0  0
 16 15  1  0  0  0  0
 16 32  1  0  0  0  0
 16 33  1  0  0  0  0
 17 14  1  0  0  0  0
 17 10  1  0  0  0  0
 17 34  1  0  0  0  0
 17 35  1  0  0  0  0
 18 11  2  0  0  0  0
 18 36  1  0  0  0  0
 19 11  1  0  0  0  0
 19 37  1  0  0  0  0
 20 21  1  0  0  0  0
 20 38  1  0  0  0  0
 21 19  2  0  0  0  0
 21 39  1  0  0  0  0
 22 18  1  0  0  0  0
 22 20  2  0  0  0  0
 22 40  1  0  0  0  0
 23  6  1  0  0  0  0
 23 41  1  0  0  0  0
 23 42  1  0  0  0  0
 23 43  1  0  0  0  0
 24 10  1  0  0  0  0
 24 44  1  0  0  0  0
 24 45  1  0  0  0  0
 24 46  1  0  0  0  0
M  END
>  <Mol_ID>
9047

>  <Formula>
C19H21ClN4S

>  <MolWeight>
372.91484

>  <Cat>
P2968

>  <Name>
WAY-621360-A

>  <Synonyms>
N/A

>  <Target>
H1R, H4R

>  <Form>
free base

>  <CAS>
1003091-20-0

>  <URL>
N/A

$$$$
