WAY-659677
 OpenBabel08302521433D

 39 41  0  0  0  0  0  0  0  0999 V2000
   -0.4938   -1.6508    0.2150 C   0  0  0  0  0  0  0  0  0  0  0  0
    0.4019    0.6383    0.0160 C   0  0  0  0  0  0  0  0  0  0  0  0
    0.6479   -0.7346    0.0656 C   0  0  0  0  0  0  0  0  0  0  0  0
   -0.8986    1.1598    0.1565 O   0  0  0  0  0  0  0  0  0  0  0  0
   -1.9502    0.3345    0.5078 C   0  0  0  0  0  0  0  0  0  0  0  0
   -1.7010   -1.1132    0.4560 C   0  0  0  0  0  0  0  0  0  0  0  0
   -0.3299   -3.1426    0.0279 C   0  0  0  0  0  0  0  0  0  0  0  0
    0.3943   -3.7994    1.1277 N   0  0  0  0  0  0  0  0  0  0  0  0
    1.4245    1.5818   -0.1163 C   0  0  0  0  0  0  0  0  0  0  0  0
    1.9805   -1.1520    0.0052 C   0  0  0  0  0  0  0  0  0  0  0  0
   -3.0583    0.7691    0.7993 O   0  0  0  0  0  0  0  0  0  0  0  0
    0.7419   -5.1377    0.9082 C   0  0  0  0  0  0  0  0  0  0  0  0
    2.7471    1.1530   -0.1433 C   0  0  0  0  0  0  0  0  0  0  0  0
    3.0185   -0.2156   -0.0862 C   0  0  0  0  0  0  0  0  0  0  0  0
    3.8498    1.9582   -0.2036 O   0  0  0  0  0  0  0  0  0  0  0  0
    0.2377   -3.3168    2.4947 C   0  0  0  0  0  0  0  0  0  0  0  0
    1.5653   -5.4656   -0.1804 C   0  0  0  0  0  0  0  0  0  0  0  0
    0.3351   -6.1911    1.7403 C   0  0  0  0  0  0  0  0  0  0  0  0
    3.6161    3.3613   -0.1741 C   0  0  0  0  0  0  0  0  0  0  0  0
    0.7468   -7.5084    1.4994 C   0  0  0  0  0  0  0  0  0  0  0  0
    1.9815   -6.7758   -0.4282 C   0  0  0  0  0  0  0  0  0  0  0  0
    1.5742   -7.8006    0.4117 C   0  0  0  0  0  0  0  0  0  0  0  0
   -2.5833   -1.7255    0.6044 H   0  0  0  0  0  0  0  0  0  0  0  0
   -1.3142   -3.6163   -0.0931 H   0  0  0  0  0  0  0  0  0  0  0  0
    0.1850   -3.2925   -0.9300 H   0  0  0  0  0  0  0  0  0  0  0  0
    1.1549    2.6302   -0.1701 H   0  0  0  0  0  0  0  0  0  0  0  0
    2.2462   -2.2033    0.0749 H   0  0  0  0  0  0  0  0  0  0  0  0
    4.0508   -0.5602   -0.0853 H   0  0  0  0  0  0  0  0  0  0  0  0
    0.8545   -2.4200    2.6219 H   0  0  0  0  0  0  0  0  0  0  0  0
   -0.8004   -3.0606    2.7280 H   0  0  0  0  0  0  0  0  0  0  0  0
    0.5959   -4.0259    3.2486 H   0  0  0  0  0  0  0  0  0  0  0  0
    1.9327   -4.6807   -0.8362 H   0  0  0  0  0  0  0  0  0  0  0  0
   -0.3254   -6.0103    2.5827 H   0  0  0  0  0  0  0  0  0  0  0  0
    3.1081    3.6861   -1.0879 H   0  0  0  0  0  0  0  0  0  0  0  0
    3.0527    3.6560    0.7181 H   0  0  0  0  0  0  0  0  0  0  0  0
    4.5874    3.8632   -0.1314 H   0  0  0  0  0  0  0  0  0  0  0  0
    0.4200   -8.3106    2.1563 H   0  0  0  0  0  0  0  0  0  0  0  0
    2.6410   -6.9822   -1.2668 H   0  0  0  0  0  0  0  0  0  0  0  0
    1.9039   -8.8180    0.2341 H   0  0  0  0  0  0  0  0  0  0  0  0
  2  3  2  0  0  0  0
  2  4  1  0  0  0  0
  3  1  1  0  0  0  0
  4  5  1  0  0  0  0
  5  6  1  0  0  0  0
  6  1  2  0  0  0  0
  6 23  1  0  0  0  0
  7  1  1  0  0  0  0
  7 24  1  0  0  0  0
  7 25  1  0  0  0  0
  8  7  1  0  0  0  0
  9  2  1  0  0  0  0
  9 26  1  0  0  0  0
 10  3  1  0  0  0  0
 10 27  1  0  0  0  0
 11  5  2  0  0  0  0
 12  8  1  0  0  0  0
 13 14  1  0  0  0  0
 13  9  2  0  0  0  0
 14 10  2  0  0  0  0
 14 28  1  0  0  0  0
 15 13  1  0  0  0  0
 16  8  1  0  0  0  0
 16 29  1  0  0  0  0
 16 30  1  0  0  0  0
 16 31  1  0  0  0  0
 17 12  2  0  0  0  0
 17 32  1  0  0  0  0
 18 12  1  0  0  0  0
 18 33  1  0  0  0  0
 19 15  1  0  0  0  0
 19 34  1  0  0  0  0
 19 35  1  0  0  0  0
 19 36  1  0  0  0  0
 20 18  2  0  0  0  0
 20 37  1  0  0  0  0
 21 17  1  0  0  0  0
 21 38  1  0  0  0  0
 22 20  1  0  0  0  0
 22 21  2  0  0  0  0
 22 39  1  0  0  0  0
M  END
>  <Mol_ID>
8842

>  <Formula>
C18H17NO3

>  <MolWeight>
295.33248

>  <Cat>
P3189

>  <Name>
WAY-659677

>  <Synonyms>
N/A

>  <Target>
Androgen Receptor

>  <Form>
free base

>  <CAS>
867300-85-4

>  <URL>
N/A

$$$$
