WAY-659512
 OpenBabel08302521433D

 35 37  0  0  0  0  0  0  0  0999 V2000
   -0.2202   -1.1712   -0.0822 C   0  0  0  0  0  0  0  0  0  0  0  0
    0.6976   -0.1643   -0.2957 N   0  0  0  0  0  0  0  0  0  0  0  0
    0.0593   -2.6305    0.0758 C   0  0  0  0  0  0  0  0  0  0  0  0
   -1.4219   -0.6280   -0.0303 N   0  0  0  0  0  0  0  0  0  0  0  0
   -0.0041    1.0138   -0.2090 C   0  0  0  0  0  0  0  0  0  0  0  0
   -1.2807    0.7468   -0.0642 N   0  0  0  0  0  0  0  0  0  0  0  0
   -0.8010   -3.6629   -0.2469 C   0  0  0  0  0  0  0  0  0  0  0  0
    0.7296    2.5826   -0.3140 S   0  0  0  0  0  0  0  0  0  0  0  0
    1.2299   -3.2472    0.5975 C   0  0  0  0  0  0  0  0  0  0  0  0
   -0.2250   -4.8642    0.0582 O   0  0  0  0  0  0  0  0  0  0  0  0
    0.0849    7.0261   -1.7671 C   0  0  0  0  0  0  0  0  0  0  0  0
    0.9973   -4.6027    0.5797 C   0  0  0  0  0  0  0  0  0  0  0  0
    0.5645    7.8196   -0.7279 C   0  0  0  0  0  0  0  0  0  0  0  0
   -0.3253    5.7142   -1.5178 C   0  0  0  0  0  0  0  0  0  0  0  0
    2.0501   -0.3663   -0.7447 C   0  0  0  0  0  0  0  0  0  0  0  0
    0.6061    7.3053    0.5673 C   0  0  0  0  0  0  0  0  0  0  0  0
   -0.2610    5.1696   -0.2236 C   0  0  0  0  0  0  0  0  0  0  0  0
   -0.6603    3.7216    0.0183 C   0  0  0  0  0  0  0  0  0  0  0  0
    0.2024    5.9918    0.8215 C   0  0  0  0  0  0  0  0  0  0  0  0
   -2.1278   -3.7543   -0.8899 C   0  0  0  0  0  0  0  0  0  0  0  0
    2.1180   -2.7795    0.9953 H   0  0  0  0  0  0  0  0  0  0  0  0
    0.0460    7.4275   -2.7773 H   0  0  0  0  0  0  0  0  0  0  0  0
    1.5661   -5.4680    0.8943 H   0  0  0  0  0  0  0  0  0  0  0  0
    0.9021    8.8351   -0.9228 H   0  0  0  0  0  0  0  0  0  0  0  0
   -0.6959    5.1147   -2.3458 H   0  0  0  0  0  0  0  0  0  0  0  0
    2.4300    0.5235   -1.2480 H   0  0  0  0  0  0  0  0  0  0  0  0
    2.6762   -0.6090    0.1157 H   0  0  0  0  0  0  0  0  0  0  0  0
    2.0595   -1.1888   -1.4684 H   0  0  0  0  0  0  0  0  0  0  0  0
    0.9672    7.9289    1.3822 H   0  0  0  0  0  0  0  0  0  0  0  0
   -1.5127    3.4750   -0.6256 H   0  0  0  0  0  0  0  0  0  0  0  0
   -0.9942    3.5991    1.0553 H   0  0  0  0  0  0  0  0  0  0  0  0
    0.2419    5.6128    1.8393 H   0  0  0  0  0  0  0  0  0  0  0  0
   -2.0673   -4.4056   -1.7704 H   0  0  0  0  0  0  0  0  0  0  0  0
   -2.8609   -4.1820   -0.2010 H   0  0  0  0  0  0  0  0  0  0  0  0
   -2.4879   -2.7802   -1.2258 H   0  0  0  0  0  0  0  0  0  0  0  0
  2  1  1  0  0  0  0
  3  1  1  0  0  0  0
  4  1  2  0  0  0  0
  5  2  1  0  0  0  0
  5  6  2  0  0  0  0
  6  4  1  0  0  0  0
  7  3  2  0  0  0  0
  8  5  1  0  0  0  0
  9  3  1  0  0  0  0
  9 21  1  0  0  0  0
 10  7  1  0  0  0  0
 11 14  2  0  0  0  0
 11 22  1  0  0  0  0
 12  9  2  0  0  0  0
 12 10  1  0  0  0  0
 12 23  1  0  0  0  0
 13 16  2  0  0  0  0
 13 11  1  0  0  0  0
 13 24  1  0  0  0  0
 14 17  1  0  0  0  0
 14 25  1  0  0  0  0
 15  2  1  0  0  0  0
 15 26  1  0  0  0  0
 15 27  1  0  0  0  0
 15 28  1  0  0  0  0
 16 19  1  0  0  0  0
 16 29  1  0  0  0  0
 17 18  1  0  0  0  0
 18  8  1  0  0  0  0
 18 30  1  0  0  0  0
 18 31  1  0  0  0  0
 19 17  2  0  0  0  0
 19 32  1  0  0  0  0
 20  7  1  0  0  0  0
 20 33  1  0  0  0  0
 20 34  1  0  0  0  0
 20 35  1  0  0  0  0
M  END
>  <Mol_ID>
8839

>  <Formula>
C15H13Cl2N3OS

>  <MolWeight>
354.25422

>  <Cat>
P3186

>  <Name>
WAY-659512

>  <Synonyms>
N/A

>  <Target>
Others

>  <Form>
free base

>  <CAS>
865613-84-9

>  <URL>
N/A

$$$$
