WAY-332068
 OpenBabel08302521453D

 49 51  0  0  0  0  0  0  0  0999 V2000
   -0.9949   -0.6212    0.7690 C   0  0  0  0  0  0  0  0  0  0  0  0
   -0.9410    0.6698    1.0307 N   0  0  0  0  0  0  0  0  0  0  0  0
   -0.1668    1.2002    0.0299 C   0  0  0  0  0  0  0  0  0  0  0  0
   -0.2931   -0.9812   -0.3548 O   0  0  0  0  0  0  0  0  0  0  0  0
    0.2315    0.1909   -0.8219 C   0  0  0  0  0  0  0  0  0  0  0  0
   -0.6634    3.3323   -1.6054 S   0  0  3  0  0  0  0  0  0  0  0  0
    0.0366    2.6623   -0.0576 C   0  0  0  0  0  0  0  0  0  0  0  0
   -3.2878    3.3055   -2.4751 C   0  0  0  0  0  0  0  0  0  0  0  0
   -1.7192   -1.6865    1.4595 C   0  0  0  0  0  0  0  0  0  0  0  0
   -2.4053    2.8676   -1.3049 C   0  0  0  0  0  0  0  0  0  0  0  0
   -4.6103    3.5615   -2.1355 N   0  0  0  0  0  0  0  0  0  0  0  0
   -0.5497    4.8266   -1.5345 O   0  0  0  0  0  0  0  0  0  0  0  0
   -2.8922    3.3636   -3.6373 O   0  0  0  0  0  0  0  0  0  0  0  0
   -2.0348   -1.6250    2.8342 C   0  0  0  0  0  0  0  0  0  0  0  0
   -5.5517    4.2297   -3.0325 C   0  0  0  0  0  0  0  0  0  0  0  0
    0.9817    0.1350   -2.0821 C   0  0  0  0  0  0  0  0  0  0  0  0
   -2.1400   -2.8113    0.7193 C   0  0  0  0  0  0  0  0  0  0  0  0
   -1.6726   -0.4724    3.7345 C   0  0  0  0  0  0  0  0  0  0  0  0
   -2.7076   -2.7094    3.4326 C   0  0  0  0  0  0  0  0  0  0  0  0
   -5.5756    5.7488   -2.8272 C   0  0  0  0  0  0  0  0  0  0  0  0
   -7.0048    3.8534   -2.7390 C   0  0  0  0  0  0  0  0  0  0  0  0
   -2.8187   -3.8689    1.3253 C   0  0  0  0  0  0  0  0  0  0  0  0
   -3.0909   -3.8228    2.6859 C   0  0  0  0  0  0  0  0  0  0  0  0
   -6.9436    6.2042   -3.3615 C   0  0  0  0  0  0  0  0  0  0  0  0
   -7.8080    4.9461   -3.4235 C   0  0  0  0  0  0  0  0  0  0  0  0
   -0.4315    3.1802    0.7862 H   0  0  0  0  0  0  0  0  0  0  0  0
    1.1068    2.8934   -0.0382 H   0  0  0  0  0  0  0  0  0  0  0  0
   -2.4687    1.7791   -1.2100 H   0  0  0  0  0  0  0  0  0  0  0  0
   -2.7321    3.3371   -0.3728 H   0  0  0  0  0  0  0  0  0  0  0  0
   -4.8919    3.4534   -1.1657 H   0  0  0  0  0  0  0  0  0  0  0  0
   -5.3091    4.0032   -4.0754 H   0  0  0  0  0  0  0  0  0  0  0  0
    1.8365   -0.5417   -1.9912 H   0  0  0  0  0  0  0  0  0  0  0  0
    0.3357   -0.2198   -2.8912 H   0  0  0  0  0  0  0  0  0  0  0  0
    1.3593    1.1227   -2.3604 H   0  0  0  0  0  0  0  0  0  0  0  0
   -1.9434   -2.8666   -0.3504 H   0  0  0  0  0  0  0  0  0  0  0  0
   -2.5710   -0.0980    4.2369 H   0  0  0  0  0  0  0  0  0  0  0  0
   -0.9439   -0.7977    4.4834 H   0  0  0  0  0  0  0  0  0  0  0  0
   -1.2356    0.3819    3.2238 H   0  0  0  0  0  0  0  0  0  0  0  0
   -2.9319   -2.6881    4.4978 H   0  0  0  0  0  0  0  0  0  0  0  0
   -5.4996    5.9912   -1.7650 H   0  0  0  0  0  0  0  0  0  0  0  0
   -4.7433    6.2484   -3.3338 H   0  0  0  0  0  0  0  0  0  0  0  0
   -7.2592    2.8528   -3.1057 H   0  0  0  0  0  0  0  0  0  0  0  0
   -7.1952    3.8672   -1.6571 H   0  0  0  0  0  0  0  0  0  0  0  0
   -3.1256   -4.7281    0.7339 H   0  0  0  0  0  0  0  0  0  0  0  0
   -3.6022   -4.6518    3.1680 H   0  0  0  0  0  0  0  0  0  0  0  0
   -7.3753    6.9621   -2.7094 H   0  0  0  0  0  0  0  0  0  0  0  0
   -6.8382    6.6401   -4.3588 H   0  0  0  0  0  0  0  0  0  0  0  0
   -8.7828    5.0971   -2.9486 H   0  0  0  0  0  0  0  0  0  0  0  0
   -7.9902    4.6778   -4.4710 H   0  0  0  0  0  0  0  0  0  0  0  0
  2  1  2  0  0  0  0
  3  2  1  0  0  0  0
  4  1  1  0  0  0  0
  5  4  1  0  0  0  0
  5  3  2  0  0  0  0
  6  7  1  0  0  0  0
  7  3  1  0  0  0  0
  7 26  1  0  0  0  0
  7 27  1  0  0  0  0
  8 10  1  0  0  0  0
  9  1  1  0  0  0  0
 10  6  1  0  0  0  0
 10 28  1  0  0  0  0
 10 29  1  0  0  0  0
 11  8  1  0  0  0  0
 11 30  1  0  0  0  0
 12  6  2  0  0  0  0
 13  8  2  0  0  0  0
 14  9  2  0  0  0  0
 15 11  1  0  0  0  0
 15 31  1  0  0  0  0
 16  5  1  0  0  0  0
 16 32  1  0  0  0  0
 16 33  1  0  0  0  0
 16 34  1  0  0  0  0
 17  9  1  0  0  0  0
 17 35  1  0  0  0  0
 18 14  1  0  0  0  0
 18 36  1  0  0  0  0
 18 37  1  0  0  0  0
 18 38  1  0  0  0  0
 19 14  1  0  0  0  0
 19 39  1  0  0  0  0
 20 15  1  0  0  0  0
 20 40  1  0  0  0  0
 20 41  1  0  0  0  0
 21 15  1  0  0  0  0
 21 42  1  0  0  0  0
 21 43  1  0  0  0  0
 22 17  2  0  0  0  0
 22 44  1  0  0  0  0
 23 22  1  0  0  0  0
 23 19  2  0  0  0  0
 23 45  1  0  0  0  0
 24 20  1  0  0  0  0
 24 25  1  0  0  0  0
 24 46  1  0  0  0  0
 24 47  1  0  0  0  0
 25 21  1  0  0  0  0
 25 48  1  0  0  0  0
 25 49  1  0  0  0  0
M  END
>  <Mol_ID>
9279

>  <Formula>
C19H24N2O3S

>  <MolWeight>
360.47046

>  <Cat>
P2710

>  <Name>
WAY-332068

>  <Synonyms>
N/A

>  <Target>
beta-catenin

>  <Form>
free base

>  <CAS>
1015864-69-3

>  <URL>
N/A

$$$$
