WAY-328236
 OpenBabel08302521443D

 42 44  0  0  0  0  0  0  0  0999 V2000
   -0.4344   -1.0832    0.0101 C   0  0  0  0  0  0  0  0  0  0  0  0
   -1.5043   -0.4889   -0.5434 N   0  0  0  0  0  0  0  0  0  0  0  0
    0.6149   -0.1588    0.2240 C   0  0  0  0  0  0  0  0  0  0  0  0
    0.1620    0.9861   -0.3721 C   0  0  0  0  0  0  0  0  0  0  0  0
   -1.1211    0.8159   -0.7800 O   0  0  0  0  0  0  0  0  0  0  0  0
   -0.4167   -2.5029    0.2944 C   0  0  0  0  0  0  0  0  0  0  0  0
   -5.7969   -5.3023    4.5945 N   0  0  0  0  0  0  0  0  0  0  0  0
   -4.3863   -4.4462    3.1102 N   0  0  0  0  0  0  0  0  0  0  0  0
   -5.1545   -5.5206    3.4674 C   0  0  0  0  0  0  0  0  0  0  0  0
    0.7918    2.2410   -0.6772 C   0  0  0  0  0  0  0  0  0  0  0  0
   -5.3730   -4.0701    5.0156 C   0  0  0  0  0  0  0  0  0  0  0  0
   -4.4151   -3.5698    4.1613 C   0  0  0  0  0  0  0  0  0  0  0  0
    0.5720   -3.0353    0.8173 O   0  0  0  0  0  0  0  0  0  0  0  0
   -1.5457   -3.2061   -0.0498 N   0  0  0  0  0  0  0  0  0  0  0  0
    2.1611    2.3754   -0.3968 C   0  0  0  0  0  0  0  0  0  0  0  0
    0.0839    3.3053   -1.2391 C   0  0  0  0  0  0  0  0  0  0  0  0
    2.0788    4.6659   -1.1176 C   0  0  0  0  0  0  0  0  0  0  0  0
    0.7318    4.5153   -1.4570 C   0  0  0  0  0  0  0  0  0  0  0  0
    2.7996    3.5847   -0.6140 C   0  0  0  0  0  0  0  0  0  0  0  0
   -3.7834   -4.2205    1.8013 C   0  0  0  0  0  0  0  0  0  0  0  0
   -2.3733   -4.8021    1.6671 C   0  0  0  0  0  0  0  0  0  0  0  0
    2.5971    5.9118   -1.3383 O   0  0  0  0  0  0  0  0  0  0  0  0
   -1.6972   -4.5991    0.3041 C   0  0  0  0  0  0  0  0  0  0  0  0
    3.6532    6.2901   -0.4619 C   0  0  0  0  0  0  0  0  0  0  0  0
    1.5999   -0.3250    0.6385 H   0  0  0  0  0  0  0  0  0  0  0  0
   -5.2283   -6.4139    2.8625 H   0  0  0  0  0  0  0  0  0  0  0  0
   -5.7801   -3.6000    5.9017 H   0  0  0  0  0  0  0  0  0  0  0  0
   -3.8450   -2.6515    4.1876 H   0  0  0  0  0  0  0  0  0  0  0  0
   -2.3173   -2.7032   -0.4907 H   0  0  0  0  0  0  0  0  0  0  0  0
    2.7257    1.5416    0.0041 H   0  0  0  0  0  0  0  0  0  0  0  0
   -0.9715    3.2022   -1.4807 H   0  0  0  0  0  0  0  0  0  0  0  0
    0.1779    5.3577   -1.8615 H   0  0  0  0  0  0  0  0  0  0  0  0
    3.8535    3.6441   -0.3739 H   0  0  0  0  0  0  0  0  0  0  0  0
   -3.7684   -3.1330    1.6583 H   0  0  0  0  0  0  0  0  0  0  0  0
   -4.4639   -4.6306    1.0459 H   0  0  0  0  0  0  0  0  0  0  0  0
   -2.4125   -5.8804    1.8606 H   0  0  0  0  0  0  0  0  0  0  0  0
   -1.7394   -4.3664    2.4482 H   0  0  0  0  0  0  0  0  0  0  0  0
   -2.2288   -5.1152   -0.4996 H   0  0  0  0  0  0  0  0  0  0  0  0
   -0.6881   -5.0300    0.3477 H   0  0  0  0  0  0  0  0  0  0  0  0
    3.3408    6.2293    0.5861 H   0  0  0  0  0  0  0  0  0  0  0  0
    4.5498    5.6894   -0.6413 H   0  0  0  0  0  0  0  0  0  0  0  0
    3.9053    7.3337   -0.6745 H   0  0  0  0  0  0  0  0  0  0  0  0
  2  1  2  0  0  0  0
  3  1  1  0  0  0  0
  3 25  1  0  0  0  0
  4  3  2  0  0  0  0
  5  2  1  0  0  0  0
  5  4  1  0  0  0  0
  6  1  1  0  0  0  0
  7  9  2  0  0  0  0
  8 20  1  0  0  0  0
  9  8  1  0  0  0  0
  9 26  1  0  0  0  0
 10  4  1  0  0  0  0
 11 12  2  0  0  0  0
 11  7  1  0  0  0  0
 11 27  1  0  0  0  0
 12  8  1  0  0  0  0
 12 28  1  0  0  0  0
 13  6  2  0  0  0  0
 14  6  1  0  0  0  0
 14 29  1  0  0  0  0
 15 10  2  0  0  0  0
 15 30  1  0  0  0  0
 16 10  1  0  0  0  0
 16 31  1  0  0  0  0
 17 18  1  0  0  0  0
 17 19  2  0  0  0  0
 18 16  2  0  0  0  0
 18 32  1  0  0  0  0
 19 15  1  0  0  0  0
 19 33  1  0  0  0  0
 20 21  1  0  0  0  0
 20 34  1  0  0  0  0
 20 35  1  0  0  0  0
 21 23  1  0  0  0  0
 21 36  1  0  0  0  0
 21 37  1  0  0  0  0
 22 17  1  0  0  0  0
 23 14  1  0  0  0  0
 23 38  1  0  0  0  0
 23 39  1  0  0  0  0
 24 22  1  0  0  0  0
 24 40  1  0  0  0  0
 24 41  1  0  0  0  0
 24 42  1  0  0  0  0
M  END
>  <Mol_ID>
9010

>  <Formula>
C17H18N4O3

>  <MolWeight>
326.34982

>  <Cat>
P2576

>  <Name>
WAY-328236

>  <Synonyms>
N/A

>  <Target>
Wnt/b-catenin

>  <Form>
free base

>  <CAS>
688050-46-6

>  <URL>
N/A

$$$$
