WAY-638103
 OpenBabel08302521423D

 32 35  0  0  0  0  0  0  0  0999 V2000
   -2.2658   -0.2216   -0.1638 C   0  0  0  0  0  0  0  0  0  0  0  0
   -1.6357   -1.4383   -0.2052 O   0  0  0  0  0  0  0  0  0  0  0  0
   -3.7049   -0.1152   -0.0221 C   0  0  0  0  0  0  0  0  0  0  0  0
   -1.3375    0.7943   -0.3025 C   0  0  0  0  0  0  0  0  0  0  0  0
   -4.3787   -1.3214    0.0869 N   0  0  0  0  0  0  0  0  0  0  0  0
   -0.3040   -1.1860   -0.4018 C   0  0  0  0  0  0  0  0  0  0  0  0
   -0.0771    0.1834   -0.4839 C   0  0  0  0  0  0  0  0  0  0  0  0
   -8.0480   -0.7360    0.0712 C   0  0  0  0  0  0  0  0  0  0  0  0
   -6.6987   -0.4495    0.0177 C   0  0  0  0  0  0  0  0  0  0  0  0
   -8.5126   -2.0106    0.2707 C   0  0  0  0  0  0  0  0  0  0  0  0
   -9.0530    0.1698   -0.0721 O   0  0  0  0  0  0  0  0  0  0  0  0
   -5.7815   -1.4997    0.1600 C   0  0  0  0  0  0  0  0  0  0  0  0
   -9.8709   -2.0704    0.2788 O   0  0  0  0  0  0  0  0  0  0  0  0
  -10.2053   -0.6914    0.0085 C   0  0  0  0  0  0  0  0  0  0  0  0
   -4.2423    0.9891   -0.0046 O   0  0  0  0  0  0  0  0  0  0  0  0
   -7.6481   -3.0702    0.4305 C   0  0  0  0  0  0  0  0  0  0  0  0
   -6.2697   -2.8092    0.3662 C   0  0  0  0  0  0  0  0  0  0  0  0
    0.7062   -2.1396   -0.5189 C   0  0  0  0  0  0  0  0  0  0  0  0
    1.2281    0.6492   -0.7157 C   0  0  0  0  0  0  0  0  0  0  0  0
    2.0021   -1.6564   -0.7487 C   0  0  0  0  0  0  0  0  0  0  0  0
    2.2594   -0.2868   -0.8524 C   0  0  0  0  0  0  0  0  0  0  0  0
   -1.5684    1.8493   -0.2973 H   0  0  0  0  0  0  0  0  0  0  0  0
   -3.7925   -2.1474    0.1194 H   0  0  0  0  0  0  0  0  0  0  0  0
   -6.4062    0.5783   -0.1518 H   0  0  0  0  0  0  0  0  0  0  0  0
  -10.8644   -0.3237    0.8031 H   0  0  0  0  0  0  0  0  0  0  0  0
  -10.7441   -0.6409   -0.9453 H   0  0  0  0  0  0  0  0  0  0  0  0
   -8.0254   -4.0736    0.5944 H   0  0  0  0  0  0  0  0  0  0  0  0
   -5.5816   -3.6430    0.4846 H   0  0  0  0  0  0  0  0  0  0  0  0
    0.4981   -3.1997   -0.4430 H   0  0  0  0  0  0  0  0  0  0  0  0
    1.4325    1.7131   -0.7972 H   0  0  0  0  0  0  0  0  0  0  0  0
    2.8254   -2.3606   -0.8536 H   0  0  0  0  0  0  0  0  0  0  0  0
    3.2729    0.0613   -1.0430 H   0  0  0  0  0  0  0  0  0  0  0  0
  2  1  1  0  0  0  0
  3  1  1  0  0  0  0
  4  1  2  0  0  0  0
  4 22  1  0  0  0  0
  5  3  1  0  0  0  0
  5 23  1  0  0  0  0
  6  2  1  0  0  0  0
  6  7  2  0  0  0  0
  7  4  1  0  0  0  0
  8  9  2  0  0  0  0
  9 12  1  0  0  0  0
  9 24  1  0  0  0  0
 10 16  2  0  0  0  0
 10  8  1  0  0  0  0
 11  8  1  0  0  0  0
 12  5  1  0  0  0  0
 13 10  1  0  0  0  0
 14 11  1  0  0  0  0
 14 13  1  0  0  0  0
 14 25  1  0  0  0  0
 14 26  1  0  0  0  0
 15  3  2  0  0  0  0
 16 17  1  0  0  0  0
 16 27  1  0  0  0  0
 17 12  2  0  0  0  0
 17 28  1  0  0  0  0
 18  6  1  0  0  0  0
 18 29  1  0  0  0  0
 19  7  1  0  0  0  0
 19 30  1  0  0  0  0
 20 18  2  0  0  0  0
 20 21  1  0  0  0  0
 20 31  1  0  0  0  0
 21 19  2  0  0  0  0
 21 32  1  0  0  0  0
M  END
>  <Mol_ID>
8502

>  <Formula>
C16H11NO4

>  <MolWeight>
281.26284

>  <Cat>
P3028

>  <Name>
WAY-638103

>  <Synonyms>
N/A

>  <Target>
tubulin

>  <Form>
free base

>  <CAS>
793712-73-9

>  <URL>
N/A

$$$$
