WAY-638584
 OpenBabel08302521433D

 55 58  0  0  0  0  0  0  0  0999 V2000
    0.9009    0.0555   -0.0297 C   0  0  0  0  0  0  0  0  0  0  0  0
    2.0107    1.0958    0.1538 C   0  0  0  0  0  0  0  0  0  0  0  0
    1.2185   -1.4263    0.1843 C   0  0  0  0  0  0  0  0  0  0  0  0
    0.1649    0.3077   -1.3750 C   0  0  0  0  0  0  0  0  0  0  0  0
    3.2049    1.0712   -0.5872 C   0  0  0  0  0  0  0  0  0  0  0  0
    1.7849    2.1927    1.0051 C   0  0  0  0  0  0  0  0  0  0  0  0
    2.4695   -1.9098    0.5907 C   0  0  0  0  0  0  0  0  0  0  0  0
    0.1779   -2.3637    0.0118 C   0  0  0  0  0  0  0  0  0  0  0  0
    0.9052    0.0109   -2.5114 N   0  0  0  0  0  0  0  0  0  0  0  0
   -0.9949    0.7198   -1.3703 O   0  0  0  0  0  0  0  0  0  0  0  0
    4.1199    2.1227   -0.5110 C   0  0  0  0  0  0  0  0  0  0  0  0
    2.7030    3.2425    1.0822 C   0  0  0  0  0  0  0  0  0  0  0  0
    2.6964   -3.2833    0.7287 C   0  0  0  0  0  0  0  0  0  0  0  0
    0.4011   -3.7331    0.1637 C   0  0  0  0  0  0  0  0  0  0  0  0
    0.5469    0.2541   -3.8543 C   0  0  0  0  0  0  0  0  0  0  0  0
    3.8625    3.2140    0.3128 C   0  0  0  0  0  0  0  0  0  0  0  0
    1.6675   -4.1942    0.5035 C   0  0  0  0  0  0  0  0  0  0  0  0
   -0.5821    0.9882   -4.2320 C   0  0  0  0  0  0  0  0  0  0  0  0
    1.3781   -0.2691   -4.8567 C   0  0  0  0  0  0  0  0  0  0  0  0
   -0.9060    1.1623   -5.5835 C   0  0  0  0  0  0  0  0  0  0  0  0
    1.0561   -0.1043   -6.2100 C   0  0  0  0  0  0  0  0  0  0  0  0
   -0.0934    0.6033   -6.5660 C   0  0  0  0  0  0  0  0  0  0  0  0
   -0.5482    0.7302   -8.2804 S   0  0  0  0  0  0  0  0  0  0  0  0
    0.7980    1.5020   -8.9645 N   0  0  0  0  0  0  0  0  0  0  0  0
   -0.6094   -0.6240   -8.7875 O   0  0  0  0  0  0  0  0  0  0  0  0
   -1.6796    1.6247   -8.3993 O   0  0  0  0  0  0  0  0  0  0  0  0
    0.9655    2.9595   -8.6699 C   0  0  0  0  0  0  0  0  0  0  0  0
    1.0525    1.2122  -10.4089 C   0  0  0  0  0  0  0  0  0  0  0  0
    0.2268    3.8445   -9.6865 C   0  0  0  0  0  0  0  0  0  0  0  0
    0.2572    2.1490  -11.3175 C   0  0  0  0  0  0  0  0  0  0  0  0
    0.5861    3.5168  -11.0364 O   0  0  0  0  0  0  0  0  0  0  0  0
    0.1518    0.2708    0.7500 H   0  0  0  0  0  0  0  0  0  0  0  0
    3.4405    0.2408   -1.2461 H   0  0  0  0  0  0  0  0  0  0  0  0
    0.8730    2.2558    1.5973 H   0  0  0  0  0  0  0  0  0  0  0  0
    3.2916   -1.2362    0.8172 H   0  0  0  0  0  0  0  0  0  0  0  0
   -0.8294   -2.0310   -0.2419 H   0  0  0  0  0  0  0  0  0  0  0  0
    1.7643   -0.5026   -2.3639 H   0  0  0  0  0  0  0  0  0  0  0  0
    5.0267    2.0968   -1.1098 H   0  0  0  0  0  0  0  0  0  0  0  0
    2.5012    4.0932    1.7283 H   0  0  0  0  0  0  0  0  0  0  0  0
    3.6802   -3.6422    1.0212 H   0  0  0  0  0  0  0  0  0  0  0  0
   -0.4155   -4.4361    0.0172 H   0  0  0  0  0  0  0  0  0  0  0  0
    4.5624    4.0444    0.3510 H   0  0  0  0  0  0  0  0  0  0  0  0
    1.8483   -5.2607    0.6092 H   0  0  0  0  0  0  0  0  0  0  0  0
   -1.2378    1.4388   -3.4926 H   0  0  0  0  0  0  0  0  0  0  0  0
    2.2733   -0.8314   -4.6005 H   0  0  0  0  0  0  0  0  0  0  0  0
   -1.8098    1.7113   -5.8437 H   0  0  0  0  0  0  0  0  0  0  0  0
    1.6886   -0.5463   -6.9776 H   0  0  0  0  0  0  0  0  0  0  0  0
    2.0406    3.1709   -8.7165 H   0  0  0  0  0  0  0  0  0  0  0  0
    0.6390    3.1956   -7.6527 H   0  0  0  0  0  0  0  0  0  0  0  0
    2.1265    1.3586  -10.5783 H   0  0  0  0  0  0  0  0  0  0  0  0
    0.8390    0.1669  -10.6487 H   0  0  0  0  0  0  0  0  0  0  0  0
   -0.8607    3.7738   -9.5838 H   0  0  0  0  0  0  0  0  0  0  0  0
    0.5003    4.8923   -9.5238 H   0  0  0  0  0  0  0  0  0  0  0  0
    0.5184    1.9574  -12.3638 H   0  0  0  0  0  0  0  0  0  0  0  0
   -0.8241    2.0051  -11.2122 H   0  0  0  0  0  0  0  0  0  0  0  0
  1  2  1  0  0  0  0
  1  3  1  0  0  0  0
  1  4  1  0  0  0  0
  1 32  1  0  0  0  0
  2  5  2  0  0  0  0
  2  6  1  0  0  0  0
  3  7  2  0  0  0  0
  3  8  1  0  0  0  0
  4  9  1  0  0  0  0
  4 10  2  0  0  0  0
  5 11  1  0  0  0  0
  5 33  1  0  0  0  0
  6 12  2  0  0  0  0
  6 34  1  0  0  0  0
  7 13  1  0  0  0  0
  7 35  1  0  0  0  0
  8 14  2  0  0  0  0
  8 36  1  0  0  0  0
  9 15  1  0  0  0  0
  9 37  1  0  0  0  0
 11 16  2  0  0  0  0
 11 38  1  0  0  0  0
 12 16  1  0  0  0  0
 12 39  1  0  0  0  0
 13 17  2  0  0  0  0
 13 40  1  0  0  0  0
 14 17  1  0  0  0  0
 14 41  1  0  0  0  0
 15 18  2  0  0  0  0
 15 19  1  0  0  0  0
 16 42  1  0  0  0  0
 17 43  1  0  0  0  0
 18 20  1  0  0  0  0
 18 44  1  0  0  0  0
 19 21  2  0  0  0  0
 19 45  1  0  0  0  0
 20 22  2  0  0  0  0
 20 46  1  0  0  0  0
 21 22  1  0  0  0  0
 21 47  1  0  0  0  0
 22 23  1  0  0  0  0
 23 24  1  0  0  0  0
 23 25  2  0  0  0  0
 23 26  2  0  0  0  0
 24 27  1  0  0  0  0
 24 28  1  0  0  0  0
 27 29  1  0  0  0  0
 27 48  1  0  0  0  0
 27 49  1  0  0  0  0
 28 30  1  0  0  0  0
 28 50  1  0  0  0  0
 28 51  1  0  0  0  0
 29 31  1  0  0  0  0
 29 52  1  0  0  0  0
 29 53  1  0  0  0  0
 30 31  1  0  0  0  0
 30 54  1  0  0  0  0
 30 55  1  0  0  0  0
M  END
>  <Mol_ID>
8782

>  <Formula>
C24H24N2O4S

>  <MolWeight>
436.52336

>  <Cat>
P3046

>  <Name>
WAY-638584

>  <Synonyms>
N/A

>  <Target>
neuropeptide Y

>  <Form>
free base

>  <CAS>
289700-48-7

>  <URL>
N/A

$$$$
