WAY-326452
 OpenBabel08302521433D

 44 46  0  0  0  0  0  0  0  0999 V2000
   -2.3730   -0.7718   -0.0026 C   0  0  0  0  0  0  0  0  0  0  0  0
   -1.1467   -1.4846   -0.0234 C   0  0  0  0  0  0  0  0  0  0  0  0
    0.0788   -0.7218    0.0026 C   0  0  0  0  0  0  0  0  0  0  0  0
   -1.1962    1.3328    0.0460 N   0  0  0  0  0  0  0  0  0  0  0  0
   -0.0018    0.6989    0.0273 C   0  0  0  0  0  0  0  0  0  0  0  0
   -3.6834   -1.4752   -0.0443 C   0  0  0  0  0  0  0  0  0  0  0  0
   -2.3366    0.6079    0.0312 C   0  0  0  0  0  0  0  0  0  0  0  0
   -1.2139   -2.8813    0.0019 N   0  0  0  0  0  0  0  0  0  0  0  0
    1.1947    1.4616    0.0208 C   0  0  0  0  0  0  0  0  0  0  0  0
   -3.8270   -2.5828   -0.5455 O   0  0  0  0  0  0  0  0  0  0  0  0
   -0.9474   -7.5273    0.8417 N   0  0  0  0  0  0  0  0  0  0  0  0
   -0.2421   -3.8260    0.5038 C   0  0  0  0  0  0  0  0  0  0  0  0
   -0.8917   -5.1059    0.9477 C   0  0  0  0  0  0  0  0  0  0  0  0
   -4.6697   -0.7721    0.5808 O   0  0  0  0  0  0  0  0  0  0  0  0
    1.3822   -1.2848   -0.0393 C   0  0  0  0  0  0  0  0  0  0  0  0
    1.0470    2.8370    0.0132 O   0  0  0  0  0  0  0  0  0  0  0  0
   -0.4681   -6.3285    0.4372 C   0  0  0  0  0  0  0  0  0  0  0  0
    2.5463   -0.5242   -0.0125 C   0  0  0  0  0  0  0  0  0  0  0  0
    2.4530    0.8497    0.0140 C   0  0  0  0  0  0  0  0  0  0  0  0
   -1.8934   -7.5047    1.8013 C   0  0  0  0  0  0  0  0  0  0  0  0
   -1.8731   -5.1267    1.9401 C   0  0  0  0  0  0  0  0  0  0  0  0
   -5.9249   -1.4758    0.6190 C   0  0  0  0  0  0  0  0  0  0  0  0
    2.2340    3.6225   -0.0206 C   0  0  0  0  0  0  0  0  0  0  0  0
   -2.3871   -6.3450    2.3755 C   0  0  0  0  0  0  0  0  0  0  0  0
   -6.9622   -0.6504    1.3572 C   0  0  0  0  0  0  0  0  0  0  0  0
   -3.2434    1.2060    0.0377 H   0  0  0  0  0  0  0  0  0  0  0  0
   -2.0931   -3.2885   -0.3357 H   0  0  0  0  0  0  0  0  0  0  0  0
    0.4732   -4.0575   -0.2920 H   0  0  0  0  0  0  0  0  0  0  0  0
    0.2962   -3.4221    1.3692 H   0  0  0  0  0  0  0  0  0  0  0  0
    1.5415   -2.3484   -0.1167 H   0  0  0  0  0  0  0  0  0  0  0  0
    0.3010   -6.3903   -0.3290 H   0  0  0  0  0  0  0  0  0  0  0  0
    3.5182   -1.0114   -0.0282 H   0  0  0  0  0  0  0  0  0  0  0  0
    3.3782    1.4150    0.0152 H   0  0  0  0  0  0  0  0  0  0  0  0
   -2.2578   -8.4810    2.1137 H   0  0  0  0  0  0  0  0  0  0  0  0
   -2.2317   -4.1981    2.3787 H   0  0  0  0  0  0  0  0  0  0  0  0
   -6.2712   -1.6587   -0.4046 H   0  0  0  0  0  0  0  0  0  0  0  0
   -5.7945   -2.4333    1.1365 H   0  0  0  0  0  0  0  0  0  0  0  0
    2.8368    3.4615    0.8802 H   0  0  0  0  0  0  0  0  0  0  0  0
    2.8191    3.4233   -0.9261 H   0  0  0  0  0  0  0  0  0  0  0  0
    1.9461    4.6772   -0.0411 H   0  0  0  0  0  0  0  0  0  0  0  0
   -3.1448   -6.3871    3.1458 H   0  0  0  0  0  0  0  0  0  0  0  0
   -6.6458   -0.4594    2.3886 H   0  0  0  0  0  0  0  0  0  0  0  0
   -7.0999    0.3235    0.8764 H   0  0  0  0  0  0  0  0  0  0  0  0
   -7.9246   -1.1696    1.3794 H   0  0  0  0  0  0  0  0  0  0  0  0
  2  1  2  0  0  0  0
  3  2  1  0  0  0  0
  4  7  2  0  0  0  0
  5  4  1  0  0  0  0
  5  3  2  0  0  0  0
  6  1  1  0  0  0  0
  7  1  1  0  0  0  0
  7 26  1  0  0  0  0
  8  2  1  0  0  0  0
  8 27  1  0  0  0  0
  9  5  1  0  0  0  0
 10  6  2  0  0  0  0
 11 17  2  0  0  0  0
 11 20  1  0  0  0  0
 12  8  1  0  0  0  0
 12 28  1  0  0  0  0
 12 29  1  0  0  0  0
 13 12  1  0  0  0  0
 14  6  1  0  0  0  0
 15  3  1  0  0  0  0
 15 30  1  0  0  0  0
 16  9  1  0  0  0  0
 17 13  1  0  0  0  0
 17 31  1  0  0  0  0
 18 15  2  0  0  0  0
 18 32  1  0  0  0  0
 19  9  2  0  0  0  0
 19 18  1  0  0  0  0
 19 33  1  0  0  0  0
 20 24  2  0  0  0  0
 20 34  1  0  0  0  0
 21 13  2  0  0  0  0
 21 35  1  0  0  0  0
 22 14  1  0  0  0  0
 22 36  1  0  0  0  0
 22 37  1  0  0  0  0
 23 16  1  0  0  0  0
 23 38  1  0  0  0  0
 23 39  1  0  0  0  0
 23 40  1  0  0  0  0
 24 21  1  0  0  0  0
 24 41  1  0  0  0  0
 25 22  1  0  0  0  0
 25 42  1  0  0  0  0
 25 43  1  0  0  0  0
 25 44  1  0  0  0  0
M  END
>  <Mol_ID>
8927

>  <Formula>
C19H19N3O3

>  <MolWeight>
337.37246

>  <Cat>
P2486

>  <Name>
WAY-326452

>  <Synonyms>
N/A

>  <Target>
Anti-infection

>  <Form>
free base

>  <CAS>
870763-76-1

>  <URL>
N/A

$$$$
