WAY-639234
 OpenBabel08302521433D

 49 52  0  0  0  0  0  0  0  0999 V2000
    1.2470    0.0802   -0.0016 S   0  0  0  0  0  0  0  0  0  0  0  0
    1.0391    1.6214    0.8889 C   0  0  0  0  0  0  0  0  0  0  0  0
    0.6009   -1.0663    1.0482 N   0  0  0  0  0  0  0  0  0  0  0  0
    1.3919    2.8536    0.3075 C   0  0  0  0  0  0  0  0  0  0  0  0
    2.1301    3.0352   -0.9992 C   0  0  0  0  0  0  0  0  0  0  0  0
    0.6362   -5.2667    0.2301 C   0  0  0  0  0  0  0  0  0  0  0  0
   -0.8792   -5.0766   -1.6824 N   0  0  0  0  0  0  0  0  0  0  0  0
    0.5064   -3.9107    0.6158 N   0  0  0  0  0  0  0  0  0  0  0  0
   -0.3403   -5.8841   -0.7355 C   0  0  0  0  0  0  0  0  0  0  0  0
    2.6699   -0.1530   -0.0840 O   0  0  0  0  0  0  0  0  0  0  0  0
    0.3867    0.1756   -1.1557 O   0  0  0  0  0  0  0  0  0  0  0  0
    1.4880   -1.9233    1.8603 C   0  0  0  0  0  0  0  0  0  0  0  0
   -0.7021   -1.6928    0.7779 C   0  0  0  0  0  0  0  0  0  0  0  0
   -1.8914   -5.5439   -2.4221 C   0  0  0  0  0  0  0  0  0  0  0  0
    1.7102   -3.2876    1.1899 C   0  0  0  0  0  0  0  0  0  0  0  0
   -0.5023   -3.0098    0.0249 C   0  0  0  0  0  0  0  0  0  0  0  0
    1.5205   -5.9905    0.6942 O   0  0  0  0  0  0  0  0  0  0  0  0
   -0.6878   -7.2198   -0.5969 C   0  0  0  0  0  0  0  0  0  0  0  0
    2.5220    1.9145   -1.6449 F   0  0  0  0  0  0  0  0  0  0  0  0
    1.3977    3.7494   -1.9012 F   0  0  0  0  0  0  0  0  0  0  0  0
    3.2719    3.7648   -0.8148 F   0  0  0  0  0  0  0  0  0  0  0  0
   -2.3820   -6.8569   -2.2850 C   0  0  0  0  0  0  0  0  0  0  0  0
   -1.7225   -7.7119   -1.3894 C   0  0  0  0  0  0  0  0  0  0  0  0
    1.0597    4.0344    1.0108 C   0  0  0  0  0  0  0  0  0  0  0  0
    0.4543    1.5860    2.1667 C   0  0  0  0  0  0  0  0  0  0  0  0
   -2.5169   -4.6852   -3.3133 C   0  0  0  0  0  0  0  0  0  0  0  0
   -3.5201   -7.2554   -3.0082 C   0  0  0  0  0  0  0  0  0  0  0  0
    0.4516    3.9903    2.2654 C   0  0  0  0  0  0  0  0  0  0  0  0
    0.1716    2.7646    2.8532 C   0  0  0  0  0  0  0  0  0  0  0  0
   -3.6576   -5.0723   -4.0185 C   0  0  0  0  0  0  0  0  0  0  0  0
   -4.1689   -6.3547   -3.8532 C   0  0  0  0  0  0  0  0  0  0  0  0
    2.4442   -1.4322    2.0659 H   0  0  0  0  0  0  0  0  0  0  0  0
    1.0061   -2.0622    2.8359 H   0  0  0  0  0  0  0  0  0  0  0  0
   -1.1896   -1.8869    1.7420 H   0  0  0  0  0  0  0  0  0  0  0  0
   -1.3734   -1.0267    0.2279 H   0  0  0  0  0  0  0  0  0  0  0  0
    2.4336   -3.1889    0.3726 H   0  0  0  0  0  0  0  0  0  0  0  0
    2.1469   -3.9715    1.9279 H   0  0  0  0  0  0  0  0  0  0  0  0
   -0.1863   -2.7963   -1.0015 H   0  0  0  0  0  0  0  0  0  0  0  0
   -1.4682   -3.5254    0.0130 H   0  0  0  0  0  0  0  0  0  0  0  0
   -0.1998   -7.8507    0.1392 H   0  0  0  0  0  0  0  0  0  0  0  0
   -2.0380   -8.7462   -1.2762 H   0  0  0  0  0  0  0  0  0  0  0  0
    1.2865    5.0079    0.5732 H   0  0  0  0  0  0  0  0  0  0  0  0
    0.2013    0.6469    2.6490 H   0  0  0  0  0  0  0  0  0  0  0  0
   -2.1244   -3.6784   -3.4403 H   0  0  0  0  0  0  0  0  0  0  0  0
   -3.9269   -8.2568   -2.8896 H   0  0  0  0  0  0  0  0  0  0  0  0
    0.2079    4.9129    2.7868 H   0  0  0  0  0  0  0  0  0  0  0  0
   -0.2787    2.7222    3.8418 H   0  0  0  0  0  0  0  0  0  0  0  0
   -4.1494   -4.3647   -4.6813 H   0  0  0  0  0  0  0  0  0  0  0  0
   -5.0738   -6.6510   -4.3776 H   0  0  0  0  0  0  0  0  0  0  0  0
  2  1  1  0  0  0  0
  3  1  1  0  0  0  0
  4  2  2  0  0  0  0
  5  4  1  0  0  0  0
  6  8  1  0  0  0  0
  7  9  2  0  0  0  0
  8 16  1  0  0  0  0
  8 15  1  0  0  0  0
  9  6  1  0  0  0  0
 10  1  2  0  0  0  0
 11  1  2  0  0  0  0
 12  3  1  0  0  0  0
 12 32  1  0  0  0  0
 12 33  1  0  0  0  0
 13  3  1  0  0  0  0
 13 34  1  0  0  0  0
 13 35  1  0  0  0  0
 14  7  1  0  0  0  0
 15 12  1  0  0  0  0
 15 36  1  0  0  0  0
 15 37  1  0  0  0  0
 16 13  1  0  0  0  0
 16 38  1  0  0  0  0
 16 39  1  0  0  0  0
 17  6  2  0  0  0  0
 18  9  1  0  0  0  0
 18 40  1  0  0  0  0
 19  5  1  0  0  0  0
 20  5  1  0  0  0  0
 21  5  1  0  0  0  0
 22 23  1  0  0  0  0
 22 14  2  0  0  0  0
 23 18  2  0  0  0  0
 23 41  1  0  0  0  0
 24  4  1  0  0  0  0
 24 42  1  0  0  0  0
 25  2  1  0  0  0  0
 25 43  1  0  0  0  0
 26 14  1  0  0  0  0
 26 44  1  0  0  0  0
 27 22  1  0  0  0  0
 27 45  1  0  0  0  0
 28 29  1  0  0  0  0
 28 24  2  0  0  0  0
 28 46  1  0  0  0  0
 29 25  2  0  0  0  0
 29 47  1  0  0  0  0
 30 26  2  0  0  0  0
 30 31  1  0  0  0  0
 30 48  1  0  0  0  0
 31 27  2  0  0  0  0
 31 49  1  0  0  0  0
M  END
>  <Mol_ID>
8807

>  <Formula>
C21H18F3N3O3S

>  <MolWeight>
449.4461296

>  <Cat>
P3071

>  <Name>
WAY-639234

>  <Synonyms>
N/A

>  <Target>
cav2.2 calcium channel

>  <Form>
free base

>  <CAS>
796096-78-1

>  <URL>
N/A

$$$$
