WAY-323972
 OpenBabel08302521423D

 39 41  0  0  0  0  0  0  0  0999 V2000
   -0.6962   -1.2530    0.0522 C   0  0  0  0  0  0  0  0  0  0  0  0
    0.6291   -1.3360   -0.0558 C   0  0  0  0  0  0  0  0  0  0  0  0
    0.0492    0.9015    0.0472 N   0  0  0  0  0  0  0  0  0  0  0  0
   -1.0829    0.1468    0.1466 C   0  0  0  0  0  0  0  0  0  0  0  0
    1.1405    0.0746   -0.0740 C   0  0  0  0  0  0  0  0  0  0  0  0
    1.4093   -2.4764   -0.1427 N   0  0  0  0  0  0  0  0  0  0  0  0
    0.0809    2.3213    0.0468 C   0  0  0  0  0  0  0  0  0  0  0  0
    0.2206    6.6273    0.0483 C   0  0  0  0  0  0  0  0  0  0  0  0
   -2.2563    0.4652    0.2517 O   0  0  0  0  0  0  0  0  0  0  0  0
    2.3219    0.3604   -0.1705 O   0  0  0  0  0  0  0  0  0  0  0  0
    0.1300    5.1500    0.0441 C   0  0  0  0  0  0  0  0  0  0  0  0
    1.2807    7.2334    0.0440 O   0  0  0  0  0  0  0  0  0  0  0  0
   -0.9836    3.0693    0.5778 C   0  0  0  0  0  0  0  0  0  0  0  0
    1.1693    3.0244   -0.4897 C   0  0  0  0  0  0  0  0  0  0  0  0
   -0.9588    4.4689    0.5901 C   0  0  0  0  0  0  0  0  0  0  0  0
    1.1932    4.4235   -0.4967 C   0  0  0  0  0  0  0  0  0  0  0  0
    2.6322   -4.9950    0.4493 O   0  0  0  0  0  0  0  0  0  0  0  0
   -1.0186    7.1780    0.0030 O   0  0  0  0  0  0  0  0  0  0  0  0
    0.9317   -3.7244   -0.7653 C   0  0  0  0  0  0  0  0  0  0  0  0
    2.8398   -2.5403    0.2154 C   0  0  0  0  0  0  0  0  0  0  0  0
    1.2285   -4.9079    0.1595 C   0  0  0  0  0  0  0  0  0  0  0  0
    3.0903   -3.7894    1.0857 C   0  0  0  0  0  0  0  0  0  0  0  0
   -1.0027    8.6055   -0.0504 C   0  0  0  0  0  0  0  0  0  0  0  0
   -1.4144   -2.0526    0.1030 H   0  0  0  0  0  0  0  0  0  0  0  0
   -1.8469    2.5852    1.0291 H   0  0  0  0  0  0  0  0  0  0  0  0
    2.0113    2.5106   -0.9476 H   0  0  0  0  0  0  0  0  0  0  0  0
   -1.7881    5.0083    1.0418 H   0  0  0  0  0  0  0  0  0  0  0  0
    2.0443    4.9414   -0.9346 H   0  0  0  0  0  0  0  0  0  0  0  0
    1.4582   -3.8526   -1.7189 H   0  0  0  0  0  0  0  0  0  0  0  0
   -0.1398   -3.6906   -0.9871 H   0  0  0  0  0  0  0  0  0  0  0  0
    3.4322   -2.6001   -0.7049 H   0  0  0  0  0  0  0  0  0  0  0  0
    3.1674   -1.6668    0.7841 H   0  0  0  0  0  0  0  0  0  0  0  0
    0.6707   -4.8206    1.1000 H   0  0  0  0  0  0  0  0  0  0  0  0
    0.9267   -5.8409   -0.3257 H   0  0  0  0  0  0  0  0  0  0  0  0
    4.1620   -3.9025    1.2772 H   0  0  0  0  0  0  0  0  0  0  0  0
    2.5865   -3.6912    2.0552 H   0  0  0  0  0  0  0  0  0  0  0  0
   -0.5269    9.0155    0.8462 H   0  0  0  0  0  0  0  0  0  0  0  0
   -0.4888    8.9526   -0.9533 H   0  0  0  0  0  0  0  0  0  0  0  0
   -2.0371    8.9576   -0.0856 H   0  0  0  0  0  0  0  0  0  0  0  0
  1 24  1  0  0  0  0
  2  1  2  0  0  0  0
  3  4  1  0  0  0  0
  3  5  1  0  0  0  0
  4  1  1  0  0  0  0
  5  2  1  0  0  0  0
  6  2  1  0  0  0  0
  7  3  1  0  0  0  0
  8 11  1  0  0  0  0
  9  4  2  0  0  0  0
 10  5  2  0  0  0  0
 11 16  2  0  0  0  0
 11 15  1  0  0  0  0
 12  8  2  0  0  0  0
 13  7  1  0  0  0  0
 13 25  1  0  0  0  0
 14  7  2  0  0  0  0
 14 26  1  0  0  0  0
 15 13  2  0  0  0  0
 15 27  1  0  0  0  0
 16 14  1  0  0  0  0
 16 28  1  0  0  0  0
 17 22  1  0  0  0  0
 17 21  1  0  0  0  0
 18  8  1  0  0  0  0
 19  6  1  0  0  0  0
 19 29  1  0  0  0  0
 19 30  1  0  0  0  0
 20  6  1  0  0  0  0
 20 31  1  0  0  0  0
 20 32  1  0  0  0  0
 21 19  1  0  0  0  0
 21 33  1  0  0  0  0
 21 34  1  0  0  0  0
 22 20  1  0  0  0  0
 22 35  1  0  0  0  0
 22 36  1  0  0  0  0
 23 18  1  0  0  0  0
 23 37  1  0  0  0  0
 23 38  1  0  0  0  0
 23 39  1  0  0  0  0
M  END
>  <Mol_ID>
8590

>  <Formula>
C16H15ClN2O5

>  <MolWeight>
350.7537

>  <Cat>
P2283

>  <Name>
WAY-323972

>  <Synonyms>
N/A

>  <Target>
interaction of MDM4 and p53

>  <Form>
free base

>  <CAS>
685135-21-1

>  <URL>
N/A

$$$$
