WAY-624704
 OpenBabel08302521343D

 38 40  0  0  0  0  0  0  0  0999 V2000
    3.5292   -1.4806    0.7307 C   0  0  0  0  0  0  0  0  0  0  0  0
    4.8485   -1.2606    1.1495 C   0  0  0  0  0  0  0  0  0  0  0  0
    5.5777   -2.2698    1.7874 C   0  0  0  0  0  0  0  0  0  0  0  0
    4.9963   -3.5137    2.0221 C   0  0  0  0  0  0  0  0  0  0  0  0
    3.6714   -3.7281    1.6354 C   0  0  0  0  0  0  0  0  0  0  0  0
    2.9385   -2.7215    0.9980 C   0  0  0  0  0  0  0  0  0  0  0  0
    3.4712    0.1265   -1.2190 C   0  0  0  0  0  0  0  0  0  0  0  0
    2.7603   -0.3867    0.0273 C   0  0  0  0  0  0  0  0  0  0  0  0
    4.1355    1.1572   -1.1800 O   0  0  0  0  0  0  0  0  0  0  0  0
    3.2918   -0.7016   -2.3061 N   0  0  0  0  0  0  0  0  0  0  0  0
    3.6488   -1.7196   -4.6481 S   0  0  0  0  0  0  0  0  0  0  0  0
    3.8604   -0.4524   -3.5235 C   0  0  0  0  0  0  0  0  0  0  0  0
    4.5272    0.5909   -3.9431 N   0  0  0  0  0  0  0  0  0  0  0  0
    4.9038    0.4071   -5.2659 C   0  0  0  0  0  0  0  0  0  0  0  0
    4.5447   -0.8172   -5.8006 C   0  0  0  0  0  0  0  0  0  0  0  0
    7.1205    3.3122   -6.0157 C   0  0  0  0  0  0  0  0  0  0  0  0
    6.4342    2.3448   -5.2979 C   0  0  0  0  0  0  0  0  0  0  0  0
    5.6380    1.4351   -5.9963 C   0  0  0  0  0  0  0  0  0  0  0  0
    5.5506    1.5551   -7.3862 C   0  0  0  0  0  0  0  0  0  0  0  0
    6.2707    2.5606   -8.0119 C   0  0  0  0  0  0  0  0  0  0  0  0
    7.0597    3.4361   -7.3587 N   0  0  0  0  0  0  0  0  0  0  0  0
    5.6052   -4.5866    2.6140 O   0  0  0  0  0  0  0  0  0  0  0  0
    6.9624   -4.4154    3.0053 C   0  0  0  0  0  0  0  0  0  0  0  0
    5.3258   -0.2957    0.9774 H   0  0  0  0  0  0  0  0  0  0  0  0
    6.5976   -2.0470    2.0836 H   0  0  0  0  0  0  0  0  0  0  0  0
    3.2057   -4.6910    1.8336 H   0  0  0  0  0  0  0  0  0  0  0  0
    1.9065   -2.9215    0.7198 H   0  0  0  0  0  0  0  0  0  0  0  0
    1.7586   -0.7332   -0.2559 H   0  0  0  0  0  0  0  0  0  0  0  0
    2.6103    0.4531    0.7184 H   0  0  0  0  0  0  0  0  0  0  0  0
    2.8096   -1.5820   -2.2051 H   0  0  0  0  0  0  0  0  0  0  0  0
    4.7497   -1.2217   -6.7809 H   0  0  0  0  0  0  0  0  0  0  0  0
    7.7554    4.0358   -5.5119 H   0  0  0  0  0  0  0  0  0  0  0  0
    6.5216    2.3043   -4.2166 H   0  0  0  0  0  0  0  0  0  0  0  0
    4.9249    0.9026   -7.9838 H   0  0  0  0  0  0  0  0  0  0  0  0
    6.2253    2.6929   -9.0893 H   0  0  0  0  0  0  0  0  0  0  0  0
    7.5953   -4.1513    2.1513 H   0  0  0  0  0  0  0  0  0  0  0  0
    7.0464   -3.6720    3.8048 H   0  0  0  0  0  0  0  0  0  0  0  0
    7.3214   -5.3716    3.3979 H   0  0  0  0  0  0  0  0  0  0  0  0
  1  2  2  0  0  0  0
  1  6  1  0  0  0  0
  1  8  1  0  0  0  0
  2  3  1  0  0  0  0
  2 24  1  0  0  0  0
  3  4  2  0  0  0  0
  3 25  1  0  0  0  0
  4  5  1  0  0  0  0
  4 22  1  0  0  0  0
  5  6  2  0  0  0  0
  5 26  1  0  0  0  0
  6 27  1  0  0  0  0
  7  8  1  0  0  0  0
  7  9  2  0  0  0  0
  7 10  1  0  0  0  0
  8 28  1  0  0  0  0
  8 29  1  0  0  0  0
 10 12  1  0  0  0  0
 10 30  1  0  0  0  0
 11 12  1  0  0  0  0
 11 15  1  0  0  0  0
 12 13  2  0  0  0  0
 13 14  1  0  0  0  0
 14 15  2  0  0  0  0
 14 18  1  0  0  0  0
 15 31  1  0  0  0  0
 16 17  2  0  0  0  0
 16 21  1  0  0  0  0
 16 32  1  0  0  0  0
 17 18  1  0  0  0  0
 17 33  1  0  0  0  0
 18 19  2  0  0  0  0
 19 20  1  0  0  0  0
 19 34  1  0  0  0  0
 20 21  2  0  0  0  0
 20 35  1  0  0  0  0
 22 23  1  0  0  0  0
 23 36  1  0  0  0  0
 23 37  1  0  0  0  0
 23 38  1  0  0  0  0
M  END
>  <Mol_ID>
6465

>  <Formula>
C17H15N3O2S

>  <MolWeight>
325.3849

>  <Cat>
E2519

>  <Name>
WAY-624704

>  <Target>
ROCK

>  <Form>
free base

>  <CAS>
692869-38-8

>  <URL>
http://www.selleckchem.com/products/way-624704.html

$$$$
