WAY-327953
 OpenBabel08302521443D

 60 63  0  0  0  0  0  0  0  0999 V2000
    1.7209    0.5348    0.4731 S   0  0  0  0  0  0  0  0  0  0  0  0
    0.6871   -3.1482    4.0686 C   0  0  0  0  0  0  0  0  0  0  0  0
    0.6696   -1.7082    3.6741 C   0  0  0  0  0  0  0  0  0  0  0  0
    1.0357    0.0471    2.0395 C   0  0  0  0  0  0  0  0  0  0  0  0
    0.6289   -0.1571   -0.6803 N   0  0  0  0  0  0  0  0  0  0  0  0
   -0.8549   -1.2685    5.5013 N   0  0  0  0  0  0  0  0  0  0  0  0
   -0.8042   -2.5554    5.9396 C   0  0  0  0  0  0  0  0  0  0  0  0
   -0.1922   -0.8263    4.3569 C   0  0  0  0  0  0  0  0  0  0  0  0
   -0.0872   -3.5221    5.0971 C   0  0  0  0  0  0  0  0  0  0  0  0
    1.2483   -4.2081    3.1648 C   0  0  0  0  0  0  0  0  0  0  0  0
    1.3682   -1.2057    2.5699 C   0  0  0  0  0  0  0  0  0  0  0  0
    1.7131   -5.4072    3.5873 N   0  0  0  0  0  0  0  0  0  0  0  0
    3.0065   -0.1122    0.3180 O   0  0  0  0  0  0  0  0  0  0  0  0
    1.6035    1.9762    0.3847 O   0  0  0  0  0  0  0  0  0  0  0  0
    2.1263   -7.5552    4.8337 C   0  0  0  0  0  0  0  0  0  0  0  0
    1.9532   -6.0397    4.8897 C   0  0  0  0  0  0  0  0  0  0  0  0
    0.1541    0.8989    2.7067 C   0  0  0  0  0  0  0  0  0  0  0  0
   -0.4279    0.4740    3.8974 C   0  0  0  0  0  0  0  0  0  0  0  0
   -1.3790   -2.9266    6.9594 O   0  0  0  0  0  0  0  0  0  0  0  0
    1.3081   -4.0062    1.9477 O   0  0  0  0  0  0  0  0  0  0  0  0
    2.2087   -8.3194    6.0245 C   0  0  0  0  0  0  0  0  0  0  0  0
    0.6166   -1.6574   -0.7008 C   0  0  0  0  0  0  0  0  0  0  0  0
    0.8669    0.4082   -2.0434 C   0  0  0  0  0  0  0  0  0  0  0  0
    2.1762   -7.6507    7.2361 O   0  0  0  0  0  0  0  0  0  0  0  0
    2.1466   -8.2542    3.6053 C   0  0  0  0  0  0  0  0  0  0  0  0
    2.2899   -9.7217    5.9415 C   0  0  0  0  0  0  0  0  0  0  0  0
    2.0510   -8.5050    8.3863 C   0  0  0  0  0  0  0  0  0  0  0  0
   -0.2042   -0.0789   -3.0116 C   0  0  0  0  0  0  0  0  0  0  0  0
   -0.3802   -2.2023   -1.7253 C   0  0  0  0  0  0  0  0  0  0  0  0
    1.7850   -7.7233    9.6581 C   0  0  0  0  0  0  0  0  0  0  0  0
    2.1887   -9.6486    3.5497 C   0  0  0  0  0  0  0  0  0  0  0  0
    2.2479  -10.3836    4.7185 C   0  0  0  0  0  0  0  0  0  0  0  0
   -0.1753   -1.5967   -3.1076 C   0  0  0  0  0  0  0  0  0  0  0  0
   -1.4199   -0.6348    6.0504 H   0  0  0  0  0  0  0  0  0  0  0  0
   -0.3047   -4.5501    5.3510 H   0  0  0  0  0  0  0  0  0  0  0  0
    2.1056   -1.8124    2.0493 H   0  0  0  0  0  0  0  0  0  0  0  0
    2.1634   -5.8456    2.7974 H   0  0  0  0  0  0  0  0  0  0  0  0
    2.8379   -5.5602    5.3191 H   0  0  0  0  0  0  0  0  0  0  0  0
    1.1030   -5.8472    5.5389 H   0  0  0  0  0  0  0  0  0  0  0  0
   -0.0940    1.8766    2.2982 H   0  0  0  0  0  0  0  0  0  0  0  0
   -1.1112    1.1370    4.4237 H   0  0  0  0  0  0  0  0  0  0  0  0
    0.3001   -2.0346    0.2738 H   0  0  0  0  0  0  0  0  0  0  0  0
    1.6193   -2.0397   -0.9200 H   0  0  0  0  0  0  0  0  0  0  0  0
    1.8615    0.1163   -2.3995 H   0  0  0  0  0  0  0  0  0  0  0  0
    0.8172    1.5014   -2.0060 H   0  0  0  0  0  0  0  0  0  0  0  0
    2.0953   -7.7462    2.6484 H   0  0  0  0  0  0  0  0  0  0  0  0
    2.3659  -10.3543    6.8219 H   0  0  0  0  0  0  0  0  0  0  0  0
    1.2023   -9.1864    8.2513 H   0  0  0  0  0  0  0  0  0  0  0  0
    2.9781   -9.0761    8.5228 H   0  0  0  0  0  0  0  0  0  0  0  0
   -0.0385    0.3594   -4.0014 H   0  0  0  0  0  0  0  0  0  0  0  0
   -1.1944    0.2495   -2.6709 H   0  0  0  0  0  0  0  0  0  0  0  0
   -1.4031   -1.9910   -1.3906 H   0  0  0  0  0  0  0  0  0  0  0  0
   -0.2840   -3.2923   -1.7862 H   0  0  0  0  0  0  0  0  0  0  0  0
    2.6404   -7.0972    9.9255 H   0  0  0  0  0  0  0  0  0  0  0  0
    0.9124   -7.0745    9.5458 H   0  0  0  0  0  0  0  0  0  0  0  0
    1.5981   -8.4209   10.4833 H   0  0  0  0  0  0  0  0  0  0  0  0
    2.1596  -10.1552    2.5891 H   0  0  0  0  0  0  0  0  0  0  0  0
    2.2542  -11.4692    4.6868 H   0  0  0  0  0  0  0  0  0  0  0  0
   -0.9563   -1.9463   -3.7919 H   0  0  0  0  0  0  0  0  0  0  0  0
    0.7865   -1.9254   -3.5207 H   0  0  0  0  0  0  0  0  0  0  0  0
  2  3  1  0  0  0  0
  3 11  2  0  0  0  0
  4  1  1  0  0  0  0
  5  1  1  0  0  0  0
  6  8  1  0  0  0  0
  6 34  1  0  0  0  0
  7  6  1  0  0  0  0
  8 18  2  0  0  0  0
  8  3  1  0  0  0  0
  9  2  2  0  0  0  0
  9  7  1  0  0  0  0
  9 35  1  0  0  0  0
 10  2  1  0  0  0  0
 11  4  1  0  0  0  0
 11 36  1  0  0  0  0
 12 10  1  0  0  0  0
 12 37  1  0  0  0  0
 13  1  2  0  0  0  0
 14  1  2  0  0  0  0
 15 16  1  0  0  0  0
 16 12  1  0  0  0  0
 16 38  1  0  0  0  0
 16 39  1  0  0  0  0
 17  4  2  0  0  0  0
 17 40  1  0  0  0  0
 18 17  1  0  0  0  0
 18 41  1  0  0  0  0
 19  7  2  0  0  0  0
 20 10  2  0  0  0  0
 21 15  2  0  0  0  0
 22  5  1  0  0  0  0
 22 42  1  0  0  0  0
 22 43  1  0  0  0  0
 23  5  1  0  0  0  0
 23 44  1  0  0  0  0
 23 45  1  0  0  0  0
 24 21  1  0  0  0  0
 25 15  1  0  0  0  0
 25 46  1  0  0  0  0
 26 21  1  0  0  0  0
 26 47  1  0  0  0  0
 27 24  1  0  0  0  0
 27 48  1  0  0  0  0
 27 49  1  0  0  0  0
 28 23  1  0  0  0  0
 28 50  1  0  0  0  0
 28 51  1  0  0  0  0
 29 22  1  0  0  0  0
 29 52  1  0  0  0  0
 29 53  1  0  0  0  0
 30 27  1  0  0  0  0
 30 54  1  0  0  0  0
 30 55  1  0  0  0  0
 30 56  1  0  0  0  0
 31 25  2  0  0  0  0
 31 57  1  0  0  0  0
 32 31  1  0  0  0  0
 32 26  2  0  0  0  0
 32 58  1  0  0  0  0
 33 28  1  0  0  0  0
 33 29  1  0  0  0  0
 33 59  1  0  0  0  0
 33 60  1  0  0  0  0
M  END
>  <Mol_ID>
8992

>  <Formula>
C24H27N3O5S

>  <MolWeight>
469.55328

>  <Cat>
P2555

>  <Name>
WAY-327953

>  <Synonyms>
N/A

>  <Target>
caspase

>  <Form>
free base

>  <CAS>
687590-79-0

>  <URL>
N/A

$$$$
