WAY-639889
 OpenBabel08302521443D

 58 62  0  0  0  0  0  0  0  0999 V2000
    0.4669   -2.0135    0.5906 N   0  0  0  0  0  0  0  0  0  0  0  0
    2.4923   -1.0692    0.4857 C   0  0  0  0  0  0  0  0  0  0  0  0
    1.1230   -0.8100    0.4104 C   0  0  0  0  0  0  0  0  0  0  0  0
    1.3748   -3.0360    0.7958 C   0  0  0  0  0  0  0  0  0  0  0  0
    2.6498   -2.4693    0.7317 C   0  0  0  0  0  0  0  0  0  0  0  0
    5.1212    7.2037   -2.4883 N   0  0  0  0  0  0  0  0  0  0  0  0
    5.2921    8.1009   -3.5248 C   0  0  0  0  0  0  0  0  0  0  0  0
    3.6288    3.7064    0.1365 C   0  0  0  0  0  0  0  0  0  0  0  0
    5.4526    4.4676   -1.3908 N   0  0  0  0  0  0  0  0  0  0  0  0
    0.6355    0.4828    0.1791 C   0  0  0  0  0  0  0  0  0  0  0  0
    3.4057    0.0026    0.3243 C   0  0  0  0  0  0  0  0  0  0  0  0
    3.8850    2.3497    0.0300 N   0  0  0  0  0  0  0  0  0  0  0  0
    6.5420    8.3865   -3.9525 N   0  0  0  0  0  0  0  0  0  0  0  0
    2.9340    1.3092    0.1323 C   0  0  0  0  0  0  0  0  0  0  0  0
    3.9880    6.2742   -2.4799 C   0  0  0  0  0  0  0  0  0  0  0  0
    6.2298    6.9195   -1.5718 C   0  0  0  0  0  0  0  0  0  0  0  0
    4.8654    4.5915   -0.0375 C   0  0  0  0  0  0  0  0  0  0  0  0
    2.5368    4.2250    0.3728 O   0  0  0  0  0  0  0  0  0  0  0  0
    4.4722    4.8054   -2.4558 C   0  0  0  0  0  0  0  0  0  0  0  0
    6.5946    5.4126   -1.5416 C   0  0  0  0  0  0  0  0  0  0  0  0
    1.5595    1.5268    0.0469 C   0  0  0  0  0  0  0  0  0  0  0  0
   -0.9751   -2.1985    0.5101 C   0  0  0  0  0  0  0  0  0  0  0  0
    1.1844   -4.4096    1.0248 C   0  0  0  0  0  0  0  0  0  0  0  0
    3.7742   -3.3049    0.9045 C   0  0  0  0  0  0  0  0  0  0  0  0
    4.1927    8.7316   -4.1122 C   0  0  0  0  0  0  0  0  0  0  0  0
    6.6928    9.2562   -4.9769 C   0  0  0  0  0  0  0  0  0  0  0  0
   -1.6705   -2.1043    1.8580 C   0  0  0  0  0  0  0  0  0  0  0  0
    2.3148   -5.2156    1.1863 C   0  0  0  0  0  0  0  0  0  0  0  0
    3.5937   -4.6731    1.1286 C   0  0  0  0  0  0  0  0  0  0  0  0
    4.3654    9.6318   -5.1635 C   0  0  0  0  0  0  0  0  0  0  0  0
    5.6457    9.8971   -5.6148 C   0  0  0  0  0  0  0  0  0  0  0  0
   -0.4267    0.6919    0.1065 H   0  0  0  0  0  0  0  0  0  0  0  0
    4.4690   -0.2018    0.3908 H   0  0  0  0  0  0  0  0  0  0  0  0
    4.8554    2.0872   -0.0938 H   0  0  0  0  0  0  0  0  0  0  0  0
    3.3635    6.4870   -1.6051 H   0  0  0  0  0  0  0  0  0  0  0  0
    3.3457    6.3840   -3.3608 H   0  0  0  0  0  0  0  0  0  0  0  0
    7.1345    7.4985   -1.7910 H   0  0  0  0  0  0  0  0  0  0  0  0
    5.9194    7.2355   -0.5685 H   0  0  0  0  0  0  0  0  0  0  0  0
    4.5657    5.6191    0.2000 H   0  0  0  0  0  0  0  0  0  0  0  0
    5.5999    4.2879    0.7185 H   0  0  0  0  0  0  0  0  0  0  0  0
    4.9452    4.5811   -3.4221 H   0  0  0  0  0  0  0  0  0  0  0  0
    3.6041    4.1379   -2.4077 H   0  0  0  0  0  0  0  0  0  0  0  0
    7.1142    5.1625   -2.4757 H   0  0  0  0  0  0  0  0  0  0  0  0
    7.3241    5.2329   -0.7416 H   0  0  0  0  0  0  0  0  0  0  0  0
    1.1598    2.5171   -0.1498 H   0  0  0  0  0  0  0  0  0  0  0  0
   -1.3791   -1.4517   -0.1812 H   0  0  0  0  0  0  0  0  0  0  0  0
   -1.1626   -3.1765    0.0542 H   0  0  0  0  0  0  0  0  0  0  0  0
    0.1923   -4.8463    1.0749 H   0  0  0  0  0  0  0  0  0  0  0  0
    4.7767   -2.8897    0.8611 H   0  0  0  0  0  0  0  0  0  0  0  0
    3.1901    8.5569   -3.7369 H   0  0  0  0  0  0  0  0  0  0  0  0
    7.7198    9.4344   -5.2843 H   0  0  0  0  0  0  0  0  0  0  0  0
   -1.2721   -2.8367    2.5677 H   0  0  0  0  0  0  0  0  0  0  0  0
   -1.5516   -1.1094    2.2988 H   0  0  0  0  0  0  0  0  0  0  0  0
   -2.7425   -2.2966    1.7411 H   0  0  0  0  0  0  0  0  0  0  0  0
    2.1902   -6.2823    1.3584 H   0  0  0  0  0  0  0  0  0  0  0  0
    4.4611   -5.3155    1.2573 H   0  0  0  0  0  0  0  0  0  0  0  0
    3.5056   10.1197   -5.6109 H   0  0  0  0  0  0  0  0  0  0  0  0
    5.8232   10.5865   -6.4312 H   0  0  0  0  0  0  0  0  0  0  0  0
  2  3  2  0  0  0  0
  2  5  1  0  0  0  0
  3  1  1  0  0  0  0
  4  1  1  0  0  0  0
  5  4  2  0  0  0  0
  6 16  1  0  0  0  0
  6 15  1  0  0  0  0
  7  6  1  0  0  0  0
  8 12  1  0  0  0  0
  9 17  1  0  0  0  0
 10  3  1  0  0  0  0
 10 32  1  0  0  0  0
 11  2  1  0  0  0  0
 11 33  1  0  0  0  0
 12 14  1  0  0  0  0
 12 34  1  0  0  0  0
 13  7  2  0  0  0  0
 14 21  1  0  0  0  0
 14 11  2  0  0  0  0
 15 19  1  0  0  0  0
 15 35  1  0  0  0  0
 15 36  1  0  0  0  0
 16 20  1  0  0  0  0
 16 37  1  0  0  0  0
 16 38  1  0  0  0  0
 17  8  1  0  0  0  0
 17 39  1  0  0  0  0
 17 40  1  0  0  0  0
 18  8  2  0  0  0  0
 19  9  1  0  0  0  0
 19 41  1  0  0  0  0
 19 42  1  0  0  0  0
 20  9  1  0  0  0  0
 20 43  1  0  0  0  0
 20 44  1  0  0  0  0
 21 10  2  0  0  0  0
 21 45  1  0  0  0  0
 22  1  1  0  0  0  0
 22 46  1  0  0  0  0
 22 47  1  0  0  0  0
 23  4  1  0  0  0  0
 23 48  1  0  0  0  0
 24  5  1  0  0  0  0
 24 49  1  0  0  0  0
 25  7  1  0  0  0  0
 25 50  1  0  0  0  0
 26 13  1  0  0  0  0
 26 51  1  0  0  0  0
 27 22  1  0  0  0  0
 27 52  1  0  0  0  0
 27 53  1  0  0  0  0
 27 54  1  0  0  0  0
 28 23  2  0  0  0  0
 28 55  1  0  0  0  0
 29 28  1  0  0  0  0
 29 24  2  0  0  0  0
 29 56  1  0  0  0  0
 30 25  2  0  0  0  0
 30 57  1  0  0  0  0
 31 30  1  0  0  0  0
 31 26  2  0  0  0  0
 31 58  1  0  0  0  0
M  END
>  <Mol_ID>
9085

>  <Formula>
C25H27N5O

>  <MolWeight>
413.51478

>  <Cat>
P3092

>  <Name>
WAY-639889

>  <Synonyms>
N/A

>  <Target>
neuropeptide Y-5

>  <Form>
free base

>  <CAS>
432506-24-6

>  <URL>
N/A

$$$$
