WAY-323490
 OpenBabel08302521423D

 53 57  0  0  0  0  0  0  0  0999 V2000
   -1.1776    0.6707    0.0353 C   0  0  0  0  0  0  0  0  0  0  0  0
   -3.6832   -0.7474    0.0549 C   0  0  0  0  0  0  0  0  0  0  0  0
   -1.2341   -0.6815    0.0485 C   0  0  0  0  0  0  0  0  0  0  0  0
   -2.3904    1.4116    0.0205 N   0  0  0  0  0  0  0  0  0  0  0  0
   -3.6447    0.7527    0.0092 C   0  0  0  0  0  0  0  0  0  0  0  0
    0.0350    1.3190    0.0317 N   0  0  0  0  0  0  0  0  0  0  0  0
   -5.1471   -1.6668    0.0751 S   0  0  0  0  0  0  0  0  0  0  0  0
    0.0384   -1.4639    0.0279 C   0  0  0  0  0  0  0  0  0  0  0  0
    1.2082   -0.7285    0.0159 N   0  0  0  0  0  0  0  0  0  0  0  0
   -2.5037   -1.3878    0.0748 C   0  0  0  0  0  0  0  0  0  0  0  0
    1.1367    0.6492    0.0188 C   0  0  0  0  0  0  0  0  0  0  0  0
   -5.4491   -1.9055    1.8189 C   0  0  0  0  0  0  0  0  0  0  0  0
   -4.7426    1.4520   -0.0438 N   0  0  0  0  0  0  0  0  0  0  0  0
   -6.2486   -0.8574   -0.4199 O   0  0  0  0  0  0  0  0  0  0  0  0
   -4.9206   -2.9868   -0.4894 O   0  0  0  0  0  0  0  0  0  0  0  0
    2.4363   -1.3797    0.0046 C   0  0  0  0  0  0  0  0  0  0  0  0
   -0.0048   -2.6960    0.0227 O   0  0  0  0  0  0  0  0  0  0  0  0
    2.4222    1.4016    0.0069 C   0  0  0  0  0  0  0  0  0  0  0  0
   -2.3693    2.9048   -0.0223 C   0  0  0  0  0  0  0  0  0  0  0  0
    3.5925   -0.7042   -0.0023 C   0  0  0  0  0  0  0  0  0  0  0  0
    3.5825    0.7350   -0.0018 C   0  0  0  0  0  0  0  0  0  0  0  0
   -6.2213   -0.9720    2.5182 C   0  0  0  0  0  0  0  0  0  0  0  0
   -4.9694   -3.0540    2.4579 C   0  0  0  0  0  0  0  0  0  0  0  0
   -5.9494   -2.2834    4.5309 C   0  0  0  0  0  0  0  0  0  0  0  0
   -5.2178   -3.2359    3.8193 C   0  0  0  0  0  0  0  0  0  0  0  0
   -6.4597   -1.1595    3.8798 C   0  0  0  0  0  0  0  0  0  0  0  0
   -1.6788    3.4685   -1.2778 C   0  0  0  0  0  0  0  0  0  0  0  0
   -1.7714    3.5117    1.2572 C   0  0  0  0  0  0  0  0  0  0  0  0
   -1.8736    5.0373    1.2295 C   0  0  0  0  0  0  0  0  0  0  0  0
   -1.7828    4.9949   -1.3088 C   0  0  0  0  0  0  0  0  0  0  0  0
   -1.2379    5.6292   -0.0287 C   0  0  0  0  0  0  0  0  0  0  0  0
   -2.4579   -2.4756    0.1039 H   0  0  0  0  0  0  0  0  0  0  0  0
   -5.5926    0.8725   -0.1204 H   0  0  0  0  0  0  0  0  0  0  0  0
    2.4191   -2.4684    0.0015 H   0  0  0  0  0  0  0  0  0  0  0  0
    2.3673    2.4835    0.0048 H   0  0  0  0  0  0  0  0  0  0  0  0
   -3.3984    3.2801   -0.0709 H   0  0  0  0  0  0  0  0  0  0  0  0
    4.5471   -1.2202   -0.0099 H   0  0  0  0  0  0  0  0  0  0  0  0
    4.5307    1.2632   -0.0103 H   0  0  0  0  0  0  0  0  0  0  0  0
   -6.6462   -0.1045    2.0178 H   0  0  0  0  0  0  0  0  0  0  0  0
   -4.4144   -3.8125    1.9100 H   0  0  0  0  0  0  0  0  0  0  0  0
   -6.1343   -2.4238    5.5936 H   0  0  0  0  0  0  0  0  0  0  0  0
   -4.8476   -4.1237    4.3273 H   0  0  0  0  0  0  0  0  0  0  0  0
   -7.0491   -0.4321    4.4334 H   0  0  0  0  0  0  0  0  0  0  0  0
   -0.6154    3.2079   -1.3118 H   0  0  0  0  0  0  0  0  0  0  0  0
   -2.1300    3.0466   -2.1831 H   0  0  0  0  0  0  0  0  0  0  0  0
   -2.2927    3.1216    2.1389 H   0  0  0  0  0  0  0  0  0  0  0  0
   -0.7164    3.2428    1.3755 H   0  0  0  0  0  0  0  0  0  0  0  0
   -1.3859    5.4539    2.1179 H   0  0  0  0  0  0  0  0  0  0  0  0
   -2.9283    5.3306    1.2764 H   0  0  0  0  0  0  0  0  0  0  0  0
   -1.2334    5.3850   -2.1734 H   0  0  0  0  0  0  0  0  0  0  0  0
   -2.8321    5.2845   -1.4411 H   0  0  0  0  0  0  0  0  0  0  0  0
   -0.1506    5.4852    0.0125 H   0  0  0  0  0  0  0  0  0  0  0  0
   -1.4139    6.7100   -0.0525 H   0  0  0  0  0  0  0  0  0  0  0  0
  2  5  1  0  0  0  0
  2 10  2  0  0  0  0
  3  1  2  0  0  0  0
  4  1  1  0  0  0  0
  5  4  1  0  0  0  0
  6  1  1  0  0  0  0
  7  2  1  0  0  0  0
  8  3  1  0  0  0  0
  9 11  1  0  0  0  0
  9  8  1  0  0  0  0
 10  3  1  0  0  0  0
 10 32  1  0  0  0  0
 11  6  2  0  0  0  0
 12  7  1  0  0  0  0
 13  5  2  0  0  0  0
 13 33  1  0  0  0  0
 14  7  2  0  0  0  0
 15  7  2  0  0  0  0
 16  9  1  0  0  0  0
 16 20  2  0  0  0  0
 16 34  1  0  0  0  0
 17  8  2  0  0  0  0
 18 11  1  0  0  0  0
 18 35  1  0  0  0  0
 19  4  1  0  0  0  0
 19 36  1  0  0  0  0
 20 21  1  0  0  0  0
 20 37  1  0  0  0  0
 21 18  2  0  0  0  0
 21 38  1  0  0  0  0
 22 12  2  0  0  0  0
 22 39  1  0  0  0  0
 23 12  1  0  0  0  0
 23 40  1  0  0  0  0
 24 25  1  0  0  0  0
 24 26  2  0  0  0  0
 24 41  1  0  0  0  0
 25 23  2  0  0  0  0
 25 42  1  0  0  0  0
 26 22  1  0  0  0  0
 26 43  1  0  0  0  0
 27 19  1  0  0  0  0
 27 44  1  0  0  0  0
 27 45  1  0  0  0  0
 28 19  1  0  0  0  0
 28 46  1  0  0  0  0
 28 47  1  0  0  0  0
 29 28  1  0  0  0  0
 29 48  1  0  0  0  0
 29 49  1  0  0  0  0
 30 27  1  0  0  0  0
 30 50  1  0  0  0  0
 30 51  1  0  0  0  0
 31 29  1  0  0  0  0
 31 30  1  0  0  0  0
 31 52  1  0  0  0  0
 31 53  1  0  0  0  0
M  END
>  <Mol_ID>
8555

>  <Formula>
C23H21ClN4O3S

>  <MolWeight>
468.95584

>  <Cat>
P2269

>  <Name>
WAY-323490

>  <Synonyms>
N/A

>  <Target>
others

>  <Form>
free base

>  <CAS>
853689-23-3

>  <URL>
N/A

$$$$
