WAY-111543
 OpenBabel08302521433D

 43 46  0  0  0  0  0  0  0  0999 V2000
    0.6563    0.4640   -0.0100 C   0  0  0  0  0  0  0  0  0  0  0  0
    1.1084   -0.8532   -0.0077 C   0  0  0  0  0  0  0  0  0  0  0  0
   -0.7648    0.4503   -0.0099 C   0  0  0  0  0  0  0  0  0  0  0  0
    1.5870    1.5213   -0.0200 C   0  0  0  0  0  0  0  0  0  0  0  0
   -0.0211   -1.6559   -0.0136 N   0  0  0  0  0  0  0  0  0  0  0  0
    2.4830   -1.1460   -0.0032 C   0  0  0  0  0  0  0  0  0  0  0  0
   -1.1707   -0.8833   -0.0351 C   0  0  0  0  0  0  0  0  0  0  0  0
   -1.7325    1.4747   -0.0047 C   0  0  0  0  0  0  0  0  0  0  0  0
    2.9537    1.2620   -0.0474 C   0  0  0  0  0  0  0  0  0  0  0  0
   -0.0161   -3.1092    0.0175 C   0  0  0  0  0  0  0  0  0  0  0  0
    3.3890   -0.0678   -0.0264 C   0  0  0  0  0  0  0  0  0  0  0  0
   -2.5335   -1.2263   -0.0738 C   0  0  0  0  0  0  0  0  0  0  0  0
   -3.0858    1.1423   -0.0247 C   0  0  0  0  0  0  0  0  0  0  0  0
    3.9216    2.2910   -0.0956 N   0  0  0  0  0  0  0  0  0  0  0  0
   -0.0114   -3.7247   -1.3717 C   0  0  0  0  0  0  0  0  0  0  0  0
   -3.4790   -0.1913   -0.0635 C   0  0  0  0  0  0  0  0  0  0  0  0
    3.6875    3.6616   -0.1060 C   0  0  0  0  0  0  0  0  0  0  0  0
    4.9663    4.4846   -0.0780 C   0  0  0  0  0  0  0  0  0  0  0  0
    2.5892    4.2173   -0.1502 O   0  0  0  0  0  0  0  0  0  0  0  0
    4.9621    5.6534    1.3102 S   0  0  0  0  0  0  0  0  0  0  0  0
    4.8772    4.5571    2.6674 C   0  0  0  0  0  0  0  0  0  0  0  0
    5.4129    3.3539    2.6486 N   0  0  0  0  0  0  0  0  0  0  0  0
    4.1261    4.9756    4.1468 S   0  0  0  0  0  0  0  0  0  0  0  0
    5.2141    2.6890    3.8465 N   0  0  0  0  0  0  0  0  0  0  0  0
    4.5409    3.4098    4.7175 C   0  0  0  0  0  0  0  0  0  0  0  0
    4.1941    3.0062    5.9534 N   0  0  0  0  0  0  0  0  0  0  0  0
    1.1898    2.5270   -0.0177 H   0  0  0  0  0  0  0  0  0  0  0  0
    2.8483   -2.1679    0.0083 H   0  0  0  0  0  0  0  0  0  0  0  0
   -1.4222    2.5161    0.0157 H   0  0  0  0  0  0  0  0  0  0  0  0
    0.8533   -3.4397    0.5934 H   0  0  0  0  0  0  0  0  0  0  0  0
   -0.9028   -3.4371    0.5743 H   0  0  0  0  0  0  0  0  0  0  0  0
    4.4529   -0.2971   -0.0262 H   0  0  0  0  0  0  0  0  0  0  0  0
   -2.8600   -2.2598   -0.1138 H   0  0  0  0  0  0  0  0  0  0  0  0
   -3.8306    1.9346   -0.0153 H   0  0  0  0  0  0  0  0  0  0  0  0
    4.8853    1.9817   -0.0835 H   0  0  0  0  0  0  0  0  0  0  0  0
    0.9064   -3.4705   -1.9106 H   0  0  0  0  0  0  0  0  0  0  0  0
   -0.0756   -4.8152   -1.3026 H   0  0  0  0  0  0  0  0  0  0  0  0
   -0.8593   -3.3713   -1.9673 H   0  0  0  0  0  0  0  0  0  0  0  0
   -4.5372   -0.4333   -0.0871 H   0  0  0  0  0  0  0  0  0  0  0  0
    5.8565    3.8527   -0.0283 H   0  0  0  0  0  0  0  0  0  0  0  0
    5.0158    5.0493   -1.0152 H   0  0  0  0  0  0  0  0  0  0  0  0
    3.8548    3.6782    6.6302 H   0  0  0  0  0  0  0  0  0  0  0  0
    4.6321    2.1761    6.3334 H   0  0  0  0  0  0  0  0  0  0  0  0
  1  2  1  0  0  0  0
  1  3  1  0  0  0  0
  1  4  2  0  0  0  0
  2  5  1  0  0  0  0
  2  6  2  0  0  0  0
  3  7  2  0  0  0  0
  3  8  1  0  0  0  0
  4  9  1  0  0  0  0
  4 27  1  0  0  0  0
  5 10  1  0  0  0  0
  5  7  1  0  0  0  0
  6 11  1  0  0  0  0
  6 28  1  0  0  0  0
  7 12  1  0  0  0  0
  8 13  2  0  0  0  0
  8 29  1  0  0  0  0
  9 14  1  0  0  0  0
  9 11  2  0  0  0  0
 10 15  1  0  0  0  0
 10 30  1  0  0  0  0
 10 31  1  0  0  0  0
 11 32  1  0  0  0  0
 12 16  2  0  0  0  0
 12 33  1  0  0  0  0
 13 16  1  0  0  0  0
 13 34  1  0  0  0  0
 14 17  1  0  0  0  0
 14 35  1  0  0  0  0
 15 36  1  0  0  0  0
 15 37  1  0  0  0  0
 15 38  1  0  0  0  0
 16 39  1  0  0  0  0
 17 18  1  0  0  0  0
 17 19  2  0  0  0  0
 18 20  1  0  0  0  0
 18 40  1  0  0  0  0
 18 41  1  0  0  0  0
 20 21  1  0  0  0  0
 21 22  2  0  0  0  0
 21 23  1  0  0  0  0
 22 24  1  0  0  0  0
 23 25  1  0  0  0  0
 24 25  2  0  0  0  0
 25 26  1  0  0  0  0
 26 42  1  0  0  0  0
 26 43  1  0  0  0  0
M  END
>  <Mol_ID>
8851

>  <Formula>
C18H17N5OS2

>  <MolWeight>
383.49048

>  <Cat>
P2040

>  <Name>
WAY-111543

>  <Synonyms>
N/A

>  <Target>
p53

>  <Form>
free base

>  <CAS>
868269-74-3

>  <URL>
N/A

$$$$
