WAY-326439
 OpenBabel08302521433D

 57 59  0  0  0  0  0  0  0  0999 V2000
    0.5466   -0.0245    0.3899 S   0  0  0  0  0  0  0  0  0  0  0  0
   -0.0428    0.7981   -1.0692 N   0  0  0  0  0  0  0  0  0  0  0  0
    2.5321    1.9326   -5.0476 C   0  0  0  0  0  0  0  0  0  0  0  0
   -0.3702    0.7268    1.6933 C   0  0  0  0  0  0  0  0  0  0  0  0
    2.4025    2.7245   -6.1635 N   0  0  0  0  0  0  0  0  0  0  0  0
    2.3695    4.1291   -6.1051 C   0  0  0  0  0  0  0  0  0  0  0  0
    1.9535    0.3164    0.5516 O   0  0  0  0  0  0  0  0  0  0  0  0
    0.1269   -1.4124    0.3378 O   0  0  0  0  0  0  0  0  0  0  0  0
    0.6305    2.6707   -3.5812 N   0  0  0  0  0  0  0  0  0  0  0  0
    3.4999    4.9294   -6.3073 C   0  0  0  0  0  0  0  0  0  0  0  0
    0.4797    2.2140   -1.0585 C   0  0  0  0  0  0  0  0  0  0  0  0
    3.3987    6.3111   -6.0772 C   0  0  0  0  0  0  0  0  0  0  0  0
    2.0807    2.4154   -3.6643 C   0  0  0  0  0  0  0  0  0  0  0  0
    3.0407    0.8152   -5.1942 O   0  0  0  0  0  0  0  0  0  0  0  0
    1.1428    4.7344   -5.8034 C   0  0  0  0  0  0  0  0  0  0  0  0
    0.1687    3.1026   -2.2634 C   0  0  0  0  0  0  0  0  0  0  0  0
   -1.7554    0.5278    1.7166 C   0  0  0  0  0  0  0  0  0  0  0  0
    0.2789    1.4242    2.7206 C   0  0  0  0  0  0  0  0  0  0  0  0
    2.1917    6.9025   -5.6998 C   0  0  0  0  0  0  0  0  0  0  0  0
   -0.1822    0.2554   -3.6294 C   0  0  0  0  0  0  0  0  0  0  0  0
    0.3113   -0.0703   -2.2334 C   0  0  0  0  0  0  0  0  0  0  0  0
   -1.8598    1.7383    3.7928 C   0  0  0  0  0  0  0  0  0  0  0  0
    1.0556    6.1087   -5.5910 C   0  0  0  0  0  0  0  0  0  0  0  0
    4.7828    4.5422   -6.5778 O   0  0  0  0  0  0  0  0  0  0  0  0
   -0.4784    1.9356    3.7762 C   0  0  0  0  0  0  0  0  0  0  0  0
   -2.5030    1.0416    2.7753 C   0  0  0  0  0  0  0  0  0  0  0  0
   -2.5796    2.2208    4.8139 F   0  0  0  0  0  0  0  0  0  0  0  0
   -0.2555    1.6773   -4.1418 C   0  0  0  0  0  0  0  0  0  0  0  0
    2.0004    8.2243   -5.4089 O   0  0  0  0  0  0  0  0  0  0  0  0
    5.0166    3.4226   -7.4166 C   0  0  0  0  0  0  0  0  0  0  0  0
    3.1600    9.0451   -5.3976 C   0  0  0  0  0  0  0  0  0  0  0  0
    2.9327    2.2985   -6.9064 H   0  0  0  0  0  0  0  0  0  0  0  0
    0.0076    2.7162   -0.2014 H   0  0  0  0  0  0  0  0  0  0  0  0
    1.5588    2.2287   -0.8835 H   0  0  0  0  0  0  0  0  0  0  0  0
    4.3018    6.9034   -6.1883 H   0  0  0  0  0  0  0  0  0  0  0  0
    2.6450    3.3233   -3.4176 H   0  0  0  0  0  0  0  0  0  0  0  0
    2.3989    1.6517   -2.9481 H   0  0  0  0  0  0  0  0  0  0  0  0
    0.2389    4.1372   -5.7063 H   0  0  0  0  0  0  0  0  0  0  0  0
   -0.9124    3.2961   -2.2996 H   0  0  0  0  0  0  0  0  0  0  0  0
    0.6103    4.0881   -2.0676 H   0  0  0  0  0  0  0  0  0  0  0  0
   -2.2408   -0.0412    0.9289 H   0  0  0  0  0  0  0  0  0  0  0  0
    1.3592    1.5508    2.7201 H   0  0  0  0  0  0  0  0  0  0  0  0
    0.4686   -0.3070   -4.3156 H   0  0  0  0  0  0  0  0  0  0  0  0
   -1.1757   -0.1868   -3.7725 H   0  0  0  0  0  0  0  0  0  0  0  0
   -0.1599   -1.0454   -2.0318 H   0  0  0  0  0  0  0  0  0  0  0  0
    1.3912   -0.2525   -2.2454 H   0  0  0  0  0  0  0  0  0  0  0  0
    0.1028    6.5541   -5.3160 H   0  0  0  0  0  0  0  0  0  0  0  0
   -0.0055    2.4695    4.5945 H   0  0  0  0  0  0  0  0  0  0  0  0
   -3.5767    0.8875    2.8188 H   0  0  0  0  0  0  0  0  0  0  0  0
   -0.1111    1.6491   -5.2316 H   0  0  0  0  0  0  0  0  0  0  0  0
   -1.2911    2.0311   -4.0497 H   0  0  0  0  0  0  0  0  0  0  0  0
    5.2413    2.5473   -6.7992 H   0  0  0  0  0  0  0  0  0  0  0  0
    4.2019    3.2209   -8.1182 H   0  0  0  0  0  0  0  0  0  0  0  0
    5.9034    3.6389   -8.0202 H   0  0  0  0  0  0  0  0  0  0  0  0
    3.9012    8.6805   -4.6756 H   0  0  0  0  0  0  0  0  0  0  0  0
    3.5905    9.1233   -6.4005 H   0  0  0  0  0  0  0  0  0  0  0  0
    2.8574   10.0487   -5.0833 H   0  0  0  0  0  0  0  0  0  0  0  0
  2  1  1  0  0  0  0
  3 13  1  0  0  0  0
  4  1  1  0  0  0  0
  5  3  1  0  0  0  0
  5 32  1  0  0  0  0
  6  5  1  0  0  0  0
  7  1  2  0  0  0  0
  8  1  2  0  0  0  0
  9 16  1  0  0  0  0
 10  6  2  0  0  0  0
 11  2  1  0  0  0  0
 11 33  1  0  0  0  0
 11 34  1  0  0  0  0
 12 10  1  0  0  0  0
 12 19  2  0  0  0  0
 12 35  1  0  0  0  0
 13  9  1  0  0  0  0
 13 36  1  0  0  0  0
 13 37  1  0  0  0  0
 14  3  2  0  0  0  0
 15  6  1  0  0  0  0
 15 38  1  0  0  0  0
 16 11  1  0  0  0  0
 16 39  1  0  0  0  0
 16 40  1  0  0  0  0
 17  4  2  0  0  0  0
 17 41  1  0  0  0  0
 18  4  1  0  0  0  0
 18 42  1  0  0  0  0
 19 23  1  0  0  0  0
 20 21  1  0  0  0  0
 20 43  1  0  0  0  0
 20 44  1  0  0  0  0
 21  2  1  0  0  0  0
 21 45  1  0  0  0  0
 21 46  1  0  0  0  0
 22 25  1  0  0  0  0
 23 15  2  0  0  0  0
 23 47  1  0  0  0  0
 24 10  1  0  0  0  0
 25 18  2  0  0  0  0
 25 48  1  0  0  0  0
 26 17  1  0  0  0  0
 26 22  2  0  0  0  0
 26 49  1  0  0  0  0
 27 22  1  0  0  0  0
 28 20  1  0  0  0  0
 28  9  1  0  0  0  0
 28 50  1  0  0  0  0
 28 51  1  0  0  0  0
 29 19  1  0  0  0  0
 30 24  1  0  0  0  0
 30 52  1  0  0  0  0
 30 53  1  0  0  0  0
 30 54  1  0  0  0  0
 31 29  1  0  0  0  0
 31 55  1  0  0  0  0
 31 56  1  0  0  0  0
 31 57  1  0  0  0  0
M  END
>  <Mol_ID>
8924

>  <Formula>
C21H26FN3O5S

>  <MolWeight>
451.5116432

>  <Cat>
P2483

>  <Name>
WAY-326439

>  <Synonyms>
N/A

>  <Target>
mGlu4

>  <Form>
free base

>  <CAS>
870762-87-1

>  <URL>
N/A

$$$$
