WAY-607505
 OpenBabel08302521433D

 34 36  0  0  0  0  0  0  0  0999 V2000
    0.8401    0.0119    0.0469 N   0  0  0  0  0  0  0  0  0  0  0  0
    0.0393   -1.1162    0.0416 C   0  0  0  0  0  0  0  0  0  0  0  0
   -1.2219   -0.7104    0.0250 N   0  0  0  0  0  0  0  0  0  0  0  0
   -0.0141    1.0835    0.1131 C   0  0  0  0  0  0  0  0  0  0  0  0
   -1.2539    0.6624    0.0873 N   0  0  0  0  0  0  0  0  0  0  0  0
    0.5172    2.7305    0.1943 S   0  0  0  0  0  0  0  0  0  0  0  0
    0.4580   -2.5248    0.0039 C   0  0  0  0  0  0  0  0  0  0  0  0
    1.2163   -5.2313   -0.1597 N   0  0  0  0  0  0  0  0  0  0  0  0
    2.2750    0.0931   -0.0489 C   0  0  0  0  0  0  0  0  0  0  0  0
   -0.9693    3.5457    0.8493 C   0  0  0  0  0  0  0  0  0  0  0  0
   -0.4783    7.8259    1.1844 C   0  0  0  0  0  0  0  0  0  0  0  0
   -0.7862    5.0436    0.9680 C   0  0  0  0  0  0  0  0  0  0  0  0
   -0.2907    9.7015    1.3391 Br  0  0  0  0  0  0  0  0  0  0  0  0
   -1.0370    7.2806    0.0330 C   0  0  0  0  0  0  0  0  0  0  0  0
   -0.0660    6.9994    2.2274 C   0  0  0  0  0  0  0  0  0  0  0  0
   -1.1845    5.8936   -0.0758 C   0  0  0  0  0  0  0  0  0  0  0  0
   -0.2165    5.6134    2.1174 C   0  0  0  0  0  0  0  0  0  0  0  0
    1.9261   -4.3386    0.5573 C   0  0  0  0  0  0  0  0  0  0  0  0
    0.1011   -4.7713   -0.7632 C   0  0  0  0  0  0  0  0  0  0  0  0
    1.5814   -3.0010    0.6845 C   0  0  0  0  0  0  0  0  0  0  0  0
   -0.3119   -3.4490   -0.7111 C   0  0  0  0  0  0  0  0  0  0  0  0
    2.5424    0.8077   -0.8310 H   0  0  0  0  0  0  0  0  0  0  0  0
    2.6641    0.4171    0.9201 H   0  0  0  0  0  0  0  0  0  0  0  0
    2.7061   -0.8690   -0.3219 H   0  0  0  0  0  0  0  0  0  0  0  0
   -1.8270    3.3353    0.2001 H   0  0  0  0  0  0  0  0  0  0  0  0
   -1.2043    3.1313    1.8365 H   0  0  0  0  0  0  0  0  0  0  0  0
   -1.3606    7.9187   -0.7832 H   0  0  0  0  0  0  0  0  0  0  0  0
    0.3706    7.4223    3.1290 H   0  0  0  0  0  0  0  0  0  0  0  0
   -1.6221    5.4795   -0.9829 H   0  0  0  0  0  0  0  0  0  0  0  0
    0.1110    4.9794    2.9401 H   0  0  0  0  0  0  0  0  0  0  0  0
    2.8100   -4.7384    1.0468 H   0  0  0  0  0  0  0  0  0  0  0  0
   -0.4714   -5.5174   -1.3077 H   0  0  0  0  0  0  0  0  0  0  0  0
    2.1867   -2.3631    1.3170 H   0  0  0  0  0  0  0  0  0  0  0  0
   -1.2232   -3.1487   -1.2206 H   0  0  0  0  0  0  0  0  0  0  0  0
  2  1  1  0  0  0  0
  3  2  2  0  0  0  0
  3  5  1  0  0  0  0
  4  1  1  0  0  0  0
  5  4  2  0  0  0  0
  6  4  1  0  0  0  0
  7  2  1  0  0  0  0
  8 19  2  0  0  0  0
  8 18  1  0  0  0  0
  9  1  1  0  0  0  0
  9 22  1  0  0  0  0
  9 23  1  0  0  0  0
  9 24  1  0  0  0  0
 10  6  1  0  0  0  0
 10 25  1  0  0  0  0
 10 26  1  0  0  0  0
 11 15  2  0  0  0  0
 11 14  1  0  0  0  0
 12 10  1  0  0  0  0
 13 11  1  0  0  0  0
 14 16  2  0  0  0  0
 14 27  1  0  0  0  0
 15 17  1  0  0  0  0
 15 28  1  0  0  0  0
 16 12  1  0  0  0  0
 16 29  1  0  0  0  0
 17 12  2  0  0  0  0
 17 30  1  0  0  0  0
 18 20  2  0  0  0  0
 18 31  1  0  0  0  0
 19 21  1  0  0  0  0
 19 32  1  0  0  0  0
 20  7  1  0  0  0  0
 20 33  1  0  0  0  0
 21  7  2  0  0  0  0
 21 34  1  0  0  0  0
M  END
>  <Mol_ID>
8745

>  <Formula>
C15H13BrN4S

>  <MolWeight>
361.25952

>  <Cat>
P2892

>  <Name>
WAY-607505

>  <Synonyms>
N/A

>  <Target>
SOD

>  <Form>
free base

>  <CAS>
663212-78-0

>  <URL>
N/A

$$$$
