WAY-296697
 OpenBabel08302521403D

 58 61  0  0  0  0  0  0  0  0999 V2000
    0.5436   -1.5213   -0.7728 C   0  0  3  0  0  0  0  0  0  0  0  0
   -0.2512   -0.2791   -0.4843 C   0  0  0  0  0  0  0  0  0  0  0  0
   -0.0273   -2.3196   -1.8861 C   0  0  0  0  0  0  0  0  0  0  0  0
    2.1665   -1.4125   -0.7940 C   0  0  0  0  0  0  0  0  0  0  0  0
    0.3504    0.9178   -0.4357 C   0  0  0  0  0  0  0  0  0  0  0  0
   -1.7003   -0.4430   -0.1082 C   0  0  0  0  0  0  0  0  0  0  0  0
    0.3349   -3.6447   -1.8987 C   0  0  0  0  0  0  0  0  0  0  0  0
   -0.7782   -1.7571   -2.9514 C   0  0  0  0  0  0  0  0  0  0  0  0
    2.5717   -0.1633   -0.4121 C   0  0  0  0  0  0  0  0  0  0  0  0
    3.2197   -2.6809   -0.8491 C   0  0  0  0  0  0  0  0  0  0  0  0
    1.7264    0.9574   -0.5127 N   0  0  0  0  0  0  0  0  0  0  0  0
   -0.4447    2.1942   -0.2220 C   0  0  0  0  0  0  0  0  0  0  0  0
   -2.4636    0.8111    0.2882 C   0  0  0  0  0  0  0  0  0  0  0  0
   -2.2306   -1.5537   -0.0419 O   0  0  0  0  0  0  0  0  0  0  0  0
    0.7997   -4.3793   -0.8256 O   0  0  0  0  0  0  0  0  0  0  0  0
    0.4428   -4.1825   -3.1920 C   0  0  0  0  0  0  0  0  0  0  0  0
   -0.8671   -2.4102   -4.1655 C   0  0  0  0  0  0  0  0  0  0  0  0
    3.7988    0.1096    0.4286 C   0  0  0  0  0  0  0  0  0  0  0  0
    2.8907   -3.7544   -1.6401 O   0  0  0  0  0  0  0  0  0  0  0  0
    4.2599   -2.7015   -0.1957 O   0  0  0  0  0  0  0  0  0  0  0  0
   -1.9531    1.9950   -0.4415 C   0  0  0  0  0  0  0  0  0  0  0  0
    1.0628   -4.0227    0.5923 C   0  0  0  0  0  0  0  0  0  0  0  0
   -0.1132   -3.5556   -4.3225 C   0  0  0  0  0  0  0  0  0  0  0  0
    3.4329   -5.1674   -1.7981 C   0  0  0  0  0  0  0  0  0  0  0  0
   -0.1439   -4.1715    1.4572 C   0  0  0  0  0  0  0  0  0  0  0  0
    3.0900   -6.3247   -0.8136 C   0  0  0  0  0  0  0  0  0  0  0  0
   -1.1072   -5.1214    1.0014 C   0  0  0  0  0  0  0  0  0  0  0  0
   -0.4049   -3.4270    2.6145 C   0  0  0  0  0  0  0  0  0  0  0  0
   -2.3103   -5.2080    1.6103 C   0  0  0  0  0  0  0  0  0  0  0  0
   -1.6441   -3.5594    3.2458 C   0  0  0  0  0  0  0  0  0  0  0  0
   -2.6030   -4.4196    2.7262 C   0  0  0  0  0  0  0  0  0  0  0  0
    0.2693   -2.0061    0.1487 H   0  0  0  0  0  0  0  0  0  0  0  0
   -1.2865   -0.8011   -2.8549 H   0  0  0  0  0  0  0  0  0  0  0  0
    2.1778    1.8662   -0.5658 H   0  0  0  0  0  0  0  0  0  0  0  0
   -0.2715    2.5517    0.8013 H   0  0  0  0  0  0  0  0  0  0  0  0
   -0.0983    2.9777   -0.9078 H   0  0  0  0  0  0  0  0  0  0  0  0
   -2.3736    0.9020    1.3979 H   0  0  0  0  0  0  0  0  0  0  0  0
   -3.5305    0.6276    0.0749 H   0  0  0  0  0  0  0  0  0  0  0  0
    1.0425   -5.0662   -3.3641 H   0  0  0  0  0  0  0  0  0  0  0  0
   -1.4315   -1.9887   -4.9917 H   0  0  0  0  0  0  0  0  0  0  0  0
    4.5460    0.7090   -0.0891 H   0  0  0  0  0  0  0  0  0  0  0  0
    3.4739    0.6709    1.3214 H   0  0  0  0  0  0  0  0  0  0  0  0
    4.2633   -0.7789    0.8547 H   0  0  0  0  0  0  0  0  0  0  0  0
   -2.5061    2.8859   -0.1242 H   0  0  0  0  0  0  0  0  0  0  0  0
   -2.1509    1.8593   -1.5123 H   0  0  0  0  0  0  0  0  0  0  0  0
    1.8416   -4.6962    0.9617 H   0  0  0  0  0  0  0  0  0  0  0  0
    1.5460   -3.0682    0.7914 H   0  0  0  0  0  0  0  0  0  0  0  0
    0.0526   -3.9644   -5.3160 H   0  0  0  0  0  0  0  0  0  0  0  0
    2.9399   -5.5123   -2.7166 H   0  0  0  0  0  0  0  0  0  0  0  0
    4.4952   -5.1633   -2.0510 H   0  0  0  0  0  0  0  0  0  0  0  0
    2.1001   -6.2890   -0.3574 H   0  0  0  0  0  0  0  0  0  0  0  0
    3.1024   -7.2937   -1.3463 H   0  0  0  0  0  0  0  0  0  0  0  0
    3.8311   -6.4291   -0.0153 H   0  0  0  0  0  0  0  0  0  0  0  0
   -0.8621   -5.7096    0.1325 H   0  0  0  0  0  0  0  0  0  0  0  0
    0.3175   -2.7191    3.0104 H   0  0  0  0  0  0  0  0  0  0  0  0
   -3.0431   -5.8751    1.1837 H   0  0  0  0  0  0  0  0  0  0  0  0
   -1.8858   -2.9674    4.1279 H   0  0  0  0  0  0  0  0  0  0  0  0
   -3.5963   -4.4828    3.1578 H   0  0  0  0  0  0  0  0  0  0  0  0
  1  2  1  0  0  0  0
  1  3  1  0  0  0  0
  1  4  1  0  0  0  0
  1 32  1  0  0  0  0
  2  5  2  0  0  0  0
  2  6  1  0  0  0  0
  3  7  1  0  0  0  0
  3  8  2  0  0  0  0
  4  9  2  0  0  0  0
  4 10  1  0  0  0  0
  5 11  1  0  0  0  0
  5 12  1  0  0  0  0
  6 13  1  0  0  0  0
  6 14  2  0  0  0  0
  7 15  1  0  0  0  0
  7 16  2  0  0  0  0
  8 17  1  0  0  0  0
  8 33  1  0  0  0  0
  9 18  1  0  0  0  0
  9 11  1  0  0  0  0
 10 19  1  0  0  0  0
 10 20  2  0  0  0  0
 11 34  1  0  0  0  0
 12 21  1  0  0  0  0
 12 35  1  0  0  0  0
 12 36  1  0  0  0  0
 13 21  1  0  0  0  0
 13 37  1  0  0  0  0
 13 38  1  0  0  0  0
 15 22  1  0  0  0  0
 16 23  1  0  0  0  0
 16 39  1  0  0  0  0
 17 23  2  0  0  0  0
 17 40  1  0  0  0  0
 18 41  1  0  0  0  0
 18 42  1  0  0  0  0
 18 43  1  0  0  0  0
 19 24  1  0  0  0  0
 21 44  1  0  0  0  0
 21 45  1  0  0  0  0
 22 25  1  0  0  0  0
 22 46  1  0  0  0  0
 22 47  1  0  0  0  0
 23 48  1  0  0  0  0
 24 26  1  0  0  0  0
 24 49  1  0  0  0  0
 24 50  1  0  0  0  0
 25 27  2  0  0  0  0
 25 28  1  0  0  0  0
 26 51  1  0  0  0  0
 26 52  1  0  0  0  0
 26 53  1  0  0  0  0
 27 29  1  0  0  0  0
 27 54  1  0  0  0  0
 28 30  2  0  0  0  0
 28 55  1  0  0  0  0
 29 31  2  0  0  0  0
 29 56  1  0  0  0  0
 30 31  1  0  0  0  0
 30 57  1  0  0  0  0
 31 58  1  0  0  0  0
M  END
>  <Mol_ID>
8333

>  <Formula>
C26H27NO4

>  <MolWeight>
417.49688

>  <Cat>
P2088

>  <Name>
WAY-296697

>  <Synonyms>
N/A

>  <Target>
beta-amyloid

>  <Form>
free base

>  <CAS>
299451-75-5

>  <URL>
N/A

$$$$
