WAY-348215
 OpenBabel08302521393D

 48 51  0  0  0  0  0  0  0  0999 V2000
    0.0249   -1.0268   -0.2269 N   0  0  0  0  0  0  0  0  0  0  0  0
    1.2316   -0.3487   -0.1547 C   0  0  0  0  0  0  0  0  0  0  0  0
    0.9559    0.9453   -0.0851 N   0  0  0  0  0  0  0  0  0  0  0  0
   -0.9481   -0.0623   -0.3006 C   0  0  0  0  0  0  0  0  0  0  0  0
   -0.4030    1.1235   -0.1995 N   0  0  0  0  0  0  0  0  0  0  0  0
   -0.1916   -2.4601   -0.1167 C   0  0  0  0  0  0  0  0  0  0  0  0
   -2.6367   -0.3969   -0.3918 S   0  0  0  0  0  0  0  0  0  0  0  0
   -4.5793    0.0836   -2.2965 C   0  0  0  0  0  0  0  0  0  0  0  0
    2.5846   -0.9194   -0.1177 C   0  0  0  0  0  0  0  0  0  0  0  0
   -4.9606    0.1839   -3.6316 N   0  0  0  0  0  0  0  0  0  0  0  0
    5.1933   -1.9786    0.0187 N   0  0  0  0  0  0  0  0  0  0  0  0
   -5.3704   -0.0288   -1.3584 O   0  0  0  0  0  0  0  0  0  0  0  0
   -3.0579    0.1253   -2.0885 C   0  0  0  0  0  0  0  0  0  0  0  0
   -6.2444   -0.1126   -4.1640 C   0  0  0  0  0  0  0  0  0  0  0  0
   -0.2801   -3.1944   -1.4405 C   0  0  0  0  0  0  0  0  0  0  0  0
    4.2319   -2.5638   -0.7152 C   0  0  0  0  0  0  0  0  0  0  0  0
    4.8554   -0.8386    0.6571 C   0  0  0  0  0  0  0  0  0  0  0  0
    2.9417   -2.0689   -0.8271 C   0  0  0  0  0  0  0  0  0  0  0  0
    3.5882   -0.2779    0.6208 C   0  0  0  0  0  0  0  0  0  0  0  0
   -7.2863   -0.6627   -3.4109 C   0  0  0  0  0  0  0  0  0  0  0  0
   -6.4505    0.0829   -5.5371 C   0  0  0  0  0  0  0  0  0  0  0  0
   -0.2213   -2.5675   -2.6970 C   0  0  0  0  0  0  0  0  0  0  0  0
   -0.4000   -4.5951   -1.4048 C   0  0  0  0  0  0  0  0  0  0  0  0
   -8.4781   -1.0706   -4.0205 C   0  0  0  0  0  0  0  0  0  0  0  0
   -0.2805   -3.3125   -3.8730 C   0  0  0  0  0  0  0  0  0  0  0  0
   -0.4589   -5.3391   -2.5836 C   0  0  0  0  0  0  0  0  0  0  0  0
   -7.6449   -0.3239   -6.1481 C   0  0  0  0  0  0  0  0  0  0  0  0
   -8.6504   -0.9201   -5.3921 C   0  0  0  0  0  0  0  0  0  0  0  0
   -0.4037   -4.6975   -3.8177 C   0  0  0  0  0  0  0  0  0  0  0  0
    0.6255   -2.8713    0.4854 H   0  0  0  0  0  0  0  0  0  0  0  0
   -1.1073   -2.6241    0.4597 H   0  0  0  0  0  0  0  0  0  0  0  0
   -4.2619    0.4773   -4.3022 H   0  0  0  0  0  0  0  0  0  0  0  0
   -2.6942    1.1351   -2.2924 H   0  0  0  0  0  0  0  0  0  0  0  0
   -2.5922   -0.5764   -2.7928 H   0  0  0  0  0  0  0  0  0  0  0  0
    4.5233   -3.4697   -1.2394 H   0  0  0  0  0  0  0  0  0  0  0  0
    5.6602   -0.3691    1.2146 H   0  0  0  0  0  0  0  0  0  0  0  0
    2.2598   -2.5851   -1.4823 H   0  0  0  0  0  0  0  0  0  0  0  0
    3.3900    0.6468    1.1526 H   0  0  0  0  0  0  0  0  0  0  0  0
   -7.2005   -0.8185   -2.3406 H   0  0  0  0  0  0  0  0  0  0  0  0
   -5.6870    0.5422   -6.1586 H   0  0  0  0  0  0  0  0  0  0  0  0
   -0.0991   -1.4884   -2.7871 H   0  0  0  0  0  0  0  0  0  0  0  0
   -0.4368   -5.1209   -0.4516 H   0  0  0  0  0  0  0  0  0  0  0  0
   -9.2624   -1.5218   -3.4170 H   0  0  0  0  0  0  0  0  0  0  0  0
   -0.2252   -2.8119   -4.8369 H   0  0  0  0  0  0  0  0  0  0  0  0
   -0.5486   -6.4218   -2.5395 H   0  0  0  0  0  0  0  0  0  0  0  0
   -7.7857   -0.1887   -7.2178 H   0  0  0  0  0  0  0  0  0  0  0  0
   -9.5654   -1.2665   -5.8663 H   0  0  0  0  0  0  0  0  0  0  0  0
   -0.4533   -5.2769   -4.7359 H   0  0  0  0  0  0  0  0  0  0  0  0
  2  1  1  0  0  0  0
  3  2  2  0  0  0  0
  3  5  1  0  0  0  0
  4  1  1  0  0  0  0
  5  4  2  0  0  0  0
  6  1  1  0  0  0  0
  6 30  1  0  0  0  0
  6 31  1  0  0  0  0
  7  4  1  0  0  0  0
  8 13  1  0  0  0  0
  9  2  1  0  0  0  0
 10  8  1  0  0  0  0
 10 32  1  0  0  0  0
 11 17  2  0  0  0  0
 12  8  2  0  0  0  0
 13  7  1  0  0  0  0
 13 33  1  0  0  0  0
 13 34  1  0  0  0  0
 14 10  1  0  0  0  0
 15  6  1  0  0  0  0
 16 18  2  0  0  0  0
 16 11  1  0  0  0  0
 16 35  1  0  0  0  0
 17 19  1  0  0  0  0
 17 36  1  0  0  0  0
 18  9  1  0  0  0  0
 18 37  1  0  0  0  0
 19  9  2  0  0  0  0
 19 38  1  0  0  0  0
 20 14  2  0  0  0  0
 20 39  1  0  0  0  0
 21 14  1  0  0  0  0
 21 40  1  0  0  0  0
 22 15  2  0  0  0  0
 22 41  1  0  0  0  0
 23 15  1  0  0  0  0
 23 42  1  0  0  0  0
 24 20  1  0  0  0  0
 24 28  2  0  0  0  0
 24 43  1  0  0  0  0
 25 22  1  0  0  0  0
 25 29  2  0  0  0  0
 25 44  1  0  0  0  0
 26 23  2  0  0  0  0
 26 45  1  0  0  0  0
 27 21  2  0  0  0  0
 27 46  1  0  0  0  0
 28 27  1  0  0  0  0
 28 47  1  0  0  0  0
 29 26  1  0  0  0  0
 29 48  1  0  0  0  0
M  END
>  <Mol_ID>
8046

>  <Formula>
C22H19N5OS

>  <MolWeight>
401.48416

>  <Cat>
P2753

>  <Name>
WAY-348215

>  <Synonyms>
N/A

>  <Target>
others

>  <Form>
free base

>  <CAS>
562831-78-1

>  <URL>
N/A

$$$$
