WAY-327157
 OpenBabel08302521343D

 34 36  0  0  0  0  0  0  0  0999 V2000
    2.2376    0.7537   -0.0265 N   0  0  0  0  0  0  0  0  0  0  0  0
    2.2519   -0.5953   -0.1991 C   0  0  0  0  0  0  0  0  0  0  0  0
    1.1040   -1.3279   -0.4571 C   0  0  0  0  0  0  0  0  0  0  0  0
   -0.1062   -0.7506   -0.6188 N   0  0  0  0  0  0  0  0  0  0  0  0
   -0.1426    0.5843   -0.4897 C   0  0  0  0  0  0  0  0  0  0  0  0
   -1.3540    1.2286   -0.6898 C   0  0  0  0  0  0  0  0  0  0  0  0
   -1.4705    2.6086   -0.5426 C   0  0  0  0  0  0  0  0  0  0  0  0
   -0.3568    3.3519   -0.1808 C   0  0  0  0  0  0  0  0  0  0  0  0
    0.8793    2.7145   -0.0015 C   0  0  0  0  0  0  0  0  0  0  0  0
    1.0216    1.3401   -0.1657 C   0  0  0  0  0  0  0  0  0  0  0  0
    3.5482   -1.3261   -0.1609 C   0  0  0  0  0  0  0  0  0  0  0  0
    3.5102   -2.5478   -0.2943 O   0  0  0  0  0  0  0  0  0  0  0  0
    4.6880   -0.5675    0.0449 N   0  0  0  0  0  0  0  0  0  0  0  0
    5.9947   -1.1031    0.1367 C   0  0  0  0  0  0  0  0  0  0  0  0
    6.3259   -2.3695   -0.3566 C   0  0  0  0  0  0  0  0  0  0  0  0
    7.5824   -2.9357   -0.1217 C   0  0  0  0  0  0  0  0  0  0  0  0
    8.5354   -2.2367    0.6095 C   0  0  0  0  0  0  0  0  0  0  0  0
    8.2459   -0.9322    1.0201 C   0  0  0  0  0  0  0  0  0  0  0  0
    6.9891   -0.3593    0.7740 C   0  0  0  0  0  0  0  0  0  0  0  0
    9.7619   -2.7172    0.9782 O   0  0  0  0  0  0  0  0  0  0  0  0
    9.9899   -4.1065    0.7542 C   0  0  0  0  0  0  0  0  0  0  0  0
    1.1215   -2.4084   -0.5562 H   0  0  0  0  0  0  0  0  0  0  0  0
   -2.2243    0.6393   -0.9704 H   0  0  0  0  0  0  0  0  0  0  0  0
   -2.4314    3.0924   -0.7076 H   0  0  0  0  0  0  0  0  0  0  0  0
   -0.4413    4.4268   -0.0423 H   0  0  0  0  0  0  0  0  0  0  0  0
    1.7473    3.3091    0.2732 H   0  0  0  0  0  0  0  0  0  0  0  0
    4.5389    0.4049    0.2970 H   0  0  0  0  0  0  0  0  0  0  0  0
    5.6174   -2.9551   -0.9347 H   0  0  0  0  0  0  0  0  0  0  0  0
    7.7676   -3.9311   -0.5111 H   0  0  0  0  0  0  0  0  0  0  0  0
    8.9978   -0.3672    1.5678 H   0  0  0  0  0  0  0  0  0  0  0  0
    6.7914    0.6445    1.1382 H   0  0  0  0  0  0  0  0  0  0  0  0
    9.1970   -4.7270    1.1881 H   0  0  0  0  0  0  0  0  0  0  0  0
   10.1048   -4.3087   -0.3156 H   0  0  0  0  0  0  0  0  0  0  0  0
   10.9261   -4.3801    1.2502 H   0  0  0  0  0  0  0  0  0  0  0  0
  1  2  2  0  0  0  0
  1 10  1  0  0  0  0
  2  3  1  0  0  0  0
  2 11  1  0  0  0  0
  3  4  2  0  0  0  0
  3 22  1  0  0  0  0
  4  5  1  0  0  0  0
  5  6  1  0  0  0  0
  5 10  2  0  0  0  0
  6  7  2  0  0  0  0
  6 23  1  0  0  0  0
  7  8  1  0  0  0  0
  7 24  1  0  0  0  0
  8  9  2  0  0  0  0
  8 25  1  0  0  0  0
  9 10  1  0  0  0  0
  9 26  1  0  0  0  0
 11 12  2  0  0  0  0
 11 13  1  0  0  0  0
 13 14  1  0  0  0  0
 13 27  1  0  0  0  0
 14 15  2  0  0  0  0
 14 19  1  0  0  0  0
 15 16  1  0  0  0  0
 15 28  1  0  0  0  0
 16 17  2  0  0  0  0
 16 29  1  0  0  0  0
 17 18  1  0  0  0  0
 17 20  1  0  0  0  0
 18 19  2  0  0  0  0
 18 30  1  0  0  0  0
 19 31  1  0  0  0  0
 20 21  1  0  0  0  0
 21 32  1  0  0  0  0
 21 33  1  0  0  0  0
 21 34  1  0  0  0  0
M  END
>  <Mol_ID>
6467

>  <Formula>
C16H13N3O2

>  <MolWeight>
279.29332

>  <Cat>
E2521

>  <Name>
WAY-327157

>  <Target>
Others

>  <Form>
free base

>  <CAS>
901599-43-7

>  <URL>
http://www.selleckchem.com/products/way-327157.html

$$$$
