WAY-324101
 OpenBabel08302521423D

 36 40  0  0  0  0  0  0  0  0999 V2000
   -0.0448   -0.3772   -0.0406 C   0  0  0  0  0  0  0  0  0  0  0  0
    1.2544    0.2086   -0.0111 C   0  0  0  0  0  0  0  0  0  0  0  0
   -1.3770    0.1844   -0.0576 C   0  0  0  0  0  0  0  0  0  0  0  0
   -0.1123   -1.7635   -0.0513 C   0  0  0  0  0  0  0  0  0  0  0  0
    2.3702   -0.6669   -0.0099 C   0  0  0  0  0  0  0  0  0  0  0  0
    1.4465    1.7107   -0.0081 C   0  0  0  0  0  0  0  0  0  0  0  0
   -2.3691   -0.7921   -0.0651 C   0  0  0  0  0  0  0  0  0  0  0  0
   -1.6815    1.5110   -0.0554 N   0  0  0  0  0  0  0  0  0  0  0  0
    0.9184   -2.6247   -0.0208 N   0  0  0  0  0  0  0  0  0  0  0  0
   -1.7028   -2.3643   -0.0848 S   0  0  0  0  0  0  0  0  0  0  0  0
    2.1394   -2.0510    0.0393 C   0  0  0  0  0  0  0  0  0  0  0  0
    3.7813   -0.1163   -0.0166 C   0  0  0  0  0  0  0  0  0  0  0  0
    2.8573    2.1562    0.3673 C   0  0  0  0  0  0  0  0  0  0  0  0
   -3.6961   -0.3869   -0.0538 C   0  0  0  0  0  0  0  0  0  0  0  0
   -2.9911    1.7859   -0.0478 C   0  0  0  0  0  0  0  0  0  0  0  0
    3.2010   -3.0437    0.2117 C   0  0  0  0  0  0  0  0  0  0  0  0
    3.8759    1.3519   -0.4183 C   0  0  0  0  0  0  0  0  0  0  0  0
   -4.0055    0.9141   -0.0451 N   0  0  0  0  0  0  0  0  0  0  0  0
   -4.7558   -1.2580   -0.0425 O   0  0  0  0  0  0  0  0  0  0  0  0
    3.3805   -4.3422   -0.2274 C   0  0  0  0  0  0  0  0  0  0  0  0
    4.2330   -2.7026    1.0412 O   0  0  0  0  0  0  0  0  0  0  0  0
    4.5937   -4.8017    0.3433 C   0  0  0  0  0  0  0  0  0  0  0  0
    5.0709   -3.7662    1.1100 C   0  0  0  0  0  0  0  0  0  0  0  0
    0.7500    2.1726    0.6994 H   0  0  0  0  0  0  0  0  0  0  0  0
    1.2046    2.0854   -1.0102 H   0  0  0  0  0  0  0  0  0  0  0  0
    4.4055   -0.6927   -0.7100 H   0  0  0  0  0  0  0  0  0  0  0  0
    4.1972   -0.2225    0.9926 H   0  0  0  0  0  0  0  0  0  0  0  0
    3.0224    2.0122    1.4427 H   0  0  0  0  0  0  0  0  0  0  0  0
    2.9765    3.2262    0.1642 H   0  0  0  0  0  0  0  0  0  0  0  0
   -3.2637    2.8369   -0.0404 H   0  0  0  0  0  0  0  0  0  0  0  0
    3.6943    1.4635   -1.4947 H   0  0  0  0  0  0  0  0  0  0  0  0
    4.8889    1.7207   -0.2217 H   0  0  0  0  0  0  0  0  0  0  0  0
   -4.3822   -2.1539   -0.0296 H   0  0  0  0  0  0  0  0  0  0  0  0
    2.7068   -4.8869   -0.8741 H   0  0  0  0  0  0  0  0  0  0  0  0
    5.0563   -5.7707    0.2238 H   0  0  0  0  0  0  0  0  0  0  0  0
    5.9402   -3.6340    1.7397 H   0  0  0  0  0  0  0  0  0  0  0  0
  1  2  1  0  0  0  0
  1  3  1  0  0  0  0
  1  4  2  0  0  0  0
  2  5  2  0  0  0  0
  2  6  1  0  0  0  0
  3  7  2  0  0  0  0
  3  8  1  0  0  0  0
  4  9  1  0  0  0  0
  4 10  1  0  0  0  0
  5 11  1  0  0  0  0
  5 12  1  0  0  0  0
  6 13  1  0  0  0  0
  6 24  1  0  0  0  0
  6 25  1  0  0  0  0
  7 14  1  0  0  0  0
  7 10  1  0  0  0  0
  8 15  2  0  0  0  0
  9 11  2  0  0  0  0
 11 16  1  0  0  0  0
 12 17  1  0  0  0  0
 12 26  1  0  0  0  0
 12 27  1  0  0  0  0
 13 17  1  0  0  0  0
 13 28  1  0  0  0  0
 13 29  1  0  0  0  0
 14 18  2  0  0  0  0
 14 19  1  0  0  0  0
 15 18  1  0  0  0  0
 15 30  1  0  0  0  0
 16 20  2  0  0  0  0
 16 21  1  0  0  0  0
 17 31  1  0  0  0  0
 17 32  1  0  0  0  0
 19 33  1  0  0  0  0
 20 22  1  0  0  0  0
 20 34  1  0  0  0  0
 21 23  1  0  0  0  0
 22 23  2  0  0  0  0
 22 35  1  0  0  0  0
 23 36  1  0  0  0  0
M  END
>  <Mol_ID>
8605

>  <Formula>
C17H13N3O2S

>  <MolWeight>
323.36902

>  <Cat>
P2300

>  <Name>
WAY-324101

>  <Synonyms>
N/A

>  <Target>
PTP1B

>  <Form>
free base

>  <CAS>
373377-66-3

>  <URL>
N/A

$$$$
