WAY-344968
 OpenBabel08302521403D

 44 46  0  0  0  0  0  0  0  0999 V2000
   -1.8129   -2.2715   -0.1509 C   0  0  0  0  0  0  0  0  0  0  0  0
   -4.9845    0.7545    0.0539 C   0  0  0  0  0  0  0  0  0  0  0  0
   -2.7770   -1.2702   -0.0790 C   0  0  0  0  0  0  0  0  0  0  0  0
   -6.2878    1.4671    0.1074 C   0  0  0  0  0  0  0  0  0  0  0  0
   -8.9769    5.4370    0.8792 C   0  0  0  0  0  0  0  0  0  0  0  0
   -5.1545   -0.6169   -0.0360 N   0  0  0  0  0  0  0  0  0  0  0  0
   -2.1903   -3.6131   -0.2240 C   0  0  0  0  0  0  0  0  0  0  0  0
   -6.3455    2.8089    0.1184 C   0  0  0  0  0  0  0  0  0  0  0  0
   -4.1339   -1.5900   -0.1036 C   0  0  0  0  0  0  0  0  0  0  0  0
   -0.5077   -1.8514   -0.1346 O   0  0  0  0  0  0  0  0  0  0  0  0
  -10.0963    4.8757    0.2383 C   0  0  0  0  0  0  0  0  0  0  0  0
   -1.2850   -4.6419   -0.2692 O   0  0  0  0  0  0  0  0  0  0  0  0
   -7.7429    4.7638    0.8082 C   0  0  0  0  0  0  0  0  0  0  0  0
   -3.9338    1.3804    0.0796 O   0  0  0  0  0  0  0  0  0  0  0  0
   -7.6278    3.5308    0.1410 C   0  0  0  0  0  0  0  0  0  0  0  0
   -3.5409   -3.9477   -0.2624 C   0  0  0  0  0  0  0  0  0  0  0  0
   -9.9715    3.6648   -0.4454 C   0  0  0  0  0  0  0  0  0  0  0  0
   -4.5130   -2.9387   -0.1992 C   0  0  0  0  0  0  0  0  0  0  0  0
   -8.7472    3.0077   -0.5131 C   0  0  0  0  0  0  0  0  0  0  0  0
   -9.1724    6.5999    1.5770 O   0  0  0  0  0  0  0  0  0  0  0  0
  -11.3829    5.3486    0.2445 O   0  0  0  0  0  0  0  0  0  0  0  0
    0.3768   -2.8871   -0.5631 C   0  0  0  0  0  0  0  0  0  0  0  0
    0.0238   -4.1997    0.1167 C   0  0  0  0  0  0  0  0  0  0  0  0
   -8.0714    7.1740    2.2660 C   0  0  0  0  0  0  0  0  0  0  0  0
  -11.5406    6.7598    0.2026 C   0  0  0  0  0  0  0  0  0  0  0  0
   -2.4280   -0.2461   -0.0145 H   0  0  0  0  0  0  0  0  0  0  0  0
   -7.1822    0.8604    0.1373 H   0  0  0  0  0  0  0  0  0  0  0  0
   -6.0997   -0.9751   -0.0604 H   0  0  0  0  0  0  0  0  0  0  0  0
   -5.4370    3.4096    0.1203 H   0  0  0  0  0  0  0  0  0  0  0  0
   -6.8587    5.1685    1.2909 H   0  0  0  0  0  0  0  0  0  0  0  0
   -3.8398   -4.9911   -0.3298 H   0  0  0  0  0  0  0  0  0  0  0  0
  -10.8406    3.2283   -0.9329 H   0  0  0  0  0  0  0  0  0  0  0  0
   -5.5587   -3.2287   -0.2238 H   0  0  0  0  0  0  0  0  0  0  0  0
   -8.6923    2.0838   -1.0778 H   0  0  0  0  0  0  0  0  0  0  0  0
    1.3923   -2.5799   -0.2954 H   0  0  0  0  0  0  0  0  0  0  0  0
    0.3189   -2.9669   -1.6552 H   0  0  0  0  0  0  0  0  0  0  0  0
    0.7378   -4.9765   -0.1749 H   0  0  0  0  0  0  0  0  0  0  0  0
    0.0494   -4.1024    1.2089 H   0  0  0  0  0  0  0  0  0  0  0  0
   -7.6449    6.4781    2.9953 H   0  0  0  0  0  0  0  0  0  0  0  0
   -7.3132    7.5294    1.5612 H   0  0  0  0  0  0  0  0  0  0  0  0
   -8.4445    8.0413    2.8204 H   0  0  0  0  0  0  0  0  0  0  0  0
  -11.4731    7.1866    1.2067 H   0  0  0  0  0  0  0  0  0  0  0  0
  -10.8361    7.2345   -0.4886 H   0  0  0  0  0  0  0  0  0  0  0  0
  -12.5516    6.9628   -0.1647 H   0  0  0  0  0  0  0  0  0  0  0  0
  2  6  1  0  0  0  0
  3  1  2  0  0  0  0
  3 26  1  0  0  0  0
  4  2  1  0  0  0  0
  4 27  1  0  0  0  0
  5 13  2  0  0  0  0
  6  9  1  0  0  0  0
  6 28  1  0  0  0  0
  7  1  1  0  0  0  0
  8  4  2  0  0  0  0
  8 29  1  0  0  0  0
  9  3  1  0  0  0  0
  9 18  2  0  0  0  0
 10  1  1  0  0  0  0
 11 17  2  0  0  0  0
 11  5  1  0  0  0  0
 12  7  1  0  0  0  0
 13 15  1  0  0  0  0
 13 30  1  0  0  0  0
 14  2  2  0  0  0  0
 15  8  1  0  0  0  0
 16  7  2  0  0  0  0
 16 31  1  0  0  0  0
 17 19  1  0  0  0  0
 17 32  1  0  0  0  0
 18 16  1  0  0  0  0
 18 33  1  0  0  0  0
 19 15  2  0  0  0  0
 19 34  1  0  0  0  0
 20  5  1  0  0  0  0
 21 11  1  0  0  0  0
 22 10  1  0  0  0  0
 22 35  1  0  0  0  0
 22 36  1  0  0  0  0
 23 22  1  0  0  0  0
 23 12  1  0  0  0  0
 23 37  1  0  0  0  0
 23 38  1  0  0  0  0
 24 20  1  0  0  0  0
 24 39  1  0  0  0  0
 24 40  1  0  0  0  0
 24 41  1  0  0  0  0
 25 21  1  0  0  0  0
 25 42  1  0  0  0  0
 25 43  1  0  0  0  0
 25 44  1  0  0  0  0
M  END
>  <Mol_ID>
8285

>  <Formula>
C19H19NO5

>  <MolWeight>
341.35786

>  <Cat>
P2741

>  <Name>
WAY-344968

>  <Synonyms>
N/A

>  <Target>
bombesin receptor subtype 3

>  <Form>
free base

>  <CAS>
1164499-59-5

>  <URL>
N/A

$$$$
