WAY-620057
 OpenBabel08302521433D

 37 39  0  0  0  0  0  0  0  0999 V2000
   -0.7062   -4.5935   -0.8976 C   0  0  0  0  0  0  0  0  0  0  0  0
   -0.8589   -3.3381   -0.2248 C   0  0  0  0  0  0  0  0  0  0  0  0
    0.6364   -4.9609   -0.8004 C   0  0  0  0  0  0  0  0  0  0  0  0
   -1.5867   -5.4492   -1.5909 C   0  0  0  0  0  0  0  0  0  0  0  0
    0.3953   -2.9728    0.2267 C   0  0  0  0  0  0  0  0  0  0  0  0
   -2.1230   -2.5544   -0.0620 C   0  0  0  0  0  0  0  0  0  0  0  0
    1.2788   -3.9652   -0.1038 N   0  0  0  0  0  0  0  0  0  0  0  0
    1.1423   -6.1433   -1.3540 C   0  0  0  0  0  0  0  0  0  0  0  0
   -1.0939   -6.6258   -2.1675 C   0  0  0  0  0  0  0  0  0  0  0  0
   -2.8671   -2.9007    1.2307 C   0  0  0  0  0  0  0  0  0  0  0  0
    0.2508   -6.9670   -2.0469 C   0  0  0  0  0  0  0  0  0  0  0  0
   -4.0406   -2.0276    1.3768 N   0  0  0  0  0  0  0  0  0  0  0  0
   -5.1086   -2.2868    2.6487 S   0  0  0  0  0  0  0  0  0  0  0  0
   -4.0562   -2.1781    4.0755 C   0  0  0  0  0  0  0  0  0  0  0  0
   -5.9961   -1.1430    2.6644 O   0  0  0  0  0  0  0  0  0  0  0  0
   -5.6091   -3.6373    2.5555 O   0  0  0  0  0  0  0  0  0  0  0  0
   -3.7926   -0.9311    4.6496 C   0  0  0  0  0  0  0  0  0  0  0  0
   -3.5306   -3.3487    4.6345 C   0  0  0  0  0  0  0  0  0  0  0  0
   -2.9808   -0.8566    5.7823 C   0  0  0  0  0  0  0  0  0  0  0  0
   -2.7168   -3.2643    5.7632 C   0  0  0  0  0  0  0  0  0  0  0  0
   -2.4446   -2.0212    6.3363 C   0  0  0  0  0  0  0  0  0  0  0  0
   -2.6376   -5.1952   -1.6938 H   0  0  0  0  0  0  0  0  0  0  0  0
    0.7357   -2.0910    0.7537 H   0  0  0  0  0  0  0  0  0  0  0  0
   -1.8808   -1.4836   -0.0653 H   0  0  0  0  0  0  0  0  0  0  0  0
   -2.7807   -2.7170   -0.9248 H   0  0  0  0  0  0  0  0  0  0  0  0
    2.2668   -3.9631    0.1091 H   0  0  0  0  0  0  0  0  0  0  0  0
    2.1897   -6.4114   -1.2632 H   0  0  0  0  0  0  0  0  0  0  0  0
   -1.7691   -7.2763   -2.7181 H   0  0  0  0  0  0  0  0  0  0  0  0
   -3.1783   -3.9516    1.2211 H   0  0  0  0  0  0  0  0  0  0  0  0
   -2.1928   -2.7466    2.0790 H   0  0  0  0  0  0  0  0  0  0  0  0
    0.6147   -7.8853   -2.5024 H   0  0  0  0  0  0  0  0  0  0  0  0
   -3.9541   -1.0435    1.1318 H   0  0  0  0  0  0  0  0  0  0  0  0
   -4.2169   -0.0224    4.2291 H   0  0  0  0  0  0  0  0  0  0  0  0
   -3.7467   -4.3199    4.1951 H   0  0  0  0  0  0  0  0  0  0  0  0
   -2.7726    0.1071    6.2406 H   0  0  0  0  0  0  0  0  0  0  0  0
   -2.3013   -4.1687    6.2015 H   0  0  0  0  0  0  0  0  0  0  0  0
   -1.8202   -1.9607    7.2249 H   0  0  0  0  0  0  0  0  0  0  0  0
  1  2  1  0  0  0  0
  1  3  1  0  0  0  0
  1  4  2  0  0  0  0
  2  5  2  0  0  0  0
  2  6  1  0  0  0  0
  3  7  1  0  0  0  0
  3  8  2  0  0  0  0
  4  9  1  0  0  0  0
  4 22  1  0  0  0  0
  5  7  1  0  0  0  0
  5 23  1  0  0  0  0
  6 10  1  0  0  0  0
  6 24  1  0  0  0  0
  6 25  1  0  0  0  0
  7 26  1  0  0  0  0
  8 11  1  0  0  0  0
  8 27  1  0  0  0  0
  9 11  2  0  0  0  0
  9 28  1  0  0  0  0
 10 12  1  0  0  0  0
 10 29  1  0  0  0  0
 10 30  1  0  0  0  0
 11 31  1  0  0  0  0
 12 13  1  0  0  0  0
 12 32  1  0  0  0  0
 13 14  1  0  0  0  0
 13 15  2  0  0  0  0
 13 16  2  0  0  0  0
 14 17  2  0  0  0  0
 14 18  1  0  0  0  0
 17 19  1  0  0  0  0
 17 33  1  0  0  0  0
 18 20  2  0  0  0  0
 18 34  1  0  0  0  0
 19 21  2  0  0  0  0
 19 35  1  0  0  0  0
 20 21  1  0  0  0  0
 20 36  1  0  0  0  0
 21 37  1  0  0  0  0
M  END
>  <Mol_ID>
8759

>  <Formula>
C16H16N2O2S

>  <MolWeight>
300.37544

>  <Cat>
P2928

>  <Name>
WAY-620057

>  <Synonyms>
N/A

>  <Target>
RAD51,15-lipoxygenase

>  <Form>
free base

>  <CAS>
32585-54-9

>  <URL>
N/A

$$$$
