WAY-344169
 OpenBabel08302521403D

 36 38  0  0  0  0  0  0  0  0999 V2000
   -8.1097    1.8808   -1.9015 C   0  0  0  0  0  0  0  0  0  0  0  0
   -7.8325    0.5195   -1.7175 N   0  0  0  0  0  0  0  0  0  0  0  0
   -6.9807    2.5839   -1.4592 N   0  0  0  0  0  0  0  0  0  0  0  0
   -3.9541   -3.0022    0.0131 C   0  0  0  0  0  0  0  0  0  0  0  0
   -6.5587    0.3952   -1.1752 C   0  0  0  0  0  0  0  0  0  0  0  0
   -6.0297    1.6714   -1.0165 C   0  0  0  0  0  0  0  0  0  0  0  0
   -5.8595   -0.7419   -0.8472 C   0  0  0  0  0  0  0  0  0  0  0  0
   -3.7257   -1.6515    0.0249 N   0  0  0  0  0  0  0  0  0  0  0  0
   -5.2470   -3.4143    0.1997 N   0  0  0  0  0  0  0  0  0  0  0  0
   -2.6119   -4.0038   -0.0695 S   0  0  0  0  0  0  0  0  0  0  0  0
   -9.1605   -8.1393   -1.6631 C   0  0  0  0  0  0  0  0  0  0  0  0
   -4.5762   -0.5752   -0.3136 C   0  0  0  0  0  0  0  0  0  0  0  0
   -9.1329    2.3579   -2.3579 O   0  0  0  0  0  0  0  0  0  0  0  0
   -7.8155   -7.8512   -1.9987 O   0  0  0  0  0  0  0  0  0  0  0  0
   -4.7682    1.8764   -0.5186 C   0  0  0  0  0  0  0  0  0  0  0  0
   -5.8764   -4.5565   -0.3336 C   0  0  0  0  0  0  0  0  0  0  0  0
   -7.2576   -6.7631   -1.3912 C   0  0  0  0  0  0  0  0  0  0  0  0
   -9.9431   -7.0874   -2.0088 F   0  0  0  0  0  0  0  0  0  0  0  0
   -9.5531   -9.1852   -2.4343 F   0  0  0  0  0  0  0  0  0  0  0  0
   -4.0383    0.7310   -0.1654 C   0  0  0  0  0  0  0  0  0  0  0  0
   -6.9705   -5.0977    0.3457 C   0  0  0  0  0  0  0  0  0  0  0  0
   -5.5004   -5.1007   -1.5621 C   0  0  0  0  0  0  0  0  0  0  0  0
   -7.6471   -6.2118   -0.1700 C   0  0  0  0  0  0  0  0  0  0  0  0
   -6.1829   -6.2017   -2.0815 C   0  0  0  0  0  0  0  0  0  0  0  0
   -8.4683   -0.2227   -1.9619 H   0  0  0  0  0  0  0  0  0  0  0  0
   -6.9012    3.5873   -1.4881 H   0  0  0  0  0  0  0  0  0  0  0  0
   -6.3009   -1.7044   -1.0574 H   0  0  0  0  0  0  0  0  0  0  0  0
   -2.7423   -1.4224    0.1303 H   0  0  0  0  0  0  0  0  0  0  0  0
   -5.7358   -2.9204    0.9341 H   0  0  0  0  0  0  0  0  0  0  0  0
   -9.3058   -8.4071   -0.6122 H   0  0  0  0  0  0  0  0  0  0  0  0
   -4.3467    2.8680   -0.4099 H   0  0  0  0  0  0  0  0  0  0  0  0
   -3.0309    0.8648    0.2268 H   0  0  0  0  0  0  0  0  0  0  0  0
   -7.2899   -4.6841    1.2991 H   0  0  0  0  0  0  0  0  0  0  0  0
   -4.7038   -4.6596   -2.1547 H   0  0  0  0  0  0  0  0  0  0  0  0
   -8.4599   -6.6250    0.4177 H   0  0  0  0  0  0  0  0  0  0  0  0
   -5.8821   -6.6110   -3.0432 H   0  0  0  0  0  0  0  0  0  0  0  0
  2  1  1  0  0  0  0
  2 25  1  0  0  0  0
  3  1  1  0  0  0  0
  3 26  1  0  0  0  0
  4  8  1  0  0  0  0
  5  2  1  0  0  0  0
  5  6  2  0  0  0  0
  6  3  1  0  0  0  0
  7  5  1  0  0  0  0
  7 27  1  0  0  0  0
  8 12  1  0  0  0  0
  8 28  1  0  0  0  0
  9  4  1  0  0  0  0
  9 29  1  0  0  0  0
 10  4  2  0  0  0  0
 11 14  1  0  0  0  0
 11 30  1  0  0  0  0
 12  7  2  0  0  0  0
 12 20  1  0  0  0  0
 13  1  2  0  0  0  0
 14 17  1  0  0  0  0
 15  6  1  0  0  0  0
 15 31  1  0  0  0  0
 16  9  1  0  0  0  0
 17 24  2  0  0  0  0
 17 23  1  0  0  0  0
 18 11  1  0  0  0  0
 19 11  1  0  0  0  0
 20 15  2  0  0  0  0
 20 32  1  0  0  0  0
 21 16  1  0  0  0  0
 21 33  1  0  0  0  0
 22 16  2  0  0  0  0
 22 34  1  0  0  0  0
 23 21  2  0  0  0  0
 23 35  1  0  0  0  0
 24 22  1  0  0  0  0
 24 36  1  0  0  0  0
M  END
>  <Mol_ID>
8267

>  <Formula>
C15H12F2N4O2S

>  <MolWeight>
350.3431864

>  <Cat>
P2735

>  <Name>
WAY-344169

>  <Synonyms>
N/A

>  <Target>
Anti-infection

>  <Form>
free base

>  <CAS>
454449-59-3

>  <URL>
N/A

$$$$
