WAY-247671
 OpenBabel08302521423D

 22 23  0  0  0  0  0  0  0  0999 V2000
    0.9034   -0.6288    0.0407 C   0  0  0  0  0  0  0  0  0  0  0  0
    2.0676   -1.4852    0.0589 C   0  0  0  0  0  0  0  0  0  0  0  0
    0.9199    0.7430    0.0381 N   0  0  0  0  0  0  0  0  0  0  0  0
   -0.3000   -1.1408   -0.0137 N   0  0  0  0  0  0  0  0  0  0  0  0
    2.2254   -2.6854   -0.6141 C   0  0  0  0  0  0  0  0  0  0  0  0
    3.4234   -1.1717    1.0565 S   0  0  0  0  0  0  0  0  0  0  0  0
   -0.4061    1.1119    0.0190 C   0  0  0  0  0  0  0  0  0  0  0  0
    2.0650    1.6550   -0.0234 C   0  0  0  0  0  0  0  0  0  0  0  0
   -1.1344   -0.0649   -0.0196 N   0  0  0  0  0  0  0  0  0  0  0  0
    3.5137   -3.2635   -0.4146 C   0  0  0  0  0  0  0  0  0  0  0  0
    4.2819   -2.5135    0.4462 C   0  0  0  0  0  0  0  0  0  0  0  0
   -1.1115    2.6118    0.0408 S   0  0  0  0  0  0  0  0  0  0  0  0
    2.8425    1.5449   -1.3280 C   0  0  0  0  0  0  0  0  0  0  0  0
    1.4563   -3.1129   -1.2482 H   0  0  0  0  0  0  0  0  0  0  0  0
    1.7262    2.6894    0.0851 H   0  0  0  0  0  0  0  0  0  0  0  0
    2.7151    1.4598    0.8317 H   0  0  0  0  0  0  0  0  0  0  0  0
   -2.1423   -0.1584   -0.0393 H   0  0  0  0  0  0  0  0  0  0  0  0
    3.8580   -4.1797   -0.8774 H   0  0  0  0  0  0  0  0  0  0  0  0
    5.2971   -2.7026    0.7684 H   0  0  0  0  0  0  0  0  0  0  0  0
    2.2222    1.8447   -2.1780 H   0  0  0  0  0  0  0  0  0  0  0  0
    3.7215    2.1967   -1.2971 H   0  0  0  0  0  0  0  0  0  0  0  0
    3.1929    0.5279   -1.5241 H   0  0  0  0  0  0  0  0  0  0  0  0
  1  2  1  0  0  0  0
  1  3  1  0  0  0  0
  1  4  2  0  0  0  0
  2  5  2  0  0  0  0
  2  6  1  0  0  0  0
  3  7  1  0  0  0  0
  3  8  1  0  0  0  0
  4  9  1  0  0  0  0
  5 10  1  0  0  0  0
  5 14  1  0  0  0  0
  6 11  1  0  0  0  0
  7 12  2  0  0  0  0
  7  9  1  0  0  0  0
  8 13  1  0  0  0  0
  8 15  1  0  0  0  0
  8 16  1  0  0  0  0
  9 17  1  0  0  0  0
 10 11  2  0  0  0  0
 10 18  1  0  0  0  0
 11 19  1  0  0  0  0
 13 20  1  0  0  0  0
 13 21  1  0  0  0  0
 13 22  1  0  0  0  0
M  END
>  <Mol_ID>
8565

>  <Formula>
C8H9N3S2

>  <MolWeight>
211.30716

>  <Cat>
P2078

>  <Name>
WAY-247671

>  <Synonyms>
N/A

>  <Target>
Anti-infection,MtSk

>  <Form>
free base

>  <CAS>
853697-09-3

>  <URL>
N/A

$$$$
