WAY-326099
 OpenBabel08302521433D

 40 42  0  0  0  0  0  0  0  0999 V2000
    1.8225    0.2119   -0.0079 C   0  0  0  0  0  0  0  0  0  0  0  0
    0.8289    1.1125    0.4009 N   0  0  0  0  0  0  0  0  0  0  0  0
    1.3452   -1.0587    0.2858 C   0  0  0  0  0  0  0  0  0  0  0  0
    1.0372    2.4884    0.3371 C   0  0  0  0  0  0  0  0  0  0  0  0
   -0.2837    0.4645    0.8250 N   0  0  0  0  0  0  0  0  0  0  0  0
    2.9924    0.6567   -0.5710 N   0  0  0  0  0  0  0  0  0  0  0  0
    2.0627   -2.3180    0.1091 C   0  0  0  0  0  0  0  0  0  0  0  0
    2.1918    2.9620   -0.1602 C   0  0  0  0  0  0  0  0  0  0  0  0
    0.0463   -0.8242    0.7833 C   0  0  0  0  0  0  0  0  0  0  0  0
    3.1644    1.9445   -0.6558 C   0  0  0  0  0  0  0  0  0  0  0  0
    1.2549   -3.4538    0.1156 N   0  0  0  0  0  0  0  0  0  0  0  0
   -0.0545    3.3615    0.8356 C   0  0  0  0  0  0  0  0  0  0  0  0
    3.2827   -2.3442    0.0017 O   0  0  0  0  0  0  0  0  0  0  0  0
    1.6513   -4.7741   -0.1962 C   0  0  0  0  0  0  0  0  0  0  0  0
    0.0251    3.5086    2.1861 F   0  0  0  0  0  0  0  0  0  0  0  0
    0.0642    4.6221    0.3248 F   0  0  0  0  0  0  0  0  0  0  0  0
    2.8714   -5.0862   -0.7994 C   0  0  0  0  0  0  0  0  0  0  0  0
    3.1759   -6.4028   -1.1818 C   0  0  0  0  0  0  0  0  0  0  0  0
    4.4254    2.4733   -1.2946 C   0  0  0  0  0  0  0  0  0  0  0  0
    1.0518   -7.1310   -0.2873 C   0  0  0  0  0  0  0  0  0  0  0  0
    0.7409   -5.8103    0.0525 C   0  0  0  0  0  0  0  0  0  0  0  0
    2.2619   -7.4256   -0.9119 C   0  0  0  0  0  0  0  0  0  0  0  0
    4.4372   -6.6809   -1.9602 C   0  0  0  0  0  0  0  0  0  0  0  0
    4.1787   -6.5654   -3.4567 C   0  0  0  0  0  0  0  0  0  0  0  0
    2.4375    4.0152   -0.2125 H   0  0  0  0  0  0  0  0  0  0  0  0
   -0.6867   -1.5395    1.1329 H   0  0  0  0  0  0  0  0  0  0  0  0
    0.2786   -3.3430    0.3429 H   0  0  0  0  0  0  0  0  0  0  0  0
   -1.0544    3.0031    0.5758 H   0  0  0  0  0  0  0  0  0  0  0  0
    3.5944   -4.3115   -1.0345 H   0  0  0  0  0  0  0  0  0  0  0  0
    5.2581    2.3748   -0.5936 H   0  0  0  0  0  0  0  0  0  0  0  0
    4.6471    1.9057   -2.2029 H   0  0  0  0  0  0  0  0  0  0  0  0
    4.3150    3.5275   -1.5676 H   0  0  0  0  0  0  0  0  0  0  0  0
    0.3426   -7.9295   -0.0828 H   0  0  0  0  0  0  0  0  0  0  0  0
   -0.2183   -5.6117    0.5224 H   0  0  0  0  0  0  0  0  0  0  0  0
    2.4821   -8.4503   -1.2026 H   0  0  0  0  0  0  0  0  0  0  0  0
    5.2220   -5.9740   -1.6641 H   0  0  0  0  0  0  0  0  0  0  0  0
    4.8162   -7.6809   -1.7180 H   0  0  0  0  0  0  0  0  0  0  0  0
    3.4233   -7.2882   -3.7843 H   0  0  0  0  0  0  0  0  0  0  0  0
    3.8174   -5.5647   -3.7209 H   0  0  0  0  0  0  0  0  0  0  0  0
    5.0973   -6.7544   -4.0193 H   0  0  0  0  0  0  0  0  0  0  0  0
  2  1  1  0  0  0  0
  3  1  2  0  0  0  0
  4  2  1  0  0  0  0
  4  8  2  0  0  0  0
  5  2  1  0  0  0  0
  5  9  2  0  0  0  0
  6  1  1  0  0  0  0
  7  3  1  0  0  0  0
  8 10  1  0  0  0  0
  8 25  1  0  0  0  0
  9  3  1  0  0  0  0
  9 26  1  0  0  0  0
 10  6  2  0  0  0  0
 11  7  1  0  0  0  0
 11 27  1  0  0  0  0
 12  4  1  0  0  0  0
 12 28  1  0  0  0  0
 13  7  2  0  0  0  0
 14 11  1  0  0  0  0
 15 12  1  0  0  0  0
 16 12  1  0  0  0  0
 17 14  2  0  0  0  0
 17 29  1  0  0  0  0
 18 17  1  0  0  0  0
 18 22  2  0  0  0  0
 19 10  1  0  0  0  0
 19 30  1  0  0  0  0
 19 31  1  0  0  0  0
 19 32  1  0  0  0  0
 20 21  2  0  0  0  0
 20 33  1  0  0  0  0
 21 14  1  0  0  0  0
 21 34  1  0  0  0  0
 22 20  1  0  0  0  0
 22 35  1  0  0  0  0
 23 18  1  0  0  0  0
 23 36  1  0  0  0  0
 23 37  1  0  0  0  0
 24 23  1  0  0  0  0
 24 38  1  0  0  0  0
 24 39  1  0  0  0  0
 24 40  1  0  0  0  0
M  END
>  <Mol_ID>
8887

>  <Formula>
C17H16F2N4O

>  <MolWeight>
330.3319464

>  <Cat>
P2445

>  <Name>
WAY-326099

>  <Synonyms>
N/A

>  <Target>
glucocerebrosidase

>  <Form>
free base

>  <CAS>
869714-18-1

>  <URL>
N/A

$$$$
