WAY-324667
 OpenBabel08302521423D

 50 53  0  0  0  0  0  0  0  0999 V2000
    0.3012    0.5958   -0.0392 N   0  0  0  0  0  0  0  0  0  0  0  0
   -0.8192    1.4129   -0.0123 C   0  0  0  0  0  0  0  0  0  0  0  0
    0.1659   -0.7953    0.0080 C   0  0  0  0  0  0  0  0  0  0  0  0
    2.3072   -0.1857   -0.0282 C   0  0  0  0  0  0  0  0  0  0  0  0
    1.5981    0.9508   -0.0942 N   0  0  0  0  0  0  0  0  0  0  0  0
    1.4443   -1.3055   -0.0104 C   0  0  0  0  0  0  0  0  0  0  0  0
   -1.0513   -1.4087    0.0611 N   0  0  0  0  0  0  0  0  0  0  0  0
   -2.0440    0.8556    0.0425 C   0  0  0  0  0  0  0  0  0  0  0  0
    6.4898    0.2440    1.7601 C   0  0  0  0  0  0  0  0  0  0  0  0
   -0.6263    2.8855   -0.0178 C   0  0  0  0  0  0  0  0  0  0  0  0
   -2.1057   -0.6407    0.0590 C   0  0  0  0  0  0  0  0  0  0  0  0
    7.2729   -1.2746    3.2887 N   0  0  0  0  0  0  0  0  0  0  0  0
    3.7877   -0.2201   -0.0299 C   0  0  0  0  0  0  0  0  0  0  0  0
    7.2485   -0.0405    3.8065 N   0  0  0  0  0  0  0  0  0  0  0  0
    6.8222   -1.1163    2.0371 C   0  0  0  0  0  0  0  0  0  0  0  0
    6.8218    0.9084    2.9279 C   0  0  0  0  0  0  0  0  0  0  0  0
    4.4944    0.8572    0.5267 N   0  0  0  0  0  0  0  0  0  0  0  0
    5.9517    0.8317    0.4956 C   0  0  0  0  0  0  0  0  0  0  0  0
    4.3685   -1.1974   -0.5038 O   0  0  0  0  0  0  0  0  0  0  0  0
   -3.4600   -1.2672    0.0904 C   0  0  0  0  0  0  0  0  0  0  0  0
    0.6469    3.3388   -0.0430 F   0  0  0  0  0  0  0  0  0  0  0  0
   -1.2541    3.4476   -1.0875 F   0  0  0  0  0  0  0  0  0  0  0  0
   -1.2026    3.4454    1.0830 F   0  0  0  0  0  0  0  0  0  0  0  0
    7.6425    0.1491    5.1808 C   0  0  0  0  0  0  0  0  0  0  0  0
    3.8593    2.0036    1.1665 C   0  0  0  0  0  0  0  0  0  0  0  0
    6.7348   -2.3069    1.1542 C   0  0  0  0  0  0  0  0  0  0  0  0
   -4.5715   -0.6646   -0.5132 C   0  0  0  0  0  0  0  0  0  0  0  0
   -3.6058   -2.5225    0.6973 C   0  0  0  0  0  0  0  0  0  0  0  0
   -5.8121   -1.3072   -0.5000 C   0  0  0  0  0  0  0  0  0  0  0  0
   -4.8471   -3.1622    0.7063 C   0  0  0  0  0  0  0  0  0  0  0  0
   -5.9486   -2.5546    0.1066 C   0  0  0  0  0  0  0  0  0  0  0  0
    1.7207   -2.3494    0.0161 H   0  0  0  0  0  0  0  0  0  0  0  0
   -2.9485    1.4538    0.0984 H   0  0  0  0  0  0  0  0  0  0  0  0
    6.7774    1.9540    3.1971 H   0  0  0  0  0  0  0  0  0  0  0  0
    6.3031    0.2649   -0.3732 H   0  0  0  0  0  0  0  0  0  0  0  0
    6.3140    1.8590    0.3649 H   0  0  0  0  0  0  0  0  0  0  0  0
    6.8857   -0.3160    5.8180 H   0  0  0  0  0  0  0  0  0  0  0  0
    8.6147   -0.3268    5.3343 H   0  0  0  0  0  0  0  0  0  0  0  0
    7.7120    1.2173    5.3974 H   0  0  0  0  0  0  0  0  0  0  0  0
    3.4209    2.6423    0.3942 H   0  0  0  0  0  0  0  0  0  0  0  0
    3.0891    1.6658    1.8652 H   0  0  0  0  0  0  0  0  0  0  0  0
    4.5889    2.5969    1.7234 H   0  0  0  0  0  0  0  0  0  0  0  0
    7.5639   -2.9952    1.3531 H   0  0  0  0  0  0  0  0  0  0  0  0
    5.7980   -2.8439    1.3324 H   0  0  0  0  0  0  0  0  0  0  0  0
    6.7905   -2.0320    0.0979 H   0  0  0  0  0  0  0  0  0  0  0  0
   -4.4936    0.2863   -1.0307 H   0  0  0  0  0  0  0  0  0  0  0  0
   -2.7518   -3.0136    1.1603 H   0  0  0  0  0  0  0  0  0  0  0  0
   -6.6700   -0.8410   -0.9788 H   0  0  0  0  0  0  0  0  0  0  0  0
   -4.9504   -4.1396    1.1718 H   0  0  0  0  0  0  0  0  0  0  0  0
   -6.9117   -3.0594    0.1012 H   0  0  0  0  0  0  0  0  0  0  0  0
  2  1  1  0  0  0  0
  3  1  1  0  0  0  0
  4  5  2  0  0  0  0
  5  1  1  0  0  0  0
  6  3  2  0  0  0  0
  6  4  1  0  0  0  0
  6 32  1  0  0  0  0
  7  3  1  0  0  0  0
  8  2  2  0  0  0  0
  8 11  1  0  0  0  0
  8 33  1  0  0  0  0
  9 18  1  0  0  0  0
 10  2  1  0  0  0  0
 11  7  2  0  0  0  0
 12 15  2  0  0  0  0
 13  4  1  0  0  0  0
 14 16  1  0  0  0  0
 14 12  1  0  0  0  0
 15  9  1  0  0  0  0
 16  9  2  0  0  0  0
 16 34  1  0  0  0  0
 17 13  1  0  0  0  0
 18 17  1  0  0  0  0
 18 35  1  0  0  0  0
 18 36  1  0  0  0  0
 19 13  2  0  0  0  0
 20 11  1  0  0  0  0
 21 10  1  0  0  0  0
 22 10  1  0  0  0  0
 23 10  1  0  0  0  0
 24 14  1  0  0  0  0
 24 37  1  0  0  0  0
 24 38  1  0  0  0  0
 24 39  1  0  0  0  0
 25 17  1  0  0  0  0
 25 40  1  0  0  0  0
 25 41  1  0  0  0  0
 25 42  1  0  0  0  0
 26 15  1  0  0  0  0
 26 43  1  0  0  0  0
 26 44  1  0  0  0  0
 26 45  1  0  0  0  0
 27 20  2  0  0  0  0
 27 46  1  0  0  0  0
 28 20  1  0  0  0  0
 28 47  1  0  0  0  0
 29 27  1  0  0  0  0
 29 31  2  0  0  0  0
 29 48  1  0  0  0  0
 30 28  2  0  0  0  0
 30 49  1  0  0  0  0
 31 30  1  0  0  0  0
 31 50  1  0  0  0  0
M  END
>  <Mol_ID>
8648

>  <Formula>
C21H19F3N6O

>  <MolWeight>
428.4103696

>  <Cat>
P2338

>  <Name>
WAY-324667

>  <Synonyms>
N/A

>  <Target>
11¦Â-HSD1

>  <Form>
free base

>  <CAS>
489410-37-9

>  <URL>
N/A

$$$$
