WAY-358400-A
 OpenBabel08302521393D

 31 34  0  0  0  0  0  0  0  0999 V2000
   -2.2754   -0.0021   -0.0448 C   0  0  0  0  0  0  0  0  0  0  0  0
   -1.4669    0.0400    0.9962 N   0  0  0  0  0  0  0  0  0  0  0  0
   -1.5324   -0.0043   -1.2084 N   0  0  0  0  0  0  0  0  0  0  0  0
   -3.7468   -0.0485    0.0037 C   0  0  0  0  0  0  0  0  0  0  0  0
   -6.5017   -0.0660    0.0164 N   0  3  0  0  0  0  0  0  0  0  0  0
   -0.1868    0.0210    0.5003 C   0  0  0  0  0  0  0  0  0  0  0  0
   -0.2012    0.0031   -0.8866 C   0  0  0  0  0  0  0  0  0  0  0  0
   -4.4530   -0.6747    1.0778 C   0  0  0  0  0  0  0  0  0  0  0  0
   -5.8698   -0.6621    1.0437 C   0  0  0  0  0  0  0  0  0  0  0  0
   -5.8626    0.5353   -0.9923 C   0  0  0  0  0  0  0  0  0  0  0  0
   -4.4786    0.5598   -1.0249 C   0  0  0  0  0  0  0  0  0  0  0  0
   -3.8611   -1.3238    2.1903 C   0  0  0  0  0  0  0  0  0  0  0  0
    1.0414    0.0075    1.1753 C   0  0  0  0  0  0  0  0  0  0  0  0
    0.9553   -0.0109   -1.6673 C   0  0  0  0  0  0  0  0  0  0  0  0
   -6.6361   -1.2609    2.0595 C   0  0  0  0  0  0  0  0  0  0  0  0
   -4.6272   -1.9091    3.2037 C   0  0  0  0  0  0  0  0  0  0  0  0
    2.1737   -0.0216   -0.9791 C   0  0  0  0  0  0  0  0  0  0  0  0
    2.2194   -0.0163    0.4178 C   0  0  0  0  0  0  0  0  0  0  0  0
   -6.0132   -1.8802    3.1384 C   0  0  0  0  0  0  0  0  0  0  0  0
   -1.8928   -0.0471   -2.1491 H   0  0  0  0  0  0  0  0  0  0  0  0
   -7.5211   -0.0671    0.0137 H   0  0  0  0  0  0  0  0  0  0  0  0
   -6.4806    0.9939   -1.7582 H   0  0  0  0  0  0  0  0  0  0  0  0
   -3.9841    1.0804   -1.8425 H   0  0  0  0  0  0  0  0  0  0  0  0
   -2.7779   -1.3809    2.2966 H   0  0  0  0  0  0  0  0  0  0  0  0
    1.0735    0.0093    2.2592 H   0  0  0  0  0  0  0  0  0  0  0  0
    0.9249   -0.0202   -2.7514 H   0  0  0  0  0  0  0  0  0  0  0  0
   -7.7230   -1.2524    2.0299 H   0  0  0  0  0  0  0  0  0  0  0  0
   -4.1285   -2.3863    4.0470 H   0  0  0  0  0  0  0  0  0  0  0  0
    3.1056   -0.0372   -1.5419 H   0  0  0  0  0  0  0  0  0  0  0  0
    3.1820   -0.0313    0.9256 H   0  0  0  0  0  0  0  0  0  0  0  0
   -6.6018   -2.3397    3.9309 H   0  0  0  0  0  0  0  0  0  0  0  0
  2  1  2  0  0  0  0
  3  1  1  0  0  0  0
  3 20  1  0  0  0  0
  4  1  1  0  0  0  0
  5 10  2  0  0  0  0
  5  9  1  0  0  0  0
  5 21  1  0  0  0  0
  6  2  1  0  0  0  0
  7  3  1  0  0  0  0
  7  6  2  0  0  0  0
  8  4  1  0  0  0  0
  9  8  2  0  0  0  0
 10 11  1  0  0  0  0
 10 22  1  0  0  0  0
 11  4  2  0  0  0  0
 11 23  1  0  0  0  0
 12  8  1  0  0  0  0
 12 24  1  0  0  0  0
 13  6  1  0  0  0  0
 13 25  1  0  0  0  0
 14  7  1  0  0  0  0
 14 26  1  0  0  0  0
 15  9  1  0  0  0  0
 15 27  1  0  0  0  0
 16 12  2  0  0  0  0
 16 28  1  0  0  0  0
 17 14  2  0  0  0  0
 17 18  1  0  0  0  0
 17 29  1  0  0  0  0
 18 13  2  0  0  0  0
 18 30  1  0  0  0  0
 19 16  1  0  0  0  0
 19 15  2  0  0  0  0
 19 31  1  0  0  0  0
M  CHG  1   5   1
M  END
>  <Mol_ID>
8077

>  <Formula>
C16H12N3+

>  <MolWeight>
246.28658

>  <Cat>
P2780

>  <Name>
WAY-358400-A

>  <Synonyms>
N/A

>  <Target>
others

>  <Form>
free base

>  <CAS>
31704-11-7

>  <URL>
N/A

$$$$
