WAY-213613
 OpenBabel08302521323D

 38 39  0  0  0  0  0  0  0  0999 V2000
    1.1750   -0.1849    0.0890 O   0  0  0  0  0  0  0  0  0  0  0  0
   -1.4376   -1.0951    1.4227 Br  0  0  0  0  0  0  0  0  0  0  0  0
    0.7806   -2.8366   -3.8927 F   0  0  0  0  0  0  0  0  0  0  0  0
   -1.5630   -3.8857   -2.9482 F   0  0  0  0  0  0  0  0  0  0  0  0
    6.6944    0.3127   -0.6494 N   0  0  0  0  0  0  0  0  0  0  0  0
    7.4425    1.4682   -0.7970 C   0  0  0  0  0  0  0  0  0  0  0  0
    8.9144    1.2112   -1.0603 C   0  0  0  0  0  0  0  0  0  0  0  0
    7.0375    2.6224   -0.7130 O   0  0  0  0  0  0  0  0  0  0  0  0
    9.2383    1.0856   -2.5431 C   0  0  1  0  0  0  0  0  0  0  0  0
    8.8530    2.3471   -3.3382 C   0  0  0  0  0  0  0  0  0  0  0  0
   10.6793    0.7662   -2.6988 N   0  0  0  0  0  0  0  0  0  0  0  0
    9.8164    3.2969   -3.3725 O   0  0  0  0  0  0  0  0  0  0  0  0
    7.7901    2.4784   -3.9260 O   0  0  0  0  0  0  0  0  0  0  0  0
    0.5106   -1.0928   -0.7147 C   0  0  0  0  0  0  0  0  0  0  0  0
   -0.7062   -1.6181   -0.2489 C   0  0  0  0  0  0  0  0  0  0  0  0
    0.9785   -1.4741   -1.9810 C   0  0  0  0  0  0  0  0  0  0  0  0
   -1.4123   -2.5588   -1.0078 C   0  0  0  0  0  0  0  0  0  0  0  0
    0.2849   -2.4293   -2.7165 C   0  0  0  0  0  0  0  0  0  0  0  0
   -0.8999   -2.9669   -2.2327 C   0  0  0  0  0  0  0  0  0  0  0  0
    2.5451   -0.1001    0.0002 C   0  0  0  0  0  0  0  0  0  0  0  0
    3.1046    1.1740    0.0092 C   0  0  0  0  0  0  0  0  0  0  0  0
    3.3767   -1.2179   -0.0747 C   0  0  0  0  0  0  0  0  0  0  0  0
    4.4837    1.3361   -0.1728 C   0  0  0  0  0  0  0  0  0  0  0  0
    4.7494   -1.0525   -0.2864 C   0  0  0  0  0  0  0  0  0  0  0  0
    5.3126    0.2283   -0.3692 C   0  0  0  0  0  0  0  0  0  0  0  0
    7.1740   -0.5702   -0.7733 H   0  0  0  0  0  0  0  0  0  0  0  0
    9.4682    2.0429   -0.6076 H   0  0  0  0  0  0  0  0  0  0  0  0
    9.2180    0.3068   -0.5198 H   0  0  0  0  0  0  0  0  0  0  0  0
    8.6767    0.2565   -2.9887 H   0  0  0  0  0  0  0  0  0  0  0  0
   10.9585    0.8236   -3.6795 H   0  0  0  0  0  0  0  0  0  0  0  0
   11.2943    1.3367   -2.1265 H   0  0  0  0  0  0  0  0  0  0  0  0
   10.6065    3.0436   -2.8695 H   0  0  0  0  0  0  0  0  0  0  0  0
    1.8861   -1.0570   -2.4064 H   0  0  0  0  0  0  0  0  0  0  0  0
   -2.3495   -2.9792   -0.6589 H   0  0  0  0  0  0  0  0  0  0  0  0
    2.4745    2.0512    0.1321 H   0  0  0  0  0  0  0  0  0  0  0  0
    2.9629   -2.2202   -0.0130 H   0  0  0  0  0  0  0  0  0  0  0  0
    4.8729    2.3500   -0.1746 H   0  0  0  0  0  0  0  0  0  0  0  0
    5.3601   -1.9424   -0.4061 H   0  0  0  0  0  0  0  0  0  0  0  0
  1 14  1  0  0  0  0
  1 20  1  0  0  0  0
  2 15  1  0  0  0  0
  3 18  1  0  0  0  0
  4 19  1  0  0  0  0
  5  6  1  0  0  0  0
  5 25  1  0  0  0  0
  5 26  1  0  0  0  0
  6  7  1  0  0  0  0
  6  8  2  0  0  0  0
  7  9  1  0  0  0  0
  7 27  1  0  0  0  0
  7 28  1  0  0  0  0
  9 10  1  0  0  0  0
  9 11  1  0  0  0  0
  9 29  1  6  0  0  0
 10 12  1  0  0  0  0
 10 13  2  0  0  0  0
 11 30  1  0  0  0  0
 11 31  1  0  0  0  0
 12 32  1  0  0  0  0
 14 15  2  0  0  0  0
 14 16  1  0  0  0  0
 15 17  1  0  0  0  0
 16 18  2  0  0  0  0
 16 33  1  0  0  0  0
 17 19  2  0  0  0  0
 17 34  1  0  0  0  0
 18 19  1  0  0  0  0
 20 21  2  0  0  0  0
 20 22  1  0  0  0  0
 21 23  1  0  0  0  0
 21 35  1  0  0  0  0
 22 24  2  0  0  0  0
 22 36  1  0  0  0  0
 23 25  2  0  0  0  0
 23 37  1  0  0  0  0
 24 25  1  0  0  0  0
 24 38  1  0  0  0  0
M  END
>  <Mol_ID>
6230

>  <Formula>
C16H13BrF2N2O4

>  <MolWeight>
415.1862264

>  <Cat>
S5892

>  <Name>
WAY-213613

>  <Synonyms>
N/A

>  <Target>
EAAT

>  <Form>
free base

>  <CAS>
868359-05-1

>  <URL>
http://www.selleckchem.com/products/way-213613.html

$$$$
