WAY-638088
 OpenBabel08302521423D

 30 32  0  0  0  0  0  0  0  0999 V2000
    1.0421    1.9796   -0.3013 C   0  0  0  0  0  0  0  0  0  0  0  0
    2.4404    1.5351   -0.2908 C   0  0  0  0  0  0  0  0  0  0  0  0
    0.1117    0.9930   -0.5795 N   0  0  0  0  0  0  0  0  0  0  0  0
    2.8903   -0.0948   -0.5820 S   0  0  0  0  0  0  0  0  0  0  0  0
   -3.3350    1.7185   -1.5629 C   0  0  0  0  0  0  0  0  0  0  0  0
   -1.2734    1.2099   -0.4794 C   0  0  0  0  0  0  0  0  0  0  0  0
   -1.9526    1.6851   -1.6023 C   0  0  0  0  0  0  0  0  0  0  0  0
    3.5595    2.3219   -0.0611 C   0  0  0  0  0  0  0  0  0  0  0  0
    0.7332    3.1470   -0.0562 O   0  0  0  0  0  0  0  0  0  0  0  0
   -4.0390    1.2995   -0.4340 C   0  0  0  0  0  0  0  0  0  0  0  0
    4.5549    0.2496   -0.3875 C   0  0  0  0  0  0  0  0  0  0  0  0
    4.7756    1.5815   -0.1151 C   0  0  0  0  0  0  0  0  0  0  0  0
   -3.3727    0.8509    0.7004 C   0  0  0  0  0  0  0  0  0  0  0  0
   -1.9738    0.7922    0.6642 C   0  0  0  0  0  0  0  0  0  0  0  0
   -4.2754    2.0837   -2.6710 C   0  0  0  0  0  0  0  0  0  0  0  0
   -5.5874    2.2753   -1.8973 C   0  0  0  0  0  0  0  0  0  0  0  0
   -5.5164    1.3464   -0.6763 C   0  0  0  0  0  0  0  0  0  0  0  0
    0.4343    0.0409   -0.4681 H   0  0  0  0  0  0  0  0  0  0  0  0
   -1.4128    1.9695   -2.4999 H   0  0  0  0  0  0  0  0  0  0  0  0
    3.4971    3.3852    0.1367 H   0  0  0  0  0  0  0  0  0  0  0  0
    5.2906   -0.5340   -0.4847 H   0  0  0  0  0  0  0  0  0  0  0  0
    5.7622    2.0066    0.0347 H   0  0  0  0  0  0  0  0  0  0  0  0
   -3.9183    0.5356    1.5821 H   0  0  0  0  0  0  0  0  0  0  0  0
   -1.4379    0.4384    1.5397 H   0  0  0  0  0  0  0  0  0  0  0  0
   -4.3549    1.2557   -3.3840 H   0  0  0  0  0  0  0  0  0  0  0  0
   -3.9764    2.9984   -3.1886 H   0  0  0  0  0  0  0  0  0  0  0  0
   -5.6524    3.3171   -1.5535 H   0  0  0  0  0  0  0  0  0  0  0  0
   -6.4687    2.0850   -2.5176 H   0  0  0  0  0  0  0  0  0  0  0  0
   -6.0776    1.7533    0.1705 H   0  0  0  0  0  0  0  0  0  0  0  0
   -5.8842    0.3464   -0.9236 H   0  0  0  0  0  0  0  0  0  0  0  0
  2  1  1  0  0  0  0
  3  1  1  0  0  0  0
  3 18  1  0  0  0  0
  4  2  1  0  0  0  0
  5  7  2  0  0  0  0
  6  3  1  0  0  0  0
  7  6  1  0  0  0  0
  7 19  1  0  0  0  0
  8  2  2  0  0  0  0
  8 20  1  0  0  0  0
  9  1  2  0  0  0  0
 10 13  2  0  0  0  0
 10  5  1  0  0  0  0
 11  4  1  0  0  0  0
 11 12  2  0  0  0  0
 11 21  1  0  0  0  0
 12  8  1  0  0  0  0
 12 22  1  0  0  0  0
 13 14  1  0  0  0  0
 13 23  1  0  0  0  0
 14  6  2  0  0  0  0
 14 24  1  0  0  0  0
 15  5  1  0  0  0  0
 15 25  1  0  0  0  0
 15 26  1  0  0  0  0
 16 15  1  0  0  0  0
 16 17  1  0  0  0  0
 16 27  1  0  0  0  0
 16 28  1  0  0  0  0
 17 10  1  0  0  0  0
 17 29  1  0  0  0  0
 17 30  1  0  0  0  0
M  END
>  <Mol_ID>
8501

>  <Formula>
C14H13NOS

>  <MolWeight>
243.32412

>  <Cat>
P3027

>  <Name>
WAY-638088

>  <Synonyms>
N/A

>  <Target>
others

>  <Form>
free base

>  <CAS>
332055-83-1

>  <URL>
N/A

$$$$
