WAY-605471
 OpenBabel08302521413D

 35 36  0  0  0  0  0  0  0  0999 V2000
   -0.5866    1.3416   -0.0299 C   0  0  0  0  0  0  0  0  0  0  0  0
    0.2319   -0.9843    0.0362 C   0  0  0  0  0  0  0  0  0  0  0  0
   -1.2867   -0.1713    0.2049 S   0  0  0  0  0  0  0  0  0  0  0  0
   -1.3221    3.4094   -1.0182 C   0  0  0  0  0  0  0  0  0  0  0  0
   -2.3876    4.4247   -0.9935 C   0  0  0  0  0  0  0  0  0  0  0  0
    1.2783   -0.0539   -0.0211 C   0  0  0  0  0  0  0  0  0  0  0  0
   -1.4695    2.3867   -0.0929 N   0  0  0  0  0  0  0  0  0  0  0  0
    0.7750    1.2887   -0.1156 C   0  0  0  0  0  0  0  0  0  0  0  0
    0.2872   -2.4443    0.0122 C   0  0  0  0  0  0  0  0  0  0  0  0
   -2.6098    5.4892   -1.8671 C   0  0  0  0  0  0  0  0  0  0  0  0
   -3.5718    4.3989    0.2613 S   0  0  0  0  0  0  0  0  0  0  0  0
   -4.3539    5.7862   -0.3291 C   0  0  0  0  0  0  0  0  0  0  0  0
   -0.4050    3.4307   -1.8389 O   0  0  0  0  0  0  0  0  0  0  0  0
   -3.7414    6.2746   -1.4628 C   0  0  0  0  0  0  0  0  0  0  0  0
    1.3067   -3.1237   -0.0054 O   0  0  0  0  0  0  0  0  0  0  0  0
   -0.9649   -2.9782   -0.0180 O   0  0  0  0  0  0  0  0  0  0  0  0
    2.7518   -0.3300   -0.0147 C   0  0  0  0  0  0  0  0  0  0  0  0
   -1.8175    5.8474   -3.0879 C   0  0  0  0  0  0  0  0  0  0  0  0
   -1.0443   -4.4118   -0.0565 C   0  0  0  0  0  0  0  0  0  0  0  0
   -2.5161   -4.7853   -0.1123 C   0  0  0  0  0  0  0  0  0  0  0  0
   -2.3906    2.2533    0.3068 H   0  0  0  0  0  0  0  0  0  0  0  0
    1.4028    2.1721   -0.1991 H   0  0  0  0  0  0  0  0  0  0  0  0
   -5.2224    6.1848    0.1766 H   0  0  0  0  0  0  0  0  0  0  0  0
   -4.0939    7.1538   -1.9830 H   0  0  0  0  0  0  0  0  0  0  0  0
    3.2220    0.1221   -0.8933 H   0  0  0  0  0  0  0  0  0  0  0  0
    3.1977    0.1189    0.8788 H   0  0  0  0  0  0  0  0  0  0  0  0
    2.9962   -1.3928   -0.0099 H   0  0  0  0  0  0  0  0  0  0  0  0
   -2.4834    5.9223   -3.9578 H   0  0  0  0  0  0  0  0  0  0  0  0
   -1.3350    6.8204   -2.9475 H   0  0  0  0  0  0  0  0  0  0  0  0
   -1.0433    5.1201   -3.3367 H   0  0  0  0  0  0  0  0  0  0  0  0
   -0.5271   -4.7882   -0.9458 H   0  0  0  0  0  0  0  0  0  0  0  0
   -0.5871   -4.8293    0.8471 H   0  0  0  0  0  0  0  0  0  0  0  0
   -3.0504   -4.3738    0.7505 H   0  0  0  0  0  0  0  0  0  0  0  0
   -2.9852   -4.3626   -1.0071 H   0  0  0  0  0  0  0  0  0  0  0  0
   -2.6486   -5.8714   -0.1244 H   0  0  0  0  0  0  0  0  0  0  0  0
  2  3  1  0  0  0  0
  2  6  2  0  0  0  0
  3  1  1  0  0  0  0
  4  7  1  0  0  0  0
  5  4  1  0  0  0  0
  6  8  1  0  0  0  0
  7  1  1  0  0  0  0
  7 21  1  0  0  0  0
  8  1  2  0  0  0  0
  8 22  1  0  0  0  0
  9  2  1  0  0  0  0
 10  5  2  0  0  0  0
 11  5  1  0  0  0  0
 12 11  1  0  0  0  0
 12 23  1  0  0  0  0
 13  4  2  0  0  0  0
 14 10  1  0  0  0  0
 14 12  2  0  0  0  0
 14 24  1  0  0  0  0
 15  9  2  0  0  0  0
 16  9  1  0  0  0  0
 17  6  1  0  0  0  0
 17 25  1  0  0  0  0
 17 26  1  0  0  0  0
 17 27  1  0  0  0  0
 18 10  1  0  0  0  0
 18 28  1  0  0  0  0
 18 29  1  0  0  0  0
 18 30  1  0  0  0  0
 19 16  1  0  0  0  0
 19 31  1  0  0  0  0
 19 32  1  0  0  0  0
 20 19  1  0  0  0  0
 20 33  1  0  0  0  0
 20 34  1  0  0  0  0
 20 35  1  0  0  0  0
M  END
>  <Mol_ID>
8470

>  <Formula>
C14H15NO3S2

>  <MolWeight>
309.4038

>  <Cat>
P2853

>  <Name>
WAY-605471

>  <Synonyms>
N/A

>  <Target>
others

>  <Form>
free base

>  <CAS>
378223-81-5

>  <URL>
N/A

$$$$
