WAY-301522
 OpenBabel08302521413D

 35 38  0  0  0  0  0  0  0  0999 V2000
   -0.3353    0.6847   -0.0937 C   0  0  0  0  0  0  0  0  0  0  0  0
   -0.2531   -0.7009   -0.0660 C   0  0  0  0  0  0  0  0  0  0  0  0
    0.8485    1.4117    0.0867 C   0  0  0  0  0  0  0  0  0  0  0  0
   -1.6987    0.9533   -0.2824 C   0  0  0  0  0  0  0  0  0  0  0  0
   -1.5589   -1.1784   -0.1690 N   0  0  0  0  0  0  0  0  0  0  0  0
    0.8850   -1.4136    0.0598 N   0  0  0  0  0  0  0  0  0  0  0  0
    0.8922    2.8103    0.1528 N   0  0  0  0  0  0  0  0  0  0  0  0
    2.0014    0.7004    0.1955 N   0  0  0  0  0  0  0  0  0  0  0  0
   -2.4449   -0.1497   -0.3521 N   0  0  0  0  0  0  0  0  0  0  0  0
   -2.0374   -2.5214   -0.0854 C   0  0  0  0  0  0  0  0  0  0  0  0
    1.9647   -0.6365    0.1649 C   0  0  0  0  0  0  0  0  0  0  0  0
    1.8893    3.5969    0.7596 C   0  0  0  0  0  0  0  0  0  0  0  0
   -1.1797   -3.6018    0.1684 C   0  0  0  0  0  0  0  0  0  0  0  0
   -3.4108   -2.7688   -0.2386 C   0  0  0  0  0  0  0  0  0  0  0  0
    2.1908    4.8622    0.2437 C   0  0  0  0  0  0  0  0  0  0  0  0
    2.6713    3.1079    1.8158 C   0  0  0  0  0  0  0  0  0  0  0  0
   -1.6876   -4.9017    0.2547 C   0  0  0  0  0  0  0  0  0  0  0  0
   -3.9126   -4.0701   -0.1529 C   0  0  0  0  0  0  0  0  0  0  0  0
    3.2618    5.6033    0.7552 C   0  0  0  0  0  0  0  0  0  0  0  0
    3.7336    3.8484    2.3385 C   0  0  0  0  0  0  0  0  0  0  0  0
   -3.0506   -5.1353    0.0932 C   0  0  0  0  0  0  0  0  0  0  0  0
    4.0345    5.0938    1.7980 C   0  0  0  0  0  0  0  0  0  0  0  0
   -2.1896    1.9132   -0.3733 H   0  0  0  0  0  0  0  0  0  0  0  0
    0.0604    3.3084   -0.1247 H   0  0  0  0  0  0  0  0  0  0  0  0
    2.9228   -1.1402    0.2422 H   0  0  0  0  0  0  0  0  0  0  0  0
   -0.1114   -3.4787    0.3106 H   0  0  0  0  0  0  0  0  0  0  0  0
   -4.1093   -1.9559   -0.4279 H   0  0  0  0  0  0  0  0  0  0  0  0
    1.6252    5.2638   -0.5926 H   0  0  0  0  0  0  0  0  0  0  0  0
    2.4587    2.1355    2.2496 H   0  0  0  0  0  0  0  0  0  0  0  0
   -1.0138   -5.7325    0.4520 H   0  0  0  0  0  0  0  0  0  0  0  0
   -4.9767   -4.2481   -0.2765 H   0  0  0  0  0  0  0  0  0  0  0  0
    3.5082    6.5697    0.3244 H   0  0  0  0  0  0  0  0  0  0  0  0
    4.3250    3.4397    3.1499 H   0  0  0  0  0  0  0  0  0  0  0  0
   -3.4409   -6.1472    0.1604 H   0  0  0  0  0  0  0  0  0  0  0  0
    4.8788    5.6594    2.1830 H   0  0  0  0  0  0  0  0  0  0  0  0
  1  2  2  0  0  0  0
  1  3  1  0  0  0  0
  1  4  1  0  0  0  0
  2  5  1  0  0  0  0
  2  6  1  0  0  0  0
  3  7  1  0  0  0  0
  3  8  2  0  0  0  0
  4  9  2  0  0  0  0
  4 23  1  0  0  0  0
  5 10  1  0  0  0  0
  5  9  1  0  0  0  0
  6 11  2  0  0  0  0
  7 12  1  0  0  0  0
  7 24  1  0  0  0  0
  8 11  1  0  0  0  0
 10 13  2  0  0  0  0
 10 14  1  0  0  0  0
 11 25  1  0  0  0  0
 12 15  2  0  0  0  0
 12 16  1  0  0  0  0
 13 17  1  0  0  0  0
 13 26  1  0  0  0  0
 14 18  2  0  0  0  0
 14 27  1  0  0  0  0
 15 19  1  0  0  0  0
 15 28  1  0  0  0  0
 16 20  2  0  0  0  0
 16 29  1  0  0  0  0
 17 21  2  0  0  0  0
 17 30  1  0  0  0  0
 18 21  1  0  0  0  0
 18 31  1  0  0  0  0
 19 22  2  0  0  0  0
 19 32  1  0  0  0  0
 20 22  1  0  0  0  0
 20 33  1  0  0  0  0
 21 34  1  0  0  0  0
 22 35  1  0  0  0  0
M  END
>  <Mol_ID>
8440

>  <Formula>
C17H13N5

>  <MolWeight>
287.31862

>  <Cat>
P2173

>  <Name>
WAY-301522

>  <Synonyms>
N/A

>  <Target>
Anti-infection

>  <Form>
free base

>  <CAS>
68380-53-0

>  <URL>
N/A

$$$$
