WAY-657196
 OpenBabel08302521423D

 53 55  0  0  0  0  0  0  0  0999 V2000
    0.3751    1.1652    0.1360 C   0  0  0  0  0  0  0  0  0  0  0  0
    1.1180    2.8125    0.0943 S   0  0  0  0  0  0  0  0  0  0  0  0
   -1.0326    1.1272    0.1846 C   0  0  0  0  0  0  0  0  0  0  0  0
    1.0949   -0.0433    0.0241 C   0  0  0  0  0  0  0  0  0  0  0  0
    1.3878    3.1796    1.7462 N   0  0  0  0  0  0  0  0  0  0  0  0
    2.3796    2.7260   -0.5874 O   0  0  0  0  0  0  0  0  0  0  0  0
    0.1029    3.7403   -0.3914 O   0  0  0  0  0  0  0  0  0  0  0  0
   -1.7499   -0.0709    0.0369 C   0  0  0  0  0  0  0  0  0  0  0  0
    0.3562   -1.2489   -0.0299 C   0  0  0  0  0  0  0  0  0  0  0  0
    2.5898   -0.2116   -0.0102 C   0  0  0  0  0  0  0  0  0  0  0  0
    0.1557    3.3971    2.5534 C   0  0  0  0  0  0  0  0  0  0  0  0
    2.4277    2.3659    2.4143 C   0  0  0  0  0  0  0  0  0  0  0  0
   -3.2456    0.0218   -0.0359 C   0  0  0  0  0  0  0  0  0  0  0  0
   -1.0457   -1.2697   -0.0420 C   0  0  0  0  0  0  0  0  0  0  0  0
    0.4939    3.9217    3.9452 C   0  0  0  0  0  0  0  0  0  0  0  0
    2.7762    2.9432    3.7785 C   0  0  0  0  0  0  0  0  0  0  0  0
   -3.9187   -0.9537   -0.7606 N   0  0  0  0  0  0  0  0  0  0  0  0
   -3.8028    0.9697    0.4996 O   0  0  0  0  0  0  0  0  0  0  0  0
    1.5251    3.0422    4.6396 C   0  0  0  0  0  0  0  0  0  0  0  0
   -5.3764   -0.9077   -0.9844 C   0  0  0  0  0  0  0  0  0  0  0  0
   -5.9582   -2.3281   -1.1357 C   0  0  0  0  0  0  0  0  0  0  0  0
   -5.7073   -0.0472   -2.2173 C   0  0  0  0  0  0  0  0  0  0  0  0
   -7.4336   -2.3371   -1.5345 C   0  0  0  0  0  0  0  0  0  0  0  0
   -7.1829   -0.0982   -2.6220 C   0  0  0  0  0  0  0  0  0  0  0  0
   -7.6744   -1.5295   -2.8010 C   0  0  0  0  0  0  0  0  0  0  0  0
   -1.5909    2.0547    0.3254 H   0  0  0  0  0  0  0  0  0  0  0  0
    0.8908   -2.2002   -0.0789 H   0  0  0  0  0  0  0  0  0  0  0  0
    2.9005   -0.8237    0.8458 H   0  0  0  0  0  0  0  0  0  0  0  0
    2.8854   -0.7311   -0.9292 H   0  0  0  0  0  0  0  0  0  0  0  0
    3.1706    0.7050    0.0465 H   0  0  0  0  0  0  0  0  0  0  0  0
   -0.4032    2.4609    2.6424 H   0  0  0  0  0  0  0  0  0  0  0  0
   -0.4862    4.1376    2.0613 H   0  0  0  0  0  0  0  0  0  0  0  0
    3.3369    2.3530    1.8050 H   0  0  0  0  0  0  0  0  0  0  0  0
    2.0722    1.3405    2.5470 H   0  0  0  0  0  0  0  0  0  0  0  0
   -1.5526   -2.2285   -0.1009 H   0  0  0  0  0  0  0  0  0  0  0  0
   -0.4190    3.9662    4.5497 H   0  0  0  0  0  0  0  0  0  0  0  0
    0.8816    4.9451    3.8724 H   0  0  0  0  0  0  0  0  0  0  0  0
    3.2359    3.9338    3.6705 H   0  0  0  0  0  0  0  0  0  0  0  0
    3.5111    2.2948    4.2670 H   0  0  0  0  0  0  0  0  0  0  0  0
   -3.3801   -1.5368   -1.3874 H   0  0  0  0  0  0  0  0  0  0  0  0
    1.7752    3.4531    5.6230 H   0  0  0  0  0  0  0  0  0  0  0  0
    1.1080    2.0405    4.8027 H   0  0  0  0  0  0  0  0  0  0  0  0
   -5.8296   -0.4418   -0.0992 H   0  0  0  0  0  0  0  0  0  0  0  0
   -5.3839   -2.8861   -1.8860 H   0  0  0  0  0  0  0  0  0  0  0  0
   -5.8600   -2.8796   -0.1937 H   0  0  0  0  0  0  0  0  0  0  0  0
   -5.4242    0.9957   -2.0299 H   0  0  0  0  0  0  0  0  0  0  0  0
   -5.1007   -0.3844   -3.0690 H   0  0  0  0  0  0  0  0  0  0  0  0
   -7.7690   -3.3699   -1.6894 H   0  0  0  0  0  0  0  0  0  0  0  0
   -8.0402   -1.9268   -0.7182 H   0  0  0  0  0  0  0  0  0  0  0  0
   -7.3267    0.4533   -3.5578 H   0  0  0  0  0  0  0  0  0  0  0  0
   -7.7922    0.4028   -1.8595 H   0  0  0  0  0  0  0  0  0  0  0  0
   -7.1528   -1.9999   -3.6441 H   0  0  0  0  0  0  0  0  0  0  0  0
   -8.7435   -1.5310   -3.0472 H   0  0  0  0  0  0  0  0  0  0  0  0
  1  2  1  0  0  0  0
  1  3  2  0  0  0  0
  1  4  1  0  0  0  0
  2  5  1  0  0  0  0
  2  6  2  0  0  0  0
  2  7  2  0  0  0  0
  3  8  1  0  0  0  0
  3 26  1  0  0  0  0
  4  9  2  0  0  0  0
  4 10  1  0  0  0  0
  5 11  1  0  0  0  0
  5 12  1  0  0  0  0
  8 13  1  0  0  0  0
  8 14  2  0  0  0  0
  9 14  1  0  0  0  0
  9 27  1  0  0  0  0
 10 28  1  0  0  0  0
 10 29  1  0  0  0  0
 10 30  1  0  0  0  0
 11 15  1  0  0  0  0
 11 31  1  0  0  0  0
 11 32  1  0  0  0  0
 12 16  1  0  0  0  0
 12 33  1  0  0  0  0
 12 34  1  0  0  0  0
 13 17  1  0  0  0  0
 13 18  2  0  0  0  0
 14 35  1  0  0  0  0
 15 19  1  0  0  0  0
 15 36  1  0  0  0  0
 15 37  1  0  0  0  0
 16 19  1  0  0  0  0
 16 38  1  0  0  0  0
 16 39  1  0  0  0  0
 17 20  1  0  0  0  0
 17 40  1  0  0  0  0
 19 41  1  0  0  0  0
 19 42  1  0  0  0  0
 20 21  1  0  0  0  0
 20 22  1  0  0  0  0
 20 43  1  0  0  0  0
 21 23  1  0  0  0  0
 21 44  1  0  0  0  0
 21 45  1  0  0  0  0
 22 24  1  0  0  0  0
 22 46  1  0  0  0  0
 22 47  1  0  0  0  0
 23 25  1  0  0  0  0
 23 48  1  0  0  0  0
 23 49  1  0  0  0  0
 24 25  1  0  0  0  0
 24 50  1  0  0  0  0
 24 51  1  0  0  0  0
 25 52  1  0  0  0  0
 25 53  1  0  0  0  0
M  END
>  <Mol_ID>
8542

>  <Formula>
C19H28N2O3S

>  <MolWeight>
364.50222

>  <Cat>
P3153

>  <Name>
WAY-657196

>  <Synonyms>
N/A

>  <Target>
cannabinoid receptor

>  <Form>
free base

>  <CAS>
852934-91-9

>  <URL>
N/A

$$$$
