WAY-323402
 OpenBabel08302521423D

 40 42  0  0  0  0  0  0  0  0999 V2000
   -0.8598    1.8071   -1.3697 C   0  0  0  0  0  0  0  0  0  0  0  0
   -1.0010    0.5185   -1.0177 N   0  0  0  0  0  0  0  0  0  0  0  0
   -0.3992    2.1657   -2.5773 N   0  0  0  0  0  0  0  0  0  0  0  0
   -0.8912    4.0710   -0.2847 C   0  0  0  0  0  0  0  0  0  0  0  0
   -0.0939    1.1995   -3.4627 C   0  0  0  0  0  0  0  0  0  0  0  0
   -0.6852   -0.3952   -1.9474 C   0  0  0  0  0  0  0  0  0  0  0  0
   -1.2178    2.7273   -0.3846 N   0  0  0  0  0  0  0  0  0  0  0  0
   -0.2268   -0.1448   -3.2156 C   0  0  0  0  0  0  0  0  0  0  0  0
    0.5329    6.3691    0.0615 C   0  0  0  0  0  0  0  0  0  0  0  0
   -0.4935    4.7240   -1.3637 N   0  0  0  0  0  0  0  0  0  0  0  0
    0.2771    5.7870   -1.1744 C   0  0  0  0  0  0  0  0  0  0  0  0
   -0.8800    4.6267    0.9416 N   0  0  0  0  0  0  0  0  0  0  0  0
   -0.2301    5.8155    1.0900 C   0  0  0  0  0  0  0  0  0  0  0  0
    1.5392    7.3722    0.1404 C   0  0  0  0  0  0  0  0  0  0  0  0
    1.0019    6.1465   -2.2815 C   0  0  0  0  0  0  0  0  0  0  0  0
    2.4177    7.5426   -0.9346 C   0  0  0  0  0  0  0  0  0  0  0  0
    2.2479    6.7091   -2.0452 C   0  0  0  0  0  0  0  0  0  0  0  0
   -0.8687   -1.6711   -1.5157 O   0  0  0  0  0  0  0  0  0  0  0  0
    0.3712    1.6723   -4.6595 O   0  0  0  0  0  0  0  0  0  0  0  0
    0.0854   -1.2224   -4.1974 C   0  0  0  0  0  0  0  0  0  0  0  0
   -0.3746    6.4639    2.4332 C   0  0  0  0  0  0  0  0  0  0  0  0
    3.4675    8.6158   -0.9016 C   0  0  0  0  0  0  0  0  0  0  0  0
    3.3617    5.7604   -2.4531 C   0  0  0  0  0  0  0  0  0  0  0  0
   -1.3168    2.2988    0.5167 H   0  0  0  0  0  0  0  0  0  0  0  0
    1.7342    7.9017    1.0693 H   0  0  0  0  0  0  0  0  0  0  0  0
    0.7929    5.6354   -3.2134 H   0  0  0  0  0  0  0  0  0  0  0  0
   -1.1955   -1.5063   -0.6134 H   0  0  0  0  0  0  0  0  0  0  0  0
    0.5665    0.9303   -5.2486 H   0  0  0  0  0  0  0  0  0  0  0  0
   -0.5068   -1.0891   -5.1093 H   0  0  0  0  0  0  0  0  0  0  0  0
    1.1491   -1.2093   -4.4570 H   0  0  0  0  0  0  0  0  0  0  0  0
   -0.1445   -2.2213   -3.8119 H   0  0  0  0  0  0  0  0  0  0  0  0
   -1.4296    6.7204    2.5799 H   0  0  0  0  0  0  0  0  0  0  0  0
   -0.0624    5.7828    3.2301 H   0  0  0  0  0  0  0  0  0  0  0  0
    0.1967    7.3901    2.5298 H   0  0  0  0  0  0  0  0  0  0  0  0
    2.9708    9.5912   -0.9887 H   0  0  0  0  0  0  0  0  0  0  0  0
    4.0383    8.5982    0.0310 H   0  0  0  0  0  0  0  0  0  0  0  0
    4.1676    8.5326   -1.7384 H   0  0  0  0  0  0  0  0  0  0  0  0
    3.5967    5.1325   -1.5779 H   0  0  0  0  0  0  0  0  0  0  0  0
    3.0203    5.0606   -3.2294 H   0  0  0  0  0  0  0  0  0  0  0  0
    4.2700    6.2612   -2.7998 H   0  0  0  0  0  0  0  0  0  0  0  0
  2  1  2  0  0  0  0
  3  1  1  0  0  0  0
  4  7  1  0  0  0  0
  5  3  2  0  0  0  0
  6  2  1  0  0  0  0
  6  8  2  0  0  0  0
  7  1  1  0  0  0  0
  7 24  1  0  0  0  0
  8  5  1  0  0  0  0
  9 13  1  0  0  0  0
  9 11  2  0  0  0  0
 10  4  2  0  0  0  0
 11 10  1  0  0  0  0
 12  4  1  0  0  0  0
 13 12  2  0  0  0  0
 14  9  1  0  0  0  0
 14 25  1  0  0  0  0
 15 11  1  0  0  0  0
 15 26  1  0  0  0  0
 16 14  2  0  0  0  0
 17 15  2  0  0  0  0
 17 16  1  0  0  0  0
 18  6  1  0  0  0  0
 18 27  1  0  0  0  0
 19  5  1  0  0  0  0
 19 28  1  0  0  0  0
 20  8  1  0  0  0  0
 20 29  1  0  0  0  0
 20 30  1  0  0  0  0
 20 31  1  0  0  0  0
 21 13  1  0  0  0  0
 21 32  1  0  0  0  0
 21 33  1  0  0  0  0
 21 34  1  0  0  0  0
 22 16  1  0  0  0  0
 22 35  1  0  0  0  0
 22 36  1  0  0  0  0
 22 37  1  0  0  0  0
 23 17  1  0  0  0  0
 23 38  1  0  0  0  0
 23 39  1  0  0  0  0
 23 40  1  0  0  0  0
M  END
>  <Mol_ID>
8578

>  <Formula>
C16H17N5O2

>  <MolWeight>
311.33848

>  <Cat>
P2263

>  <Name>
WAY-323402

>  <Synonyms>
N/A

>  <Target>
translation

>  <Form>
free base

>  <CAS>
854032-30-7

>  <URL>
N/A

$$$$
