WAY-639446
 OpenBabel08302521433D

 36 39  0  0  0  0  0  0  0  0999 V2000
    0.1260   -0.6880    0.0069 C   0  0  0  0  0  0  0  0  0  0  0  0
    0.1965    0.6887   -0.1109 C   0  0  0  0  0  0  0  0  0  0  0  0
   -0.9871   -1.4644    0.0530 N   0  0  0  0  0  0  0  0  0  0  0  0
   -1.0780    1.3833   -0.2589 C   0  0  0  0  0  0  0  0  0  0  0  0
   -2.1741    0.5571   -0.1765 N   0  0  0  0  0  0  0  0  0  0  0  0
   -2.1092   -0.8136   -0.0297 C   0  0  0  0  0  0  0  0  0  0  0  0
    1.5656    1.1834   -0.0541 C   0  0  0  0  0  0  0  0  0  0  0  0
    1.6579   -1.4016    0.0983 S   0  0  0  0  0  0  0  0  0  0  0  0
    2.4609    0.1167    0.0568 C   0  0  0  0  0  0  0  0  0  0  0  0
   -3.4309   -1.4961    0.0364 C   0  0  0  0  0  0  0  0  0  0  0  0
   -1.2146    2.5837   -0.4489 O   0  0  0  0  0  0  0  0  0  0  0  0
    2.0040    2.5925   -0.0734 C   0  0  0  0  0  0  0  0  0  0  0  0
   -4.5136   -0.6846   -0.1112 N   0  0  0  0  0  0  0  0  0  0  0  0
    3.9557    0.0582    0.1461 C   0  0  0  0  0  0  0  0  0  0  0  0
   -5.7221   -1.2839   -0.0309 C   0  0  0  0  0  0  0  0  0  0  0  0
   -3.5085   -2.8652    0.2602 C   0  0  0  0  0  0  0  0  0  0  0  0
    1.3026    3.5656    0.6542 C   0  0  0  0  0  0  0  0  0  0  0  0
    3.1180    3.0116   -0.8158 C   0  0  0  0  0  0  0  0  0  0  0  0
   -5.8981   -2.6398    0.1941 C   0  0  0  0  0  0  0  0  0  0  0  0
    3.5319    4.3493   -0.8067 C   0  0  0  0  0  0  0  0  0  0  0  0
    1.6752    4.9134    0.6122 C   0  0  0  0  0  0  0  0  0  0  0  0
   -4.7701   -3.4424    0.3423 C   0  0  0  0  0  0  0  0  0  0  0  0
    2.7993    5.3032   -0.1069 C   0  0  0  0  0  0  0  0  0  0  0  0
   -3.0890    0.9860   -0.2596 H   0  0  0  0  0  0  0  0  0  0  0  0
    4.2730   -0.6182    0.9479 H   0  0  0  0  0  0  0  0  0  0  0  0
    4.3705   -0.3170   -0.7969 H   0  0  0  0  0  0  0  0  0  0  0  0
    4.4128    1.0256    0.3602 H   0  0  0  0  0  0  0  0  0  0  0  0
   -6.5761   -0.6235   -0.1534 H   0  0  0  0  0  0  0  0  0  0  0  0
   -2.6122   -3.4658    0.3770 H   0  0  0  0  0  0  0  0  0  0  0  0
    0.4335    3.2982    1.2499 H   0  0  0  0  0  0  0  0  0  0  0  0
    3.6862    2.3058   -1.4147 H   0  0  0  0  0  0  0  0  0  0  0  0
   -6.8944   -3.0643    0.2532 H   0  0  0  0  0  0  0  0  0  0  0  0
    4.4191    4.6465   -1.3599 H   0  0  0  0  0  0  0  0  0  0  0  0
    1.0788    5.6542    1.1384 H   0  0  0  0  0  0  0  0  0  0  0  0
   -4.8729   -4.5080    0.5235 H   0  0  0  0  0  0  0  0  0  0  0  0
    3.0979    6.3480   -0.1280 H   0  0  0  0  0  0  0  0  0  0  0  0
  2  1  2  0  0  0  0
  3  1  1  0  0  0  0
  4  2  1  0  0  0  0
  5  6  1  0  0  0  0
  5  4  1  0  0  0  0
  5 24  1  0  0  0  0
  6  3  2  0  0  0  0
  7  2  1  0  0  0  0
  7  9  2  0  0  0  0
  8  1  1  0  0  0  0
  9  8  1  0  0  0  0
 10  6  1  0  0  0  0
 11  4  2  0  0  0  0
 12  7  1  0  0  0  0
 13 10  2  0  0  0  0
 14  9  1  0  0  0  0
 14 25  1  0  0  0  0
 14 26  1  0  0  0  0
 14 27  1  0  0  0  0
 15 13  1  0  0  0  0
 15 28  1  0  0  0  0
 16 10  1  0  0  0  0
 16 29  1  0  0  0  0
 17 12  2  0  0  0  0
 17 30  1  0  0  0  0
 18 12  1  0  0  0  0
 18 31  1  0  0  0  0
 19 22  1  0  0  0  0
 19 15  2  0  0  0  0
 19 32  1  0  0  0  0
 20 18  2  0  0  0  0
 20 33  1  0  0  0  0
 21 17  1  0  0  0  0
 21 34  1  0  0  0  0
 22 16  2  0  0  0  0
 22 35  1  0  0  0  0
 23 20  1  0  0  0  0
 23 21  2  0  0  0  0
 23 36  1  0  0  0  0
M  END
>  <Mol_ID>
8813

>  <Formula>
C18H13N3OS

>  <MolWeight>
319.38032

>  <Cat>
P3078

>  <Name>
WAY-639446

>  <Synonyms>
N/A

>  <Target>
antiinflammatory

>  <Form>
free base

>  <CAS>
724746-07-0

>  <URL>
N/A

$$$$
