WAY-312029
 OpenBabel08302521403D

 47 49  0  0  0  0  0  0  0  0999 V2000
    1.3607   -0.0323    0.1103 N   0  0  0  0  0  0  0  0  0  0  0  0
    3.0415   -0.0516   -0.2609 S   0  0  0  0  0  0  0  0  0  0  0  0
    0.6590    1.2148   -0.3081 C   0  0  0  0  0  0  0  0  0  0  0  0
    0.6491   -1.2518   -0.3674 C   0  0  0  0  0  0  0  0  0  0  0  0
    3.7201    1.0792    0.9279 C   0  0  0  0  0  0  0  0  0  0  0  0
    3.5669   -1.3601    0.0696 O   0  0  0  0  0  0  0  0  0  0  0  0
    3.1967    0.5117   -1.5837 O   0  0  0  0  0  0  0  0  0  0  0  0
   -0.7394    1.2362    0.2985 C   0  0  0  0  0  0  0  0  0  0  0  0
   -0.7528   -1.2888    0.2308 C   0  0  0  0  0  0  0  0  0  0  0  0
    3.5307    0.8183    2.2892 C   0  0  0  0  0  0  0  0  0  0  0  0
    4.4712    2.1796    0.5079 C   0  0  0  0  0  0  0  0  0  0  0  0
   -1.5329   -0.0135   -0.0967 C   0  0  0  0  0  0  0  0  0  0  0  0
    4.0862    1.6768    3.2376 C   0  0  0  0  0  0  0  0  0  0  0  0
    5.0311    3.0289    1.4640 C   0  0  0  0  0  0  0  0  0  0  0  0
   -2.9044   -0.0193    0.5634 C   0  0  0  0  0  0  0  0  0  0  0  0
    4.8351    2.7800    2.8245 C   0  0  0  0  0  0  0  0  0  0  0  0
   -2.8942   -0.0651    1.9352 N   0  0  0  0  0  0  0  0  0  0  0  0
   -3.9333    0.0229   -0.1053 O   0  0  0  0  0  0  0  0  0  0  0  0
   -4.1045   -0.0524    2.7241 C   0  0  0  0  0  0  0  0  0  0  0  0
   -4.2018   -1.2722    3.6034 C   0  0  0  0  0  0  0  0  0  0  0  0
   -4.2404   -1.1481    4.9993 C   0  0  0  0  0  0  0  0  0  0  0  0
   -4.3068   -2.5503    3.0340 C   0  0  0  0  0  0  0  0  0  0  0  0
   -4.3994   -2.2760    5.8068 C   0  0  0  0  0  0  0  0  0  0  0  0
   -4.4639   -3.6769    3.8431 C   0  0  0  0  0  0  0  0  0  0  0  0
   -4.5163   -3.5386    5.2286 C   0  0  0  0  0  0  0  0  0  0  0  0
    0.5952    1.2660   -1.4014 H   0  0  0  0  0  0  0  0  0  0  0  0
    1.2039    2.0951    0.0476 H   0  0  0  0  0  0  0  0  0  0  0  0
    1.1761   -2.1497   -0.0278 H   0  0  0  0  0  0  0  0  0  0  0  0
    0.6077   -1.2658   -1.4621 H   0  0  0  0  0  0  0  0  0  0  0  0
   -1.2743    2.1348   -0.0327 H   0  0  0  0  0  0  0  0  0  0  0  0
   -0.6531    1.3105    1.3893 H   0  0  0  0  0  0  0  0  0  0  0  0
   -0.6697   -1.4222    1.3165 H   0  0  0  0  0  0  0  0  0  0  0  0
   -1.2941   -2.1650   -0.1465 H   0  0  0  0  0  0  0  0  0  0  0  0
    2.9686   -0.0561    2.6095 H   0  0  0  0  0  0  0  0  0  0  0  0
    4.6402    2.3708   -0.5491 H   0  0  0  0  0  0  0  0  0  0  0  0
   -1.7027    0.0152   -1.1824 H   0  0  0  0  0  0  0  0  0  0  0  0
    3.9480    1.4798    4.2979 H   0  0  0  0  0  0  0  0  0  0  0  0
    5.6315    3.8800    1.1507 H   0  0  0  0  0  0  0  0  0  0  0  0
    5.2775    3.4421    3.5656 H   0  0  0  0  0  0  0  0  0  0  0  0
   -2.0192   -0.1193    2.4370 H   0  0  0  0  0  0  0  0  0  0  0  0
   -4.0619    0.8574    3.3336 H   0  0  0  0  0  0  0  0  0  0  0  0
   -4.9954    0.0172    2.0921 H   0  0  0  0  0  0  0  0  0  0  0  0
   -4.1645   -0.1701    5.4693 H   0  0  0  0  0  0  0  0  0  0  0  0
   -4.2841   -2.6689    1.9520 H   0  0  0  0  0  0  0  0  0  0  0  0
   -4.4451   -2.1684    6.8876 H   0  0  0  0  0  0  0  0  0  0  0  0
   -4.5593   -4.6608    3.3910 H   0  0  0  0  0  0  0  0  0  0  0  0
   -4.6557   -4.4141    5.8575 H   0  0  0  0  0  0  0  0  0  0  0  0
  1  2  1  0  0  0  0
  1  3  1  0  0  0  0
  1  4  1  0  0  0  0
  2  5  1  0  0  0  0
  2  6  2  0  0  0  0
  2  7  2  0  0  0  0
  3  8  1  0  0  0  0
  3 26  1  0  0  0  0
  3 27  1  0  0  0  0
  4  9  1  0  0  0  0
  4 28  1  0  0  0  0
  4 29  1  0  0  0  0
  5 10  2  0  0  0  0
  5 11  1  0  0  0  0
  8 12  1  0  0  0  0
  8 30  1  0  0  0  0
  8 31  1  0  0  0  0
  9 12  1  0  0  0  0
  9 32  1  0  0  0  0
  9 33  1  0  0  0  0
 10 13  1  0  0  0  0
 10 34  1  0  0  0  0
 11 14  2  0  0  0  0
 11 35  1  0  0  0  0
 12 15  1  0  0  0  0
 12 36  1  0  0  0  0
 13 16  2  0  0  0  0
 13 37  1  0  0  0  0
 14 16  1  0  0  0  0
 14 38  1  0  0  0  0
 15 17  1  0  0  0  0
 15 18  2  0  0  0  0
 16 39  1  0  0  0  0
 17 19  1  0  0  0  0
 17 40  1  0  0  0  0
 19 20  1  0  0  0  0
 19 41  1  0  0  0  0
 19 42  1  0  0  0  0
 20 21  2  0  0  0  0
 20 22  1  0  0  0  0
 21 23  1  0  0  0  0
 21 43  1  0  0  0  0
 22 24  2  0  0  0  0
 22 44  1  0  0  0  0
 23 25  2  0  0  0  0
 23 45  1  0  0  0  0
 24 25  1  0  0  0  0
 24 46  1  0  0  0  0
 25 47  1  0  0  0  0
M  END
>  <Mol_ID>
8277

>  <Formula>
C19H21ClN2O3S

>  <MolWeight>
392.89964

>  <Cat>
P2222

>  <Name>
WAY-312029

>  <Synonyms>
N/A

>  <Target>
others

>  <Form>
free base

>  <CAS>
508187-76-6

>  <URL>
N/A

$$$$
