WAY-331970
 OpenBabel08302521443D

 44 46  0  0  0  0  0  0  0  0999 V2000
   -0.1027   -0.6733   -0.1999 C   0  0  0  0  0  0  0  0  0  0  0  0
    0.2744    0.5737   -0.0154 N   0  0  0  0  0  0  0  0  0  0  0  0
   -0.7505    1.3364   -0.5374 C   0  0  0  0  0  0  0  0  0  0  0  0
   -1.3140   -0.7979   -0.8209 O   0  0  0  0  0  0  0  0  0  0  0  0
    0.6133   -1.9024    0.1120 C   0  0  0  0  0  0  0  0  0  0  0  0
   -1.7199    0.4905   -1.0483 C   0  0  0  0  0  0  0  0  0  0  0  0
    1.9160    3.4454   -2.4472 C   0  0  0  0  0  0  0  0  0  0  0  0
    1.9996   -1.8524    0.3213 C   0  0  0  0  0  0  0  0  0  0  0  0
    2.7487    4.0274   -3.3914 N   0  0  0  0  0  0  0  0  0  0  0  0
    6.4269    2.0036   -4.6834 N   0  0  0  0  0  0  0  0  0  0  0  0
    2.2926    3.2206   -1.3008 O   0  0  0  0  0  0  0  0  0  0  0  0
   -0.8317    3.7590   -1.9655 S   0  0  0  0  0  0  0  0  0  0  0  0
    5.1268    3.9266   -3.9683 C   0  0  0  0  0  0  0  0  0  0  0  0
   -0.6749    2.8184   -0.4124 C   0  0  0  0  0  0  0  0  0  0  0  0
    4.0785    4.4908   -3.0528 C   0  0  0  0  0  0  0  0  0  0  0  0
   -0.0381   -3.1404    0.2036 C   0  0  0  0  0  0  0  0  0  0  0  0
    0.5296    3.0704   -2.9603 C   0  0  0  0  0  0  0  0  0  0  0  0
   -3.0119    0.6280   -1.7421 C   0  0  0  0  0  0  0  0  0  0  0  0
    5.4794    2.5818   -3.9050 C   0  0  0  0  0  0  0  0  0  0  0  0
    7.0672    2.8062   -5.5593 C   0  0  0  0  0  0  0  0  0  0  0  0
    2.7235   -3.0144    0.5912 C   0  0  0  0  0  0  0  0  0  0  0  0
    5.8186    4.7236   -4.8868 C   0  0  0  0  0  0  0  0  0  0  0  0
    0.6831   -4.3021    0.4792 C   0  0  0  0  0  0  0  0  0  0  0  0
    6.8040    4.1593   -5.6935 C   0  0  0  0  0  0  0  0  0  0  0  0
    2.0642   -4.2398    0.6697 C   0  0  0  0  0  0  0  0  0  0  0  0
    2.5228   -0.8985    0.2614 H   0  0  0  0  0  0  0  0  0  0  0  0
    2.3792    4.2748   -4.3007 H   0  0  0  0  0  0  0  0  0  0  0  0
   -1.4842    3.1493    0.2495 H   0  0  0  0  0  0  0  0  0  0  0  0
    0.2515    3.1102    0.0917 H   0  0  0  0  0  0  0  0  0  0  0  0
    4.0548    5.5838   -3.1329 H   0  0  0  0  0  0  0  0  0  0  0  0
    4.3333    4.2542   -2.0146 H   0  0  0  0  0  0  0  0  0  0  0  0
   -1.1148   -3.2073    0.0629 H   0  0  0  0  0  0  0  0  0  0  0  0
    0.4480    1.9842   -3.0418 H   0  0  0  0  0  0  0  0  0  0  0  0
    0.3934    3.4790   -3.9685 H   0  0  0  0  0  0  0  0  0  0  0  0
   -3.0054    0.0301   -2.6600 H   0  0  0  0  0  0  0  0  0  0  0  0
   -3.8277    0.2605   -1.1116 H   0  0  0  0  0  0  0  0  0  0  0  0
   -3.2270    1.6631   -2.0169 H   0  0  0  0  0  0  0  0  0  0  0  0
    4.9958    1.9067   -3.2041 H   0  0  0  0  0  0  0  0  0  0  0  0
    7.8301    2.3205   -6.1603 H   0  0  0  0  0  0  0  0  0  0  0  0
    3.7991   -2.9604    0.7355 H   0  0  0  0  0  0  0  0  0  0  0  0
    5.6080    5.7857   -4.9708 H   0  0  0  0  0  0  0  0  0  0  0  0
    0.1707   -5.2584    0.5510 H   0  0  0  0  0  0  0  0  0  0  0  0
    7.3600    4.7622   -6.4048 H   0  0  0  0  0  0  0  0  0  0  0  0
    2.6274   -5.1452    0.8769 H   0  0  0  0  0  0  0  0  0  0  0  0
  2  1  2  0  0  0  0
  3  2  1  0  0  0  0
  4  1  1  0  0  0  0
  5  1  1  0  0  0  0
  6  4  1  0  0  0  0
  6  3  2  0  0  0  0
  7 17  1  0  0  0  0
  8  5  2  0  0  0  0
  8 26  1  0  0  0  0
  9  7  1  0  0  0  0
  9 27  1  0  0  0  0
 10 19  2  0  0  0  0
 11  7  2  0  0  0  0
 12 14  1  0  0  0  0
 13 15  1  0  0  0  0
 14  3  1  0  0  0  0
 14 28  1  0  0  0  0
 14 29  1  0  0  0  0
 15  9  1  0  0  0  0
 15 30  1  0  0  0  0
 15 31  1  0  0  0  0
 16  5  1  0  0  0  0
 16 32  1  0  0  0  0
 17 12  1  0  0  0  0
 17 33  1  0  0  0  0
 17 34  1  0  0  0  0
 18  6  1  0  0  0  0
 18 35  1  0  0  0  0
 18 36  1  0  0  0  0
 18 37  1  0  0  0  0
 19 13  1  0  0  0  0
 19 38  1  0  0  0  0
 20 24  2  0  0  0  0
 20 10  1  0  0  0  0
 20 39  1  0  0  0  0
 21  8  1  0  0  0  0
 21 40  1  0  0  0  0
 22 13  2  0  0  0  0
 22 41  1  0  0  0  0
 23 16  2  0  0  0  0
 23 42  1  0  0  0  0
 24 22  1  0  0  0  0
 24 43  1  0  0  0  0
 25 23  1  0  0  0  0
 25 21  2  0  0  0  0
 25 44  1  0  0  0  0
M  END
>  <Mol_ID>
9260

>  <Formula>
C19H18ClN3O2S

>  <MolWeight>
387.88312

>  <Cat>
P2632

>  <Name>
WAY-331970

>  <Synonyms>
N/A

>  <Target>
beta-catenin

>  <Form>
free base

>  <CAS>
901750-87-6

>  <URL>
N/A

$$$$
