WAY-310364
 OpenBabel08302521403D

 53 55  0  0  0  0  0  0  0  0999 V2000
    1.3646   -0.0149    0.1030 N   0  0  0  0  0  0  0  0  0  0  0  0
    3.0476   -0.0339   -0.2573 S   0  0  0  0  0  0  0  0  0  0  0  0
    0.6754    1.2311   -0.3336 C   0  0  0  0  0  0  0  0  0  0  0  0
    0.6507   -1.2450   -0.3521 C   0  0  0  0  0  0  0  0  0  0  0  0
    3.7263    1.0957    0.9323 C   0  0  0  0  0  0  0  0  0  0  0  0
    3.5670   -1.3401    0.0807 O   0  0  0  0  0  0  0  0  0  0  0  0
    3.2118    0.5238   -1.5815 O   0  0  0  0  0  0  0  0  0  0  0  0
   -0.7182    1.2692    0.2685 C   0  0  0  0  0  0  0  0  0  0  0  0
   -0.7604   -1.2616    0.2277 C   0  0  0  0  0  0  0  0  0  0  0  0
    3.5292    0.8390    2.2939 C   0  0  0  0  0  0  0  0  0  0  0  0
    4.4836    2.1907    0.5153 C   0  0  0  0  0  0  0  0  0  0  0  0
   -1.5129    0.0209   -0.1139 C   0  0  0  0  0  0  0  0  0  0  0  0
    4.0701    1.7077    3.2439 C   0  0  0  0  0  0  0  0  0  0  0  0
    5.0434    3.0430    1.4739 C   0  0  0  0  0  0  0  0  0  0  0  0
   -2.8777    0.0508    0.5507 C   0  0  0  0  0  0  0  0  0  0  0  0
    4.8275    2.8075    2.8336 C   0  0  0  0  0  0  0  0  0  0  0  0
   -2.8434    0.0556    1.9340 N   0  0  0  0  0  0  0  0  0  0  0  0
   -3.8808    0.1123   -0.1600 O   0  0  0  0  0  0  0  0  0  0  0  0
   -3.9759    0.1129    2.7693 C   0  0  0  0  0  0  0  0  0  0  0  0
   -5.2507   -0.2025    2.3119 C   0  0  0  0  0  0  0  0  0  0  0  0
   -3.8069    0.5182    4.0974 C   0  0  0  0  0  0  0  0  0  0  0  0
   -6.3607   -0.0530    3.1397 C   0  0  0  0  0  0  0  0  0  0  0  0
   -4.9235    0.6756    4.9277 C   0  0  0  0  0  0  0  0  0  0  0  0
   -6.2143    0.4105    4.4484 C   0  0  0  0  0  0  0  0  0  0  0  0
   -7.4555    0.6471    5.2851 C   0  0  0  0  0  0  0  0  0  0  0  0
   -7.4711   -0.2242    6.5399 C   0  0  0  0  0  0  0  0  0  0  0  0
   -7.6039    2.1297    5.6330 C   0  0  0  0  0  0  0  0  0  0  0  0
    0.6123    1.2771   -1.4268 H   0  0  0  0  0  0  0  0  0  0  0  0
    1.2203    2.1103    0.0235 H   0  0  0  0  0  0  0  0  0  0  0  0
    1.1672   -2.1353    0.0217 H   0  0  0  0  0  0  0  0  0  0  0  0
    0.6236   -1.2931   -1.4464 H   0  0  0  0  0  0  0  0  0  0  0  0
   -1.2535    2.1662   -0.0695 H   0  0  0  0  0  0  0  0  0  0  0  0
   -0.6266    1.3576    1.3564 H   0  0  0  0  0  0  0  0  0  0  0  0
   -0.6957   -1.3903    1.3154 H   0  0  0  0  0  0  0  0  0  0  0  0
   -1.3091   -2.1324   -0.1520 H   0  0  0  0  0  0  0  0  0  0  0  0
    2.9757   -0.0381    2.6153 H   0  0  0  0  0  0  0  0  0  0  0  0
    4.6639    2.3802   -0.5395 H   0  0  0  0  0  0  0  0  0  0  0  0
   -1.6878    0.0370   -1.1982 H   0  0  0  0  0  0  0  0  0  0  0  0
    3.9155    1.5228    4.3024 H   0  0  0  0  0  0  0  0  0  0  0  0
    5.6583    3.8848    1.1623 H   0  0  0  0  0  0  0  0  0  0  0  0
    5.2627    3.4736    3.5755 H   0  0  0  0  0  0  0  0  0  0  0  0
   -1.9508    0.1774    2.3921 H   0  0  0  0  0  0  0  0  0  0  0  0
   -5.4207   -0.5711    1.3058 H   0  0  0  0  0  0  0  0  0  0  0  0
   -2.8236    0.7653    4.4919 H   0  0  0  0  0  0  0  0  0  0  0  0
   -7.3404   -0.2836    2.7314 H   0  0  0  0  0  0  0  0  0  0  0  0
   -4.7757    1.0355    5.9442 H   0  0  0  0  0  0  0  0  0  0  0  0
   -8.3361    0.3681    4.6919 H   0  0  0  0  0  0  0  0  0  0  0  0
   -6.6363    0.0061    7.2105 H   0  0  0  0  0  0  0  0  0  0  0  0
   -8.4013   -0.0732    7.0989 H   0  0  0  0  0  0  0  0  0  0  0  0
   -7.4070   -1.2859    6.2773 H   0  0  0  0  0  0  0  0  0  0  0  0
   -7.6284    2.7417    4.7242 H   0  0  0  0  0  0  0  0  0  0  0  0
   -8.5355    2.3059    6.1808 H   0  0  0  0  0  0  0  0  0  0  0  0
   -6.7763    2.4891    6.2536 H   0  0  0  0  0  0  0  0  0  0  0  0
  1  2  1  0  0  0  0
  1  3  1  0  0  0  0
  1  4  1  0  0  0  0
  2  5  1  0  0  0  0
  2  6  2  0  0  0  0
  2  7  2  0  0  0  0
  3  8  1  0  0  0  0
  3 28  1  0  0  0  0
  3 29  1  0  0  0  0
  4  9  1  0  0  0  0
  4 30  1  0  0  0  0
  4 31  1  0  0  0  0
  5 10  2  0  0  0  0
  5 11  1  0  0  0  0
  8 12  1  0  0  0  0
  8 32  1  0  0  0  0
  8 33  1  0  0  0  0
  9 12  1  0  0  0  0
  9 34  1  0  0  0  0
  9 35  1  0  0  0  0
 10 13  1  0  0  0  0
 10 36  1  0  0  0  0
 11 14  2  0  0  0  0
 11 37  1  0  0  0  0
 12 15  1  0  0  0  0
 12 38  1  0  0  0  0
 13 16  2  0  0  0  0
 13 39  1  0  0  0  0
 14 16  1  0  0  0  0
 14 40  1  0  0  0  0
 15 17  1  0  0  0  0
 15 18  2  0  0  0  0
 16 41  1  0  0  0  0
 17 19  1  0  0  0  0
 17 42  1  0  0  0  0
 19 20  2  0  0  0  0
 19 21  1  0  0  0  0
 20 22  1  0  0  0  0
 20 43  1  0  0  0  0
 21 23  2  0  0  0  0
 21 44  1  0  0  0  0
 22 24  2  0  0  0  0
 22 45  1  0  0  0  0
 23 24  1  0  0  0  0
 23 46  1  0  0  0  0
 24 25  1  0  0  0  0
 25 26  1  0  0  0  0
 25 27  1  0  0  0  0
 25 47  1  0  0  0  0
 26 48  1  0  0  0  0
 26 49  1  0  0  0  0
 26 50  1  0  0  0  0
 27 51  1  0  0  0  0
 27 52  1  0  0  0  0
 27 53  1  0  0  0  0
M  END
>  <Mol_ID>
8302

>  <Formula>
C21H26N2O3S

>  <MolWeight>
386.50774

>  <Cat>
P2180

>  <Name>
WAY-310364

>  <Synonyms>
N/A

>  <Target>
hormone sensitive lipase

>  <Form>
free base

>  <CAS>
591238-28-7

>  <URL>
N/A

$$$$
