WAY-607365
 OpenBabel08302521433D

 40 42  0  0  0  0  0  0  0  0999 V2000
   -0.1390   -1.1280    0.0882 N   0  0  0  0  0  0  0  0  0  0  0  0
    1.0863   -0.4827   -0.0246 C   0  0  0  0  0  0  0  0  0  0  0  0
    0.8459    0.8207   -0.0716 N   0  0  0  0  0  0  0  0  0  0  0  0
   -1.0923   -0.1384    0.0227 C   0  0  0  0  0  0  0  0  0  0  0  0
   -0.5129    1.0328   -0.0588 N   0  0  0  0  0  0  0  0  0  0  0  0
   -2.7957   -0.4390    0.0645 S   0  0  0  0  0  0  0  0  0  0  0  0
   -5.0324    1.1788   -0.1470 C   0  0  0  0  0  0  0  0  0  0  0  0
    2.4346   -1.0842   -0.0362 C   0  0  0  0  0  0  0  0  0  0  0  0
   -5.8069    2.4615   -0.0531 C   0  0  0  0  0  0  0  0  0  0  0  0
   -3.5038    1.2338   -0.1180 C   0  0  0  0  0  0  0  0  0  0  0  0
   -5.6750    0.1334   -0.2427 O   0  0  0  0  0  0  0  0  0  0  0  0
   -0.3679   -2.5218    0.4177 C   0  0  0  0  0  0  0  0  0  0  0  0
   -5.1993    3.7219   -0.1282 C   0  0  0  0  0  0  0  0  0  0  0  0
   -7.2014    2.3862    0.1303 C   0  0  0  0  0  0  0  0  0  0  0  0
   -7.3442    4.7844    0.2249 C   0  0  0  0  0  0  0  0  0  0  0  0
   -7.9686    3.5462    0.2734 C   0  0  0  0  0  0  0  0  0  0  0  0
   -5.9722    4.8824    0.0162 C   0  0  0  0  0  0  0  0  0  0  0  0
   -8.0699    5.8998    0.3832 F   0  0  0  0  0  0  0  0  0  0  0  0
    2.7116   -2.3257   -0.6252 C   0  0  0  0  0  0  0  0  0  0  0  0
    3.5132   -0.3804    0.5217 C   0  0  0  0  0  0  0  0  0  0  0  0
   -0.6863   -3.4117   -0.7764 C   0  0  0  0  0  0  0  0  0  0  0  0
    4.8072   -0.9248    0.5307 C   0  0  0  0  0  0  0  0  0  0  0  0
    3.9978   -2.8796   -0.6022 C   0  0  0  0  0  0  0  0  0  0  0  0
    5.0449   -2.1807   -0.0213 C   0  0  0  0  0  0  0  0  0  0  0  0
   -3.1826    1.8398    0.7343 H   0  0  0  0  0  0  0  0  0  0  0  0
   -3.1544    1.6754   -1.0560 H   0  0  0  0  0  0  0  0  0  0  0  0
    0.5143   -2.8923    0.9494 H   0  0  0  0  0  0  0  0  0  0  0  0
   -1.1866   -2.5719    1.1433 H   0  0  0  0  0  0  0  0  0  0  0  0
   -4.1324    3.8355   -0.2971 H   0  0  0  0  0  0  0  0  0  0  0  0
   -7.6999    1.4186    0.1717 H   0  0  0  0  0  0  0  0  0  0  0  0
   -9.0417    3.4862    0.4283 H   0  0  0  0  0  0  0  0  0  0  0  0
   -5.5114    5.8648   -0.0309 H   0  0  0  0  0  0  0  0  0  0  0  0
    1.9472   -2.8866   -1.1403 H   0  0  0  0  0  0  0  0  0  0  0  0
    3.3566    0.6062    0.9533 H   0  0  0  0  0  0  0  0  0  0  0  0
   -1.6867   -3.2112   -1.1699 H   0  0  0  0  0  0  0  0  0  0  0  0
    0.0094   -3.2755   -1.6073 H   0  0  0  0  0  0  0  0  0  0  0  0
   -0.6475   -4.4638   -0.4733 H   0  0  0  0  0  0  0  0  0  0  0  0
    5.6289   -0.3614    0.9638 H   0  0  0  0  0  0  0  0  0  0  0  0
    4.1716   -3.8544   -1.0549 H   0  0  0  0  0  0  0  0  0  0  0  0
    6.0437   -2.6079   -0.0086 H   0  0  0  0  0  0  0  0  0  0  0  0
  2  1  1  0  0  0  0
  3  2  2  0  0  0  0
  3  5  1  0  0  0  0
  4  1  1  0  0  0  0
  5  4  2  0  0  0  0
  6  4  1  0  0  0  0
  7 10  1  0  0  0  0
  8  2  1  0  0  0  0
  9  7  1  0  0  0  0
 10  6  1  0  0  0  0
 10 25  1  0  0  0  0
 10 26  1  0  0  0  0
 11  7  2  0  0  0  0
 12  1  1  0  0  0  0
 12 27  1  0  0  0  0
 12 28  1  0  0  0  0
 13  9  2  0  0  0  0
 13 29  1  0  0  0  0
 14  9  1  0  0  0  0
 14 30  1  0  0  0  0
 15 16  1  0  0  0  0
 15 17  2  0  0  0  0
 16 14  2  0  0  0  0
 16 31  1  0  0  0  0
 17 13  1  0  0  0  0
 17 32  1  0  0  0  0
 18 15  1  0  0  0  0
 19  8  2  0  0  0  0
 19 33  1  0  0  0  0
 20  8  1  0  0  0  0
 20 34  1  0  0  0  0
 21 12  1  0  0  0  0
 21 35  1  0  0  0  0
 21 36  1  0  0  0  0
 21 37  1  0  0  0  0
 22 20  2  0  0  0  0
 22 38  1  0  0  0  0
 23 19  1  0  0  0  0
 23 39  1  0  0  0  0
 24 22  1  0  0  0  0
 24 23  2  0  0  0  0
 24 40  1  0  0  0  0
M  END
>  <Mol_ID>
8741

>  <Formula>
C18H16FN3OS

>  <MolWeight>
341.4025432

>  <Cat>
P2888

>  <Name>
WAY-607365

>  <Synonyms>
N/A

>  <Target>
Others

>  <Form>
free base

>  <CAS>
681226-33-5

>  <URL>
N/A

$$$$
