WAY-608106-A
 OpenBabel08302521443D

 53 55  0  0  0  0  0  0  0  0999 V2000
   -1.3609    0.0923    0.6742 N   0  0  0  0  0  0  0  0  0  0  0  0
    1.4683   -0.1125   -0.4823 N   0  0  0  0  0  0  0  0  0  0  0  0
   -2.2444    1.4976    2.5959 C   0  0  0  0  0  0  0  0  0  0  0  0
   -3.1698    1.2952    3.6027 N   0  0  0  0  0  0  0  0  0  0  0  0
    2.1858    0.8942   -2.6049 C   0  0  0  0  0  0  0  0  0  0  0  0
   -1.4388    0.2448    2.1503 C   0  0  0  0  0  0  0  0  0  0  0  0
    1.6966    1.7850   -3.4862 C   0  0  0  0  0  0  0  0  0  0  0  0
   -2.0724    2.6220    2.1307 O   0  0  0  0  0  0  0  0  0  0  0  0
   -0.7459   -1.1953    0.2701 C   0  0  0  0  0  0  0  0  0  0  0  0
   -0.6542    1.1910   -0.0192 C   0  0  0  0  0  0  0  0  0  0  0  0
    0.8852    1.1355    0.0534 C   0  0  0  0  0  0  0  0  0  0  0  0
    0.8079   -1.2491    0.1879 C   0  0  0  0  0  0  0  0  0  0  0  0
   -4.1260    2.3272    3.9583 C   0  0  0  0  0  0  0  0  0  0  0  0
    1.3812   -0.2008   -1.9526 C   0  0  0  0  0  0  0  0  0  0  0  0
    2.4340    2.9723   -3.9516 C   0  0  0  0  0  0  0  0  0  0  0  0
   -3.8519    3.0182    5.2720 C   0  0  0  0  0  0  0  0  0  0  0  0
    2.2080    3.4764   -5.2394 C   0  0  0  0  0  0  0  0  0  0  0  0
    3.2735    3.6934   -3.0888 C   0  0  0  0  0  0  0  0  0  0  0  0
   -2.6363    3.6792    5.5047 C   0  0  0  0  0  0  0  0  0  0  0  0
   -4.8646    3.1199    6.2408 C   0  0  0  0  0  0  0  0  0  0  0  0
    3.8778    4.8801   -3.5059 C   0  0  0  0  0  0  0  0  0  0  0  0
   -2.4374    4.4132    6.6764 C   0  0  0  0  0  0  0  0  0  0  0  0
   -4.6667    3.8582    7.4107 C   0  0  0  0  0  0  0  0  0  0  0  0
    2.8139    4.6670   -5.6564 C   0  0  0  0  0  0  0  0  0  0  0  0
    3.6467    5.3694   -4.7865 C   0  0  0  0  0  0  0  0  0  0  0  0
   -3.4545    4.5075    7.6289 C   0  0  0  0  0  0  0  0  0  0  0  0
   -3.2258    0.4082    4.0817 H   0  0  0  0  0  0  0  0  0  0  0  0
    3.2165    0.9707   -2.2658 H   0  0  0  0  0  0  0  0  0  0  0  0
   -1.9713   -0.6310    2.5476 H   0  0  0  0  0  0  0  0  0  0  0  0
   -0.4539    0.2762    2.6245 H   0  0  0  0  0  0  0  0  0  0  0  0
    0.6732    1.6992   -3.8433 H   0  0  0  0  0  0  0  0  0  0  0  0
   -1.0925   -2.0076    0.9216 H   0  0  0  0  0  0  0  0  0  0  0  0
   -1.1389   -1.4391   -0.7253 H   0  0  0  0  0  0  0  0  0  0  0  0
   -0.9641    1.1622   -1.0711 H   0  0  0  0  0  0  0  0  0  0  0  0
   -0.9730    2.1784    0.3095 H   0  0  0  0  0  0  0  0  0  0  0  0
    1.2047    1.2384    1.0985 H   0  0  0  0  0  0  0  0  0  0  0  0
    1.3029    2.0147   -0.4500 H   0  0  0  0  0  0  0  0  0  0  0  0
    1.2027   -1.2965    1.2109 H   0  0  0  0  0  0  0  0  0  0  0  0
    1.1142   -2.1921   -0.2832 H   0  0  0  0  0  0  0  0  0  0  0  0
   -4.1871    3.0892    3.1701 H   0  0  0  0  0  0  0  0  0  0  0  0
   -5.1043    1.8323    3.9916 H   0  0  0  0  0  0  0  0  0  0  0  0
    1.8204   -1.1520   -2.2801 H   0  0  0  0  0  0  0  0  0  0  0  0
    0.3447   -0.1944   -2.3080 H   0  0  0  0  0  0  0  0  0  0  0  0
    1.5504    2.9532   -5.9291 H   0  0  0  0  0  0  0  0  0  0  0  0
    3.4417    3.3556   -2.0681 H   0  0  0  0  0  0  0  0  0  0  0  0
   -1.8480    3.6516    4.7539 H   0  0  0  0  0  0  0  0  0  0  0  0
   -5.8309    2.6477    6.0781 H   0  0  0  0  0  0  0  0  0  0  0  0
    4.5145    5.4314   -2.8177 H   0  0  0  0  0  0  0  0  0  0  0  0
   -1.4985    4.9368    6.8397 H   0  0  0  0  0  0  0  0  0  0  0  0
   -5.4665    3.9420    8.1422 H   0  0  0  0  0  0  0  0  0  0  0  0
    2.6262    5.0525   -6.6553 H   0  0  0  0  0  0  0  0  0  0  0  0
    4.1043    6.3031   -5.1032 H   0  0  0  0  0  0  0  0  0  0  0  0
   -3.3067    5.0966    8.5305 H   0  0  0  0  0  0  0  0  0  0  0  0
  2 11  1  0  0  0  0
  2 12  1  0  0  0  0
  3  6  1  0  0  0  0
  4  3  1  0  0  0  0
  4 27  1  0  0  0  0
  5 14  1  0  0  0  0
  5 28  1  0  0  0  0
  6  1  1  0  0  0  0
  6 29  1  0  0  0  0
  6 30  1  0  0  0  0
  7  5  2  0  0  0  0
  7 31  1  0  0  0  0
  8  3  2  0  0  0  0
  9  1  1  0  0  0  0
  9 32  1  0  0  0  0
  9 33  1  0  0  0  0
 10  1  1  0  0  0  0
 10 34  1  0  0  0  0
 10 35  1  0  0  0  0
 11 10  1  0  0  0  0
 11 36  1  0  0  0  0
 11 37  1  0  0  0  0
 12  9  1  0  0  0  0
 12 38  1  0  0  0  0
 12 39  1  0  0  0  0
 13  4  1  0  0  0  0
 13 40  1  0  0  0  0
 13 41  1  0  0  0  0
 14  2  1  0  0  0  0
 14 42  1  0  0  0  0
 14 43  1  0  0  0  0
 15  7  1  0  0  0  0
 16 13  1  0  0  0  0
 17 15  2  0  0  0  0
 17 44  1  0  0  0  0
 18 15  1  0  0  0  0
 18 45  1  0  0  0  0
 19 16  2  0  0  0  0
 19 46  1  0  0  0  0
 20 16  1  0  0  0  0
 20 47  1  0  0  0  0
 21 18  2  0  0  0  0
 21 48  1  0  0  0  0
 22 19  1  0  0  0  0
 22 49  1  0  0  0  0
 23 20  2  0  0  0  0
 23 50  1  0  0  0  0
 24 17  1  0  0  0  0
 24 51  1  0  0  0  0
 25 21  1  0  0  0  0
 25 24  2  0  0  0  0
 25 52  1  0  0  0  0
 26 23  1  0  0  0  0
 26 22  2  0  0  0  0
 26 53  1  0  0  0  0
M  END
>  <Mol_ID>
9029

>  <Formula>
C22H27N3O

>  <MolWeight>
349.46928

>  <Cat>
P2909

>  <Name>
WAY-608106-A

>  <Synonyms>
N/A

>  <Target>
Others

>  <Form>
free base

>  <CAS>
685137-44-4

>  <URL>
N/A

$$$$
