WAY-327504
 OpenBabel08302521443D

 57 59  0  0  0  0  0  0  0  0999 V2000
    1.2043   -1.4455    0.0867 C   0  0  0  0  0  0  0  0  0  0  0  0
    2.2821    0.6942    0.3253 N   0  0  0  0  0  0  0  0  0  0  0  0
   -0.1042   -0.7482   -0.0027 C   0  0  0  0  0  0  0  0  0  0  0  0
   -0.1397    0.6529    0.0157 C   0  0  0  0  0  0  0  0  0  0  0  0
    2.2500   -0.6831    0.4348 C   0  0  0  0  0  0  0  0  0  0  0  0
    1.1311    1.4253    0.0332 C   0  0  0  0  0  0  0  0  0  0  0  0
    1.3914   -2.9446   -0.0008 C   0  0  0  0  0  0  0  0  0  0  0  0
    2.5577   -3.4882   -0.5622 N   0  0  0  0  0  0  0  0  0  0  0  0
   -1.3332   -1.4273   -0.0058 C   0  0  0  0  0  0  0  0  0  0  0  0
   -1.3578    1.3466    0.0413 C   0  0  0  0  0  0  0  0  0  0  0  0
   -2.5606   -0.7488    0.0930 C   0  0  0  0  0  0  0  0  0  0  0  0
   -2.5696    0.6526    0.1070 C   0  0  0  0  0  0  0  0  0  0  0  0
    5.1267   -4.8110   -1.2658 N   0  0  0  0  0  0  0  0  0  0  0  0
    3.5979    1.3342    0.2072 C   0  0  0  0  0  0  0  0  0  0  0  0
    1.1291    2.6276   -0.1902 O   0  0  0  0  0  0  0  0  0  0  0  0
    0.4971   -3.6841    0.4165 O   0  0  0  0  0  0  0  0  0  0  0  0
    3.7390   -2.7272   -1.0010 C   0  0  0  0  0  0  0  0  0  0  0  0
    2.7957   -4.9024   -0.2438 C   0  0  0  0  0  0  0  0  0  0  0  0
    3.8842   -5.5859   -1.0917 C   0  0  0  0  0  0  0  0  0  0  0  0
    4.7697   -3.5010   -1.8328 C   0  0  0  0  0  0  0  0  0  0  0  0
   -3.7532   -1.4253    0.1153 O   0  0  0  0  0  0  0  0  0  0  0  0
   -3.6651    1.4742    0.1501 O   0  0  0  0  0  0  0  0  0  0  0  0
    5.8702   -4.6879   -0.0121 C   0  0  0  0  0  0  0  0  0  0  0  0
    3.9506    2.3081    1.3372 C   0  0  0  0  0  0  0  0  0  0  0  0
   -3.7378   -2.6979    0.7614 C   0  0  0  0  0  0  0  0  0  0  0  0
   -4.7876    1.0027    0.8857 C   0  0  0  0  0  0  0  0  0  0  0  0
    3.9934    1.6119    2.6968 C   0  0  0  0  0  0  0  0  0  0  0  0
    5.3072    2.9609    1.0497 C   0  0  0  0  0  0  0  0  0  0  0  0
    3.1840   -1.1111    0.7575 H   0  0  0  0  0  0  0  0  0  0  0  0
   -1.3431   -2.5075   -0.0674 H   0  0  0  0  0  0  0  0  0  0  0  0
   -1.3621    2.4340    0.0517 H   0  0  0  0  0  0  0  0  0  0  0  0
    4.3777    0.5635    0.1265 H   0  0  0  0  0  0  0  0  0  0  0  0
    3.6068    1.8682   -0.7529 H   0  0  0  0  0  0  0  0  0  0  0  0
    3.4196   -1.8410   -1.5585 H   0  0  0  0  0  0  0  0  0  0  0  0
    4.2634   -2.4137   -0.0949 H   0  0  0  0  0  0  0  0  0  0  0  0
    3.0697   -4.9372    0.8180 H   0  0  0  0  0  0  0  0  0  0  0  0
    1.8618   -5.4674   -0.3492 H   0  0  0  0  0  0  0  0  0  0  0  0
    3.4721   -5.7825   -2.0902 H   0  0  0  0  0  0  0  0  0  0  0  0
    4.1133   -6.5710   -0.6674 H   0  0  0  0  0  0  0  0  0  0  0  0
    4.3768   -3.6467   -2.8463 H   0  0  0  0  0  0  0  0  0  0  0  0
    5.6700   -2.8834   -1.9479 H   0  0  0  0  0  0  0  0  0  0  0  0
    5.3018   -4.2134    0.7963 H   0  0  0  0  0  0  0  0  0  0  0  0
    6.1823   -5.6775    0.3428 H   0  0  0  0  0  0  0  0  0  0  0  0
    6.7854   -4.1045   -0.1607 H   0  0  0  0  0  0  0  0  0  0  0  0
    3.1932    3.0990    1.3784 H   0  0  0  0  0  0  0  0  0  0  0  0
   -3.2777   -3.4582    0.1226 H   0  0  0  0  0  0  0  0  0  0  0  0
   -3.2416   -2.6501    1.7377 H   0  0  0  0  0  0  0  0  0  0  0  0
   -4.7762   -2.9994    0.9302 H   0  0  0  0  0  0  0  0  0  0  0  0
   -5.3691    0.2844    0.3019 H   0  0  0  0  0  0  0  0  0  0  0  0
   -4.4941    0.5913    1.8578 H   0  0  0  0  0  0  0  0  0  0  0  0
   -5.4420    1.8599    1.0736 H   0  0  0  0  0  0  0  0  0  0  0  0
    4.8079    0.8805    2.7444 H   0  0  0  0  0  0  0  0  0  0  0  0
    4.1519    2.3458    3.4937 H   0  0  0  0  0  0  0  0  0  0  0  0
    3.0557    1.0905    2.9097 H   0  0  0  0  0  0  0  0  0  0  0  0
    6.1182    2.2230    1.0723 H   0  0  0  0  0  0  0  0  0  0  0  0
    5.3160    3.4359    0.0627 H   0  0  0  0  0  0  0  0  0  0  0  0
    5.5327    3.7305    1.7946 H   0  0  0  0  0  0  0  0  0  0  0  0
  2  5  1  0  0  0  0
  3  1  1  0  0  0  0
  4  3  2  0  0  0  0
  4  6  1  0  0  0  0
  5  1  2  0  0  0  0
  5 29  1  0  0  0  0
  6  2  1  0  0  0  0
  7  1  1  0  0  0  0
  8  7  1  0  0  0  0
  9  3  1  0  0  0  0
  9 30  1  0  0  0  0
 10  4  1  0  0  0  0
 10 12  2  0  0  0  0
 10 31  1  0  0  0  0
 11  9  2  0  0  0  0
 12 11  1  0  0  0  0
 13 19  1  0  0  0  0
 13 20  1  0  0  0  0
 14  2  1  0  0  0  0
 14 32  1  0  0  0  0
 14 33  1  0  0  0  0
 15  6  2  0  0  0  0
 16  7  2  0  0  0  0
 17  8  1  0  0  0  0
 17 34  1  0  0  0  0
 17 35  1  0  0  0  0
 18  8  1  0  0  0  0
 18 36  1  0  0  0  0
 18 37  1  0  0  0  0
 19 18  1  0  0  0  0
 19 38  1  0  0  0  0
 19 39  1  0  0  0  0
 20 17  1  0  0  0  0
 20 40  1  0  0  0  0
 20 41  1  0  0  0  0
 21 11  1  0  0  0  0
 22 12  1  0  0  0  0
 23 13  1  0  0  0  0
 23 42  1  0  0  0  0
 23 43  1  0  0  0  0
 23 44  1  0  0  0  0
 24 14  1  0  0  0  0
 24 45  1  0  0  0  0
 25 21  1  0  0  0  0
 25 46  1  0  0  0  0
 25 47  1  0  0  0  0
 25 48  1  0  0  0  0
 26 22  1  0  0  0  0
 26 49  1  0  0  0  0
 26 50  1  0  0  0  0
 26 51  1  0  0  0  0
 27 24  1  0  0  0  0
 27 52  1  0  0  0  0
 27 53  1  0  0  0  0
 27 54  1  0  0  0  0
 28 24  1  0  0  0  0
 28 55  1  0  0  0  0
 28 56  1  0  0  0  0
 28 57  1  0  0  0  0
M  END
>  <Mol_ID>
8977

>  <Formula>
C21H29N3O4

>  <MolWeight>
387.47266

>  <Cat>
P2540

>  <Name>
WAY-327504

>  <Synonyms>
N/A

>  <Target>
phosphodiesterase type 10A

>  <Form>
free base

>  <CAS>
892269-81-7

>  <URL>
N/A

$$$$
