WAY-326392
 OpenBabel08302521433D

 59 63  0  0  0  0  0  0  0  0999 V2000
    0.0265   -0.2899    0.1160 C   0  0  0  0  0  0  0  0  0  0  0  0
    1.2964    0.3327    0.0001 C   0  0  0  0  0  0  0  0  0  0  0  0
   -1.3413    0.1901    0.1213 C   0  0  0  0  0  0  0  0  0  0  0  0
    0.0400   -1.6661    0.2415 C   0  0  0  0  0  0  0  0  0  0  0  0
    2.4350   -0.5142   -0.0926 C   0  0  0  0  0  0  0  0  0  0  0  0
    1.5034    1.8330   -0.0201 C   0  0  0  0  0  0  0  0  0  0  0  0
   -2.2820   -0.8409    0.2204 C   0  0  0  0  0  0  0  0  0  0  0  0
   -1.7112    1.4899   -0.0208 N   0  0  0  0  0  0  0  0  0  0  0  0
   -1.4785   -2.3263    0.5433 S   0  0  0  0  0  0  0  0  0  0  0  0
    1.0952   -2.4847    0.1965 N   0  0  0  0  0  0  0  0  0  0  0  0
    2.2870   -1.9100   -0.0108 C   0  0  0  0  0  0  0  0  0  0  0  0
    3.8207    0.1008   -0.1046 C   0  0  0  0  0  0  0  0  0  0  0  0
    2.9048    2.2340    0.4825 C   0  0  0  0  0  0  0  0  0  0  0  0
   -3.6630   -0.5659    0.0878 C   0  0  0  0  0  0  0  0  0  0  0  0
   -3.0307    1.6785   -0.0607 C   0  0  0  0  0  0  0  0  0  0  0  0
    3.3856   -2.7382    0.0153 N   0  0  0  0  0  0  0  0  0  0  0  0
    3.8765    1.5138   -0.2736 O   0  0  0  0  0  0  0  0  0  0  0  0
    3.0905    2.0117    1.9930 C   0  0  0  0  0  0  0  0  0  0  0  0
    3.1865    3.7072    0.1661 C   0  0  0  0  0  0  0  0  0  0  0  0
   -4.6787   -1.5112    0.0247 N   0  0  0  0  0  0  0  0  0  0  0  0
   -3.9942    0.7473   -0.0090 N   0  0  0  0  0  0  0  0  0  0  0  0
    3.3123   -4.0026    0.7626 C   0  0  0  0  0  0  0  0  0  0  0  0
    4.2869   -2.8684   -1.1347 C   0  0  0  0  0  0  0  0  0  0  0  0
   -6.0325   -1.1047    0.4012 C   0  0  0  0  0  0  0  0  0  0  0  0
   -4.4975   -2.8543   -0.5304 C   0  0  0  0  0  0  0  0  0  0  0  0
    4.7319   -4.2631    1.3056 C   0  0  0  0  0  0  0  0  0  0  0  0
    5.6881   -3.0779   -0.5336 C   0  0  0  0  0  0  0  0  0  0  0  0
   -6.8341   -0.5888   -0.7826 C   0  0  0  0  0  0  0  0  0  0  0  0
   -3.9677   -2.8469   -1.9601 C   0  0  0  0  0  0  0  0  0  0  0  0
    5.7248   -4.2871    0.2558 O   0  0  0  0  0  0  0  0  0  0  0  0
    0.7416    2.3359    0.5850 H   0  0  0  0  0  0  0  0  0  0  0  0
    1.3747    2.1511   -1.0627 H   0  0  0  0  0  0  0  0  0  0  0  0
    4.4060   -0.2765   -0.9385 H   0  0  0  0  0  0  0  0  0  0  0  0
    4.3495   -0.1610    0.8209 H   0  0  0  0  0  0  0  0  0  0  0  0
   -3.3692    2.7047   -0.1681 H   0  0  0  0  0  0  0  0  0  0  0  0
    4.1360    2.1725    2.2793 H   0  0  0  0  0  0  0  0  0  0  0  0
    2.4577    2.6887    2.5754 H   0  0  0  0  0  0  0  0  0  0  0  0
    2.8450    0.9894    2.3002 H   0  0  0  0  0  0  0  0  0  0  0  0
    3.1152    3.8950   -0.9114 H   0  0  0  0  0  0  0  0  0  0  0  0
    2.4964    4.3759    0.6876 H   0  0  0  0  0  0  0  0  0  0  0  0
    4.2124    3.9692    0.4516 H   0  0  0  0  0  0  0  0  0  0  0  0
    3.0082   -4.8182    0.0929 H   0  0  0  0  0  0  0  0  0  0  0  0
    2.6085   -3.9619    1.6012 H   0  0  0  0  0  0  0  0  0  0  0  0
    4.0042   -3.7462   -1.7311 H   0  0  0  0  0  0  0  0  0  0  0  0
    4.2664   -2.0184   -1.8188 H   0  0  0  0  0  0  0  0  0  0  0  0
   -6.5581   -1.9701    0.8258 H   0  0  0  0  0  0  0  0  0  0  0  0
   -6.0154   -0.3579    1.2047 H   0  0  0  0  0  0  0  0  0  0  0  0
   -3.8653   -3.4591    0.1241 H   0  0  0  0  0  0  0  0  0  0  0  0
   -5.4561   -3.3885   -0.5429 H   0  0  0  0  0  0  0  0  0  0  0  0
    5.0075   -3.4843    2.0277 H   0  0  0  0  0  0  0  0  0  0  0  0
    4.7674   -5.2279    1.8196 H   0  0  0  0  0  0  0  0  0  0  0  0
    6.4365   -3.1683   -1.3260 H   0  0  0  0  0  0  0  0  0  0  0  0
    5.9707   -2.2320    0.1047 H   0  0  0  0  0  0  0  0  0  0  0  0
   -6.8932   -1.3343   -1.5817 H   0  0  0  0  0  0  0  0  0  0  0  0
   -7.8555   -0.3533   -0.4653 H   0  0  0  0  0  0  0  0  0  0  0  0
   -6.3951    0.3211   -1.2022 H   0  0  0  0  0  0  0  0  0  0  0  0
   -3.0817   -2.2193   -2.0914 H   0  0  0  0  0  0  0  0  0  0  0  0
   -3.6950   -3.8641   -2.2609 H   0  0  0  0  0  0  0  0  0  0  0  0
   -4.7306   -2.4819   -2.6541 H   0  0  0  0  0  0  0  0  0  0  0  0
  1  2  1  0  0  0  0
  1  3  1  0  0  0  0
  1  4  2  0  0  0  0
  2  5  2  0  0  0  0
  2  6  1  0  0  0  0
  3  7  2  0  0  0  0
  3  8  1  0  0  0  0
  4  9  1  0  0  0  0
  4 10  1  0  0  0  0
  5 11  1  0  0  0  0
  5 12  1  0  0  0  0
  6 13  1  0  0  0  0
  6 31  1  0  0  0  0
  6 32  1  0  0  0  0
  7 14  1  0  0  0  0
  7  9  1  0  0  0  0
  8 15  2  0  0  0  0
 10 11  2  0  0  0  0
 11 16  1  0  0  0  0
 12 17  1  0  0  0  0
 12 33  1  0  0  0  0
 12 34  1  0  0  0  0
 13 18  1  0  0  0  0
 13 19  1  0  0  0  0
 13 17  1  0  0  0  0
 14 20  1  0  0  0  0
 14 21  2  0  0  0  0
 15 21  1  0  0  0  0
 15 35  1  0  0  0  0
 16 22  1  0  0  0  0
 16 23  1  0  0  0  0
 18 36  1  0  0  0  0
 18 37  1  0  0  0  0
 18 38  1  0  0  0  0
 19 39  1  0  0  0  0
 19 40  1  0  0  0  0
 19 41  1  0  0  0  0
 20 24  1  0  0  0  0
 20 25  1  0  0  0  0
 22 26  1  0  0  0  0
 22 42  1  0  0  0  0
 22 43  1  0  0  0  0
 23 27  1  0  0  0  0
 23 44  1  0  0  0  0
 23 45  1  0  0  0  0
 24 28  1  0  0  0  0
 24 46  1  0  0  0  0
 24 47  1  0  0  0  0
 25 29  1  0  0  0  0
 25 48  1  0  0  0  0
 25 49  1  0  0  0  0
 26 30  1  0  0  0  0
 26 50  1  0  0  0  0
 26 51  1  0  0  0  0
 27 30  1  0  0  0  0
 27 52  1  0  0  0  0
 27 53  1  0  0  0  0
 28 54  1  0  0  0  0
 28 55  1  0  0  0  0
 28 56  1  0  0  0  0
 29 57  1  0  0  0  0
 29 58  1  0  0  0  0
 29 59  1  0  0  0  0
M  END
>  <Mol_ID>
8918

>  <Formula>
C22H29N5O2S

>  <MolWeight>
427.56296

>  <Cat>
P2477

>  <Name>
WAY-326392

>  <Synonyms>
N/A

>  <Target>
PDE4

>  <Form>
free base

>  <CAS>
870760-17-1

>  <URL>
N/A

$$$$
