WAY-621628
 OpenBabel08302521443D

 50 53  0  0  0  0  0  0  0  0999 V2000
    5.8957    2.9392    3.2334 C   0  0  0  0  0  0  0  0  0  0  0  0
    7.7228    3.6260    4.7318 C   0  0  0  0  0  0  0  0  0  0  0  0
    5.8374    1.6859    3.8748 O   0  0  0  0  0  0  0  0  0  0  0  0
    6.7591    1.3446    4.8439 C   0  0  0  0  0  0  0  0  0  0  0  0
    1.4255    4.5184   -1.1271 N   0  0  0  0  0  0  0  0  0  0  0  0
    6.8066    3.9222    3.6193 C   0  0  0  0  0  0  0  0  0  0  0  0
   -0.4374    6.6531   -0.8675 N   0  0  0  0  0  0  0  0  0  0  0  0
    7.6891    2.3979    5.2733 C   0  0  0  0  0  0  0  0  0  0  0  0
    2.6137    3.8468   -1.3709 C   0  0  0  0  0  0  0  0  0  0  0  0
   -1.6013    7.3416   -0.6041 C   0  0  0  0  0  0  0  0  0  0  0  0
    5.0063    3.1080    2.1697 C   0  0  0  0  0  0  0  0  0  0  0  0
   -2.2056    8.1791   -1.5512 C   0  0  0  0  0  0  0  0  0  0  0  0
    6.7973    5.1193    2.8949 C   0  0  0  0  0  0  0  0  0  0  0  0
    0.4831    4.7931   -2.2234 C   0  0  0  0  0  0  0  0  0  0  0  0
    0.9567    4.9492    0.1966 C   0  0  0  0  0  0  0  0  0  0  0  0
    0.5680    6.4305    0.1788 C   0  0  0  0  0  0  0  0  0  0  0  0
   -0.0231    6.2558   -2.2260 C   0  0  0  0  0  0  0  0  0  0  0  0
    6.7996    0.2266    5.3450 O   0  0  0  0  0  0  0  0  0  0  0  0
    3.4605    3.4559   -0.1515 C   0  0  0  0  0  0  0  0  0  0  0  0
    2.9702    3.5343   -2.5048 O   0  0  0  0  0  0  0  0  0  0  0  0
    5.0238    4.2868    1.4346 C   0  0  0  0  0  0  0  0  0  0  0  0
    4.2245    4.5544    0.3520 O   0  0  0  0  0  0  0  0  0  0  0  0
   -3.4130    8.8381   -1.2889 C   0  0  0  0  0  0  0  0  0  0  0  0
    5.9167    5.2958    1.8097 C   0  0  0  0  0  0  0  0  0  0  0  0
    8.6804    4.6662    5.2325 C   0  0  0  0  0  0  0  0  0  0  0  0
   -2.2624    7.2045    0.6278 C   0  0  0  0  0  0  0  0  0  0  0  0
   -3.4652    7.8601    0.9024 C   0  0  0  0  0  0  0  0  0  0  0  0
   -4.0456    8.6739   -0.0602 C   0  0  0  0  0  0  0  0  0  0  0  0
    8.3578    2.1036    6.0748 H   0  0  0  0  0  0  0  0  0  0  0  0
    4.3327    2.2887    1.9448 H   0  0  0  0  0  0  0  0  0  0  0  0
   -1.7294    8.3560   -2.5118 H   0  0  0  0  0  0  0  0  0  0  0  0
    7.4810    5.9286    3.1376 H   0  0  0  0  0  0  0  0  0  0  0  0
    0.9177    4.5451   -3.1968 H   0  0  0  0  0  0  0  0  0  0  0  0
   -0.3704    4.1199   -2.0697 H   0  0  0  0  0  0  0  0  0  0  0  0
    0.0883    4.3270    0.4454 H   0  0  0  0  0  0  0  0  0  0  0  0
    1.7051    4.7974    0.9731 H   0  0  0  0  0  0  0  0  0  0  0  0
    1.4537    7.0392   -0.0475 H   0  0  0  0  0  0  0  0  0  0  0  0
    0.2395    6.7251    1.1789 H   0  0  0  0  0  0  0  0  0  0  0  0
    0.7752    6.9251   -2.5695 H   0  0  0  0  0  0  0  0  0  0  0  0
   -0.8478    6.3195   -2.9447 H   0  0  0  0  0  0  0  0  0  0  0  0
    4.1219    2.6365   -0.4573 H   0  0  0  0  0  0  0  0  0  0  0  0
    2.7833    3.0664    0.6181 H   0  0  0  0  0  0  0  0  0  0  0  0
   -3.8535    9.4791   -2.0448 H   0  0  0  0  0  0  0  0  0  0  0  0
    5.9467    6.2264    1.2452 H   0  0  0  0  0  0  0  0  0  0  0  0
    9.3619    4.9878    4.4398 H   0  0  0  0  0  0  0  0  0  0  0  0
    8.1404    5.5379    5.6168 H   0  0  0  0  0  0  0  0  0  0  0  0
    9.2994    4.2845    6.0546 H   0  0  0  0  0  0  0  0  0  0  0  0
   -1.8658    6.5475    1.3972 H   0  0  0  0  0  0  0  0  0  0  0  0
   -3.9480    7.7200    1.8650 H   0  0  0  0  0  0  0  0  0  0  0  0
   -4.9846    9.1773    0.1440 H   0  0  0  0  0  0  0  0  0  0  0  0
  2  6  1  0  0  0  0
  3  1  1  0  0  0  0
  4  3  1  0  0  0  0
  5  9  1  0  0  0  0
  6  1  2  0  0  0  0
  7 16  1  0  0  0  0
  8  2  2  0  0  0  0
  8  4  1  0  0  0  0
  8 29  1  0  0  0  0
  9 19  1  0  0  0  0
 10  7  1  0  0  0  0
 11  1  1  0  0  0  0
 11 30  1  0  0  0  0
 12 10  2  0  0  0  0
 12 31  1  0  0  0  0
 13  6  1  0  0  0  0
 13 24  2  0  0  0  0
 13 32  1  0  0  0  0
 14  5  1  0  0  0  0
 14 33  1  0  0  0  0
 14 34  1  0  0  0  0
 15  5  1  0  0  0  0
 15 35  1  0  0  0  0
 15 36  1  0  0  0  0
 16 15  1  0  0  0  0
 16 37  1  0  0  0  0
 16 38  1  0  0  0  0
 17 14  1  0  0  0  0
 17  7  1  0  0  0  0
 17 39  1  0  0  0  0
 17 40  1  0  0  0  0
 18  4  2  0  0  0  0
 19 22  1  0  0  0  0
 19 41  1  0  0  0  0
 19 42  1  0  0  0  0
 20  9  2  0  0  0  0
 21 11  2  0  0  0  0
 22 21  1  0  0  0  0
 23 12  1  0  0  0  0
 23 28  2  0  0  0  0
 23 43  1  0  0  0  0
 24 21  1  0  0  0  0
 24 44  1  0  0  0  0
 25  2  1  0  0  0  0
 25 45  1  0  0  0  0
 25 46  1  0  0  0  0
 25 47  1  0  0  0  0
 26 10  1  0  0  0  0
 26 48  1  0  0  0  0
 27 26  2  0  0  0  0
 27 49  1  0  0  0  0
 28 27  1  0  0  0  0
 28 50  1  0  0  0  0
M  END
>  <Mol_ID>
9052

>  <Formula>
C22H21ClN2O4

>  <MolWeight>
412.86614

>  <Cat>
P2973

>  <Name>
WAY-621628

>  <Synonyms>
N/A

>  <Target>
serotonin 5-HT2 receptors

>  <Form>
free base

>  <CAS>
742116-89-8

>  <URL>
N/A

$$$$
