WAY-621858
 OpenBabel08302521443D

 58 62  0  0  0  0  0  0  0  0999 V2000
    0.8104    0.0958    0.3799 S   0  0  0  0  0  0  0  0  0  0  0  0
    2.4828    0.2538    0.5408 N   0  0  0  0  0  0  0  0  0  0  0  0
    0.8565    5.1348   -0.9491 C   0  0  0  0  0  0  0  0  0  0  0  0
    3.4058    0.3641   -0.6441 C   0  0  3  0  0  0  0  0  0  0  0  0
   -1.1572    9.7183   -3.3773 C   0  0  0  0  0  0  0  0  0  0  0  0
    3.1836   -0.4816    1.5517 C   0  0  0  0  0  0  0  0  0  0  0  0
    0.4003    1.4045   -0.7609 C   0  0  0  0  0  0  0  0  0  0  0  0
    0.1455    6.2478   -1.3833 N   0  0  0  0  0  0  0  0  0  0  0  0
   -0.6926    8.5770   -2.7693 N   0  0  0  0  0  0  0  0  0  0  0  0
    0.4650    3.7549   -1.3392 C   0  0  0  0  0  0  0  0  0  0  0  0
    4.5426   -0.5361    1.2394 C   0  0  0  0  0  0  0  0  0  0  0  0
    4.8264    0.1469   -0.0603 C   0  0  0  0  0  0  0  0  0  0  0  0
    0.1609    0.4382    1.6287 O   0  0  0  0  0  0  0  0  0  0  0  0
    0.5242   -1.1653   -0.2743 O   0  0  0  0  0  0  0  0  0  0  0  0
    0.6522    2.7313   -0.3984 C   0  0  0  0  0  0  0  0  0  0  0  0
   -0.5381   10.8852   -3.1301 N   0  0  0  0  0  0  0  0  0  0  0  0
   -2.2672    9.6411   -4.1308 N   0  0  0  0  0  0  0  0  0  0  0  0
   -1.1691    6.2856   -2.0507 C   0  0  0  0  0  0  0  0  0  0  0  0
    0.5991    7.5768   -0.9391 C   0  0  0  0  0  0  0  0  0  0  0  0
    0.6086    8.5949   -2.0957 C   0  0  0  0  0  0  0  0  0  0  0  0
   -1.1519    7.2697   -3.2403 C   0  0  0  0  0  0  0  0  0  0  0  0
    1.8546    5.2319   -0.2334 O   0  0  0  0  0  0  0  0  0  0  0  0
   -0.1095    1.0947   -2.0242 C   0  0  0  0  0  0  0  0  0  0  0  0
    3.1423   -0.6542   -1.7505 C   0  0  0  0  0  0  0  0  0  0  0  0
    0.0619    3.4257   -2.6395 C   0  0  0  0  0  0  0  0  0  0  0  0
    2.7264   -0.9691    2.7626 C   0  0  0  0  0  0  0  0  0  0  0  0
   -2.2097   12.0156   -4.4149 C   0  0  0  0  0  0  0  0  0  0  0  0
   -2.7719   10.7856   -4.6281 C   0  0  0  0  0  0  0  0  0  0  0  0
   -1.0739   12.0053   -3.6503 C   0  0  0  0  0  0  0  0  0  0  0  0
    5.4689   -1.0982    2.1073 C   0  0  0  0  0  0  0  0  0  0  0  0
   -0.2704    2.1084   -2.9664 C   0  0  0  0  0  0  0  0  0  0  0  0
    3.6454   -1.5494    3.6408 C   0  0  0  0  0  0  0  0  0  0  0  0
    5.0104   -1.6153    3.3170 C   0  0  0  0  0  0  0  0  0  0  0  0
    3.3442    1.3754   -1.0614 H   0  0  0  0  0  0  0  0  0  0  0  0
    5.3147    1.1084    0.1311 H   0  0  0  0  0  0  0  0  0  0  0  0
    5.4641   -0.4612   -0.7100 H   0  0  0  0  0  0  0  0  0  0  0  0
    1.0305    2.9648    0.5966 H   0  0  0  0  0  0  0  0  0  0  0  0
   -1.5148    5.3046   -2.3687 H   0  0  0  0  0  0  0  0  0  0  0  0
   -1.8922    6.6341   -1.3022 H   0  0  0  0  0  0  0  0  0  0  0  0
   -0.1064    7.9069   -0.1652 H   0  0  0  0  0  0  0  0  0  0  0  0
    1.5904    7.5338   -0.4788 H   0  0  0  0  0  0  0  0  0  0  0  0
    1.3953    8.3298   -2.8140 H   0  0  0  0  0  0  0  0  0  0  0  0
    0.8582    9.5747   -1.6734 H   0  0  0  0  0  0  0  0  0  0  0  0
   -0.4691    6.9040   -4.0188 H   0  0  0  0  0  0  0  0  0  0  0  0
   -2.1585    7.2949   -3.6727 H   0  0  0  0  0  0  0  0  0  0  0  0
   -0.3392    0.0659   -2.2950 H   0  0  0  0  0  0  0  0  0  0  0  0
    3.2202   -1.6841   -1.3876 H   0  0  0  0  0  0  0  0  0  0  0  0
    2.1571   -0.5305   -2.2023 H   0  0  0  0  0  0  0  0  0  0  0  0
    3.8723   -0.5254   -2.5583 H   0  0  0  0  0  0  0  0  0  0  0  0
    0.0167    4.1840   -3.4163 H   0  0  0  0  0  0  0  0  0  0  0  0
    1.6823   -0.9099    3.0534 H   0  0  0  0  0  0  0  0  0  0  0  0
   -2.6328   12.9256   -4.8154 H   0  0  0  0  0  0  0  0  0  0  0  0
   -3.6793   10.6732   -5.2128 H   0  0  0  0  0  0  0  0  0  0  0  0
   -0.5463   12.9235   -3.4114 H   0  0  0  0  0  0  0  0  0  0  0  0
    6.5266   -1.1176    1.8645 H   0  0  0  0  0  0  0  0  0  0  0  0
   -0.6250    1.8681   -3.9663 H   0  0  0  0  0  0  0  0  0  0  0  0
    3.3042   -1.9439    4.5972 H   0  0  0  0  0  0  0  0  0  0  0  0
    5.7141   -2.0500    4.0239 H   0  0  0  0  0  0  0  0  0  0  0  0
  2  1  1  0  0  0  0
  3 10  1  0  0  0  0
  4  2  1  0  0  0  0
  4 34  1  0  0  0  0
  5  9  1  0  0  0  0
  6  2  1  0  0  0  0
  7  1  1  0  0  0  0
  8  3  1  0  0  0  0
  9 20  1  0  0  0  0
 10 15  2  0  0  0  0
 10 25  1  0  0  0  0
 11  6  2  0  0  0  0
 12  4  1  0  0  0  0
 12 11  1  0  0  0  0
 12 35  1  0  0  0  0
 12 36  1  0  0  0  0
 13  1  2  0  0  0  0
 14  1  2  0  0  0  0
 15  7  1  0  0  0  0
 15 37  1  0  0  0  0
 16  5  2  0  0  0  0
 17  5  1  0  0  0  0
 18  8  1  0  0  0  0
 18 38  1  0  0  0  0
 18 39  1  0  0  0  0
 19  8  1  0  0  0  0
 19 40  1  0  0  0  0
 19 41  1  0  0  0  0
 20 19  1  0  0  0  0
 20 42  1  0  0  0  0
 20 43  1  0  0  0  0
 21 18  1  0  0  0  0
 21  9  1  0  0  0  0
 21 44  1  0  0  0  0
 21 45  1  0  0  0  0
 22  3  2  0  0  0  0
 23  7  2  0  0  0  0
 23 46  1  0  0  0  0
 24  4  1  0  0  0  0
 24 47  1  0  0  0  0
 24 48  1  0  0  0  0
 24 49  1  0  0  0  0
 25 31  2  0  0  0  0
 25 50  1  0  0  0  0
 26  6  1  0  0  0  0
 26 51  1  0  0  0  0
 27 28  1  0  0  0  0
 27 52  1  0  0  0  0
 28 17  2  0  0  0  0
 28 53  1  0  0  0  0
 29 16  1  0  0  0  0
 29 27  2  0  0  0  0
 29 54  1  0  0  0  0
 30 11  1  0  0  0  0
 30 33  2  0  0  0  0
 30 55  1  0  0  0  0
 31 23  1  0  0  0  0
 31 56  1  0  0  0  0
 32 26  2  0  0  0  0
 32 57  1  0  0  0  0
 33 32  1  0  0  0  0
 33 58  1  0  0  0  0
M  END
>  <Mol_ID>
9061

>  <Formula>
C24H25N5O3S

>  <MolWeight>
463.552

>  <Cat>
P2982

>  <Name>
WAY-621858

>  <Synonyms>
N/A

>  <Target>
RSV,WNV

>  <Form>
free base

>  <CAS>
749868-66-4

>  <URL>
N/A

$$$$
