WAY-662162
 OpenBabel08302521443D

 42 45  0  0  0  0  0  0  0  0999 V2000
   -0.5054   -0.7825    0.0348 N   0  0  0  0  0  0  0  0  0  0  0  0
   -0.3678    0.5837   -0.0095 C   0  0  0  0  0  0  0  0  0  0  0  0
    0.4651   -1.7380    0.2097 N   0  0  0  0  0  0  0  0  0  0  0  0
   -1.8673   -0.9851   -0.0386 C   0  0  0  0  0  0  0  0  0  0  0  0
   -1.5301    1.1761   -0.1148 N   0  0  0  0  0  0  0  0  0  0  0  0
    1.6971   -1.3754   -0.0450 C   0  0  0  0  0  0  0  0  0  0  0  0
    1.1873    1.3131    0.0507 S   0  0  0  0  0  0  0  0  0  0  0  0
   -2.4829    0.1819   -0.1364 N   0  0  0  0  0  0  0  0  0  0  0  0
    2.1002   -0.0620   -0.7442 C   0  0  3  0  0  0  0  0  0  0  0  0
    1.8050   -0.1665   -2.2456 C   0  0  0  0  0  0  0  0  0  0  0  0
    2.2145    1.0699   -2.9913 C   0  0  0  0  0  0  0  0  0  0  0  0
    2.7945   -2.3195    0.3524 C   0  0  0  0  0  0  0  0  0  0  0  0
   -2.5076   -2.3238    0.0098 C   0  0  0  0  0  0  0  0  0  0  0  0
    3.2047    1.7477   -2.7791 O   0  0  0  0  0  0  0  0  0  0  0  0
    4.0039   -2.4029   -0.3465 C   0  0  0  0  0  0  0  0  0  0  0  0
    2.6011   -3.1205    1.4882 C   0  0  0  0  0  0  0  0  0  0  0  0
   -2.7360   -2.9297   -1.3582 C   0  0  0  0  0  0  0  0  0  0  0  0
    4.8138   -4.0531    1.2330 C   0  0  0  0  0  0  0  0  0  0  0  0
   -3.1702   -4.0704   -3.8808 C   0  0  0  0  0  0  0  0  0  0  0  0
    1.3745    1.3551   -4.0034 O   0  0  0  0  0  0  0  0  0  0  0  0
    3.6087   -3.9804    1.9282 C   0  0  0  0  0  0  0  0  0  0  0  0
    5.0089   -3.2695    0.0958 C   0  0  0  0  0  0  0  0  0  0  0  0
   -3.4670   -4.8495   -5.5780 Br  0  0  0  0  0  0  0  0  0  0  0  0
   -1.7726   -3.7719   -1.9343 C   0  0  0  0  0  0  0  0  0  0  0  0
   -3.9123   -2.6545   -2.0740 C   0  0  0  0  0  0  0  0  0  0  0  0
   -4.1328   -3.2271   -3.3287 C   0  0  0  0  0  0  0  0  0  0  0  0
   -1.9912   -4.3426   -3.1914 C   0  0  0  0  0  0  0  0  0  0  0  0
    3.1616    0.1482   -0.5792 H   0  0  0  0  0  0  0  0  0  0  0  0
    2.3505   -1.0076   -2.6885 H   0  0  0  0  0  0  0  0  0  0  0  0
    0.7420   -0.3618   -2.4297 H   0  0  0  0  0  0  0  0  0  0  0  0
   -1.9227   -3.0165    0.6266 H   0  0  0  0  0  0  0  0  0  0  0  0
   -3.4752   -2.2323    0.5208 H   0  0  0  0  0  0  0  0  0  0  0  0
    4.1940   -1.8146   -1.2391 H   0  0  0  0  0  0  0  0  0  0  0  0
    1.6721   -3.0671    2.0525 H   0  0  0  0  0  0  0  0  0  0  0  0
    5.6012   -4.7196    1.5785 H   0  0  0  0  0  0  0  0  0  0  0  0
    1.7121    2.1883   -4.3945 H   0  0  0  0  0  0  0  0  0  0  0  0
    3.4571   -4.5872    2.8185 H   0  0  0  0  0  0  0  0  0  0  0  0
    5.9511   -3.3332   -0.4448 H   0  0  0  0  0  0  0  0  0  0  0  0
   -0.8506   -3.9959   -1.4027 H   0  0  0  0  0  0  0  0  0  0  0  0
   -4.6679   -1.9918   -1.6537 H   0  0  0  0  0  0  0  0  0  0  0  0
   -5.0544   -3.0117   -3.8625 H   0  0  0  0  0  0  0  0  0  0  0  0
   -1.2397   -5.0000   -3.6197 H   0  0  0  0  0  0  0  0  0  0  0  0
  2  1  1  0  0  0  0
  3  1  1  0  0  0  0
  4  1  1  0  0  0  0
  5  2  2  0  0  0  0
  6  3  2  0  0  0  0
  7  2  1  0  0  0  0
  7  9  1  0  0  0  0
  8  4  2  0  0  0  0
  8  5  1  0  0  0  0
  9  6  1  0  0  0  0
  9 28  1  0  0  0  0
 10  9  1  0  0  0  0
 10 29  1  0  0  0  0
 10 30  1  0  0  0  0
 11 10  1  0  0  0  0
 12  6  1  0  0  0  0
 13  4  1  0  0  0  0
 13 31  1  0  0  0  0
 13 32  1  0  0  0  0
 14 11  2  0  0  0  0
 15 12  2  0  0  0  0
 15 33  1  0  0  0  0
 16 12  1  0  0  0  0
 16 34  1  0  0  0  0
 17 13  1  0  0  0  0
 18 21  1  0  0  0  0
 18 22  2  0  0  0  0
 18 35  1  0  0  0  0
 19 26  2  0  0  0  0
 19 27  1  0  0  0  0
 20 11  1  0  0  0  0
 20 36  1  0  0  0  0
 21 16  2  0  0  0  0
 21 37  1  0  0  0  0
 22 15  1  0  0  0  0
 22 38  1  0  0  0  0
 23 19  1  0  0  0  0
 24 17  1  0  0  0  0
 24 39  1  0  0  0  0
 25 17  2  0  0  0  0
 25 40  1  0  0  0  0
 26 25  1  0  0  0  0
 26 41  1  0  0  0  0
 27 24  2  0  0  0  0
 27 42  1  0  0  0  0
M  END
>  <Mol_ID>
9138

>  <Formula>
C19H14BrClN4O2S

>  <MolWeight>
477.76206

>  <Cat>
P3219

>  <Name>
WAY-662162

>  <Synonyms>
N/A

>  <Target>
UDP-galactopyranose mutase

>  <Form>
free base

>  <CAS>
902471-48-1

>  <URL>
N/A

$$$$
