WAY-658091
 OpenBabel08302521433D

 42 44  0  0  0  0  0  0  0  0999 V2000
   -0.1065   -1.1520    0.1144 N   0  0  0  0  0  0  0  0  0  0  0  0
    1.1133   -0.5188   -0.0675 C   0  0  0  0  0  0  0  0  0  0  0  0
    0.8700    0.7775   -0.2344 N   0  0  0  0  0  0  0  0  0  0  0  0
   -1.0563   -0.1566    0.0626 C   0  0  0  0  0  0  0  0  0  0  0  0
   -0.4819    1.0001   -0.1464 N   0  0  0  0  0  0  0  0  0  0  0  0
   -2.7517   -0.4299    0.2593 S   0  0  0  0  0  0  0  0  0  0  0  0
   -5.7252    2.4854    0.0242 C   0  0  0  0  0  0  0  0  0  0  0  0
   -5.8448    4.8779   -0.2693 C   0  0  0  0  0  0  0  0  0  0  0  0
   -5.1058    3.6953   -0.3038 C   0  0  0  0  0  0  0  0  0  0  0  0
   -4.9820    1.1843    0.0639 C   0  0  0  0  0  0  0  0  0  0  0  0
    2.4618   -1.1088   -0.1837 C   0  0  0  0  0  0  0  0  0  0  0  0
   -7.1920    4.8711    0.0761 C   0  0  0  0  0  0  0  0  0  0  0  0
   -3.4620    1.2074   -0.0860 C   0  0  0  0  0  0  0  0  0  0  0  0
    5.0325   -2.1989   -0.6018 N   0  0  0  0  0  0  0  0  0  0  0  0
   -7.0978    2.4825    0.3444 C   0  0  0  0  0  0  0  0  0  0  0  0
   -5.6419    0.1587    0.2226 O   0  0  0  0  0  0  0  0  0  0  0  0
   -7.8288    3.6742    0.3776 C   0  0  0  0  0  0  0  0  0  0  0  0
   -0.3660   -2.5600    0.3486 C   0  0  0  0  0  0  0  0  0  0  0  0
   -5.2355    6.0326   -0.5686 F   0  0  0  0  0  0  0  0  0  0  0  0
   -7.8821    6.0170    0.1255 F   0  0  0  0  0  0  0  0  0  0  0  0
    4.6437   -1.0612   -1.2053 C   0  0  0  0  0  0  0  0  0  0  0  0
    4.1553   -2.7593    0.2501 C   0  0  0  0  0  0  0  0  0  0  0  0
    3.3922   -0.4855   -1.0254 C   0  0  0  0  0  0  0  0  0  0  0  0
    2.8906   -2.2423    0.5094 C   0  0  0  0  0  0  0  0  0  0  0  0
   -0.3341   -3.4556   -0.8908 C   0  0  0  0  0  0  0  0  0  0  0  0
   -1.5334   -3.2655   -1.8091 C   0  0  0  0  0  0  0  0  0  0  0  0
   -4.0583    3.7601   -0.5848 H   0  0  0  0  0  0  0  0  0  0  0  0
   -3.0426    1.9223    0.6280 H   0  0  0  0  0  0  0  0  0  0  0  0
   -3.2151    1.4974   -1.1110 H   0  0  0  0  0  0  0  0  0  0  0  0
   -7.6043    1.5484    0.5858 H   0  0  0  0  0  0  0  0  0  0  0  0
   -8.8835    3.6746    0.6361 H   0  0  0  0  0  0  0  0  0  0  0  0
    0.3565   -2.9127    1.0798 H   0  0  0  0  0  0  0  0  0  0  0  0
   -1.3241   -2.6683    0.8636 H   0  0  0  0  0  0  0  0  0  0  0  0
    5.3825   -0.6020   -1.8558 H   0  0  0  0  0  0  0  0  0  0  0  0
    4.5016   -3.6597    0.7465 H   0  0  0  0  0  0  0  0  0  0  0  0
    3.1495    0.4395   -1.5469 H   0  0  0  0  0  0  0  0  0  0  0  0
    2.2983   -2.7329    1.2638 H   0  0  0  0  0  0  0  0  0  0  0  0
    0.5897   -3.3144   -1.4634 H   0  0  0  0  0  0  0  0  0  0  0  0
   -0.3370   -4.4971   -0.5462 H   0  0  0  0  0  0  0  0  0  0  0  0
   -2.4648   -3.1833   -1.2415 H   0  0  0  0  0  0  0  0  0  0  0  0
   -1.4179   -2.3693   -2.4257 H   0  0  0  0  0  0  0  0  0  0  0  0
   -1.6327   -4.1248   -2.4798 H   0  0  0  0  0  0  0  0  0  0  0  0
  2  1  1  0  0  0  0
  3  2  2  0  0  0  0
  3  5  1  0  0  0  0
  4  1  1  0  0  0  0
  5  4  2  0  0  0  0
  6  4  1  0  0  0  0
  7 10  1  0  0  0  0
  8  9  2  0  0  0  0
  9  7  1  0  0  0  0
  9 27  1  0  0  0  0
 10 13  1  0  0  0  0
 11  2  1  0  0  0  0
 12 17  2  0  0  0  0
 12  8  1  0  0  0  0
 13  6  1  0  0  0  0
 13 28  1  0  0  0  0
 13 29  1  0  0  0  0
 14 22  2  0  0  0  0
 14 21  1  0  0  0  0
 15  7  2  0  0  0  0
 15 30  1  0  0  0  0
 16 10  2  0  0  0  0
 17 15  1  0  0  0  0
 17 31  1  0  0  0  0
 18  1  1  0  0  0  0
 18 32  1  0  0  0  0
 18 33  1  0  0  0  0
 19  8  1  0  0  0  0
 20 12  1  0  0  0  0
 21 23  2  0  0  0  0
 21 34  1  0  0  0  0
 22 24  1  0  0  0  0
 22 35  1  0  0  0  0
 23 11  1  0  0  0  0
 23 36  1  0  0  0  0
 24 11  2  0  0  0  0
 24 37  1  0  0  0  0
 25 18  1  0  0  0  0
 25 38  1  0  0  0  0
 25 39  1  0  0  0  0
 26 25  1  0  0  0  0
 26 40  1  0  0  0  0
 26 41  1  0  0  0  0
 26 42  1  0  0  0  0
M  END
>  <Mol_ID>
8817

>  <Formula>
C18H16F2N4OS

>  <MolWeight>
374.4076464

>  <Cat>
P3163

>  <Name>
WAY-658091

>  <Synonyms>
N/A

>  <Target>
Others

>  <Form>
free base

>  <CAS>
848340-38-5

>  <URL>
N/A

$$$$
