WAY-640414
 OpenBabel08302521443D

 44 46  0  0  0  0  0  0  0  0999 V2000
    0.9622    0.5829    0.6857 C   0  0  0  0  0  0  0  0  0  0  0  0
    0.6026    0.7202   -0.6574 N   0  0  0  0  0  0  0  0  0  0  0  0
    1.2871    1.6293   -1.4965 C   0  0  0  0  0  0  0  0  0  0  0  0
   -1.3409   -0.3411    0.7699 N   0  0  0  0  0  0  0  0  0  0  0  0
    2.3596    1.2378   -2.3221 C   0  0  0  0  0  0  0  0  0  0  0  0
   -0.2201    0.1421    1.5930 C   0  0  0  0  0  0  0  0  0  0  0  0
    2.7617   -0.2126   -2.5281 C   0  0  0  0  0  0  0  0  0  0  0  0
    2.0653    0.8538    1.1550 O   0  0  0  0  0  0  0  0  0  0  0  0
    1.9762   -0.8035   -3.6891 C   0  0  0  0  0  0  0  0  0  0  0  0
   -1.3101   -1.7899    0.5460 C   0  0  0  0  0  0  0  0  0  0  0  0
   -2.6741   -0.0876    1.3160 C   0  0  0  0  0  0  0  0  0  0  0  0
    0.7618    2.9213   -1.6127 C   0  0  0  0  0  0  0  0  0  0  0  0
    2.9361    2.1970   -3.1825 C   0  0  0  0  0  0  0  0  0  0  0  0
    2.4215   -0.6586   -5.0133 C   0  0  0  0  0  0  0  0  0  0  0  0
    0.7063   -1.3500   -3.4616 C   0  0  0  0  0  0  0  0  0  0  0  0
   -3.5643   -0.9993    0.4673 C   0  0  0  0  0  0  0  0  0  0  0  0
   -2.5944   -1.9400   -0.2462 C   0  0  0  0  0  0  0  0  0  0  0  0
    1.3177    3.8433   -2.4979 C   0  0  0  0  0  0  0  0  0  0  0  0
    2.4139    3.4845   -3.2801 C   0  0  0  0  0  0  0  0  0  0  0  0
   -0.1206   -1.6943   -4.5291 C   0  0  0  0  0  0  0  0  0  0  0  0
    1.5913   -1.0040   -6.0829 C   0  0  0  0  0  0  0  0  0  0  0  0
    0.3149   -1.5052   -5.8405 C   0  0  0  0  0  0  0  0  0  0  0  0
   -0.4146    0.7708   -0.7033 H   0  0  0  0  0  0  0  0  0  0  0  0
    0.1263   -0.6110    2.3102 H   0  0  0  0  0  0  0  0  0  0  0  0
   -0.5216    1.0368    2.1526 H   0  0  0  0  0  0  0  0  0  0  0  0
    3.8377   -0.2751   -2.7396 H   0  0  0  0  0  0  0  0  0  0  0  0
    2.6124   -0.8060   -1.6193 H   0  0  0  0  0  0  0  0  0  0  0  0
   -1.3699   -2.3539    1.4877 H   0  0  0  0  0  0  0  0  0  0  0  0
   -0.4342   -2.1243   -0.0154 H   0  0  0  0  0  0  0  0  0  0  0  0
   -2.9634    0.9622    1.2099 H   0  0  0  0  0  0  0  0  0  0  0  0
   -2.7524   -0.3681    2.3740 H   0  0  0  0  0  0  0  0  0  0  0  0
   -0.0944    3.2213   -1.0122 H   0  0  0  0  0  0  0  0  0  0  0  0
    3.7543    1.9160   -3.8426 H   0  0  0  0  0  0  0  0  0  0  0  0
    3.3965   -0.2293   -5.2214 H   0  0  0  0  0  0  0  0  0  0  0  0
    0.3321   -1.4584   -2.4468 H   0  0  0  0  0  0  0  0  0  0  0  0
   -4.1522   -0.4317   -0.2622 H   0  0  0  0  0  0  0  0  0  0  0  0
   -4.2584   -1.5623    1.1007 H   0  0  0  0  0  0  0  0  0  0  0  0
   -2.4364   -1.5939   -1.2765 H   0  0  0  0  0  0  0  0  0  0  0  0
   -2.9587   -2.9699   -0.2886 H   0  0  0  0  0  0  0  0  0  0  0  0
    0.8874    4.8337   -2.5981 H   0  0  0  0  0  0  0  0  0  0  0  0
    2.8372    4.1888   -3.9918 H   0  0  0  0  0  0  0  0  0  0  0  0
   -1.1192   -2.0744   -4.3373 H   0  0  0  0  0  0  0  0  0  0  0  0
    1.9262   -0.8461   -7.1059 H   0  0  0  0  0  0  0  0  0  0  0  0
   -0.3470   -1.7368   -6.6707 H   0  0  0  0  0  0  0  0  0  0  0  0
  2  1  1  0  0  0  0
  2 23  1  0  0  0  0
  3  2  1  0  0  0  0
  4  6  1  0  0  0  0
  5  3  1  0  0  0  0
  6  1  1  0  0  0  0
  6 24  1  0  0  0  0
  6 25  1  0  0  0  0
  7  5  1  0  0  0  0
  7 26  1  0  0  0  0
  7 27  1  0  0  0  0
  8  1  2  0  0  0  0
  9  7  1  0  0  0  0
 10  4  1  0  0  0  0
 10 28  1  0  0  0  0
 10 29  1  0  0  0  0
 11  4  1  0  0  0  0
 11 30  1  0  0  0  0
 11 31  1  0  0  0  0
 12  3  2  0  0  0  0
 12 32  1  0  0  0  0
 13  5  2  0  0  0  0
 13 33  1  0  0  0  0
 14  9  2  0  0  0  0
 14 34  1  0  0  0  0
 15  9  1  0  0  0  0
 15 35  1  0  0  0  0
 16 11  1  0  0  0  0
 16 36  1  0  0  0  0
 16 37  1  0  0  0  0
 17 10  1  0  0  0  0
 17 16  1  0  0  0  0
 17 38  1  0  0  0  0
 17 39  1  0  0  0  0
 18 12  1  0  0  0  0
 18 40  1  0  0  0  0
 19 18  2  0  0  0  0
 19 13  1  0  0  0  0
 19 41  1  0  0  0  0
 20 15  2  0  0  0  0
 20 42  1  0  0  0  0
 21 14  1  0  0  0  0
 21 43  1  0  0  0  0
 22 20  1  0  0  0  0
 22 21  2  0  0  0  0
 22 44  1  0  0  0  0
M  END
>  <Mol_ID>
9097

>  <Formula>
C19H22N2O

>  <MolWeight>
294.39078

>  <Cat>
P3105

>  <Name>
WAY-640414

>  <Synonyms>
N/A

>  <Target>
dopamine receptor

>  <Form>
free base

>  <CAS>
748798-97-2

>  <URL>
N/A

$$$$
