WAY-639807
 OpenBabel08302521443D

 27 28  0  0  0  0  0  0  0  0999 V2000
   -5.3001    3.1271   -2.5857 N   0  0  0  0  0  0  0  0  0  0  0  0
   -4.2910    2.7142   -1.8316 N   0  0  0  0  0  0  0  0  0  0  0  0
   -4.0381    3.7343   -0.9937 N   0  0  0  0  0  0  0  0  0  0  0  0
   -5.6634    4.4109   -2.2598 N   0  0  0  0  0  0  0  0  0  0  0  0
   -4.8624    4.7764   -1.2867 C   0  0  0  0  0  0  0  0  0  0  0  0
   -2.9332    3.7377   -0.0637 C   0  0  0  0  0  0  0  0  0  0  0  0
   -2.5062    2.4311    0.5766 C   0  0  0  0  0  0  0  0  0  0  0  0
   -3.0546    1.2596    0.0955 N   0  0  0  0  0  0  0  0  0  0  0  0
   -0.9273   -1.6425    1.1744 C   0  0  0  0  0  0  0  0  0  0  0  0
   -1.4381   -2.6229    0.3163 C   0  0  0  0  0  0  0  0  0  0  0  0
   -2.5607   -0.0493    0.2912 C   0  0  0  0  0  0  0  0  0  0  0  0
   -1.5212   -0.3648    1.1683 C   0  0  0  0  0  0  0  0  0  0  0  0
   -1.6427    2.4952    1.4558 O   0  0  0  0  0  0  0  0  0  0  0  0
   -2.5272   -2.3381   -0.5089 C   0  0  0  0  0  0  0  0  0  0  0  0
   -3.0930   -1.0586   -0.5178 C   0  0  0  0  0  0  0  0  0  0  0  0
   -0.6550   -4.3477    0.1830 Br  0  0  0  0  0  0  0  0  0  0  0  0
    0.2563   -1.8808    2.0706 C   0  0  0  0  0  0  0  0  0  0  0  0
   -4.8312    5.7386   -0.7974 H   0  0  0  0  0  0  0  0  0  0  0  0
   -2.0733    4.1431   -0.6086 H   0  0  0  0  0  0  0  0  0  0  0  0
   -3.2010    4.4257    0.7448 H   0  0  0  0  0  0  0  0  0  0  0  0
   -3.7626    1.3444   -0.6346 H   0  0  0  0  0  0  0  0  0  0  0  0
   -1.1267    0.3801    1.8541 H   0  0  0  0  0  0  0  0  0  0  0  0
   -2.9328   -3.0997   -1.1719 H   0  0  0  0  0  0  0  0  0  0  0  0
   -3.9132   -0.8578   -1.1992 H   0  0  0  0  0  0  0  0  0  0  0  0
    0.0624   -2.7065    2.7614 H   0  0  0  0  0  0  0  0  0  0  0  0
    1.1457   -2.0979    1.4701 H   0  0  0  0  0  0  0  0  0  0  0  0
    0.4862   -0.9966    2.6772 H   0  0  0  0  0  0  0  0  0  0  0  0
  2  1  2  0  0  0  0
  3  2  1  0  0  0  0
  4  1  1  0  0  0  0
  5  4  2  0  0  0  0
  5  3  1  0  0  0  0
  5 18  1  0  0  0  0
  6  3  1  0  0  0  0
  6 19  1  0  0  0  0
  6 20  1  0  0  0  0
  7  6  1  0  0  0  0
  8  7  1  0  0  0  0
  8 21  1  0  0  0  0
  9 12  2  0  0  0  0
 10 14  2  0  0  0  0
 10  9  1  0  0  0  0
 11  8  1  0  0  0  0
 12 11  1  0  0  0  0
 12 22  1  0  0  0  0
 13  7  2  0  0  0  0
 14 15  1  0  0  0  0
 14 23  1  0  0  0  0
 15 11  2  0  0  0  0
 15 24  1  0  0  0  0
 16 10  1  0  0  0  0
 17  9  1  0  0  0  0
 17 25  1  0  0  0  0
 17 26  1  0  0  0  0
 17 27  1  0  0  0  0
M  END
>  <Mol_ID>
9082

>  <Formula>
C10H10BrN5O

>  <MolWeight>
296.1233

>  <Cat>
P3089

>  <Name>
WAY-639807

>  <Synonyms>
N/A

>  <Target>
Androgen Receptor

>  <Form>
free base

>  <CAS>
791127-56-5

>  <URL>
N/A

$$$$
