WAY-115654
 OpenBabel08302521403D

 42 44  0  0  0  0  0  0  0  0999 V2000
   -0.2489    1.3155    0.3924 C   0  0  0  0  0  0  0  0  0  0  0  0
    0.1952    2.6543    0.2987 N   0  0  0  0  0  0  0  0  0  0  0  0
   -0.8923    0.6228    1.8137 S   0  0  0  0  0  0  0  0  0  0  0  0
   -0.0577    0.4790   -0.5979 N   0  0  0  0  0  0  0  0  0  0  0  0
   -1.0834    3.7096   -0.0409 S   0  0  0  0  0  0  0  0  0  0  0  0
   -0.9972   -0.8552    0.9370 C   0  0  0  0  0  0  0  0  0  0  0  0
   -0.5373   -0.7820   -0.2963 N   0  0  0  0  0  0  0  0  0  0  0  0
   -1.0665    4.7619    1.3894 C   0  0  0  0  0  0  0  0  0  0  0  0
   -0.6450    4.5008   -1.1720 O   0  0  0  0  0  0  0  0  0  0  0  0
   -2.3520    3.0149   -0.0574 O   0  0  0  0  0  0  0  0  0  0  0  0
   -1.5508   -2.0886    1.5691 C   0  0  0  0  0  0  0  0  0  0  0  0
   -0.2361    5.8772    1.4078 C   0  0  0  0  0  0  0  0  0  0  0  0
   -1.9399    4.5138    2.4537 C   0  0  0  0  0  0  0  0  0  0  0  0
   -3.0699   -2.1147    1.5154 C   0  0  0  0  0  0  0  0  0  0  0  0
   -0.2778    6.7402    2.5030 C   0  0  0  0  0  0  0  0  0  0  0  0
   -1.9704    5.3876    3.5502 C   0  0  0  0  0  0  0  0  0  0  0  0
   -1.1513    6.5270    3.5757 C   0  0  0  0  0  0  0  0  0  0  0  0
   -1.2478    7.4118    4.6771 N   0  0  0  0  0  0  0  0  0  0  0  0
   -0.7603    8.7129    4.6829 C   0  0  0  0  0  0  0  0  0  0  0  0
   -0.8758    9.4983    5.9425 C   0  0  0  0  0  0  0  0  0  0  0  0
   -0.2732    9.2920    3.7151 O   0  0  0  0  0  0  0  0  0  0  0  0
   -0.8678    8.9276    7.2198 C   0  0  0  0  0  0  0  0  0  0  0  0
   -0.8802   10.8987    5.8158 C   0  0  0  0  0  0  0  0  0  0  0  0
   -0.8511    9.7574    8.3486 C   0  0  0  0  0  0  0  0  0  0  0  0
   -0.8616   11.7203    6.9408 C   0  0  0  0  0  0  0  0  0  0  0  0
   -0.8416   11.1484    8.2083 C   0  0  0  0  0  0  0  0  0  0  0  0
    0.8401    2.7402   -0.4892 H   0  0  0  0  0  0  0  0  0  0  0  0
   -1.1566   -2.9678    1.0457 H   0  0  0  0  0  0  0  0  0  0  0  0
   -1.2152   -2.1679    2.6099 H   0  0  0  0  0  0  0  0  0  0  0  0
    0.4324    6.1001    0.5801 H   0  0  0  0  0  0  0  0  0  0  0  0
   -2.6133    3.6600    2.4261 H   0  0  0  0  0  0  0  0  0  0  0  0
   -3.4295   -2.0690    0.4819 H   0  0  0  0  0  0  0  0  0  0  0  0
   -3.4497   -3.0356    1.9689 H   0  0  0  0  0  0  0  0  0  0  0  0
   -3.5026   -1.2678    2.0588 H   0  0  0  0  0  0  0  0  0  0  0  0
    0.4016    7.5892    2.4848 H   0  0  0  0  0  0  0  0  0  0  0  0
   -2.6701    5.1835    4.3565 H   0  0  0  0  0  0  0  0  0  0  0  0
   -1.8357    7.1253    5.4494 H   0  0  0  0  0  0  0  0  0  0  0  0
   -0.8225    7.8523    7.3613 H   0  0  0  0  0  0  0  0  0  0  0  0
   -0.8702   11.3554    4.8271 H   0  0  0  0  0  0  0  0  0  0  0  0
   -0.8178    9.3238    9.3456 H   0  0  0  0  0  0  0  0  0  0  0  0
   -0.8399   12.8003    6.8200 H   0  0  0  0  0  0  0  0  0  0  0  0
   -0.8022   11.7886    9.0866 H   0  0  0  0  0  0  0  0  0  0  0  0
  1  2  1  0  0  0  0
  1  3  1  0  0  0  0
  1  4  2  0  0  0  0
  2  5  1  0  0  0  0
  2 27  1  0  0  0  0
  3  6  1  0  0  0  0
  4  7  1  0  0  0  0
  5  8  1  0  0  0  0
  5  9  2  0  0  0  0
  5 10  2  0  0  0  0
  6 11  1  0  0  0  0
  6  7  2  0  0  0  0
  8 12  2  0  0  0  0
  8 13  1  0  0  0  0
 11 14  1  0  0  0  0
 11 28  1  0  0  0  0
 11 29  1  0  0  0  0
 12 15  1  0  0  0  0
 12 30  1  0  0  0  0
 13 16  2  0  0  0  0
 13 31  1  0  0  0  0
 14 32  1  0  0  0  0
 14 33  1  0  0  0  0
 14 34  1  0  0  0  0
 15 17  2  0  0  0  0
 15 35  1  0  0  0  0
 16 17  1  0  0  0  0
 16 36  1  0  0  0  0
 17 18  1  0  0  0  0
 18 19  1  0  0  0  0
 18 37  1  0  0  0  0
 19 20  1  0  0  0  0
 19 21  2  0  0  0  0
 20 22  2  0  0  0  0
 20 23  1  0  0  0  0
 22 24  1  0  0  0  0
 22 38  1  0  0  0  0
 23 25  2  0  0  0  0
 23 39  1  0  0  0  0
 24 26  2  0  0  0  0
 24 40  1  0  0  0  0
 25 26  1  0  0  0  0
 25 41  1  0  0  0  0
 26 42  1  0  0  0  0
M  END
>  <Mol_ID>
8295

>  <Formula>
C17H16N4O3S2

>  <MolWeight>
388.46394

>  <Cat>
P2047

>  <Name>
WAY-115654

>  <Synonyms>
N/A

>  <Target>
sodium channels

>  <Form>
free base

>  <CAS>
313225-77-3

>  <URL>
N/A

$$$$
