WAY-311499
 OpenBabel08302521393D

 38 40  0  0  0  0  0  0  0  0999 V2000
    1.2932    0.2127   -0.0469 N   0  0  0  0  0  0  0  0  0  0  0  0
    0.2745    1.1320    0.0356 C   0  0  0  0  0  0  0  0  0  0  0  0
   -0.9478    0.5897    0.1676 N   0  0  0  0  0  0  0  0  0  0  0  0
    0.6502   -0.9275    0.0595 C   0  0  0  0  0  0  0  0  0  0  0  0
   -0.6973   -0.7795    0.1977 O   0  0  0  0  0  0  0  0  0  0  0  0
    0.5261    2.5608   -0.0355 C   0  0  0  0  0  0  0  0  0  0  0  0
    2.7753   -6.1298    0.7066 C   0  0  0  0  0  0  0  0  0  0  0  0
    3.1728   -6.4427    2.0103 C   0  0  0  0  0  0  0  0  0  0  0  0
    2.2226   -4.8689    0.4446 C   0  0  0  0  0  0  0  0  0  0  0  0
    1.1625   -2.3110   -0.0014 C   0  0  0  0  0  0  0  0  0  0  0  0
   -0.4669    3.4416   -0.4839 C   0  0  0  0  0  0  0  0  0  0  0  0
    1.7712    3.0742    0.3444 C   0  0  0  0  0  0  0  0  0  0  0  0
    3.0155   -5.5119    3.0371 C   0  0  0  0  0  0  0  0  0  0  0  0
    2.0604   -3.9335    1.4707 C   0  0  0  0  0  0  0  0  0  0  0  0
    1.5254   -2.6842    1.3271 O   0  0  0  0  0  0  0  0  0  0  0  0
    1.0294    5.3192   -0.1839 C   0  0  0  0  0  0  0  0  0  0  0  0
    2.4585   -4.2631    2.7659 C   0  0  0  0  0  0  0  0  0  0  0  0
    2.0138    4.4497    0.2836 C   0  0  0  0  0  0  0  0  0  0  0  0
   -0.2156    4.8163   -0.5610 C   0  0  0  0  0  0  0  0  0  0  0  0
    1.3776    6.6399   -0.1868 O   0  0  0  0  0  0  0  0  0  0  0  0
    2.9362   -7.1286   -0.4002 C   0  0  0  0  0  0  0  0  0  0  0  0
    0.7344    7.4424   -1.1721 C   0  0  0  0  0  0  0  0  0  0  0  0
    3.6064   -7.4152    2.2316 H   0  0  0  0  0  0  0  0  0  0  0  0
    1.9254   -4.6485   -0.5756 H   0  0  0  0  0  0  0  0  0  0  0  0
    0.3812   -2.9755   -0.3891 H   0  0  0  0  0  0  0  0  0  0  0  0
    2.0387   -2.3343   -0.6601 H   0  0  0  0  0  0  0  0  0  0  0  0
   -1.4444    3.0661   -0.7787 H   0  0  0  0  0  0  0  0  0  0  0  0
    2.5581    2.4107    0.7011 H   0  0  0  0  0  0  0  0  0  0  0  0
    3.3256   -5.7600    4.0486 H   0  0  0  0  0  0  0  0  0  0  0  0
    2.3365   -3.5402    3.5696 H   0  0  0  0  0  0  0  0  0  0  0  0
    2.9794    4.8402    0.5953 H   0  0  0  0  0  0  0  0  0  0  0  0
   -1.0169    5.4653   -0.8965 H   0  0  0  0  0  0  0  0  0  0  0  0
    3.9933   -7.3779   -0.5336 H   0  0  0  0  0  0  0  0  0  0  0  0
    2.3724   -8.0383   -0.1713 H   0  0  0  0  0  0  0  0  0  0  0  0
    2.5620   -6.7364   -1.3526 H   0  0  0  0  0  0  0  0  0  0  0  0
    0.8984    7.0340   -2.1752 H   0  0  0  0  0  0  0  0  0  0  0  0
   -0.3334    7.5593   -0.9637 H   0  0  0  0  0  0  0  0  0  0  0  0
    1.1858    8.4385   -1.1361 H   0  0  0  0  0  0  0  0  0  0  0  0
  2  1  1  0  0  0  0
  3  2  2  0  0  0  0
  4  1  2  0  0  0  0
  5  4  1  0  0  0  0
  5  3  1  0  0  0  0
  6  2  1  0  0  0  0
  7  9  2  0  0  0  0
  8 13  2  0  0  0  0
  8  7  1  0  0  0  0
  8 23  1  0  0  0  0
  9 14  1  0  0  0  0
  9 24  1  0  0  0  0
 10  4  1  0  0  0  0
 10 25  1  0  0  0  0
 10 26  1  0  0  0  0
 11  6  2  0  0  0  0
 11 27  1  0  0  0  0
 12  6  1  0  0  0  0
 12 28  1  0  0  0  0
 13 17  1  0  0  0  0
 13 29  1  0  0  0  0
 14 15  1  0  0  0  0
 15 10  1  0  0  0  0
 16 18  1  0  0  0  0
 16 19  2  0  0  0  0
 17 14  2  0  0  0  0
 17 30  1  0  0  0  0
 18 12  2  0  0  0  0
 18 31  1  0  0  0  0
 19 11  1  0  0  0  0
 19 32  1  0  0  0  0
 20 16  1  0  0  0  0
 21  7  1  0  0  0  0
 21 33  1  0  0  0  0
 21 34  1  0  0  0  0
 21 35  1  0  0  0  0
 22 20  1  0  0  0  0
 22 36  1  0  0  0  0
 22 37  1  0  0  0  0
 22 38  1  0  0  0  0
M  END
>  <Mol_ID>
8031

>  <Formula>
C17H15ClN2O3

>  <MolWeight>
330.7656

>  <Cat>
P2205

>  <Name>
WAY-311499

>  <Synonyms>
N/A

>  <Target>
others

>  <Form>
free base

>  <CAS>
421584-03-4

>  <URL>
N/A

$$$$
