WAY-638544
 OpenBabel08302521433D

 37 40  0  0  0  0  0  0  0  0999 V2000
    1.3161   -0.7883    0.5326 C   0  0  0  0  0  0  0  0  0  0  0  0
    0.8138    0.3961    0.0273 C   0  0  0  0  0  0  0  0  0  0  0  0
    2.5945   -1.1990    0.4766 N   0  0  0  0  0  0  0  0  0  0  0  0
    0.2786   -1.4786    1.0901 N   0  0  0  0  0  0  0  0  0  0  0  0
    1.6511    1.2703   -0.5852 N   0  0  0  0  0  0  0  0  0  0  0  0
   -0.5896    0.4118    0.2670 C   0  0  0  0  0  0  0  0  0  0  0  0
    3.3613   -0.2938   -0.1687 C   0  0  0  0  0  0  0  0  0  0  0  0
   -0.9007   -0.7846    0.9276 C   0  0  0  0  0  0  0  0  0  0  0  0
    2.9349    0.8930   -0.6805 N   0  0  0  0  0  0  0  0  0  0  0  0
    5.4821    2.9219    3.5241 C   0  0  0  0  0  0  0  0  0  0  0  0
    6.3363    3.2967    2.4782 C   0  0  0  0  0  0  0  0  0  0  0  0
    5.0652   -0.7696   -0.4161 S   0  0  0  0  0  0  0  0  0  0  0  0
    4.6909    1.8415    3.4433 F   0  0  0  0  0  0  0  0  0  0  0  0
   -1.6374    1.3098   -0.0255 C   0  0  0  0  0  0  0  0  0  0  0  0
    6.4915    2.6498    1.2725 O   0  0  0  0  0  0  0  0  0  0  0  0
   -2.2058   -1.1234    1.3029 C   0  0  0  0  0  0  0  0  0  0  0  0
    5.4180    3.6566    4.7054 C   0  0  0  0  0  0  0  0  0  0  0  0
    7.1273    4.4374    2.6455 C   0  0  0  0  0  0  0  0  0  0  0  0
    5.9273    0.8372   -0.2543 C   0  0  0  0  0  0  0  0  0  0  0  0
    5.6935    1.4710    1.1126 C   0  0  0  0  0  0  0  0  0  0  0  0
   -2.9487    0.9800    0.3404 C   0  0  0  0  0  0  0  0  0  0  0  0
   -3.2262   -0.2194    0.9930 C   0  0  0  0  0  0  0  0  0  0  0  0
    7.0673    5.1774    3.8331 C   0  0  0  0  0  0  0  0  0  0  0  0
    6.2133    4.7862    4.8633 C   0  0  0  0  0  0  0  0  0  0  0  0
    0.3717   -2.3848    1.5281 H   0  0  0  0  0  0  0  0  0  0  0  0
   -1.4320    2.2445   -0.5408 H   0  0  0  0  0  0  0  0  0  0  0  0
   -2.4306   -2.0591    1.8088 H   0  0  0  0  0  0  0  0  0  0  0  0
    4.7436    3.3333    5.4920 H   0  0  0  0  0  0  0  0  0  0  0  0
    7.7972    4.7567    1.8505 H   0  0  0  0  0  0  0  0  0  0  0  0
    6.9997    0.6457   -0.3854 H   0  0  0  0  0  0  0  0  0  0  0  0
    5.6396    1.5132   -1.0656 H   0  0  0  0  0  0  0  0  0  0  0  0
    4.6395    1.7520    1.1970 H   0  0  0  0  0  0  0  0  0  0  0  0
    5.9742    0.7482    1.8882 H   0  0  0  0  0  0  0  0  0  0  0  0
   -3.7599    1.6665    0.1077 H   0  0  0  0  0  0  0  0  0  0  0  0
   -4.2532   -0.4576    1.2642 H   0  0  0  0  0  0  0  0  0  0  0  0
    7.6889    6.0612    3.9549 H   0  0  0  0  0  0  0  0  0  0  0  0
    6.1660    5.3577    5.7861 H   0  0  0  0  0  0  0  0  0  0  0  0
  2  1  1  0  0  0  0
  3  1  2  0  0  0  0
  4  1  1  0  0  0  0
  4 25  1  0  0  0  0
  5  2  2  0  0  0  0
  5  9  1  0  0  0  0
  6  2  1  0  0  0  0
  7  3  1  0  0  0  0
  8  4  1  0  0  0  0
  8  6  2  0  0  0  0
  9  7  2  0  0  0  0
 10 11  2  0  0  0  0
 11 15  1  0  0  0  0
 12  7  1  0  0  0  0
 13 10  1  0  0  0  0
 14  6  1  0  0  0  0
 14 26  1  0  0  0  0
 15 20  1  0  0  0  0
 16  8  1  0  0  0  0
 16 27  1  0  0  0  0
 17 10  1  0  0  0  0
 17 28  1  0  0  0  0
 18 11  1  0  0  0  0
 18 29  1  0  0  0  0
 19 12  1  0  0  0  0
 19 30  1  0  0  0  0
 19 31  1  0  0  0  0
 20 19  1  0  0  0  0
 20 32  1  0  0  0  0
 20 33  1  0  0  0  0
 21 14  2  0  0  0  0
 21 34  1  0  0  0  0
 22 16  2  0  0  0  0
 22 21  1  0  0  0  0
 22 35  1  0  0  0  0
 23 18  2  0  0  0  0
 23 36  1  0  0  0  0
 24 23  1  0  0  0  0
 24 17  2  0  0  0  0
 24 37  1  0  0  0  0
M  END
>  <Mol_ID>
8780

>  <Formula>
C17H13FN4OS

>  <MolWeight>
340.3747232

>  <Cat>
P3044

>  <Name>
WAY-638544

>  <Synonyms>
N/A

>  <Target>
MCL-1

>  <Form>
free base

>  <CAS>
796065-72-0

>  <URL>
N/A

$$$$
