WAY-325092
 OpenBabel08302521423D

 54 58  0  0  0  0  0  0  0  0999 V2000
    1.3291   -0.4895   -1.0116 N   0  0  0  0  0  0  0  0  0  0  0  0
    0.8275   -0.6011    0.2588 C   0  0  0  0  0  0  0  0  0  0  0  0
    0.7443    0.5562   -1.6849 C   0  0  0  0  0  0  0  0  0  0  0  0
    2.3779   -1.3240   -1.5955 C   0  0  3  0  0  0  0  0  0  0  0  0
    3.7429   -0.6285   -1.3622 C   0  0  0  0  0  0  0  0  0  0  0  0
   -0.2037    0.4252    0.3935 C   0  0  0  0  0  0  0  0  0  0  0  0
   -0.2397    1.1467   -0.7808 C   0  0  0  0  0  0  0  0  0  0  0  0
    4.2307    0.2280   -2.3539 N   0  0  0  0  0  0  0  0  0  0  0  0
    5.4298    2.0148   -4.4079 N   0  0  0  0  0  0  0  0  0  0  0  0
    7.5525    0.6679   -8.6361 C   0  0  0  0  0  0  0  0  0  0  0  0
    1.0937   -1.3820    1.1452 O   0  0  0  0  0  0  0  0  0  0  0  0
    0.9373    0.9506   -2.8226 O   0  0  0  0  0  0  0  0  0  0  0  0
    7.0641    1.7749   -9.2890 C   0  0  0  0  0  0  0  0  0  0  0  0
    8.3784   -0.0744   -9.4236 O   0  0  0  0  0  0  0  0  0  0  0  0
    7.5372    1.8710  -10.5618 O   0  0  0  0  0  0  0  0  0  0  0  0
    4.3263   -0.7380   -0.2798 O   0  0  0  0  0  0  0  0  0  0  0  0
    8.5205    0.8148  -10.5505 C   0  0  0  0  0  0  0  0  0  0  0  0
    7.2810    0.4252   -7.3071 C   0  0  0  0  0  0  0  0  0  0  0  0
    5.5169    0.8907   -2.1138 C   0  0  0  0  0  0  0  0  0  0  0  0
    3.8741    0.0966   -3.7707 C   0  0  0  0  0  0  0  0  0  0  0  0
    6.5338    1.3819   -6.5963 C   0  0  0  0  0  0  0  0  0  0  0  0
    6.5187    1.2935   -5.0775 C   0  0  0  0  0  0  0  0  0  0  0  0
    6.2449    2.6833   -8.6586 C   0  0  0  0  0  0  0  0  0  0  0  0
    4.1165    1.3727   -4.5926 C   0  0  0  0  0  0  0  0  0  0  0  0
    5.6914    2.1693   -2.9590 C   0  0  0  0  0  0  0  0  0  0  0  0
    5.9972    2.4928   -7.2936 C   0  0  0  0  0  0  0  0  0  0  0  0
    2.3920   -2.7627   -1.0790 C   0  0  0  0  0  0  0  0  0  0  0  0
   -1.0663    0.6810    1.4407 C   0  0  0  0  0  0  0  0  0  0  0  0
   -1.1213    2.1930   -0.9664 C   0  0  0  0  0  0  0  0  0  0  0  0
   -2.0013    2.4820    0.0823 C   0  0  0  0  0  0  0  0  0  0  0  0
   -1.9798    1.7249    1.2723 C   0  0  0  0  0  0  0  0  0  0  0  0
    2.1601   -1.4115   -2.6580 H   0  0  0  0  0  0  0  0  0  0  0  0
    8.4375    0.2381  -11.4769 H   0  0  0  0  0  0  0  0  0  0  0  0
    9.5213    1.2667  -10.5084 H   0  0  0  0  0  0  0  0  0  0  0  0
    7.7117   -0.4404   -6.8155 H   0  0  0  0  0  0  0  0  0  0  0  0
    5.6150    1.1471   -1.0519 H   0  0  0  0  0  0  0  0  0  0  0  0
    6.3072    0.1646   -2.3442 H   0  0  0  0  0  0  0  0  0  0  0  0
    4.4593   -0.7426   -4.1633 H   0  0  0  0  0  0  0  0  0  0  0  0
    2.8272   -0.1629   -3.8956 H   0  0  0  0  0  0  0  0  0  0  0  0
    7.4710    1.7508   -4.7743 H   0  0  0  0  0  0  0  0  0  0  0  0
    6.5570    0.2433   -4.7653 H   0  0  0  0  0  0  0  0  0  0  0  0
    5.8617    3.5508   -9.1837 H   0  0  0  0  0  0  0  0  0  0  0  0
    3.3520    2.1098   -4.3131 H   0  0  0  0  0  0  0  0  0  0  0  0
    3.9299    1.1489   -5.6493 H   0  0  0  0  0  0  0  0  0  0  0  0
    4.9962    2.9294   -2.5789 H   0  0  0  0  0  0  0  0  0  0  0  0
    6.6940    2.5848   -2.7967 H   0  0  0  0  0  0  0  0  0  0  0  0
    5.4189    3.2435   -6.7568 H   0  0  0  0  0  0  0  0  0  0  0  0
    2.7078   -2.8387   -0.0345 H   0  0  0  0  0  0  0  0  0  0  0  0
    1.3968   -3.2130   -1.1704 H   0  0  0  0  0  0  0  0  0  0  0  0
    3.0904   -3.3679   -1.6675 H   0  0  0  0  0  0  0  0  0  0  0  0
   -1.0419    0.0816    2.3460 H   0  0  0  0  0  0  0  0  0  0  0  0
   -1.1372    2.7607   -1.8922 H   0  0  0  0  0  0  0  0  0  0  0  0
   -2.7194    3.2934   -0.0212 H   0  0  0  0  0  0  0  0  0  0  0  0
   -2.6879    1.9524    2.0670 H   0  0  0  0  0  0  0  0  0  0  0  0
  2  1  1  0  0  0  0
  3  1  1  0  0  0  0
  4  1  1  0  0  0  0
  4 32  1  0  0  0  0
  5  4  1  0  0  0  0
  6  2  1  0  0  0  0
  7  3  1  0  0  0  0
  7  6  2  0  0  0  0
  8  5  1  0  0  0  0
  9 24  1  0  0  0  0
  9 25  1  0  0  0  0
 10 18  2  0  0  0  0
 10 13  1  0  0  0  0
 11  2  2  0  0  0  0
 12  3  2  0  0  0  0
 13 23  2  0  0  0  0
 14 10  1  0  0  0  0
 15 13  1  0  0  0  0
 15 17  1  0  0  0  0
 16  5  2  0  0  0  0
 17 14  1  0  0  0  0
 17 33  1  0  0  0  0
 17 34  1  0  0  0  0
 18 21  1  0  0  0  0
 18 35  1  0  0  0  0
 19  8  1  0  0  0  0
 19 36  1  0  0  0  0
 19 37  1  0  0  0  0
 20  8  1  0  0  0  0
 20 38  1  0  0  0  0
 20 39  1  0  0  0  0
 21 22  1  0  0  0  0
 22  9  1  0  0  0  0
 22 40  1  0  0  0  0
 22 41  1  0  0  0  0
 23 26  1  0  0  0  0
 23 42  1  0  0  0  0
 24 20  1  0  0  0  0
 24 43  1  0  0  0  0
 24 44  1  0  0  0  0
 25 19  1  0  0  0  0
 25 45  1  0  0  0  0
 25 46  1  0  0  0  0
 26 21  2  0  0  0  0
 26 47  1  0  0  0  0
 27  4  1  0  0  0  0
 27 48  1  0  0  0  0
 27 49  1  0  0  0  0
 27 50  1  0  0  0  0
 28  6  1  0  0  0  0
 28 51  1  0  0  0  0
 29  7  1  0  0  0  0
 29 52  1  0  0  0  0
 30 29  2  0  0  0  0
 30 31  1  0  0  0  0
 30 53  1  0  0  0  0
 31 28  2  0  0  0  0
 31 54  1  0  0  0  0
M  END
>  <Mol_ID>
8671

>  <Formula>
C23H23N3O5

>  <MolWeight>
421.44582

>  <Cat>
P2370

>  <Name>
WAY-325092

>  <Synonyms>
N/A

>  <Target>
Others

>  <Form>
free base

>  <CAS>
510764-00-8

>  <URL>
N/A

$$$$
