WAY-325462
 OpenBabel08302521433D

 53 55  0  0  0  0  0  0  0  0999 V2000
    0.8967    1.5399    0.1154 N   0  0  0  0  0  0  0  0  0  0  0  0
    1.1809    2.1928   -1.0801 C   0  0  0  0  0  0  0  0  0  0  0  0
    0.3901    3.3851   -1.4876 C   0  0  0  0  0  0  0  0  0  0  0  0
    1.6679    0.3570    0.5008 C   0  0  0  0  0  0  0  0  0  0  0  0
    2.0760    1.8122   -1.8616 O   0  0  0  0  0  0  0  0  0  0  0  0
   -0.1563    4.2697   -0.5505 C   0  0  0  0  0  0  0  0  0  0  0  0
    0.2300    3.6696   -2.8468 C   0  0  0  0  0  0  0  0  0  0  0  0
   -3.1586    6.8519   -3.0402 O   0  0  0  0  0  0  0  0  0  0  0  0
   -0.2205    1.8307    1.0115 C   0  0  0  0  0  0  0  0  0  0  0  0
   -3.7439    8.0347   -3.4412 C   0  0  0  0  0  0  0  0  0  0  0  0
   -1.1162    5.6408   -2.2963 C   0  0  0  0  0  0  0  0  0  0  0  0
   -5.0305   10.3684   -4.4042 C   0  0  0  0  0  0  0  0  0  0  0  0
   -1.7650    6.9451   -2.6983 C   0  0  0  0  0  0  0  0  0  0  0  0
   -0.5154    4.7875   -3.2462 C   0  0  0  0  0  0  0  0  0  0  0  0
   -0.9527    5.3377   -0.9399 C   0  0  0  0  0  0  0  0  0  0  0  0
   -3.0852    9.2652   -3.4873 C   0  0  0  0  0  0  0  0  0  0  0  0
   -5.0639    7.9832   -3.8993 C   0  0  0  0  0  0  0  0  0  0  0  0
   -5.6956    9.1405   -4.4003 C   0  0  0  0  0  0  0  0  0  0  0  0
   -3.7171   10.4188   -3.9517 C   0  0  0  0  0  0  0  0  0  0  0  0
    0.7511   -0.8694    0.6684 C   0  0  3  0  0  0  0  0  0  0  0  0
   -5.7106   11.4528   -4.8930 O   0  0  0  0  0  0  0  0  0  0  0  0
   -1.1778    0.6686    1.1140 C   0  0  0  0  0  0  0  0  0  0  0  0
   -0.4333   -0.5527    1.5983 C   0  0  0  0  0  0  0  0  0  0  0  0
   -5.3266   12.7063   -4.3139 C   0  0  0  0  0  0  0  0  0  0  0  0
    1.5157   -2.0755    1.2044 C   0  0  0  0  0  0  0  0  0  0  0  0
   -6.5121   13.6501   -4.3270 C   0  0  0  0  0  0  0  0  0  0  0  0
    2.4514    0.1415   -0.2317 H   0  0  0  0  0  0  0  0  0  0  0  0
    2.1666    0.5952    1.4487 H   0  0  0  0  0  0  0  0  0  0  0  0
    0.0352    4.1517    0.5063 H   0  0  0  0  0  0  0  0  0  0  0  0
    0.7194    3.0448   -3.5903 H   0  0  0  0  0  0  0  0  0  0  0  0
    0.1947    2.1242    1.9793 H   0  0  0  0  0  0  0  0  0  0  0  0
   -0.8660    2.6278    0.6763 H   0  0  0  0  0  0  0  0  0  0  0  0
   -1.6636    7.6224   -1.8371 H   0  0  0  0  0  0  0  0  0  0  0  0
   -1.1920    7.3856   -3.5263 H   0  0  0  0  0  0  0  0  0  0  0  0
   -0.5816    5.0234   -4.3072 H   0  0  0  0  0  0  0  0  0  0  0  0
   -1.3722    5.9777   -0.1706 H   0  0  0  0  0  0  0  0  0  0  0  0
   -2.0414    9.3738   -3.2232 H   0  0  0  0  0  0  0  0  0  0  0  0
   -5.5986    7.0369   -3.9155 H   0  0  0  0  0  0  0  0  0  0  0  0
   -6.7095    9.0792   -4.7897 H   0  0  0  0  0  0  0  0  0  0  0  0
   -3.1272   11.3297   -3.9705 H   0  0  0  0  0  0  0  0  0  0  0  0
    0.3453   -1.1301   -0.3188 H   0  0  0  0  0  0  0  0  0  0  0  0
   -1.6240    0.4814    0.1295 H   0  0  0  0  0  0  0  0  0  0  0  0
   -1.9922    0.9311    1.7983 H   0  0  0  0  0  0  0  0  0  0  0  0
   -1.1223   -1.3971    1.6418 H   0  0  0  0  0  0  0  0  0  0  0  0
   -0.0691   -0.3720    2.6188 H   0  0  0  0  0  0  0  0  0  0  0  0
   -5.0114   12.5741   -3.2702 H   0  0  0  0  0  0  0  0  0  0  0  0
   -4.5109   13.1545   -4.8931 H   0  0  0  0  0  0  0  0  0  0  0  0
    1.9377   -1.8725    2.1948 H   0  0  0  0  0  0  0  0  0  0  0  0
    0.8508   -2.9415    1.2955 H   0  0  0  0  0  0  0  0  0  0  0  0
    2.3350   -2.3514    0.5333 H   0  0  0  0  0  0  0  0  0  0  0  0
   -6.8620   13.8224   -5.3498 H   0  0  0  0  0  0  0  0  0  0  0  0
   -7.3479   13.2252   -3.7615 H   0  0  0  0  0  0  0  0  0  0  0  0
   -6.2388   14.6122   -3.8810 H   0  0  0  0  0  0  0  0  0  0  0  0
  2  1  1  0  0  0  0
  3  2  1  0  0  0  0
  4  1  1  0  0  0  0
  4 27  1  0  0  0  0
  4 28  1  0  0  0  0
  5  2  2  0  0  0  0
  6  3  2  0  0  0  0
  6 29  1  0  0  0  0
  7  3  1  0  0  0  0
  7 30  1  0  0  0  0
  8 13  1  0  0  0  0
  9  1  1  0  0  0  0
  9 31  1  0  0  0  0
  9 32  1  0  0  0  0
 10  8  1  0  0  0  0
 11 14  1  0  0  0  0
 11 15  2  0  0  0  0
 12 18  2  0  0  0  0
 13 11  1  0  0  0  0
 13 33  1  0  0  0  0
 13 34  1  0  0  0  0
 14  7  2  0  0  0  0
 14 35  1  0  0  0  0
 15  6  1  0  0  0  0
 15 36  1  0  0  0  0
 16 10  1  0  0  0  0
 16 37  1  0  0  0  0
 17 10  2  0  0  0  0
 17 38  1  0  0  0  0
 18 17  1  0  0  0  0
 18 39  1  0  0  0  0
 19 16  2  0  0  0  0
 19 12  1  0  0  0  0
 19 40  1  0  0  0  0
 20  4  1  0  0  0  0
 20 23  1  0  0  0  0
 20 41  1  0  0  0  0
 21 12  1  0  0  0  0
 22  9  1  0  0  0  0
 22 42  1  0  0  0  0
 22 43  1  0  0  0  0
 23 22  1  0  0  0  0
 23 44  1  0  0  0  0
 23 45  1  0  0  0  0
 24 21  1  0  0  0  0
 24 46  1  0  0  0  0
 24 47  1  0  0  0  0
 25 20  1  0  0  0  0
 25 48  1  0  0  0  0
 25 49  1  0  0  0  0
 25 50  1  0  0  0  0
 26 24  1  0  0  0  0
 26 51  1  0  0  0  0
 26 52  1  0  0  0  0
 26 53  1  0  0  0  0
M  END
>  <Mol_ID>
8704

>  <Formula>
C22H27NO3

>  <MolWeight>
353.45468

>  <Cat>
P2403

>  <Name>
WAY-325462

>  <Synonyms>
N/A

>  <Target>
Anti-infection

>  <Form>
free base

>  <CAS>
438474-67-0

>  <URL>
N/A

$$$$
