WAY-115291
 OpenBabel08302521413D

 45 47  0  0  0  0  0  0  0  0999 V2000
   -1.2854    0.0184    0.6621 N   0  0  0  0  0  0  0  0  0  0  0  0
   -1.4172   -0.0736    2.1327 C   0  0  0  0  0  0  0  0  0  0  0  0
   -0.7707   -1.1634   -0.0424 C   0  0  0  0  0  0  0  0  0  0  0  0
   -0.6145    1.2295    0.1633 C   0  0  0  0  0  0  0  0  0  0  0  0
   -0.1348   -0.4173    2.9131 C   0  0  0  0  0  0  0  0  0  0  0  0
   -2.5733   -1.0354    2.5025 C   0  0  0  0  0  0  0  0  0  0  0  0
    0.7645   -1.2632   -0.1823 C   0  0  0  0  0  0  0  0  0  0  0  0
    0.9215    1.1523   -0.0068 C   0  0  0  0  0  0  0  0  0  0  0  0
   -0.3619   -0.5942    4.4122 C   0  0  0  0  0  0  0  0  0  0  0  0
   -2.7541   -1.1880    4.0130 C   0  0  0  0  0  0  0  0  0  0  0  0
    1.4570   -0.0529   -0.6575 N   0  0  0  0  0  0  0  0  0  0  0  0
   -1.4543   -1.6191    4.6802 C   0  0  0  0  0  0  0  0  0  0  0  0
    1.4996    0.0505   -2.1223 C   0  0  0  0  0  0  0  0  0  0  0  0
    2.2826   -1.0977   -2.7398 C   0  0  0  0  0  0  0  0  0  0  0  0
    1.6906   -1.9361   -3.6943 C   0  0  0  0  0  0  0  0  0  0  0  0
    3.5855   -1.3897   -2.2983 C   0  0  0  0  0  0  0  0  0  0  0  0
    2.3649   -3.0678   -4.1546 C   0  0  0  0  0  0  0  0  0  0  0  0
    4.2555   -2.5238   -2.7557 C   0  0  0  0  0  0  0  0  0  0  0  0
    3.6393   -3.3702   -3.6767 C   0  0  0  0  0  0  0  0  0  0  0  0
   -1.7488    0.9127    2.4880 H   0  0  0  0  0  0  0  0  0  0  0  0
   -1.1448   -2.0934    0.3969 H   0  0  0  0  0  0  0  0  0  0  0  0
   -1.1977   -1.1440   -1.0548 H   0  0  0  0  0  0  0  0  0  0  0  0
   -1.0461    1.4501   -0.8234 H   0  0  0  0  0  0  0  0  0  0  0  0
   -0.8683    2.0973    0.7841 H   0  0  0  0  0  0  0  0  0  0  0  0
    0.2865   -1.3587    2.5533 H   0  0  0  0  0  0  0  0  0  0  0  0
    0.6164    0.3649    2.7761 H   0  0  0  0  0  0  0  0  0  0  0  0
   -3.5128   -0.6691    2.0694 H   0  0  0  0  0  0  0  0  0  0  0  0
   -2.4037   -2.0339    2.0859 H   0  0  0  0  0  0  0  0  0  0  0  0
    1.2119   -1.5156    0.7801 H   0  0  0  0  0  0  0  0  0  0  0  0
    0.9896   -2.1366   -0.8052 H   0  0  0  0  0  0  0  0  0  0  0  0
    1.3844    1.2131    0.9846 H   0  0  0  0  0  0  0  0  0  0  0  0
    1.2684    2.0545   -0.5266 H   0  0  0  0  0  0  0  0  0  0  0  0
    0.5718   -0.9207    4.8841 H   0  0  0  0  0  0  0  0  0  0  0  0
   -0.6317    0.3672    4.8645 H   0  0  0  0  0  0  0  0  0  0  0  0
   -3.5353   -1.9288    4.2173 H   0  0  0  0  0  0  0  0  0  0  0  0
   -3.0921   -0.2379    4.4437 H   0  0  0  0  0  0  0  0  0  0  0  0
   -1.1471   -2.6011    4.2968 H   0  0  0  0  0  0  0  0  0  0  0  0
   -1.6047   -1.7291    5.7595 H   0  0  0  0  0  0  0  0  0  0  0  0
    0.4883    0.1020   -2.5450 H   0  0  0  0  0  0  0  0  0  0  0  0
    2.0142    0.9711   -2.4180 H   0  0  0  0  0  0  0  0  0  0  0  0
    0.6863   -1.7310   -4.0584 H   0  0  0  0  0  0  0  0  0  0  0  0
    4.0584   -0.7536   -1.5519 H   0  0  0  0  0  0  0  0  0  0  0  0
    1.8869   -3.7295   -4.8731 H   0  0  0  0  0  0  0  0  0  0  0  0
    5.2450   -2.7590   -2.3764 H   0  0  0  0  0  0  0  0  0  0  0  0
    4.1489   -4.2692   -4.0121 H   0  0  0  0  0  0  0  0  0  0  0  0
  1  2  1  0  0  0  0
  1  3  1  0  0  0  0
  1  4  1  0  0  0  0
  2  5  1  0  0  0  0
  2  6  1  0  0  0  0
  2 20  1  0  0  0  0
  3  7  1  0  0  0  0
  3 21  1  0  0  0  0
  3 22  1  0  0  0  0
  4  8  1  0  0  0  0
  4 23  1  0  0  0  0
  4 24  1  0  0  0  0
  5  9  1  0  0  0  0
  5 25  1  0  0  0  0
  5 26  1  0  0  0  0
  6 10  1  0  0  0  0
  6 27  1  0  0  0  0
  6 28  1  0  0  0  0
  7 11  1  0  0  0  0
  7 29  1  0  0  0  0
  7 30  1  0  0  0  0
  8 11  1  0  0  0  0
  8 31  1  0  0  0  0
  8 32  1  0  0  0  0
  9 12  1  0  0  0  0
  9 33  1  0  0  0  0
  9 34  1  0  0  0  0
 10 12  1  0  0  0  0
 10 35  1  0  0  0  0
 10 36  1  0  0  0  0
 11 13  1  0  0  0  0
 12 37  1  0  0  0  0
 12 38  1  0  0  0  0
 13 14  1  0  0  0  0
 13 39  1  0  0  0  0
 13 40  1  0  0  0  0
 14 15  2  0  0  0  0
 14 16  1  0  0  0  0
 15 17  1  0  0  0  0
 15 41  1  0  0  0  0
 16 18  2  0  0  0  0
 16 42  1  0  0  0  0
 17 19  2  0  0  0  0
 17 43  1  0  0  0  0
 18 19  1  0  0  0  0
 18 44  1  0  0  0  0
 19 45  1  0  0  0  0
M  END
>  <Mol_ID>
8371

>  <Formula>
C17H26N2

>  <MolWeight>
258.40174

>  <Cat>
P2046

>  <Name>
WAY-115291

>  <Synonyms>
N/A

>  <Target>
others

>  <Form>
free base

>  <CAS>
1164529-17-2

>  <URL>
N/A

$$$$
