WAY-332064
 OpenBabel08302521453D

 61 64  0  0  0  0  0  0  0  0999 V2000
   -1.4820    3.6566    2.7436 C   0  0  0  0  0  0  0  0  0  0  0  0
   -1.4695    3.0998    1.5501 N   0  0  0  0  0  0  0  0  0  0  0  0
   -0.1689    3.2213    1.1180 C   0  0  0  0  0  0  0  0  0  0  0  0
   -0.2805    4.2134    3.1033 O   0  0  0  0  0  0  0  0  0  0  0  0
    0.5587    3.9177    2.0625 C   0  0  0  0  0  0  0  0  0  0  0  0
    1.2940    5.3160   -1.4640 C   0  0  0  0  0  0  0  0  0  0  0  0
    1.7131    6.6245   -1.2849 N   0  0  0  0  0  0  0  0  0  0  0  0
    2.7360    9.2705   -1.4105 N   0  0  0  0  0  0  0  0  0  0  0  0
   -0.2018    5.0683   -1.4082 C   0  0  0  0  0  0  0  0  0  0  0  0
    3.2449   10.5245   -1.1290 C   0  0  0  0  0  0  0  0  0  0  0  0
   -0.7165    3.3395   -1.5575 S   0  0  3  0  0  0  0  0  0  0  0  0
    0.2443    2.6367   -0.1814 C   0  0  0  0  0  0  0  0  0  0  0  0
   -2.5660    3.7256    3.7207 C   0  0  0  0  0  0  0  0  0  0  0  0
    4.4255   10.9752   -1.7556 C   0  0  0  0  0  0  0  0  0  0  0  0
    2.6715   11.3888   -0.1653 C   0  0  0  0  0  0  0  0  0  0  0  0
    0.8397    7.7748   -0.9890 C   0  0  0  0  0  0  0  0  0  0  0  0
    3.1560    6.8833   -1.1363 C   0  0  0  0  0  0  0  0  0  0  0  0
    3.5989    8.1644   -1.8606 C   0  0  0  0  0  0  0  0  0  0  0  0
    1.3142    9.0512   -1.7181 C   0  0  0  0  0  0  0  0  0  0  0  0
    2.1163    4.4210   -1.6260 O   0  0  0  0  0  0  0  0  0  0  0  0
   -0.2134    2.7868   -2.8579 O   0  0  0  0  0  0  0  0  0  0  0  0
   -3.5220    2.6927    3.8532 C   0  0  0  0  0  0  0  0  0  0  0  0
    3.2324   12.6565    0.0783 C   0  0  0  0  0  0  0  0  0  0  0  0
    4.9996   12.2190   -1.4739 C   0  0  0  0  0  0  0  0  0  0  0  0
    4.3933   13.0685   -0.5641 C   0  0  0  0  0  0  0  0  0  0  0  0
    1.9566    4.3649    2.1910 C   0  0  0  0  0  0  0  0  0  0  0  0
   -2.6770    4.8590    4.5486 C   0  0  0  0  0  0  0  0  0  0  0  0
    1.4762   11.0286    0.6816 C   0  0  0  0  0  0  0  0  0  0  0  0
   -3.4984    1.4110    3.0592 C   0  0  0  0  0  0  0  0  0  0  0  0
   -4.5726    2.8418    4.7787 C   0  0  0  0  0  0  0  0  0  0  0  0
   -3.7191    4.9840    5.4703 C   0  0  0  0  0  0  0  0  0  0  0  0
   -4.6704    3.9776    5.5799 C   0  0  0  0  0  0  0  0  0  0  0  0
   -0.6811    5.6054   -2.2323 H   0  0  0  0  0  0  0  0  0  0  0  0
   -0.6001    5.4515   -0.4634 H   0  0  0  0  0  0  0  0  0  0  0  0
    1.3163    2.7308   -0.3510 H   0  0  0  0  0  0  0  0  0  0  0  0
    0.0273    1.5634   -0.1727 H   0  0  0  0  0  0  0  0  0  0  0  0
    4.9236   10.3597   -2.5001 H   0  0  0  0  0  0  0  0  0  0  0  0
   -0.1988    7.5694   -1.2573 H   0  0  0  0  0  0  0  0  0  0  0  0
    0.8749    7.9101    0.0985 H   0  0  0  0  0  0  0  0  0  0  0  0
    3.3424    6.9868   -0.0595 H   0  0  0  0  0  0  0  0  0  0  0  0
    3.7542    6.0391   -1.4903 H   0  0  0  0  0  0  0  0  0  0  0  0
    3.5020    8.0352   -2.9470 H   0  0  0  0  0  0  0  0  0  0  0  0
    4.6569    8.3296   -1.6313 H   0  0  0  0  0  0  0  0  0  0  0  0
    1.2004    8.9080   -2.8004 H   0  0  0  0  0  0  0  0  0  0  0  0
    0.6719    9.8953   -1.4576 H   0  0  0  0  0  0  0  0  0  0  0  0
    2.7703   13.3216    0.8042 H   0  0  0  0  0  0  0  0  0  0  0  0
    5.9176   12.5193   -1.9716 H   0  0  0  0  0  0  0  0  0  0  0  0
    4.8244   14.0399   -0.3436 H   0  0  0  0  0  0  0  0  0  0  0  0
    2.0002    5.4504    2.3229 H   0  0  0  0  0  0  0  0  0  0  0  0
    2.4297    3.8938    3.0581 H   0  0  0  0  0  0  0  0  0  0  0  0
    2.5428    4.1080    1.3044 H   0  0  0  0  0  0  0  0  0  0  0  0
   -1.9497    5.6663    4.4719 H   0  0  0  0  0  0  0  0  0  0  0  0
    1.5994   11.4126    1.7013 H   0  0  0  0  0  0  0  0  0  0  0  0
    0.5663   11.4605    0.2540 H   0  0  0  0  0  0  0  0  0  0  0  0
    1.3540    9.9515    0.7931 H   0  0  0  0  0  0  0  0  0  0  0  0
   -3.5869    0.5564    3.7367 H   0  0  0  0  0  0  0  0  0  0  0  0
   -4.3347    1.3939    2.3527 H   0  0  0  0  0  0  0  0  0  0  0  0
   -2.5745    1.2503    2.5003 H   0  0  0  0  0  0  0  0  0  0  0  0
   -5.3224    2.0582    4.8797 H   0  0  0  0  0  0  0  0  0  0  0  0
   -3.7904    5.8698    6.0962 H   0  0  0  0  0  0  0  0  0  0  0  0
   -5.4875    4.0711    6.2902 H   0  0  0  0  0  0  0  0  0  0  0  0
  2  1  2  0  0  0  0
  3  2  1  0  0  0  0
  3  5  2  0  0  0  0
  4  1  1  0  0  0  0
  5  4  1  0  0  0  0
  6  9  1  0  0  0  0
  7  6  1  0  0  0  0
  8 18  1  0  0  0  0
  8 19  1  0  0  0  0
  9 11  1  0  0  0  0
  9 33  1  0  0  0  0
  9 34  1  0  0  0  0
 10  8  1  0  0  0  0
 11 12  1  0  0  0  0
 12  3  1  0  0  0  0
 12 35  1  0  0  0  0
 12 36  1  0  0  0  0
 13  1  1  0  0  0  0
 14 10  2  0  0  0  0
 14 37  1  0  0  0  0
 15 10  1  0  0  0  0
 16  7  1  0  0  0  0
 16 38  1  0  0  0  0
 16 39  1  0  0  0  0
 17  7  1  0  0  0  0
 17 40  1  0  0  0  0
 17 41  1  0  0  0  0
 18 17  1  0  0  0  0
 18 42  1  0  0  0  0
 18 43  1  0  0  0  0
 19 16  1  0  0  0  0
 19 44  1  0  0  0  0
 19 45  1  0  0  0  0
 20  6  2  0  0  0  0
 21 11  2  0  0  0  0
 22 13  2  0  0  0  0
 23 15  2  0  0  0  0
 23 46  1  0  0  0  0
 24 14  1  0  0  0  0
 24 47  1  0  0  0  0
 25 23  1  0  0  0  0
 25 24  2  0  0  0  0
 25 48  1  0  0  0  0
 26  5  1  0  0  0  0
 26 49  1  0  0  0  0
 26 50  1  0  0  0  0
 26 51  1  0  0  0  0
 27 13  1  0  0  0  0
 27 52  1  0  0  0  0
 28 15  1  0  0  0  0
 28 53  1  0  0  0  0
 28 54  1  0  0  0  0
 28 55  1  0  0  0  0
 29 22  1  0  0  0  0
 29 56  1  0  0  0  0
 29 57  1  0  0  0  0
 29 58  1  0  0  0  0
 30 22  1  0  0  0  0
 30 59  1  0  0  0  0
 31 27  2  0  0  0  0
 31 60  1  0  0  0  0
 32 31  1  0  0  0  0
 32 30  2  0  0  0  0
 32 61  1  0  0  0  0
M  END
>  <Mol_ID>
9290

>  <Formula>
C25H28ClN3O3S

>  <MolWeight>
486.02612

>  <Cat>
P2707

>  <Name>
WAY-332064

>  <Synonyms>
N/A

>  <Target>
beta-catenin

>  <Form>
free base

>  <CAS>
959545-50-7

>  <URL>
N/A

$$$$
