WAY-326129
 OpenBabel08302521433D

 52 55  0  0  0  0  0  0  0  0999 V2000
    0.1753   -0.7531    0.0339 C   0  0  0  0  0  0  0  0  0  0  0  0
    0.2713    0.6434    0.0156 N   0  0  0  0  0  0  0  0  0  0  0  0
    1.4752   -1.2352   -0.0313 C   0  0  0  0  0  0  0  0  0  0  0  0
   -0.8645    1.4414    0.0103 C   0  0  0  0  0  0  0  0  0  0  0  0
   -1.0418   -1.3794    0.0961 N   0  0  0  0  0  0  0  0  0  0  0  0
    1.5608    1.0575   -0.0088 N   0  0  0  0  0  0  0  0  0  0  0  0
   -2.0791    0.8668    0.0184 C   0  0  0  0  0  0  0  0  0  0  0  0
    1.8830   -2.6307   -0.0891 C   0  0  0  0  0  0  0  0  0  0  0  0
   -2.1089   -0.6291    0.0895 C   0  0  0  0  0  0  0  0  0  0  0  0
    2.2592   -0.0673   -0.1318 C   0  0  0  0  0  0  0  0  0  0  0  0
    3.0726   -3.0035    0.5491 N   0  0  0  0  0  0  0  0  0  0  0  0
   -0.6511    2.9114   -0.0125 C   0  0  0  0  0  0  0  0  0  0  0  0
    5.9084   -3.6095    1.0472 N   0  0  0  0  0  0  0  0  0  0  0  0
   -3.4610   -1.2623    0.1474 C   0  0  0  0  0  0  0  0  0  0  0  0
    1.2244   -3.4517   -0.7196 O   0  0  0  0  0  0  0  0  0  0  0  0
    3.8558   -2.2121    1.5023 C   0  0  0  0  0  0  0  0  0  0  0  0
    3.5469   -4.3856    0.4181 C   0  0  0  0  0  0  0  0  0  0  0  0
   -3.6361   -2.5440   -0.3878 C   0  0  0  0  0  0  0  0  0  0  0  0
   -4.5510   -0.6160    0.7448 C   0  0  0  0  0  0  0  0  0  0  0  0
    5.3430   -2.2437    1.1046 C   0  0  0  0  0  0  0  0  0  0  0  0
    5.0683   -4.4342    0.1366 C   0  0  0  0  0  0  0  0  0  0  0  0
   -0.4879    3.3576   -1.2867 F   0  0  0  0  0  0  0  0  0  0  0  0
   -1.7502    3.5658    0.4658 F   0  0  0  0  0  0  0  0  0  0  0  0
   -4.8903   -3.1607   -0.3414 C   0  0  0  0  0  0  0  0  0  0  0  0
   -5.8037   -1.2329    0.7864 C   0  0  0  0  0  0  0  0  0  0  0  0
   -5.9828   -2.5089    0.2444 C   0  0  0  0  0  0  0  0  0  0  0  0
    6.0354   -4.2507    2.3662 C   0  0  0  0  0  0  0  0  0  0  0  0
   -7.3199   -3.1861    0.3059 C   0  0  0  0  0  0  0  0  0  0  0  0
    6.9089   -3.4725    3.3467 C   0  0  0  0  0  0  0  0  0  0  0  0
   -2.9900    1.4473   -0.0473 H   0  0  0  0  0  0  0  0  0  0  0  0
    3.3303    0.0124   -0.2678 H   0  0  0  0  0  0  0  0  0  0  0  0
    0.2013    3.2368    0.5900 H   0  0  0  0  0  0  0  0  0  0  0  0
    3.5159   -1.1840    1.5945 H   0  0  0  0  0  0  0  0  0  0  0  0
    3.7046   -2.6530    2.4946 H   0  0  0  0  0  0  0  0  0  0  0  0
    3.3151   -4.8966    1.3593 H   0  0  0  0  0  0  0  0  0  0  0  0
    3.0154   -4.9168   -0.3777 H   0  0  0  0  0  0  0  0  0  0  0  0
   -2.7984   -3.0690   -0.8444 H   0  0  0  0  0  0  0  0  0  0  0  0
   -4.4491    0.3597    1.2097 H   0  0  0  0  0  0  0  0  0  0  0  0
    5.4498   -1.7962    0.1065 H   0  0  0  0  0  0  0  0  0  0  0  0
    5.9287   -1.5971    1.7645 H   0  0  0  0  0  0  0  0  0  0  0  0
    5.2368   -4.0678   -0.8848 H   0  0  0  0  0  0  0  0  0  0  0  0
    5.4135   -5.4753    0.1376 H   0  0  0  0  0  0  0  0  0  0  0  0
   -5.0073   -4.1578   -0.7613 H   0  0  0  0  0  0  0  0  0  0  0  0
   -6.6351   -0.7114    1.2557 H   0  0  0  0  0  0  0  0  0  0  0  0
    5.0603   -4.4293    2.8322 H   0  0  0  0  0  0  0  0  0  0  0  0
    6.5015   -5.2343    2.2290 H   0  0  0  0  0  0  0  0  0  0  0  0
   -7.6668   -3.4317   -0.7026 H   0  0  0  0  0  0  0  0  0  0  0  0
   -7.2493   -4.1032    0.8993 H   0  0  0  0  0  0  0  0  0  0  0  0
   -8.0737   -2.5424    0.7719 H   0  0  0  0  0  0  0  0  0  0  0  0
    7.8950   -3.2629    2.9203 H   0  0  0  0  0  0  0  0  0  0  0  0
    6.4476   -2.5252    3.6430 H   0  0  0  0  0  0  0  0  0  0  0  0
    7.0523   -4.0564    4.2614 H   0  0  0  0  0  0  0  0  0  0  0  0
  2  1  1  0  0  0  0
  3  1  2  0  0  0  0
  4  2  1  0  0  0  0
  4  7  2  0  0  0  0
  5  1  1  0  0  0  0
  6  2  1  0  0  0  0
  6 10  2  0  0  0  0
  7  9  1  0  0  0  0
  7 30  1  0  0  0  0
  8  3  1  0  0  0  0
  9  5  2  0  0  0  0
 10  3  1  0  0  0  0
 10 31  1  0  0  0  0
 11  8  1  0  0  0  0
 12  4  1  0  0  0  0
 12 32  1  0  0  0  0
 13 21  1  0  0  0  0
 13 20  1  0  0  0  0
 14  9  1  0  0  0  0
 15  8  2  0  0  0  0
 16 11  1  0  0  0  0
 16 33  1  0  0  0  0
 16 34  1  0  0  0  0
 17 11  1  0  0  0  0
 17 35  1  0  0  0  0
 17 36  1  0  0  0  0
 18 14  2  0  0  0  0
 18 37  1  0  0  0  0
 19 14  1  0  0  0  0
 19 38  1  0  0  0  0
 20 16  1  0  0  0  0
 20 39  1  0  0  0  0
 20 40  1  0  0  0  0
 21 17  1  0  0  0  0
 21 41  1  0  0  0  0
 21 42  1  0  0  0  0
 22 12  1  0  0  0  0
 23 12  1  0  0  0  0
 24 18  1  0  0  0  0
 24 43  1  0  0  0  0
 25 19  2  0  0  0  0
 25 44  1  0  0  0  0
 26 25  1  0  0  0  0
 26 24  2  0  0  0  0
 27 13  1  0  0  0  0
 27 45  1  0  0  0  0
 27 46  1  0  0  0  0
 28 26  1  0  0  0  0
 28 47  1  0  0  0  0
 28 48  1  0  0  0  0
 28 49  1  0  0  0  0
 29 27  1  0  0  0  0
 29 50  1  0  0  0  0
 29 51  1  0  0  0  0
 29 52  1  0  0  0  0
M  END
>  <Mol_ID>
8896

>  <Formula>
C21H23F2N5O

>  <MolWeight>
399.4370264

>  <Cat>
P2454

>  <Name>
WAY-326129

>  <Synonyms>
N/A

>  <Target>
11¦Â-hydroxysteroid dehydrogenase type 1

>  <Form>
free base

>  <CAS>
869716-35-8

>  <URL>
N/A

$$$$
