WAY-639715
 OpenBabel08302521443D

 40 42  0  0  0  0  0  0  0  0999 V2000
   -0.8041   -0.0963   -0.0292 C   0  0  0  0  0  0  0  0  0  0  0  0
   -0.1179   -1.2227    0.1334 N   0  0  0  0  0  0  0  0  0  0  0  0
   -0.2405    1.1056   -0.1248 N   0  0  0  0  0  0  0  0  0  0  0  0
    1.8472    0.0436    0.1780 N   0  0  0  0  0  0  0  0  0  0  0  0
    1.1895   -1.1005    0.2241 C   0  0  0  0  0  0  0  0  0  0  0  0
    1.0872    1.1345    0.0387 C   0  0  0  0  0  0  0  0  0  0  0  0
   -2.1920   -0.1701   -0.1688 N   0  0  0  0  0  0  0  0  0  0  0  0
   -3.0779   -1.0682    0.4623 C   0  0  0  0  0  0  0  0  0  0  0  0
    1.0125    3.8769    0.7235 S   0  0  0  0  0  0  0  0  0  0  0  0
   -4.3305   -1.3627   -0.1119 C   0  0  0  0  0  0  0  0  0  0  0  0
    1.9200   -2.2702    0.3019 N   0  0  0  0  0  0  0  0  0  0  0  0
    1.8317    2.4508   -0.0694 C   0  0  0  0  0  0  0  0  0  0  0  0
    2.0673    5.2616    0.2844 C   0  0  0  0  0  0  0  0  0  0  0  0
    3.5687    7.5523   -0.3137 C   0  0  0  0  0  0  0  0  0  0  0  0
    4.2876    8.6443   -0.6036 F   0  0  0  0  0  0  0  0  0  0  0  0
    3.3073    5.1559   -0.3590 C   0  0  0  0  0  0  0  0  0  0  0  0
    1.6004    6.5422    0.6296 C   0  0  0  0  0  0  0  0  0  0  0  0
    2.3453    7.6858    0.3320 C   0  0  0  0  0  0  0  0  0  0  0  0
    4.0542    6.2996   -0.6609 C   0  0  0  0  0  0  0  0  0  0  0  0
   -2.7334   -1.7018    1.6704 C   0  0  0  0  0  0  0  0  0  0  0  0
   -4.7848   -0.7795   -1.4223 C   0  0  0  0  0  0  0  0  0  0  0  0
   -5.2004   -2.2592    0.5391 C   0  0  0  0  0  0  0  0  0  0  0  0
   -3.6014   -2.5932    2.3032 C   0  0  0  0  0  0  0  0  0  0  0  0
   -4.8377   -2.8715    1.7372 C   0  0  0  0  0  0  0  0  0  0  0  0
   -2.5784    0.7473   -0.3425 H   0  0  0  0  0  0  0  0  0  0  0  0
    2.8378   -2.1373   -0.0967 H   0  0  0  0  0  0  0  0  0  0  0  0
    1.3638   -3.0281   -0.0753 H   0  0  0  0  0  0  0  0  0  0  0  0
    2.8106    2.3280    0.4084 H   0  0  0  0  0  0  0  0  0  0  0  0
    1.9846    2.6574   -1.1330 H   0  0  0  0  0  0  0  0  0  0  0  0
    3.7265    4.1962   -0.6390 H   0  0  0  0  0  0  0  0  0  0  0  0
    0.6424    6.6610    1.1376 H   0  0  0  0  0  0  0  0  0  0  0  0
    1.9814    8.6738    0.5992 H   0  0  0  0  0  0  0  0  0  0  0  0
    5.0151    6.2198   -1.1611 H   0  0  0  0  0  0  0  0  0  0  0  0
   -1.7769   -1.4982    2.1466 H   0  0  0  0  0  0  0  0  0  0  0  0
   -5.1213   -1.5812   -2.0892 H   0  0  0  0  0  0  0  0  0  0  0  0
   -5.6128   -0.0842   -1.2544 H   0  0  0  0  0  0  0  0  0  0  0  0
   -3.9892   -0.2441   -1.9474 H   0  0  0  0  0  0  0  0  0  0  0  0
   -6.1666   -2.4967    0.0986 H   0  0  0  0  0  0  0  0  0  0  0  0
   -3.3051   -3.0669    3.2354 H   0  0  0  0  0  0  0  0  0  0  0  0
   -5.5150   -3.5690    2.2223 H   0  0  0  0  0  0  0  0  0  0  0  0
  2  1  2  0  0  0  0
  3  1  1  0  0  0  0
  4  6  1  0  0  0  0
  4  5  2  0  0  0  0
  5  2  1  0  0  0  0
  6  3  2  0  0  0  0
  7  1  1  0  0  0  0
  7 25  1  0  0  0  0
  8  7  1  0  0  0  0
  9 12  1  0  0  0  0
 10  8  2  0  0  0  0
 11  5  1  0  0  0  0
 11 26  1  0  0  0  0
 11 27  1  0  0  0  0
 12  6  1  0  0  0  0
 12 28  1  0  0  0  0
 12 29  1  0  0  0  0
 13  9  1  0  0  0  0
 14 18  2  0  0  0  0
 14 19  1  0  0  0  0
 15 14  1  0  0  0  0
 16 13  1  0  0  0  0
 16 30  1  0  0  0  0
 17 13  2  0  0  0  0
 17 31  1  0  0  0  0
 18 17  1  0  0  0  0
 18 32  1  0  0  0  0
 19 16  2  0  0  0  0
 19 33  1  0  0  0  0
 20  8  1  0  0  0  0
 20 34  1  0  0  0  0
 21 10  1  0  0  0  0
 21 35  1  0  0  0  0
 21 36  1  0  0  0  0
 21 37  1  0  0  0  0
 22 10  1  0  0  0  0
 22 38  1  0  0  0  0
 23 20  2  0  0  0  0
 23 39  1  0  0  0  0
 24 23  1  0  0  0  0
 24 22  2  0  0  0  0
 24 40  1  0  0  0  0
M  END
>  <Mol_ID>
9078

>  <Formula>
C17H16FN5S

>  <MolWeight>
341.4058432

>  <Cat>
P3085

>  <Name>
WAY-639715

>  <Synonyms>
N/A

>  <Target>
Others

>  <Form>
free base

>  <CAS>
795285-30-2

>  <URL>
N/A

$$$$
