WAY-324511
 OpenBabel08302521423D

 33 35  0  0  0  0  0  0  0  0999 V2000
    0.7299   -0.9124    0.0196 C   0  0  0  0  0  0  0  0  0  0  0  0
    1.1754    0.3346    0.0691 N   0  0  0  0  0  0  0  0  0  0  0  0
   -0.6354   -0.8695   -0.0325 N   0  0  0  0  0  0  0  0  0  0  0  0
   -1.1001    0.3849   -0.0411 N   0  0  0  0  0  0  0  0  0  0  0  0
    1.5411   -2.1325    0.0217 C   0  0  0  0  0  0  0  0  0  0  0  0
    0.0305    1.0942    0.0218 C   0  0  0  0  0  0  0  0  0  0  0  0
    0.0834    2.5159    0.0349 C   0  0  0  0  0  0  0  0  0  0  0  0
    1.1908    3.2741    0.1027 C   0  0  0  0  0  0  0  0  0  0  0  0
    2.9381   -2.0663    0.1668 C   0  0  0  0  0  0  0  0  0  0  0  0
    1.1694    4.7455    0.1228 C   0  0  0  0  0  0  0  0  0  0  0  0
    1.1949    7.5511    0.1971 C   0  0  0  0  0  0  0  0  0  0  0  0
    1.1998    9.4395    0.2624 Br  0  0  0  0  0  0  0  0  0  0  0  0
    3.6074   -0.8787    0.3183 O   0  0  0  0  0  0  0  0  0  0  0  0
    0.9572   -3.4016   -0.1328 C   0  0  0  0  0  0  0  0  0  0  0  0
    2.1934    5.4325    0.7886 C   0  0  0  0  0  0  0  0  0  0  0  0
    0.1758    5.4905   -0.5319 C   0  0  0  0  0  0  0  0  0  0  0  0
    0.1817    6.8874   -0.4881 C   0  0  0  0  0  0  0  0  0  0  0  0
    2.2047    6.8309    0.8306 C   0  0  0  0  0  0  0  0  0  0  0  0
    3.7234   -3.2186    0.1607 C   0  0  0  0  0  0  0  0  0  0  0  0
    1.7434   -4.5584   -0.1435 C   0  0  0  0  0  0  0  0  0  0  0  0
    3.1250   -4.4663    0.0028 C   0  0  0  0  0  0  0  0  0  0  0  0
   -1.2979   -1.6345   -0.0666 H   0  0  0  0  0  0  0  0  0  0  0  0
   -0.8910    2.9928   -0.0057 H   0  0  0  0  0  0  0  0  0  0  0  0
    2.1686    2.8029    0.1735 H   0  0  0  0  0  0  0  0  0  0  0  0
    2.9425   -0.1581    0.2635 H   0  0  0  0  0  0  0  0  0  0  0  0
   -0.1144   -3.5257   -0.2573 H   0  0  0  0  0  0  0  0  0  0  0  0
    2.9875    4.8857    1.2932 H   0  0  0  0  0  0  0  0  0  0  0  0
   -0.6160    4.9972   -1.0902 H   0  0  0  0  0  0  0  0  0  0  0  0
   -0.6059    7.4412   -0.9917 H   0  0  0  0  0  0  0  0  0  0  0  0
    3.0019    7.3434    1.3613 H   0  0  0  0  0  0  0  0  0  0  0  0
    4.8016   -3.1392    0.2740 H   0  0  0  0  0  0  0  0  0  0  0  0
    1.2759   -5.5321   -0.2705 H   0  0  0  0  0  0  0  0  0  0  0  0
    3.7365   -5.3648   -0.0097 H   0  0  0  0  0  0  0  0  0  0  0  0
  2  1  2  0  0  0  0
  3  1  1  0  0  0  0
  3 22  1  0  0  0  0
  4  3  1  0  0  0  0
  5  1  1  0  0  0  0
  6  2  1  0  0  0  0
  6  4  2  0  0  0  0
  7  6  1  0  0  0  0
  7 23  1  0  0  0  0
  8  7  2  0  0  0  0
  8 24  1  0  0  0  0
  9  5  2  0  0  0  0
 10  8  1  0  0  0  0
 11 17  2  0  0  0  0
 11 18  1  0  0  0  0
 12 11  1  0  0  0  0
 13  9  1  0  0  0  0
 13 25  1  0  0  0  0
 14  5  1  0  0  0  0
 14 26  1  0  0  0  0
 15 10  1  0  0  0  0
 15 27  1  0  0  0  0
 16 10  2  0  0  0  0
 16 28  1  0  0  0  0
 17 16  1  0  0  0  0
 17 29  1  0  0  0  0
 18 15  2  0  0  0  0
 18 30  1  0  0  0  0
 19  9  1  0  0  0  0
 19 31  1  0  0  0  0
 20 14  2  0  0  0  0
 20 32  1  0  0  0  0
 21 20  1  0  0  0  0
 21 19  2  0  0  0  0
 21 33  1  0  0  0  0
M  END
>  <Mol_ID>
8638

>  <Formula>
C16H12BrN3O

>  <MolWeight>
342.18998

>  <Cat>
P2326

>  <Name>
WAY-324511

>  <Synonyms>
N/A

>  <Target>
glucokinase

>  <Form>
free base

>  <CAS>
939052-75-2

>  <URL>
N/A

$$$$
