WAY-606376
 OpenBabel08302521433D

 37 40  0  0  0  0  0  0  0  0999 V2000
   -1.5492    2.8584    0.3001 C   0  0  0  0  0  0  0  0  0  0  0  0
    0.6774    3.7218    0.0807 C   0  0  0  0  0  0  0  0  0  0  0  0
   -0.6768    3.9093    0.2387 N   0  0  0  0  0  0  0  0  0  0  0  0
    1.4722    4.9866    0.0442 C   0  0  0  0  0  0  0  0  0  0  0  0
   -1.2979    1.5792    0.3596 N   0  0  0  0  0  0  0  0  0  0  0  0
    2.8082    7.4219    0.0488 N   0  0  0  0  0  0  0  0  0  0  0  0
    1.7700    7.1999    0.8833 C   0  0  0  0  0  0  0  0  0  0  0  0
    1.1023    5.9940    0.9365 C   0  0  0  0  0  0  0  0  0  0  0  0
   -3.1960    3.3054    0.2787 S   0  0  0  0  0  0  0  0  0  0  0  0
    1.3464    8.3418    1.6791 C   0  0  0  0  0  0  0  0  0  0  0  0
    2.5618    5.1807   -0.8439 C   0  0  0  0  0  0  0  0  0  0  0  0
    3.2059    6.4344   -0.7743 C   0  0  0  0  0  0  0  0  0  0  0  0
   -2.4791    0.8659    0.3545 C   0  0  0  0  0  0  0  0  0  0  0  0
   -3.6221    1.6415    0.2809 C   0  0  0  0  0  0  0  0  0  0  0  0
    0.2906    8.1343    2.5271 O   0  0  0  0  0  0  0  0  0  0  0  0
    1.2634    2.6549   -0.0490 O   0  0  0  0  0  0  0  0  0  0  0  0
    1.7445    9.6618    1.7580 C   0  0  0  0  0  0  0  0  0  0  0  0
    0.0213    9.3189    3.1348 C   0  0  0  0  0  0  0  0  0  0  0  0
    0.8851   10.2943    2.6935 C   0  0  0  0  0  0  0  0  0  0  0  0
    3.0380    4.2343   -1.7902 C   0  0  0  0  0  0  0  0  0  0  0  0
    4.2913    6.6831   -1.6037 C   0  0  0  0  0  0  0  0  0  0  0  0
   -2.3906   -0.6138    0.4192 C   0  0  0  0  0  0  0  0  0  0  0  0
    4.1289    4.5098   -2.6144 C   0  0  0  0  0  0  0  0  0  0  0  0
    4.7627    5.7371   -2.5159 C   0  0  0  0  0  0  0  0  0  0  0  0
   -1.0955    4.8262    0.2382 H   0  0  0  0  0  0  0  0  0  0  0  0
    0.3051    5.8493    1.6575 H   0  0  0  0  0  0  0  0  0  0  0  0
   -4.6534    1.3217    0.2403 H   0  0  0  0  0  0  0  0  0  0  0  0
    2.5489   10.1095    1.1898 H   0  0  0  0  0  0  0  0  0  0  0  0
   -0.8005    9.3079    3.8373 H   0  0  0  0  0  0  0  0  0  0  0  0
    0.8887   11.3292    2.9978 H   0  0  0  0  0  0  0  0  0  0  0  0
    2.5643    3.2599   -1.8890 H   0  0  0  0  0  0  0  0  0  0  0  0
    4.7919    7.6483   -1.5390 H   0  0  0  0  0  0  0  0  0  0  0  0
   -1.7693   -0.9896   -0.3981 H   0  0  0  0  0  0  0  0  0  0  0  0
   -1.9363   -0.9184    1.3665 H   0  0  0  0  0  0  0  0  0  0  0  0
   -3.3782   -1.0795    0.3450 H   0  0  0  0  0  0  0  0  0  0  0  0
    4.4802    3.7624   -3.3212 H   0  0  0  0  0  0  0  0  0  0  0  0
    5.6179    5.9654   -3.1455 H   0  0  0  0  0  0  0  0  0  0  0  0
  2  3  1  0  0  0  0
  3  1  1  0  0  0  0
  3 25  1  0  0  0  0
  4  2  1  0  0  0  0
  5  1  2  0  0  0  0
  6 12  2  0  0  0  0
  6  7  1  0  0  0  0
  7  8  2  0  0  0  0
  8  4  1  0  0  0  0
  8 26  1  0  0  0  0
  9  1  1  0  0  0  0
 10  7  1  0  0  0  0
 11  4  2  0  0  0  0
 12 11  1  0  0  0  0
 13  5  1  0  0  0  0
 14  9  1  0  0  0  0
 14 13  2  0  0  0  0
 14 27  1  0  0  0  0
 15 10  1  0  0  0  0
 16  2  2  0  0  0  0
 17 10  2  0  0  0  0
 17 28  1  0  0  0  0
 18 15  1  0  0  0  0
 18 19  2  0  0  0  0
 18 29  1  0  0  0  0
 19 17  1  0  0  0  0
 19 30  1  0  0  0  0
 20 11  1  0  0  0  0
 20 31  1  0  0  0  0
 21 12  1  0  0  0  0
 21 32  1  0  0  0  0
 22 13  1  0  0  0  0
 22 33  1  0  0  0  0
 22 34  1  0  0  0  0
 22 35  1  0  0  0  0
 23 20  2  0  0  0  0
 23 36  1  0  0  0  0
 24 23  1  0  0  0  0
 24 21  2  0  0  0  0
 24 37  1  0  0  0  0
M  END
>  <Mol_ID>
8716

>  <Formula>
C18H13N3O2S

>  <MolWeight>
335.37972

>  <Cat>
P2862

>  <Name>
WAY-606376

>  <Synonyms>
N/A

>  <Target>
beta2 integrin

>  <Form>
free base

>  <CAS>
522639-94-7

>  <URL>
N/A

$$$$
