WAY-606264
 OpenBabel08302521433D

 27 29  0  0  0  0  0  0  0  0999 V2000
   -2.4683   -0.0247    0.0840 C   0  0  0  0  0  0  0  0  0  0  0  0
   -1.6936   -1.5313   -0.1614 S   0  0  0  0  0  0  0  0  0  0  0  0
   -1.5366    0.9804    0.2595 C   0  0  0  0  0  0  0  0  0  0  0  0
   -3.9220    0.0385    0.0358 C   0  0  0  0  0  0  0  0  0  0  0  0
   -0.1186   -0.8483   -0.0414 C   0  0  0  0  0  0  0  0  0  0  0  0
   -0.1771    0.5324    0.1562 C   0  0  0  0  0  0  0  0  0  0  0  0
   -4.5859    1.0409    0.7230 N   0  0  0  0  0  0  0  0  0  0  0  0
   -4.2652    1.5958    1.9282 C   0  0  0  0  0  0  0  0  0  0  0  0
   -3.2179    1.3490    2.6247 N   0  0  0  0  0  0  0  0  0  0  0  0
    1.1107   -1.5258   -0.1360 C   0  0  0  0  0  0  0  0  0  0  0  0
    1.0375    1.2595    0.2195 C   0  0  0  0  0  0  0  0  0  0  0  0
   -5.3908    2.7753    2.5089 S   0  0  0  0  0  0  0  0  0  0  0  0
   -4.6210   -0.7373   -0.6214 O   0  0  0  0  0  0  0  0  0  0  0  0
    2.2828   -0.7782   -0.0707 C   0  0  0  0  0  0  0  0  0  0  0  0
    2.2601    0.5966    0.0895 C   0  0  0  0  0  0  0  0  0  0  0  0
    3.4630   -1.4043   -0.1738 F   0  0  0  0  0  0  0  0  0  0  0  0
   -3.2397    2.1737    3.8505 C   0  0  0  0  0  0  0  0  0  0  0  0
   -4.1078    3.4019    3.6183 C   0  0  0  0  0  0  0  0  0  0  0  0
   -1.8016    2.0131    0.4459 H   0  0  0  0  0  0  0  0  0  0  0  0
   -5.5589    1.1216    0.4694 H   0  0  0  0  0  0  0  0  0  0  0  0
    1.1540   -2.6012   -0.2700 H   0  0  0  0  0  0  0  0  0  0  0  0
    1.0205    2.3381    0.3552 H   0  0  0  0  0  0  0  0  0  0  0  0
    3.1935    1.1503    0.1136 H   0  0  0  0  0  0  0  0  0  0  0  0
   -2.2176    2.4786    4.0957 H   0  0  0  0  0  0  0  0  0  0  0  0
   -3.6127    1.5706    4.6842 H   0  0  0  0  0  0  0  0  0  0  0  0
   -4.5111    3.8090    4.5486 H   0  0  0  0  0  0  0  0  0  0  0  0
   -3.5432    4.1813    3.0965 H   0  0  0  0  0  0  0  0  0  0  0  0
  2  1  1  0  0  0  0
  3  1  2  0  0  0  0
  3 19  1  0  0  0  0
  4  1  1  0  0  0  0
  5  2  1  0  0  0  0
  5  6  2  0  0  0  0
  6  3  1  0  0  0  0
  7  4  1  0  0  0  0
  7 20  1  0  0  0  0
  8  7  1  0  0  0  0
  9  8  2  0  0  0  0
 10  5  1  0  0  0  0
 10 21  1  0  0  0  0
 11  6  1  0  0  0  0
 11 22  1  0  0  0  0
 12  8  1  0  0  0  0
 13  4  2  0  0  0  0
 14 10  2  0  0  0  0
 15 11  2  0  0  0  0
 15 14  1  0  0  0  0
 15 23  1  0  0  0  0
 16 14  1  0  0  0  0
 17  9  1  0  0  0  0
 17 24  1  0  0  0  0
 17 25  1  0  0  0  0
 18 12  1  0  0  0  0
 18 17  1  0  0  0  0
 18 26  1  0  0  0  0
 18 27  1  0  0  0  0
M  END
>  <Mol_ID>
8715

>  <Formula>
C12H8ClFN2OS2

>  <MolWeight>
314.7861232

>  <Cat>
P2861

>  <Name>
WAY-606264

>  <Synonyms>
N/A

>  <Target>
Anti-infection

>  <Form>
free base

>  <CAS>
750621-19-3

>  <URL>
N/A

$$$$
