WAY-620124
 OpenBabel08302521433D

 43 45  0  0  0  0  0  0  0  0999 V2000
    0.2764    4.6922   -1.8554 C   0  0  0  0  0  0  0  0  0  0  0  0
    0.9231    3.8965   -0.9431 N   0  0  0  0  0  0  0  0  0  0  0  0
    2.9953    3.8865   -2.0418 N   0  0  0  0  0  0  0  0  0  0  0  0
    1.0875    5.1259   -3.0025 C   0  0  0  0  0  0  0  0  0  0  0  0
    2.2399    3.5150   -1.0579 C   0  0  0  0  0  0  0  0  0  0  0  0
    2.4237    4.7159   -3.0348 C   0  0  0  0  0  0  0  0  0  0  0  0
    4.5168    1.1917    1.1212 C   0  0  0  0  0  0  0  0  0  0  0  0
   -0.8951    5.0264   -1.7163 O   0  0  0  0  0  0  0  0  0  0  0  0
    5.8379    0.7853    1.1277 N   0  0  0  0  0  0  0  0  0  0  0  0
    3.6970    0.8246    1.9569 O   0  0  0  0  0  0  0  0  0  0  0  0
    2.7181    2.6187    0.0702 C   0  0  0  0  0  0  0  0  0  0  0  0
    4.1703    2.1506   -0.0147 C   0  0  0  0  0  0  0  0  0  0  0  0
    0.5367    5.9290   -4.0106 C   0  0  0  0  0  0  0  0  0  0  0  0
    6.3748   -0.1472    2.1212 C   0  0  0  0  0  0  0  0  0  0  0  0
    3.2139    5.1455   -4.1017 C   0  0  0  0  0  0  0  0  0  0  0  0
    7.8390    0.1837    2.4394 C   0  0  0  0  0  0  0  0  0  0  0  0
    6.2672   -1.6071    1.6529 C   0  0  0  0  0  0  0  0  0  0  0  0
    1.3412    6.3489   -5.0667 C   0  0  0  0  0  0  0  0  0  0  0  0
    2.6810    5.9635   -5.1096 C   0  0  0  0  0  0  0  0  0  0  0  0
    6.8587   -2.5817    2.6786 C   0  0  0  0  0  0  0  0  0  0  0  0
    8.3898   -0.7502    3.5162 C   0  0  0  0  0  0  0  0  0  0  0  0
    8.2817   -2.2115    3.0916 C   0  0  0  0  0  0  0  0  0  0  0  0
    0.3680    3.6080   -0.1507 H   0  0  0  0  0  0  0  0  0  0  0  0
    6.4332    1.0601    0.3565 H   0  0  0  0  0  0  0  0  0  0  0  0
    2.5584    3.1607    1.0115 H   0  0  0  0  0  0  0  0  0  0  0  0
    2.0485    1.7491    0.0966 H   0  0  0  0  0  0  0  0  0  0  0  0
    4.3474    1.6337   -0.9644 H   0  0  0  0  0  0  0  0  0  0  0  0
    4.8451    3.0127    0.0371 H   0  0  0  0  0  0  0  0  0  0  0  0
   -0.5087    6.2270   -3.9688 H   0  0  0  0  0  0  0  0  0  0  0  0
    5.7834   -0.0341    3.0390 H   0  0  0  0  0  0  0  0  0  0  0  0
    4.2585    4.8505   -4.1487 H   0  0  0  0  0  0  0  0  0  0  0  0
    8.4496    0.0905    1.5311 H   0  0  0  0  0  0  0  0  0  0  0  0
    7.9299    1.2237    2.7723 H   0  0  0  0  0  0  0  0  0  0  0  0
    5.2195   -1.8703    1.4654 H   0  0  0  0  0  0  0  0  0  0  0  0
    6.7940   -1.7290    0.6972 H   0  0  0  0  0  0  0  0  0  0  0  0
    0.9287    6.9768   -5.8515 H   0  0  0  0  0  0  0  0  0  0  0  0
    3.3148    6.2980   -5.9279 H   0  0  0  0  0  0  0  0  0  0  0  0
    6.8537   -3.5977    2.2662 H   0  0  0  0  0  0  0  0  0  0  0  0
    6.2192   -2.5992    3.5694 H   0  0  0  0  0  0  0  0  0  0  0  0
    9.4368   -0.5031    3.7239 H   0  0  0  0  0  0  0  0  0  0  0  0
    7.8347   -0.5991    4.4505 H   0  0  0  0  0  0  0  0  0  0  0  0
    8.9656   -2.3980    2.2546 H   0  0  0  0  0  0  0  0  0  0  0  0
    8.6063   -2.8590    3.9143 H   0  0  0  0  0  0  0  0  0  0  0  0
  2  1  1  0  0  0  0
  2 23  1  0  0  0  0
  3  6  1  0  0  0  0
  4  1  1  0  0  0  0
  5  2  1  0  0  0  0
  5  3  2  0  0  0  0
  6  4  2  0  0  0  0
  7 12  1  0  0  0  0
  8  1  2  0  0  0  0
  9  7  1  0  0  0  0
  9 24  1  0  0  0  0
 10  7  2  0  0  0  0
 11  5  1  0  0  0  0
 11 25  1  0  0  0  0
 11 26  1  0  0  0  0
 12 11  1  0  0  0  0
 12 27  1  0  0  0  0
 12 28  1  0  0  0  0
 13  4  1  0  0  0  0
 13 29  1  0  0  0  0
 14  9  1  0  0  0  0
 14 30  1  0  0  0  0
 15  6  1  0  0  0  0
 15 19  2  0  0  0  0
 15 31  1  0  0  0  0
 16 14  1  0  0  0  0
 16 32  1  0  0  0  0
 16 33  1  0  0  0  0
 17 14  1  0  0  0  0
 17 34  1  0  0  0  0
 17 35  1  0  0  0  0
 18 13  2  0  0  0  0
 18 36  1  0  0  0  0
 19 18  1  0  0  0  0
 19 37  1  0  0  0  0
 20 17  1  0  0  0  0
 20 38  1  0  0  0  0
 20 39  1  0  0  0  0
 21 16  1  0  0  0  0
 21 22  1  0  0  0  0
 21 40  1  0  0  0  0
 21 41  1  0  0  0  0
 22 20  1  0  0  0  0
 22 42  1  0  0  0  0
 22 43  1  0  0  0  0
M  END
>  <Mol_ID>
8762

>  <Formula>
C17H21N3O2

>  <MolWeight>
299.36754

>  <Cat>
P2932

>  <Name>
WAY-620124

>  <Synonyms>
N/A

>  <Target>
NDH-2

>  <Form>
free base

>  <CAS>
626222-52-4

>  <URL>
N/A

$$$$
