WAY-324258-A
 OpenBabel08302521423D

 56 58  0  0  0  0  0  0  0  0999 V2000
    1.1646    0.0422    0.5373 C   0  0  0  0  0  0  0  0  0  0  0  0
    0.5068    0.7645   -0.6533 C   0  0  3  0  0  0  0  0  0  0  0  0
   -3.5462   -1.6339   -4.4415 C   0  0  0  0  0  0  0  0  0  0  0  0
   -3.4457   -0.8782   -2.1092 C   0  0  0  0  0  0  0  0  0  0  0  0
   -3.3207   -1.9102   -3.0658 C   0  0  0  0  0  0  0  0  0  0  0  0
    1.7914   -1.1703    0.3564 N   0  0  0  0  0  0  0  0  0  0  0  0
   -1.8260   -0.0302   -0.3191 N   0  0  0  0  0  0  0  0  0  0  0  0
   -0.6921    0.0164   -1.2468 C   0  0  0  0  0  0  0  0  0  0  0  0
   -2.8685   -0.9880   -0.7090 C   0  0  0  0  0  0  0  0  0  0  0  0
   -4.0953   -0.3911   -4.8144 C   0  0  0  0  0  0  0  0  0  0  0  0
    1.1932    0.5718    1.6570 O   0  0  0  0  0  0  0  0  0  0  0  0
   -4.0844    0.3074   -2.5002 C   0  0  0  0  0  0  0  0  0  0  0  0
   -4.3885    0.5586   -3.8342 C   0  0  0  0  0  0  0  0  0  0  0  0
   -3.2975   -2.5215   -5.4568 O   0  0  0  0  0  0  0  0  0  0  0  0
   -2.9298   -3.1846   -2.7190 O   0  0  0  0  0  0  0  0  0  0  0  0
    0.0356    2.1800   -0.2481 C   0  0  0  0  0  0  0  0  0  0  0  0
   -2.3031    1.2820    0.0980 C   0  0  0  0  0  0  0  0  0  0  0  0
   -4.3335    0.0844   -6.0793 O   0  0  0  0  0  0  0  0  0  0  0  0
    2.3852   -1.8587    1.4902 C   0  0  0  0  0  0  0  0  0  0  0  0
    2.1194   -1.8600   -0.8834 C   0  0  0  0  0  0  0  0  0  0  0  0
   -1.1793    2.1306    0.6837 C   0  0  0  0  0  0  0  0  0  0  0  0
   -2.1510   -3.3619   -5.3514 C   0  0  0  0  0  0  0  0  0  0  0  0
   -3.6438   -3.7851   -1.6319 C   0  0  0  0  0  0  0  0  0  0  0  0
   -4.7807   -0.8495   -7.0511 C   0  0  0  0  0  0  0  0  0  0  0  0
    3.0959   -2.9667   -0.4813 C   0  0  0  0  0  0  0  0  0  0  0  0
    3.5793   -2.5762    0.9103 C   0  0  0  0  0  0  0  0  0  0  0  0
    1.2822    0.8788   -1.4244 H   0  0  0  0  0  0  0  0  0  0  0  0
   -0.9878    0.5145   -2.1797 H   0  0  0  0  0  0  0  0  0  0  0  0
   -0.4010   -0.9980   -1.5247 H   0  0  0  0  0  0  0  0  0  0  0  0
   -2.3647   -1.9463   -0.5942 H   0  0  0  0  0  0  0  0  0  0  0  0
   -3.6867   -1.0015    0.0210 H   0  0  0  0  0  0  0  0  0  0  0  0
   -4.3208    1.0792   -1.7726 H   0  0  0  0  0  0  0  0  0  0  0  0
   -4.8354    1.5080   -4.1166 H   0  0  0  0  0  0  0  0  0  0  0  0
    0.8470    2.7414    0.2294 H   0  0  0  0  0  0  0  0  0  0  0  0
   -0.2410    2.7356   -1.1549 H   0  0  0  0  0  0  0  0  0  0  0  0
   -3.0827    1.1687    0.8606 H   0  0  0  0  0  0  0  0  0  0  0  0
   -2.7321    1.8442   -0.7347 H   0  0  0  0  0  0  0  0  0  0  0  0
    1.6428   -2.5573    1.8735 H   0  0  0  0  0  0  0  0  0  0  0  0
    2.6694   -1.1694    2.3013 H   0  0  0  0  0  0  0  0  0  0  0  0
    2.5560   -1.1523   -1.5959 H   0  0  0  0  0  0  0  0  0  0  0  0
    1.2163   -2.2996   -1.3130 H   0  0  0  0  0  0  0  0  0  0  0  0
   -0.9019    1.7332    1.6647 H   0  0  0  0  0  0  0  0  0  0  0  0
   -1.5458    3.1495    0.8609 H   0  0  0  0  0  0  0  0  0  0  0  0
   -1.4908   -3.1550   -4.5049 H   0  0  0  0  0  0  0  0  0  0  0  0
   -2.4886   -4.4028   -5.3224 H   0  0  0  0  0  0  0  0  0  0  0  0
   -1.5467   -3.2298   -6.2543 H   0  0  0  0  0  0  0  0  0  0  0  0
   -2.9909   -3.8445   -0.7566 H   0  0  0  0  0  0  0  0  0  0  0  0
   -4.5760   -3.2702   -1.3754 H   0  0  0  0  0  0  0  0  0  0  0  0
   -3.8842   -4.8184   -1.9022 H   0  0  0  0  0  0  0  0  0  0  0  0
   -3.9295   -1.3198   -7.5514 H   0  0  0  0  0  0  0  0  0  0  0  0
   -5.4653   -1.5933   -6.6314 H   0  0  0  0  0  0  0  0  0  0  0  0
   -5.3335   -0.2873   -7.8105 H   0  0  0  0  0  0  0  0  0  0  0  0
    3.9224   -3.0688   -1.1923 H   0  0  0  0  0  0  0  0  0  0  0  0
    2.5748   -3.9311   -0.4367 H   0  0  0  0  0  0  0  0  0  0  0  0
    4.4292   -1.8903    0.8291 H   0  0  0  0  0  0  0  0  0  0  0  0
    3.8852   -3.4359    1.5138 H   0  0  0  0  0  0  0  0  0  0  0  0
  2  1  1  0  0  0  0
  2 27  1  0  0  0  0
  3  5  2  0  0  0  0
  4  9  1  0  0  0  0
  5  4  1  0  0  0  0
  6  1  1  0  0  0  0
  7  8  1  0  0  0  0
  7 17  1  0  0  0  0
  8  2  1  0  0  0  0
  8 28  1  0  0  0  0
  8 29  1  0  0  0  0
  9  7  1  0  0  0  0
  9 30  1  0  0  0  0
  9 31  1  0  0  0  0
 10 13  2  0  0  0  0
 10  3  1  0  0  0  0
 11  1  2  0  0  0  0
 12  4  2  0  0  0  0
 12 32  1  0  0  0  0
 13 12  1  0  0  0  0
 13 33  1  0  0  0  0
 14  3  1  0  0  0  0
 15  5  1  0  0  0  0
 16  2  1  0  0  0  0
 16 34  1  0  0  0  0
 16 35  1  0  0  0  0
 17 21  1  0  0  0  0
 17 36  1  0  0  0  0
 17 37  1  0  0  0  0
 18 10  1  0  0  0  0
 19  6  1  0  0  0  0
 19 38  1  0  0  0  0
 19 39  1  0  0  0  0
 20  6  1  0  0  0  0
 20 40  1  0  0  0  0
 20 41  1  0  0  0  0
 21 16  1  0  0  0  0
 21 42  1  0  0  0  0
 21 43  1  0  0  0  0
 22 14  1  0  0  0  0
 22 44  1  0  0  0  0
 22 45  1  0  0  0  0
 22 46  1  0  0  0  0
 23 15  1  0  0  0  0
 23 47  1  0  0  0  0
 23 48  1  0  0  0  0
 23 49  1  0  0  0  0
 24 18  1  0  0  0  0
 24 50  1  0  0  0  0
 24 51  1  0  0  0  0
 24 52  1  0  0  0  0
 25 20  1  0  0  0  0
 25 26  1  0  0  0  0
 25 53  1  0  0  0  0
 25 54  1  0  0  0  0
 26 19  1  0  0  0  0
 26 55  1  0  0  0  0
 26 56  1  0  0  0  0
M  END
>  <Mol_ID>
8615

>  <Formula>
C20H30N2O4

>  <MolWeight>
362.4632

>  <Cat>
P2312

>  <Name>
WAY-324258-A

>  <Synonyms>
N/A

>  <Target>
Anti-infection

>  <Form>
free base

>  <CAS>
524059-77-6

>  <URL>
N/A

$$$$
