WAY-325163
 OpenBabel08302521423D

 43 46  0  0  0  0  0  0  0  0999 V2000
    0.5043    0.7291    0.6082 C   0  0  0  0  0  0  0  0  0  0  0  0
    0.9896   -0.4519    1.1110 C   0  0  0  0  0  0  0  0  0  0  0  0
    2.7595    1.4562    0.8649 N   0  0  0  0  0  0  0  0  0  0  0  0
    3.0983    0.2492    1.4439 N   0  0  0  0  0  0  0  0  0  0  0  0
    2.2418   -0.6563    1.5751 N   0  0  0  0  0  0  0  0  0  0  0  0
    1.4595    1.8070    0.4789 C   0  0  0  0  0  0  0  0  0  0  0  0
   -0.1647   -1.7048    1.0558 S   0  0  0  0  0  0  0  0  0  0  0  0
   -0.8958    0.6458    0.2952 C   0  0  0  0  0  0  0  0  0  0  0  0
   -1.3475   -0.6563    0.4306 C   0  0  0  0  0  0  0  0  0  0  0  0
    3.8828    2.2976    0.5017 C   0  0  0  0  0  0  0  0  0  0  0  0
    4.6327    2.9265    1.6795 C   0  0  0  0  0  0  0  0  0  0  0  0
    5.9025    3.3631    1.2904 N   0  0  0  0  0  0  0  0  0  0  0  0
    6.7652    4.1677    2.0660 C   0  0  0  0  0  0  0  0  0  0  0  0
    7.5423    5.1580    1.4303 C   0  0  0  0  0  0  0  0  0  0  0  0
    1.1654    2.8897   -0.0198 O   0  0  0  0  0  0  0  0  0  0  0  0
    4.1192    3.1176    2.7760 O   0  0  0  0  0  0  0  0  0  0  0  0
    8.4215    5.9377    2.2040 C   0  0  0  0  0  0  0  0  0  0  0  0
    6.8796    3.9842    3.4492 C   0  0  0  0  0  0  0  0  0  0  0  0
    8.5342    5.7409    3.5786 C   0  0  0  0  0  0  0  0  0  0  0  0
   -1.8231    1.7692   -0.0860 C   0  0  0  0  0  0  0  0  0  0  0  0
    7.7657    4.7634    4.2000 C   0  0  0  0  0  0  0  0  0  0  0  0
   -2.7321   -1.1164    0.1061 C   0  0  0  0  0  0  0  0  0  0  0  0
    7.4421    5.4901   -0.0347 C   0  0  0  0  0  0  0  0  0  0  0  0
   -3.2396    1.2899   -0.4688 C   0  0  0  0  0  0  0  0  0  0  0  0
   -3.7010    0.0517    0.3165 C   0  0  0  0  0  0  0  0  0  0  0  0
    4.5816    1.6619   -0.0625 H   0  0  0  0  0  0  0  0  0  0  0  0
    3.5686    3.1052   -0.1631 H   0  0  0  0  0  0  0  0  0  0  0  0
    6.1261    3.2976    0.3074 H   0  0  0  0  0  0  0  0  0  0  0  0
    9.0089    6.7252    1.7351 H   0  0  0  0  0  0  0  0  0  0  0  0
    6.3057    3.2139    3.9594 H   0  0  0  0  0  0  0  0  0  0  0  0
    9.2125    6.3569    4.1634 H   0  0  0  0  0  0  0  0  0  0  0  0
   -1.4059    2.3567   -0.9108 H   0  0  0  0  0  0  0  0  0  0  0  0
   -1.9070    2.4379    0.7802 H   0  0  0  0  0  0  0  0  0  0  0  0
    7.8546    4.6015    5.2716 H   0  0  0  0  0  0  0  0  0  0  0  0
   -2.7653   -1.4366   -0.9437 H   0  0  0  0  0  0  0  0  0  0  0  0
   -3.0333   -1.9710    0.7211 H   0  0  0  0  0  0  0  0  0  0  0  0
    7.3082    6.5702   -0.1615 H   0  0  0  0  0  0  0  0  0  0  0  0
    8.3518    5.1773   -0.5552 H   0  0  0  0  0  0  0  0  0  0  0  0
    6.5859    5.0230   -0.5273 H   0  0  0  0  0  0  0  0  0  0  0  0
   -3.2612    1.0522   -1.5398 H   0  0  0  0  0  0  0  0  0  0  0  0
   -3.9536    2.1083   -0.3168 H   0  0  0  0  0  0  0  0  0  0  0  0
   -4.7073   -0.2419   -0.0024 H   0  0  0  0  0  0  0  0  0  0  0  0
   -3.7582    0.2967    1.3851 H   0  0  0  0  0  0  0  0  0  0  0  0
  2  1  2  0  0  0  0
  3  6  1  0  0  0  0
  4  3  1  0  0  0  0
  4  5  2  0  0  0  0
  5  2  1  0  0  0  0
  6  1  1  0  0  0  0
  7  2  1  0  0  0  0
  7  9  1  0  0  0  0
  8  1  1  0  0  0  0
  9  8  2  0  0  0  0
 10  3  1  0  0  0  0
 10 26  1  0  0  0  0
 10 27  1  0  0  0  0
 11 10  1  0  0  0  0
 12 11  1  0  0  0  0
 12 28  1  0  0  0  0
 13 12  1  0  0  0  0
 14 13  2  0  0  0  0
 15  6  2  0  0  0  0
 16 11  2  0  0  0  0
 17 14  1  0  0  0  0
 17 19  2  0  0  0  0
 17 29  1  0  0  0  0
 18 13  1  0  0  0  0
 18 30  1  0  0  0  0
 19 21  1  0  0  0  0
 19 31  1  0  0  0  0
 20  8  1  0  0  0  0
 20 32  1  0  0  0  0
 20 33  1  0  0  0  0
 21 18  2  0  0  0  0
 21 34  1  0  0  0  0
 22  9  1  0  0  0  0
 22 25  1  0  0  0  0
 22 35  1  0  0  0  0
 22 36  1  0  0  0  0
 23 14  1  0  0  0  0
 23 37  1  0  0  0  0
 23 38  1  0  0  0  0
 23 39  1  0  0  0  0
 24 20  1  0  0  0  0
 24 40  1  0  0  0  0
 24 41  1  0  0  0  0
 25 24  1  0  0  0  0
 25 42  1  0  0  0  0
 25 43  1  0  0  0  0
M  END
>  <Mol_ID>
8675

>  <Formula>
C18H17ClN4O2S

>  <MolWeight>
388.87118

>  <Cat>
P2374

>  <Name>
WAY-325163

>  <Synonyms>
N/A

>  <Target>
5-LOX

>  <Form>
free base

>  <CAS>
685845-90-3

>  <URL>
N/A

$$$$
