WAY-604595
 OpenBabel08302521393D

 41 43  0  0  0  0  0  0  0  0999 V2000
   -1.0242   -0.5982   -0.2884 C   0  0  0  0  0  0  0  0  0  0  0  0
   -0.9020    0.5672    0.4042 C   0  0  0  0  0  0  0  0  0  0  0  0
    0.0801   -1.3005   -0.7067 N   0  0  0  0  0  0  0  0  0  0  0  0
    1.4335    0.3931    0.3169 N   0  0  0  0  0  0  0  0  0  0  0  0
    1.3587   -0.8129   -0.4113 C   0  0  0  0  0  0  0  0  0  0  0  0
    0.3405    1.1464    0.7582 C   0  0  0  0  0  0  0  0  0  0  0  0
   -2.3309   -0.9345   -0.4942 N   0  0  0  0  0  0  0  0  0  0  0  0
   -2.9995    0.0430    0.0783 C   0  0  0  0  0  0  0  0  0  0  0  0
   -2.1794    0.9842    0.6363 N   0  0  0  0  0  0  0  0  0  0  0  0
    2.3759   -1.4106   -0.7750 O   0  0  0  0  0  0  0  0  0  0  0  0
   -4.7088    0.2317    0.1748 S   0  0  0  0  0  0  0  0  0  0  0  0
    0.4271    2.2009    1.3802 O   0  0  0  0  0  0  0  0  0  0  0  0
   -4.7771   -2.3285    1.2360 C   0  0  0  0  0  0  0  0  0  0  0  0
   -4.6287   -3.7960    1.0314 C   0  0  0  0  0  0  0  0  0  0  0  0
   -5.2414   -1.4997    0.0494 C   0  0  0  0  0  0  0  0  0  0  0  0
   -0.0822   -2.5259   -1.4671 C   0  0  0  0  0  0  0  0  0  0  0  0
    2.7441    0.9255    0.6383 C   0  0  0  0  0  0  0  0  0  0  0  0
   -4.5454   -1.8659    2.3522 O   0  0  0  0  0  0  0  0  0  0  0  0
   -3.6904   -4.4906    1.8035 C   0  0  0  0  0  0  0  0  0  0  0  0
   -5.4049   -4.4911    0.1000 C   0  0  0  0  0  0  0  0  0  0  0  0
   -4.2627   -6.5578    0.6794 C   0  0  0  0  0  0  0  0  0  0  0  0
   -3.5043   -5.8665    1.6244 C   0  0  0  0  0  0  0  0  0  0  0  0
   -5.2167   -5.8653   -0.0716 C   0  0  0  0  0  0  0  0  0  0  0  0
   -4.1739   -7.8913    0.3925 O   0  0  0  0  0  0  0  0  0  0  0  0
   -3.2173   -8.6463    1.1254 C   0  0  0  0  0  0  0  0  0  0  0  0
   -2.4737    1.8155    1.1304 H   0  0  0  0  0  0  0  0  0  0  0  0
   -6.3353   -1.5200    0.0251 H   0  0  0  0  0  0  0  0  0  0  0  0
   -4.8610   -1.9176   -0.8878 H   0  0  0  0  0  0  0  0  0  0  0  0
   -0.6696   -3.2377   -0.8790 H   0  0  0  0  0  0  0  0  0  0  0  0
   -0.6084   -2.2966   -2.3992 H   0  0  0  0  0  0  0  0  0  0  0  0
    0.8788   -2.9846   -1.7140 H   0  0  0  0  0  0  0  0  0  0  0  0
    2.8395    1.9229    0.1962 H   0  0  0  0  0  0  0  0  0  0  0  0
    2.8314    1.0228    1.7257 H   0  0  0  0  0  0  0  0  0  0  0  0
    3.5600    0.2975    0.2734 H   0  0  0  0  0  0  0  0  0  0  0  0
   -3.0915   -3.9600    2.5420 H   0  0  0  0  0  0  0  0  0  0  0  0
   -6.1681   -3.9951   -0.4921 H   0  0  0  0  0  0  0  0  0  0  0  0
   -2.7589   -6.3634    2.2367 H   0  0  0  0  0  0  0  0  0  0  0  0
   -5.8202   -6.4054   -0.7982 H   0  0  0  0  0  0  0  0  0  0  0  0
   -2.2036   -8.2613    0.9726 H   0  0  0  0  0  0  0  0  0  0  0  0
   -3.4745   -8.6749    2.1892 H   0  0  0  0  0  0  0  0  0  0  0  0
   -3.2417   -9.6729    0.7470 H   0  0  0  0  0  0  0  0  0  0  0  0
  2  1  2  0  0  0  0
  3  1  1  0  0  0  0
  4  5  1  0  0  0  0
  4  6  1  0  0  0  0
  5  3  1  0  0  0  0
  6  2  1  0  0  0  0
  7  1  1  0  0  0  0
  8  7  2  0  0  0  0
  9  2  1  0  0  0  0
  9  8  1  0  0  0  0
  9 26  1  0  0  0  0
 10  5  2  0  0  0  0
 11  8  1  0  0  0  0
 12  6  2  0  0  0  0
 13 15  1  0  0  0  0
 14 13  1  0  0  0  0
 15 11  1  0  0  0  0
 15 27  1  0  0  0  0
 15 28  1  0  0  0  0
 16  3  1  0  0  0  0
 16 29  1  0  0  0  0
 16 30  1  0  0  0  0
 16 31  1  0  0  0  0
 17  4  1  0  0  0  0
 17 32  1  0  0  0  0
 17 33  1  0  0  0  0
 17 34  1  0  0  0  0
 18 13  2  0  0  0  0
 19 14  2  0  0  0  0
 19 35  1  0  0  0  0
 20 14  1  0  0  0  0
 20 36  1  0  0  0  0
 21 23  1  0  0  0  0
 21 22  2  0  0  0  0
 22 19  1  0  0  0  0
 22 37  1  0  0  0  0
 23 20  2  0  0  0  0
 23 38  1  0  0  0  0
 24 21  1  0  0  0  0
 25 24  1  0  0  0  0
 25 39  1  0  0  0  0
 25 40  1  0  0  0  0
 25 41  1  0  0  0  0
M  END
>  <Mol_ID>
8120

>  <Formula>
C16H16N4O4S

>  <MolWeight>
360.38764

>  <Cat>
P2833

>  <Name>
WAY-604595

>  <Synonyms>
N/A

>  <Target>
Anti-infection

>  <Form>
free base

>  <CAS>
325996-24-5

>  <URL>
N/A

$$$$
