WAY-325791
 OpenBabel08302521433D

 31 33  0  0  0  0  0  0  0  0999 V2000
    0.0069    0.7007   -0.0127 C   0  0  0  0  0  0  0  0  0  0  0  0
   -1.1757    1.3640   -0.0138 N   0  0  0  0  0  0  0  0  0  0  0  0
    1.2413    1.3830   -0.0198 C   0  0  0  0  0  0  0  0  0  0  0  0
    1.1562    2.7587   -0.0354 O   0  0  0  0  0  0  0  0  0  0  0  0
    0.0366   -0.7141   -0.0043 C   0  0  0  0  0  0  0  0  0  0  0  0
    2.3625    3.5177   -0.0544 C   0  0  0  0  0  0  0  0  0  0  0  0
    1.5020    7.7514   -0.0580 C   0  0  0  0  0  0  0  0  0  0  0  0
    2.0489    5.0004   -0.0636 C   0  0  0  0  0  0  0  0  0  0  0  0
    1.1225    9.6035   -0.0383 Br  0  0  0  0  0  0  0  0  0  0  0  0
    2.6741    7.2773    0.5290 C   0  0  0  0  0  0  0  0  0  0  0  0
    0.6102    6.8704   -0.6607 C   0  0  0  0  0  0  0  0  0  0  0  0
    2.9481    5.9071    0.5189 C   0  0  0  0  0  0  0  0  0  0  0  0
    0.8853    5.5010   -0.6706 C   0  0  0  0  0  0  0  0  0  0  0  0
    2.4614   -0.7106    0.0047 C   0  0  0  0  0  0  0  0  0  0  0  0
   -2.3261    0.6578   -0.0065 C   0  0  0  0  0  0  0  0  0  0  0  0
    2.4554    0.6820   -0.0089 C   0  0  0  0  0  0  0  0  0  0  0  0
    1.2576   -1.4052    0.0039 C   0  0  0  0  0  0  0  0  0  0  0  0
   -1.1780   -1.4130   -0.0043 C   0  0  0  0  0  0  0  0  0  0  0  0
   -2.3804   -0.7203   -0.0048 C   0  0  0  0  0  0  0  0  0  0  0  0
    2.9401    3.2994    0.8529 H   0  0  0  0  0  0  0  0  0  0  0  0
    2.9511    3.2778   -0.9485 H   0  0  0  0  0  0  0  0  0  0  0  0
    3.3730    7.9629    0.9996 H   0  0  0  0  0  0  0  0  0  0  0  0
   -0.3059    7.2318   -1.1216 H   0  0  0  0  0  0  0  0  0  0  0  0
    3.8639    5.5499    0.9875 H   0  0  0  0  0  0  0  0  0  0  0  0
    0.1727    4.8231   -1.1365 H   0  0  0  0  0  0  0  0  0  0  0  0
    3.4039   -1.2525    0.0146 H   0  0  0  0  0  0  0  0  0  0  0  0
   -3.2337    1.2545   -0.0023 H   0  0  0  0  0  0  0  0  0  0  0  0
    3.4134    1.1902   -0.0098 H   0  0  0  0  0  0  0  0  0  0  0  0
    1.2760   -2.4930    0.0117 H   0  0  0  0  0  0  0  0  0  0  0  0
   -1.1933   -2.5004   -0.0030 H   0  0  0  0  0  0  0  0  0  0  0  0
   -3.3305   -1.2404   -0.0032 H   0  0  0  0  0  0  0  0  0  0  0  0
  2  1  2  0  0  0  0
  3  1  1  0  0  0  0
  4  3  1  0  0  0  0
  5  1  1  0  0  0  0
  6  4  1  0  0  0  0
  6 20  1  0  0  0  0
  6 21  1  0  0  0  0
  7 11  2  0  0  0  0
  8  6  1  0  0  0  0
  9  7  1  0  0  0  0
 10 12  2  0  0  0  0
 10  7  1  0  0  0  0
 10 22  1  0  0  0  0
 11 13  1  0  0  0  0
 11 23  1  0  0  0  0
 12  8  1  0  0  0  0
 12 24  1  0  0  0  0
 13  8  2  0  0  0  0
 13 25  1  0  0  0  0
 14 17  2  0  0  0  0
 14 26  1  0  0  0  0
 15  2  1  0  0  0  0
 15 27  1  0  0  0  0
 16  3  2  0  0  0  0
 16 14  1  0  0  0  0
 16 28  1  0  0  0  0
 17  5  1  0  0  0  0
 17 29  1  0  0  0  0
 18  5  2  0  0  0  0
 18 30  1  0  0  0  0
 19 18  1  0  0  0  0
 19 15  2  0  0  0  0
 19 31  1  0  0  0  0
M  END
>  <Mol_ID>
8880

>  <Formula>
C16H12BrNO

>  <MolWeight>
314.17658

>  <Cat>
P2428

>  <Name>
WAY-325791

>  <Synonyms>
N/A

>  <Target>
Others

>  <Form>
free base

>  <CAS>
869630-36-4

>  <URL>
N/A

$$$$
