WAY-332003
 OpenBabel08302521443D

 47 49  0  0  0  0  0  0  0  0999 V2000
   -1.8360    0.5947   -0.2971 N   0  0  0  0  0  0  0  0  0  0  0  0
   -1.6461   -0.7037   -0.3382 C   0  0  0  0  0  0  0  0  0  0  0  0
   -0.6162    1.1317    0.0109 C   0  0  0  0  0  0  0  0  0  0  0  0
   -0.4097   -1.0839    0.0965 O   0  0  0  0  0  0  0  0  0  0  0  0
    0.2170    0.1062    0.3929 C   0  0  0  0  0  0  0  0  0  0  0  0
   -2.6108   -1.7362   -0.6774 C   0  0  0  0  0  0  0  0  0  0  0  0
   -2.9281    1.9784   -2.4229 C   0  0  0  0  0  0  0  0  0  0  0  0
   -4.0057    1.5088   -1.7238 N   0  0  0  0  0  0  0  0  0  0  0  0
   -8.0725    2.6380    0.7105 N   0  0  0  0  0  0  0  0  0  0  0  0
   -2.5100    1.2946   -3.3616 O   0  0  0  0  0  0  0  0  0  0  0  0
   -2.2836   -2.8658   -1.4299 C   0  0  0  0  0  0  0  0  0  0  0  0
   -3.9423   -1.5681   -0.2741 C   0  0  0  0  0  0  0  0  0  0  0  0
   -0.5399    3.2969   -1.7450 S   0  0  0  0  0  0  0  0  0  0  0  0
   -6.0520    2.0840   -0.5039 C   0  0  0  0  0  0  0  0  0  0  0  0
   -0.4681    2.6154   -0.0385 C   0  0  0  0  0  0  0  0  0  0  0  0
   -4.5551    1.9908   -0.4716 C   0  0  0  0  0  0  0  0  0  0  0  0
   -4.9318   -2.4890   -0.6042 C   0  0  0  0  0  0  0  0  0  0  0  0
   -3.2674   -3.8181   -1.7339 C   0  0  0  0  0  0  0  0  0  0  0  0
   -4.5943   -3.6399   -1.3119 C   0  0  0  0  0  0  0  0  0  0  0  0
   -2.3394    3.3399   -2.0961 C   0  0  0  0  0  0  0  0  0  0  0  0
    1.5257   -0.0319    1.0531 C   0  0  0  0  0  0  0  0  0  0  0  0
   -6.7440    2.3995    0.6617 C   0  0  0  0  0  0  0  0  0  0  0  0
   -8.7463    2.5498   -0.4577 C   0  0  0  0  0  0  0  0  0  0  0  0
   -6.7966    1.9509   -1.6781 C   0  0  0  0  0  0  0  0  0  0  0  0
   -5.6257   -4.7009   -1.5498 C   0  0  0  0  0  0  0  0  0  0  0  0
   -8.1632    2.1925   -1.6586 C   0  0  0  0  0  0  0  0  0  0  0  0
   -4.2114    0.5492   -1.9794 H   0  0  0  0  0  0  0  0  0  0  0  0
   -1.2676   -3.0113   -1.7903 H   0  0  0  0  0  0  0  0  0  0  0  0
   -4.2207   -0.7147    0.3305 H   0  0  0  0  0  0  0  0  0  0  0  0
   -1.2323    3.1007    0.5776 H   0  0  0  0  0  0  0  0  0  0  0  0
    0.5062    2.9041    0.3688 H   0  0  0  0  0  0  0  0  0  0  0  0
   -4.2510    1.3076    0.3233 H   0  0  0  0  0  0  0  0  0  0  0  0
   -4.1498    2.9657   -0.2046 H   0  0  0  0  0  0  0  0  0  0  0  0
   -5.9547   -2.3067   -0.2818 H   0  0  0  0  0  0  0  0  0  0  0  0
   -2.9921   -4.7050   -2.3004 H   0  0  0  0  0  0  0  0  0  0  0  0
   -2.8657    3.8858   -1.3157 H   0  0  0  0  0  0  0  0  0  0  0  0
   -2.4821    3.9360   -3.0072 H   0  0  0  0  0  0  0  0  0  0  0  0
    1.4200   -0.7066    1.9123 H   0  0  0  0  0  0  0  0  0  0  0  0
    2.2697   -0.4649    0.3803 H   0  0  0  0  0  0  0  0  0  0  0  0
    1.8940    0.9239    1.4311 H   0  0  0  0  0  0  0  0  0  0  0  0
   -6.2326    2.4920    1.6173 H   0  0  0  0  0  0  0  0  0  0  0  0
   -9.8036    2.7905   -0.4017 H   0  0  0  0  0  0  0  0  0  0  0  0
   -6.3221    1.6822   -2.6185 H   0  0  0  0  0  0  0  0  0  0  0  0
   -5.6937   -4.9488   -2.6123 H   0  0  0  0  0  0  0  0  0  0  0  0
   -5.3625   -5.5967   -0.9783 H   0  0  0  0  0  0  0  0  0  0  0  0
   -6.6170   -4.3744   -1.2155 H   0  0  0  0  0  0  0  0  0  0  0  0
   -8.7497    2.1288   -2.5694 H   0  0  0  0  0  0  0  0  0  0  0  0
  2  1  2  0  0  0  0
  3  1  1  0  0  0  0
  4  2  1  0  0  0  0
  5  3  2  0  0  0  0
  5  4  1  0  0  0  0
  6  2  1  0  0  0  0
  7 20  1  0  0  0  0
  8  7  1  0  0  0  0
  8 27  1  0  0  0  0
  9 22  2  0  0  0  0
  9 23  1  0  0  0  0
 10  7  2  0  0  0  0
 11  6  2  0  0  0  0
 11 28  1  0  0  0  0
 12  6  1  0  0  0  0
 12 29  1  0  0  0  0
 13 15  1  0  0  0  0
 14 16  1  0  0  0  0
 15  3  1  0  0  0  0
 15 30  1  0  0  0  0
 15 31  1  0  0  0  0
 16  8  1  0  0  0  0
 16 32  1  0  0  0  0
 16 33  1  0  0  0  0
 17 12  2  0  0  0  0
 17 34  1  0  0  0  0
 18 11  1  0  0  0  0
 18 35  1  0  0  0  0
 19 17  1  0  0  0  0
 19 18  2  0  0  0  0
 20 13  1  0  0  0  0
 20 36  1  0  0  0  0
 20 37  1  0  0  0  0
 21  5  1  0  0  0  0
 21 38  1  0  0  0  0
 21 39  1  0  0  0  0
 21 40  1  0  0  0  0
 22 14  1  0  0  0  0
 22 41  1  0  0  0  0
 23 26  2  0  0  0  0
 23 42  1  0  0  0  0
 24 14  2  0  0  0  0
 24 43  1  0  0  0  0
 25 19  1  0  0  0  0
 25 44  1  0  0  0  0
 25 45  1  0  0  0  0
 25 46  1  0  0  0  0
 26 24  1  0  0  0  0
 26 47  1  0  0  0  0
M  END
>  <Mol_ID>
9259

>  <Formula>
C20H21N3O2S

>  <MolWeight>
367.46464

>  <Cat>
P2660

>  <Name>
WAY-332003

>  <Synonyms>
N/A

>  <Target>
beta-catenin

>  <Form>
free base

>  <CAS>
901751-83-5

>  <URL>
N/A

$$$$
