WAY-604662
 OpenBabel08302521393D

 35 39  0  0  0  0  0  0  0  0999 V2000
    0.2340   -0.7118   -0.0061 C   0  0  0  0  0  0  0  0  0  0  0  0
    0.2424    0.6927   -0.0036 C   0  0  0  0  0  0  0  0  0  0  0  0
    6.4067   -1.7027    0.0519 S   0  0  0  0  0  0  0  0  0  0  0  0
    1.3379   -1.4694   -0.0173 N   0  0  0  0  0  0  0  0  0  0  0  0
    1.3626    1.4297   -0.0113 N   0  0  0  0  0  0  0  0  0  0  0  0
   -1.1423    1.1371    0.0003 C   0  0  0  0  0  0  0  0  0  0  0  0
   -1.1474   -1.1475   -0.0003 C   0  0  0  0  0  0  0  0  0  0  0  0
   -1.9367   -0.0075    0.0012 C   0  0  0  0  0  0  0  0  0  0  0  0
    2.4820   -0.7553   -0.0224 C   0  0  0  0  0  0  0  0  0  0  0  0
    4.8982   -0.7754   -0.0218 C   0  0  0  0  0  0  0  0  0  0  0  0
    3.6794   -1.4522   -0.0232 C   0  0  0  0  0  0  0  0  0  0  0  0
    2.4986    0.6884   -0.0203 C   0  0  0  0  0  0  0  0  0  0  0  0
    7.5149   -0.8090   -0.1889 O   0  0  0  0  0  0  0  0  0  0  0  0
    6.3442   -2.5774    1.1901 O   0  0  0  0  0  0  0  0  0  0  0  0
    6.3286   -2.6799   -1.3140 N   0  0  0  0  0  0  0  0  0  0  0  0
    4.9325    0.6181   -0.0310 C   0  0  0  0  0  0  0  0  0  0  0  0
    3.7306    1.3337   -0.0260 C   0  0  0  0  0  0  0  0  0  0  0  0
   -3.3309   -0.0110    0.0034 C   0  0  0  0  0  0  0  0  0  0  0  0
   -1.7504    2.3774   -0.0013 C   0  0  0  0  0  0  0  0  0  0  0  0
   -1.7486   -2.3936   -0.0004 C   0  0  0  0  0  0  0  0  0  0  0  0
   -3.1528   -2.4551    0.0045 C   0  0  0  0  0  0  0  0  0  0  0  0
   -3.1583    2.4309    0.0002 C   0  0  0  0  0  0  0  0  0  0  0  0
   -3.9449    1.2557    0.0033 C   0  0  0  0  0  0  0  0  0  0  0  0
   -3.9419   -1.2821    0.0048 C   0  0  0  0  0  0  0  0  0  0  0  0
    3.6596   -2.5395   -0.0118 H   0  0  0  0  0  0  0  0  0  0  0  0
    6.8466   -2.2606   -2.0883 H   0  0  0  0  0  0  0  0  0  0  0  0
    6.6944   -3.6062   -1.0685 H   0  0  0  0  0  0  0  0  0  0  0  0
    5.8789    1.1581   -0.0250 H   0  0  0  0  0  0  0  0  0  0  0  0
    3.7549    2.4220   -0.0170 H   0  0  0  0  0  0  0  0  0  0  0  0
   -1.1605    3.2885   -0.0042 H   0  0  0  0  0  0  0  0  0  0  0  0
   -1.1495   -3.2990   -0.0032 H   0  0  0  0  0  0  0  0  0  0  0  0
   -3.6444   -3.4272    0.0099 H   0  0  0  0  0  0  0  0  0  0  0  0
   -3.6551    3.4000    0.0001 H   0  0  0  0  0  0  0  0  0  0  0  0
   -5.0292    1.3361    0.0056 H   0  0  0  0  0  0  0  0  0  0  0  0
   -5.0255   -1.3667    0.0059 H   0  0  0  0  0  0  0  0  0  0  0  0
  2  1  1  0  0  0  0
  3 10  1  0  0  0  0
  4  1  2  0  0  0  0
  5  2  2  0  0  0  0
  5 12  1  0  0  0  0
  6  2  1  0  0  0  0
  7  1  1  0  0  0  0
  8  7  2  0  0  0  0
  8  6  1  0  0  0  0
  9  4  1  0  0  0  0
 10 11  1  0  0  0  0
 11  9  2  0  0  0  0
 11 25  1  0  0  0  0
 12  9  1  0  0  0  0
 13  3  2  0  0  0  0
 14  3  2  0  0  0  0
 15  3  1  0  0  0  0
 15 26  1  0  0  0  0
 15 27  1  0  0  0  0
 16 17  1  0  0  0  0
 16 10  2  0  0  0  0
 16 28  1  0  0  0  0
 17 12  2  0  0  0  0
 17 29  1  0  0  0  0
 18  8  1  0  0  0  0
 19  6  2  0  0  0  0
 19 30  1  0  0  0  0
 20  7  1  0  0  0  0
 20 31  1  0  0  0  0
 21 20  2  0  0  0  0
 21 32  1  0  0  0  0
 22 19  1  0  0  0  0
 22 33  1  0  0  0  0
 23 18  1  0  0  0  0
 23 22  2  0  0  0  0
 23 34  1  0  0  0  0
 24 21  1  0  0  0  0
 24 18  2  0  0  0  0
 24 35  1  0  0  0  0
M  END
>  <Mol_ID>
8124

>  <Formula>
C18H11N3O2S

>  <MolWeight>
333.36384

>  <Cat>
P2838

>  <Name>
WAY-604662

>  <Synonyms>
N/A

>  <Target>
others

>  <Form>
free base

>  <CAS>
380347-84-2

>  <URL>
N/A

$$$$
