WAY-620929
 OpenBabel08302521443D

 40 42  0  0  0  0  0  0  0  0999 V2000
   -0.2717   -0.6515    0.5765 C   0  0  0  0  0  0  0  0  0  0  0  0
    0.3667    0.0405    1.5949 C   0  0  0  0  0  0  0  0  0  0  0  0
    0.4398   -0.9442   -0.5819 N   0  0  0  0  0  0  0  0  0  0  0  0
   -1.5629   -1.1392    0.7431 C   0  0  0  0  0  0  0  0  0  0  0  0
    1.7247    0.5594    1.3510 C   0  0  0  0  0  0  0  0  0  0  0  0
   -0.2639    0.2188    2.8288 C   0  0  0  0  0  0  0  0  0  0  0  0
    1.7551   -0.5997   -0.7632 C   0  0  0  0  0  0  0  0  0  0  0  0
   -2.2079   -0.9491    1.9707 C   0  0  0  0  0  0  0  0  0  0  0  0
    2.2497    0.4197    0.0532 N   0  0  0  0  0  0  0  0  0  0  0  0
    2.3479    1.0300    2.3013 O   0  0  0  0  0  0  0  0  0  0  0  0
   -1.5564   -0.2741    3.0104 C   0  0  0  0  0  0  0  0  0  0  0  0
    2.5692   -1.5087   -1.9168 S   0  0  0  0  0  0  0  0  0  0  0  0
    3.5083    1.1644   -0.1973 C   0  0  0  0  0  0  0  0  0  0  0  0
    3.4886    2.2135   -1.3461 C   0  0  0  0  0  0  0  0  0  0  0  0
    3.4560    1.5390   -2.7142 C   0  0  0  0  0  0  0  0  0  0  0  0
    3.5706    2.3163   -3.9531 N   0  0  0  0  0  0  0  0  0  0  0  0
    3.5167    1.3635   -5.1065 C   0  0  0  0  0  0  0  0  0  0  0  0
    4.8173    3.0928   -4.0796 C   0  0  0  0  0  0  0  0  0  0  0  0
    4.8079    0.5394   -5.3102 C   0  0  0  0  0  0  0  0  0  0  0  0
    6.0767    2.2334   -4.2655 C   0  0  0  0  0  0  0  0  0  0  0  0
    5.9606    1.3834   -5.4146 O   0  0  0  0  0  0  0  0  0  0  0  0
    0.0424   -1.5911   -1.2570 H   0  0  0  0  0  0  0  0  0  0  0  0
   -2.0710   -1.6839   -0.0469 H   0  0  0  0  0  0  0  0  0  0  0  0
    0.2463    0.7242    3.6415 H   0  0  0  0  0  0  0  0  0  0  0  0
   -3.2112   -1.3319    2.1261 H   0  0  0  0  0  0  0  0  0  0  0  0
   -2.0544   -0.1473    3.9730 H   0  0  0  0  0  0  0  0  0  0  0  0
    3.7598    1.7471    0.7014 H   0  0  0  0  0  0  0  0  0  0  0  0
    4.3232    0.4506   -0.3331 H   0  0  0  0  0  0  0  0  0  0  0  0
    2.6418    2.9003   -1.2331 H   0  0  0  0  0  0  0  0  0  0  0  0
    4.4045    2.8130   -1.2569 H   0  0  0  0  0  0  0  0  0  0  0  0
    4.2173    0.7555   -2.6975 H   0  0  0  0  0  0  0  0  0  0  0  0
    2.4634    1.0892   -2.7798 H   0  0  0  0  0  0  0  0  0  0  0  0
    3.3309    1.9497   -6.0104 H   0  0  0  0  0  0  0  0  0  0  0  0
    2.6624    0.6830   -5.0007 H   0  0  0  0  0  0  0  0  0  0  0  0
    4.7066    3.7289   -4.9686 H   0  0  0  0  0  0  0  0  0  0  0  0
    4.9381    3.7792   -3.2361 H   0  0  0  0  0  0  0  0  0  0  0  0
    4.9705   -0.1865   -4.5038 H   0  0  0  0  0  0  0  0  0  0  0  0
    4.7334   -0.0341   -6.2396 H   0  0  0  0  0  0  0  0  0  0  0  0
    6.9430    2.8819   -4.4278 H   0  0  0  0  0  0  0  0  0  0  0  0
    6.2862    1.6213   -3.3802 H   0  0  0  0  0  0  0  0  0  0  0  0
  1  2  2  0  0  0  0
  1  3  1  0  0  0  0
  1  4  1  0  0  0  0
  2  5  1  0  0  0  0
  2  6  1  0  0  0  0
  3  7  1  0  0  0  0
  3 22  1  0  0  0  0
  4  8  2  0  0  0  0
  4 23  1  0  0  0  0
  5  9  1  0  0  0  0
  5 10  2  0  0  0  0
  6 11  2  0  0  0  0
  6 24  1  0  0  0  0
  7 12  2  0  0  0  0
  7  9  1  0  0  0  0
  8 11  1  0  0  0  0
  8 25  1  0  0  0  0
  9 13  1  0  0  0  0
 11 26  1  0  0  0  0
 13 14  1  0  0  0  0
 13 27  1  0  0  0  0
 13 28  1  0  0  0  0
 14 15  1  0  0  0  0
 14 29  1  0  0  0  0
 14 30  1  0  0  0  0
 15 16  1  0  0  0  0
 15 31  1  0  0  0  0
 15 32  1  0  0  0  0
 16 17  1  0  0  0  0
 16 18  1  0  0  0  0
 17 19  1  0  0  0  0
 17 33  1  0  0  0  0
 17 34  1  0  0  0  0
 18 20  1  0  0  0  0
 18 35  1  0  0  0  0
 18 36  1  0  0  0  0
 19 21  1  0  0  0  0
 19 37  1  0  0  0  0
 19 38  1  0  0  0  0
 20 21  1  0  0  0  0
 20 39  1  0  0  0  0
 20 40  1  0  0  0  0
M  END
>  <Mol_ID>
9038

>  <Formula>
C15H19N3O2S

>  <MolWeight>
305.39526

>  <Cat>
P2958

>  <Name>
WAY-620929

>  <Synonyms>
N/A

>  <Target>
NADPH,Myeloperoxidase

>  <Form>
free base

>  <CAS>
146381-57-9

>  <URL>
N/A

$$$$
