WAY-639284
 OpenBabel08302521433D

 36 38  0  0  0  0  0  0  0  0999 V2000
   -0.5037   -1.6715   -0.1194 N   0  0  0  0  0  0  0  0  0  0  0  0
    0.6007   -1.1979    2.4811 N   0  0  0  0  0  0  0  0  0  0  0  0
    1.4043   -0.9099    1.4153 C   0  0  0  0  0  0  0  0  0  0  0  0
   -1.2508   -1.8711    1.0541 C   0  0  0  0  0  0  0  0  0  0  0  0
   -0.7269   -1.6051    2.3347 C   0  0  0  0  0  0  0  0  0  0  0  0
   -0.2888   -1.4388   -5.3009 C   0  0  0  0  0  0  0  0  0  0  0  0
   -1.0572   -0.9594   -4.2351 C   0  0  0  0  0  0  0  0  0  0  0  0
   -0.1022   -2.4325   -2.4541 C   0  0  0  0  0  0  0  0  0  0  0  0
   -1.0320   -1.5269   -2.9428 N   0  0  0  0  0  0  0  0  0  0  0  0
    0.7400   -0.8677    0.0394 C   0  0  0  0  0  0  0  0  0  0  0  0
   -0.3776   -2.8549   -1.0045 C   0  0  0  0  0  0  0  0  0  0  0  0
   -0.3101   -0.7973   -6.5425 C   0  0  0  0  0  0  0  0  0  0  0  0
    2.5826   -0.6032    1.5910 O   0  0  0  0  0  0  0  0  0  0  0  0
    0.8627   -2.8913   -3.0662 O   0  0  0  0  0  0  0  0  0  0  0  0
   -1.8865    0.1480   -4.4509 C   0  0  0  0  0  0  0  0  0  0  0  0
   -1.4969   -1.7787    3.4909 C   0  0  0  0  0  0  0  0  0  0  0  0
   -2.5781   -2.3234    0.9843 C   0  0  0  0  0  0  0  0  0  0  0  0
   -1.9018    0.7954   -5.6916 C   0  0  0  0  0  0  0  0  0  0  0  0
   -1.1060    0.3274   -6.7350 C   0  0  0  0  0  0  0  0  0  0  0  0
   -2.8149   -2.2094    3.3885 C   0  0  0  0  0  0  0  0  0  0  0  0
   -3.3538   -2.4885    2.1361 C   0  0  0  0  0  0  0  0  0  0  0  0
    1.0210   -1.1201    3.3962 H   0  0  0  0  0  0  0  0  0  0  0  0
    0.3398   -2.3174   -5.1986 H   0  0  0  0  0  0  0  0  0  0  0  0
   -1.6500   -1.1277   -2.2427 H   0  0  0  0  0  0  0  0  0  0  0  0
    0.4856    0.1792   -0.1570 H   0  0  0  0  0  0  0  0  0  0  0  0
    1.4950   -1.1693   -0.6947 H   0  0  0  0  0  0  0  0  0  0  0  0
    0.4420   -3.4981   -0.6611 H   0  0  0  0  0  0  0  0  0  0  0  0
   -1.2871   -3.4658   -1.0330 H   0  0  0  0  0  0  0  0  0  0  0  0
    0.3059   -1.1774   -7.3540 H   0  0  0  0  0  0  0  0  0  0  0  0
   -2.5106    0.5410   -3.6526 H   0  0  0  0  0  0  0  0  0  0  0  0
   -1.0817   -1.5667    4.4725 H   0  0  0  0  0  0  0  0  0  0  0  0
   -3.0390   -2.5265    0.0222 H   0  0  0  0  0  0  0  0  0  0  0  0
   -2.5258    1.6724   -5.8410 H   0  0  0  0  0  0  0  0  0  0  0  0
   -1.1054    0.8358   -7.6959 H   0  0  0  0  0  0  0  0  0  0  0  0
   -3.4230   -2.3251    4.2821 H   0  0  0  0  0  0  0  0  0  0  0  0
   -4.3841   -2.8255    2.0507 H   0  0  0  0  0  0  0  0  0  0  0  0
  2  3  1  0  0  0  0
  2  5  1  0  0  0  0
  2 22  1  0  0  0  0
  3 10  1  0  0  0  0
  4  1  1  0  0  0  0
  5  4  2  0  0  0  0
  6  7  2  0  0  0  0
  6 23  1  0  0  0  0
  7  9  1  0  0  0  0
  8 11  1  0  0  0  0
  9  8  1  0  0  0  0
  9 24  1  0  0  0  0
 10  1  1  0  0  0  0
 10 25  1  0  0  0  0
 10 26  1  0  0  0  0
 11  1  1  0  0  0  0
 11 27  1  0  0  0  0
 11 28  1  0  0  0  0
 12  6  1  0  0  0  0
 12 29  1  0  0  0  0
 13  3  2  0  0  0  0
 14  8  2  0  0  0  0
 15  7  1  0  0  0  0
 15 30  1  0  0  0  0
 16  5  1  0  0  0  0
 16 31  1  0  0  0  0
 17  4  1  0  0  0  0
 17 32  1  0  0  0  0
 18 15  2  0  0  0  0
 18 33  1  0  0  0  0
 19 18  1  0  0  0  0
 19 12  2  0  0  0  0
 19 34  1  0  0  0  0
 20 21  1  0  0  0  0
 20 16  2  0  0  0  0
 20 35  1  0  0  0  0
 21 17  2  0  0  0  0
 21 36  1  0  0  0  0
M  END
>  <Mol_ID>
8810

>  <Formula>
C16H13Cl2N3O2

>  <MolWeight>
350.19932

>  <Cat>
P3074

>  <Name>
WAY-639284

>  <Synonyms>
N/A

>  <Target>
Mcl-1

>  <Form>
free base

>  <CAS>
796058-45-2

>  <URL>
N/A

$$$$
