WAY-607148
 OpenBabel08302521433D

 52 56  0  0  0  0  0  0  0  0999 V2000
   -0.5247    1.2774    0.5164 C   0  0  0  0  0  0  0  0  0  0  0  0
   -0.8319    2.6740    0.0730 C   0  0  3  0  0  0  0  0  0  0  0  0
   -2.1949    3.0351   -0.2794 N   0  0  0  0  0  0  0  0  0  0  0  0
    0.7330   -0.5523    1.1322 N   0  0  0  0  0  0  0  0  0  0  0  0
    0.7930    0.7425    0.7819 C   0  0  0  0  0  0  0  0  0  0  0  0
   -0.5611   -0.9060    0.9318 N   0  0  0  0  0  0  0  0  0  0  0  0
   -1.3605    0.2087    0.7905 C   0  0  0  0  0  0  0  0  0  0  0  0
   -0.3809    3.8821    1.3557 S   0  0  0  0  0  0  0  0  0  0  0  0
   -2.4112    4.4238   -0.2316 C   0  0  0  0  0  0  0  0  0  0  0  0
   -2.9965    2.2883   -1.2484 C   0  0  0  0  0  0  0  0  0  0  0  0
    2.0720    1.4813    0.7682 C   0  0  0  0  0  0  0  0  0  0  0  0
   -1.3234    5.1619    0.5251 C   0  0  0  0  0  0  0  0  0  0  0  0
   -0.9444   -2.2703    0.7549 C   0  0  0  0  0  0  0  0  0  0  0  0
   -3.3316    5.0006   -0.7936 O   0  0  0  0  0  0  0  0  0  0  0  0
   -1.3728    1.7068   -2.9680 O   0  0  0  0  0  0  0  0  0  0  0  0
    2.3532    2.3926   -0.2617 C   0  0  0  0  0  0  0  0  0  0  0  0
    2.9722    1.3865    1.8363 C   0  0  0  0  0  0  0  0  0  0  0  0
   -2.5703    2.4592   -2.7155 C   0  0  3  0  0  0  0  0  0  0  0  0
    4.2734    3.2229    0.9379 C   0  0  0  0  0  0  0  0  0  0  0  0
    4.0755    2.2476    1.9173 C   0  0  0  0  0  0  0  0  0  0  0  0
    3.4186    3.2899   -0.1561 C   0  0  0  0  0  0  0  0  0  0  0  0
   -1.3776    1.3365   -4.3511 C   0  0  0  0  0  0  0  0  0  0  0  0
   -2.2157   -2.5915    0.2532 C   0  0  0  0  0  0  0  0  0  0  0  0
   -0.0069   -3.2935    0.9514 C   0  0  0  0  0  0  0  0  0  0  0  0
   -3.6124    1.8967   -3.6719 C   0  0  0  0  0  0  0  0  0  0  0  0
   -2.8174    1.3281   -4.8224 C   0  0  0  0  0  0  0  0  0  0  0  0
   -0.3169   -4.6084    0.5875 C   0  0  0  0  0  0  0  0  0  0  0  0
   -2.5121   -3.9047   -0.1225 C   0  0  0  0  0  0  0  0  0  0  0  0
   -1.5583   -4.9084    0.0282 C   0  0  0  0  0  0  0  0  0  0  0  0
   -0.2478    2.9007   -0.8250 H   0  0  0  0  0  0  0  0  0  0  0  0
   -2.4356    0.1296    0.7969 H   0  0  0  0  0  0  0  0  0  0  0  0
   -2.9955    1.2325   -0.9802 H   0  0  0  0  0  0  0  0  0  0  0  0
   -4.0309    2.6426   -1.1432 H   0  0  0  0  0  0  0  0  0  0  0  0
   -1.7465    5.8646    1.2447 H   0  0  0  0  0  0  0  0  0  0  0  0
   -0.6763    5.6850   -0.1851 H   0  0  0  0  0  0  0  0  0  0  0  0
    1.7280    2.4447   -1.1458 H   0  0  0  0  0  0  0  0  0  0  0  0
    2.8040    0.6638    2.6307 H   0  0  0  0  0  0  0  0  0  0  0  0
   -2.3621    3.5083   -2.9576 H   0  0  0  0  0  0  0  0  0  0  0  0
    5.0956    3.9291    1.0257 H   0  0  0  0  0  0  0  0  0  0  0  0
    4.7606    2.1792    2.7541 H   0  0  0  0  0  0  0  0  0  0  0  0
    3.5634    4.0477   -0.9216 H   0  0  0  0  0  0  0  0  0  0  0  0
   -0.9006    0.3587   -4.4627 H   0  0  0  0  0  0  0  0  0  0  0  0
   -0.7890    2.0716   -4.9103 H   0  0  0  0  0  0  0  0  0  0  0  0
   -2.9795   -1.8381    0.0874 H   0  0  0  0  0  0  0  0  0  0  0  0
    0.9793   -3.0790    1.3591 H   0  0  0  0  0  0  0  0  0  0  0  0
   -4.1899    1.0933   -3.2002 H   0  0  0  0  0  0  0  0  0  0  0  0
   -4.3293    2.6606   -3.9923 H   0  0  0  0  0  0  0  0  0  0  0  0
   -3.1488    0.3096   -5.0553 H   0  0  0  0  0  0  0  0  0  0  0  0
   -2.9362    1.9142   -5.7399 H   0  0  0  0  0  0  0  0  0  0  0  0
    0.4233   -5.3953    0.7133 H   0  0  0  0  0  0  0  0  0  0  0  0
   -3.4795   -4.1377   -0.5618 H   0  0  0  0  0  0  0  0  0  0  0  0
   -1.7797   -5.9216   -0.2982 H   0  0  0  0  0  0  0  0  0  0  0  0
  2  1  1  0  0  0  0
  2 30  1  0  0  0  0
  3  2  1  0  0  0  0
  4  5  2  0  0  0  0
  5  1  1  0  0  0  0
  6  7  1  0  0  0  0
  6  4  1  0  0  0  0
  7  1  2  0  0  0  0
  7 31  1  0  0  0  0
  8  2  1  0  0  0  0
  9  3  1  0  0  0  0
  9 12  1  0  0  0  0
 10  3  1  0  0  0  0
 10 32  1  0  0  0  0
 10 33  1  0  0  0  0
 11  5  1  0  0  0  0
 12  8  1  0  0  0  0
 12 34  1  0  0  0  0
 12 35  1  0  0  0  0
 13  6  1  0  0  0  0
 14  9  2  0  0  0  0
 15 18  1  0  0  0  0
 16 11  2  0  0  0  0
 16 36  1  0  0  0  0
 17 11  1  0  0  0  0
 17 37  1  0  0  0  0
 18 10  1  0  0  0  0
 18 38  1  0  0  0  0
 19 20  1  0  0  0  0
 19 39  1  0  0  0  0
 20 17  2  0  0  0  0
 20 40  1  0  0  0  0
 21 16  1  0  0  0  0
 21 19  2  0  0  0  0
 21 41  1  0  0  0  0
 22 15  1  0  0  0  0
 22 26  1  0  0  0  0
 22 42  1  0  0  0  0
 22 43  1  0  0  0  0
 23 13  2  0  0  0  0
 23 44  1  0  0  0  0
 24 13  1  0  0  0  0
 24 45  1  0  0  0  0
 25 18  1  0  0  0  0
 25 46  1  0  0  0  0
 25 47  1  0  0  0  0
 26 25  1  0  0  0  0
 26 48  1  0  0  0  0
 26 49  1  0  0  0  0
 27 24  2  0  0  0  0
 27 50  1  0  0  0  0
 28 23  1  0  0  0  0
 28 51  1  0  0  0  0
 29 27  1  0  0  0  0
 29 28  2  0  0  0  0
 29 52  1  0  0  0  0
M  END
>  <Mol_ID>
8737

>  <Formula>
C23H22ClN3O2S

>  <MolWeight>
439.95768

>  <Cat>
P2883

>  <Name>
WAY-607148

>  <Synonyms>
N/A

>  <Target>
hepatitis B

>  <Form>
free base

>  <CAS>
380483-01-2

>  <URL>
N/A

$$$$
