WAY-300374
 OpenBabel08302521413D

 50 53  0  0  0  0  0  0  0  0999 V2000
   -1.8027    0.3959   -0.2503 C   0  0  3  0  0  0  0  0  0  0  0  0
   -0.6264    1.3167   -0.0872 C   0  0  0  0  0  0  0  0  0  0  0  0
   -1.1498   -0.9003   -0.0571 N   0  0  0  0  0  0  0  0  0  0  0  0
   -2.5234    0.4578   -1.5924 C   0  0  0  0  0  0  0  0  0  0  0  0
   -0.8335    2.7562    0.1689 C   0  0  0  0  0  0  0  0  0  0  0  0
    0.5370    0.6536   -0.0877 C   0  0  0  0  0  0  0  0  0  0  0  0
    0.2212   -0.7839   -0.0443 C   0  0  0  0  0  0  0  0  0  0  0  0
   -1.8432   -2.1695    0.0539 C   0  0  0  0  0  0  0  0  0  0  0  0
   -1.8506    0.2795   -2.8179 C   0  0  0  0  0  0  0  0  0  0  0  0
   -3.9219    0.6217   -1.6228 C   0  0  0  0  0  0  0  0  0  0  0  0
    0.1157    3.5111    1.0405 C   0  0  0  0  0  0  0  0  0  0  0  0
   -1.8278    3.3205   -0.2794 O   0  0  0  0  0  0  0  0  0  0  0  0
    1.8154    1.1212    0.0205 O   0  0  0  0  0  0  0  0  0  0  0  0
    1.0697   -1.6516    0.0714 O   0  0  0  0  0  0  0  0  0  0  0  0
   -2.0673   -2.6507    1.4924 C   0  0  0  0  0  0  0  0  0  0  0  0
   -2.5596    0.2192   -4.0232 C   0  0  0  0  0  0  0  0  0  0  0  0
   -4.6287    0.5604   -2.8296 C   0  0  0  0  0  0  0  0  0  0  0  0
    0.2965    4.8809    0.8148 C   0  0  0  0  0  0  0  0  0  0  0  0
    0.7958    2.9017    2.1060 C   0  0  0  0  0  0  0  0  0  0  0  0
   -3.0034   -1.8059    2.3591 C   0  0  0  0  0  0  0  0  0  0  0  0
   -3.9416    0.3442   -4.0154 C   0  0  0  0  0  0  0  0  0  0  0  0
    1.1979    5.6094    1.5979 C   0  0  0  0  0  0  0  0  0  0  0  0
    1.7148    3.6246    2.8685 C   0  0  0  0  0  0  0  0  0  0  0  0
   -4.3425   -1.5916    1.8548 N   0  0  0  0  0  0  0  0  0  0  0  0
   -4.6222    0.2436   -5.1664 F   0  0  0  0  0  0  0  0  0  0  0  0
    1.9204    4.9755    2.6104 C   0  0  0  0  0  0  0  0  0  0  0  0
   -5.1073   -2.4431    1.1099 C   0  0  0  0  0  0  0  0  0  0  0  0
   -5.0966   -0.4774    2.1029 C   0  0  0  0  0  0  0  0  0  0  0  0
   -6.2784   -1.7600    0.8762 C   0  0  0  0  0  0  0  0  0  0  0  0
   -6.2585   -0.5381    1.4941 N   0  0  0  0  0  0  0  0  0  0  0  0
   -2.5062    0.5417    0.5791 H   0  0  0  0  0  0  0  0  0  0  0  0
   -2.7699   -2.1405   -0.5264 H   0  0  0  0  0  0  0  0  0  0  0  0
   -1.1993   -2.9188   -0.4253 H   0  0  0  0  0  0  0  0  0  0  0  0
   -0.7695    0.1664   -2.8499 H   0  0  0  0  0  0  0  0  0  0  0  0
   -4.4842    0.7869   -0.7051 H   0  0  0  0  0  0  0  0  0  0  0  0
    2.3832    0.3264    0.1039 H   0  0  0  0  0  0  0  0  0  0  0  0
   -2.4554   -3.6763    1.4506 H   0  0  0  0  0  0  0  0  0  0  0  0
   -1.1002   -2.7140    2.0074 H   0  0  0  0  0  0  0  0  0  0  0  0
   -2.0434    0.0632   -4.9653 H   0  0  0  0  0  0  0  0  0  0  0  0
   -5.7078    0.6704   -2.8442 H   0  0  0  0  0  0  0  0  0  0  0  0
   -0.2581    5.3844    0.0260 H   0  0  0  0  0  0  0  0  0  0  0  0
    0.6426    1.8554    2.3498 H   0  0  0  0  0  0  0  0  0  0  0  0
   -3.1254   -2.2896    3.3363 H   0  0  0  0  0  0  0  0  0  0  0  0
   -2.5553   -0.8225    2.5414 H   0  0  0  0  0  0  0  0  0  0  0  0
    1.3419    6.6699    1.4138 H   0  0  0  0  0  0  0  0  0  0  0  0
    2.2746    3.1286    3.6583 H   0  0  0  0  0  0  0  0  0  0  0  0
    2.6372    5.5393    3.2019 H   0  0  0  0  0  0  0  0  0  0  0  0
   -4.7790   -3.4249    0.8003 H   0  0  0  0  0  0  0  0  0  0  0  0
   -4.7560    0.3429    2.7222 H   0  0  0  0  0  0  0  0  0  0  0  0
   -7.1365   -2.0866    0.3025 H   0  0  0  0  0  0  0  0  0  0  0  0
  1  2  1  0  0  0  0
  1  3  1  0  0  0  0
  1  4  1  0  0  0  0
  1 31  1  0  0  0  0
  2  5  1  0  0  0  0
  2  6  2  0  0  0  0
  3  7  1  0  0  0  0
  3  8  1  0  0  0  0
  4  9  2  0  0  0  0
  4 10  1  0  0  0  0
  5 11  1  0  0  0  0
  5 12  2  0  0  0  0
  6 13  1  0  0  0  0
  6  7  1  0  0  0  0
  7 14  2  0  0  0  0
  8 15  1  0  0  0  0
  8 32  1  0  0  0  0
  8 33  1  0  0  0  0
  9 16  1  0  0  0  0
  9 34  1  0  0  0  0
 10 17  2  0  0  0  0
 10 35  1  0  0  0  0
 11 18  2  0  0  0  0
 11 19  1  0  0  0  0
 13 36  1  0  0  0  0
 15 20  1  0  0  0  0
 15 37  1  0  0  0  0
 15 38  1  0  0  0  0
 16 21  2  0  0  0  0
 16 39  1  0  0  0  0
 17 21  1  0  0  0  0
 17 40  1  0  0  0  0
 18 22  1  0  0  0  0
 18 41  1  0  0  0  0
 19 23  2  0  0  0  0
 19 42  1  0  0  0  0
 20 24  1  0  0  0  0
 20 43  1  0  0  0  0
 20 44  1  0  0  0  0
 21 25  1  0  0  0  0
 22 26  2  0  0  0  0
 22 45  1  0  0  0  0
 23 26  1  0  0  0  0
 23 46  1  0  0  0  0
 24 27  1  0  0  0  0
 24 28  1  0  0  0  0
 26 47  1  0  0  0  0
 27 29  2  0  0  0  0
 27 48  1  0  0  0  0
 28 30  2  0  0  0  0
 28 49  1  0  0  0  0
 29 30  1  0  0  0  0
 29 50  1  0  0  0  0
M  END
>  <Mol_ID>
8405

>  <Formula>
C23H20FN3O3

>  <MolWeight>
405.4216032

>  <Cat>
P2138

>  <Name>
WAY-300374

>  <Synonyms>
N/A

>  <Target>
p53-MDM2

>  <Form>
free base

>  <CAS>
350678-63-6

>  <URL>
N/A

$$$$
