WAY-332069
 OpenBabel08302521453D

 52 55  0  0  0  0  0  0  0  0999 V2000
   -0.1365   -1.0224   -0.1208 C   0  0  0  0  0  0  0  0  0  0  0  0
   -0.5441    0.2017    0.1722 N   0  0  0  0  0  0  0  0  0  0  0  0
    0.5034    1.0222   -0.2021 C   0  0  0  0  0  0  0  0  0  0  0  0
    1.1514   -1.0678   -0.5977 O   0  0  0  0  0  0  0  0  0  0  0  0
    1.5456    0.2401   -0.6569 C   0  0  0  0  0  0  0  0  0  0  0  0
   -0.2113    3.2125   -1.6658 S   0  0  3  0  0  0  0  0  0  0  0  0
    0.4088    2.5057   -0.0973 C   0  0  0  0  0  0  0  0  0  0  0  0
   -0.8413   -2.3107   -0.0347 C   0  0  0  0  0  0  0  0  0  0  0  0
   -0.1822    4.9651   -1.1525 C   0  0  0  0  0  0  0  0  0  0  0  0
   -0.7815    5.8854   -2.2119 C   0  0  0  0  0  0  0  0  0  0  0  0
   -5.0945    9.8054   -1.5028 C   0  0  0  0  0  0  0  0  0  0  0  0
   -6.0046    8.7800   -1.5878 C   0  0  0  0  0  0  0  0  0  0  0  0
   -5.6752   10.9797   -1.1277 O   0  0  0  0  0  0  0  0  0  0  0  0
   -7.2680    9.1752   -1.2765 O   0  0  0  0  0  0  0  0  0  0  0  0
   -7.0601   10.5807   -1.0330 C   0  0  0  0  0  0  0  0  0  0  0  0
   -1.2835    7.0771   -1.7163 N   0  0  0  0  0  0  0  0  0  0  0  0
    0.8823    3.0192   -2.6792 O   0  0  0  0  0  0  0  0  0  0  0  0
   -3.7557    9.6201   -1.7923 C   0  0  0  0  0  0  0  0  0  0  0  0
   -0.8125    5.6261   -3.4107 O   0  0  0  0  0  0  0  0  0  0  0  0
   -2.2421   -2.4305   -0.1784 C   0  0  0  0  0  0  0  0  0  0  0  0
   -5.6309    7.5088   -1.9631 C   0  0  0  0  0  0  0  0  0  0  0  0
   -3.3343    8.3369   -2.1865 C   0  0  0  0  0  0  0  0  0  0  0  0
   -1.8993    8.0708   -2.5806 C   0  0  0  0  0  0  0  0  0  0  0  0
   -4.2854    7.2912   -2.2701 C   0  0  0  0  0  0  0  0  0  0  0  0
    2.8936    0.5077   -1.1890 C   0  0  0  0  0  0  0  0  0  0  0  0
   -0.0970   -3.4887    0.1957 C   0  0  0  0  0  0  0  0  0  0  0  0
   -3.1685   -1.2856   -0.4873 C   0  0  0  0  0  0  0  0  0  0  0  0
   -2.8467   -3.7010   -0.0640 C   0  0  0  0  0  0  0  0  0  0  0  0
   -0.7123   -4.7399    0.3013 C   0  0  0  0  0  0  0  0  0  0  0  0
   -2.0886   -4.8440    0.1776 C   0  0  0  0  0  0  0  0  0  0  0  0
   -0.2710    2.7885    0.7122 H   0  0  0  0  0  0  0  0  0  0  0  0
    1.3924    2.9417    0.1056 H   0  0  0  0  0  0  0  0  0  0  0  0
   -0.7532    5.0590   -0.2236 H   0  0  0  0  0  0  0  0  0  0  0  0
    0.8570    5.2588   -0.9750 H   0  0  0  0  0  0  0  0  0  0  0  0
   -7.6421   11.1525   -1.7661 H   0  0  0  0  0  0  0  0  0  0  0  0
   -7.4308   10.8206   -0.0298 H   0  0  0  0  0  0  0  0  0  0  0  0
   -1.2262    7.2938   -0.7313 H   0  0  0  0  0  0  0  0  0  0  0  0
   -3.0671   10.4571   -1.7320 H   0  0  0  0  0  0  0  0  0  0  0  0
   -6.3598    6.7099   -2.0356 H   0  0  0  0  0  0  0  0  0  0  0  0
   -1.8702    7.7622   -3.6319 H   0  0  0  0  0  0  0  0  0  0  0  0
   -1.2983    8.9837   -2.4945 H   0  0  0  0  0  0  0  0  0  0  0  0
   -3.9683    6.3022   -2.5976 H   0  0  0  0  0  0  0  0  0  0  0  0
    3.6516   -0.0085   -0.5915 H   0  0  0  0  0  0  0  0  0  0  0  0
    2.9743    0.1606   -2.2234 H   0  0  0  0  0  0  0  0  0  0  0  0
    3.1225    1.5773   -1.1710 H   0  0  0  0  0  0  0  0  0  0  0  0
    0.9862   -3.4382    0.2992 H   0  0  0  0  0  0  0  0  0  0  0  0
   -3.7148   -1.4988   -1.4128 H   0  0  0  0  0  0  0  0  0  0  0  0
   -3.8882   -1.1611    0.3284 H   0  0  0  0  0  0  0  0  0  0  0  0
   -2.6679   -0.3311   -0.6392 H   0  0  0  0  0  0  0  0  0  0  0  0
   -3.9263   -3.8002   -0.1694 H   0  0  0  0  0  0  0  0  0  0  0  0
   -0.1140   -5.6302    0.4787 H   0  0  0  0  0  0  0  0  0  0  0  0
   -2.5772   -5.8155    0.2588 H   0  0  0  0  0  0  0  0  0  0  0  0
  2  1  2  0  0  0  0
  3  2  1  0  0  0  0
  4  1  1  0  0  0  0
  5  4  1  0  0  0  0
  5  3  2  0  0  0  0
  6  7  1  0  0  0  0
  7  3  1  0  0  0  0
  7 31  1  0  0  0  0
  7 32  1  0  0  0  0
  8  1  1  0  0  0  0
  9  6  1  0  0  0  0
  9 33  1  0  0  0  0
  9 34  1  0  0  0  0
 10  9  1  0  0  0  0
 11 18  2  0  0  0  0
 12 21  2  0  0  0  0
 12 11  1  0  0  0  0
 13 11  1  0  0  0  0
 14 12  1  0  0  0  0
 15 13  1  0  0  0  0
 15 14  1  0  0  0  0
 15 35  1  0  0  0  0
 15 36  1  0  0  0  0
 16 10  1  0  0  0  0
 16 37  1  0  0  0  0
 17  6  2  0  0  0  0
 18 22  1  0  0  0  0
 18 38  1  0  0  0  0
 19 10  2  0  0  0  0
 20  8  2  0  0  0  0
 21 24  1  0  0  0  0
 21 39  1  0  0  0  0
 22 23  1  0  0  0  0
 23 16  1  0  0  0  0
 23 40  1  0  0  0  0
 23 41  1  0  0  0  0
 24 22  2  0  0  0  0
 24 42  1  0  0  0  0
 25  5  1  0  0  0  0
 25 43  1  0  0  0  0
 25 44  1  0  0  0  0
 25 45  1  0  0  0  0
 26  8  1  0  0  0  0
 26 46  1  0  0  0  0
 27 20  1  0  0  0  0
 27 47  1  0  0  0  0
 27 48  1  0  0  0  0
 27 49  1  0  0  0  0
 28 20  1  0  0  0  0
 28 50  1  0  0  0  0
 29 26  2  0  0  0  0
 29 51  1  0  0  0  0
 30 29  1  0  0  0  0
 30 28  2  0  0  0  0
 30 52  1  0  0  0  0
M  END
>  <Mol_ID>
9293

>  <Formula>
C22H22N2O5S

>  <MolWeight>
426.48548

>  <Cat>
P2711

>  <Name>
WAY-332069

>  <Synonyms>
N/A

>  <Target>
beta-catenin

>  <Form>
free base

>  <CAS>
1015864-76-2

>  <URL>
N/A

$$$$
