WAY-326116
 OpenBabel08302521433D

 37 39  0  0  0  0  0  0  0  0999 V2000
    0.1904   -0.6379    0.0747 C   0  0  0  0  0  0  0  0  0  0  0  0
    0.2416    0.7647    0.0645 N   0  0  0  0  0  0  0  0  0  0  0  0
   -0.9267    1.5254    0.0293 C   0  0  0  0  0  0  0  0  0  0  0  0
    1.5042   -1.0851    0.0977 C   0  0  0  0  0  0  0  0  0  0  0  0
    1.5219    1.2122    0.1178 N   0  0  0  0  0  0  0  0  0  0  0  0
   -1.0065   -1.3043    0.0642 N   0  0  0  0  0  0  0  0  0  0  0  0
   -2.1211    0.9057    0.0221 C   0  0  0  0  0  0  0  0  0  0  0  0
    2.2624    0.1043    0.1117 C   0  0  0  0  0  0  0  0  0  0  0  0
    1.9632   -2.4665    0.0441 C   0  0  0  0  0  0  0  0  0  0  0  0
   -2.0911   -0.5864    0.0350 C   0  0  0  0  0  0  0  0  0  0  0  0
   -0.7845    3.0051    0.0236 C   0  0  0  0  0  0  0  0  0  0  0  0
    3.2138   -2.6941    0.5916 N   0  0  0  0  0  0  0  0  0  0  0  0
    1.3121   -3.3619   -0.4816 O   0  0  0  0  0  0  0  0  0  0  0  0
    3.9114   -3.9522    0.4047 C   0  0  0  0  0  0  0  0  0  0  0  0
   -0.6871    3.4726   -1.2507 F   0  0  0  0  0  0  0  0  0  0  0  0
   -1.9040    3.5976    0.5371 F   0  0  0  0  0  0  0  0  0  0  0  0
    4.6362   -6.3098    3.9540 C   0  0  0  0  0  0  0  0  0  0  0  0
    4.1695   -4.7068    1.6870 C   0  0  0  0  0  0  0  0  0  0  0  0
    5.7084   -5.8490    3.1938 C   0  0  0  0  0  0  0  0  0  0  0  0
    3.3343   -5.9710    3.5909 C   0  0  0  0  0  0  0  0  0  0  0  0
    3.1015   -5.1738    2.4658 C   0  0  0  0  0  0  0  0  0  0  0  0
    5.4765   -5.0523    2.0670 C   0  0  0  0  0  0  0  0  0  0  0  0
   -3.4201   -1.2998    0.0134 C   0  0  0  0  0  0  0  0  0  0  0  0
   -3.0686    1.4290   -0.0005 H   0  0  0  0  0  0  0  0  0  0  0  0
    3.3396    0.2124    0.0968 H   0  0  0  0  0  0  0  0  0  0  0  0
    0.0677    3.3720    0.6013 H   0  0  0  0  0  0  0  0  0  0  0  0
    3.6838   -1.9689    1.1111 H   0  0  0  0  0  0  0  0  0  0  0  0
    3.3715   -4.6050   -0.2899 H   0  0  0  0  0  0  0  0  0  0  0  0
    4.8631   -3.6962   -0.0750 H   0  0  0  0  0  0  0  0  0  0  0  0
    4.8138   -6.9470    4.8169 H   0  0  0  0  0  0  0  0  0  0  0  0
    6.7237   -6.1258    3.4662 H   0  0  0  0  0  0  0  0  0  0  0  0
    2.4954   -6.3442    4.1733 H   0  0  0  0  0  0  0  0  0  0  0  0
    2.0767   -4.9433    2.1787 H   0  0  0  0  0  0  0  0  0  0  0  0
    6.3296   -4.7300    1.4729 H   0  0  0  0  0  0  0  0  0  0  0  0
   -3.4955   -1.8938   -0.9018 H   0  0  0  0  0  0  0  0  0  0  0  0
   -3.4882   -1.9649    0.8791 H   0  0  0  0  0  0  0  0  0  0  0  0
   -4.2555   -0.5951    0.0459 H   0  0  0  0  0  0  0  0  0  0  0  0
  2  1  1  0  0  0  0
  3  2  1  0  0  0  0
  4  1  2  0  0  0  0
  5  2  1  0  0  0  0
  6  1  1  0  0  0  0
  7 10  1  0  0  0  0
  7  3  2  0  0  0  0
  7 24  1  0  0  0  0
  8  4  1  0  0  0  0
  8  5  2  0  0  0  0
  8 25  1  0  0  0  0
  9  4  1  0  0  0  0
 10  6  2  0  0  0  0
 11  3  1  0  0  0  0
 11 26  1  0  0  0  0
 12  9  1  0  0  0  0
 12 27  1  0  0  0  0
 13  9  2  0  0  0  0
 14 12  1  0  0  0  0
 14 28  1  0  0  0  0
 14 29  1  0  0  0  0
 15 11  1  0  0  0  0
 16 11  1  0  0  0  0
 17 19  2  0  0  0  0
 17 30  1  0  0  0  0
 18 14  1  0  0  0  0
 19 22  1  0  0  0  0
 19 31  1  0  0  0  0
 20 21  2  0  0  0  0
 20 17  1  0  0  0  0
 20 32  1  0  0  0  0
 21 18  1  0  0  0  0
 21 33  1  0  0  0  0
 22 18  2  0  0  0  0
 22 34  1  0  0  0  0
 23 10  1  0  0  0  0
 23 35  1  0  0  0  0
 23 36  1  0  0  0  0
 23 37  1  0  0  0  0
M  END
>  <Mol_ID>
8893

>  <Formula>
C16H13ClF2N4O

>  <MolWeight>
350.7504264

>  <Cat>
P2451

>  <Name>
WAY-326116

>  <Synonyms>
N/A

>  <Target>
Others

>  <Form>
free base

>  <CAS>
869715-80-0

>  <URL>
N/A

$$$$
