WAY-624107
 OpenBabel08302521453D

 50 53  0  0  0  0  0  0  0  0999 V2000
    4.6278   -1.4291   -3.1734 S   0  0  0  0  0  0  0  0  0  0  0  0
    3.5730   -2.6105   -2.6217 N   0  0  0  0  0  0  0  0  0  0  0  0
    3.8581   -3.8994   -3.1141 C   0  0  0  0  0  0  0  0  0  0  0  0
    0.7869   -3.7467   -0.5025 C   0  0  0  0  0  0  0  0  0  0  0  0
   -0.9929   -4.8501    0.3517 N   0  0  0  0  0  0  0  0  0  0  0  0
    0.3869   -4.6943    0.4442 C   0  0  0  0  0  0  0  0  0  0  0  0
    5.1878   -3.8846   -3.7460 C   0  0  0  0  0  0  0  0  0  0  0  0
    5.7142   -2.6013   -3.8634 C   0  0  0  0  0  0  0  0  0  0  0  0
    2.4172   -2.2192   -1.8207 C   0  0  0  0  0  0  0  0  0  0  0  0
   -0.3837   -3.4214   -1.2425 C   0  0  0  0  0  0  0  0  0  0  0  0
   -1.4656   -4.0691   -0.6842 C   0  0  0  0  0  0  0  0  0  0  0  0
    2.1571   -3.2254   -0.7020 C   0  0  0  0  0  0  0  0  0  0  0  0
    3.9895   -0.7048   -4.2422 O   0  0  0  0  0  0  0  0  0  0  0  0
    5.2782   -0.7959   -2.0506 O   0  0  0  0  0  0  0  0  0  0  0  0
   -1.7985   -5.8097    1.0965 C   0  0  0  0  0  0  0  0  0  0  0  0
    3.1198   -4.8635   -3.0396 O   0  0  0  0  0  0  0  0  0  0  0  0
    3.0896   -3.5421    0.0386 O   0  0  0  0  0  0  0  0  0  0  0  0
   -3.3196   -6.3812    2.8701 O   0  0  0  0  0  0  0  0  0  0  0  0
   -2.6030   -5.2724    2.2913 C   0  0  3  0  0  0  0  0  0  0  0  0
    5.9289   -4.9912   -4.1303 C   0  0  0  0  0  0  0  0  0  0  0  0
    1.2256   -5.4877    1.3979 C   0  0  0  0  0  0  0  0  0  0  0  0
    6.9748   -2.3619   -4.3828 C   0  0  0  0  0  0  0  0  0  0  0  0
   -2.8940   -3.9929   -1.0998 C   0  0  0  0  0  0  0  0  0  0  0  0
   -3.3445   -6.2561    4.2921 C   0  0  0  0  0  0  0  0  0  0  0  0
   -1.7867   -4.6575    3.4130 C   0  0  0  0  0  0  0  0  0  0  0  0
    7.2120   -4.7748   -4.6413 C   0  0  0  0  0  0  0  0  0  0  0  0
    7.7250   -3.4704   -4.7777 C   0  0  0  0  0  0  0  0  0  0  0  0
   -2.4296   -5.1243    4.6937 C   0  0  0  0  0  0  0  0  0  0  0  0
    2.5922   -1.2545   -1.3276 H   0  0  0  0  0  0  0  0  0  0  0  0
    1.5608   -2.1007   -2.4865 H   0  0  0  0  0  0  0  0  0  0  0  0
   -0.4582   -2.7689   -2.1031 H   0  0  0  0  0  0  0  0  0  0  0  0
   -2.4923   -6.2716    0.3811 H   0  0  0  0  0  0  0  0  0  0  0  0
   -1.1535   -6.6354    1.4154 H   0  0  0  0  0  0  0  0  0  0  0  0
   -3.3560   -4.5526    1.9524 H   0  0  0  0  0  0  0  0  0  0  0  0
    5.5361   -5.9954   -4.0039 H   0  0  0  0  0  0  0  0  0  0  0  0
    0.9207   -5.3255    2.4293 H   0  0  0  0  0  0  0  0  0  0  0  0
    1.1570   -6.5560    1.1736 H   0  0  0  0  0  0  0  0  0  0  0  0
    2.2825   -5.2243    1.3583 H   0  0  0  0  0  0  0  0  0  0  0  0
    7.3712   -1.3548   -4.4608 H   0  0  0  0  0  0  0  0  0  0  0  0
   -3.2271   -4.9343   -1.5463 H   0  0  0  0  0  0  0  0  0  0  0  0
   -3.5373   -3.7514   -0.2500 H   0  0  0  0  0  0  0  0  0  0  0  0
   -3.0331   -3.2025   -1.8469 H   0  0  0  0  0  0  0  0  0  0  0  0
   -3.0269   -7.2084    4.7284 H   0  0  0  0  0  0  0  0  0  0  0  0
   -4.3739   -6.0667    4.6136 H   0  0  0  0  0  0  0  0  0  0  0  0
   -0.7599   -5.0122    3.4071 H   0  0  0  0  0  0  0  0  0  0  0  0
   -1.7510   -3.5648    3.3384 H   0  0  0  0  0  0  0  0  0  0  0  0
    7.8307   -5.6264   -4.9219 H   0  0  0  0  0  0  0  0  0  0  0  0
    8.7289   -3.3299   -5.1763 H   0  0  0  0  0  0  0  0  0  0  0  0
   -1.6770   -5.4641    5.4153 H   0  0  0  0  0  0  0  0  0  0  0  0
   -2.9911   -4.3214    5.1821 H   0  0  0  0  0  0  0  0  0  0  0  0
  2  1  1  0  0  0  0
  3  2  1  0  0  0  0
  4 12  1  0  0  0  0
  5  6  1  0  0  0  0
  5 11  1  0  0  0  0
  6  4  2  0  0  0  0
  7  8  2  0  0  0  0
  7  3  1  0  0  0  0
  8  1  1  0  0  0  0
  9  2  1  0  0  0  0
  9 29  1  0  0  0  0
  9 30  1  0  0  0  0
 10  4  1  0  0  0  0
 10 31  1  0  0  0  0
 11 10  2  0  0  0  0
 12  9  1  0  0  0  0
 13  1  2  0  0  0  0
 14  1  2  0  0  0  0
 15  5  1  0  0  0  0
 15 32  1  0  0  0  0
 15 33  1  0  0  0  0
 16  3  2  0  0  0  0
 17 12  2  0  0  0  0
 18 19  1  0  0  0  0
 19 15  1  0  0  0  0
 19 34  1  0  0  0  0
 20  7  1  0  0  0  0
 20 35  1  0  0  0  0
 21  6  1  0  0  0  0
 21 36  1  0  0  0  0
 21 37  1  0  0  0  0
 21 38  1  0  0  0  0
 22  8  1  0  0  0  0
 22 39  1  0  0  0  0
 23 11  1  0  0  0  0
 23 40  1  0  0  0  0
 23 41  1  0  0  0  0
 23 42  1  0  0  0  0
 24 18  1  0  0  0  0
 24 28  1  0  0  0  0
 24 43  1  0  0  0  0
 24 44  1  0  0  0  0
 25 19  1  0  0  0  0
 25 45  1  0  0  0  0
 25 46  1  0  0  0  0
 26 27  1  0  0  0  0
 26 20  2  0  0  0  0
 26 47  1  0  0  0  0
 27 22  2  0  0  0  0
 27 48  1  0  0  0  0
 28 25  1  0  0  0  0
 28 49  1  0  0  0  0
 28 50  1  0  0  0  0
M  END
>  <Mol_ID>
9305

>  <Formula>
C20H22N2O5S

>  <MolWeight>
402.46408

>  <Cat>
P2998

>  <Name>
WAY-624107

>  <Synonyms>
N/A

>  <Target>
KLF5

>  <Form>
free base

>  <CAS>
956909-87-8

>  <URL>
N/A

$$$$
