WAY-301537
 OpenBabel08302521413D

 35 37  0  0  0  0  0  0  0  0999 V2000
   -0.3563    1.1017    0.0115 C   0  0  0  0  0  0  0  0  0  0  0  0
   -0.9846    2.4613   -0.0396 C   0  0  0  0  0  0  0  0  0  0  0  0
    1.0214    0.8437   -0.1601 C   0  0  0  0  0  0  0  0  0  0  0  0
   -1.0412   -0.0315    0.2103 N   0  0  0  0  0  0  0  0  0  0  0  0
   -2.3193    2.7289    0.1760 C   0  0  0  0  0  0  0  0  0  0  0  0
   -0.1058    3.8854   -0.3931 S   0  0  0  0  0  0  0  0  0  0  0  0
    1.1691   -0.5240   -0.0635 C   0  0  0  0  0  0  0  0  0  0  0  0
   -0.1015   -0.9957    0.1403 N   0  0  0  0  0  0  0  0  0  0  0  0
   -2.6203    4.1173    0.0141 C   0  0  0  0  0  0  0  0  0  0  0  0
   -1.5078    4.8571   -0.3304 C   0  0  0  0  0  0  0  0  0  0  0  0
    2.3243   -1.3840   -0.1640 C   0  0  0  0  0  0  0  0  0  0  0  0
   -1.4031    6.3088   -0.6453 C   0  0  0  0  0  0  0  0  0  0  0  0
    3.5202   -0.6858   -0.3164 N   0  0  0  0  0  0  0  0  0  0  0  0
    2.2146   -2.6039   -0.1080 O   0  0  0  0  0  0  0  0  0  0  0  0
    4.7869   -1.1979   -0.4146 N   0  0  0  0  0  0  0  0  0  0  0  0
    4.9382   -2.3757   -0.9290 C   0  0  0  0  0  0  0  0  0  0  0  0
    6.2690   -2.9979   -1.0542 C   0  0  0  0  0  0  0  0  0  0  0  0
    7.4279   -2.3253   -0.6761 C   0  0  0  0  0  0  0  0  0  0  0  0
    6.3431   -4.2854   -1.5796 C   0  0  0  0  0  0  0  0  0  0  0  0
    8.6322   -2.9815   -0.8422 C   0  0  0  0  0  0  0  0  0  0  0  0
    7.5973   -4.8523   -1.7062 C   0  0  0  0  0  0  0  0  0  0  0  0
    8.7411   -4.2307   -1.3490 N   0  0  0  0  0  0  0  0  0  0  0  0
    1.7947    1.5759   -0.3410 H   0  0  0  0  0  0  0  0  0  0  0  0
   -3.0485    1.9669    0.4259 H   0  0  0  0  0  0  0  0  0  0  0  0
   -0.3853   -1.9666    0.2346 H   0  0  0  0  0  0  0  0  0  0  0  0
   -3.6107    4.5422    0.1243 H   0  0  0  0  0  0  0  0  0  0  0  0
   -0.6324    6.7908   -0.0345 H   0  0  0  0  0  0  0  0  0  0  0  0
   -1.1455    6.4496   -1.7008 H   0  0  0  0  0  0  0  0  0  0  0  0
   -2.3515    6.8217   -0.4589 H   0  0  0  0  0  0  0  0  0  0  0  0
    3.5163    0.3103   -0.1329 H   0  0  0  0  0  0  0  0  0  0  0  0
    4.0994   -2.9661   -1.3309 H   0  0  0  0  0  0  0  0  0  0  0  0
    7.3989   -1.3201   -0.2679 H   0  0  0  0  0  0  0  0  0  0  0  0
    5.4594   -4.8330   -1.8816 H   0  0  0  0  0  0  0  0  0  0  0  0
    9.5720   -2.5109   -0.5688 H   0  0  0  0  0  0  0  0  0  0  0  0
    7.7207   -5.8559   -2.1050 H   0  0  0  0  0  0  0  0  0  0  0  0
  1  2  1  0  0  0  0
  1  3  1  0  0  0  0
  1  4  2  0  0  0  0
  2  5  2  0  0  0  0
  2  6  1  0  0  0  0
  3  7  2  0  0  0  0
  3 23  1  0  0  0  0
  4  8  1  0  0  0  0
  5  9  1  0  0  0  0
  5 24  1  0  0  0  0
  6 10  1  0  0  0  0
  7 11  1  0  0  0  0
  7  8  1  0  0  0  0
  8 25  1  0  0  0  0
  9 10  2  0  0  0  0
  9 26  1  0  0  0  0
 10 12  1  0  0  0  0
 11 13  1  0  0  0  0
 11 14  2  0  0  0  0
 12 27  1  0  0  0  0
 12 28  1  0  0  0  0
 12 29  1  0  0  0  0
 13 15  1  0  0  0  0
 13 30  1  0  0  0  0
 15 16  2  0  0  0  0
 16 17  1  0  0  0  0
 16 31  1  0  0  0  0
 17 18  2  0  0  0  0
 17 19  1  0  0  0  0
 18 20  1  0  0  0  0
 18 32  1  0  0  0  0
 19 21  2  0  0  0  0
 19 33  1  0  0  0  0
 20 22  2  0  0  0  0
 20 34  1  0  0  0  0
 21 22  1  0  0  0  0
 21 35  1  0  0  0  0
M  END
>  <Mol_ID>
8441

>  <Formula>
C15H13N5OS

>  <MolWeight>
311.36162

>  <Cat>
P2174

>  <Name>
WAY-301537

>  <Synonyms>
N/A

>  <Target>
TRPM8

>  <Form>
free base

>  <CAS>
402512-28-1

>  <URL>
N/A

$$$$
