WAY-325453
 OpenBabel08302521433D

 43 45  0  0  0  0  0  0  0  0999 V2000
   -0.0822    1.0960   -0.1875 C   0  0  0  0  0  0  0  0  0  0  0  0
   -0.6268    2.4420   -0.3240 C   0  0  0  0  0  0  0  0  0  0  0  0
    0.1445    3.4244   -0.9730 N   0  0  0  0  0  0  0  0  0  0  0  0
   -0.9664    0.0413   -0.1735 O   0  0  0  0  0  0  0  0  0  0  0  0
    1.1953    0.5946   -0.0019 C   0  0  0  0  0  0  0  0  0  0  0  0
   -0.2384   -1.1081   -0.0770 C   0  0  0  0  0  0  0  0  0  0  0  0
    1.1059   -0.8138   -0.0450 C   0  0  0  0  0  0  0  0  0  0  0  0
   -1.7413    2.7257    0.1211 O   0  0  0  0  0  0  0  0  0  0  0  0
   -1.3278   -2.9356   -1.1465 O   0  0  0  0  0  0  0  0  0  0  0  0
    1.3516    3.1958   -1.7643 C   0  0  0  0  0  0  0  0  0  0  0  0
   -0.3896    4.7784   -1.1035 C   0  0  0  0  0  0  0  0  0  0  0  0
   -2.0450   -4.1051   -1.0703 C   0  0  0  0  0  0  0  0  0  0  0  0
   -2.2890   -4.8350    0.1006 C   0  0  0  0  0  0  0  0  0  0  0  0
   -0.9817   -2.3764    0.1211 C   0  0  0  0  0  0  0  0  0  0  0  0
    0.6615    5.8202   -0.7121 C   0  0  0  0  0  0  0  0  0  0  0  0
    2.4572    4.1384   -1.2987 C   0  0  0  0  0  0  0  0  0  0  0  0
    2.0027    5.5996   -1.4341 C   0  0  0  0  0  0  0  0  0  0  0  0
   -2.5622   -4.5814   -2.2795 C   0  0  0  0  0  0  0  0  0  0  0  0
   -3.0395   -6.0129    0.0652 C   0  0  0  0  0  0  0  0  0  0  0  0
    3.0711    6.5502   -0.8992 C   0  0  0  0  0  0  0  0  0  0  0  0
   -3.3222   -5.7563   -2.3138 C   0  0  0  0  0  0  0  0  0  0  0  0
   -3.5673   -6.4669   -1.1413 C   0  0  0  0  0  0  0  0  0  0  0  0
    2.0966    1.1772    0.1256 H   0  0  0  0  0  0  0  0  0  0  0  0
    1.9129   -1.5290    0.0304 H   0  0  0  0  0  0  0  0  0  0  0  0
    1.0972    3.3929   -2.8121 H   0  0  0  0  0  0  0  0  0  0  0  0
    1.6986    2.1669   -1.7430 H   0  0  0  0  0  0  0  0  0  0  0  0
   -0.6804    4.9108   -2.1531 H   0  0  0  0  0  0  0  0  0  0  0  0
   -1.2897    4.9219   -0.4986 H   0  0  0  0  0  0  0  0  0  0  0  0
   -1.9000   -4.5277    1.0656 H   0  0  0  0  0  0  0  0  0  0  0  0
   -0.3176   -3.0648    0.6583 H   0  0  0  0  0  0  0  0  0  0  0  0
   -1.8813   -2.1797    0.7156 H   0  0  0  0  0  0  0  0  0  0  0  0
    0.8187    5.7716    0.3729 H   0  0  0  0  0  0  0  0  0  0  0  0
    0.2799    6.8235   -0.9373 H   0  0  0  0  0  0  0  0  0  0  0  0
    3.3618    3.9679   -1.8928 H   0  0  0  0  0  0  0  0  0  0  0  0
    2.7104    3.9219   -0.2524 H   0  0  0  0  0  0  0  0  0  0  0  0
    1.8607    5.8148   -2.5013 H   0  0  0  0  0  0  0  0  0  0  0  0
   -2.3807   -4.0333   -3.1998 H   0  0  0  0  0  0  0  0  0  0  0  0
   -3.2267   -6.5629    0.9853 H   0  0  0  0  0  0  0  0  0  0  0  0
    2.7706    7.5931   -1.0458 H   0  0  0  0  0  0  0  0  0  0  0  0
    3.2435    6.3953    0.1715 H   0  0  0  0  0  0  0  0  0  0  0  0
    4.0229    6.3987   -1.4191 H   0  0  0  0  0  0  0  0  0  0  0  0
   -3.7299   -6.1120   -3.2565 H   0  0  0  0  0  0  0  0  0  0  0  0
   -4.1645   -7.3754   -1.1634 H   0  0  0  0  0  0  0  0  0  0  0  0
  2  1  1  0  0  0  0
  3  2  1  0  0  0  0
  4  1  1  0  0  0  0
  5  1  2  0  0  0  0
  5 23  1  0  0  0  0
  6  4  1  0  0  0  0
  6  7  2  0  0  0  0
  7  5  1  0  0  0  0
  7 24  1  0  0  0  0
  8  2  2  0  0  0  0
  9 14  1  0  0  0  0
 10  3  1  0  0  0  0
 10 25  1  0  0  0  0
 10 26  1  0  0  0  0
 11  3  1  0  0  0  0
 11 27  1  0  0  0  0
 11 28  1  0  0  0  0
 12  9  1  0  0  0  0
 13 12  2  0  0  0  0
 13 29  1  0  0  0  0
 14  6  1  0  0  0  0
 14 30  1  0  0  0  0
 14 31  1  0  0  0  0
 15 11  1  0  0  0  0
 15 32  1  0  0  0  0
 15 33  1  0  0  0  0
 16 10  1  0  0  0  0
 16 17  1  0  0  0  0
 16 34  1  0  0  0  0
 16 35  1  0  0  0  0
 17 15  1  0  0  0  0
 17 36  1  0  0  0  0
 18 12  1  0  0  0  0
 18 37  1  0  0  0  0
 19 13  1  0  0  0  0
 19 22  2  0  0  0  0
 19 38  1  0  0  0  0
 20 17  1  0  0  0  0
 20 39  1  0  0  0  0
 20 40  1  0  0  0  0
 20 41  1  0  0  0  0
 21 18  2  0  0  0  0
 21 42  1  0  0  0  0
 22 21  1  0  0  0  0
 22 43  1  0  0  0  0
M  END
>  <Mol_ID>
8699

>  <Formula>
C18H20ClNO3

>  <MolWeight>
333.8093

>  <Cat>
P2398

>  <Name>
WAY-325453

>  <Synonyms>
N/A

>  <Target>
11¦Â-hydroxysteroid dehydrogenase type 1

>  <Form>
free base

>  <CAS>
494858-37-6

>  <URL>
N/A

$$$$
