WAY-325931
 OpenBabel08302521433D

 44 46  0  0  0  0  0  0  0  0999 V2000
   -8.5290   -2.4060   -0.2914 C   0  0  0  0  0  0  0  0  0  0  0  0
   -3.7196   -3.7551    2.9485 C   0  0  0  0  0  0  0  0  0  0  0  0
   -1.8323   -1.8823    5.5183 C   0  0  0  0  0  0  0  0  0  0  0  0
   -2.4484   -3.0094    4.7073 C   0  0  0  0  0  0  0  0  0  0  0  0
   -9.6382   -3.1164   -0.5140 N   0  0  0  0  0  0  0  0  0  0  0  0
   -3.1751   -2.7216    3.6001 N   0  0  0  0  0  0  0  0  0  0  0  0
   -3.6087   -5.0397    3.3127 N   0  0  0  0  0  0  0  0  0  0  0  0
   -8.5632   -1.1975   -1.0335 C   0  0  0  0  0  0  0  0  0  0  0  0
   -2.8931   -5.3156    4.4241 C   0  0  0  0  0  0  0  0  0  0  0  0
   -2.2784   -4.3111    5.1471 C   0  0  0  0  0  0  0  0  0  0  0  0
   -7.4923   -2.7785    0.5460 N   0  0  0  0  0  0  0  0  0  0  0  0
  -10.4046   -2.3883   -1.3953 O   0  0  0  0  0  0  0  0  0  0  0  0
   -9.7623   -1.2340   -1.7038 C   0  0  0  0  0  0  0  0  0  0  0  0
   -7.4562   -3.9635    1.2541 C   0  0  0  0  0  0  0  0  0  0  0  0
   -2.8450   -6.7368    4.8324 C   0  0  0  0  0  0  0  0  0  0  0  0
   -4.7415   -3.3675    1.5540 S   0  0  0  0  0  0  0  0  0  0  0  0
   -8.3348   -4.8263    1.2597 O   0  0  0  0  0  0  0  0  0  0  0  0
   -2.0785   -0.6368    5.0275 F   0  0  0  0  0  0  0  0  0  0  0  0
   -2.2866   -1.8727    6.8057 F   0  0  0  0  0  0  0  0  0  0  0  0
   -0.4759   -1.9901    5.6116 F   0  0  0  0  0  0  0  0  0  0  0  0
   -2.9116   -7.7734    3.8847 C   0  0  0  0  0  0  0  0  0  0  0  0
   -2.7516   -7.1147    6.1842 C   0  0  0  0  0  0  0  0  0  0  0  0
   -6.2626   -4.1326    2.1776 C   0  0  0  0  0  0  0  0  0  0  0  0
   -2.7773   -9.4728    5.6087 C   0  0  0  0  0  0  0  0  0  0  0  0
   -2.8749   -9.1254    4.2650 C   0  0  0  0  0  0  0  0  0  0  0  0
   -2.7154   -8.4603    6.5639 C   0  0  0  0  0  0  0  0  0  0  0  0
   -2.7419  -10.7388    6.1204 O   0  0  0  0  0  0  0  0  0  0  0  0
  -10.4681   -0.3355   -2.6326 C   0  0  0  0  0  0  0  0  0  0  0  0
   -2.8060  -11.8111    5.1894 C   0  0  0  0  0  0  0  0  0  0  0  0
   -7.8272   -0.4096   -1.0708 H   0  0  0  0  0  0  0  0  0  0  0  0
   -1.6874   -4.5204    6.0327 H   0  0  0  0  0  0  0  0  0  0  0  0
   -6.6945   -2.1591    0.6016 H   0  0  0  0  0  0  0  0  0  0  0  0
   -2.9947   -7.5359    2.8238 H   0  0  0  0  0  0  0  0  0  0  0  0
   -2.7285   -6.3692    6.9748 H   0  0  0  0  0  0  0  0  0  0  0  0
   -6.5276   -3.7030    3.1497 H   0  0  0  0  0  0  0  0  0  0  0  0
   -6.0927   -5.2075    2.2978 H   0  0  0  0  0  0  0  0  0  0  0  0
   -2.9315   -9.8756    3.4824 H   0  0  0  0  0  0  0  0  0  0  0  0
   -2.6483   -8.7196    7.6181 H   0  0  0  0  0  0  0  0  0  0  0  0
  -10.6495   -0.8373   -3.5882 H   0  0  0  0  0  0  0  0  0  0  0  0
  -11.4348   -0.0381   -2.2137 H   0  0  0  0  0  0  0  0  0  0  0  0
   -9.8872    0.5705   -2.8266 H   0  0  0  0  0  0  0  0  0  0  0  0
   -3.7347  -11.7801    4.6104 H   0  0  0  0  0  0  0  0  0  0  0  0
   -1.9292  -11.8121    4.5338 H   0  0  0  0  0  0  0  0  0  0  0  0
   -2.8003  -12.7465    5.7574 H   0  0  0  0  0  0  0  0  0  0  0  0
  2 16  1  0  0  0  0
  3  4  1  0  0  0  0
  4  6  2  0  0  0  0
  4 10  1  0  0  0  0
  5  1  2  0  0  0  0
  6  2  1  0  0  0  0
  7  2  2  0  0  0  0
  8  1  1  0  0  0  0
  8 30  1  0  0  0  0
  9  7  1  0  0  0  0
 10  9  2  0  0  0  0
 10 31  1  0  0  0  0
 11  1  1  0  0  0  0
 11 32  1  0  0  0  0
 12  5  1  0  0  0  0
 13  8  2  0  0  0  0
 13 12  1  0  0  0  0
 14 11  1  0  0  0  0
 15  9  1  0  0  0  0
 16 23  1  0  0  0  0
 17 14  2  0  0  0  0
 18  3  1  0  0  0  0
 19  3  1  0  0  0  0
 20  3  1  0  0  0  0
 21 15  2  0  0  0  0
 21 33  1  0  0  0  0
 22 15  1  0  0  0  0
 22 34  1  0  0  0  0
 23 14  1  0  0  0  0
 23 35  1  0  0  0  0
 23 36  1  0  0  0  0
 24 26  1  0  0  0  0
 25 21  1  0  0  0  0
 25 24  2  0  0  0  0
 25 37  1  0  0  0  0
 26 22  2  0  0  0  0
 26 38  1  0  0  0  0
 27 24  1  0  0  0  0
 28 13  1  0  0  0  0
 28 39  1  0  0  0  0
 28 40  1  0  0  0  0
 28 41  1  0  0  0  0
 29 27  1  0  0  0  0
 29 42  1  0  0  0  0
 29 43  1  0  0  0  0
 29 44  1  0  0  0  0
M  END
>  <Mol_ID>
8859

>  <Formula>
C18H15F3N4O3S

>  <MolWeight>
424.3969096

>  <Cat>
P2437

>  <Name>
WAY-325931

>  <Synonyms>
N/A

>  <Target>
Hsp90

>  <Form>
free base

>  <CAS>
868972-09-2

>  <URL>
N/A

$$$$
