WAY-340011
 OpenBabel08302521403D

 48 50  0  0  0  0  0  0  0  0999 V2000
    1.3414   -0.2765   -0.2573 C   0  0  0  0  0  0  0  0  0  0  0  0
    2.7752   -0.2712    0.0382 C   0  0  0  0  0  0  0  0  0  0  0  0
    0.8858   -0.2886   -1.5774 C   0  0  0  0  0  0  0  0  0  0  0  0
    0.4311   -0.4617    0.7901 C   0  0  0  0  0  0  0  0  0  0  0  0
    3.6584    0.7419    0.1524 C   0  0  0  0  0  0  0  0  0  0  0  0
   -0.4766   -0.4647   -1.8429 C   0  0  0  0  0  0  0  0  0  0  0  0
   -0.9151   -0.7118    0.5171 C   0  0  0  0  0  0  0  0  0  0  0  0
    5.0047    0.5337    0.4817 N   0  0  0  0  0  0  0  0  0  0  0  0
    3.2228    2.1655   -0.1183 C   0  0  0  0  0  0  0  0  0  0  0  0
   -0.9998   -0.4509   -3.1158 O   0  0  0  0  0  0  0  0  0  0  0  0
   -1.3654   -0.7320   -0.8019 C   0  0  0  0  0  0  0  0  0  0  0  0
    5.5330   -0.6327    1.0305 C   0  0  0  0  0  0  0  0  0  0  0  0
    3.8439    3.0940    0.7016 N   0  0  0  0  0  0  0  0  0  0  0  0
    2.4040    2.4753   -0.9736 O   0  0  0  0  0  0  0  0  0  0  0  0
   -0.6281    0.5681   -3.9674 C   0  0  0  0  0  0  0  0  0  0  0  0
    7.0077   -0.8046    1.1005 C   0  0  0  0  0  0  0  0  0  0  0  0
    4.8510   -1.5499    1.4854 O   0  0  0  0  0  0  0  0  0  0  0  0
    3.3731    4.4602    0.7004 C   0  0  0  0  0  0  0  0  0  0  0  0
   -0.7357    0.2933   -5.3326 C   0  0  0  0  0  0  0  0  0  0  0  0
   -0.1946    1.8307   -3.5506 C   0  0  0  0  0  0  0  0  0  0  0  0
    7.9129    0.2560    1.1690 C   0  0  0  0  0  0  0  0  0  0  0  0
    7.4922   -2.1256    1.1734 C   0  0  0  0  0  0  0  0  0  0  0  0
   -0.3460    1.2491   -6.2730 C   0  0  0  0  0  0  0  0  0  0  0  0
    0.2149    2.7769   -4.4899 C   0  0  0  0  0  0  0  0  0  0  0  0
    9.2809   -0.0099    1.3195 C   0  0  0  0  0  0  0  0  0  0  0  0
    8.8538   -2.3852    1.3196 C   0  0  0  0  0  0  0  0  0  0  0  0
    0.1466    2.4835   -5.8502 C   0  0  0  0  0  0  0  0  0  0  0  0
    9.7482   -1.3234    1.3987 C   0  0  0  0  0  0  0  0  0  0  0  0
    3.1106   -1.2955    0.1681 H   0  0  0  0  0  0  0  0  0  0  0  0
    1.5895   -0.1604   -2.3960 H   0  0  0  0  0  0  0  0  0  0  0  0
    0.7756   -0.4633    1.8217 H   0  0  0  0  0  0  0  0  0  0  0  0
   -1.6070   -0.9087    1.3311 H   0  0  0  0  0  0  0  0  0  0  0  0
    5.6240    1.3034    0.2628 H   0  0  0  0  0  0  0  0  0  0  0  0
   -2.4076   -0.9484   -1.0197 H   0  0  0  0  0  0  0  0  0  0  0  0
    4.3079    2.7477    1.5310 H   0  0  0  0  0  0  0  0  0  0  0  0
    2.3295    4.4799    1.0283 H   0  0  0  0  0  0  0  0  0  0  0  0
    3.9869    5.0514    1.3843 H   0  0  0  0  0  0  0  0  0  0  0  0
    3.4384    4.8725   -0.3104 H   0  0  0  0  0  0  0  0  0  0  0  0
   -1.1122   -0.6706   -5.6640 H   0  0  0  0  0  0  0  0  0  0  0  0
   -0.1404    2.0906   -2.4961 H   0  0  0  0  0  0  0  0  0  0  0  0
    7.5871    1.2896    1.1488 H   0  0  0  0  0  0  0  0  0  0  0  0
    6.7985   -2.9653    1.1303 H   0  0  0  0  0  0  0  0  0  0  0  0
   -0.4169    1.0272   -7.3341 H   0  0  0  0  0  0  0  0  0  0  0  0
    0.5960    3.7363   -4.1507 H   0  0  0  0  0  0  0  0  0  0  0  0
    9.9901    0.8119    1.3948 H   0  0  0  0  0  0  0  0  0  0  0  0
    9.2078   -3.4127    1.3882 H   0  0  0  0  0  0  0  0  0  0  0  0
    0.4756    3.2191   -6.5789 H   0  0  0  0  0  0  0  0  0  0  0  0
   10.8090   -1.5213    1.5335 H   0  0  0  0  0  0  0  0  0  0  0  0
  1  2  1  0  0  0  0
  1  3  2  0  0  0  0
  1  4  1  0  0  0  0
  2  5  2  0  0  0  0
  2 29  1  0  0  0  0
  3  6  1  0  0  0  0
  3 30  1  0  0  0  0
  4  7  2  0  0  0  0
  4 31  1  0  0  0  0
  5  8  1  0  0  0  0
  5  9  1  0  0  0  0
  6 10  1  0  0  0  0
  6 11  2  0  0  0  0
  7 11  1  0  0  0  0
  7 32  1  0  0  0  0
  8 12  1  0  0  0  0
  8 33  1  0  0  0  0
  9 13  1  0  0  0  0
  9 14  2  0  0  0  0
 10 15  1  0  0  0  0
 11 34  1  0  0  0  0
 12 16  1  0  0  0  0
 12 17  2  0  0  0  0
 13 18  1  0  0  0  0
 13 35  1  0  0  0  0
 15 19  2  0  0  0  0
 15 20  1  0  0  0  0
 16 21  2  0  0  0  0
 16 22  1  0  0  0  0
 18 36  1  0  0  0  0
 18 37  1  0  0  0  0
 18 38  1  0  0  0  0
 19 23  1  0  0  0  0
 19 39  1  0  0  0  0
 20 24  2  0  0  0  0
 20 40  1  0  0  0  0
 21 25  1  0  0  0  0
 21 41  1  0  0  0  0
 22 26  2  0  0  0  0
 22 42  1  0  0  0  0
 23 27  2  0  0  0  0
 23 43  1  0  0  0  0
 24 27  1  0  0  0  0
 24 44  1  0  0  0  0
 25 28  2  0  0  0  0
 25 45  1  0  0  0  0
 26 28  1  0  0  0  0
 26 46  1  0  0  0  0
 27 47  1  0  0  0  0
 28 48  1  0  0  0  0
M  END
>  <Mol_ID>
8282

>  <Formula>
C23H20N2O3

>  <MolWeight>
372.4165

>  <Cat>
P2731

>  <Name>
WAY-340011

>  <Synonyms>
N/A

>  <Target>
¦Á7¦Â1 integrins

>  <Form>
free base

>  <CAS>
294655-34-8

>  <URL>
N/A

$$$$
