WAY-642338
 OpenBabel08302521453D

 38 41  0  0  0  0  0  0  0  0999 V2000
   -2.3568   -0.2693    0.0370 C   0  0  0  0  0  0  0  0  0  0  0  0
   -4.5675   -0.6034    0.7499 N   0  0  0  0  0  0  0  0  0  0  0  0
   -3.7843   -0.0773   -0.1346 C   0  0  0  0  0  0  0  0  0  0  0  0
   -5.9526   -0.5337    0.6631 N   0  0  0  0  0  0  0  0  0  0  0  0
   -1.5094    0.3971   -0.8069 O   0  0  0  0  0  0  0  0  0  0  0  0
   -6.6053    0.0276   -0.3014 C   0  0  0  0  0  0  0  0  0  0  0  0
   -1.6179   -1.0606    0.8992 C   0  0  0  0  0  0  0  0  0  0  0  0
   -5.9224    0.8691   -1.6523 S   0  0  0  0  0  0  0  0  0  0  0  0
   -0.2449   -0.0057   -0.5192 C   0  0  0  0  0  0  0  0  0  0  0  0
   -0.2547   -0.9249    0.5209 C   0  0  0  0  0  0  0  0  0  0  0  0
   -4.1842    0.6870   -1.3572 C   0  0  0  0  0  0  0  0  0  0  0  0
   -7.9673    0.0376   -0.3797 N   0  0  0  0  0  0  0  0  0  0  0  0
   -8.8340   -0.1477    0.7571 C   0  0  0  0  0  0  0  0  0  0  0  0
   -9.7308    1.0594    0.8995 C   0  0  0  0  0  0  0  0  0  0  0  0
    0.9022    0.4187   -1.1843 C   0  0  0  0  0  0  0  0  0  0  0  0
    0.9684   -1.4868    0.9267 C   0  0  0  0  0  0  0  0  0  0  0  0
  -10.9914    1.0935    0.2848 C   0  0  0  0  0  0  0  0  0  0  0  0
   -9.2957    2.1828    1.6181 C   0  0  0  0  0  0  0  0  0  0  0  0
    2.1414   -1.0968    0.2612 C   0  0  0  0  0  0  0  0  0  0  0  0
    2.1074   -0.1566   -0.7726 C   0  0  0  0  0  0  0  0  0  0  0  0
  -10.1198    3.3014    1.7506 C   0  0  0  0  0  0  0  0  0  0  0  0
  -11.8131    2.2145    0.4176 C   0  0  0  0  0  0  0  0  0  0  0  0
  -11.3797    3.3151    1.1548 C   0  0  0  0  0  0  0  0  0  0  0  0
   -2.0264   -1.6977    1.6725 H   0  0  0  0  0  0  0  0  0  0  0  0
   -3.7558    0.1804   -2.2294 H   0  0  0  0  0  0  0  0  0  0  0  0
   -3.7362    1.6853   -1.3068 H   0  0  0  0  0  0  0  0  0  0  0  0
   -8.3485    0.5875   -1.1385 H   0  0  0  0  0  0  0  0  0  0  0  0
   -9.4429   -1.0464    0.6071 H   0  0  0  0  0  0  0  0  0  0  0  0
   -8.2813   -0.3029    1.6913 H   0  0  0  0  0  0  0  0  0  0  0  0
    0.8533    1.1430   -1.9879 H   0  0  0  0  0  0  0  0  0  0  0  0
    1.0086   -2.2215    1.7254 H   0  0  0  0  0  0  0  0  0  0  0  0
  -11.3430    0.2442   -0.2973 H   0  0  0  0  0  0  0  0  0  0  0  0
   -8.3106    2.1875    2.0813 H   0  0  0  0  0  0  0  0  0  0  0  0
    3.0929   -1.5375    0.5522 H   0  0  0  0  0  0  0  0  0  0  0  0
    3.0313    0.1285   -1.2716 H   0  0  0  0  0  0  0  0  0  0  0  0
   -9.7789    4.1623    2.3204 H   0  0  0  0  0  0  0  0  0  0  0  0
  -12.7934    2.2289   -0.0520 H   0  0  0  0  0  0  0  0  0  0  0  0
  -12.0234    4.1843    1.2645 H   0  0  0  0  0  0  0  0  0  0  0  0
  2  3  2  0  0  0  0
  3  1  1  0  0  0  0
  4  2  1  0  0  0  0
  4  6  2  0  0  0  0
  5  1  1  0  0  0  0
  6  8  1  0  0  0  0
  7  1  2  0  0  0  0
  7 24  1  0  0  0  0
  8 11  1  0  0  0  0
  9  5  1  0  0  0  0
  9 10  2  0  0  0  0
 10  7  1  0  0  0  0
 11  3  1  0  0  0  0
 11 25  1  0  0  0  0
 11 26  1  0  0  0  0
 12  6  1  0  0  0  0
 12 27  1  0  0  0  0
 13 12  1  0  0  0  0
 13 28  1  0  0  0  0
 13 29  1  0  0  0  0
 14 13  1  0  0  0  0
 15  9  1  0  0  0  0
 15 30  1  0  0  0  0
 16 10  1  0  0  0  0
 16 31  1  0  0  0  0
 17 14  2  0  0  0  0
 17 32  1  0  0  0  0
 18 14  1  0  0  0  0
 18 33  1  0  0  0  0
 19 16  2  0  0  0  0
 19 34  1  0  0  0  0
 20 15  2  0  0  0  0
 20 19  1  0  0  0  0
 20 35  1  0  0  0  0
 21 18  2  0  0  0  0
 21 36  1  0  0  0  0
 22 17  1  0  0  0  0
 22 37  1  0  0  0  0
 23 21  1  0  0  0  0
 23 22  2  0  0  0  0
 23 38  1  0  0  0  0
M  END
>  <Mol_ID>
9298

>  <Formula>
C18H15N3OS

>  <MolWeight>
321.3962

>  <Cat>
P3123

>  <Name>
WAY-642338

>  <Synonyms>
N/A

>  <Target>
Mcl-1

>  <Form>
free base

>  <CAS>
851458-34-9

>  <URL>
N/A

$$$$
