WAY-324759
 OpenBabel08302521423D

 49 52  0  0  0  0  0  0  0  0999 V2000
   -1.5838    0.2194   -0.0149 C   0  0  0  0  0  0  0  0  0  0  0  0
   -1.3835   -1.1597   -0.0368 C   0  0  0  0  0  0  0  0  0  0  0  0
   -4.4116    2.7103    0.0537 C   0  0  0  0  0  0  0  0  0  0  0  0
   -5.5022    1.8374    0.5159 C   0  0  0  0  0  0  0  0  0  0  0  0
    0.0576   -1.4829   -0.0676 C   0  0  0  0  0  0  0  0  0  0  0  0
   -0.1342    1.0804    0.0155 S   0  0  0  0  0  0  0  0  0  0  0  0
    0.8294   -0.3223   -0.0064 C   0  0  0  0  0  0  0  0  0  0  0  0
   -2.9769    2.2790    0.0491 C   0  0  0  0  0  0  0  0  0  0  0  0
   -6.7900    2.3509    0.4503 O   0  0  0  0  0  0  0  0  0  0  0  0
   -2.7942    0.9104   -0.0360 N   0  0  0  0  0  0  0  0  0  0  0  0
   -4.6668    3.9598   -0.3639 C   0  0  0  0  0  0  0  0  0  0  0  0
   -7.0865    3.6525   -0.0095 C   0  0  0  0  0  0  0  0  0  0  0  0
   -2.4831   -2.1316   -0.0805 C   0  0  0  0  0  0  0  0  0  0  0  0
   -6.0301    4.4762   -0.3996 C   0  0  0  0  0  0  0  0  0  0  0  0
   -5.2915    0.6976    0.9225 O   0  0  0  0  0  0  0  0  0  0  0  0
   -2.1065    3.1452    0.1062 O   0  0  0  0  0  0  0  0  0  0  0  0
    0.6999   -2.8169   -0.0445 C   0  0  0  0  0  0  0  0  0  0  0  0
   -8.4118    4.0962   -0.0633 C   0  0  0  0  0  0  0  0  0  0  0  0
   -2.4110   -3.2274   -0.6301 O   0  0  0  0  0  0  0  0  0  0  0  0
   -3.6500   -1.7856    0.5489 N   0  0  0  0  0  0  0  0  0  0  0  0
    2.3087   -0.0790    0.0526 C   0  0  0  0  0  0  0  0  0  0  0  0
   -9.5559    3.4273    0.2605 O   0  0  0  0  0  0  0  0  0  0  0  0
   -6.2854    5.7769   -0.8388 C   0  0  0  0  0  0  0  0  0  0  0  0
   -7.5978    6.2400   -0.8895 C   0  0  0  0  0  0  0  0  0  0  0  0
   -8.6470    5.4047   -0.5083 C   0  0  0  0  0  0  0  0  0  0  0  0
    1.8685   -3.0734   -0.7818 C   0  0  0  0  0  0  0  0  0  0  0  0
    0.2162   -3.8408    0.7807 C   0  0  0  0  0  0  0  0  0  0  0  0
   -9.4587    2.0832    0.7060 C   0  0  0  0  0  0  0  0  0  0  0  0
    0.9117   -5.0496    0.9129 C   0  0  0  0  0  0  0  0  0  0  0  0
    2.6002   -4.2513   -0.6002 C   0  0  0  0  0  0  0  0  0  0  0  0
    2.1224   -5.2393    0.2522 C   0  0  0  0  0  0  0  0  0  0  0  0
   -3.6252    0.3277   -0.1040 H   0  0  0  0  0  0  0  0  0  0  0  0
   -3.8687    4.6172   -0.6989 H   0  0  0  0  0  0  0  0  0  0  0  0
   -3.7212   -1.0468    1.2371 H   0  0  0  0  0  0  0  0  0  0  0  0
   -4.3634   -2.5036    0.5850 H   0  0  0  0  0  0  0  0  0  0  0  0
    2.6375    0.4516   -0.8495 H   0  0  0  0  0  0  0  0  0  0  0  0
    2.5628    0.5359    0.9230 H   0  0  0  0  0  0  0  0  0  0  0  0
    2.9095   -0.9836    0.1408 H   0  0  0  0  0  0  0  0  0  0  0  0
   -5.4739    6.4369   -1.1414 H   0  0  0  0  0  0  0  0  0  0  0  0
   -7.8041    7.2537   -1.2299 H   0  0  0  0  0  0  0  0  0  0  0  0
   -9.6701    5.7767   -0.5611 H   0  0  0  0  0  0  0  0  0  0  0  0
    2.2554   -2.3364   -1.4815 H   0  0  0  0  0  0  0  0  0  0  0  0
   -0.7053   -3.7196    1.3423 H   0  0  0  0  0  0  0  0  0  0  0  0
   -9.0085    1.4415   -0.0593 H   0  0  0  0  0  0  0  0  0  0  0  0
   -8.9223    2.0232    1.6584 H   0  0  0  0  0  0  0  0  0  0  0  0
  -10.4733    1.7153    0.8797 H   0  0  0  0  0  0  0  0  0  0  0  0
    0.5130   -5.8355    1.5487 H   0  0  0  0  0  0  0  0  0  0  0  0
    3.5465   -4.3871   -1.1176 H   0  0  0  0  0  0  0  0  0  0  0  0
    2.6866   -6.1570    0.3951 H   0  0  0  0  0  0  0  0  0  0  0  0
  2  1  2  0  0  0  0
  3  8  1  0  0  0  0
  4  3  1  0  0  0  0
  5  2  1  0  0  0  0
  6  1  1  0  0  0  0
  7  6  1  0  0  0  0
  7  5  2  0  0  0  0
  8 10  1  0  0  0  0
  9  4  1  0  0  0  0
 10  1  1  0  0  0  0
 10 32  1  0  0  0  0
 11  3  2  0  0  0  0
 11 33  1  0  0  0  0
 12 14  2  0  0  0  0
 12  9  1  0  0  0  0
 13  2  1  0  0  0  0
 14 11  1  0  0  0  0
 15  4  2  0  0  0  0
 16  8  2  0  0  0  0
 17  5  1  0  0  0  0
 18 12  1  0  0  0  0
 19 13  2  0  0  0  0
 20 13  1  0  0  0  0
 20 34  1  0  0  0  0
 20 35  1  0  0  0  0
 21  7  1  0  0  0  0
 21 36  1  0  0  0  0
 21 37  1  0  0  0  0
 21 38  1  0  0  0  0
 22 18  1  0  0  0  0
 23 14  1  0  0  0  0
 23 39  1  0  0  0  0
 24 23  2  0  0  0  0
 24 40  1  0  0  0  0
 25 24  1  0  0  0  0
 25 18  2  0  0  0  0
 25 41  1  0  0  0  0
 26 17  2  0  0  0  0
 26 42  1  0  0  0  0
 27 17  1  0  0  0  0
 27 43  1  0  0  0  0
 28 22  1  0  0  0  0
 28 44  1  0  0  0  0
 28 45  1  0  0  0  0
 28 46  1  0  0  0  0
 29 27  2  0  0  0  0
 29 47  1  0  0  0  0
 30 26  1  0  0  0  0
 30 31  2  0  0  0  0
 30 48  1  0  0  0  0
 31 29  1  0  0  0  0
 31 49  1  0  0  0  0
M  END
>  <Mol_ID>
8629

>  <Formula>
C23H18N2O5S

>  <MolWeight>
434.46442

>  <Cat>
P2351

>  <Name>
WAY-324759

>  <Synonyms>
N/A

>  <Target>
others

>  <Form>
free base

>  <CAS>
444908-85-4

>  <URL>
N/A

$$$$
