WAY-329596
 OpenBabel08302521453D

 39 41  0  0  0  0  0  0  0  0999 V2000
   -1.2520    0.4734   -1.6932 S   0  0  0  0  0  0  0  0  0  0  0  0
   -1.5794    0.8392   -3.3784 C   0  0  0  0  0  0  0  0  0  0  0  0
   -0.9815    0.1384   -4.4506 C   0  0  0  0  0  0  0  0  0  0  0  0
   -0.0558   -0.8344   -4.3851 N   0  0  0  0  0  0  0  0  0  0  0  0
    0.4678    0.6227   -1.3826 C   0  0  0  0  0  0  0  0  0  0  0  0
    0.2306   -1.3311   -5.9458 S   0  0  0  0  0  0  0  0  0  0  0  0
   -1.3813    0.4600   -5.8771 C   0  0  0  0  0  0  0  0  0  0  0  0
   -0.7502   -0.2941   -6.7893 N   0  0  0  0  0  0  0  0  0  0  0  0
    1.0091    2.0083   -1.5915 C   0  0  0  0  0  0  0  0  0  0  0  0
    2.2040    2.1754   -0.8930 N   0  0  0  0  0  0  0  0  0  0  0  0
    3.1295    3.2339   -1.0247 C   0  0  0  0  0  0  0  0  0  0  0  0
   -2.5503    1.8069   -3.7173 C   0  0  0  0  0  0  0  0  0  0  0  0
    4.5111    2.9511   -0.8903 C   0  0  0  0  0  0  0  0  0  0  0  0
   -1.6002   -0.9264   -1.5121 O   0  0  0  0  0  0  0  0  0  0  0  0
   -1.9324    1.4659   -0.8778 O   0  0  0  0  0  0  0  0  0  0  0  0
   -2.9083    2.1085   -5.0515 C   0  0  0  0  0  0  0  0  0  0  0  0
   -2.3404    1.4617   -6.1610 C   0  0  0  0  0  0  0  0  0  0  0  0
    0.5290    2.8102   -2.3832 O   0  0  0  0  0  0  0  0  0  0  0  0
    5.4450    4.0167   -0.8694 C   0  0  0  0  0  0  0  0  0  0  0  0
    2.7049    4.5509   -1.2202 C   0  0  0  0  0  0  0  0  0  0  0  0
    3.6353    5.5961   -1.2271 C   0  0  0  0  0  0  0  0  0  0  0  0
    5.0209    1.5283   -0.8778 C   0  0  0  0  0  0  0  0  0  0  0  0
    4.9882    5.3317   -1.0340 C   0  0  0  0  0  0  0  0  0  0  0  0
    6.9287    3.8111   -0.7055 C   0  0  0  0  0  0  0  0  0  0  0  0
    0.6038    0.3304   -0.3349 H   0  0  0  0  0  0  0  0  0  0  0  0
    1.0177   -0.0853   -2.0062 H   0  0  0  0  0  0  0  0  0  0  0  0
    2.5374    1.3824   -0.3619 H   0  0  0  0  0  0  0  0  0  0  0  0
   -3.0610    2.3483   -2.9187 H   0  0  0  0  0  0  0  0  0  0  0  0
   -3.6666    2.8732   -5.2241 H   0  0  0  0  0  0  0  0  0  0  0  0
   -2.6261    1.7035   -7.1782 H   0  0  0  0  0  0  0  0  0  0  0  0
    1.6523    4.7950   -1.3277 H   0  0  0  0  0  0  0  0  0  0  0  0
    3.2996    6.6219   -1.3559 H   0  0  0  0  0  0  0  0  0  0  0  0
    5.7560    1.3953   -1.6798 H   0  0  0  0  0  0  0  0  0  0  0  0
    5.4745    1.2896    0.0879 H   0  0  0  0  0  0  0  0  0  0  0  0
    4.2478    0.7825   -1.0784 H   0  0  0  0  0  0  0  0  0  0  0  0
    5.6970    6.1600   -1.0283 H   0  0  0  0  0  0  0  0  0  0  0  0
    7.4533    4.1311   -1.6115 H   0  0  0  0  0  0  0  0  0  0  0  0
    7.2959    4.3952    0.1454 H   0  0  0  0  0  0  0  0  0  0  0  0
    7.2032    2.7712   -0.5126 H   0  0  0  0  0  0  0  0  0  0  0  0
  2  1  1  0  0  0  0
  3  2  1  0  0  0  0
  4  3  2  0  0  0  0
  5  1  1  0  0  0  0
  5 25  1  0  0  0  0
  5 26  1  0  0  0  0
  6  4  1  0  0  0  0
  6  8  1  0  0  0  0
  7  3  1  0  0  0  0
  7 17  1  0  0  0  0
  8  7  2  0  0  0  0
  9  5  1  0  0  0  0
 10  9  1  0  0  0  0
 10 27  1  0  0  0  0
 11 10  1  0  0  0  0
 12  2  2  0  0  0  0
 12 28  1  0  0  0  0
 13 11  2  0  0  0  0
 14  1  2  0  0  0  0
 15  1  2  0  0  0  0
 16 12  1  0  0  0  0
 16 29  1  0  0  0  0
 17 16  2  0  0  0  0
 17 30  1  0  0  0  0
 18  9  2  0  0  0  0
 19 13  1  0  0  0  0
 20 11  1  0  0  0  0
 20 31  1  0  0  0  0
 21 20  2  0  0  0  0
 21 32  1  0  0  0  0
 22 13  1  0  0  0  0
 22 33  1  0  0  0  0
 22 34  1  0  0  0  0
 22 35  1  0  0  0  0
 23 21  1  0  0  0  0
 23 19  2  0  0  0  0
 23 36  1  0  0  0  0
 24 19  1  0  0  0  0
 24 37  1  0  0  0  0
 24 38  1  0  0  0  0
 24 39  1  0  0  0  0
M  END
>  <Mol_ID>
9310

>  <Formula>
C16H15N3O3S2

>  <MolWeight>
361.4386

>  <Cat>
P2582

>  <Name>
WAY-329596

>  <Synonyms>
N/A

>  <Target>
others

>  <Form>
free base

>  <CAS>
956949-45-4

>  <URL>
N/A

$$$$
