WAY-607987
 OpenBabel08302521443D

 45 47  0  0  0  0  0  0  0  0999 V2000
    1.0681    0.2541   -0.0641 S   0  0  0  0  0  0  0  0  0  0  0  0
    0.0609   -0.5095    5.3434 C   0  0  0  0  0  0  0  0  0  0  0  0
   -0.0244    0.7665   -1.2478 N   0  0  0  0  0  0  0  0  0  0  0  0
    0.6461    1.2389    1.3639 C   0  0  0  0  0  0  0  0  0  0  0  0
   -0.2476    0.7909    4.9768 N   0  0  0  0  0  0  0  0  0  0  0  0
    0.3038    0.6055    2.5653 C   0  0  0  0  0  0  0  0  0  0  0  0
   -0.6007    2.1527   -3.1325 C   0  0  0  0  0  0  0  0  0  0  0  0
    2.4042    0.6352   -0.4679 O   0  0  0  0  0  0  0  0  0  0  0  0
    0.7147   -1.1152    0.2332 O   0  0  0  0  0  0  0  0  0  0  0  0
   -0.3315   -0.9458    6.7144 C   0  0  0  0  0  0  0  0  0  0  0  0
   -1.6002    2.9894   -2.7238 O   0  0  0  0  0  0  0  0  0  0  0  0
    0.0284    1.3632    3.7104 C   0  0  0  0  0  0  0  0  0  0  0  0
    0.4529    1.8345   -2.1355 C   0  0  0  0  0  0  0  0  0  0  0  0
    0.6763   -1.3135    4.6494 O   0  0  0  0  0  0  0  0  0  0  0  0
   -0.7773    1.8204   -4.4597 C   0  0  0  0  0  0  0  0  0  0  0  0
   -2.4012    3.2019   -3.8007 C   0  0  0  0  0  0  0  0  0  0  0  0
   -1.9379    2.5052   -4.8920 C   0  0  0  0  0  0  0  0  0  0  0  0
   -1.4383   -0.4323    7.4000 C   0  0  0  0  0  0  0  0  0  0  0  0
    0.4018   -1.9922    7.2893 C   0  0  0  0  0  0  0  0  0  0  0  0
   -1.0905   -2.0377    9.1958 C   0  0  0  0  0  0  0  0  0  0  0  0
   -1.8151   -0.9807    8.6385 C   0  0  0  0  0  0  0  0  0  0  0  0
    0.0251   -2.5303    8.5195 C   0  0  0  0  0  0  0  0  0  0  0  0
   -1.3614   -2.6792   10.3714 O   0  0  0  0  0  0  0  0  0  0  0  0
    0.7245    2.6299    1.3006 C   0  0  0  0  0  0  0  0  0  0  0  0
    0.3929    3.3899    2.4194 C   0  0  0  0  0  0  0  0  0  0  0  0
    0.0366    2.7601    3.6153 C   0  0  0  0  0  0  0  0  0  0  0  0
   -2.5394   -2.2963   11.0665 C   0  0  0  0  0  0  0  0  0  0  0  0
   -0.9566    0.9390   -0.8715 H   0  0  0  0  0  0  0  0  0  0  0  0
   -0.5196    1.4295    5.7125 H   0  0  0  0  0  0  0  0  0  0  0  0
    0.2701   -0.4803    2.5931 H   0  0  0  0  0  0  0  0  0  0  0  0
    0.6733    2.7456   -1.5784 H   0  0  0  0  0  0  0  0  0  0  0  0
    1.3595    1.5165   -2.6599 H   0  0  0  0  0  0  0  0  0  0  0  0
   -0.1321    1.1794   -5.0450 H   0  0  0  0  0  0  0  0  0  0  0  0
   -3.2397    3.8649   -3.6380 H   0  0  0  0  0  0  0  0  0  0  0  0
   -2.3778    2.4988   -5.8795 H   0  0  0  0  0  0  0  0  0  0  0  0
   -2.0515    0.3555    6.9726 H   0  0  0  0  0  0  0  0  0  0  0  0
    1.2603   -2.4120    6.7672 H   0  0  0  0  0  0  0  0  0  0  0  0
   -2.6927   -0.5762    9.1332 H   0  0  0  0  0  0  0  0  0  0  0  0
    0.5937   -3.3569    8.9395 H   0  0  0  0  0  0  0  0  0  0  0  0
    1.0629    3.1374    0.4052 H   0  0  0  0  0  0  0  0  0  0  0  0
    0.4416    4.4750    2.3677 H   0  0  0  0  0  0  0  0  0  0  0  0
   -0.1827    3.3802    4.4805 H   0  0  0  0  0  0  0  0  0  0  0  0
   -2.4912   -1.2471   11.3736 H   0  0  0  0  0  0  0  0  0  0  0  0
   -3.4341   -2.4947   10.4672 H   0  0  0  0  0  0  0  0  0  0  0  0
   -2.6030   -2.9056   11.9736 H   0  0  0  0  0  0  0  0  0  0  0  0
  2  5  1  0  0  0  0
  3  1  1  0  0  0  0
  3 28  1  0  0  0  0
  4  1  1  0  0  0  0
  5 12  1  0  0  0  0
  5 29  1  0  0  0  0
  6  4  2  0  0  0  0
  6 30  1  0  0  0  0
  7 13  1  0  0  0  0
  8  1  2  0  0  0  0
  9  1  2  0  0  0  0
 10  2  1  0  0  0  0
 11  7  1  0  0  0  0
 12  6  1  0  0  0  0
 13  3  1  0  0  0  0
 13 31  1  0  0  0  0
 13 32  1  0  0  0  0
 14  2  2  0  0  0  0
 15  7  2  0  0  0  0
 15 33  1  0  0  0  0
 16 11  1  0  0  0  0
 16 17  2  0  0  0  0
 16 34  1  0  0  0  0
 17 15  1  0  0  0  0
 17 35  1  0  0  0  0
 18 10  2  0  0  0  0
 18 36  1  0  0  0  0
 19 10  1  0  0  0  0
 19 37  1  0  0  0  0
 20 22  1  0  0  0  0
 21 18  1  0  0  0  0
 21 20  2  0  0  0  0
 21 38  1  0  0  0  0
 22 19  2  0  0  0  0
 22 39  1  0  0  0  0
 23 20  1  0  0  0  0
 24  4  1  0  0  0  0
 24 40  1  0  0  0  0
 25 24  2  0  0  0  0
 25 41  1  0  0  0  0
 26 25  1  0  0  0  0
 26 12  2  0  0  0  0
 26 42  1  0  0  0  0
 27 23  1  0  0  0  0
 27 43  1  0  0  0  0
 27 44  1  0  0  0  0
 27 45  1  0  0  0  0
M  END
>  <Mol_ID>
9024

>  <Formula>
C19H18N2O5S

>  <MolWeight>
386.42162

>  <Cat>
P2904

>  <Name>
WAY-607987

>  <Synonyms>
N/A

>  <Target>
Anti-infection

>  <Form>
free base

>  <CAS>
522625-85-0

>  <URL>
N/A

$$$$
