WAY-356265
 OpenBabel08302521393D

 51 54  0  0  0  0  0  0  0  0999 V2000
   -4.0494    4.0666   -0.1370 N   0  0  0  0  0  0  0  0  0  0  0  0
   -4.3551    2.7517    0.0009 N   0  0  0  0  0  0  0  0  0  0  0  0
   -2.1416    2.8400    0.0608 C   0  0  0  0  0  0  0  0  0  0  0  0
   -2.7091    4.1395   -0.0667 C   0  0  0  0  0  0  0  0  0  0  0  0
   -3.2231    1.9898    0.1371 C   0  0  0  0  0  0  0  0  0  0  0  0
    3.2649    1.1143    1.1139 C   0  0  0  0  0  0  0  0  0  0  0  0
    1.9673    1.7840    0.8136 C   0  0  0  0  0  0  0  0  0  0  0  0
   -0.4557    1.3228    0.6670 N   0  0  0  0  0  0  0  0  0  0  0  0
   -2.0137    5.4321   -0.1256 C   0  0  0  0  0  0  0  0  0  0  0  0
   -0.7529    2.4442    0.0978 C   0  0  0  0  0  0  0  0  0  0  0  0
   -5.7045    2.2945   -0.0178 C   0  0  0  0  0  0  0  0  0  0  0  0
    4.4503    1.6156    0.5570 C   0  0  0  0  0  0  0  0  0  0  0  0
    0.8559    0.9526    0.8000 N   0  0  0  0  0  0  0  0  0  0  0  0
    1.9829    2.9877    0.5732 O   0  0  0  0  0  0  0  0  0  0  0  0
   -2.5442    6.4918   -0.8707 C   0  0  0  0  0  0  0  0  0  0  0  0
   -0.7969    5.6345    0.5436 C   0  0  0  0  0  0  0  0  0  0  0  0
   -0.6198    7.8778   -0.3430 C   0  0  0  0  0  0  0  0  0  0  0  0
   -1.8466    7.7000   -0.9845 C   0  0  0  0  0  0  0  0  0  0  0  0
   -0.0957    6.8399    0.4223 C   0  0  0  0  0  0  0  0  0  0  0  0
    4.4943    2.7376   -0.2264 O   0  0  0  0  0  0  0  0  0  0  0  0
    3.3285   -0.0096    1.9525 C   0  0  0  0  0  0  0  0  0  0  0  0
   -0.0104    9.0812   -0.5657 O   0  0  0  0  0  0  0  0  0  0  0  0
   -6.7481    3.2100   -0.2167 C   0  0  0  0  0  0  0  0  0  0  0  0
   -6.0093    0.9346    0.1554 C   0  0  0  0  0  0  0  0  0  0  0  0
    5.6660    0.9730    0.7827 C   0  0  0  0  0  0  0  0  0  0  0  0
    0.9054    9.5080    0.4366 C   0  0  0  0  0  0  0  0  0  0  0  0
    4.5497   -0.6475    2.1826 C   0  0  0  0  0  0  0  0  0  0  0  0
   -8.0735    2.7681   -0.2456 C   0  0  0  0  0  0  0  0  0  0  0  0
   -7.3369    0.5001    0.1266 C   0  0  0  0  0  0  0  0  0  0  0  0
    5.7144   -0.1621    1.5906 C   0  0  0  0  0  0  0  0  0  0  0  0
   -8.3668    1.4155   -0.0760 C   0  0  0  0  0  0  0  0  0  0  0  0
   -3.2495    0.9170    0.2435 H   0  0  0  0  0  0  0  0  0  0  0  0
   -0.0282    3.1224   -0.3746 H   0  0  0  0  0  0  0  0  0  0  0  0
    0.9571   -0.0253    1.0454 H   0  0  0  0  0  0  0  0  0  0  0  0
   -3.4997    6.3810   -1.3791 H   0  0  0  0  0  0  0  0  0  0  0  0
   -0.3612    4.8609    1.1715 H   0  0  0  0  0  0  0  0  0  0  0  0
   -2.2652    8.5085   -1.5784 H   0  0  0  0  0  0  0  0  0  0  0  0
    0.8652    6.9202    0.9199 H   0  0  0  0  0  0  0  0  0  0  0  0
    3.6311    3.2005   -0.1429 H   0  0  0  0  0  0  0  0  0  0  0  0
    2.4480   -0.3938    2.4592 H   0  0  0  0  0  0  0  0  0  0  0  0
   -6.5437    4.2704   -0.3552 H   0  0  0  0  0  0  0  0  0  0  0  0
   -5.2428    0.1838    0.3133 H   0  0  0  0  0  0  0  0  0  0  0  0
    6.5756    1.3619    0.3322 H   0  0  0  0  0  0  0  0  0  0  0  0
    0.4085    9.5804    1.4099 H   0  0  0  0  0  0  0  0  0  0  0  0
    1.7845    8.8582    0.4899 H   0  0  0  0  0  0  0  0  0  0  0  0
    1.2564   10.5074    0.1620 H   0  0  0  0  0  0  0  0  0  0  0  0
    4.5936   -1.5214    2.8289 H   0  0  0  0  0  0  0  0  0  0  0  0
   -8.8774    3.4831   -0.4011 H   0  0  0  0  0  0  0  0  0  0  0  0
   -7.5668   -0.5519    0.2626 H   0  0  0  0  0  0  0  0  0  0  0  0
    6.6645   -0.6598    1.7692 H   0  0  0  0  0  0  0  0  0  0  0  0
   -9.3995    1.0776   -0.0949 H   0  0  0  0  0  0  0  0  0  0  0  0
  2  1  1  0  0  0  0
  3  4  1  0  0  0  0
  4  1  2  0  0  0  0
  5  2  1  0  0  0  0
  5  3  2  0  0  0  0
  5 32  1  0  0  0  0
  6  7  1  0  0  0  0
  7 13  1  0  0  0  0
  8 10  2  0  0  0  0
  9  4  1  0  0  0  0
 10  3  1  0  0  0  0
 10 33  1  0  0  0  0
 11  2  1  0  0  0  0
 12  6  2  0  0  0  0
 13  8  1  0  0  0  0
 13 34  1  0  0  0  0
 14  7  2  0  0  0  0
 15  9  2  0  0  0  0
 15 35  1  0  0  0  0
 16  9  1  0  0  0  0
 16 36  1  0  0  0  0
 17 19  1  0  0  0  0
 18 15  1  0  0  0  0
 18 17  2  0  0  0  0
 18 37  1  0  0  0  0
 19 16  2  0  0  0  0
 19 38  1  0  0  0  0
 20 12  1  0  0  0  0
 20 39  1  0  0  0  0
 21  6  1  0  0  0  0
 21 40  1  0  0  0  0
 22 17  1  0  0  0  0
 23 11  2  0  0  0  0
 23 41  1  0  0  0  0
 24 11  1  0  0  0  0
 24 42  1  0  0  0  0
 25 12  1  0  0  0  0
 25 30  2  0  0  0  0
 25 43  1  0  0  0  0
 26 22  1  0  0  0  0
 26 44  1  0  0  0  0
 26 45  1  0  0  0  0
 26 46  1  0  0  0  0
 27 21  2  0  0  0  0
 27 47  1  0  0  0  0
 28 23  1  0  0  0  0
 28 31  2  0  0  0  0
 28 48  1  0  0  0  0
 29 24  2  0  0  0  0
 29 49  1  0  0  0  0
 30 27  1  0  0  0  0
 30 50  1  0  0  0  0
 31 29  1  0  0  0  0
 31 51  1  0  0  0  0
M  END
>  <Mol_ID>
8066

>  <Formula>
C24H20N4O3

>  <MolWeight>
412.4406

>  <Cat>
P2769

>  <Name>
WAY-356265

>  <Synonyms>
N/A

>  <Target>
others

>  <Form>
free base

>  <CAS>
351515-49-6

>  <URL>
N/A

$$$$
