WAY-327081
 OpenBabel08302521443D

 54 57  0  0  0  0  0  0  0  0999 V2000
    0.2386    2.1155    0.3443 C   0  0  3  0  0  0  0  0  0  0  0  0
    2.0387    0.4081    0.0076 N   0  0  0  0  0  0  0  0  0  0  0  0
    1.1961   -0.6770    0.2461 C   0  0  0  0  0  0  0  0  0  0  0  0
   -0.7525    0.9508    0.2834 C   0  0  0  0  0  0  0  0  0  0  0  0
    1.4924    1.6841   -0.5324 C   0  0  3  0  0  0  0  0  0  0  0  0
   -0.2905   -0.3768    0.1857 C   0  0  0  0  0  0  0  0  0  0  0  0
   -0.3717    3.4200   -0.1917 C   0  0  0  0  0  0  0  0  0  0  0  0
   -2.1276    1.1858    0.2606 C   0  0  0  0  0  0  0  0  0  0  0  0
   -1.2243   -1.4043   -0.0372 C   0  0  0  0  0  0  0  0  0  0  0  0
   -0.5785    4.6008    0.4097 N   0  0  0  0  0  0  0  0  0  0  0  0
   -2.6072   -1.1391   -0.1163 C   0  0  0  0  0  0  0  0  0  0  0  0
   -3.0722    0.1798    0.0284 C   0  0  0  0  0  0  0  0  0  0  0  0
    1.2976    1.6157   -2.0587 C   0  0  0  0  0  0  0  0  0  0  0  0
    1.5860   -1.8175    0.4595 O   0  0  0  0  0  0  0  0  0  0  0  0
   -0.7885    3.4504   -1.3664 O   0  0  0  0  0  0  0  0  0  0  0  0
   -0.8763    5.1500    1.6671 C   0  0  0  0  0  0  0  0  0  0  0  0
   -0.9398    4.4954    2.8903 C   0  0  0  0  0  0  0  0  0  0  0  0
    1.1431    2.8760   -4.1525 N   0  0  0  0  0  0  0  0  0  0  0  0
    3.4727    0.1603   -0.1123 C   0  0  0  0  0  0  0  0  0  0  0  0
   -1.4638    5.1752    4.0117 C   0  0  0  0  0  0  0  0  0  0  0  0
   -4.3423    0.6452    0.1699 O   0  0  0  0  0  0  0  0  0  0  0  0
   -3.3841   -2.2419   -0.3337 O   0  0  0  0  0  0  0  0  0  0  0  0
    1.4333    2.7738   -2.8313 C   0  0  0  0  0  0  0  0  0  0  0  0
   -1.8161    7.1699    2.7171 C   0  0  0  0  0  0  0  0  0  0  0  0
    0.9061    0.4690   -2.7687 C   0  0  0  0  0  0  0  0  0  0  0  0
    0.6812    1.7650   -4.7573 C   0  0  0  0  0  0  0  0  0  0  0  0
   -1.2892    6.5019    1.6123 C   0  0  0  0  0  0  0  0  0  0  0  0
   -1.9210    6.4991    3.9263 C   0  0  0  0  0  0  0  0  0  0  0  0
   -5.3454    0.4281   -0.8111 C   0  0  0  0  0  0  0  0  0  0  0  0
   -4.5173   -2.3684    0.5172 C   0  0  0  0  0  0  0  0  0  0  0  0
    0.5717    0.5447   -4.1212 C   0  0  0  0  0  0  0  0  0  0  0  0
    0.5538    2.2472    1.3841 H   0  0  0  0  0  0  0  0  0  0  0  0
    2.2638    2.4444   -0.3484 H   0  0  0  0  0  0  0  0  0  0  0  0
   -2.5136    2.1931    0.3928 H   0  0  0  0  0  0  0  0  0  0  0  0
   -0.8659   -2.4331   -0.1491 H   0  0  0  0  0  0  0  0  0  0  0  0
   -0.8701    5.2278   -0.3466 H   0  0  0  0  0  0  0  0  0  0  0  0
   -0.6374    3.4613    3.0100 H   0  0  0  0  0  0  0  0  0  0  0  0
    3.8148   -0.4153    0.7538 H   0  0  0  0  0  0  0  0  0  0  0  0
    3.6717   -0.4206   -1.0179 H   0  0  0  0  0  0  0  0  0  0  0  0
    4.0286    1.1006   -0.1494 H   0  0  0  0  0  0  0  0  0  0  0  0
   -1.5507    4.6650    4.9705 H   0  0  0  0  0  0  0  0  0  0  0  0
    1.7342    3.7161   -2.3812 H   0  0  0  0  0  0  0  0  0  0  0  0
   -2.1655    8.1954    2.6205 H   0  0  0  0  0  0  0  0  0  0  0  0
    0.8230   -0.5039   -2.2974 H   0  0  0  0  0  0  0  0  0  0  0  0
    0.3916    1.8831   -5.7972 H   0  0  0  0  0  0  0  0  0  0  0  0
   -1.2489    7.0517    0.6727 H   0  0  0  0  0  0  0  0  0  0  0  0
   -2.3648    6.9949    4.7816 H   0  0  0  0  0  0  0  0  0  0  0  0
   -5.0639    0.7343   -1.8223 H   0  0  0  0  0  0  0  0  0  0  0  0
   -5.7231   -0.5911   -0.8052 H   0  0  0  0  0  0  0  0  0  0  0  0
   -6.1916    1.0562   -0.5027 H   0  0  0  0  0  0  0  0  0  0  0  0
   -4.6911   -1.5129    1.1751 H   0  0  0  0  0  0  0  0  0  0  0  0
   -5.3923   -2.5302   -0.1177 H   0  0  0  0  0  0  0  0  0  0  0  0
   -4.3986   -3.2512    1.1465 H   0  0  0  0  0  0  0  0  0  0  0  0
    0.2154   -0.3293   -4.6567 H   0  0  0  0  0  0  0  0  0  0  0  0
  1 32  1  0  0  0  0
  2  5  1  0  0  0  0
  3  2  1  0  0  0  0
  3  6  1  0  0  0  0
  4  1  1  0  0  0  0
  5  1  1  0  0  0  0
  5 33  1  0  0  0  0
  6  4  2  0  0  0  0
  7  1  1  0  0  0  0
  8  4  1  0  0  0  0
  8 34  1  0  0  0  0
  9  6  1  0  0  0  0
  9 35  1  0  0  0  0
 10  7  1  0  0  0  0
 10 36  1  0  0  0  0
 11 12  1  0  0  0  0
 11  9  2  0  0  0  0
 12  8  2  0  0  0  0
 13  5  1  0  0  0  0
 14  3  2  0  0  0  0
 15  7  2  0  0  0  0
 16 10  1  0  0  0  0
 17 16  2  0  0  0  0
 17 37  1  0  0  0  0
 18 23  2  0  0  0  0
 19  2  1  0  0  0  0
 19 38  1  0  0  0  0
 19 39  1  0  0  0  0
 19 40  1  0  0  0  0
 20 17  1  0  0  0  0
 20 28  2  0  0  0  0
 20 41  1  0  0  0  0
 21 12  1  0  0  0  0
 22 11  1  0  0  0  0
 23 13  1  0  0  0  0
 23 42  1  0  0  0  0
 24 27  2  0  0  0  0
 24 43  1  0  0  0  0
 25 13  2  0  0  0  0
 25 44  1  0  0  0  0
 26 31  2  0  0  0  0
 26 18  1  0  0  0  0
 26 45  1  0  0  0  0
 27 16  1  0  0  0  0
 27 46  1  0  0  0  0
 28 24  1  0  0  0  0
 28 47  1  0  0  0  0
 29 21  1  0  0  0  0
 29 48  1  0  0  0  0
 29 49  1  0  0  0  0
 29 50  1  0  0  0  0
 30 22  1  0  0  0  0
 30 51  1  0  0  0  0
 30 52  1  0  0  0  0
 30 53  1  0  0  0  0
 31 25  1  0  0  0  0
 31 54  1  0  0  0  0
M  END
>  <Mol_ID>
8952

>  <Formula>
C24H22ClN3O4

>  <MolWeight>
451.90218

>  <Cat>
P2511

>  <Name>
WAY-327081

>  <Synonyms>
N/A

>  <Target>
Others

>  <Form>
free base

>  <CAS>
702663-26-1

>  <URL>
N/A

$$$$
