WAY-606529
 OpenBabel08302521433D

 33 35  0  0  0  0  0  0  0  0999 V2000
   -0.5590   -1.2170    0.1864 N   0  0  0  0  0  0  0  0  0  0  0  0
    0.8202   -1.3500   -0.2305 C   0  0  3  0  0  0  0  0  0  0  0  0
    1.4410    0.3385   -0.5166 S   0  0  0  0  0  0  0  0  0  0  0  0
   -1.1388    0.0293    0.0987 C   0  0  0  0  0  0  0  0  0  0  0  0
   -1.3885   -2.3995    0.3829 C   0  0  0  0  0  0  0  0  0  0  0  0
   -0.1755    1.1038   -0.3358 C   0  0  0  0  0  0  0  0  0  0  0  0
    1.7245   -2.0553    0.7691 C   0  0  0  0  0  0  0  0  0  0  0  0
   -2.3219    0.2570    0.3424 O   0  0  0  0  0  0  0  0  0  0  0  0
   -1.5234   -3.1653   -1.9578 N   0  0  0  0  0  0  0  0  0  0  0  0
   -2.1991   -2.8040   -0.8346 C   0  0  0  0  0  0  0  0  0  0  0  0
   -2.2627   -3.5961   -3.0088 C   0  0  0  0  0  0  0  0  0  0  0  0
    2.8503   -2.7592    0.3031 C   0  0  0  0  0  0  0  0  0  0  0  0
    1.5300   -1.9612    2.1589 C   0  0  0  0  0  0  0  0  0  0  0  0
   -3.5900   -2.8663   -0.7497 C   0  0  0  0  0  0  0  0  0  0  0  0
   -3.6445   -3.7027   -2.9976 C   0  0  0  0  0  0  0  0  0  0  0  0
    2.4303   -2.5525    3.0496 C   0  0  0  0  0  0  0  0  0  0  0  0
    3.7541   -3.3399    1.1954 C   0  0  0  0  0  0  0  0  0  0  0  0
   -4.3191   -3.3253   -1.8455 C   0  0  0  0  0  0  0  0  0  0  0  0
    3.5453   -3.2340    2.5685 C   0  0  0  0  0  0  0  0  0  0  0  0
    0.8288   -1.8788   -1.1892 H   0  0  0  0  0  0  0  0  0  0  0  0
   -0.7665   -3.2480    0.6886 H   0  0  0  0  0  0  0  0  0  0  0  0
   -2.0659   -2.1841    1.2188 H   0  0  0  0  0  0  0  0  0  0  0  0
   -0.1402    1.8962    0.4188 H   0  0  0  0  0  0  0  0  0  0  0  0
   -0.4950    1.5152   -1.2965 H   0  0  0  0  0  0  0  0  0  0  0  0
   -1.6932   -3.8740   -3.8915 H   0  0  0  0  0  0  0  0  0  0  0  0
    3.0448   -2.8349   -0.7648 H   0  0  0  0  0  0  0  0  0  0  0  0
    0.6831   -1.4103    2.5619 H   0  0  0  0  0  0  0  0  0  0  0  0
   -4.1085   -2.5653    0.1554 H   0  0  0  0  0  0  0  0  0  0  0  0
   -4.1807   -4.0694   -3.8644 H   0  0  0  0  0  0  0  0  0  0  0  0
    2.2710   -2.4640    4.1219 H   0  0  0  0  0  0  0  0  0  0  0  0
    4.6305   -3.8608    0.8186 H   0  0  0  0  0  0  0  0  0  0  0  0
   -5.4035   -3.3899   -1.7947 H   0  0  0  0  0  0  0  0  0  0  0  0
    4.2580   -3.6729    3.2627 H   0  0  0  0  0  0  0  0  0  0  0  0
  2  1  1  0  0  0  0
  2 20  1  0  0  0  0
  3  2  1  0  0  0  0
  3  6  1  0  0  0  0
  4  1  1  0  0  0  0
  5  1  1  0  0  0  0
  5 21  1  0  0  0  0
  5 22  1  0  0  0  0
  6  4  1  0  0  0  0
  6 23  1  0  0  0  0
  6 24  1  0  0  0  0
  7  2  1  0  0  0  0
  8  4  2  0  0  0  0
  9 10  2  0  0  0  0
 10  5  1  0  0  0  0
 11  9  1  0  0  0  0
 11 25  1  0  0  0  0
 12  7  2  0  0  0  0
 12 26  1  0  0  0  0
 13  7  1  0  0  0  0
 13 27  1  0  0  0  0
 14 10  1  0  0  0  0
 14 28  1  0  0  0  0
 15 18  1  0  0  0  0
 15 11  2  0  0  0  0
 15 29  1  0  0  0  0
 16 13  2  0  0  0  0
 16 30  1  0  0  0  0
 17 12  1  0  0  0  0
 17 31  1  0  0  0  0
 18 14  2  0  0  0  0
 18 32  1  0  0  0  0
 19 16  1  0  0  0  0
 19 17  2  0  0  0  0
 19 33  1  0  0  0  0
M  END
>  <Mol_ID>
8718

>  <Formula>
C15H14N2OS

>  <MolWeight>
270.34946

>  <Cat>
P2864

>  <Name>
WAY-606529

>  <Synonyms>
N/A

>  <Target>
N-Myristoyltransferase

>  <Form>
free base

>  <CAS>
326879-46-3

>  <URL>
N/A

$$$$
