WAY-329610
 OpenBabel08302521453D

 44 46  0  0  0  0  0  0  0  0999 V2000
   -0.2955   -2.0417    0.9538 S   0  0  0  0  0  0  0  0  0  0  0  0
    0.3684   -3.4057    1.8427 C   0  0  0  0  0  0  0  0  0  0  0  0
    1.5082   -3.2950    2.6699 C   0  0  0  0  0  0  0  0  0  0  0  0
    0.9365   -1.3057   -0.0573 C   0  0  0  0  0  0  0  0  0  0  0  0
    1.3712   -2.1749   -1.2070 C   0  0  0  0  0  0  0  0  0  0  0  0
    2.3566   -2.2561    2.7643 N   0  0  0  0  0  0  0  0  0  0  0  0
    3.4713   -2.6500    3.9330 S   0  0  0  0  0  0  0  0  0  0  0  0
    1.8779   -4.4291    3.6051 C   0  0  0  0  0  0  0  0  0  0  0  0
    1.9277   -1.4682   -2.2961 N   0  0  0  0  0  0  0  0  0  0  0  0
    2.3610   -2.1945   -3.4500 C   0  0  0  0  0  0  0  0  0  0  0  0
    2.9602   -4.1696    4.3536 N   0  0  0  0  0  0  0  0  0  0  0  0
    1.5027   -2.6406   -4.4725 C   0  0  0  0  0  0  0  0  0  0  0  0
   -0.3519   -4.6204    1.9194 C   0  0  0  0  0  0  0  0  0  0  0  0
   -0.6405   -1.0607    1.9719 O   0  0  0  0  0  0  0  0  0  0  0  0
   -1.3531   -2.5342    0.0913 O   0  0  0  0  0  0  0  0  0  0  0  0
    2.0608   -3.2070   -5.6379 C   0  0  0  0  0  0  0  0  0  0  0  0
    3.7495   -2.3706   -3.6106 C   0  0  0  0  0  0  0  0  0  0  0  0
    0.0074   -5.6787    2.7884 C   0  0  0  0  0  0  0  0  0  0  0  0
    1.1091   -5.6162    3.6577 C   0  0  0  0  0  0  0  0  0  0  0  0
    1.2778   -3.3980   -1.1659 O   0  0  0  0  0  0  0  0  0  0  0  0
    3.4392   -3.3403   -5.7977 C   0  0  0  0  0  0  0  0  0  0  0  0
    4.2804   -2.9293   -4.7714 C   0  0  0  0  0  0  0  0  0  0  0  0
    0.1374   -2.6031   -4.5452 O   0  0  0  0  0  0  0  0  0  0  0  0
    2.5868   -0.1735   -2.0937 C   0  0  0  0  0  0  0  0  0  0  0  0
    4.0789   -3.8168   -6.9080 O   0  0  0  0  0  0  0  0  0  0  0  0
   -0.5779   -1.6107   -3.8336 C   0  0  0  0  0  0  0  0  0  0  0  0
    3.3069   -4.6417   -7.7717 C   0  0  0  0  0  0  0  0  0  0  0  0
    0.4520   -0.4048   -0.4531 H   0  0  0  0  0  0  0  0  0  0  0  0
    1.7917   -1.0037    0.5468 H   0  0  0  0  0  0  0  0  0  0  0  0
   -1.2494   -4.7450    1.3097 H   0  0  0  0  0  0  0  0  0  0  0  0
    1.3796   -3.4982   -6.4335 H   0  0  0  0  0  0  0  0  0  0  0  0
    4.4374   -2.0773   -2.8207 H   0  0  0  0  0  0  0  0  0  0  0  0
   -0.6159   -6.5740    2.8024 H   0  0  0  0  0  0  0  0  0  0  0  0
    1.3537   -6.4224    4.3401 H   0  0  0  0  0  0  0  0  0  0  0  0
    5.3561   -3.0455   -4.8750 H   0  0  0  0  0  0  0  0  0  0  0  0
    1.8475    0.5732   -1.7939 H   0  0  0  0  0  0  0  0  0  0  0  0
    3.3397   -0.2711   -1.3050 H   0  0  0  0  0  0  0  0  0  0  0  0
    3.0594    0.1845   -3.0150 H   0  0  0  0  0  0  0  0  0  0  0  0
   -0.7719   -1.9358   -2.8099 H   0  0  0  0  0  0  0  0  0  0  0  0
   -0.0871   -0.6339   -3.8684 H   0  0  0  0  0  0  0  0  0  0  0  0
   -1.5521   -1.5003   -4.3228 H   0  0  0  0  0  0  0  0  0  0  0  0
    2.8389   -5.4624   -7.2183 H   0  0  0  0  0  0  0  0  0  0  0  0
    2.5615   -4.0561   -8.3189 H   0  0  0  0  0  0  0  0  0  0  0  0
    3.9893   -5.0804   -8.5064 H   0  0  0  0  0  0  0  0  0  0  0  0
  2  1  1  0  0  0  0
  3  2  1  0  0  0  0
  4  1  1  0  0  0  0
  4 28  1  0  0  0  0
  4 29  1  0  0  0  0
  5  4  1  0  0  0  0
  6  3  2  0  0  0  0
  7  6  1  0  0  0  0
  7 11  1  0  0  0  0
  8  3  1  0  0  0  0
  8 19  1  0  0  0  0
  9  5  1  0  0  0  0
 10  9  1  0  0  0  0
 11  8  2  0  0  0  0
 12 10  2  0  0  0  0
 13  2  2  0  0  0  0
 13 30  1  0  0  0  0
 14  1  2  0  0  0  0
 15  1  2  0  0  0  0
 16 12  1  0  0  0  0
 16 31  1  0  0  0  0
 17 10  1  0  0  0  0
 17 32  1  0  0  0  0
 18 13  1  0  0  0  0
 18 33  1  0  0  0  0
 19 18  2  0  0  0  0
 19 34  1  0  0  0  0
 20  5  2  0  0  0  0
 21 22  1  0  0  0  0
 21 16  2  0  0  0  0
 22 17  2  0  0  0  0
 22 35  1  0  0  0  0
 23 12  1  0  0  0  0
 24  9  1  0  0  0  0
 24 36  1  0  0  0  0
 24 37  1  0  0  0  0
 24 38  1  0  0  0  0
 25 21  1  0  0  0  0
 26 23  1  0  0  0  0
 26 39  1  0  0  0  0
 26 40  1  0  0  0  0
 26 41  1  0  0  0  0
 27 25  1  0  0  0  0
 27 42  1  0  0  0  0
 27 43  1  0  0  0  0
 27 44  1  0  0  0  0
M  END
>  <Mol_ID>
9316

>  <Formula>
C17H17N3O5S2

>  <MolWeight>
407.46398

>  <Cat>
P2592

>  <Name>
WAY-329610

>  <Synonyms>
N/A

>  <Target>
others

>  <Form>
free base

>  <CAS>
956973-47-0

>  <URL>
N/A

$$$$
