WAY-332070
 OpenBabel08302521453D

 52 54  0  0  0  0  0  0  0  0999 V2000
   -2.1549    3.4382    2.6660 C   0  0  0  0  0  0  0  0  0  0  0  0
   -1.8993    2.9336    1.4747 N   0  0  0  0  0  0  0  0  0  0  0  0
   -0.5546    3.1448    1.2837 C   0  0  0  0  0  0  0  0  0  0  0  0
   -1.0625    4.0198    3.2614 O   0  0  0  0  0  0  0  0  0  0  0  0
   -0.0401    3.8118    2.3764 C   0  0  0  0  0  0  0  0  0  0  0  0
   -0.5724    3.3409   -1.4740 S   0  0  3  0  0  0  0  0  0  0  0  0
    0.1310    2.6624    0.0628 C   0  0  0  0  0  0  0  0  0  0  0  0
   -0.7929    6.0242   -2.1951 C   0  0  0  0  0  0  0  0  0  0  0  0
   -3.4010    3.4440    3.4313 C   0  0  0  0  0  0  0  0  0  0  0  0
   -0.2390    5.0933   -1.1286 C   0  0  0  0  0  0  0  0  0  0  0  0
   -0.5324    7.3602   -1.9277 N   0  0  0  0  0  0  0  0  0  0  0  0
    0.3523    2.9084   -2.5777 O   0  0  0  0  0  0  0  0  0  0  0  0
   -1.4374    5.6554   -3.1672 O   0  0  0  0  0  0  0  0  0  0  0  0
   -4.3342    2.3854    3.3635 C   0  0  0  0  0  0  0  0  0  0  0  0
   -0.9787    8.4687   -2.7698 C   0  0  0  0  0  0  0  0  0  0  0  0
    1.2921    4.3044    2.7662 C   0  0  0  0  0  0  0  0  0  0  0  0
   -3.6945    4.5499    4.2542 C   0  0  0  0  0  0  0  0  0  0  0  0
   -4.1357    1.1343    2.5475 C   0  0  0  0  0  0  0  0  0  0  0  0
   -5.5368    2.4803    4.0912 C   0  0  0  0  0  0  0  0  0  0  0  0
   -2.5082    8.5408   -2.8974 C   0  0  0  0  0  0  0  0  0  0  0  0
   -0.2884    8.4847   -4.1403 C   0  0  0  0  0  0  0  0  0  0  0  0
   -4.8876    4.6221    4.9765 C   0  0  0  0  0  0  0  0  0  0  0  0
   -5.8110    3.5881    4.8901 C   0  0  0  0  0  0  0  0  0  0  0  0
   -2.9555    9.7126   -3.7700 C   0  0  0  0  0  0  0  0  0  0  0  0
   -0.7425    9.6821   -4.9744 C   0  0  0  0  0  0  0  0  0  0  0  0
   -2.2601    9.7058   -5.1284 C   0  0  0  0  0  0  0  0  0  0  0  0
    1.1995    2.8950    0.0781 H   0  0  0  0  0  0  0  0  0  0  0  0
    0.0313    1.5726    0.0002 H   0  0  0  0  0  0  0  0  0  0  0  0
   -0.7165    5.3662   -0.1831 H   0  0  0  0  0  0  0  0  0  0  0  0
    0.8440    5.2308   -1.0471 H   0  0  0  0  0  0  0  0  0  0  0  0
    0.0166    7.5971   -1.1116 H   0  0  0  0  0  0  0  0  0  0  0  0
   -0.6539    9.3692   -2.2307 H   0  0  0  0  0  0  0  0  0  0  0  0
    1.2774    5.3928    2.8856 H   0  0  0  0  0  0  0  0  0  0  0  0
    1.6063    3.8569    3.7145 H   0  0  0  0  0  0  0  0  0  0  0  0
    2.0441    4.0591    2.0123 H   0  0  0  0  0  0  0  0  0  0  0  0
   -2.9926    5.3789    4.3265 H   0  0  0  0  0  0  0  0  0  0  0  0
   -4.3256    0.2539    3.1716 H   0  0  0  0  0  0  0  0  0  0  0  0
   -4.8305    1.1263    1.7016 H   0  0  0  0  0  0  0  0  0  0  0  0
   -3.1228    1.0125    2.1621 H   0  0  0  0  0  0  0  0  0  0  0  0
   -6.2695    1.6769    4.0345 H   0  0  0  0  0  0  0  0  0  0  0  0
   -2.9058    7.6170   -3.3316 H   0  0  0  0  0  0  0  0  0  0  0  0
   -2.9594    8.6329   -1.9020 H   0  0  0  0  0  0  0  0  0  0  0  0
    0.8000    8.5224   -4.0110 H   0  0  0  0  0  0  0  0  0  0  0  0
   -0.5043    7.5624   -4.6925 H   0  0  0  0  0  0  0  0  0  0  0  0
   -5.0974    5.4884    5.5982 H   0  0  0  0  0  0  0  0  0  0  0  0
   -6.7450    3.6403    5.4432 H   0  0  0  0  0  0  0  0  0  0  0  0
   -4.0412    9.6693   -3.9130 H   0  0  0  0  0  0  0  0  0  0  0  0
   -2.7389   10.6559   -3.2542 H   0  0  0  0  0  0  0  0  0  0  0  0
   -0.2704    9.6472   -5.9626 H   0  0  0  0  0  0  0  0  0  0  0  0
   -0.4101   10.6113   -4.4946 H   0  0  0  0  0  0  0  0  0  0  0  0
   -2.5829    8.8282   -5.7022 H   0  0  0  0  0  0  0  0  0  0  0  0
   -2.5609   10.5903   -5.7012 H   0  0  0  0  0  0  0  0  0  0  0  0
  2  1  2  0  0  0  0
  3  2  1  0  0  0  0
  4  1  1  0  0  0  0
  5  4  1  0  0  0  0
  5  3  2  0  0  0  0
  6  7  1  0  0  0  0
  7  3  1  0  0  0  0
  7 27  1  0  0  0  0
  7 28  1  0  0  0  0
  8 10  1  0  0  0  0
  9  1  1  0  0  0  0
 10  6  1  0  0  0  0
 10 29  1  0  0  0  0
 10 30  1  0  0  0  0
 11  8  1  0  0  0  0
 11 31  1  0  0  0  0
 12  6  2  0  0  0  0
 13  8  2  0  0  0  0
 14  9  2  0  0  0  0
 15 11  1  0  0  0  0
 15 32  1  0  0  0  0
 16  5  1  0  0  0  0
 16 33  1  0  0  0  0
 16 34  1  0  0  0  0
 16 35  1  0  0  0  0
 17  9  1  0  0  0  0
 17 36  1  0  0  0  0
 18 14  1  0  0  0  0
 18 37  1  0  0  0  0
 18 38  1  0  0  0  0
 18 39  1  0  0  0  0
 19 14  1  0  0  0  0
 19 40  1  0  0  0  0
 20 15  1  0  0  0  0
 20 41  1  0  0  0  0
 20 42  1  0  0  0  0
 21 15  1  0  0  0  0
 21 43  1  0  0  0  0
 21 44  1  0  0  0  0
 22 17  2  0  0  0  0
 22 45  1  0  0  0  0
 23 22  1  0  0  0  0
 23 19  2  0  0  0  0
 23 46  1  0  0  0  0
 24 20  1  0  0  0  0
 24 47  1  0  0  0  0
 24 48  1  0  0  0  0
 25 21  1  0  0  0  0
 25 49  1  0  0  0  0
 25 50  1  0  0  0  0
 26 25  1  0  0  0  0
 26 24  1  0  0  0  0
 26 51  1  0  0  0  0
 26 52  1  0  0  0  0
M  END
>  <Mol_ID>
9284

>  <Formula>
C20H26N2O3S

>  <MolWeight>
374.49704

>  <Cat>
P2712

>  <Name>
WAY-332070

>  <Synonyms>
N/A

>  <Target>
beta-catenin

>  <Form>
free base

>  <CAS>
1015864-93-3

>  <URL>
N/A

$$$$
