WAY-327490
 OpenBabel08302521443D

 51 53  0  0  0  0  0  0  0  0999 V2000
    1.1978    1.4525   -0.1010 C   0  0  0  0  0  0  0  0  0  0  0  0
   -0.0735    0.7070   -0.0582 C   0  0  0  0  0  0  0  0  0  0  0  0
   -0.0450   -0.6980   -0.0613 C   0  0  0  0  0  0  0  0  0  0  0  0
    2.3384    0.7493   -0.2532 C   0  0  0  0  0  0  0  0  0  0  0  0
    1.3245    2.9413    0.0110 C   0  0  0  0  0  0  0  0  0  0  0  0
    1.2492   -1.4184   -0.0878 C   0  0  0  0  0  0  0  0  0  0  0  0
    2.3991   -0.6374   -0.1657 N   0  0  0  0  0  0  0  0  0  0  0  0
    2.3532    3.4517    0.8069 N   0  0  0  0  0  0  0  0  0  0  0  0
   -1.3313    1.3298    0.0049 C   0  0  0  0  0  0  0  0  0  0  0  0
   -1.2345   -1.4412   -0.0225 C   0  0  0  0  0  0  0  0  0  0  0  0
   -2.4813   -0.8146    0.0715 C   0  0  0  0  0  0  0  0  0  0  0  0
   -2.5255    0.5895    0.0855 C   0  0  0  0  0  0  0  0  0  0  0  0
    4.5415    4.6231    2.4125 N   0  0  0  0  0  0  0  0  0  0  0  0
    1.2653   -2.6437   -0.0081 O   0  0  0  0  0  0  0  0  0  0  0  0
    0.5381    3.6761   -0.5846 O   0  0  0  0  0  0  0  0  0  0  0  0
    2.4726    4.9117    0.9263 C   0  0  0  0  0  0  0  0  0  0  0  0
    2.9701    2.7204    1.9258 C   0  0  0  0  0  0  0  0  0  0  0  0
    4.4148    3.1768    2.1607 C   0  0  0  0  0  0  0  0  0  0  0  0
    3.9059    5.3634    1.2971 C   0  0  0  0  0  0  0  0  0  0  0  0
    3.7081   -1.2945   -0.0394 C   0  0  0  0  0  0  0  0  0  0  0  0
   -3.6582   -1.5095    0.1570 O   0  0  0  0  0  0  0  0  0  0  0  0
   -3.6233    1.4072    0.1821 O   0  0  0  0  0  0  0  0  0  0  0  0
    3.9566    4.9768    3.7042 C   0  0  0  0  0  0  0  0  0  0  0  0
   -4.9081    0.8226    0.3488 C   0  0  0  0  0  0  0  0  0  0  0  0
   -3.6058   -2.9287    0.2099 C   0  0  0  0  0  0  0  0  0  0  0  0
    4.1227   -1.5332    1.4110 C   0  0  0  0  0  0  0  0  0  0  0  0
    3.2973    1.2420   -0.3582 H   0  0  0  0  0  0  0  0  0  0  0  0
   -1.4110    2.4130   -0.0044 H   0  0  0  0  0  0  0  0  0  0  0  0
   -1.1492   -2.5261   -0.0493 H   0  0  0  0  0  0  0  0  0  0  0  0
    2.1731    5.3961   -0.0119 H   0  0  0  0  0  0  0  0  0  0  0  0
    1.7624    5.2343    1.6985 H   0  0  0  0  0  0  0  0  0  0  0  0
    2.3367    2.8911    2.8014 H   0  0  0  0  0  0  0  0  0  0  0  0
    2.9706    1.6432    1.7924 H   0  0  0  0  0  0  0  0  0  0  0  0
    5.0224    2.9270    1.2810 H   0  0  0  0  0  0  0  0  0  0  0  0
    4.8534    2.6058    2.9909 H   0  0  0  0  0  0  0  0  0  0  0  0
    4.5438    5.2281    0.4118 H   0  0  0  0  0  0  0  0  0  0  0  0
    3.9178    6.4414    1.5052 H   0  0  0  0  0  0  0  0  0  0  0  0
    3.6697   -2.2569   -0.5601 H   0  0  0  0  0  0  0  0  0  0  0  0
    4.4702   -0.6825   -0.5405 H   0  0  0  0  0  0  0  0  0  0  0  0
    2.8864    4.7682    3.7732 H   0  0  0  0  0  0  0  0  0  0  0  0
    4.4588    4.4195    4.5089 H   0  0  0  0  0  0  0  0  0  0  0  0
    4.1071    6.0410    3.9173 H   0  0  0  0  0  0  0  0  0  0  0  0
   -5.2158    0.2921   -0.5592 H   0  0  0  0  0  0  0  0  0  0  0  0
   -4.9509    0.1855    1.2342 H   0  0  0  0  0  0  0  0  0  0  0  0
   -5.6203    1.6355    0.5087 H   0  0  0  0  0  0  0  0  0  0  0  0
   -3.3046   -3.3374   -0.7570 H   0  0  0  0  0  0  0  0  0  0  0  0
   -2.9565   -3.2855    1.0168 H   0  0  0  0  0  0  0  0  0  0  0  0
   -4.6186   -3.2874    0.4281 H   0  0  0  0  0  0  0  0  0  0  0  0
    4.2128   -0.5957    1.9694 H   0  0  0  0  0  0  0  0  0  0  0  0
    3.4038   -2.1689    1.9393 H   0  0  0  0  0  0  0  0  0  0  0  0
    5.0964   -2.0347    1.4433 H   0  0  0  0  0  0  0  0  0  0  0  0
  2  1  1  0  0  0  0
  3  2  2  0  0  0  0
  4  1  2  0  0  0  0
  4 27  1  0  0  0  0
  5  1  1  0  0  0  0
  6  7  1  0  0  0  0
  6  3  1  0  0  0  0
  7  4  1  0  0  0  0
  8  5  1  0  0  0  0
  9  2  1  0  0  0  0
  9 28  1  0  0  0  0
 10  3  1  0  0  0  0
 10 29  1  0  0  0  0
 11 12  1  0  0  0  0
 11 10  2  0  0  0  0
 12  9  2  0  0  0  0
 13 18  1  0  0  0  0
 13 19  1  0  0  0  0
 14  6  2  0  0  0  0
 15  5  2  0  0  0  0
 16  8  1  0  0  0  0
 16 30  1  0  0  0  0
 16 31  1  0  0  0  0
 17  8  1  0  0  0  0
 17 32  1  0  0  0  0
 17 33  1  0  0  0  0
 18 17  1  0  0  0  0
 18 34  1  0  0  0  0
 18 35  1  0  0  0  0
 19 16  1  0  0  0  0
 19 36  1  0  0  0  0
 19 37  1  0  0  0  0
 20  7  1  0  0  0  0
 20 38  1  0  0  0  0
 20 39  1  0  0  0  0
 21 11  1  0  0  0  0
 22 12  1  0  0  0  0
 23 13  1  0  0  0  0
 23 40  1  0  0  0  0
 23 41  1  0  0  0  0
 23 42  1  0  0  0  0
 24 22  1  0  0  0  0
 24 43  1  0  0  0  0
 24 44  1  0  0  0  0
 24 45  1  0  0  0  0
 25 21  1  0  0  0  0
 25 46  1  0  0  0  0
 25 47  1  0  0  0  0
 25 48  1  0  0  0  0
 26 20  1  0  0  0  0
 26 49  1  0  0  0  0
 26 50  1  0  0  0  0
 26 51  1  0  0  0  0
M  END
>  <Mol_ID>
8972

>  <Formula>
C19H25N3O4

>  <MolWeight>
359.4195

>  <Cat>
P2535

>  <Name>
WAY-327490

>  <Synonyms>
N/A

>  <Target>
phosphodiesterase type 10A

>  <Form>
free base

>  <CAS>
892263-59-1

>  <URL>
N/A

$$$$
