WAY-324747
 OpenBabel08302521423D

 61 63  0  0  0  0  0  0  0  0999 V2000
   -1.5249   -0.0887   -0.1096 C   0  0  0  0  0  0  0  0  0  0  0  0
   -1.0297   -1.3547   -0.4229 C   0  0  0  0  0  0  0  0  0  0  0  0
    0.4232   -1.4101   -0.2173 C   0  0  0  0  0  0  0  0  0  0  0  0
   -0.2627    1.0201    0.1429 S   0  0  0  0  0  0  0  0  0  0  0  0
    0.9576   -0.1511    0.0127 C   0  0  0  0  0  0  0  0  0  0  0  0
   -2.8443    0.3592   -0.0157 N   0  0  0  0  0  0  0  0  0  0  0  0
   -3.2597    1.6160    0.4552 C   0  0  0  0  0  0  0  0  0  0  0  0
   -1.8004   -2.5150   -0.8808 C   0  0  0  0  0  0  0  0  0  0  0  0
   -4.7665    1.7133    0.7524 C   0  0  3  0  0  0  0  0  0  0  0  0
   -5.6589    1.9018   -0.4852 C   0  0  3  0  0  0  0  0  0  0  0  0
   -5.4828    0.7902   -1.4842 C   0  0  0  0  0  0  0  0  0  0  0  0
    1.2658   -2.6100   -0.1109 C   0  0  0  0  0  0  0  0  0  0  0  0
   -2.5389    2.5816    0.6849 O   0  0  0  0  0  0  0  0  0  0  0  0
    4.1247   -5.7876    0.8625 C   0  0  0  0  0  0  0  0  0  0  0  0
    3.0914   -4.7024    0.5173 C   0  0  0  0  0  0  0  0  0  0  0  0
   -1.3850   -3.3145   -1.7054 O   0  0  0  0  0  0  0  0  0  0  0  0
   -5.1318   -0.3523   -1.2225 O   0  0  0  0  0  0  0  0  0  0  0  0
    2.4995   -2.6943   -0.7554 C   0  0  0  0  0  0  0  0  0  0  0  0
    0.9127   -3.6273    0.7829 C   0  0  0  0  0  0  0  0  0  0  0  0
    3.4125   -3.6963   -0.4125 C   0  0  0  0  0  0  0  0  0  0  0  0
    1.8082   -4.6633    1.0831 C   0  0  0  0  0  0  0  0  0  0  0  0
   -3.0242   -2.7139   -0.3147 N   0  0  0  0  0  0  0  0  0  0  0  0
   -5.7815    1.1605   -2.7394 O   0  0  0  0  0  0  0  0  0  0  0  0
    2.3674    0.3254    0.1827 C   0  0  0  0  0  0  0  0  0  0  0  0
   -5.0276    2.8988    1.7074 C   0  0  0  0  0  0  0  0  0  0  0  0
   -7.1395    1.9142   -0.0717 C   0  0  0  0  0  0  0  0  0  0  0  0
    3.5742   -6.8937    1.7901 C   0  0  0  0  0  0  0  0  0  0  0  0
    4.5959   -6.4722   -0.4385 C   0  0  0  0  0  0  0  0  0  0  0  0
    5.3412   -5.1570    1.5759 C   0  0  0  0  0  0  0  0  0  0  0  0
   -6.4756    2.9365    2.1801 C   0  0  0  0  0  0  0  0  0  0  0  0
   -7.4759    2.9163    1.0300 C   0  0  0  0  0  0  0  0  0  0  0  0
   -3.5678   -0.3075   -0.2797 H   0  0  0  0  0  0  0  0  0  0  0  0
   -5.0440    0.7874    1.2777 H   0  0  0  0  0  0  0  0  0  0  0  0
   -5.3882    2.8452   -0.9799 H   0  0  0  0  0  0  0  0  0  0  0  0
    2.7956   -1.9427   -1.4828 H   0  0  0  0  0  0  0  0  0  0  0  0
   -0.0483   -3.6118    1.2906 H   0  0  0  0  0  0  0  0  0  0  0  0
    4.3962   -3.6622   -0.8751 H   0  0  0  0  0  0  0  0  0  0  0  0
    1.4773   -5.4177    1.7915 H   0  0  0  0  0  0  0  0  0  0  0  0
   -3.3028   -2.2646    0.5478 H   0  0  0  0  0  0  0  0  0  0  0  0
   -3.4677   -3.5901   -0.5546 H   0  0  0  0  0  0  0  0  0  0  0  0
   -5.6415    0.3659   -3.2955 H   0  0  0  0  0  0  0  0  0  0  0  0
    2.6825    0.8626   -0.7199 H   0  0  0  0  0  0  0  0  0  0  0  0
    2.4576    1.0034    1.0367 H   0  0  0  0  0  0  0  0  0  0  0  0
    3.0822   -0.4801    0.3554 H   0  0  0  0  0  0  0  0  0  0  0  0
   -4.3682    2.8400    2.5819 H   0  0  0  0  0  0  0  0  0  0  0  0
   -4.7884    3.8471    1.2052 H   0  0  0  0  0  0  0  0  0  0  0  0
   -7.7708    2.1225   -0.9451 H   0  0  0  0  0  0  0  0  0  0  0  0
   -7.4244    0.9099    0.2698 H   0  0  0  0  0  0  0  0  0  0  0  0
    2.7054   -7.3935    1.3466 H   0  0  0  0  0  0  0  0  0  0  0  0
    4.3311   -7.6637    1.9802 H   0  0  0  0  0  0  0  0  0  0  0  0
    3.2741   -6.4912    2.7650 H   0  0  0  0  0  0  0  0  0  0  0  0
    5.0650   -5.7683   -1.1344 H   0  0  0  0  0  0  0  0  0  0  0  0
    5.3359   -7.2528   -0.2316 H   0  0  0  0  0  0  0  0  0  0  0  0
    3.7518   -6.9363   -0.9620 H   0  0  0  0  0  0  0  0  0  0  0  0
    5.8200   -4.3769    0.9743 H   0  0  0  0  0  0  0  0  0  0  0  0
    5.0508   -4.7029    2.5311 H   0  0  0  0  0  0  0  0  0  0  0  0
    6.1057   -5.9140    1.7906 H   0  0  0  0  0  0  0  0  0  0  0  0
   -6.6402    3.8372    2.7844 H   0  0  0  0  0  0  0  0  0  0  0  0
   -6.6571    2.0802    2.8400 H   0  0  0  0  0  0  0  0  0  0  0  0
   -7.5449    3.9194    0.5937 H   0  0  0  0  0  0  0  0  0  0  0  0
   -8.4710    2.6844    1.4308 H   0  0  0  0  0  0  0  0  0  0  0  0
  2  1  2  0  0  0  0
  3  2  1  0  0  0  0
  4  1  1  0  0  0  0
  5  4  1  0  0  0  0
  5  3  2  0  0  0  0
  6  1  1  0  0  0  0
  6 32  1  0  0  0  0
  7  6  1  0  0  0  0
  8  2  1  0  0  0  0
  9  7  1  0  0  0  0
  9 33  1  0  0  0  0
 10  9  1  0  0  0  0
 10 34  1  0  0  0  0
 11 10  1  0  0  0  0
 12  3  1  0  0  0  0
 13  7  2  0  0  0  0
 14 15  1  0  0  0  0
 15 21  2  0  0  0  0
 16  8  2  0  0  0  0
 17 11  2  0  0  0  0
 18 12  1  0  0  0  0
 18 35  1  0  0  0  0
 19 12  2  0  0  0  0
 19 36  1  0  0  0  0
 20 18  2  0  0  0  0
 20 15  1  0  0  0  0
 20 37  1  0  0  0  0
 21 19  1  0  0  0  0
 21 38  1  0  0  0  0
 22  8  1  0  0  0  0
 22 39  1  0  0  0  0
 22 40  1  0  0  0  0
 23 11  1  0  0  0  0
 23 41  1  0  0  0  0
 24  5  1  0  0  0  0
 24 42  1  0  0  0  0
 24 43  1  0  0  0  0
 24 44  1  0  0  0  0
 25  9  1  0  0  0  0
 25 45  1  0  0  0  0
 25 46  1  0  0  0  0
 26 10  1  0  0  0  0
 26 31  1  0  0  0  0
 26 47  1  0  0  0  0
 26 48  1  0  0  0  0
 27 14  1  0  0  0  0
 27 49  1  0  0  0  0
 27 50  1  0  0  0  0
 27 51  1  0  0  0  0
 28 14  1  0  0  0  0
 28 52  1  0  0  0  0
 28 53  1  0  0  0  0
 28 54  1  0  0  0  0
 29 14  1  0  0  0  0
 29 55  1  0  0  0  0
 29 56  1  0  0  0  0
 29 57  1  0  0  0  0
 30 25  1  0  0  0  0
 30 58  1  0  0  0  0
 30 59  1  0  0  0  0
 31 30  1  0  0  0  0
 31 60  1  0  0  0  0
 31 61  1  0  0  0  0
M  END
>  <Mol_ID>
8627

>  <Formula>
C24H30N2O4S

>  <MolWeight>
442.571

>  <Cat>
P2349

>  <Name>
WAY-324747

>  <Synonyms>
N/A

>  <Target>
formylpeptide receptor

>  <Form>
free base

>  <CAS>
495396-00-4

>  <URL>
N/A

$$$$
