WAY-388264-A
 OpenBabel08302521343D

 31 32  0  0  0  0  0  0  0  0999 V2000
   -0.4674    1.3404    0.0053 N   0  0  0  0  0  0  0  0  0  0  0  0
    0.7953    1.1040   -0.0580 C   0  0  0  0  0  0  0  0  0  0  0  0
    1.2820   -0.1604   -0.0986 N   0  0  0  0  0  0  0  0  0  0  0  0
    0.4655   -1.2314   -0.0387 C   0  0  0  0  0  0  0  0  0  0  0  0
   -0.8140   -1.1551    0.0264 N   0  0  0  0  0  0  0  0  0  0  0  0
   -1.3778    0.2010    0.1468 C   0  0  0  0  0  0  0  0  0  0  0  0
    1.7686    2.0733   -0.0974 N   0  0  0  0  0  0  0  0  0  0  0  0
    1.0949   -2.4307   -0.0530 N   0  0  0  0  0  0  0  0  0  0  0  0
   -1.9782    0.3082    1.5543 C   0  0  0  0  0  0  0  0  0  0  0  0
   -2.4792    0.3613   -0.9027 C   0  0  0  0  0  0  0  0  0  0  0  0
    1.5359    3.3938    0.3569 C   0  0  0  0  0  0  0  0  0  0  0  0
    0.7448    3.6403    1.4931 C   0  0  0  0  0  0  0  0  0  0  0  0
    0.5002    4.9397    1.9384 C   0  0  0  0  0  0  0  0  0  0  0  0
    1.0570    6.0132    1.2521 C   0  0  0  0  0  0  0  0  0  0  0  0
    1.8650    5.7931    0.1387 C   0  0  0  0  0  0  0  0  0  0  0  0
    2.1112    4.4868   -0.3020 C   0  0  0  0  0  0  0  0  0  0  0  0
    0.7103    7.7755    1.8371 Br  0  0  0  0  0  0  0  0  0  0  0  0
    2.2204   -0.2915    0.2441 H   0  0  0  0  0  0  0  0  0  0  0  0
    2.3564    2.0289   -0.9177 H   0  0  0  0  0  0  0  0  0  0  0  0
    0.4150   -3.1782   -0.1650 H   0  0  0  0  0  0  0  0  0  0  0  0
    1.8418   -2.5143   -0.7296 H   0  0  0  0  0  0  0  0  0  0  0  0
   -2.4450    1.2871    1.7143 H   0  0  0  0  0  0  0  0  0  0  0  0
   -2.7316   -0.4665    1.7289 H   0  0  0  0  0  0  0  0  0  0  0  0
   -1.1981    0.1906    2.3160 H   0  0  0  0  0  0  0  0  0  0  0  0
   -2.0700    0.2868   -1.9167 H   0  0  0  0  0  0  0  0  0  0  0  0
   -3.2479   -0.4122   -0.7973 H   0  0  0  0  0  0  0  0  0  0  0  0
   -2.9695    1.3390   -0.8189 H   0  0  0  0  0  0  0  0  0  0  0  0
    0.2997    2.8110    2.0383 H   0  0  0  0  0  0  0  0  0  0  0  0
   -0.1326    5.0934    2.8081 H   0  0  0  0  0  0  0  0  0  0  0  0
    2.2998    6.6313   -0.3988 H   0  0  0  0  0  0  0  0  0  0  0  0
    2.7351    4.3407   -1.1795 H   0  0  0  0  0  0  0  0  0  0  0  0
  1  2  2  0  0  0  0
  1  6  1  0  0  0  0
  2  3  1  0  0  0  0
  2  7  1  0  0  0  0
  3  4  1  0  0  0  0
  3 18  1  0  0  0  0
  4  5  2  0  0  0  0
  4  8  1  0  0  0  0
  5  6  1  0  0  0  0
  6  9  1  0  0  0  0
  6 10  1  0  0  0  0
  7 11  1  0  0  0  0
  7 19  1  0  0  0  0
  8 20  1  0  0  0  0
  8 21  1  0  0  0  0
  9 22  1  0  0  0  0
  9 23  1  0  0  0  0
  9 24  1  0  0  0  0
 10 25  1  0  0  0  0
 10 26  1  0  0  0  0
 10 27  1  0  0  0  0
 11 12  2  0  0  0  0
 11 16  1  0  0  0  0
 12 13  1  0  0  0  0
 12 28  1  0  0  0  0
 13 14  2  0  0  0  0
 13 29  1  0  0  0  0
 14 15  1  0  0  0  0
 14 17  1  0  0  0  0
 15 16  2  0  0  0  0
 15 30  1  0  0  0  0
 16 31  1  0  0  0  0
M  END
>  <Mol_ID>
6463

>  <Formula>
C11H14BrN5

>  <MolWeight>
296.16636

>  <Cat>
E2517

>  <Name>
WAY-388264-A

>  <Target>
Others

>  <Form>
free base

>  <CAS>
393129-91-4

>  <URL>
http://www.selleckchem.com/products/way-388264-a.html

$$$$
