WAY-114193
 OpenBabel08302521423D

 35 36  0  0  0  0  0  0  0  0999 V2000
   -0.7817    1.3674    0.0004 C   0  0  0  0  0  0  0  0  0  0  0  0
    0.5506    1.1509    0.0323 C   0  0  0  0  0  0  0  0  0  0  0  0
   -1.4549    2.5561    0.2007 N   0  0  0  0  0  0  0  0  0  0  0  0
   -1.7420   -0.0973   -0.2322 S   0  0  0  0  0  0  0  0  0  0  0  0
    1.5465    2.1681    0.4208 C   0  0  0  0  0  0  0  0  0  0  0  0
    0.8722   -0.2659   -0.2758 C   0  0  0  0  0  0  0  0  0  0  0  0
   -1.3608    3.7255   -0.5920 C   0  0  0  0  0  0  0  0  0  0  0  0
   -0.3083   -1.1900   -0.2072 C   0  0  0  0  0  0  0  0  0  0  0  0
    2.7747    1.8515   -0.0533 O   0  0  0  0  0  0  0  0  0  0  0  0
    1.3054    3.1406    1.1163 O   0  0  0  0  0  0  0  0  0  0  0  0
    1.9976   -0.6761   -0.5327 O   0  0  0  0  0  0  0  0  0  0  0  0
   -0.5533    3.8368   -1.7302 C   0  0  0  0  0  0  0  0  0  0  0  0
   -2.0516    4.8679   -0.1650 C   0  0  0  0  0  0  0  0  0  0  0  0
    3.8469    2.7399    0.3019 C   0  0  0  0  0  0  0  0  0  0  0  0
   -0.4197    5.0574   -2.4089 C   0  0  0  0  0  0  0  0  0  0  0  0
   -1.9171    6.0858   -0.8388 C   0  0  0  0  0  0  0  0  0  0  0  0
    4.3548    2.4670    1.7087 C   0  0  0  0  0  0  0  0  0  0  0  0
   -1.0827    6.1933   -1.9501 C   0  0  0  0  0  0  0  0  0  0  0  0
   -0.9969    7.4482   -2.4855 O   0  0  0  0  0  0  0  0  0  0  0  0
   -0.0233    7.6457   -3.5034 C   0  0  0  0  0  0  0  0  0  0  0  0
   -2.4198    2.3983    0.4842 H   0  0  0  0  0  0  0  0  0  0  0  0
   -0.2715   -1.7493    0.7313 H   0  0  0  0  0  0  0  0  0  0  0  0
   -0.3278   -1.8644   -1.0649 H   0  0  0  0  0  0  0  0  0  0  0  0
   -0.0164    2.9788   -2.1223 H   0  0  0  0  0  0  0  0  0  0  0  0
   -2.6802    4.8282    0.7209 H   0  0  0  0  0  0  0  0  0  0  0  0
    4.6528    2.5537   -0.4147 H   0  0  0  0  0  0  0  0  0  0  0  0
    3.5441    3.7863    0.1814 H   0  0  0  0  0  0  0  0  0  0  0  0
    0.2186    5.0850   -3.2857 H   0  0  0  0  0  0  0  0  0  0  0  0
   -2.4468    6.9625   -0.4752 H   0  0  0  0  0  0  0  0  0  0  0  0
    4.4128    1.3931    1.9107 H   0  0  0  0  0  0  0  0  0  0  0  0
    5.3449    2.9117    1.8520 H   0  0  0  0  0  0  0  0  0  0  0  0
    3.6829    2.9021    2.4555 H   0  0  0  0  0  0  0  0  0  0  0  0
    0.9717    7.3151   -3.1856 H   0  0  0  0  0  0  0  0  0  0  0  0
   -0.3287    7.1459   -4.4280 H   0  0  0  0  0  0  0  0  0  0  0  0
    0.0370    8.7196   -3.7052 H   0  0  0  0  0  0  0  0  0  0  0  0
  1  2  2  0  0  0  0
  1  3  1  0  0  0  0
  1  4  1  0  0  0  0
  2  5  1  0  0  0  0
  2  6  1  0  0  0  0
  3  7  1  0  0  0  0
  3 21  1  0  0  0  0
  4  8  1  0  0  0  0
  5  9  1  0  0  0  0
  5 10  2  0  0  0  0
  6 11  2  0  0  0  0
  6  8  1  0  0  0  0
  7 12  2  0  0  0  0
  7 13  1  0  0  0  0
  8 22  1  0  0  0  0
  8 23  1  0  0  0  0
  9 14  1  0  0  0  0
 12 15  1  0  0  0  0
 12 24  1  0  0  0  0
 13 16  2  0  0  0  0
 13 25  1  0  0  0  0
 14 17  1  0  0  0  0
 14 26  1  0  0  0  0
 14 27  1  0  0  0  0
 15 18  2  0  0  0  0
 15 28  1  0  0  0  0
 16 18  1  0  0  0  0
 16 29  1  0  0  0  0
 17 30  1  0  0  0  0
 17 31  1  0  0  0  0
 17 32  1  0  0  0  0
 18 19  1  0  0  0  0
 19 20  1  0  0  0  0
 20 33  1  0  0  0  0
 20 34  1  0  0  0  0
 20 35  1  0  0  0  0
M  END
>  <Mol_ID>
8563

>  <Formula>
C14H15NO4S

>  <MolWeight>
293.3382

>  <Cat>
P2045

>  <Name>
WAY-114193

>  <Synonyms>
N/A

>  <Target>
DHODH

>  <Form>
free base

>  <CAS>
853696-42-1

>  <URL>
N/A

$$$$
