WAY-323996
 OpenBabel08302521423D

 44 47  0  0  0  0  0  0  0  0999 V2000
   -0.4954    4.1353   -1.5088 N   0  0  0  0  0  0  0  0  0  0  0  0
    0.8445    3.8712   -1.2725 C   0  0  0  0  0  0  0  0  0  0  0  0
   -0.5261    4.4583   -2.8668 C   0  0  0  0  0  0  0  0  0  0  0  0
    1.5454    4.0514   -2.3706 N   0  0  0  0  0  0  0  0  0  0  0  0
    0.6892    4.4177   -3.3685 N   0  0  0  0  0  0  0  0  0  0  0  0
   -1.6711    4.1411   -0.7007 C   0  0  0  0  0  0  0  0  0  0  0  0
   -1.7549    4.7647   -3.4935 C   0  0  0  0  0  0  0  0  0  0  0  0
   -2.8943    4.7704   -2.7895 C   0  0  0  0  0  0  0  0  0  0  0  0
    1.5626    3.3071    0.1994 S   0  0  0  0  0  0  0  0  0  0  0  0
   -2.8821    4.4647   -1.3547 C   0  0  0  0  0  0  0  0  0  0  0  0
    4.0381    3.6017    1.2752 C   0  0  0  0  0  0  0  0  0  0  0  0
    4.0611    4.2842    2.2968 O   0  0  0  0  0  0  0  0  0  0  0  0
    3.2380    4.0029    0.0473 C   0  0  0  0  0  0  0  0  0  0  0  0
    4.7014    2.3915    1.1625 N   0  0  0  0  0  0  0  0  0  0  0  0
    5.2913    1.7745    2.3382 C   0  0  0  0  0  0  0  0  0  0  0  0
   -1.6879    3.8692    0.6700 C   0  0  0  0  0  0  0  0  0  0  0  0
    6.4932   -0.2122    3.2885 C   0  0  0  0  0  0  0  0  0  0  0  0
   -4.0815    4.5046   -0.6338 C   0  0  0  0  0  0  0  0  0  0  0  0
    5.9610    0.4330    2.0321 C   0  0  0  0  0  0  0  0  0  0  0  0
    5.6847   -1.0726    4.0448 C   0  0  0  0  0  0  0  0  0  0  0  0
    7.7798    0.0928    3.7525 C   0  0  0  0  0  0  0  0  0  0  0  0
   -2.8934    3.9132    1.3784 C   0  0  0  0  0  0  0  0  0  0  0  0
   -4.0857    4.2287    0.7312 C   0  0  0  0  0  0  0  0  0  0  0  0
    8.2410   -0.4373    4.9589 C   0  0  0  0  0  0  0  0  0  0  0  0
    6.1475   -1.5999    5.2520 C   0  0  0  0  0  0  0  0  0  0  0  0
    7.4222   -1.2762    5.7124 C   0  0  0  0  0  0  0  0  0  0  0  0
   -1.7508    4.9927   -4.5542 H   0  0  0  0  0  0  0  0  0  0  0  0
   -3.8387    5.0059   -3.2677 H   0  0  0  0  0  0  0  0  0  0  0  0
    3.7375    3.6387   -0.8559 H   0  0  0  0  0  0  0  0  0  0  0  0
    3.1929    5.0959    0.0018 H   0  0  0  0  0  0  0  0  0  0  0  0
    4.5074    1.8143    0.3529 H   0  0  0  0  0  0  0  0  0  0  0  0
    6.0108    2.4816    2.7690 H   0  0  0  0  0  0  0  0  0  0  0  0
    4.4890    1.6438    3.0752 H   0  0  0  0  0  0  0  0  0  0  0  0
   -0.8017    3.6292    1.2421 H   0  0  0  0  0  0  0  0  0  0  0  0
   -5.0185    4.7548   -1.1242 H   0  0  0  0  0  0  0  0  0  0  0  0
    5.2455   -0.2441    1.5471 H   0  0  0  0  0  0  0  0  0  0  0  0
    6.7747    0.5698    1.3088 H   0  0  0  0  0  0  0  0  0  0  0  0
    4.6828   -1.3276    3.7068 H   0  0  0  0  0  0  0  0  0  0  0  0
    8.4270    0.7573    3.1844 H   0  0  0  0  0  0  0  0  0  0  0  0
   -2.8986    3.7042    2.4464 H   0  0  0  0  0  0  0  0  0  0  0  0
   -5.0165    4.2648    1.2920 H   0  0  0  0  0  0  0  0  0  0  0  0
    9.2360   -0.1860    5.3169 H   0  0  0  0  0  0  0  0  0  0  0  0
    5.5090   -2.2547    5.8395 H   0  0  0  0  0  0  0  0  0  0  0  0
    7.7758   -1.6737    6.6601 H   0  0  0  0  0  0  0  0  0  0  0  0
  2  1  1  0  0  0  0
  3  1  1  0  0  0  0
  4  2  2  0  0  0  0
  4  5  1  0  0  0  0
  5  3  2  0  0  0  0
  6  1  1  0  0  0  0
  7  3  1  0  0  0  0
  7  8  2  0  0  0  0
  7 27  1  0  0  0  0
  8 10  1  0  0  0  0
  8 28  1  0  0  0  0
  9  2  1  0  0  0  0
 10  6  2  0  0  0  0
 11 13  1  0  0  0  0
 12 11  2  0  0  0  0
 13  9  1  0  0  0  0
 13 29  1  0  0  0  0
 13 30  1  0  0  0  0
 14 11  1  0  0  0  0
 14 31  1  0  0  0  0
 15 14  1  0  0  0  0
 15 32  1  0  0  0  0
 15 33  1  0  0  0  0
 16  6  1  0  0  0  0
 16 34  1  0  0  0  0
 17 19  1  0  0  0  0
 18 10  1  0  0  0  0
 18 23  2  0  0  0  0
 18 35  1  0  0  0  0
 19 15  1  0  0  0  0
 19 36  1  0  0  0  0
 19 37  1  0  0  0  0
 20 17  2  0  0  0  0
 20 38  1  0  0  0  0
 21 17  1  0  0  0  0
 21 39  1  0  0  0  0
 22 16  2  0  0  0  0
 22 40  1  0  0  0  0
 23 22  1  0  0  0  0
 23 41  1  0  0  0  0
 24 21  2  0  0  0  0
 24 42  1  0  0  0  0
 25 20  1  0  0  0  0
 25 26  2  0  0  0  0
 25 43  1  0  0  0  0
 26 24  1  0  0  0  0
 26 44  1  0  0  0  0
M  END
>  <Mol_ID>
8594

>  <Formula>
C20H18N4OS

>  <MolWeight>
362.44812

>  <Cat>
P2287

>  <Name>
WAY-323996

>  <Synonyms>
N/A

>  <Target>
Lipoxygenase

>  <Form>
free base

>  <CAS>
671199-17-0

>  <URL>
N/A

$$$$
