WAY-658542
 OpenBabel08302521433D

 45 47  0  0  0  0  0  0  0  0999 V2000
    1.1131   -0.0711   -0.0946 S   0  0  0  0  0  0  0  0  0  0  0  0
    0.1774    1.3090    0.2657 N   0  0  0  0  0  0  0  0  0  0  0  0
    0.0253   -1.4427    0.2957 C   0  0  0  0  0  0  0  0  0  0  0  0
    0.6896    3.8802   -1.2122 N   0  0  0  0  0  0  0  0  0  0  0  0
    2.2144   -0.1330    0.8424 O   0  0  0  0  0  0  0  0  0  0  0  0
    1.3585   -0.1169   -1.5229 O   0  0  0  0  0  0  0  0  0  0  0  0
   -0.7116    1.7959   -0.8272 C   0  0  0  0  0  0  0  0  0  0  0  0
    0.8750    2.4561    0.9346 C   0  0  0  0  0  0  0  0  0  0  0  0
    1.5161    3.4533   -0.0605 C   0  0  0  0  0  0  0  0  0  0  0  0
    0.0756    2.6790   -1.8245 C   0  0  0  0  0  0  0  0  0  0  0  0
   -0.8166   -1.9819   -0.6876 C   0  0  0  0  0  0  0  0  0  0  0  0
    0.1861   -2.1091    1.5153 C   0  0  0  0  0  0  0  0  0  0  0  0
   -0.3396    4.8923   -0.9150 C   0  0  0  0  0  0  0  0  0  0  0  0
   -1.3199   -3.8475    0.7703 C   0  0  0  0  0  0  0  0  0  0  0  0
   -0.4851   -3.3115    1.7498 C   0  0  0  0  0  0  0  0  0  0  0  0
   -1.4960   -3.1781   -0.4421 C   0  0  0  0  0  0  0  0  0  0  0  0
    0.2106    6.2780   -0.5397 C   0  0  0  0  0  0  0  0  0  0  0  0
   -0.9012    7.2918   -0.3769 C   0  0  0  0  0  0  0  0  0  0  0  0
   -1.6063    7.3837    0.8321 C   0  0  0  0  0  0  0  0  0  0  0  0
   -1.2524    8.1475   -1.4301 C   0  0  0  0  0  0  0  0  0  0  0  0
   -2.2670    9.0930   -1.2645 C   0  0  0  0  0  0  0  0  0  0  0  0
   -2.6201    8.3288    0.9954 C   0  0  0  0  0  0  0  0  0  0  0  0
   -2.9459    9.1879   -0.0513 C   0  0  0  0  0  0  0  0  0  0  0  0
   -1.1852    0.9587   -1.3448 H   0  0  0  0  0  0  0  0  0  0  0  0
   -1.5297    2.3652   -0.3703 H   0  0  0  0  0  0  0  0  0  0  0  0
    0.1339    2.9783    1.5517 H   0  0  0  0  0  0  0  0  0  0  0  0
    1.6360    2.0942    1.6344 H   0  0  0  0  0  0  0  0  0  0  0  0
    2.4199    2.9838   -0.4709 H   0  0  0  0  0  0  0  0  0  0  0  0
    1.8840    4.3239    0.4950 H   0  0  0  0  0  0  0  0  0  0  0  0
    0.8860    2.1052   -2.2863 H   0  0  0  0  0  0  0  0  0  0  0  0
   -0.5763    2.9680   -2.6565 H   0  0  0  0  0  0  0  0  0  0  0  0
   -0.9189   -1.5008   -1.6586 H   0  0  0  0  0  0  0  0  0  0  0  0
    0.8679   -1.7232    2.2709 H   0  0  0  0  0  0  0  0  0  0  0  0
   -0.9417    5.0318   -1.8246 H   0  0  0  0  0  0  0  0  0  0  0  0
   -1.0297    4.5447   -0.1384 H   0  0  0  0  0  0  0  0  0  0  0  0
   -1.8158   -4.8009    0.9431 H   0  0  0  0  0  0  0  0  0  0  0  0
   -0.3298   -3.8474    2.6834 H   0  0  0  0  0  0  0  0  0  0  0  0
   -2.1355   -3.6122   -1.2077 H   0  0  0  0  0  0  0  0  0  0  0  0
    0.7755    6.2346    0.3982 H   0  0  0  0  0  0  0  0  0  0  0  0
    0.9137    6.6292   -1.3060 H   0  0  0  0  0  0  0  0  0  0  0  0
   -1.3657    6.7198    1.6589 H   0  0  0  0  0  0  0  0  0  0  0  0
   -0.7327    8.0888   -2.3843 H   0  0  0  0  0  0  0  0  0  0  0  0
   -2.5229    9.7627   -2.0826 H   0  0  0  0  0  0  0  0  0  0  0  0
   -3.1531    8.3989    1.9400 H   0  0  0  0  0  0  0  0  0  0  0  0
   -3.7242    9.9354    0.0798 H   0  0  0  0  0  0  0  0  0  0  0  0
  2  1  1  0  0  0  0
  3  1  1  0  0  0  0
  4  9  1  0  0  0  0
  4 10  1  0  0  0  0
  5  1  2  0  0  0  0
  6  1  2  0  0  0  0
  7  2  1  0  0  0  0
  7 24  1  0  0  0  0
  7 25  1  0  0  0  0
  8  2  1  0  0  0  0
  8 26  1  0  0  0  0
  8 27  1  0  0  0  0
  9  8  1  0  0  0  0
  9 28  1  0  0  0  0
  9 29  1  0  0  0  0
 10  7  1  0  0  0  0
 10 30  1  0  0  0  0
 10 31  1  0  0  0  0
 11  3  2  0  0  0  0
 11 32  1  0  0  0  0
 12  3  1  0  0  0  0
 12 33  1  0  0  0  0
 13  4  1  0  0  0  0
 13 34  1  0  0  0  0
 13 35  1  0  0  0  0
 14 15  1  0  0  0  0
 14 16  2  0  0  0  0
 14 36  1  0  0  0  0
 15 12  2  0  0  0  0
 15 37  1  0  0  0  0
 16 11  1  0  0  0  0
 16 38  1  0  0  0  0
 17 13  1  0  0  0  0
 17 39  1  0  0  0  0
 17 40  1  0  0  0  0
 18 17  1  0  0  0  0
 19 18  2  0  0  0  0
 19 41  1  0  0  0  0
 20 18  1  0  0  0  0
 20 42  1  0  0  0  0
 21 20  2  0  0  0  0
 21 43  1  0  0  0  0
 22 19  1  0  0  0  0
 22 44  1  0  0  0  0
 23 21  1  0  0  0  0
 23 22  2  0  0  0  0
 23 45  1  0  0  0  0
M  END
>  <Mol_ID>
8825

>  <Formula>
C18H21ClN2O2S

>  <MolWeight>
364.88954

>  <Cat>
P3171

>  <Name>
WAY-658542

>  <Synonyms>
N/A

>  <Target>
gamma-secretase,5-HT2A

>  <Form>
free base

>  <CAS>
867327-33-1

>  <URL>
N/A

$$$$
