WAY-327530
 OpenBabel08302521443D

 44 47  0  0  0  0  0  0  0  0999 V2000
   -1.5631   -1.2104   -0.0659 C   0  0  0  0  0  0  0  0  0  0  0  0
   -0.2621   -0.7334   -0.0937 N   0  0  0  0  0  0  0  0  0  0  0  0
   -2.3482   -0.0587   -0.0224 C   0  0  0  0  0  0  0  0  0  0  0  0
   -1.5674    1.0855    0.0015 N   0  0  0  0  0  0  0  0  0  0  0  0
   -0.3344    0.6342   -0.0133 C   0  0  0  0  0  0  0  0  0  0  0  0
   -3.8056    0.0109   -0.0075 C   0  0  0  0  0  0  0  0  0  0  0  0
   -1.8861   -2.5291   -0.1895 N   0  0  0  0  0  0  0  0  0  0  0  0
    2.0601    0.8093   -0.0396 N   0  0  0  0  0  0  0  0  0  0  0  0
   -4.4630    1.0872   -0.6356 C   0  0  0  0  0  0  0  0  0  0  0  0
    0.9837   -1.3400   -0.2017 C   0  0  0  0  0  0  0  0  0  0  0  0
   -5.8577    1.1587   -0.6424 C   0  0  0  0  0  0  0  0  0  0  0  0
    0.8886    1.3862    0.0151 C   0  0  0  0  0  0  0  0  0  0  0  0
    2.0833   -0.5711   -0.1536 C   0  0  0  0  0  0  0  0  0  0  0  0
   -6.5890    0.1518   -0.0031 C   0  0  0  0  0  0  0  0  0  0  0  0
   -4.5696   -0.9648    0.6543 C   0  0  0  0  0  0  0  0  0  0  0  0
   -5.9639   -0.9060    0.6419 C   0  0  0  0  0  0  0  0  0  0  0  0
   -1.3658   -3.6227    0.5457 C   0  0  0  0  0  0  0  0  0  0  0  0
   -6.6208    2.1359   -1.2273 O   0  0  0  0  0  0  0  0  0  0  0  0
   -0.2686   -5.8999    1.8248 C   0  0  0  0  0  0  0  0  0  0  0  0
   -7.9550    0.1844    0.0057 O   0  0  0  0  0  0  0  0  0  0  0  0
   -0.5253   -3.4911    1.6569 C   0  0  0  0  0  0  0  0  0  0  0  0
   -1.6359   -4.9177    0.0789 C   0  0  0  0  0  0  0  0  0  0  0  0
   -1.1012   -6.0440    0.7130 C   0  0  0  0  0  0  0  0  0  0  0  0
    0.0296   -4.6135    2.2814 C   0  0  0  0  0  0  0  0  0  0  0  0
    0.2871   -7.0954    2.5391 C   0  0  0  0  0  0  0  0  0  0  0  0
   -5.9196    3.1796   -1.8912 C   0  0  0  0  0  0  0  0  0  0  0  0
   -2.8226   -2.7470   -0.5287 H   0  0  0  0  0  0  0  0  0  0  0  0
   -3.8545    1.8503   -1.1115 H   0  0  0  0  0  0  0  0  0  0  0  0
    1.0236   -2.4149   -0.3108 H   0  0  0  0  0  0  0  0  0  0  0  0
    0.8320    2.4840    0.0881 H   0  0  0  0  0  0  0  0  0  0  0  0
    3.0682   -1.0271   -0.2089 H   0  0  0  0  0  0  0  0  0  0  0  0
   -4.0930   -1.7770    1.1968 H   0  0  0  0  0  0  0  0  0  0  0  0
   -6.5529   -1.6617    1.1496 H   0  0  0  0  0  0  0  0  0  0  0  0
   -8.1890    1.0007   -0.4781 H   0  0  0  0  0  0  0  0  0  0  0  0
   -0.2903   -2.5132    2.0675 H   0  0  0  0  0  0  0  0  0  0  0  0
   -2.2639   -5.0616   -0.7973 H   0  0  0  0  0  0  0  0  0  0  0  0
   -1.3409   -7.0322    0.3270 H   0  0  0  0  0  0  0  0  0  0  0  0
    0.6913   -4.4744    3.1340 H   0  0  0  0  0  0  0  0  0  0  0  0
    1.3807   -7.0929    2.4971 H   0  0  0  0  0  0  0  0  0  0  0  0
   -0.0334   -7.0824    3.5861 H   0  0  0  0  0  0  0  0  0  0  0  0
   -0.0686   -8.0303    2.0941 H   0  0  0  0  0  0  0  0  0  0  0  0
   -5.3148    3.7590   -1.1853 H   0  0  0  0  0  0  0  0  0  0  0  0
   -5.3080    2.7880   -2.7109 H   0  0  0  0  0  0  0  0  0  0  0  0
   -6.6624    3.8551   -2.3266 H   0  0  0  0  0  0  0  0  0  0  0  0
  2  1  1  0  0  0  0
  3  1  2  0  0  0  0
  4  3  1  0  0  0  0
  4  5  2  0  0  0  0
  5  2  1  0  0  0  0
  6  3  1  0  0  0  0
  7  1  1  0  0  0  0
  7 27  1  0  0  0  0
  8 13  1  0  0  0  0
  9  6  2  0  0  0  0
  9 28  1  0  0  0  0
 10  2  1  0  0  0  0
 10 29  1  0  0  0  0
 11  9  1  0  0  0  0
 11 14  2  0  0  0  0
 12  5  1  0  0  0  0
 12  8  2  0  0  0  0
 12 30  1  0  0  0  0
 13 10  2  0  0  0  0
 13 31  1  0  0  0  0
 14 16  1  0  0  0  0
 15  6  1  0  0  0  0
 15 32  1  0  0  0  0
 16 15  2  0  0  0  0
 16 33  1  0  0  0  0
 17  7  1  0  0  0  0
 18 11  1  0  0  0  0
 19 23  2  0  0  0  0
 20 14  1  0  0  0  0
 20 34  1  0  0  0  0
 21 17  1  0  0  0  0
 21 35  1  0  0  0  0
 22 17  2  0  0  0  0
 22 36  1  0  0  0  0
 23 22  1  0  0  0  0
 23 37  1  0  0  0  0
 24 21  2  0  0  0  0
 24 19  1  0  0  0  0
 24 38  1  0  0  0  0
 25 19  1  0  0  0  0
 25 39  1  0  0  0  0
 25 40  1  0  0  0  0
 25 41  1  0  0  0  0
 26 18  1  0  0  0  0
 26 42  1  0  0  0  0
 26 43  1  0  0  0  0
 26 44  1  0  0  0  0
M  END
>  <Mol_ID>
8982

>  <Formula>
C20H18N4O2

>  <MolWeight>
346.38252

>  <Cat>
P2545

>  <Name>
WAY-327530

>  <Synonyms>
N/A

>  <Target>
cannabinoid CB2 receptor

>  <Form>
free base

>  <CAS>
879595-66-1

>  <URL>
N/A

$$$$
