WAY-243251
 OpenBabel08302521413D

 41 42  0  0  0  0  0  0  0  0999 V2000
   -1.2217    0.0118    0.8426 N   0  0  0  0  0  0  0  0  0  0  0  0
   -0.7335   -1.2051    0.1801 C   0  0  0  0  0  0  0  0  0  0  0  0
   -0.5296    1.2561    0.4878 C   0  0  0  0  0  0  0  0  0  0  0  0
   -2.5279    0.1451    1.3216 C   0  0  0  0  0  0  0  0  0  0  0  0
    0.7966   -1.3064    0.1687 C   0  0  0  0  0  0  0  0  0  0  0  0
    0.9964    1.1252    0.3973 C   0  0  0  0  0  0  0  0  0  0  0  0
   -3.4531   -1.0812    1.2672 C   0  0  0  0  0  0  0  0  0  0  0  0
   -2.9583    1.2234    1.7376 O   0  0  0  0  0  0  0  0  0  0  0  0
    1.4344   -0.0729   -0.3833 N   0  0  0  0  0  0  0  0  0  0  0  0
   -3.2481   -1.9718    2.3559 O   0  0  0  0  0  0  0  0  0  0  0  0
    1.4624    0.0481   -2.0775 S   0  0  0  0  0  0  0  0  0  0  0  0
   -3.9821   -3.1308    2.3383 C   0  0  0  0  0  0  0  0  0  0  0  0
    2.8650    1.1316   -2.3508 C   0  0  0  0  0  0  0  0  0  0  0  0
    1.7984   -1.2593   -2.5989 O   0  0  0  0  0  0  0  0  0  0  0  0
    0.2540    0.7253   -2.4935 O   0  0  0  0  0  0  0  0  0  0  0  0
   -4.8302   -3.5440    1.3066 C   0  0  0  0  0  0  0  0  0  0  0  0
   -3.8219   -3.9568    3.4560 C   0  0  0  0  0  0  0  0  0  0  0  0
    3.2027    1.2529   -3.8260 C   0  0  0  0  0  0  0  0  0  0  0  0
   -5.4814   -4.7804    1.3760 C   0  0  0  0  0  0  0  0  0  0  0  0
   -4.4773   -5.1908    3.5327 C   0  0  0  0  0  0  0  0  0  0  0  0
   -5.2975   -5.6009    2.4852 C   0  0  0  0  0  0  0  0  0  0  0  0
   -6.1598   -7.2809    2.5599 Br  0  0  0  0  0  0  0  0  0  0  0  0
   -1.1348   -2.0832    0.6932 H   0  0  0  0  0  0  0  0  0  0  0  0
   -1.1319   -1.2015   -0.8411 H   0  0  0  0  0  0  0  0  0  0  0  0
   -0.9508    1.5869   -0.4674 H   0  0  0  0  0  0  0  0  0  0  0  0
   -0.7738    2.0396    1.2152 H   0  0  0  0  0  0  0  0  0  0  0  0
    1.1644   -1.4371    1.1944 H   0  0  0  0  0  0  0  0  0  0  0  0
    1.1184   -2.1947   -0.3826 H   0  0  0  0  0  0  0  0  0  0  0  0
    1.4109    1.0184    1.4100 H   0  0  0  0  0  0  0  0  0  0  0  0
    1.4374    2.0379   -0.0131 H   0  0  0  0  0  0  0  0  0  0  0  0
   -4.4847   -0.7060    1.2842 H   0  0  0  0  0  0  0  0  0  0  0  0
   -3.2925   -1.5809    0.3063 H   0  0  0  0  0  0  0  0  0  0  0  0
    2.6080    2.1135   -1.9467 H   0  0  0  0  0  0  0  0  0  0  0  0
    3.7186    0.7209   -1.8030 H   0  0  0  0  0  0  0  0  0  0  0  0
   -5.0067   -2.9372    0.4250 H   0  0  0  0  0  0  0  0  0  0  0  0
   -3.1806   -3.6408    4.2757 H   0  0  0  0  0  0  0  0  0  0  0  0
    2.3057    1.3306   -4.4480 H   0  0  0  0  0  0  0  0  0  0  0  0
    3.8205    2.1396   -4.0017 H   0  0  0  0  0  0  0  0  0  0  0  0
    3.7709    0.3803   -4.1654 H   0  0  0  0  0  0  0  0  0  0  0  0
   -6.1236   -5.0920    0.5561 H   0  0  0  0  0  0  0  0  0  0  0  0
   -4.3362   -5.8221    4.4061 H   0  0  0  0  0  0  0  0  0  0  0  0
  1  2  1  0  0  0  0
  1  3  1  0  0  0  0
  1  4  1  0  0  0  0
  2  5  1  0  0  0  0
  2 23  1  0  0  0  0
  2 24  1  0  0  0  0
  3  6  1  0  0  0  0
  3 25  1  0  0  0  0
  3 26  1  0  0  0  0
  4  7  1  0  0  0  0
  4  8  2  0  0  0  0
  5  9  1  0  0  0  0
  5 27  1  0  0  0  0
  5 28  1  0  0  0  0
  6  9  1  0  0  0  0
  6 29  1  0  0  0  0
  6 30  1  0  0  0  0
  7 10  1  0  0  0  0
  7 31  1  0  0  0  0
  7 32  1  0  0  0  0
  9 11  1  0  0  0  0
 10 12  1  0  0  0  0
 11 13  1  0  0  0  0
 11 14  2  0  0  0  0
 11 15  2  0  0  0  0
 12 16  2  0  0  0  0
 12 17  1  0  0  0  0
 13 18  1  0  0  0  0
 13 33  1  0  0  0  0
 13 34  1  0  0  0  0
 16 19  1  0  0  0  0
 16 35  1  0  0  0  0
 17 20  2  0  0  0  0
 17 36  1  0  0  0  0
 18 37  1  0  0  0  0
 18 38  1  0  0  0  0
 18 39  1  0  0  0  0
 19 21  2  0  0  0  0
 19 40  1  0  0  0  0
 20 21  1  0  0  0  0
 20 41  1  0  0  0  0
 21 22  1  0  0  0  0
M  END
>  <Mol_ID>
8382

>  <Formula>
C14H19BrN2O4S

>  <MolWeight>
391.28066

>  <Cat>
P2074

>  <Name>
WAY-243251

>  <Synonyms>
N/A

>  <Target>
others

>  <Form>
free base

>  <CAS>
428839-95-6

>  <URL>
N/A

$$$$
