WAY-311103
 OpenBabel08302521393D

 49 52  0  0  0  0  0  0  0  0999 V2000
    0.7509    0.4405    0.2791 C   0  0  0  0  0  0  0  0  0  0  0  0
    1.3338   -0.7856    0.0887 C   0  0  0  0  0  0  0  0  0  0  0  0
   -0.6699    0.3951    0.1442 C   0  0  0  0  0  0  0  0  0  0  0  0
    1.6191    1.5699    0.5229 C   0  0  0  0  0  0  0  0  0  0  0  0
    2.6512   -1.0198   -0.0325 N   0  0  0  0  0  0  0  0  0  0  0  0
    0.1717   -2.0250   -0.0613 S   0  0  0  0  0  0  0  0  0  0  0  0
   -1.1132   -0.9103    0.0326 C   0  0  0  0  0  0  0  0  0  0  0  0
   -1.6169    1.5637    0.1453 C   0  0  0  0  0  0  0  0  0  0  0  0
    3.0032    1.2699    0.5909 N   0  0  0  0  0  0  0  0  0  0  0  0
    1.1270    2.6932    0.6206 O   0  0  0  0  0  0  0  0  0  0  0  0
    3.4461   -0.0102    0.1697 C   0  0  0  0  0  0  0  0  0  0  0  0
   -2.5487   -1.3262   -0.0554 C   0  0  0  0  0  0  0  0  0  0  0  0
   -3.0276    1.1538   -0.3069 C   0  0  0  0  0  0  0  0  0  0  0  0
    3.8265    2.3689    1.0740 C   0  0  0  0  0  0  0  0  0  0  0  0
    5.1352   -0.3234   -0.1847 S   0  0  0  0  0  0  0  0  0  0  0  0
   -3.4651   -0.1611    0.3530 C   0  0  0  0  0  0  0  0  0  0  0  0
    3.3360    3.1439    2.1492 C   0  0  0  0  0  0  0  0  0  0  0  0
    5.0037    2.8176    0.4678 C   0  0  0  0  0  0  0  0  0  0  0  0
    5.3534   -2.0907    0.1482 C   0  0  0  0  0  0  0  0  0  0  0  0
    3.9061    4.3640    2.5102 C   0  0  0  0  0  0  0  0  0  0  0  0
    5.6025    4.0396    0.8505 C   0  0  0  0  0  0  0  0  0  0  0  0
    4.9868   -3.0598   -0.9681 C   0  0  0  0  0  0  0  0  0  0  0  0
    5.0309    4.8368    1.8395 C   0  0  0  0  0  0  0  0  0  0  0  0
    3.7174   -3.0554   -1.4482 N   0  0  0  0  0  0  0  0  0  0  0  0
    5.7705   -3.9222   -1.3682 O   0  0  0  0  0  0  0  0  0  0  0  0
    5.4172    6.0859    2.2243 O   0  0  0  0  0  0  0  0  0  0  0  0
    6.6994    6.5728    1.8423 C   0  0  0  0  0  0  0  0  0  0  0  0
    7.7736    5.9593    2.7208 C   0  0  0  0  0  0  0  0  0  0  0  0
   -1.2470    2.3465   -0.5276 H   0  0  0  0  0  0  0  0  0  0  0  0
   -1.6613    1.9867    1.1557 H   0  0  0  0  0  0  0  0  0  0  0  0
   -2.7766   -1.6254   -1.0878 H   0  0  0  0  0  0  0  0  0  0  0  0
   -2.7470   -2.1881    0.5931 H   0  0  0  0  0  0  0  0  0  0  0  0
   -3.0419    1.0286   -1.3978 H   0  0  0  0  0  0  0  0  0  0  0  0
   -3.7350    1.9544   -0.0683 H   0  0  0  0  0  0  0  0  0  0  0  0
   -4.5004   -0.3933    0.0790 H   0  0  0  0  0  0  0  0  0  0  0  0
   -3.4410   -0.0368    1.4427 H   0  0  0  0  0  0  0  0  0  0  0  0
    2.4467    2.8407    2.7003 H   0  0  0  0  0  0  0  0  0  0  0  0
    5.4474    2.3068   -0.3789 H   0  0  0  0  0  0  0  0  0  0  0  0
    6.4324   -2.2153    0.2959 H   0  0  0  0  0  0  0  0  0  0  0  0
    4.8635   -2.3905    1.0783 H   0  0  0  0  0  0  0  0  0  0  0  0
    3.4485    4.9702    3.2846 H   0  0  0  0  0  0  0  0  0  0  0  0
    6.4856    4.3614    0.3085 H   0  0  0  0  0  0  0  0  0  0  0  0
    3.4366   -3.7890   -2.0836 H   0  0  0  0  0  0  0  0  0  0  0  0
    2.9994   -2.4623   -1.0405 H   0  0  0  0  0  0  0  0  0  0  0  0
    6.8972    6.4463    0.7730 H   0  0  0  0  0  0  0  0  0  0  0  0
    6.6784    7.6547    2.0230 H   0  0  0  0  0  0  0  0  0  0  0  0
    7.9109    4.9000    2.4883 H   0  0  0  0  0  0  0  0  0  0  0  0
    8.7299    6.4709    2.5842 H   0  0  0  0  0  0  0  0  0  0  0  0
    7.4848    6.0190    3.7768 H   0  0  0  0  0  0  0  0  0  0  0  0
  1  2  2  0  0  0  0
  1  3  1  0  0  0  0
  1  4  1  0  0  0  0
  2  5  1  0  0  0  0
  2  6  1  0  0  0  0
  3  7  2  0  0  0  0
  3  8  1  0  0  0  0
  4  9  1  0  0  0  0
  4 10  2  0  0  0  0
  5 11  2  0  0  0  0
  6  7  1  0  0  0  0
  7 12  1  0  0  0  0
  8 13  1  0  0  0  0
  8 29  1  0  0  0  0
  8 30  1  0  0  0  0
  9 14  1  0  0  0  0
  9 11  1  0  0  0  0
 11 15  1  0  0  0  0
 12 16  1  0  0  0  0
 12 31  1  0  0  0  0
 12 32  1  0  0  0  0
 13 16  1  0  0  0  0
 13 33  1  0  0  0  0
 13 34  1  0  0  0  0
 14 17  2  0  0  0  0
 14 18  1  0  0  0  0
 15 19  1  0  0  0  0
 16 35  1  0  0  0  0
 16 36  1  0  0  0  0
 17 20  1  0  0  0  0
 17 37  1  0  0  0  0
 18 21  2  0  0  0  0
 18 38  1  0  0  0  0
 19 22  1  0  0  0  0
 19 39  1  0  0  0  0
 19 40  1  0  0  0  0
 20 23  2  0  0  0  0
 20 41  1  0  0  0  0
 21 23  1  0  0  0  0
 21 42  1  0  0  0  0
 22 24  1  0  0  0  0
 22 25  2  0  0  0  0
 23 26  1  0  0  0  0
 24 43  1  0  0  0  0
 24 44  1  0  0  0  0
 26 27  1  0  0  0  0
 27 28  1  0  0  0  0
 27 45  1  0  0  0  0
 27 46  1  0  0  0  0
 28 47  1  0  0  0  0
 28 48  1  0  0  0  0
 28 49  1  0  0  0  0
M  END
>  <Mol_ID>
8109

>  <Formula>
C20H21N3O3S2

>  <MolWeight>
415.52904

>  <Cat>
P2193

>  <Name>
WAY-311103

>  <Synonyms>
N/A

>  <Target>
Bcl-2

>  <Form>
free base

>  <CAS>
685550-37-2

>  <URL>
N/A

$$$$
