WAY-323978
 OpenBabel08302521423D

 48 51  0  0  0  0  0  0  0  0999 V2000
    1.6366   -1.0019   -0.0812 N   0  0  0  0  0  0  0  0  0  0  0  0
    2.3694    0.1820   -0.1354 C   0  0  0  0  0  0  0  0  0  0  0  0
    1.5462    1.2150   -0.0900 N   0  0  0  0  0  0  0  0  0  0  0  0
    0.2944   -0.6738   -0.0339 C   0  0  0  0  0  0  0  0  0  0  0  0
    0.2757    0.7141   -0.0457 C   0  0  0  0  0  0  0  0  0  0  0  0
    3.8400    0.3472   -0.1724 C   0  0  0  0  0  0  0  0  0  0  0  0
    2.1234   -2.3716    0.0344 C   0  0  0  0  0  0  0  0  0  0  0  0
    4.4018    1.5032    0.4027 C   0  0  0  0  0  0  0  0  0  0  0  0
    5.7864    1.7179    0.4088 C   0  0  0  0  0  0  0  0  0  0  0  0
    3.5788   -4.7124   -2.6040 C   0  0  0  0  0  0  0  0  0  0  0  0
    6.6154    0.7470   -0.1614 C   0  0  0  0  0  0  0  0  0  0  0  0
    2.8736   -4.3106   -3.7415 C   0  0  0  0  0  0  0  0  0  0  0  0
    2.3210   -3.0780   -1.2963 C   0  0  0  0  0  0  0  0  0  0  0  0
    3.2815   -4.1096   -1.3795 C   0  0  0  0  0  0  0  0  0  0  0  0
    4.6965   -0.5591   -0.8046 C   0  0  0  0  0  0  0  0  0  0  0  0
    6.0804   -0.3797   -0.7768 C   0  0  0  0  0  0  0  0  0  0  0  0
    1.8686   -3.3588   -3.6717 C   0  0  0  0  0  0  0  0  0  0  0  0
    1.5898   -2.7461   -2.4513 C   0  0  0  0  0  0  0  0  0  0  0  0
    6.4182    2.8186    0.9235 O   0  0  0  0  0  0  0  0  0  0  0  0
    4.5369   -5.6663   -2.8280 O   0  0  0  0  0  0  0  0  0  0  0  0
    7.9743    0.9114   -0.1184 O   0  0  0  0  0  0  0  0  0  0  0  0
    3.1759   -4.8380   -4.9669 O   0  0  0  0  0  0  0  0  0  0  0  0
   -0.8797   -1.4405    0.0039 C   0  0  0  0  0  0  0  0  0  0  0  0
   -0.9500    1.3897   -0.0068 C   0  0  0  0  0  0  0  0  0  0  0  0
    5.2669   -6.1246   -1.6966 C   0  0  0  0  0  0  0  0  0  0  0  0
    5.6173    3.8197    1.5365 C   0  0  0  0  0  0  0  0  0  0  0  0
   -2.0929   -0.7527    0.0284 C   0  0  0  0  0  0  0  0  0  0  0  0
   -2.1324    0.6409    0.0255 C   0  0  0  0  0  0  0  0  0  0  0  0
    3.0624   -2.3337    0.6000 H   0  0  0  0  0  0  0  0  0  0  0  0
    1.4131   -2.9376    0.6452 H   0  0  0  0  0  0  0  0  0  0  0  0
    3.7259    2.2348    0.8364 H   0  0  0  0  0  0  0  0  0  0  0  0
    3.8098   -4.3987   -0.4757 H   0  0  0  0  0  0  0  0  0  0  0  0
    4.3135   -1.4078   -1.3582 H   0  0  0  0  0  0  0  0  0  0  0  0
    6.7187   -1.1117   -1.2627 H   0  0  0  0  0  0  0  0  0  0  0  0
    1.3227   -3.0746   -4.5663 H   0  0  0  0  0  0  0  0  0  0  0  0
    0.8136   -1.9845   -2.4355 H   0  0  0  0  0  0  0  0  0  0  0  0
    8.4029    0.1063   -0.4423 H   0  0  0  0  0  0  0  0  0  0  0  0
    3.9469   -5.4168   -4.8123 H   0  0  0  0  0  0  0  0  0  0  0  0
   -0.8595   -2.5267   -0.0029 H   0  0  0  0  0  0  0  0  0  0  0  0
   -0.9716    2.4746   -0.0117 H   0  0  0  0  0  0  0  0  0  0  0  0
    5.7870   -5.3012   -1.1965 H   0  0  0  0  0  0  0  0  0  0  0  0
    4.6121   -6.6608   -1.0021 H   0  0  0  0  0  0  0  0  0  0  0  0
    6.0278   -6.8260   -2.0523 H   0  0  0  0  0  0  0  0  0  0  0  0
    4.8406    4.1933    0.8613 H   0  0  0  0  0  0  0  0  0  0  0  0
    5.1872    3.4481    2.4698 H   0  0  0  0  0  0  0  0  0  0  0  0
    6.2701    4.6636    1.7800 H   0  0  0  0  0  0  0  0  0  0  0  0
   -3.0261   -1.3135    0.0454 H   0  0  0  0  0  0  0  0  0  0  0  0
   -3.0896    1.1566    0.0485 H   0  0  0  0  0  0  0  0  0  0  0  0
  2  1  1  0  0  0  0
  3  2  2  0  0  0  0
  3  5  1  0  0  0  0
  4  1  1  0  0  0  0
  5  4  2  0  0  0  0
  6  2  1  0  0  0  0
  7  1  1  0  0  0  0
  7 29  1  0  0  0  0
  7 30  1  0  0  0  0
  8  6  2  0  0  0  0
  8 31  1  0  0  0  0
  9  8  1  0  0  0  0
 10 14  2  0  0  0  0
 11 16  1  0  0  0  0
 11  9  2  0  0  0  0
 12 17  2  0  0  0  0
 12 10  1  0  0  0  0
 13  7  1  0  0  0  0
 14 13  1  0  0  0  0
 14 32  1  0  0  0  0
 15  6  1  0  0  0  0
 15 33  1  0  0  0  0
 16 15  2  0  0  0  0
 16 34  1  0  0  0  0
 17 18  1  0  0  0  0
 17 35  1  0  0  0  0
 18 13  2  0  0  0  0
 18 36  1  0  0  0  0
 19  9  1  0  0  0  0
 20 10  1  0  0  0  0
 21 11  1  0  0  0  0
 21 37  1  0  0  0  0
 22 12  1  0  0  0  0
 22 38  1  0  0  0  0
 23  4  1  0  0  0  0
 23 39  1  0  0  0  0
 24  5  1  0  0  0  0
 24 40  1  0  0  0  0
 25 20  1  0  0  0  0
 25 41  1  0  0  0  0
 25 42  1  0  0  0  0
 25 43  1  0  0  0  0
 26 19  1  0  0  0  0
 26 44  1  0  0  0  0
 26 45  1  0  0  0  0
 26 46  1  0  0  0  0
 27 23  2  0  0  0  0
 27 47  1  0  0  0  0
 28 27  1  0  0  0  0
 28 24  2  0  0  0  0
 28 48  1  0  0  0  0
M  END
>  <Mol_ID>
8593

>  <Formula>
C22H20N2O4

>  <MolWeight>
376.4052

>  <Cat>
P2286

>  <Name>
WAY-323978

>  <Synonyms>
N/A

>  <Target>
Anti-infection

>  <Form>
free base

>  <CAS>
85573-18-8

>  <URL>
N/A

$$$$
