WAY-621829
 OpenBabel08302521443D

 43 45  0  0  0  0  0  0  0  0999 V2000
    1.0583   -0.0624    0.0600 S   0  0  0  0  0  0  0  0  0  0  0  0
   -0.3543   -5.3319    3.2781 S   0  0  0  0  0  0  0  0  0  0  0  0
   -0.2088    0.4069   -0.9807 N   0  0  0  0  0  0  0  0  0  0  0  0
    1.1032   -5.5752    4.0817 N   0  0  0  0  0  0  0  0  0  0  0  0
    0.4684   -1.5357    0.8719 C   0  0  0  0  0  0  0  0  0  0  0  0
   -0.0625   -3.8510    2.3294 C   0  0  0  0  0  0  0  0  0  0  0  0
    1.2261    0.9519    1.0782 O   0  0  0  0  0  0  0  0  0  0  0  0
    2.1814   -0.4602   -0.7649 O   0  0  0  0  0  0  0  0  0  0  0  0
   -1.3950   -5.0460    4.2425 O   0  0  0  0  0  0  0  0  0  0  0  0
   -0.4826   -6.4232    2.3342 O   0  0  0  0  0  0  0  0  0  0  0  0
    0.7747   -2.7867    0.3247 C   0  0  0  0  0  0  0  0  0  0  0  0
   -0.1249   -1.4423    2.1402 C   0  0  0  0  0  0  0  0  0  0  0  0
    0.5019   -3.9496    1.0507 C   0  0  0  0  0  0  0  0  0  0  0  0
   -0.4092   -2.6043    2.8620 C   0  0  0  0  0  0  0  0  0  0  0  0
   -0.8830    3.2387   -0.9441 O   0  0  0  0  0  0  0  0  0  0  0  0
    1.5813   -4.6207    5.0152 C   0  0  0  0  0  0  0  0  0  0  0  0
   -1.4671    0.9206   -0.3493 C   0  0  0  0  0  0  0  0  0  0  0  0
    0.2105    1.3668   -2.0610 C   0  0  0  0  0  0  0  0  0  0  0  0
    2.5900   -2.8237    6.8762 C   0  0  0  0  0  0  0  0  0  0  0  0
    3.0966   -1.9727    7.7778 F   0  0  0  0  0  0  0  0  0  0  0  0
    1.1373   -4.6677    6.3386 C   0  0  0  0  0  0  0  0  0  0  0  0
    2.5109   -3.6570    4.6172 C   0  0  0  0  0  0  0  0  0  0  0  0
    1.6550   -3.7719    7.2772 C   0  0  0  0  0  0  0  0  0  0  0  0
    3.0129   -2.7505    5.5531 C   0  0  0  0  0  0  0  0  0  0  0  0
    0.3600    2.7859   -1.5023 C   0  0  0  0  0  0  0  0  0  0  0  0
   -1.3217    2.3781    0.1178 C   0  0  0  0  0  0  0  0  0  0  0  0
    1.7876   -6.0987    3.5363 H   0  0  0  0  0  0  0  0  0  0  0  0
    1.2570   -2.8608   -0.6493 H   0  0  0  0  0  0  0  0  0  0  0  0
   -0.3364   -0.4722    2.5844 H   0  0  0  0  0  0  0  0  0  0  0  0
    0.7518   -4.9195    0.6248 H   0  0  0  0  0  0  0  0  0  0  0  0
   -0.8613   -2.5316    3.8493 H   0  0  0  0  0  0  0  0  0  0  0  0
   -2.2496    0.8728   -1.1190 H   0  0  0  0  0  0  0  0  0  0  0  0
   -1.7933    0.2705    0.4656 H   0  0  0  0  0  0  0  0  0  0  0  0
   -0.5754    1.3590   -2.8277 H   0  0  0  0  0  0  0  0  0  0  0  0
    1.1290    1.0301   -2.5506 H   0  0  0  0  0  0  0  0  0  0  0  0
    0.4125   -5.4158    6.6509 H   0  0  0  0  0  0  0  0  0  0  0  0
    2.8538   -3.6030    3.5881 H   0  0  0  0  0  0  0  0  0  0  0  0
    1.3445   -3.8144    8.3168 H   0  0  0  0  0  0  0  0  0  0  0  0
    3.7381   -1.9965    5.2630 H   0  0  0  0  0  0  0  0  0  0  0  0
    1.1478    2.8529   -0.7444 H   0  0  0  0  0  0  0  0  0  0  0  0
    0.6251    3.4749   -2.3105 H   0  0  0  0  0  0  0  0  0  0  0  0
   -2.2959    2.7494    0.4520 H   0  0  0  0  0  0  0  0  0  0  0  0
   -0.6386    2.4797    0.9653 H   0  0  0  0  0  0  0  0  0  0  0  0
  2  6  1  0  0  0  0
  3  1  1  0  0  0  0
  4  2  1  0  0  0  0
  4 27  1  0  0  0  0
  5  1  1  0  0  0  0
  6 14  1  0  0  0  0
  6 13  2  0  0  0  0
  7  1  2  0  0  0  0
  8  1  2  0  0  0  0
  9  2  2  0  0  0  0
 10  2  2  0  0  0  0
 11  5  2  0  0  0  0
 11 28  1  0  0  0  0
 12  5  1  0  0  0  0
 12 29  1  0  0  0  0
 13 11  1  0  0  0  0
 13 30  1  0  0  0  0
 14 12  2  0  0  0  0
 14 31  1  0  0  0  0
 15 25  1  0  0  0  0
 16  4  1  0  0  0  0
 17  3  1  0  0  0  0
 17 32  1  0  0  0  0
 17 33  1  0  0  0  0
 18  3  1  0  0  0  0
 18 34  1  0  0  0  0
 18 35  1  0  0  0  0
 19 24  2  0  0  0  0
 19 23  1  0  0  0  0
 20 19  1  0  0  0  0
 21 16  1  0  0  0  0
 21 36  1  0  0  0  0
 22 16  2  0  0  0  0
 22 37  1  0  0  0  0
 23 21  2  0  0  0  0
 23 38  1  0  0  0  0
 24 22  1  0  0  0  0
 24 39  1  0  0  0  0
 25 18  1  0  0  0  0
 25 40  1  0  0  0  0
 25 41  1  0  0  0  0
 26 17  1  0  0  0  0
 26 15  1  0  0  0  0
 26 42  1  0  0  0  0
 26 43  1  0  0  0  0
M  END
>  <Mol_ID>
9058

>  <Formula>
C16H17FN2O5S2

>  <MolWeight>
400.4449832

>  <Cat>
P2979

>  <Name>
WAY-621829

>  <Synonyms>
N/A

>  <Target>
Anti-infection

>  <Form>
free base

>  <CAS>
748028-11-7

>  <URL>
N/A

$$$$
