WAY-329606
 OpenBabel08302521453D

 37 39  0  0  0  0  0  0  0  0999 V2000
    0.0842   -0.4020   -0.1705 S   0  0  0  0  0  0  0  0  0  0  0  0
   -1.1897   -1.5835   -0.4136 C   0  0  0  0  0  0  0  0  0  0  0  0
   -2.4992   -1.4197    0.0926 C   0  0  0  0  0  0  0  0  0  0  0  0
   -2.9585   -0.4262    0.8705 N   0  0  0  0  0  0  0  0  0  0  0  0
    0.2847   -0.1146    1.5481 C   0  0  0  0  0  0  0  0  0  0  0  0
   -4.5731   -0.7226    1.1267 S   0  0  0  0  0  0  0  0  0  0  0  0
   -3.5726   -2.4327   -0.2460 C   0  0  0  0  0  0  0  0  0  0  0  0
   -4.7670   -2.1412    0.2889 N   0  0  0  0  0  0  0  0  0  0  0  0
    0.6182   -1.3688    2.2999 C   0  0  0  0  0  0  0  0  0  0  0  0
    2.4908   -3.0108    2.6685 C   0  0  0  0  0  0  0  0  0  0  0  0
    1.8515   -1.9337    2.0038 N   0  0  0  0  0  0  0  0  0  0  0  0
   -0.9635   -2.7128   -1.2330 C   0  0  0  0  0  0  0  0  0  0  0  0
   -0.3634    0.8313   -0.7884 O   0  0  0  0  0  0  0  0  0  0  0  0
    1.3299   -1.0036   -0.6199 O   0  0  0  0  0  0  0  0  0  0  0  0
    1.8224   -3.7831    3.6289 C   0  0  0  0  0  0  0  0  0  0  0  0
   -1.9708   -3.6575   -1.5367 C   0  0  0  0  0  0  0  0  0  0  0  0
   -3.2879   -3.5544   -1.0598 C   0  0  0  0  0  0  0  0  0  0  0  0
    3.8157   -3.3814    2.3355 C   0  0  0  0  0  0  0  0  0  0  0  0
   -0.1549   -1.7506    3.1764 O   0  0  0  0  0  0  0  0  0  0  0  0
    4.4120   -4.4954    2.9520 C   0  0  0  0  0  0  0  0  0  0  0  0
    2.4200   -4.8946    4.2300 C   0  0  0  0  0  0  0  0  0  0  0  0
    3.7204   -5.2495    3.8967 C   0  0  0  0  0  0  0  0  0  0  0  0
    4.5915   -2.8208    1.3530 O   0  0  0  0  0  0  0  0  0  0  0  0
    4.7728   -1.4106    1.3962 C   0  0  0  0  0  0  0  0  0  0  0  0
    1.0931    0.6126    1.6738 H   0  0  0  0  0  0  0  0  0  0  0  0
   -0.6294    0.3333    1.9449 H   0  0  0  0  0  0  0  0  0  0  0  0
    2.3351   -1.5894    1.1771 H   0  0  0  0  0  0  0  0  0  0  0  0
    0.0219   -2.8620   -1.6764 H   0  0  0  0  0  0  0  0  0  0  0  0
    0.7970   -3.5755    3.9171 H   0  0  0  0  0  0  0  0  0  0  0  0
   -1.7156   -4.4980   -2.1841 H   0  0  0  0  0  0  0  0  0  0  0  0
   -4.0509   -4.2834   -1.3105 H   0  0  0  0  0  0  0  0  0  0  0  0
    5.4263   -4.7833    2.6857 H   0  0  0  0  0  0  0  0  0  0  0  0
    1.8571   -5.4860    4.9474 H   0  0  0  0  0  0  0  0  0  0  0  0
    4.1829   -6.1195    4.3558 H   0  0  0  0  0  0  0  0  0  0  0  0
    4.1771   -0.9553    0.5998 H   0  0  0  0  0  0  0  0  0  0  0  0
    4.5319   -0.9614    2.3648 H   0  0  0  0  0  0  0  0  0  0  0  0
    5.8220   -1.1942    1.1692 H   0  0  0  0  0  0  0  0  0  0  0  0
  2  1  1  0  0  0  0
  3  2  1  0  0  0  0
  4  3  2  0  0  0  0
  5  1  1  0  0  0  0
  5 25  1  0  0  0  0
  5 26  1  0  0  0  0
  6  4  1  0  0  0  0
  6  8  1  0  0  0  0
  7  3  1  0  0  0  0
  7 17  1  0  0  0  0
  8  7  2  0  0  0  0
  9  5  1  0  0  0  0
 10 11  1  0  0  0  0
 11  9  1  0  0  0  0
 11 27  1  0  0  0  0
 12  2  2  0  0  0  0
 12 28  1  0  0  0  0
 13  1  2  0  0  0  0
 14  1  2  0  0  0  0
 15 10  2  0  0  0  0
 15 29  1  0  0  0  0
 16 12  1  0  0  0  0
 16 30  1  0  0  0  0
 17 16  2  0  0  0  0
 17 31  1  0  0  0  0
 18 10  1  0  0  0  0
 19  9  2  0  0  0  0
 20 18  2  0  0  0  0
 20 32  1  0  0  0  0
 21 15  1  0  0  0  0
 21 33  1  0  0  0  0
 22 20  1  0  0  0  0
 22 21  2  0  0  0  0
 22 34  1  0  0  0  0
 23 18  1  0  0  0  0
 24 23  1  0  0  0  0
 24 35  1  0  0  0  0
 24 36  1  0  0  0  0
 24 37  1  0  0  0  0
M  END
>  <Mol_ID>
9314

>  <Formula>
C15H12ClN3O4S2

>  <MolWeight>
397.85648

>  <Cat>
P2589

>  <Name>
WAY-329606

>  <Synonyms>
N/A

>  <Target>
others

>  <Form>
free base

>  <CAS>
956964-02-6

>  <URL>
N/A

$$$$
