WAY-324571
 OpenBabel08302521423D

 45 47  0  0  0  0  0  0  0  0999 V2000
    0.9880   -0.1835   -0.0939 C   0  0  0  0  0  0  0  0  0  0  0  0
    0.5424    0.5669    1.0134 N   0  0  0  0  0  0  0  0  0  0  0  0
   -0.4010    2.3544    3.2082 N   0  0  0  0  0  0  0  0  0  0  0  0
    0.4659   -1.5583   -0.3700 C   0  0  0  0  0  0  0  0  0  0  0  0
    1.8751    0.2396   -0.8411 O   0  0  0  0  0  0  0  0  0  0  0  0
   -2.7264    3.0885    3.4051 C   0  0  0  0  0  0  0  0  0  0  0  0
    1.0605    1.9320    1.1446 C   0  0  0  0  0  0  0  0  0  0  0  0
   -0.6617    0.2626    1.7926 C   0  0  0  0  0  0  0  0  0  0  0  0
   -3.9286    2.7636    2.8977 C   0  0  0  0  0  0  0  0  0  0  0  0
   -0.8846   -1.9106   -0.2681 C   0  0  0  0  0  0  0  0  0  0  0  0
    1.3874   -2.5418   -0.7636 C   0  0  0  0  0  0  0  0  0  0  0  0
    0.9089    2.5465    2.5539 C   0  0  0  0  0  0  0  0  0  0  0  0
   -0.7114    0.9148    3.1814 C   0  0  0  0  0  0  0  0  0  0  0  0
   -0.3463   -4.2233   -0.7057 C   0  0  0  0  0  0  0  0  0  0  0  0
   -1.4507    3.1974    2.6152 C   0  0  0  0  0  0  0  0  0  0  0  0
    0.9809   -3.8660   -0.9355 C   0  0  0  0  0  0  0  0  0  0  0  0
   -1.2821   -3.2447   -0.3842 C   0  0  0  0  0  0  0  0  0  0  0  0
   -5.1160    2.5055    3.7295 C   0  0  0  0  0  0  0  0  0  0  0  0
   -6.3935    2.8109    3.2438 C   0  0  0  0  0  0  0  0  0  0  0  0
   -5.0071    1.8661    4.9756 C   0  0  0  0  0  0  0  0  0  0  0  0
   -7.5324    2.5046    3.9979 C   0  0  0  0  0  0  0  0  0  0  0  0
   -6.1423    1.5590    5.7267 C   0  0  0  0  0  0  0  0  0  0  0  0
   -7.4061    1.8810    5.2388 C   0  0  0  0  0  0  0  0  0  0  0  0
   -2.6123    3.2509    4.4749 H   0  0  0  0  0  0  0  0  0  0  0  0
    2.1256    1.9377    0.8781 H   0  0  0  0  0  0  0  0  0  0  0  0
    0.5368    2.5485    0.4048 H   0  0  0  0  0  0  0  0  0  0  0  0
   -1.5156    0.6067    1.1969 H   0  0  0  0  0  0  0  0  0  0  0  0
   -0.7427   -0.8130    1.9463 H   0  0  0  0  0  0  0  0  0  0  0  0
   -4.0597    2.6309    1.8267 H   0  0  0  0  0  0  0  0  0  0  0  0
   -1.6493   -1.1651   -0.0851 H   0  0  0  0  0  0  0  0  0  0  0  0
    2.4306   -2.2733   -0.9304 H   0  0  0  0  0  0  0  0  0  0  0  0
    1.6644    2.0894    3.2080 H   0  0  0  0  0  0  0  0  0  0  0  0
    1.1644    3.6128    2.5226 H   0  0  0  0  0  0  0  0  0  0  0  0
    0.0147    0.4032    3.8269 H   0  0  0  0  0  0  0  0  0  0  0  0
   -1.6859    0.7061    3.6391 H   0  0  0  0  0  0  0  0  0  0  0  0
   -0.6557   -5.2618   -0.7950 H   0  0  0  0  0  0  0  0  0  0  0  0
   -1.1338    4.2465    2.6720 H   0  0  0  0  0  0  0  0  0  0  0  0
   -1.6179    2.9701    1.5563 H   0  0  0  0  0  0  0  0  0  0  0  0
    1.7021   -4.6205   -1.2381 H   0  0  0  0  0  0  0  0  0  0  0  0
   -2.3219   -3.5160   -0.2211 H   0  0  0  0  0  0  0  0  0  0  0  0
   -6.5169    3.2932    2.2767 H   0  0  0  0  0  0  0  0  0  0  0  0
   -4.0352    1.5775    5.3665 H   0  0  0  0  0  0  0  0  0  0  0  0
   -8.5200    2.7490    3.6159 H   0  0  0  0  0  0  0  0  0  0  0  0
   -6.0379    1.0621    6.6874 H   0  0  0  0  0  0  0  0  0  0  0  0
   -8.2908    1.6391    5.8221 H   0  0  0  0  0  0  0  0  0  0  0  0
  2  1  1  0  0  0  0
  3 13  1  0  0  0  0
  4  1  1  0  0  0  0
  5  1  2  0  0  0  0
  6 15  1  0  0  0  0
  6 24  1  0  0  0  0
  7  2  1  0  0  0  0
  7 25  1  0  0  0  0
  7 26  1  0  0  0  0
  8  2  1  0  0  0  0
  8 27  1  0  0  0  0
  8 28  1  0  0  0  0
  9  6  2  0  0  0  0
  9 29  1  0  0  0  0
 10  4  2  0  0  0  0
 10 30  1  0  0  0  0
 11  4  1  0  0  0  0
 11 31  1  0  0  0  0
 12  7  1  0  0  0  0
 12  3  1  0  0  0  0
 12 32  1  0  0  0  0
 12 33  1  0  0  0  0
 13  8  1  0  0  0  0
 13 34  1  0  0  0  0
 13 35  1  0  0  0  0
 14 16  1  0  0  0  0
 14 36  1  0  0  0  0
 15  3  1  0  0  0  0
 15 37  1  0  0  0  0
 15 38  1  0  0  0  0
 16 11  2  0  0  0  0
 16 39  1  0  0  0  0
 17 10  1  0  0  0  0
 17 14  2  0  0  0  0
 17 40  1  0  0  0  0
 18  9  1  0  0  0  0
 19 18  2  0  0  0  0
 19 41  1  0  0  0  0
 20 18  1  0  0  0  0
 20 42  1  0  0  0  0
 21 19  1  0  0  0  0
 21 23  2  0  0  0  0
 21 43  1  0  0  0  0
 22 20  2  0  0  0  0
 22 44  1  0  0  0  0
 23 22  1  0  0  0  0
 23 45  1  0  0  0  0
M  END
>  <Mol_ID>
8642

>  <Formula>
C20H21ClN2O

>  <MolWeight>
340.84654

>  <Cat>
P2331

>  <Name>
WAY-324571

>  <Synonyms>
N/A

>  <Target>
Others

>  <Form>
free base

>  <CAS>
219988-95-1

>  <URL>
N/A

$$$$
