WAY-325292
 OpenBabel08302521423D

 28 29  0  0  0  0  0  0  0  0999 V2000
   -1.0507   -1.5301   -0.0871 C   0  0  0  0  0  0  0  0  0  0  0  0
   -2.2041   -0.6596    0.4535 C   0  0  0  0  0  0  0  0  0  0  0  0
   -0.9544    1.5305   -0.0049 C   0  0  0  0  0  0  0  0  0  0  0  0
    1.5330    0.9998   -0.0261 N   0  0  0  0  0  0  0  0  0  0  0  0
    2.3758   -0.0463   -0.0478 N   0  0  0  0  0  0  0  0  0  0  0  0
    1.5712   -1.1252   -0.0831 C   0  0  0  0  0  0  0  0  0  0  0  0
    0.2105   -0.7450   -0.0802 C   0  0  0  0  0  0  0  0  0  0  0  0
    0.2260    0.6311   -0.0567 C   0  0  0  0  0  0  0  0  0  0  0  0
    2.1419   -2.5140   -0.1083 C   0  0  0  0  0  0  0  0  0  0  0  0
   -2.2401    0.7122   -0.2526 C   0  0  0  0  0  0  0  0  0  0  0  0
    3.0329   -2.7427   -1.3307 C   0  0  0  0  0  0  0  0  0  0  0  0
    2.8931   -2.8417    1.1837 C   0  0  0  0  0  0  0  0  0  0  0  0
   -0.9549   -2.4375    0.5179 H   0  0  0  0  0  0  0  0  0  0  0  0
   -1.2761   -1.8356   -1.1159 H   0  0  0  0  0  0  0  0  0  0  0  0
   -2.0702   -0.5022    1.5318 H   0  0  0  0  0  0  0  0  0  0  0  0
   -3.1574   -1.1821    0.3182 H   0  0  0  0  0  0  0  0  0  0  0  0
   -0.8735    2.3305   -0.7480 H   0  0  0  0  0  0  0  0  0  0  0  0
   -1.0069    1.9967    0.9859 H   0  0  0  0  0  0  0  0  0  0  0  0
    1.9271    1.9352    0.0267 H   0  0  0  0  0  0  0  0  0  0  0  0
    1.3072   -3.2243   -0.1842 H   0  0  0  0  0  0  0  0  0  0  0  0
   -2.3620    0.5465   -1.3312 H   0  0  0  0  0  0  0  0  0  0  0  0
   -3.1116    1.2865    0.0817 H   0  0  0  0  0  0  0  0  0  0  0  0
    3.9116   -2.0888   -1.3184 H   0  0  0  0  0  0  0  0  0  0  0  0
    3.3842   -3.7791   -1.3663 H   0  0  0  0  0  0  0  0  0  0  0  0
    2.4814   -2.5427   -2.2562 H   0  0  0  0  0  0  0  0  0  0  0  0
    2.2410   -2.7182    2.0555 H   0  0  0  0  0  0  0  0  0  0  0  0
    3.2479   -3.8779    1.1744 H   0  0  0  0  0  0  0  0  0  0  0  0
    3.7618   -2.1886    1.3227 H   0  0  0  0  0  0  0  0  0  0  0  0
  1  2  1  0  0  0  0
  1  7  1  0  0  0  0
  1 13  1  0  0  0  0
  1 14  1  0  0  0  0
  2 10  1  0  0  0  0
  2 15  1  0  0  0  0
  2 16  1  0  0  0  0
  3  8  1  0  0  0  0
  3 10  1  0  0  0  0
  3 17  1  0  0  0  0
  3 18  1  0  0  0  0
  4  5  1  0  0  0  0
  4 19  1  0  0  0  0
  5  6  2  0  0  0  0
  6  7  1  0  0  0  0
  6  9  1  0  0  0  0
  7  8  2  0  0  0  0
  8  4  1  0  0  0  0
  9 11  1  0  0  0  0
  9 12  1  0  0  0  0
  9 20  1  0  0  0  0
 10 21  1  0  0  0  0
 10 22  1  0  0  0  0
 11 23  1  0  0  0  0
 11 24  1  0  0  0  0
 11 25  1  0  0  0  0
 12 26  1  0  0  0  0
 12 27  1  0  0  0  0
 12 28  1  0  0  0  0
M  END
>  <Mol_ID>
8678

>  <Formula>
C10H16N2

>  <MolWeight>
164.24744

>  <Cat>
P2377

>  <Name>
WAY-325292

>  <Synonyms>
N/A

>  <Target>
¦Á7-Nicotinic Receptor

>  <Form>
free base

>  <CAS>
351517-42-5

>  <URL>
N/A

$$$$
