WAY-332082
 OpenBabel08302521443D

 51 53  0  0  0  0  0  0  0  0999 V2000
   -3.5069    1.7576   -2.9103 N   0  0  0  0  0  0  0  0  0  0  0  0
   -3.1245    2.2071   -1.6648 C   0  0  0  0  0  0  0  0  0  0  0  0
   -4.0197    0.5520   -2.6735 C   0  0  0  0  0  0  0  0  0  0  0  0
   -4.0454    0.2169   -1.3498 O   0  0  0  0  0  0  0  0  0  0  0  0
   -3.4523    1.2641   -0.7130 C   0  0  0  0  0  0  0  0  0  0  0  0
    1.2508    5.3656   -1.3841 C   0  0  0  0  0  0  0  0  0  0  0  0
    1.9566    5.2516   -0.2012 N   0  0  0  0  0  0  0  0  0  0  0  0
   -0.2455    5.1295   -1.3514 C   0  0  0  0  0  0  0  0  0  0  0  0
   -0.6528    3.3740   -1.6110 S   0  0  3  0  0  0  0  0  0  0  0  0
   -2.4729    3.5355   -1.4853 C   0  0  0  0  0  0  0  0  0  0  0  0
    3.3659    5.8899    2.2943 N   0  0  0  0  0  0  0  0  0  0  0  0
   -4.4909   -0.4499   -3.6130 C   0  0  0  0  0  0  0  0  0  0  0  0
    1.8092    5.6940   -2.4384 O   0  0  0  0  0  0  0  0  0  0  0  0
    1.3938    4.8506    1.0922 C   0  0  0  0  0  0  0  0  0  0  0  0
    3.4146    5.3985   -0.2064 C   0  0  0  0  0  0  0  0  0  0  0  0
   -0.1690    2.6072   -0.4159 O   0  0  0  0  0  0  0  0  0  0  0  0
    1.8922    5.7735    2.2183 C   0  0  0  0  0  0  0  0  0  0  0  0
    3.8728    6.3024    0.9576 C   0  0  0  0  0  0  0  0  0  0  0  0
   -3.2815    1.1394    0.7434 C   0  0  0  0  0  0  0  0  0  0  0  0
    4.0401    4.6548    2.7307 C   0  0  0  0  0  0  0  0  0  0  0  0
   -4.4007   -0.2162   -4.9942 C   0  0  0  0  0  0  0  0  0  0  0  0
   -5.0156   -1.6783   -3.1731 C   0  0  0  0  0  0  0  0  0  0  0  0
    3.5932    4.1468    4.0965 C   0  0  0  0  0  0  0  0  0  0  0  0
   -5.4359   -2.6387   -4.0885 C   0  0  0  0  0  0  0  0  0  0  0  0
   -4.8189   -1.1786   -5.9096 C   0  0  0  0  0  0  0  0  0  0  0  0
   -5.3397   -2.3890   -5.4550 C   0  0  0  0  0  0  0  0  0  0  0  0
   -0.7175    5.6933   -2.1599 H   0  0  0  0  0  0  0  0  0  0  0  0
   -0.6742    5.5075   -0.4209 H   0  0  0  0  0  0  0  0  0  0  0  0
   -2.8193    4.2279   -2.2592 H   0  0  0  0  0  0  0  0  0  0  0  0
   -2.7433    3.9449   -0.5085 H   0  0  0  0  0  0  0  0  0  0  0  0
    0.3055    4.8493    1.0832 H   0  0  0  0  0  0  0  0  0  0  0  0
    1.6999    3.8168    1.2746 H   0  0  0  0  0  0  0  0  0  0  0  0
    3.8482    4.3933   -0.1290 H   0  0  0  0  0  0  0  0  0  0  0  0
    3.7600    5.8199   -1.1542 H   0  0  0  0  0  0  0  0  0  0  0  0
    1.4869    6.7808    2.0487 H   0  0  0  0  0  0  0  0  0  0  0  0
    1.4653    5.4619    3.1779 H   0  0  0  0  0  0  0  0  0  0  0  0
    3.5019    7.3181    0.7617 H   0  0  0  0  0  0  0  0  0  0  0  0
    4.9658    6.3810    0.9677 H   0  0  0  0  0  0  0  0  0  0  0  0
   -4.2451    0.9655    1.2315 H   0  0  0  0  0  0  0  0  0  0  0  0
   -2.6200    0.3001    0.9792 H   0  0  0  0  0  0  0  0  0  0  0  0
   -2.8435    2.0453    1.1715 H   0  0  0  0  0  0  0  0  0  0  0  0
    3.9229    3.8407    2.0076 H   0  0  0  0  0  0  0  0  0  0  0  0
    5.1161    4.8591    2.7995 H   0  0  0  0  0  0  0  0  0  0  0  0
   -3.9898    0.7272   -5.3549 H   0  0  0  0  0  0  0  0  0  0  0  0
   -5.0931   -1.8866   -2.1074 H   0  0  0  0  0  0  0  0  0  0  0  0
    3.7371    4.9078    4.8693 H   0  0  0  0  0  0  0  0  0  0  0  0
    2.5442    3.8378    4.0961 H   0  0  0  0  0  0  0  0  0  0  0  0
    4.1843    3.2665    4.3721 H   0  0  0  0  0  0  0  0  0  0  0  0
   -5.8394   -3.5844   -3.7359 H   0  0  0  0  0  0  0  0  0  0  0  0
   -4.7373   -0.9851   -6.9764 H   0  0  0  0  0  0  0  0  0  0  0  0
   -5.6664   -3.1412   -6.1706 H   0  0  0  0  0  0  0  0  0  0  0  0
  2  1  1  0  0  0  0
  3  1  2  0  0  0  0
  4  3  1  0  0  0  0
  5  2  2  0  0  0  0
  5  4  1  0  0  0  0
  6  8  1  0  0  0  0
  7  6  1  0  0  0  0
  8  9  1  0  0  0  0
  8 27  1  0  0  0  0
  8 28  1  0  0  0  0
  9 10  1  0  0  0  0
 10  2  1  0  0  0  0
 10 29  1  0  0  0  0
 10 30  1  0  0  0  0
 11 18  1  0  0  0  0
 11 17  1  0  0  0  0
 12  3  1  0  0  0  0
 13  6  2  0  0  0  0
 14  7  1  0  0  0  0
 14 31  1  0  0  0  0
 14 32  1  0  0  0  0
 15  7  1  0  0  0  0
 15 33  1  0  0  0  0
 15 34  1  0  0  0  0
 16  9  2  0  0  0  0
 17 14  1  0  0  0  0
 17 35  1  0  0  0  0
 17 36  1  0  0  0  0
 18 15  1  0  0  0  0
 18 37  1  0  0  0  0
 18 38  1  0  0  0  0
 19  5  1  0  0  0  0
 19 39  1  0  0  0  0
 19 40  1  0  0  0  0
 19 41  1  0  0  0  0
 20 11  1  0  0  0  0
 20 42  1  0  0  0  0
 20 43  1  0  0  0  0
 21 12  2  0  0  0  0
 21 44  1  0  0  0  0
 22 12  1  0  0  0  0
 22 45  1  0  0  0  0
 23 20  1  0  0  0  0
 23 46  1  0  0  0  0
 23 47  1  0  0  0  0
 23 48  1  0  0  0  0
 24 22  2  0  0  0  0
 24 49  1  0  0  0  0
 25 21  1  0  0  0  0
 25 50  1  0  0  0  0
 26 24  1  0  0  0  0
 26 25  2  0  0  0  0
 26 51  1  0  0  0  0
M  END
>  <Mol_ID>
9195

>  <Formula>
C19H25N3O3S

>  <MolWeight>
375.4851

>  <Cat>
P2721

>  <Name>
WAY-332082

>  <Synonyms>
N/A

>  <Target>
beta-catenin

>  <Form>
free base

>  <CAS>
957674-68-9

>  <URL>
N/A

$$$$
