WAY-641007
 OpenBabel08302521443D

 35 37  0  0  0  0  0  0  0  0999 V2000
    1.0898    0.6944   -0.0425 C   0  0  0  0  0  0  0  0  0  0  0  0
    2.2647    1.4595   -0.2028 C   0  0  0  0  0  0  0  0  0  0  0  0
    1.0007   -0.6551   -0.0201 C   0  0  0  0  0  0  0  0  0  0  0  0
   -0.3126   -1.1226   -0.0448 N   0  0  0  0  0  0  0  0  0  0  0  0
    3.3262    1.0772   -0.9030 N   0  0  0  0  0  0  0  0  0  0  0  0
   -0.3075    1.1921   -0.0016 C   0  0  0  0  0  0  0  0  0  0  0  0
    2.4305    3.0238    0.5134 S   0  0  0  0  0  0  0  0  0  0  0  0
   -1.2579    0.0049   -0.0539 C   0  0  0  0  0  0  0  0  0  0  0  0
    4.2704    2.0861   -0.9593 C   0  0  0  0  0  0  0  0  0  0  0  0
    3.9649    3.2319   -0.2281 C   0  0  0  0  0  0  0  0  0  0  0  0
   -0.7578   -2.4388    0.4405 C   0  0  0  0  0  0  0  0  0  0  0  0
   -0.6508    2.3616    0.0388 O   0  0  0  0  0  0  0  0  0  0  0  0
    2.0605   -1.5217   -0.0176 N   0  0  0  0  0  0  0  0  0  0  0  0
   -1.4957   -3.2417   -0.6538 C   0  0  3  0  0  0  0  0  0  0  0  0
   -0.6593   -3.4276   -1.8007 O   0  0  0  0  0  0  0  0  0  0  0  0
    5.4798    2.0425   -1.6816 C   0  0  0  0  0  0  0  0  0  0  0  0
    4.8371    4.3318   -0.1728 C   0  0  0  0  0  0  0  0  0  0  0  0
   -1.8803   -4.6292   -0.1503 C   0  0  0  0  0  0  0  0  0  0  0  0
    6.0364    4.2609   -0.8885 C   0  0  0  0  0  0  0  0  0  0  0  0
    6.3531    3.1339   -1.6406 C   0  0  0  0  0  0  0  0  0  0  0  0
   -1.9216    0.0219    0.8130 H   0  0  0  0  0  0  0  0  0  0  0  0
   -1.8022    0.0417   -0.9997 H   0  0  0  0  0  0  0  0  0  0  0  0
    0.1100   -3.0248    0.7656 H   0  0  0  0  0  0  0  0  0  0  0  0
   -1.4019   -2.3189    1.3187 H   0  0  0  0  0  0  0  0  0  0  0  0
    1.8509   -2.3986   -0.4818 H   0  0  0  0  0  0  0  0  0  0  0  0
    2.9161   -1.0908   -0.3776 H   0  0  0  0  0  0  0  0  0  0  0  0
   -2.3946   -2.7067   -0.9794 H   0  0  0  0  0  0  0  0  0  0  0  0
   -0.2162   -2.5713   -1.9501 H   0  0  0  0  0  0  0  0  0  0  0  0
    5.7208    1.1623   -2.2694 H   0  0  0  0  0  0  0  0  0  0  0  0
    4.5859    5.2151    0.4065 H   0  0  0  0  0  0  0  0  0  0  0  0
   -0.9874   -5.2136    0.1026 H   0  0  0  0  0  0  0  0  0  0  0  0
   -2.5237   -4.5749    0.7325 H   0  0  0  0  0  0  0  0  0  0  0  0
   -2.4048   -5.1916   -0.9311 H   0  0  0  0  0  0  0  0  0  0  0  0
    6.7279    5.1006   -0.8584 H   0  0  0  0  0  0  0  0  0  0  0  0
    7.2849    3.0977   -2.2001 H   0  0  0  0  0  0  0  0  0  0  0  0
  2  1  1  0  0  0  0
  3  1  2  0  0  0  0
  4  3  1  0  0  0  0
  5  2  2  0  0  0  0
  6  1  1  0  0  0  0
  7  2  1  0  0  0  0
  8  6  1  0  0  0  0
  8  4  1  0  0  0  0
  8 21  1  0  0  0  0
  8 22  1  0  0  0  0
  9  5  1  0  0  0  0
 10  7  1  0  0  0  0
 10  9  2  0  0  0  0
 11  4  1  0  0  0  0
 11 23  1  0  0  0  0
 11 24  1  0  0  0  0
 12  6  2  0  0  0  0
 13  3  1  0  0  0  0
 13 25  1  0  0  0  0
 13 26  1  0  0  0  0
 14 11  1  0  0  0  0
 14 27  1  0  0  0  0
 15 14  1  0  0  0  0
 15 28  1  0  0  0  0
 16  9  1  0  0  0  0
 16 29  1  0  0  0  0
 17 10  1  0  0  0  0
 17 30  1  0  0  0  0
 18 14  1  0  0  0  0
 18 31  1  0  0  0  0
 18 32  1  0  0  0  0
 18 33  1  0  0  0  0
 19 17  2  0  0  0  0
 19 20  1  0  0  0  0
 19 34  1  0  0  0  0
 20 16  2  0  0  0  0
 20 35  1  0  0  0  0
M  END
>  <Mol_ID>
9112

>  <Formula>
C14H15N3O2S

>  <MolWeight>
289.3528

>  <Cat>
P3120

>  <Name>
WAY-641007

>  <Synonyms>
N/A

>  <Target>
Androgen Receptor

>  <Form>
free base

>  <CAS>
1351440-41-9

>  <URL>
N/A

$$$$
