WAY-298844
 OpenBabel08302521413D

 39 42  0  0  0  0  0  0  0  0999 V2000
    0.3458    0.1006    0.0864 C   0  0  0  0  0  0  0  0  0  0  0  0
   -1.0210    0.0969    0.0547 C   0  0  0  0  0  0  0  0  0  0  0  0
    0.9814    1.3348    0.0836 C   0  0  0  0  0  0  0  0  0  0  0  0
    0.9909   -1.1287    0.0955 C   0  0  0  0  0  0  0  0  0  0  0  0
   -1.7877    1.2394    0.0241 C   0  0  0  0  0  0  0  0  0  0  0  0
   -1.7816   -1.0500    0.0296 C   0  0  0  0  0  0  0  0  0  0  0  0
    2.4596    1.3522    0.0970 C   0  0  0  0  0  0  0  0  0  0  0  0
    0.2173    2.5219    0.0432 C   0  0  0  0  0  0  0  0  0  0  0  0
    2.4696   -1.1304    0.1310 C   0  0  0  0  0  0  0  0  0  0  0  0
    0.2326   -2.3206    0.0557 C   0  0  0  0  0  0  0  0  0  0  0  0
   -1.1935    2.4969    0.0155 C   0  0  0  0  0  0  0  0  0  0  0  0
   -3.2333    0.8763   -0.0084 C   0  0  0  0  0  0  0  0  0  0  0  0
   -1.1803   -2.3034    0.0227 C   0  0  0  0  0  0  0  0  0  0  0  0
   -3.2300   -0.6935   -0.0074 C   0  0  0  0  0  0  0  0  0  0  0  0
    3.1119    0.1180    0.2531 N   0  0  0  0  0  0  0  0  0  0  0  0
    3.0285    2.4278   -0.0561 O   0  0  0  0  0  0  0  0  0  0  0  0
    3.0538   -2.2055    0.0241 O   0  0  0  0  0  0  0  0  0  0  0  0
    4.5773    0.1111    0.1929 C   0  0  0  0  0  0  0  0  0  0  0  0
    5.3223    0.9914    1.2041 C   0  0  0  0  0  0  0  0  0  0  0  0
    5.0496    0.6579    2.6676 C   0  0  0  0  0  0  0  0  0  0  0  0
    5.9529    1.3553    3.5314 O   0  0  0  0  0  0  0  0  0  0  0  0
    5.6551    2.7387    3.6882 C   0  0  0  0  0  0  0  0  0  0  0  0
    0.7268    3.4853    0.0281 H   0  0  0  0  0  0  0  0  0  0  0  0
    0.7460   -3.2824    0.0468 H   0  0  0  0  0  0  0  0  0  0  0  0
   -1.7832    3.4063   -0.0174 H   0  0  0  0  0  0  0  0  0  0  0  0
   -3.7484    1.2663    0.8750 H   0  0  0  0  0  0  0  0  0  0  0  0
   -3.7111    1.2665   -0.9127 H   0  0  0  0  0  0  0  0  0  0  0  0
   -1.7648   -3.2164   -0.0100 H   0  0  0  0  0  0  0  0  0  0  0  0
   -3.7446   -1.0861    0.8750 H   0  0  0  0  0  0  0  0  0  0  0  0
   -3.7037   -1.0879   -0.9133 H   0  0  0  0  0  0  0  0  0  0  0  0
    4.9589   -0.9119    0.2825 H   0  0  0  0  0  0  0  0  0  0  0  0
    4.8450    0.4537   -0.8150 H   0  0  0  0  0  0  0  0  0  0  0  0
    6.3996    0.8850    1.0209 H   0  0  0  0  0  0  0  0  0  0  0  0
    5.1134    2.0480    1.0218 H   0  0  0  0  0  0  0  0  0  0  0  0
    4.0141    0.8707    2.9557 H   0  0  0  0  0  0  0  0  0  0  0  0
    5.2266   -0.4096    2.8382 H   0  0  0  0  0  0  0  0  0  0  0  0
    5.7180    3.2720    2.7365 H   0  0  0  0  0  0  0  0  0  0  0  0
    4.6636    2.8706    4.1318 H   0  0  0  0  0  0  0  0  0  0  0  0
    6.3971    3.1724    4.3642 H   0  0  0  0  0  0  0  0  0  0  0  0
  1  2  1  0  0  0  0
  1  3  1  0  0  0  0
  1  4  2  0  0  0  0
  2  5  1  0  0  0  0
  2  6  2  0  0  0  0
  3  7  1  0  0  0  0
  3  8  2  0  0  0  0
  4  9  1  0  0  0  0
  4 10  1  0  0  0  0
  5 11  2  0  0  0  0
  5 12  1  0  0  0  0
  6 13  1  0  0  0  0
  6 14  1  0  0  0  0
  7 15  1  0  0  0  0
  7 16  2  0  0  0  0
  8 11  1  0  0  0  0
  8 23  1  0  0  0  0
  9 17  2  0  0  0  0
  9 15  1  0  0  0  0
 10 13  2  0  0  0  0
 10 24  1  0  0  0  0
 11 25  1  0  0  0  0
 12 14  1  0  0  0  0
 12 26  1  0  0  0  0
 12 27  1  0  0  0  0
 13 28  1  0  0  0  0
 14 29  1  0  0  0  0
 14 30  1  0  0  0  0
 15 18  1  0  0  0  0
 18 19  1  0  0  0  0
 18 31  1  0  0  0  0
 18 32  1  0  0  0  0
 19 20  1  0  0  0  0
 19 33  1  0  0  0  0
 19 34  1  0  0  0  0
 20 21  1  0  0  0  0
 20 35  1  0  0  0  0
 20 36  1  0  0  0  0
 21 22  1  0  0  0  0
 22 37  1  0  0  0  0
 22 38  1  0  0  0  0
 22 39  1  0  0  0  0
M  END
>  <Mol_ID>
8353

>  <Formula>
C18H17NO3

>  <MolWeight>
295.33248

>  <Cat>
P2103

>  <Name>
WAY-298844

>  <Synonyms>
N/A

>  <Target>
Androgen Receptor

>  <Form>
free base

>  <CAS>
293326-29-1

>  <URL>
N/A

$$$$
