WAY-658261
 OpenBabel08302521433D

 35 37  0  0  0  0  0  0  0  0999 V2000
   -0.0372   -1.1459   -0.3396 C   0  0  0  0  0  0  0  0  0  0  0  0
    0.8189   -0.0701   -0.4480 N   0  0  0  0  0  0  0  0  0  0  0  0
    0.3295   -2.5876   -0.1965 C   0  0  0  0  0  0  0  0  0  0  0  0
   -1.2761   -0.6921   -0.3511 N   0  0  0  0  0  0  0  0  0  0  0  0
    0.0326    1.0508   -0.3719 C   0  0  0  0  0  0  0  0  0  0  0  0
   -1.2294    0.6900   -0.3284 N   0  0  0  0  0  0  0  0  0  0  0  0
   -0.4600   -3.6693   -0.5377 C   0  0  0  0  0  0  0  0  0  0  0  0
    0.6433    2.6822   -0.3618 S   0  0  0  0  0  0  0  0  0  0  0  0
   -0.5491    5.8794   -0.5026 C   0  0  0  0  0  0  0  0  0  0  0  0
    1.5309   -3.1320    0.3350 C   0  0  0  0  0  0  0  0  0  0  0  0
   -0.5626    5.0468    0.6278 C   0  0  0  0  0  0  0  0  0  0  0  0
    0.1904   -4.8328   -0.2352 O   0  0  0  0  0  0  0  0  0  0  0  0
   -0.6213    7.2722   -0.3686 C   0  0  0  0  0  0  0  0  0  0  0  0
    1.3895   -4.5020    0.3024 C   0  0  0  0  0  0  0  0  0  0  0  0
   -0.7026    3.5405    0.5089 C   0  0  0  0  0  0  0  0  0  0  0  0
   -0.6066    5.6550    1.8954 C   0  0  0  0  0  0  0  0  0  0  0  0
    2.2223   -0.1430   -0.7581 C   0  0  0  0  0  0  0  0  0  0  0  0
   -0.7012    7.8541    0.8951 C   0  0  0  0  0  0  0  0  0  0  0  0
   -0.6786    7.0458    2.0274 C   0  0  0  0  0  0  0  0  0  0  0  0
   -1.7731   -3.8467   -1.1917 C   0  0  0  0  0  0  0  0  0  0  0  0
   -0.5220    5.4520   -1.5028 H   0  0  0  0  0  0  0  0  0  0  0  0
    2.3828   -2.6102    0.7444 H   0  0  0  0  0  0  0  0  0  0  0  0
   -0.6436    7.9041   -1.2531 H   0  0  0  0  0  0  0  0  0  0  0  0
    2.0106   -5.3285    0.6117 H   0  0  0  0  0  0  0  0  0  0  0  0
   -1.6563    3.3352    0.0121 H   0  0  0  0  0  0  0  0  0  0  0  0
   -0.7579    3.1037    1.5128 H   0  0  0  0  0  0  0  0  0  0  0  0
   -0.6245    5.0464    2.7969 H   0  0  0  0  0  0  0  0  0  0  0  0
    2.5355    0.7418   -1.3152 H   0  0  0  0  0  0  0  0  0  0  0  0
    2.7803   -0.2275    0.1762 H   0  0  0  0  0  0  0  0  0  0  0  0
    2.4017   -1.0141   -1.3936 H   0  0  0  0  0  0  0  0  0  0  0  0
   -0.7947    8.9325    0.9960 H   0  0  0  0  0  0  0  0  0  0  0  0
   -0.7452    7.4957    3.0149 H   0  0  0  0  0  0  0  0  0  0  0  0
   -1.6864   -4.5719   -2.0090 H   0  0  0  0  0  0  0  0  0  0  0  0
   -2.5106   -4.2275   -0.4789 H   0  0  0  0  0  0  0  0  0  0  0  0
   -2.1465   -2.9134   -1.6190 H   0  0  0  0  0  0  0  0  0  0  0  0
  2  1  1  0  0  0  0
  3  1  1  0  0  0  0
  4  1  2  0  0  0  0
  5  2  1  0  0  0  0
  5  6  2  0  0  0  0
  6  4  1  0  0  0  0
  7  3  2  0  0  0  0
  8  5  1  0  0  0  0
  9 11  2  0  0  0  0
  9 21  1  0  0  0  0
 10  3  1  0  0  0  0
 10 22  1  0  0  0  0
 11 15  1  0  0  0  0
 12  7  1  0  0  0  0
 13  9  1  0  0  0  0
 13 23  1  0  0  0  0
 14 10  2  0  0  0  0
 14 12  1  0  0  0  0
 14 24  1  0  0  0  0
 15  8  1  0  0  0  0
 15 25  1  0  0  0  0
 15 26  1  0  0  0  0
 16 11  1  0  0  0  0
 16 27  1  0  0  0  0
 17  2  1  0  0  0  0
 17 28  1  0  0  0  0
 17 29  1  0  0  0  0
 17 30  1  0  0  0  0
 18 19  1  0  0  0  0
 18 13  2  0  0  0  0
 18 31  1  0  0  0  0
 19 16  2  0  0  0  0
 19 32  1  0  0  0  0
 20  7  1  0  0  0  0
 20 33  1  0  0  0  0
 20 34  1  0  0  0  0
 20 35  1  0  0  0  0
M  END
>  <Mol_ID>
8820

>  <Formula>
C15H13Cl2N3OS

>  <MolWeight>
354.25422

>  <Cat>
P3166

>  <Name>
WAY-658261

>  <Synonyms>
N/A

>  <Target>
Others

>  <Form>
free base

>  <CAS>
849125-00-4

>  <URL>
N/A

$$$$
