WAY-300716
 OpenBabel08302521413D

 33 35  0  0  0  0  0  0  0  0999 V2000
   -0.0479    0.6826   -0.2305 C   0  0  0  0  0  0  0  0  0  0  0  0
   -0.1246   -0.7221   -0.2824 C   0  0  0  0  0  0  0  0  0  0  0  0
    1.3028    1.3387   -0.4150 C   0  0  0  0  0  0  0  0  0  0  0  0
   -1.2141    1.4247   -0.0256 C   0  0  0  0  0  0  0  0  0  0  0  0
    1.1574   -1.4719   -0.5164 C   0  0  0  0  0  0  0  0  0  0  0  0
   -1.3464   -1.3727   -0.0989 C   0  0  0  0  0  0  0  0  0  0  0  0
    2.3680    0.6083    0.2821 N   0  0  0  0  0  0  0  0  0  0  0  0
   -2.4337    0.7706    0.1611 C   0  0  0  0  0  0  0  0  0  0  0  0
    2.2421   -0.8563    0.3660 C   0  0  0  0  0  0  0  0  0  0  0  0
   -2.4983   -0.6236    0.1323 C   0  0  0  0  0  0  0  0  0  0  0  0
    3.4709    1.3393    0.7416 C   0  0  0  0  0  0  0  0  0  0  0  0
    4.5250    0.6537    1.5532 C   0  0  0  0  0  0  0  0  0  0  0  0
    3.6371    2.5257    0.4797 O   0  0  0  0  0  0  0  0  0  0  0  0
    5.8720    0.9520    1.3102 C   0  0  0  0  0  0  0  0  0  0  0  0
    4.2049   -0.2574    2.5670 C   0  0  0  0  0  0  0  0  0  0  0  0
    6.8778    0.2697    2.0046 C   0  0  0  0  0  0  0  0  0  0  0  0
    5.2061   -0.9768    3.2186 C   0  0  0  0  0  0  0  0  0  0  0  0
    6.5434   -0.7183    2.9310 C   0  0  0  0  0  0  0  0  0  0  0  0
    1.2763    2.3798   -0.0732 H   0  0  0  0  0  0  0  0  0  0  0  0
    1.5527    1.3462   -1.4839 H   0  0  0  0  0  0  0  0  0  0  0  0
   -1.1793    2.5110    0.0039 H   0  0  0  0  0  0  0  0  0  0  0  0
    1.4286   -1.4072   -1.5757 H   0  0  0  0  0  0  0  0  0  0  0  0
    1.0451   -2.5312   -0.2589 H   0  0  0  0  0  0  0  0  0  0  0  0
   -1.4050   -2.4578   -0.1158 H   0  0  0  0  0  0  0  0  0  0  0  0
   -3.3375    1.3489    0.3364 H   0  0  0  0  0  0  0  0  0  0  0  0
    3.2120   -1.3205    0.1557 H   0  0  0  0  0  0  0  0  0  0  0  0
    1.9640   -1.0845    1.3992 H   0  0  0  0  0  0  0  0  0  0  0  0
   -3.4488   -1.1265    0.2913 H   0  0  0  0  0  0  0  0  0  0  0  0
    6.1414    1.7116    0.5810 H   0  0  0  0  0  0  0  0  0  0  0  0
    3.1741   -0.4177    2.8641 H   0  0  0  0  0  0  0  0  0  0  0  0
    7.9227    0.5034    1.8167 H   0  0  0  0  0  0  0  0  0  0  0  0
    4.9389   -1.7323    3.9524 H   0  0  0  0  0  0  0  0  0  0  0  0
    7.3243   -1.2735    3.4445 H   0  0  0  0  0  0  0  0  0  0  0  0
  1  2  2  0  0  0  0
  1  3  1  0  0  0  0
  1  4  1  0  0  0  0
  2  5  1  0  0  0  0
  2  6  1  0  0  0  0
  3  7  1  0  0  0  0
  3 19  1  0  0  0  0
  3 20  1  0  0  0  0
  4  8  2  0  0  0  0
  4 21  1  0  0  0  0
  5  9  1  0  0  0  0
  5 22  1  0  0  0  0
  5 23  1  0  0  0  0
  6 10  2  0  0  0  0
  6 24  1  0  0  0  0
  7 11  1  0  0  0  0
  7  9  1  0  0  0  0
  8 10  1  0  0  0  0
  8 25  1  0  0  0  0
  9 26  1  0  0  0  0
  9 27  1  0  0  0  0
 10 28  1  0  0  0  0
 11 12  1  0  0  0  0
 11 13  2  0  0  0  0
 12 14  2  0  0  0  0
 12 15  1  0  0  0  0
 14 16  1  0  0  0  0
 14 29  1  0  0  0  0
 15 17  2  0  0  0  0
 15 30  1  0  0  0  0
 16 18  2  0  0  0  0
 16 31  1  0  0  0  0
 17 18  1  0  0  0  0
 17 32  1  0  0  0  0
 18 33  1  0  0  0  0
M  END
>  <Mol_ID>
8420

>  <Formula>
C16H14ClNO

>  <MolWeight>
271.74146

>  <Cat>
P2153

>  <Name>
WAY-300716

>  <Synonyms>
N/A

>  <Target>
Anti-infection

>  <Form>
free base

>  <CAS>
223735-93-1

>  <URL>
N/A

$$$$
