WAY-656520
 OpenBabel08302521423D

 31 34  0  0  0  0  0  0  0  0999 V2000
    1.0272    0.5526   -0.0418 C   0  0  0  0  0  0  0  0  0  0  0  0
    1.8996    1.5427   -0.0287 N   0  0  0  0  0  0  0  0  0  0  0  0
    1.7008   -0.6304   -0.0743 N   0  0  0  0  0  0  0  0  0  0  0  0
    3.0270   -0.4551   -0.1046 N   0  0  0  0  0  0  0  0  0  0  0  0
    3.1219    0.8863   -0.0626 C   0  0  0  0  0  0  0  0  0  0  0  0
   -0.4228    0.4923   -0.0133 C   0  0  0  0  0  0  0  0  0  0  0  0
    8.2181    3.4567    0.5108 N   0  3  0  0  0  0  0  0  0  0  0  0
   -0.2056   -1.9904   -0.0317 N   0  0  0  0  0  0  0  0  0  0  0  0
    1.0913   -1.8745   -0.0642 C   0  0  0  0  0  0  0  0  0  0  0  0
   -0.9946   -0.8063   -0.0114 C   0  0  0  0  0  0  0  0  0  0  0  0
    6.9126    2.8196    0.2956 C   0  0  0  0  0  0  0  0  0  0  0  0
    4.4118    1.5736    0.0022 C   0  0  0  0  0  0  0  0  0  0  0  0
    8.2338    4.6736    0.7425 O   0  5  0  0  0  0  0  0  0  0  0  0
    9.2269    2.7378    0.4574 O   0  0  0  0  0  0  0  0  0  0  0  0
    5.7396    3.5870    0.3387 C   0  0  0  0  0  0  0  0  0  0  0  0
    6.8501    1.4415    0.0718 C   0  0  0  0  0  0  0  0  0  0  0  0
    5.6035    0.8293   -0.0756 C   0  0  0  0  0  0  0  0  0  0  0  0
    4.4932    2.9610    0.1893 C   0  0  0  0  0  0  0  0  0  0  0  0
   -1.2383    1.6244    0.0022 C   0  0  0  0  0  0  0  0  0  0  0  0
   -2.3826   -0.9382    0.0045 C   0  0  0  0  0  0  0  0  0  0  0  0
   -2.6271    1.4710    0.0140 C   0  0  0  0  0  0  0  0  0  0  0  0
   -3.1974    0.1950    0.0144 C   0  0  0  0  0  0  0  0  0  0  0  0
    1.7345   -2.7682   -0.0822 H   0  0  0  0  0  0  0  0  0  0  0  0
    5.7758    4.6626    0.5027 H   0  0  0  0  0  0  0  0  0  0  0  0
    7.7481    0.8289    0.0266 H   0  0  0  0  0  0  0  0  0  0  0  0
    5.5670   -0.2482   -0.2331 H   0  0  0  0  0  0  0  0  0  0  0  0
    3.5860    3.5615    0.2416 H   0  0  0  0  0  0  0  0  0  0  0  0
   -0.8013    2.6198    0.0015 H   0  0  0  0  0  0  0  0  0  0  0  0
   -2.8278   -1.9302    0.0054 H   0  0  0  0  0  0  0  0  0  0  0  0
   -3.2708    2.3475    0.0202 H   0  0  0  0  0  0  0  0  0  0  0  0
   -4.2791    0.0804    0.0209 H   0  0  0  0  0  0  0  0  0  0  0  0
  2  1  2  0  0  0  0
  3  1  1  0  0  0  0
  4  3  1  0  0  0  0
  4  5  2  0  0  0  0
  5  2  1  0  0  0  0
  6  1  1  0  0  0  0
  7 11  1  0  0  0  0
  8 10  1  0  0  0  0
  8  9  2  0  0  0  0
  9  3  1  0  0  0  0
  9 23  1  0  0  0  0
 10  6  2  0  0  0  0
 11 15  2  0  0  0  0
 12  5  1  0  0  0  0
 13  7  1  0  0  0  0
 14  7  2  0  0  0  0
 15 18  1  0  0  0  0
 15 24  1  0  0  0  0
 16 17  2  0  0  0  0
 16 11  1  0  0  0  0
 16 25  1  0  0  0  0
 17 12  1  0  0  0  0
 17 26  1  0  0  0  0
 18 12  2  0  0  0  0
 18 27  1  0  0  0  0
 19  6  1  0  0  0  0
 19 28  1  0  0  0  0
 20 10  1  0  0  0  0
 20 29  1  0  0  0  0
 21 19  2  0  0  0  0
 21 30  1  0  0  0  0
 22 21  1  0  0  0  0
 22 20  2  0  0  0  0
 22 31  1  0  0  0  0
M  CHG  2   7   1  13  -1
M  END
>  <Mol_ID>
8530

>  <Formula>
C15H9N5O2

>  <MolWeight>
291.26426

>  <Cat>
P3141

>  <Name>
WAY-656520

>  <Synonyms>
N/A

>  <Target>
Androgen Receptor

>  <Form>
free base

>  <CAS>
852830-98-9

>  <URL>
N/A

$$$$
