WAY-643578
 OpenBabel08302521453D

 38 39  0  0  0  0  0  0  0  0999 V2000
    4.5556   -1.1286    8.3998 C   0  0  0  0  0  0  0  0  0  0  0  0
    3.5210   -1.4805    7.3750 C   0  0  0  0  0  0  0  0  0  0  0  0
   -0.2889   -6.6956   -0.1791 N   0  0  0  0  0  0  0  0  0  0  0  0
    0.6512   -5.6905   -0.3251 C   0  0  0  0  0  0  0  0  0  0  0  0
    1.9847   -3.1489    6.5121 N   0  0  0  0  0  0  0  0  0  0  0  0
    1.6457   -2.2990    5.5167 C   0  0  0  0  0  0  0  0  0  0  0  0
   -1.2815   -6.6142    2.0887 C   0  0  0  0  0  0  0  0  0  0  0  0
   -0.5116   -5.8275    2.9356 N   0  0  0  0  0  0  0  0  0  0  0  0
    3.1469   -0.6157    6.3431 C   0  0  0  0  0  0  0  0  0  0  0  0
    2.1970   -1.0270    5.4086 C   0  0  0  0  0  0  0  0  0  0  0  0
   -0.4625   -7.4134    1.0696 C   0  0  0  0  0  0  0  0  0  0  0  0
   -0.9992   -5.1404    4.0400 C   0  0  0  0  0  0  0  0  0  0  0  0
    0.4782   -2.8424    4.2787 S   0  0  0  0  0  0  0  0  0  0  0  0
    2.9018   -2.7216    7.4164 C   0  0  0  0  0  0  0  0  0  0  0  0
    1.4960   -5.3946    0.5046 O   0  0  0  0  0  0  0  0  0  0  0  0
   -2.5096   -6.6445    2.0562 O   0  0  0  0  0  0  0  0  0  0  0  0
   -2.1864   -5.0526    4.3450 O   0  0  0  0  0  0  0  0  0  0  0  0
    5.1223    0.0939    8.2022 F   0  0  0  0  0  0  0  0  0  0  0  0
    5.5876   -2.0168    8.4199 F   0  0  0  0  0  0  0  0  0  0  0  0
    4.0558   -1.1091    9.6651 F   0  0  0  0  0  0  0  0  0  0  0  0
    0.0732   -4.4984    4.9083 C   0  0  0  0  0  0  0  0  0  0  0  0
   -1.3001   -6.6451   -1.2065 C   0  0  0  0  0  0  0  0  0  0  0  0
    0.3705   -4.9770   -1.6255 C   0  0  0  0  0  0  0  0  0  0  0  0
   -0.5914   -5.9237   -2.3400 C   0  0  0  0  0  0  0  0  0  0  0  0
    0.4744   -5.7365    2.7134 H   0  0  0  0  0  0  0  0  0  0  0  0
    3.5906    0.3752    6.2620 H   0  0  0  0  0  0  0  0  0  0  0  0
    1.9041   -0.3581    4.6031 H   0  0  0  0  0  0  0  0  0  0  0  0
    0.5226   -7.6402    1.4899 H   0  0  0  0  0  0  0  0  0  0  0  0
   -0.9670   -8.3632    0.8674 H   0  0  0  0  0  0  0  0  0  0  0  0
    3.1353   -3.4408    8.1998 H   0  0  0  0  0  0  0  0  0  0  0  0
    0.9635   -5.1350    4.9287 H   0  0  0  0  0  0  0  0  0  0  0  0
   -0.3221   -4.4295    5.9284 H   0  0  0  0  0  0  0  0  0  0  0  0
   -2.1600   -6.0751   -0.8410 H   0  0  0  0  0  0  0  0  0  0  0  0
   -1.6100   -7.6550   -1.4917 H   0  0  0  0  0  0  0  0  0  0  0  0
   -0.1100   -4.0198   -1.4025 H   0  0  0  0  0  0  0  0  0  0  0  0
    1.2859   -4.8194   -2.2013 H   0  0  0  0  0  0  0  0  0  0  0  0
   -1.2804   -5.4050   -3.0134 H   0  0  0  0  0  0  0  0  0  0  0  0
   -0.0176   -6.6428   -2.9387 H   0  0  0  0  0  0  0  0  0  0  0  0
  2  1  1  0  0  0  0
  3 11  1  0  0  0  0
  4  3  1  0  0  0  0
  5 14  2  0  0  0  0
  6  5  1  0  0  0  0
  6 10  2  0  0  0  0
  7  8  1  0  0  0  0
  8 12  1  0  0  0  0
  8 25  1  0  0  0  0
  9  2  2  0  0  0  0
  9 26  1  0  0  0  0
 10  9  1  0  0  0  0
 10 27  1  0  0  0  0
 11  7  1  0  0  0  0
 11 28  1  0  0  0  0
 11 29  1  0  0  0  0
 12 21  1  0  0  0  0
 13  6  1  0  0  0  0
 14  2  1  0  0  0  0
 14 30  1  0  0  0  0
 15  4  2  0  0  0  0
 16  7  2  0  0  0  0
 17 12  2  0  0  0  0
 18  1  1  0  0  0  0
 19  1  1  0  0  0  0
 20  1  1  0  0  0  0
 21 13  1  0  0  0  0
 21 31  1  0  0  0  0
 21 32  1  0  0  0  0
 22  3  1  0  0  0  0
 22 33  1  0  0  0  0
 22 34  1  0  0  0  0
 23  4  1  0  0  0  0
 23 24  1  0  0  0  0
 23 35  1  0  0  0  0
 23 36  1  0  0  0  0
 24 22  1  0  0  0  0
 24 37  1  0  0  0  0
 24 38  1  0  0  0  0
M  END
>  <Mol_ID>
9306

>  <Formula>
C14H13ClF3N3O3S

>  <MolWeight>
395.7845296

>  <Cat>
P3128

>  <Name>
WAY-643578

>  <Synonyms>
N/A

>  <Target>
MCL-1

>  <Form>
free base

>  <CAS>
956910-01-3

>  <URL>
N/A

$$$$
