WAY-657191
 OpenBabel08302521423D

 31 32  0  0  0  0  0  0  0  0999 V2000
    0.9588   -0.1091   -0.0255 C   0  0  0  0  0  0  0  0  0  0  0  0
    0.2703   -0.9247    1.0024 C   0  0  0  0  0  0  0  0  0  0  0  0
    0.3107    0.5295   -0.8436 O   0  0  0  0  0  0  0  0  0  0  0  0
   -1.7237   -1.1940    2.3485 N   0  0  0  0  0  0  0  0  0  0  0  0
    2.3353   -0.0923    0.0336 N   0  0  0  0  0  0  0  0  0  0  0  0
   -1.0112   -0.5538    1.3939 C   0  0  0  0  0  0  0  0  0  0  0  0
    5.7832   -3.5245   -1.1791 C   0  0  0  0  0  0  0  0  0  0  0  0
    5.0920   -0.8434   -0.8571 C   0  0  0  0  0  0  0  0  0  0  0  0
    6.0851   -4.8212   -1.3231 F   0  0  0  0  0  0  0  0  0  0  0  0
    5.9868   -2.9068    0.0498 C   0  0  0  0  0  0  0  0  0  0  0  0
    5.2636   -2.8203   -2.2561 C   0  0  0  0  0  0  0  0  0  0  0  0
    4.9260   -1.4771   -2.0998 C   0  0  0  0  0  0  0  0  0  0  0  0
    5.6456   -1.5644    0.2119 C   0  0  0  0  0  0  0  0  0  0  0  0
    3.1127    0.7265   -0.8785 C   0  0  0  0  0  0  0  0  0  0  0  0
    0.8450   -2.0402    1.6156 C   0  0  0  0  0  0  0  0  0  0  0  0
   -1.1354   -2.2593    2.9346 C   0  0  0  0  0  0  0  0  0  0  0  0
    4.6224    0.5804   -0.6576 C   0  0  0  0  0  0  0  0  0  0  0  0
    0.1306   -2.7178    2.6031 C   0  0  0  0  0  0  0  0  0  0  0  0
    2.8241   -0.6016    0.7561 H   0  0  0  0  0  0  0  0  0  0  0  0
   -1.5076    0.3060    0.9465 H   0  0  0  0  0  0  0  0  0  0  0  0
    6.4015   -3.4786    0.8736 H   0  0  0  0  0  0  0  0  0  0  0  0
    5.1098   -3.3216   -3.2066 H   0  0  0  0  0  0  0  0  0  0  0  0
    4.5077   -0.9349   -2.9457 H   0  0  0  0  0  0  0  0  0  0  0  0
    5.8011   -1.0915    1.1792 H   0  0  0  0  0  0  0  0  0  0  0  0
    2.8298    0.4537   -1.9014 H   0  0  0  0  0  0  0  0  0  0  0  0
    2.8111    1.7680   -0.7253 H   0  0  0  0  0  0  0  0  0  0  0  0
    1.8266   -2.4047    1.3310 H   0  0  0  0  0  0  0  0  0  0  0  0
   -1.7264   -2.7528    3.7014 H   0  0  0  0  0  0  0  0  0  0  0  0
    5.1668    1.2381   -1.3452 H   0  0  0  0  0  0  0  0  0  0  0  0
    4.8717    0.9148    0.3584 H   0  0  0  0  0  0  0  0  0  0  0  0
    0.5503   -3.5853    3.1007 H   0  0  0  0  0  0  0  0  0  0  0  0
  2  1  1  0  0  0  0
  3  1  2  0  0  0  0
  4  6  2  0  0  0  0
  5  1  1  0  0  0  0
  5 19  1  0  0  0  0
  6  2  1  0  0  0  0
  6 20  1  0  0  0  0
  7 10  2  0  0  0  0
  7 11  1  0  0  0  0
  8 17  1  0  0  0  0
  9  7  1  0  0  0  0
 10 13  1  0  0  0  0
 10 21  1  0  0  0  0
 11 12  2  0  0  0  0
 11 22  1  0  0  0  0
 12  8  1  0  0  0  0
 12 23  1  0  0  0  0
 13  8  2  0  0  0  0
 13 24  1  0  0  0  0
 14  5  1  0  0  0  0
 14 25  1  0  0  0  0
 14 26  1  0  0  0  0
 15  2  2  0  0  0  0
 15 27  1  0  0  0  0
 16 18  2  0  0  0  0
 16  4  1  0  0  0  0
 16 28  1  0  0  0  0
 17 14  1  0  0  0  0
 17 29  1  0  0  0  0
 17 30  1  0  0  0  0
 18 15  1  0  0  0  0
 18 31  1  0  0  0  0
M  END
>  <Mol_ID>
8541

>  <Formula>
C14H13FN2O

>  <MolWeight>
244.2642232

>  <Cat>
P3152

>  <Name>
WAY-657191

>  <Synonyms>
N/A

>  <Target>
nitric oxide synthetase

>  <Form>
free base

>  <CAS>
852934-82-8

>  <URL>
N/A

$$$$
