WAY-382420
 OpenBabel08302521443D

 26 28  0  0  0  0  0  0  0  0999 V2000
    0.2057    0.6828    0.0104 C   0  0  0  0  0  0  0  0  0  0  0  0
    0.0999   -0.6955    0.0115 C   0  0  0  0  0  0  0  0  0  0  0  0
   -1.0442    1.4304    0.0131 C   0  0  0  0  0  0  0  0  0  0  0  0
   -2.2021    0.6221   -0.0456 N   0  0  0  0  0  0  0  0  0  0  0  0
   -1.0334   -1.4391    0.0161 N   0  0  0  0  0  0  0  0  0  0  0  0
    1.5797    1.1110   -0.0170 C   0  0  0  0  0  0  0  0  0  0  0  0
   -2.1486   -0.7667   -0.0310 C   0  0  0  0  0  0  0  0  0  0  0  0
    1.6197   -1.4661   -0.0219 S   0  0  0  0  0  0  0  0  0  0  0  0
    2.4398    0.0299   -0.0573 C   0  0  0  0  0  0  0  0  0  0  0  0
    2.0965    2.5190   -0.0180 C   0  0  0  0  0  0  0  0  0  0  0  0
   -1.1328    2.6579    0.0588 O   0  0  0  0  0  0  0  0  0  0  0  0
    1.3140    3.6339    0.0726 O   0  0  0  0  0  0  0  0  0  0  0  0
   -3.4599    1.3033   -0.1481 N   0  0  0  0  0  0  0  0  0  0  0  0
    3.4209    2.9197   -0.1020 C   0  0  0  0  0  0  0  0  0  0  0  0
    2.1214    4.7207    0.0486 C   0  0  0  0  0  0  0  0  0  0  0  0
    3.4337    4.3368   -0.0609 C   0  0  0  0  0  0  0  0  0  0  0  0
   -3.4336   -1.5578   -0.0574 C   0  0  0  0  0  0  0  0  0  0  0  0
    3.5193    0.0272   -0.0983 H   0  0  0  0  0  0  0  0  0  0  0  0
   -3.2285    2.3040   -0.2339 H   0  0  0  0  0  0  0  0  0  0  0  0
   -3.9183    1.2316    0.7619 H   0  0  0  0  0  0  0  0  0  0  0  0
    4.2855    2.2774   -0.1876 H   0  0  0  0  0  0  0  0  0  0  0  0
    1.6183    5.6752    0.1161 H   0  0  0  0  0  0  0  0  0  0  0  0
    4.2909    4.9933   -0.1051 H   0  0  0  0  0  0  0  0  0  0  0  0
   -3.4338   -2.1943   -0.9475 H   0  0  0  0  0  0  0  0  0  0  0  0
   -3.4670   -2.2038    0.8258 H   0  0  0  0  0  0  0  0  0  0  0  0
   -4.3364   -0.9485   -0.0701 H   0  0  0  0  0  0  0  0  0  0  0  0
  2  1  2  0  0  0  0
  3  1  1  0  0  0  0
  4  3  1  0  0  0  0
  5  2  1  0  0  0  0
  6  1  1  0  0  0  0
  7  4  1  0  0  0  0
  7  5  2  0  0  0  0
  8  2  1  0  0  0  0
  8  9  1  0  0  0  0
  9  6  2  0  0  0  0
  9 18  1  0  0  0  0
 10  6  1  0  0  0  0
 11  3  2  0  0  0  0
 12 10  1  0  0  0  0
 13  4  1  0  0  0  0
 13 19  1  0  0  0  0
 13 20  1  0  0  0  0
 14 10  2  0  0  0  0
 14 21  1  0  0  0  0
 15 12  1  0  0  0  0
 15 16  2  0  0  0  0
 15 22  1  0  0  0  0
 16 14  1  0  0  0  0
 16 23  1  0  0  0  0
 17  7  1  0  0  0  0
 17 24  1  0  0  0  0
 17 25  1  0  0  0  0
 17 26  1  0  0  0  0
M  END
>  <Mol_ID>
9020

>  <Formula>
C11H9N3O2S

>  <MolWeight>
247.27306

>  <Cat>
P2807

>  <Name>
WAY-382420

>  <Synonyms>
N/A

>  <Target>
Anti-infection

>  <Form>
free base

>  <CAS>
301688-22-2

>  <URL>
N/A

$$$$
