WAY-637686
 OpenBabel08302521423D

 34 35  0  0  0  0  0  0  0  0999 V2000
   -1.3490   -0.7893   -0.0007 C   0  0  0  0  0  0  0  0  0  0  0  0
   -0.4735   -0.3906   -1.0820 C   0  0  0  0  0  0  0  0  0  0  0  0
   -2.5900   -6.0348   -2.1579 C   0  0  0  0  0  0  0  0  0  0  0  0
    0.4818    0.1598    0.8706 N   0  0  0  0  0  0  0  0  0  0  0  0
   -0.7267   -0.3906    1.1740 C   0  0  0  0  0  0  0  0  0  0  0  0
    0.6709    0.1460   -0.4869 C   0  0  0  0  0  0  0  0  0  0  0  0
   -2.4994   -5.1576   -0.9339 C   0  0  0  0  0  0  0  0  0  0  0  0
   -0.6645   -0.4789   -2.5401 C   0  0  0  0  0  0  0  0  0  0  0  0
   -2.6983   -1.4384   -0.0400 C   0  0  0  0  0  0  0  0  0  0  0  0
   -2.5054   -3.7568   -1.0456 C   0  0  0  0  0  0  0  0  0  0  0  0
   -2.5159   -2.9342    0.0925 C   0  0  0  0  0  0  0  0  0  0  0  0
    0.2862   -0.6272   -3.3108 O   0  0  0  0  0  0  0  0  0  0  0  0
   -2.6560   -5.3372   -3.3271 F   0  0  0  0  0  0  0  0  0  0  0  0
   -1.5335   -6.8818   -2.2840 F   0  0  0  0  0  0  0  0  0  0  0  0
   -3.7009   -6.8260   -2.1406 F   0  0  0  0  0  0  0  0  0  0  0  0
    1.9360    0.6989   -1.0519 C   0  0  0  0  0  0  0  0  0  0  0  0
   -2.4575   -5.7368    0.3420 C   0  0  0  0  0  0  0  0  0  0  0  0
   -2.4275   -4.9324    1.4807 C   0  0  0  0  0  0  0  0  0  0  0  0
   -2.0506   -0.3629   -3.1179 C   0  0  0  0  0  0  0  0  0  0  0  0
   -2.4606   -3.5412    1.3570 C   0  0  0  0  0  0  0  0  0  0  0  0
    1.1395    0.5316    1.5447 H   0  0  0  0  0  0  0  0  0  0  0  0
   -1.0485   -0.4638    2.2044 H   0  0  0  0  0  0  0  0  0  0  0  0
   -3.3204   -1.0725    0.7866 H   0  0  0  0  0  0  0  0  0  0  0  0
   -3.2545   -1.2046   -0.9490 H   0  0  0  0  0  0  0  0  0  0  0  0
   -2.5390   -3.3081   -2.0358 H   0  0  0  0  0  0  0  0  0  0  0  0
    1.9585    1.7875   -0.9310 H   0  0  0  0  0  0  0  0  0  0  0  0
    2.8024    0.2805   -0.5265 H   0  0  0  0  0  0  0  0  0  0  0  0
    2.0605    0.4777   -2.1133 H   0  0  0  0  0  0  0  0  0  0  0  0
   -2.4611   -6.8208    0.4516 H   0  0  0  0  0  0  0  0  0  0  0  0
   -2.4051   -5.3899    2.4675 H   0  0  0  0  0  0  0  0  0  0  0  0
   -2.4826   -1.3566   -3.2473 H   0  0  0  0  0  0  0  0  0  0  0  0
   -2.6915    0.2591   -2.4893 H   0  0  0  0  0  0  0  0  0  0  0  0
   -1.9907    0.1240   -4.0966 H   0  0  0  0  0  0  0  0  0  0  0  0
   -2.4733   -2.9317    2.2587 H   0  0  0  0  0  0  0  0  0  0  0  0
  2  1  1  0  0  0  0
  3  7  1  0  0  0  0
  4  5  1  0  0  0  0
  4  6  1  0  0  0  0
  4 21  1  0  0  0  0
  5  1  2  0  0  0  0
  5 22  1  0  0  0  0
  6  2  2  0  0  0  0
  7 10  2  0  0  0  0
  8  2  1  0  0  0  0
  9  1  1  0  0  0  0
  9 23  1  0  0  0  0
  9 24  1  0  0  0  0
 10 11  1  0  0  0  0
 10 25  1  0  0  0  0
 11  9  1  0  0  0  0
 12  8  2  0  0  0  0
 13  3  1  0  0  0  0
 14  3  1  0  0  0  0
 15  3  1  0  0  0  0
 16  6  1  0  0  0  0
 16 26  1  0  0  0  0
 16 27  1  0  0  0  0
 16 28  1  0  0  0  0
 17 18  2  0  0  0  0
 17  7  1  0  0  0  0
 17 29  1  0  0  0  0
 18 20  1  0  0  0  0
 18 30  1  0  0  0  0
 19  8  1  0  0  0  0
 19 31  1  0  0  0  0
 19 32  1  0  0  0  0
 19 33  1  0  0  0  0
 20 11  2  0  0  0  0
 20 34  1  0  0  0  0
M  END
>  <Mol_ID>
8489

>  <Formula>
C15H14F3NO

>  <MolWeight>
281.2729696

>  <Cat>
P3022

>  <Name>
WAY-637686

>  <Synonyms>
N/A

>  <Target>
PfDHODH

>  <Form>
free base

>  <CAS>
790719-58-3

>  <URL>
N/A

$$$$
