WAY-238182
 OpenBabel08302521403D

 36 38  0  0  0  0  0  0  0  0999 V2000
    0.2235   -1.2524   -0.0422 C   0  0  0  0  0  0  0  0  0  0  0  0
    1.2651   -0.7208    0.5634 N   0  0  0  0  0  0  0  0  0  0  0  0
    1.2539    0.6643    0.4253 C   0  0  0  0  0  0  0  0  0  0  0  0
   -0.8658   -0.0982   -0.7419 S   0  0  0  0  0  0  0  0  0  0  0  0
   -0.0538   -2.5851   -0.1419 N   0  0  0  0  0  0  0  0  0  0  0  0
    0.1697    1.1672   -0.2655 C   0  0  0  0  0  0  0  0  0  0  0  0
   -1.3716   -6.5785   -0.5206 C   0  0  0  0  0  0  0  0  0  0  0  0
    2.3408    1.5118    0.9089 C   0  0  0  0  0  0  0  0  0  0  0  0
    0.4338   -3.4598    0.9237 C   0  0  0  0  0  0  0  0  0  0  0  0
    0.1058   -3.1610   -1.4806 C   0  0  0  0  0  0  0  0  0  0  0  0
   -0.3949   -5.4227   -0.4760 C   0  0  0  0  0  0  0  0  0  0  0  0
   -2.2460   -6.7718   -1.3510 O   0  0  0  0  0  0  0  0  0  0  0  0
   -0.7504   -4.4142   -1.5770 C   0  0  0  0  0  0  0  0  0  0  0  0
   -0.3917   -4.7520    0.9074 C   0  0  0  0  0  0  0  0  0  0  0  0
    3.6469    1.0101    0.9715 C   0  0  0  0  0  0  0  0  0  0  0  0
    2.1168    2.8510    1.2692 C   0  0  0  0  0  0  0  0  0  0  0  0
   -1.1547   -7.4868    0.4484 O   0  0  0  0  0  0  0  0  0  0  0  0
    4.4749    3.1732    1.6777 C   0  0  0  0  0  0  0  0  0  0  0  0
    4.7092    1.8387    1.3486 C   0  0  0  0  0  0  0  0  0  0  0  0
    3.1779    3.6779    1.6466 C   0  0  0  0  0  0  0  0  0  0  0  0
   -0.0559    2.1891   -0.5304 H   0  0  0  0  0  0  0  0  0  0  0  0
    0.3159   -2.9870    1.9068 H   0  0  0  0  0  0  0  0  0  0  0  0
    1.4989   -3.6855    0.7868 H   0  0  0  0  0  0  0  0  0  0  0  0
    1.1615   -3.4011   -1.6652 H   0  0  0  0  0  0  0  0  0  0  0  0
   -0.2081   -2.4678   -2.2696 H   0  0  0  0  0  0  0  0  0  0  0  0
    0.6010   -5.8297   -0.6878 H   0  0  0  0  0  0  0  0  0  0  0  0
   -0.6198   -4.8725   -2.5647 H   0  0  0  0  0  0  0  0  0  0  0  0
   -1.8091   -4.1319   -1.4989 H   0  0  0  0  0  0  0  0  0  0  0  0
   -1.4248   -4.5257    1.2042 H   0  0  0  0  0  0  0  0  0  0  0  0
    0.0023   -5.4433    1.6622 H   0  0  0  0  0  0  0  0  0  0  0  0
    3.8469   -0.0257    0.7048 H   0  0  0  0  0  0  0  0  0  0  0  0
    1.1144    3.2712    1.2615 H   0  0  0  0  0  0  0  0  0  0  0  0
   -1.8309   -8.1765    0.2742 H   0  0  0  0  0  0  0  0  0  0  0  0
    5.3021    3.8192    1.9602 H   0  0  0  0  0  0  0  0  0  0  0  0
    5.7213    1.4435    1.3763 H   0  0  0  0  0  0  0  0  0  0  0  0
    2.9893    4.7155    1.9099 H   0  0  0  0  0  0  0  0  0  0  0  0
  1  2  2  0  0  0  0
  3  2  1  0  0  0  0
  3  6  2  0  0  0  0
  4  1  1  0  0  0  0
  5  1  1  0  0  0  0
  6  4  1  0  0  0  0
  6 21  1  0  0  0  0
  7 11  1  0  0  0  0
  8  3  1  0  0  0  0
  9  5  1  0  0  0  0
  9 22  1  0  0  0  0
  9 23  1  0  0  0  0
 10  5  1  0  0  0  0
 10 24  1  0  0  0  0
 10 25  1  0  0  0  0
 11 13  1  0  0  0  0
 11 26  1  0  0  0  0
 12  7  2  0  0  0  0
 13 10  1  0  0  0  0
 13 27  1  0  0  0  0
 13 28  1  0  0  0  0
 14  9  1  0  0  0  0
 14 11  1  0  0  0  0
 14 29  1  0  0  0  0
 14 30  1  0  0  0  0
 15  8  2  0  0  0  0
 15 31  1  0  0  0  0
 16  8  1  0  0  0  0
 16 20  2  0  0  0  0
 16 32  1  0  0  0  0
 17  7  1  0  0  0  0
 17 33  1  0  0  0  0
 18 20  1  0  0  0  0
 18 19  2  0  0  0  0
 18 34  1  0  0  0  0
 19 15  1  0  0  0  0
 19 35  1  0  0  0  0
 20 36  1  0  0  0  0
M  END
>  <Mol_ID>
8322

>  <Formula>
C15H15ClN2O2S

>  <MolWeight>
322.8098

>  <Cat>
P2070

>  <Name>
WAY-238182

>  <Synonyms>
N/A

>  <Target>
GPR43

>  <Form>
free base

>  <CAS>
345990-26-3

>  <URL>
N/A

$$$$
