WAY-348105
 OpenBabel08302521393D

 31 32  0  0  0  0  0  0  0  0999 V2000
    0.6817   -0.1348    0.1600 C   0  0  0  0  0  0  0  0  0  0  0  0
    0.0863   -1.0703   -0.7021 N   0  0  0  0  0  0  0  0  0  0  0  0
    0.1613    1.2490    0.2414 C   0  0  0  0  0  0  0  0  0  0  0  0
   -1.7205    2.7737    0.3286 N   0  0  0  0  0  0  0  0  0  0  0  0
   -0.8398    3.7970    0.2915 C   0  0  0  0  0  0  0  0  0  0  0  0
   -1.1950    1.5247    0.3383 C   0  0  0  0  0  0  0  0  0  0  0  0
    1.6619   -0.3964    0.8599 O   0  0  0  0  0  0  0  0  0  0  0  0
    0.4999   -2.4823   -0.5884 C   0  0  3  0  0  0  0  0  0  0  0  0
    1.0451    2.3307    0.2696 C   0  0  0  0  0  0  0  0  0  0  0  0
    0.5365    3.6285    0.2930 C   0  0  0  0  0  0  0  0  0  0  0  0
   -1.0115   -0.7863   -1.6365 C   0  0  0  0  0  0  0  0  0  0  0  0
   -0.4962   -3.2849    0.2571 C   0  0  0  0  0  0  0  0  0  0  0  0
    0.7144   -3.1106   -1.9736 C   0  0  0  0  0  0  0  0  0  0  0  0
   -0.7996   -1.4171   -3.0067 C   0  0  0  0  0  0  0  0  0  0  0  0
   -0.4750   -2.8988   -2.9041 C   0  0  0  0  0  0  0  0  0  0  0  0
   -1.2843    4.7882    0.2694 H   0  0  0  0  0  0  0  0  0  0  0  0
   -1.9306    0.7297    0.4106 H   0  0  0  0  0  0  0  0  0  0  0  0
    1.4625   -2.5340   -0.0640 H   0  0  0  0  0  0  0  0  0  0  0  0
    2.1193    2.1633    0.2726 H   0  0  0  0  0  0  0  0  0  0  0  0
    1.1970    4.4882    0.3093 H   0  0  0  0  0  0  0  0  0  0  0  0
   -1.9357   -1.1623   -1.1825 H   0  0  0  0  0  0  0  0  0  0  0  0
   -1.1263    0.2859   -1.7971 H   0  0  0  0  0  0  0  0  0  0  0  0
   -1.5023   -3.2803   -0.1737 H   0  0  0  0  0  0  0  0  0  0  0  0
   -0.1761   -4.3288    0.3482 H   0  0  0  0  0  0  0  0  0  0  0  0
   -0.5721   -2.8667    1.2664 H   0  0  0  0  0  0  0  0  0  0  0  0
    1.5991   -2.6501   -2.4326 H   0  0  0  0  0  0  0  0  0  0  0  0
    0.9285   -4.1818   -1.8827 H   0  0  0  0  0  0  0  0  0  0  0  0
    0.0256   -0.9002   -3.5124 H   0  0  0  0  0  0  0  0  0  0  0  0
   -1.6961   -1.2693   -3.6199 H   0  0  0  0  0  0  0  0  0  0  0  0
   -0.2430   -3.2917   -3.9002 H   0  0  0  0  0  0  0  0  0  0  0  0
   -1.3494   -3.4495   -2.5390 H   0  0  0  0  0  0  0  0  0  0  0  0
  2  1  1  0  0  0  0
  3  1  1  0  0  0  0
  4  6  2  0  0  0  0
  4  5  1  0  0  0  0
  5 10  2  0  0  0  0
  5 16  1  0  0  0  0
  6  3  1  0  0  0  0
  6 17  1  0  0  0  0
  7  1  2  0  0  0  0
  8  2  1  0  0  0  0
  8 18  1  0  0  0  0
  9  3  2  0  0  0  0
  9 19  1  0  0  0  0
 10  9  1  0  0  0  0
 10 20  1  0  0  0  0
 11  2  1  0  0  0  0
 11 21  1  0  0  0  0
 11 22  1  0  0  0  0
 12  8  1  0  0  0  0
 12 23  1  0  0  0  0
 12 24  1  0  0  0  0
 12 25  1  0  0  0  0
 13  8  1  0  0  0  0
 13 15  1  0  0  0  0
 13 26  1  0  0  0  0
 13 27  1  0  0  0  0
 14 11  1  0  0  0  0
 14 28  1  0  0  0  0
 14 29  1  0  0  0  0
 15 14  1  0  0  0  0
 15 30  1  0  0  0  0
 15 31  1  0  0  0  0
M  END
>  <Mol_ID>
8045

>  <Formula>
C12H15ClN2O

>  <MolWeight>
238.7133

>  <Cat>
P2752

>  <Name>
WAY-348105

>  <Synonyms>
N/A

>  <Target>
mGluR

>  <Form>
free base

>  <CAS>
385408-28-6

>  <URL>
N/A

$$$$
