WAY-326075
 OpenBabel08302521433D

 48 52  0  0  0  0  0  0  0  0999 V2000
    0.2232   -0.7541    0.0422 C   0  0  0  0  0  0  0  0  0  0  0  0
    0.3106    0.6452    0.0238 N   0  0  0  0  0  0  0  0  0  0  0  0
    1.5255   -1.2218   -0.0487 C   0  0  0  0  0  0  0  0  0  0  0  0
   -0.8321    1.4348    0.0416 C   0  0  0  0  0  0  0  0  0  0  0  0
   -0.9885   -1.3892    0.1033 N   0  0  0  0  0  0  0  0  0  0  0  0
    1.6009    1.0672    0.0027 N   0  0  0  0  0  0  0  0  0  0  0  0
   -2.0437    0.8525    0.0854 C   0  0  0  0  0  0  0  0  0  0  0  0
    1.9694   -2.5983   -0.1966 C   0  0  0  0  0  0  0  0  0  0  0  0
    3.1291   -2.9948    0.4904 N   0  0  0  0  0  0  0  0  0  0  0  0
   -2.0628   -0.6463    0.0892 C   0  0  0  0  0  0  0  0  0  0  0  0
    2.3086   -0.0529   -0.1099 C   0  0  0  0  0  0  0  0  0  0  0  0
   -0.6293    2.9069    0.0193 C   0  0  0  0  0  0  0  0  0  0  0  0
    3.6719   -4.3150    0.1427 C   0  0  0  0  0  0  0  0  0  0  0  0
    4.5027   -4.9739    1.2202 C   0  0  0  0  0  0  0  0  0  0  0  0
    3.5942   -2.3720    1.7383 C   0  0  0  0  0  0  0  0  0  0  0  0
    1.3930   -3.3580   -0.9726 O   0  0  0  0  0  0  0  0  0  0  0  0
   -3.4124   -1.2925    0.0986 C   0  0  0  0  0  0  0  0  0  0  0  0
    5.2079   -4.1881    2.1463 C   0  0  0  0  0  0  0  0  0  0  0  0
    5.0530   -2.6965    2.0637 C   0  0  0  0  0  0  0  0  0  0  0  0
   -0.4852    3.3509   -1.2593 F   0  0  0  0  0  0  0  0  0  0  0  0
   -1.7266    3.5559    0.5066 F   0  0  0  0  0  0  0  0  0  0  0  0
    4.6188   -6.3684    1.2773 C   0  0  0  0  0  0  0  0  0  0  0  0
    6.0175   -4.7930    3.1129 C   0  0  0  0  0  0  0  0  0  0  0  0
   -4.5192   -0.7103   -0.5380 C   0  0  0  0  0  0  0  0  0  0  0  0
   -3.5635   -2.5307    0.7343 C   0  0  0  0  0  0  0  0  0  0  0  0
    5.4090   -6.9690    2.2584 C   0  0  0  0  0  0  0  0  0  0  0  0
    6.1082   -6.1833    3.1738 C   0  0  0  0  0  0  0  0  0  0  0  0
   -5.7625   -1.3478   -0.5138 C   0  0  0  0  0  0  0  0  0  0  0  0
   -4.8085   -3.1651    0.7558 C   0  0  0  0  0  0  0  0  0  0  0  0
   -5.9067   -2.5725    0.1358 C   0  0  0  0  0  0  0  0  0  0  0  0
   -2.9579    1.4261    0.1251 H   0  0  0  0  0  0  0  0  0  0  0  0
    3.3817    0.0238   -0.2345 H   0  0  0  0  0  0  0  0  0  0  0  0
    0.2300    3.2411    0.6077 H   0  0  0  0  0  0  0  0  0  0  0  0
    2.8595   -4.9871   -0.1545 H   0  0  0  0  0  0  0  0  0  0  0  0
    4.3114   -4.1613   -0.7364 H   0  0  0  0  0  0  0  0  0  0  0  0
    3.4729   -1.2896    1.7154 H   0  0  0  0  0  0  0  0  0  0  0  0
    2.9332   -2.7412    2.5331 H   0  0  0  0  0  0  0  0  0  0  0  0
    5.7213   -2.3088    1.2862 H   0  0  0  0  0  0  0  0  0  0  0  0
    5.3270   -2.2243    3.0138 H   0  0  0  0  0  0  0  0  0  0  0  0
    4.0884   -6.9947    0.5639 H   0  0  0  0  0  0  0  0  0  0  0  0
    6.5673   -4.1900    3.8310 H   0  0  0  0  0  0  0  0  0  0  0  0
   -4.4333    0.2243   -1.0847 H   0  0  0  0  0  0  0  0  0  0  0  0
   -2.7121   -3.0098    1.2136 H   0  0  0  0  0  0  0  0  0  0  0  0
    5.4800   -8.0525    2.3086 H   0  0  0  0  0  0  0  0  0  0  0  0
    6.7217   -6.6547    3.9361 H   0  0  0  0  0  0  0  0  0  0  0  0
   -6.6162   -0.8957   -1.0129 H   0  0  0  0  0  0  0  0  0  0  0  0
   -4.9175   -4.1269    1.2507 H   0  0  0  0  0  0  0  0  0  0  0  0
   -6.8734   -3.0716    0.1472 H   0  0  0  0  0  0  0  0  0  0  0  0
  2  1  1  0  0  0  0
  3  1  2  0  0  0  0
  4  2  1  0  0  0  0
  4  7  2  0  0  0  0
  5  1  1  0  0  0  0
  6  2  1  0  0  0  0
  6 11  2  0  0  0  0
  7 10  1  0  0  0  0
  7 31  1  0  0  0  0
  8  3  1  0  0  0  0
  9  8  1  0  0  0  0
 10  5  2  0  0  0  0
 11  3  1  0  0  0  0
 11 32  1  0  0  0  0
 12  4  1  0  0  0  0
 12 33  1  0  0  0  0
 13  9  1  0  0  0  0
 13 34  1  0  0  0  0
 13 35  1  0  0  0  0
 14 13  1  0  0  0  0
 15  9  1  0  0  0  0
 15 36  1  0  0  0  0
 15 37  1  0  0  0  0
 16  8  2  0  0  0  0
 17 10  1  0  0  0  0
 18 19  1  0  0  0  0
 18 14  2  0  0  0  0
 19 15  1  0  0  0  0
 19 38  1  0  0  0  0
 19 39  1  0  0  0  0
 20 12  1  0  0  0  0
 21 12  1  0  0  0  0
 22 14  1  0  0  0  0
 22 40  1  0  0  0  0
 23 18  1  0  0  0  0
 23 41  1  0  0  0  0
 24 17  2  0  0  0  0
 24 42  1  0  0  0  0
 25 17  1  0  0  0  0
 25 43  1  0  0  0  0
 26 22  2  0  0  0  0
 26 27  1  0  0  0  0
 26 44  1  0  0  0  0
 27 23  2  0  0  0  0
 27 45  1  0  0  0  0
 28 24  1  0  0  0  0
 28 46  1  0  0  0  0
 29 25  2  0  0  0  0
 29 47  1  0  0  0  0
 30 29  1  0  0  0  0
 30 28  2  0  0  0  0
 30 48  1  0  0  0  0
M  END
>  <Mol_ID>
8884

>  <Formula>
C23H18F2N4O

>  <MolWeight>
404.4120264

>  <Cat>
P2442

>  <Name>
WAY-326075

>  <Synonyms>
N/A

>  <Target>
11¦Â-HSD1

>  <Form>
free base

>  <CAS>
869709-61-5

>  <URL>
N/A

$$$$
