WAY-622192
 OpenBabel08302521443D

 33 35  0  0  0  0  0  0  0  0999 V2000
   -1.5379    7.9135    4.3174 N   0  3  0  0  0  0  0  0  0  0  0  0
   -5.7879   -2.8722    2.0892 N   0  0  0  0  0  0  0  0  0  0  0  0
   -3.4423   -2.5021    1.0919 S   0  0  0  0  0  0  0  0  0  0  0  0
   -4.9895   -3.2411    1.1107 C   0  0  0  0  0  0  0  0  0  0  0  0
   -3.9142   -1.4946    2.4049 C   0  0  0  0  0  0  0  0  0  0  0  0
   -2.1525    2.1732    4.0316 C   0  0  0  0  0  0  0  0  0  0  0  0
   -5.1922   -1.8586    2.8228 C   0  0  0  0  0  0  0  0  0  0  0  0
   -3.3338    1.5732    4.4413 N   0  0  0  0  0  0  0  0  0  0  0  0
   -3.2084   -0.4287    2.9916 C   0  0  0  0  0  0  0  0  0  0  0  0
   -1.6932    6.4533    4.2999 C   0  0  0  0  0  0  0  0  0  0  0  0
   -0.4828    8.3866    3.8728 O   0  5  0  0  0  0  0  0  0  0  0  0
   -2.0254    3.6583    4.2123 C   0  0  0  0  0  0  0  0  0  0  0  0
   -3.8440    0.3352    3.9775 C   0  0  0  0  0  0  0  0  0  0  0  0
   -2.4744    8.5845    4.7738 O   0  0  0  0  0  0  0  0  0  0  0  0
   -1.2154    1.5825    3.5079 O   0  0  0  0  0  0  0  0  0  0  0  0
   -5.7708   -1.1591    3.8985 C   0  0  0  0  0  0  0  0  0  0  0  0
   -0.6924    5.6558    3.7381 C   0  0  0  0  0  0  0  0  0  0  0  0
   -2.8501    5.8662    4.8290 C   0  0  0  0  0  0  0  0  0  0  0  0
   -0.8656    4.2683    3.6981 C   0  0  0  0  0  0  0  0  0  0  0  0
   -3.0166    4.4736    4.7813 C   0  0  0  0  0  0  0  0  0  0  0  0
   -5.0975   -0.0592    4.4533 C   0  0  0  0  0  0  0  0  0  0  0  0
   -5.3556   -4.2064    0.0389 C   0  0  0  0  0  0  0  0  0  0  0  0
   -3.9601    2.0949    5.0346 H   0  0  0  0  0  0  0  0  0  0  0  0
   -2.2266   -0.1836    2.6062 H   0  0  0  0  0  0  0  0  0  0  0  0
   -6.7589   -1.4407    4.2488 H   0  0  0  0  0  0  0  0  0  0  0  0
    0.2120    6.0893    3.3163 H   0  0  0  0  0  0  0  0  0  0  0  0
   -3.6391    6.4786    5.2672 H   0  0  0  0  0  0  0  0  0  0  0  0
   -0.0849    3.6606    3.2370 H   0  0  0  0  0  0  0  0  0  0  0  0
   -3.9391    4.0701    5.1829 H   0  0  0  0  0  0  0  0  0  0  0  0
   -5.5980    0.4991    5.2414 H   0  0  0  0  0  0  0  0  0  0  0  0
   -5.3979   -3.7015   -0.9315 H   0  0  0  0  0  0  0  0  0  0  0  0
   -4.6289   -5.0223   -0.0239 H   0  0  0  0  0  0  0  0  0  0  0  0
   -6.3402   -4.6408    0.2329 H   0  0  0  0  0  0  0  0  0  0  0  0
  2  7  1  0  0  0  0
  3  5  1  0  0  0  0
  4  3  1  0  0  0  0
  4  2  2  0  0  0  0
  5  9  1  0  0  0  0
  5  7  2  0  0  0  0
  6 12  1  0  0  0  0
  7 16  1  0  0  0  0
  8  6  1  0  0  0  0
  8 23  1  0  0  0  0
  9 13  2  0  0  0  0
  9 24  1  0  0  0  0
 10  1  1  0  0  0  0
 11  1  1  0  0  0  0
 12 20  1  0  0  0  0
 12 19  2  0  0  0  0
 13  8  1  0  0  0  0
 14  1  2  0  0  0  0
 15  6  2  0  0  0  0
 16 21  2  0  0  0  0
 16 25  1  0  0  0  0
 17 10  2  0  0  0  0
 17 26  1  0  0  0  0
 18 10  1  0  0  0  0
 18 27  1  0  0  0  0
 19 17  1  0  0  0  0
 19 28  1  0  0  0  0
 20 18  2  0  0  0  0
 20 29  1  0  0  0  0
 21 13  1  0  0  0  0
 21 30  1  0  0  0  0
 22  4  1  0  0  0  0
 22 31  1  0  0  0  0
 22 32  1  0  0  0  0
 22 33  1  0  0  0  0
M  CHG  2   1   1  11  -1
M  END
>  <Mol_ID>
9072

>  <Formula>
C15H11N3O3S

>  <MolWeight>
313.33114

>  <Cat>
P2993

>  <Name>
WAY-622192

>  <Synonyms>
N/A

>  <Target>
TRPV1

>  <Form>
free base

>  <CAS>
313535-68-1

>  <URL>
N/A

$$$$
