WAY-604914
 OpenBabel08302521413D

 54 58  0  0  0  0  0  0  0  0999 V2000
   -0.9556   -1.2190    0.6515 C   0  0  0  0  0  0  0  0  0  0  0  0
   -0.8631    1.5511    0.7846 N   0  0  0  0  0  0  0  0  0  0  0  0
   -2.0518    0.9241    0.9823 C   0  0  0  0  0  0  0  0  0  0  0  0
   -2.1039   -0.4690    0.9901 C   0  0  0  0  0  0  0  0  0  0  0  0
   -1.2227   -2.6295    0.2157 C   0  0  0  0  0  0  0  0  0  0  0  0
    0.2910   -0.5664    0.4585 C   0  0  0  0  0  0  0  0  0  0  0  0
    0.2604    0.8384    0.5424 C   0  0  0  0  0  0  0  0  0  0  0  0
   -1.6139   -9.9475    0.8627 C   0  0  0  0  0  0  0  0  0  0  0  0
   -1.6491   -8.6122    0.5207 C   0  0  0  0  0  0  0  0  0  0  0  0
   -0.9403   -5.7792   -0.1839 C   0  0  0  0  0  0  0  0  0  0  0  0
   -1.0980  -10.9045    0.0226 C   0  0  0  0  0  0  0  0  0  0  0  0
   -0.7456   -6.8831   -1.0012 N   0  0  0  0  0  0  0  0  0  0  0  0
   -1.9860  -10.4674    2.0666 O   0  0  0  0  0  0  0  0  0  0  0  0
   -3.2775    1.7956    0.8914 C   0  0  0  0  0  0  0  0  0  0  0  0
   -0.1252   -3.4205    0.2511 O   0  0  0  0  0  0  0  0  0  0  0  0
   -1.0557  -12.1333    0.6038 O   0  0  0  0  0  0  0  0  0  0  0  0
   -1.0550   -8.2314   -0.6865 C   0  0  0  0  0  0  0  0  0  0  0  0
   -1.4273  -11.7912    1.9568 C   0  0  0  0  0  0  0  0  0  0  0  0
   -2.3027   -2.9691   -0.2586 O   0  0  0  0  0  0  0  0  0  0  0  0
   -1.6269   -5.7521    0.8403 O   0  0  0  0  0  0  0  0  0  0  0  0
   -0.6406  -10.5853   -1.2346 C   0  0  0  0  0  0  0  0  0  0  0  0
   -3.1907    3.1502    0.4964 C   0  0  0  0  0  0  0  0  0  0  0  0
   -4.5842    1.2895    1.0130 C   0  0  0  0  0  0  0  0  0  0  0  0
   -0.1131   -4.5642   -0.6098 C   0  0  0  0  0  0  0  0  0  0  0  0
   -0.6141   -9.2292   -1.5866 C   0  0  0  0  0  0  0  0  0  0  0  0
   -5.5780    3.3136    0.0720 C   0  0  0  0  0  0  0  0  0  0  0  0
   -4.3173    3.8937    0.0709 C   0  0  0  0  0  0  0  0  0  0  0  0
   -5.7075    2.0275    0.5927 C   0  0  0  0  0  0  0  0  0  0  0  0
   -6.7443    3.8687   -0.3776 O   0  0  0  0  0  0  0  0  0  0  0  0
    1.5423   -1.1867    0.1529 C   0  0  0  0  0  0  0  0  0  0  0  0
    1.4349    1.5516    0.2911 C   0  0  0  0  0  0  0  0  0  0  0  0
   -6.6888    5.0978   -1.0928 C   0  0  0  0  0  0  0  0  0  0  0  0
    2.7023   -0.4571   -0.0800 C   0  0  0  0  0  0  0  0  0  0  0  0
    2.6455    0.9223   -0.0198 C   0  0  0  0  0  0  0  0  0  0  0  0
   -3.0459   -0.9890    1.1360 H   0  0  0  0  0  0  0  0  0  0  0  0
   -2.0604   -7.9064    1.2301 H   0  0  0  0  0  0  0  0  0  0  0  0
   -0.1798   -6.7539   -1.8389 H   0  0  0  0  0  0  0  0  0  0  0  0
   -0.5309  -11.8411    2.5914 H   0  0  0  0  0  0  0  0  0  0  0  0
   -2.1543  -12.5217    2.3235 H   0  0  0  0  0  0  0  0  0  0  0  0
   -0.2586  -11.3514   -1.8998 H   0  0  0  0  0  0  0  0  0  0  0  0
   -2.2172    3.6380    0.4558 H   0  0  0  0  0  0  0  0  0  0  0  0
   -4.7684    0.2860    1.3847 H   0  0  0  0  0  0  0  0  0  0  0  0
   -0.3602   -4.2705   -1.6385 H   0  0  0  0  0  0  0  0  0  0  0  0
    0.9330   -4.9025   -0.6228 H   0  0  0  0  0  0  0  0  0  0  0  0
   -0.1994   -8.9594   -2.5556 H   0  0  0  0  0  0  0  0  0  0  0  0
   -4.1561    4.9076   -0.2800 H   0  0  0  0  0  0  0  0  0  0  0  0
   -6.6923    1.5669    0.6342 H   0  0  0  0  0  0  0  0  0  0  0  0
    1.6601   -2.2618    0.1049 H   0  0  0  0  0  0  0  0  0  0  0  0
    1.4028    2.6327    0.3205 H   0  0  0  0  0  0  0  0  0  0  0  0
   -6.1155    5.8637   -0.5641 H   0  0  0  0  0  0  0  0  0  0  0  0
   -6.3062    4.9478   -2.1083 H   0  0  0  0  0  0  0  0  0  0  0  0
   -7.7155    5.4718   -1.1806 H   0  0  0  0  0  0  0  0  0  0  0  0
    3.6344   -0.9671   -0.3086 H   0  0  0  0  0  0  0  0  0  0  0  0
    3.5372    1.5135   -0.2154 H   0  0  0  0  0  0  0  0  0  0  0  0
  2  7  2  0  0  0  0
  2  3  1  0  0  0  0
  3  4  2  0  0  0  0
  4  1  1  0  0  0  0
  4 35  1  0  0  0  0
  5  1  1  0  0  0  0
  6  1  2  0  0  0  0
  7  6  1  0  0  0  0
  8  9  2  0  0  0  0
  9 17  1  0  0  0  0
  9 36  1  0  0  0  0
 10 24  1  0  0  0  0
 11 21  2  0  0  0  0
 11  8  1  0  0  0  0
 12 10  1  0  0  0  0
 12 37  1  0  0  0  0
 13  8  1  0  0  0  0
 14  3  1  0  0  0  0
 15  5  1  0  0  0  0
 16 11  1  0  0  0  0
 17 12  1  0  0  0  0
 18 13  1  0  0  0  0
 18 16  1  0  0  0  0
 18 38  1  0  0  0  0
 18 39  1  0  0  0  0
 19  5  2  0  0  0  0
 20 10  2  0  0  0  0
 21 25  1  0  0  0  0
 21 40  1  0  0  0  0
 22 14  2  0  0  0  0
 22 41  1  0  0  0  0
 23 14  1  0  0  0  0
 23 42  1  0  0  0  0
 24 15  1  0  0  0  0
 24 43  1  0  0  0  0
 24 44  1  0  0  0  0
 25 17  2  0  0  0  0
 25 45  1  0  0  0  0
 26 28  1  0  0  0  0
 27 22  1  0  0  0  0
 27 26  2  0  0  0  0
 27 46  1  0  0  0  0
 28 23  2  0  0  0  0
 28 47  1  0  0  0  0
 29 26  1  0  0  0  0
 30  6  1  0  0  0  0
 30 48  1  0  0  0  0
 31  7  1  0  0  0  0
 31 49  1  0  0  0  0
 32 29  1  0  0  0  0
 32 50  1  0  0  0  0
 32 51  1  0  0  0  0
 32 52  1  0  0  0  0
 33 30  2  0  0  0  0
 33 53  1  0  0  0  0
 34 33  1  0  0  0  0
 34 31  2  0  0  0  0
 34 54  1  0  0  0  0
M  END
>  <Mol_ID>
8460

>  <Formula>
C26H20N2O6

>  <MolWeight>
456.4468

>  <Cat>
P2842

>  <Name>
WAY-604914

>  <Synonyms>
N/A

>  <Target>
beta2 integrin

>  <Form>
free base

>  <CAS>
380190-92-1

>  <URL>
N/A

$$$$
