WAY-660418
 OpenBabel08302521443D

 36 38  0  0  0  0  0  0  0  0999 V2000
    1.2681   -0.0502   -0.0962 S   0  0  0  0  0  0  0  0  0  0  0  0
    0.2790    0.9273    0.8793 N   0  0  0  0  0  0  0  0  0  0  0  0
   -2.4220    1.4121   -0.0573 C   0  0  0  0  0  0  0  0  0  0  0  0
    2.6069   -0.5155    0.9949 C   0  0  0  0  0  0  0  0  0  0  0  0
    1.8366    0.7652   -1.1394 O   0  0  0  0  0  0  0  0  0  0  0  0
    0.5514   -1.2742   -0.4178 O   0  0  0  0  0  0  0  0  0  0  0  0
   -2.0333    0.1293    0.6856 C   0  0  0  0  0  0  0  0  0  0  0  0
   -1.2380    2.2701   -0.5336 C   0  0  0  0  0  0  0  0  0  0  0  0
   -0.8473    0.3259    1.6176 C   0  0  0  0  0  0  0  0  0  0  0  0
   -0.0554    2.2909    0.4221 C   0  0  0  0  0  0  0  0  0  0  0  0
   -3.1551    1.0236   -1.2414 O   0  0  0  0  0  0  0  0  0  0  0  0
   -3.2902    2.2143    0.7703 O   0  0  0  0  0  0  0  0  0  0  0  0
    2.5403   -1.7040    1.7302 C   0  0  0  0  0  0  0  0  0  0  0  0
    3.8068    0.2007    0.9267 C   0  0  0  0  0  0  0  0  0  0  0  0
    4.9003   -1.5078    2.2411 C   0  0  0  0  0  0  0  0  0  0  0  0
    4.9564   -0.3060    1.5357 C   0  0  0  0  0  0  0  0  0  0  0  0
    3.6880   -2.1863    2.3693 C   0  0  0  0  0  0  0  0  0  0  0  0
   -4.4750    1.5265   -1.0749 C   0  0  0  0  0  0  0  0  0  0  0  0
   -4.2950    2.6867   -0.1375 C   0  0  0  0  0  0  0  0  0  0  0  0
   -1.8084   -0.6555   -0.0447 H   0  0  0  0  0  0  0  0  0  0  0  0
   -2.8852   -0.2441    1.2686 H   0  0  0  0  0  0  0  0  0  0  0  0
   -0.9092    1.9107   -1.5133 H   0  0  0  0  0  0  0  0  0  0  0  0
   -1.5655    3.3071   -0.6845 H   0  0  0  0  0  0  0  0  0  0  0  0
   -0.5417   -0.6119    2.0899 H   0  0  0  0  0  0  0  0  0  0  0  0
   -1.1251    1.0050    2.4334 H   0  0  0  0  0  0  0  0  0  0  0  0
   -0.2877    2.8970    1.3064 H   0  0  0  0  0  0  0  0  0  0  0  0
    0.8100    2.7767   -0.0422 H   0  0  0  0  0  0  0  0  0  0  0  0
    1.6195   -2.2802    1.7780 H   0  0  0  0  0  0  0  0  0  0  0  0
    3.8677    1.1299    0.3602 H   0  0  0  0  0  0  0  0  0  0  0  0
    5.8063   -1.9213    2.6796 H   0  0  0  0  0  0  0  0  0  0  0  0
    5.9046    0.2166    1.4274 H   0  0  0  0  0  0  0  0  0  0  0  0
    3.6495   -3.1159    2.9349 H   0  0  0  0  0  0  0  0  0  0  0  0
   -4.8970    1.8055   -2.0449 H   0  0  0  0  0  0  0  0  0  0  0  0
   -5.0855    0.7356   -0.6283 H   0  0  0  0  0  0  0  0  0  0  0  0
   -3.9005    3.5650   -0.6618 H   0  0  0  0  0  0  0  0  0  0  0  0
   -5.2101    2.9656    0.3878 H   0  0  0  0  0  0  0  0  0  0  0  0
  2  1  1  0  0  0  0
  3  8  1  0  0  0  0
  4  1  1  0  0  0  0
  5  1  2  0  0  0  0
  6  1  2  0  0  0  0
  7  9  1  0  0  0  0
  7  3  1  0  0  0  0
  7 20  1  0  0  0  0
  7 21  1  0  0  0  0
  8 10  1  0  0  0  0
  8 22  1  0  0  0  0
  8 23  1  0  0  0  0
  9  2  1  0  0  0  0
  9 24  1  0  0  0  0
  9 25  1  0  0  0  0
 10  2  1  0  0  0  0
 10 26  1  0  0  0  0
 10 27  1  0  0  0  0
 11  3  1  0  0  0  0
 12  3  1  0  0  0  0
 13  4  2  0  0  0  0
 13 28  1  0  0  0  0
 14  4  1  0  0  0  0
 14 29  1  0  0  0  0
 15 16  1  0  0  0  0
 15 30  1  0  0  0  0
 16 14  2  0  0  0  0
 16 31  1  0  0  0  0
 17 13  1  0  0  0  0
 17 15  2  0  0  0  0
 17 32  1  0  0  0  0
 18 11  1  0  0  0  0
 18 33  1  0  0  0  0
 18 34  1  0  0  0  0
 19 12  1  0  0  0  0
 19 18  1  0  0  0  0
 19 35  1  0  0  0  0
 19 36  1  0  0  0  0
M  END
>  <Mol_ID>
9120

>  <Formula>
C13H16ClNO4S

>  <MolWeight>
317.78844

>  <Cat>
P3200

>  <Name>
WAY-660418

>  <Synonyms>
N/A

>  <Target>
¦Ã-secretase

>  <Form>
free base

>  <CAS>
871096-98-9

>  <URL>
N/A

$$$$
