WAY-606847
 OpenBabel08302521433D

 40 42  0  0  0  0  0  0  0  0999 V2000
   -1.2769    0.0690    0.4970 N   0  0  0  0  0  0  0  0  0  0  0  0
   -1.4876    0.1641    2.1716 S   0  0  0  0  0  0  0  0  0  0  0  0
   -0.8062   -1.2274   -0.0740 C   0  0  0  0  0  0  0  0  0  0  0  0
   -0.7002    1.2401   -0.2159 C   0  0  0  0  0  0  0  0  0  0  0  0
   -3.2020   -0.3032    2.2991 C   0  0  0  0  0  0  0  0  0  0  0  0
   -0.6928   -0.8718    2.7963 O   0  0  0  0  0  0  0  0  0  0  0  0
   -1.3852    1.5468    2.5830 O   0  0  0  0  0  0  0  0  0  0  0  0
    0.7372   -1.2959   -0.1259 C   0  0  0  0  0  0  0  0  0  0  0  0
    0.8347    1.1739   -0.2752 C   0  0  0  0  0  0  0  0  0  0  0  0
   -3.5526   -1.6473    2.4428 C   0  0  0  0  0  0  0  0  0  0  0  0
   -4.1885    0.6851    2.2375 C   0  0  0  0  0  0  0  0  0  0  0  0
    1.2665   -0.1201   -0.8349 N   0  0  0  0  0  0  0  0  0  0  0  0
   -4.9019   -2.0100    2.4408 C   0  0  0  0  0  0  0  0  0  0  0  0
   -5.5352    0.3162    2.2426 C   0  0  0  0  0  0  0  0  0  0  0  0
    2.6197   -0.1622   -1.1600 C   0  0  0  0  0  0  0  0  0  0  0  0
   -5.9004   -1.0356    2.3039 C   0  0  0  0  0  0  0  0  0  0  0  0
    3.2974   -1.3166   -1.0404 N   0  0  0  0  0  0  0  0  0  0  0  0
    3.1921    0.9584   -1.6366 N   0  0  0  0  0  0  0  0  0  0  0  0
   -7.3494   -1.4240    2.2315 C   0  0  0  0  0  0  0  0  0  0  0  0
    4.5981   -1.3198   -1.3953 C   0  0  0  0  0  0  0  0  0  0  0  0
    4.4889    0.9071   -1.9913 C   0  0  0  0  0  0  0  0  0  0  0  0
    5.2563   -0.2214   -1.8840 C   0  0  0  0  0  0  0  0  0  0  0  0
   -1.2094   -2.0750    0.4890 H   0  0  0  0  0  0  0  0  0  0  0  0
   -1.2144   -1.3100   -1.0893 H   0  0  0  0  0  0  0  0  0  0  0  0
   -1.1079    1.2370   -1.2351 H   0  0  0  0  0  0  0  0  0  0  0  0
   -1.0280    2.1825    0.2336 H   0  0  0  0  0  0  0  0  0  0  0  0
    1.1506   -1.3380    0.8892 H   0  0  0  0  0  0  0  0  0  0  0  0
    1.0057   -2.2259   -0.6420 H   0  0  0  0  0  0  0  0  0  0  0  0
    1.2549    1.3018    0.7297 H   0  0  0  0  0  0  0  0  0  0  0  0
    1.1659    2.0159   -0.8939 H   0  0  0  0  0  0  0  0  0  0  0  0
   -2.7886   -2.4153    2.5326 H   0  0  0  0  0  0  0  0  0  0  0  0
   -3.9190    1.7363    2.1640 H   0  0  0  0  0  0  0  0  0  0  0  0
   -5.1695   -3.0612    2.5271 H   0  0  0  0  0  0  0  0  0  0  0  0
   -6.2999    1.0878    2.1760 H   0  0  0  0  0  0  0  0  0  0  0  0
   -7.8602   -1.1780    3.1659 H   0  0  0  0  0  0  0  0  0  0  0  0
   -7.8374   -0.8976    1.4036 H   0  0  0  0  0  0  0  0  0  0  0  0
   -7.4632   -2.4967    2.0420 H   0  0  0  0  0  0  0  0  0  0  0  0
    5.1085   -2.2696   -1.2707 H   0  0  0  0  0  0  0  0  0  0  0  0
    4.8987    1.8353   -2.3775 H   0  0  0  0  0  0  0  0  0  0  0  0
    6.2980   -0.2437   -2.1672 H   0  0  0  0  0  0  0  0  0  0  0  0
  1  2  1  0  0  0  0
  1  3  1  0  0  0  0
  1  4  1  0  0  0  0
  2  5  1  0  0  0  0
  2  6  2  0  0  0  0
  2  7  2  0  0  0  0
  3  8  1  0  0  0  0
  3 23  1  0  0  0  0
  3 24  1  0  0  0  0
  4  9  1  0  0  0  0
  4 25  1  0  0  0  0
  4 26  1  0  0  0  0
  5 10  2  0  0  0  0
  5 11  1  0  0  0  0
  8 12  1  0  0  0  0
  8 27  1  0  0  0  0
  8 28  1  0  0  0  0
  9 12  1  0  0  0  0
  9 29  1  0  0  0  0
  9 30  1  0  0  0  0
 10 13  1  0  0  0  0
 10 31  1  0  0  0  0
 11 14  2  0  0  0  0
 11 32  1  0  0  0  0
 12 15  1  0  0  0  0
 13 16  2  0  0  0  0
 13 33  1  0  0  0  0
 14 16  1  0  0  0  0
 14 34  1  0  0  0  0
 15 17  2  0  0  0  0
 15 18  1  0  0  0  0
 16 19  1  0  0  0  0
 17 20  1  0  0  0  0
 18 21  2  0  0  0  0
 19 35  1  0  0  0  0
 19 36  1  0  0  0  0
 19 37  1  0  0  0  0
 20 22  2  0  0  0  0
 20 38  1  0  0  0  0
 21 22  1  0  0  0  0
 21 39  1  0  0  0  0
 22 40  1  0  0  0  0
M  END
>  <Mol_ID>
8733

>  <Formula>
C15H18N4O2S

>  <MolWeight>
318.39402

>  <Cat>
P2876

>  <Name>
WAY-606847

>  <Synonyms>
N/A

>  <Target>
HIV

>  <Form>
free base

>  <CAS>
380466-33-1

>  <URL>
N/A

$$$$
