WAY-332032
 OpenBabel08302521443D

 51 53  0  0  0  0  0  0  0  0999 V2000
   -1.3504    0.6517    0.5725 N   0  0  0  0  0  0  0  0  0  0  0  0
   -0.2198    1.1916   -0.0050 C   0  0  0  0  0  0  0  0  0  0  0  0
   -1.2178   -0.6526    0.3929 C   0  0  0  0  0  0  0  0  0  0  0  0
   -0.0583   -1.0120   -0.2448 O   0  0  0  0  0  0  0  0  0  0  0  0
    0.5695    0.1774   -0.5033 C   0  0  0  0  0  0  0  0  0  0  0  0
   -0.8799    5.6823   -0.0183 C   0  0  0  0  0  0  0  0  0  0  0  0
   -2.2681    5.8003    0.0228 N   0  0  0  0  0  0  0  0  0  0  0  0
   -0.2505    5.0924   -1.2633 C   0  0  0  0  0  0  0  0  0  0  0  0
   -0.7378    3.3647   -1.5425 S   0  0  3  0  0  0  0  0  0  0  0  0
    0.0005    2.6631   -0.0322 C   0  0  0  0  0  0  0  0  0  0  0  0
   -2.1243   -1.7337    0.7815 C   0  0  0  0  0  0  0  0  0  0  0  0
   -5.1369    6.5127    0.1359 N   0  0  0  0  0  0  0  0  0  0  0  0
   -0.1643    6.0193    0.9275 O   0  0  0  0  0  0  0  0  0  0  0  0
   -2.8601    6.3328    1.2583 C   0  0  0  0  0  0  0  0  0  0  0  0
   -3.0257    6.0844   -1.1989 C   0  0  0  0  0  0  0  0  0  0  0  0
    0.0480    2.8757   -2.7263 O   0  0  0  0  0  0  0  0  0  0  0  0
   -3.3607   -1.4174    1.3723 C   0  0  0  0  0  0  0  0  0  0  0  0
   -4.3844    6.1138    1.3416 C   0  0  0  0  0  0  0  0  0  0  0  0
   -4.5397    5.8714   -1.0479 C   0  0  0  0  0  0  0  0  0  0  0  0
   -4.2517   -2.4234    1.7723 C   0  0  0  0  0  0  0  0  0  0  0  0
    1.8537    0.1101   -1.2205 C   0  0  0  0  0  0  0  0  0  0  0  0
   -5.1934    7.9670   -0.0128 C   0  0  0  0  0  0  0  0  0  0  0  0
   -1.7977   -3.0813    0.5875 C   0  0  0  0  0  0  0  0  0  0  0  0
   -2.6825   -4.0924    0.9846 C   0  0  0  0  0  0  0  0  0  0  0  0
   -3.8989   -3.7627    1.5755 C   0  0  0  0  0  0  0  0  0  0  0  0
   -5.5663   -2.0788    2.4102 C   0  0  0  0  0  0  0  0  0  0  0  0
    0.8394    5.1368   -1.1804 H   0  0  0  0  0  0  0  0  0  0  0  0
   -0.5259    5.6811   -2.1434 H   0  0  0  0  0  0  0  0  0  0  0  0
   -0.4766    3.1203    0.8390 H   0  0  0  0  0  0  0  0  0  0  0  0
    1.0679    2.9034   -0.0147 H   0  0  0  0  0  0  0  0  0  0  0  0
   -2.3765    5.8632    2.1228 H   0  0  0  0  0  0  0  0  0  0  0  0
   -2.6255    7.4030    1.2989 H   0  0  0  0  0  0  0  0  0  0  0  0
   -2.8047    7.1254   -1.4630 H   0  0  0  0  0  0  0  0  0  0  0  0
   -2.6719    5.4668   -2.0263 H   0  0  0  0  0  0  0  0  0  0  0  0
   -3.6268   -0.3708    1.5191 H   0  0  0  0  0  0  0  0  0  0  0  0
   -4.5753    5.0442    1.5115 H   0  0  0  0  0  0  0  0  0  0  0  0
   -4.7879    6.6264    2.2236 H   0  0  0  0  0  0  0  0  0  0  0  0
   -4.7340    4.7915   -0.9818 H   0  0  0  0  0  0  0  0  0  0  0  0
   -5.0425    6.2087   -1.9600 H   0  0  0  0  0  0  0  0  0  0  0  0
    2.5739   -0.4960   -0.6615 H   0  0  0  0  0  0  0  0  0  0  0  0
    1.7162   -0.3411   -2.2062 H   0  0  0  0  0  0  0  0  0  0  0  0
    2.2840    1.1057   -1.3602 H   0  0  0  0  0  0  0  0  0  0  0  0
   -4.2080    8.4311   -0.1245 H   0  0  0  0  0  0  0  0  0  0  0  0
   -5.7937    8.2343   -0.8894 H   0  0  0  0  0  0  0  0  0  0  0  0
   -5.6862    8.4189    0.8545 H   0  0  0  0  0  0  0  0  0  0  0  0
   -0.8541   -3.3618    0.1313 H   0  0  0  0  0  0  0  0  0  0  0  0
   -2.4152   -5.1357    0.8310 H   0  0  0  0  0  0  0  0  0  0  0  0
   -4.5768   -4.5582    1.8832 H   0  0  0  0  0  0  0  0  0  0  0  0
   -6.3919   -2.5022    1.8290 H   0  0  0  0  0  0  0  0  0  0  0  0
   -5.6032   -2.4752    3.4302 H   0  0  0  0  0  0  0  0  0  0  0  0
   -5.7162   -0.9955    2.4640 H   0  0  0  0  0  0  0  0  0  0  0  0
  2  1  1  0  0  0  0
  3  1  2  0  0  0  0
  4  3  1  0  0  0  0
  4  5  1  0  0  0  0
  5  2  2  0  0  0  0
  6  8  1  0  0  0  0
  7  6  1  0  0  0  0
  8  9  1  0  0  0  0
  8 27  1  0  0  0  0
  8 28  1  0  0  0  0
  9 10  1  0  0  0  0
 10  2  1  0  0  0  0
 10 29  1  0  0  0  0
 10 30  1  0  0  0  0
 11  3  1  0  0  0  0
 12 19  1  0  0  0  0
 13  6  2  0  0  0  0
 14  7  1  0  0  0  0
 14 31  1  0  0  0  0
 14 32  1  0  0  0  0
 15  7  1  0  0  0  0
 15 33  1  0  0  0  0
 15 34  1  0  0  0  0
 16  9  2  0  0  0  0
 17 11  2  0  0  0  0
 17 35  1  0  0  0  0
 18 14  1  0  0  0  0
 18 12  1  0  0  0  0
 18 36  1  0  0  0  0
 18 37  1  0  0  0  0
 19 15  1  0  0  0  0
 19 38  1  0  0  0  0
 19 39  1  0  0  0  0
 20 17  1  0  0  0  0
 21  5  1  0  0  0  0
 21 40  1  0  0  0  0
 21 41  1  0  0  0  0
 21 42  1  0  0  0  0
 22 12  1  0  0  0  0
 22 43  1  0  0  0  0
 22 44  1  0  0  0  0
 22 45  1  0  0  0  0
 23 11  1  0  0  0  0
 23 46  1  0  0  0  0
 24 23  2  0  0  0  0
 24 47  1  0  0  0  0
 25 24  1  0  0  0  0
 25 20  2  0  0  0  0
 25 48  1  0  0  0  0
 26 20  1  0  0  0  0
 26 49  1  0  0  0  0
 26 50  1  0  0  0  0
 26 51  1  0  0  0  0
M  END
>  <Mol_ID>
9208

>  <Formula>
C19H25N3O3S

>  <MolWeight>
375.4851

>  <Cat>
P2680

>  <Name>
WAY-332032

>  <Synonyms>
N/A

>  <Target>
beta-catenin

>  <Form>
free base

>  <CAS>
958954-38-6

>  <URL>
N/A

$$$$
