WAY-607326
 OpenBabel08302521433D

 40 43  0  0  0  0  0  0  0  0999 V2000
    0.4641    0.6070    0.0545 C   0  0  0  0  0  0  0  0  0  0  0  0
    1.0034   -0.6483   -0.1363 C   0  0  0  0  0  0  0  0  0  0  0  0
   -0.9382    0.5807   -0.0382 C   0  0  0  0  0  0  0  0  0  0  0  0
    1.3599    1.7008    0.3205 C   0  0  0  0  0  0  0  0  0  0  0  0
    2.3236   -0.9403   -0.1843 N   0  0  0  0  0  0  0  0  0  0  0  0
   -0.2149   -1.8595   -0.2746 S   0  0  0  0  0  0  0  0  0  0  0  0
   -1.4133   -0.6960   -0.1430 C   0  0  0  0  0  0  0  0  0  0  0  0
   -2.0450    1.5677    0.0067 C   0  0  0  0  0  0  0  0  0  0  0  0
    2.7117    1.3319    0.4949 N   0  0  0  0  0  0  0  0  0  0  0  0
    0.9173    2.8480    0.3765 O   0  0  0  0  0  0  0  0  0  0  0  0
    3.1291    0.0303    0.1335 C   0  0  0  0  0  0  0  0  0  0  0  0
   -2.8940   -0.7903   -0.1362 C   0  0  0  0  0  0  0  0  0  0  0  0
   -3.2849    0.6623    0.2877 C   0  0  0  0  0  0  0  0  0  0  0  0
    3.5416    2.3537    1.0858 C   0  0  0  0  0  0  0  0  0  0  0  0
    4.8397   -0.3912    0.1554 S   0  0  0  0  0  0  0  0  0  0  0  0
    3.0622    3.0175    2.2353 C   0  0  0  0  0  0  0  0  0  0  0  0
    4.7413    2.8028    0.5241 C   0  0  0  0  0  0  0  0  0  0  0  0
    4.8967   -1.9182   -0.8363 C   0  0  0  0  0  0  0  0  0  0  0  0
    3.7307    4.1132    2.7830 C   0  0  0  0  0  0  0  0  0  0  0  0
    5.4172    3.8996    1.0804 C   0  0  0  0  0  0  0  0  0  0  0  0
    4.6342   -3.1503    0.0074 C   0  0  0  0  0  0  0  0  0  0  0  0
    4.9067    4.5605    2.1987 C   0  0  0  0  0  0  0  0  0  0  0  0
    3.3237   -3.8759   -0.1587 C   0  0  0  0  0  0  0  0  0  0  0  0
    5.4715   -3.5680    0.8128 O   0  0  0  0  0  0  0  0  0  0  0  0
   -2.1459    2.0492   -0.9715 H   0  0  0  0  0  0  0  0  0  0  0  0
   -1.9227    2.3324    0.7764 H   0  0  0  0  0  0  0  0  0  0  0  0
   -3.2767   -1.0168   -1.1357 H   0  0  0  0  0  0  0  0  0  0  0  0
   -3.2789   -1.5207    0.5824 H   0  0  0  0  0  0  0  0  0  0  0  0
   -4.1822    1.0167   -0.2294 H   0  0  0  0  0  0  0  0  0  0  0  0
   -3.4997    0.6796    1.3645 H   0  0  0  0  0  0  0  0  0  0  0  0
    2.1354    2.7003    2.7098 H   0  0  0  0  0  0  0  0  0  0  0  0
    5.1442    2.3679   -0.3852 H   0  0  0  0  0  0  0  0  0  0  0  0
    4.2467   -1.8858   -1.7163 H   0  0  0  0  0  0  0  0  0  0  0  0
    5.9172   -2.0262   -1.2251 H   0  0  0  0  0  0  0  0  0  0  0  0
    3.3146    4.6234    3.6479 H   0  0  0  0  0  0  0  0  0  0  0  0
    6.3347    4.2616    0.6223 H   0  0  0  0  0  0  0  0  0  0  0  0
    5.4159    5.4313    2.6045 H   0  0  0  0  0  0  0  0  0  0  0  0
    3.5207   -4.9385   -0.3278 H   0  0  0  0  0  0  0  0  0  0  0  0
    2.7258   -3.7505    0.7474 H   0  0  0  0  0  0  0  0  0  0  0  0
    2.7661   -3.5001   -1.0190 H   0  0  0  0  0  0  0  0  0  0  0  0
  1  2  2  0  0  0  0
  1  3  1  0  0  0  0
  1  4  1  0  0  0  0
  2  5  1  0  0  0  0
  2  6  1  0  0  0  0
  3  7  2  0  0  0  0
  3  8  1  0  0  0  0
  4  9  1  0  0  0  0
  4 10  2  0  0  0  0
  5 11  2  0  0  0  0
  6  7  1  0  0  0  0
  7 12  1  0  0  0  0
  8 13  1  0  0  0  0
  8 25  1  0  0  0  0
  8 26  1  0  0  0  0
  9 14  1  0  0  0  0
  9 11  1  0  0  0  0
 11 15  1  0  0  0  0
 12 13  1  0  0  0  0
 12 27  1  0  0  0  0
 12 28  1  0  0  0  0
 13 29  1  0  0  0  0
 13 30  1  0  0  0  0
 14 16  2  0  0  0  0
 14 17  1  0  0  0  0
 15 18  1  0  0  0  0
 16 19  1  0  0  0  0
 16 31  1  0  0  0  0
 17 20  2  0  0  0  0
 17 32  1  0  0  0  0
 18 21  1  0  0  0  0
 18 33  1  0  0  0  0
 18 34  1  0  0  0  0
 19 22  2  0  0  0  0
 19 35  1  0  0  0  0
 20 22  1  0  0  0  0
 20 36  1  0  0  0  0
 21 23  1  0  0  0  0
 21 24  2  0  0  0  0
 22 37  1  0  0  0  0
 23 38  1  0  0  0  0
 23 39  1  0  0  0  0
 23 40  1  0  0  0  0
M  END
>  <Mol_ID>
8739

>  <Formula>
C18H16N2O2S2

>  <MolWeight>
356.46184

>  <Cat>
P2886

>  <Name>
WAY-607326

>  <Synonyms>
N/A

>  <Target>
Anti-infection

>  <Form>
free base

>  <CAS>
315685-18-8

>  <URL>
N/A

$$$$
