WAY-311598
 OpenBabel08302521403D

 42 43  0  0  0  0  0  0  0  0999 V2000
    1.4268   -0.0636    0.2979 N   0  0  0  0  0  0  0  0  0  0  0  0
    0.7900    1.1941   -0.0976 C   0  0  0  0  0  0  0  0  0  0  0  0
    0.7336   -1.2643   -0.1524 C   0  0  0  0  0  0  0  0  0  0  0  0
    2.5495   -0.1128    1.0896 C   0  0  0  0  0  0  0  0  0  0  0  0
   -0.6623    1.2393    0.3791 C   0  0  0  0  0  0  0  0  0  0  0  0
   -0.7001   -1.2881    0.3540 C   0  0  0  0  0  0  0  0  0  0  0  0
    3.6608    0.6192    0.7265 N   0  0  0  0  0  0  0  0  0  0  0  0
    2.6564   -1.0280    2.4925 S   0  0  0  0  0  0  0  0  0  0  0  0
   -1.4552   -0.0100   -0.0477 C   0  0  0  0  0  0  0  0  0  0  0  0
    3.9626    1.1804   -0.5093 C   0  0  0  0  0  0  0  0  0  0  0  0
   -2.8643    0.0509    0.5316 C   0  0  0  0  0  0  0  0  0  0  0  0
    5.3005    1.8035   -0.6795 C   0  0  0  0  0  0  0  0  0  0  0  0
    3.2181    1.2154   -1.4807 O   0  0  0  0  0  0  0  0  0  0  0  0
   -3.3502   -1.1915    0.8012 O   0  0  0  0  0  0  0  0  0  0  0  0
   -3.5001    1.0888    0.6689 O   0  0  0  0  0  0  0  0  0  0  0  0
    6.4778    1.2750   -0.1365 C   0  0  0  0  0  0  0  0  0  0  0  0
    5.3664    2.9081   -1.5477 C   0  0  0  0  0  0  0  0  0  0  0  0
   -4.7021   -1.2644    1.2793 C   0  0  0  0  0  0  0  0  0  0  0  0
    7.7099    1.8439   -0.4868 C   0  0  0  0  0  0  0  0  0  0  0  0
    6.5938    3.4704   -1.8906 C   0  0  0  0  0  0  0  0  0  0  0  0
   -4.7608   -1.0170    2.7752 C   0  0  0  0  0  0  0  0  0  0  0  0
    7.7563    2.9263   -1.3642 C   0  0  0  0  0  0  0  0  0  0  0  0
    8.9409    3.4372   -1.7230 F   0  0  0  0  0  0  0  0  0  0  0  0
    0.8118    1.2626   -1.1907 H   0  0  0  0  0  0  0  0  0  0  0  0
    1.3375    2.0457    0.3204 H   0  0  0  0  0  0  0  0  0  0  0  0
    1.2724   -2.1667    0.1513 H   0  0  0  0  0  0  0  0  0  0  0  0
    0.7443   -1.2446   -1.2500 H   0  0  0  0  0  0  0  0  0  0  0  0
   -1.1411    2.1428   -0.0192 H   0  0  0  0  0  0  0  0  0  0  0  0
   -0.6841    1.3298    1.4728 H   0  0  0  0  0  0  0  0  0  0  0  0
   -0.7050   -1.3929    1.4461 H   0  0  0  0  0  0  0  0  0  0  0  0
   -1.2029   -2.1725   -0.0551 H   0  0  0  0  0  0  0  0  0  0  0  0
    4.4003    0.5642    1.4118 H   0  0  0  0  0  0  0  0  0  0  0  0
   -1.5715   -0.0031   -1.1398 H   0  0  0  0  0  0  0  0  0  0  0  0
    6.4703    0.3972    0.5030 H   0  0  0  0  0  0  0  0  0  0  0  0
    4.4542    3.3118   -1.9855 H   0  0  0  0  0  0  0  0  0  0  0  0
   -5.3520   -0.5742    0.7298 H   0  0  0  0  0  0  0  0  0  0  0  0
   -5.0556   -2.2785    1.0653 H   0  0  0  0  0  0  0  0  0  0  0  0
    8.6420    1.4334   -0.1086 H   0  0  0  0  0  0  0  0  0  0  0  0
    6.6454    4.3047   -2.5832 H   0  0  0  0  0  0  0  0  0  0  0  0
   -4.4719    0.0108    3.0154 H   0  0  0  0  0  0  0  0  0  0  0  0
   -5.7722   -1.1892    3.1551 H   0  0  0  0  0  0  0  0  0  0  0  0
   -4.0666   -1.6771    3.3053 H   0  0  0  0  0  0  0  0  0  0  0  0
  1  2  1  0  0  0  0
  1  3  1  0  0  0  0
  1  4  1  0  0  0  0
  2  5  1  0  0  0  0
  2 24  1  0  0  0  0
  2 25  1  0  0  0  0
  3  6  1  0  0  0  0
  3 26  1  0  0  0  0
  3 27  1  0  0  0  0
  4  7  1  0  0  0  0
  4  8  2  0  0  0  0
  5  9  1  0  0  0  0
  5 28  1  0  0  0  0
  5 29  1  0  0  0  0
  6  9  1  0  0  0  0
  6 30  1  0  0  0  0
  6 31  1  0  0  0  0
  7 10  1  0  0  0  0
  7 32  1  0  0  0  0
  9 11  1  0  0  0  0
  9 33  1  0  0  0  0
 10 12  1  0  0  0  0
 10 13  2  0  0  0  0
 11 14  1  0  0  0  0
 11 15  2  0  0  0  0
 12 16  2  0  0  0  0
 12 17  1  0  0  0  0
 14 18  1  0  0  0  0
 16 19  1  0  0  0  0
 16 34  1  0  0  0  0
 17 20  2  0  0  0  0
 17 35  1  0  0  0  0
 18 21  1  0  0  0  0
 18 36  1  0  0  0  0
 18 37  1  0  0  0  0
 19 22  2  0  0  0  0
 19 38  1  0  0  0  0
 20 22  1  0  0  0  0
 20 39  1  0  0  0  0
 21 40  1  0  0  0  0
 21 41  1  0  0  0  0
 21 42  1  0  0  0  0
 22 23  1  0  0  0  0
M  END
>  <Mol_ID>
8276

>  <Formula>
C16H19FN2O3S

>  <MolWeight>
338.3970632

>  <Cat>
P2208

>  <Name>
WAY-311598

>  <Synonyms>
N/A

>  <Target>
Glycosaminoglycan

>  <Form>
free base

>  <CAS>
327975-19-9

>  <URL>
N/A

$$$$
