WAY-309060
 OpenBabel08302521323D

 33 34  0  0  0  0  0  0  0  0999 V2000
    1.1387    0.0552    0.0556 C   0  0  0  0  0  0  0  0  0  0  0  0
    0.3075    0.1109   -1.1812 C   0  0  0  0  0  0  0  0  0  0  0  0
    0.6836   -0.7128   -2.2557 C   0  0  0  0  0  0  0  0  0  0  0  0
   -0.0149   -0.6945   -3.4730 C   0  0  0  0  0  0  0  0  0  0  0  0
   -1.1225    0.1630   -3.6017 C   0  0  0  0  0  0  0  0  0  0  0  0
   -1.5135    0.9554   -2.5078 C   0  0  0  0  0  0  0  0  0  0  0  0
   -0.8096    0.9343   -1.3023 C   0  0  0  0  0  0  0  0  0  0  0  0
    1.6698   -1.0157    0.3297 O   0  0  0  0  0  0  0  0  0  0  0  0
    1.2733    1.2482    0.7397 N   0  0  0  0  0  0  0  0  0  0  0  0
    3.6967    1.1133    3.2967 O   0  0  0  0  0  0  0  0  0  0  0  0
    2.9280    0.4888    2.3395 N   0  0  0  0  0  0  0  0  0  0  0  0
    2.1519    1.4308    1.7969 C   0  0  0  0  0  0  0  0  0  0  0  0
    2.3786    2.6794    2.4320 C   0  0  0  0  0  0  0  0  0  0  0  0
    3.3791    2.4318    3.3404 C   0  0  0  0  0  0  0  0  0  0  0  0
    4.1568    3.2522    4.2845 C   0  0  0  0  0  0  0  0  0  0  0  0
   -1.9326    0.3593   -4.6903 O   0  0  0  0  0  0  0  0  0  0  0  0
   -1.6406   -0.3257   -5.8997 C   0  0  0  0  0  0  0  0  0  0  0  0
    0.3317   -1.4753   -4.5417 O   0  0  0  0  0  0  0  0  0  0  0  0
    1.4711   -2.3190   -4.4279 C   0  0  0  0  0  0  0  0  0  0  0  0
    1.5417   -1.3650   -2.1111 H   0  0  0  0  0  0  0  0  0  0  0  0
   -2.3886    1.5959   -2.6055 H   0  0  0  0  0  0  0  0  0  0  0  0
   -1.1658    1.5407   -0.4758 H   0  0  0  0  0  0  0  0  0  0  0  0
    0.8222    2.0801    0.3933 H   0  0  0  0  0  0  0  0  0  0  0  0
    1.9117    3.6312    2.2322 H   0  0  0  0  0  0  0  0  0  0  0  0
    4.0832    2.8501    5.2995 H   0  0  0  0  0  0  0  0  0  0  0  0
    5.2131    3.2612    3.9957 H   0  0  0  0  0  0  0  0  0  0  0  0
    3.8006    4.2865    4.2983 H   0  0  0  0  0  0  0  0  0  0  0  0
   -0.6364   -0.0897   -6.2661 H   0  0  0  0  0  0  0  0  0  0  0  0
   -1.7981   -1.4031   -5.7885 H   0  0  0  0  0  0  0  0  0  0  0  0
   -2.3459    0.0279   -6.6585 H   0  0  0  0  0  0  0  0  0  0  0  0
    2.3775   -1.7386   -4.2261 H   0  0  0  0  0  0  0  0  0  0  0  0
    1.3129   -3.0918   -3.6688 H   0  0  0  0  0  0  0  0  0  0  0  0
    1.6089   -2.8211   -5.3903 H   0  0  0  0  0  0  0  0  0  0  0  0
  1  2  1  0  0  0  0
  1  8  2  0  0  0  0
  1  9  1  0  0  0  0
  2  3  2  0  0  0  0
  2  7  1  0  0  0  0
  3  4  1  0  0  0  0
  3 20  1  0  0  0  0
  4  5  2  0  0  0  0
  4 18  1  0  0  0  0
  5  6  1  0  0  0  0
  5 16  1  0  0  0  0
  6  7  2  0  0  0  0
  6 21  1  0  0  0  0
  7 22  1  0  0  0  0
  9 12  1  0  0  0  0
  9 23  1  0  0  0  0
 10 11  1  0  0  0  0
 10 14  1  0  0  0  0
 11 12  2  0  0  0  0
 12 13  1  0  0  0  0
 13 14  2  0  0  0  0
 13 24  1  0  0  0  0
 14 15  1  0  0  0  0
 15 25  1  0  0  0  0
 15 26  1  0  0  0  0
 15 27  1  0  0  0  0
 16 17  1  0  0  0  0
 17 28  1  0  0  0  0
 17 29  1  0  0  0  0
 17 30  1  0  0  0  0
 18 19  1  0  0  0  0
 19 31  1  0  0  0  0
 19 32  1  0  0  0  0
 19 33  1  0  0  0  0
M  END
>  <Mol_ID>
6307

>  <Formula>
C13H14N2O4

>  <MolWeight>
262.26126

>  <Cat>
E0536

>  <Name>
WAY-309060

>  <Target>
Others

>  <Form>
free base

>  <CAS>
309951-18-6

>  <URL>
http://www.selleckchem.com/products/way-309060.html

$$$$
