WAY-300768
 OpenBabel08302521413D

 33 34  0  0  0  0  0  0  0  0999 V2000
    1.0805   -1.4359    0.0180 C   0  0  0  0  0  0  0  0  0  0  0  0
   -0.1983   -0.6800   -0.1078 C   0  0  0  0  0  0  0  0  0  0  0  0
    1.0968   -2.9680    0.0964 C   0  0  0  0  0  0  0  0  0  0  0  0
    2.2359   -0.8743    0.1087 N   0  0  0  0  0  0  0  0  0  0  0  0
   -0.1393    0.7131   -0.0124 C   0  0  0  0  0  0  0  0  0  0  0  0
   -1.4532   -1.2910   -0.2472 C   0  0  0  0  0  0  0  0  0  0  0  0
    2.2257   -3.7691   -0.5688 C   0  0  0  0  0  0  0  0  0  0  0  0
    0.1278   -3.5383    0.7746 N   0  0  0  0  0  0  0  0  0  0  0  0
    2.4389    0.5736    0.0110 C   0  0  0  0  0  0  0  0  0  0  0  0
    1.1664    1.4379    0.1018 C   0  0  0  0  0  0  0  0  0  0  0  0
   -1.3252    1.4690    0.0149 C   0  0  0  0  0  0  0  0  0  0  0  0
   -2.6282   -0.5337   -0.2092 C   0  0  0  0  0  0  0  0  0  0  0  0
    2.6605   -4.8872    0.1015 N   0  0  0  0  0  0  0  0  0  0  0  0
    2.6867   -3.4389   -1.6534 O   0  0  0  0  0  0  0  0  0  0  0  0
    0.1361   -4.9356    0.7271 O   0  0  0  0  0  0  0  0  0  0  0  0
    3.1688    0.8463   -1.3171 C   0  0  0  0  0  0  0  0  0  0  0  0
    3.3767    0.9566    1.1698 C   0  0  0  0  0  0  0  0  0  0  0  0
   -2.5666    0.8470   -0.0651 C   0  0  0  0  0  0  0  0  0  0  0  0
   -1.5583   -2.3643   -0.3658 H   0  0  0  0  0  0  0  0  0  0  0  0
    1.1884    2.2082   -0.6836 H   0  0  0  0  0  0  0  0  0  0  0  0
    1.1483    1.9853    1.0510 H   0  0  0  0  0  0  0  0  0  0  0  0
   -1.2801    2.5526    0.1160 H   0  0  0  0  0  0  0  0  0  0  0  0
   -3.5956   -1.0277   -0.2791 H   0  0  0  0  0  0  0  0  0  0  0  0
    3.2617   -5.5159   -0.4032 H   0  0  0  0  0  0  0  0  0  0  0  0
    2.0055   -5.2817    0.7687 H   0  0  0  0  0  0  0  0  0  0  0  0
   -0.6996   -5.1676    1.1818 H   0  0  0  0  0  0  0  0  0  0  0  0
    3.4190    1.9097   -1.4225 H   0  0  0  0  0  0  0  0  0  0  0  0
    4.1032    0.2796   -1.3825 H   0  0  0  0  0  0  0  0  0  0  0  0
    2.5498    0.5589   -2.1745 H   0  0  0  0  0  0  0  0  0  0  0  0
    2.9200    0.7031    2.1349 H   0  0  0  0  0  0  0  0  0  0  0  0
    4.3271    0.4160    1.1097 H   0  0  0  0  0  0  0  0  0  0  0  0
    3.5948    2.0293    1.1693 H   0  0  0  0  0  0  0  0  0  0  0  0
   -3.4765    1.4364   -0.0181 H   0  0  0  0  0  0  0  0  0  0  0  0
  1  2  1  0  0  0  0
  1  3  1  0  0  0  0
  1  4  2  0  0  0  0
  2  5  2  0  0  0  0
  2  6  1  0  0  0  0
  3  7  1  0  0  0  0
  3  8  2  0  0  0  0
  4  9  1  0  0  0  0
  5 10  1  0  0  0  0
  5 11  1  0  0  0  0
  6 12  2  0  0  0  0
  6 19  1  0  0  0  0
  7 13  1  0  0  0  0
  7 14  2  0  0  0  0
  8 15  1  0  0  0  0
  9 16  1  0  0  0  0
  9 17  1  0  0  0  0
  9 10  1  0  0  0  0
 10 20  1  0  0  0  0
 10 21  1  0  0  0  0
 11 18  2  0  0  0  0
 11 22  1  0  0  0  0
 12 18  1  0  0  0  0
 12 23  1  0  0  0  0
 13 24  1  0  0  0  0
 13 25  1  0  0  0  0
 15 26  1  0  0  0  0
 16 27  1  0  0  0  0
 16 28  1  0  0  0  0
 16 29  1  0  0  0  0
 17 30  1  0  0  0  0
 17 31  1  0  0  0  0
 17 32  1  0  0  0  0
 18 33  1  0  0  0  0
M  END
>  <Mol_ID>
8421

>  <Formula>
C13H15N3O2

>  <MolWeight>
245.2771

>  <Cat>
P2154

>  <Name>
WAY-300768

>  <Synonyms>
N/A

>  <Target>
others

>  <Form>
free base

>  <CAS>
176902-76-4

>  <URL>
N/A

$$$$
