WAY-323260
 OpenBabel08302521423D

 31 33  0  0  0  0  0  0  0  0999 V2000
   -0.7943    0.2117   -0.0172 C   0  0  0  0  0  0  0  0  0  0  0  0
   -1.9832   -0.5526   -0.0258 C   0  0  0  0  0  0  0  0  0  0  0  0
   -1.8800   -1.9592    0.0430 C   0  0  0  0  0  0  0  0  0  0  0  0
   -3.1928    0.0550   -0.0829 N   0  0  0  0  0  0  0  0  0  0  0  0
    0.4566   -0.4605   -0.0099 C   0  0  0  0  0  0  0  0  0  0  0  0
   -2.9394   -2.8453    0.1575 O   0  0  0  0  0  0  0  0  0  0  0  0
   -0.6369   -2.6007    0.0161 C   0  0  0  0  0  0  0  0  0  0  0  0
    0.5319   -1.8536   -0.0117 C   0  0  0  0  0  0  0  0  0  0  0  0
   -4.1353   -2.2863    0.7164 C   0  0  0  0  0  0  0  0  0  0  0  0
    2.1180    0.4747    0.0041 Br  0  0  0  0  0  0  0  0  0  0  0  0
   -5.0465   -3.3386    1.2958 C   0  0  0  0  0  0  0  0  0  0  0  0
   -0.9401    1.6213   -0.0047 C   0  0  0  0  0  0  0  0  0  0  0  0
   -3.2875    1.3961   -0.0738 C   0  0  0  0  0  0  0  0  0  0  0  0
   -5.8250   -3.0149    2.4210 C   0  0  0  0  0  0  0  0  0  0  0  0
   -5.2144   -4.5882    0.6922 C   0  0  0  0  0  0  0  0  0  0  0  0
   -2.1944    2.2195   -0.0220 C   0  0  0  0  0  0  0  0  0  0  0  0
   -6.1246   -5.5083    1.2154 C   0  0  0  0  0  0  0  0  0  0  0  0
   -6.7315   -3.9341    2.9422 C   0  0  0  0  0  0  0  0  0  0  0  0
   -6.8811   -5.1797    2.3419 C   0  0  0  0  0  0  0  0  0  0  0  0
   -0.5867   -3.6875    0.0419 H   0  0  0  0  0  0  0  0  0  0  0  0
    1.4921   -2.3637   -0.0158 H   0  0  0  0  0  0  0  0  0  0  0  0
   -3.8787   -1.6059    1.5374 H   0  0  0  0  0  0  0  0  0  0  0  0
   -4.7037   -1.7770   -0.0687 H   0  0  0  0  0  0  0  0  0  0  0  0
   -0.0729    2.2754    0.0274 H   0  0  0  0  0  0  0  0  0  0  0  0
   -4.3003    1.7870   -0.0994 H   0  0  0  0  0  0  0  0  0  0  0  0
   -5.7339   -2.0363    2.8870 H   0  0  0  0  0  0  0  0  0  0  0  0
   -4.6430   -4.8465   -0.1987 H   0  0  0  0  0  0  0  0  0  0  0  0
   -2.3113    3.2962    0.0011 H   0  0  0  0  0  0  0  0  0  0  0  0
   -6.2497   -6.4771    0.7419 H   0  0  0  0  0  0  0  0  0  0  0  0
   -7.3310   -3.6698    3.8106 H   0  0  0  0  0  0  0  0  0  0  0  0
   -7.5916   -5.8956    2.7446 H   0  0  0  0  0  0  0  0  0  0  0  0
  2  1  1  0  0  0  0
  3  2  1  0  0  0  0
  3  7  2  0  0  0  0
  4  2  2  0  0  0  0
  4 13  1  0  0  0  0
  5  1  1  0  0  0  0
  6  3  1  0  0  0  0
  7  8  1  0  0  0  0
  7 20  1  0  0  0  0
  8  5  2  0  0  0  0
  8 21  1  0  0  0  0
  9  6  1  0  0  0  0
  9 22  1  0  0  0  0
  9 23  1  0  0  0  0
 10  5  1  0  0  0  0
 11  9  1  0  0  0  0
 12  1  2  0  0  0  0
 12 24  1  0  0  0  0
 13 16  2  0  0  0  0
 13 25  1  0  0  0  0
 14 11  2  0  0  0  0
 14 26  1  0  0  0  0
 15 11  1  0  0  0  0
 15 27  1  0  0  0  0
 16 12  1  0  0  0  0
 16 28  1  0  0  0  0
 17 15  2  0  0  0  0
 17 29  1  0  0  0  0
 18 14  1  0  0  0  0
 18 30  1  0  0  0  0
 19 17  1  0  0  0  0
 19 18  2  0  0  0  0
 19 31  1  0  0  0  0
M  END
>  <Mol_ID>
8570

>  <Formula>
C16H12BrNO

>  <MolWeight>
314.17658

>  <Cat>
P2254

>  <Name>
WAY-323260

>  <Synonyms>
N/A

>  <Target>
lipoprotein oxidation

>  <Form>
free base

>  <CAS>
853710-07-3

>  <URL>
N/A

$$$$
