WAY-272077
 OpenBabel08302521343D

 34 35  0  0  0  0  0  0  0  0999 V2000
    0.8240   -0.9326   -0.6143 C   0  0  0  0  0  0  0  0  0  0  0  0
   -0.0652   -1.6731    0.3248 C   0  0  0  0  0  0  0  0  0  0  0  0
   -1.0529   -1.0146    0.9536 C   0  0  0  0  0  0  0  0  0  0  0  0
    0.5876    0.2358   -0.9048 O   0  0  0  0  0  0  0  0  0  0  0  0
    1.8589   -1.7100   -1.0729 N   0  0  0  0  0  0  0  0  0  0  0  0
    3.8802   -2.3540   -2.5659 S   0  0  0  0  0  0  0  0  0  0  0  0
    2.8599   -1.1873   -1.8451 C   0  0  0  0  0  0  0  0  0  0  0  0
    3.1443    0.0638   -2.0970 N   0  0  0  0  0  0  0  0  0  0  0  0
    4.2116    0.1268   -2.9690 C   0  0  0  0  0  0  0  0  0  0  0  0
    4.7174   -1.0902   -3.3747 C   0  0  0  0  0  0  0  0  0  0  0  0
   -1.8402   -1.6426    2.0141 C   0  0  0  0  0  0  0  0  0  0  0  0
   -1.3690   -1.5813    3.3343 C   0  0  0  0  0  0  0  0  0  0  0  0
   -2.0800   -2.1639    4.3958 C   0  0  0  0  0  0  0  0  0  0  0  0
   -3.2871   -2.8293    4.1160 C   0  0  0  0  0  0  0  0  0  0  0  0
   -3.7517   -2.8821    2.7909 C   0  0  0  0  0  0  0  0  0  0  0  0
   -3.0389   -2.2941    1.7438 C   0  0  0  0  0  0  0  0  0  0  0  0
   -4.1289   -3.4771    4.9827 O   0  0  0  0  0  0  0  0  0  0  0  0
   -3.8131   -3.4974    6.3673 C   0  0  0  0  0  0  0  0  0  0  0  0
   -1.6487   -2.1135    5.6938 O   0  0  0  0  0  0  0  0  0  0  0  0
   -0.4271   -1.4472    5.9806 C   0  0  0  0  0  0  0  0  0  0  0  0
    0.1389   -2.7149    0.5307 H   0  0  0  0  0  0  0  0  0  0  0  0
   -1.2514    0.0390    0.7664 H   0  0  0  0  0  0  0  0  0  0  0  0
    1.8963   -2.7017   -0.8957 H   0  0  0  0  0  0  0  0  0  0  0  0
    4.5726    1.0963   -3.2913 H   0  0  0  0  0  0  0  0  0  0  0  0
    5.5179   -1.2867   -4.0732 H   0  0  0  0  0  0  0  0  0  0  0  0
   -0.4340   -1.0577    3.5097 H   0  0  0  0  0  0  0  0  0  0  0  0
   -4.6908   -3.3893    2.5783 H   0  0  0  0  0  0  0  0  0  0  0  0
   -3.4314   -2.3459    0.7320 H   0  0  0  0  0  0  0  0  0  0  0  0
   -2.8595   -4.0013    6.5548 H   0  0  0  0  0  0  0  0  0  0  0  0
   -3.8394   -2.4894    6.7933 H   0  0  0  0  0  0  0  0  0  0  0  0
   -4.5857   -4.0836    6.8747 H   0  0  0  0  0  0  0  0  0  0  0  0
    0.4171   -1.9543    5.5026 H   0  0  0  0  0  0  0  0  0  0  0  0
   -0.4722   -0.3909    5.6954 H   0  0  0  0  0  0  0  0  0  0  0  0
   -0.2715   -1.4900    7.0628 H   0  0  0  0  0  0  0  0  0  0  0  0
  1  2  1  0  0  0  0
  1  4  2  0  0  0  0
  1  5  1  0  0  0  0
  2  3  2  0  0  0  0
  2 21  1  0  0  0  0
  3 11  1  0  0  0  0
  3 22  1  0  0  0  0
  5  7  1  0  0  0  0
  5 23  1  0  0  0  0
  6  7  1  0  0  0  0
  6 10  1  0  0  0  0
  7  8  2  0  0  0  0
  8  9  1  0  0  0  0
  9 10  2  0  0  0  0
  9 24  1  0  0  0  0
 10 25  1  0  0  0  0
 11 12  2  0  0  0  0
 11 16  1  0  0  0  0
 12 13  1  0  0  0  0
 12 26  1  0  0  0  0
 13 14  2  0  0  0  0
 13 19  1  0  0  0  0
 14 15  1  0  0  0  0
 14 17  1  0  0  0  0
 15 16  2  0  0  0  0
 15 27  1  0  0  0  0
 16 28  1  0  0  0  0
 17 18  1  0  0  0  0
 18 29  1  0  0  0  0
 18 30  1  0  0  0  0
 18 31  1  0  0  0  0
 19 20  1  0  0  0  0
 20 32  1  0  0  0  0
 20 33  1  0  0  0  0
 20 34  1  0  0  0  0
M  END
>  <Mol_ID>
6428

>  <Formula>
C14H14N2O3S

>  <MolWeight>
290.33756

>  <Cat>
E2133

>  <Name>
WAY-272077

>  <Target>
Others

>  <Form>
free base

>  <CAS>
1415662-57-5

>  <URL>
http://www.selleckchem.com/products/way-272077.html

$$$$
