WAY-323486
 OpenBabel08302521423D

 56 60  0  0  0  0  0  0  0  0999 V2000
   -1.1937    0.5987    0.2826 C   0  0  0  0  0  0  0  0  0  0  0  0
   -1.2059   -0.7536    0.2014 C   0  0  0  0  0  0  0  0  0  0  0  0
   -3.6410   -0.9141    0.4127 C   0  0  0  0  0  0  0  0  0  0  0  0
   -2.4394    1.2710    0.4122 N   0  0  0  0  0  0  0  0  0  0  0  0
   -0.0069    1.3017    0.2586 N   0  0  0  0  0  0  0  0  0  0  0  0
   -5.0978   -1.8341    0.3376 S   0  0  0  0  0  0  0  0  0  0  0  0
   -3.6172    0.5559    0.6871 C   0  0  0  0  0  0  0  0  0  0  0  0
    0.0835   -1.4902    0.0826 C   0  0  0  0  0  0  0  0  0  0  0  0
    1.2271   -0.7149    0.0654 N   0  0  0  0  0  0  0  0  0  0  0  0
   -2.4553   -1.5027    0.1900 C   0  0  0  0  0  0  0  0  0  0  0  0
    1.1152    0.6614    0.1491 C   0  0  0  0  0  0  0  0  0  0  0  0
   -2.4945    2.7485    0.3733 C   0  0  0  0  0  0  0  0  0  0  0  0
   -5.6149   -1.6903   -1.3714 C   0  0  0  0  0  0  0  0  0  0  0  0
   -4.6473    1.1669    1.1994 N   0  0  0  0  0  0  0  0  0  0  0  0
   -4.8050   -3.2373    0.5681 O   0  0  0  0  0  0  0  0  0  0  0  0
   -6.1313   -1.1827    1.1264 O   0  0  0  0  0  0  0  0  0  0  0  0
    2.4698   -1.3351   -0.0417 C   0  0  0  0  0  0  0  0  0  0  0  0
   -2.8540    2.8457   -2.1921 N   0  0  0  0  0  0  0  0  0  0  0  0
    0.0795   -2.7204   -0.0006 O   0  0  0  0  0  0  0  0  0  0  0  0
    2.3875    1.4430    0.0983 C   0  0  0  0  0  0  0  0  0  0  0  0
    3.6074   -0.6296   -0.0863 C   0  0  0  0  0  0  0  0  0  0  0  0
    3.5607    0.8066   -0.0196 C   0  0  0  0  0  0  0  0  0  0  0  0
   -2.1151    3.3438   -1.0112 C   0  0  0  0  0  0  0  0  0  0  0  0
   -5.6880   -2.8308   -2.1753 C   0  0  0  0  0  0  0  0  0  0  0  0
   -6.0290   -0.4462   -1.8634 C   0  0  0  0  0  0  0  0  0  0  0  0
   -4.0028    4.9712   -3.8844 O   0  0  0  0  0  0  0  0  0  0  0  0
   -6.5748   -1.4856   -3.9794 C   0  0  0  0  0  0  0  0  0  0  0  0
   -6.1684   -2.7245   -3.4823 C   0  0  0  0  0  0  0  0  0  0  0  0
   -6.5037   -0.3491   -3.1733 C   0  0  0  0  0  0  0  0  0  0  0  0
   -4.2872    3.2083   -2.2031 C   0  0  0  0  0  0  0  0  0  0  0  0
   -2.2365    3.3201   -3.4537 C   0  0  0  0  0  0  0  0  0  0  0  0
   -2.5865    4.7675   -3.8458 C   0  0  0  0  0  0  0  0  0  0  0  0
   -4.5823    4.6627   -2.6113 C   0  0  0  0  0  0  0  0  0  0  0  0
   -2.3871   -2.5706   -0.0104 H   0  0  0  0  0  0  0  0  0  0  0  0
   -3.4863    3.1285    0.6420 H   0  0  0  0  0  0  0  0  0  0  0  0
   -1.8181    3.1548    1.1365 H   0  0  0  0  0  0  0  0  0  0  0  0
   -5.4198    0.5178    1.4304 H   0  0  0  0  0  0  0  0  0  0  0  0
    2.4785   -2.4197   -0.0930 H   0  0  0  0  0  0  0  0  0  0  0  0
    2.3139    2.5205    0.1523 H   0  0  0  0  0  0  0  0  0  0  0  0
    4.5703   -1.1231   -0.1683 H   0  0  0  0  0  0  0  0  0  0  0  0
    4.4959    1.3553   -0.0700 H   0  0  0  0  0  0  0  0  0  0  0  0
   -2.1915    4.4358   -0.9416 H   0  0  0  0  0  0  0  0  0  0  0  0
   -1.0518    3.1320   -1.1719 H   0  0  0  0  0  0  0  0  0  0  0  0
   -5.4018   -3.8078   -1.7931 H   0  0  0  0  0  0  0  0  0  0  0  0
   -6.0097    0.4433   -1.2381 H   0  0  0  0  0  0  0  0  0  0  0  0
   -6.9607   -1.4089   -4.9947 H   0  0  0  0  0  0  0  0  0  0  0  0
   -6.2452   -3.6110   -4.1081 H   0  0  0  0  0  0  0  0  0  0  0  0
   -6.8360    0.6109   -3.5637 H   0  0  0  0  0  0  0  0  0  0  0  0
   -4.7701    2.5540   -2.9410 H   0  0  0  0  0  0  0  0  0  0  0  0
   -4.7666    2.9829   -1.2460 H   0  0  0  0  0  0  0  0  0  0  0  0
   -2.5906    2.6568   -4.2529 H   0  0  0  0  0  0  0  0  0  0  0  0
   -1.1470    3.1998   -3.4232 H   0  0  0  0  0  0  0  0  0  0  0  0
   -2.1386    5.4952   -3.1598 H   0  0  0  0  0  0  0  0  0  0  0  0
   -2.1991    4.9801   -4.8481 H   0  0  0  0  0  0  0  0  0  0  0  0
   -5.6639    4.8073   -2.7043 H   0  0  0  0  0  0  0  0  0  0  0  0
   -4.2164    5.3779   -1.8663 H   0  0  0  0  0  0  0  0  0  0  0  0
  2  1  2  0  0  0  0
  3  7  1  0  0  0  0
  3 10  2  0  0  0  0
  4  1  1  0  0  0  0
  5  1  1  0  0  0  0
  6  3  1  0  0  0  0
  7  4  1  0  0  0  0
  8  2  1  0  0  0  0
  9 11  1  0  0  0  0
  9  8  1  0  0  0  0
 10  2  1  0  0  0  0
 10 34  1  0  0  0  0
 11  5  2  0  0  0  0
 12  4  1  0  0  0  0
 12 35  1  0  0  0  0
 12 36  1  0  0  0  0
 13  6  1  0  0  0  0
 14  7  2  0  0  0  0
 14 37  1  0  0  0  0
 15  6  2  0  0  0  0
 16  6  2  0  0  0  0
 17  9  1  0  0  0  0
 17 21  2  0  0  0  0
 17 38  1  0  0  0  0
 18 23  1  0  0  0  0
 19  8  2  0  0  0  0
 20 11  1  0  0  0  0
 20 39  1  0  0  0  0
 21 22  1  0  0  0  0
 21 40  1  0  0  0  0
 22 20  2  0  0  0  0
 22 41  1  0  0  0  0
 23 12  1  0  0  0  0
 23 42  1  0  0  0  0
 23 43  1  0  0  0  0
 24 13  2  0  0  0  0
 24 44  1  0  0  0  0
 25 13  1  0  0  0  0
 25 45  1  0  0  0  0
 26 32  1  0  0  0  0
 26 33  1  0  0  0  0
 27 29  1  0  0  0  0
 27 28  2  0  0  0  0
 27 46  1  0  0  0  0
 28 24  1  0  0  0  0
 28 47  1  0  0  0  0
 29 25  2  0  0  0  0
 29 48  1  0  0  0  0
 30 18  1  0  0  0  0
 30 49  1  0  0  0  0
 30 50  1  0  0  0  0
 31 18  1  0  0  0  0
 31 51  1  0  0  0  0
 31 52  1  0  0  0  0
 32 31  1  0  0  0  0
 32 53  1  0  0  0  0
 32 54  1  0  0  0  0
 33 30  1  0  0  0  0
 33 55  1  0  0  0  0
 33 56  1  0  0  0  0
M  END
>  <Mol_ID>
8554

>  <Formula>
C23H22ClN5O4S

>  <MolWeight>
499.96988

>  <Cat>
P2268

>  <Name>
WAY-323486

>  <Synonyms>
N/A

>  <Target>
Anti-infection

>  <Form>
free base

>  <CAS>
606950-67-8

>  <URL>
N/A

$$$$
