WAY-332063
 OpenBabel08302521453D

 57 59  0  0  0  0  0  0  0  0999 V2000
   -1.5400    4.0728    2.5749 C   0  0  0  0  0  0  0  0  0  0  0  0
   -1.4820    3.6987    1.3129 N   0  0  0  0  0  0  0  0  0  0  0  0
   -0.1912    3.2649    1.1291 C   0  0  0  0  0  0  0  0  0  0  0  0
   -0.3439    3.9647    3.2368 O   0  0  0  0  0  0  0  0  0  0  0  0
    0.5092    3.4366    2.3042 C   0  0  0  0  0  0  0  0  0  0  0  0
    1.2729    5.3800   -1.4992 C   0  0  0  0  0  0  0  0  0  0  0  0
    2.9994    5.1742   -5.2823 N   0  0  0  0  0  0  0  0  0  0  0  0
    1.8087    5.6897   -2.7387 N   0  0  0  0  0  0  0  0  0  0  0  0
    3.6726    5.4333   -6.4591 C   0  0  0  0  0  0  0  0  0  0  0  0
   -0.2186    5.1462   -1.3833 C   0  0  0  0  0  0  0  0  0  0  0  0
   -0.6638    3.3986   -1.5830 S   0  0  3  0  0  0  0  0  0  0  0  0
    0.2608    2.7085   -0.1711 C   0  0  0  0  0  0  0  0  0  0  0  0
   -2.6989    4.5237    3.3431 C   0  0  0  0  0  0  0  0  0  0  0  0
    3.7431    4.8837   -4.0539 C   0  0  0  0  0  0  0  0  0  0  0  0
    1.5440    5.1004   -5.1528 C   0  0  0  0  0  0  0  0  0  0  0  0
    3.2672    5.7760   -2.8956 C   0  0  0  0  0  0  0  0  0  0  0  0
    1.0590    5.9646   -3.9773 C   0  0  0  0  0  0  0  0  0  0  0  0
    4.8960    5.4759   -6.5414 O   0  0  0  0  0  0  0  0  0  0  0  0
    1.9833    5.2549   -0.5012 O   0  0  0  0  0  0  0  0  0  0  0  0
   -0.0542    2.8912   -2.8583 O   0  0  0  0  0  0  0  0  0  0  0  0
   -3.9973    4.0288    3.0801 C   0  0  0  0  0  0  0  0  0  0  0  0
    2.8434    5.6570   -7.5190 O   0  0  0  0  0  0  0  0  0  0  0  0
    1.8915    3.1684    2.7335 C   0  0  0  0  0  0  0  0  0  0  0  0
   -2.5377    5.4977    4.3467 C   0  0  0  0  0  0  0  0  0  0  0  0
   -4.2975    2.9600    2.0596 C   0  0  0  0  0  0  0  0  0  0  0  0
   -5.0907    4.5430    3.8033 C   0  0  0  0  0  0  0  0  0  0  0  0
    3.5334    5.9432   -8.7465 C   0  0  0  0  0  0  0  0  0  0  0  0
    2.5251    6.1673   -9.8601 C   0  0  0  0  0  0  0  0  0  0  0  0
   -3.6352    5.9971    5.0544 C   0  0  0  0  0  0  0  0  0  0  0  0
   -4.9119    5.5235    4.7772 C   0  0  0  0  0  0  0  0  0  0  0  0
   -0.7866    5.7102   -2.1208 H   0  0  0  0  0  0  0  0  0  0  0  0
   -0.5691    5.5242   -0.4183 H   0  0  0  0  0  0  0  0  0  0  0  0
    1.3309    2.8538   -0.3321 H   0  0  0  0  0  0  0  0  0  0  0  0
    0.0792    1.6272   -0.1775 H   0  0  0  0  0  0  0  0  0  0  0  0
    3.5550    3.8308   -3.8109 H   0  0  0  0  0  0  0  0  0  0  0  0
    4.8205    5.0042   -4.2029 H   0  0  0  0  0  0  0  0  0  0  0  0
    1.0372    5.4127   -6.0699 H   0  0  0  0  0  0  0  0  0  0  0  0
    1.2918    4.0489   -4.9732 H   0  0  0  0  0  0  0  0  0  0  0  0
    3.5019    6.8264   -3.1056 H   0  0  0  0  0  0  0  0  0  0  0  0
    3.7897    5.4950   -1.9758 H   0  0  0  0  0  0  0  0  0  0  0  0
    1.2347    7.0237   -4.2016 H   0  0  0  0  0  0  0  0  0  0  0  0
   -0.0144    5.8341   -3.8625 H   0  0  0  0  0  0  0  0  0  0  0  0
    2.3695    4.0871    3.0849 H   0  0  0  0  0  0  0  0  0  0  0  0
    1.9016    2.4365    3.5468 H   0  0  0  0  0  0  0  0  0  0  0  0
    2.4900    2.7663    1.9103 H   0  0  0  0  0  0  0  0  0  0  0  0
   -1.5478    5.8905    4.5733 H   0  0  0  0  0  0  0  0  0  0  0  0
   -4.8252    2.1285    2.5378 H   0  0  0  0  0  0  0  0  0  0  0  0
   -4.9204    3.3742    1.2601 H   0  0  0  0  0  0  0  0  0  0  0  0
   -3.4161    2.5198    1.5964 H   0  0  0  0  0  0  0  0  0  0  0  0
   -6.0952    4.1738    3.6026 H   0  0  0  0  0  0  0  0  0  0  0  0
    4.1399    6.8478   -8.6234 H   0  0  0  0  0  0  0  0  0  0  0  0
    4.1812    5.0997   -9.0111 H   0  0  0  0  0  0  0  0  0  0  0  0
    1.8995    5.2805  -10.0046 H   0  0  0  0  0  0  0  0  0  0  0  0
    1.8551    6.9987   -9.6187 H   0  0  0  0  0  0  0  0  0  0  0  0
    3.0344    6.3920  -10.8026 H   0  0  0  0  0  0  0  0  0  0  0  0
   -3.4925    6.7617    5.8148 H   0  0  0  0  0  0  0  0  0  0  0  0
   -5.7706    5.9133    5.3183 H   0  0  0  0  0  0  0  0  0  0  0  0
  2  1  2  0  0  0  0
  3  2  1  0  0  0  0
  3  5  2  0  0  0  0
  4  1  1  0  0  0  0
  5  4  1  0  0  0  0
  6 10  1  0  0  0  0
  7 15  1  0  0  0  0
  7 14  1  0  0  0  0
  8  6  1  0  0  0  0
  9  7  1  0  0  0  0
 10 11  1  0  0  0  0
 10 31  1  0  0  0  0
 10 32  1  0  0  0  0
 11 12  1  0  0  0  0
 12  3  1  0  0  0  0
 12 33  1  0  0  0  0
 12 34  1  0  0  0  0
 13  1  1  0  0  0  0
 14 16  1  0  0  0  0
 14 35  1  0  0  0  0
 14 36  1  0  0  0  0
 15 17  1  0  0  0  0
 15 37  1  0  0  0  0
 15 38  1  0  0  0  0
 16  8  1  0  0  0  0
 16 39  1  0  0  0  0
 16 40  1  0  0  0  0
 17  8  1  0  0  0  0
 17 41  1  0  0  0  0
 17 42  1  0  0  0  0
 18  9  2  0  0  0  0
 19  6  2  0  0  0  0
 20 11  2  0  0  0  0
 21 13  2  0  0  0  0
 22  9  1  0  0  0  0
 23  5  1  0  0  0  0
 23 43  1  0  0  0  0
 23 44  1  0  0  0  0
 23 45  1  0  0  0  0
 24 13  1  0  0  0  0
 24 46  1  0  0  0  0
 25 21  1  0  0  0  0
 25 47  1  0  0  0  0
 25 48  1  0  0  0  0
 25 49  1  0  0  0  0
 26 21  1  0  0  0  0
 26 30  2  0  0  0  0
 26 50  1  0  0  0  0
 27 22  1  0  0  0  0
 27 51  1  0  0  0  0
 27 52  1  0  0  0  0
 28 27  1  0  0  0  0
 28 53  1  0  0  0  0
 28 54  1  0  0  0  0
 28 55  1  0  0  0  0
 29 24  2  0  0  0  0
 29 56  1  0  0  0  0
 30 29  1  0  0  0  0
 30 57  1  0  0  0  0
M  END
>  <Mol_ID>
9285

>  <Formula>
C21H27N3O5S

>  <MolWeight>
433.52118

>  <Cat>
P2706

>  <Name>
WAY-332063

>  <Synonyms>
N/A

>  <Target>
beta-catenin

>  <Form>
free base

>  <CAS>
1020049-24-4

>  <URL>
N/A

$$$$
