WAY-640674
 OpenBabel08302521443D

 44 48  0  0  0  0  0  0  0  0999 V2000
   -1.0640    1.4535   -0.0419 C   0  0  0  0  0  0  0  0  0  0  0  0
   -2.2399    0.7795   -0.0651 N   0  0  0  0  0  0  0  0  0  0  0  0
   -2.2124   -0.5627    0.0074 C   0  0  0  0  0  0  0  0  0  0  0  0
   -1.1541    2.8418   -0.1077 N   0  0  0  0  0  0  0  0  0  0  0  0
    0.1761    0.7518    0.0177 C   0  0  0  0  0  0  0  0  0  0  0  0
   -1.0893   -1.2912    0.0668 N   0  0  0  0  0  0  0  0  0  0  0  0
    0.0735   -0.6453    0.0594 C   0  0  0  0  0  0  0  0  0  0  0  0
   -3.4852   -1.3054    0.0355 C   0  0  0  0  0  0  0  0  0  0  0  0
   -2.3220    3.4213   -0.7868 C   0  0  0  0  0  0  0  0  0  0  0  0
   -2.1199    4.8970   -1.1006 C   0  0  0  0  0  0  0  0  0  0  0  0
   -0.2337    3.7252    0.6094 C   0  0  0  0  0  0  0  0  0  0  0  0
   -1.4236    5.7084   -0.1851 C   0  0  0  0  0  0  0  0  0  0  0  0
   -5.9299   -1.2990    0.0595 N   0  0  0  0  0  0  0  0  0  0  0  0
   -0.8681    5.0438    1.0412 C   0  0  0  0  0  0  0  0  0  0  0  0
   -4.7253   -0.6709    0.0354 C   0  0  0  0  0  0  0  0  0  0  0  0
    1.4963    1.2948   -0.0073 C   0  0  0  0  0  0  0  0  0  0  0  0
   -3.5352   -2.7126    0.0755 C   0  0  0  0  0  0  0  0  0  0  0  0
    1.2253   -1.4248    0.0811 C   0  0  0  0  0  0  0  0  0  0  0  0
   -2.6343    5.4799   -2.2639 C   0  0  0  0  0  0  0  0  0  0  0  0
   -5.9158   -2.6486    0.0897 C   0  0  0  0  0  0  0  0  0  0  0  0
   -1.2255    7.0681   -0.4400 C   0  0  0  0  0  0  0  0  0  0  0  0
   -4.7515   -3.3936    0.0998 C   0  0  0  0  0  0  0  0  0  0  0  0
    2.6409    0.5018    0.0434 C   0  0  0  0  0  0  0  0  0  0  0  0
    2.5045   -0.8693    0.0784 C   0  0  0  0  0  0  0  0  0  0  0  0
   -2.4290    6.8388   -2.5200 C   0  0  0  0  0  0  0  0  0  0  0  0
   -1.7232    7.6295   -1.6126 C   0  0  0  0  0  0  0  0  0  0  0  0
   -2.4954    2.8889   -1.7313 H   0  0  0  0  0  0  0  0  0  0  0  0
   -3.2214    3.3224   -0.1652 H   0  0  0  0  0  0  0  0  0  0  0  0
    0.1782    3.2383    1.5004 H   0  0  0  0  0  0  0  0  0  0  0  0
    0.5857    3.9832   -0.0718 H   0  0  0  0  0  0  0  0  0  0  0  0
   -1.6672    4.8837    1.7727 H   0  0  0  0  0  0  0  0  0  0  0  0
   -0.0981    5.6705    1.5065 H   0  0  0  0  0  0  0  0  0  0  0  0
   -4.7961    0.4156    0.0185 H   0  0  0  0  0  0  0  0  0  0  0  0
    1.6701    2.3567   -0.0859 H   0  0  0  0  0  0  0  0  0  0  0  0
   -2.6130   -3.2921    0.0871 H   0  0  0  0  0  0  0  0  0  0  0  0
    1.1254   -2.5080    0.0915 H   0  0  0  0  0  0  0  0  0  0  0  0
   -3.1860    4.8803   -2.9837 H   0  0  0  0  0  0  0  0  0  0  0  0
   -6.8896   -3.1282    0.1061 H   0  0  0  0  0  0  0  0  0  0  0  0
   -0.6678    7.6871    0.2583 H   0  0  0  0  0  0  0  0  0  0  0  0
   -4.7869   -4.4768    0.1293 H   0  0  0  0  0  0  0  0  0  0  0  0
    3.6240    0.9661    0.0388 H   0  0  0  0  0  0  0  0  0  0  0  0
    3.3827   -1.5088    0.0932 H   0  0  0  0  0  0  0  0  0  0  0  0
   -2.8177    7.2834   -3.4325 H   0  0  0  0  0  0  0  0  0  0  0  0
   -1.5580    8.6833   -1.8212 H   0  0  0  0  0  0  0  0  0  0  0  0
  2  1  2  0  0  0  0
  3  2  1  0  0  0  0
  4  1  1  0  0  0  0
  5  1  1  0  0  0  0
  6  7  1  0  0  0  0
  6  3  2  0  0  0  0
  7  5  2  0  0  0  0
  8  3  1  0  0  0  0
  9  4  1  0  0  0  0
  9 27  1  0  0  0  0
  9 28  1  0  0  0  0
 10  9  1  0  0  0  0
 10 12  2  0  0  0  0
 11  4  1  0  0  0  0
 11 29  1  0  0  0  0
 11 30  1  0  0  0  0
 12 14  1  0  0  0  0
 13 15  2  0  0  0  0
 14 11  1  0  0  0  0
 14 31  1  0  0  0  0
 14 32  1  0  0  0  0
 15  8  1  0  0  0  0
 15 33  1  0  0  0  0
 16  5  1  0  0  0  0
 16 34  1  0  0  0  0
 17  8  2  0  0  0  0
 17 35  1  0  0  0  0
 18  7  1  0  0  0  0
 18 36  1  0  0  0  0
 19 10  1  0  0  0  0
 19 37  1  0  0  0  0
 20 22  2  0  0  0  0
 20 13  1  0  0  0  0
 20 38  1  0  0  0  0
 21 12  1  0  0  0  0
 21 39  1  0  0  0  0
 22 17  1  0  0  0  0
 22 40  1  0  0  0  0
 23 16  2  0  0  0  0
 23 41  1  0  0  0  0
 24 23  1  0  0  0  0
 24 18  2  0  0  0  0
 24 42  1  0  0  0  0
 25 19  2  0  0  0  0
 25 26  1  0  0  0  0
 25 43  1  0  0  0  0
 26 21  2  0  0  0  0
 26 44  1  0  0  0  0
M  END
>  <Mol_ID>
9103

>  <Formula>
C22H18N4

>  <MolWeight>
338.40512

>  <Cat>
P3111

>  <Name>
WAY-640674

>  <Synonyms>
N/A

>  <Target>
glucocerebrosidase

>  <Form>
free base

>  <CAS>
796079-91-9

>  <URL>
N/A

$$$$
