WAY-324046
 OpenBabel08302521423D

 43 46  0  0  0  0  0  0  0  0999 V2000
    1.5354   -1.1850   -0.0839 N   0  0  0  0  0  0  0  0  0  0  0  0
    2.5981   -0.4343   -0.1286 C   0  0  0  0  0  0  0  0  0  0  0  0
    0.3083   -0.5872    0.1086 C   0  0  0  0  0  0  0  0  0  0  0  0
    0.2819    0.8485    0.5489 C   0  0  0  0  0  0  0  0  0  0  0  0
    5.0701   -0.4452   -0.4265 C   0  0  0  0  0  0  0  0  0  0  0  0
    1.4294    1.5444    0.4721 C   0  0  0  0  0  0  0  0  0  0  0  0
    2.5598    0.9136    0.0359 N   0  0  0  0  0  0  0  0  0  0  0  0
    3.8172   -1.0060   -0.2512 N   0  0  0  0  0  0  0  0  0  0  0  0
    5.2312    0.8486   -0.7637 N   0  0  0  0  0  0  0  0  0  0  0  0
    6.0910   -1.2909   -0.2829 N   0  0  0  0  0  0  0  0  0  0  0  0
    6.4201    1.2171   -1.2934 C   0  0  0  0  0  0  0  0  0  0  0  0
    7.4749    0.3063   -1.4048 C   0  0  0  0  0  0  0  0  0  0  0  0
    7.3027   -0.8717   -0.6862 C   0  0  0  0  0  0  0  0  0  0  0  0
   -0.7523   -1.1961   -0.0186 O   0  0  0  0  0  0  0  0  0  0  0  0
    6.6645    2.5192   -1.7610 C   0  0  0  0  0  0  0  0  0  0  0  0
   -1.0085    1.4224    1.0458 C   0  0  0  0  0  0  0  0  0  0  0  0
    1.5342    2.9872    0.8787 C   0  0  0  0  0  0  0  0  0  0  0  0
    8.6139    0.6020   -2.1890 C   0  0  0  0  0  0  0  0  0  0  0  0
    8.4570   -1.6996   -0.2041 C   0  0  0  0  0  0  0  0  0  0  0  0
    8.7148    1.8167   -2.8500 C   0  0  0  0  0  0  0  0  0  0  0  0
    7.7635    2.7927   -2.5987 C   0  0  0  0  0  0  0  0  0  0  0  0
    5.8103    3.6828   -1.3362 C   0  0  0  0  0  0  0  0  0  0  0  0
   -0.8025    2.7415    1.7975 C   0  0  0  0  0  0  0  0  0  0  0  0
    0.1686    3.6555    1.0531 C   0  0  0  0  0  0  0  0  0  0  0  0
    3.4317    1.4324   -0.0237 H   0  0  0  0  0  0  0  0  0  0  0  0
    3.8495   -2.0136   -0.2521 H   0  0  0  0  0  0  0  0  0  0  0  0
   -1.5092    0.7151    1.7163 H   0  0  0  0  0  0  0  0  0  0  0  0
   -1.6734    1.5894    0.1903 H   0  0  0  0  0  0  0  0  0  0  0  0
    2.1162    3.5510    0.1411 H   0  0  0  0  0  0  0  0  0  0  0  0
    2.0839    3.0366    1.8271 H   0  0  0  0  0  0  0  0  0  0  0  0
    9.3913   -0.1432   -2.3400 H   0  0  0  0  0  0  0  0  0  0  0  0
    8.3047   -1.9320    0.8579 H   0  0  0  0  0  0  0  0  0  0  0  0
    8.5344   -2.6325   -0.7639 H   0  0  0  0  0  0  0  0  0  0  0  0
    9.4064   -1.1576   -0.2577 H   0  0  0  0  0  0  0  0  0  0  0  0
    9.5487    2.0149   -3.5180 H   0  0  0  0  0  0  0  0  0  0  0  0
    7.8828    3.7795   -3.0421 H   0  0  0  0  0  0  0  0  0  0  0  0
    6.4672    4.4893   -0.9820 H   0  0  0  0  0  0  0  0  0  0  0  0
    5.2043    4.0582   -2.1632 H   0  0  0  0  0  0  0  0  0  0  0  0
    5.1617    3.4304   -0.4919 H   0  0  0  0  0  0  0  0  0  0  0  0
   -0.4087    2.5345    2.8013 H   0  0  0  0  0  0  0  0  0  0  0  0
   -1.7661    3.2448    1.9312 H   0  0  0  0  0  0  0  0  0  0  0  0
   -0.2466    3.9018    0.0678 H   0  0  0  0  0  0  0  0  0  0  0  0
    0.2888    4.6001    1.5952 H   0  0  0  0  0  0  0  0  0  0  0  0
  2  1  2  0  0  0  0
  3  1  1  0  0  0  0
  4  3  1  0  0  0  0
  5  8  1  0  0  0  0
  6  4  2  0  0  0  0
  6  7  1  0  0  0  0
  7  2  1  0  0  0  0
  7 25  1  0  0  0  0
  8  2  1  0  0  0  0
  8 26  1  0  0  0  0
  9  5  2  0  0  0  0
 10  5  1  0  0  0  0
 11  9  1  0  0  0  0
 11 12  2  0  0  0  0
 12 13  1  0  0  0  0
 13 10  2  0  0  0  0
 14  3  2  0  0  0  0
 15 11  1  0  0  0  0
 16  4  1  0  0  0  0
 16 27  1  0  0  0  0
 16 28  1  0  0  0  0
 17  6  1  0  0  0  0
 17 29  1  0  0  0  0
 17 30  1  0  0  0  0
 18 12  1  0  0  0  0
 18 31  1  0  0  0  0
 19 13  1  0  0  0  0
 19 32  1  0  0  0  0
 19 33  1  0  0  0  0
 19 34  1  0  0  0  0
 20 18  2  0  0  0  0
 20 35  1  0  0  0  0
 21 15  2  0  0  0  0
 21 20  1  0  0  0  0
 21 36  1  0  0  0  0
 22 15  1  0  0  0  0
 22 37  1  0  0  0  0
 22 38  1  0  0  0  0
 22 39  1  0  0  0  0
 23 16  1  0  0  0  0
 23 40  1  0  0  0  0
 23 41  1  0  0  0  0
 24 23  1  0  0  0  0
 24 17  1  0  0  0  0
 24 42  1  0  0  0  0
 24 43  1  0  0  0  0
M  END
>  <Mol_ID>
8596

>  <Formula>
C18H19N5O

>  <MolWeight>
321.37636

>  <Cat>
P2289

>  <Name>
WAY-324046

>  <Synonyms>
N/A

>  <Target>
Anti-infection

>  <Form>
free base

>  <CAS>
524055-94-5

>  <URL>
N/A

$$$$
