WAY-112273
 OpenBabel08302521403D

 39 42  0  0  0  0  0  0  0  0999 V2000
    1.0033   -1.4050   -0.2686 C   0  0  0  0  0  0  0  0  0  0  0  0
   -0.1156   -0.8817    0.3664 C   0  0  0  0  0  0  0  0  0  0  0  0
    2.1308   -0.5912   -0.4566 C   0  0  0  0  0  0  0  0  0  0  0  0
    0.8064   -2.7238   -0.6027 N   0  0  0  0  0  0  0  0  0  0  0  0
   -1.0028   -1.9266    0.4084 N   0  0  0  0  0  0  0  0  0  0  0  0
   -0.1886    0.4326    0.8273 C   0  0  0  0  0  0  0  0  0  0  0  0
    2.1149    0.7286    0.0344 C   0  0  0  0  0  0  0  0  0  0  0  0
   -0.4032   -3.0205   -0.1636 C   0  0  0  0  0  0  0  0  0  0  0  0
    0.9543    1.2253    0.6508 C   0  0  0  0  0  0  0  0  0  0  0  0
    3.3560    1.5860   -0.0614 C   0  0  0  0  0  0  0  0  0  0  0  0
   -1.0592   -4.3539   -0.2381 C   0  0  0  0  0  0  0  0  0  0  0  0
    3.4668    2.4198   -1.3164 C   0  0  0  0  0  0  0  0  0  0  0  0
   -0.0342   -5.3405   -0.1830 O   0  0  0  0  0  0  0  0  0  0  0  0
    2.9524    3.7316   -1.3460 C   0  0  0  0  0  0  0  0  0  0  0  0
    4.1121    1.9012   -2.4515 C   0  0  0  0  0  0  0  0  0  0  0  0
    3.1250    4.5100   -2.5019 C   0  0  0  0  0  0  0  0  0  0  0  0
    4.2950    2.6640   -3.6114 C   0  0  0  0  0  0  0  0  0  0  0  0
    3.7939    3.9653   -3.5907 C   0  0  0  0  0  0  0  0  0  0  0  0
    2.7310    5.8025   -2.7656 N   0  0  0  0  0  0  0  0  0  0  0  0
    3.8124    4.9738   -4.5183 N   0  0  0  0  0  0  0  0  0  0  0  0
    3.1535    6.0556   -3.9914 C   0  0  0  0  0  0  0  0  0  0  0  0
    2.9612    7.3187   -4.7535 C   0  0  0  0  0  0  0  0  0  0  0  0
    2.9069    8.3889   -3.8183 O   0  0  0  0  0  0  0  0  0  0  0  0
    3.0066   -1.0049   -0.9441 H   0  0  0  0  0  0  0  0  0  0  0  0
   -1.9225   -1.9035    0.8236 H   0  0  0  0  0  0  0  0  0  0  0  0
   -1.0709    0.8234    1.3215 H   0  0  0  0  0  0  0  0  0  0  0  0
    0.9383    2.2487    1.0241 H   0  0  0  0  0  0  0  0  0  0  0  0
    3.4144    2.2413    0.8183 H   0  0  0  0  0  0  0  0  0  0  0  0
    4.2439    0.9443    0.0254 H   0  0  0  0  0  0  0  0  0  0  0  0
   -1.7424   -4.5198    0.5993 H   0  0  0  0  0  0  0  0  0  0  0  0
   -1.6051   -4.4666   -1.1788 H   0  0  0  0  0  0  0  0  0  0  0  0
    0.7669   -4.9043   -0.5396 H   0  0  0  0  0  0  0  0  0  0  0  0
    2.4438    4.1596   -0.4890 H   0  0  0  0  0  0  0  0  0  0  0  0
    4.4990    0.8830   -2.4343 H   0  0  0  0  0  0  0  0  0  0  0  0
    4.8094    2.2574   -4.4753 H   0  0  0  0  0  0  0  0  0  0  0  0
    4.2410    4.9267   -5.4315 H   0  0  0  0  0  0  0  0  0  0  0  0
    3.7863    7.5060   -5.4469 H   0  0  0  0  0  0  0  0  0  0  0  0
    2.0215    7.2909   -5.3118 H   0  0  0  0  0  0  0  0  0  0  0  0
    2.5401    7.9993   -2.9977 H   0  0  0  0  0  0  0  0  0  0  0  0
  1  2  1  0  0  0  0
  1  3  2  0  0  0  0
  1  4  1  0  0  0  0
  2  5  1  0  0  0  0
  2  6  2  0  0  0  0
  3  7  1  0  0  0  0
  3 24  1  0  0  0  0
  4  8  2  0  0  0  0
  5  8  1  0  0  0  0
  5 25  1  0  0  0  0
  6  9  1  0  0  0  0
  6 26  1  0  0  0  0
  7 10  1  0  0  0  0
  7  9  2  0  0  0  0
  8 11  1  0  0  0  0
  9 27  1  0  0  0  0
 10 12  1  0  0  0  0
 10 28  1  0  0  0  0
 10 29  1  0  0  0  0
 11 13  1  0  0  0  0
 11 30  1  0  0  0  0
 11 31  1  0  0  0  0
 12 14  2  0  0  0  0
 12 15  1  0  0  0  0
 13 32  1  0  0  0  0
 14 16  1  0  0  0  0
 14 33  1  0  0  0  0
 15 17  2  0  0  0  0
 15 34  1  0  0  0  0
 16 18  2  0  0  0  0
 16 19  1  0  0  0  0
 17 18  1  0  0  0  0
 17 35  1  0  0  0  0
 18 20  1  0  0  0  0
 19 21  2  0  0  0  0
 20 21  1  0  0  0  0
 20 36  1  0  0  0  0
 21 22  1  0  0  0  0
 22 23  1  0  0  0  0
 22 37  1  0  0  0  0
 22 38  1  0  0  0  0
 23 39  1  0  0  0  0
M  END
>  <Mol_ID>
8316

>  <Formula>
C17H16N4O2

>  <MolWeight>
308.33454

>  <Cat>
P2041

>  <Name>
WAY-112273

>  <Synonyms>
N/A

>  <Target>
glutathione peroxidase

>  <Form>
free base

>  <CAS>
294656-32-9

>  <URL>
N/A

$$$$
