WAY-638666
 OpenBabel08302521433D

 36 38  0  0  0  0  0  0  0  0999 V2000
    1.5975    1.1773   -0.0999 N   0  0  0  0  0  0  0  0  0  0  0  0
    3.3929    2.8406    0.0757 C   0  0  0  0  0  0  0  0  0  0  0  0
    1.9827    2.5243   -0.1679 C   0  0  0  0  0  0  0  0  0  0  0  0
    4.1272    4.1769   -0.7070 S   0  0  0  0  0  0  0  0  0  0  0  0
    4.2848    2.2705    0.9544 C   0  0  0  0  0  0  0  0  0  0  0  0
    5.6260    3.9698    0.1256 C   0  0  0  0  0  0  0  0  0  0  0  0
    5.5731    2.8845    0.9877 C   0  0  0  0  0  0  0  0  0  0  0  0
    0.2637    0.7039   -0.2013 C   0  0  0  0  0  0  0  0  0  0  0  0
    2.4506   -0.0010    0.1829 C   0  0  0  0  0  0  0  0  0  0  0  0
    1.1793    3.4203   -0.4183 O   0  0  0  0  0  0  0  0  0  0  0  0
    0.2451   -0.6950   -0.1306 C   0  0  0  0  0  0  0  0  0  0  0  0
    1.6228   -1.2618   -0.0621 C   0  0  0  0  0  0  0  0  0  0  0  0
    6.7551    4.9195   -0.1895 C   0  0  0  0  0  0  0  0  0  0  0  0
    6.6142    2.3369    1.9051 C   0  0  0  0  0  0  0  0  0  0  0  0
   -0.9055    1.4156   -0.3320 C   0  0  0  0  0  0  0  0  0  0  0  0
   -0.9454   -1.3995   -0.1662 C   0  0  0  0  0  0  0  0  0  0  0  0
    6.7830    6.1567    0.6991 C   0  0  0  0  0  0  0  0  0  0  0  0
   -2.1181    0.7153   -0.3632 C   0  0  0  0  0  0  0  0  0  0  0  0
   -2.1359   -0.6818   -0.2748 C   0  0  0  0  0  0  0  0  0  0  0  0
    4.0415    1.4480    1.6057 H   0  0  0  0  0  0  0  0  0  0  0  0
    3.3697    0.0148   -0.4113 H   0  0  0  0  0  0  0  0  0  0  0  0
    2.6999    0.0278    1.2477 H   0  0  0  0  0  0  0  0  0  0  0  0
    1.7446   -1.9798    0.7559 H   0  0  0  0  0  0  0  0  0  0  0  0
    1.8939   -1.7334   -1.0116 H   0  0  0  0  0  0  0  0  0  0  0  0
    7.7138    4.3956   -0.1067 H   0  0  0  0  0  0  0  0  0  0  0  0
    6.6799    5.2506   -1.2333 H   0  0  0  0  0  0  0  0  0  0  0  0
    6.2323    2.3582    2.9338 H   0  0  0  0  0  0  0  0  0  0  0  0
    6.8034    1.2839    1.6577 H   0  0  0  0  0  0  0  0  0  0  0  0
    7.5570    2.8806    1.8697 H   0  0  0  0  0  0  0  0  0  0  0  0
   -0.9249    2.4994   -0.3907 H   0  0  0  0  0  0  0  0  0  0  0  0
   -0.9580   -2.4827   -0.1132 H   0  0  0  0  0  0  0  0  0  0  0  0
    5.8609    6.7406    0.6149 H   0  0  0  0  0  0  0  0  0  0  0  0
    6.9278    5.8964    1.7525 H   0  0  0  0  0  0  0  0  0  0  0  0
    7.6129    6.8088    0.3995 H   0  0  0  0  0  0  0  0  0  0  0  0
   -3.0538    1.2673   -0.4591 H   0  0  0  0  0  0  0  0  0  0  0  0
   -3.0841   -1.2103   -0.3050 H   0  0  0  0  0  0  0  0  0  0  0  0
  2  3  1  0  0  0  0
  3  1  1  0  0  0  0
  4  2  1  0  0  0  0
  5  2  2  0  0  0  0
  5 20  1  0  0  0  0
  6  4  1  0  0  0  0
  7  5  1  0  0  0  0
  7  6  2  0  0  0  0
  8  1  1  0  0  0  0
  9  1  1  0  0  0  0
  9 21  1  0  0  0  0
  9 22  1  0  0  0  0
 10  3  2  0  0  0  0
 11  8  2  0  0  0  0
 11 12  1  0  0  0  0
 12  9  1  0  0  0  0
 12 23  1  0  0  0  0
 12 24  1  0  0  0  0
 13  6  1  0  0  0  0
 13 25  1  0  0  0  0
 13 26  1  0  0  0  0
 14  7  1  0  0  0  0
 14 27  1  0  0  0  0
 14 28  1  0  0  0  0
 14 29  1  0  0  0  0
 15  8  1  0  0  0  0
 15 30  1  0  0  0  0
 16 11  1  0  0  0  0
 16 31  1  0  0  0  0
 17 13  1  0  0  0  0
 17 32  1  0  0  0  0
 17 33  1  0  0  0  0
 17 34  1  0  0  0  0
 18 15  2  0  0  0  0
 18 35  1  0  0  0  0
 19 18  1  0  0  0  0
 19 16  2  0  0  0  0
 19 36  1  0  0  0  0
M  END
>  <Mol_ID>
8784

>  <Formula>
C16H17NOS

>  <MolWeight>
271.37728

>  <Cat>
P3048

>  <Name>
WAY-638666

>  <Synonyms>
N/A

>  <Target>
Others

>  <Form>
free base

>  <CAS>
794563-32-9

>  <URL>
N/A

$$$$
