WAY-604777
 OpenBabel08302521393D

 62 66  0  0  0  0  0  0  0  0999 V2000
   -1.2925  -11.9025   -2.6262 S   0  0  0  0  0  0  0  0  0  0  0  0
   -7.3355   -2.9666    5.7991 N   0  0  0  0  0  0  0  0  0  0  0  0
   -5.6258   -4.1263    4.9646 C   0  0  0  0  0  0  0  0  0  0  0  0
   -6.7213   -3.3384    4.6156 C   0  0  0  0  0  0  0  0  0  0  0  0
   -6.6692   -3.5039    6.8878 C   0  0  0  0  0  0  0  0  0  0  0  0
   -5.5933   -4.2345    6.3861 C   0  0  0  0  0  0  0  0  0  0  0  0
   -2.9331  -12.3342   -2.8228 N   0  0  0  0  0  0  0  0  0  0  0  0
   -1.3916  -10.4202   -1.6596 C   0  0  0  0  0  0  0  0  0  0  0  0
   -0.7748  -11.5233   -3.9233 O   0  0  0  0  0  0  0  0  0  0  0  0
   -0.6411  -12.9211   -1.8341 O   0  0  0  0  0  0  0  0  0  0  0  0
   -7.0073   -3.0469    3.2716 C   0  0  0  0  0  0  0  0  0  0  0  0
   -4.7837   -4.6282    3.9493 C   0  0  0  0  0  0  0  0  0  0  0  0
   -3.0501   -5.5633    1.6795 C   0  0  0  0  0  0  0  0  0  0  0  0
   -4.1872   -4.7698    1.5569 N   0  0  0  0  0  0  0  0  0  0  0  0
   -5.0228   -4.3242    2.6096 C   0  0  0  0  0  0  0  0  0  0  0  0
   -2.5693   -5.9778    2.7298 O   0  0  0  0  0  0  0  0  0  0  0  0
   -3.5700  -15.1425   -2.4790 O   0  0  0  0  0  0  0  0  0  0  0  0
   -0.8426  -10.3631   -0.3773 C   0  0  0  0  0  0  0  0  0  0  0  0
   -1.9572   -9.2862   -2.2469 C   0  0  0  0  0  0  0  0  0  0  0  0
   -3.6497  -12.8390   -1.6077 C   0  0  0  0  0  0  0  0  0  0  0  0
   -3.1972  -13.2562   -3.9730 C   0  0  0  0  0  0  0  0  0  0  0  0
   -1.3907   -6.8795    0.4975 O   0  0  0  0  0  0  0  0  0  0  0  0
   -6.1362   -3.5428    2.2846 C   0  0  0  0  0  0  0  0  0  0  0  0
   -8.4614   -2.0519    5.9096 C   0  0  0  0  0  0  0  0  0  0  0  0
   -2.4273   -5.9162    0.3234 C   0  0  0  0  0  0  0  0  0  0  0  0
   -1.4507   -8.0147   -0.2562 C   0  0  0  0  0  0  0  0  0  0  0  0
   -1.9726   -8.0797   -1.5480 C   0  0  0  0  0  0  0  0  0  0  0  0
   -0.8740   -9.1537    0.3205 C   0  0  0  0  0  0  0  0  0  0  0  0
   -6.9078   -3.3995    8.2705 C   0  0  0  0  0  0  0  0  0  0  0  0
   -4.7189   -4.8785    7.2868 C   0  0  0  0  0  0  0  0  0  0  0  0
   -3.3275  -14.3160   -1.3295 C   0  0  0  0  0  0  0  0  0  0  0  0
   -2.8101  -14.6913   -3.6115 C   0  0  0  0  0  0  0  0  0  0  0  0
   -9.7996   -2.7632    6.0065 C   0  0  0  0  0  0  0  0  0  0  0  0
   -6.0220   -4.0419    9.1438 C   0  0  0  0  0  0  0  0  0  0  0  0
   -4.9413   -4.7713    8.6615 C   0  0  0  0  0  0  0  0  0  0  0  0
   -7.8658   -2.4443    2.9917 H   0  0  0  0  0  0  0  0  0  0  0  0
   -3.9449   -5.2352    4.2630 H   0  0  0  0  0  0  0  0  0  0  0  0
   -4.4466   -4.4615    0.6274 H   0  0  0  0  0  0  0  0  0  0  0  0
   -0.3729  -11.2354    0.0740 H   0  0  0  0  0  0  0  0  0  0  0  0
   -2.3590   -9.3337   -3.2565 H   0  0  0  0  0  0  0  0  0  0  0  0
   -4.7247  -12.7403   -1.8100 H   0  0  0  0  0  0  0  0  0  0  0  0
   -3.4364  -12.2138   -0.7364 H   0  0  0  0  0  0  0  0  0  0  0  0
   -4.2725  -13.2076   -4.1891 H   0  0  0  0  0  0  0  0  0  0  0  0
   -2.6813  -12.9141   -4.8749 H   0  0  0  0  0  0  0  0  0  0  0  0
   -6.3558   -3.2979    1.2465 H   0  0  0  0  0  0  0  0  0  0  0  0
   -8.2977   -1.4281    6.7953 H   0  0  0  0  0  0  0  0  0  0  0  0
   -8.4449   -1.3787    5.0470 H   0  0  0  0  0  0  0  0  0  0  0  0
   -1.9778   -5.0089   -0.0954 H   0  0  0  0  0  0  0  0  0  0  0  0
   -3.2398   -6.2542   -0.3279 H   0  0  0  0  0  0  0  0  0  0  0  0
   -2.3659   -7.2020   -2.0484 H   0  0  0  0  0  0  0  0  0  0  0  0
   -0.4401   -9.0913    1.3160 H   0  0  0  0  0  0  0  0  0  0  0  0
   -7.7427   -2.8327    8.6622 H   0  0  0  0  0  0  0  0  0  0  0  0
   -3.8698   -5.4446    6.9131 H   0  0  0  0  0  0  0  0  0  0  0  0
   -2.2964  -14.4627   -0.9968 H   0  0  0  0  0  0  0  0  0  0  0  0
   -3.9735  -14.6818   -0.5250 H   0  0  0  0  0  0  0  0  0  0  0  0
   -3.0405  -15.3572   -4.4488 H   0  0  0  0  0  0  0  0  0  0  0  0
   -1.7403  -14.7888   -3.3976 H   0  0  0  0  0  0  0  0  0  0  0  0
  -10.0096   -3.3366    5.0981 H   0  0  0  0  0  0  0  0  0  0  0  0
   -9.8265   -3.4554    6.8546 H   0  0  0  0  0  0  0  0  0  0  0  0
  -10.6038   -2.0325    6.1417 H   0  0  0  0  0  0  0  0  0  0  0  0
   -6.1799   -3.9644   10.2163 H   0  0  0  0  0  0  0  0  0  0  0  0
   -4.2598   -5.2583    9.3536 H   0  0  0  0  0  0  0  0  0  0  0  0
  2  4  1  0  0  0  0
  3 12  2  0  0  0  0
  4 11  2  0  0  0  0
  4  3  1  0  0  0  0
  5  6  2  0  0  0  0
  5  2  1  0  0  0  0
  6  3  1  0  0  0  0
  7  1  1  0  0  0  0
  8  1  1  0  0  0  0
  9  1  2  0  0  0  0
 10  1  2  0  0  0  0
 11 23  1  0  0  0  0
 11 36  1  0  0  0  0
 12 15  1  0  0  0  0
 12 37  1  0  0  0  0
 13 25  1  0  0  0  0
 14 13  1  0  0  0  0
 14 38  1  0  0  0  0
 15 14  1  0  0  0  0
 16 13  2  0  0  0  0
 17 32  1  0  0  0  0
 17 31  1  0  0  0  0
 18  8  2  0  0  0  0
 18 39  1  0  0  0  0
 19  8  1  0  0  0  0
 19 40  1  0  0  0  0
 20  7  1  0  0  0  0
 20 41  1  0  0  0  0
 20 42  1  0  0  0  0
 21  7  1  0  0  0  0
 21 43  1  0  0  0  0
 21 44  1  0  0  0  0
 22 26  1  0  0  0  0
 23 15  2  0  0  0  0
 23 45  1  0  0  0  0
 24  2  1  0  0  0  0
 24 46  1  0  0  0  0
 24 47  1  0  0  0  0
 25 22  1  0  0  0  0
 25 48  1  0  0  0  0
 25 49  1  0  0  0  0
 26 27  1  0  0  0  0
 26 28  2  0  0  0  0
 27 19  2  0  0  0  0
 27 50  1  0  0  0  0
 28 18  1  0  0  0  0
 28 51  1  0  0  0  0
 29  5  1  0  0  0  0
 29 52  1  0  0  0  0
 30  6  1  0  0  0  0
 30 53  1  0  0  0  0
 31 20  1  0  0  0  0
 31 54  1  0  0  0  0
 31 55  1  0  0  0  0
 32 21  1  0  0  0  0
 32 56  1  0  0  0  0
 32 57  1  0  0  0  0
 33 24  1  0  0  0  0
 33 58  1  0  0  0  0
 33 59  1  0  0  0  0
 33 60  1  0  0  0  0
 34 35  1  0  0  0  0
 34 29  2  0  0  0  0
 34 61  1  0  0  0  0
 35 30  2  0  0  0  0
 35 62  1  0  0  0  0
M  END
>  <Mol_ID>
8126

>  <Formula>
C26H27N3O5S

>  <MolWeight>
493.57468

>  <Cat>
P2840

>  <Name>
WAY-604777

>  <Synonyms>
N/A

>  <Target>
p53

>  <Form>
free base

>  <CAS>
379704-63-9

>  <URL>
N/A

$$$$
