WAY-386450
 OpenBabel08302521413D

 51 54  0  0  0  0  0  0  0  0999 V2000
   -0.2341    0.3929    0.1354 C   0  0  0  0  0  0  0  0  0  0  0  0
    0.1086   -0.8986   -0.1775 C   0  0  0  0  0  0  0  0  0  0  0  0
    2.1407    0.6751    0.6167 N   0  0  0  0  0  0  0  0  0  0  0  0
    2.3289   -0.6123    0.0255 C   0  0  0  0  0  0  0  0  0  0  0  0
    1.3566   -1.3837   -0.3735 N   0  0  0  0  0  0  0  0  0  0  0  0
    0.8676    1.3039    0.4219 C   0  0  0  0  0  0  0  0  0  0  0  0
   -1.2550   -1.8989   -0.3207 S   0  0  0  0  0  0  0  0  0  0  0  0
   -1.6659    0.6167    0.0904 C   0  0  0  0  0  0  0  0  0  0  0  0
   -2.3343   -0.5961   -0.0566 C   0  0  0  0  0  0  0  0  0  0  0  0
    3.9389   -1.2654   -0.3501 S   0  0  0  0  0  0  0  0  0  0  0  0
    3.1118    1.4267    1.4427 C   0  0  0  0  0  0  0  0  0  0  0  0
    0.6599    2.5174    0.4446 O   0  0  0  0  0  0  0  0  0  0  0  0
    3.5301   -3.9053    0.4339 C   0  0  0  0  0  0  0  0  0  0  0  0
    4.1388   -5.1255    0.5893 N   0  0  0  0  0  0  0  0  0  0  0  0
    2.8929   -3.5073    1.4162 O   0  0  0  0  0  0  0  0  0  0  0  0
    3.7067   -3.0438   -0.8115 C   0  0  0  0  0  0  0  0  0  0  0  0
    4.1741   -6.2923   -0.2941 C   0  0  0  0  0  0  0  0  0  0  0  0
   -2.3618    1.9485    0.1919 C   0  0  0  0  0  0  0  0  0  0  0  0
   -3.8070   -0.8729   -0.0357 C   0  0  0  0  0  0  0  0  0  0  0  0
    5.3631   -6.4267   -1.2118 C   0  0  0  0  0  0  0  0  0  0  0  0
    2.6385    2.3583    2.4048 C   0  0  0  0  0  0  0  0  0  0  0  0
    4.5057    1.2784    1.4255 C   0  0  0  0  0  0  0  0  0  0  0  0
    6.5311   -7.1136   -0.8267 C   0  0  0  0  0  0  0  0  0  0  0  0
    5.2819   -5.9442   -2.5231 C   0  0  0  0  0  0  0  0  0  0  0  0
    3.4842    3.0968    3.2530 C   0  0  0  0  0  0  0  0  0  0  0  0
    5.3620    1.9980    2.2872 C   0  0  0  0  0  0  0  0  0  0  0  0
    7.5962   -7.2761   -1.7230 C   0  0  0  0  0  0  0  0  0  0  0  0
    6.3477   -6.0984   -3.4127 C   0  0  0  0  0  0  0  0  0  0  0  0
    4.8538    2.9121    3.1973 C   0  0  0  0  0  0  0  0  0  0  0  0
    7.5084   -6.7548   -3.0115 C   0  0  0  0  0  0  0  0  0  0  0  0
    3.9015   -5.4107    1.5321 H   0  0  0  0  0  0  0  0  0  0  0  0
    2.8806   -3.1779   -1.5148 H   0  0  0  0  0  0  0  0  0  0  0  0
    4.6329   -3.3380   -1.3152 H   0  0  0  0  0  0  0  0  0  0  0  0
    4.1902   -7.1617    0.3812 H   0  0  0  0  0  0  0  0  0  0  0  0
    3.2346   -6.3683   -0.8518 H   0  0  0  0  0  0  0  0  0  0  0  0
   -2.0803    2.4893    1.0984 H   0  0  0  0  0  0  0  0  0  0  0  0
   -2.1211    2.5661   -0.6809 H   0  0  0  0  0  0  0  0  0  0  0  0
   -3.4530    1.8365    0.2034 H   0  0  0  0  0  0  0  0  0  0  0  0
   -4.2715   -0.4352    0.8552 H   0  0  0  0  0  0  0  0  0  0  0  0
   -4.2883   -0.4474   -0.9217 H   0  0  0  0  0  0  0  0  0  0  0  0
   -4.0244   -1.9468   -0.0167 H   0  0  0  0  0  0  0  0  0  0  0  0
    1.5754    2.5322    2.5552 H   0  0  0  0  0  0  0  0  0  0  0  0
    5.0265    0.6427    0.7280 H   0  0  0  0  0  0  0  0  0  0  0  0
    6.6189   -7.5561    0.1643 H   0  0  0  0  0  0  0  0  0  0  0  0
    4.3708   -5.4639   -2.8694 H   0  0  0  0  0  0  0  0  0  0  0  0
    3.0600    3.8068    3.9605 H   0  0  0  0  0  0  0  0  0  0  0  0
    6.4372    1.8348    2.2360 H   0  0  0  0  0  0  0  0  0  0  0  0
    8.4929   -7.8147   -1.4219 H   0  0  0  0  0  0  0  0  0  0  0  0
    6.2655   -5.7124   -4.4252 H   0  0  0  0  0  0  0  0  0  0  0  0
    5.5174    3.4713    3.8531 H   0  0  0  0  0  0  0  0  0  0  0  0
    8.3373   -6.8683   -3.7064 H   0  0  0  0  0  0  0  0  0  0  0  0
  2  1  2  0  0  0  0
  3  6  1  0  0  0  0
  4  3  1  0  0  0  0
  4  5  2  0  0  0  0
  5  2  1  0  0  0  0
  6  1  1  0  0  0  0
  7  2  1  0  0  0  0
  7  9  1  0  0  0  0
  8  1  1  0  0  0  0
  9  8  2  0  0  0  0
 10  4  1  0  0  0  0
 11  3  1  0  0  0  0
 12  6  2  0  0  0  0
 13 16  1  0  0  0  0
 14 13  1  0  0  0  0
 14 31  1  0  0  0  0
 15 13  2  0  0  0  0
 16 10  1  0  0  0  0
 16 32  1  0  0  0  0
 16 33  1  0  0  0  0
 17 14  1  0  0  0  0
 17 34  1  0  0  0  0
 17 35  1  0  0  0  0
 18  8  1  0  0  0  0
 18 36  1  0  0  0  0
 18 37  1  0  0  0  0
 18 38  1  0  0  0  0
 19  9  1  0  0  0  0
 19 39  1  0  0  0  0
 19 40  1  0  0  0  0
 19 41  1  0  0  0  0
 20 17  1  0  0  0  0
 21 11  2  0  0  0  0
 21 42  1  0  0  0  0
 22 11  1  0  0  0  0
 22 43  1  0  0  0  0
 23 20  2  0  0  0  0
 23 44  1  0  0  0  0
 24 20  1  0  0  0  0
 24 45  1  0  0  0  0
 25 21  1  0  0  0  0
 25 46  1  0  0  0  0
 26 22  2  0  0  0  0
 26 47  1  0  0  0  0
 27 23  1  0  0  0  0
 27 30  2  0  0  0  0
 27 48  1  0  0  0  0
 28 24  2  0  0  0  0
 28 49  1  0  0  0  0
 29 26  1  0  0  0  0
 29 25  2  0  0  0  0
 29 50  1  0  0  0  0
 30 28  1  0  0  0  0
 30 51  1  0  0  0  0
M  END
>  <Mol_ID>
8449

>  <Formula>
C23H21N3O2S2

>  <MolWeight>
435.56174

>  <Cat>
P2814

>  <Name>
WAY-386450

>  <Synonyms>
N/A

>  <Target>
Anti-infection

>  <Form>
free base

>  <CAS>
332882-86-7

>  <URL>
N/A

$$$$
