WAY-326275
 OpenBabel08302521433D

 48 51  0  0  0  0  0  0  0  0999 V2000
   -2.3214    0.7050    0.1073 N   0  0  0  0  0  0  0  0  0  0  0  0
   -2.3410   -0.6326    0.1770 C   0  0  0  0  0  0  0  0  0  0  0  0
   -1.1418    1.3453    0.1851 C   0  0  0  0  0  0  0  0  0  0  0  0
   -1.2215   -1.3656    0.2272 N   0  0  0  0  0  0  0  0  0  0  0  0
    0.0680    0.6512    0.3325 C   0  0  0  0  0  0  0  0  0  0  0  0
   -3.5510   -1.2829    0.1712 N   0  0  0  0  0  0  0  0  0  0  0  0
   -1.1368    2.7476    0.0952 N   0  0  0  0  0  0  0  0  0  0  0  0
   -0.0458   -0.7377    0.2832 C   0  0  0  0  0  0  0  0  0  0  0  0
   -2.1125    3.3466   -0.8164 C   0  0  3  0  0  0  0  0  0  0  0  0
   -5.8702   -2.2812    1.6202 N   0  0  0  0  0  0  0  0  0  0  0  0
   -3.3985    3.8556   -0.1771 C   0  0  0  0  0  0  0  0  0  0  0  0
   -4.7982   -0.5258    0.1553 C   0  0  0  0  0  0  0  0  0  0  0  0
   -3.6324   -2.7057    0.4990 C   0  0  0  0  0  0  0  0  0  0  0  0
    1.3541    1.2382    0.4507 C   0  0  0  0  0  0  0  0  0  0  0  0
    1.1113   -1.5082    0.2648 C   0  0  0  0  0  0  0  0  0  0  0  0
   -5.6433   -0.8339    1.4098 C   0  0  0  0  0  0  0  0  0  0  0  0
   -4.5520   -2.9446    1.7213 C   0  0  0  0  0  0  0  0  0  0  0  0
   -1.4192    4.5222   -1.5226 C   0  0  0  0  0  0  0  0  0  0  0  0
   -3.4070    4.6962    0.9477 C   0  0  0  0  0  0  0  0  0  0  0  0
   -4.6217    3.6154   -0.8305 C   0  0  0  0  0  0  0  0  0  0  0  0
    2.5022    0.4490    0.4559 C   0  0  0  0  0  0  0  0  0  0  0  0
    2.3811   -0.9314    0.3378 C   0  0  0  0  0  0  0  0  0  0  0  0
   -5.8059    4.2184   -0.3986 C   0  0  0  0  0  0  0  0  0  0  0  0
   -4.5957    5.2978    1.3832 C   0  0  0  0  0  0  0  0  0  0  0  0
   -5.7897    5.0694    0.7032 C   0  0  0  0  0  0  0  0  0  0  0  0
   -1.0605    3.1745    1.0092 H   0  0  0  0  0  0  0  0  0  0  0  0
   -2.3647    2.6257   -1.6077 H   0  0  0  0  0  0  0  0  0  0  0  0
   -6.3400   -2.6463    0.7916 H   0  0  0  0  0  0  0  0  0  0  0  0
   -4.6604    0.5580    0.0881 H   0  0  0  0  0  0  0  0  0  0  0  0
   -5.3626   -0.8188   -0.7384 H   0  0  0  0  0  0  0  0  0  0  0  0
   -4.0446   -3.2355   -0.3677 H   0  0  0  0  0  0  0  0  0  0  0  0
   -2.6618   -3.1678    0.7140 H   0  0  0  0  0  0  0  0  0  0  0  0
    1.4567    2.3191    0.5143 H   0  0  0  0  0  0  0  0  0  0  0  0
    1.0205   -2.5872    0.1750 H   0  0  0  0  0  0  0  0  0  0  0  0
   -5.1602   -0.4131    2.3006 H   0  0  0  0  0  0  0  0  0  0  0  0
   -6.6176   -0.3406    1.3166 H   0  0  0  0  0  0  0  0  0  0  0  0
   -4.0519   -2.6004    2.6360 H   0  0  0  0  0  0  0  0  0  0  0  0
   -4.7158   -4.0212    1.8421 H   0  0  0  0  0  0  0  0  0  0  0  0
   -1.2095    5.3471   -0.8317 H   0  0  0  0  0  0  0  0  0  0  0  0
   -0.4642    4.2086   -1.9582 H   0  0  0  0  0  0  0  0  0  0  0  0
   -2.0464    4.9165   -2.3303 H   0  0  0  0  0  0  0  0  0  0  0  0
   -2.4827    4.9293    1.4699 H   0  0  0  0  0  0  0  0  0  0  0  0
   -4.6542    2.9782   -1.7130 H   0  0  0  0  0  0  0  0  0  0  0  0
    3.4865    0.9026    0.5311 H   0  0  0  0  0  0  0  0  0  0  0  0
    3.2654   -1.5631    0.2994 H   0  0  0  0  0  0  0  0  0  0  0  0
   -6.7354    4.0431   -0.9361 H   0  0  0  0  0  0  0  0  0  0  0  0
   -4.5810    5.9684    2.2370 H   0  0  0  0  0  0  0  0  0  0  0  0
   -6.7042    5.5602    1.0261 H   0  0  0  0  0  0  0  0  0  0  0  0
  2  1  2  0  0  0  0
  3  1  1  0  0  0  0
  4  2  1  0  0  0  0
  5  3  2  0  0  0  0
  6  2  1  0  0  0  0
  7  3  1  0  0  0  0
  7 26  1  0  0  0  0
  8  5  1  0  0  0  0
  8  4  2  0  0  0  0
  9  7  1  0  0  0  0
  9 27  1  0  0  0  0
 10 17  1  0  0  0  0
 10 28  1  0  0  0  0
 11  9  1  0  0  0  0
 12  6  1  0  0  0  0
 12 29  1  0  0  0  0
 12 30  1  0  0  0  0
 13  6  1  0  0  0  0
 13 31  1  0  0  0  0
 13 32  1  0  0  0  0
 14  5  1  0  0  0  0
 14 33  1  0  0  0  0
 15  8  1  0  0  0  0
 15 22  2  0  0  0  0
 15 34  1  0  0  0  0
 16 12  1  0  0  0  0
 16 10  1  0  0  0  0
 16 35  1  0  0  0  0
 16 36  1  0  0  0  0
 17 13  1  0  0  0  0
 17 37  1  0  0  0  0
 17 38  1  0  0  0  0
 18  9  1  0  0  0  0
 18 39  1  0  0  0  0
 18 40  1  0  0  0  0
 18 41  1  0  0  0  0
 19 11  2  0  0  0  0
 19 42  1  0  0  0  0
 20 11  1  0  0  0  0
 20 43  1  0  0  0  0
 21 14  2  0  0  0  0
 21 44  1  0  0  0  0
 22 21  1  0  0  0  0
 22 45  1  0  0  0  0
 23 20  2  0  0  0  0
 23 46  1  0  0  0  0
 24 19  1  0  0  0  0
 24 47  1  0  0  0  0
 25 23  1  0  0  0  0
 25 24  2  0  0  0  0
 25 48  1  0  0  0  0
M  END
>  <Mol_ID>
8906

>  <Formula>
C20H23N5

>  <MolWeight>
333.43012

>  <Cat>
P2464

>  <Name>
WAY-326275

>  <Synonyms>
N/A

>  <Target>
Others

>  <Form>
free base

>  <CAS>
869873-21-2

>  <URL>
N/A

$$$$
