WAY-324924
 OpenBabel08302521423D

 42 44  0  0  0  0  0  0  0  0999 V2000
   -0.1086   -0.7077   -0.0993 C   0  0  0  0  0  0  0  0  0  0  0  0
   -0.0056    0.6283   -0.0800 C   0  0  0  0  0  0  0  0  0  0  0  0
   -2.5113    0.6993   -0.1731 C   0  0  0  0  0  0  0  0  0  0  0  0
   -2.5081   -0.6507   -0.2015 C   0  0  0  0  0  0  0  0  0  0  0  0
   -1.3204   -1.3722   -0.1004 O   0  0  0  0  0  0  0  0  0  0  0  0
   -1.2373    1.5005   -0.0065 C   0  0  3  0  0  0  0  0  0  0  0  0
    1.1415   -1.5078   -0.0948 C   0  0  0  0  0  0  0  0  0  0  0  0
    1.2002    1.3082   -0.1096 O   0  0  0  0  0  0  0  0  0  0  0  0
    2.4089   -0.7518   -0.0646 C   0  0  0  0  0  0  0  0  0  0  0  0
   -3.7885    1.4535   -0.2534 C   0  0  0  0  0  0  0  0  0  0  0  0
    2.3845    0.5896   -0.0721 C   0  0  0  0  0  0  0  0  0  0  0  0
   -1.2109    2.3043    1.2966 C   0  0  0  0  0  0  0  0  0  0  0  0
   -3.6140   -1.4591   -0.3061 N   0  0  0  0  0  0  0  0  0  0  0  0
    1.1428   -2.7318   -0.0972 O   0  0  0  0  0  0  0  0  0  0  0  0
   -4.8826    0.9946    0.0420 O   0  0  0  0  0  0  0  0  0  0  0  0
   -0.6522    3.5922    1.3076 C   0  0  0  0  0  0  0  0  0  0  0  0
   -1.6641    1.7559    2.5093 C   0  0  0  0  0  0  0  0  0  0  0  0
   -3.5540    2.7219   -0.6785 O   0  0  0  0  0  0  0  0  0  0  0  0
   -0.9994    3.7513    3.6934 C   0  0  0  0  0  0  0  0  0  0  0  0
   -0.5436    4.3086    2.5003 C   0  0  0  0  0  0  0  0  0  0  0  0
   -1.5656    2.4793    3.6971 C   0  0  0  0  0  0  0  0  0  0  0  0
    3.6030    1.4687   -0.0333 C   0  0  0  0  0  0  0  0  0  0  0  0
    4.8002    0.7055    0.0034 O   0  0  0  0  0  0  0  0  0  0  0  0
   -4.7115    3.5644   -0.7326 C   0  0  0  0  0  0  0  0  0  0  0  0
   -4.2664    4.9495   -1.1645 C   0  0  0  0  0  0  0  0  0  0  0  0
   -1.1726    2.1942   -0.8575 H   0  0  0  0  0  0  0  0  0  0  0  0
    3.3242   -1.3282   -0.0313 H   0  0  0  0  0  0  0  0  0  0  0  0
   -3.4674   -2.3666    0.1296 H   0  0  0  0  0  0  0  0  0  0  0  0
   -4.4813   -1.0041   -0.0082 H   0  0  0  0  0  0  0  0  0  0  0  0
   -0.2776    4.0386    0.3884 H   0  0  0  0  0  0  0  0  0  0  0  0
   -2.0924    0.7562    2.5475 H   0  0  0  0  0  0  0  0  0  0  0  0
   -0.9073    4.3058    4.6236 H   0  0  0  0  0  0  0  0  0  0  0  0
   -0.0956    5.2989    2.5010 H   0  0  0  0  0  0  0  0  0  0  0  0
   -1.9216    2.0434    4.6270 H   0  0  0  0  0  0  0  0  0  0  0  0
    3.6289    2.1076   -0.9222 H   0  0  0  0  0  0  0  0  0  0  0  0
    3.5719    2.1052    0.8575 H   0  0  0  0  0  0  0  0  0  0  0  0
    5.5348    1.3413    0.0449 H   0  0  0  0  0  0  0  0  0  0  0  0
   -5.4223    3.1596   -1.4602 H   0  0  0  0  0  0  0  0  0  0  0  0
   -5.1819    3.6195    0.2557 H   0  0  0  0  0  0  0  0  0  0  0  0
   -3.5803    5.3821   -0.4282 H   0  0  0  0  0  0  0  0  0  0  0  0
   -3.7238    4.9038   -2.1147 H   0  0  0  0  0  0  0  0  0  0  0  0
   -5.1246    5.6175   -1.2785 H   0  0  0  0  0  0  0  0  0  0  0  0
  2  1  2  0  0  0  0
  3  4  2  0  0  0  0
  4  5  1  0  0  0  0
  5  1  1  0  0  0  0
  6  2  1  0  0  0  0
  6  3  1  0  0  0  0
  6 26  1  0  0  0  0
  7  1  1  0  0  0  0
  8  2  1  0  0  0  0
  8 11  1  0  0  0  0
  9  7  1  0  0  0  0
  9 27  1  0  0  0  0
 10  3  1  0  0  0  0
 11  9  2  0  0  0  0
 12  6  1  0  0  0  0
 13  4  1  0  0  0  0
 13 28  1  0  0  0  0
 13 29  1  0  0  0  0
 14  7  2  0  0  0  0
 15 10  2  0  0  0  0
 16 12  2  0  0  0  0
 16 30  1  0  0  0  0
 17 12  1  0  0  0  0
 17 31  1  0  0  0  0
 18 10  1  0  0  0  0
 19 21  1  0  0  0  0
 19 20  2  0  0  0  0
 19 32  1  0  0  0  0
 20 16  1  0  0  0  0
 20 33  1  0  0  0  0
 21 17  2  0  0  0  0
 21 34  1  0  0  0  0
 22 11  1  0  0  0  0
 22 35  1  0  0  0  0
 22 36  1  0  0  0  0
 23 22  1  0  0  0  0
 23 37  1  0  0  0  0
 24 18  1  0  0  0  0
 24 38  1  0  0  0  0
 24 39  1  0  0  0  0
 25 24  1  0  0  0  0
 25 40  1  0  0  0  0
 25 41  1  0  0  0  0
 25 42  1  0  0  0  0
M  END
>  <Mol_ID>
8661

>  <Formula>
C18H16ClNO6

>  <MolWeight>
377.77574

>  <Cat>
P2360

>  <Name>
WAY-324924

>  <Synonyms>
N/A

>  <Target>
Anti-infection

>  <Form>
free base

>  <CAS>
194282-66-1

>  <URL>
N/A

$$$$
