WAY-231547
 OpenBabel08302521393D

 40 42  0  0  0  0  0  0  0  0999 V2000
    2.4414    0.7403   -0.1142 N   0  0  0  0  0  0  0  0  0  0  0  0
   -0.0490    0.7157   -0.0309 C   0  0  0  0  0  0  0  0  0  0  0  0
    2.3628   -0.6447   -0.0150 C   0  0  0  0  0  0  0  0  0  0  0  0
    1.2611   -1.3354    0.0248 N   0  0  0  0  0  0  0  0  0  0  0  0
    1.2149    1.5428    0.0695 C   0  0  3  0  0  0  0  0  0  0  0  0
    0.0342   -0.6729   -0.0225 C   0  0  0  0  0  0  0  0  0  0  0  0
    3.7399    1.4580   -0.1454 C   0  0  0  0  0  0  0  0  0  0  0  0
    3.7311    2.8032   -0.8808 C   0  0  0  0  0  0  0  0  0  0  0  0
   -1.3069    1.3479   -0.0701 C   0  0  0  0  0  0  0  0  0  0  0  0
    1.2241    2.3445    1.3669 C   0  0  0  0  0  0  0  0  0  0  0  0
    4.0826    3.8563   -0.3376 O   0  0  0  0  0  0  0  0  0  0  0  0
   -1.1452   -1.4272   -0.0411 C   0  0  0  0  0  0  0  0  0  0  0  0
    3.3573    2.7112   -2.2201 N   0  0  0  0  0  0  0  0  0  0  0  0
   -2.4732    0.5837   -0.0709 C   0  0  0  0  0  0  0  0  0  0  0  0
    2.9135    3.8770   -2.8810 N   0  0  0  0  0  0  0  0  0  0  0  0
    3.6174   -1.5074    0.0175 C   0  0  0  0  0  0  0  0  0  0  0  0
   -2.3986   -0.8016   -0.0586 C   0  0  0  0  0  0  0  0  0  0  0  0
   -4.1525    1.4512   -0.0612 Br  0  0  0  0  0  0  0  0  0  0  0  0
    1.1648    1.7112    2.6195 C   0  0  0  0  0  0  0  0  0  0  0  0
    1.2042    3.7493    1.3207 C   0  0  0  0  0  0  0  0  0  0  0  0
    1.0790    2.4627    3.7920 C   0  0  0  0  0  0  0  0  0  0  0  0
    1.1574    4.4986    2.4964 C   0  0  0  0  0  0  0  0  0  0  0  0
    1.0876    3.8558    3.7298 C   0  0  0  0  0  0  0  0  0  0  0  0
    1.1493    2.2251   -0.7864 H   0  0  0  0  0  0  0  0  0  0  0  0
    4.1170    1.6048    0.8725 H   0  0  0  0  0  0  0  0  0  0  0  0
    4.4784    0.8631   -0.6929 H   0  0  0  0  0  0  0  0  0  0  0  0
   -1.3683    2.4312   -0.0651 H   0  0  0  0  0  0  0  0  0  0  0  0
   -1.0861   -2.5119   -0.0286 H   0  0  0  0  0  0  0  0  0  0  0  0
    3.0971    1.7955   -2.5886 H   0  0  0  0  0  0  0  0  0  0  0  0
    3.7276    4.4239   -3.1794 H   0  0  0  0  0  0  0  0  0  0  0  0
    2.3851    3.6383   -3.7200 H   0  0  0  0  0  0  0  0  0  0  0  0
    3.5828   -2.1634    0.8930 H   0  0  0  0  0  0  0  0  0  0  0  0
    3.6406   -2.1277   -0.8840 H   0  0  0  0  0  0  0  0  0  0  0  0
    4.5458   -0.9438    0.0722 H   0  0  0  0  0  0  0  0  0  0  0  0
   -3.3014   -1.4063   -0.0533 H   0  0  0  0  0  0  0  0  0  0  0  0
    1.1503    0.6235    2.6851 H   0  0  0  0  0  0  0  0  0  0  0  0
    1.2203    4.2733    0.3660 H   0  0  0  0  0  0  0  0  0  0  0  0
    0.9939    1.9632    4.7528 H   0  0  0  0  0  0  0  0  0  0  0  0
    1.1659    5.5844    2.4465 H   0  0  0  0  0  0  0  0  0  0  0  0
    1.0306    4.4403    4.6438 H   0  0  0  0  0  0  0  0  0  0  0  0
  2  5  1  0  0  0  0
  3  1  1  0  0  0  0
  4  3  2  0  0  0  0
  5  1  1  0  0  0  0
  5 24  1  0  0  0  0
  6  2  2  0  0  0  0
  6  4  1  0  0  0  0
  7  1  1  0  0  0  0
  7 25  1  0  0  0  0
  7 26  1  0  0  0  0
  8  7  1  0  0  0  0
  9  2  1  0  0  0  0
  9 27  1  0  0  0  0
 10  5  1  0  0  0  0
 11  8  2  0  0  0  0
 12  6  1  0  0  0  0
 12 17  2  0  0  0  0
 12 28  1  0  0  0  0
 13  8  1  0  0  0  0
 13 29  1  0  0  0  0
 14  9  2  0  0  0  0
 15 13  1  0  0  0  0
 15 30  1  0  0  0  0
 15 31  1  0  0  0  0
 16  3  1  0  0  0  0
 16 32  1  0  0  0  0
 16 33  1  0  0  0  0
 16 34  1  0  0  0  0
 17 14  1  0  0  0  0
 17 35  1  0  0  0  0
 18 14  1  0  0  0  0
 19 10  2  0  0  0  0
 19 36  1  0  0  0  0
 20 10  1  0  0  0  0
 20 37  1  0  0  0  0
 21 19  1  0  0  0  0
 21 38  1  0  0  0  0
 22 20  2  0  0  0  0
 22 39  1  0  0  0  0
 23 22  1  0  0  0  0
 23 21  2  0  0  0  0
 23 40  1  0  0  0  0
M  END
>  <Mol_ID>
8030

>  <Formula>
C17H17BrN4O

>  <MolWeight>
373.24708

>  <Cat>
P2065

>  <Name>
WAY-231547

>  <Synonyms>
N/A

>  <Target>
trypanothione reductase

>  <Form>
free base

>  <CAS>
328540-92-7

>  <URL>
N/A

$$$$
