WAY-324546
 OpenBabel08302521423D

 36 38  0  0  0  0  0  0  0  0999 V2000
    0.2976   -1.2329    0.0451 C   0  0  0  0  0  0  0  0  0  0  0  0
    1.4388   -0.6119   -0.0650 N   0  0  0  0  0  0  0  0  0  0  0  0
    1.2530    0.7552   -0.0257 C   0  0  0  0  0  0  0  0  0  0  0  0
    0.0828   -2.5799    0.0181 N   0  0  0  0  0  0  0  0  0  0  0  0
    1.0747   -3.4334   -0.4235 C   0  0  0  0  0  0  0  0  0  0  0  0
   -1.0724   -0.2526    0.2867 S   0  0  0  0  0  0  0  0  0  0  0  0
    2.3965    1.6665   -0.0966 C   0  0  0  0  0  0  0  0  0  0  0  0
    0.8167   -4.8736   -0.1707 C   0  0  0  0  0  0  0  0  0  0  0  0
   -0.0680    1.1420    0.1271 C   0  0  0  0  0  0  0  0  0  0  0  0
    3.5388    1.3885   -0.8794 C   0  0  0  0  0  0  0  0  0  0  0  0
   -0.2832   -5.2148    0.5606 N   0  0  0  0  0  0  0  0  0  0  0  0
    2.3956    2.8263    0.7019 C   0  0  0  0  0  0  0  0  0  0  0  0
    2.1058   -3.1239   -1.0114 O   0  0  0  0  0  0  0  0  0  0  0  0
    4.6528    2.2504   -0.8020 C   0  0  0  0  0  0  0  0  0  0  0  0
    1.5993   -7.1380   -0.3860 N   0  0  0  0  0  0  0  0  0  0  0  0
    3.5042    3.6781    0.7523 C   0  0  0  0  0  0  0  0  0  0  0  0
    4.6479    3.3886    0.0105 C   0  0  0  0  0  0  0  0  0  0  0  0
    1.7274   -5.8122   -0.6399 C   0  0  0  0  0  0  0  0  0  0  0  0
    3.6832    0.1938   -1.7882 C   0  0  0  0  0  0  0  0  0  0  0  0
   -0.3898   -6.5446    0.8193 C   0  0  0  0  0  0  0  0  0  0  0  0
    0.5283   -7.4789    0.3627 C   0  0  0  0  0  0  0  0  0  0  0  0
    5.8650    4.2619    0.0779 C   0  0  0  0  0  0  0  0  0  0  0  0
   -0.8040   -2.9569    0.3255 H   0  0  0  0  0  0  0  0  0  0  0  0
   -0.4869    2.1369    0.1720 H   0  0  0  0  0  0  0  0  0  0  0  0
    1.5415    3.0660    1.3308 H   0  0  0  0  0  0  0  0  0  0  0  0
    5.5456    2.0155   -1.3810 H   0  0  0  0  0  0  0  0  0  0  0  0
    3.4717    4.5543    1.3955 H   0  0  0  0  0  0  0  0  0  0  0  0
    2.5947   -5.5240   -1.2259 H   0  0  0  0  0  0  0  0  0  0  0  0
    4.0739    0.5167   -2.7601 H   0  0  0  0  0  0  0  0  0  0  0  0
    4.3831   -0.5256   -1.3501 H   0  0  0  0  0  0  0  0  0  0  0  0
    2.7432   -0.3145   -2.0052 H   0  0  0  0  0  0  0  0  0  0  0  0
   -1.2417   -6.8446    1.4190 H   0  0  0  0  0  0  0  0  0  0  0  0
    0.4316   -8.5334    0.5954 H   0  0  0  0  0  0  0  0  0  0  0  0
    6.7274    3.6802    0.4207 H   0  0  0  0  0  0  0  0  0  0  0  0
    6.0840    4.6807   -0.9094 H   0  0  0  0  0  0  0  0  0  0  0  0
    5.7255    5.0940    0.7755 H   0  0  0  0  0  0  0  0  0  0  0  0
  2  1  2  0  0  0  0
  3  2  1  0  0  0  0
  4  1  1  0  0  0  0
  4 23  1  0  0  0  0
  5  4  1  0  0  0  0
  6  1  1  0  0  0  0
  7  3  1  0  0  0  0
  8  5  1  0  0  0  0
  9  6  1  0  0  0  0
  9  3  2  0  0  0  0
  9 24  1  0  0  0  0
 10  7  2  0  0  0  0
 11  8  2  0  0  0  0
 12  7  1  0  0  0  0
 12 25  1  0  0  0  0
 13  5  2  0  0  0  0
 14 10  1  0  0  0  0
 14 17  2  0  0  0  0
 14 26  1  0  0  0  0
 15 18  2  0  0  0  0
 16 12  2  0  0  0  0
 16 27  1  0  0  0  0
 17 16  1  0  0  0  0
 18  8  1  0  0  0  0
 18 28  1  0  0  0  0
 19 10  1  0  0  0  0
 19 29  1  0  0  0  0
 19 30  1  0  0  0  0
 19 31  1  0  0  0  0
 20 11  1  0  0  0  0
 20 21  2  0  0  0  0
 20 32  1  0  0  0  0
 21 15  1  0  0  0  0
 21 33  1  0  0  0  0
 22 17  1  0  0  0  0
 22 34  1  0  0  0  0
 22 35  1  0  0  0  0
 22 36  1  0  0  0  0
M  END
>  <Mol_ID>
8641

>  <Formula>
C16H14N4OS

>  <MolWeight>
310.37356

>  <Cat>
P2329

>  <Name>
WAY-324546

>  <Synonyms>
N/A

>  <Target>
Nek2/Hec1

>  <Form>
free base

>  <CAS>
544416-00-4

>  <URL>
N/A

$$$$
