WAY-657568
 OpenBabel08302521423D

 50 52  0  0  0  0  0  0  0  0999 V2000
   -4.1546   -4.9534   -0.9257 C   0  0  0  0  0  0  0  0  0  0  0  0
   -3.1242    3.7842    3.5647 S   0  0  0  0  0  0  0  0  0  0  0  0
   -3.0325   -4.7396   -1.6498 N   0  0  0  0  0  0  0  0  0  0  0  0
   -4.7472   -6.2148   -1.2790 C   0  0  0  0  0  0  0  0  0  0  0  0
   -2.9193   -5.8220   -2.4234 N   0  0  0  0  0  0  0  0  0  0  0  0
   -4.2315    2.9225    2.4705 C   0  0  0  0  0  0  0  0  0  0  0  0
   -3.9280    0.7357    1.1094 N   0  0  0  0  0  0  0  0  0  0  0  0
   -4.6549   -3.9120   -0.0023 C   0  0  0  0  0  0  0  0  0  0  0  0
   -3.7296    1.4760    2.3917 C   0  0  3  0  0  0  0  0  0  0  0  0
   -4.0472   -0.6690    1.2474 C   0  0  0  0  0  0  0  0  0  0  0  0
   -3.8951   -6.7571   -2.2404 C   0  0  0  0  0  0  0  0  0  0  0  0
   -2.3575    4.7247    2.7668 O   0  0  0  0  0  0  0  0  0  0  0  0
   -3.8469    4.1951    4.7478 O   0  0  0  0  0  0  0  0  0  0  0  0
   -3.8061   -2.8389    0.0512 O   0  0  0  0  0  0  0  0  0  0  0  0
   -2.2634    1.4105    2.8554 C   0  0  0  0  0  0  0  0  0  0  0  0
   -2.0728    2.4165    3.9742 C   0  0  0  0  0  0  0  0  0  0  0  0
   -4.0793    1.4700   -0.1751 C   0  0  0  0  0  0  0  0  0  0  0  0
   -4.3971   -1.5374    0.0279 C   0  0  0  0  0  0  0  0  0  0  0  0
   -5.7439   -3.9537    0.5568 O   0  0  0  0  0  0  0  0  0  0  0  0
   -3.9062   -1.2055    2.3522 O   0  0  0  0  0  0  0  0  0  0  0  0
   -5.8958   -6.9576   -0.9274 C   0  0  0  0  0  0  0  0  0  0  0  0
   -2.9082    2.3775   -0.6412 C   0  0  0  0  0  0  0  0  0  0  0  0
   -4.0934   -8.0010   -2.8473 C   0  0  0  0  0  0  0  0  0  0  0  0
   -1.6039    1.6355   -0.9331 C   0  0  0  0  0  0  0  0  0  0  0  0
   -3.3204    3.1338   -1.9183 C   0  0  0  0  0  0  0  0  0  0  0  0
   -6.1237   -8.2043   -1.5383 C   0  0  0  0  0  0  0  0  0  0  0  0
   -5.2294   -8.7202   -2.4751 C   0  0  0  0  0  0  0  0  0  0  0  0
   -2.1568   -5.8558   -3.0905 H   0  0  0  0  0  0  0  0  0  0  0  0
   -5.2336    2.9589    2.9104 H   0  0  0  0  0  0  0  0  0  0  0  0
   -4.2547    3.4711    1.5309 H   0  0  0  0  0  0  0  0  0  0  0  0
   -4.3140    0.9403    3.1541 H   0  0  0  0  0  0  0  0  0  0  0  0
   -2.0039    0.4071    3.2124 H   0  0  0  0  0  0  0  0  0  0  0  0
   -1.5843    1.6403    2.0306 H   0  0  0  0  0  0  0  0  0  0  0  0
   -1.0377    2.7600    4.0433 H   0  0  0  0  0  0  0  0  0  0  0  0
   -2.3942    2.0178    4.9401 H   0  0  0  0  0  0  0  0  0  0  0  0
   -4.3165    0.7841   -0.9872 H   0  0  0  0  0  0  0  0  0  0  0  0
   -4.9813    2.0831   -0.0616 H   0  0  0  0  0  0  0  0  0  0  0  0
   -3.9975   -1.0937   -0.8818 H   0  0  0  0  0  0  0  0  0  0  0  0
   -5.4887   -1.5807   -0.0584 H   0  0  0  0  0  0  0  0  0  0  0  0
   -6.6065   -6.5769   -0.1982 H   0  0  0  0  0  0  0  0  0  0  0  0
   -2.6914    3.1254    0.1274 H   0  0  0  0  0  0  0  0  0  0  0  0
   -3.4002   -8.3942   -3.5853 H   0  0  0  0  0  0  0  0  0  0  0  0
   -1.6495    1.0846   -1.8778 H   0  0  0  0  0  0  0  0  0  0  0  0
   -0.7845    2.3594   -1.0325 H   0  0  0  0  0  0  0  0  0  0  0  0
   -1.3311    0.9422   -0.1370 H   0  0  0  0  0  0  0  0  0  0  0  0
   -3.4974    2.4401   -2.7495 H   0  0  0  0  0  0  0  0  0  0  0  0
   -4.2367    3.7117   -1.7628 H   0  0  0  0  0  0  0  0  0  0  0  0
   -2.5355    3.8314   -2.2351 H   0  0  0  0  0  0  0  0  0  0  0  0
   -7.0116   -8.7787   -1.2793 H   0  0  0  0  0  0  0  0  0  0  0  0
   -5.4198   -9.6911   -2.9298 H   0  0  0  0  0  0  0  0  0  0  0  0
  2  6  1  0  0  0  0
  2 16  1  0  0  0  0
  3  1  2  0  0  0  0
  4  1  1  0  0  0  0
  5  3  1  0  0  0  0
  5 28  1  0  0  0  0
  6  9  1  0  0  0  0
  6 29  1  0  0  0  0
  6 30  1  0  0  0  0
  7 10  1  0  0  0  0
  8  1  1  0  0  0  0
  9  7  1  0  0  0  0
  9 31  1  0  0  0  0
 10 18  1  0  0  0  0
 11  4  2  0  0  0  0
 11  5  1  0  0  0  0
 12  2  2  0  0  0  0
 13  2  2  0  0  0  0
 14  8  1  0  0  0  0
 15  9  1  0  0  0  0
 15 32  1  0  0  0  0
 15 33  1  0  0  0  0
 16 15  1  0  0  0  0
 16 34  1  0  0  0  0
 16 35  1  0  0  0  0
 17  7  1  0  0  0  0
 17 36  1  0  0  0  0
 17 37  1  0  0  0  0
 18 14  1  0  0  0  0
 18 38  1  0  0  0  0
 18 39  1  0  0  0  0
 19  8  2  0  0  0  0
 20 10  2  0  0  0  0
 21  4  1  0  0  0  0
 21 40  1  0  0  0  0
 22 17  1  0  0  0  0
 22 41  1  0  0  0  0
 23 11  1  0  0  0  0
 23 42  1  0  0  0  0
 24 22  1  0  0  0  0
 24 43  1  0  0  0  0
 24 44  1  0  0  0  0
 24 45  1  0  0  0  0
 25 22  1  0  0  0  0
 25 46  1  0  0  0  0
 25 47  1  0  0  0  0
 25 48  1  0  0  0  0
 26 21  2  0  0  0  0
 26 49  1  0  0  0  0
 27 26  1  0  0  0  0
 27 23  2  0  0  0  0
 27 50  1  0  0  0  0
M  END
>  <Mol_ID>
8547

>  <Formula>
C18H23N3O5S

>  <MolWeight>
393.45732

>  <Cat>
P3158

>  <Name>
WAY-657568

>  <Synonyms>
N/A

>  <Target>
Catalytic Inhibitor

>  <Form>
free base

>  <CAS>
853351-76-5

>  <URL>
N/A

$$$$
