WAY-332043
 OpenBabel08302521443D

 57 59  0  0  0  0  0  0  0  0999 V2000
   -3.2277    5.8075   -2.1933 N   0  0  0  0  0  0  0  0  0  0  0  0
   -3.0733    4.4564   -2.4394 C   0  0  0  0  0  0  0  0  0  0  0  0
   -3.7558    6.2840   -3.3054 C   0  0  0  0  0  0  0  0  0  0  0  0
   -3.9919    5.3273   -4.2579 O   0  0  0  0  0  0  0  0  0  0  0  0
   -3.5503    4.1639   -3.6989 C   0  0  0  0  0  0  0  0  0  0  0  0
    1.2662    5.3599   -1.4655 C   0  0  0  0  0  0  0  0  0  0  0  0
    3.3744    5.9306    2.1053 N   0  0  0  0  0  0  0  0  0  0  0  0
    2.0141    5.2754   -0.3041 N   0  0  0  0  0  0  0  0  0  0  0  0
    4.2396    5.8675    3.1736 C   0  0  0  0  0  0  0  0  0  0  0  0
   -0.2267    5.1342   -1.3867 C   0  0  0  0  0  0  0  0  0  0  0  0
   -0.6523    3.3993   -1.6965 S   0  0  3  0  0  0  0  0  0  0  0  0
   -2.4493    3.5695   -1.4328 C   0  0  0  0  0  0  0  0  0  0  0  0
   -4.0591    7.6628   -3.6803 C   0  0  0  0  0  0  0  0  0  0  0  0
    3.8223    6.5043    0.8346 C   0  0  0  0  0  0  0  0  0  0  0  0
    1.9609    5.5475    2.1633 C   0  0  0  0  0  0  0  0  0  0  0  0
    3.4456    5.5984   -0.3443 C   0  0  0  0  0  0  0  0  0  0  0  0
    1.5694    4.6732    0.9630 C   0  0  0  0  0  0  0  0  0  0  0  0
    5.4115    6.2273    3.1192 O   0  0  0  0  0  0  0  0  0  0  0  0
    1.7742    5.6759   -2.5454 O   0  0  0  0  0  0  0  0  0  0  0  0
   -0.1271    2.5687   -0.5593 O   0  0  0  0  0  0  0  0  0  0  0  0
   -3.7615    8.7156   -2.8033 C   0  0  0  0  0  0  0  0  0  0  0  0
   -4.6142    7.9725   -4.9300 C   0  0  0  0  0  0  0  0  0  0  0  0
    3.6629    5.3546    4.2952 O   0  0  0  0  0  0  0  0  0  0  0  0
   -3.9912   10.0445   -3.1772 C   0  0  0  0  0  0  0  0  0  0  0  0
   -4.8445    9.2983   -5.3049 C   0  0  0  0  0  0  0  0  0  0  0  0
   -4.5262   10.3450   -4.4353 C   0  0  0  0  0  0  0  0  0  0  0  0
   -3.6551    2.9531   -4.5300 C   0  0  0  0  0  0  0  0  0  0  0  0
    4.5578    5.2529    5.4091 C   0  0  0  0  0  0  0  0  0  0  0  0
   -4.7293   11.7723   -4.8494 C   0  0  0  0  0  0  0  0  0  0  0  0
    3.8012    4.6882    6.5953 C   0  0  0  0  0  0  0  0  0  0  0  0
   -0.6682    5.7479   -2.1777 H   0  0  0  0  0  0  0  0  0  0  0  0
   -0.6415    5.4846   -0.4392 H   0  0  0  0  0  0  0  0  0  0  0  0
   -2.6199    3.9412   -0.4175 H   0  0  0  0  0  0  0  0  0  0  0  0
   -2.8753    2.5627   -1.4933 H   0  0  0  0  0  0  0  0  0  0  0  0
    3.3211    7.4749    0.7315 H   0  0  0  0  0  0  0  0  0  0  0  0
    4.9009    6.6867    0.8385 H   0  0  0  0  0  0  0  0  0  0  0  0
    1.7177    5.0261    3.0932 H   0  0  0  0  0  0  0  0  0  0  0  0
    1.3812    6.4785    2.1430 H   0  0  0  0  0  0  0  0  0  0  0  0
    3.9938    4.6499   -0.2848 H   0  0  0  0  0  0  0  0  0  0  0  0
    3.7210    6.0840   -1.2854 H   0  0  0  0  0  0  0  0  0  0  0  0
    2.0640    3.6966    1.0360 H   0  0  0  0  0  0  0  0  0  0  0  0
    0.4944    4.4984    0.9842 H   0  0  0  0  0  0  0  0  0  0  0  0
   -3.3324    8.5070   -1.8249 H   0  0  0  0  0  0  0  0  0  0  0  0
   -4.8601    7.1813   -5.6353 H   0  0  0  0  0  0  0  0  0  0  0  0
   -3.7379   10.8444   -2.4847 H   0  0  0  0  0  0  0  0  0  0  0  0
   -5.2628    9.5036   -6.2878 H   0  0  0  0  0  0  0  0  0  0  0  0
   -4.6929    2.7892   -4.8360 H   0  0  0  0  0  0  0  0  0  0  0  0
   -3.0428    3.0563   -5.4310 H   0  0  0  0  0  0  0  0  0  0  0  0
   -3.3158    2.0661   -3.9870 H   0  0  0  0  0  0  0  0  0  0  0  0
    5.3877    4.5846    5.1527 H   0  0  0  0  0  0  0  0  0  0  0  0
    4.9472    6.2454    5.6627 H   0  0  0  0  0  0  0  0  0  0  0  0
   -5.3891   12.2839   -4.1423 H   0  0  0  0  0  0  0  0  0  0  0  0
   -3.7664   12.2916   -4.8885 H   0  0  0  0  0  0  0  0  0  0  0  0
   -5.1860   11.8391   -5.8427 H   0  0  0  0  0  0  0  0  0  0  0  0
    2.9582    5.3344    6.8598 H   0  0  0  0  0  0  0  0  0  0  0  0
    3.3882    3.7025    6.3581 H   0  0  0  0  0  0  0  0  0  0  0  0
    4.4599    4.5948    7.4638 H   0  0  0  0  0  0  0  0  0  0  0  0
  2  1  1  0  0  0  0
  3  1  2  0  0  0  0
  4  3  1  0  0  0  0
  5  2  2  0  0  0  0
  5  4  1  0  0  0  0
  6 10  1  0  0  0  0
  7 15  1  0  0  0  0
  7 14  1  0  0  0  0
  8  6  1  0  0  0  0
  9  7  1  0  0  0  0
 10 11  1  0  0  0  0
 10 31  1  0  0  0  0
 10 32  1  0  0  0  0
 11 12  1  0  0  0  0
 12  2  1  0  0  0  0
 12 33  1  0  0  0  0
 12 34  1  0  0  0  0
 13  3  1  0  0  0  0
 14 16  1  0  0  0  0
 14 35  1  0  0  0  0
 14 36  1  0  0  0  0
 15 17  1  0  0  0  0
 15 37  1  0  0  0  0
 15 38  1  0  0  0  0
 16  8  1  0  0  0  0
 16 39  1  0  0  0  0
 16 40  1  0  0  0  0
 17  8  1  0  0  0  0
 17 41  1  0  0  0  0
 17 42  1  0  0  0  0
 18  9  2  0  0  0  0
 19  6  2  0  0  0  0
 20 11  2  0  0  0  0
 21 13  2  0  0  0  0
 21 43  1  0  0  0  0
 22 13  1  0  0  0  0
 22 44  1  0  0  0  0
 23  9  1  0  0  0  0
 24 21  1  0  0  0  0
 24 45  1  0  0  0  0
 25 22  2  0  0  0  0
 25 46  1  0  0  0  0
 26 25  1  0  0  0  0
 26 24  2  0  0  0  0
 27  5  1  0  0  0  0
 27 47  1  0  0  0  0
 27 48  1  0  0  0  0
 27 49  1  0  0  0  0
 28 23  1  0  0  0  0
 28 50  1  0  0  0  0
 28 51  1  0  0  0  0
 29 26  1  0  0  0  0
 29 52  1  0  0  0  0
 29 53  1  0  0  0  0
 29 54  1  0  0  0  0
 30 28  1  0  0  0  0
 30 55  1  0  0  0  0
 30 56  1  0  0  0  0
 30 57  1  0  0  0  0
M  END
>  <Mol_ID>
9239

>  <Formula>
C21H27N3O5S

>  <MolWeight>
433.52118

>  <Cat>
P2691

>  <Name>
WAY-332043

>  <Synonyms>
N/A

>  <Target>
beta-catenin

>  <Form>
free base

>  <CAS>
958954-29-5

>  <URL>
N/A

$$$$
