WAY-345285
 OpenBabel08302521403D

 32 34  0  0  0  0  0  0  0  0999 V2000
   -0.1443   -0.7364   -0.1172 C   0  0  0  0  0  0  0  0  0  0  0  0
   -0.2311    0.6256   -0.0622 C   0  0  0  0  0  0  0  0  0  0  0  0
    0.9933   -1.4480   -0.1679 N   0  0  0  0  0  0  0  0  0  0  0  0
   -1.6667   -1.4857   -0.0875 S   0  0  0  0  0  0  0  0  0  0  0  0
    1.0084    1.3663   -0.0369 C   0  0  0  0  0  0  0  0  0  0  0  0
   -1.5824    1.0799   -0.0393 C   0  0  0  0  0  0  0  0  0  0  0  0
    2.0725   -0.7375   -0.0907 C   0  0  0  0  0  0  0  0  0  0  0  0
   -2.4764    0.0249   -0.0368 C   0  0  0  0  0  0  0  0  0  0  0  0
    2.1597    0.6202   -0.0107 O   0  0  0  0  0  0  0  0  0  0  0  0
    1.0450    2.5905   -0.0247 O   0  0  0  0  0  0  0  0  0  0  0  0
    3.4257   -1.3502   -0.0870 C   0  0  0  0  0  0  0  0  0  0  0  0
   -3.9726    0.0588    0.0031 C   0  0  0  0  0  0  0  0  0  0  0  0
    3.6888   -2.6044    0.5070 C   0  0  0  0  0  0  0  0  0  0  0  0
    4.4547   -0.6708   -0.7659 C   0  0  0  0  0  0  0  0  0  0  0  0
   -4.4946    0.0591    1.4313 C   0  0  0  0  0  0  0  0  0  0  0  0
    4.9854   -3.1424    0.3899 C   0  0  0  0  0  0  0  0  0  0  0  0
    2.6903   -3.4356    1.2690 C   0  0  0  0  0  0  0  0  0  0  0  0
    5.7288   -1.2272   -0.8713 C   0  0  0  0  0  0  0  0  0  0  0  0
    5.9924   -2.4641   -0.2956 C   0  0  0  0  0  0  0  0  0  0  0  0
   -1.8780    2.1231   -0.0128 H   0  0  0  0  0  0  0  0  0  0  0  0
   -4.3312    0.9549   -0.5169 H   0  0  0  0  0  0  0  0  0  0  0  0
   -4.3878   -0.8014   -0.5363 H   0  0  0  0  0  0  0  0  0  0  0  0
    4.2690    0.2894   -1.2433 H   0  0  0  0  0  0  0  0  0  0  0  0
   -4.1495    0.9433    1.9780 H   0  0  0  0  0  0  0  0  0  0  0  0
   -5.5891    0.0625    1.4333 H   0  0  0  0  0  0  0  0  0  0  0  0
   -4.1585   -0.8271    1.9806 H   0  0  0  0  0  0  0  0  0  0  0  0
    5.2119   -4.1116    0.8325 H   0  0  0  0  0  0  0  0  0  0  0  0
    2.5495   -4.3976    0.7638 H   0  0  0  0  0  0  0  0  0  0  0  0
    3.0598   -3.6205    2.2837 H   0  0  0  0  0  0  0  0  0  0  0  0
    1.7088   -2.9803    1.3884 H   0  0  0  0  0  0  0  0  0  0  0  0
    6.5098   -0.7010   -1.4143 H   0  0  0  0  0  0  0  0  0  0  0  0
    6.9809   -2.9078   -0.3846 H   0  0  0  0  0  0  0  0  0  0  0  0
  1  2  2  0  0  0  0
  1  3  1  0  0  0  0
  1  4  1  0  0  0  0
  2  5  1  0  0  0  0
  2  6  1  0  0  0  0
  3  7  2  0  0  0  0
  4  8  1  0  0  0  0
  5  9  1  0  0  0  0
  5 10  2  0  0  0  0
  6  8  2  0  0  0  0
  6 20  1  0  0  0  0
  7 11  1  0  0  0  0
  7  9  1  0  0  0  0
  8 12  1  0  0  0  0
 11 13  2  0  0  0  0
 11 14  1  0  0  0  0
 12 15  1  0  0  0  0
 12 21  1  0  0  0  0
 12 22  1  0  0  0  0
 13 16  1  0  0  0  0
 13 17  1  0  0  0  0
 14 18  2  0  0  0  0
 14 23  1  0  0  0  0
 15 24  1  0  0  0  0
 15 25  1  0  0  0  0
 15 26  1  0  0  0  0
 16 19  2  0  0  0  0
 16 27  1  0  0  0  0
 17 28  1  0  0  0  0
 17 29  1  0  0  0  0
 17 30  1  0  0  0  0
 18 19  1  0  0  0  0
 18 31  1  0  0  0  0
 19 32  1  0  0  0  0
M  END
>  <Mol_ID>
8266

>  <Formula>
C15H13NO2S

>  <MolWeight>
271.33422

>  <Cat>
P2746

>  <Name>
WAY-345285

>  <Synonyms>
N/A

>  <Target>
SCCE

>  <Form>
free base

>  <CAS>
342382-84-7

>  <URL>
N/A

$$$$
