WAY-381602
 OpenBabel08302521393D

 48 50  0  0  0  0  0  0  0  0999 V2000
    0.9368    0.0408   -0.0563 S   0  0  0  0  0  0  0  0  0  0  0  0
   -2.0185   -0.3598   -6.9663 N   0  0  0  0  0  0  0  0  0  0  0  0
   -2.0905    0.2645   -5.7317 C   0  0  0  0  0  0  0  0  0  0  0  0
   -1.1524   -1.3629   -7.3913 C   0  0  0  0  0  0  0  0  0  0  0  0
    0.4496    0.8396   -1.5766 C   0  0  0  0  0  0  0  0  0  0  0  0
    2.5457   -0.3788   -0.2855 N   0  0  0  0  0  0  0  0  0  0  0  0
   -0.5474    0.7734   -3.8025 C   0  0  0  0  0  0  0  0  0  0  0  0
   -1.0813   -0.0281   -4.8475 N   0  0  0  0  0  0  0  0  0  0  0  0
   -0.1192    0.1099   -2.6352 C   0  0  0  0  0  0  0  0  0  0  0  0
    0.2089   -1.2090    0.0245 O   0  0  0  0  0  0  0  0  0  0  0  0
    0.8582    1.0198    1.0066 O   0  0  0  0  0  0  0  0  0  0  0  0
   -3.4099    1.2692   -5.4836 S   0  0  0  0  0  0  0  0  0  0  0  0
   -1.3221   -1.8693   -8.7992 C   0  0  0  0  0  0  0  0  0  0  0  0
    3.5285    0.5925   -0.5925 C   0  0  0  0  0  0  0  0  0  0  0  0
   -0.3241    2.1588   -3.9272 C   0  0  0  0  0  0  0  0  0  0  0  0
   -0.2961   -1.8594   -6.6616 O   0  0  0  0  0  0  0  0  0  0  0  0
    0.5692    2.2246   -1.6589 C   0  0  0  0  0  0  0  0  0  0  0  0
    4.2279    1.2331    0.4287 C   0  0  0  0  0  0  0  0  0  0  0  0
    0.1937    2.8740   -2.8279 C   0  0  0  0  0  0  0  0  0  0  0  0
   -2.3617   -1.4734   -9.6588 C   0  0  0  0  0  0  0  0  0  0  0  0
   -0.4067   -2.8366   -9.2540 C   0  0  0  0  0  0  0  0  0  0  0  0
    5.2202    2.1662    0.1112 C   0  0  0  0  0  0  0  0  0  0  0  0
   -1.5779   -3.0098  -11.3499 C   0  0  0  0  0  0  0  0  0  0  0  0
   -0.5361   -3.4071  -10.5248 C   0  0  0  0  0  0  0  0  0  0  0  0
   -2.4868   -2.0458  -10.9320 C   0  0  0  0  0  0  0  0  0  0  0  0
   -1.7170   -3.5674  -12.5594 F   0  0  0  0  0  0  0  0  0  0  0  0
    4.8037    1.8133   -2.2420 C   0  0  0  0  0  0  0  0  0  0  0  0
    3.8267    0.8687   -1.9263 C   0  0  0  0  0  0  0  0  0  0  0  0
   -0.4965    2.9569   -5.1916 C   0  0  0  0  0  0  0  0  0  0  0  0
    5.5020    2.4618   -1.2239 C   0  0  0  0  0  0  0  0  0  0  0  0
   -2.7112   -0.0029   -7.6041 H   0  0  0  0  0  0  0  0  0  0  0  0
    2.7205   -1.3561   -0.5052 H   0  0  0  0  0  0  0  0  0  0  0  0
   -0.7476   -0.9905   -4.9024 H   0  0  0  0  0  0  0  0  0  0  0  0
   -0.2578   -0.9642   -2.5316 H   0  0  0  0  0  0  0  0  0  0  0  0
    0.9821    2.8032   -0.8349 H   0  0  0  0  0  0  0  0  0  0  0  0
    4.0184    1.0047    1.4712 H   0  0  0  0  0  0  0  0  0  0  0  0
    0.3418    3.9497   -2.9004 H   0  0  0  0  0  0  0  0  0  0  0  0
   -3.1090   -0.7397   -9.3778 H   0  0  0  0  0  0  0  0  0  0  0  0
    0.4098   -3.1648   -8.6122 H   0  0  0  0  0  0  0  0  0  0  0  0
    5.7769    2.6610    0.9042 H   0  0  0  0  0  0  0  0  0  0  0  0
    0.1629   -4.1640  -10.8670 H   0  0  0  0  0  0  0  0  0  0  0  0
   -3.2959   -1.7535  -11.5958 H   0  0  0  0  0  0  0  0  0  0  0  0
    5.0239    2.0387   -3.2824 H   0  0  0  0  0  0  0  0  0  0  0  0
    3.2985    0.3605   -2.7275 H   0  0  0  0  0  0  0  0  0  0  0  0
   -1.3195    3.6716   -5.0848 H   0  0  0  0  0  0  0  0  0  0  0  0
    0.4230    3.5136   -5.3983 H   0  0  0  0  0  0  0  0  0  0  0  0
   -0.6621    2.3423   -6.0785 H   0  0  0  0  0  0  0  0  0  0  0  0
    6.2669    3.1953   -1.4695 H   0  0  0  0  0  0  0  0  0  0  0  0
  2  3  1  0  0  0  0
  2 31  1  0  0  0  0
  3  8  1  0  0  0  0
  4  2  1  0  0  0  0
  5  1  1  0  0  0  0
  6  1  1  0  0  0  0
  6 32  1  0  0  0  0
  7  9  2  0  0  0  0
  7 15  1  0  0  0  0
  8  7  1  0  0  0  0
  8 33  1  0  0  0  0
  9  5  1  0  0  0  0
  9 34  1  0  0  0  0
 10  1  2  0  0  0  0
 11  1  2  0  0  0  0
 12  3  2  0  0  0  0
 13  4  1  0  0  0  0
 14  6  1  0  0  0  0
 15 19  2  0  0  0  0
 16  4  2  0  0  0  0
 17  5  2  0  0  0  0
 17 35  1  0  0  0  0
 18 14  2  0  0  0  0
 18 36  1  0  0  0  0
 19 17  1  0  0  0  0
 19 37  1  0  0  0  0
 20 13  2  0  0  0  0
 20 38  1  0  0  0  0
 21 13  1  0  0  0  0
 21 39  1  0  0  0  0
 22 18  1  0  0  0  0
 22 30  2  0  0  0  0
 22 40  1  0  0  0  0
 23 24  1  0  0  0  0
 24 21  2  0  0  0  0
 24 41  1  0  0  0  0
 25 20  1  0  0  0  0
 25 23  2  0  0  0  0
 25 42  1  0  0  0  0
 26 23  1  0  0  0  0
 27 28  2  0  0  0  0
 27 43  1  0  0  0  0
 28 14  1  0  0  0  0
 28 44  1  0  0  0  0
 29 15  1  0  0  0  0
 29 45  1  0  0  0  0
 29 46  1  0  0  0  0
 29 47  1  0  0  0  0
 30 27  1  0  0  0  0
 30 48  1  0  0  0  0
M  END
>  <Mol_ID>
8093

>  <Formula>
C21H17ClFN3O3S2

>  <MolWeight>
477.9593832

>  <Cat>
P2799

>  <Name>
WAY-381602

>  <Synonyms>
N/A

>  <Target>
phosphatidylcholine transfer protein

>  <Form>
free base

>  <CAS>
379696-86-3

>  <URL>
N/A

$$$$
