WAY-344029
 OpenBabel08302521393D

 41 42  0  0  0  0  0  0  0  0999 V2000
   -0.3798   -1.7588   -4.4138 C   0  0  0  0  0  0  0  0  0  0  0  0
    0.0048   -2.3245   -2.7984 S   0  0  0  0  0  0  0  0  0  0  0  0
    2.3406   -2.8247   -1.4097 C   0  0  0  0  0  0  0  0  0  0  0  0
    3.7279   -2.7808   -1.2356 N   0  0  0  0  0  0  0  0  0  0  0  0
    6.0142   -4.4303    1.9844 C   0  0  0  0  0  0  0  0  0  0  0  0
    0.5091   -1.4971   -5.2140 O   0  0  0  0  0  0  0  0  0  0  0  0
   -1.8361   -1.5913   -4.7723 C   0  0  0  0  0  0  0  0  0  0  0  0
    1.5657   -3.2444   -0.5540 O   0  0  0  0  0  0  0  0  0  0  0  0
    1.8385   -2.3018   -2.7711 C   0  0  0  0  0  0  0  0  0  0  0  0
    4.6193   -4.5065    1.9962 C   0  0  0  0  0  0  0  0  0  0  0  0
    6.6141   -3.6930    0.9536 C   0  0  0  0  0  0  0  0  0  0  0  0
    4.4499   -3.2752   -0.1106 C   0  0  0  0  0  0  0  0  0  0  0  0
    6.8573   -5.2008    2.9909 C   0  0  0  0  0  0  0  0  0  0  0  0
    3.8535   -3.9403    0.9654 C   0  0  0  0  0  0  0  0  0  0  0  0
    5.8424   -3.1279   -0.0822 C   0  0  0  0  0  0  0  0  0  0  0  0
   -2.1541   -1.0681   -6.0374 C   0  0  0  0  0  0  0  0  0  0  0  0
   -2.8955   -1.9178   -3.9080 C   0  0  0  0  0  0  0  0  0  0  0  0
    6.6290   -4.7674    4.4417 C   0  0  0  0  0  0  0  0  0  0  0  0
    6.6103   -6.7105    2.8560 C   0  0  0  0  0  0  0  0  0  0  0  0
   -3.4850   -0.8567   -6.4181 C   0  0  0  0  0  0  0  0  0  0  0  0
   -4.2273   -1.7071   -4.2903 C   0  0  0  0  0  0  0  0  0  0  0  0
   -4.5227   -1.1713   -5.5412 C   0  0  0  0  0  0  0  0  0  0  0  0
    4.2850   -2.3975   -1.9909 H   0  0  0  0  0  0  0  0  0  0  0  0
    2.2299   -2.9476   -3.5636 H   0  0  0  0  0  0  0  0  0  0  0  0
    2.1957   -1.2777   -2.9168 H   0  0  0  0  0  0  0  0  0  0  0  0
    4.1009   -5.0470    2.7855 H   0  0  0  0  0  0  0  0  0  0  0  0
    7.6964   -3.5773    0.9274 H   0  0  0  0  0  0  0  0  0  0  0  0
    7.9173   -5.0259    2.7642 H   0  0  0  0  0  0  0  0  0  0  0  0
    2.7803   -4.0803    1.0320 H   0  0  0  0  0  0  0  0  0  0  0  0
    6.3616   -2.5881   -0.8698 H   0  0  0  0  0  0  0  0  0  0  0  0
   -1.3641   -0.8132   -6.7410 H   0  0  0  0  0  0  0  0  0  0  0  0
   -2.7196   -2.3375   -2.9209 H   0  0  0  0  0  0  0  0  0  0  0  0
    5.5936   -4.9257    4.7617 H   0  0  0  0  0  0  0  0  0  0  0  0
    7.2719   -5.3450    5.1175 H   0  0  0  0  0  0  0  0  0  0  0  0
    6.8678   -3.7082    4.5804 H   0  0  0  0  0  0  0  0  0  0  0  0
    5.5915   -6.9846    3.1539 H   0  0  0  0  0  0  0  0  0  0  0  0
    6.7559   -7.0440    1.8226 H   0  0  0  0  0  0  0  0  0  0  0  0
    7.3009   -7.2754    3.4917 H   0  0  0  0  0  0  0  0  0  0  0  0
   -3.7159   -0.4416   -7.3963 H   0  0  0  0  0  0  0  0  0  0  0  0
   -5.0341   -1.9581   -3.6045 H   0  0  0  0  0  0  0  0  0  0  0  0
   -5.5576   -0.9989   -5.8298 H   0  0  0  0  0  0  0  0  0  0  0  0
  2  1  1  0  0  0  0
  3  9  1  0  0  0  0
  4  3  1  0  0  0  0
  4 23  1  0  0  0  0
  5 11  2  0  0  0  0
  5 10  1  0  0  0  0
  6  1  2  0  0  0  0
  7  1  1  0  0  0  0
  8  3  2  0  0  0  0
  9  2  1  0  0  0  0
  9 24  1  0  0  0  0
  9 25  1  0  0  0  0
 10 14  2  0  0  0  0
 10 26  1  0  0  0  0
 11 15  1  0  0  0  0
 11 27  1  0  0  0  0
 12  4  1  0  0  0  0
 13  5  1  0  0  0  0
 13 28  1  0  0  0  0
 14 12  1  0  0  0  0
 14 29  1  0  0  0  0
 15 12  2  0  0  0  0
 15 30  1  0  0  0  0
 16  7  2  0  0  0  0
 16 31  1  0  0  0  0
 17  7  1  0  0  0  0
 17 32  1  0  0  0  0
 18 13  1  0  0  0  0
 18 33  1  0  0  0  0
 18 34  1  0  0  0  0
 18 35  1  0  0  0  0
 19 13  1  0  0  0  0
 19 36  1  0  0  0  0
 19 37  1  0  0  0  0
 19 38  1  0  0  0  0
 20 16  1  0  0  0  0
 20 39  1  0  0  0  0
 21 17  2  0  0  0  0
 21 40  1  0  0  0  0
 22 21  1  0  0  0  0
 22 20  2  0  0  0  0
 22 41  1  0  0  0  0
M  END
>  <Mol_ID>
8063

>  <Formula>
C18H19NO2S

>  <MolWeight>
313.41396

>  <Cat>
P2734

>  <Name>
WAY-344029

>  <Synonyms>
N/A

>  <Target>
Anti-infection

>  <Form>
free base

>  <CAS>
379706-49-7

>  <URL>
N/A

$$$$
