WAY-324331
 OpenBabel08302521423D

 33 35  0  0  0  0  0  0  0  0999 V2000
    0.7314   -1.4648    0.1614 N   0  0  0  0  0  0  0  0  0  0  0  0
    1.6408   -0.5085   -0.2809 C   0  0  0  0  0  0  0  0  0  0  0  0
    0.9667    0.8570   -0.0445 C   0  0  0  0  0  0  0  0  0  0  0  0
   -0.3520    0.5489    0.5003 C   0  0  0  0  0  0  0  0  0  0  0  0
   -0.4659   -0.8414    0.5761 C   0  0  0  0  0  0  0  0  0  0  0  0
    0.3331   -3.8623    0.9238 C   0  0  0  0  0  0  0  0  0  0  0  0
    0.9592   -2.8802   -0.0630 C   0  0  0  0  0  0  0  0  0  0  0  0
    0.9338   -3.8656    2.1724 N   0  0  0  0  0  0  0  0  0  0  0  0
    0.4581   -4.5154    3.3370 C   0  0  0  0  0  0  0  0  0  0  0  0
    2.7410   -0.6779   -0.7673 O   0  0  0  0  0  0  0  0  0  0  0  0
    1.4273    1.9527   -0.2717 O   0  0  0  0  0  0  0  0  0  0  0  0
   -0.6412   -4.5307    0.5857 O   0  0  0  0  0  0  0  0  0  0  0  0
   -0.6891   -5.3135    3.3684 C   0  0  0  0  0  0  0  0  0  0  0  0
   -1.3564    1.4232    0.8784 C   0  0  0  0  0  0  0  0  0  0  0  0
   -1.6485   -1.3957    1.0281 C   0  0  0  0  0  0  0  0  0  0  0  0
    1.1572   -4.3005    4.5314 C   0  0  0  0  0  0  0  0  0  0  0  0
   -1.1551   -5.8480    4.5736 C   0  0  0  0  0  0  0  0  0  0  0  0
   -2.5339    0.8631    1.3629 C   0  0  0  0  0  0  0  0  0  0  0  0
   -2.6809   -0.5340    1.4316 C   0  0  0  0  0  0  0  0  0  0  0  0
    0.6895   -4.8348    5.7376 C   0  0  0  0  0  0  0  0  0  0  0  0
   -0.4740   -5.5988    5.7603 C   0  0  0  0  0  0  0  0  0  0  0  0
    0.5963   -3.1175   -1.0699 H   0  0  0  0  0  0  0  0  0  0  0  0
    2.0417   -3.0637   -0.0792 H   0  0  0  0  0  0  0  0  0  0  0  0
    1.7648   -3.2974    2.2884 H   0  0  0  0  0  0  0  0  0  0  0  0
   -1.2576   -5.5399    2.4729 H   0  0  0  0  0  0  0  0  0  0  0  0
   -1.2259    2.4979    0.8025 H   0  0  0  0  0  0  0  0  0  0  0  0
   -1.8208   -2.4638    1.0940 H   0  0  0  0  0  0  0  0  0  0  0  0
    2.0625   -3.7003    4.5501 H   0  0  0  0  0  0  0  0  0  0  0  0
   -2.0593   -6.4528    4.5793 H   0  0  0  0  0  0  0  0  0  0  0  0
   -3.3516    1.5052    1.6857 H   0  0  0  0  0  0  0  0  0  0  0  0
   -3.6118   -0.9572    1.8072 H   0  0  0  0  0  0  0  0  0  0  0  0
    1.2286   -4.6445    6.6633 H   0  0  0  0  0  0  0  0  0  0  0  0
   -0.8487   -6.0011    6.6977 H   0  0  0  0  0  0  0  0  0  0  0  0
  2  1  1  0  0  0  0
  3  2  1  0  0  0  0
  4  5  2  0  0  0  0
  4  3  1  0  0  0  0
  5  1  1  0  0  0  0
  6  7  1  0  0  0  0
  7  1  1  0  0  0  0
  7 22  1  0  0  0  0
  7 23  1  0  0  0  0
  8  6  1  0  0  0  0
  8 24  1  0  0  0  0
  9  8  1  0  0  0  0
 10  2  2  0  0  0  0
 11  3  2  0  0  0  0
 12  6  2  0  0  0  0
 13  9  2  0  0  0  0
 13 25  1  0  0  0  0
 14  4  1  0  0  0  0
 14 26  1  0  0  0  0
 15  5  1  0  0  0  0
 15 27  1  0  0  0  0
 16  9  1  0  0  0  0
 16 28  1  0  0  0  0
 17 13  1  0  0  0  0
 17 29  1  0  0  0  0
 18 19  1  0  0  0  0
 18 14  2  0  0  0  0
 18 30  1  0  0  0  0
 19 15  2  0  0  0  0
 19 31  1  0  0  0  0
 20 16  2  0  0  0  0
 20 32  1  0  0  0  0
 21 20  1  0  0  0  0
 21 17  2  0  0  0  0
 21 33  1  0  0  0  0
M  END
>  <Mol_ID>
8618

>  <Formula>
C16H11ClN2O3

>  <MolWeight>
314.72314

>  <Cat>
P2315

>  <Name>
WAY-324331

>  <Synonyms>
N/A

>  <Target>
others

>  <Form>
free base

>  <CAS>
617694-49-2

>  <URL>
N/A

$$$$
