WAY-326769
 OpenBabel08302521433D

 60 63  0  0  0  0  0  0  0  0999 V2000
    0.6365    0.2279    0.1259 C   0  0  0  0  0  0  0  0  0  0  0  0
   -1.0848   -1.9207    1.6157 C   0  0  0  0  0  0  0  0  0  0  0  0
   -2.6364   -3.8934    2.0668 C   0  0  0  0  0  0  0  0  0  0  0  0
   -0.1700   -2.1924    0.5990 N   0  0  0  0  0  0  0  0  0  0  0  0
    0.1445   -1.1496   -0.4161 C   0  0  3  0  0  0  0  0  0  0  0  0
   -4.5564   -4.5346    1.1180 N   0  0  0  0  0  0  0  0  0  0  0  0
   -3.7183   -3.4710    1.3179 C   0  0  0  0  0  0  0  0  0  0  0  0
   -1.5005   -3.0460    2.5670 C   0  0  0  0  0  0  0  0  0  0  0  0
    1.7581    0.1875    0.9667 N   0  0  0  0  0  0  0  0  0  0  0  0
   -2.8498   -5.2931    2.3321 C   0  0  0  0  0  0  0  0  0  0  0  0
   -4.0568   -5.6595    1.7362 C   0  0  0  0  0  0  0  0  0  0  0  0
    0.1541    1.2708   -0.3206 O   0  0  0  0  0  0  0  0  0  0  0  0
   -0.9292   -1.0064   -1.5100 C   0  0  0  0  0  0  0  0  0  0  0  0
   -1.5228   -0.7832    1.8048 O   0  0  0  0  0  0  0  0  0  0  0  0
    2.3663    1.3308    1.5594 C   0  0  0  0  0  0  0  0  0  0  0  0
   -2.2245   -0.5509   -1.2204 C   0  0  0  0  0  0  0  0  0  0  0  0
   -0.6222   -1.2561   -2.8598 C   0  0  0  0  0  0  0  0  0  0  0  0
    3.5530    3.5991    2.7928 C   0  0  0  0  0  0  0  0  0  0  0  0
   -1.6035   -1.1481   -3.8579 C   0  0  0  0  0  0  0  0  0  0  0  0
   -3.2067   -0.4551   -2.2112 C   0  0  0  0  0  0  0  0  0  0  0  0
   -2.9173   -0.7966   -3.5320 C   0  0  0  0  0  0  0  0  0  0  0  0
    1.7822    2.5987    1.4882 C   0  0  0  0  0  0  0  0  0  0  0  0
    3.5739    1.2126    2.2621 C   0  0  0  0  0  0  0  0  0  0  0  0
    2.3597    3.7116    2.0950 C   0  0  0  0  0  0  0  0  0  0  0  0
    4.1622    2.3423    2.8701 C   0  0  0  0  0  0  0  0  0  0  0  0
    0.3841   -3.5196    0.3793 C   0  0  0  0  0  0  0  0  0  0  0  0
    4.1841    4.6417    3.4178 O   0  0  0  0  0  0  0  0  0  0  0  0
   -2.1361   -6.2853    3.0406 C   0  0  0  0  0  0  0  0  0  0  0  0
   -4.5900   -6.9510    1.8177 C   0  0  0  0  0  0  0  0  0  0  0  0
   -3.9911   -0.7665   -4.5792 C   0  0  0  0  0  0  0  0  0  0  0  0
    3.5267    5.9083    3.3207 C   0  0  0  0  0  0  0  0  0  0  0  0
   -2.6480   -7.5822    3.1293 C   0  0  0  0  0  0  0  0  0  0  0  0
   -3.8673   -7.9106    2.5281 C   0  0  0  0  0  0  0  0  0  0  0  0
    1.0448   -1.5248   -0.9275 H   0  0  0  0  0  0  0  0  0  0  0  0
   -5.4282   -4.5002    0.6092 H   0  0  0  0  0  0  0  0  0  0  0  0
   -3.9718   -2.4958    0.9207 H   0  0  0  0  0  0  0  0  0  0  0  0
   -0.6265   -3.6509    2.8278 H   0  0  0  0  0  0  0  0  0  0  0  0
   -1.8193   -2.5724    3.5053 H   0  0  0  0  0  0  0  0  0  0  0  0
    2.1883   -0.7108    1.1416 H   0  0  0  0  0  0  0  0  0  0  0  0
   -2.4880   -0.2316   -0.2162 H   0  0  0  0  0  0  0  0  0  0  0  0
    0.3888   -1.5240   -3.1584 H   0  0  0  0  0  0  0  0  0  0  0  0
   -1.3360   -1.3463   -4.8939 H   0  0  0  0  0  0  0  0  0  0  0  0
   -4.1994   -0.1088   -1.9336 H   0  0  0  0  0  0  0  0  0  0  0  0
    0.8483    2.7778    0.9757 H   0  0  0  0  0  0  0  0  0  0  0  0
    4.0860    0.2588    2.3459 H   0  0  0  0  0  0  0  0  0  0  0  0
    1.8263    4.6489    1.9941 H   0  0  0  0  0  0  0  0  0  0  0  0
    5.1022    2.2409    3.4094 H   0  0  0  0  0  0  0  0  0  0  0  0
    0.5777   -3.6865   -0.6830 H   0  0  0  0  0  0  0  0  0  0  0  0
    1.3221   -3.5817    0.9387 H   0  0  0  0  0  0  0  0  0  0  0  0
   -0.2851   -4.3085    0.7245 H   0  0  0  0  0  0  0  0  0  0  0  0
   -1.1910   -6.0474    3.5235 H   0  0  0  0  0  0  0  0  0  0  0  0
   -5.5414   -7.2046    1.3608 H   0  0  0  0  0  0  0  0  0  0  0  0
   -3.8654    0.0923   -5.2447 H   0  0  0  0  0  0  0  0  0  0  0  0
   -3.9663   -1.6890   -5.1693 H   0  0  0  0  0  0  0  0  0  0  0  0
   -4.9861   -0.7069   -4.1231 H   0  0  0  0  0  0  0  0  0  0  0  0
    3.3923    6.2094    2.2750 H   0  0  0  0  0  0  0  0  0  0  0  0
    2.5656    5.8920    3.8481 H   0  0  0  0  0  0  0  0  0  0  0  0
    4.1558    6.6654    3.7972 H   0  0  0  0  0  0  0  0  0  0  0  0
   -2.0997   -8.3450    3.6751 H   0  0  0  0  0  0  0  0  0  0  0  0
   -4.2553   -8.9203    2.6202 H   0  0  0  0  0  0  0  0  0  0  0  0
  2  4  1  0  0  0  0
  3  8  1  0  0  0  0
  4  5  1  0  0  0  0
  5  1  1  0  0  0  0
  5 34  1  0  0  0  0
  6  7  1  0  0  0  0
  6 35  1  0  0  0  0
  7  3  2  0  0  0  0
  7 36  1  0  0  0  0
  8  2  1  0  0  0  0
  8 37  1  0  0  0  0
  8 38  1  0  0  0  0
  9  1  1  0  0  0  0
  9 39  1  0  0  0  0
 10  3  1  0  0  0  0
 11 10  2  0  0  0  0
 11  6  1  0  0  0  0
 12  1  2  0  0  0  0
 13  5  1  0  0  0  0
 14  2  2  0  0  0  0
 15  9  1  0  0  0  0
 16 13  2  0  0  0  0
 16 40  1  0  0  0  0
 17 13  1  0  0  0  0
 17 41  1  0  0  0  0
 18 25  2  0  0  0  0
 18 24  1  0  0  0  0
 19 17  2  0  0  0  0
 19 42  1  0  0  0  0
 20 16  1  0  0  0  0
 20 43  1  0  0  0  0
 21 19  1  0  0  0  0
 21 20  2  0  0  0  0
 22 15  1  0  0  0  0
 22 44  1  0  0  0  0
 23 15  2  0  0  0  0
 23 45  1  0  0  0  0
 24 22  2  0  0  0  0
 24 46  1  0  0  0  0
 25 23  1  0  0  0  0
 25 47  1  0  0  0  0
 26  4  1  0  0  0  0
 26 48  1  0  0  0  0
 26 49  1  0  0  0  0
 26 50  1  0  0  0  0
 27 18  1  0  0  0  0
 28 10  1  0  0  0  0
 28 51  1  0  0  0  0
 29 11  1  0  0  0  0
 29 52  1  0  0  0  0
 30 21  1  0  0  0  0
 30 53  1  0  0  0  0
 30 54  1  0  0  0  0
 30 55  1  0  0  0  0
 31 27  1  0  0  0  0
 31 56  1  0  0  0  0
 31 57  1  0  0  0  0
 31 58  1  0  0  0  0
 32 28  2  0  0  0  0
 32 59  1  0  0  0  0
 33 32  1  0  0  0  0
 33 29  2  0  0  0  0
 33 60  1  0  0  0  0
M  END
>  <Mol_ID>
8935

>  <Formula>
C27H27N3O3

>  <MolWeight>
441.52158

>  <Cat>
P2494

>  <Name>
WAY-326769

>  <Synonyms>
N/A

>  <Target>
CFTR

>  <Form>
free base

>  <CAS>
871700-29-7

>  <URL>
N/A

$$$$
