WAY-312522
 OpenBabel08302521393D

 57 60  0  0  0  0  0  0  0  0999 V2000
    0.6694    0.4793    0.0634 C   0  0  0  0  0  0  0  0  0  0  0  0
    1.1333   -0.8301   -0.0180 C   0  0  0  0  0  0  0  0  0  0  0  0
   -0.7535    0.4472    0.0986 C   0  0  0  0  0  0  0  0  0  0  0  0
    1.5942    1.5426    0.1002 C   0  0  0  0  0  0  0  0  0  0  0  0
    0.0123   -1.6459   -0.0312 N   0  0  0  0  0  0  0  0  0  0  0  0
    2.5095   -1.1099   -0.0637 C   0  0  0  0  0  0  0  0  0  0  0  0
   -1.1465   -0.8877    0.0282 C   0  0  0  0  0  0  0  0  0  0  0  0
   -1.7336    1.4571    0.1890 C   0  0  0  0  0  0  0  0  0  0  0  0
    2.9656    1.2983    0.0717 C   0  0  0  0  0  0  0  0  0  0  0  0
    0.0341   -3.1002   -0.0516 C   0  0  0  0  0  0  0  0  0  0  0  0
    3.4108   -0.0276   -0.0128 C   0  0  0  0  0  0  0  0  0  0  0  0
   -2.5061   -1.2503    0.0334 C   0  0  0  0  0  0  0  0  0  0  0  0
   -3.0829    1.1052    0.2033 C   0  0  0  0  0  0  0  0  0  0  0  0
    3.9302    2.3323    0.1218 N   0  0  0  0  0  0  0  0  0  0  0  0
   -0.0152   -3.6674   -1.4595 C   0  0  0  0  0  0  0  0  0  0  0  0
   -3.4608   -0.2311    0.1246 C   0  0  0  0  0  0  0  0  0  0  0  0
    3.6806    3.6936    0.2279 C   0  0  0  0  0  0  0  0  0  0  0  0
    4.9296    4.5381    0.2444 C   0  0  0  0  0  0  0  0  0  0  0  0
    2.5858    4.2410    0.3353 O   0  0  0  0  0  0  0  0  0  0  0  0
    5.3688    4.8270    1.6611 C   0  0  0  0  0  0  0  0  0  0  0  0
    6.2932    4.0579    2.1534 N   0  0  0  0  0  0  0  0  0  0  0  0
    4.7101    5.9937    2.3595 C   0  0  0  0  0  0  0  0  0  0  0  0
    6.7187    4.2430    3.4337 N   0  0  0  0  0  0  0  0  0  0  0  0
    7.7261    3.4372    3.9501 C   0  0  0  0  0  0  0  0  0  0  0  0
    7.9688    3.5739    5.4199 C   0  0  0  0  0  0  0  0  0  0  0  0
    8.3973    2.6417    3.2962 O   0  0  0  0  0  0  0  0  0  0  0  0
    9.2640    3.3822    5.9472 C   0  0  0  0  0  0  0  0  0  0  0  0
    6.8803    3.7809    6.2875 C   0  0  0  0  0  0  0  0  0  0  0  0
    9.4412    3.4696    7.3360 C   0  0  0  0  0  0  0  0  0  0  0  0
   10.4123    3.3500    5.1293 N   0  0  0  0  0  0  0  0  0  0  0  0
    7.0768    3.8291    7.6680 C   0  0  0  0  0  0  0  0  0  0  0  0
    8.3553    3.6667    8.1917 C   0  0  0  0  0  0  0  0  0  0  0  0
    1.1882    2.5438    0.1566 H   0  0  0  0  0  0  0  0  0  0  0  0
    2.8842   -2.1272   -0.1306 H   0  0  0  0  0  0  0  0  0  0  0  0
   -1.4393    2.5005    0.2491 H   0  0  0  0  0  0  0  0  0  0  0  0
    0.9351   -3.4382    0.4712 H   0  0  0  0  0  0  0  0  0  0  0  0
   -0.8199   -3.4578    0.5329 H   0  0  0  0  0  0  0  0  0  0  0  0
    4.4734   -0.2472   -0.0409 H   0  0  0  0  0  0  0  0  0  0  0  0
   -2.8185   -2.2869   -0.0303 H   0  0  0  0  0  0  0  0  0  0  0  0
   -3.8380    1.8829    0.2791 H   0  0  0  0  0  0  0  0  0  0  0  0
    4.9010    2.0383    0.1363 H   0  0  0  0  0  0  0  0  0  0  0  0
    0.8741   -3.3833   -2.0310 H   0  0  0  0  0  0  0  0  0  0  0  0
   -0.0627   -4.7607   -1.4250 H   0  0  0  0  0  0  0  0  0  0  0  0
   -0.8936   -3.3072   -2.0054 H   0  0  0  0  0  0  0  0  0  0  0  0
   -4.5179   -0.4888    0.1351 H   0  0  0  0  0  0  0  0  0  0  0  0
    5.7348    4.0555   -0.3182 H   0  0  0  0  0  0  0  0  0  0  0  0
    4.7097    5.4849   -0.2642 H   0  0  0  0  0  0  0  0  0  0  0  0
    5.2620    6.9049    2.1121 H   0  0  0  0  0  0  0  0  0  0  0  0
    3.6809    6.1060    2.0078 H   0  0  0  0  0  0  0  0  0  0  0  0
    4.6730    5.8719    3.4421 H   0  0  0  0  0  0  0  0  0  0  0  0
    6.3025    4.9601    4.0115 H   0  0  0  0  0  0  0  0  0  0  0  0
    5.8666    3.8713    5.9073 H   0  0  0  0  0  0  0  0  0  0  0  0
   10.4365    3.3759    7.7644 H   0  0  0  0  0  0  0  0  0  0  0  0
   11.1994    2.8629    5.5446 H   0  0  0  0  0  0  0  0  0  0  0  0
   10.1927    2.9822    4.1961 H   0  0  0  0  0  0  0  0  0  0  0  0
    6.2323    3.9840    8.3353 H   0  0  0  0  0  0  0  0  0  0  0  0
    8.5125    3.6983    9.2673 H   0  0  0  0  0  0  0  0  0  0  0  0
  1  2  1  0  0  0  0
  1  3  1  0  0  0  0
  1  4  2  0  0  0  0
  2  5  1  0  0  0  0
  2  6  2  0  0  0  0
  3  7  2  0  0  0  0
  3  8  1  0  0  0  0
  4  9  1  0  0  0  0
  4 33  1  0  0  0  0
  5 10  1  0  0  0  0
  5  7  1  0  0  0  0
  6 11  1  0  0  0  0
  6 34  1  0  0  0  0
  7 12  1  0  0  0  0
  8 13  2  0  0  0  0
  8 35  1  0  0  0  0
  9 14  1  0  0  0  0
  9 11  2  0  0  0  0
 10 15  1  0  0  0  0
 10 36  1  0  0  0  0
 10 37  1  0  0  0  0
 11 38  1  0  0  0  0
 12 16  2  0  0  0  0
 12 39  1  0  0  0  0
 13 16  1  0  0  0  0
 13 40  1  0  0  0  0
 14 17  1  0  0  0  0
 14 41  1  0  0  0  0
 15 42  1  0  0  0  0
 15 43  1  0  0  0  0
 15 44  1  0  0  0  0
 16 45  1  0  0  0  0
 17 18  1  0  0  0  0
 17 19  2  0  0  0  0
 18 20  1  0  0  0  0
 18 46  1  0  0  0  0
 18 47  1  0  0  0  0
 20 21  2  0  0  0  0
 20 22  1  0  0  0  0
 21 23  1  0  0  0  0
 22 48  1  0  0  0  0
 22 49  1  0  0  0  0
 22 50  1  0  0  0  0
 23 24  1  0  0  0  0
 23 51  1  0  0  0  0
 24 25  1  0  0  0  0
 24 26  2  0  0  0  0
 25 27  2  0  0  0  0
 25 28  1  0  0  0  0
 27 29  1  0  0  0  0
 27 30  1  0  0  0  0
 28 31  2  0  0  0  0
 28 52  1  0  0  0  0
 29 32  2  0  0  0  0
 29 53  1  0  0  0  0
 30 54  1  0  0  0  0
 30 55  1  0  0  0  0
 31 32  1  0  0  0  0
 31 56  1  0  0  0  0
 32 57  1  0  0  0  0
M  END
>  <Mol_ID>
8130

>  <Formula>
C25H25N5O2

>  <MolWeight>
427.4983

>  <Cat>
P2236

>  <Name>
WAY-312522

>  <Synonyms>
N/A

>  <Target>
others

>  <Form>
free base

>  <CAS>
381180-32-1

>  <URL>
N/A

$$$$
