WAY-313309
 OpenBabel08302521403D

 52 54  0  0  0  0  0  0  0  0999 V2000
    1.3734   -0.1845   -0.1097 C   0  0  0  0  0  0  0  0  0  0  0  0
    3.0991   -0.4669    0.2003 S   0  0  0  0  0  0  0  0  0  0  0  0
    0.4874   -1.2600   -0.1502 C   0  0  0  0  0  0  0  0  0  0  0  0
    0.8971    1.1221   -0.2335 C   0  0  0  0  0  0  0  0  0  0  0  0
    3.7452   -0.6878   -1.3239 N   0  0  0  0  0  0  0  0  0  0  0  0
    3.6470    0.7136    0.8309 O   0  0  0  0  0  0  0  0  0  0  0  0
    3.2067   -1.7576    0.8586 O   0  0  0  0  0  0  0  0  0  0  0  0
   -0.8795   -1.0242   -0.3434 C   0  0  0  0  0  0  0  0  0  0  0  0
   -0.4692    1.3480   -0.4449 C   0  0  0  0  0  0  0  0  0  0  0  0
    4.0782    0.4868   -1.9914 C   0  0  0  0  0  0  0  0  0  0  0  0
   -1.3744    0.2787   -0.4853 C   0  0  0  0  0  0  0  0  0  0  0  0
    5.3372    0.8986   -1.8357 N   0  0  0  0  0  0  0  0  0  0  0  0
    3.1388    1.0381   -2.7605 N   0  0  0  0  0  0  0  0  0  0  0  0
   -2.7465    0.5802   -0.6740 N   0  0  0  0  0  0  0  0  0  0  0  0
    5.6729    2.0167   -2.5102 C   0  0  0  0  0  0  0  0  0  0  0  0
    3.5253    2.1135   -3.4724 C   0  0  0  0  0  0  0  0  0  0  0  0
   -3.8083   -0.2846   -0.4480 C   0  0  0  0  0  0  0  0  0  0  0  0
    4.7935    2.6575   -3.3624 C   0  0  0  0  0  0  0  0  0  0  0  0
    7.0542    2.5642   -2.3061 C   0  0  0  0  0  0  0  0  0  0  0  0
    2.5306    2.7100   -4.4212 C   0  0  0  0  0  0  0  0  0  0  0  0
   -5.1921    0.2767   -0.8456 C   0  0  0  0  0  0  0  0  0  0  0  0
   -3.7010   -1.4193    0.0133 O   0  0  0  0  0  0  0  0  0  0  0  0
   -5.9135    1.0093    0.1404 O   0  0  0  0  0  0  0  0  0  0  0  0
   -6.8310    0.3067    0.8867 C   0  0  0  0  0  0  0  0  0  0  0  0
   -7.9700    0.9897    1.3565 C   0  0  0  0  0  0  0  0  0  0  0  0
   -6.6521   -1.0326    1.2510 C   0  0  0  0  0  0  0  0  0  0  0  0
   -8.8747    0.3222    2.2059 C   0  0  0  0  0  0  0  0  0  0  0  0
   -8.2696    2.4236    1.0181 C   0  0  0  0  0  0  0  0  0  0  0  0
   -7.5734   -1.6908    2.0684 C   0  0  0  0  0  0  0  0  0  0  0  0
   -8.6812   -1.0118    2.5542 C   0  0  0  0  0  0  0  0  0  0  0  0
    0.8415   -2.2818   -0.0281 H   0  0  0  0  0  0  0  0  0  0  0  0
    1.5810    1.9656   -0.1654 H   0  0  0  0  0  0  0  0  0  0  0  0
    4.5256   -1.3331   -1.2779 H   0  0  0  0  0  0  0  0  0  0  0  0
   -1.5329   -1.8907   -0.3906 H   0  0  0  0  0  0  0  0  0  0  0  0
   -0.8130    2.3741   -0.5443 H   0  0  0  0  0  0  0  0  0  0  0  0
   -2.9733    1.5446   -0.8839 H   0  0  0  0  0  0  0  0  0  0  0  0
    5.0852    3.5338   -3.9281 H   0  0  0  0  0  0  0  0  0  0  0  0
    7.5841    2.6269   -3.2617 H   0  0  0  0  0  0  0  0  0  0  0  0
    7.0005    3.5631   -1.8608 H   0  0  0  0  0  0  0  0  0  0  0  0
    7.6337    1.9230   -1.6350 H   0  0  0  0  0  0  0  0  0  0  0  0
    2.2722    3.7249   -4.1111 H   0  0  0  0  0  0  0  0  0  0  0  0
    2.9480    2.7408   -5.4310 H   0  0  0  0  0  0  0  0  0  0  0  0
    1.6135    2.1130   -4.4550 H   0  0  0  0  0  0  0  0  0  0  0  0
   -5.0355    0.9633   -1.6872 H   0  0  0  0  0  0  0  0  0  0  0  0
   -5.7895   -0.5428   -1.2673 H   0  0  0  0  0  0  0  0  0  0  0  0
   -5.7880   -1.6032    0.9361 H   0  0  0  0  0  0  0  0  0  0  0  0
   -9.7432    0.8463    2.6007 H   0  0  0  0  0  0  0  0  0  0  0  0
   -9.3487    2.5612    0.8840 H   0  0  0  0  0  0  0  0  0  0  0  0
   -7.9323    3.0825    1.8238 H   0  0  0  0  0  0  0  0  0  0  0  0
   -7.7965    2.7311    0.0801 H   0  0  0  0  0  0  0  0  0  0  0  0
   -7.4066   -2.7311    2.3353 H   0  0  0  0  0  0  0  0  0  0  0  0
   -9.3884   -1.5175    3.2058 H   0  0  0  0  0  0  0  0  0  0  0  0
  1  2  1  0  0  0  0
  1  3  2  0  0  0  0
  1  4  1  0  0  0  0
  2  5  1  0  0  0  0
  2  6  2  0  0  0  0
  2  7  2  0  0  0  0
  3  8  1  0  0  0  0
  3 31  1  0  0  0  0
  4  9  2  0  0  0  0
  4 32  1  0  0  0  0
  5 10  1  0  0  0  0
  5 33  1  0  0  0  0
  8 11  2  0  0  0  0
  8 34  1  0  0  0  0
  9 11  1  0  0  0  0
  9 35  1  0  0  0  0
 10 12  2  0  0  0  0
 10 13  1  0  0  0  0
 11 14  1  0  0  0  0
 12 15  1  0  0  0  0
 13 16  2  0  0  0  0
 14 17  1  0  0  0  0
 14 36  1  0  0  0  0
 15 18  2  0  0  0  0
 15 19  1  0  0  0  0
 16 20  1  0  0  0  0
 16 18  1  0  0  0  0
 17 21  1  0  0  0  0
 17 22  2  0  0  0  0
 18 37  1  0  0  0  0
 19 38  1  0  0  0  0
 19 39  1  0  0  0  0
 19 40  1  0  0  0  0
 20 41  1  0  0  0  0
 20 42  1  0  0  0  0
 20 43  1  0  0  0  0
 21 23  1  0  0  0  0
 21 44  1  0  0  0  0
 21 45  1  0  0  0  0
 23 24  1  0  0  0  0
 24 25  2  0  0  0  0
 24 26  1  0  0  0  0
 25 27  1  0  0  0  0
 25 28  1  0  0  0  0
 26 29  2  0  0  0  0
 26 46  1  0  0  0  0
 27 30  2  0  0  0  0
 27 47  1  0  0  0  0
 28 48  1  0  0  0  0
 28 49  1  0  0  0  0
 28 50  1  0  0  0  0
 29 30  1  0  0  0  0
 29 51  1  0  0  0  0
 30 52  1  0  0  0  0
M  END
>  <Mol_ID>
8323

>  <Formula>
C21H22N4O4S

>  <MolWeight>
426.48878

>  <Cat>
P2247

>  <Name>
WAY-313309

>  <Synonyms>
N/A

>  <Target>
voltage-gated sodium channels

>  <Form>
free base

>  <CAS>
328027-12-9

>  <URL>
N/A

$$$$
