WAY-663641
 OpenBabel08302521453D

 39 41  0  0  0  0  0  0  0  0999 V2000
    0.4306   -1.2722    0.0778 C   0  0  0  0  0  0  0  0  0  0  0  0
    1.5247   -0.6194   -0.2023 N   0  0  0  0  0  0  0  0  0  0  0  0
    1.2958    0.7421   -0.1167 C   0  0  0  0  0  0  0  0  0  0  0  0
    0.2306   -2.6217    0.1233 N   0  0  0  0  0  0  0  0  0  0  0  0
   -0.9509   -0.3318    0.4169 S   0  0  0  0  0  0  0  0  0  0  0  0
    0.0036    1.0887    0.2414 C   0  0  0  0  0  0  0  0  0  0  0  0
    1.2757   -3.5144    0.0061 C   0  0  0  0  0  0  0  0  0  0  0  0
    2.3551    1.6934   -0.4203 C   0  0  0  0  0  0  0  0  0  0  0  0
    2.4726   -3.2479   -0.0508 O   0  0  0  0  0  0  0  0  0  0  0  0
   -0.0880   -5.3012   -1.5854 S   0  0  0  0  0  0  0  0  0  0  0  0
    0.8177   -4.9608   -0.0414 C   0  0  0  0  0  0  0  0  0  0  0  0
    0.8491   -5.1663   -4.2018 C   0  0  0  0  0  0  0  0  0  0  0  0
    1.2560   -4.9425   -2.7669 C   0  0  0  0  0  0  0  0  0  0  0  0
    3.2963    1.3698   -1.4079 C   0  0  0  0  0  0  0  0  0  0  0  0
    2.4741    2.9157    0.2540 C   0  0  0  0  0  0  0  0  0  0  0  0
    0.7718   -4.0822   -5.0893 C   0  0  0  0  0  0  0  0  0  0  0  0
    0.5966   -6.4571   -4.6902 C   0  0  0  0  0  0  0  0  0  0  0  0
    3.5093    3.8006   -0.0637 C   0  0  0  0  0  0  0  0  0  0  0  0
    4.3242    2.2554   -1.7326 C   0  0  0  0  0  0  0  0  0  0  0  0
    0.2893   -6.6587   -6.0371 C   0  0  0  0  0  0  0  0  0  0  0  0
    0.4690   -4.2863   -6.4366 C   0  0  0  0  0  0  0  0  0  0  0  0
    0.2324   -5.5745   -6.9110 C   0  0  0  0  0  0  0  0  0  0  0  0
    4.4300    3.4713   -1.0613 C   0  0  0  0  0  0  0  0  0  0  0  0
   -0.7209   -2.9474    0.2146 H   0  0  0  0  0  0  0  0  0  0  0  0
   -0.4284    2.0711    0.3716 H   0  0  0  0  0  0  0  0  0  0  0  0
    1.6885   -5.6213    0.0299 H   0  0  0  0  0  0  0  0  0  0  0  0
    0.1741   -5.1667    0.8191 H   0  0  0  0  0  0  0  0  0  0  0  0
    1.5667   -3.9009   -2.6383 H   0  0  0  0  0  0  0  0  0  0  0  0
    2.1221   -5.5753   -2.5407 H   0  0  0  0  0  0  0  0  0  0  0  0
    3.2307    0.4168   -1.9313 H   0  0  0  0  0  0  0  0  0  0  0  0
    1.7821    3.1856    1.0470 H   0  0  0  0  0  0  0  0  0  0  0  0
    0.9631   -3.0696   -4.7397 H   0  0  0  0  0  0  0  0  0  0  0  0
    0.6456   -7.3152   -4.0232 H   0  0  0  0  0  0  0  0  0  0  0  0
    3.6039    4.7415    0.4698 H   0  0  0  0  0  0  0  0  0  0  0  0
    5.0438    1.9930   -2.5036 H   0  0  0  0  0  0  0  0  0  0  0  0
    0.1018   -7.6635   -6.4065 H   0  0  0  0  0  0  0  0  0  0  0  0
    0.4267   -3.4397   -7.1169 H   0  0  0  0  0  0  0  0  0  0  0  0
    0.0060   -5.7336   -7.9618 H   0  0  0  0  0  0  0  0  0  0  0  0
    5.2346    4.1615   -1.3065 H   0  0  0  0  0  0  0  0  0  0  0  0
  2  1  2  0  0  0  0
  3  2  1  0  0  0  0
  4  1  1  0  0  0  0
  4 24  1  0  0  0  0
  5  1  1  0  0  0  0
  6  5  1  0  0  0  0
  6  3  2  0  0  0  0
  6 25  1  0  0  0  0
  7  4  1  0  0  0  0
  8  3  1  0  0  0  0
  9  7  2  0  0  0  0
 10 11  1  0  0  0  0
 11  7  1  0  0  0  0
 11 26  1  0  0  0  0
 11 27  1  0  0  0  0
 12 13  1  0  0  0  0
 13 10  1  0  0  0  0
 13 28  1  0  0  0  0
 13 29  1  0  0  0  0
 14  8  2  0  0  0  0
 14 30  1  0  0  0  0
 15  8  1  0  0  0  0
 15 31  1  0  0  0  0
 16 12  2  0  0  0  0
 16 32  1  0  0  0  0
 17 12  1  0  0  0  0
 17 33  1  0  0  0  0
 18 15  2  0  0  0  0
 18 34  1  0  0  0  0
 19 14  1  0  0  0  0
 19 35  1  0  0  0  0
 20 17  2  0  0  0  0
 20 36  1  0  0  0  0
 21 16  1  0  0  0  0
 21 37  1  0  0  0  0
 22 20  1  0  0  0  0
 22 21  2  0  0  0  0
 22 38  1  0  0  0  0
 23 18  1  0  0  0  0
 23 19  2  0  0  0  0
 23 39  1  0  0  0  0
M  END
>  <Mol_ID>
9343

>  <Formula>
C18H16N2OS2

>  <MolWeight>
340.46244

>  <Cat>
P3221

>  <Name>
WAY-663641

>  <Synonyms>
N/A

>  <Target>
others

>  <Form>
free base

>  <CAS>
329904-27-0

>  <URL>
N/A

$$$$
