WAY-639760
 OpenBabel08302521443D

 40 43  0  0  0  0  0  0  0  0999 V2000
   -1.1861    1.4390   -0.0840 C   0  0  0  0  0  0  0  0  0  0  0  0
    0.0666    0.7948   -0.0732 C   0  0  0  0  0  0  0  0  0  0  0  0
   -2.3434    0.7488   -0.0252 N   0  0  0  0  0  0  0  0  0  0  0  0
   -1.2518    2.8402   -0.2538 N   0  0  0  0  0  0  0  0  0  0  0  0
    0.0207   -0.6012    0.0089 C   0  0  0  0  0  0  0  0  0  0  0  0
    1.3323    1.4392   -0.1164 C   0  0  0  0  0  0  0  0  0  0  0  0
   -2.2680   -0.5919    0.0352 C   0  0  0  0  0  0  0  0  0  0  0  0
   -2.4845    3.4690    0.2116 C   0  0  0  0  0  0  0  0  0  0  0  0
   -1.1208   -1.2878    0.0604 N   0  0  0  0  0  0  0  0  0  0  0  0
    1.2132   -1.3132    0.0404 C   0  0  0  0  0  0  0  0  0  0  0  0
    2.5157    0.7055   -0.0641 C   0  0  0  0  0  0  0  0  0  0  0  0
   -3.5198   -1.3645    0.0745 C   0  0  0  0  0  0  0  0  0  0  0  0
   -2.4084    4.9607   -0.0493 C   0  0  0  0  0  0  0  0  0  0  0  0
    2.4559   -0.6774    0.0098 C   0  0  0  0  0  0  0  0  0  0  0  0
   -3.5420   -2.7652    0.1885 C   0  0  0  0  0  0  0  0  0  0  0  0
   -4.7701   -0.7512   -0.0012 C   0  0  0  0  0  0  0  0  0  0  0  0
   -2.4331    5.4450   -1.3664 C   0  0  0  0  0  0  0  0  0  0  0  0
   -2.3199    5.8817    1.0056 C   0  0  0  0  0  0  0  0  0  0  0  0
   -4.7474   -3.4644    0.2236 C   0  0  0  0  0  0  0  0  0  0  0  0
   -5.9654   -1.4004    0.0316 N   0  0  0  0  0  0  0  0  0  0  0  0
   -2.3930    6.8171   -1.6228 C   0  0  0  0  0  0  0  0  0  0  0  0
   -2.2807    7.2553    0.7474 C   0  0  0  0  0  0  0  0  0  0  0  0
   -5.9242   -2.7418    0.1436 C   0  0  0  0  0  0  0  0  0  0  0  0
   -2.3227    7.7218   -0.5657 C   0  0  0  0  0  0  0  0  0  0  0  0
   -0.4591    3.3034    0.1736 H   0  0  0  0  0  0  0  0  0  0  0  0
    1.4065    2.5211   -0.1836 H   0  0  0  0  0  0  0  0  0  0  0  0
   -3.3736    3.0745   -0.2941 H   0  0  0  0  0  0  0  0  0  0  0  0
   -2.6031    3.2932    1.2893 H   0  0  0  0  0  0  0  0  0  0  0  0
    1.1760   -2.3995    0.0951 H   0  0  0  0  0  0  0  0  0  0  0  0
    3.4759    1.2145   -0.0811 H   0  0  0  0  0  0  0  0  0  0  0  0
    3.3693   -1.2658    0.0443 H   0  0  0  0  0  0  0  0  0  0  0  0
   -2.6092   -3.3247    0.2462 H   0  0  0  0  0  0  0  0  0  0  0  0
   -4.8587    0.3280   -0.0992 H   0  0  0  0  0  0  0  0  0  0  0  0
   -2.4840    4.7458   -2.1991 H   0  0  0  0  0  0  0  0  0  0  0  0
   -2.2894    5.5399    2.0376 H   0  0  0  0  0  0  0  0  0  0  0  0
   -4.7661   -4.5444    0.3104 H   0  0  0  0  0  0  0  0  0  0  0  0
   -2.4209    7.1775   -2.6478 H   0  0  0  0  0  0  0  0  0  0  0  0
   -2.2233    7.9629    1.5711 H   0  0  0  0  0  0  0  0  0  0  0  0
   -6.8893   -3.2377    0.1683 H   0  0  0  0  0  0  0  0  0  0  0  0
   -2.3016    8.7903   -0.7653 H   0  0  0  0  0  0  0  0  0  0  0  0
  1  2  1  0  0  0  0
  1  3  2  0  0  0  0
  1  4  1  0  0  0  0
  2  5  2  0  0  0  0
  2  6  1  0  0  0  0
  3  7  1  0  0  0  0
  4  8  1  0  0  0  0
  4 25  1  0  0  0  0
  5  9  1  0  0  0  0
  5 10  1  0  0  0  0
  6 11  2  0  0  0  0
  6 26  1  0  0  0  0
  7 12  1  0  0  0  0
  7  9  2  0  0  0  0
  8 13  1  0  0  0  0
  8 27  1  0  0  0  0
  8 28  1  0  0  0  0
 10 14  2  0  0  0  0
 10 29  1  0  0  0  0
 11 14  1  0  0  0  0
 11 30  1  0  0  0  0
 12 15  2  0  0  0  0
 12 16  1  0  0  0  0
 13 17  2  0  0  0  0
 13 18  1  0  0  0  0
 14 31  1  0  0  0  0
 15 19  1  0  0  0  0
 15 32  1  0  0  0  0
 16 20  2  0  0  0  0
 16 33  1  0  0  0  0
 17 21  1  0  0  0  0
 17 34  1  0  0  0  0
 18 22  2  0  0  0  0
 18 35  1  0  0  0  0
 19 23  2  0  0  0  0
 19 36  1  0  0  0  0
 20 23  1  0  0  0  0
 21 24  2  0  0  0  0
 21 37  1  0  0  0  0
 22 24  1  0  0  0  0
 22 38  1  0  0  0  0
 23 39  1  0  0  0  0
 24 40  1  0  0  0  0
M  END
>  <Mol_ID>
9081

>  <Formula>
C20H16N4

>  <MolWeight>
312.36784

>  <Cat>
P3088

>  <Name>
WAY-639760

>  <Synonyms>
N/A

>  <Target>
glucocerebrosidase,PDE-5,cGMP phosphodiesterase,TXA2 synthetase

>  <Form>
free base

>  <CAS>
157862-79-8

>  <URL>
N/A

$$$$
