WAY-331983
 OpenBabel08302521453D

 60 63  0  0  0  0  0  0  0  0999 V2000
   -4.2690    2.4990   -0.4085 N   0  0  0  0  0  0  0  0  0  0  0  0
   -5.0806    3.3170    0.2376 C   0  0  0  0  0  0  0  0  0  0  0  0
   -3.4646    3.3351   -1.1615 C   0  0  0  0  0  0  0  0  0  0  0  0
   -4.8781    4.6391   -0.0522 O   0  0  0  0  0  0  0  0  0  0  0  0
   -3.8478    4.6473   -0.9430 C   0  0  0  0  0  0  0  0  0  0  0  0
    2.4398    1.9860   -2.0955 N   0  0  0  0  0  0  0  0  0  0  0  0
    4.0891    0.7068   -0.1502 N   0  0  0  0  0  0  0  0  0  0  0  0
    1.6533    2.8507   -2.8410 C   0  0  0  0  0  0  0  0  0  0  0  0
   -6.1437    3.0188    1.1956 C   0  0  0  0  0  0  0  0  0  0  0  0
    1.9623    0.7951   -1.3753 C   0  0  0  0  0  0  0  0  0  0  0  0
    3.9019    2.0918   -2.1884 C   0  0  0  0  0  0  0  0  0  0  0  0
    2.6303    0.6454    0.0054 C   0  0  0  0  0  0  0  0  0  0  0  0
    4.6038    1.9101   -0.8297 C   0  0  0  0  0  0  0  0  0  0  0  0
    4.9201   -0.0860    0.6188 C   0  0  0  0  0  0  0  0  0  0  0  0
    2.1359    3.8235   -3.4280 O   0  0  0  0  0  0  0  0  0  0  0  0
   -6.3742    1.6980    1.6046 C   0  0  0  0  0  0  0  0  0  0  0  0
   -6.9571    4.0302    1.7278 C   0  0  0  0  0  0  0  0  0  0  0  0
   -0.7464    3.3245   -1.5792 S   0  0  0  0  0  0  0  0  0  0  0  0
   -2.4173    2.7856   -2.0596 C   0  0  0  0  0  0  0  0  0  0  0  0
    0.1651    2.5653   -2.9560 C   0  0  0  0  0  0  0  0  0  0  0  0
   -7.3968    1.3957    2.5122 C   0  0  0  0  0  0  0  0  0  0  0  0
   -7.9799    3.7288    2.6321 C   0  0  0  0  0  0  0  0  0  0  0  0
   -8.2191    2.4086    3.0208 C   0  0  0  0  0  0  0  0  0  0  0  0
   -3.4056    5.9662   -1.4235 C   0  0  0  0  0  0  0  0  0  0  0  0
    4.5501   -0.5713    1.8823 C   0  0  0  0  0  0  0  0  0  0  0  0
    6.1545   -0.5147    0.1088 C   0  0  0  0  0  0  0  0  0  0  0  0
   -9.3492    2.0841    3.9661 C   0  0  0  0  0  0  0  0  0  0  0  0
   -8.9326    2.1405    5.4293 C   0  0  0  0  0  0  0  0  0  0  0  0
    5.3578   -1.4705    2.5867 C   0  0  0  0  0  0  0  0  0  0  0  0
    6.9651   -1.4182    0.8027 C   0  0  0  0  0  0  0  0  0  0  0  0
    6.5595   -1.9048    2.0398 C   0  0  0  0  0  0  0  0  0  0  0  0
    0.8799    0.8054   -1.2408 H   0  0  0  0  0  0  0  0  0  0  0  0
    2.2101   -0.0669   -2.0031 H   0  0  0  0  0  0  0  0  0  0  0  0
    4.2238    1.2951   -2.8716 H   0  0  0  0  0  0  0  0  0  0  0  0
    4.2061    3.0420   -2.6370 H   0  0  0  0  0  0  0  0  0  0  0  0
    2.2898    1.4370    0.6825 H   0  0  0  0  0  0  0  0  0  0  0  0
    2.3092   -0.3188    0.4157 H   0  0  0  0  0  0  0  0  0  0  0  0
    4.4174    2.7882   -0.1989 H   0  0  0  0  0  0  0  0  0  0  0  0
    5.6845    1.8688   -1.0038 H   0  0  0  0  0  0  0  0  0  0  0  0
   -5.7555    0.8929    1.2115 H   0  0  0  0  0  0  0  0  0  0  0  0
   -6.8065    5.0679    1.4362 H   0  0  0  0  0  0  0  0  0  0  0  0
   -2.4440    1.6915   -2.0263 H   0  0  0  0  0  0  0  0  0  0  0  0
   -2.6213    3.0977   -3.0893 H   0  0  0  0  0  0  0  0  0  0  0  0
   -0.0240    1.4901   -3.0094 H   0  0  0  0  0  0  0  0  0  0  0  0
   -0.1817    2.9949   -3.9017 H   0  0  0  0  0  0  0  0  0  0  0  0
   -7.5508    0.3604    2.8097 H   0  0  0  0  0  0  0  0  0  0  0  0
   -8.5970    4.5384    3.0213 H   0  0  0  0  0  0  0  0  0  0  0  0
   -4.2546    6.5372   -1.8119 H   0  0  0  0  0  0  0  0  0  0  0  0
   -2.9588    6.5338   -0.6017 H   0  0  0  0  0  0  0  0  0  0  0  0
   -2.6648    5.8786   -2.2230 H   0  0  0  0  0  0  0  0  0  0  0  0
    3.6225   -0.2466    2.3468 H   0  0  0  0  0  0  0  0  0  0  0  0
    6.4766   -0.1933   -0.8774 H   0  0  0  0  0  0  0  0  0  0  0  0
  -10.1769    2.7830    3.7938 H   0  0  0  0  0  0  0  0  0  0  0  0
   -9.7447    1.0872    3.7352 H   0  0  0  0  0  0  0  0  0  0  0  0
   -8.1285    1.4318    5.6427 H   0  0  0  0  0  0  0  0  0  0  0  0
   -8.5867    3.1423    5.7059 H   0  0  0  0  0  0  0  0  0  0  0  0
   -9.7861    1.8907    6.0687 H   0  0  0  0  0  0  0  0  0  0  0  0
    5.0381   -1.8384    3.5587 H   0  0  0  0  0  0  0  0  0  0  0  0
    7.8957   -1.7564    0.3584 H   0  0  0  0  0  0  0  0  0  0  0  0
    7.1772   -2.6220    2.5724 H   0  0  0  0  0  0  0  0  0  0  0  0
  2  1  2  0  0  0  0
  3  1  1  0  0  0  0
  4  2  1  0  0  0  0
  4  5  1  0  0  0  0
  5  3  2  0  0  0  0
  6  8  1  0  0  0  0
  7 13  1  0  0  0  0
  8 20  1  0  0  0  0
  9  2  1  0  0  0  0
 10  6  1  0  0  0  0
 10 32  1  0  0  0  0
 10 33  1  0  0  0  0
 11  6  1  0  0  0  0
 11 34  1  0  0  0  0
 11 35  1  0  0  0  0
 12 10  1  0  0  0  0
 12  7  1  0  0  0  0
 12 36  1  0  0  0  0
 12 37  1  0  0  0  0
 13 11  1  0  0  0  0
 13 38  1  0  0  0  0
 13 39  1  0  0  0  0
 14  7  1  0  0  0  0
 15  8  2  0  0  0  0
 16  9  2  0  0  0  0
 16 40  1  0  0  0  0
 17  9  1  0  0  0  0
 17 41  1  0  0  0  0
 18 19  1  0  0  0  0
 19  3  1  0  0  0  0
 19 42  1  0  0  0  0
 19 43  1  0  0  0  0
 20 18  1  0  0  0  0
 20 44  1  0  0  0  0
 20 45  1  0  0  0  0
 21 16  1  0  0  0  0
 21 23  2  0  0  0  0
 21 46  1  0  0  0  0
 22 17  2  0  0  0  0
 22 47  1  0  0  0  0
 23 22  1  0  0  0  0
 24  5  1  0  0  0  0
 24 48  1  0  0  0  0
 24 49  1  0  0  0  0
 24 50  1  0  0  0  0
 25 14  2  0  0  0  0
 25 51  1  0  0  0  0
 26 14  1  0  0  0  0
 26 52  1  0  0  0  0
 27 23  1  0  0  0  0
 27 53  1  0  0  0  0
 27 54  1  0  0  0  0
 28 27  1  0  0  0  0
 28 55  1  0  0  0  0
 28 56  1  0  0  0  0
 28 57  1  0  0  0  0
 29 25  1  0  0  0  0
 29 58  1  0  0  0  0
 30 26  2  0  0  0  0
 30 59  1  0  0  0  0
 31 30  1  0  0  0  0
 31 29  2  0  0  0  0
 31 60  1  0  0  0  0
M  END
>  <Mol_ID>
9268

>  <Formula>
C25H29N3O2S

>  <MolWeight>
435.58166

>  <Cat>
P2642

>  <Name>
WAY-331983

>  <Synonyms>
N/A

>  <Target>
beta-catenin

>  <Form>
free base

>  <CAS>
901751-29-9

>  <URL>
N/A

$$$$
