WAY-660357
 OpenBabel08302521443D

 38 40  0  0  0  0  0  0  0  0999 V2000
   -1.1354    0.4505   -0.0108 N   0  0  0  0  0  0  0  0  0  0  0  0
   -0.8581   -0.8933    0.1177 C   0  0  0  0  0  0  0  0  0  0  0  0
    0.4490   -1.0428    0.2358 N   0  0  0  0  0  0  0  0  0  0  0  0
    0.0839    1.0836   -0.0043 C   0  0  0  0  0  0  0  0  0  0  0  0
    1.0404    0.1996    0.1451 N   0  0  0  0  0  0  0  0  0  0  0  0
   -1.7951   -1.9761    0.1442 C   0  0  0  0  0  0  0  0  0  0  0  0
    0.2845    2.8023   -0.1569 S   0  0  0  0  0  0  0  0  0  0  0  0
    3.8396    8.5115   -0.4405 C   0  0  0  0  0  0  0  0  0  0  0  0
   -3.0361   -1.9310   -0.4438 O   0  0  0  0  0  0  0  0  0  0  0  0
    3.4199    7.0853   -0.4036 C   0  0  0  0  0  0  0  0  0  0  0  0
   -1.6361   -3.2267    0.7226 C   0  0  0  0  0  0  0  0  0  0  0  0
    3.5752    9.3106    0.4442 O   0  0  0  0  0  0  0  0  0  0  0  0
   -3.6432   -3.1272   -0.2332 C   0  0  0  0  0  0  0  0  0  0  0  0
   -2.8266   -3.9587    0.4907 C   0  0  0  0  0  0  0  0  0  0  0  0
   -2.4297    1.0797   -0.0665 C   0  0  0  0  0  0  0  0  0  0  0  0
    3.2780    6.3110   -1.5604 C   0  0  0  0  0  0  0  0  0  0  0  0
    3.1304    6.5153    0.8417 C   0  0  0  0  0  0  0  0  0  0  0  0
    2.1002    2.9548   -0.1203 C   0  0  0  0  0  0  0  0  0  0  0  0
    4.5820    8.7695   -1.5478 O   0  0  0  0  0  0  0  0  0  0  0  0
    2.5594    4.3976   -0.2210 C   0  0  0  0  0  0  0  0  0  0  0  0
    2.7091    5.1828    0.9327 C   0  0  0  0  0  0  0  0  0  0  0  0
    2.8448    4.9799   -1.4677 C   0  0  0  0  0  0  0  0  0  0  0  0
    5.0781   10.1101   -1.6056 C   0  0  0  0  0  0  0  0  0  0  0  0
   -0.7582   -3.5599    1.2594 H   0  0  0  0  0  0  0  0  0  0  0  0
   -4.6351   -3.2319   -0.6526 H   0  0  0  0  0  0  0  0  0  0  0  0
   -3.0565   -4.9674    0.8076 H   0  0  0  0  0  0  0  0  0  0  0  0
   -2.4845    1.8400    0.7173 H   0  0  0  0  0  0  0  0  0  0  0  0
   -2.5557    1.5310   -1.0537 H   0  0  0  0  0  0  0  0  0  0  0  0
   -3.2267    0.3617    0.1115 H   0  0  0  0  0  0  0  0  0  0  0  0
    3.4885    6.7354   -2.5395 H   0  0  0  0  0  0  0  0  0  0  0  0
    3.2362    7.1080    1.7489 H   0  0  0  0  0  0  0  0  0  0  0  0
    2.4891    2.5178    0.8070 H   0  0  0  0  0  0  0  0  0  0  0  0
    2.5289    2.3795   -0.9491 H   0  0  0  0  0  0  0  0  0  0  0  0
    2.5002    4.7633    1.9150 H   0  0  0  0  0  0  0  0  0  0  0  0
    2.7329    4.3971   -2.3807 H   0  0  0  0  0  0  0  0  0  0  0  0
    4.2498   10.8174   -1.7133 H   0  0  0  0  0  0  0  0  0  0  0  0
    5.6730   10.3459   -0.7164 H   0  0  0  0  0  0  0  0  0  0  0  0
    5.7258   10.1986   -2.4825 H   0  0  0  0  0  0  0  0  0  0  0  0
  2  1  1  0  0  0  0
  3  2  2  0  0  0  0
  3  5  1  0  0  0  0
  4  1  1  0  0  0  0
  5  4  2  0  0  0  0
  6  2  1  0  0  0  0
  7  4  1  0  0  0  0
  8 10  1  0  0  0  0
  9  6  1  0  0  0  0
 10 16  2  0  0  0  0
 10 17  1  0  0  0  0
 11  6  2  0  0  0  0
 11 24  1  0  0  0  0
 12  8  2  0  0  0  0
 13  9  1  0  0  0  0
 13 14  2  0  0  0  0
 13 25  1  0  0  0  0
 14 11  1  0  0  0  0
 14 26  1  0  0  0  0
 15  1  1  0  0  0  0
 15 27  1  0  0  0  0
 15 28  1  0  0  0  0
 15 29  1  0  0  0  0
 16 22  1  0  0  0  0
 16 30  1  0  0  0  0
 17 21  2  0  0  0  0
 17 31  1  0  0  0  0
 18  7  1  0  0  0  0
 18 32  1  0  0  0  0
 18 33  1  0  0  0  0
 19  8  1  0  0  0  0
 20 18  1  0  0  0  0
 21 20  1  0  0  0  0
 21 34  1  0  0  0  0
 22 20  2  0  0  0  0
 22 35  1  0  0  0  0
 23 19  1  0  0  0  0
 23 36  1  0  0  0  0
 23 37  1  0  0  0  0
 23 38  1  0  0  0  0
M  END
>  <Mol_ID>
9119

>  <Formula>
C16H15N3O3S

>  <MolWeight>
329.3736

>  <Cat>
P3199

>  <Name>
WAY-660357

>  <Synonyms>
N/A

>  <Target>
Others

>  <Form>
free base

>  <CAS>
871089-29-1

>  <URL>
N/A

$$$$
