WAY-661708
 OpenBabel08302521443D

 47 48  0  0  0  0  0  0  0  0999 V2000
    1.1590   -0.0205    0.3170 C   0  0  0  0  0  0  0  0  0  0  0  0
    2.4443    0.1394    0.7900 N   0  0  0  0  0  0  0  0  0  0  0  0
    0.2791   -0.5766    1.1979 N   0  0  0  0  0  0  0  0  0  0  0  0
    2.8077    0.3155    2.1161 C   0  0  0  0  0  0  0  0  0  0  0  0
   -1.1592   -0.7366    0.9809 C   0  0  3  0  0  0  0  0  0  0  0  0
    4.9348   -0.4211    3.2462 N   0  0  0  0  0  0  0  0  0  0  0  0
   -1.9267    0.6053    1.0819 C   0  0  3  0  0  0  0  0  0  0  0  0
    0.8745    0.3245   -0.8273 O   0  0  0  0  0  0  0  0  0  0  0  0
    4.2999    0.5911    2.3678 C   0  0  0  0  0  0  0  0  0  0  0  0
    1.9776    0.2801    3.0242 O   0  0  0  0  0  0  0  0  0  0  0  0
   -1.7577    1.1985    2.5008 C   0  0  3  0  0  0  0  0  0  0  0  0
   -1.7121   -1.7467    1.9956 C   0  0  0  0  0  0  0  0  0  0  0  0
    4.3785   -0.4755    4.6130 C   0  0  0  0  0  0  0  0  0  0  0  0
    6.3630   -0.0933    3.4631 C   0  0  0  0  0  0  0  0  0  0  0  0
   -1.7458   -1.2091    3.4308 C   0  0  0  0  0  0  0  0  0  0  0  0
   -3.4064    0.4249    0.6923 C   0  0  0  0  0  0  0  0  0  0  0  0
   -2.2480    0.2295    3.5875 C   0  0  0  0  0  0  0  0  0  0  0  0
   -2.4360    2.5636    2.6489 C   0  0  0  0  0  0  0  0  0  0  0  0
    5.0704    0.6402    5.3672 C   0  0  0  0  0  0  0  0  0  0  0  0
    6.4884    0.5621    4.8399 C   0  0  0  0  0  0  0  0  0  0  0  0
    3.0790    0.4654    0.0787 H   0  0  0  0  0  0  0  0  0  0  0  0
    0.6055   -0.5812    2.1622 H   0  0  0  0  0  0  0  0  0  0  0  0
   -1.2780   -1.1393   -0.0332 H   0  0  0  0  0  0  0  0  0  0  0  0
   -1.4909    1.3098    0.3613 H   0  0  0  0  0  0  0  0  0  0  0  0
    4.8140    0.5706    1.3977 H   0  0  0  0  0  0  0  0  0  0  0  0
    4.3941    1.6102    2.7593 H   0  0  0  0  0  0  0  0  0  0  0  0
   -0.6858    1.3731    2.6642 H   0  0  0  0  0  0  0  0  0  0  0  0
   -2.7240   -2.0479    1.7009 H   0  0  0  0  0  0  0  0  0  0  0  0
   -1.1096   -2.6638    1.9766 H   0  0  0  0  0  0  0  0  0  0  0  0
    4.6554   -1.4424    5.0547 H   0  0  0  0  0  0  0  0  0  0  0  0
    3.2944   -0.4162    4.6938 H   0  0  0  0  0  0  0  0  0  0  0  0
    6.7850    0.5444    2.6779 H   0  0  0  0  0  0  0  0  0  0  0  0
    6.9433   -1.0235    3.4544 H   0  0  0  0  0  0  0  0  0  0  0  0
   -0.7384   -1.2757    3.8569 H   0  0  0  0  0  0  0  0  0  0  0  0
   -2.3742   -1.8706    4.0409 H   0  0  0  0  0  0  0  0  0  0  0  0
   -3.9642   -0.1701    1.4225 H   0  0  0  0  0  0  0  0  0  0  0  0
   -3.9138    1.3908    0.6088 H   0  0  0  0  0  0  0  0  0  0  0  0
   -3.4960   -0.0766   -0.2766 H   0  0  0  0  0  0  0  0  0  0  0  0
   -1.9329    0.6033    4.5709 H   0  0  0  0  0  0  0  0  0  0  0  0
   -3.3443    0.2204    3.6105 H   0  0  0  0  0  0  0  0  0  0  0  0
   -3.5273    2.4784    2.6703 H   0  0  0  0  0  0  0  0  0  0  0  0
   -2.1252    3.0443    3.5827 H   0  0  0  0  0  0  0  0  0  0  0  0
   -2.1605    3.2298    1.8241 H   0  0  0  0  0  0  0  0  0  0  0  0
    4.6243    1.6125    5.1256 H   0  0  0  0  0  0  0  0  0  0  0  0
    5.0216    0.5065    6.4518 H   0  0  0  0  0  0  0  0  0  0  0  0
    6.9498    1.5529    4.7917 H   0  0  0  0  0  0  0  0  0  0  0  0
    7.0999   -0.0653    5.5007 H   0  0  0  0  0  0  0  0  0  0  0  0
  2  1  1  0  0  0  0
  2 21  1  0  0  0  0
  3  1  1  0  0  0  0
  3 22  1  0  0  0  0
  4  2  1  0  0  0  0
  5  3  1  0  0  0  0
  5 23  1  0  0  0  0
  6  9  1  0  0  0  0
  7  5  1  0  0  0  0
  7 24  1  0  0  0  0
  8  1  2  0  0  0  0
  9  4  1  0  0  0  0
  9 25  1  0  0  0  0
  9 26  1  0  0  0  0
 10  4  2  0  0  0  0
 11  7  1  0  0  0  0
 11 27  1  0  0  0  0
 12  5  1  0  0  0  0
 12 28  1  0  0  0  0
 12 29  1  0  0  0  0
 13  6  1  0  0  0  0
 13 30  1  0  0  0  0
 13 31  1  0  0  0  0
 14  6  1  0  0  0  0
 14 32  1  0  0  0  0
 14 33  1  0  0  0  0
 15 12  1  0  0  0  0
 15 34  1  0  0  0  0
 15 35  1  0  0  0  0
 16  7  1  0  0  0  0
 16 36  1  0  0  0  0
 16 37  1  0  0  0  0
 16 38  1  0  0  0  0
 17 15  1  0  0  0  0
 17 11  1  0  0  0  0
 17 39  1  0  0  0  0
 17 40  1  0  0  0  0
 18 11  1  0  0  0  0
 18 41  1  0  0  0  0
 18 42  1  0  0  0  0
 18 43  1  0  0  0  0
 19 13  1  0  0  0  0
 19 20  1  0  0  0  0
 19 44  1  0  0  0  0
 19 45  1  0  0  0  0
 20 14  1  0  0  0  0
 20 46  1  0  0  0  0
 20 47  1  0  0  0  0
M  END
>  <Mol_ID>
9130

>  <Formula>
C15H27N3O2

>  <MolWeight>
281.39378

>  <Cat>
P3211

>  <Name>
WAY-661708

>  <Synonyms>
N/A

>  <Target>
amyloid beta

>  <Form>
free base

>  <CAS>
896690-34-9

>  <URL>
N/A

$$$$
