WAY-326448
 OpenBabel08302521433D

 37 39  0  0  0  0  0  0  0  0999 V2000
    0.8908    0.6969   -0.0044 N   0  0  0  0  0  0  0  0  0  0  0  0
    2.3352    1.6563   -0.0554 S   0  0  0  0  0  0  0  0  0  0  0  0
    0.8253   -0.6467   -0.2773 N   0  0  0  0  0  0  0  0  0  0  0  0
   -0.3648    1.2360    0.2663 C   0  0  0  0  0  0  0  0  0  0  0  0
   -0.4396   -0.9645    0.0082 C   0  0  0  0  0  0  0  0  0  0  0  0
   -1.2142    0.1574    0.3557 C   0  0  0  0  0  0  0  0  0  0  0  0
   -1.9978   -2.7145    0.2208 C   0  0  0  0  0  0  0  0  0  0  0  0
   -0.7447   -2.2733   -0.1066 O   0  0  0  0  0  0  0  0  0  0  0  0
   -2.0955   -4.1461    0.0452 C   0  0  0  0  0  0  0  0  0  0  0  0
    2.4456    2.2709   -1.7139 C   0  0  0  0  0  0  0  0  0  0  0  0
    2.1005    2.7831    0.8414 O   0  0  0  0  0  0  0  0  0  0  0  0
    3.4444    0.7409    0.1522 O   0  0  0  0  0  0  0  0  0  0  0  0
   -1.0506   -4.8670   -0.4696 O   0  0  0  0  0  0  0  0  0  0  0  0
   -2.9285   -2.0254    0.6238 O   0  0  0  0  0  0  0  0  0  0  0  0
   -3.1443   -5.0057    0.3277 C   0  0  0  0  0  0  0  0  0  0  0  0
   -0.6532    2.5497    0.4331 N   0  0  0  0  0  0  0  0  0  0  0  0
   -1.4367   -6.1705   -0.4992 C   0  0  0  0  0  0  0  0  0  0  0  0
   -2.7136   -6.3090   -0.0133 C   0  0  0  0  0  0  0  0  0  0  0  0
    2.5390    3.6496   -1.9320 C   0  0  0  0  0  0  0  0  0  0  0  0
    2.5436    1.3772   -2.7822 C   0  0  0  0  0  0  0  0  0  0  0  0
    2.7153    4.1353   -3.2296 C   0  0  0  0  0  0  0  0  0  0  0  0
    2.7217    1.8709   -4.0782 C   0  0  0  0  0  0  0  0  0  0  0  0
    2.8109    3.2505   -4.3116 C   0  0  0  0  0  0  0  0  0  0  0  0
    3.0146    3.7880   -5.6991 C   0  0  0  0  0  0  0  0  0  0  0  0
   -2.2587    0.2028    0.6255 H   0  0  0  0  0  0  0  0  0  0  0  0
   -4.1007   -4.7138    0.7428 H   0  0  0  0  0  0  0  0  0  0  0  0
    0.0760    3.2027    0.7442 H   0  0  0  0  0  0  0  0  0  0  0  0
   -1.5753    2.8281    0.7674 H   0  0  0  0  0  0  0  0  0  0  0  0
   -0.7025   -6.8659   -0.8841 H   0  0  0  0  0  0  0  0  0  0  0  0
   -3.2650   -7.2341    0.0842 H   0  0  0  0  0  0  0  0  0  0  0  0
    2.4992    4.3540   -1.1035 H   0  0  0  0  0  0  0  0  0  0  0  0
    2.5156    0.3011   -2.6179 H   0  0  0  0  0  0  0  0  0  0  0  0
    2.7961    5.2086   -3.3922 H   0  0  0  0  0  0  0  0  0  0  0  0
    2.8098    1.1688   -4.9051 H   0  0  0  0  0  0  0  0  0  0  0  0
    2.1545    4.3957   -5.9977 H   0  0  0  0  0  0  0  0  0  0  0  0
    3.9200    4.4028   -5.7389 H   0  0  0  0  0  0  0  0  0  0  0  0
    3.1283    2.9809   -6.4304 H   0  0  0  0  0  0  0  0  0  0  0  0
  2  1  1  0  0  0  0
  3  1  1  0  0  0  0
  4  1  1  0  0  0  0
  5  3  2  0  0  0  0
  5  6  1  0  0  0  0
  6  4  2  0  0  0  0
  6 25  1  0  0  0  0
  7  8  1  0  0  0  0
  8  5  1  0  0  0  0
  9  7  1  0  0  0  0
 10  2  1  0  0  0  0
 11  2  2  0  0  0  0
 12  2  2  0  0  0  0
 13  9  1  0  0  0  0
 14  7  2  0  0  0  0
 15  9  2  0  0  0  0
 15 26  1  0  0  0  0
 16  4  1  0  0  0  0
 16 27  1  0  0  0  0
 16 28  1  0  0  0  0
 17 13  1  0  0  0  0
 17 18  2  0  0  0  0
 17 29  1  0  0  0  0
 18 15  1  0  0  0  0
 18 30  1  0  0  0  0
 19 10  2  0  0  0  0
 19 31  1  0  0  0  0
 20 10  1  0  0  0  0
 20 32  1  0  0  0  0
 21 19  1  0  0  0  0
 21 33  1  0  0  0  0
 22 20  2  0  0  0  0
 22 34  1  0  0  0  0
 23 22  1  0  0  0  0
 23 21  2  0  0  0  0
 24 23  1  0  0  0  0
 24 35  1  0  0  0  0
 24 36  1  0  0  0  0
 24 37  1  0  0  0  0
M  END
>  <Mol_ID>
8925

>  <Formula>
C15H13N3O5S

>  <MolWeight>
347.34582

>  <Cat>
P2484

>  <Name>
WAY-326448

>  <Synonyms>
N/A

>  <Target>
cathepsin B

>  <Form>
free base

>  <CAS>
870763-67-0

>  <URL>
N/A

$$$$
