WAY-331991
 OpenBabel08302521443D

 39 41  0  0  0  0  0  0  0  0999 V2000
   -1.2620   -0.6606   -0.0094 C   0  0  0  0  0  0  0  0  0  0  0  0
   -1.4603    0.6466   -0.0148 N   0  0  0  0  0  0  0  0  0  0  0  0
   -0.1865    1.1871   -0.0137 C   0  0  0  0  0  0  0  0  0  0  0  0
    0.0584   -1.0151    0.0178 O   0  0  0  0  0  0  0  0  0  0  0  0
   -2.2341   -1.7466   -0.0660 C   0  0  0  0  0  0  0  0  0  0  0  0
    0.7385    0.1648    0.0127 C   0  0  0  0  0  0  0  0  0  0  0  0
   -0.1111    6.0323   -5.0150 C   0  0  0  0  0  0  0  0  0  0  0  0
   -0.1520    5.4197   -3.7303 N   0  0  0  0  0  0  0  0  0  0  0  0
    0.5949    5.8660   -2.6561 C   0  0  0  0  0  0  0  0  0  0  0  0
   -1.1186    7.0776   -5.4014 C   0  0  0  0  0  0  0  0  0  0  0  0
   -1.1753    5.7174   -6.0317 C   0  0  0  0  0  0  0  0  0  0  0  0
   -1.8608   -3.0945    0.0047 C   0  0  0  0  0  0  0  0  0  0  0  0
    1.2636    6.8974   -2.6755 O   0  0  0  0  0  0  0  0  0  0  0  0
    0.2076    3.2589   -1.7453 S   0  0  0  0  0  0  0  0  0  0  0  0
    0.0318    2.6581   -0.0346 C   0  0  0  0  0  0  0  0  0  0  0  0
   -0.5787   -3.4541    0.1708 F   0  0  0  0  0  0  0  0  0  0  0  0
   -3.5997   -1.4521   -0.2197 C   0  0  0  0  0  0  0  0  0  0  0  0
    0.4573    5.0324   -1.3878 C   0  0  0  0  0  0  0  0  0  0  0  0
    2.2057    0.0703    0.0213 C   0  0  0  0  0  0  0  0  0  0  0  0
   -2.8034   -4.1180   -0.0951 C   0  0  0  0  0  0  0  0  0  0  0  0
   -4.5498   -2.4754   -0.3195 C   0  0  0  0  0  0  0  0  0  0  0  0
   -4.1501   -3.8092   -0.2630 C   0  0  0  0  0  0  0  0  0  0  0  0
    0.9008    6.1656   -5.3928 H   0  0  0  0  0  0  0  0  0  0  0  0
   -0.5445    4.4843   -3.6485 H   0  0  0  0  0  0  0  0  0  0  0  0
   -1.8809    7.3428   -4.6788 H   0  0  0  0  0  0  0  0  0  0  0  0
   -0.7718    7.9079   -6.0055 H   0  0  0  0  0  0  0  0  0  0  0  0
   -0.8727    5.6235   -7.0681 H   0  0  0  0  0  0  0  0  0  0  0  0
   -1.9911    5.0638   -5.7464 H   0  0  0  0  0  0  0  0  0  0  0  0
   -0.8165    3.1641    0.4373 H   0  0  0  0  0  0  0  0  0  0  0  0
    0.9365    2.9123    0.5270 H   0  0  0  0  0  0  0  0  0  0  0  0
   -3.9298   -0.4153   -0.2727 H   0  0  0  0  0  0  0  0  0  0  0  0
   -0.3888    5.4229   -0.8145 H   0  0  0  0  0  0  0  0  0  0  0  0
    1.3782    5.1426   -0.8071 H   0  0  0  0  0  0  0  0  0  0  0  0
    2.5475   -0.4851    0.9021 H   0  0  0  0  0  0  0  0  0  0  0  0
    2.5606   -0.4566   -0.8710 H   0  0  0  0  0  0  0  0  0  0  0  0
    2.6704    1.0592    0.0417 H   0  0  0  0  0  0  0  0  0  0  0  0
   -2.4721   -5.1509   -0.0449 H   0  0  0  0  0  0  0  0  0  0  0  0
   -5.6015   -2.2289   -0.4476 H   0  0  0  0  0  0  0  0  0  0  0  0
   -4.8845   -4.6061   -0.3497 H   0  0  0  0  0  0  0  0  0  0  0  0
  2  1  2  0  0  0  0
  3  2  1  0  0  0  0
  4  1  1  0  0  0  0
  5  1  1  0  0  0  0
  6  4  1  0  0  0  0
  6  3  2  0  0  0  0
  7  8  1  0  0  0  0
  7 23  1  0  0  0  0
  8  9  1  0  0  0  0
  8 24  1  0  0  0  0
  9 18  1  0  0  0  0
 10  7  1  0  0  0  0
 10 25  1  0  0  0  0
 10 26  1  0  0  0  0
 11  7  1  0  0  0  0
 11 10  1  0  0  0  0
 11 27  1  0  0  0  0
 11 28  1  0  0  0  0
 12  5  2  0  0  0  0
 13  9  2  0  0  0  0
 14 15  1  0  0  0  0
 15  3  1  0  0  0  0
 15 29  1  0  0  0  0
 15 30  1  0  0  0  0
 16 12  1  0  0  0  0
 17  5  1  0  0  0  0
 17 31  1  0  0  0  0
 18 14  1  0  0  0  0
 18 32  1  0  0  0  0
 18 33  1  0  0  0  0
 19  6  1  0  0  0  0
 19 34  1  0  0  0  0
 19 35  1  0  0  0  0
 19 36  1  0  0  0  0
 20 12  1  0  0  0  0
 20 22  2  0  0  0  0
 20 37  1  0  0  0  0
 21 17  2  0  0  0  0
 21 38  1  0  0  0  0
 22 21  1  0  0  0  0
 22 39  1  0  0  0  0
M  END
>  <Mol_ID>
9242

>  <Formula>
C16H17FN2O2S

>  <MolWeight>
320.3817832

>  <Cat>
P2650

>  <Name>
WAY-331991

>  <Synonyms>
N/A

>  <Target>
beta-catenin

>  <Form>
free base

>  <CAS>
901751-65-3

>  <URL>
N/A

$$$$
