WAY-301187
 OpenBabel08302521413D

 24 25  0  0  0  0  0  0  0  0999 V2000
   -3.3846   -3.1611   -1.5168 C   0  0  0  0  0  0  0  0  0  0  0  0
   -1.4411   -3.1888   -0.0482 C   0  0  0  0  0  0  0  0  0  0  0  0
   -2.4763   -2.5626   -0.6911 N   0  0  0  0  0  0  0  0  0  0  0  0
   -3.5249   -4.4380   -1.7771 N   0  0  0  0  0  0  0  0  0  0  0  0
   -4.4613   -2.0915   -2.2922 S   0  0  0  0  0  0  0  0  0  0  0  0
   -1.3697   -4.5528   -0.1764 N   0  0  0  0  0  0  0  0  0  0  0  0
   -0.4271   -2.2059    0.8559 S   0  0  0  0  0  0  0  0  0  0  0  0
   -4.5430   -4.5944   -2.6989 C   0  0  0  0  0  0  0  0  0  0  0  0
   -5.1749   -3.4319   -3.0923 C   0  0  0  0  0  0  0  0  0  0  0  0
   -0.2798   -5.4295   -0.0193 C   0  0  0  0  0  0  0  0  0  0  0  0
    1.7804   -7.2995    0.1578 C   0  0  0  0  0  0  0  0  0  0  0  0
    2.7699   -8.1973    0.2352 F   0  0  0  0  0  0  0  0  0  0  0  0
   -0.5621   -6.7664    0.2879 C   0  0  0  0  0  0  0  0  0  0  0  0
    1.0434   -5.0466   -0.2600 C   0  0  0  0  0  0  0  0  0  0  0  0
    2.0744   -5.9834   -0.1772 C   0  0  0  0  0  0  0  0  0  0  0  0
    0.4734   -7.6989    0.3980 C   0  0  0  0  0  0  0  0  0  0  0  0
   -2.5219   -1.5563   -0.6069 H   0  0  0  0  0  0  0  0  0  0  0  0
   -2.2546   -4.9971   -0.4203 H   0  0  0  0  0  0  0  0  0  0  0  0
   -4.7893   -5.5878   -3.0546 H   0  0  0  0  0  0  0  0  0  0  0  0
   -5.9918   -3.3103   -3.7890 H   0  0  0  0  0  0  0  0  0  0  0  0
   -1.5837   -7.0878    0.4750 H   0  0  0  0  0  0  0  0  0  0  0  0
    1.2911   -4.0371   -0.5747 H   0  0  0  0  0  0  0  0  0  0  0  0
    3.1000   -5.6959   -0.3889 H   0  0  0  0  0  0  0  0  0  0  0  0
    0.2654   -8.7312    0.6603 H   0  0  0  0  0  0  0  0  0  0  0  0
  1  4  2  0  0  0  0
  2  3  1  0  0  0  0
  3  1  1  0  0  0  0
  3 17  1  0  0  0  0
  5  1  1  0  0  0  0
  6  2  1  0  0  0  0
  6 18  1  0  0  0  0
  7  2  2  0  0  0  0
  8  4  1  0  0  0  0
  8  9  2  0  0  0  0
  8 19  1  0  0  0  0
  9  5  1  0  0  0  0
  9 20  1  0  0  0  0
 10  6  1  0  0  0  0
 11 15  2  0  0  0  0
 11 16  1  0  0  0  0
 12 11  1  0  0  0  0
 13 10  1  0  0  0  0
 13 21  1  0  0  0  0
 14 10  2  0  0  0  0
 14 15  1  0  0  0  0
 14 22  1  0  0  0  0
 15 23  1  0  0  0  0
 16 13  2  0  0  0  0
 16 24  1  0  0  0  0
M  END
>  <Mol_ID>
8427

>  <Formula>
C10H8FN3S2

>  <MolWeight>
253.3190232

>  <Cat>
P2160

>  <Name>
WAY-301187

>  <Synonyms>
N/A

>  <Target>
Anti-infection

>  <Form>
free base

>  <CAS>
457-82-9

>  <URL>
N/A

$$$$
