WAY-638082
 OpenBabel08302521423D

 27 29  0  0  0  0  0  0  0  0999 V2000
   -0.0775    0.6917   -0.0166 C   0  0  0  0  0  0  0  0  0  0  0  0
   -0.0234   -0.7229   -0.0097 C   0  0  0  0  0  0  0  0  0  0  0  0
   -1.2350    1.3767   -0.0375 N   0  0  0  0  0  0  0  0  0  0  0  0
    1.1261    1.3847   -0.0040 C   0  0  0  0  0  0  0  0  0  0  0  0
   -1.2327   -1.4293   -0.0190 C   0  0  0  0  0  0  0  0  0  0  0  0
    1.2129   -1.3898    0.0043 C   0  0  0  0  0  0  0  0  0  0  0  0
   -2.3895    0.6518   -0.0409 C   0  0  0  0  0  0  0  0  0  0  0  0
    2.3588    0.7247    0.0092 C   0  0  0  0  0  0  0  0  0  0  0  0
   -2.4345   -0.7349   -0.0341 C   0  0  0  0  0  0  0  0  0  0  0  0
    2.4027   -0.6653    0.0121 C   0  0  0  0  0  0  0  0  0  0  0  0
   -3.6689    1.4305   -0.0714 C   0  0  0  0  0  0  0  0  0  0  0  0
   -3.4849    2.7897   -0.1745 N   0  0  0  0  0  0  0  0  0  0  0  0
   -4.7350    0.8234   -0.0420 O   0  0  0  0  0  0  0  0  0  0  0  0
   -4.5346    3.6579   -0.2652 C   0  0  0  0  0  0  0  0  0  0  0  0
   -5.8079    3.4315   -0.0695 N   0  0  0  0  0  0  0  0  0  0  0  0
   -4.1115    5.2483   -0.7238 S   0  0  0  0  0  0  0  0  0  0  0  0
   -6.5264    4.5775   -0.3382 C   0  0  0  0  0  0  0  0  0  0  0  0
   -5.7798    5.6608   -0.7502 C   0  0  0  0  0  0  0  0  0  0  0  0
    1.1067    2.4714   -0.0030 H   0  0  0  0  0  0  0  0  0  0  0  0
   -1.2453   -2.5169   -0.0167 H   0  0  0  0  0  0  0  0  0  0  0  0
    1.2565   -2.4772    0.0076 H   0  0  0  0  0  0  0  0  0  0  0  0
    3.2815    1.2997    0.0172 H   0  0  0  0  0  0  0  0  0  0  0  0
   -3.3844   -1.2626   -0.0463 H   0  0  0  0  0  0  0  0  0  0  0  0
    3.3585   -1.1824    0.0194 H   0  0  0  0  0  0  0  0  0  0  0  0
   -2.5418    3.1410   -0.2822 H   0  0  0  0  0  0  0  0  0  0  0  0
   -7.6040    4.5600   -0.2301 H   0  0  0  0  0  0  0  0  0  0  0  0
   -6.1245    6.6415   -1.0439 H   0  0  0  0  0  0  0  0  0  0  0  0
  1  2  1  0  0  0  0
  1  3  2  0  0  0  0
  1  4  1  0  0  0  0
  2  5  2  0  0  0  0
  2  6  1  0  0  0  0
  3  7  1  0  0  0  0
  4  8  2  0  0  0  0
  4 19  1  0  0  0  0
  5  9  1  0  0  0  0
  5 20  1  0  0  0  0
  6 10  2  0  0  0  0
  6 21  1  0  0  0  0
  7 11  1  0  0  0  0
  7  9  2  0  0  0  0
  8 10  1  0  0  0  0
  8 22  1  0  0  0  0
  9 23  1  0  0  0  0
 10 24  1  0  0  0  0
 11 12  1  0  0  0  0
 11 13  2  0  0  0  0
 12 14  1  0  0  0  0
 12 25  1  0  0  0  0
 14 15  2  0  0  0  0
 14 16  1  0  0  0  0
 15 17  1  0  0  0  0
 16 18  1  0  0  0  0
 17 18  2  0  0  0  0
 17 26  1  0  0  0  0
 18 27  1  0  0  0  0
M  END
>  <Mol_ID>
8500

>  <Formula>
C13H9N3OS

>  <MolWeight>
255.29506

>  <Cat>
P3026

>  <Name>
WAY-638082

>  <Synonyms>
N/A

>  <Target>
Anti-infection

>  <Form>
free base

>  <CAS>
313687-86-4

>  <URL>
N/A

$$$$
