WAY-296817
 OpenBabel08302521353D

 39 41  0  0  0  0  0  0  0  0999 V2000
    1.1302    0.0316   -0.0384 N   0  0  0  0  0  0  0  0  0  0  0  0
    0.3902   -1.1211   -0.2029 C   0  0  0  0  0  0  0  0  0  0  0  0
   -1.0637   -0.9626    0.1842 C   0  0  0  0  0  0  0  0  0  0  0  0
    0.8068   -2.1962   -0.6322 O   0  0  0  0  0  0  0  0  0  0  0  0
    8.3390    0.7156   -1.0507 O   0  0  0  0  0  0  0  0  0  0  0  0
    9.3480    0.0069   -1.7604 C   0  0  0  0  0  0  0  0  0  0  0  0
   -4.1078   -1.0364    0.3694 O   0  0  0  0  0  0  0  0  0  0  0  0
   -3.6719   -0.3385    1.5260 C   0  0  0  0  0  0  0  0  0  0  0  0
    4.3321   -0.3747   -1.4365 C   0  0  0  0  0  0  0  0  0  0  0  0
    4.7468    0.6762   -0.6163 C   0  0  0  0  0  0  0  0  0  0  0  0
    2.9899   -0.6720   -1.3800 N   0  0  0  0  0  0  0  0  0  0  0  0
    5.2890   -1.0591   -2.2060 C   0  0  0  0  0  0  0  0  0  0  0  0
    3.3610    1.3427    0.1713 S   0  0  0  0  0  0  0  0  0  0  0  0
    6.0982    1.0387   -0.5149 C   0  0  0  0  0  0  0  0  0  0  0  0
    2.4133    0.0979   -0.4988 C   0  0  0  0  0  0  0  0  0  0  0  0
    6.6408   -0.7171   -2.0979 C   0  0  0  0  0  0  0  0  0  0  0  0
    7.0451    0.3145   -1.2527 C   0  0  0  0  0  0  0  0  0  0  0  0
   -2.0270   -0.7960   -0.9721 C   0  0  0  0  0  0  0  0  0  0  0  0
   -3.4231   -0.8409   -0.8002 C   0  0  0  0  0  0  0  0  0  0  0  0
   -1.5300   -0.6620   -2.2904 C   0  0  0  0  0  0  0  0  0  0  0  0
   -4.2641   -0.8114   -1.9240 C   0  0  0  0  0  0  0  0  0  0  0  0
   -2.3781   -0.6272   -3.3977 C   0  0  0  0  0  0  0  0  0  0  0  0
   -3.7476   -0.7086   -3.2140 C   0  0  0  0  0  0  0  0  0  0  0  0
    0.8081    0.7838    0.5492 H   0  0  0  0  0  0  0  0  0  0  0  0
   -1.3271   -1.8734    0.7403 H   0  0  0  0  0  0  0  0  0  0  0  0
   -1.1479   -0.1100    0.8640 H   0  0  0  0  0  0  0  0  0  0  0  0
    9.3858   -1.0426   -1.4493 H   0  0  0  0  0  0  0  0  0  0  0  0
    9.2041    0.0943   -2.8423 H   0  0  0  0  0  0  0  0  0  0  0  0
   10.3116    0.4633   -1.5160 H   0  0  0  0  0  0  0  0  0  0  0  0
   -2.9442   -0.9414    2.0763 H   0  0  0  0  0  0  0  0  0  0  0  0
   -3.2762    0.6566    1.2981 H   0  0  0  0  0  0  0  0  0  0  0  0
   -4.5353   -0.2093    2.1864 H   0  0  0  0  0  0  0  0  0  0  0  0
    4.9690   -1.8716   -2.8520 H   0  0  0  0  0  0  0  0  0  0  0  0
    6.4120    1.8427    0.1437 H   0  0  0  0  0  0  0  0  0  0  0  0
    7.3496   -1.2942   -2.6829 H   0  0  0  0  0  0  0  0  0  0  0  0
   -0.4602   -0.6362   -2.4948 H   0  0  0  0  0  0  0  0  0  0  0  0
   -5.3402   -0.8897   -1.7877 H   0  0  0  0  0  0  0  0  0  0  0  0
   -1.9584   -0.5678   -4.3986 H   0  0  0  0  0  0  0  0  0  0  0  0
   -4.4152   -0.7157   -4.0727 H   0  0  0  0  0  0  0  0  0  0  0  0
  1  2  1  0  0  0  0
  1 15  1  0  0  0  0
  1 24  1  0  0  0  0
  2  3  1  0  0  0  0
  2  4  2  0  0  0  0
  3 18  1  0  0  0  0
  3 25  1  0  0  0  0
  3 26  1  0  0  0  0
  5  6  1  0  0  0  0
  5 17  1  0  0  0  0
  6 27  1  0  0  0  0
  6 28  1  0  0  0  0
  6 29  1  0  0  0  0
  7  8  1  0  0  0  0
  7 19  1  0  0  0  0
  8 30  1  0  0  0  0
  8 31  1  0  0  0  0
  8 32  1  0  0  0  0
  9 10  2  0  0  0  0
  9 11  1  0  0  0  0
  9 12  1  0  0  0  0
 10 13  1  0  0  0  0
 10 14  1  0  0  0  0
 11 15  2  0  0  0  0
 12 16  2  0  0  0  0
 12 33  1  0  0  0  0
 13 15  1  0  0  0  0
 14 17  2  0  0  0  0
 14 34  1  0  0  0  0
 16 17  1  0  0  0  0
 16 35  1  0  0  0  0
 18 19  2  0  0  0  0
 18 20  1  0  0  0  0
 19 21  1  0  0  0  0
 20 22  2  0  0  0  0
 20 36  1  0  0  0  0
 21 23  2  0  0  0  0
 21 37  1  0  0  0  0
 22 23  1  0  0  0  0
 22 38  1  0  0  0  0
 23 39  1  0  0  0  0
M  END
>  <Mol_ID>
6865

>  <Formula>
C17H16N2O3S

>  <MolWeight>
328.38554

>  <Cat>
E2808

>  <Name>
WAY-296817

>  <Target>
Others

>  <Form>
Free base

>  <CAS>
349438-74-0

>  <URL>
http://www.selleckchem.com/products/way-296817.html

$$$$
