WAY-324071
 OpenBabel08302521423D

 53 56  0  0  0  0  0  0  0  0999 V2000
   -0.0553   -0.2512   -0.0474 C   0  0  0  0  0  0  0  0  0  0  0  0
   -2.3605   -0.7793   -0.0321 C   0  0  0  0  0  0  0  0  0  0  0  0
   -0.0587   -1.6354   -0.0348 C   0  0  0  0  0  0  0  0  0  0  0  0
   -1.6082   -2.3200   -0.0117 S   0  0  0  0  0  0  0  0  0  0  0  0
   -1.4148    0.2430   -0.0188 C   0  0  0  0  0  0  0  0  0  0  0  0
    1.2199    0.3814   -0.0907 C   0  0  0  0  0  0  0  0  0  0  0  0
    2.3671   -0.4493   -0.2013 C   0  0  0  0  0  0  0  0  0  0  0  0
    1.0114   -2.4474   -0.0364 N   0  0  0  0  0  0  0  0  0  0  0  0
    2.2103   -1.8396   -0.1319 C   0  0  0  0  0  0  0  0  0  0  0  0
   -3.7270   -0.4704   -0.0732 C   0  0  0  0  0  0  0  0  0  0  0  0
   -4.0713    0.8307   -0.0720 N   0  0  0  0  0  0  0  0  0  0  0  0
   -1.7819    1.5538   -0.0144 N   0  0  0  0  0  0  0  0  0  0  0  0
    3.7360    0.1736   -0.3605 C   0  0  0  0  0  0  0  0  0  0  0  0
    3.7584    1.5959   -0.4848 O   0  0  0  0  0  0  0  0  0  0  0  0
    1.4065    1.8837   -0.0564 C   0  0  0  0  0  0  0  0  0  0  0  0
    2.8337    2.2792    0.3703 C   0  0  0  0  0  0  0  0  0  0  0  0
   -3.1000    1.7559   -0.0285 C   0  0  0  0  0  0  0  0  0  0  0  0
    3.3890   -2.7965   -0.0656 C   0  0  0  0  0  0  0  0  0  0  0  0
   -4.7039   -1.4582   -0.1389 N   0  0  0  0  0  0  0  0  0  0  0  0
   -5.3466   -1.8687   -2.9538 O   0  0  0  0  0  0  0  0  0  0  0  0
    3.3194   -3.9281   -1.1122 C   0  0  0  0  0  0  0  0  0  0  0  0
    3.1148    1.9934    1.8564 C   0  0  0  0  0  0  0  0  0  0  0  0
    3.0624    3.7771    0.1261 C   0  0  0  0  0  0  0  0  0  0  0  0
   -5.9975   -1.1171   -0.7271 C   0  0  0  0  0  0  0  0  0  0  0  0
   -5.8918   -0.7722   -2.2195 C   0  0  0  0  0  0  0  0  0  0  0  0
    3.5088   -3.3972   -2.5352 C   0  0  0  0  0  0  0  0  0  0  0  0
    4.3738   -4.9978   -0.8150 C   0  0  0  0  0  0  0  0  0  0  0  0
    4.1993   -0.2155   -1.2741 H   0  0  0  0  0  0  0  0  0  0  0  0
    4.3750   -0.0955    0.4874 H   0  0  0  0  0  0  0  0  0  0  0  0
    0.6816    2.3415    0.6255 H   0  0  0  0  0  0  0  0  0  0  0  0
    1.2025    2.2535   -1.0696 H   0  0  0  0  0  0  0  0  0  0  0  0
   -3.4312    2.7910   -0.0095 H   0  0  0  0  0  0  0  0  0  0  0  0
    4.3500   -2.2816   -0.1554 H   0  0  0  0  0  0  0  0  0  0  0  0
    3.3743   -3.2328    0.9414 H   0  0  0  0  0  0  0  0  0  0  0  0
   -4.3587   -2.3941   -0.3299 H   0  0  0  0  0  0  0  0  0  0  0  0
   -4.4514   -2.0088   -2.5996 H   0  0  0  0  0  0  0  0  0  0  0  0
    2.3363   -4.4115   -1.0542 H   0  0  0  0  0  0  0  0  0  0  0  0
    4.1726    2.1642    2.0864 H   0  0  0  0  0  0  0  0  0  0  0  0
    2.5073    2.6327    2.5059 H   0  0  0  0  0  0  0  0  0  0  0  0
    2.9055    0.9558    2.1336 H   0  0  0  0  0  0  0  0  0  0  0  0
    2.9303    4.0320   -0.9312 H   0  0  0  0  0  0  0  0  0  0  0  0
    2.3824    4.3943    0.7224 H   0  0  0  0  0  0  0  0  0  0  0  0
    4.0926    4.0551    0.3817 H   0  0  0  0  0  0  0  0  0  0  0  0
   -6.6409   -1.9987   -0.6203 H   0  0  0  0  0  0  0  0  0  0  0  0
   -6.4759   -0.3006   -0.1761 H   0  0  0  0  0  0  0  0  0  0  0  0
   -6.8860   -0.5597   -2.6252 H   0  0  0  0  0  0  0  0  0  0  0  0
   -5.2642    0.1060   -2.4002 H   0  0  0  0  0  0  0  0  0  0  0  0
    4.5581   -3.1532   -2.7329 H   0  0  0  0  0  0  0  0  0  0  0  0
    3.1967   -4.1526   -3.2636 H   0  0  0  0  0  0  0  0  0  0  0  0
    2.9142   -2.4976   -2.7190 H   0  0  0  0  0  0  0  0  0  0  0  0
    5.3889   -4.6071   -0.9450 H   0  0  0  0  0  0  0  0  0  0  0  0
    4.2835   -5.3678    0.2118 H   0  0  0  0  0  0  0  0  0  0  0  0
    4.2532   -5.8532   -1.4889 H   0  0  0  0  0  0  0  0  0  0  0  0
  2  5  2  0  0  0  0
  3  1  2  0  0  0  0
  4  3  1  0  0  0  0
  4  2  1  0  0  0  0
  5  1  1  0  0  0  0
  6  1  1  0  0  0  0
  7  6  2  0  0  0  0
  8  3  1  0  0  0  0
  8  9  2  0  0  0  0
  9  7  1  0  0  0  0
 10  2  1  0  0  0  0
 11 17  1  0  0  0  0
 11 10  2  0  0  0  0
 12  5  1  0  0  0  0
 13  7  1  0  0  0  0
 13 28  1  0  0  0  0
 13 29  1  0  0  0  0
 14 16  1  0  0  0  0
 14 13  1  0  0  0  0
 15  6  1  0  0  0  0
 15 30  1  0  0  0  0
 15 31  1  0  0  0  0
 16 15  1  0  0  0  0
 17 12  2  0  0  0  0
 17 32  1  0  0  0  0
 18  9  1  0  0  0  0
 18 33  1  0  0  0  0
 18 34  1  0  0  0  0
 19 10  1  0  0  0  0
 19 35  1  0  0  0  0
 20 25  1  0  0  0  0
 20 36  1  0  0  0  0
 21 18  1  0  0  0  0
 21 37  1  0  0  0  0
 22 16  1  0  0  0  0
 22 38  1  0  0  0  0
 22 39  1  0  0  0  0
 22 40  1  0  0  0  0
 23 16  1  0  0  0  0
 23 41  1  0  0  0  0
 23 42  1  0  0  0  0
 23 43  1  0  0  0  0
 24 19  1  0  0  0  0
 24 44  1  0  0  0  0
 24 45  1  0  0  0  0
 25 24  1  0  0  0  0
 25 46  1  0  0  0  0
 25 47  1  0  0  0  0
 26 21  1  0  0  0  0
 26 48  1  0  0  0  0
 26 49  1  0  0  0  0
 26 50  1  0  0  0  0
 27 21  1  0  0  0  0
 27 51  1  0  0  0  0
 27 52  1  0  0  0  0
 27 53  1  0  0  0  0
M  END
>  <Mol_ID>
8602

>  <Formula>
C20H26N4O2S

>  <MolWeight>
386.51104

>  <Cat>
P2295

>  <Name>
WAY-324071

>  <Synonyms>
N/A

>  <Target>
PfDHODH

>  <Form>
free base

>  <CAS>
372182-94-0

>  <URL>
N/A

$$$$
