WAY-327136
 OpenBabel08302521443D

 55 58  0  0  0  0  0  0  0  0999 V2000
   -0.0973    1.3461   -0.1506 C   0  0  0  0  0  0  0  0  0  0  0  0
    0.1391    0.4386   -1.1108 N   0  0  0  0  0  0  0  0  0  0  0  0
   -0.3681    1.0030    1.1180 N   0  0  0  0  0  0  0  0  0  0  0  0
    0.1232   -0.8751   -0.7891 C   0  0  0  0  0  0  0  0  0  0  0  0
   -0.3495   -0.3018    1.4558 C   0  0  0  0  0  0  0  0  0  0  0  0
   -0.7910   -0.7145    2.8470 C   0  0  0  0  0  0  0  0  0  0  0  0
   -0.1037    2.7112   -0.4903 N   0  0  0  0  0  0  0  0  0  0  0  0
    0.6896    5.4062    0.1632 N   0  0  0  0  0  0  0  0  0  0  0  0
   -0.0467   -1.2735    0.5291 C   0  0  0  0  0  0  0  0  0  0  0  0
    0.1045   -1.8804   -1.9000 C   0  0  0  0  0  0  0  0  0  0  0  0
    1.2129    6.5796    0.6760 C   0  0  0  0  0  0  0  0  0  0  0  0
   -0.8500    3.5198    0.5078 C   0  0  0  0  0  0  0  0  0  0  0  0
    1.2961    3.1528   -0.6596 C   0  0  0  0  0  0  0  0  0  0  0  0
    1.3740    4.6754   -0.9281 C   0  0  0  0  0  0  0  0  0  0  0  0
   -0.7355    5.0458    0.2465 C   0  0  0  0  0  0  0  0  0  0  0  0
    0.6942   -1.6949   -3.1779 C   0  0  0  0  0  0  0  0  0  0  0  0
    1.0143    7.0568    1.9981 C   0  0  0  0  0  0  0  0  0  0  0  0
   -1.1731    0.3200    3.6469 F   0  0  0  0  0  0  0  0  0  0  0  0
   -1.8601   -1.5645    2.8084 F   0  0  0  0  0  0  0  0  0  0  0  0
    0.1783   -1.3840    3.5349 F   0  0  0  0  0  0  0  0  0  0  0  0
    1.4090   -0.5397   -3.4106 O   0  0  0  0  0  0  0  0  0  0  0  0
    0.0951    6.5886    2.9048 O   0  0  0  0  0  0  0  0  0  0  0  0
   -0.5849   -3.1016   -1.7010 C   0  0  0  0  0  0  0  0  0  0  0  0
    2.0677    7.3687   -0.1290 C   0  0  0  0  0  0  0  0  0  0  0  0
    0.5962   -2.7027   -4.1585 C   0  0  0  0  0  0  0  0  0  0  0  0
    1.7162    8.1815    2.4769 C   0  0  0  0  0  0  0  0  0  0  0  0
    0.2412    5.2352    3.3076 C   0  0  0  0  0  0  0  0  0  0  0  0
    1.4282   -0.1009   -4.7728 C   0  0  0  0  0  0  0  0  0  0  0  0
   -0.6790   -4.0942   -2.6789 C   0  0  0  0  0  0  0  0  0  0  0  0
    2.7541    8.4919    0.3454 C   0  0  0  0  0  0  0  0  0  0  0  0
   -0.0841   -3.8948   -3.9076 C   0  0  0  0  0  0  0  0  0  0  0  0
    2.5993    8.8821    1.6645 C   0  0  0  0  0  0  0  0  0  0  0  0
   -0.0373   -2.3167    0.8265 H   0  0  0  0  0  0  0  0  0  0  0  0
   -1.9095    3.2367    0.4950 H   0  0  0  0  0  0  0  0  0  0  0  0
   -0.4574    3.3225    1.5101 H   0  0  0  0  0  0  0  0  0  0  0  0
    1.8796    2.9413    0.2505 H   0  0  0  0  0  0  0  0  0  0  0  0
    1.7758    2.6292   -1.4964 H   0  0  0  0  0  0  0  0  0  0  0  0
    0.8924    4.9137   -1.8851 H   0  0  0  0  0  0  0  0  0  0  0  0
    2.4328    4.9407   -1.0066 H   0  0  0  0  0  0  0  0  0  0  0  0
   -1.2226    5.2854   -0.7075 H   0  0  0  0  0  0  0  0  0  0  0  0
   -1.2769    5.6036    1.0154 H   0  0  0  0  0  0  0  0  0  0  0  0
   -1.1067   -3.3012   -0.7681 H   0  0  0  0  0  0  0  0  0  0  0  0
    2.2019    7.1229   -1.1799 H   0  0  0  0  0  0  0  0  0  0  0  0
    1.0617   -2.5973   -5.1300 H   0  0  0  0  0  0  0  0  0  0  0  0
    1.5686    8.5065    3.5045 H   0  0  0  0  0  0  0  0  0  0  0  0
   -0.6760    4.7086    3.0244 H   0  0  0  0  0  0  0  0  0  0  0  0
    1.1216    4.7311    2.9026 H   0  0  0  0  0  0  0  0  0  0  0  0
    0.2741    5.1922    4.3989 H   0  0  0  0  0  0  0  0  0  0  0  0
    2.0816   -0.7321   -5.3829 H   0  0  0  0  0  0  0  0  0  0  0  0
    0.4192   -0.0558   -5.1945 H   0  0  0  0  0  0  0  0  0  0  0  0
    1.8507    0.9123   -4.7965 H   0  0  0  0  0  0  0  0  0  0  0  0
   -1.2217   -5.0126   -2.4711 H   0  0  0  0  0  0  0  0  0  0  0  0
    3.4057    9.0498   -0.3209 H   0  0  0  0  0  0  0  0  0  0  0  0
   -0.1477   -4.6597   -4.6790 H   0  0  0  0  0  0  0  0  0  0  0  0
    3.1454    9.7388    2.0516 H   0  0  0  0  0  0  0  0  0  0  0  0
  2  1  2  0  0  0  0
  3  1  1  0  0  0  0
  4  2  1  0  0  0  0
  5  3  2  0  0  0  0
  6  5  1  0  0  0  0
  7  1  1  0  0  0  0
  8 14  1  0  0  0  0
  8 15  1  0  0  0  0
  9  5  1  0  0  0  0
  9  4  2  0  0  0  0
  9 33  1  0  0  0  0
 10  4  1  0  0  0  0
 11  8  1  0  0  0  0
 12  7  1  0  0  0  0
 12 34  1  0  0  0  0
 12 35  1  0  0  0  0
 13  7  1  0  0  0  0
 13 36  1  0  0  0  0
 13 37  1  0  0  0  0
 14 13  1  0  0  0  0
 14 38  1  0  0  0  0
 14 39  1  0  0  0  0
 15 12  1  0  0  0  0
 15 40  1  0  0  0  0
 15 41  1  0  0  0  0
 16 10  2  0  0  0  0
 17 11  2  0  0  0  0
 18  6  1  0  0  0  0
 19  6  1  0  0  0  0
 20  6  1  0  0  0  0
 21 16  1  0  0  0  0
 22 17  1  0  0  0  0
 23 10  1  0  0  0  0
 23 42  1  0  0  0  0
 24 11  1  0  0  0  0
 24 43  1  0  0  0  0
 25 16  1  0  0  0  0
 25 31  2  0  0  0  0
 25 44  1  0  0  0  0
 26 17  1  0  0  0  0
 26 45  1  0  0  0  0
 27 22  1  0  0  0  0
 27 46  1  0  0  0  0
 27 47  1  0  0  0  0
 27 48  1  0  0  0  0
 28 21  1  0  0  0  0
 28 49  1  0  0  0  0
 28 50  1  0  0  0  0
 28 51  1  0  0  0  0
 29 23  2  0  0  0  0
 29 52  1  0  0  0  0
 30 24  2  0  0  0  0
 30 53  1  0  0  0  0
 31 29  1  0  0  0  0
 31 54  1  0  0  0  0
 32 30  1  0  0  0  0
 32 26  2  0  0  0  0
 32 55  1  0  0  0  0
M  END
>  <Mol_ID>
8956

>  <Formula>
C23H23F3N4O2

>  <MolWeight>
444.4495296

>  <Cat>
P2515

>  <Name>
WAY-327136

>  <Synonyms>
N/A

>  <Target>
RAGE

>  <Form>
free base

>  <CAS>
686725-20-2

>  <URL>
N/A

$$$$
