WAY-331962
 OpenBabel08302521453D

 57 60  0  0  0  0  0  0  0  0999 V2000
   -2.5241   -0.7095   -2.6301 C   0  0  0  0  0  0  0  0  0  0  0  0
   -2.3082    0.5232   -3.0485 N   0  0  0  0  0  0  0  0  0  0  0  0
   -2.5874    1.3166   -1.9552 C   0  0  0  0  0  0  0  0  0  0  0  0
   -2.9268   -0.7826   -1.3182 O   0  0  0  0  0  0  0  0  0  0  0  0
   -2.9629    0.5201   -0.8961 C   0  0  0  0  0  0  0  0  0  0  0  0
    2.5240    2.3914   -3.7298 N   0  0  0  0  0  0  0  0  0  0  0  0
    4.4880    0.9596   -5.2275 N   0  0  0  0  0  0  0  0  0  0  0  0
   -2.3942   -1.9839   -3.3368 C   0  0  0  0  0  0  0  0  0  0  0  0
    1.6803    2.9304   -2.7658 C   0  0  0  0  0  0  0  0  0  0  0  0
    2.1181    1.5108   -4.8365 C   0  0  0  0  0  0  0  0  0  0  0  0
    3.8914    2.9165   -3.8460 C   0  0  0  0  0  0  0  0  0  0  0  0
    3.1435    0.3832   -5.0849 C   0  0  0  0  0  0  0  0  0  0  0  0
    4.9300    1.8142   -4.1088 C   0  0  0  0  0  0  0  0  0  0  0  0
    5.4153    0.4074   -6.0916 C   0  0  0  0  0  0  0  0  0  0  0  0
    2.1254    3.6906   -1.9002 O   0  0  0  0  0  0  0  0  0  0  0  0
   -2.5152   -2.1089   -4.7395 C   0  0  0  0  0  0  0  0  0  0  0  0
   -0.7924    3.3454   -1.5350 S   0  0  0  0  0  0  0  0  0  0  0  0
   -2.4463    2.7898   -2.0395 C   0  0  0  0  0  0  0  0  0  0  0  0
    0.2056    2.5438   -2.8430 C   0  0  0  0  0  0  0  0  0  0  0  0
   -3.3556    0.7487    0.5040 C   0  0  0  0  0  0  0  0  0  0  0  0
   -2.1290   -3.1478   -2.5804 C   0  0  0  0  0  0  0  0  0  0  0  0
    5.3802   -0.9362   -6.4924 C   0  0  0  0  0  0  0  0  0  0  0  0
    6.3978    1.2193   -6.6795 C   0  0  0  0  0  0  0  0  0  0  0  0
   -2.8109   -0.9701   -5.6799 C   0  0  0  0  0  0  0  0  0  0  0  0
   -2.4056   -3.3884   -5.3250 C   0  0  0  0  0  0  0  0  0  0  0  0
   -2.0070   -4.4007   -3.1794 C   0  0  0  0  0  0  0  0  0  0  0  0
   -2.1534   -4.5207   -4.5552 C   0  0  0  0  0  0  0  0  0  0  0  0
    6.2536   -1.4333   -7.4690 C   0  0  0  0  0  0  0  0  0  0  0  0
    7.2709    0.7331   -7.6580 C   0  0  0  0  0  0  0  0  0  0  0  0
    7.1885   -0.5930   -8.0627 C   0  0  0  0  0  0  0  0  0  0  0  0
    1.1321    1.0741   -4.6652 H   0  0  0  0  0  0  0  0  0  0  0  0
    2.0466    2.1453   -5.7284 H   0  0  0  0  0  0  0  0  0  0  0  0
    3.8797    3.6193   -4.6900 H   0  0  0  0  0  0  0  0  0  0  0  0
    4.1779    3.4861   -2.9572 H   0  0  0  0  0  0  0  0  0  0  0  0
    3.1291   -0.3315   -4.2530 H   0  0  0  0  0  0  0  0  0  0  0  0
    2.8358   -0.1450   -5.9950 H   0  0  0  0  0  0  0  0  0  0  0  0
    5.0494    1.1973   -3.2092 H   0  0  0  0  0  0  0  0  0  0  0  0
    5.8966    2.2937   -4.2960 H   0  0  0  0  0  0  0  0  0  0  0  0
   -2.6478    3.1390   -3.0569 H   0  0  0  0  0  0  0  0  0  0  0  0
   -3.1796    3.2748   -1.3867 H   0  0  0  0  0  0  0  0  0  0  0  0
    0.1347    1.4590   -2.7284 H   0  0  0  0  0  0  0  0  0  0  0  0
   -0.1831    2.8580   -3.8174 H   0  0  0  0  0  0  0  0  0  0  0  0
   -4.3265    0.2870    0.7101 H   0  0  0  0  0  0  0  0  0  0  0  0
   -2.6167    0.3135    1.1830 H   0  0  0  0  0  0  0  0  0  0  0  0
   -3.4347    1.8171    0.7249 H   0  0  0  0  0  0  0  0  0  0  0  0
   -2.0109   -3.0807   -1.4989 H   0  0  0  0  0  0  0  0  0  0  0  0
    4.6704   -1.6259   -6.0455 H   0  0  0  0  0  0  0  0  0  0  0  0
    6.4557    2.2751   -6.4256 H   0  0  0  0  0  0  0  0  0  0  0  0
   -2.0991   -0.9864   -6.5130 H   0  0  0  0  0  0  0  0  0  0  0  0
   -3.8246   -1.0749   -6.0809 H   0  0  0  0  0  0  0  0  0  0  0  0
   -2.7349    0.0198   -5.2356 H   0  0  0  0  0  0  0  0  0  0  0  0
   -2.5264   -3.5027   -6.4023 H   0  0  0  0  0  0  0  0  0  0  0  0
   -1.8055   -5.2774   -2.5723 H   0  0  0  0  0  0  0  0  0  0  0  0
   -2.0737   -5.4951   -5.0293 H   0  0  0  0  0  0  0  0  0  0  0  0
    6.1908   -2.4755   -7.7710 H   0  0  0  0  0  0  0  0  0  0  0  0
    7.9900    1.4040   -8.1186 H   0  0  0  0  0  0  0  0  0  0  0  0
    7.8480   -0.9677   -8.8408 H   0  0  0  0  0  0  0  0  0  0  0  0
  2  1  2  0  0  0  0
  3  2  1  0  0  0  0
  4  1  1  0  0  0  0
  5  4  1  0  0  0  0
  5  3  2  0  0  0  0
  6  9  1  0  0  0  0
  7 13  1  0  0  0  0
  8  1  1  0  0  0  0
  9 19  1  0  0  0  0
 10  6  1  0  0  0  0
 10 31  1  0  0  0  0
 10 32  1  0  0  0  0
 11  6  1  0  0  0  0
 11 33  1  0  0  0  0
 11 34  1  0  0  0  0
 12 10  1  0  0  0  0
 12  7  1  0  0  0  0
 12 35  1  0  0  0  0
 12 36  1  0  0  0  0
 13 11  1  0  0  0  0
 13 37  1  0  0  0  0
 13 38  1  0  0  0  0
 14  7  1  0  0  0  0
 15  9  2  0  0  0  0
 16  8  2  0  0  0  0
 17 18  1  0  0  0  0
 18  3  1  0  0  0  0
 18 39  1  0  0  0  0
 18 40  1  0  0  0  0
 19 17  1  0  0  0  0
 19 41  1  0  0  0  0
 19 42  1  0  0  0  0
 20  5  1  0  0  0  0
 20 43  1  0  0  0  0
 20 44  1  0  0  0  0
 20 45  1  0  0  0  0
 21  8  1  0  0  0  0
 21 46  1  0  0  0  0
 22 14  2  0  0  0  0
 22 47  1  0  0  0  0
 23 14  1  0  0  0  0
 23 48  1  0  0  0  0
 24 16  1  0  0  0  0
 24 49  1  0  0  0  0
 24 50  1  0  0  0  0
 24 51  1  0  0  0  0
 25 16  1  0  0  0  0
 25 27  2  0  0  0  0
 25 52  1  0  0  0  0
 26 21  2  0  0  0  0
 26 53  1  0  0  0  0
 27 26  1  0  0  0  0
 27 54  1  0  0  0  0
 28 22  1  0  0  0  0
 28 55  1  0  0  0  0
 29 23  2  0  0  0  0
 29 56  1  0  0  0  0
 30 29  1  0  0  0  0
 30 28  2  0  0  0  0
 30 57  1  0  0  0  0
M  END
>  <Mol_ID>
9289

>  <Formula>
C24H27N3O2S

>  <MolWeight>
421.55508

>  <Cat>
P2624

>  <Name>
WAY-331962

>  <Synonyms>
N/A

>  <Target>
beta-catenin

>  <Form>
free base

>  <CAS>
902167-39-9

>  <URL>
N/A

$$$$
