WAY-661012
 OpenBabel08302521443D

 42 44  0  0  0  0  0  0  0  0999 V2000
    1.0710    0.0674   -0.0626 C   0  0  0  0  0  0  0  0  0  0  0  0
   -0.6401    2.8232    4.2861 C   0  0  0  0  0  0  0  0  0  0  0  0
    0.2315    0.9097    0.6743 N   0  0  0  0  0  0  0  0  0  0  0  0
   -0.1360    2.0119    3.2864 N   0  0  0  0  0  0  0  0  0  0  0  0
    0.5413   -1.2135   -0.4936 C   0  0  0  0  0  0  0  0  0  0  0  0
   -1.7468    2.3234    5.2814 C   0  0  3  0  0  0  0  0  0  0  0  0
   -2.0850    3.4355    6.2334 N   0  0  0  0  0  0  0  0  0  0  0  0
   -2.7903    4.5667    5.5863 C   0  0  0  0  0  0  0  0  0  0  0  0
   -0.7940   -1.3439   -0.7817 O   0  0  0  0  0  0  0  0  0  0  0  0
   -3.1985    5.7497    6.4166 C   0  0  0  0  0  0  0  0  0  0  0  0
   -4.2399    4.8042    5.8950 C   0  0  0  0  0  0  0  0  0  0  0  0
   -0.4443    0.6060    3.0278 C   0  0  0  0  0  0  0  0  0  0  0  0
    0.6481    2.2914    0.9365 C   0  0  0  0  0  0  0  0  0  0  0  0
    0.9452    2.5323    2.4257 C   0  0  0  0  0  0  0  0  0  0  0  0
   -0.8470    0.4214    1.5517 C   0  0  0  0  0  0  0  0  0  0  0  0
    2.2232    0.4082   -0.3395 O   0  0  0  0  0  0  0  0  0  0  0  0
   -0.1433    3.9480    4.4490 O   0  0  0  0  0  0  0  0  0  0  0  0
    1.1772   -2.4133   -0.7579 C   0  0  0  0  0  0  0  0  0  0  0  0
   -1.0046   -2.6225   -1.1800 C   0  0  0  0  0  0  0  0  0  0  0  0
    0.1785   -3.3272   -1.1713 C   0  0  0  0  0  0  0  0  0  0  0  0
   -3.0592    1.7657    4.7286 C   0  0  0  0  0  0  0  0  0  0  0  0
   -1.2659    1.5398    5.8810 H   0  0  0  0  0  0  0  0  0  0  0  0
   -1.1879    3.7929    6.5778 H   0  0  0  0  0  0  0  0  0  0  0  0
   -2.4577    4.8209    4.5805 H   0  0  0  0  0  0  0  0  0  0  0  0
   -2.9878    5.7399    7.4783 H   0  0  0  0  0  0  0  0  0  0  0  0
   -3.1214    6.7288    5.9564 H   0  0  0  0  0  0  0  0  0  0  0  0
   -4.8727    5.1351    5.0797 H   0  0  0  0  0  0  0  0  0  0  0  0
   -4.7303    4.1519    6.6066 H   0  0  0  0  0  0  0  0  0  0  0  0
    0.4724    0.0380    3.2309 H   0  0  0  0  0  0  0  0  0  0  0  0
   -1.1950    0.2090    3.7030 H   0  0  0  0  0  0  0  0  0  0  0  0
    1.5194    2.5676    0.3326 H   0  0  0  0  0  0  0  0  0  0  0  0
   -0.1835    2.9320    0.6216 H   0  0  0  0  0  0  0  0  0  0  0  0
    1.8606    2.0036    2.7184 H   0  0  0  0  0  0  0  0  0  0  0  0
    1.1179    3.6004    2.5878 H   0  0  0  0  0  0  0  0  0  0  0  0
   -1.7431    1.0088    1.3191 H   0  0  0  0  0  0  0  0  0  0  0  0
   -1.0708   -0.6322    1.3938 H   0  0  0  0  0  0  0  0  0  0  0  0
    2.2387   -2.5966   -0.6500 H   0  0  0  0  0  0  0  0  0  0  0  0
   -2.0225   -2.8737   -1.4324 H   0  0  0  0  0  0  0  0  0  0  0  0
    0.3024   -4.3654   -1.4433 H   0  0  0  0  0  0  0  0  0  0  0  0
   -3.6235    2.5084    4.1581 H   0  0  0  0  0  0  0  0  0  0  0  0
   -2.9395    0.9086    4.0692 H   0  0  0  0  0  0  0  0  0  0  0  0
   -3.6927    1.4215    5.5574 H   0  0  0  0  0  0  0  0  0  0  0  0
  2  4  1  0  0  0  0
  3  1  1  0  0  0  0
  4 12  1  0  0  0  0
  5  1  1  0  0  0  0
  6  2  1  0  0  0  0
  6 22  1  0  0  0  0
  7  6  1  0  0  0  0
  7 23  1  0  0  0  0
  8  7  1  0  0  0  0
  8 24  1  0  0  0  0
  9  5  1  0  0  0  0
 10  8  1  0  0  0  0
 10 25  1  0  0  0  0
 10 26  1  0  0  0  0
 11  8  1  0  0  0  0
 11 10  1  0  0  0  0
 11 27  1  0  0  0  0
 11 28  1  0  0  0  0
 12 15  1  0  0  0  0
 12 29  1  0  0  0  0
 12 30  1  0  0  0  0
 13  3  1  0  0  0  0
 13 31  1  0  0  0  0
 13 32  1  0  0  0  0
 14 13  1  0  0  0  0
 14  4  1  0  0  0  0
 14 33  1  0  0  0  0
 14 34  1  0  0  0  0
 15  3  1  0  0  0  0
 15 35  1  0  0  0  0
 15 36  1  0  0  0  0
 16  1  2  0  0  0  0
 17  2  2  0  0  0  0
 18  5  2  0  0  0  0
 18 37  1  0  0  0  0
 19  9  1  0  0  0  0
 19 20  2  0  0  0  0
 19 38  1  0  0  0  0
 20 18  1  0  0  0  0
 20 39  1  0  0  0  0
 21  6  1  0  0  0  0
 21 40  1  0  0  0  0
 21 41  1  0  0  0  0
 21 42  1  0  0  0  0
M  END
>  <Mol_ID>
9126

>  <Formula>
C15H21N3O3

>  <MolWeight>
291.34554

>  <Cat>
P3207

>  <Name>
WAY-661012

>  <Synonyms>
N/A

>  <Target>
Androgen Receptor

>  <Form>
free base

>  <CAS>
872319-20-5

>  <URL>
N/A

$$$$
