WAY-324680
 OpenBabel08302521423D

 56 59  0  0  0  0  0  0  0  0999 V2000
    0.2056   -0.7656    0.0678 C   0  0  0  0  0  0  0  0  0  0  0  0
    0.3071    0.6401    0.0388 N   0  0  0  0  0  0  0  0  0  0  0  0
   -0.8313    1.4371    0.0250 C   0  0  0  0  0  0  0  0  0  0  0  0
    1.5125   -1.2601    0.0328 C   0  0  0  0  0  0  0  0  0  0  0  0
    4.4381   -4.7597   -0.7242 C   0  0  0  0  0  0  0  0  0  0  0  0
   -1.0185   -1.3833    0.1148 N   0  0  0  0  0  0  0  0  0  0  0  0
    1.5956    1.0321    0.0228 N   0  0  0  0  0  0  0  0  0  0  0  0
   -2.0469    0.8607    0.0317 C   0  0  0  0  0  0  0  0  0  0  0  0
    6.3299   -5.0516   -1.9881 N   0  0  0  0  0  0  0  0  0  0  0  0
    5.2344   -5.3442   -2.7003 N   0  0  0  0  0  0  0  0  0  0  0  0
    1.9207   -2.6703   -0.0233 C   0  0  0  0  0  0  0  0  0  0  0  0
    4.0754   -5.2539   -1.9745 C   0  0  0  0  0  0  0  0  0  0  0  0
   -2.0856   -0.6336    0.0726 C   0  0  0  0  0  0  0  0  0  0  0  0
   -0.6869    2.9136    0.0044 C   0  0  0  0  0  0  0  0  0  0  0  0
    5.8650   -4.7188   -0.7790 C   0  0  0  0  0  0  0  0  0  0  0  0
    2.2959   -0.0939   -0.0416 C   0  0  0  0  0  0  0  0  0  0  0  0
    3.5416   -4.4795    0.4458 C   0  0  0  0  0  0  0  0  0  0  0  0
    3.1641   -3.0611    0.5208 N   0  0  0  0  0  0  0  0  0  0  0  0
   -3.4491   -1.2546    0.1143 C   0  0  0  0  0  0  0  0  0  0  0  0
    1.1810   -3.5054   -0.5482 O   0  0  0  0  0  0  0  0  0  0  0  0
    0.5701    3.4117    0.0031 F   0  0  0  0  0  0  0  0  0  0  0  0
   -1.3063    3.4385   -1.0900 F   0  0  0  0  0  0  0  0  0  0  0  0
   -1.3145    3.4685    1.0794 F   0  0  0  0  0  0  0  0  0  0  0  0
   -4.5669   -0.6516   -0.4823 C   0  0  0  0  0  0  0  0  0  0  0  0
   -3.6137   -2.4702    0.7866 C   0  0  0  0  0  0  0  0  0  0  0  0
    5.4064   -5.7522   -4.0759 C   0  0  0  0  0  0  0  0  0  0  0  0
    2.7531   -5.6618   -2.5189 C   0  0  0  0  0  0  0  0  0  0  0  0
   -4.8811   -3.0525    0.8970 C   0  0  0  0  0  0  0  0  0  0  0  0
   -5.8341   -1.2353   -0.3682 C   0  0  0  0  0  0  0  0  0  0  0  0
   -6.0022   -2.4363    0.3275 C   0  0  0  0  0  0  0  0  0  0  0  0
    6.8545   -4.4215    0.2860 C   0  0  0  0  0  0  0  0  0  0  0  0
    3.9725   -2.2198    1.3912 C   0  0  0  0  0  0  0  0  0  0  0  0
   -7.3577   -3.0660    0.4640 C   0  0  0  0  0  0  0  0  0  0  0  0
   -2.9576    1.4461    0.0459 H   0  0  0  0  0  0  0  0  0  0  0  0
    3.3659    0.0043   -0.1517 H   0  0  0  0  0  0  0  0  0  0  0  0
    4.0367   -4.7687    1.3804 H   0  0  0  0  0  0  0  0  0  0  0  0
    2.6435   -5.1029    0.3897 H   0  0  0  0  0  0  0  0  0  0  0  0
   -4.4813    0.2657   -1.0568 H   0  0  0  0  0  0  0  0  0  0  0  0
   -2.7577   -2.9672    1.2386 H   0  0  0  0  0  0  0  0  0  0  0  0
    5.9705   -4.9739   -4.5959 H   0  0  0  0  0  0  0  0  0  0  0  0
    5.9582   -6.6960   -4.0883 H   0  0  0  0  0  0  0  0  0  0  0  0
    4.4376   -5.8811   -4.5610 H   0  0  0  0  0  0  0  0  0  0  0  0
    2.3755   -4.9086   -3.2155 H   0  0  0  0  0  0  0  0  0  0  0  0
    2.8317   -6.6190   -3.0477 H   0  0  0  0  0  0  0  0  0  0  0  0
    2.0157   -5.8045   -1.7252 H   0  0  0  0  0  0  0  0  0  0  0  0
   -4.9873   -3.9930    1.4346 H   0  0  0  0  0  0  0  0  0  0  0  0
   -6.6889   -0.7441   -0.8301 H   0  0  0  0  0  0  0  0  0  0  0  0
    7.4811   -5.3014    0.4715 H   0  0  0  0  0  0  0  0  0  0  0  0
    7.5079   -3.5968   -0.0151 H   0  0  0  0  0  0  0  0  0  0  0  0
    6.3796   -4.1553    1.2306 H   0  0  0  0  0  0  0  0  0  0  0  0
    4.4688   -1.4473    0.8036 H   0  0  0  0  0  0  0  0  0  0  0  0
    3.3367   -1.7715    2.1598 H   0  0  0  0  0  0  0  0  0  0  0  0
    4.7550   -2.7965    1.8888 H   0  0  0  0  0  0  0  0  0  0  0  0
   -7.3547   -4.0696    0.0266 H   0  0  0  0  0  0  0  0  0  0  0  0
   -7.6384   -3.1331    1.5200 H   0  0  0  0  0  0  0  0  0  0  0  0
   -8.1268   -2.4793   -0.0500 H   0  0  0  0  0  0  0  0  0  0  0  0
  2  1  1  0  0  0  0
  3  2  1  0  0  0  0
  4  1  2  0  0  0  0
  5 17  1  0  0  0  0
  6  1  1  0  0  0  0
  7  2  1  0  0  0  0
  8 13  1  0  0  0  0
  8  3  2  0  0  0  0
  8 34  1  0  0  0  0
  9 15  2  0  0  0  0
 10 12  1  0  0  0  0
 10  9  1  0  0  0  0
 11  4  1  0  0  0  0
 12  5  2  0  0  0  0
 13  6  2  0  0  0  0
 14  3  1  0  0  0  0
 15  5  1  0  0  0  0
 16  4  1  0  0  0  0
 16  7  2  0  0  0  0
 16 35  1  0  0  0  0
 17 18  1  0  0  0  0
 17 36  1  0  0  0  0
 17 37  1  0  0  0  0
 18 11  1  0  0  0  0
 19 13  1  0  0  0  0
 20 11  2  0  0  0  0
 21 14  1  0  0  0  0
 22 14  1  0  0  0  0
 23 14  1  0  0  0  0
 24 19  2  0  0  0  0
 24 38  1  0  0  0  0
 25 19  1  0  0  0  0
 25 39  1  0  0  0  0
 26 10  1  0  0  0  0
 26 40  1  0  0  0  0
 26 41  1  0  0  0  0
 26 42  1  0  0  0  0
 27 12  1  0  0  0  0
 27 43  1  0  0  0  0
 27 44  1  0  0  0  0
 27 45  1  0  0  0  0
 28 25  2  0  0  0  0
 28 46  1  0  0  0  0
 29 24  1  0  0  0  0
 29 30  2  0  0  0  0
 29 47  1  0  0  0  0
 30 28  1  0  0  0  0
 31 15  1  0  0  0  0
 31 48  1  0  0  0  0
 31 49  1  0  0  0  0
 31 50  1  0  0  0  0
 32 18  1  0  0  0  0
 32 51  1  0  0  0  0
 32 52  1  0  0  0  0
 32 53  1  0  0  0  0
 33 30  1  0  0  0  0
 33 54  1  0  0  0  0
 33 55  1  0  0  0  0
 33 56  1  0  0  0  0
M  END
>  <Mol_ID>
8650

>  <Formula>
C23H23F3N6O

>  <MolWeight>
456.4635296

>  <Cat>
P2340

>  <Name>
WAY-324680

>  <Synonyms>
N/A

>  <Target>
11¦Â-HSD1

>  <Form>
free base

>  <CAS>
489410-54-0

>  <URL>
N/A

$$$$
