WAY-332000
 OpenBabel08302521443D

 54 56  0  0  0  0  0  0  0  0999 V2000
   -3.0115    0.6578   -1.6560 N   0  0  0  0  0  0  0  0  0  0  0  0
   -3.3231   -0.3975   -0.9259 C   0  0  0  0  0  0  0  0  0  0  0  0
   -2.5961    1.6020   -0.7350 C   0  0  0  0  0  0  0  0  0  0  0  0
   -3.1150   -0.2254    0.4149 O   0  0  0  0  0  0  0  0  0  0  0  0
   -2.6572    1.0559    0.5326 C   0  0  0  0  0  0  0  0  0  0  0  0
   -3.8714   -1.6837   -1.3449 C   0  0  0  0  0  0  0  0  0  0  0  0
    1.8061    1.6810   -4.1905 N   0  0  0  0  0  0  0  0  0  0  0  0
    1.1372    2.7624   -3.6268 C   0  0  0  0  0  0  0  0  0  0  0  0
    2.8346    1.8668   -5.2184 C   0  0  3  0  0  0  0  0  0  0  0  0
   -4.1164   -1.9167   -2.7070 C   0  0  0  0  0  0  0  0  0  0  0  0
    1.5508    3.9179   -3.7285 O   0  0  0  0  0  0  0  0  0  0  0  0
   -0.4429    3.2249   -1.3710 S   0  0  0  0  0  0  0  0  0  0  0  0
    3.9763    0.8232   -5.1182 C   0  0  3  0  0  0  0  0  0  0  0  0
   -2.2401    2.9801   -1.1712 C   0  0  0  0  0  0  0  0  0  0  0  0
   -4.6537   -3.1352   -3.1538 C   0  0  0  0  0  0  0  0  0  0  0  0
   -0.2052    2.4065   -2.9814 C   0  0  0  0  0  0  0  0  0  0  0  0
   -2.3758    1.5247    1.9014 C   0  0  0  0  0  0  0  0  0  0  0  0
   -4.1848   -2.6963   -0.4269 C   0  0  0  0  0  0  0  0  0  0  0  0
   -4.7247   -3.9098   -0.8599 C   0  0  0  0  0  0  0  0  0  0  0  0
    2.1644    1.7791   -6.6001 C   0  0  0  0  0  0  0  0  0  0  0  0
   -4.9588   -4.1266   -2.2171 C   0  0  0  0  0  0  0  0  0  0  0  0
    4.7259    0.9268   -3.7884 C   0  0  0  0  0  0  0  0  0  0  0  0
    4.9766    0.9923   -6.2808 C   0  0  0  0  0  0  0  0  0  0  0  0
   -4.9232   -3.3636   -4.6114 C   0  0  0  0  0  0  0  0  0  0  0  0
    3.1634    1.9633   -7.7360 C   0  0  0  0  0  0  0  0  0  0  0  0
    4.2964    0.9496   -7.6459 C   0  0  0  0  0  0  0  0  0  0  0  0
    1.3796    0.7641   -4.1248 H   0  0  0  0  0  0  0  0  0  0  0  0
    3.2655    2.8685   -5.1049 H   0  0  0  0  0  0  0  0  0  0  0  0
   -3.8896   -1.1319   -3.4290 H   0  0  0  0  0  0  0  0  0  0  0  0
    3.5469   -0.1861   -5.1819 H   0  0  0  0  0  0  0  0  0  0  0  0
   -2.7528    3.2255   -2.1085 H   0  0  0  0  0  0  0  0  0  0  0  0
   -2.6009    3.7000   -0.4276 H   0  0  0  0  0  0  0  0  0  0  0  0
   -0.2896    1.3262   -2.8423 H   0  0  0  0  0  0  0  0  0  0  0  0
   -0.9787    2.7346   -3.6846 H   0  0  0  0  0  0  0  0  0  0  0  0
   -2.9148    0.9206    2.6396 H   0  0  0  0  0  0  0  0  0  0  0  0
   -1.3070    1.4467    2.1192 H   0  0  0  0  0  0  0  0  0  0  0  0
   -2.6852    2.5651    2.0353 H   0  0  0  0  0  0  0  0  0  0  0  0
   -4.0161   -2.5489    0.6384 H   0  0  0  0  0  0  0  0  0  0  0  0
   -4.9677   -4.6854   -0.1376 H   0  0  0  0  0  0  0  0  0  0  0  0
    1.6741    0.8019   -6.7078 H   0  0  0  0  0  0  0  0  0  0  0  0
    1.3724    2.5316   -6.6833 H   0  0  0  0  0  0  0  0  0  0  0  0
   -5.3840   -5.0725   -2.5417 H   0  0  0  0  0  0  0  0  0  0  0  0
    5.5731    0.2313   -3.7634 H   0  0  0  0  0  0  0  0  0  0  0  0
    5.1156    1.9369   -3.6284 H   0  0  0  0  0  0  0  0  0  0  0  0
    4.0713    0.6756   -2.9475 H   0  0  0  0  0  0  0  0  0  0  0  0
    5.5076    1.9477   -6.1774 H   0  0  0  0  0  0  0  0  0  0  0  0
    5.7385    0.2040   -6.2386 H   0  0  0  0  0  0  0  0  0  0  0  0
   -4.4566   -4.2975   -4.9405 H   0  0  0  0  0  0  0  0  0  0  0  0
   -6.0016   -3.4162   -4.7900 H   0  0  0  0  0  0  0  0  0  0  0  0
   -4.5150   -2.5553   -5.2279 H   0  0  0  0  0  0  0  0  0  0  0  0
    2.6505    1.8576   -8.6986 H   0  0  0  0  0  0  0  0  0  0  0  0
    3.5738    2.9796   -7.7007 H   0  0  0  0  0  0  0  0  0  0  0  0
    3.9043   -0.0584   -7.8283 H   0  0  0  0  0  0  0  0  0  0  0  0
    5.0327    1.1509   -8.4328 H   0  0  0  0  0  0  0  0  0  0  0  0
  2  1  2  0  0  0  0
  3  1  1  0  0  0  0
  4  2  1  0  0  0  0
  4  5  1  0  0  0  0
  5  3  2  0  0  0  0
  6  2  1  0  0  0  0
  7  8  1  0  0  0  0
  7 27  1  0  0  0  0
  8 16  1  0  0  0  0
  9  7  1  0  0  0  0
  9 28  1  0  0  0  0
 10  6  2  0  0  0  0
 10 29  1  0  0  0  0
 11  8  2  0  0  0  0
 12 14  1  0  0  0  0
 13  9  1  0  0  0  0
 13 30  1  0  0  0  0
 14  3  1  0  0  0  0
 14 31  1  0  0  0  0
 14 32  1  0  0  0  0
 15 10  1  0  0  0  0
 16 12  1  0  0  0  0
 16 33  1  0  0  0  0
 16 34  1  0  0  0  0
 17  5  1  0  0  0  0
 17 35  1  0  0  0  0
 17 36  1  0  0  0  0
 17 37  1  0  0  0  0
 18  6  1  0  0  0  0
 18 38  1  0  0  0  0
 19 18  2  0  0  0  0
 19 39  1  0  0  0  0
 20  9  1  0  0  0  0
 20 40  1  0  0  0  0
 20 41  1  0  0  0  0
 21 19  1  0  0  0  0
 21 15  2  0  0  0  0
 21 42  1  0  0  0  0
 22 13  1  0  0  0  0
 22 43  1  0  0  0  0
 22 44  1  0  0  0  0
 22 45  1  0  0  0  0
 23 13  1  0  0  0  0
 23 46  1  0  0  0  0
 23 47  1  0  0  0  0
 24 15  1  0  0  0  0
 24 48  1  0  0  0  0
 24 49  1  0  0  0  0
 24 50  1  0  0  0  0
 25 20  1  0  0  0  0
 25 51  1  0  0  0  0
 25 52  1  0  0  0  0
 26 25  1  0  0  0  0
 26 23  1  0  0  0  0
 26 53  1  0  0  0  0
 26 54  1  0  0  0  0
M  END
>  <Mol_ID>
9219

>  <Formula>
C21H28N2O2S

>  <MolWeight>
372.52422

>  <Cat>
P2657

>  <Name>
WAY-332000

>  <Synonyms>
N/A

>  <Target>
beta-catenin

>  <Form>
free base

>  <CAS>
902168-10-9

>  <URL>
N/A

$$$$
