WAY-605337
 OpenBabel08302521413D

 55 59  0  0  0  0  0  0  0  0999 V2000
    0.0778   -3.7149   -0.6161 C   0  0  0  0  0  0  0  0  0  0  0  0
    2.6233   -4.8337   -0.5847 N   0  0  0  0  0  0  0  0  0  0  0  0
   -1.9459    3.4087    1.9163 C   0  0  0  0  0  0  0  0  0  0  0  0
    2.4678   -3.5196   -0.8402 C   0  0  0  0  0  0  0  0  0  0  0  0
   -2.5293    2.1522    1.5856 N   0  0  0  0  0  0  0  0  0  0  0  0
   -3.3415   -0.6607    1.3160 N   0  0  0  0  0  0  0  0  0  0  0  0
    1.2160   -2.9307   -0.8955 C   0  0  0  0  0  0  0  0  0  0  0  0
   -1.2226   -2.9517   -0.6368 C   0  0  0  0  0  0  0  0  0  0  0  0
   -1.6987    4.4972    0.9758 C   0  0  0  0  0  0  0  0  0  0  0  0
   -3.5717   -2.0351    1.3406 C   0  0  0  0  0  0  0  0  0  0  0  0
    3.7392   -2.8134   -0.9905 C   0  0  0  0  0  0  0  0  0  0  0  0
    0.2262   -5.1111   -0.3373 C   0  0  0  0  0  0  0  0  0  0  0  0
    1.5557   -5.5978   -0.3553 C   0  0  0  0  0  0  0  0  0  0  0  0
   -1.8823    4.4237   -0.3734 O   0  0  0  0  0  0  0  0  0  0  0  0
    3.7126   -1.4669   -1.2336 O   0  0  0  0  0  0  0  0  0  0  0  0
   -2.2353   -3.5844   -0.0089 O   0  0  0  0  0  0  0  0  0  0  0  0
   -2.4484    1.1878    2.6868 C   0  0  0  0  0  0  0  0  0  0  0  0
   -2.6663    1.5605    0.2357 C   0  0  0  0  0  0  0  0  0  0  0  0
   -3.4155    0.0190    2.6002 C   0  0  0  0  0  0  0  0  0  0  0  0
   -3.5305    0.2499    0.1721 C   0  0  0  0  0  0  0  0  0  0  0  0
   -1.6329    3.6022    3.0991 O   0  0  0  0  0  0  0  0  0  0  0  0
   -3.4869   -2.8768    0.0668 C   0  0  0  0  0  0  0  0  0  0  0  0
   -1.2248    5.7682    1.2995 C   0  0  0  0  0  0  0  0  0  0  0  0
    5.0552   -3.2340   -0.8937 C   0  0  0  0  0  0  0  0  0  0  0  0
   -1.3189   -1.8414   -1.1424 O   0  0  0  0  0  0  0  0  0  0  0  0
   -3.7920   -2.6256    2.4068 O   0  0  0  0  0  0  0  0  0  0  0  0
   -1.5212    5.6366   -0.8894 C   0  0  0  0  0  0  0  0  0  0  0  0
    5.0072   -1.0436   -1.2805 C   0  0  0  0  0  0  0  0  0  0  0  0
    5.8711   -2.0933   -1.0747 C   0  0  0  0  0  0  0  0  0  0  0  0
   -1.1139    6.4934    0.0989 C   0  0  0  0  0  0  0  0  0  0  0  0
   -0.7952   -6.0658   -0.0692 C   0  0  0  0  0  0  0  0  0  0  0  0
    1.8135   -6.9410   -0.1220 C   0  0  0  0  0  0  0  0  0  0  0  0
   -0.5105   -7.4141    0.1734 C   0  0  0  0  0  0  0  0  0  0  0  0
    0.8006   -7.8539    0.1419 C   0  0  0  0  0  0  0  0  0  0  0  0
    1.1266   -1.8741   -1.1339 H   0  0  0  0  0  0  0  0  0  0  0  0
   -1.4143    0.8218    2.7097 H   0  0  0  0  0  0  0  0  0  0  0  0
   -2.6441    1.6914    3.6396 H   0  0  0  0  0  0  0  0  0  0  0  0
   -3.0996    2.3013   -0.4435 H   0  0  0  0  0  0  0  0  0  0  0  0
   -1.6554    1.3329   -0.1206 H   0  0  0  0  0  0  0  0  0  0  0  0
   -4.4497    0.3596    2.7306 H   0  0  0  0  0  0  0  0  0  0  0  0
   -3.1897   -0.6663    3.4241 H   0  0  0  0  0  0  0  0  0  0  0  0
   -4.5933    0.5284    0.1949 H   0  0  0  0  0  0  0  0  0  0  0  0
   -3.3707   -0.2668   -0.7760 H   0  0  0  0  0  0  0  0  0  0  0  0
   -3.7221   -2.3320   -0.8480 H   0  0  0  0  0  0  0  0  0  0  0  0
   -4.2676   -3.6461    0.1565 H   0  0  0  0  0  0  0  0  0  0  0  0
   -0.9887    6.1064    2.3002 H   0  0  0  0  0  0  0  0  0  0  0  0
    5.3731   -4.2474   -0.6913 H   0  0  0  0  0  0  0  0  0  0  0  0
   -1.6079    5.7354   -1.9638 H   0  0  0  0  0  0  0  0  0  0  0  0
    5.1532    0.0124   -1.4577 H   0  0  0  0  0  0  0  0  0  0  0  0
    6.9509   -2.0440   -1.0478 H   0  0  0  0  0  0  0  0  0  0  0  0
   -0.7738    7.5172   -0.0255 H   0  0  0  0  0  0  0  0  0  0  0  0
   -1.8439   -5.7857   -0.0424 H   0  0  0  0  0  0  0  0  0  0  0  0
    2.8461   -7.2866   -0.1474 H   0  0  0  0  0  0  0  0  0  0  0  0
   -1.3148   -8.1147    0.3844 H   0  0  0  0  0  0  0  0  0  0  0  0
    1.0417   -8.8987    0.3206 H   0  0  0  0  0  0  0  0  0  0  0  0
  2 13  2  0  0  0  0
  2  4  1  0  0  0  0
  3  5  1  0  0  0  0
  4  7  2  0  0  0  0
  5 18  1  0  0  0  0
  5 17  1  0  0  0  0
  6 10  1  0  0  0  0
  7  1  1  0  0  0  0
  7 35  1  0  0  0  0
  8  1  1  0  0  0  0
  9  3  1  0  0  0  0
 10 22  1  0  0  0  0
 11  4  1  0  0  0  0
 12  1  2  0  0  0  0
 13 12  1  0  0  0  0
 14  9  1  0  0  0  0
 15 11  1  0  0  0  0
 16  8  1  0  0  0  0
 17 19  1  0  0  0  0
 17 36  1  0  0  0  0
 17 37  1  0  0  0  0
 18 20  1  0  0  0  0
 18 38  1  0  0  0  0
 18 39  1  0  0  0  0
 19  6  1  0  0  0  0
 19 40  1  0  0  0  0
 19 41  1  0  0  0  0
 20  6  1  0  0  0  0
 20 42  1  0  0  0  0
 20 43  1  0  0  0  0
 21  3  2  0  0  0  0
 22 16  1  0  0  0  0
 22 44  1  0  0  0  0
 22 45  1  0  0  0  0
 23  9  2  0  0  0  0
 23 46  1  0  0  0  0
 24 11  2  0  0  0  0
 24 47  1  0  0  0  0
 25  8  2  0  0  0  0
 26 10  2  0  0  0  0
 27 14  1  0  0  0  0
 27 30  2  0  0  0  0
 27 48  1  0  0  0  0
 28 15  1  0  0  0  0
 28 29  2  0  0  0  0
 28 49  1  0  0  0  0
 29 24  1  0  0  0  0
 29 50  1  0  0  0  0
 30 23  1  0  0  0  0
 30 51  1  0  0  0  0
 31 12  1  0  0  0  0
 31 52  1  0  0  0  0
 32 13  1  0  0  0  0
 32 53  1  0  0  0  0
 33 31  2  0  0  0  0
 33 54  1  0  0  0  0
 34 33  1  0  0  0  0
 34 32  2  0  0  0  0
 34 55  1  0  0  0  0
M  END
>  <Mol_ID>
8468

>  <Formula>
C25H21N3O6

>  <MolWeight>
459.45074

>  <Cat>
P2850

>  <Name>
WAY-605337

>  <Synonyms>
N/A

>  <Target>
Mcl-1,Bcl-2

>  <Form>
free base

>  <CAS>
485362-61-6

>  <URL>
N/A

$$$$
