WAY-330335
 OpenBabel08302521443D

 50 54  0  0  0  0  0  0  0  0999 V2000
   -3.5270   -0.0015    0.0051 C   0  0  0  0  0  0  0  0  0  0  0  0
   -1.4638   -0.3915    0.6727 C   0  0  0  0  0  0  0  0  0  0  0  0
   -2.7598   -0.7435    0.8645 O   0  0  0  0  0  0  0  0  0  0  0  0
   -4.9532   -0.2720   -0.1046 C   0  0  0  0  0  0  0  0  0  0  0  0
   -0.4456   -1.0226    1.2761 N   0  0  0  0  0  0  0  0  0  0  0  0
   -2.7254    0.9341   -0.6239 C   0  0  0  0  0  0  0  0  0  0  0  0
   -1.3894    0.6612   -0.2296 C   0  0  0  0  0  0  0  0  0  0  0  0
   -5.3728   -1.6004    0.0108 N   0  0  0  0  0  0  0  0  0  0  0  0
   -6.3037   -4.2210    0.6846 N   0  0  0  0  0  0  0  0  0  0  0  0
    0.7643   -0.5373    0.9764 C   0  0  0  0  0  0  0  0  0  0  0  0
    0.9933    0.5494    0.1001 C   0  0  0  0  0  0  0  0  0  0  0  0
   -0.1119    1.1568   -0.5269 C   0  0  0  0  0  0  0  0  0  0  0  0
   -6.7424   -5.4927    0.3846 C   0  0  0  0  0  0  0  0  0  0  0  0
   -6.8043   -1.9226   -0.1099 C   0  0  0  0  0  0  0  0  0  0  0  0
   -4.5039   -2.7749   -0.1582 C   0  0  0  0  0  0  0  0  0  0  0  0
   -5.7590    0.6322   -0.3179 O   0  0  0  0  0  0  0  0  0  0  0  0
   -7.2214   -3.0743    0.8355 C   0  0  0  0  0  0  0  0  0  0  0  0
   -4.8764   -3.8918    0.8213 C   0  0  0  0  0  0  0  0  0  0  0  0
    2.3074    1.0036   -0.1224 C   0  0  0  0  0  0  0  0  0  0  0  0
    1.8650   -1.1360    1.5704 C   0  0  0  0  0  0  0  0  0  0  0  0
   -7.9860   -5.9660    0.8345 C   0  0  0  0  0  0  0  0  0  0  0  0
   -5.9685   -6.3798   -0.3861 C   0  0  0  0  0  0  0  0  0  0  0  0
    3.3979    0.4009    0.5094 C   0  0  0  0  0  0  0  0  0  0  0  0
   -7.6454   -8.0930   -0.2361 C   0  0  0  0  0  0  0  0  0  0  0  0
    3.1719   -0.6807    1.3521 C   0  0  0  0  0  0  0  0  0  0  0  0
   -6.4121   -7.6696   -0.6970 C   0  0  0  0  0  0  0  0  0  0  0  0
   -8.4392   -7.2534    0.5292 C   0  0  0  0  0  0  0  0  0  0  0  0
   -8.0766   -9.3269   -0.5329 F   0  0  0  0  0  0  0  0  0  0  0  0
    4.6150    0.9570    0.2296 O   0  0  0  0  0  0  0  0  0  0  0  0
    5.7483    0.3791    0.8694 C   0  0  0  0  0  0  0  0  0  0  0  0
   -3.0724    1.6764   -1.3310 H   0  0  0  0  0  0  0  0  0  0  0  0
    0.0126    1.9812   -1.2219 H   0  0  0  0  0  0  0  0  0  0  0  0
   -7.4307   -1.0437    0.0741 H   0  0  0  0  0  0  0  0  0  0  0  0
   -6.9689   -2.2300   -1.1514 H   0  0  0  0  0  0  0  0  0  0  0  0
   -4.6415   -3.1122   -1.1934 H   0  0  0  0  0  0  0  0  0  0  0  0
   -3.4455   -2.5557   -0.0613 H   0  0  0  0  0  0  0  0  0  0  0  0
   -7.1823   -2.7289    1.8759 H   0  0  0  0  0  0  0  0  0  0  0  0
   -8.2613   -3.3341    0.6114 H   0  0  0  0  0  0  0  0  0  0  0  0
   -4.6961   -3.5552    1.8504 H   0  0  0  0  0  0  0  0  0  0  0  0
   -4.2133   -4.7475    0.6635 H   0  0  0  0  0  0  0  0  0  0  0  0
    2.4907    1.8465   -0.7867 H   0  0  0  0  0  0  0  0  0  0  0  0
    1.7067   -1.9818    2.2367 H   0  0  0  0  0  0  0  0  0  0  0  0
   -8.6145   -5.3444    1.4665 H   0  0  0  0  0  0  0  0  0  0  0  0
   -5.0101   -6.0708   -0.7927 H   0  0  0  0  0  0  0  0  0  0  0  0
    3.9795   -1.1921    1.8641 H   0  0  0  0  0  0  0  0  0  0  0  0
   -5.7999   -8.3323   -1.2995 H   0  0  0  0  0  0  0  0  0  0  0  0
   -9.4000   -7.6023    0.8914 H   0  0  0  0  0  0  0  0  0  0  0  0
    5.6662    0.4419    1.9599 H   0  0  0  0  0  0  0  0  0  0  0  0
    5.8954   -0.6561    0.5439 H   0  0  0  0  0  0  0  0  0  0  0  0
    6.6325    0.9511    0.5713 H   0  0  0  0  0  0  0  0  0  0  0  0
  2  3  1  0  0  0  0
  2  7  2  0  0  0  0
  3  1  1  0  0  0  0
  4  1  1  0  0  0  0
  5  2  1  0  0  0  0
  6  1  2  0  0  0  0
  6 31  1  0  0  0  0
  7  6  1  0  0  0  0
  8  4  1  0  0  0  0
  9 18  1  0  0  0  0
  9 17  1  0  0  0  0
 10  5  2  0  0  0  0
 10 11  1  0  0  0  0
 11 12  2  0  0  0  0
 12  7  1  0  0  0  0
 12 32  1  0  0  0  0
 13  9  1  0  0  0  0
 14  8  1  0  0  0  0
 14 33  1  0  0  0  0
 14 34  1  0  0  0  0
 15  8  1  0  0  0  0
 15 35  1  0  0  0  0
 15 36  1  0  0  0  0
 16  4  2  0  0  0  0
 17 14  1  0  0  0  0
 17 37  1  0  0  0  0
 17 38  1  0  0  0  0
 18 15  1  0  0  0  0
 18 39  1  0  0  0  0
 18 40  1  0  0  0  0
 19 11  1  0  0  0  0
 19 41  1  0  0  0  0
 20 10  1  0  0  0  0
 20 42  1  0  0  0  0
 21 13  2  0  0  0  0
 21 43  1  0  0  0  0
 22 13  1  0  0  0  0
 22 44  1  0  0  0  0
 23 19  2  0  0  0  0
 24 26  1  0  0  0  0
 25 20  2  0  0  0  0
 25 23  1  0  0  0  0
 25 45  1  0  0  0  0
 26 22  2  0  0  0  0
 26 46  1  0  0  0  0
 27 21  1  0  0  0  0
 27 24  2  0  0  0  0
 27 47  1  0  0  0  0
 28 24  1  0  0  0  0
 29 23  1  0  0  0  0
 30 29  1  0  0  0  0
 30 48  1  0  0  0  0
 30 49  1  0  0  0  0
 30 50  1  0  0  0  0
M  END
>  <Mol_ID>
9181

>  <Formula>
C23H20FN3O3

>  <MolWeight>
405.4216032

>  <Cat>
P2608

>  <Name>
WAY-330335

>  <Synonyms>
N/A

>  <Target>
Anti-infection

>  <Form>
free base

>  <CAS>
901032-23-3

>  <URL>
N/A

$$$$
