WAY-326813
 OpenBabel08302521433D

 54 57  0  0  0  0  0  0  0  0999 V2000
   -1.9581   -1.4513    0.0437 C   0  0  0  0  0  0  0  0  0  0  0  0
    3.3643    3.2864    0.5080 C   0  0  0  0  0  0  0  0  0  0  0  0
   -0.6593   -1.8210    0.0161 N   0  0  0  0  0  0  0  0  0  0  0  0
    4.5792    4.1387    0.4365 C   0  0  0  0  0  0  0  0  0  0  0  0
   -2.9343   -2.4159   -0.0251 N   0  0  0  0  0  0  0  0  0  0  0  0
    0.3030   -0.8799    0.0337 C   0  0  0  0  0  0  0  0  0  0  0  0
    0.0134    0.4970    0.0549 C   0  0  0  0  0  0  0  0  0  0  0  0
    3.4790    1.9506    0.1484 N   0  0  0  0  0  0  0  0  0  0  0  0
   -1.3373    0.8868    0.0502 C   0  0  0  0  0  0  0  0  0  0  0  0
   -2.3127   -0.1076    0.0532 C   0  0  0  0  0  0  0  0  0  0  0  0
   -5.1463   -4.1497   -0.8219 N   0  0  0  0  0  0  0  0  0  0  0  0
    5.8359    3.6685    0.0579 C   0  0  0  0  0  0  0  0  0  0  0  0
    2.4087    1.0280    0.0884 C   0  0  0  0  0  0  0  0  0  0  0  0
    1.0724    1.4265    0.0744 C   0  0  0  0  0  0  0  0  0  0  0  0
    2.3333    3.8219    0.9105 O   0  0  0  0  0  0  0  0  0  0  0  0
   -2.6272   -3.7142   -0.6188 C   0  0  0  0  0  0  0  0  0  0  0  0
   -4.1884   -2.3397    0.7243 C   0  0  0  0  0  0  0  0  0  0  0  0
    1.6398   -1.2659    0.0164 C   0  0  0  0  0  0  0  0  0  0  0  0
   -5.3553   -2.8267   -0.1720 C   0  0  0  0  0  0  0  0  0  0  0  0
   -3.8274   -4.1238   -1.5100 C   0  0  0  0  0  0  0  0  0  0  0  0
    2.6895   -0.3334    0.0306 C   0  0  0  0  0  0  0  0  0  0  0  0
    6.0270    2.3751   -0.2476 F   0  0  0  0  0  0  0  0  0  0  0  0
    4.4410    5.5012    0.7566 C   0  0  0  0  0  0  0  0  0  0  0  0
   -5.2620   -5.2301    0.1683 C   0  0  0  0  0  0  0  0  0  0  0  0
   -1.7722    2.3258    0.0203 C   0  0  0  0  0  0  0  0  0  0  0  0
    6.9296    4.5316   -0.0111 C   0  0  0  0  0  0  0  0  0  0  0  0
   -5.1205   -6.6234   -0.4331 C   0  0  0  0  0  0  0  0  0  0  0  0
    5.5299    6.3689    0.6895 C   0  0  0  0  0  0  0  0  0  0  0  0
    6.7773    5.8828    0.3019 C   0  0  0  0  0  0  0  0  0  0  0  0
    4.4099    1.5797   -0.0115 H   0  0  0  0  0  0  0  0  0  0  0  0
   -3.3580    0.1767    0.0004 H   0  0  0  0  0  0  0  0  0  0  0  0
    0.8249    2.4819    0.0600 H   0  0  0  0  0  0  0  0  0  0  0  0
   -1.7349   -3.6830   -1.2548 H   0  0  0  0  0  0  0  0  0  0  0  0
   -2.4487   -4.4590    0.1649 H   0  0  0  0  0  0  0  0  0  0  0  0
   -4.1111   -2.9651    1.6220 H   0  0  0  0  0  0  0  0  0  0  0  0
   -4.4198   -1.3305    1.0794 H   0  0  0  0  0  0  0  0  0  0  0  0
    1.8713   -2.3286   -0.0007 H   0  0  0  0  0  0  0  0  0  0  0  0
   -5.5055   -2.0854   -0.9691 H   0  0  0  0  0  0  0  0  0  0  0  0
   -6.2875   -2.8301    0.4055 H   0  0  0  0  0  0  0  0  0  0  0  0
   -3.9049   -3.3941   -2.3292 H   0  0  0  0  0  0  0  0  0  0  0  0
   -3.6209   -5.0768   -2.0060 H   0  0  0  0  0  0  0  0  0  0  0  0
    3.7129   -0.6975    0.0264 H   0  0  0  0  0  0  0  0  0  0  0  0
    3.4700    5.8965    1.0595 H   0  0  0  0  0  0  0  0  0  0  0  0
   -4.5398   -5.1230    0.9849 H   0  0  0  0  0  0  0  0  0  0  0  0
   -6.2601   -5.1755    0.6220 H   0  0  0  0  0  0  0  0  0  0  0  0
   -1.4150    2.8523    0.9107 H   0  0  0  0  0  0  0  0  0  0  0  0
   -1.3930    2.8184   -0.8806 H   0  0  0  0  0  0  0  0  0  0  0  0
   -2.8639    2.4154    0.0033 H   0  0  0  0  0  0  0  0  0  0  0  0
    7.9005    4.1447   -0.3112 H   0  0  0  0  0  0  0  0  0  0  0  0
   -5.8208   -6.7710   -1.2617 H   0  0  0  0  0  0  0  0  0  0  0  0
   -4.1051   -6.8104   -0.7949 H   0  0  0  0  0  0  0  0  0  0  0  0
   -5.3343   -7.3794    0.3293 H   0  0  0  0  0  0  0  0  0  0  0  0
    5.4016    7.4200    0.9380 H   0  0  0  0  0  0  0  0  0  0  0  0
    7.6267    6.5590    0.2457 H   0  0  0  0  0  0  0  0  0  0  0  0
  2  8  1  0  0  0  0
  3  1  2  0  0  0  0
  4  2  1  0  0  0  0
  5  1  1  0  0  0  0
  6  3  1  0  0  0  0
  6  7  2  0  0  0  0
  7  9  1  0  0  0  0
  8 13  1  0  0  0  0
  8 30  1  0  0  0  0
  9 10  2  0  0  0  0
 10  1  1  0  0  0  0
 10 31  1  0  0  0  0
 11 19  1  0  0  0  0
 11 20  1  0  0  0  0
 12  4  2  0  0  0  0
 13 14  2  0  0  0  0
 14  7  1  0  0  0  0
 14 32  1  0  0  0  0
 15  2  2  0  0  0  0
 16  5  1  0  0  0  0
 16 33  1  0  0  0  0
 16 34  1  0  0  0  0
 17  5  1  0  0  0  0
 17 35  1  0  0  0  0
 17 36  1  0  0  0  0
 18  6  1  0  0  0  0
 18 37  1  0  0  0  0
 19 17  1  0  0  0  0
 19 38  1  0  0  0  0
 19 39  1  0  0  0  0
 20 16  1  0  0  0  0
 20 40  1  0  0  0  0
 20 41  1  0  0  0  0
 21 18  2  0  0  0  0
 21 13  1  0  0  0  0
 21 42  1  0  0  0  0
 22 12  1  0  0  0  0
 23  4  1  0  0  0  0
 23 43  1  0  0  0  0
 24 11  1  0  0  0  0
 24 44  1  0  0  0  0
 24 45  1  0  0  0  0
 25  9  1  0  0  0  0
 25 46  1  0  0  0  0
 25 47  1  0  0  0  0
 25 48  1  0  0  0  0
 26 12  1  0  0  0  0
 26 49  1  0  0  0  0
 27 24  1  0  0  0  0
 27 50  1  0  0  0  0
 27 51  1  0  0  0  0
 27 52  1  0  0  0  0
 28 23  2  0  0  0  0
 28 53  1  0  0  0  0
 29 28  1  0  0  0  0
 29 26  2  0  0  0  0
 29 54  1  0  0  0  0
M  END
>  <Mol_ID>
8940

>  <Formula>
C23H25FN4O

>  <MolWeight>
392.4692032

>  <Cat>
P2499

>  <Name>
WAY-326813

>  <Synonyms>
N/A

>  <Target>
Hsp90

>  <Form>
free base

>  <CAS>
442898-49-9

>  <URL>
N/A

$$$$
