WAY-660965
 OpenBabel08302521443D

 48 50  0  0  0  0  0  0  0  0999 V2000
    4.3372    4.3910    1.8341 C   0  0  0  0  0  0  0  0  0  0  0  0
    3.0424    4.1930    1.4551 C   0  0  0  0  0  0  0  0  0  0  0  0
    4.6774    5.3386    2.7641 N   0  0  0  0  0  0  0  0  0  0  0  0
    2.3466    5.8640    2.9503 N   0  0  0  0  0  0  0  0  0  0  0  0
    3.6748    6.1051    3.3675 C   0  0  0  0  0  0  0  0  0  0  0  0
    1.9619    4.9564    1.9627 C   0  0  0  0  0  0  0  0  0  0  0  0
    5.1849    3.5487    1.1799 N   0  0  0  0  0  0  0  0  0  0  0  0
    3.0872    3.1685    0.5529 N   0  0  0  0  0  0  0  0  0  0  0  0
    4.4049    2.8241    0.4036 C   0  0  0  0  0  0  0  0  0  0  0  0
    0.3746    5.0845   -2.3735 C   0  0  0  0  0  0  0  0  0  0  0  0
    0.7465    4.2289   -1.3522 N   0  0  0  0  0  0  0  0  0  0  0  0
    1.6398    3.1718   -1.4143 C   0  0  0  0  0  0  0  0  0  0  0  0
    0.8318    4.7299   -3.6143 N   0  0  0  0  0  0  0  0  0  0  0  0
    1.9598    2.5265   -0.0885 C   0  0  0  0  0  0  0  0  0  0  0  0
    0.5661    5.4016   -4.8194 C   0  0  0  0  0  0  0  0  0  0  0  0
    3.9350    6.9550    4.2238 O   0  0  0  0  0  0  0  0  0  0  0  0
    0.8151    4.8226    1.5355 O   0  0  0  0  0  0  0  0  0  0  0  0
    0.2616    4.6478   -5.9682 C   0  0  0  0  0  0  0  0  0  0  0  0
   -0.3388    6.0499   -2.1176 O   0  0  0  0  0  0  0  0  0  0  0  0
    2.1334    2.7513   -2.4609 O   0  0  0  0  0  0  0  0  0  0  0  0
    0.1800    5.2985   -7.2071 C   0  0  0  0  0  0  0  0  0  0  0  0
    6.0709    5.5269    3.1312 C   0  0  0  0  0  0  0  0  0  0  0  0
    1.2828    6.6361    3.5589 C   0  0  0  0  0  0  0  0  0  0  0  0
    0.6965    6.7878   -4.9108 C   0  0  0  0  0  0  0  0  0  0  0  0
    0.3729    6.6805   -7.3168 C   0  0  0  0  0  0  0  0  0  0  0  0
    0.6115    7.4232   -6.1550 C   0  0  0  0  0  0  0  0  0  0  0  0
   -0.0655    3.1805   -5.9151 C   0  0  0  0  0  0  0  0  0  0  0  0
    0.3309    7.3567   -8.6543 C   0  0  0  0  0  0  0  0  0  0  0  0
    4.7381    2.0461   -0.2731 H   0  0  0  0  0  0  0  0  0  0  0  0
    0.3831    4.5230   -0.4481 H   0  0  0  0  0  0  0  0  0  0  0  0
    1.1964    3.7848   -3.6889 H   0  0  0  0  0  0  0  0  0  0  0  0
    2.2154    1.4739   -0.2546 H   0  0  0  0  0  0  0  0  0  0  0  0
    1.0972    2.5426    0.5836 H   0  0  0  0  0  0  0  0  0  0  0  0
   -0.0471    4.7158   -8.0995 H   0  0  0  0  0  0  0  0  0  0  0  0
    6.4656    4.5883    3.5316 H   0  0  0  0  0  0  0  0  0  0  0  0
    6.6372    5.8125    2.2391 H   0  0  0  0  0  0  0  0  0  0  0  0
    6.1940    6.3085    3.8861 H   0  0  0  0  0  0  0  0  0  0  0  0
    0.7451    7.1832    2.7776 H   0  0  0  0  0  0  0  0  0  0  0  0
    0.5804    5.9452    4.0379 H   0  0  0  0  0  0  0  0  0  0  0  0
    1.6434    7.3466    4.3070 H   0  0  0  0  0  0  0  0  0  0  0  0
    0.9288    7.3842   -4.0310 H   0  0  0  0  0  0  0  0  0  0  0  0
    0.7557    8.4995   -6.2146 H   0  0  0  0  0  0  0  0  0  0  0  0
   -1.0236    3.0015   -6.4187 H   0  0  0  0  0  0  0  0  0  0  0  0
    0.7192    2.5958   -6.4103 H   0  0  0  0  0  0  0  0  0  0  0  0
   -0.1875    2.8044   -4.8966 H   0  0  0  0  0  0  0  0  0  0  0  0
   -0.4603    8.1118   -8.6749 H   0  0  0  0  0  0  0  0  0  0  0  0
    1.2938    7.8335   -8.8641 H   0  0  0  0  0  0  0  0  0  0  0  0
    0.1335    6.6404   -9.4595 H   0  0  0  0  0  0  0  0  0  0  0  0
  2  1  2  0  0  0  0
  3  1  1  0  0  0  0
  4  5  1  0  0  0  0
  4  6  1  0  0  0  0
  5  3  1  0  0  0  0
  6  2  1  0  0  0  0
  7  1  1  0  0  0  0
  8  2  1  0  0  0  0
  9  7  2  0  0  0  0
  9  8  1  0  0  0  0
  9 29  1  0  0  0  0
 10 11  1  0  0  0  0
 11 12  1  0  0  0  0
 11 30  1  0  0  0  0
 12 14  1  0  0  0  0
 13 10  1  0  0  0  0
 13 31  1  0  0  0  0
 14  8  1  0  0  0  0
 14 32  1  0  0  0  0
 14 33  1  0  0  0  0
 15 13  1  0  0  0  0
 16  5  2  0  0  0  0
 17  6  2  0  0  0  0
 18 15  2  0  0  0  0
 19 10  2  0  0  0  0
 20 12  2  0  0  0  0
 21 18  1  0  0  0  0
 21 34  1  0  0  0  0
 22  3  1  0  0  0  0
 22 35  1  0  0  0  0
 22 36  1  0  0  0  0
 22 37  1  0  0  0  0
 23  4  1  0  0  0  0
 23 38  1  0  0  0  0
 23 39  1  0  0  0  0
 23 40  1  0  0  0  0
 24 15  1  0  0  0  0
 24 41  1  0  0  0  0
 25 26  1  0  0  0  0
 25 21  2  0  0  0  0
 26 24  2  0  0  0  0
 26 42  1  0  0  0  0
 27 18  1  0  0  0  0
 27 43  1  0  0  0  0
 27 44  1  0  0  0  0
 27 45  1  0  0  0  0
 28 25  1  0  0  0  0
 28 46  1  0  0  0  0
 28 47  1  0  0  0  0
 28 48  1  0  0  0  0
M  END
>  <Mol_ID>
9125

>  <Formula>
C18H20N6O4

>  <MolWeight>
384.3892

>  <Cat>
P3206

>  <Name>
WAY-660965

>  <Synonyms>
N/A

>  <Target>
TRPA1

>  <Form>
free base

>  <CAS>
872211-87-5

>  <URL>
N/A

$$$$
