WAY-637221-A
 OpenBabel08302521423D

 24 25  0  0  0  0  0  0  0  0999 V2000
   -0.2132    2.8385   -1.2845 C   0  0  0  0  0  0  0  0  0  0  0  0
   -0.7740    2.4355    0.0329 C   0  0  0  0  0  0  0  0  0  0  0  0
    0.6831    3.7834   -1.4884 N   0  0  0  0  0  0  0  0  0  0  0  0
   -2.2759    2.6197    0.0606 C   0  0  0  0  0  0  0  0  0  0  0  0
   -0.5946    2.2644   -2.4738 N   0  0  0  0  0  0  0  0  0  0  0  0
    0.8724    3.8331   -2.8439 C   0  0  0  0  0  0  0  0  0  0  0  0
    0.0839    2.9025   -3.4758 C   0  0  0  0  0  0  0  0  0  0  0  0
   -3.0187    1.6358    0.1174 O   0  0  0  0  0  0  0  0  0  0  0  0
   -2.8798    3.9896   -0.0040 C   0  0  0  0  0  0  0  0  0  0  0  0
   -2.1110    5.1570   -0.0874 C   0  0  0  0  0  0  0  0  0  0  0  0
   -4.2781    4.0950   -0.0190 C   0  0  0  0  0  0  0  0  0  0  0  0
   -4.8960    5.3424   -0.1476 C   0  0  0  0  0  0  0  0  0  0  0  0
   -2.7316    6.4005   -0.2282 C   0  0  0  0  0  0  0  0  0  0  0  0
   -4.1211    6.4932   -0.2634 C   0  0  0  0  0  0  0  0  0  0  0  0
   -0.5497    1.3773    0.2149 H   0  0  0  0  0  0  0  0  0  0  0  0
   -0.3215    2.9982    0.8561 H   0  0  0  0  0  0  0  0  0  0  0  0
   -1.2735    1.5218   -2.5835 H   0  0  0  0  0  0  0  0  0  0  0  0
    1.5596    4.5393   -3.2903 H   0  0  0  0  0  0  0  0  0  0  0  0
   -0.0473    2.6467   -4.5176 H   0  0  0  0  0  0  0  0  0  0  0  0
   -1.0261    5.1350   -0.0682 H   0  0  0  0  0  0  0  0  0  0  0  0
   -4.8991    3.2045    0.0601 H   0  0  0  0  0  0  0  0  0  0  0  0
   -5.9806    5.4103   -0.1670 H   0  0  0  0  0  0  0  0  0  0  0  0
   -2.1243    7.2985   -0.3223 H   0  0  0  0  0  0  0  0  0  0  0  0
   -4.5991    7.4620   -0.3814 H   0  0  0  0  0  0  0  0  0  0  0  0
  2  1  1  0  0  0  0
  2 15  1  0  0  0  0
  2 16  1  0  0  0  0
  3  1  2  0  0  0  0
  4  2  1  0  0  0  0
  5  1  1  0  0  0  0
  5 17  1  0  0  0  0
  6  3  1  0  0  0  0
  6 18  1  0  0  0  0
  7  5  1  0  0  0  0
  7  6  2  0  0  0  0
  7 19  1  0  0  0  0
  8  4  2  0  0  0  0
  9  4  1  0  0  0  0
 10  9  2  0  0  0  0
 10 20  1  0  0  0  0
 11  9  1  0  0  0  0
 11 21  1  0  0  0  0
 12 11  2  0  0  0  0
 12 14  1  0  0  0  0
 12 22  1  0  0  0  0
 13 10  1  0  0  0  0
 13 23  1  0  0  0  0
 14 13  2  0  0  0  0
 14 24  1  0  0  0  0
M  END
>  <Mol_ID>
8483

>  <Formula>
C11H10N2O

>  <MolWeight>
186.2099

>  <Cat>
P3009

>  <Name>
WAY-637221-A

>  <Synonyms>
N/A

>  <Target>
p38

>  <Form>
free base

>  <CAS>
52855-74-0

>  <URL>
N/A

$$$$
