WAY-332468
 OpenBabel08302521453D

 61 64  0  0  0  0  0  0  0  0999 V2000
    0.8974   -0.3176    0.0195 S   0  0  0  0  0  0  0  0  0  0  0  0
    0.6809    0.4484   -1.4545 N   0  0  0  0  0  0  0  0  0  0  0  0
    0.8865    1.9040   -1.7093 C   0  0  3  0  0  0  0  0  0  0  0  0
    2.3858    2.3726   -1.7402 C   0  0  0  0  0  0  0  0  0  0  0  0
    3.3675    1.4107   -1.5974 N   0  0  0  0  0  0  0  0  0  0  0  0
    4.5241    1.6284   -0.7787 C   0  0  0  0  0  0  0  0  0  0  0  0
   -3.3785    1.1844    3.8677 N   0  0  0  0  0  0  0  0  0  0  0  0
   -0.3991    0.2384    1.0960 C   0  0  0  0  0  0  0  0  0  0  0  0
   -2.3772    0.8816    2.9441 C   0  0  0  0  0  0  0  0  0  0  0  0
    4.4012    1.9545    0.5894 C   0  0  0  0  0  0  0  0  0  0  0  0
    5.7702    1.1835   -1.2660 C   0  0  0  0  0  0  0  0  0  0  0  0
   -3.6299    2.4430    4.3414 C   0  0  0  0  0  0  0  0  0  0  0  0
   -1.4112    1.8400    2.6111 C   0  0  0  0  0  0  0  0  0  0  0  0
    2.1434    0.0844    0.5878 O   0  0  0  0  0  0  0  0  0  0  0  0
    0.6494   -1.7062   -0.2736 O   0  0  0  0  0  0  0  0  0  0  0  0
   -0.3937    1.5036    1.7004 C   0  0  0  0  0  0  0  0  0  0  0  0
    2.6788    3.5695   -1.8352 O   0  0  0  0  0  0  0  0  0  0  0  0
    5.4423    1.6115    1.4700 C   0  0  0  0  0  0  0  0  0  0  0  0
    6.8121    0.8952   -0.3609 C   0  0  0  0  0  0  0  0  0  0  0  0
    0.0493    2.3509   -2.9411 C   0  0  0  0  0  0  0  0  0  0  0  0
   -1.3607   -0.7094    1.4580 C   0  0  0  0  0  0  0  0  0  0  0  0
    6.6338    1.0541    1.0148 C   0  0  0  0  0  0  0  0  0  0  0  0
   -2.3440   -0.3919    2.3874 C   0  0  0  0  0  0  0  0  0  0  0  0
   -4.5056    2.6387    5.1799 O   0  0  0  0  0  0  0  0  0  0  0  0
   -1.4389    3.1604    3.3409 C   0  0  0  0  0  0  0  0  0  0  0  0
   -2.8703    3.5662    3.6746 C   0  0  0  0  0  0  0  0  0  0  0  0
    6.0271    1.0226   -2.7406 C   0  0  0  0  0  0  0  0  0  0  0  0
    3.2275    2.6263    1.2386 C   0  0  0  0  0  0  0  0  0  0  0  0
   -1.2797    1.8920   -3.1021 C   0  0  0  0  0  0  0  0  0  0  0  0
    0.5186    3.2575   -3.9088 C   0  0  0  0  0  0  0  0  0  0  0  0
    7.6582    0.5865    2.0047 C   0  0  0  0  0  0  0  0  0  0  0  0
   -0.2662    3.6305   -5.0099 C   0  0  0  0  0  0  0  0  0  0  0  0
   -2.0536    2.2424   -4.2167 C   0  0  0  0  0  0  0  0  0  0  0  0
   -1.5423    3.1056   -5.1772 C   0  0  0  0  0  0  0  0  0  0  0  0
   -0.1214    0.0430   -1.9270 H   0  0  0  0  0  0  0  0  0  0  0  0
    0.4475    2.4535   -0.8688 H   0  0  0  0  0  0  0  0  0  0  0  0
    3.0013    0.4717   -1.4508 H   0  0  0  0  0  0  0  0  0  0  0  0
   -3.9848    0.4545    4.2211 H   0  0  0  0  0  0  0  0  0  0  0  0
    0.3967    2.2191    1.4974 H   0  0  0  0  0  0  0  0  0  0  0  0
    5.2927    1.7532    2.5395 H   0  0  0  0  0  0  0  0  0  0  0  0
    7.7641    0.5205   -0.7329 H   0  0  0  0  0  0  0  0  0  0  0  0
   -1.3325   -1.7185    1.0506 H   0  0  0  0  0  0  0  0  0  0  0  0
   -3.0719   -1.1458    2.6655 H   0  0  0  0  0  0  0  0  0  0  0  0
   -0.9739    3.9480    2.7375 H   0  0  0  0  0  0  0  0  0  0  0  0
   -0.8577    3.0579    4.2661 H   0  0  0  0  0  0  0  0  0  0  0  0
   -3.4191    3.8342    2.7633 H   0  0  0  0  0  0  0  0  0  0  0  0
   -2.8699    4.4359    4.3403 H   0  0  0  0  0  0  0  0  0  0  0  0
    7.0964    1.1326   -2.9607 H   0  0  0  0  0  0  0  0  0  0  0  0
    5.6944    0.0439   -3.0931 H   0  0  0  0  0  0  0  0  0  0  0  0
    5.5185    1.8109   -3.3067 H   0  0  0  0  0  0  0  0  0  0  0  0
    2.8419    2.0211    2.0646 H   0  0  0  0  0  0  0  0  0  0  0  0
    3.5490    3.5908    1.6445 H   0  0  0  0  0  0  0  0  0  0  0  0
    2.3978    2.8320    0.5724 H   0  0  0  0  0  0  0  0  0  0  0  0
   -1.7495    1.2498   -2.3611 H   0  0  0  0  0  0  0  0  0  0  0  0
    1.5019    3.7172   -3.8375 H   0  0  0  0  0  0  0  0  0  0  0  0
    7.5677   -0.4957    2.1475 H   0  0  0  0  0  0  0  0  0  0  0  0
    8.6704    0.8251    1.6681 H   0  0  0  0  0  0  0  0  0  0  0  0
    7.5121    1.0678    2.9787 H   0  0  0  0  0  0  0  0  0  0  0  0
    0.1265    4.3372   -5.7382 H   0  0  0  0  0  0  0  0  0  0  0  0
   -3.0596    1.8446   -4.3323 H   0  0  0  0  0  0  0  0  0  0  0  0
   -2.1381    3.3805   -6.0439 H   0  0  0  0  0  0  0  0  0  0  0  0
  2  1  1  0  0  0  0
  2 35  1  0  0  0  0
  3  2  1  0  0  0  0
  3 36  1  0  0  0  0
  4  3  1  0  0  0  0
  5  4  1  0  0  0  0
  5 37  1  0  0  0  0
  6  5  1  0  0  0  0
  7  9  1  0  0  0  0
  7 38  1  0  0  0  0
  8  1  1  0  0  0  0
  9 23  1  0  0  0  0
  9 13  2  0  0  0  0
 10  6  2  0  0  0  0
 11  6  1  0  0  0  0
 12  7  1  0  0  0  0
 13 16  1  0  0  0  0
 14  1  2  0  0  0  0
 15  1  2  0  0  0  0
 16  8  2  0  0  0  0
 16 39  1  0  0  0  0
 17  4  2  0  0  0  0
 18 10  1  0  0  0  0
 18 22  2  0  0  0  0
 18 40  1  0  0  0  0
 19 11  2  0  0  0  0
 19 41  1  0  0  0  0
 20  3  1  0  0  0  0
 21  8  1  0  0  0  0
 21 42  1  0  0  0  0
 22 19  1  0  0  0  0
 23 21  2  0  0  0  0
 23 43  1  0  0  0  0
 24 12  2  0  0  0  0
 25 13  1  0  0  0  0
 25 44  1  0  0  0  0
 25 45  1  0  0  0  0
 26 25  1  0  0  0  0
 26 12  1  0  0  0  0
 26 46  1  0  0  0  0
 26 47  1  0  0  0  0
 27 11  1  0  0  0  0
 27 48  1  0  0  0  0
 27 49  1  0  0  0  0
 27 50  1  0  0  0  0
 28 10  1  0  0  0  0
 28 51  1  0  0  0  0
 28 52  1  0  0  0  0
 28 53  1  0  0  0  0
 29 20  2  0  0  0  0
 29 54  1  0  0  0  0
 30 20  1  0  0  0  0
 30 55  1  0  0  0  0
 31 22  1  0  0  0  0
 31 56  1  0  0  0  0
 31 57  1  0  0  0  0
 31 58  1  0  0  0  0
 32 30  2  0  0  0  0
 32 59  1  0  0  0  0
 33 29  1  0  0  0  0
 33 60  1  0  0  0  0
 34 32  1  0  0  0  0
 34 33  2  0  0  0  0
 34 61  1  0  0  0  0
M  END
>  <Mol_ID>
9318

>  <Formula>
C26H27N3O4S

>  <MolWeight>
477.57528

>  <Cat>
P2727

>  <Name>
WAY-332468

>  <Synonyms>
N/A

>  <Target>
O-GIcNAc transferase

>  <Form>
free base

>  <CAS>
957041-45-1

>  <URL>
N/A

$$$$
