WAY-604429
 OpenBabel08302521393D

 51 55  0  0  0  0  0  0  0  0999 V2000
    3.8741    7.3249   -1.4703 N   0  0  0  0  0  0  0  0  0  0  0  0
    3.1033    0.8762   -4.9070 C   0  0  0  0  0  0  0  0  0  0  0  0
    2.4798    2.0794   -4.9028 N   0  0  0  0  0  0  0  0  0  0  0  0
    4.0926    0.6312   -3.9448 C   0  0  0  0  0  0  0  0  0  0  0  0
    4.3593    1.5372   -2.9594 N   0  0  0  0  0  0  0  0  0  0  0  0
    3.6687    2.6865   -2.9850 C   0  0  0  0  0  0  0  0  0  0  0  0
    4.0525    8.5051   -0.7193 C   0  0  0  0  0  0  0  0  0  0  0  0
    2.9241    6.3409   -1.2208 C   0  0  0  0  0  0  0  0  0  0  0  0
    2.7720    2.9929   -3.9385 N   0  0  0  0  0  0  0  0  0  0  0  0
    4.8156    7.3679   -2.6037 C   0  0  0  0  0  0  0  0  0  0  0  0
    3.9788    3.8545   -1.6861 S   0  0  0  0  0  0  0  0  0  0  0  0
    5.1493    9.2200   -1.2063 C   0  0  0  0  0  0  0  0  0  0  0  0
    2.8593    5.1941   -2.2118 C   0  0  0  0  0  0  0  0  0  0  0  0
    2.6045   -0.0485   -5.9471 C   0  0  0  0  0  0  0  0  0  0  0  0
    4.9588   -0.5764   -3.8851 C   0  0  0  0  0  0  0  0  0  0  0  0
    2.1513    6.3542   -0.2589 O   0  0  0  0  0  0  0  0  0  0  0  0
    5.8271    8.4804   -2.3136 C   0  0  0  0  0  0  0  0  0  0  0  0
    3.3160    8.9873    0.3489 C   0  0  0  0  0  0  0  0  0  0  0  0
    5.5407   10.4221   -0.6362 C   0  0  0  0  0  0  0  0  0  0  0  0
    2.2600    0.4298   -7.2268 C   0  0  0  0  0  0  0  0  0  0  0  0
    2.4267   -1.4246   -5.7091 C   0  0  0  0  0  0  0  0  0  0  0  0
    5.4641   -1.1988   -5.0437 C   0  0  0  0  0  0  0  0  0  0  0  0
    5.3171   -1.1494   -2.6477 C   0  0  0  0  0  0  0  0  0  0  0  0
    3.6930   10.2057    0.9246 C   0  0  0  0  0  0  0  0  0  0  0  0
    4.7983   10.9177    0.4355 C   0  0  0  0  0  0  0  0  0  0  0  0
    6.0965   -2.3094   -2.5772 C   0  0  0  0  0  0  0  0  0  0  0  0
    6.2078   -2.3813   -4.9776 C   0  0  0  0  0  0  0  0  0  0  0  0
    2.0114   -2.2929   -6.7220 C   0  0  0  0  0  0  0  0  0  0  0  0
    1.8067   -0.4310   -8.2312 C   0  0  0  0  0  0  0  0  0  0  0  0
    6.5237   -2.9363   -3.7434 C   0  0  0  0  0  0  0  0  0  0  0  0
    1.7011   -1.7958   -7.9829 C   0  0  0  0  0  0  0  0  0  0  0  0
    5.3067    6.4014   -2.7484 H   0  0  0  0  0  0  0  0  0  0  0  0
    4.2331    7.5969   -3.5047 H   0  0  0  0  0  0  0  0  0  0  0  0
    1.8233    4.8331   -2.2290 H   0  0  0  0  0  0  0  0  0  0  0  0
    3.1014    5.5359   -3.2190 H   0  0  0  0  0  0  0  0  0  0  0  0
    6.0063    9.1038   -3.1936 H   0  0  0  0  0  0  0  0  0  0  0  0
    6.7731    8.0605   -1.9568 H   0  0  0  0  0  0  0  0  0  0  0  0
    2.4570    8.4550    0.7433 H   0  0  0  0  0  0  0  0  0  0  0  0
    6.4067   10.9630   -1.0043 H   0  0  0  0  0  0  0  0  0  0  0  0
    2.3391    1.4931   -7.4535 H   0  0  0  0  0  0  0  0  0  0  0  0
    2.6311   -1.8501   -4.7281 H   0  0  0  0  0  0  0  0  0  0  0  0
    5.2634   -0.7852   -6.0302 H   0  0  0  0  0  0  0  0  0  0  0  0
    4.9889   -0.6851   -1.7185 H   0  0  0  0  0  0  0  0  0  0  0  0
    3.1243   10.6013    1.7630 H   0  0  0  0  0  0  0  0  0  0  0  0
    5.0813   11.8583    0.9020 H   0  0  0  0  0  0  0  0  0  0  0  0
    6.3630   -2.7247   -1.6087 H   0  0  0  0  0  0  0  0  0  0  0  0
    6.5365   -2.8647   -5.8943 H   0  0  0  0  0  0  0  0  0  0  0  0
    1.9296   -3.3580   -6.5194 H   0  0  0  0  0  0  0  0  0  0  0  0
    1.5389   -0.0333   -9.2069 H   0  0  0  0  0  0  0  0  0  0  0  0
    7.1108   -3.8496   -3.6906 H   0  0  0  0  0  0  0  0  0  0  0  0
    1.3666   -2.4697   -8.7670 H   0  0  0  0  0  0  0  0  0  0  0  0
  2  3  2  0  0  0  0
  2  4  1  0  0  0  0
  3  9  1  0  0  0  0
  4  5  2  0  0  0  0
  5  6  1  0  0  0  0
  6 11  1  0  0  0  0
  7  1  1  0  0  0  0
  8  1  1  0  0  0  0
  9  6  2  0  0  0  0
 10  1  1  0  0  0  0
 10 32  1  0  0  0  0
 10 33  1  0  0  0  0
 11 13  1  0  0  0  0
 12  7  2  0  0  0  0
 12 17  1  0  0  0  0
 13  8  1  0  0  0  0
 13 34  1  0  0  0  0
 13 35  1  0  0  0  0
 14  2  1  0  0  0  0
 15  4  1  0  0  0  0
 16  8  2  0  0  0  0
 17 10  1  0  0  0  0
 17 36  1  0  0  0  0
 17 37  1  0  0  0  0
 18  7  1  0  0  0  0
 18 38  1  0  0  0  0
 19 12  1  0  0  0  0
 19 39  1  0  0  0  0
 20 14  2  0  0  0  0
 20 40  1  0  0  0  0
 21 14  1  0  0  0  0
 21 41  1  0  0  0  0
 22 15  2  0  0  0  0
 22 42  1  0  0  0  0
 23 15  1  0  0  0  0
 23 43  1  0  0  0  0
 24 18  2  0  0  0  0
 24 44  1  0  0  0  0
 25 24  1  0  0  0  0
 25 19  2  0  0  0  0
 25 45  1  0  0  0  0
 26 23  2  0  0  0  0
 26 46  1  0  0  0  0
 27 22  1  0  0  0  0
 27 47  1  0  0  0  0
 28 21  2  0  0  0  0
 28 48  1  0  0  0  0
 29 20  1  0  0  0  0
 29 49  1  0  0  0  0
 30 26  1  0  0  0  0
 30 27  2  0  0  0  0
 30 50  1  0  0  0  0
 31 28  1  0  0  0  0
 31 29  2  0  0  0  0
 31 51  1  0  0  0  0
M  END
>  <Mol_ID>
8114

>  <Formula>
C25H20N4OS

>  <MolWeight>
424.5175

>  <Cat>
P2827

>  <Name>
WAY-604429

>  <Synonyms>
N/A

>  <Target>
11¦Â-HSD1

>  <Form>
free base

>  <CAS>
453526-02-8

>  <URL>
N/A

$$$$
