WAY-323756
 OpenBabel08302521423D

 57 61  0  0  0  0  0  0  0  0999 V2000
   -0.9694    0.5982   -0.0952 C   0  0  0  0  0  0  0  0  0  0  0  0
   -1.9891    2.8183    0.0534 N   0  0  0  0  0  0  0  0  0  0  0  0
   -2.1723    1.4439    0.1227 C   0  0  0  0  0  0  0  0  0  0  0  0
    0.2090    1.2480   -0.0895 C   0  0  0  0  0  0  0  0  0  0  0  0
   -0.7138    3.3644    0.0052 C   0  0  0  0  0  0  0  0  0  0  0  0
    0.3501    2.6137   -0.0373 N   0  0  0  0  0  0  0  0  0  0  0  0
   -1.1088   -0.9230   -0.2515 C   0  0  0  0  0  0  0  0  0  0  0  0
    1.4566    0.4318   -0.0683 C   0  0  0  0  0  0  0  0  0  0  0  0
    1.4200   -0.9178   -0.4556 C   0  0  0  0  0  0  0  0  0  0  0  0
    0.1362   -1.4762   -0.9948 C   0  0  0  0  0  0  0  0  0  0  0  0
   -3.1675    3.6219    0.0626 C   0  0  0  0  0  0  0  0  0  0  0  0
   -3.2629    0.9068    0.3311 O   0  0  0  0  0  0  0  0  0  0  0  0
   -0.5326    4.7308    0.0692 N   0  0  0  0  0  0  0  0  0  0  0  0
   -4.0670    3.5408    1.1343 C   0  0  0  0  0  0  0  0  0  0  0  0
   -3.4972    4.4155   -1.0441 C   0  0  0  0  0  0  0  0  0  0  0  0
   -2.3515   -1.3975   -1.0591 C   0  0  0  0  0  0  0  0  0  0  0  0
   -1.2556   -1.6035    1.1333 C   0  0  0  0  0  0  0  0  0  0  0  0
   -4.7001    5.1315   -1.0631 C   0  0  0  0  0  0  0  0  0  0  0  0
   -5.2593    4.2655    1.1190 C   0  0  0  0  0  0  0  0  0  0  0  0
   -5.5793    5.0777    0.0266 C   0  0  0  0  0  0  0  0  0  0  0  0
    2.6777    0.9548    0.3850 C   0  0  0  0  0  0  0  0  0  0  0  0
    2.5712   -1.7153   -0.3898 C   0  0  0  0  0  0  0  0  0  0  0  0
    2.3333    4.5435    0.9275 O   0  0  0  0  0  0  0  0  0  0  0  0
    0.5853    5.4387   -0.5467 C   0  0  0  0  0  0  0  0  0  0  0  0
    1.7101    5.7302    0.4517 C   0  0  0  0  0  0  0  0  0  0  0  0
   -6.8769    5.8314    0.0180 C   0  0  0  0  0  0  0  0  0  0  0  0
   -2.7324   -1.9271    1.2919 C   0  0  0  0  0  0  0  0  0  0  0  0
   -3.2101   -2.2359   -0.1145 C   0  0  0  0  0  0  0  0  0  0  0  0
    3.8199    0.1546    0.4674 C   0  0  0  0  0  0  0  0  0  0  0  0
    3.7663   -1.1810    0.0832 C   0  0  0  0  0  0  0  0  0  0  0  0
    0.0922   -1.2105   -2.0610 H   0  0  0  0  0  0  0  0  0  0  0  0
    0.1465   -2.5733   -0.9464 H   0  0  0  0  0  0  0  0  0  0  0  0
   -1.3423    5.3035    0.2836 H   0  0  0  0  0  0  0  0  0  0  0  0
   -3.8513    2.8961    1.9832 H   0  0  0  0  0  0  0  0  0  0  0  0
   -2.8573    4.4280   -1.9229 H   0  0  0  0  0  0  0  0  0  0  0  0
   -2.9283   -0.5708   -1.4863 H   0  0  0  0  0  0  0  0  0  0  0  0
   -2.0769   -2.0180   -1.9217 H   0  0  0  0  0  0  0  0  0  0  0  0
   -0.6842   -2.5394    1.1762 H   0  0  0  0  0  0  0  0  0  0  0  0
   -0.9028   -0.9786    1.9618 H   0  0  0  0  0  0  0  0  0  0  0  0
   -4.9596    5.7131   -1.9451 H   0  0  0  0  0  0  0  0  0  0  0  0
   -5.9450    4.1738    1.9585 H   0  0  0  0  0  0  0  0  0  0  0  0
    2.7535    1.9917    0.6998 H   0  0  0  0  0  0  0  0  0  0  0  0
    2.5384   -2.7576   -0.6989 H   0  0  0  0  0  0  0  0  0  0  0  0
    1.6230    3.8688    0.9764 H   0  0  0  0  0  0  0  0  0  0  0  0
    0.9700    4.8671   -1.3990 H   0  0  0  0  0  0  0  0  0  0  0  0
    0.2114    6.3918   -0.9368 H   0  0  0  0  0  0  0  0  0  0  0  0
    2.4845    6.3347   -0.0338 H   0  0  0  0  0  0  0  0  0  0  0  0
    1.3390    6.2869    1.3171 H   0  0  0  0  0  0  0  0  0  0  0  0
   -7.7150    5.1418   -0.1242 H   0  0  0  0  0  0  0  0  0  0  0  0
   -7.0099    6.3644    0.9658 H   0  0  0  0  0  0  0  0  0  0  0  0
   -6.9010    6.5766   -0.7832 H   0  0  0  0  0  0  0  0  0  0  0  0
   -3.2757   -1.0772    1.7146 H   0  0  0  0  0  0  0  0  0  0  0  0
   -2.8905   -2.7745    1.9664 H   0  0  0  0  0  0  0  0  0  0  0  0
   -4.2766   -2.0222   -0.2375 H   0  0  0  0  0  0  0  0  0  0  0  0
   -3.0610   -3.2999   -0.3324 H   0  0  0  0  0  0  0  0  0  0  0  0
    4.7496    0.5792    0.8389 H   0  0  0  0  0  0  0  0  0  0  0  0
    4.6539   -1.8044    0.1508 H   0  0  0  0  0  0  0  0  0  0  0  0
  2  3  1  0  0  0  0
  3  1  1  0  0  0  0
  4  1  2  0  0  0  0
  5  6  2  0  0  0  0
  5  2  1  0  0  0  0
  6  4  1  0  0  0  0
  7  1  1  0  0  0  0
  8  4  1  0  0  0  0
  9 10  1  0  0  0  0
  9  8  2  0  0  0  0
 10  7  1  0  0  0  0
 10 31  1  0  0  0  0
 10 32  1  0  0  0  0
 11  2  1  0  0  0  0
 12  3  2  0  0  0  0
 13  5  1  0  0  0  0
 13 33  1  0  0  0  0
 14 11  2  0  0  0  0
 14 34  1  0  0  0  0
 15 11  1  0  0  0  0
 15 35  1  0  0  0  0
 16  7  1  0  0  0  0
 16 36  1  0  0  0  0
 16 37  1  0  0  0  0
 17  7  1  0  0  0  0
 17 38  1  0  0  0  0
 17 39  1  0  0  0  0
 18 15  2  0  0  0  0
 18 40  1  0  0  0  0
 19 14  1  0  0  0  0
 19 41  1  0  0  0  0
 20 18  1  0  0  0  0
 20 19  2  0  0  0  0
 21  8  1  0  0  0  0
 21 42  1  0  0  0  0
 22  9  1  0  0  0  0
 22 43  1  0  0  0  0
 23 25  1  0  0  0  0
 23 44  1  0  0  0  0
 24 13  1  0  0  0  0
 24 45  1  0  0  0  0
 24 46  1  0  0  0  0
 25 24  1  0  0  0  0
 25 47  1  0  0  0  0
 25 48  1  0  0  0  0
 26 20  1  0  0  0  0
 26 49  1  0  0  0  0
 26 50  1  0  0  0  0
 26 51  1  0  0  0  0
 27 17  1  0  0  0  0
 27 52  1  0  0  0  0
 27 53  1  0  0  0  0
 28 16  1  0  0  0  0
 28 27  1  0  0  0  0
 28 54  1  0  0  0  0
 28 55  1  0  0  0  0
 29 21  2  0  0  0  0
 29 56  1  0  0  0  0
 30 22  2  0  0  0  0
 30 29  1  0  0  0  0
 30 57  1  0  0  0  0
M  END
>  <Mol_ID>
8586

>  <Formula>
C25H27N3O2

>  <MolWeight>
401.50078

>  <Cat>
P2278

>  <Name>
WAY-323756

>  <Synonyms>
N/A

>  <Target>
TLR

>  <Form>
free base

>  <CAS>
854135-42-5

>  <URL>
N/A

$$$$
