WAY-331984
 OpenBabel08302521453D

 60 63  0  0  0  0  0  0  0  0999 V2000
   -2.6387    2.3635   -4.5439 N   0  0  0  0  0  0  0  0  0  0  0  0
   -3.1184    3.0527   -5.5619 C   0  0  0  0  0  0  0  0  0  0  0  0
   -2.8840    3.1590   -3.4388 C   0  0  0  0  0  0  0  0  0  0  0  0
   -3.6510    4.2629   -5.2052 O   0  0  0  0  0  0  0  0  0  0  0  0
   -3.5061    4.3211   -3.8482 C   0  0  0  0  0  0  0  0  0  0  0  0
    2.0220    4.1755   -2.8368 N   0  0  0  0  0  0  0  0  0  0  0  0
    3.0431    6.8176   -3.3480 N   0  0  0  0  0  0  0  0  0  0  0  0
    1.6193    2.8521   -2.6937 C   0  0  0  0  0  0  0  0  0  0  0  0
   -3.1794    2.7032   -6.9779 C   0  0  0  0  0  0  0  0  0  0  0  0
    3.5120    8.0975   -3.6330 C   0  0  0  0  0  0  0  0  0  0  0  0
    1.1143    5.3105   -3.0424 C   0  0  0  0  0  0  0  0  0  0  0  0
    3.3538    4.5555   -2.3571 C   0  0  0  0  0  0  0  0  0  0  0  0
    1.7433    6.4051   -3.9156 C   0  0  0  0  0  0  0  0  0  0  0  0
    3.9908    5.6940   -3.1761 C   0  0  0  0  0  0  0  0  0  0  0  0
    2.4294    1.9535   -2.4477 O   0  0  0  0  0  0  0  0  0  0  0  0
   -2.7136    1.4552   -7.4135 C   0  0  0  0  0  0  0  0  0  0  0  0
   -3.7091    3.5869   -7.9289 C   0  0  0  0  0  0  0  0  0  0  0  0
    4.8619    8.3677   -3.9183 C   0  0  0  0  0  0  0  0  0  0  0  0
    2.6491    9.2084   -3.5574 C   0  0  0  0  0  0  0  0  0  0  0  0
   -0.8666    3.1922   -1.5358 S   0  0  0  0  0  0  0  0  0  0  0  0
   -2.5236    2.6864   -2.0774 C   0  0  0  0  0  0  0  0  0  0  0  0
    4.4445   10.7346   -4.0169 C   0  0  0  0  0  0  0  0  0  0  0  0
    0.1467    2.5106   -2.9039 C   0  0  0  0  0  0  0  0  0  0  0  0
    3.1063   10.5128   -3.7513 C   0  0  0  0  0  0  0  0  0  0  0  0
    5.3299    9.6730   -4.1034 C   0  0  0  0  0  0  0  0  0  0  0  0
   -3.7746    3.2315   -9.2792 C   0  0  0  0  0  0  0  0  0  0  0  0
   -2.7808    1.0961   -8.7643 C   0  0  0  0  0  0  0  0  0  0  0  0
   -3.3182    1.9802   -9.7075 C   0  0  0  0  0  0  0  0  0  0  0  0
    4.8921   11.9861   -4.1701 F   0  0  0  0  0  0  0  0  0  0  0  0
   -4.0430    5.5229   -3.1877 C   0  0  0  0  0  0  0  0  0  0  0  0
   -3.3846    1.6085  -11.1667 C   0  0  0  0  0  0  0  0  0  0  0  0
   -2.1253    2.0167  -11.9159 C   0  0  0  0  0  0  0  0  0  0  0  0
    0.1787    4.9963   -3.5067 H   0  0  0  0  0  0  0  0  0  0  0  0
    0.8847    5.7189   -2.0494 H   0  0  0  0  0  0  0  0  0  0  0  0
    3.2242    4.8858   -1.3179 H   0  0  0  0  0  0  0  0  0  0  0  0
    4.0294    3.6943   -2.3377 H   0  0  0  0  0  0  0  0  0  0  0  0
    1.8939    6.0242   -4.9339 H   0  0  0  0  0  0  0  0  0  0  0  0
    1.0184    7.2211   -3.9816 H   0  0  0  0  0  0  0  0  0  0  0  0
    4.2987    5.3168   -4.1593 H   0  0  0  0  0  0  0  0  0  0  0  0
    4.8866    6.0117   -2.6302 H   0  0  0  0  0  0  0  0  0  0  0  0
   -2.2983    0.7486   -6.6962 H   0  0  0  0  0  0  0  0  0  0  0  0
   -4.0805    4.5644   -7.6299 H   0  0  0  0  0  0  0  0  0  0  0  0
    5.5879    7.5656   -4.0060 H   0  0  0  0  0  0  0  0  0  0  0  0
    1.6037    9.0815   -3.2940 H   0  0  0  0  0  0  0  0  0  0  0  0
   -3.2347    3.0917   -1.3492 H   0  0  0  0  0  0  0  0  0  0  0  0
   -2.5945    1.5956   -2.0243 H   0  0  0  0  0  0  0  0  0  0  0  0
    0.0440    1.4205   -2.9074 H   0  0  0  0  0  0  0  0  0  0  0  0
   -0.1567    2.8863   -3.8838 H   0  0  0  0  0  0  0  0  0  0  0  0
    2.4224   11.3556   -3.6730 H   0  0  0  0  0  0  0  0  0  0  0  0
    6.3785    9.8619   -4.3037 H   0  0  0  0  0  0  0  0  0  0  0  0
   -4.1900    3.9390   -9.9938 H   0  0  0  0  0  0  0  0  0  0  0  0
   -2.4132    0.1196   -9.0730 H   0  0  0  0  0  0  0  0  0  0  0  0
   -3.6605    6.4284   -3.6700 H   0  0  0  0  0  0  0  0  0  0  0  0
   -5.1351    5.5361   -3.2593 H   0  0  0  0  0  0  0  0  0  0  0  0
   -3.7682    5.5582   -2.1301 H   0  0  0  0  0  0  0  0  0  0  0  0
   -3.5443    0.5283  -11.2679 H   0  0  0  0  0  0  0  0  0  0  0  0
   -4.2579    2.0874  -11.6268 H   0  0  0  0  0  0  0  0  0  0  0  0
   -1.9370    3.0920  -11.8253 H   0  0  0  0  0  0  0  0  0  0  0  0
   -1.2468    1.4881  -11.5309 H   0  0  0  0  0  0  0  0  0  0  0  0
   -2.2247    1.7789  -12.9797 H   0  0  0  0  0  0  0  0  0  0  0  0
  2  1  2  0  0  0  0
  3  1  1  0  0  0  0
  4  2  1  0  0  0  0
  4  5  1  0  0  0  0
  5  3  2  0  0  0  0
  6  8  1  0  0  0  0
  7 14  1  0  0  0  0
  8 23  1  0  0  0  0
  9  2  1  0  0  0  0
 10  7  1  0  0  0  0
 11  6  1  0  0  0  0
 11 33  1  0  0  0  0
 11 34  1  0  0  0  0
 12  6  1  0  0  0  0
 12 35  1  0  0  0  0
 12 36  1  0  0  0  0
 13 11  1  0  0  0  0
 13  7  1  0  0  0  0
 13 37  1  0  0  0  0
 13 38  1  0  0  0  0
 14 12  1  0  0  0  0
 14 39  1  0  0  0  0
 14 40  1  0  0  0  0
 15  8  2  0  0  0  0
 16  9  2  0  0  0  0
 16 41  1  0  0  0  0
 17  9  1  0  0  0  0
 17 42  1  0  0  0  0
 18 10  2  0  0  0  0
 18 43  1  0  0  0  0
 19 10  1  0  0  0  0
 19 44  1  0  0  0  0
 20 21  1  0  0  0  0
 21  3  1  0  0  0  0
 21 45  1  0  0  0  0
 21 46  1  0  0  0  0
 22 24  1  0  0  0  0
 22 25  2  0  0  0  0
 23 20  1  0  0  0  0
 23 47  1  0  0  0  0
 23 48  1  0  0  0  0
 24 19  2  0  0  0  0
 24 49  1  0  0  0  0
 25 18  1  0  0  0  0
 25 50  1  0  0  0  0
 26 17  2  0  0  0  0
 26 51  1  0  0  0  0
 27 16  1  0  0  0  0
 27 52  1  0  0  0  0
 28 26  1  0  0  0  0
 28 27  2  0  0  0  0
 29 22  1  0  0  0  0
 30  5  1  0  0  0  0
 30 53  1  0  0  0  0
 30 54  1  0  0  0  0
 30 55  1  0  0  0  0
 31 28  1  0  0  0  0
 31 56  1  0  0  0  0
 31 57  1  0  0  0  0
 32 31  1  0  0  0  0
 32 58  1  0  0  0  0
 32 59  1  0  0  0  0
 32 60  1  0  0  0  0
M  END
>  <Mol_ID>
9269

>  <Formula>
C25H28FN3O2S

>  <MolWeight>
453.5721232

>  <Cat>
P2643

>  <Name>
WAY-331984

>  <Synonyms>
N/A

>  <Target>
beta-catenin

>  <Form>
free base

>  <CAS>
901751-33-5

>  <URL>
N/A

$$$$
