WAY-326766
 OpenBabel08302521433D

 52 54  0  0  0  0  0  0  0  0999 V2000
    0.7927   -0.2923    0.1371 C   0  0  0  0  0  0  0  0  0  0  0  0
   -0.5594   -1.6515   -1.5230 N   0  0  0  0  0  0  0  0  0  0  0  0
    0.3005   -0.4683   -1.3299 C   0  0  3  0  0  0  0  0  0  0  0  0
   -0.0357   -2.9137   -1.2948 C   0  0  0  0  0  0  0  0  0  0  0  0
    2.0943   -0.6995    0.3898 N   0  0  0  0  0  0  0  0  0  0  0  0
    3.0380    0.0977    3.9191 C   0  0  0  0  0  0  0  0  0  0  0  0
    2.2500   -0.0917    2.7839 C   0  0  0  0  0  0  0  0  0  0  0  0
    4.3923   -0.2435    3.9088 C   0  0  0  0  0  0  0  0  0  0  0  0
    2.8158   -0.5633    1.5969 C   0  0  0  0  0  0  0  0  0  0  0  0
   -2.8776   -4.5268   -0.1858 C   0  0  0  0  0  0  0  0  0  0  0  0
    0.0147    0.1617    0.9798 O   0  0  0  0  0  0  0  0  0  0  0  0
   -1.5435   -4.7289   -0.4395 N   0  0  0  0  0  0  0  0  0  0  0  0
   -0.8857   -4.1578   -1.5972 C   0  0  0  0  0  0  0  0  0  0  0  0
    2.4126    0.6457    5.0129 O   0  0  0  0  0  0  0  0  0  0  0  0
    5.2074   -0.1174    5.0048 O   0  0  0  0  0  0  0  0  0  0  0  0
    1.1099   -3.0638   -0.8568 O   0  0  0  0  0  0  0  0  0  0  0  0
    1.3293   -0.2304   -2.4407 C   0  0  0  0  0  0  0  0  0  0  0  0
   -3.5922   -3.7836   -0.8491 O   0  0  0  0  0  0  0  0  0  0  0  0
    4.9655   -0.7277    2.7376 C   0  0  0  0  0  0  0  0  0  0  0  0
    4.1811   -0.8872    1.5873 C   0  0  0  0  0  0  0  0  0  0  0  0
   -1.9456   -1.3836   -1.8998 C   0  0  0  0  0  0  0  0  0  0  0  0
   -3.4055   -5.3420    0.9626 C   0  0  0  0  0  0  0  0  0  0  0  0
    3.3755    1.1766    5.9276 C   0  0  0  0  0  0  0  0  0  0  0  0
    4.4487    0.1375    6.1974 C   0  0  0  0  0  0  0  0  0  0  0  0
    1.4649   -1.1029   -3.5364 C   0  0  0  0  0  0  0  0  0  0  0  0
    2.1027    0.9437   -2.4451 C   0  0  0  0  0  0  0  0  0  0  0  0
    2.9992    1.2129   -3.4857 C   0  0  0  0  0  0  0  0  0  0  0  0
    2.3653   -0.8379   -4.5679 C   0  0  0  0  0  0  0  0  0  0  0  0
    3.1323    0.3200   -4.5443 C   0  0  0  0  0  0  0  0  0  0  0  0
   -0.3657    0.4013   -1.4464 H   0  0  0  0  0  0  0  0  0  0  0  0
    2.5617   -1.1841   -0.3718 H   0  0  0  0  0  0  0  0  0  0  0  0
    1.1953    0.1447    2.8626 H   0  0  0  0  0  0  0  0  0  0  0  0
   -0.9850   -5.2739    0.2054 H   0  0  0  0  0  0  0  0  0  0  0  0
   -1.5962   -3.9948   -2.4074 H   0  0  0  0  0  0  0  0  0  0  0  0
   -0.1933   -4.9246   -1.9652 H   0  0  0  0  0  0  0  0  0  0  0  0
    6.0271   -0.9707    2.7148 H   0  0  0  0  0  0  0  0  0  0  0  0
    4.6605   -1.2448    0.6786 H   0  0  0  0  0  0  0  0  0  0  0  0
   -2.5367   -1.2504   -0.9906 H   0  0  0  0  0  0  0  0  0  0  0  0
   -1.9994   -0.4730   -2.5061 H   0  0  0  0  0  0  0  0  0  0  0  0
   -2.3684   -2.1840   -2.5042 H   0  0  0  0  0  0  0  0  0  0  0  0
   -3.2033   -6.4026    0.7841 H   0  0  0  0  0  0  0  0  0  0  0  0
   -2.9398   -5.0257    1.8984 H   0  0  0  0  0  0  0  0  0  0  0  0
   -4.4889   -5.2071    1.0380 H   0  0  0  0  0  0  0  0  0  0  0  0
    2.8486    1.4413    6.8503 H   0  0  0  0  0  0  0  0  0  0  0  0
    3.7982    2.0968    5.5012 H   0  0  0  0  0  0  0  0  0  0  0  0
    5.1403    0.4920    6.9670 H   0  0  0  0  0  0  0  0  0  0  0  0
    4.0091   -0.8088    6.5368 H   0  0  0  0  0  0  0  0  0  0  0  0
    0.8665   -2.0053   -3.6136 H   0  0  0  0  0  0  0  0  0  0  0  0
    2.0005    1.6774   -1.6459 H   0  0  0  0  0  0  0  0  0  0  0  0
    3.5836    2.1299   -3.4751 H   0  0  0  0  0  0  0  0  0  0  0  0
    2.4532   -1.5340   -5.3996 H   0  0  0  0  0  0  0  0  0  0  0  0
    3.8268    0.5295   -5.3545 H   0  0  0  0  0  0  0  0  0  0  0  0
  2  3  1  0  0  0  0
  3  1  1  0  0  0  0
  3 30  1  0  0  0  0
  4  2  1  0  0  0  0
  5  1  1  0  0  0  0
  5 31  1  0  0  0  0
  6  7  2  0  0  0  0
  6  8  1  0  0  0  0
  7  9  1  0  0  0  0
  7 32  1  0  0  0  0
  8 19  2  0  0  0  0
  9  5  1  0  0  0  0
 10 12  1  0  0  0  0
 11  1  2  0  0  0  0
 12 13  1  0  0  0  0
 12 33  1  0  0  0  0
 13  4  1  0  0  0  0
 13 34  1  0  0  0  0
 13 35  1  0  0  0  0
 14  6  1  0  0  0  0
 15  8  1  0  0  0  0
 16  4  2  0  0  0  0
 17  3  1  0  0  0  0
 18 10  2  0  0  0  0
 19 20  1  0  0  0  0
 19 36  1  0  0  0  0
 20  9  2  0  0  0  0
 20 37  1  0  0  0  0
 21  2  1  0  0  0  0
 21 38  1  0  0  0  0
 21 39  1  0  0  0  0
 21 40  1  0  0  0  0
 22 10  1  0  0  0  0
 22 41  1  0  0  0  0
 22 42  1  0  0  0  0
 22 43  1  0  0  0  0
 23 14  1  0  0  0  0
 23 44  1  0  0  0  0
 23 45  1  0  0  0  0
 24 15  1  0  0  0  0
 24 23  1  0  0  0  0
 24 46  1  0  0  0  0
 24 47  1  0  0  0  0
 25 17  2  0  0  0  0
 25 48  1  0  0  0  0
 26 17  1  0  0  0  0
 26 49  1  0  0  0  0
 27 26  2  0  0  0  0
 27 50  1  0  0  0  0
 28 25  1  0  0  0  0
 28 51  1  0  0  0  0
 29 27  1  0  0  0  0
 29 28  2  0  0  0  0
 29 52  1  0  0  0  0
M  END
>  <Mol_ID>
8933

>  <Formula>
C21H23N3O5

>  <MolWeight>
397.42442

>  <Cat>
P2492

>  <Name>
WAY-326766

>  <Synonyms>
N/A

>  <Target>
CFTR

>  <Form>
free base

>  <CAS>
853138-67-7

>  <URL>
N/A

$$$$
