WAY-350568
 OpenBabel08302521393D

 54 58  0  0  0  0  0  0  0  0999 V2000
   -1.1998   -1.4314   -0.0812 C   0  0  0  0  0  0  0  0  0  0  0  0
   -1.3643   -2.9074    0.0926 C   0  0  0  0  0  0  0  0  0  0  0  0
   -1.1389    1.3373   -0.0677 N   0  0  0  0  0  0  0  0  0  0  0  0
   -2.3698   -3.4059    0.9397 N   0  0  0  0  0  0  0  0  0  0  0  0
   -5.0352   -5.1468    3.6932 C   0  0  0  0  0  0  0  0  0  0  0  0
   -4.0700   -4.5938    2.8943 N   0  0  0  0  0  0  0  0  0  0  0  0
   -2.3185    0.6901   -0.1935 C   0  0  0  0  0  0  0  0  0  0  0  0
   -2.3545   -0.6872   -0.3080 C   0  0  0  0  0  0  0  0  0  0  0  0
    0.0496   -0.7722   -0.0318 C   0  0  0  0  0  0  0  0  0  0  0  0
    0.0088    0.6337   -0.0484 C   0  0  0  0  0  0  0  0  0  0  0  0
   -5.0584   -6.4747    3.8756 N   0  0  0  0  0  0  0  0  0  0  0  0
   -5.9780   -4.3319    4.2006 N   0  0  0  0  0  0  0  0  0  0  0  0
   -3.5574    1.5003   -0.0835 C   0  0  0  0  0  0  0  0  0  0  0  0
   -0.6006   -3.6503   -0.5206 O   0  0  0  0  0  0  0  0  0  0  0  0
   -3.4051   -2.6156    1.6430 C   0  0  0  0  0  0  0  0  0  0  0  0
   -2.6210   -4.8601    0.9434 C   0  0  0  0  0  0  0  0  0  0  0  0
   -2.9758   -5.3957    2.3477 C   0  0  0  0  0  0  0  0  0  0  0  0
   -3.7965   -3.1713    3.0138 C   0  0  0  0  0  0  0  0  0  0  0  0
   -3.5453    2.7814    0.4982 C   0  0  0  0  0  0  0  0  0  0  0  0
   -4.8116    1.0048   -0.4912 C   0  0  0  0  0  0  0  0  0  0  0  0
   -5.9886    1.7406   -0.3279 C   0  0  0  0  0  0  0  0  0  0  0  0
   -4.7219    3.5277    0.6568 C   0  0  0  0  0  0  0  0  0  0  0  0
   -5.9526    3.0113    0.2419 C   0  0  0  0  0  0  0  0  0  0  0  0
   -7.0878   -6.2288    5.1280 C   0  0  0  0  0  0  0  0  0  0  0  0
   -6.9852   -4.8835    4.8982 C   0  0  0  0  0  0  0  0  0  0  0  0
   -6.0788   -6.9864    4.5911 C   0  0  0  0  0  0  0  0  0  0  0  0
    1.3208   -1.4135    0.0240 C   0  0  0  0  0  0  0  0  0  0  0  0
    1.2018    1.3437   -0.0391 C   0  0  0  0  0  0  0  0  0  0  0  0
   -7.2079    3.8179    0.3846 C   0  0  0  0  0  0  0  0  0  0  0  0
    2.5046   -0.6759    0.0116 C   0  0  0  0  0  0  0  0  0  0  0  0
    2.4447    0.7087   -0.0226 C   0  0  0  0  0  0  0  0  0  0  0  0
   -3.2890   -1.2058   -0.4690 H   0  0  0  0  0  0  0  0  0  0  0  0
   -3.0876   -1.5856    1.7966 H   0  0  0  0  0  0  0  0  0  0  0  0
   -4.2907   -2.6198    0.9905 H   0  0  0  0  0  0  0  0  0  0  0  0
   -3.4685   -5.0321    0.2657 H   0  0  0  0  0  0  0  0  0  0  0  0
   -1.7657   -5.4115    0.5414 H   0  0  0  0  0  0  0  0  0  0  0  0
   -2.0980   -5.3128    3.0027 H   0  0  0  0  0  0  0  0  0  0  0  0
   -3.2260   -6.4579    2.2590 H   0  0  0  0  0  0  0  0  0  0  0  0
   -2.9728   -3.0088    3.7245 H   0  0  0  0  0  0  0  0  0  0  0  0
   -4.6506   -2.5835    3.3674 H   0  0  0  0  0  0  0  0  0  0  0  0
   -2.6072    3.2089    0.8512 H   0  0  0  0  0  0  0  0  0  0  0  0
   -4.9094    0.0278   -0.9554 H   0  0  0  0  0  0  0  0  0  0  0  0
   -6.9307    1.3072   -0.6560 H   0  0  0  0  0  0  0  0  0  0  0  0
   -4.6664    4.5158    1.1084 H   0  0  0  0  0  0  0  0  0  0  0  0
   -7.9070   -6.6604    5.6846 H   0  0  0  0  0  0  0  0  0  0  0  0
   -7.7295   -4.1841    5.2659 H   0  0  0  0  0  0  0  0  0  0  0  0
   -6.0602   -8.0642    4.7129 H   0  0  0  0  0  0  0  0  0  0  0  0
    1.3988   -2.4991    0.0323 H   0  0  0  0  0  0  0  0  0  0  0  0
    1.1631    2.4306   -0.0608 H   0  0  0  0  0  0  0  0  0  0  0  0
   -7.3722    4.0884    1.4319 H   0  0  0  0  0  0  0  0  0  0  0  0
   -7.1390    4.7268   -0.2209 H   0  0  0  0  0  0  0  0  0  0  0  0
   -8.0842    3.2553    0.0435 H   0  0  0  0  0  0  0  0  0  0  0  0
    3.4654   -1.1842    0.0133 H   0  0  0  0  0  0  0  0  0  0  0  0
    3.3573    1.2987   -0.0408 H   0  0  0  0  0  0  0  0  0  0  0  0
  2  1  1  0  0  0  0
  3 10  2  0  0  0  0
  4  2  1  0  0  0  0
  5  6  1  0  0  0  0
  6 17  1  0  0  0  0
  6 18  1  0  0  0  0
  7  8  2  0  0  0  0
  7  3  1  0  0  0  0
  8  1  1  0  0  0  0
  8 32  1  0  0  0  0
  9  1  2  0  0  0  0
 10  9  1  0  0  0  0
 11  5  2  0  0  0  0
 12  5  1  0  0  0  0
 13  7  1  0  0  0  0
 14  2  2  0  0  0  0
 15  4  1  0  0  0  0
 15 33  1  0  0  0  0
 15 34  1  0  0  0  0
 16  4  1  0  0  0  0
 16 35  1  0  0  0  0
 16 36  1  0  0  0  0
 17 16  1  0  0  0  0
 17 37  1  0  0  0  0
 17 38  1  0  0  0  0
 18 15  1  0  0  0  0
 18 39  1  0  0  0  0
 18 40  1  0  0  0  0
 19 13  2  0  0  0  0
 19 41  1  0  0  0  0
 20 13  1  0  0  0  0
 20 42  1  0  0  0  0
 21 20  2  0  0  0  0
 21 43  1  0  0  0  0
 22 19  1  0  0  0  0
 22 44  1  0  0  0  0
 23 21  1  0  0  0  0
 23 22  2  0  0  0  0
 24 25  1  0  0  0  0
 24 45  1  0  0  0  0
 25 12  2  0  0  0  0
 25 46  1  0  0  0  0
 26 11  1  0  0  0  0
 26 24  2  0  0  0  0
 26 47  1  0  0  0  0
 27  9  1  0  0  0  0
 27 48  1  0  0  0  0
 28 10  1  0  0  0  0
 28 49  1  0  0  0  0
 29 23  1  0  0  0  0
 29 50  1  0  0  0  0
 29 51  1  0  0  0  0
 29 52  1  0  0  0  0
 30 27  2  0  0  0  0
 30 53  1  0  0  0  0
 31 30  1  0  0  0  0
 31 28  2  0  0  0  0
 31 54  1  0  0  0  0
M  END
>  <Mol_ID>
8048

>  <Formula>
C25H23N5O

>  <MolWeight>
409.48302

>  <Cat>
P2756

>  <Name>
WAY-350568

>  <Synonyms>
N/A

>  <Target>
Luciferase

>  <Form>
free base

>  <CAS>
546100-66-7

>  <URL>
N/A

$$$$
