WAY-331961
 OpenBabel08302521443D

 39 41  0  0  0  0  0  0  0  0999 V2000
   -1.4513    0.6413   -0.0435 N   0  0  0  0  0  0  0  0  0  0  0  0
   -1.2574   -0.6639    0.0044 C   0  0  0  0  0  0  0  0  0  0  0  0
   -0.1801    1.1799   -0.0332 C   0  0  0  0  0  0  0  0  0  0  0  0
    0.0613   -1.0266    0.0693 O   0  0  0  0  0  0  0  0  0  0  0  0
    0.7449    0.1561    0.0311 C   0  0  0  0  0  0  0  0  0  0  0  0
   -2.2380   -1.7449   -0.0274 C   0  0  0  0  0  0  0  0  0  0  0  0
   -0.0126    5.9812   -5.0733 C   0  0  0  0  0  0  0  0  0  0  0  0
   -0.0727    5.3845   -3.7813 N   0  0  0  0  0  0  0  0  0  0  0  0
    0.6296    5.8598   -2.6906 C   0  0  0  0  0  0  0  0  0  0  0  0
   -1.0235    7.0126   -5.4846 C   0  0  0  0  0  0  0  0  0  0  0  0
   -1.0581    5.6477   -6.1045 C   0  0  0  0  0  0  0  0  0  0  0  0
    1.2834    6.8975   -2.7030 O   0  0  0  0  0  0  0  0  0  0  0  0
   -3.5948   -1.4432   -0.2203 C   0  0  0  0  0  0  0  0  0  0  0  0
   -1.8659   -3.0901    0.1190 C   0  0  0  0  0  0  0  0  0  0  0  0
    0.2247    3.2561   -1.7683 S   0  0  0  0  0  0  0  0  0  0  0  0
    0.0251    2.6531   -0.0639 C   0  0  0  0  0  0  0  0  0  0  0  0
   -4.1661   -3.7890   -0.1370 C   0  0  0  0  0  0  0  0  0  0  0  0
   -2.8243   -4.1058    0.0665 C   0  0  0  0  0  0  0  0  0  0  0  0
   -4.5529   -2.4588   -0.2793 C   0  0  0  0  0  0  0  0  0  0  0  0
    0.4607    5.0373   -1.4142 C   0  0  0  0  0  0  0  0  0  0  0  0
    2.2138    0.0654    0.0498 C   0  0  0  0  0  0  0  0  0  0  0  0
    1.0041    6.1220   -5.4351 H   0  0  0  0  0  0  0  0  0  0  0  0
   -0.4957    4.4649   -3.6873 H   0  0  0  0  0  0  0  0  0  0  0  0
   -1.7973    7.2760   -4.7736 H   0  0  0  0  0  0  0  0  0  0  0  0
   -0.6731    7.8420   -6.0884 H   0  0  0  0  0  0  0  0  0  0  0  0
   -0.7406    5.5491   -7.1363 H   0  0  0  0  0  0  0  0  0  0  0  0
   -1.8750    4.9913   -5.8276 H   0  0  0  0  0  0  0  0  0  0  0  0
   -3.9100   -0.4067   -0.3317 H   0  0  0  0  0  0  0  0  0  0  0  0
   -0.8236   -3.3599    0.2747 H   0  0  0  0  0  0  0  0  0  0  0  0
   -0.8432    3.1467    0.3856 H   0  0  0  0  0  0  0  0  0  0  0  0
    0.9115    2.9227    0.5188 H   0  0  0  0  0  0  0  0  0  0  0  0
   -4.9106   -4.5797   -0.1835 H   0  0  0  0  0  0  0  0  0  0  0  0
   -2.5218   -5.1437    0.1825 H   0  0  0  0  0  0  0  0  0  0  0  0
   -5.5989   -2.2079   -0.4374 H   0  0  0  0  0  0  0  0  0  0  0  0
   -0.3968    5.4331   -0.8617 H   0  0  0  0  0  0  0  0  0  0  0  0
    1.3688    5.1555   -0.8145 H   0  0  0  0  0  0  0  0  0  0  0  0
    2.5545   -0.4891    0.9311 H   0  0  0  0  0  0  0  0  0  0  0  0
    2.5720   -0.4570   -0.8420 H   0  0  0  0  0  0  0  0  0  0  0  0
    2.6736    1.0571    0.0717 H   0  0  0  0  0  0  0  0  0  0  0  0
  2  1  2  0  0  0  0
  3  1  1  0  0  0  0
  4  2  1  0  0  0  0
  5  3  2  0  0  0  0
  5  4  1  0  0  0  0
  6  2  1  0  0  0  0
  7  8  1  0  0  0  0
  7 22  1  0  0  0  0
  8  9  1  0  0  0  0
  8 23  1  0  0  0  0
  9 20  1  0  0  0  0
 10  7  1  0  0  0  0
 10 11  1  0  0  0  0
 10 24  1  0  0  0  0
 10 25  1  0  0  0  0
 11  7  1  0  0  0  0
 11 26  1  0  0  0  0
 11 27  1  0  0  0  0
 12  9  2  0  0  0  0
 13  6  2  0  0  0  0
 13 28  1  0  0  0  0
 14  6  1  0  0  0  0
 14 29  1  0  0  0  0
 15 16  1  0  0  0  0
 16  3  1  0  0  0  0
 16 30  1  0  0  0  0
 16 31  1  0  0  0  0
 17 18  1  0  0  0  0
 17 19  2  0  0  0  0
 17 32  1  0  0  0  0
 18 14  2  0  0  0  0
 18 33  1  0  0  0  0
 19 13  1  0  0  0  0
 19 34  1  0  0  0  0
 20 15  1  0  0  0  0
 20 35  1  0  0  0  0
 20 36  1  0  0  0  0
 21  5  1  0  0  0  0
 21 37  1  0  0  0  0
 21 38  1  0  0  0  0
 21 39  1  0  0  0  0
M  END
>  <Mol_ID>
9189

>  <Formula>
C16H17ClN2O2S

>  <MolWeight>
336.83638

>  <Cat>
P2623

>  <Name>
WAY-331961

>  <Synonyms>
N/A

>  <Target>
beta-catenin

>  <Form>
free base

>  <CAS>
901870-70-0

>  <URL>
N/A

$$$$
