WAY-117885
 OpenBabel08302521393D

 33 34  0  0  0  0  0  0  0  0999 V2000
    1.1259    0.1371    0.1368 N   0  0  0  0  0  0  0  0  0  0  0  0
    0.3064    0.0366    1.6189 S   0  0  0  0  0  0  0  0  0  0  0  0
    0.6912    1.1940   -0.8272 C   0  0  0  0  0  0  0  0  0  0  0  0
    2.6147    0.0016    0.2177 C   0  0  0  0  0  0  0  0  0  0  0  0
   -1.3964   -0.1386    1.1530 C   0  0  0  0  0  0  0  0  0  0  0  0
    0.7175   -1.2339    2.1801 O   0  0  0  0  0  0  0  0  0  0  0  0
    0.4913    1.2628    2.3586 O   0  0  0  0  0  0  0  0  0  0  0  0
    0.7363    2.5928   -0.3185 C   0  0  0  0  0  0  0  0  0  0  0  0
    3.2310   -1.3708    0.3700 C   0  0  0  0  0  0  0  0  0  0  0  0
   -1.8843   -1.4080    0.8238 C   0  0  0  0  0  0  0  0  0  0  0  0
   -2.2418    0.9716    1.1540 C   0  0  0  0  0  0  0  0  0  0  0  0
    1.7154    3.4184    0.1975 C   0  0  0  0  0  0  0  0  0  0  0  0
   -0.4337    3.2968   -0.4310 O   0  0  0  0  0  0  0  0  0  0  0  0
    2.4115   -2.4002    0.6607 O   0  0  0  0  0  0  0  0  0  0  0  0
    4.4342   -1.5601    0.2065 O   0  0  0  0  0  0  0  0  0  0  0  0
   -3.2200   -1.5553    0.4497 C   0  0  0  0  0  0  0  0  0  0  0  0
   -3.5723    0.8185    0.7674 C   0  0  0  0  0  0  0  0  0  0  0  0
    1.1106    4.6823    0.4179 C   0  0  0  0  0  0  0  0  0  0  0  0
   -0.1994    4.5533    0.0208 C   0  0  0  0  0  0  0  0  0  0  0  0
   -4.0588   -0.4414    0.4107 C   0  0  0  0  0  0  0  0  0  0  0  0
    1.3075    1.1367   -1.7315 H   0  0  0  0  0  0  0  0  0  0  0  0
   -0.3209    0.9468   -1.1700 H   0  0  0  0  0  0  0  0  0  0  0  0
    3.0339    0.3678   -0.7300 H   0  0  0  0  0  0  0  0  0  0  0  0
    3.0015    0.6461    1.0128 H   0  0  0  0  0  0  0  0  0  0  0  0
   -1.2419   -2.2844    0.8559 H   0  0  0  0  0  0  0  0  0  0  0  0
   -1.8732    1.9553    1.4401 H   0  0  0  0  0  0  0  0  0  0  0  0
    2.7452    3.1530    0.4003 H   0  0  0  0  0  0  0  0  0  0  0  0
    1.5570   -2.1020    1.0458 H   0  0  0  0  0  0  0  0  0  0  0  0
   -3.6082   -2.5373    0.1892 H   0  0  0  0  0  0  0  0  0  0  0  0
   -4.2342    1.6816    0.7445 H   0  0  0  0  0  0  0  0  0  0  0  0
    1.5705    5.5779    0.8128 H   0  0  0  0  0  0  0  0  0  0  0  0
   -1.0421    5.2291   -0.0079 H   0  0  0  0  0  0  0  0  0  0  0  0
   -5.0988   -0.5562    0.1120 H   0  0  0  0  0  0  0  0  0  0  0  0
  1  2  1  0  0  0  0
  1  3  1  0  0  0  0
  1  4  1  0  0  0  0
  2  5  1  0  0  0  0
  2  6  2  0  0  0  0
  2  7  2  0  0  0  0
  3  8  1  0  0  0  0
  3 21  1  0  0  0  0
  3 22  1  0  0  0  0
  4  9  1  0  0  0  0
  4 23  1  0  0  0  0
  4 24  1  0  0  0  0
  5 10  2  0  0  0  0
  5 11  1  0  0  0  0
  8 12  2  0  0  0  0
  8 13  1  0  0  0  0
  9 14  1  0  0  0  0
  9 15  2  0  0  0  0
 10 16  1  0  0  0  0
 10 25  1  0  0  0  0
 11 17  2  0  0  0  0
 11 26  1  0  0  0  0
 12 18  1  0  0  0  0
 12 27  1  0  0  0  0
 13 19  1  0  0  0  0
 14 28  1  0  0  0  0
 16 20  2  0  0  0  0
 16 29  1  0  0  0  0
 17 20  1  0  0  0  0
 17 30  1  0  0  0  0
 18 19  2  0  0  0  0
 18 31  1  0  0  0  0
 19 32  1  0  0  0  0
 20 33  1  0  0  0  0
M  END
>  <Mol_ID>
8040

>  <Formula>
C13H13NO5S

>  <MolWeight>
295.31102

>  <Cat>
P2050

>  <Name>
WAY-117885

>  <Synonyms>
N/A

>  <Target>
others

>  <Form>
free base

>  <CAS>
337494-85-6

>  <URL>
N/A

$$$$
