WAY-640817
 OpenBabel08302521443D

 42 44  0  0  0  0  0  0  0  0999 V2000
    0.3341   -1.1907    0.2311 C   0  0  0  0  0  0  0  0  0  0  0  0
    1.4607   -0.5349    0.2213 N   0  0  0  0  0  0  0  0  0  0  0  0
    1.2190    0.8261    0.0543 C   0  0  0  0  0  0  0  0  0  0  0  0
    0.1019   -2.5335    0.3351 N   0  0  0  0  0  0  0  0  0  0  0  0
   -1.0871   -0.2622    0.0706 S   0  0  0  0  0  0  0  0  0  0  0  0
   -0.1237    1.1586    0.0067 C   0  0  0  0  0  0  0  0  0  0  0  0
    1.0855   -3.4318    0.6908 C   0  0  0  0  0  0  0  0  0  0  0  0
   -2.9373   -6.1964    3.9310 S   0  0  0  0  0  0  0  0  0  0  0  0
    2.3242    1.7774   -0.0820 C   0  0  0  0  0  0  0  0  0  0  0  0
   -1.7357   -4.9790    3.8437 C   0  0  0  0  0  0  0  0  0  0  0  0
   -3.0755   -6.0260    5.6270 C   0  0  0  0  0  0  0  0  0  0  0  0
   -1.4180   -4.4894    5.0954 C   0  0  0  0  0  0  0  0  0  0  0  0
   -2.2037   -5.0837    6.1243 C   0  0  0  0  0  0  0  0  0  0  0  0
    2.2394   -3.1803    1.0121 O   0  0  0  0  0  0  0  0  0  0  0  0
    3.6447    1.3018   -0.0828 C   0  0  0  0  0  0  0  0  0  0  0  0
    2.1221    3.1539   -0.2466 C   0  0  0  0  0  0  0  0  0  0  0  0
    4.5181    3.5375   -0.4055 C   0  0  0  0  0  0  0  0  0  0  0  0
    4.7327    2.1709   -0.2456 C   0  0  0  0  0  0  0  0  0  0  0  0
    3.2100    4.0214   -0.4075 C   0  0  0  0  0  0  0  0  0  0  0  0
    5.4816    4.4938   -0.5671 O   0  0  0  0  0  0  0  0  0  0  0  0
    0.5735   -4.8647    0.7157 C   0  0  0  0  0  0  0  0  0  0  0  0
   -1.1999   -4.5316    2.5172 C   0  0  0  0  0  0  0  0  0  0  0  0
    0.0619   -5.2875    2.0952 C   0  0  0  0  0  0  0  0  0  0  0  0
    6.8331    4.0523   -0.5447 C   0  0  0  0  0  0  0  0  0  0  0  0
   -0.8507   -2.8296    0.2045 H   0  0  0  0  0  0  0  0  0  0  0  0
   -0.5917    2.1262   -0.0920 H   0  0  0  0  0  0  0  0  0  0  0  0
   -3.7899   -6.6225    6.1776 H   0  0  0  0  0  0  0  0  0  0  0  0
   -0.6765   -3.7169    5.2638 H   0  0  0  0  0  0  0  0  0  0  0  0
   -2.1388   -4.8259    7.1744 H   0  0  0  0  0  0  0  0  0  0  0  0
    3.8390    0.2359    0.0383 H   0  0  0  0  0  0  0  0  0  0  0  0
    1.1271    3.5868   -0.2590 H   0  0  0  0  0  0  0  0  0  0  0  0
    5.7284    1.7404   -0.2446 H   0  0  0  0  0  0  0  0  0  0  0  0
    3.0329    5.0865   -0.5382 H   0  0  0  0  0  0  0  0  0  0  0  0
   -0.2064   -4.9966   -0.0434 H   0  0  0  0  0  0  0  0  0  0  0  0
    1.4062   -5.5124    0.4158 H   0  0  0  0  0  0  0  0  0  0  0  0
   -0.9833   -3.4598    2.5942 H   0  0  0  0  0  0  0  0  0  0  0  0
   -1.9717   -4.6363    1.7443 H   0  0  0  0  0  0  0  0  0  0  0  0
   -0.1492   -6.3643    2.0671 H   0  0  0  0  0  0  0  0  0  0  0  0
    0.8512   -5.1421    2.8432 H   0  0  0  0  0  0  0  0  0  0  0  0
    7.0739    3.5507    0.3983 H   0  0  0  0  0  0  0  0  0  0  0  0
    7.0474    3.4072   -1.4030 H   0  0  0  0  0  0  0  0  0  0  0  0
    7.4741    4.9361   -0.6218 H   0  0  0  0  0  0  0  0  0  0  0  0
  2  1  2  0  0  0  0
  3  2  1  0  0  0  0
  4  1  1  0  0  0  0
  4 25  1  0  0  0  0
  5  1  1  0  0  0  0
  6  5  1  0  0  0  0
  6  3  2  0  0  0  0
  6 26  1  0  0  0  0
  7  4  1  0  0  0  0
  8 10  1  0  0  0  0
  9  3  1  0  0  0  0
 10 22  1  0  0  0  0
 11  8  1  0  0  0  0
 11 13  2  0  0  0  0
 11 27  1  0  0  0  0
 12 10  2  0  0  0  0
 12 28  1  0  0  0  0
 13 12  1  0  0  0  0
 13 29  1  0  0  0  0
 14  7  2  0  0  0  0
 15  9  2  0  0  0  0
 15 30  1  0  0  0  0
 16  9  1  0  0  0  0
 16 31  1  0  0  0  0
 17 19  1  0  0  0  0
 17 18  2  0  0  0  0
 18 15  1  0  0  0  0
 18 32  1  0  0  0  0
 19 16  2  0  0  0  0
 19 33  1  0  0  0  0
 20 17  1  0  0  0  0
 21  7  1  0  0  0  0
 21 34  1  0  0  0  0
 21 35  1  0  0  0  0
 22 23  1  0  0  0  0
 22 36  1  0  0  0  0
 22 37  1  0  0  0  0
 23 21  1  0  0  0  0
 23 38  1  0  0  0  0
 23 39  1  0  0  0  0
 24 20  1  0  0  0  0
 24 40  1  0  0  0  0
 24 41  1  0  0  0  0
 24 42  1  0  0  0  0
M  END
>  <Mol_ID>
9106

>  <Formula>
C18H18N2O2S2

>  <MolWeight>
358.47772

>  <Cat>
P3114

>  <Name>
WAY-640817

>  <Synonyms>
N/A

>  <Target>
Anti-infection

>  <Form>
free base

>  <CAS>
851206-59-2

>  <URL>
N/A

$$$$
