WAY-324820-A
 OpenBabel08302521423D

 27 29  0  0  0  0  0  0  0  0999 V2000
   -1.6306   -1.1299    0.0314 N   0  0  0  0  0  0  0  0  0  0  0  0
   -2.4059   -0.0553    0.0124 C   0  0  0  0  0  0  0  0  0  0  0  0
   -1.6360    1.0859    0.0499 N   0  0  0  0  0  0  0  0  0  0  0  0
   -0.3408   -0.6602    0.0321 C   0  0  0  0  0  0  0  0  0  0  0  0
   -0.3134    0.7274    0.0317 C   0  0  0  0  0  0  0  0  0  0  0  0
   -3.8658   -0.0244   -0.0344 C   0  0  0  0  0  0  0  0  0  0  0  0
   -4.4248    1.2135   -0.0210 N   0  0  0  0  0  0  0  0  0  0  0  0
    0.8684   -1.3707    0.0241 C   0  0  0  0  0  0  0  0  0  0  0  0
    0.8678    1.4695    0.0142 C   0  0  0  0  0  0  0  0  0  0  0  0
    2.0817   -0.6593    0.0056 C   0  0  0  0  0  0  0  0  0  0  0  0
    2.0668    0.7434   -0.0018 C   0  0  0  0  0  0  0  0  0  0  0  0
   -5.7770    1.2652   -0.0063 C   0  0  0  0  0  0  0  0  0  0  0  0
   -4.6130   -1.1981   -0.0643 C   0  0  0  0  0  0  0  0  0  0  0  0
    3.3798   -1.4136   -0.0080 C   0  0  0  0  0  0  0  0  0  0  0  0
   -6.5982    0.1482   -0.0074 C   0  0  0  0  0  0  0  0  0  0  0  0
   -6.0018   -1.1063   -0.0475 C   0  0  0  0  0  0  0  0  0  0  0  0
   -2.0109    2.0227    0.0590 H   0  0  0  0  0  0  0  0  0  0  0  0
    0.8485   -2.4553    0.0262 H   0  0  0  0  0  0  0  0  0  0  0  0
    0.8665    2.5538    0.0096 H   0  0  0  0  0  0  0  0  0  0  0  0
    3.0060    1.2942   -0.0185 H   0  0  0  0  0  0  0  0  0  0  0  0
   -6.2018    2.2648    0.0221 H   0  0  0  0  0  0  0  0  0  0  0  0
   -4.1207   -2.1658   -0.0800 H   0  0  0  0  0  0  0  0  0  0  0  0
    3.4569   -2.0483    0.8807 H   0  0  0  0  0  0  0  0  0  0  0  0
    3.4449   -2.0387   -0.9044 H   0  0  0  0  0  0  0  0  0  0  0  0
    4.2390   -0.7347   -0.0095 H   0  0  0  0  0  0  0  0  0  0  0  0
   -7.6776    0.2518    0.0333 H   0  0  0  0  0  0  0  0  0  0  0  0
   -6.6087   -2.0074   -0.0471 H   0  0  0  0  0  0  0  0  0  0  0  0
  2  1  2  0  0  0  0
  3  2  1  0  0  0  0
  3 17  1  0  0  0  0
  4  1  1  0  0  0  0
  5  4  2  0  0  0  0
  5  3  1  0  0  0  0
  6  2  1  0  0  0  0
  7  6  2  0  0  0  0
  8  4  1  0  0  0  0
  8 18  1  0  0  0  0
  9  5  1  0  0  0  0
  9 11  2  0  0  0  0
  9 19  1  0  0  0  0
 10  8  2  0  0  0  0
 11 10  1  0  0  0  0
 11 20  1  0  0  0  0
 12  7  1  0  0  0  0
 12 15  2  0  0  0  0
 12 21  1  0  0  0  0
 13  6  1  0  0  0  0
 13 22  1  0  0  0  0
 14 10  1  0  0  0  0
 14 23  1  0  0  0  0
 14 24  1  0  0  0  0
 14 25  1  0  0  0  0
 15 16  1  0  0  0  0
 15 26  1  0  0  0  0
 16 13  2  0  0  0  0
 16 27  1  0  0  0  0
M  END
>  <Mol_ID>
8654

>  <Formula>
C13H11N3

>  <MolWeight>
209.24654

>  <Cat>
P2353

>  <Name>
WAY-324820-A

>  <Synonyms>
N/A

>  <Target>
CBFb,methionine aminopeptidase

>  <Form>
free base

>  <CAS>
7471-12-7

>  <URL>
N/A

$$$$
