WAY-639267
 OpenBabel08302521433D

 54 57  0  0  0  0  0  0  0  0999 V2000
    1.2626   -0.0590    0.2422 S   0  0  0  0  0  0  0  0  0  0  0  0
   -1.1405    0.6798    6.0969 S   0  0  0  0  0  0  0  0  0  0  0  0
   -0.1028    0.1044   -0.7581 N   0  0  0  0  0  0  0  0  0  0  0  0
   -2.7848    0.2548    6.0442 N   0  0  0  0  0  0  0  0  0  0  0  0
   -0.1370   -1.8241   -2.9330 N   0  0  0  0  0  0  0  0  0  0  0  0
    0.5883    0.1661    1.8842 C   0  0  0  0  0  0  0  0  0  0  0  0
   -0.5597    0.4533    4.4180 C   0  0  0  0  0  0  0  0  0  0  0  0
    0.0158   -2.8463   -3.8597 C   0  0  0  0  0  0  0  0  0  0  0  0
    2.1388    1.0646   -0.0139 O   0  0  0  0  0  0  0  0  0  0  0  0
   -0.4683   -0.2785    6.9471 O   0  0  0  0  0  0  0  0  0  0  0  0
   -1.0486    2.1051    6.3850 O   0  0  0  0  0  0  0  0  0  0  0  0
    1.7476   -1.4175    0.1420 O   0  0  0  0  0  0  0  0  0  0  0  0
   -1.0853   -1.0259   -0.7635 C   0  0  0  0  0  0  0  0  0  0  0  0
    0.1442    0.5348   -2.1698 C   0  0  0  0  0  0  0  0  0  0  0  0
   -1.0031   -3.7242   -3.9919 N   0  0  0  0  0  0  0  0  0  0  0  0
   -0.6133   -2.2329   -1.6015 C   0  0  0  0  0  0  0  0  0  0  0  0
    0.6535   -0.5978   -3.0725 C   0  0  0  0  0  0  0  0  0  0  0  0
   -0.6575    1.5007    3.4814 C   0  0  0  0  0  0  0  0  0  0  0  0
    0.7365   -0.8453    2.8392 C   0  0  0  0  0  0  0  0  0  0  0  0
    0.1332   -0.7142    4.0954 C   0  0  0  0  0  0  0  0  0  0  0  0
   -0.0832    1.3512    2.2081 C   0  0  0  0  0  0  0  0  0  0  0  0
   -4.0818   -1.2576    8.1723 O   0  0  0  0  0  0  0  0  0  0  0  0
   -3.1282   -1.1953    5.9000 C   0  0  0  0  0  0  0  0  0  0  0  0
   -3.6583    0.8867    7.0860 C   0  0  0  0  0  0  0  0  0  0  0  0
   -3.6569    0.0936    8.3962 C   0  0  0  0  0  0  0  0  0  0  0  0
   -3.2006   -1.9214    7.2559 C   0  0  0  0  0  0  0  0  0  0  0  0
    1.1316   -2.9358   -4.6964 C   0  0  0  0  0  0  0  0  0  0  0  0
   -0.9408   -4.6437   -4.9831 C   0  0  0  0  0  0  0  0  0  0  0  0
    1.1896   -3.9053   -5.6968 C   0  0  0  0  0  0  0  0  0  0  0  0
    0.1222   -4.7706   -5.8564 C   0  0  0  0  0  0  0  0  0  0  0  0
   -1.3357   -1.3225    0.2593 H   0  0  0  0  0  0  0  0  0  0  0  0
   -2.0141   -0.6369   -1.2035 H   0  0  0  0  0  0  0  0  0  0  0  0
   -0.8151    0.8938   -2.5675 H   0  0  0  0  0  0  0  0  0  0  0  0
    0.8187    1.3957   -2.2101 H   0  0  0  0  0  0  0  0  0  0  0  0
    0.1683   -2.7879   -1.0716 H   0  0  0  0  0  0  0  0  0  0  0  0
   -1.4710   -2.9119   -1.6841 H   0  0  0  0  0  0  0  0  0  0  0  0
    1.7186   -0.7756   -2.8885 H   0  0  0  0  0  0  0  0  0  0  0  0
    0.5502   -0.2412   -4.1078 H   0  0  0  0  0  0  0  0  0  0  0  0
   -1.1412    2.4382    3.7547 H   0  0  0  0  0  0  0  0  0  0  0  0
    1.3411   -1.7250    2.6272 H   0  0  0  0  0  0  0  0  0  0  0  0
    0.2369   -1.5166    4.8225 H   0  0  0  0  0  0  0  0  0  0  0  0
   -0.1375    2.1671    1.4909 H   0  0  0  0  0  0  0  0  0  0  0  0
   -4.1193   -1.2287    5.4313 H   0  0  0  0  0  0  0  0  0  0  0  0
   -2.4356   -1.7043    5.2249 H   0  0  0  0  0  0  0  0  0  0  0  0
   -4.6743    0.8970    6.6715 H   0  0  0  0  0  0  0  0  0  0  0  0
   -3.3807    1.9305    7.2613 H   0  0  0  0  0  0  0  0  0  0  0  0
   -2.6744    0.0926    8.8813 H   0  0  0  0  0  0  0  0  0  0  0  0
   -4.3711    0.5436    9.0947 H   0  0  0  0  0  0  0  0  0  0  0  0
   -3.6043   -2.9290    7.1025 H   0  0  0  0  0  0  0  0  0  0  0  0
   -2.2179   -2.0357    7.7241 H   0  0  0  0  0  0  0  0  0  0  0  0
    1.9771   -2.2682   -4.5797 H   0  0  0  0  0  0  0  0  0  0  0  0
   -1.8089   -5.2910   -5.0642 H   0  0  0  0  0  0  0  0  0  0  0  0
    2.0577   -3.9665   -6.3457 H   0  0  0  0  0  0  0  0  0  0  0  0
    0.1197   -5.5230   -6.6358 H   0  0  0  0  0  0  0  0  0  0  0  0
  2  7  1  0  0  0  0
  3  1  1  0  0  0  0
  4  2  1  0  0  0  0
  5 17  1  0  0  0  0
  5 16  1  0  0  0  0
  6  1  1  0  0  0  0
  7 18  2  0  0  0  0
  8  5  1  0  0  0  0
  9  1  2  0  0  0  0
 10  2  2  0  0  0  0
 11  2  2  0  0  0  0
 12  1  2  0  0  0  0
 13  3  1  0  0  0  0
 13 31  1  0  0  0  0
 13 32  1  0  0  0  0
 14  3  1  0  0  0  0
 14 33  1  0  0  0  0
 14 34  1  0  0  0  0
 15  8  2  0  0  0  0
 16 13  1  0  0  0  0
 16 35  1  0  0  0  0
 16 36  1  0  0  0  0
 17 14  1  0  0  0  0
 17 37  1  0  0  0  0
 17 38  1  0  0  0  0
 18 21  1  0  0  0  0
 18 39  1  0  0  0  0
 19  6  1  0  0  0  0
 19 40  1  0  0  0  0
 20 19  2  0  0  0  0
 20  7  1  0  0  0  0
 20 41  1  0  0  0  0
 21  6  2  0  0  0  0
 21 42  1  0  0  0  0
 22 25  1  0  0  0  0
 22 26  1  0  0  0  0
 23  4  1  0  0  0  0
 23 43  1  0  0  0  0
 23 44  1  0  0  0  0
 24  4  1  0  0  0  0
 24 45  1  0  0  0  0
 24 46  1  0  0  0  0
 25 24  1  0  0  0  0
 25 47  1  0  0  0  0
 25 48  1  0  0  0  0
 26 23  1  0  0  0  0
 26 49  1  0  0  0  0
 26 50  1  0  0  0  0
 27  8  1  0  0  0  0
 27 51  1  0  0  0  0
 28 15  1  0  0  0  0
 28 52  1  0  0  0  0
 29 27  2  0  0  0  0
 29 53  1  0  0  0  0
 30 29  1  0  0  0  0
 30 28  2  0  0  0  0
 30 54  1  0  0  0  0
M  END
>  <Mol_ID>
8809

>  <Formula>
C19H24N4O5S2

>  <MolWeight>
452.54766

>  <Cat>
P3073

>  <Name>
WAY-639267

>  <Synonyms>
N/A

>  <Target>
Anti-infection

>  <Form>
free base

>  <CAS>
796056-83-2

>  <URL>
N/A

$$$$
