WAY-661156
 OpenBabel08302521443D

 40 42  0  0  0  0  0  0  0  0999 V2000
   -0.0109    1.2986    0.1388 C   0  0  0  0  0  0  0  0  0  0  0  0
    0.1009    2.6745    0.0060 N   0  0  0  0  0  0  0  0  0  0  0  0
    0.6816    5.4728    0.0610 N   0  0  0  0  0  0  0  0  0  0  0  0
    1.2213    6.6544    0.5318 C   0  0  0  0  0  0  0  0  0  0  0  0
    2.4721    7.1742   -0.0988 C   0  0  0  0  0  0  0  0  0  0  0  0
   -1.0225    0.7943    0.8657 N   0  0  0  0  0  0  0  0  0  0  0  0
    0.8454    0.5114   -0.5384 N   0  0  0  0  0  0  0  0  0  0  0  0
    3.0589    8.2717    0.4111 C   0  0  0  0  0  0  0  0  0  0  0  0
   -0.4628    3.4889    1.0944 C   0  0  0  0  0  0  0  0  0  0  0  0
    1.3671    3.1676   -0.5432 C   0  0  0  0  0  0  0  0  0  0  0  0
   -0.5681    4.9691    0.6598 C   0  0  0  0  0  0  0  0  0  0  0  0
    1.1831    4.6177   -1.0240 C   0  0  0  0  0  0  0  0  0  0  0  0
    0.7016    7.2848    1.4540 O   0  0  0  0  0  0  0  0  0  0  0  0
    4.2736    8.9270   -0.1056 C   0  0  0  0  0  0  0  0  0  0  0  0
   -0.3654   -1.4129    0.2033 C   0  0  0  0  0  0  0  0  0  0  0  0
    0.6535   -0.8204   -0.4921 C   0  0  0  0  0  0  0  0  0  0  0  0
   -1.1827   -0.5441    0.8793 C   0  0  0  0  0  0  0  0  0  0  0  0
    4.6544    8.8884   -1.4527 C   0  0  0  0  0  0  0  0  0  0  0  0
    5.0406    9.7019    0.7787 C   0  0  0  0  0  0  0  0  0  0  0  0
    6.1558   10.4149    0.3299 C   0  0  0  0  0  0  0  0  0  0  0  0
    5.7738    9.6000   -1.9030 C   0  0  0  0  0  0  0  0  0  0  0  0
    6.5195   10.3659   -1.0139 C   0  0  0  0  0  0  0  0  0  0  0  0
    2.8937    6.6825   -0.9574 H   0  0  0  0  0  0  0  0  0  0  0  0
    2.6200    8.7487    1.2881 H   0  0  0  0  0  0  0  0  0  0  0  0
   -1.4680    3.1559    1.3779 H   0  0  0  0  0  0  0  0  0  0  0  0
    0.1825    3.4150    1.9795 H   0  0  0  0  0  0  0  0  0  0  0  0
    2.1479    3.1306    0.2300 H   0  0  0  0  0  0  0  0  0  0  0  0
    1.7074    2.5801   -1.4028 H   0  0  0  0  0  0  0  0  0  0  0  0
   -1.3452    5.0686   -0.1084 H   0  0  0  0  0  0  0  0  0  0  0  0
   -0.8798    5.5773    1.5150 H   0  0  0  0  0  0  0  0  0  0  0  0
    0.4303    4.6486   -1.8225 H   0  0  0  0  0  0  0  0  0  0  0  0
    2.1191    4.9742   -1.4494 H   0  0  0  0  0  0  0  0  0  0  0  0
   -0.5166   -2.4819    0.2145 H   0  0  0  0  0  0  0  0  0  0  0  0
    1.3644   -1.4095   -1.0631 H   0  0  0  0  0  0  0  0  0  0  0  0
   -2.0244   -0.9026    1.4624 H   0  0  0  0  0  0  0  0  0  0  0  0
    4.0764    8.3246   -2.1814 H   0  0  0  0  0  0  0  0  0  0  0  0
    4.7707    9.7635    1.8311 H   0  0  0  0  0  0  0  0  0  0  0  0
    6.7315   11.0165    1.0288 H   0  0  0  0  0  0  0  0  0  0  0  0
    6.0486    9.5700   -2.9543 H   0  0  0  0  0  0  0  0  0  0  0  0
    7.3779   10.9336   -1.3656 H   0  0  0  0  0  0  0  0  0  0  0  0
  2  1  1  0  0  0  0
  3 12  1  0  0  0  0
  3 11  1  0  0  0  0
  4  3  1  0  0  0  0
  5  4  1  0  0  0  0
  5 23  1  0  0  0  0
  6  1  2  0  0  0  0
  7  1  1  0  0  0  0
  8  5  2  0  0  0  0
  8 24  1  0  0  0  0
  9  2  1  0  0  0  0
  9 25  1  0  0  0  0
  9 26  1  0  0  0  0
 10  2  1  0  0  0  0
 10 27  1  0  0  0  0
 10 28  1  0  0  0  0
 11  9  1  0  0  0  0
 11 29  1  0  0  0  0
 11 30  1  0  0  0  0
 12 10  1  0  0  0  0
 12 31  1  0  0  0  0
 12 32  1  0  0  0  0
 13  4  2  0  0  0  0
 14  8  1  0  0  0  0
 15 16  1  0  0  0  0
 15 17  2  0  0  0  0
 15 33  1  0  0  0  0
 16  7  2  0  0  0  0
 16 34  1  0  0  0  0
 17  6  1  0  0  0  0
 17 35  1  0  0  0  0
 18 14  2  0  0  0  0
 18 36  1  0  0  0  0
 19 14  1  0  0  0  0
 19 37  1  0  0  0  0
 20 19  2  0  0  0  0
 20 38  1  0  0  0  0
 21 18  1  0  0  0  0
 21 39  1  0  0  0  0
 22 20  1  0  0  0  0
 22 21  2  0  0  0  0
 22 40  1  0  0  0  0
M  END
>  <Mol_ID>
9128

>  <Formula>
C17H18N4O

>  <MolWeight>
294.35102

>  <Cat>
P3209

>  <Name>
WAY-661156

>  <Synonyms>
N/A

>  <Target>
Androgen Receptor

>  <Form>
free base

>  <CAS>
875157-56-5

>  <URL>
N/A

$$$$
