WAY-311451
 OpenBabel08302521393D

 43 45  0  0  0  0  0  0  0  0999 V2000
   -0.0185    0.7548   -0.1701 C   0  0  0  0  0  0  0  0  0  0  0  0
   -0.1072   -0.6417   -0.2156 C   0  0  0  0  0  0  0  0  0  0  0  0
    1.3381    1.4070   -0.3476 C   0  0  0  0  0  0  0  0  0  0  0  0
   -1.1816    1.5007    0.0130 C   0  0  0  0  0  0  0  0  0  0  0  0
   -1.3495   -1.2709   -0.0764 C   0  0  0  0  0  0  0  0  0  0  0  0
    1.1643   -1.4096   -0.4050 C   0  0  0  0  0  0  0  0  0  0  0  0
    2.4065    0.6817    0.3742 N   0  0  0  0  0  0  0  0  0  0  0  0
   -2.4340    0.8827    0.1874 C   0  0  0  0  0  0  0  0  0  0  0  0
   -2.5170   -0.5211    0.1359 C   0  0  0  0  0  0  0  0  0  0  0  0
    2.2617   -0.7855    0.4627 C   0  0  0  0  0  0  0  0  0  0  0  0
    3.5625    1.3156    0.8838 C   0  0  0  0  0  0  0  0  0  0  0  0
   -3.5872    1.5870    0.4131 O   0  0  0  0  0  0  0  0  0  0  0  0
   -3.6224   -1.3210    0.2717 O   0  0  0  0  0  0  0  0  0  0  0  0
    3.3584    2.6274    1.3017 N   0  0  0  0  0  0  0  0  0  0  0  0
    5.0255    0.4953    1.1104 S   0  0  0  0  0  0  0  0  0  0  0  0
   -3.5224    3.0038    0.4725 C   0  0  0  0  0  0  0  0  0  0  0  0
   -4.8878   -0.7163    0.4946 C   0  0  0  0  0  0  0  0  0  0  0  0
    4.3393    3.6547    1.3936 C   0  0  0  0  0  0  0  0  0  0  0  0
    5.4060    3.7238    0.4893 C   0  0  0  0  0  0  0  0  0  0  0  0
    4.2198    4.6434    2.3739 C   0  0  0  0  0  0  0  0  0  0  0  0
    6.3805    4.7206    0.6115 C   0  0  0  0  0  0  0  0  0  0  0  0
    5.1922    5.6483    2.4888 C   0  0  0  0  0  0  0  0  0  0  0  0
    6.2837    5.6765    1.6160 C   0  0  0  0  0  0  0  0  0  0  0  0
    1.3088    2.4574   -0.0566 H   0  0  0  0  0  0  0  0  0  0  0  0
    1.5933    1.3777   -1.4168 H   0  0  0  0  0  0  0  0  0  0  0  0
   -1.0895    2.5841    0.0361 H   0  0  0  0  0  0  0  0  0  0  0  0
   -1.4165   -2.3533   -0.1128 H   0  0  0  0  0  0  0  0  0  0  0  0
    1.4472   -1.3805   -1.4639 H   0  0  0  0  0  0  0  0  0  0  0  0
    1.0375   -2.4612   -0.1218 H   0  0  0  0  0  0  0  0  0  0  0  0
    3.2039   -1.2908    0.2321 H   0  0  0  0  0  0  0  0  0  0  0  0
    2.0361   -0.9801    1.5188 H   0  0  0  0  0  0  0  0  0  0  0  0
    2.6001    2.7063    1.9832 H   0  0  0  0  0  0  0  0  0  0  0  0
   -2.8574    3.3391    1.2750 H   0  0  0  0  0  0  0  0  0  0  0  0
   -3.2258    3.4215   -0.4948 H   0  0  0  0  0  0  0  0  0  0  0  0
   -4.5271    3.3722    0.7017 H   0  0  0  0  0  0  0  0  0  0  0  0
   -4.9103   -0.1840    1.4508 H   0  0  0  0  0  0  0  0  0  0  0  0
   -5.1766   -0.0748   -0.3440 H   0  0  0  0  0  0  0  0  0  0  0  0
   -5.6335   -1.5160    0.5556 H   0  0  0  0  0  0  0  0  0  0  0  0
    5.5001    3.0101   -0.3220 H   0  0  0  0  0  0  0  0  0  0  0  0
    3.3921    4.6443    3.0739 H   0  0  0  0  0  0  0  0  0  0  0  0
    7.2227    4.7339   -0.0775 H   0  0  0  0  0  0  0  0  0  0  0  0
    5.1135    6.4023    3.2708 H   0  0  0  0  0  0  0  0  0  0  0  0
    7.0522    6.4376    1.7210 H   0  0  0  0  0  0  0  0  0  0  0  0
  1  2  2  0  0  0  0
  1  3  1  0  0  0  0
  1  4  1  0  0  0  0
  2  5  1  0  0  0  0
  2  6  1  0  0  0  0
  3  7  1  0  0  0  0
  3 24  1  0  0  0  0
  3 25  1  0  0  0  0
  4  8  2  0  0  0  0
  4 26  1  0  0  0  0
  5  9  2  0  0  0  0
  5 27  1  0  0  0  0
  6 10  1  0  0  0  0
  6 28  1  0  0  0  0
  6 29  1  0  0  0  0
  7 11  1  0  0  0  0
  7 10  1  0  0  0  0
  8 12  1  0  0  0  0
  8  9  1  0  0  0  0
  9 13  1  0  0  0  0
 10 30  1  0  0  0  0
 10 31  1  0  0  0  0
 11 14  1  0  0  0  0
 11 15  2  0  0  0  0
 12 16  1  0  0  0  0
 13 17  1  0  0  0  0
 14 18  1  0  0  0  0
 14 32  1  0  0  0  0
 16 33  1  0  0  0  0
 16 34  1  0  0  0  0
 16 35  1  0  0  0  0
 17 36  1  0  0  0  0
 17 37  1  0  0  0  0
 17 38  1  0  0  0  0
 18 19  2  0  0  0  0
 18 20  1  0  0  0  0
 19 21  1  0  0  0  0
 19 39  1  0  0  0  0
 20 22  2  0  0  0  0
 20 40  1  0  0  0  0
 21 23  2  0  0  0  0
 21 41  1  0  0  0  0
 22 23  1  0  0  0  0
 22 42  1  0  0  0  0
 23 43  1  0  0  0  0
M  END
>  <Mol_ID>
8138

>  <Formula>
C18H20N2O2S

>  <MolWeight>
328.4286

>  <Cat>
P2203

>  <Name>
WAY-311451

>  <Synonyms>
N/A

>  <Target>
others

>  <Form>
free base

>  <CAS>
332032-79-8

>  <URL>
N/A

$$$$
