WAY-324216
 OpenBabel08302521423D

 48 51  0  0  0  0  0  0  0  0999 V2000
    0.0109    0.5564   -0.8479 C   0  0  3  0  0  0  0  0  0  0  0  0
   -0.2738   -0.5379    0.2010 C   0  0  3  0  0  0  0  0  0  0  0  0
    1.3905    1.0272   -0.4556 C   0  0  0  0  0  0  0  0  0  0  0  0
    1.9886   -0.0323    0.2444 N   0  0  0  0  0  0  0  0  0  0  0  0
   -1.3438    1.2836   -0.9360 C   0  0  3  0  0  0  0  0  0  0  0  0
   -2.2221    0.3448   -0.0646 C   0  0  3  0  0  0  0  0  0  0  0  0
   -1.2794    0.1032    1.0172 O   0  0  0  0  0  0  0  0  0  0  0  0
    1.0088   -0.8455    0.9267 C   0  0  0  0  0  0  0  0  0  0  0  0
   -1.6785    2.6816   -0.4698 C   0  0  0  0  0  0  0  0  0  0  0  0
   -1.0978   -1.6134   -0.4314 C   0  0  0  0  0  0  0  0  0  0  0  0
   -2.2979   -1.0534   -0.6320 C   0  0  0  0  0  0  0  0  0  0  0  0
    3.4123   -0.1989    0.5140 C   0  0  0  0  0  0  0  0  0  0  0  0
    1.9542    2.0214   -0.8795 O   0  0  0  0  0  0  0  0  0  0  0  0
   -0.6473    3.5374   -0.2694 O   0  0  0  0  0  0  0  0  0  0  0  0
   -2.8629    3.0339   -0.3764 O   0  0  0  0  0  0  0  0  0  0  0  0
    4.0028   -1.4705   -0.0865 C   0  0  0  0  0  0  0  0  0  0  0  0
   -1.1146    4.8741    0.0323 C   0  0  0  0  0  0  0  0  0  0  0  0
    0.0168    5.8870    0.2516 C   0  0  0  0  0  0  0  0  0  0  0  0
    4.0391   -1.6658   -1.4767 C   0  0  0  0  0  0  0  0  0  0  0  0
    4.5966   -2.4505    0.7297 C   0  0  0  0  0  0  0  0  0  0  0  0
    0.8637    5.5376    1.4714 C   0  0  0  0  0  0  0  0  0  0  0  0
    0.8902    6.0315   -0.9912 C   0  0  0  0  0  0  0  0  0  0  0  0
    5.2180   -3.5777    0.1726 C   0  0  0  0  0  0  0  0  0  0  0  0
    4.6614   -2.7930   -2.0323 C   0  0  0  0  0  0  0  0  0  0  0  0
    5.2550   -3.7468   -1.2079 C   0  0  0  0  0  0  0  0  0  0  0  0
    0.1871    0.0909   -1.8310 H   0  0  0  0  0  0  0  0  0  0  0  0
   -1.6861    1.2600   -1.9801 H   0  0  0  0  0  0  0  0  0  0  0  0
   -3.1700    0.7132    0.3341 H   0  0  0  0  0  0  0  0  0  0  0  0
    1.2916   -1.8997    0.8886 H   0  0  0  0  0  0  0  0  0  0  0  0
    0.9728   -0.5074    1.9689 H   0  0  0  0  0  0  0  0  0  0  0  0
   -0.7594   -2.5898   -0.7372 H   0  0  0  0  0  0  0  0  0  0  0  0
   -3.1488   -1.4988   -1.1223 H   0  0  0  0  0  0  0  0  0  0  0  0
    3.9665    0.6596    0.1224 H   0  0  0  0  0  0  0  0  0  0  0  0
    3.5364   -0.2051    1.6027 H   0  0  0  0  0  0  0  0  0  0  0  0
   -1.7335    5.2289   -0.8023 H   0  0  0  0  0  0  0  0  0  0  0  0
   -1.7393    4.8451    0.9355 H   0  0  0  0  0  0  0  0  0  0  0  0
   -0.4512    6.8620    0.4435 H   0  0  0  0  0  0  0  0  0  0  0  0
    3.6032   -0.9239   -2.1421 H   0  0  0  0  0  0  0  0  0  0  0  0
    4.6019   -2.3396    1.8117 H   0  0  0  0  0  0  0  0  0  0  0  0
    1.3599    4.5697    1.3546 H   0  0  0  0  0  0  0  0  0  0  0  0
    1.6348    6.2988    1.6355 H   0  0  0  0  0  0  0  0  0  0  0  0
    0.2434    5.4994    2.3736 H   0  0  0  0  0  0  0  0  0  0  0  0
    1.4135    5.1010   -1.2264 H   0  0  0  0  0  0  0  0  0  0  0  0
    0.2830    6.3138   -1.8582 H   0  0  0  0  0  0  0  0  0  0  0  0
    1.6400    6.8173   -0.8448 H   0  0  0  0  0  0  0  0  0  0  0  0
    5.6881   -4.3181    0.8182 H   0  0  0  0  0  0  0  0  0  0  0  0
    4.6981   -2.9190   -3.1122 H   0  0  0  0  0  0  0  0  0  0  0  0
    5.7518   -4.6139   -1.6421 H   0  0  0  0  0  0  0  0  0  0  0  0
  1 26  1  0  0  0  0
  2  1  1  0  0  0  0
  3  1  1  0  0  0  0
  4  3  1  0  0  0  0
  5  1  1  0  0  0  0
  5 27  1  0  0  0  0
  6  5  1  0  0  0  0
  6  7  1  0  0  0  0
  6 28  1  0  0  0  0
  7  2  1  0  0  0  0
  8  2  1  0  0  0  0
  8  4  1  0  0  0  0
  8 29  1  0  0  0  0
  8 30  1  0  0  0  0
  9  5  1  0  0  0  0
 10  2  1  0  0  0  0
 10 11  2  0  0  0  0
 10 31  1  0  0  0  0
 11  6  1  0  0  0  0
 11 32  1  0  0  0  0
 12  4  1  0  0  0  0
 12 33  1  0  0  0  0
 12 34  1  0  0  0  0
 13  3  2  0  0  0  0
 14  9  1  0  0  0  0
 15  9  2  0  0  0  0
 16 12  1  0  0  0  0
 17 14  1  0  0  0  0
 17 35  1  0  0  0  0
 17 36  1  0  0  0  0
 18 17  1  0  0  0  0
 18 37  1  0  0  0  0
 19 16  2  0  0  0  0
 19 38  1  0  0  0  0
 20 16  1  0  0  0  0
 20 39  1  0  0  0  0
 21 18  1  0  0  0  0
 21 40  1  0  0  0  0
 21 41  1  0  0  0  0
 21 42  1  0  0  0  0
 22 18  1  0  0  0  0
 22 43  1  0  0  0  0
 22 44  1  0  0  0  0
 22 45  1  0  0  0  0
 23 20  2  0  0  0  0
 23 46  1  0  0  0  0
 24 19  1  0  0  0  0
 24 47  1  0  0  0  0
 25 23  1  0  0  0  0
 25 24  2  0  0  0  0
 25 48  1  0  0  0  0
M  END
>  <Mol_ID>
8613

>  <Formula>
C20H23NO4

>  <MolWeight>
341.40092

>  <Cat>
P2310

>  <Name>
WAY-324216

>  <Synonyms>
N/A

>  <Target>
others

>  <Form>
free base

>  <CAS>
1146620-92-9

>  <URL>
N/A

$$$$
