WAY-657021
 OpenBabel08302521423D

 31 32  0  0  0  0  0  0  0  0999 V2000
   -0.9784    1.6874    3.0037 N   0  3  0  0  0  0  0  0  0  0  0  0
    4.0910   -0.9545   -0.0752 N   0  0  0  0  0  0  0  0  0  0  0  0
    0.2724    2.3891    3.3281 C   0  0  0  0  0  0  0  0  0  0  0  0
    2.9605   -0.8109    0.7403 C   0  0  0  0  0  0  0  0  0  0  0  0
    5.0081    0.0311   -0.4686 C   0  0  0  0  0  0  0  0  0  0  0  0
   -0.9853    0.8581    2.0807 O   0  5  0  0  0  0  0  0  0  0  0  0
    1.5251    1.9650    2.8450 C   0  0  0  0  0  0  0  0  0  0  0  0
   -1.9957    2.0084    3.6413 O   0  0  0  0  0  0  0  0  0  0  0  0
    1.6408    0.7535    2.2030 O   0  0  0  0  0  0  0  0  0  0  0  0
    2.8203    0.5582    1.4281 C   0  0  0  0  0  0  0  0  0  0  0  0
    5.1239    1.1616   -0.0229 O   0  0  0  0  0  0  0  0  0  0  0  0
    2.1518   -1.7250    0.8915 O   0  0  0  0  0  0  0  0  0  0  0  0
    4.3087   -2.1795   -0.8079 C   0  0  0  0  0  0  0  0  0  0  0  0
    0.1604    3.5699    4.0985 C   0  0  0  0  0  0  0  0  0  0  0  0
    5.8519   -0.5312   -1.5839 C   0  0  0  0  0  0  0  0  0  0  0  0
    5.6899   -2.0305   -1.4108 C   0  0  0  0  0  0  0  0  0  0  0  0
    2.6368    2.7864    3.1092 C   0  0  0  0  0  0  0  0  0  0  0  0
    1.2846    4.3490    4.3609 C   0  0  0  0  0  0  0  0  0  0  0  0
    2.5166    3.9656    3.8509 C   0  0  0  0  0  0  0  0  0  0  0  0
    2.8313    1.3242    0.6464 H   0  0  0  0  0  0  0  0  0  0  0  0
    3.6985    0.6195    2.0805 H   0  0  0  0  0  0  0  0  0  0  0  0
    3.5352   -2.2660   -1.5786 H   0  0  0  0  0  0  0  0  0  0  0  0
    4.2403   -3.0461   -0.1419 H   0  0  0  0  0  0  0  0  0  0  0  0
   -0.7987    3.8971    4.4937 H   0  0  0  0  0  0  0  0  0  0  0  0
    5.4469   -0.1855   -2.5400 H   0  0  0  0  0  0  0  0  0  0  0  0
    6.8946   -0.2206   -1.4825 H   0  0  0  0  0  0  0  0  0  0  0  0
    5.8055   -2.5795   -2.3503 H   0  0  0  0  0  0  0  0  0  0  0  0
    6.4493   -2.4013   -0.7111 H   0  0  0  0  0  0  0  0  0  0  0  0
    3.6353    2.5400    2.7612 H   0  0  0  0  0  0  0  0  0  0  0  0
    1.1962    5.2584    4.9507 H   0  0  0  0  0  0  0  0  0  0  0  0
    3.3981    4.5768    4.0350 H   0  0  0  0  0  0  0  0  0  0  0  0
  2  4  1  0  0  0  0
  3  1  1  0  0  0  0
  4 10  1  0  0  0  0
  5  2  1  0  0  0  0
  6  1  1  0  0  0  0
  7  3  2  0  0  0  0
  8  1  2  0  0  0  0
  9  7  1  0  0  0  0
 10  9  1  0  0  0  0
 10 20  1  0  0  0  0
 10 21  1  0  0  0  0
 11  5  2  0  0  0  0
 12  4  2  0  0  0  0
 13  2  1  0  0  0  0
 13 22  1  0  0  0  0
 13 23  1  0  0  0  0
 14  3  1  0  0  0  0
 14 24  1  0  0  0  0
 15  5  1  0  0  0  0
 15 16  1  0  0  0  0
 15 25  1  0  0  0  0
 15 26  1  0  0  0  0
 16 13  1  0  0  0  0
 16 27  1  0  0  0  0
 16 28  1  0  0  0  0
 17  7  1  0  0  0  0
 17 29  1  0  0  0  0
 18 14  2  0  0  0  0
 18 30  1  0  0  0  0
 19 18  1  0  0  0  0
 19 17  2  0  0  0  0
 19 31  1  0  0  0  0
M  CHG  2   1   1   6  -1
M  END
>  <Mol_ID>
8538

>  <Formula>
C12H12N2O5

>  <MolWeight>
264.23408

>  <Cat>
P3149

>  <Name>
WAY-657021

>  <Synonyms>
N/A

>  <Target>
Anti-infection

>  <Form>
free base

>  <CAS>
852906-23-1

>  <URL>
N/A

$$$$
