WAY-311788
 OpenBabel08302521393D

 43 45  0  0  0  0  0  0  0  0999 V2000
    1.1425   -0.0908   -0.0439 C   0  0  0  0  0  0  0  0  0  0  0  0
    0.4786   -1.1779   -0.4751 C   0  0  0  0  0  0  0  0  0  0  0  0
    0.2665    0.9675    0.5860 C   0  0  0  0  0  0  0  0  0  0  0  0
    2.5176    0.0358   -0.0127 N   0  0  0  0  0  0  0  0  0  0  0  0
    1.0704   -2.4130   -0.8516 C   0  0  0  0  0  0  0  0  0  0  0  0
    0.7943    2.2437    0.5637 N   0  0  0  0  0  0  0  0  0  0  0  0
   -0.8277    0.6545    1.0492 O   0  0  0  0  0  0  0  0  0  0  0  0
    3.2308    0.5156   -1.0967 C   0  0  0  0  0  0  0  0  0  0  0  0
    0.4157   -3.5522   -1.3117 C   0  0  0  0  0  0  0  0  0  0  0  0
    2.4057   -2.7320   -0.7326 O   0  0  0  0  0  0  0  0  0  0  0  0
    0.1758    3.3991    1.0959 C   0  0  0  0  0  0  0  0  0  0  0  0
    4.7139    0.5978   -0.9499 C   0  0  0  0  0  0  0  0  0  0  0  0
    2.6929    0.9661   -2.1046 O   0  0  0  0  0  0  0  0  0  0  0  0
    1.3671   -4.5876   -1.4393 C   0  0  0  0  0  0  0  0  0  0  0  0
    2.5676   -4.0305   -1.0838 C   0  0  0  0  0  0  0  0  0  0  0  0
   -0.9268    3.3497    1.9618 C   0  0  0  0  0  0  0  0  0  0  0  0
    0.6909    4.6516    0.7370 C   0  0  0  0  0  0  0  0  0  0  0  0
    5.4538   -0.2851   -0.1537 C   0  0  0  0  0  0  0  0  0  0  0  0
    5.3786    1.6105   -1.6570 C   0  0  0  0  0  0  0  0  0  0  0  0
   -1.5328    4.5198    2.4331 C   0  0  0  0  0  0  0  0  0  0  0  0
    0.0902    5.8318    1.2000 C   0  0  0  0  0  0  0  0  0  0  0  0
    6.8414   -0.1220   -0.0375 C   0  0  0  0  0  0  0  0  0  0  0  0
    6.7577    1.7731   -1.5329 C   0  0  0  0  0  0  0  0  0  0  0  0
   -1.0269    5.7601    2.0432 C   0  0  0  0  0  0  0  0  0  0  0  0
    7.4883    0.9110   -0.7170 C   0  0  0  0  0  0  0  0  0  0  0  0
   -1.6733    6.9900    2.5195 N   0  3  0  0  0  0  0  0  0  0  0  0
   -2.6536    6.8742    3.2698 O   0  0  0  0  0  0  0  0  0  0  0  0
   -1.1991    8.0711    2.1440 O   0  5  0  0  0  0  0  0  0  0  0  0
   -0.6104   -1.1658   -0.4706 H   0  0  0  0  0  0  0  0  0  0  0  0
    2.9750   -0.1093    0.8786 H   0  0  0  0  0  0  0  0  0  0  0  0
    1.6201    2.3746   -0.0106 H   0  0  0  0  0  0  0  0  0  0  0  0
   -0.6498   -3.6293   -1.4961 H   0  0  0  0  0  0  0  0  0  0  0  0
    1.1937   -5.6106   -1.7413 H   0  0  0  0  0  0  0  0  0  0  0  0
    3.5764   -4.4107   -1.0161 H   0  0  0  0  0  0  0  0  0  0  0  0
   -1.3463    2.4066    2.3004 H   0  0  0  0  0  0  0  0  0  0  0  0
    1.5482    4.7286    0.0731 H   0  0  0  0  0  0  0  0  0  0  0  0
    4.9792   -1.1194    0.3563 H   0  0  0  0  0  0  0  0  0  0  0  0
    4.8202    2.2812   -2.3065 H   0  0  0  0  0  0  0  0  0  0  0  0
   -2.3942    4.4352    3.0934 H   0  0  0  0  0  0  0  0  0  0  0  0
    0.4944    6.7922    0.8866 H   0  0  0  0  0  0  0  0  0  0  0  0
    7.4226   -0.8054    0.5756 H   0  0  0  0  0  0  0  0  0  0  0  0
    7.2639    2.5677   -2.0795 H   0  0  0  0  0  0  0  0  0  0  0  0
    8.5649    1.0390   -0.6216 H   0  0  0  0  0  0  0  0  0  0  0  0
  1  2  2  0  0  0  0
  1  3  1  0  0  0  0
  1  4  1  0  0  0  0
  2  5  1  0  0  0  0
  2 29  1  0  0  0  0
  3  6  1  0  0  0  0
  3  7  2  0  0  0  0
  4  8  1  0  0  0  0
  4 30  1  0  0  0  0
  5  9  2  0  0  0  0
  5 10  1  0  0  0  0
  6 11  1  0  0  0  0
  6 31  1  0  0  0  0
  8 12  1  0  0  0  0
  8 13  2  0  0  0  0
  9 14  1  0  0  0  0
  9 32  1  0  0  0  0
 10 15  1  0  0  0  0
 11 16  2  0  0  0  0
 11 17  1  0  0  0  0
 12 18  2  0  0  0  0
 12 19  1  0  0  0  0
 14 15  2  0  0  0  0
 14 33  1  0  0  0  0
 15 34  1  0  0  0  0
 16 20  1  0  0  0  0
 16 35  1  0  0  0  0
 17 21  2  0  0  0  0
 17 36  1  0  0  0  0
 18 22  1  0  0  0  0
 18 37  1  0  0  0  0
 19 23  2  0  0  0  0
 19 38  1  0  0  0  0
 20 24  2  0  0  0  0
 20 39  1  0  0  0  0
 21 24  1  0  0  0  0
 21 40  1  0  0  0  0
 22 25  2  0  0  0  0
 22 41  1  0  0  0  0
 23 25  1  0  0  0  0
 23 42  1  0  0  0  0
 24 26  1  0  0  0  0
 25 43  1  0  0  0  0
 26 27  2  0  0  0  0
 26 28  1  0  0  0  0
M  CHG  2  26   1  28  -1
M  END
>  <Mol_ID>
8043

>  <Formula>
C20H15N3O5

>  <MolWeight>
377.3502

>  <Cat>
P2218

>  <Name>
WAY-311788

>  <Synonyms>
N/A

>  <Target>
others

>  <Form>
free base

>  <CAS>
332105-99-4

>  <URL>
N/A

$$$$
