WAY-310880
 OpenBabel08302521393D

 61 63  0  0  0  0  0  0  0  0999 V2000
    1.0087   -0.0798   -0.3391 N   0  0  0  0  0  0  0  0  0  0  0  0
    0.2826    1.1520   -0.4468 C   0  0  0  0  0  0  0  0  0  0  0  0
    0.1968   -1.4715    0.2056 S   0  0  0  0  0  0  0  0  0  0  0  0
    2.4574   -0.0438   -0.1675 C   0  0  0  0  0  0  0  0  0  0  0  0
   -0.3300    1.4299   -1.6721 C   0  0  0  0  0  0  0  0  0  0  0  0
    0.1532    2.0721    0.5990 C   0  0  0  0  0  0  0  0  0  0  0  0
    0.4057   -1.4083    1.9775 C   0  0  0  0  0  0  0  0  0  0  0  0
   -1.2349   -1.3524   -0.0749 O   0  0  0  0  0  0  0  0  0  0  0  0
    0.9398   -2.6337   -0.2370 O   0  0  0  0  0  0  0  0  0  0  0  0
    3.3427   -0.1241   -1.4022 C   0  0  0  0  0  0  0  0  0  0  0  0
   -1.0054    2.6423   -1.8904 C   0  0  0  0  0  0  0  0  0  0  0  0
   -0.5956    3.2476    0.4141 C   0  0  0  0  0  0  0  0  0  0  0  0
   -0.5605   -0.8143    2.7913 C   0  0  0  0  0  0  0  0  0  0  0  0
    1.5453   -1.9934    2.5491 C   0  0  0  0  0  0  0  0  0  0  0  0
    4.7095   -0.1976   -1.1118 N   0  0  0  0  0  0  0  0  0  0  0  0
    2.9149   -0.1226   -2.5567 O   0  0  0  0  0  0  0  0  0  0  0  0
   -1.1614    3.5376   -0.8300 C   0  0  0  0  0  0  0  0  0  0  0  0
   -1.5236    2.9809   -3.2579 C   0  0  0  0  0  0  0  0  0  0  0  0
   -0.3507   -0.7504    4.1727 C   0  0  0  0  0  0  0  0  0  0  0  0
    1.7583   -1.9120    3.9252 C   0  0  0  0  0  0  0  0  0  0  0  0
    5.2486   -0.2001    0.2520 C   0  0  0  0  0  0  0  0  0  0  0  0
    5.6728   -0.6291   -2.1304 C   0  0  0  0  0  0  0  0  0  0  0  0
    0.8155   -1.2801    4.7456 C   0  0  0  0  0  0  0  0  0  0  0  0
    6.5492    0.5877    0.3580 C   0  0  0  0  0  0  0  0  0  0  0  0
    6.9701    0.2074   -2.0320 C   0  0  0  0  0  0  0  0  0  0  0  0
    1.0807   -1.1485    6.2167 C   0  0  0  0  0  0  0  0  0  0  0  0
    7.5376    0.1549   -0.6567 N   0  0  0  0  0  0  0  0  0  0  0  0
    8.7813   -0.2555   -0.2092 C   0  0  0  0  0  0  0  0  0  0  0  0
    9.6653   -0.6524   -1.1884 O   0  0  0  0  0  0  0  0  0  0  0  0
    9.0805   -0.2656    0.9882 O   0  0  0  0  0  0  0  0  0  0  0  0
   11.0063   -1.1169   -0.8222 C   0  0  0  0  0  0  0  0  0  0  0  0
   11.9924    0.0235   -0.5785 C   0  0  0  0  0  0  0  0  0  0  0  0
    2.7411    0.8596    0.3813 H   0  0  0  0  0  0  0  0  0  0  0  0
    2.7751   -0.9032    0.4434 H   0  0  0  0  0  0  0  0  0  0  0  0
   -0.2696    0.6983   -2.4723 H   0  0  0  0  0  0  0  0  0  0  0  0
    0.6097    1.8959    1.5695 H   0  0  0  0  0  0  0  0  0  0  0  0
   -0.7308    3.9444    1.2366 H   0  0  0  0  0  0  0  0  0  0  0  0
   -1.4600   -0.3805    2.3620 H   0  0  0  0  0  0  0  0  0  0  0  0
    2.2874   -2.4928    1.9295 H   0  0  0  0  0  0  0  0  0  0  0  0
   -1.7150    4.4623   -0.9692 H   0  0  0  0  0  0  0  0  0  0  0  0
   -2.6161    3.0320   -3.2590 H   0  0  0  0  0  0  0  0  0  0  0  0
   -1.1147    3.9439   -3.5826 H   0  0  0  0  0  0  0  0  0  0  0  0
   -1.2123    2.2343   -3.9958 H   0  0  0  0  0  0  0  0  0  0  0  0
   -1.0970   -0.2653    4.7996 H   0  0  0  0  0  0  0  0  0  0  0  0
    2.6688   -2.3281    4.3529 H   0  0  0  0  0  0  0  0  0  0  0  0
    4.5395    0.2180    0.9670 H   0  0  0  0  0  0  0  0  0  0  0  0
    5.3900   -1.2523    0.5137 H   0  0  0  0  0  0  0  0  0  0  0  0
    5.8811   -1.6860   -1.9092 H   0  0  0  0  0  0  0  0  0  0  0  0
    5.2346   -0.5840   -3.1314 H   0  0  0  0  0  0  0  0  0  0  0  0
    6.3572    1.6531    0.1879 H   0  0  0  0  0  0  0  0  0  0  0  0
    6.9376    0.4849    1.3751 H   0  0  0  0  0  0  0  0  0  0  0  0
    6.6881    1.2576   -2.2093 H   0  0  0  0  0  0  0  0  0  0  0  0
    7.6874   -0.0820   -2.7978 H   0  0  0  0  0  0  0  0  0  0  0  0
    1.2285   -2.1340    6.6685 H   0  0  0  0  0  0  0  0  0  0  0  0
    1.9774   -0.5400    6.3767 H   0  0  0  0  0  0  0  0  0  0  0  0
    0.2480   -0.6606    6.7323 H   0  0  0  0  0  0  0  0  0  0  0  0
   10.9995   -1.8382    0.0110 H   0  0  0  0  0  0  0  0  0  0  0  0
   11.3733   -1.6814   -1.6893 H   0  0  0  0  0  0  0  0  0  0  0  0
   11.5274    0.8665   -0.0658 H   0  0  0  0  0  0  0  0  0  0  0  0
   12.8698   -0.3057   -0.0012 H   0  0  0  0  0  0  0  0  0  0  0  0
   12.3754    0.4004   -1.5341 H   0  0  0  0  0  0  0  0  0  0  0  0
  1  2  1  0  0  0  0
  1  3  1  0  0  0  0
  1  4  1  0  0  0  0
  2  5  2  0  0  0  0
  2  6  1  0  0  0  0
  3  7  1  0  0  0  0
  3  8  2  0  0  0  0
  3  9  2  0  0  0  0
  4 10  1  0  0  0  0
  4 33  1  0  0  0  0
  4 34  1  0  0  0  0
  5 11  1  0  0  0  0
  5 35  1  0  0  0  0
  6 12  2  0  0  0  0
  6 36  1  0  0  0  0
  7 13  2  0  0  0  0
  7 14  1  0  0  0  0
 10 15  1  0  0  0  0
 10 16  2  0  0  0  0
 11 17  2  0  0  0  0
 11 18  1  0  0  0  0
 12 17  1  0  0  0  0
 12 37  1  0  0  0  0
 13 19  1  0  0  0  0
 13 38  1  0  0  0  0
 14 20  2  0  0  0  0
 14 39  1  0  0  0  0
 15 21  1  0  0  0  0
 15 22  1  0  0  0  0
 17 40  1  0  0  0  0
 18 41  1  0  0  0  0
 18 42  1  0  0  0  0
 18 43  1  0  0  0  0
 19 23  2  0  0  0  0
 19 44  1  0  0  0  0
 20 23  1  0  0  0  0
 20 45  1  0  0  0  0
 21 24  1  0  0  0  0
 21 46  1  0  0  0  0
 21 47  1  0  0  0  0
 22 25  1  0  0  0  0
 22 48  1  0  0  0  0
 22 49  1  0  0  0  0
 23 26  1  0  0  0  0
 24 27  1  0  0  0  0
 24 50  1  0  0  0  0
 24 51  1  0  0  0  0
 25 27  1  0  0  0  0
 25 52  1  0  0  0  0
 25 53  1  0  0  0  0
 26 54  1  0  0  0  0
 26 55  1  0  0  0  0
 26 56  1  0  0  0  0
 27 28  1  0  0  0  0
 28 29  1  0  0  0  0
 28 30  2  0  0  0  0
 29 31  1  0  0  0  0
 31 32  1  0  0  0  0
 31 57  1  0  0  0  0
 31 58  1  0  0  0  0
 32 59  1  0  0  0  0
 32 60  1  0  0  0  0
 32 61  1  0  0  0  0
M  END
>  <Mol_ID>
8131

>  <Formula>
C23H29N3O5S

>  <MolWeight>
459.55846

>  <Cat>
P2189

>  <Name>
WAY-310880

>  <Synonyms>
N/A

>  <Target>
others

>  <Form>
free base

>  <CAS>
505051-15-0

>  <URL>
N/A

$$$$
