WAY-359375-A
 OpenBabel08302521393D

 60 62  0  0  0  0  0  0  0  0999 V2000
    1.2913    0.4307   -0.0311 C   0  0  0  0  0  0  0  0  0  0  0  0
    1.0063   -0.1054    1.2081 N   0  0  0  0  0  0  0  0  0  0  0  0
   -2.0978    3.0404    2.2980 C   0  0  0  0  0  0  0  0  0  0  0  0
    2.5308    0.2096   -0.5576 N   0  0  0  0  0  0  0  0  0  0  0  0
   -0.1968   -0.7403    3.8375 N   0  0  0  0  0  0  0  0  0  0  0  0
    0.2703    1.4263   -0.9147 S   0  0  0  0  0  0  0  0  0  0  0  0
   -1.4449    4.2419    2.4694 N   0  0  0  0  0  0  0  0  0  0  0  0
   -3.1544    2.8540    1.0238 S   0  0  0  0  0  0  0  0  0  0  0  0
    1.1889    0.8114    2.3403 C   0  0  0  0  0  0  0  0  0  0  0  0
   -0.1964   -0.9344    1.3137 C   0  0  0  0  0  0  0  0  0  0  0  0
   -1.7344    2.0612    3.1873 N   0  0  0  0  0  0  0  0  0  0  0  0
    3.5699   -0.6760   -0.2242 C   0  0  0  0  0  0  0  0  0  0  0  0
   -0.3050   -1.6336    2.6766 C   0  0  0  0  0  0  0  0  0  0  0  0
    0.9632    0.1528    3.7154 C   0  0  0  0  0  0  0  0  0  0  0  0
   -0.9317    4.7639    3.6754 C   0  0  0  0  0  0  0  0  0  0  0  0
    0.2252    5.6778    6.0645 C   0  0  0  0  0  0  0  0  0  0  0  0
    5.7669   -2.3662    0.2578 C   0  0  0  0  0  0  0  0  0  0  0  0
    3.4781   -1.7101    0.7077 C   0  0  0  0  0  0  0  0  0  0  0  0
    4.7640   -0.5206   -0.9385 C   0  0  0  0  0  0  0  0  0  0  0  0
    0.1180    5.6797    3.6362 C   0  0  0  0  0  0  0  0  0  0  0  0
   -1.4628    4.3909    4.9135 C   0  0  0  0  0  0  0  0  0  0  0  0
   -2.3216    0.7495    3.3901 C   0  0  0  0  0  0  0  0  0  0  0  0
    0.7087    6.1221    4.8311 C   0  0  0  0  0  0  0  0  0  0  0  0
    5.8521   -1.3613   -0.7017 C   0  0  0  0  0  0  0  0  0  0  0  0
    4.5723   -2.5540    0.9489 C   0  0  0  0  0  0  0  0  0  0  0  0
   -0.8823    4.8352    6.0971 C   0  0  0  0  0  0  0  0  0  0  0  0
   -1.4613   -0.1551    4.3007 C   0  0  0  0  0  0  0  0  0  0  0  0
    0.7216    5.9898    7.2977 O   0  0  0  0  0  0  0  0  0  0  0  0
    6.8845   -3.1415    0.3942 O   0  0  0  0  0  0  0  0  0  0  0  0
    1.9459    6.7079    7.3379 C   0  0  0  0  0  0  0  0  0  0  0  0
    7.1372   -3.6029    1.7165 C   0  0  0  0  0  0  0  0  0  0  0  0
    2.6857    0.7696   -1.3886 H   0  0  0  0  0  0  0  0  0  0  0  0
   -1.3850    4.8225    1.6391 H   0  0  0  0  0  0  0  0  0  0  0  0
    2.2061    1.2200    2.2893 H   0  0  0  0  0  0  0  0  0  0  0  0
    0.5166    1.6596    2.2043 H   0  0  0  0  0  0  0  0  0  0  0  0
   -1.0738   -0.3154    1.1172 H   0  0  0  0  0  0  0  0  0  0  0  0
   -0.1561   -1.6878    0.5175 H   0  0  0  0  0  0  0  0  0  0  0  0
   -0.9721    2.2998    3.8055 H   0  0  0  0  0  0  0  0  0  0  0  0
    0.5219   -2.3543    2.7528 H   0  0  0  0  0  0  0  0  0  0  0  0
   -1.2197   -2.2335    2.7275 H   0  0  0  0  0  0  0  0  0  0  0  0
    1.8492   -0.4643    3.9217 H   0  0  0  0  0  0  0  0  0  0  0  0
    0.9614    0.9151    4.5041 H   0  0  0  0  0  0  0  0  0  0  0  0
    2.5573   -1.9182    1.2382 H   0  0  0  0  0  0  0  0  0  0  0  0
    4.8656    0.2595   -1.6876 H   0  0  0  0  0  0  0  0  0  0  0  0
    0.5258    6.0180    2.6866 H   0  0  0  0  0  0  0  0  0  0  0  0
   -2.3471    3.7615    4.9770 H   0  0  0  0  0  0  0  0  0  0  0  0
   -2.5582    0.2740    2.4374 H   0  0  0  0  0  0  0  0  0  0  0  0
   -3.2806    0.9302    3.8902 H   0  0  0  0  0  0  0  0  0  0  0  0
    1.5493    6.8049    4.7647 H   0  0  0  0  0  0  0  0  0  0  0  0
    6.7701   -1.2276   -1.2670 H   0  0  0  0  0  0  0  0  0  0  0  0
    4.4499   -3.3686    1.6551 H   0  0  0  0  0  0  0  0  0  0  0  0
   -1.2948    4.5153    7.0504 H   0  0  0  0  0  0  0  0  0  0  0  0
   -2.1024   -0.9940    4.6019 H   0  0  0  0  0  0  0  0  0  0  0  0
   -1.2610    0.3867    5.2350 H   0  0  0  0  0  0  0  0  0  0  0  0
    2.7423    6.1670    6.8154 H   0  0  0  0  0  0  0  0  0  0  0  0
    1.8176    7.7160    6.9346 H   0  0  0  0  0  0  0  0  0  0  0  0
    2.2397    6.7999    8.3879 H   0  0  0  0  0  0  0  0  0  0  0  0
    7.1287   -2.7753    2.4345 H   0  0  0  0  0  0  0  0  0  0  0  0
    6.4293   -4.3843    2.0081 H   0  0  0  0  0  0  0  0  0  0  0  0
    8.1389   -4.0435    1.7256 H   0  0  0  0  0  0  0  0  0  0  0  0
  2  1  1  0  0  0  0
  3 11  1  0  0  0  0
  4  1  1  0  0  0  0
  4 32  1  0  0  0  0
  5 13  1  0  0  0  0
  5 14  1  0  0  0  0
  6  1  2  0  0  0  0
  7  3  1  0  0  0  0
  7 33  1  0  0  0  0
  8  3  2  0  0  0  0
  9  2  1  0  0  0  0
  9 34  1  0  0  0  0
  9 35  1  0  0  0  0
 10  2  1  0  0  0  0
 10 36  1  0  0  0  0
 10 37  1  0  0  0  0
 11 22  1  0  0  0  0
 11 38  1  0  0  0  0
 12  4  1  0  0  0  0
 13 10  1  0  0  0  0
 13 39  1  0  0  0  0
 13 40  1  0  0  0  0
 14  9  1  0  0  0  0
 14 41  1  0  0  0  0
 14 42  1  0  0  0  0
 15  7  1  0  0  0  0
 16 26  2  0  0  0  0
 16 23  1  0  0  0  0
 17 24  2  0  0  0  0
 17 25  1  0  0  0  0
 18 12  1  0  0  0  0
 18 43  1  0  0  0  0
 19 12  2  0  0  0  0
 19 44  1  0  0  0  0
 20 15  1  0  0  0  0
 20 45  1  0  0  0  0
 21 15  2  0  0  0  0
 21 46  1  0  0  0  0
 22 27  1  0  0  0  0
 22 47  1  0  0  0  0
 22 48  1  0  0  0  0
 23 20  2  0  0  0  0
 23 49  1  0  0  0  0
 24 19  1  0  0  0  0
 24 50  1  0  0  0  0
 25 18  2  0  0  0  0
 25 51  1  0  0  0  0
 26 21  1  0  0  0  0
 26 52  1  0  0  0  0
 27  5  1  0  0  0  0
 27 53  1  0  0  0  0
 27 54  1  0  0  0  0
 28 16  1  0  0  0  0
 29 17  1  0  0  0  0
 30 28  1  0  0  0  0
 30 55  1  0  0  0  0
 30 56  1  0  0  0  0
 30 57  1  0  0  0  0
 31 29  1  0  0  0  0
 31 58  1  0  0  0  0
 31 59  1  0  0  0  0
 31 60  1  0  0  0  0
M  END
>  <Mol_ID>
8084

>  <Formula>
C22H29N5O2S2

>  <MolWeight>
459.62796

>  <Cat>
P2788

>  <Name>
WAY-359375-A

>  <Synonyms>
N/A

>  <Target>
Anti-infection Microbiology

>  <Form>
free base

>  <CAS>
62345-63-5

>  <URL>
N/A

$$$$
