WAY-301158
 OpenBabel08302521413D

 34 36  0  0  0  0  0  0  0  0999 V2000
   -0.3095   -1.0449    0.0508 C   0  0  0  0  0  0  0  0  0  0  0  0
   -0.8331   -2.4072   -0.0314 C   0  0  0  0  0  0  0  0  0  0  0  0
   -1.1799    0.0178   -0.0718 O   0  0  0  0  0  0  0  0  0  0  0  0
    0.9388   -0.6555    0.2117 N   0  0  0  0  0  0  0  0  0  0  0  0
   -2.1968   -2.6903   -0.1727 C   0  0  0  0  0  0  0  0  0  0  0  0
    0.0635   -3.4891    0.0264 C   0  0  0  0  0  0  0  0  0  0  0  0
   -0.3214    1.0919    0.0032 C   0  0  0  0  0  0  0  0  0  0  0  0
    0.9300    0.7182    0.1766 N   0  0  0  0  0  0  0  0  0  0  0  0
   -2.6494   -4.0166   -0.2514 C   0  0  0  0  0  0  0  0  0  0  0  0
   -0.3856   -4.8120   -0.0522 C   0  0  0  0  0  0  0  0  0  0  0  0
   -0.7613    2.7599   -0.2091 S   0  0  0  0  0  0  0  0  0  0  0  0
   -1.7484   -5.0866   -0.1930 C   0  0  0  0  0  0  0  0  0  0  0  0
   -2.4309    2.8377    0.4797 C   0  0  0  0  0  0  0  0  0  0  0  0
   -2.2209   -6.5094   -0.2735 C   0  0  0  0  0  0  0  0  0  0  0  0
   -2.9403    4.2651    0.5159 C   0  0  0  0  0  0  0  0  0  0  0  0
   -3.6009    4.8199   -0.5917 C   0  0  0  0  0  0  0  0  0  0  0  0
   -2.7255    5.0773    1.6416 C   0  0  0  0  0  0  0  0  0  0  0  0
   -4.0521    6.1425   -0.5675 C   0  0  0  0  0  0  0  0  0  0  0  0
   -3.1763    6.4006    1.6644 C   0  0  0  0  0  0  0  0  0  0  0  0
   -3.8416    6.9326    0.5618 C   0  0  0  0  0  0  0  0  0  0  0  0
   -2.9269   -1.8865   -0.2247 H   0  0  0  0  0  0  0  0  0  0  0  0
    1.1334   -3.3090    0.1319 H   0  0  0  0  0  0  0  0  0  0  0  0
   -3.7153   -4.2063   -0.3600 H   0  0  0  0  0  0  0  0  0  0  0  0
    0.3378   -5.6240   -0.0040 H   0  0  0  0  0  0  0  0  0  0  0  0
   -2.4384    2.4234    1.4943 H   0  0  0  0  0  0  0  0  0  0  0  0
   -3.1087    2.2224   -0.1227 H   0  0  0  0  0  0  0  0  0  0  0  0
   -1.7470   -7.0198   -1.1187 H   0  0  0  0  0  0  0  0  0  0  0  0
   -1.9741   -7.0431    0.6503 H   0  0  0  0  0  0  0  0  0  0  0  0
   -3.3052   -6.5667   -0.4150 H   0  0  0  0  0  0  0  0  0  0  0  0
   -3.7649    4.2268   -1.4890 H   0  0  0  0  0  0  0  0  0  0  0  0
   -2.1956    4.6883    2.5088 H   0  0  0  0  0  0  0  0  0  0  0  0
   -4.5602    6.5622   -1.4322 H   0  0  0  0  0  0  0  0  0  0  0  0
   -3.0024    7.0205    2.5411 H   0  0  0  0  0  0  0  0  0  0  0  0
   -4.1870    7.9616    0.5781 H   0  0  0  0  0  0  0  0  0  0  0  0
  1  2  1  0  0  0  0
  1  3  1  0  0  0  0
  1  4  2  0  0  0  0
  2  5  2  0  0  0  0
  2  6  1  0  0  0  0
  3  7  1  0  0  0  0
  4  8  1  0  0  0  0
  5  9  1  0  0  0  0
  5 21  1  0  0  0  0
  6 10  2  0  0  0  0
  6 22  1  0  0  0  0
  7 11  1  0  0  0  0
  7  8  2  0  0  0  0
  9 12  2  0  0  0  0
  9 23  1  0  0  0  0
 10 12  1  0  0  0  0
 10 24  1  0  0  0  0
 11 13  1  0  0  0  0
 12 14  1  0  0  0  0
 13 15  1  0  0  0  0
 13 25  1  0  0  0  0
 13 26  1  0  0  0  0
 14 27  1  0  0  0  0
 14 28  1  0  0  0  0
 14 29  1  0  0  0  0
 15 16  2  0  0  0  0
 15 17  1  0  0  0  0
 16 18  1  0  0  0  0
 16 30  1  0  0  0  0
 17 19  2  0  0  0  0
 17 31  1  0  0  0  0
 18 20  2  0  0  0  0
 18 32  1  0  0  0  0
 19 20  1  0  0  0  0
 19 33  1  0  0  0  0
 20 34  1  0  0  0  0
M  END
>  <Mol_ID>
8425

>  <Formula>
C16H14N2OS

>  <MolWeight>
282.36016

>  <Cat>
P2158

>  <Name>
WAY-301158

>  <Synonyms>
N/A

>  <Target>
Anti-infection

>  <Form>
free base

>  <CAS>
71134-64-0

>  <URL>
N/A

$$$$
