WAY-325691
 OpenBabel08302521433D

 30 32  0  0  0  0  0  0  0  0999 V2000
    2.3860   -0.6436   -0.0146 N   0  0  0  0  0  0  0  0  0  0  0  0
    1.2479   -1.4467    0.0987 C   0  0  0  0  0  0  0  0  0  0  0  0
    2.3609    0.7566   -0.0129 C   0  0  0  0  0  0  0  0  0  0  0  0
   -0.0462   -0.7502    0.0582 C   0  0  0  0  0  0  0  0  0  0  0  0
    1.1095    1.3762    0.0386 O   0  0  0  0  0  0  0  0  0  0  0  0
   -0.0635    0.6300    0.0299 C   0  0  0  0  0  0  0  0  0  0  0  0
    3.6723   -1.2760   -0.0798 C   0  0  0  0  0  0  0  0  0  0  0  0
    3.3550    1.4820   -0.0060 O   0  0  0  0  0  0  0  0  0  0  0  0
    1.2360   -2.6727    0.1859 O   0  0  0  0  0  0  0  0  0  0  0  0
   -1.2549   -1.4531    0.0156 C   0  0  0  0  0  0  0  0  0  0  0  0
   -1.2652    1.3381   -0.0135 C   0  0  0  0  0  0  0  0  0  0  0  0
    4.0524   -2.2500    0.8512 C   0  0  0  0  0  0  0  0  0  0  0  0
    4.5907   -0.8927   -1.0681 C   0  0  0  0  0  0  0  0  0  0  0  0
   -2.4649   -0.7558   -0.0458 C   0  0  0  0  0  0  0  0  0  0  0  0
   -2.4695    0.6400   -0.0547 C   0  0  0  0  0  0  0  0  0  0  0  0
    5.8706   -1.4489   -1.1104 C   0  0  0  0  0  0  0  0  0  0  0  0
    5.3461   -2.7825    0.8280 C   0  0  0  0  0  0  0  0  0  0  0  0
    6.2659   -2.3816   -0.1486 C   0  0  0  0  0  0  0  0  0  0  0  0
    7.6650   -2.9211   -0.1340 C   0  0  0  0  0  0  0  0  0  0  0  0
   -1.2609   -2.5418    0.0175 H   0  0  0  0  0  0  0  0  0  0  0  0
   -1.2592    2.4260   -0.0216 H   0  0  0  0  0  0  0  0  0  0  0  0
    3.3705   -2.5673    1.6366 H   0  0  0  0  0  0  0  0  0  0  0  0
    4.3169   -0.1623   -1.8262 H   0  0  0  0  0  0  0  0  0  0  0  0
   -3.4052   -1.3009   -0.0898 H   0  0  0  0  0  0  0  0  0  0  0  0
   -3.4100    1.1834   -0.1009 H   0  0  0  0  0  0  0  0  0  0  0  0
    6.5578   -1.1333   -1.8920 H   0  0  0  0  0  0  0  0  0  0  0  0
    5.6376   -3.5017    1.5905 H   0  0  0  0  0  0  0  0  0  0  0  0
    8.1825   -2.5918    0.7732 H   0  0  0  0  0  0  0  0  0  0  0  0
    7.6522   -4.0146   -0.1668 H   0  0  0  0  0  0  0  0  0  0  0  0
    8.2401   -2.5660   -0.9957 H   0  0  0  0  0  0  0  0  0  0  0  0
  2  1  1  0  0  0  0
  3  1  1  0  0  0  0
  4  2  1  0  0  0  0
  4  6  2  0  0  0  0
  5  3  1  0  0  0  0
  6  5  1  0  0  0  0
  7  1  1  0  0  0  0
  8  3  2  0  0  0  0
  9  2  2  0  0  0  0
 10  4  1  0  0  0  0
 10 20  1  0  0  0  0
 11  6  1  0  0  0  0
 11 21  1  0  0  0  0
 12  7  2  0  0  0  0
 12 22  1  0  0  0  0
 13  7  1  0  0  0  0
 13 23  1  0  0  0  0
 14 10  2  0  0  0  0
 14 15  1  0  0  0  0
 14 24  1  0  0  0  0
 15 11  2  0  0  0  0
 15 25  1  0  0  0  0
 16 13  2  0  0  0  0
 16 26  1  0  0  0  0
 17 12  1  0  0  0  0
 17 27  1  0  0  0  0
 18 16  1  0  0  0  0
 18 17  2  0  0  0  0
 19 18  1  0  0  0  0
 19 28  1  0  0  0  0
 19 29  1  0  0  0  0
 19 30  1  0  0  0  0
M  END
>  <Mol_ID>
8875

>  <Formula>
C15H10ClNO3

>  <MolWeight>
287.6978

>  <Cat>
P2423

>  <Name>
WAY-325691

>  <Synonyms>
N/A

>  <Target>
Anti-infection

>  <Form>
free base

>  <CAS>
869356-91-2

>  <URL>
N/A

$$$$
