WAY-357997
 OpenBabel08302521393D

 30 31  0  0  0  0  0  0  0  0999 V2000
    0.9603   -0.0415    0.1963 S   0  0  0  0  0  0  0  0  0  0  0  0
    0.0478    4.3608   -1.5627 S   0  0  0  0  0  0  0  0  0  0  0  0
    0.3458    2.9082   -0.5892 C   0  0  0  0  0  0  0  0  0  0  0  0
    0.2377    0.5420   -1.1490 O   0  0  0  0  0  0  0  0  0  0  0  0
   -0.4067    3.4716   -2.9777 C   0  0  0  0  0  0  0  0  0  0  0  0
    0.6838    1.8169   -1.5997 C   0  0  3  0  0  0  0  0  0  0  0  0
   -0.0370    2.1862   -2.8747 C   0  0  0  0  0  0  0  0  0  0  0  0
    0.3378   -1.6880    0.4039 C   0  0  0  0  0  0  0  0  0  0  0  0
    0.4774    0.7222    1.3245 O   0  0  0  0  0  0  0  0  0  0  0  0
    2.3746   -0.1474   -0.0886 O   0  0  0  0  0  0  0  0  0  0  0  0
   -1.1024    5.0575   -1.0277 O   0  0  0  0  0  0  0  0  0  0  0  0
    1.3145    5.0226   -1.7964 O   0  0  0  0  0  0  0  0  0  0  0  0
    1.1067   -2.5999    1.1305 C   0  0  0  0  0  0  0  0  0  0  0  0
   -0.8701   -2.0665   -0.1774 C   0  0  0  0  0  0  0  0  0  0  0  0
   -1.2942   -3.3916   -0.0607 C   0  0  0  0  0  0  0  0  0  0  0  0
    0.6769   -3.9207    1.2432 C   0  0  0  0  0  0  0  0  0  0  0  0
   -0.5170   -4.3300    0.6338 C   0  0  0  0  0  0  0  0  0  0  0  0
   -0.9354   -5.7691    0.7149 C   0  0  0  0  0  0  0  0  0  0  0  0
    1.1564    3.0928    0.1186 H   0  0  0  0  0  0  0  0  0  0  0  0
   -0.5757    2.6787   -0.0438 H   0  0  0  0  0  0  0  0  0  0  0  0
   -0.9015    3.9529   -3.8055 H   0  0  0  0  0  0  0  0  0  0  0  0
    1.7569    1.7795   -1.8213 H   0  0  0  0  0  0  0  0  0  0  0  0
   -0.1921    1.4716   -3.6736 H   0  0  0  0  0  0  0  0  0  0  0  0
    2.0414   -2.2945    1.5982 H   0  0  0  0  0  0  0  0  0  0  0  0
   -1.4838   -1.3536   -0.7221 H   0  0  0  0  0  0  0  0  0  0  0  0
   -2.2298   -3.6936   -0.5277 H   0  0  0  0  0  0  0  0  0  0  0  0
    1.2855   -4.6358    1.7940 H   0  0  0  0  0  0  0  0  0  0  0  0
   -0.1662   -6.4056    0.2647 H   0  0  0  0  0  0  0  0  0  0  0  0
   -1.0829   -6.0648    1.7581 H   0  0  0  0  0  0  0  0  0  0  0  0
   -1.8715   -5.9457    0.1756 H   0  0  0  0  0  0  0  0  0  0  0  0
  2  3  1  0  0  0  0
  3  6  1  0  0  0  0
  3 19  1  0  0  0  0
  3 20  1  0  0  0  0
  4  1  1  0  0  0  0
  5  7  2  0  0  0  0
  5  2  1  0  0  0  0
  5 21  1  0  0  0  0
  6  4  1  0  0  0  0
  6 22  1  0  0  0  0
  7  6  1  0  0  0  0
  7 23  1  0  0  0  0
  8  1  1  0  0  0  0
  9  1  2  0  0  0  0
 10  1  2  0  0  0  0
 11  2  2  0  0  0  0
 12  2  2  0  0  0  0
 13  8  2  0  0  0  0
 13 24  1  0  0  0  0
 14  8  1  0  0  0  0
 14 25  1  0  0  0  0
 15 14  2  0  0  0  0
 15 26  1  0  0  0  0
 16 13  1  0  0  0  0
 16 27  1  0  0  0  0
 17 15  1  0  0  0  0
 17 16  2  0  0  0  0
 18 17  1  0  0  0  0
 18 28  1  0  0  0  0
 18 29  1  0  0  0  0
 18 30  1  0  0  0  0
M  END
>  <Mol_ID>
8076

>  <Formula>
C11H12O5S2

>  <MolWeight>
288.33998

>  <Cat>
P2779

>  <Name>
WAY-357997

>  <Synonyms>
N/A

>  <Target>
ERK1/2

>  <Form>
free base

>  <CAS>
39582-96-2

>  <URL>
N/A

$$$$
