WAY-243197-A
 OpenBabel08302521413D

 56 59  0  0  0  0  0  0  0  0999 V2000
    7.4295   -3.1022   -1.3614 C   0  0  0  0  0  0  0  0  0  0  0  0
    7.2104   -3.8494   -2.5433 C   0  0  0  0  0  0  0  0  0  0  0  0
    6.3908   -2.3210   -0.8413 C   0  0  0  0  0  0  0  0  0  0  0  0
    8.6725   -3.1752   -0.7139 C   0  0  0  0  0  0  0  0  0  0  0  0
    5.9530   -3.7923   -3.1750 C   0  0  0  0  0  0  0  0  0  0  0  0
    8.2546   -4.6417   -3.0483 C   0  0  0  0  0  0  0  0  0  0  0  0
    5.1328   -2.3219   -1.4555 C   0  0  0  0  0  0  0  0  0  0  0  0
    9.6898   -3.9872   -1.2160 C   0  0  0  0  0  0  0  0  0  0  0  0
    4.9090   -3.0407   -2.6280 C   0  0  0  0  0  0  0  0  0  0  0  0
    9.4813   -4.7154   -2.3837 C   0  0  0  0  0  0  0  0  0  0  0  0
    3.8054   -1.4483   -0.6541 S   0  0  0  0  0  0  0  0  0  0  0  0
    3.8004   -2.2259    0.8430 N   0  0  0  0  0  0  0  0  0  0  0  0
    4.2598   -0.0835   -0.4818 O   0  0  0  0  0  0  0  0  0  0  0  0
    2.5715   -1.7674   -1.3379 O   0  0  0  0  0  0  0  0  0  0  0  0
    2.9829   -3.4430    1.0253 C   0  0  0  0  0  0  0  0  0  0  0  0
    3.9862   -1.4559    2.0850 C   0  0  0  0  0  0  0  0  0  0  0  0
    1.6320   -3.0986    1.6924 C   0  0  0  0  0  0  0  0  0  0  0  0
    2.6258   -1.1252    2.7233 C   0  0  0  0  0  0  0  0  0  0  0  0
    1.6918   -2.2568    2.9112 N   0  0  0  0  0  0  0  0  0  0  0  0
    1.9663   -3.0153    4.1363 C   0  0  0  0  0  0  0  0  0  0  0  0
    0.7951   -3.8661    4.6032 C   0  0  0  0  0  0  0  0  0  0  0  0
   -0.4821   -3.3000    4.7837 C   0  0  0  0  0  0  0  0  0  0  0  0
    0.9840   -5.2041    4.9518 C   0  0  0  0  0  0  0  0  0  0  0  0
   -1.5505   -4.0323    5.3375 C   0  0  0  0  0  0  0  0  0  0  0  0
   -0.0722   -5.9443    5.4870 C   0  0  0  0  0  0  0  0  0  0  0  0
   -1.3346   -5.3721    5.7041 C   0  0  0  0  0  0  0  0  0  0  0  0
   -2.7951   -3.5017    5.5372 O   0  0  0  0  0  0  0  0  0  0  0  0
   -2.2101   -6.2589    6.2758 O   0  0  0  0  0  0  0  0  0  0  0  0
   -3.0096   -2.1309    5.2215 C   0  0  0  0  0  0  0  0  0  0  0  0
   -3.4785   -5.7930    6.7113 C   0  0  0  0  0  0  0  0  0  0  0  0
    6.5452   -1.7307    0.0596 H   0  0  0  0  0  0  0  0  0  0  0  0
    8.8525   -2.6095    0.1989 H   0  0  0  0  0  0  0  0  0  0  0  0
    5.7735   -4.3560   -4.0891 H   0  0  0  0  0  0  0  0  0  0  0  0
    8.1153   -5.2196   -3.9593 H   0  0  0  0  0  0  0  0  0  0  0  0
   10.6388   -4.0572   -0.6903 H   0  0  0  0  0  0  0  0  0  0  0  0
    3.9353   -3.0339   -3.1122 H   0  0  0  0  0  0  0  0  0  0  0  0
   10.2732   -5.3488   -2.7764 H   0  0  0  0  0  0  0  0  0  0  0  0
    2.8112   -3.9468    0.0678 H   0  0  0  0  0  0  0  0  0  0  0  0
    3.5520   -4.1458    1.6446 H   0  0  0  0  0  0  0  0  0  0  0  0
    4.5960   -2.0585    2.7684 H   0  0  0  0  0  0  0  0  0  0  0  0
    4.5553   -0.5379    1.9073 H   0  0  0  0  0  0  0  0  0  0  0  0
    1.0195   -2.5537    0.9621 H   0  0  0  0  0  0  0  0  0  0  0  0
    1.0899   -4.0310    1.8898 H   0  0  0  0  0  0  0  0  0  0  0  0
    2.1203   -0.3937    2.0835 H   0  0  0  0  0  0  0  0  0  0  0  0
    2.7988   -0.6073    3.6776 H   0  0  0  0  0  0  0  0  0  0  0  0
    2.8762   -3.6196    4.0375 H   0  0  0  0  0  0  0  0  0  0  0  0
    2.1516   -2.3182    4.9660 H   0  0  0  0  0  0  0  0  0  0  0  0
   -0.6119   -2.2636    4.4834 H   0  0  0  0  0  0  0  0  0  0  0  0
    1.9527   -5.6812    4.8285 H   0  0  0  0  0  0  0  0  0  0  0  0
    0.0913   -6.9842    5.7612 H   0  0  0  0  0  0  0  0  0  0  0  0
   -2.3200   -1.4789    5.7673 H   0  0  0  0  0  0  0  0  0  0  0  0
   -2.9445   -1.9687    4.1411 H   0  0  0  0  0  0  0  0  0  0  0  0
   -4.0249   -1.8706    5.5379 H   0  0  0  0  0  0  0  0  0  0  0  0
   -3.3862   -4.9674    7.4245 H   0  0  0  0  0  0  0  0  0  0  0  0
   -4.1146   -5.5343    5.8594 H   0  0  0  0  0  0  0  0  0  0  0  0
   -3.9695   -6.6171    7.2397 H   0  0  0  0  0  0  0  0  0  0  0  0
  1  2  1  0  0  0  0
  1  3  2  0  0  0  0
  1  4  1  0  0  0  0
  2  5  2  0  0  0  0
  2  6  1  0  0  0  0
  3  7  1  0  0  0  0
  3 31  1  0  0  0  0
  4  8  2  0  0  0  0
  4 32  1  0  0  0  0
  5  9  1  0  0  0  0
  5 33  1  0  0  0  0
  6 10  2  0  0  0  0
  6 34  1  0  0  0  0
  7 11  1  0  0  0  0
  7  9  2  0  0  0  0
  8 10  1  0  0  0  0
  8 35  1  0  0  0  0
  9 36  1  0  0  0  0
 10 37  1  0  0  0  0
 11 12  1  0  0  0  0
 11 13  2  0  0  0  0
 11 14  2  0  0  0  0
 12 15  1  0  0  0  0
 12 16  1  0  0  0  0
 15 17  1  0  0  0  0
 15 38  1  0  0  0  0
 15 39  1  0  0  0  0
 16 18  1  0  0  0  0
 16 40  1  0  0  0  0
 16 41  1  0  0  0  0
 17 19  1  0  0  0  0
 17 42  1  0  0  0  0
 17 43  1  0  0  0  0
 18 19  1  0  0  0  0
 18 44  1  0  0  0  0
 18 45  1  0  0  0  0
 19 20  1  0  0  0  0
 20 21  1  0  0  0  0
 20 46  1  0  0  0  0
 20 47  1  0  0  0  0
 21 22  2  0  0  0  0
 21 23  1  0  0  0  0
 22 24  1  0  0  0  0
 22 48  1  0  0  0  0
 23 25  2  0  0  0  0
 23 49  1  0  0  0  0
 24 26  2  0  0  0  0
 24 27  1  0  0  0  0
 25 26  1  0  0  0  0
 25 50  1  0  0  0  0
 26 28  1  0  0  0  0
 27 29  1  0  0  0  0
 28 30  1  0  0  0  0
 29 51  1  0  0  0  0
 29 52  1  0  0  0  0
 29 53  1  0  0  0  0
 30 54  1  0  0  0  0
 30 55  1  0  0  0  0
 30 56  1  0  0  0  0
M  END
>  <Mol_ID>
8381

>  <Formula>
C23H26N2O4S

>  <MolWeight>
426.52854

>  <Cat>
P2073

>  <Name>
WAY-243197-A

>  <Synonyms>
N/A

>  <Target>
others

>  <Form>
free base

>  <CAS>
428850-59-3

>  <URL>
N/A

$$$$
