WAY-638311
 OpenBabel08302521423D

 30 31  0  0  0  0  0  0  0  0999 V2000
    1.0207   -0.0723   -0.0226 S   0  0  0  0  0  0  0  0  0  0  0  0
    2.5669   -1.0036   -4.9775 C   0  0  0  0  0  0  0  0  0  0  0  0
    0.2621    1.4341   -0.0493 N   0  0  0  0  0  0  0  0  0  0  0  0
    0.7014   -0.7383   -1.6497 C   0  0  0  0  0  0  0  0  0  0  0  0
    1.5248   -1.1807   -3.8969 C   0  0  0  0  0  0  0  0  0  0  0  0
   -1.5609    2.8814    0.6304 C   0  0  0  0  0  0  0  0  0  0  0  0
    1.6357   -0.5091   -2.6680 C   0  0  0  0  0  0  0  0  0  0  0  0
   -2.4634    3.5673   -0.6559 S   0  0  0  0  0  0  0  0  0  0  0  0
    0.3521   -0.9254    0.9365 O   0  0  0  0  0  0  0  0  0  0  0  0
    2.4439    0.1699    0.0440 O   0  0  0  0  0  0  0  0  0  0  0  0
   -1.0797    1.4627    0.5492 C   0  0  0  0  0  0  0  0  0  0  0  0
   -2.7624    4.9994    0.2310 C   0  0  0  0  0  0  0  0  0  0  0  0
   -1.4317    3.7701    1.6819 C   0  0  0  0  0  0  0  0  0  0  0  0
   -2.1464    4.9833    1.4619 C   0  0  0  0  0  0  0  0  0  0  0  0
    3.5418   -0.1115   -4.6497 F   0  0  0  0  0  0  0  0  0  0  0  0
    3.2085   -2.1667   -5.2765 F   0  0  0  0  0  0  0  0  0  0  0  0
    2.0318   -0.5585   -6.1471 F   0  0  0  0  0  0  0  0  0  0  0  0
   -0.3567   -1.6269   -1.8521 C   0  0  0  0  0  0  0  0  0  0  0  0
    0.4533   -2.0665   -4.0903 C   0  0  0  0  0  0  0  0  0  0  0  0
   -0.4846   -2.2844   -3.0776 C   0  0  0  0  0  0  0  0  0  0  0  0
    0.2993    1.8865   -0.9621 H   0  0  0  0  0  0  0  0  0  0  0  0
    2.4832    0.1535   -2.4904 H   0  0  0  0  0  0  0  0  0  0  0  0
   -1.7694    0.8532   -0.0424 H   0  0  0  0  0  0  0  0  0  0  0  0
   -1.0418    1.0643    1.5691 H   0  0  0  0  0  0  0  0  0  0  0  0
   -3.3762    5.7842   -0.1907 H   0  0  0  0  0  0  0  0  0  0  0  0
   -0.8812    3.5456    2.5899 H   0  0  0  0  0  0  0  0  0  0  0  0
   -2.2170    5.7962    2.1751 H   0  0  0  0  0  0  0  0  0  0  0  0
   -1.0603   -1.8512   -1.0500 H   0  0  0  0  0  0  0  0  0  0  0  0
    0.3633   -2.6162   -5.0277 H   0  0  0  0  0  0  0  0  0  0  0  0
   -1.2914   -2.9977   -3.2330 H   0  0  0  0  0  0  0  0  0  0  0  0
  2  5  1  0  0  0  0
  3  1  1  0  0  0  0
  3 21  1  0  0  0  0
  4  1  1  0  0  0  0
  5  7  2  0  0  0  0
  6 11  1  0  0  0  0
  7  4  1  0  0  0  0
  7 22  1  0  0  0  0
  8  6  1  0  0  0  0
  9  1  2  0  0  0  0
 10  1  2  0  0  0  0
 11  3  1  0  0  0  0
 11 23  1  0  0  0  0
 11 24  1  0  0  0  0
 12  8  1  0  0  0  0
 12 14  2  0  0  0  0
 12 25  1  0  0  0  0
 13  6  2  0  0  0  0
 13 26  1  0  0  0  0
 14 13  1  0  0  0  0
 14 27  1  0  0  0  0
 15  2  1  0  0  0  0
 16  2  1  0  0  0  0
 17  2  1  0  0  0  0
 18  4  2  0  0  0  0
 18 28  1  0  0  0  0
 19 20  2  0  0  0  0
 19  5  1  0  0  0  0
 19 29  1  0  0  0  0
 20 18  1  0  0  0  0
 20 30  1  0  0  0  0
M  END
>  <Mol_ID>
8508

>  <Formula>
C12H10F3NO2S2

>  <MolWeight>
321.3385096

>  <Cat>
P3034

>  <Name>
WAY-638311

>  <Synonyms>
N/A

>  <Target>
abscisic acid receptor

>  <Form>
free base

>  <CAS>
612042-35-0

>  <URL>
N/A

$$$$
