WAY-639019
 OpenBabel08302521433D

 46 49  0  0  0  0  0  0  0  0999 V2000
   -2.5889   -0.0430   -0.9601 C   0  0  0  0  0  0  0  0  0  0  0  0
   -2.5225   -1.5473   -1.8314 S   0  0  0  0  0  0  0  0  0  0  0  0
   -3.6025    0.1124    0.0704 C   0  0  0  0  0  0  0  0  0  0  0  0
   -1.5760    0.8151   -1.3731 C   0  0  0  0  0  0  0  0  0  0  0  0
   -1.2960   -0.9598   -2.8004 C   0  0  0  0  0  0  0  0  0  0  0  0
   -4.2027    1.3714    0.2557 N   0  0  0  0  0  0  0  0  0  0  0  0
   -0.9325    0.3229   -2.5218 C   0  0  0  0  0  0  0  0  0  0  0  0
   -5.6384    3.8143    0.7276 N   0  0  0  0  0  0  0  0  0  0  0  0
   -6.5041    4.9000    0.7883 C   0  0  0  0  0  0  0  0  0  0  0  0
   -4.1589    2.4951   -0.7079 C   0  0  0  0  0  0  0  0  0  0  0  0
   -5.3933    1.3918    1.1153 C   0  0  0  0  0  0  0  0  0  0  0  0
   -3.9524   -0.8428    0.7715 O   0  0  0  0  0  0  0  0  0  0  0  0
   -5.6534    2.7619    1.7594 C   0  0  0  0  0  0  0  0  0  0  0  0
   -4.3849    3.8617   -0.0294 C   0  0  0  0  0  0  0  0  0  0  0  0
   -6.9408    5.6339   -0.3475 C   0  0  0  0  0  0  0  0  0  0  0  0
   -0.5202   -1.5923   -3.8862 C   0  0  0  0  0  0  0  0  0  0  0  0
    0.0873    0.8278   -3.4625 C   0  0  0  0  0  0  0  0  0  0  0  0
   -6.4099    5.3283   -1.5846 O   0  0  0  0  0  0  0  0  0  0  0  0
    0.3819   -0.4103   -4.3644 C   0  0  0  0  0  0  0  0  0  0  0  0
   -7.0625    5.2668    2.0305 C   0  0  0  0  0  0  0  0  0  0  0  0
   -7.9700    6.5863   -0.2176 C   0  0  0  0  0  0  0  0  0  0  0  0
   -6.4775    6.3689   -2.5610 C   0  0  0  0  0  0  0  0  0  0  0  0
   -8.0616    6.2338    2.1515 C   0  0  0  0  0  0  0  0  0  0  0  0
   -8.5329    6.8759    1.0211 C   0  0  0  0  0  0  0  0  0  0  0  0
   -1.3553    1.7659   -0.9058 H   0  0  0  0  0  0  0  0  0  0  0  0
   -3.2203    2.5463   -1.2477 H   0  0  0  0  0  0  0  0  0  0  0  0
   -4.9409    2.3037   -1.4513 H   0  0  0  0  0  0  0  0  0  0  0  0
   -6.2417    1.1214    0.4726 H   0  0  0  0  0  0  0  0  0  0  0  0
   -5.3285    0.6335    1.9027 H   0  0  0  0  0  0  0  0  0  0  0  0
   -4.8801    2.9744    2.5085 H   0  0  0  0  0  0  0  0  0  0  0  0
   -6.6188    2.6962    2.2725 H   0  0  0  0  0  0  0  0  0  0  0  0
   -3.5597    4.0555    0.6714 H   0  0  0  0  0  0  0  0  0  0  0  0
   -4.3369    4.6561   -0.7763 H   0  0  0  0  0  0  0  0  0  0  0  0
   -1.1492   -1.9670   -4.6981 H   0  0  0  0  0  0  0  0  0  0  0  0
    0.1004   -2.4080   -3.5003 H   0  0  0  0  0  0  0  0  0  0  0  0
    0.9850    1.1724   -2.9437 H   0  0  0  0  0  0  0  0  0  0  0  0
   -0.3149    1.6497   -4.0661 H   0  0  0  0  0  0  0  0  0  0  0  0
    1.4413   -0.6821   -4.2982 H   0  0  0  0  0  0  0  0  0  0  0  0
    0.1761   -0.1749   -5.4151 H   0  0  0  0  0  0  0  0  0  0  0  0
   -6.7206    4.7922    2.9465 H   0  0  0  0  0  0  0  0  0  0  0  0
   -8.3846    7.0977   -1.0797 H   0  0  0  0  0  0  0  0  0  0  0  0
   -7.5009    6.5006   -2.9284 H   0  0  0  0  0  0  0  0  0  0  0  0
   -6.0773    7.3130   -2.1717 H   0  0  0  0  0  0  0  0  0  0  0  0
   -5.8650    6.0780   -3.4198 H   0  0  0  0  0  0  0  0  0  0  0  0
   -8.4784    6.4601    3.1279 H   0  0  0  0  0  0  0  0  0  0  0  0
   -9.3418    7.5969    1.0973 H   0  0  0  0  0  0  0  0  0  0  0  0
  2  1  1  0  0  0  0
  3  1  1  0  0  0  0
  4  1  2  0  0  0  0
  4 25  1  0  0  0  0
  5  2  1  0  0  0  0
  5  7  2  0  0  0  0
  6  3  1  0  0  0  0
  7  4  1  0  0  0  0
  8 13  1  0  0  0  0
  9  8  1  0  0  0  0
 10  6  1  0  0  0  0
 10 26  1  0  0  0  0
 10 27  1  0  0  0  0
 11  6  1  0  0  0  0
 11 28  1  0  0  0  0
 11 29  1  0  0  0  0
 12  3  2  0  0  0  0
 13 11  1  0  0  0  0
 13 30  1  0  0  0  0
 13 31  1  0  0  0  0
 14 10  1  0  0  0  0
 14  8  1  0  0  0  0
 14 32  1  0  0  0  0
 14 33  1  0  0  0  0
 15  9  2  0  0  0  0
 16  5  1  0  0  0  0
 16 34  1  0  0  0  0
 16 35  1  0  0  0  0
 17  7  1  0  0  0  0
 17 36  1  0  0  0  0
 17 37  1  0  0  0  0
 18 15  1  0  0  0  0
 19 17  1  0  0  0  0
 19 16  1  0  0  0  0
 19 38  1  0  0  0  0
 19 39  1  0  0  0  0
 20  9  1  0  0  0  0
 20 40  1  0  0  0  0
 21 15  1  0  0  0  0
 21 41  1  0  0  0  0
 22 18  1  0  0  0  0
 22 42  1  0  0  0  0
 22 43  1  0  0  0  0
 22 44  1  0  0  0  0
 23 20  2  0  0  0  0
 23 45  1  0  0  0  0
 24 23  1  0  0  0  0
 24 21  2  0  0  0  0
 24 46  1  0  0  0  0
M  END
>  <Mol_ID>
8802

>  <Formula>
C19H22N2O2S

>  <MolWeight>
342.45518

>  <Cat>
P3066

>  <Name>
WAY-639019

>  <Synonyms>
N/A

>  <Target>
Bcl-2

>  <Form>
free base

>  <CAS>
793728-59-3

>  <URL>
N/A

$$$$
