WAY-328268
 OpenBabel08302521443D

 42 44  0  0  0  0  0  0  0  0999 V2000
   -0.3890   -1.0960   -0.0211 C   0  0  0  0  0  0  0  0  0  0  0  0
   -1.2820   -0.5570   -0.8688 N   0  0  0  0  0  0  0  0  0  0  0  0
    0.4885   -0.1115    0.4890 C   0  0  0  0  0  0  0  0  0  0  0  0
    0.1326    1.0434   -0.1566 C   0  0  0  0  0  0  0  0  0  0  0  0
   -0.9351    0.7835   -0.9658 O   0  0  0  0  0  0  0  0  0  0  0  0
   -0.3687   -2.5130    0.3165 C   0  0  0  0  0  0  0  0  0  0  0  0
   -3.0789   -5.0686    6.0898 N   0  0  0  0  0  0  0  0  0  0  0  0
   -2.5985   -4.2383    4.0960 N   0  0  0  0  0  0  0  0  0  0  0  0
    0.6654    2.3939   -0.1856 C   0  0  0  0  0  0  0  0  0  0  0  0
   -3.2204   -5.2327    4.7938 C   0  0  0  0  0  0  0  0  0  0  0  0
   -2.3234   -3.9327    6.2298 C   0  0  0  0  0  0  0  0  0  0  0  0
   -1.9923   -3.4121    5.0002 C   0  0  0  0  0  0  0  0  0  0  0  0
    0.5994   -3.0308    0.8624 O   0  0  0  0  0  0  0  0  0  0  0  0
   -0.1606    3.4851   -0.4929 C   0  0  0  0  0  0  0  0  0  0  0  0
   -1.5327   -3.1950    0.0334 N   0  0  0  0  0  0  0  0  0  0  0  0
    0.3625    4.7769   -0.5655 C   0  0  0  0  0  0  0  0  0  0  0  0
   -2.6714   -4.0352    2.6637 C   0  0  0  0  0  0  0  0  0  0  0  0
   -1.6329   -4.8439    1.8923 C   0  0  0  0  0  0  0  0  0  0  0  0
   -0.3472    5.9069   -0.8667 O   0  0  0  0  0  0  0  0  0  0  0  0
    2.0241    2.6181    0.0757 C   0  0  0  0  0  0  0  0  0  0  0  0
    2.5537    3.9051   -0.0037 C   0  0  0  0  0  0  0  0  0  0  0  0
   -1.7096   -4.5820    0.3851 C   0  0  0  0  0  0  0  0  0  0  0  0
    1.7240    4.9773   -0.3295 C   0  0  0  0  0  0  0  0  0  0  0  0
   -1.7356    5.7324   -1.1253 C   0  0  0  0  0  0  0  0  0  0  0  0
    1.2760   -0.2510    1.2143 H   0  0  0  0  0  0  0  0  0  0  0  0
   -3.7664   -6.0360    4.3172 H   0  0  0  0  0  0  0  0  0  0  0  0
   -2.0613   -3.5489    7.2073 H   0  0  0  0  0  0  0  0  0  0  0  0
   -1.4152   -2.5445    4.7124 H   0  0  0  0  0  0  0  0  0  0  0  0
   -1.2149    3.2996   -0.6719 H   0  0  0  0  0  0  0  0  0  0  0  0
   -2.2442   -2.6933   -0.4910 H   0  0  0  0  0  0  0  0  0  0  0  0
   -2.5488   -2.9598    2.4901 H   0  0  0  0  0  0  0  0  0  0  0  0
   -3.6853   -4.3048    2.3469 H   0  0  0  0  0  0  0  0  0  0  0  0
   -1.7806   -5.9151    2.0732 H   0  0  0  0  0  0  0  0  0  0  0  0
   -0.6322   -4.6105    2.2741 H   0  0  0  0  0  0  0  0  0  0  0  0
    2.6895    1.7918    0.3170 H   0  0  0  0  0  0  0  0  0  0  0  0
    3.6124    4.0702    0.1796 H   0  0  0  0  0  0  0  0  0  0  0  0
   -2.6790   -4.9019   -0.0079 H   0  0  0  0  0  0  0  0  0  0  0  0
   -0.9284   -5.1582   -0.1293 H   0  0  0  0  0  0  0  0  0  0  0  0
    2.1409    5.9791   -0.3981 H   0  0  0  0  0  0  0  0  0  0  0  0
   -1.8958    5.0872   -1.9961 H   0  0  0  0  0  0  0  0  0  0  0  0
   -2.2553    5.3416   -0.2432 H   0  0  0  0  0  0  0  0  0  0  0  0
   -2.1591    6.7140   -1.3545 H   0  0  0  0  0  0  0  0  0  0  0  0
  2  1  2  0  0  0  0
  3  1  1  0  0  0  0
  3 25  1  0  0  0  0
  4  3  2  0  0  0  0
  5  2  1  0  0  0  0
  5  4  1  0  0  0  0
  6  1  1  0  0  0  0
  7 10  2  0  0  0  0
  8 17  1  0  0  0  0
  9  4  1  0  0  0  0
 10  8  1  0  0  0  0
 10 26  1  0  0  0  0
 11 12  2  0  0  0  0
 11  7  1  0  0  0  0
 11 27  1  0  0  0  0
 12  8  1  0  0  0  0
 12 28  1  0  0  0  0
 13  6  2  0  0  0  0
 14  9  2  0  0  0  0
 14 29  1  0  0  0  0
 15  6  1  0  0  0  0
 15 30  1  0  0  0  0
 16 14  1  0  0  0  0
 17 18  1  0  0  0  0
 17 31  1  0  0  0  0
 17 32  1  0  0  0  0
 18 22  1  0  0  0  0
 18 33  1  0  0  0  0
 18 34  1  0  0  0  0
 19 16  1  0  0  0  0
 20  9  1  0  0  0  0
 20 35  1  0  0  0  0
 21 20  2  0  0  0  0
 21 36  1  0  0  0  0
 22 15  1  0  0  0  0
 22 37  1  0  0  0  0
 22 38  1  0  0  0  0
 23 21  1  0  0  0  0
 23 16  2  0  0  0  0
 23 39  1  0  0  0  0
 24 19  1  0  0  0  0
 24 40  1  0  0  0  0
 24 41  1  0  0  0  0
 24 42  1  0  0  0  0
M  END
>  <Mol_ID>
9012

>  <Formula>
C17H18N4O3

>  <MolWeight>
326.34982

>  <Cat>
P2578

>  <Name>
WAY-328268

>  <Synonyms>
N/A

>  <Target>
CFTR,Wnt/b-catenin

>  <Form>
free base

>  <CAS>
688050-53-5

>  <URL>
N/A

$$$$
