WAY-638697
 OpenBabel08302521433D

 53 55  0  0  0  0  0  0  0  0999 V2000
    0.9214    0.0830    0.0121 S   0  0  0  0  0  0  0  0  0  0  0  0
   -2.9782   -8.2092    5.8766 S   0  0  0  0  0  0  0  0  0  0  0  0
   -0.5963   -5.1036    2.8049 C   0  0  0  0  0  0  0  0  0  0  0  0
   -0.0523    1.2688    0.7796 N   0  0  0  0  0  0  0  0  0  0  0  0
   -2.7369   -7.0316    4.5577 C   0  0  0  0  0  0  0  0  0  0  0  0
   -1.0202   -5.2210    4.1473 N   0  0  0  0  0  0  0  0  0  0  0  0
   -1.2662   -6.6011    4.6466 C   0  0  3  0  0  0  0  0  0  0  0  0
    0.4288   -1.4130    0.8319 C   0  0  0  0  0  0  0  0  0  0  0  0
    2.2987    0.3326    0.3842 O   0  0  0  0  0  0  0  0  0  0  0  0
    0.5241    0.0022   -1.3781 O   0  0  0  0  0  0  0  0  0  0  0  0
   -0.2372   -3.7937    2.1725 C   0  0  0  0  0  0  0  0  0  0  0  0
   -3.7871   -7.5834    6.9031 O   0  0  0  0  0  0  0  0  0  0  0  0
   -3.3115   -9.5038    5.3241 O   0  0  0  0  0  0  0  0  0  0  0  0
   -0.7589   -6.8747    6.0787 C   0  0  0  0  0  0  0  0  0  0  0  0
   -1.2961   -8.2449    6.4523 C   0  0  0  0  0  0  0  0  0  0  0  0
   -0.5242   -6.0952    2.0763 O   0  0  0  0  0  0  0  0  0  0  0  0
   -0.1910   -2.4461    0.1286 C   0  0  0  0  0  0  0  0  0  0  0  0
    0.7620   -1.5764    2.1780 C   0  0  0  0  0  0  0  0  0  0  0  0
   -0.5272   -3.6274    0.8036 C   0  0  0  0  0  0  0  0  0  0  0  0
    0.4590   -2.7752    2.8329 C   0  0  0  0  0  0  0  0  0  0  0  0
   -1.3932   -4.0937    5.0167 C   0  0  0  0  0  0  0  0  0  0  0  0
   -1.5015    1.2237    0.4522 C   0  0  0  0  0  0  0  0  0  0  0  0
    0.3938    2.6759    0.5530 C   0  0  0  0  0  0  0  0  0  0  0  0
   -2.5807   -3.2543    4.5531 C   0  0  0  0  0  0  0  0  0  0  0  0
   -0.7420    3.3803   -0.1843 C   0  0  0  0  0  0  0  0  0  0  0  0
   -1.6682    2.2681   -0.6350 C   0  0  0  0  0  0  0  0  0  0  0  0
   -2.8293   -2.1354    5.5582 C   0  0  0  0  0  0  0  0  0  0  0  0
   -2.9492   -7.5273    3.6055 H   0  0  0  0  0  0  0  0  0  0  0  0
   -3.4423   -6.2121    4.7046 H   0  0  0  0  0  0  0  0  0  0  0  0
   -0.7022   -7.2950    4.0082 H   0  0  0  0  0  0  0  0  0  0  0  0
    0.3332   -6.8364    6.1334 H   0  0  0  0  0  0  0  0  0  0  0  0
   -1.1448   -6.1581    6.8081 H   0  0  0  0  0  0  0  0  0  0  0  0
   -1.2785   -8.4286    7.5288 H   0  0  0  0  0  0  0  0  0  0  0  0
   -0.7693   -9.0436    5.9235 H   0  0  0  0  0  0  0  0  0  0  0  0
   -0.3953   -2.3546   -0.9365 H   0  0  0  0  0  0  0  0  0  0  0  0
    1.2869   -0.7831    2.7082 H   0  0  0  0  0  0  0  0  0  0  0  0
   -0.9951   -4.4385    0.2456 H   0  0  0  0  0  0  0  0  0  0  0  0
    0.8211   -2.9003    3.8457 H   0  0  0  0  0  0  0  0  0  0  0  0
   -1.6495   -4.4707    6.0071 H   0  0  0  0  0  0  0  0  0  0  0  0
   -0.5117   -3.4754    5.1813 H   0  0  0  0  0  0  0  0  0  0  0  0
   -2.0599    1.5042    1.3537 H   0  0  0  0  0  0  0  0  0  0  0  0
   -1.8496    0.2361    0.1417 H   0  0  0  0  0  0  0  0  0  0  0  0
    1.3275    2.7384   -0.0125 H   0  0  0  0  0  0  0  0  0  0  0  0
    0.5664    3.1475    1.5276 H   0  0  0  0  0  0  0  0  0  0  0  0
   -2.4109   -2.8191    3.5651 H   0  0  0  0  0  0  0  0  0  0  0  0
   -3.4773   -3.8783    4.4761 H   0  0  0  0  0  0  0  0  0  0  0  0
   -0.3724    3.9725   -1.0277 H   0  0  0  0  0  0  0  0  0  0  0  0
   -1.2663    4.0640    0.4930 H   0  0  0  0  0  0  0  0  0  0  0  0
   -1.3359    1.8741   -1.6019 H   0  0  0  0  0  0  0  0  0  0  0  0
   -2.7040    2.6000   -0.7445 H   0  0  0  0  0  0  0  0  0  0  0  0
   -3.0475   -2.5444    6.5511 H   0  0  0  0  0  0  0  0  0  0  0  0
   -1.9487   -1.4896    5.6464 H   0  0  0  0  0  0  0  0  0  0  0  0
   -3.6773   -1.5182    5.2504 H   0  0  0  0  0  0  0  0  0  0  0  0
  2  5  1  0  0  0  0
  2 15  1  0  0  0  0
  3 11  1  0  0  0  0
  4  1  1  0  0  0  0
  5  7  1  0  0  0  0
  5 28  1  0  0  0  0
  5 29  1  0  0  0  0
  6  3  1  0  0  0  0
  7  6  1  0  0  0  0
  7 30  1  0  0  0  0
  8  1  1  0  0  0  0
  9  1  2  0  0  0  0
 10  1  2  0  0  0  0
 11 20  1  0  0  0  0
 12  2  2  0  0  0  0
 13  2  2  0  0  0  0
 14  7  1  0  0  0  0
 14 31  1  0  0  0  0
 14 32  1  0  0  0  0
 15 14  1  0  0  0  0
 15 33  1  0  0  0  0
 15 34  1  0  0  0  0
 16  3  2  0  0  0  0
 17  8  2  0  0  0  0
 17 35  1  0  0  0  0
 18  8  1  0  0  0  0
 18 36  1  0  0  0  0
 19 17  1  0  0  0  0
 19 11  2  0  0  0  0
 19 37  1  0  0  0  0
 20 18  2  0  0  0  0
 20 38  1  0  0  0  0
 21  6  1  0  0  0  0
 21 39  1  0  0  0  0
 21 40  1  0  0  0  0
 22  4  1  0  0  0  0
 22 41  1  0  0  0  0
 22 42  1  0  0  0  0
 23  4  1  0  0  0  0
 23 43  1  0  0  0  0
 23 44  1  0  0  0  0
 24 21  1  0  0  0  0
 24 45  1  0  0  0  0
 24 46  1  0  0  0  0
 25 23  1  0  0  0  0
 25 26  1  0  0  0  0
 25 47  1  0  0  0  0
 25 48  1  0  0  0  0
 26 22  1  0  0  0  0
 26 49  1  0  0  0  0
 26 50  1  0  0  0  0
 27 24  1  0  0  0  0
 27 51  1  0  0  0  0
 27 52  1  0  0  0  0
 27 53  1  0  0  0  0
M  END
>  <Mol_ID>
8785

>  <Formula>
C18H26N2O5S2

>  <MolWeight>
414.53944

>  <Cat>
P3049

>  <Name>
WAY-638697

>  <Synonyms>
N/A

>  <Target>
¦Á7¦Â1 integrin

>  <Form>
free base

>  <CAS>
796083-16-4

>  <URL>
N/A

$$$$
