WAY-638440
 OpenBabel08302521423D

 21 22  0  0  0  0  0  0  0  0999 V2000
   -0.7227    1.2269   -0.1012 C   0  0  0  0  0  0  0  0  0  0  0  0
   -1.4400    2.5324   -0.2096 C   0  0  0  0  0  0  0  0  0  0  0  0
    0.6607    1.2076   -0.2512 C   0  0  0  0  0  0  0  0  0  0  0  0
   -1.4770    0.1162    0.1380 N   0  0  0  0  0  0  0  0  0  0  0  0
   -2.7843    2.4725    0.0756 N   0  0  0  0  0  0  0  0  0  0  0  0
   -0.7898    3.5321   -0.5049 O   0  0  0  0  0  0  0  0  0  0  0  0
    1.3216   -0.0110   -0.1720 C   0  0  0  0  0  0  0  0  0  0  0  0
   -0.7964   -1.0529    0.2006 C   0  0  0  0  0  0  0  0  0  0  0  0
   -3.5640    3.5933    0.0376 C   0  0  0  0  0  0  0  0  0  0  0  0
    0.5801   -1.1657    0.0523 C   0  0  0  0  0  0  0  0  0  0  0  0
   -3.2631    4.7777   -0.4307 N   0  0  0  0  0  0  0  0  0  0  0  0
   -5.1246    3.4251    0.7101 S   0  0  0  0  0  0  0  0  0  0  0  0
   -4.3098    5.6446   -0.2119 C   0  0  0  0  0  0  0  0  0  0  0  0
   -5.4005    5.1003    0.4330 C   0  0  0  0  0  0  0  0  0  0  0  0
    1.2121    2.1277   -0.4282 H   0  0  0  0  0  0  0  0  0  0  0  0
   -3.1798    1.5964    0.3968 H   0  0  0  0  0  0  0  0  0  0  0  0
    2.4007   -0.0557   -0.2898 H   0  0  0  0  0  0  0  0  0  0  0  0
   -1.4037   -1.9376    0.3757 H   0  0  0  0  0  0  0  0  0  0  0  0
    1.0683   -2.1331    0.1066 H   0  0  0  0  0  0  0  0  0  0  0  0
   -4.2154    6.6744   -0.5350 H   0  0  0  0  0  0  0  0  0  0  0  0
   -6.3149    5.5906    0.7328 H   0  0  0  0  0  0  0  0  0  0  0  0
  1  2  1  0  0  0  0
  1  3  2  0  0  0  0
  1  4  1  0  0  0  0
  2  5  1  0  0  0  0
  2  6  2  0  0  0  0
  3  7  1  0  0  0  0
  3 15  1  0  0  0  0
  4  8  2  0  0  0  0
  5  9  1  0  0  0  0
  5 16  1  0  0  0  0
  7 10  2  0  0  0  0
  7 17  1  0  0  0  0
  8 10  1  0  0  0  0
  8 18  1  0  0  0  0
  9 11  2  0  0  0  0
  9 12  1  0  0  0  0
 10 19  1  0  0  0  0
 11 13  1  0  0  0  0
 12 14  1  0  0  0  0
 13 14  2  0  0  0  0
 13 20  1  0  0  0  0
 14 21  1  0  0  0  0
M  END
>  <Mol_ID>
8514

>  <Formula>
C9H7N3OS

>  <MolWeight>
205.23638

>  <Cat>
P3040

>  <Name>
WAY-638440

>  <Synonyms>
N/A

>  <Target>
type I MetAPs,Anti-infection

>  <Form>
free base

>  <CAS>
301208-58-2

>  <URL>
N/A

$$$$
