WAY-328260
 OpenBabel08302521443D

 36 38  0  0  0  0  0  0  0  0999 V2000
   -0.3148   -1.2975    0.2142 C   0  0  0  0  0  0  0  0  0  0  0  0
    0.7063   -0.5917    0.7311 N   0  0  0  0  0  0  0  0  0  0  0  0
   -1.3794   -0.4414   -0.1650 C   0  0  0  0  0  0  0  0  0  0  0  0
   -0.9340    0.8233    0.1263 C   0  0  0  0  0  0  0  0  0  0  0  0
    0.3230    0.7362    0.6478 O   0  0  0  0  0  0  0  0  0  0  0  0
   -0.2698   -2.7541    0.0863 C   0  0  0  0  0  0  0  0  0  0  0  0
   -1.4918    2.1613    0.0207 C   0  0  0  0  0  0  0  0  0  0  0  0
    0.6148   -3.3828    0.9327 N   0  0  0  0  0  0  0  0  0  0  0  0
    1.5398   -5.2626    2.1087 C   0  0  0  0  0  0  0  0  0  0  0  0
    1.1601   -4.8989    3.3694 O   0  0  0  0  0  0  0  0  0  0  0  0
   -0.9990   -3.3662   -0.6916 O   0  0  0  0  0  0  0  0  0  0  0  0
   -0.6868    3.2336   -0.3984 C   0  0  0  0  0  0  0  0  0  0  0  0
    2.6850   -6.0318    2.1692 C   0  0  0  0  0  0  0  0  0  0  0  0
    2.0562   -5.4485    4.2294 C   0  0  0  0  0  0  0  0  0  0  0  0
    3.0129   -6.1561    3.5407 C   0  0  0  0  0  0  0  0  0  0  0  0
    0.6693   -4.8217    0.9940 C   0  0  0  0  0  0  0  0  0  0  0  0
   -1.2112    4.5234   -0.5039 C   0  0  0  0  0  0  0  0  0  0  0  0
   -0.5262    5.6352   -0.9132 O   0  0  0  0  0  0  0  0  0  0  0  0
   -2.8363    2.4014    0.3320 C   0  0  0  0  0  0  0  0  0  0  0  0
   -3.3608    3.6920    0.2439 C   0  0  0  0  0  0  0  0  0  0  0  0
   -2.5488    4.7467   -0.1737 C   0  0  0  0  0  0  0  0  0  0  0  0
    0.8290    5.4426   -1.3025 C   0  0  0  0  0  0  0  0  0  0  0  0
   -2.3293   -0.7255   -0.5932 H   0  0  0  0  0  0  0  0  0  0  0  0
    1.0877   -2.8290    1.6405 H   0  0  0  0  0  0  0  0  0  0  0  0
    0.3505    3.0318   -0.6470 H   0  0  0  0  0  0  0  0  0  0  0  0
    3.2065   -6.4650    1.3273 H   0  0  0  0  0  0  0  0  0  0  0  0
    1.8772   -5.2555    5.2781 H   0  0  0  0  0  0  0  0  0  0  0  0
    3.8393   -6.7010    3.9757 H   0  0  0  0  0  0  0  0  0  0  0  0
   -0.3459   -5.2125    1.1279 H   0  0  0  0  0  0  0  0  0  0  0  0
    1.0468   -5.1857    0.0322 H   0  0  0  0  0  0  0  0  0  0  0  0
   -3.4816    1.5926    0.6676 H   0  0  0  0  0  0  0  0  0  0  0  0
   -4.3995    3.8791    0.5040 H   0  0  0  0  0  0  0  0  0  0  0  0
   -2.9607    5.7508   -0.2429 H   0  0  0  0  0  0  0  0  0  0  0  0
    1.4357    5.0999   -0.4586 H   0  0  0  0  0  0  0  0  0  0  0  0
    0.9031    4.7534   -2.1510 H   0  0  0  0  0  0  0  0  0  0  0  0
    1.2271    6.4097   -1.6240 H   0  0  0  0  0  0  0  0  0  0  0  0
  2  1  2  0  0  0  0
  3  1  1  0  0  0  0
  3 23  1  0  0  0  0
  4  3  2  0  0  0  0
  5  2  1  0  0  0  0
  5  4  1  0  0  0  0
  6  1  1  0  0  0  0
  7  4  1  0  0  0  0
  8  6  1  0  0  0  0
  8 24  1  0  0  0  0
  9 16  1  0  0  0  0
 10  9  1  0  0  0  0
 11  6  2  0  0  0  0
 12  7  2  0  0  0  0
 12 25  1  0  0  0  0
 13  9  2  0  0  0  0
 13 26  1  0  0  0  0
 14 10  1  0  0  0  0
 14 27  1  0  0  0  0
 15 13  1  0  0  0  0
 15 14  2  0  0  0  0
 15 28  1  0  0  0  0
 16  8  1  0  0  0  0
 16 29  1  0  0  0  0
 16 30  1  0  0  0  0
 17 12  1  0  0  0  0
 18 17  1  0  0  0  0
 19  7  1  0  0  0  0
 19 31  1  0  0  0  0
 20 19  2  0  0  0  0
 20 32  1  0  0  0  0
 21 20  1  0  0  0  0
 21 17  2  0  0  0  0
 21 33  1  0  0  0  0
 22 18  1  0  0  0  0
 22 34  1  0  0  0  0
 22 35  1  0  0  0  0
 22 36  1  0  0  0  0
M  END
>  <Mol_ID>
9011

>  <Formula>
C16H14N2O4

>  <MolWeight>
298.29336

>  <Cat>
P2577

>  <Name>
WAY-328260

>  <Synonyms>
N/A

>  <Target>
CFTR

>  <Form>
free base

>  <CAS>
909861-78-5

>  <URL>
N/A

$$$$
