WAY-328124
 OpenBabel08302521443D

 32 34  0  0  0  0  0  0  0  0999 V2000
   -0.3018   -1.2572    0.2533 C   0  0  0  0  0  0  0  0  0  0  0  0
    0.6919   -0.5332    0.7951 N   0  0  0  0  0  0  0  0  0  0  0  0
   -1.3768   -0.4200   -0.1385 C   0  0  0  0  0  0  0  0  0  0  0  0
   -0.9715    0.8551    0.1732 C   0  0  0  0  0  0  0  0  0  0  0  0
    0.2750    0.7882    0.7241 O   0  0  0  0  0  0  0  0  0  0  0  0
   -0.2390   -2.7126    0.1096 C   0  0  0  0  0  0  0  0  0  0  0  0
    0.6795   -3.3465    0.9128 N   0  0  0  0  0  0  0  0  0  0  0  0
    1.6681   -5.2457    2.0035 C   0  0  0  0  0  0  0  0  0  0  0  0
   -1.5707    2.1776    0.0369 C   0  0  0  0  0  0  0  0  0  0  0  0
    1.3436   -4.9205    3.2899 O   0  0  0  0  0  0  0  0  0  0  0  0
   -0.9870   -3.3200   -0.6534 O   0  0  0  0  0  0  0  0  0  0  0  0
    2.8210   -6.0027    1.9876 C   0  0  0  0  0  0  0  0  0  0  0  0
    2.2828   -5.4860    4.0912 C   0  0  0  0  0  0  0  0  0  0  0  0
    3.2126   -6.1643    3.3385 C   0  0  0  0  0  0  0  0  0  0  0  0
    0.7407   -4.7854    0.9434 C   0  0  0  0  0  0  0  0  0  0  0  0
   -1.0916    3.2794    0.7671 C   0  0  0  0  0  0  0  0  0  0  0  0
   -2.6634    2.3745   -0.8264 C   0  0  0  0  0  0  0  0  0  0  0  0
   -2.7692    4.7001   -0.2180 C   0  0  0  0  0  0  0  0  0  0  0  0
   -3.2603    3.6299   -0.9557 C   0  0  0  0  0  0  0  0  0  0  0  0
   -1.6910    4.5366    0.6418 C   0  0  0  0  0  0  0  0  0  0  0  0
   -3.3435    5.9037   -0.3358 F   0  0  0  0  0  0  0  0  0  0  0  0
   -2.3162   -0.7290   -0.5715 H   0  0  0  0  0  0  0  0  0  0  0  0
    1.1667   -2.8016    1.6167 H   0  0  0  0  0  0  0  0  0  0  0  0
    3.3062   -6.4071    1.1101 H   0  0  0  0  0  0  0  0  0  0  0  0
    2.1505   -5.3261    5.1520 H   0  0  0  0  0  0  0  0  0  0  0  0
    4.0617   -6.7142    3.7187 H   0  0  0  0  0  0  0  0  0  0  0  0
   -0.2644   -5.1822    1.1223 H   0  0  0  0  0  0  0  0  0  0  0  0
    1.0686   -5.1313   -0.0430 H   0  0  0  0  0  0  0  0  0  0  0  0
   -0.2518    3.1679    1.4508 H   0  0  0  0  0  0  0  0  0  0  0  0
   -3.0604    1.5511   -1.4164 H   0  0  0  0  0  0  0  0  0  0  0  0
   -4.1021    3.7813   -1.6240 H   0  0  0  0  0  0  0  0  0  0  0  0
   -1.3257    5.3850    1.2114 H   0  0  0  0  0  0  0  0  0  0  0  0
  2  1  2  0  0  0  0
  3  1  1  0  0  0  0
  3 22  1  0  0  0  0
  4  3  2  0  0  0  0
  5  2  1  0  0  0  0
  5  4  1  0  0  0  0
  6  1  1  0  0  0  0
  7  6  1  0  0  0  0
  7 23  1  0  0  0  0
  8 15  1  0  0  0  0
  9  4  1  0  0  0  0
 10  8  1  0  0  0  0
 11  6  2  0  0  0  0
 12  8  2  0  0  0  0
 12 24  1  0  0  0  0
 13 10  1  0  0  0  0
 13 25  1  0  0  0  0
 14 12  1  0  0  0  0
 14 13  2  0  0  0  0
 14 26  1  0  0  0  0
 15  7  1  0  0  0  0
 15 27  1  0  0  0  0
 15 28  1  0  0  0  0
 16  9  2  0  0  0  0
 16 29  1  0  0  0  0
 17  9  1  0  0  0  0
 17 30  1  0  0  0  0
 18 19  1  0  0  0  0
 19 17  2  0  0  0  0
 19 31  1  0  0  0  0
 20 16  1  0  0  0  0
 20 18  2  0  0  0  0
 20 32  1  0  0  0  0
 21 18  1  0  0  0  0
M  END
>  <Mol_ID>
9000

>  <Formula>
C15H11FN2O3

>  <MolWeight>
286.2578432

>  <Cat>
P2563

>  <Name>
WAY-328124

>  <Synonyms>
N/A

>  <Target>
CFTR

>  <Form>
free base

>  <CAS>
909207-15-4

>  <URL>
N/A

$$$$
