WAY-299920
 OpenBabel08302521413D

 40 42  0  0  0  0  0  0  0  0999 V2000
   -1.8955    0.8636    1.0411 C   0  0  0  0  0  0  0  0  0  0  0  0
   -0.9383    1.4345    0.1313 N   0  0  0  0  0  0  0  0  0  0  0  0
   -1.5222   -0.2153    1.8698 C   0  0  0  0  0  0  0  0  0  0  0  0
   -3.2180    1.3266    1.1127 C   0  0  0  0  0  0  0  0  0  0  0  0
   -1.0660    2.7499   -0.3518 C   0  0  0  0  0  0  0  0  0  0  0  0
    0.1902    0.5607   -0.2198 C   0  0  0  0  0  0  0  0  0  0  0  0
   -0.1633   -0.8597    1.7913 C   0  0  0  0  0  0  0  0  0  0  0  0
   -2.4468   -0.7480    2.7873 C   0  0  0  0  0  0  0  0  0  0  0  0
   -4.1355    0.7744    2.0113 C   0  0  0  0  0  0  0  0  0  0  0  0
   -0.1409    3.1587   -1.5023 C   0  0  0  0  0  0  0  0  0  0  0  0
   -1.8804    3.5762    0.0648 O   0  0  0  0  0  0  0  0  0  0  0  0
    0.8425   -0.0322    1.0132 C   0  0  0  0  0  0  0  0  0  0  0  0
   -3.7431   -0.2484    2.8645 C   0  0  0  0  0  0  0  0  0  0  0  0
    1.1559    3.5194   -1.0388 O   0  0  0  0  0  0  0  0  0  0  0  0
    2.1650    3.4774   -1.9681 C   0  0  0  0  0  0  0  0  0  0  0  0
    3.4834    3.4943   -1.4826 C   0  0  0  0  0  0  0  0  0  0  0  0
    1.9427    3.3960   -3.3502 C   0  0  0  0  0  0  0  0  0  0  0  0
    4.5517    3.4121   -2.3928 C   0  0  0  0  0  0  0  0  0  0  0  0
    3.8070    3.6382   -0.0191 C   0  0  0  0  0  0  0  0  0  0  0  0
    3.0124    3.2706   -4.2394 C   0  0  0  0  0  0  0  0  0  0  0  0
    4.3143    3.2767   -3.7602 C   0  0  0  0  0  0  0  0  0  0  0  0
   -3.5811    2.1052    0.4472 H   0  0  0  0  0  0  0  0  0  0  0  0
    0.9591    1.0901   -0.7796 H   0  0  0  0  0  0  0  0  0  0  0  0
   -0.1980   -0.2246   -0.8821 H   0  0  0  0  0  0  0  0  0  0  0  0
   -0.2819   -1.8370    1.3059 H   0  0  0  0  0  0  0  0  0  0  0  0
    0.2294   -1.0368    2.7995 H   0  0  0  0  0  0  0  0  0  0  0  0
   -2.1532   -1.5604    3.4485 H   0  0  0  0  0  0  0  0  0  0  0  0
   -5.1548    1.1496    2.0396 H   0  0  0  0  0  0  0  0  0  0  0  0
   -0.1245    2.3250   -2.2126 H   0  0  0  0  0  0  0  0  0  0  0  0
   -0.5963    4.0219   -2.0024 H   0  0  0  0  0  0  0  0  0  0  0  0
    1.6946   -0.6585    0.7279 H   0  0  0  0  0  0  0  0  0  0  0  0
    1.2308    0.7766    1.6458 H   0  0  0  0  0  0  0  0  0  0  0  0
   -4.4480   -0.6638    3.5793 H   0  0  0  0  0  0  0  0  0  0  0  0
    0.9448    3.4263   -3.7737 H   0  0  0  0  0  0  0  0  0  0  0  0
    5.5779    3.4418   -2.0352 H   0  0  0  0  0  0  0  0  0  0  0  0
    4.6579    2.9981    0.2431 H   0  0  0  0  0  0  0  0  0  0  0  0
    4.0695    4.6767    0.2087 H   0  0  0  0  0  0  0  0  0  0  0  0
    2.9758    3.3356    0.6232 H   0  0  0  0  0  0  0  0  0  0  0  0
    2.8196    3.1710   -5.3029 H   0  0  0  0  0  0  0  0  0  0  0  0
    5.1491    3.1845   -4.4514 H   0  0  0  0  0  0  0  0  0  0  0  0
  1  2  1  0  0  0  0
  1  3  1  0  0  0  0
  1  4  2  0  0  0  0
  2  5  1  0  0  0  0
  2  6  1  0  0  0  0
  3  7  1  0  0  0  0
  3  8  2  0  0  0  0
  4  9  1  0  0  0  0
  4 22  1  0  0  0  0
  5 10  1  0  0  0  0
  5 11  2  0  0  0  0
  6 12  1  0  0  0  0
  6 23  1  0  0  0  0
  6 24  1  0  0  0  0
  7 12  1  0  0  0  0
  7 25  1  0  0  0  0
  7 26  1  0  0  0  0
  8 13  1  0  0  0  0
  8 27  1  0  0  0  0
  9 13  2  0  0  0  0
  9 28  1  0  0  0  0
 10 14  1  0  0  0  0
 10 29  1  0  0  0  0
 10 30  1  0  0  0  0
 12 31  1  0  0  0  0
 12 32  1  0  0  0  0
 13 33  1  0  0  0  0
 14 15  1  0  0  0  0
 15 16  2  0  0  0  0
 15 17  1  0  0  0  0
 16 18  1  0  0  0  0
 16 19  1  0  0  0  0
 17 20  2  0  0  0  0
 17 34  1  0  0  0  0
 18 21  2  0  0  0  0
 18 35  1  0  0  0  0
 19 36  1  0  0  0  0
 19 37  1  0  0  0  0
 19 38  1  0  0  0  0
 20 21  1  0  0  0  0
 20 39  1  0  0  0  0
 21 40  1  0  0  0  0
M  END
>  <Mol_ID>
8399

>  <Formula>
C18H19NO2

>  <MolWeight>
281.34896

>  <Cat>
P2125

>  <Name>
WAY-299920

>  <Synonyms>
N/A

>  <Target>
11bHSD1

>  <Form>
free base

>  <CAS>
304676-35-5

>  <URL>
N/A

$$$$
