WAY-606551
 OpenBabel08302521433D

 32 34  0  0  0  0  0  0  0  0999 V2000
   -1.6232    1.0148   -0.1851 C   0  0  0  0  0  0  0  0  0  0  0  0
   -0.2962    0.4521    0.0262 C   0  0  0  0  0  0  0  0  0  0  0  0
   -1.9083    2.4505   -0.3172 C   0  0  0  0  0  0  0  0  0  0  0  0
   -0.3091   -0.9331    0.0219 C   0  0  0  0  0  0  0  0  0  0  0  0
   -3.0112    2.9769   -0.9403 N   0  0  0  0  0  0  0  0  0  0  0  0
   -2.5618    0.0010   -0.1130 C   0  0  0  0  0  0  0  0  0  0  0  0
   -3.9106    2.4201   -1.7956 C   0  0  0  0  0  0  0  0  0  0  0  0
   -1.8804   -1.5667   -0.0305 S   0  0  0  0  0  0  0  0  0  0  0  0
   -4.0360    1.1983   -2.2394 N   0  0  0  0  0  0  0  0  0  0  0  0
   -5.0429    3.5575   -2.4011 S   0  0  0  0  0  0  0  0  0  0  0  0
    0.9967    1.2175    0.1671 C   0  0  0  0  0  0  0  0  0  0  0  0
    0.9058   -1.8151    0.0953 C   0  0  0  0  0  0  0  0  0  0  0  0
   -1.1307    3.2850    0.1601 O   0  0  0  0  0  0  0  0  0  0  0  0
   -5.1132    1.1280   -3.1048 C   0  0  0  0  0  0  0  0  0  0  0  0
   -5.7778    2.3159   -3.3282 C   0  0  0  0  0  0  0  0  0  0  0  0
    2.1717    0.3092    0.5734 C   0  0  0  0  0  0  0  0  0  0  0  0
    2.1671   -0.9924   -0.2506 C   0  0  3  0  0  0  0  0  0  0  0  0
    3.4482   -1.7914   -0.0336 C   0  0  0  0  0  0  0  0  0  0  0  0
   -3.0552    3.9829   -0.8659 H   0  0  0  0  0  0  0  0  0  0  0  0
   -3.6405    0.0834   -0.1296 H   0  0  0  0  0  0  0  0  0  0  0  0
    0.8949    2.0036    0.9231 H   0  0  0  0  0  0  0  0  0  0  0  0
    1.2281    1.6990   -0.7909 H   0  0  0  0  0  0  0  0  0  0  0  0
    0.8148   -2.6568   -0.6014 H   0  0  0  0  0  0  0  0  0  0  0  0
    0.9890   -2.2289    1.1086 H   0  0  0  0  0  0  0  0  0  0  0  0
   -5.3703    0.1756   -3.5541 H   0  0  0  0  0  0  0  0  0  0  0  0
   -6.6297    2.5036   -3.9624 H   0  0  0  0  0  0  0  0  0  0  0  0
    2.0936    0.0636    1.6424 H   0  0  0  0  0  0  0  0  0  0  0  0
    3.1139    0.8532    0.4439 H   0  0  0  0  0  0  0  0  0  0  0  0
    2.1266   -0.7235   -1.3155 H   0  0  0  0  0  0  0  0  0  0  0  0
    3.5908   -2.0537    1.0194 H   0  0  0  0  0  0  0  0  0  0  0  0
    3.4343   -2.7155   -0.6210 H   0  0  0  0  0  0  0  0  0  0  0  0
    4.3178   -1.2083   -0.3568 H   0  0  0  0  0  0  0  0  0  0  0  0
  2  1  1  0  0  0  0
  3  1  1  0  0  0  0
  4  2  2  0  0  0  0
  4  8  1  0  0  0  0
  5  3  1  0  0  0  0
  5 19  1  0  0  0  0
  6  1  2  0  0  0  0
  6 20  1  0  0  0  0
  7  5  1  0  0  0  0
  8  6  1  0  0  0  0
  9  7  2  0  0  0  0
 10  7  1  0  0  0  0
 11  2  1  0  0  0  0
 11 21  1  0  0  0  0
 11 22  1  0  0  0  0
 12  4  1  0  0  0  0
 12 23  1  0  0  0  0
 12 24  1  0  0  0  0
 13  3  2  0  0  0  0
 14  9  1  0  0  0  0
 14 25  1  0  0  0  0
 15 10  1  0  0  0  0
 15 14  2  0  0  0  0
 15 26  1  0  0  0  0
 16 11  1  0  0  0  0
 16 27  1  0  0  0  0
 16 28  1  0  0  0  0
 17 16  1  0  0  0  0
 17 12  1  0  0  0  0
 17 29  1  0  0  0  0
 18 17  1  0  0  0  0
 18 30  1  0  0  0  0
 18 31  1  0  0  0  0
 18 32  1  0  0  0  0
M  END
>  <Mol_ID>
8722

>  <Formula>
C13H14N2OS2

>  <MolWeight>
278.39306

>  <Cat>
P2865

>  <Name>
WAY-606551

>  <Synonyms>
N/A

>  <Target>
glucokinase

>  <Form>
free base

>  <CAS>
750609-61-1

>  <URL>
N/A

$$$$
