WAY-327363
 OpenBabel08302521443D

 56 59  0  0  0  0  0  0  0  0999 V2000
    1.3292   -0.0149    0.1648 S   0  0  0  0  0  0  0  0  0  0  0  0
   -1.1118    0.8195    5.9011 C   0  0  0  0  0  0  0  0  0  0  0  0
   -0.7768    1.6344    4.8194 C   0  0  0  0  0  0  0  0  0  0  0  0
   -0.8696   -0.4926    5.5716 O   0  0  0  0  0  0  0  0  0  0  0  0
   -0.3277    0.7529    3.7819 C   0  0  0  0  0  0  0  0  0  0  0  0
    2.9117   -0.6233    0.4003 N   0  0  0  0  0  0  0  0  0  0  0  0
    0.5723   -0.2202    1.7615 C   0  0  0  0  0  0  0  0  0  0  0  0
   -0.4040   -0.5315    4.2976 C   0  0  0  0  0  0  0  0  0  0  0  0
   -1.5854    1.0771    7.2544 C   0  0  0  0  0  0  0  0  0  0  0  0
    0.1680    0.9219    2.4754 C   0  0  0  0  0  0  0  0  0  0  0  0
    0.6433   -0.8888   -0.7597 O   0  0  0  0  0  0  0  0  0  0  0  0
    1.4215    1.4082   -0.0941 O   0  0  0  0  0  0  0  0  0  0  0  0
   -2.3723    2.2018    7.4043 N   0  0  0  0  0  0  0  0  0  0  0  0
    3.6980   -0.1365    1.5588 C   0  0  0  0  0  0  0  0  0  0  0  0
    3.7563   -0.6714   -0.8242 C   0  0  0  0  0  0  0  0  0  0  0  0
    0.4624   -1.5052    2.3035 C   0  0  0  0  0  0  0  0  0  0  0  0
   -0.0332   -1.6836    3.6006 C   0  0  0  0  0  0  0  0  0  0  0  0
   -1.3211    0.3515    8.2103 O   0  0  0  0  0  0  0  0  0  0  0  0
   -2.7974    2.6834    8.6989 C   0  0  0  0  0  0  0  0  0  0  0  0
   -7.0578    3.2427    8.9082 C   0  0  0  0  0  0  0  0  0  0  0  0
   -0.7829    3.1175    4.7149 C   0  0  0  0  0  0  0  0  0  0  0  0
   -4.2905    2.8869    8.7567 C   0  0  0  0  0  0  0  0  0  0  0  0
    4.2154    1.2722    1.3295 C   0  0  0  0  0  0  0  0  0  0  0  0
    4.3225    0.7066   -1.1631 C   0  0  0  0  0  0  0  0  0  0  0  0
   -8.3843    3.4145    8.9808 F   0  0  0  0  0  0  0  0  0  0  0  0
   -6.5408    1.9674    8.7180 C   0  0  0  0  0  0  0  0  0  0  0  0
   -6.2182    4.3430    9.0301 C   0  0  0  0  0  0  0  0  0  0  0  0
   -5.1583    1.7880    8.6448 C   0  0  0  0  0  0  0  0  0  0  0  0
   -4.8347    4.1667    8.9556 C   0  0  0  0  0  0  0  0  0  0  0  0
    5.0230    1.3813    0.0293 C   0  0  0  0  0  0  0  0  0  0  0  0
    5.3057    2.8515   -0.2797 C   0  0  0  0  0  0  0  0  0  0  0  0
    0.2617    1.9156    2.0452 H   0  0  0  0  0  0  0  0  0  0  0  0
   -2.6897    2.7002    6.5868 H   0  0  0  0  0  0  0  0  0  0  0  0
    4.5402   -0.8244    1.7114 H   0  0  0  0  0  0  0  0  0  0  0  0
    3.1147   -0.1890    2.4813 H   0  0  0  0  0  0  0  0  0  0  0  0
    4.5770   -1.3789   -0.6490 H   0  0  0  0  0  0  0  0  0  0  0  0
    3.1873   -1.0745   -1.6689 H   0  0  0  0  0  0  0  0  0  0  0  0
    0.7887   -2.3695    1.7266 H   0  0  0  0  0  0  0  0  0  0  0  0
   -0.1065   -2.6643    4.0562 H   0  0  0  0  0  0  0  0  0  0  0  0
   -2.4806    2.0162    9.5069 H   0  0  0  0  0  0  0  0  0  0  0  0
   -2.2814    3.6379    8.8511 H   0  0  0  0  0  0  0  0  0  0  0  0
    0.2079    3.4777    4.4200 H   0  0  0  0  0  0  0  0  0  0  0  0
   -1.5032    3.4370    3.9540 H   0  0  0  0  0  0  0  0  0  0  0  0
   -1.0344    3.6118    5.6539 H   0  0  0  0  0  0  0  0  0  0  0  0
    4.8474    1.5619    2.1780 H   0  0  0  0  0  0  0  0  0  0  0  0
    3.3807    1.9809    1.3218 H   0  0  0  0  0  0  0  0  0  0  0  0
    3.5198    1.3503   -1.5397 H   0  0  0  0  0  0  0  0  0  0  0  0
    5.0376    0.6045   -1.9892 H   0  0  0  0  0  0  0  0  0  0  0  0
   -7.2149    1.1210    8.6343 H   0  0  0  0  0  0  0  0  0  0  0  0
   -6.6459    5.3281    9.1885 H   0  0  0  0  0  0  0  0  0  0  0  0
   -4.7552    0.7855    8.5088 H   0  0  0  0  0  0  0  0  0  0  0  0
   -4.1871    5.0342    9.0642 H   0  0  0  0  0  0  0  0  0  0  0  0
    5.9832    0.8723    0.1868 H   0  0  0  0  0  0  0  0  0  0  0  0
    5.9151    2.9524   -1.1829 H   0  0  0  0  0  0  0  0  0  0  0  0
    4.3734    3.4063   -0.4371 H   0  0  0  0  0  0  0  0  0  0  0  0
    5.8417    3.3270    0.5483 H   0  0  0  0  0  0  0  0  0  0  0  0
  2  3  2  0  0  0  0
  3  5  1  0  0  0  0
  4  8  1  0  0  0  0
  4  2  1  0  0  0  0
  5 10  2  0  0  0  0
  5  8  1  0  0  0  0
  6  1  1  0  0  0  0
  7  1  1  0  0  0  0
  8 17  2  0  0  0  0
  9  2  1  0  0  0  0
 10  7  1  0  0  0  0
 10 32  1  0  0  0  0
 11  1  2  0  0  0  0
 12  1  2  0  0  0  0
 13  9  1  0  0  0  0
 13 33  1  0  0  0  0
 14  6  1  0  0  0  0
 14 34  1  0  0  0  0
 14 35  1  0  0  0  0
 15  6  1  0  0  0  0
 15 36  1  0  0  0  0
 15 37  1  0  0  0  0
 16  7  2  0  0  0  0
 16 38  1  0  0  0  0
 17 16  1  0  0  0  0
 17 39  1  0  0  0  0
 18  9  2  0  0  0  0
 19 13  1  0  0  0  0
 19 40  1  0  0  0  0
 19 41  1  0  0  0  0
 20 27  2  0  0  0  0
 20 26  1  0  0  0  0
 21  3  1  0  0  0  0
 21 42  1  0  0  0  0
 21 43  1  0  0  0  0
 21 44  1  0  0  0  0
 22 19  1  0  0  0  0
 23 14  1  0  0  0  0
 23 30  1  0  0  0  0
 23 45  1  0  0  0  0
 23 46  1  0  0  0  0
 24 15  1  0  0  0  0
 24 47  1  0  0  0  0
 24 48  1  0  0  0  0
 25 20  1  0  0  0  0
 26 28  2  0  0  0  0
 26 49  1  0  0  0  0
 27 29  1  0  0  0  0
 27 50  1  0  0  0  0
 28 22  1  0  0  0  0
 28 51  1  0  0  0  0
 29 22  2  0  0  0  0
 29 52  1  0  0  0  0
 30 24  1  0  0  0  0
 30 53  1  0  0  0  0
 31 30  1  0  0  0  0
 31 54  1  0  0  0  0
 31 55  1  0  0  0  0
 31 56  1  0  0  0  0
M  END
>  <Mol_ID>
8965

>  <Formula>
C23H25FN2O4S

>  <MolWeight>
444.5190032

>  <Cat>
P2525

>  <Name>
WAY-327363

>  <Synonyms>
N/A

>  <Target>
calcium channel

>  <Form>
free base

>  <CAS>
874370-15-7

>  <URL>
N/A

$$$$
