WAY-325855
 OpenBabel08302521433D

 56 60  0  0  0  0  0  0  0  0999 V2000
    1.0513    0.0716    0.4400 S   0  0  0  0  0  0  0  0  0  0  0  0
    3.3989   -2.1926   -3.8369 C   0  0  0  0  0  0  0  0  0  0  0  0
    0.6100   -0.5938   -1.0555 N   0  0  0  0  0  0  0  0  0  0  0  0
    4.5254   -1.5164   -4.1460 N   0  0  0  0  0  0  0  0  0  0  0  0
    5.3987   -1.9857   -5.1082 N   0  0  0  0  0  0  0  0  0  0  0  0
    2.4848   -1.6580   -2.9289 N   0  0  0  0  0  0  0  0  0  0  0  0
    5.1563   -3.1540   -5.7470 C   0  0  0  0  0  0  0  0  0  0  0  0
    3.1029   -3.4123   -4.4939 C   0  0  0  0  0  0  0  0  0  0  0  0
    4.0309   -3.9461   -5.4108 C   0  0  0  0  0  0  0  0  0  0  0  0
    1.2593    1.4928    0.2825 O   0  0  0  0  0  0  0  0  0  0  0  0
    2.0597   -0.7807    1.0391 O   0  0  0  0  0  0  0  0  0  0  0  0
    0.8138   -2.0721   -1.2000 C   0  0  0  0  0  0  0  0  0  0  0  0
    1.0179    0.1611   -2.2896 C   0  0  0  0  0  0  0  0  0  0  0  0
   -0.4579   -0.1142    1.3605 C   0  0  0  0  0  0  0  0  0  0  0  0
    6.0797   -3.4633   -6.8686 C   0  0  0  0  0  0  0  0  0  0  0  0
    2.4469   -0.2004   -2.7510 C   0  0  0  0  0  0  0  0  0  0  0  0
    2.2572   -2.3892   -1.6666 C   0  0  0  0  0  0  0  0  0  0  0  0
    5.5901   -3.9627   -8.0917 C   0  0  0  0  0  0  0  0  0  0  0  0
    7.4670   -3.2708   -6.7724 C   0  0  0  0  0  0  0  0  0  0  0  0
    8.3265   -3.6605   -7.8121 C   0  0  0  0  0  0  0  0  0  0  0  0
    6.4412   -4.3929   -9.1100 C   0  0  0  0  0  0  0  0  0  0  0  0
    7.8206   -4.2632   -8.9699 C   0  0  0  0  0  0  0  0  0  0  0  0
    1.8747   -4.1027   -4.3122 C   0  0  0  0  0  0  0  0  0  0  0  0
    3.7527   -5.2325   -5.9544 C   0  0  0  0  0  0  0  0  0  0  0  0
   -0.4874   -0.8773    2.5310 C   0  0  0  0  0  0  0  0  0  0  0  0
   -1.6095    0.5378    0.9035 C   0  0  0  0  0  0  0  0  0  0  0  0
    8.7388   -4.7446  -10.0530 C   0  0  0  0  0  0  0  0  0  0  0  0
    2.5552   -5.9069   -5.7186 C   0  0  0  0  0  0  0  0  0  0  0  0
    1.5995   -5.3274   -4.9105 C   0  0  0  0  0  0  0  0  0  0  0  0
   -2.8026    0.4049    1.6126 C   0  0  0  0  0  0  0  0  0  0  0  0
   -1.6844   -0.9972    3.2381 C   0  0  0  0  0  0  0  0  0  0  0  0
   -2.8415   -0.3657    2.7756 C   0  0  0  0  0  0  0  0  0  0  0  0
    0.5737   -2.5977   -0.2706 H   0  0  0  0  0  0  0  0  0  0  0  0
    0.0953   -2.4290   -1.9498 H   0  0  0  0  0  0  0  0  0  0  0  0
    0.3055   -0.1140   -3.0805 H   0  0  0  0  0  0  0  0  0  0  0  0
    0.9057    1.2397   -2.1505 H   0  0  0  0  0  0  0  0  0  0  0  0
    3.1883    0.1241   -2.0109 H   0  0  0  0  0  0  0  0  0  0  0  0
    2.6463    0.3224   -3.6939 H   0  0  0  0  0  0  0  0  0  0  0  0
    2.9958   -2.0753   -0.9205 H   0  0  0  0  0  0  0  0  0  0  0  0
    2.3680   -3.4733   -1.7725 H   0  0  0  0  0  0  0  0  0  0  0  0
    4.5180   -4.0501   -8.2591 H   0  0  0  0  0  0  0  0  0  0  0  0
    7.8952   -2.8232   -5.8764 H   0  0  0  0  0  0  0  0  0  0  0  0
    9.3976   -3.5027   -7.7033 H   0  0  0  0  0  0  0  0  0  0  0  0
    6.0113   -4.8361  -10.0050 H   0  0  0  0  0  0  0  0  0  0  0  0
    1.0909   -3.6643   -3.7005 H   0  0  0  0  0  0  0  0  0  0  0  0
    4.4785   -5.7323   -6.5928 H   0  0  0  0  0  0  0  0  0  0  0  0
    0.4117   -1.3624    2.9032 H   0  0  0  0  0  0  0  0  0  0  0  0
   -1.5768    1.1509    0.0058 H   0  0  0  0  0  0  0  0  0  0  0  0
    9.2527   -3.8996  -10.5198 H   0  0  0  0  0  0  0  0  0  0  0  0
    9.4765   -5.4414   -9.6422 H   0  0  0  0  0  0  0  0  0  0  0  0
    8.1854   -5.2783  -10.8342 H   0  0  0  0  0  0  0  0  0  0  0  0
    2.3673   -6.8690   -6.1867 H   0  0  0  0  0  0  0  0  0  0  0  0
    0.6473   -5.8183   -4.7342 H   0  0  0  0  0  0  0  0  0  0  0  0
   -3.7011    0.9101    1.2659 H   0  0  0  0  0  0  0  0  0  0  0  0
   -1.7166   -1.5798    4.1564 H   0  0  0  0  0  0  0  0  0  0  0  0
   -3.7703   -0.4622    3.3311 H   0  0  0  0  0  0  0  0  0  0  0  0
  2  6  1  0  0  0  0
  3  1  1  0  0  0  0
  4  2  2  0  0  0  0
  5  4  1  0  0  0  0
  6 16  1  0  0  0  0
  6 17  1  0  0  0  0
  7  9  1  0  0  0  0
  7  5  2  0  0  0  0
  8  2  1  0  0  0  0
  9  8  2  0  0  0  0
 10  1  2  0  0  0  0
 11  1  2  0  0  0  0
 12  3  1  0  0  0  0
 12 33  1  0  0  0  0
 12 34  1  0  0  0  0
 13  3  1  0  0  0  0
 13 35  1  0  0  0  0
 13 36  1  0  0  0  0
 14  1  1  0  0  0  0
 15  7  1  0  0  0  0
 16 13  1  0  0  0  0
 16 37  1  0  0  0  0
 16 38  1  0  0  0  0
 17 12  1  0  0  0  0
 17 39  1  0  0  0  0
 17 40  1  0  0  0  0
 18 15  2  0  0  0  0
 18 41  1  0  0  0  0
 19 15  1  0  0  0  0
 19 42  1  0  0  0  0
 20 19  2  0  0  0  0
 20 43  1  0  0  0  0
 21 18  1  0  0  0  0
 21 44  1  0  0  0  0
 22 20  1  0  0  0  0
 22 21  2  0  0  0  0
 23  8  1  0  0  0  0
 23 45  1  0  0  0  0
 24  9  1  0  0  0  0
 24 46  1  0  0  0  0
 25 14  2  0  0  0  0
 25 47  1  0  0  0  0
 26 14  1  0  0  0  0
 26 48  1  0  0  0  0
 27 22  1  0  0  0  0
 27 49  1  0  0  0  0
 27 50  1  0  0  0  0
 27 51  1  0  0  0  0
 28 29  1  0  0  0  0
 28 24  2  0  0  0  0
 28 52  1  0  0  0  0
 29 23  2  0  0  0  0
 29 53  1  0  0  0  0
 30 26  2  0  0  0  0
 30 54  1  0  0  0  0
 31 25  1  0  0  0  0
 31 55  1  0  0  0  0
 32 30  1  0  0  0  0
 32 31  2  0  0  0  0
 32 56  1  0  0  0  0
M  END
>  <Mol_ID>
8853

>  <Formula>
C25H24N4O2S

>  <MolWeight>
444.54866

>  <Cat>
P2431

>  <Name>
WAY-325855

>  <Synonyms>
N/A

>  <Target>
Ral GTPases

>  <Form>
free base

>  <CAS>
868357-74-8

>  <URL>
N/A

$$$$
