WAY-325081
 OpenBabel08302521423D

 53 56  0  0  0  0  0  0  0  0999 V2000
    4.4638   -2.3937    3.9728 N   0  0  0  0  0  0  0  0  0  0  0  0
    5.8191   -2.5589    3.9158 C   0  0  0  0  0  0  0  0  0  0  0  0
    3.9715   -2.7432    5.2051 C   0  0  0  0  0  0  0  0  0  0  0  0
    6.2312   -3.1553    5.1815 C   0  0  0  0  0  0  0  0  0  0  0  0
    5.1056   -3.2600    5.9749 C   0  0  0  0  0  0  0  0  0  0  0  0
    3.7295   -2.4257    1.6229 C   0  0  0  0  0  0  0  0  0  0  0  0
    3.6827   -1.6906    2.9626 C   0  0  3  0  0  0  0  0  0  0  0  0
    5.5073   -3.7542   -4.4517 N   0  0  0  0  0  0  0  0  0  0  0  0
    5.3327   -3.2734   -3.1428 C   0  0  0  0  0  0  0  0  0  0  0  0
    5.5885   -1.9324   -2.7930 C   0  0  0  0  0  0  0  0  0  0  0  0
    5.3855   -2.7672   -5.5288 C   0  0  0  0  0  0  0  0  0  0  0  0
    5.9825   -0.9122   -3.8449 C   0  0  3  0  0  0  0  0  0  0  0  0
    4.7250   -1.8989    0.7936 O   0  0  0  0  0  0  0  0  0  0  0  0
    6.5912   -2.2522    3.0295 O   0  0  0  0  0  0  0  0  0  0  0  0
    2.8502   -2.6116    5.6472 O   0  0  0  0  0  0  0  0  0  0  0  0
    6.3031   -1.5771   -5.1933 C   0  0  0  0  0  0  0  0  0  0  0  0
    5.4284   -1.5238   -1.4542 C   0  0  0  0  0  0  0  0  0  0  0  0
    3.0081   -3.3842    1.3682 O   0  0  0  0  0  0  0  0  0  0  0  0
    4.9704   -2.4249   -0.4929 C   0  0  0  0  0  0  0  0  0  0  0  0
    4.9902   -4.1824   -2.1343 C   0  0  0  0  0  0  0  0  0  0  0  0
    4.7952   -3.7632   -0.8182 C   0  0  0  0  0  0  0  0  0  0  0  0
    7.4834   -3.5291    5.6276 C   0  0  0  0  0  0  0  0  0  0  0  0
    5.1692   -3.7440    7.2673 C   0  0  0  0  0  0  0  0  0  0  0  0
    4.0062   -0.2052    2.8808 C   0  0  0  0  0  0  0  0  0  0  0  0
    3.9058   -2.3960   -5.7292 C   0  0  0  0  0  0  0  0  0  0  0  0
    5.8815   -3.4165   -6.8338 C   0  0  0  0  0  0  0  0  0  0  0  0
    4.9279    0.1937   -3.9933 C   0  0  0  0  0  0  0  0  0  0  0  0
    7.5750   -4.0242    6.9313 C   0  0  0  0  0  0  0  0  0  0  0  0
    6.4280   -4.1290    7.7452 C   0  0  0  0  0  0  0  0  0  0  0  0
    2.6282   -1.7479    3.2675 H   0  0  0  0  0  0  0  0  0  0  0  0
    4.9911   -4.6137   -4.6198 H   0  0  0  0  0  0  0  0  0  0  0  0
    6.9078   -0.4242   -3.5069 H   0  0  0  0  0  0  0  0  0  0  0  0
    7.3373   -1.9514   -5.1347 H   0  0  0  0  0  0  0  0  0  0  0  0
    6.3013   -0.8365   -6.0026 H   0  0  0  0  0  0  0  0  0  0  0  0
    5.6394   -0.4969   -1.1668 H   0  0  0  0  0  0  0  0  0  0  0  0
    4.8361   -5.2318   -2.3739 H   0  0  0  0  0  0  0  0  0  0  0  0
    4.4980   -4.4956   -0.0756 H   0  0  0  0  0  0  0  0  0  0  0  0
    8.3576   -3.4312    4.9921 H   0  0  0  0  0  0  0  0  0  0  0  0
    4.2827   -3.8096    7.8899 H   0  0  0  0  0  0  0  0  0  0  0  0
    3.8068    0.2817    3.8419 H   0  0  0  0  0  0  0  0  0  0  0  0
    5.0542   -0.0223    2.6271 H   0  0  0  0  0  0  0  0  0  0  0  0
    3.3866    0.2809    2.1191 H   0  0  0  0  0  0  0  0  0  0  0  0
    3.8026   -1.5210   -6.3793 H   0  0  0  0  0  0  0  0  0  0  0  0
    3.3516   -3.2216   -6.1915 H   0  0  0  0  0  0  0  0  0  0  0  0
    3.3893   -2.1903   -4.7867 H   0  0  0  0  0  0  0  0  0  0  0  0
    6.9079   -3.7867   -6.7361 H   0  0  0  0  0  0  0  0  0  0  0  0
    5.2559   -4.2720   -7.1158 H   0  0  0  0  0  0  0  0  0  0  0  0
    5.8555   -2.6985   -7.6618 H   0  0  0  0  0  0  0  0  0  0  0  0
    3.9365   -0.1970   -4.2321 H   0  0  0  0  0  0  0  0  0  0  0  0
    4.8203    0.7659   -3.0659 H   0  0  0  0  0  0  0  0  0  0  0  0
    5.2102    0.8991   -4.7817 H   0  0  0  0  0  0  0  0  0  0  0  0
    8.5442   -4.3237    7.3272 H   0  0  0  0  0  0  0  0  0  0  0  0
    6.5276   -4.5065    8.7621 H   0  0  0  0  0  0  0  0  0  0  0  0
  2  1  1  0  0  0  0
  3  1  1  0  0  0  0
  4  2  1  0  0  0  0
  5  3  1  0  0  0  0
  5  4  2  0  0  0  0
  6  7  1  0  0  0  0
  7  1  1  0  0  0  0
  7 30  1  0  0  0  0
  8  9  1  0  0  0  0
  8 31  1  0  0  0  0
  9 20  1  0  0  0  0
  9 10  2  0  0  0  0
 10 17  1  0  0  0  0
 11  8  1  0  0  0  0
 11 16  1  0  0  0  0
 12 10  1  0  0  0  0
 12 32  1  0  0  0  0
 13  6  1  0  0  0  0
 14  2  2  0  0  0  0
 15  3  2  0  0  0  0
 16 12  1  0  0  0  0
 16 33  1  0  0  0  0
 16 34  1  0  0  0  0
 17 19  2  0  0  0  0
 17 35  1  0  0  0  0
 18  6  2  0  0  0  0
 19 13  1  0  0  0  0
 20 21  2  0  0  0  0
 20 36  1  0  0  0  0
 21 19  1  0  0  0  0
 21 37  1  0  0  0  0
 22  4  1  0  0  0  0
 22 38  1  0  0  0  0
 23  5  1  0  0  0  0
 23 39  1  0  0  0  0
 24  7  1  0  0  0  0
 24 40  1  0  0  0  0
 24 41  1  0  0  0  0
 24 42  1  0  0  0  0
 25 11  1  0  0  0  0
 25 43  1  0  0  0  0
 25 44  1  0  0  0  0
 25 45  1  0  0  0  0
 26 11  1  0  0  0  0
 26 46  1  0  0  0  0
 26 47  1  0  0  0  0
 26 48  1  0  0  0  0
 27 12  1  0  0  0  0
 27 49  1  0  0  0  0
 27 50  1  0  0  0  0
 27 51  1  0  0  0  0
 28 22  2  0  0  0  0
 28 52  1  0  0  0  0
 29 23  2  0  0  0  0
 29 28  1  0  0  0  0
 29 53  1  0  0  0  0
M  END
>  <Mol_ID>
8669

>  <Formula>
C23H24N2O4

>  <MolWeight>
392.44766

>  <Cat>
P2368

>  <Name>
WAY-325081

>  <Synonyms>
N/A

>  <Target>
BAX

>  <Form>
free base

>  <CAS>
488714-91-6

>  <URL>
N/A

$$$$
