WAY-607053
 OpenBabel08302521433D

 28 30  0  0  0  0  0  0  0  0999 V2000
   -1.1979   -0.7465    0.0439 C   0  0  0  0  0  0  0  0  0  0  0  0
   -1.8059    0.6337    0.0449 C   0  0  0  0  0  0  0  0  0  0  0  0
   -0.7262    1.4997    0.0506 N   0  0  0  0  0  0  0  0  0  0  0  0
    0.2658   -0.5682    0.0360 C   0  0  0  0  0  0  0  0  0  0  0  0
   -1.8615   -1.9115    0.0521 C   0  0  0  0  0  0  0  0  0  0  0  0
    0.4813    0.8144    0.0459 C   0  0  0  0  0  0  0  0  0  0  0  0
   -3.2792   -1.9895    0.0019 C   0  0  0  0  0  0  0  0  0  0  0  0
   -3.9780   -2.1465   -1.1750 O   0  0  0  0  0  0  0  0  0  0  0  0
   -4.2032   -1.9784    1.0399 C   0  0  0  0  0  0  0  0  0  0  0  0
   -5.3043   -2.2244   -0.8813 C   0  0  0  0  0  0  0  0  0  0  0  0
   -5.4924   -2.1317    0.4766 C   0  0  0  0  0  0  0  0  0  0  0  0
   -2.9782    0.9551    0.0631 O   0  0  0  0  0  0  0  0  0  0  0  0
    1.3452   -1.4329    0.0008 C   0  0  0  0  0  0  0  0  0  0  0  0
    1.7417    1.3802    0.0402 C   0  0  0  0  0  0  0  0  0  0  0  0
   -6.2253   -2.4031   -2.0211 C   0  0  0  0  0  0  0  0  0  0  0  0
    2.6364   -0.8837   -0.0138 C   0  0  0  0  0  0  0  0  0  0  0  0
    2.8333    0.5117    0.0100 C   0  0  0  0  0  0  0  0  0  0  0  0
   -0.8402    2.5012    0.0536 H   0  0  0  0  0  0  0  0  0  0  0  0
   -1.3311   -2.8574    0.0647 H   0  0  0  0  0  0  0  0  0  0  0  0
   -3.9655   -1.8716    2.0888 H   0  0  0  0  0  0  0  0  0  0  0  0
   -6.4399   -2.1724    0.9949 H   0  0  0  0  0  0  0  0  0  0  0  0
    1.2155   -2.5096   -0.0246 H   0  0  0  0  0  0  0  0  0  0  0  0
    1.8837    2.4531    0.0529 H   0  0  0  0  0  0  0  0  0  0  0  0
   -6.1918   -1.5388   -2.6912 H   0  0  0  0  0  0  0  0  0  0  0  0
   -5.9565   -3.2969   -2.5923 H   0  0  0  0  0  0  0  0  0  0  0  0
   -7.2568   -2.5234   -1.6738 H   0  0  0  0  0  0  0  0  0  0  0  0
    3.5041   -1.5384   -0.0473 H   0  0  0  0  0  0  0  0  0  0  0  0
    3.8419    0.9135   -0.0001 H   0  0  0  0  0  0  0  0  0  0  0  0
  2  1  1  0  0  0  0
  3  2  1  0  0  0  0
  3 18  1  0  0  0  0
  4  1  1  0  0  0  0
  5  1  2  0  0  0  0
  5 19  1  0  0  0  0
  6  4  2  0  0  0  0
  6  3  1  0  0  0  0
  7  5  1  0  0  0  0
  8  7  1  0  0  0  0
  9  7  2  0  0  0  0
  9 20  1  0  0  0  0
 10  8  1  0  0  0  0
 11  9  1  0  0  0  0
 11 10  2  0  0  0  0
 11 21  1  0  0  0  0
 12  2  2  0  0  0  0
 13  4  1  0  0  0  0
 13 22  1  0  0  0  0
 14  6  1  0  0  0  0
 14 23  1  0  0  0  0
 15 10  1  0  0  0  0
 15 24  1  0  0  0  0
 15 25  1  0  0  0  0
 15 26  1  0  0  0  0
 16 13  2  0  0  0  0
 16 27  1  0  0  0  0
 17 16  1  0  0  0  0
 17 14  2  0  0  0  0
 17 28  1  0  0  0  0
M  END
>  <Mol_ID>
8719

>  <Formula>
C14H11NO2

>  <MolWeight>
225.24264

>  <Cat>
P2878

>  <Name>
WAY-607053

>  <Synonyms>
N/A

>  <Target>
¦Á7¦Â1 integrin

>  <Form>
free base

>  <CAS>
64259-05-8

>  <URL>
N/A

$$$$
