WAY-324513
 OpenBabel08302521423D

 38 40  0  0  0  0  0  0  0  0999 V2000
    0.7183   -0.9115   -0.0871 C   0  0  0  0  0  0  0  0  0  0  0  0
    1.1666    0.3341   -0.0743 N   0  0  0  0  0  0  0  0  0  0  0  0
   -0.6456   -0.8678    0.0054 N   0  0  0  0  0  0  0  0  0  0  0  0
   -1.1074    0.3870    0.0555 N   0  0  0  0  0  0  0  0  0  0  0  0
    1.5264   -2.1295   -0.1816 C   0  0  0  0  0  0  0  0  0  0  0  0
    0.0246    1.0944   -0.0016 C   0  0  0  0  0  0  0  0  0  0  0  0
    0.0840    2.5155    0.0087 C   0  0  0  0  0  0  0  0  0  0  0  0
    0.1892    6.8687    0.6975 C   0  0  0  0  0  0  0  0  0  0  0  0
    1.1976    3.2676    0.0199 C   0  0  0  0  0  0  0  0  0  0  0  0
    2.9306   -2.0588   -0.1727 C   0  0  0  0  0  0  0  0  0  0  0  0
    1.2341    7.5707    0.0908 C   0  0  0  0  0  0  0  0  0  0  0  0
    0.1724    5.4676    0.6808 C   0  0  0  0  0  0  0  0  0  0  0  0
    1.1870    4.7390    0.0433 C   0  0  0  0  0  0  0  0  0  0  0  0
    2.2598    6.8399   -0.5218 C   0  0  0  0  0  0  0  0  0  0  0  0
   -0.8412    7.5144    1.3250 O   0  0  0  0  0  0  0  0  0  0  0  0
    2.2423    5.4408   -0.5438 C   0  0  0  0  0  0  0  0  0  0  0  0
    3.6075   -0.8695   -0.0796 O   0  0  0  0  0  0  0  0  0  0  0  0
    0.9345   -3.3992   -0.2939 C   0  0  0  0  0  0  0  0  0  0  0  0
    1.4151    8.9242    0.0062 O   0  0  0  0  0  0  0  0  0  0  0  0
    3.7159   -3.2074   -0.2632 C   0  0  0  0  0  0  0  0  0  0  0  0
    0.4278    9.7678    0.5810 C   0  0  0  0  0  0  0  0  0  0  0  0
    1.7201   -4.5526   -0.3899 C   0  0  0  0  0  0  0  0  0  0  0  0
    3.1092   -4.4562   -0.3722 C   0  0  0  0  0  0  0  0  0  0  0  0
   -1.3066   -1.6341    0.0361 H   0  0  0  0  0  0  0  0  0  0  0  0
   -0.8892    2.9966   -0.0000 H   0  0  0  0  0  0  0  0  0  0  0  0
    2.1760    2.7922   -0.0016 H   0  0  0  0  0  0  0  0  0  0  0  0
   -0.6360    4.9392    1.1776 H   0  0  0  0  0  0  0  0  0  0  0  0
    3.0858    7.3703   -0.9912 H   0  0  0  0  0  0  0  0  0  0  0  0
   -1.4619    6.8582    1.6810 H   0  0  0  0  0  0  0  0  0  0  0  0
    3.0577    4.9131   -1.0332 H   0  0  0  0  0  0  0  0  0  0  0  0
    2.9384   -0.1510   -0.0632 H   0  0  0  0  0  0  0  0  0  0  0  0
   -0.1436   -3.5260   -0.3174 H   0  0  0  0  0  0  0  0  0  0  0  0
    4.7995   -3.1235   -0.2536 H   0  0  0  0  0  0  0  0  0  0  0  0
   -0.5454    9.6296    0.0991 H   0  0  0  0  0  0  0  0  0  0  0  0
    0.3738    9.6331    1.6660 H   0  0  0  0  0  0  0  0  0  0  0  0
    0.7317   10.8035    0.3997 H   0  0  0  0  0  0  0  0  0  0  0  0
    1.2465   -5.5271   -0.4814 H   0  0  0  0  0  0  0  0  0  0  0  0
    3.7203   -5.3517   -0.4488 H   0  0  0  0  0  0  0  0  0  0  0  0
  2  1  2  0  0  0  0
  3  1  1  0  0  0  0
  3 24  1  0  0  0  0
  4  3  1  0  0  0  0
  5  1  1  0  0  0  0
  6  2  1  0  0  0  0
  6  4  2  0  0  0  0
  7  6  1  0  0  0  0
  7 25  1  0  0  0  0
  8 12  2  0  0  0  0
  9  7  2  0  0  0  0
  9 26  1  0  0  0  0
 10  5  2  0  0  0  0
 11 14  2  0  0  0  0
 11  8  1  0  0  0  0
 12 13  1  0  0  0  0
 12 27  1  0  0  0  0
 13  9  1  0  0  0  0
 14 16  1  0  0  0  0
 14 28  1  0  0  0  0
 15  8  1  0  0  0  0
 15 29  1  0  0  0  0
 16 13  2  0  0  0  0
 16 30  1  0  0  0  0
 17 10  1  0  0  0  0
 17 31  1  0  0  0  0
 18  5  1  0  0  0  0
 18 32  1  0  0  0  0
 19 11  1  0  0  0  0
 20 10  1  0  0  0  0
 20 33  1  0  0  0  0
 21 19  1  0  0  0  0
 21 34  1  0  0  0  0
 21 35  1  0  0  0  0
 21 36  1  0  0  0  0
 22 18  2  0  0  0  0
 22 37  1  0  0  0  0
 23 22  1  0  0  0  0
 23 20  2  0  0  0  0
 23 38  1  0  0  0  0
M  END
>  <Mol_ID>
8640

>  <Formula>
C17H15N3O3

>  <MolWeight>
309.3193

>  <Cat>
P2328

>  <Name>
WAY-324513

>  <Synonyms>
N/A

>  <Target>
glucokinase

>  <Form>
free base

>  <CAS>
939052-80-9

>  <URL>
N/A

$$$$
