WAY-608306
 OpenBabel08302521443D

 39 42  0  0  0  0  0  0  0  0999 V2000
    0.2159   -0.4070    1.4407 N   0  0  0  0  0  0  0  0  0  0  0  0
   -0.9637   -1.1185    1.5012 C   0  0  0  0  0  0  0  0  0  0  0  0
   -1.6648   -0.0715   -0.6768 N   0  0  0  0  0  0  0  0  0  0  0  0
   -1.6255   -1.3180    0.1272 C   0  0  3  0  0  0  0  0  0  0  0  0
   -2.9528   -2.0565    0.1885 C   0  0  0  0  0  0  0  0  0  0  0  0
   -4.0976   -1.3160    0.8207 C   0  0  0  0  0  0  0  0  0  0  0  0
    0.5955    0.2823    0.2784 C   0  0  0  0  0  0  0  0  0  0  0  0
   -0.3420    0.4586   -0.7632 C   0  0  0  0  0  0  0  0  0  0  0  0
   -5.5793   -5.5735    0.1670 C   0  0  0  0  0  0  0  0  0  0  0  0
   -5.0336   -4.3048    0.2114 C   0  0  0  0  0  0  0  0  0  0  0  0
   -5.2928   -1.9595    1.0438 N   0  0  0  0  0  0  0  0  0  0  0  0
   -6.8128   -5.8590    0.6894 C   0  0  0  0  0  0  0  0  0  0  0  0
   -4.9745   -6.6678   -0.3740 O   0  0  0  0  0  0  0  0  0  0  0  0
   -7.1430   -7.1702    0.5540 O   0  0  0  0  0  0  0  0  0  0  0  0
   -5.7494   -3.2829    0.8406 C   0  0  0  0  0  0  0  0  0  0  0  0
   -1.3419   -1.6483    2.5420 O   0  0  0  0  0  0  0  0  0  0  0  0
   -5.9573   -7.6835   -0.0918 C   0  0  0  0  0  0  0  0  0  0  0  0
   -4.0089   -0.1249    1.1265 O   0  0  0  0  0  0  0  0  0  0  0  0
   -7.5800   -4.8773    1.2683 C   0  0  0  0  0  0  0  0  0  0  0  0
   -7.0403   -3.5827    1.3415 C   0  0  0  0  0  0  0  0  0  0  0  0
   -0.0009    1.2697   -1.8454 C   0  0  0  0  0  0  0  0  0  0  0  0
    1.8857    0.7981    0.1736 C   0  0  0  0  0  0  0  0  0  0  0  0
    2.2421    1.5254   -0.9620 C   0  0  0  0  0  0  0  0  0  0  0  0
    1.2944    1.7835   -1.9552 C   0  0  0  0  0  0  0  0  0  0  0  0
    0.7846   -0.3740    2.2747 H   0  0  0  0  0  0  0  0  0  0  0  0
   -2.2488    0.6152   -0.1819 H   0  0  0  0  0  0  0  0  0  0  0  0
   -0.9552   -2.0149   -0.4021 H   0  0  0  0  0  0  0  0  0  0  0  0
   -3.2515   -2.3027   -0.8356 H   0  0  0  0  0  0  0  0  0  0  0  0
   -2.7823   -2.9671    0.7691 H   0  0  0  0  0  0  0  0  0  0  0  0
   -4.0694   -4.1860   -0.2538 H   0  0  0  0  0  0  0  0  0  0  0  0
   -5.9470   -1.3321    1.4987 H   0  0  0  0  0  0  0  0  0  0  0  0
   -6.2491   -8.1579   -1.0355 H   0  0  0  0  0  0  0  0  0  0  0  0
   -5.5005   -8.4409    0.5566 H   0  0  0  0  0  0  0  0  0  0  0  0
   -8.5653   -5.1013    1.6667 H   0  0  0  0  0  0  0  0  0  0  0  0
   -7.6425   -2.8074    1.8128 H   0  0  0  0  0  0  0  0  0  0  0  0
   -0.7324    1.4750   -2.6221 H   0  0  0  0  0  0  0  0  0  0  0  0
    2.6242    0.6184    0.9490 H   0  0  0  0  0  0  0  0  0  0  0  0
    3.2565    1.9020   -1.0696 H   0  0  0  0  0  0  0  0  0  0  0  0
    1.5669    2.3800   -2.8225 H   0  0  0  0  0  0  0  0  0  0  0  0
  1 25  1  0  0  0  0
  2  1  1  0  0  0  0
  3  8  1  0  0  0  0
  3  4  1  0  0  0  0
  3 26  1  0  0  0  0
  4  2  1  0  0  0  0
  4 27  1  0  0  0  0
  5  4  1  0  0  0  0
  5 28  1  0  0  0  0
  5 29  1  0  0  0  0
  6  5  1  0  0  0  0
  7  1  1  0  0  0  0
  8  7  2  0  0  0  0
  9 10  2  0  0  0  0
 10 15  1  0  0  0  0
 10 30  1  0  0  0  0
 11  6  1  0  0  0  0
 11 31  1  0  0  0  0
 12 19  2  0  0  0  0
 12  9  1  0  0  0  0
 13  9  1  0  0  0  0
 14 12  1  0  0  0  0
 15 11  1  0  0  0  0
 16  2  2  0  0  0  0
 17 13  1  0  0  0  0
 17 14  1  0  0  0  0
 17 32  1  0  0  0  0
 17 33  1  0  0  0  0
 18  6  2  0  0  0  0
 19 20  1  0  0  0  0
 19 34  1  0  0  0  0
 20 15  2  0  0  0  0
 20 35  1  0  0  0  0
 21  8  1  0  0  0  0
 21 36  1  0  0  0  0
 22  7  1  0  0  0  0
 22 37  1  0  0  0  0
 23 22  2  0  0  0  0
 23 38  1  0  0  0  0
 24 23  1  0  0  0  0
 24 21  2  0  0  0  0
 24 39  1  0  0  0  0
M  END
>  <Mol_ID>
9035

>  <Formula>
C17H15N3O4

>  <MolWeight>
325.3187

>  <Cat>
P2916

>  <Name>
WAY-608306

>  <Synonyms>
N/A

>  <Target>
PfENR

>  <Form>
free base

>  <CAS>
473703-97-8

>  <URL>
N/A

$$$$
