WAY-660764
 OpenBabel08302521443D

 49 51  0  0  0  0  0  0  0  0999 V2000
    1.1809   -0.0922    0.0466 S   0  0  0  0  0  0  0  0  0  0  0  0
   -0.4128   -4.6614    4.1350 S   0  0  0  0  0  0  0  0  0  0  0  0
   -0.3072    0.5411   -0.4940 N   0  0  0  0  0  0  0  0  0  0  0  0
    0.3408   -4.1234    5.5664 N   0  0  0  0  0  0  0  0  0  0  0  0
   -0.5297    1.1765   -3.3277 N   0  0  0  0  0  0  0  0  0  0  0  0
   -0.7653    1.6102   -4.6238 C   0  0  0  0  0  0  0  0  0  0  0  0
    0.6901   -1.3985    1.1494 C   0  0  0  0  0  0  0  0  0  0  0  0
    0.0293   -3.3982    2.9604 C   0  0  0  0  0  0  0  0  0  0  0  0
    1.8317    0.9122    0.8586 O   0  0  0  0  0  0  0  0  0  0  0  0
   -1.8463   -4.5731    4.3115 O   0  0  0  0  0  0  0  0  0  0  0  0
    0.2231   -5.8981    3.7366 O   0  0  0  0  0  0  0  0  0  0  0  0
    1.8494   -0.6862   -1.0908 O   0  0  0  0  0  0  0  0  0  0  0  0
   -1.1222   -0.3137   -1.4126 C   0  0  0  0  0  0  0  0  0  0  0  0
   -0.2562    1.9551   -0.9900 C   0  0  0  0  0  0  0  0  0  0  0  0
   -0.6626   -0.2157   -2.8794 C   0  0  0  0  0  0  0  0  0  0  0  0
    0.2509    2.0395   -2.4340 C   0  0  0  0  0  0  0  0  0  0  0  0
   -0.4039    2.7141   -5.0314 O   0  0  0  0  0  0  0  0  0  0  0  0
    0.7409   -3.7269    1.8016 C   0  0  0  0  0  0  0  0  0  0  0  0
    1.0775   -2.7194    0.8929 C   0  0  0  0  0  0  0  0  0  0  0  0
   -0.3627   -2.0787    3.2153 C   0  0  0  0  0  0  0  0  0  0  0  0
   -0.0258   -1.0728    2.3086 C   0  0  0  0  0  0  0  0  0  0  0  0
    1.8240   -4.1807    5.5951 C   0  0  0  0  0  0  0  0  0  0  0  0
   -0.1513   -4.7859    6.8091 C   0  0  0  0  0  0  0  0  0  0  0  0
   -1.5351    0.6849   -5.5314 C   0  0  0  0  0  0  0  0  0  0  0  0
    1.0577   -5.4486    7.4598 C   0  0  0  0  0  0  0  0  0  0  0  0
    2.1424   -5.4250    6.4019 C   0  0  0  0  0  0  0  0  0  0  0  0
   -1.1251   -1.3546   -1.0770 H   0  0  0  0  0  0  0  0  0  0  0  0
   -2.1614    0.0355   -1.3419 H   0  0  0  0  0  0  0  0  0  0  0  0
   -1.2757    2.3592   -0.9346 H   0  0  0  0  0  0  0  0  0  0  0  0
    0.3523    2.5787   -0.3281 H   0  0  0  0  0  0  0  0  0  0  0  0
    0.3155   -0.6858   -3.0214 H   0  0  0  0  0  0  0  0  0  0  0  0
   -1.3655   -0.7661   -3.5090 H   0  0  0  0  0  0  0  0  0  0  0  0
    1.2972    1.7207   -2.5030 H   0  0  0  0  0  0  0  0  0  0  0  0
    0.2032    3.0812   -2.7689 H   0  0  0  0  0  0  0  0  0  0  0  0
    1.0394   -4.7548    1.6044 H   0  0  0  0  0  0  0  0  0  0  0  0
    1.6509   -2.9692    0.0028 H   0  0  0  0  0  0  0  0  0  0  0  0
   -0.9195   -1.8373    4.1190 H   0  0  0  0  0  0  0  0  0  0  0  0
   -0.3086   -0.0420    2.5123 H   0  0  0  0  0  0  0  0  0  0  0  0
    2.1883   -3.2796    6.1028 H   0  0  0  0  0  0  0  0  0  0  0  0
    2.2797   -4.2078    4.6024 H   0  0  0  0  0  0  0  0  0  0  0  0
   -0.9383   -5.5194    6.6115 H   0  0  0  0  0  0  0  0  0  0  0  0
   -0.5706   -4.0195    7.4707 H   0  0  0  0  0  0  0  0  0  0  0  0
   -0.9420   -0.2039   -5.7596 H   0  0  0  0  0  0  0  0  0  0  0  0
   -2.4868    0.4085   -5.0692 H   0  0  0  0  0  0  0  0  0  0  0  0
   -1.7583    1.2024   -6.4697 H   0  0  0  0  0  0  0  0  0  0  0  0
    0.8311   -6.4691    7.7864 H   0  0  0  0  0  0  0  0  0  0  0  0
    1.3694   -4.8827    8.3448 H   0  0  0  0  0  0  0  0  0  0  0  0
    2.0713   -6.3182    5.7711 H   0  0  0  0  0  0  0  0  0  0  0  0
    3.1468   -5.3963    6.8343 H   0  0  0  0  0  0  0  0  0  0  0  0
  2  8  1  0  0  0  0
  3  1  1  0  0  0  0
  4  2  1  0  0  0  0
  5 16  1  0  0  0  0
  5 15  1  0  0  0  0
  6  5  1  0  0  0  0
  7  1  1  0  0  0  0
  8 20  1  0  0  0  0
  8 18  2  0  0  0  0
  9  1  2  0  0  0  0
 10  2  2  0  0  0  0
 11  2  2  0  0  0  0
 12  1  2  0  0  0  0
 13  3  1  0  0  0  0
 13 27  1  0  0  0  0
 13 28  1  0  0  0  0
 14  3  1  0  0  0  0
 14 29  1  0  0  0  0
 14 30  1  0  0  0  0
 15 13  1  0  0  0  0
 15 31  1  0  0  0  0
 15 32  1  0  0  0  0
 16 14  1  0  0  0  0
 16 33  1  0  0  0  0
 16 34  1  0  0  0  0
 17  6  2  0  0  0  0
 18 19  1  0  0  0  0
 18 35  1  0  0  0  0
 19  7  2  0  0  0  0
 19 36  1  0  0  0  0
 20 21  2  0  0  0  0
 20 37  1  0  0  0  0
 21  7  1  0  0  0  0
 21 38  1  0  0  0  0
 22  4  1  0  0  0  0
 22 39  1  0  0  0  0
 22 40  1  0  0  0  0
 23  4  1  0  0  0  0
 23 41  1  0  0  0  0
 23 42  1  0  0  0  0
 24  6  1  0  0  0  0
 24 43  1  0  0  0  0
 24 44  1  0  0  0  0
 24 45  1  0  0  0  0
 25 23  1  0  0  0  0
 25 26  1  0  0  0  0
 25 46  1  0  0  0  0
 25 47  1  0  0  0  0
 26 22  1  0  0  0  0
 26 48  1  0  0  0  0
 26 49  1  0  0  0  0
M  END
>  <Mol_ID>
9121

>  <Formula>
C16H23N3O5S2

>  <MolWeight>
401.50092

>  <Cat>
P3202

>  <Name>
WAY-660764

>  <Synonyms>
N/A

>  <Target>
Anti-infection

>  <Form>
free base

>  <CAS>
871262-32-7

>  <URL>
N/A

$$$$
