WAY-358798
 OpenBabel08302521393D

 19 20  0  0  0  0  0  0  0  0999 V2000
   -0.3930    1.1441   -0.1031 N   0  0  0  0  0  0  0  0  0  0  0  0
    0.8649    0.6327   -0.3555 C   0  0  0  0  0  0  0  0  0  0  0  0
    0.8977   -0.6623   -0.1420 N   0  0  0  0  0  0  0  0  0  0  0  0
   -0.3576   -1.0420    0.2643 N   0  0  0  0  0  0  0  0  0  0  0  0
   -0.7502    2.4595   -0.2312 N   0  0  0  0  0  0  0  0  0  0  0  0
   -1.1111    0.0355    0.2841 C   0  0  0  0  0  0  0  0  0  0  0  0
   -1.9596    2.7942    0.0680 C   0  0  0  0  0  0  0  0  0  0  0  0
   -2.3605    4.1686   -0.0409 C   0  0  0  0  0  0  0  0  0  0  0  0
   -3.6444    4.4946    0.2926 O   0  0  0  0  0  0  0  0  0  0  0  0
    2.2036    1.5923   -0.8747 S   0  0  0  0  0  0  0  0  0  0  0  0
   -1.6753    5.3051   -0.4212 C   0  0  0  0  0  0  0  0  0  0  0  0
   -3.7663    5.8390    0.1361 C   0  0  0  0  0  0  0  0  0  0  0  0
   -2.5812    6.3839   -0.2983 C   0  0  0  0  0  0  0  0  0  0  0  0
   -2.1510    0.0519    0.5646 H   0  0  0  0  0  0  0  0  0  0  0  0
   -2.7373    2.0969    0.4206 H   0  0  0  0  0  0  0  0  0  0  0  0
    3.0910    0.5908   -0.9437 H   0  0  0  0  0  0  0  0  0  0  0  0
   -0.6398    5.3399   -0.7359 H   0  0  0  0  0  0  0  0  0  0  0  0
   -4.7371    6.2522    0.3742 H   0  0  0  0  0  0  0  0  0  0  0  0
   -2.3926    7.4293   -0.4976 H   0  0  0  0  0  0  0  0  0  0  0  0
  2  1  1  0  0  0  0
  3  2  2  0  0  0  0
  4  6  2  0  0  0  0
  4  3  1  0  0  0  0
  5  1  1  0  0  0  0
  6  1  1  0  0  0  0
  6 14  1  0  0  0  0
  7  5  2  0  0  0  0
  7 15  1  0  0  0  0
  8  7  1  0  0  0  0
  9  8  1  0  0  0  0
 10  2  1  0  0  0  0
 10 16  1  0  0  0  0
 11  8  2  0  0  0  0
 11 17  1  0  0  0  0
 12  9  1  0  0  0  0
 12 13  2  0  0  0  0
 12 18  1  0  0  0  0
 13 11  1  0  0  0  0
 13 19  1  0  0  0  0
M  END
>  <Mol_ID>
8080

>  <Formula>
C7H6N4OS

>  <MolWeight>
194.21374

>  <Cat>
P2783

>  <Name>
WAY-358798

>  <Synonyms>
N/A

>  <Target>
others

>  <Form>
free base

>  <CAS>
152880-95-0

>  <URL>
N/A

$$$$
