WAY-620847
 OpenBabel08302521443D

 32 33  0  0  0  0  0  0  0  0999 V2000
    0.9800   -0.1412    0.0235 C   0  0  0  0  0  0  0  0  0  0  0  0
    0.4402   -1.2159   -0.6453 N   0  0  0  0  0  0  0  0  0  0  0  0
   -1.1081   -2.6828   -3.4096 S   0  0  0  0  0  0  0  0  0  0  0  0
   -1.2278   -2.5904   -1.6997 C   0  0  0  0  0  0  0  0  0  0  0  0
   -1.6944   -4.2881   -3.4316 C   0  0  0  0  0  0  0  0  0  0  0  0
    0.2779    0.7645    0.4595 O   0  0  0  0  0  0  0  0  0  0  0  0
   -1.5889   -3.8114   -1.1587 C   0  0  0  0  0  0  0  0  0  0  0  0
   -1.8741   -4.7873   -2.1601 C   0  0  0  0  0  0  0  0  0  0  0  0
    2.5096   -0.1465    0.1285 C   0  0  0  0  0  0  0  0  0  0  0  0
   -0.9638   -1.2914   -0.9961 C   0  0  0  0  0  0  0  0  0  0  0  0
    3.0347   -1.3849    0.8663 C   0  0  0  0  0  0  0  0  0  0  0  0
    3.0178    1.1416    0.7995 C   0  0  0  0  0  0  0  0  0  0  0  0
    4.5399    1.1619    0.9264 C   0  0  0  0  0  0  0  0  0  0  0  0
    4.5631   -1.3570    0.9575 C   0  0  0  0  0  0  0  0  0  0  0  0
    5.0620   -0.0839    1.6320 C   0  0  0  0  0  0  0  0  0  0  0  0
    1.0565   -1.9162   -1.0452 H   0  0  0  0  0  0  0  0  0  0  0  0
   -1.8746   -4.7915   -4.3720 H   0  0  0  0  0  0  0  0  0  0  0  0
   -1.6902   -3.9870   -0.0942 H   0  0  0  0  0  0  0  0  0  0  0  0
   -2.2208   -5.7940   -1.9602 H   0  0  0  0  0  0  0  0  0  0  0  0
    2.9005   -0.1679   -0.8986 H   0  0  0  0  0  0  0  0  0  0  0  0
   -1.5704   -1.2088   -0.0876 H   0  0  0  0  0  0  0  0  0  0  0  0
   -1.2172   -0.4361   -1.6332 H   0  0  0  0  0  0  0  0  0  0  0  0
    2.6049   -1.4358    1.8742 H   0  0  0  0  0  0  0  0  0  0  0  0
    2.7315   -2.2996    0.3507 H   0  0  0  0  0  0  0  0  0  0  0  0
    2.6938    2.0161    0.2240 H   0  0  0  0  0  0  0  0  0  0  0  0
    2.5742    1.2459    1.7983 H   0  0  0  0  0  0  0  0  0  0  0  0
    4.8530    2.0579    1.4780 H   0  0  0  0  0  0  0  0  0  0  0  0
    4.9880    1.2345   -0.0725 H   0  0  0  0  0  0  0  0  0  0  0  0
    4.9179   -2.2349    1.5095 H   0  0  0  0  0  0  0  0  0  0  0  0
    4.9860   -1.4235   -0.0530 H   0  0  0  0  0  0  0  0  0  0  0  0
    4.7344   -0.0739    2.6791 H   0  0  0  0  0  0  0  0  0  0  0  0
    6.1576   -0.0730    1.6383 H   0  0  0  0  0  0  0  0  0  0  0  0
  2  1  1  0  0  0  0
  2 16  1  0  0  0  0
  3  4  1  0  0  0  0
  4 10  1  0  0  0  0
  5  3  1  0  0  0  0
  5 17  1  0  0  0  0
  6  1  2  0  0  0  0
  7  4  2  0  0  0  0
  7 18  1  0  0  0  0
  8  7  1  0  0  0  0
  8  5  2  0  0  0  0
  8 19  1  0  0  0  0
  9  1  1  0  0  0  0
  9 20  1  0  0  0  0
 10  2  1  0  0  0  0
 10 21  1  0  0  0  0
 10 22  1  0  0  0  0
 11  9  1  0  0  0  0
 11 23  1  0  0  0  0
 11 24  1  0  0  0  0
 12  9  1  0  0  0  0
 12 25  1  0  0  0  0
 12 26  1  0  0  0  0
 13 12  1  0  0  0  0
 13 27  1  0  0  0  0
 13 28  1  0  0  0  0
 14 11  1  0  0  0  0
 14 15  1  0  0  0  0
 14 29  1  0  0  0  0
 14 30  1  0  0  0  0
 15 13  1  0  0  0  0
 15 31  1  0  0  0  0
 15 32  1  0  0  0  0
M  END
>  <Mol_ID>
9037

>  <Formula>
C12H17NOS

>  <MolWeight>
223.33448

>  <Cat>
P2957

>  <Name>
WAY-620847

>  <Synonyms>
N/A

>  <Target>
TNF-a,11¦Â-HSD1

>  <Form>
free base

>  <CAS>
547698-18-0

>  <URL>
N/A

$$$$
