WAY-330342
 OpenBabel08302521443D

 55 59  0  0  0  0  0  0  0  0999 V2000
   -4.0083    0.2497    0.8892 C   0  0  0  0  0  0  0  0  0  0  0  0
   -3.0099    0.3647    2.8493 C   0  0  0  0  0  0  0  0  0  0  0  0
   -4.0985   -0.1161    2.2046 O   0  0  0  0  0  0  0  0  0  0  0  0
   -4.9735   -0.2769   -0.0707 C   0  0  0  0  0  0  0  0  0  0  0  0
   -2.7359    0.0537    4.1234 N   0  0  0  0  0  0  0  0  0  0  0  0
   -2.9442    1.1234    0.7385 C   0  0  0  0  0  0  0  0  0  0  0  0
   -2.2755    1.1700    1.9923 C   0  0  0  0  0  0  0  0  0  0  0  0
   -5.4565   -1.5721    0.1395 N   0  0  0  0  0  0  0  0  0  0  0  0
   -6.0073   -4.3860    0.0289 N   0  0  0  0  0  0  0  0  0  0  0  0
   -1.6389    0.6401    4.6098 C   0  0  0  0  0  0  0  0  0  0  0  0
   -0.8129    1.5174    3.8690 C   0  0  0  0  0  0  0  0  0  0  0  0
   -1.1313    1.7816    2.5227 C   0  0  0  0  0  0  0  0  0  0  0  0
   -6.7463   -5.4681    0.4573 C   0  0  0  0  0  0  0  0  0  0  0  0
   -5.0670   -2.4629    1.2451 C   0  0  0  0  0  0  0  0  0  0  0  0
   -6.6007   -2.0594   -0.6372 C   0  0  0  0  0  0  0  0  0  0  0  0
   -5.3110    0.3791   -1.0531 O   0  0  0  0  0  0  0  0  0  0  0  0
   -8.2591   -7.7191    1.3013 C   0  0  0  0  0  0  0  0  0  0  0  0
   -9.1032   -8.8730    1.7164 C   0  0  0  0  0  0  0  0  0  0  0  0
   -4.8579   -3.9149    0.7987 C   0  0  0  0  0  0  0  0  0  0  0  0
   -6.4201   -3.5198   -1.0917 C   0  0  0  0  0  0  0  0  0  0  0  0
    0.3003    2.1150    4.4868 C   0  0  0  0  0  0  0  0  0  0  0  0
  -10.3194   -8.8418    1.5415 O   0  0  0  0  0  0  0  0  0  0  0  0
   -6.1385   -6.5794    1.0642 C   0  0  0  0  0  0  0  0  0  0  0  0
   -8.1383   -5.5197    0.2897 C   0  0  0  0  0  0  0  0  0  0  0  0
   -8.8845   -6.6224    0.7043 C   0  0  0  0  0  0  0  0  0  0  0  0
   -6.8789   -7.6899    1.4854 C   0  0  0  0  0  0  0  0  0  0  0  0
   -1.2994    0.3796    5.9282 C   0  0  0  0  0  0  0  0  0  0  0  0
    0.6079    1.8580    5.8251 C   0  0  0  0  0  0  0  0  0  0  0  0
   -0.1935    0.9784    6.5434 C   0  0  0  0  0  0  0  0  0  0  0  0
    1.6992    2.5247    6.3070 O   0  0  0  0  0  0  0  0  0  0  0  0
   -8.4397  -10.0649    2.3559 C   0  0  0  0  0  0  0  0  0  0  0  0
    2.0389    2.3008    7.6712 C   0  0  0  0  0  0  0  0  0  0  0  0
   -2.6599    1.6085   -0.1853 H   0  0  0  0  0  0  0  0  0  0  0  0
   -0.5199    2.4340    1.9100 H   0  0  0  0  0  0  0  0  0  0  0  0
   -4.1263   -2.1724    1.7040 H   0  0  0  0  0  0  0  0  0  0  0  0
   -5.8652   -2.3936    1.9940 H   0  0  0  0  0  0  0  0  0  0  0  0
   -7.4742   -1.9845    0.0227 H   0  0  0  0  0  0  0  0  0  0  0  0
   -6.7951   -1.4236   -1.5068 H   0  0  0  0  0  0  0  0  0  0  0  0
   -3.9595   -3.9777    0.1735 H   0  0  0  0  0  0  0  0  0  0  0  0
   -4.6664   -4.5033    1.7037 H   0  0  0  0  0  0  0  0  0  0  0  0
   -5.6332   -3.5660   -1.8547 H   0  0  0  0  0  0  0  0  0  0  0  0
   -7.3337   -3.8669   -1.5837 H   0  0  0  0  0  0  0  0  0  0  0  0
    0.9328    2.8009    3.9272 H   0  0  0  0  0  0  0  0  0  0  0  0
   -5.0549   -6.6066    1.1878 H   0  0  0  0  0  0  0  0  0  0  0  0
   -8.6769   -4.6790   -0.1367 H   0  0  0  0  0  0  0  0  0  0  0  0
   -9.9632   -6.6151    0.5578 H   0  0  0  0  0  0  0  0  0  0  0  0
   -6.3437   -8.5186    1.9414 H   0  0  0  0  0  0  0  0  0  0  0  0
   -1.9202   -0.3026    6.5061 H   0  0  0  0  0  0  0  0  0  0  0  0
    0.0006    0.7384    7.5834 H   0  0  0  0  0  0  0  0  0  0  0  0
   -7.6842  -10.4845    1.6858 H   0  0  0  0  0  0  0  0  0  0  0  0
   -7.9969   -9.7778    3.3139 H   0  0  0  0  0  0  0  0  0  0  0  0
   -9.1914  -10.8367    2.5416 H   0  0  0  0  0  0  0  0  0  0  0  0
    1.2223    2.5951    8.3394 H   0  0  0  0  0  0  0  0  0  0  0  0
    2.3272    1.2573    7.8360 H   0  0  0  0  0  0  0  0  0  0  0  0
    2.9034    2.9278    7.9096 H   0  0  0  0  0  0  0  0  0  0  0  0
  2  3  1  0  0  0  0
  2  7  2  0  0  0  0
  3  1  1  0  0  0  0
  4  1  1  0  0  0  0
  5  2  1  0  0  0  0
  6  1  2  0  0  0  0
  6 33  1  0  0  0  0
  7  6  1  0  0  0  0
  8  4  1  0  0  0  0
  9 20  1  0  0  0  0
  9 19  1  0  0  0  0
 10  5  2  0  0  0  0
 10 11  1  0  0  0  0
 11 12  2  0  0  0  0
 12  7  1  0  0  0  0
 12 34  1  0  0  0  0
 13  9  1  0  0  0  0
 14  8  1  0  0  0  0
 14 35  1  0  0  0  0
 14 36  1  0  0  0  0
 15  8  1  0  0  0  0
 15 37  1  0  0  0  0
 15 38  1  0  0  0  0
 16  4  2  0  0  0  0
 17 25  2  0  0  0  0
 17 26  1  0  0  0  0
 18 17  1  0  0  0  0
 19 14  1  0  0  0  0
 19 39  1  0  0  0  0
 19 40  1  0  0  0  0
 20 15  1  0  0  0  0
 20 41  1  0  0  0  0
 20 42  1  0  0  0  0
 21 11  1  0  0  0  0
 21 43  1  0  0  0  0
 22 18  2  0  0  0  0
 23 13  1  0  0  0  0
 23 44  1  0  0  0  0
 24 13  2  0  0  0  0
 24 45  1  0  0  0  0
 25 24  1  0  0  0  0
 25 46  1  0  0  0  0
 26 23  2  0  0  0  0
 26 47  1  0  0  0  0
 27 10  1  0  0  0  0
 27 48  1  0  0  0  0
 28 21  2  0  0  0  0
 29 27  2  0  0  0  0
 29 28  1  0  0  0  0
 29 49  1  0  0  0  0
 30 28  1  0  0  0  0
 31 18  1  0  0  0  0
 31 50  1  0  0  0  0
 31 51  1  0  0  0  0
 31 52  1  0  0  0  0
 32 30  1  0  0  0  0
 32 53  1  0  0  0  0
 32 54  1  0  0  0  0
 32 55  1  0  0  0  0
M  END
>  <Mol_ID>
9182

>  <Formula>
C25H23N3O4

>  <MolWeight>
429.46782

>  <Cat>
P2610

>  <Name>
WAY-330342

>  <Synonyms>
N/A

>  <Target>
Anti-infection

>  <Form>
free base

>  <CAS>
901032-68-6

>  <URL>
N/A

$$$$
