WAY-327263
 OpenBabel08302521443D

 59 62  0  0  0  0  0  0  0  0999 V2000
    0.3677    2.2227    0.2997 C   0  0  3  0  0  0  0  0  0  0  0  0
    2.1181    0.4733    0.0332 N   0  0  0  0  0  0  0  0  0  0  0  0
    1.2433   -0.5734    0.3466 C   0  0  0  0  0  0  0  0  0  0  0  0
    1.5868    1.7182   -0.5813 C   0  0  3  0  0  0  0  0  0  0  0  0
   -0.6482    1.0844    0.3214 C   0  0  0  0  0  0  0  0  0  0  0  0
   -0.2141   -0.2512    0.2768 C   0  0  0  0  0  0  0  0  0  0  0  0
   -0.2241    3.5234   -0.2521 C   0  0  0  0  0  0  0  0  0  0  0  0
    1.3977    1.5509   -2.1061 C   0  0  0  0  0  0  0  0  0  0  0  0
   -2.0217    1.3453    0.2595 C   0  0  0  0  0  0  0  0  0  0  0  0
   -1.1398   -1.2845    0.0672 C   0  0  0  0  0  0  0  0  0  0  0  0
   -0.3940    4.7153    0.3668 N   0  0  0  0  0  0  0  0  0  0  0  0
   -2.4995   -0.9906   -0.0958 C   0  0  0  0  0  0  0  0  0  0  0  0
   -2.9398    0.3408   -0.0441 C   0  0  0  0  0  0  0  0  0  0  0  0
    1.6131   -1.7110    0.6169 O   0  0  0  0  0  0  0  0  0  0  0  0
   -0.7088    3.5365   -1.3974 O   0  0  0  0  0  0  0  0  0  0  0  0
    1.4798    2.6795   -2.9350 C   0  0  0  0  0  0  0  0  0  0  0  0
   -0.5241    5.2809    1.6492 C   0  0  0  0  0  0  0  0  0  0  0  0
   -0.4024    4.6495    2.8822 C   0  0  0  0  0  0  0  0  0  0  0  0
    3.5276    0.1560   -0.1347 C   0  0  0  0  0  0  0  0  0  0  0  0
   -0.7768    5.3295    4.0693 C   0  0  0  0  0  0  0  0  0  0  0  0
    1.7632    3.8758   -2.3968 F   0  0  0  0  0  0  0  0  0  0  0  0
   -3.2866   -2.0748   -0.3870 O   0  0  0  0  0  0  0  0  0  0  0  0
   -4.2511    0.6064   -0.3623 O   0  0  0  0  0  0  0  0  0  0  0  0
    1.1686    0.3182   -2.7529 C   0  0  0  0  0  0  0  0  0  0  0  0
   -0.6885    4.5893    5.2231 O   0  0  0  0  0  0  0  0  0  0  0  0
   -1.2793    7.3187    2.8043 C   0  0  0  0  0  0  0  0  0  0  0  0
   -0.9396    6.6311    1.6419 C   0  0  0  0  0  0  0  0  0  0  0  0
    1.2743    2.6120   -4.3157 C   0  0  0  0  0  0  0  0  0  0  0  0
   -1.2153    6.6580    4.0262 C   0  0  0  0  0  0  0  0  0  0  0  0
   -4.5548   -2.1025    0.2629 C   0  0  0  0  0  0  0  0  0  0  0  0
   -4.6165    1.9745   -0.5232 C   0  0  0  0  0  0  0  0  0  0  0  0
   -1.3582    5.1055    6.3747 C   0  0  0  0  0  0  0  0  0  0  0  0
    0.9857    0.2373   -4.1413 C   0  0  0  0  0  0  0  0  0  0  0  0
    1.0241    1.3865   -4.9232 C   0  0  0  0  0  0  0  0  0  0  0  0
    0.7174    2.3759    1.3260 H   0  0  0  0  0  0  0  0  0  0  0  0
    2.3807    2.4667   -0.4526 H   0  0  0  0  0  0  0  0  0  0  0  0
   -2.3615    2.3732    0.3564 H   0  0  0  0  0  0  0  0  0  0  0  0
   -0.8011   -2.3158   -0.0262 H   0  0  0  0  0  0  0  0  0  0  0  0
   -0.7188    5.3426   -0.3639 H   0  0  0  0  0  0  0  0  0  0  0  0
   -0.0618    3.6253    2.9689 H   0  0  0  0  0  0  0  0  0  0  0  0
    3.8760   -0.4319    0.7202 H   0  0  0  0  0  0  0  0  0  0  0  0
    3.6608   -0.4396   -1.0436 H   0  0  0  0  0  0  0  0  0  0  0  0
    4.1207    1.0720   -0.2027 H   0  0  0  0  0  0  0  0  0  0  0  0
    1.1399   -0.6211   -2.2080 H   0  0  0  0  0  0  0  0  0  0  0  0
   -1.6298    8.3436    2.7577 H   0  0  0  0  0  0  0  0  0  0  0  0
   -1.0410    7.1671    0.6996 H   0  0  0  0  0  0  0  0  0  0  0  0
    1.3066    3.5213   -4.9069 H   0  0  0  0  0  0  0  0  0  0  0  0
   -1.5123    7.2013    4.9183 H   0  0  0  0  0  0  0  0  0  0  0  0
   -4.7133   -1.3049    0.9955 H   0  0  0  0  0  0  0  0  0  0  0  0
   -5.3435   -2.0756   -0.4953 H   0  0  0  0  0  0  0  0  0  0  0  0
   -4.6324   -3.0497    0.8048 H   0  0  0  0  0  0  0  0  0  0  0  0
   -4.6474    2.4760    0.4507 H   0  0  0  0  0  0  0  0  0  0  0  0
   -3.9508    2.5050   -1.2158 H   0  0  0  0  0  0  0  0  0  0  0  0
   -5.6226    2.0130   -0.9486 H   0  0  0  0  0  0  0  0  0  0  0  0
   -0.7966    5.9365    6.8158 H   0  0  0  0  0  0  0  0  0  0  0  0
   -2.3887    5.4072    6.1523 H   0  0  0  0  0  0  0  0  0  0  0  0
   -1.4098    4.3050    7.1193 H   0  0  0  0  0  0  0  0  0  0  0  0
    0.8100   -0.7305   -4.6081 H   0  0  0  0  0  0  0  0  0  0  0  0
    0.8670    1.3252   -5.9974 H   0  0  0  0  0  0  0  0  0  0  0  0
  1 35  1  0  0  0  0
  2  4  1  0  0  0  0
  3  6  1  0  0  0  0
  3  2  1  0  0  0  0
  4  1  1  0  0  0  0
  4 36  1  0  0  0  0
  5  1  1  0  0  0  0
  6  5  2  0  0  0  0
  7  1  1  0  0  0  0
  8  4  1  0  0  0  0
  9  5  1  0  0  0  0
  9 37  1  0  0  0  0
 10  6  1  0  0  0  0
 10 38  1  0  0  0  0
 11  7  1  0  0  0  0
 11 39  1  0  0  0  0
 12 13  1  0  0  0  0
 12 10  2  0  0  0  0
 13  9  2  0  0  0  0
 14  3  2  0  0  0  0
 15  7  2  0  0  0  0
 16  8  2  0  0  0  0
 17 11  1  0  0  0  0
 18 17  2  0  0  0  0
 18 40  1  0  0  0  0
 19  2  1  0  0  0  0
 19 41  1  0  0  0  0
 19 42  1  0  0  0  0
 19 43  1  0  0  0  0
 20 18  1  0  0  0  0
 20 29  2  0  0  0  0
 21 16  1  0  0  0  0
 22 12  1  0  0  0  0
 23 13  1  0  0  0  0
 24  8  1  0  0  0  0
 24 44  1  0  0  0  0
 25 20  1  0  0  0  0
 26 27  2  0  0  0  0
 26 45  1  0  0  0  0
 27 17  1  0  0  0  0
 27 46  1  0  0  0  0
 28 16  1  0  0  0  0
 28 47  1  0  0  0  0
 29 26  1  0  0  0  0
 29 48  1  0  0  0  0
 30 22  1  0  0  0  0
 30 49  1  0  0  0  0
 30 50  1  0  0  0  0
 30 51  1  0  0  0  0
 31 23  1  0  0  0  0
 31 52  1  0  0  0  0
 31 53  1  0  0  0  0
 31 54  1  0  0  0  0
 32 25  1  0  0  0  0
 32 55  1  0  0  0  0
 32 56  1  0  0  0  0
 32 57  1  0  0  0  0
 33 24  2  0  0  0  0
 33 58  1  0  0  0  0
 34 33  1  0  0  0  0
 34 28  2  0  0  0  0
 34 59  1  0  0  0  0
M  END
>  <Mol_ID>
8961

>  <Formula>
C26H25FN2O5

>  <MolWeight>
464.4855032

>  <Cat>
P2521

>  <Name>
WAY-327263

>  <Synonyms>
N/A

>  <Target>
Anti-infection

>  <Form>
free base

>  <CAS>
687561-16-6

>  <URL>
N/A

$$$$
