WAY-332025
 OpenBabel08302521443D

 46 48  0  0  0  0  0  0  0  0999 V2000
   -0.6291    3.7336    2.7747 C   0  0  0  0  0  0  0  0  0  0  0  0
    0.1500    3.8692    1.7204 N   0  0  0  0  0  0  0  0  0  0  0  0
   -0.1791    2.8161    0.8970 C   0  0  0  0  0  0  0  0  0  0  0  0
   -1.4904    2.6678    2.6837 O   0  0  0  0  0  0  0  0  0  0  0  0
   -0.6925    4.5431    3.9866 C   0  0  0  0  0  0  0  0  0  0  0  0
   -1.1934    2.0856    1.4813 C   0  0  0  0  0  0  0  0  0  0  0  0
   -0.4081    3.4052   -1.7518 S   0  0  3  0  0  0  0  0  0  0  0  0
    0.5188    2.6275   -0.3989 C   0  0  0  0  0  0  0  0  0  0  0  0
   -0.2594    5.1463   -1.2441 C   0  0  0  0  0  0  0  0  0  0  0  0
    1.1516    5.6580   -1.0601 C   0  0  0  0  0  0  0  0  0  0  0  0
    0.1016    5.6900    4.1088 C   0  0  0  0  0  0  0  0  0  0  0  0
    1.3722    6.7406   -0.2600 N   0  0  0  0  0  0  0  0  0  0  0  0
    0.3202    3.1779   -3.0425 O   0  0  0  0  0  0  0  0  0  0  0  0
    2.1368    5.1697   -1.6180 O   0  0  0  0  0  0  0  0  0  0  0  0
    0.4475    7.5720    0.4824 C   0  0  0  0  0  0  0  0  0  0  0  0
    0.9103    6.0777    3.1119 F   0  0  0  0  0  0  0  0  0  0  0  0
   -1.5219    4.2025    5.0675 C   0  0  0  0  0  0  0  0  0  0  0  0
   -1.9727    0.8949    1.0999 C   0  0  0  0  0  0  0  0  0  0  0  0
    0.0716    8.8487   -0.2315 C   0  0  0  0  0  0  0  0  0  0  0  0
    0.0838    6.4727    5.2632 C   0  0  0  0  0  0  0  0  0  0  0  0
   -1.1541    9.4686    0.0657 C   0  0  0  0  0  0  0  0  0  0  0  0
    0.9534    9.5040   -1.1063 C   0  0  0  0  0  0  0  0  0  0  0  0
   -1.5409    4.9836    6.2300 C   0  0  0  0  0  0  0  0  0  0  0  0
   -0.7359    6.1175    6.3275 C   0  0  0  0  0  0  0  0  0  0  0  0
   -1.4923   10.6974   -0.5072 C   0  0  0  0  0  0  0  0  0  0  0  0
    0.6132   10.7312   -1.6798 C   0  0  0  0  0  0  0  0  0  0  0  0
   -0.6082   11.3291   -1.3785 C   0  0  0  0  0  0  0  0  0  0  0  0
    1.5403    3.0135   -0.3597 H   0  0  0  0  0  0  0  0  0  0  0  0
    0.5887    1.5592   -0.6301 H   0  0  0  0  0  0  0  0  0  0  0  0
   -0.7448    5.7471   -2.0193 H   0  0  0  0  0  0  0  0  0  0  0  0
   -0.8426    5.2494   -0.3283 H   0  0  0  0  0  0  0  0  0  0  0  0
    2.3510    6.9908   -0.2124 H   0  0  0  0  0  0  0  0  0  0  0  0
   -0.4469    6.9992    0.7402 H   0  0  0  0  0  0  0  0  0  0  0  0
    0.9534    7.8488    1.4130 H   0  0  0  0  0  0  0  0  0  0  0  0
   -2.1551    3.3185    5.0213 H   0  0  0  0  0  0  0  0  0  0  0  0
   -1.9656    0.1530    1.9042 H   0  0  0  0  0  0  0  0  0  0  0  0
   -3.0123    1.1688    0.8920 H   0  0  0  0  0  0  0  0  0  0  0  0
   -1.5619    0.4226    0.2018 H   0  0  0  0  0  0  0  0  0  0  0  0
    0.7205    7.3521    5.3198 H   0  0  0  0  0  0  0  0  0  0  0  0
   -1.8503    9.0056    0.7608 H   0  0  0  0  0  0  0  0  0  0  0  0
    1.9223    9.0717   -1.3463 H   0  0  0  0  0  0  0  0  0  0  0  0
   -2.1800    4.7002    7.0637 H   0  0  0  0  0  0  0  0  0  0  0  0
   -0.7446    6.7192    7.2331 H   0  0  0  0  0  0  0  0  0  0  0  0
   -2.4415   11.1687   -0.2628 H   0  0  0  0  0  0  0  0  0  0  0  0
    1.3094   11.2265   -2.3530 H   0  0  0  0  0  0  0  0  0  0  0  0
   -0.8653   12.2893   -1.8153 H   0  0  0  0  0  0  0  0  0  0  0  0
  2  1  2  0  0  0  0
  3  2  1  0  0  0  0
  4  1  1  0  0  0  0
  5  1  1  0  0  0  0
  6  4  1  0  0  0  0
  6  3  2  0  0  0  0
  7  8  1  0  0  0  0
  8  3  1  0  0  0  0
  8 28  1  0  0  0  0
  8 29  1  0  0  0  0
  9  7  1  0  0  0  0
  9 30  1  0  0  0  0
  9 31  1  0  0  0  0
 10  9  1  0  0  0  0
 11  5  2  0  0  0  0
 12 10  1  0  0  0  0
 12 32  1  0  0  0  0
 13  7  2  0  0  0  0
 14 10  2  0  0  0  0
 15 12  1  0  0  0  0
 15 33  1  0  0  0  0
 15 34  1  0  0  0  0
 16 11  1  0  0  0  0
 17  5  1  0  0  0  0
 17 35  1  0  0  0  0
 18  6  1  0  0  0  0
 18 36  1  0  0  0  0
 18 37  1  0  0  0  0
 18 38  1  0  0  0  0
 19 15  1  0  0  0  0
 20 11  1  0  0  0  0
 20 24  2  0  0  0  0
 20 39  1  0  0  0  0
 21 19  2  0  0  0  0
 21 40  1  0  0  0  0
 22 19  1  0  0  0  0
 22 41  1  0  0  0  0
 23 17  2  0  0  0  0
 23 42  1  0  0  0  0
 24 23  1  0  0  0  0
 24 43  1  0  0  0  0
 25 21  1  0  0  0  0
 25 27  2  0  0  0  0
 25 44  1  0  0  0  0
 26 22  2  0  0  0  0
 26 45  1  0  0  0  0
 27 26  1  0  0  0  0
 27 46  1  0  0  0  0
M  END
>  <Mol_ID>
9246

>  <Formula>
C20H19FN2O3S

>  <MolWeight>
386.4398632

>  <Cat>
P2673

>  <Name>
WAY-332025

>  <Synonyms>
N/A

>  <Target>
beta-catenin

>  <Form>
free base

>  <CAS>
1015857-79-0

>  <URL>
N/A

$$$$
