WAY-606650
 OpenBabel08302521433D

 46 50  0  0  0  0  0  0  0  0999 V2000
   -0.4296    1.1565    0.0116 C   0  0  0  0  0  0  0  0  0  0  0  0
    0.9369   -0.6529    0.2740 N   0  0  0  0  0  0  0  0  0  0  0  0
   -0.8998    2.5580   -0.1754 C   0  0  3  0  0  0  0  0  0  0  0  0
   -0.3510   -1.0606    0.1163 N   0  0  0  0  0  0  0  0  0  0  0  0
    0.9150    0.6860    0.1506 C   0  0  0  0  0  0  0  0  0  0  0  0
   -2.1790    2.7497    0.4379 N   0  0  0  0  0  0  0  0  0  0  0  0
   -1.1965    0.0103   -0.0039 C   0  0  0  0  0  0  0  0  0  0  0  0
   -2.8395    3.9490    0.2829 C   0  0  0  0  0  0  0  0  0  0  0  0
   -1.0470    2.9138   -1.5751 N   0  0  0  0  0  0  0  0  0  0  0  0
   -2.4321    4.7752   -0.8792 C   0  0  0  0  0  0  0  0  0  0  0  0
   -1.4968    4.2232   -1.7660 C   0  0  0  0  0  0  0  0  0  0  0  0
   -0.7101   -2.4395    0.0701 C   0  0  0  0  0  0  0  0  0  0  0  0
   -3.7081    4.3084    1.0651 O   0  0  0  0  0  0  0  0  0  0  0  0
    2.1574    1.4819    0.1791 C   0  0  0  0  0  0  0  0  0  0  0  0
   -2.9754    6.0402   -1.1026 C   0  0  0  0  0  0  0  0  0  0  0  0
   -1.1219    4.9498   -2.8974 C   0  0  0  0  0  0  0  0  0  0  0  0
    0.2711   -3.4247    0.2379 C   0  0  0  0  0  0  0  0  0  0  0  0
   -2.0405   -2.8289   -0.1608 C   0  0  0  0  0  0  0  0  0  0  0  0
    2.2960    2.6523   -0.5855 C   0  0  0  0  0  0  0  0  0  0  0  0
    3.2308    1.1080    0.9960 C   0  0  0  0  0  0  0  0  0  0  0  0
   -2.5796    6.7643   -2.2273 C   0  0  0  0  0  0  0  0  0  0  0  0
   -1.6514    6.2235   -3.1194 C   0  0  0  0  0  0  0  0  0  0  0  0
    4.3756    1.9127    1.0850 C   0  0  0  0  0  0  0  0  0  0  0  0
   -0.0766   -4.7781    0.1762 C   0  0  0  0  0  0  0  0  0  0  0  0
   -2.3795   -4.1825   -0.2256 C   0  0  0  0  0  0  0  0  0  0  0  0
    3.4231    3.4685   -0.4814 C   0  0  0  0  0  0  0  0  0  0  0  0
    4.4627    3.1017    0.3591 C   0  0  0  0  0  0  0  0  0  0  0  0
   -1.3984   -5.1558   -0.0565 C   0  0  0  0  0  0  0  0  0  0  0  0
   -0.2114    3.2454    0.3340 H   0  0  0  0  0  0  0  0  0  0  0  0
   -2.3735    2.2870    1.3134 H   0  0  0  0  0  0  0  0  0  0  0  0
   -2.2634   -0.0975   -0.1265 H   0  0  0  0  0  0  0  0  0  0  0  0
   -0.2620    2.6475   -2.1542 H   0  0  0  0  0  0  0  0  0  0  0  0
   -3.7120    6.4489   -0.4154 H   0  0  0  0  0  0  0  0  0  0  0  0
   -0.4165    4.5359   -3.6111 H   0  0  0  0  0  0  0  0  0  0  0  0
    1.3111   -3.1559    0.4157 H   0  0  0  0  0  0  0  0  0  0  0  0
   -2.8408   -2.1107   -0.3072 H   0  0  0  0  0  0  0  0  0  0  0  0
    1.5379    2.9656   -1.2878 H   0  0  0  0  0  0  0  0  0  0  0  0
    3.1816    0.1903    1.5793 H   0  0  0  0  0  0  0  0  0  0  0  0
   -3.0059    7.7463   -2.4185 H   0  0  0  0  0  0  0  0  0  0  0  0
   -1.3511    6.7859   -3.9999 H   0  0  0  0  0  0  0  0  0  0  0  0
    5.1992    1.6136    1.7281 H   0  0  0  0  0  0  0  0  0  0  0  0
    0.6879   -5.5408    0.3068 H   0  0  0  0  0  0  0  0  0  0  0  0
   -3.4099   -4.4750   -0.4124 H   0  0  0  0  0  0  0  0  0  0  0  0
    3.4830    4.3869   -1.0617 H   0  0  0  0  0  0  0  0  0  0  0  0
    5.3408    3.7355    0.4468 H   0  0  0  0  0  0  0  0  0  0  0  0
   -1.6644   -6.2086   -0.1085 H   0  0  0  0  0  0  0  0  0  0  0  0
  2  5  2  0  0  0  0
  2  4  1  0  0  0  0
  3  1  1  0  0  0  0
  3 29  1  0  0  0  0
  4  7  1  0  0  0  0
  5  1  1  0  0  0  0
  6  3  1  0  0  0  0
  6 30  1  0  0  0  0
  7  1  2  0  0  0  0
  7 31  1  0  0  0  0
  8  6  1  0  0  0  0
  9  3  1  0  0  0  0
  9 32  1  0  0  0  0
 10 11  2  0  0  0  0
 10  8  1  0  0  0  0
 11  9  1  0  0  0  0
 12  4  1  0  0  0  0
 13  8  2  0  0  0  0
 14  5  1  0  0  0  0
 15 10  1  0  0  0  0
 15 33  1  0  0  0  0
 16 11  1  0  0  0  0
 16 34  1  0  0  0  0
 17 12  2  0  0  0  0
 17 35  1  0  0  0  0
 18 12  1  0  0  0  0
 18 36  1  0  0  0  0
 19 14  2  0  0  0  0
 19 37  1  0  0  0  0
 20 14  1  0  0  0  0
 20 38  1  0  0  0  0
 21 22  1  0  0  0  0
 21 15  2  0  0  0  0
 21 39  1  0  0  0  0
 22 16  2  0  0  0  0
 22 40  1  0  0  0  0
 23 20  2  0  0  0  0
 23 41  1  0  0  0  0
 24 17  1  0  0  0  0
 24 42  1  0  0  0  0
 25 18  2  0  0  0  0
 25 43  1  0  0  0  0
 26 19  1  0  0  0  0
 26 44  1  0  0  0  0
 27 23  1  0  0  0  0
 27 26  2  0  0  0  0
 27 45  1  0  0  0  0
 28 25  1  0  0  0  0
 28 24  2  0  0  0  0
 28 46  1  0  0  0  0
M  END
>  <Mol_ID>
8726

>  <Formula>
C23H18N4O

>  <MolWeight>
366.41522

>  <Cat>
P2869

>  <Name>
WAY-606650

>  <Synonyms>
N/A

>  <Target>
Others

>  <Form>
free base

>  <CAS>
474379-42-5

>  <URL>
N/A

$$$$
