WAY-640426
 OpenBabel08302521443D

 31 34  0  0  0  0  0  0  0  0999 V2000
    0.3136   -0.8349   -0.6333 C   0  0  0  0  0  0  0  0  0  0  0  0
    0.3910   -0.8585    0.6864 N   0  0  0  0  0  0  0  0  0  0  0  0
   -0.1643    0.3736   -1.0894 O   0  0  0  0  0  0  0  0  0  0  0  0
   -0.0480    0.3659    1.1437 N   0  0  0  0  0  0  0  0  0  0  0  0
   -0.3745    1.0612    0.0755 C   0  0  0  0  0  0  0  0  0  0  0  0
    0.6956   -1.9311   -1.4760 C   0  0  0  0  0  0  0  0  0  0  0  0
   -4.8508    4.9908   -0.0791 C   0  0  0  0  0  0  0  0  0  0  0  0
    0.6070   -1.8317   -3.1843 S   0  0  0  0  0  0  0  0  0  0  0  0
   -4.2095    3.7706    0.0008 C   0  0  0  0  0  0  0  0  0  0  0  0
   -4.1535    6.1642   -0.2392 C   0  0  0  0  0  0  0  0  0  0  0  0
   -6.1944    5.1958   -0.0140 O   0  0  0  0  0  0  0  0  0  0  0  0
   -4.9652    7.2523   -0.2967 O   0  0  0  0  0  0  0  0  0  0  0  0
   -6.2577    6.6334   -0.1344 C   0  0  0  0  0  0  0  0  0  0  0  0
    1.1676   -3.1655   -1.0700 C   0  0  0  0  0  0  0  0  0  0  0  0
    1.1817   -3.4316   -3.3762 C   0  0  0  0  0  0  0  0  0  0  0  0
    1.4441   -4.0339   -2.1664 C   0  0  0  0  0  0  0  0  0  0  0  0
   -0.8104    2.4727   -0.0352 C   0  0  0  0  0  0  0  0  0  0  0  0
   -2.8107    3.7526   -0.0836 C   0  0  0  0  0  0  0  0  0  0  0  0
   -2.7799    6.1834   -0.3258 C   0  0  0  0  0  0  0  0  0  0  0  0
   -2.2389    2.5076   -0.0018 O   0  0  0  0  0  0  0  0  0  0  0  0
   -2.1046    4.9620   -0.2451 C   0  0  0  0  0  0  0  0  0  0  0  0
   -4.7758    2.8542    0.1271 H   0  0  0  0  0  0  0  0  0  0  0  0
   -6.8788    6.8882   -1.0007 H   0  0  0  0  0  0  0  0  0  0  0  0
   -6.7283    7.0414    0.7676 H   0  0  0  0  0  0  0  0  0  0  0  0
    1.3026   -3.4350   -0.0281 H   0  0  0  0  0  0  0  0  0  0  0  0
    1.2984   -3.8529   -4.3655 H   0  0  0  0  0  0  0  0  0  0  0  0
    1.8145   -5.0474   -2.0704 H   0  0  0  0  0  0  0  0  0  0  0  0
   -0.3973    3.0358    0.8100 H   0  0  0  0  0  0  0  0  0  0  0  0
   -0.4422    2.8884   -0.9807 H   0  0  0  0  0  0  0  0  0  0  0  0
   -2.2433    7.1169   -0.4516 H   0  0  0  0  0  0  0  0  0  0  0  0
   -1.0212    4.9924   -0.3126 H   0  0  0  0  0  0  0  0  0  0  0  0
  2  1  2  0  0  0  0
  3  1  1  0  0  0  0
  4  2  1  0  0  0  0
  4  5  2  0  0  0  0
  5  3  1  0  0  0  0
  6  1  1  0  0  0  0
  7  9  2  0  0  0  0
  8  6  1  0  0  0  0
  9 18  1  0  0  0  0
  9 22  1  0  0  0  0
 10 19  2  0  0  0  0
 10  7  1  0  0  0  0
 11  7  1  0  0  0  0
 12 10  1  0  0  0  0
 13 11  1  0  0  0  0
 13 12  1  0  0  0  0
 13 23  1  0  0  0  0
 13 24  1  0  0  0  0
 14  6  2  0  0  0  0
 14 25  1  0  0  0  0
 15  8  1  0  0  0  0
 15 16  2  0  0  0  0
 15 26  1  0  0  0  0
 16 14  1  0  0  0  0
 16 27  1  0  0  0  0
 17  5  1  0  0  0  0
 17 28  1  0  0  0  0
 17 29  1  0  0  0  0
 18 20  1  0  0  0  0
 19 21  1  0  0  0  0
 19 30  1  0  0  0  0
 20 17  1  0  0  0  0
 21 18  2  0  0  0  0
 21 31  1  0  0  0  0
M  END
>  <Mol_ID>
9098

>  <Formula>
C14H10N2O4S

>  <MolWeight>
302.3052

>  <Cat>
P3106

>  <Name>
WAY-640426

>  <Synonyms>
N/A

>  <Target>
Others

>  <Form>
free base

>  <CAS>
851278-26-7

>  <URL>
N/A

$$$$
