WAY-344755
 OpenBabel08302521393D

 25 26  0  0  0  0  0  0  0  0999 V2000
    0.6736   -0.8355    0.9610 N   0  0  0  0  0  0  0  0  0  0  0  0
   -0.1091   -0.6873   -0.1409 C   0  0  0  0  0  0  0  0  0  0  0  0
    1.7990   -0.0670    1.1402 C   0  0  0  0  0  0  0  0  0  0  0  0
    0.2764   -1.7929    1.8708 N   0  0  0  0  0  0  0  0  0  0  0  0
   -1.4399   -1.7949   -0.0895 S   0  0  0  0  0  0  0  0  0  0  0  0
    0.0890    0.1491   -1.0978 N   0  0  0  0  0  0  0  0  0  0  0  0
    2.0266    0.9220   -0.0070 C   0  0  0  0  0  0  0  0  0  0  0  0
    2.5706   -0.1236    2.0842 O   0  0  0  0  0  0  0  0  0  0  0  0
   -0.8052   -2.3478    1.4296 C   0  0  0  0  0  0  0  0  0  0  0  0
    1.2075    0.9867   -1.0187 N   0  0  0  0  0  0  0  0  0  0  0  0
    3.2614    1.8514    0.0274 C   0  0  0  0  0  0  0  0  0  0  0  0
   -1.6483   -3.6047    2.2625 S   0  0  0  0  0  0  0  0  0  0  0  0
    3.2709    2.7609   -1.2230 C   0  0  0  0  0  0  0  0  0  0  0  0
    3.2328    2.7614    1.2640 C   0  0  0  0  0  0  0  0  0  0  0  0
    4.5523    1.0208    0.0036 C   0  0  0  0  0  0  0  0  0  0  0  0
   -2.6177   -3.7492    1.3483 H   0  0  0  0  0  0  0  0  0  0  0  0
    2.3865    3.4089   -1.2524 H   0  0  0  0  0  0  0  0  0  0  0  0
    4.1556    3.4076   -1.2422 H   0  0  0  0  0  0  0  0  0  0  0  0
    3.2762    2.1703   -2.1471 H   0  0  0  0  0  0  0  0  0  0  0  0
    3.2487    2.1990    2.2011 H   0  0  0  0  0  0  0  0  0  0  0  0
    4.1019    3.4300    1.2784 H   0  0  0  0  0  0  0  0  0  0  0  0
    2.3311    3.3844    1.2744 H   0  0  0  0  0  0  0  0  0  0  0  0
    4.6545    0.3816    0.8849 H   0  0  0  0  0  0  0  0  0  0  0  0
    4.5838    0.3698   -0.8775 H   0  0  0  0  0  0  0  0  0  0  0  0
    5.4359    1.6693   -0.0271 H   0  0  0  0  0  0  0  0  0  0  0  0
  2  1  1  0  0  0  0
  3  1  1  0  0  0  0
  4  1  1  0  0  0  0
  5  2  1  0  0  0  0
  6  2  2  0  0  0  0
  7 10  2  0  0  0  0
  7  3  1  0  0  0  0
  8  3  2  0  0  0  0
  9  5  1  0  0  0  0
  9  4  2  0  0  0  0
 10  6  1  0  0  0  0
 11  7  1  0  0  0  0
 12  9  1  0  0  0  0
 12 16  1  0  0  0  0
 13 11  1  0  0  0  0
 13 17  1  0  0  0  0
 13 18  1  0  0  0  0
 13 19  1  0  0  0  0
 14 11  1  0  0  0  0
 14 20  1  0  0  0  0
 14 21  1  0  0  0  0
 14 22  1  0  0  0  0
 15 11  1  0  0  0  0
 15 23  1  0  0  0  0
 15 24  1  0  0  0  0
 15 25  1  0  0  0  0
M  END
>  <Mol_ID>
8033

>  <Formula>
C8H10N4OS2

>  <MolWeight>
242.3212

>  <Cat>
P2739

>  <Name>
WAY-344755

>  <Synonyms>
N/A

>  <Target>
Anti-infection

>  <Form>
free base

>  <CAS>
474647-63-7

>  <URL>
N/A

$$$$
