WAY-300678
 OpenBabel08302521413D

 27 28  0  0  0  0  0  0  0  0999 V2000
    2.2207   -1.7410   -0.9440 C   0  0  0  0  0  0  0  0  0  0  0  0
    1.7583   -2.3950    0.1944 O   0  0  0  0  0  0  0  0  0  0  0  0
    2.2939   -0.3721   -0.8719 C   0  0  0  0  0  0  0  0  0  0  0  0
    2.5789   -2.4545   -2.0294 N   0  0  0  0  0  0  0  0  0  0  0  0
    1.1114   -3.6015    0.0326 C   0  0  0  0  0  0  0  0  0  0  0  0
    2.7049    0.2441   -2.0258 C   0  0  0  0  0  0  0  0  0  0  0  0
    2.9816   -1.7585   -3.0898 C   0  0  0  0  0  0  0  0  0  0  0  0
    0.2442   -3.8734   -1.0328 C   0  0  0  0  0  0  0  0  0  0  0  0
    1.2946   -4.5489    1.0403 C   0  0  0  0  0  0  0  0  0  0  0  0
    3.0342   -0.4245   -3.1481 N   0  0  0  0  0  0  0  0  0  0  0  0
    3.3044   -2.4642   -4.2293 N   0  0  0  0  0  0  0  0  0  0  0  0
   -0.3722   -5.1195   -1.1395 C   0  0  0  0  0  0  0  0  0  0  0  0
    0.6608   -5.7877    0.9516 C   0  0  0  0  0  0  0  0  0  0  0  0
   -0.1597   -6.0734   -0.1420 C   0  0  0  0  0  0  0  0  0  0  0  0
   -1.1937   -5.5157   -2.1602 O   0  0  0  0  0  0  0  0  0  0  0  0
   -1.3885   -4.5828   -3.2175 C   0  0  0  0  0  0  0  0  0  0  0  0
    2.0277    0.1771    0.0186 H   0  0  0  0  0  0  0  0  0  0  0  0
    2.7833    1.3243   -2.0902 H   0  0  0  0  0  0  0  0  0  0  0  0
    0.0766   -3.1062   -1.7782 H   0  0  0  0  0  0  0  0  0  0  0  0
    1.9360   -4.3273    1.8888 H   0  0  0  0  0  0  0  0  0  0  0  0
    3.1695   -1.8892   -5.0472 H   0  0  0  0  0  0  0  0  0  0  0  0
    2.8639   -3.3746   -4.2092 H   0  0  0  0  0  0  0  0  0  0  0  0
    0.8091   -6.5333    1.7280 H   0  0  0  0  0  0  0  0  0  0  0  0
   -0.6393   -7.0463   -0.2169 H   0  0  0  0  0  0  0  0  0  0  0  0
   -1.9029   -3.6854   -2.8570 H   0  0  0  0  0  0  0  0  0  0  0  0
   -0.4403   -4.3254   -3.7035 H   0  0  0  0  0  0  0  0  0  0  0  0
   -2.0284   -5.0537   -3.9690 H   0  0  0  0  0  0  0  0  0  0  0  0
  1  2  1  0  0  0  0
  1  3  2  0  0  0  0
  1  4  1  0  0  0  0
  2  5  1  0  0  0  0
  3  6  1  0  0  0  0
  3 17  1  0  0  0  0
  4  7  2  0  0  0  0
  5  8  2  0  0  0  0
  5  9  1  0  0  0  0
  6 10  2  0  0  0  0
  6 18  1  0  0  0  0
  7 11  1  0  0  0  0
  7 10  1  0  0  0  0
  8 12  1  0  0  0  0
  8 19  1  0  0  0  0
  9 13  2  0  0  0  0
  9 20  1  0  0  0  0
 11 21  1  0  0  0  0
 11 22  1  0  0  0  0
 12 14  2  0  0  0  0
 12 15  1  0  0  0  0
 13 14  1  0  0  0  0
 13 23  1  0  0  0  0
 14 24  1  0  0  0  0
 15 16  1  0  0  0  0
 16 25  1  0  0  0  0
 16 26  1  0  0  0  0
 16 27  1  0  0  0  0
M  END
>  <Mol_ID>
8419

>  <Formula>
C11H10ClN3O2

>  <MolWeight>
251.669

>  <Cat>
P2152

>  <Name>
WAY-300678

>  <Synonyms>
N/A

>  <Target>
Anti-infection

>  <Form>
free base

>  <CAS>
130035-40-4

>  <URL>
N/A

$$$$
