WAY-326128
 OpenBabel08302521433D

 56 59  0  0  0  0  0  0  0  0999 V2000
    0.1910   -0.7384    0.0791 C   0  0  0  0  0  0  0  0  0  0  0  0
    0.2799    0.6569    0.0320 N   0  0  0  0  0  0  0  0  0  0  0  0
    1.4947   -1.2235    0.0424 C   0  0  0  0  0  0  0  0  0  0  0  0
   -0.8643    1.4490    0.0094 C   0  0  0  0  0  0  0  0  0  0  0  0
   -1.0249   -1.3709    0.1287 N   0  0  0  0  0  0  0  0  0  0  0  0
    1.5681    1.0738    0.0339 N   0  0  0  0  0  0  0  0  0  0  0  0
   -2.0755    0.8678    0.0349 C   0  0  0  0  0  0  0  0  0  0  0  0
    4.3442   -4.6696   -0.8227 C   0  0  0  0  0  0  0  0  0  0  0  0
    1.8813   -2.6352   -0.0204 C   0  0  0  0  0  0  0  0  0  0  0  0
   -2.0968   -0.6280    0.0809 C   0  0  0  0  0  0  0  0  0  0  0  0
    2.2772   -0.0530   -0.0189 C   0  0  0  0  0  0  0  0  0  0  0  0
    6.2504   -4.8986   -2.0726 N   0  0  0  0  0  0  0  0  0  0  0  0
    3.9862   -5.0583   -2.1079 C   0  0  0  0  0  0  0  0  0  0  0  0
    5.1614   -5.1680   -2.8178 N   0  0  0  0  0  0  0  0  0  0  0  0
    3.1045   -3.0497    0.5263 N   0  0  0  0  0  0  0  0  0  0  0  0
    5.7543   -4.5996   -0.8722 C   0  0  0  0  0  0  0  0  0  0  0  0
    3.4724   -4.4615    0.3721 C   0  0  0  0  0  0  0  0  0  0  0  0
   -0.6717    2.9224   -0.0143 C   0  0  0  0  0  0  0  0  0  0  0  0
   -3.4478   -1.2666    0.1213 C   0  0  0  0  0  0  0  0  0  0  0  0
    1.1333   -3.4524   -0.5587 O   0  0  0  0  0  0  0  0  0  0  0  0
   -4.5625   -0.6881   -0.5008 C   0  0  0  0  0  0  0  0  0  0  0  0
   -3.6028   -2.4715    0.8149 C   0  0  0  0  0  0  0  0  0  0  0  0
   -0.5286    3.3676   -1.2917 F   0  0  0  0  0  0  0  0  0  0  0  0
   -1.7794    3.5610    0.4684 F   0  0  0  0  0  0  0  0  0  0  0  0
   -5.8242   -1.2805   -0.3845 C   0  0  0  0  0  0  0  0  0  0  0  0
   -4.8645   -3.0636    0.9270 C   0  0  0  0  0  0  0  0  0  0  0  0
   -5.9863   -2.4665    0.3377 C   0  0  0  0  0  0  0  0  0  0  0  0
    5.2904   -5.5575   -4.2131 C   0  0  0  0  0  0  0  0  0  0  0  0
    2.6458   -5.3349   -2.6924 C   0  0  0  0  0  0  0  0  0  0  0  0
    3.9404   -2.2449    1.4050 C   0  0  0  0  0  0  0  0  0  0  0  0
   -7.3387   -3.0988    0.4861 C   0  0  0  0  0  0  0  0  0  0  0  0
    6.6996   -5.5718   -4.7862 C   0  0  0  0  0  0  0  0  0  0  0  0
   -2.9907    1.4437    0.0484 H   0  0  0  0  0  0  0  0  0  0  0  0
    3.3515    0.0423   -0.1170 H   0  0  0  0  0  0  0  0  0  0  0  0
    6.4431   -4.3557   -0.0739 H   0  0  0  0  0  0  0  0  0  0  0  0
    3.9875   -4.7995    1.2795 H   0  0  0  0  0  0  0  0  0  0  0  0
    2.5736   -5.0813    0.2937 H   0  0  0  0  0  0  0  0  0  0  0  0
    0.1789    3.2649    0.5793 H   0  0  0  0  0  0  0  0  0  0  0  0
   -4.4755    0.2168   -1.0948 H   0  0  0  0  0  0  0  0  0  0  0  0
   -2.7443   -2.9504    1.2821 H   0  0  0  0  0  0  0  0  0  0  0  0
   -6.6786   -0.8064   -0.8637 H   0  0  0  0  0  0  0  0  0  0  0  0
   -4.9664   -3.9939    1.4819 H   0  0  0  0  0  0  0  0  0  0  0  0
    4.8580   -6.5607   -4.2996 H   0  0  0  0  0  0  0  0  0  0  0  0
    4.6729   -4.8595   -4.7895 H   0  0  0  0  0  0  0  0  0  0  0  0
    2.0578   -5.9688   -2.0215 H   0  0  0  0  0  0  0  0  0  0  0  0
    2.1051   -4.3993   -2.8572 H   0  0  0  0  0  0  0  0  0  0  0  0
    2.7053   -5.8553   -3.6531 H   0  0  0  0  0  0  0  0  0  0  0  0
    4.4903   -1.5088    0.8163 H   0  0  0  0  0  0  0  0  0  0  0  0
    3.3138   -1.7448    2.1493 H   0  0  0  0  0  0  0  0  0  0  0  0
    4.6733   -2.8646    1.9305 H   0  0  0  0  0  0  0  0  0  0  0  0
   -7.3268   -4.1174    0.0852 H   0  0  0  0  0  0  0  0  0  0  0  0
   -7.6259   -3.1292    1.5422 H   0  0  0  0  0  0  0  0  0  0  0  0
   -8.1070   -2.5352   -0.0539 H   0  0  0  0  0  0  0  0  0  0  0  0
    7.1635   -4.5822   -4.7279 H   0  0  0  0  0  0  0  0  0  0  0  0
    7.3388   -6.2838   -4.2541 H   0  0  0  0  0  0  0  0  0  0  0  0
    6.6698   -5.8697   -5.8398 H   0  0  0  0  0  0  0  0  0  0  0  0
  2  1  1  0  0  0  0
  3  1  2  0  0  0  0
  4  2  1  0  0  0  0
  4  7  2  0  0  0  0
  5  1  1  0  0  0  0
  6  2  1  0  0  0  0
  6 11  2  0  0  0  0
  7 10  1  0  0  0  0
  7 33  1  0  0  0  0
  8 17  1  0  0  0  0
  9  3  1  0  0  0  0
 10  5  2  0  0  0  0
 11  3  1  0  0  0  0
 11 34  1  0  0  0  0
 12 16  2  0  0  0  0
 12 14  1  0  0  0  0
 13  8  2  0  0  0  0
 14 13  1  0  0  0  0
 15  9  1  0  0  0  0
 16  8  1  0  0  0  0
 16 35  1  0  0  0  0
 17 15  1  0  0  0  0
 17 36  1  0  0  0  0
 17 37  1  0  0  0  0
 18  4  1  0  0  0  0
 18 38  1  0  0  0  0
 19 10  1  0  0  0  0
 20  9  2  0  0  0  0
 21 19  2  0  0  0  0
 21 39  1  0  0  0  0
 22 19  1  0  0  0  0
 22 40  1  0  0  0  0
 23 18  1  0  0  0  0
 24 18  1  0  0  0  0
 25 21  1  0  0  0  0
 25 27  2  0  0  0  0
 25 41  1  0  0  0  0
 26 22  2  0  0  0  0
 26 42  1  0  0  0  0
 27 26  1  0  0  0  0
 28 14  1  0  0  0  0
 28 43  1  0  0  0  0
 28 44  1  0  0  0  0
 29 13  1  0  0  0  0
 29 45  1  0  0  0  0
 29 46  1  0  0  0  0
 29 47  1  0  0  0  0
 30 15  1  0  0  0  0
 30 48  1  0  0  0  0
 30 49  1  0  0  0  0
 30 50  1  0  0  0  0
 31 27  1  0  0  0  0
 31 51  1  0  0  0  0
 31 52  1  0  0  0  0
 31 53  1  0  0  0  0
 32 28  1  0  0  0  0
 32 54  1  0  0  0  0
 32 55  1  0  0  0  0
 32 56  1  0  0  0  0
M  END
>  <Mol_ID>
8895

>  <Formula>
C23H24F2N6O

>  <MolWeight>
438.4730664

>  <Cat>
P2453

>  <Name>
WAY-326128

>  <Synonyms>
N/A

>  <Target>
11¦Â-HSD1

>  <Form>
free base

>  <CAS>
869716-25-6

>  <URL>
N/A

$$$$
