WAY-639881
 OpenBabel08302521443D

 35 37  0  0  0  0  0  0  0  0999 V2000
    1.3748    0.1901    1.6569 C   0  0  0  0  0  0  0  0  0  0  0  0
    2.7300    0.5400    1.1287 C   0  0  0  0  0  0  0  0  0  0  0  0
    0.3286    0.3262    0.7611 N   0  0  0  0  0  0  0  0  0  0  0  0
   -1.0894    0.3362    1.1486 C   0  0  3  0  0  0  0  0  0  0  0  0
   -1.8418    1.1499    0.1040 C   0  0  0  0  0  0  0  0  0  0  0  0
    4.9284    1.4863    1.6108 N   0  0  0  0  0  0  0  0  0  0  0  0
    3.0682    0.4583   -0.2248 C   0  0  0  0  0  0  0  0  0  0  0  0
    1.2310   -0.1200    2.8297 O   0  0  0  0  0  0  0  0  0  0  0  0
   -2.5599    0.5351   -0.9400 C   0  0  0  0  0  0  0  0  0  0  0  0
    3.7028    1.0194    2.0053 C   0  0  0  0  0  0  0  0  0  0  0  0
    4.3126    0.9254   -0.6526 C   0  0  0  0  0  0  0  0  0  0  0  0
    4.7781    0.8629   -2.4790 Br  0  0  0  0  0  0  0  0  0  0  0  0
    5.1906    1.4462    0.2842 C   0  0  0  0  0  0  0  0  0  0  0  0
   -1.6880   -1.0697    1.2974 C   0  0  0  0  0  0  0  0  0  0  0  0
   -1.8805   -1.7582   -0.0510 C   0  0  0  0  0  0  0  0  0  0  0  0
   -1.7113    2.5502    0.1125 C   0  0  0  0  0  0  0  0  0  0  0  0
   -2.7811   -0.9559   -0.9890 C   0  0  0  0  0  0  0  0  0  0  0  0
   -3.1178    1.3310   -1.9549 C   0  0  0  0  0  0  0  0  0  0  0  0
   -2.2440    3.3239   -0.9180 C   0  0  0  0  0  0  0  0  0  0  0  0
   -2.9377    2.7131   -1.9575 C   0  0  0  0  0  0  0  0  0  0  0  0
    0.5176    0.7350   -0.1427 H   0  0  0  0  0  0  0  0  0  0  0  0
   -1.1686    0.8363    2.1225 H   0  0  0  0  0  0  0  0  0  0  0  0
    2.3796    0.0267   -0.9456 H   0  0  0  0  0  0  0  0  0  0  0  0
    3.5310    1.0685    3.0741 H   0  0  0  0  0  0  0  0  0  0  0  0
    6.1580    1.8543   -0.0025 H   0  0  0  0  0  0  0  0  0  0  0  0
   -2.6679   -0.9928    1.7889 H   0  0  0  0  0  0  0  0  0  0  0  0
   -1.0582   -1.6927    1.9428 H   0  0  0  0  0  0  0  0  0  0  0  0
   -0.9040   -1.9130   -0.5241 H   0  0  0  0  0  0  0  0  0  0  0  0
   -2.3182   -2.7529    0.0977 H   0  0  0  0  0  0  0  0  0  0  0  0
   -1.1640    3.0411    0.9150 H   0  0  0  0  0  0  0  0  0  0  0  0
   -2.6148   -1.3131   -2.0134 H   0  0  0  0  0  0  0  0  0  0  0  0
   -3.8328   -1.1558   -0.7458 H   0  0  0  0  0  0  0  0  0  0  0  0
   -3.6830    0.8715   -2.7638 H   0  0  0  0  0  0  0  0  0  0  0  0
   -2.1044    4.4018   -0.9164 H   0  0  0  0  0  0  0  0  0  0  0  0
   -3.3373    3.3129   -2.7716 H   0  0  0  0  0  0  0  0  0  0  0  0
  2  1  1  0  0  0  0
  3  1  1  0  0  0  0
  3 21  1  0  0  0  0
  4  3  1  0  0  0  0
  4 22  1  0  0  0  0
  5  4  1  0  0  0  0
  6 10  2  0  0  0  0
  7  2  2  0  0  0  0
  7 23  1  0  0  0  0
  8  1  2  0  0  0  0
  9  5  2  0  0  0  0
 10  2  1  0  0  0  0
 10 24  1  0  0  0  0
 11  7  1  0  0  0  0
 12 11  1  0  0  0  0
 13  6  1  0  0  0  0
 13 11  2  0  0  0  0
 13 25  1  0  0  0  0
 14  4  1  0  0  0  0
 14 26  1  0  0  0  0
 14 27  1  0  0  0  0
 15 14  1  0  0  0  0
 15 28  1  0  0  0  0
 15 29  1  0  0  0  0
 16  5  1  0  0  0  0
 16 30  1  0  0  0  0
 17 15  1  0  0  0  0
 17  9  1  0  0  0  0
 17 31  1  0  0  0  0
 17 32  1  0  0  0  0
 18  9  1  0  0  0  0
 18 33  1  0  0  0  0
 19 16  2  0  0  0  0
 19 34  1  0  0  0  0
 20 19  1  0  0  0  0
 20 18  2  0  0  0  0
 20 35  1  0  0  0  0
M  END
>  <Mol_ID>
9084

>  <Formula>
C16H15BrN2O

>  <MolWeight>
331.2071

>  <Cat>
P3091

>  <Name>
WAY-639881

>  <Synonyms>
N/A

>  <Target>
T1R1/T1R3 or T1R2/T1R3 ligand

>  <Form>
free base

>  <CAS>
844900-78-3

>  <URL>
N/A

$$$$
