WAY-640878
 OpenBabel08302521443D

 54 57  0  0  0  0  0  0  0  0999 V2000
    1.0954   -0.1178    0.3116 S   0  0  0  0  0  0  0  0  0  0  0  0
    0.6398   -0.7287   -1.2442 N   0  0  0  0  0  0  0  0  0  0  0  0
   -1.1767    3.0553   -2.0341 C   0  0  0  0  0  0  0  0  0  0  0  0
    1.0682    0.0861   -2.4383 C   0  0  3  0  0  0  0  0  0  0  0  0
   -0.9387    3.9822   -2.9233 N   0  0  0  0  0  0  0  0  0  0  0  0
    0.6093    1.5458   -2.5177 C   0  0  0  0  0  0  0  0  0  0  0  0
   -0.6135    1.8113   -1.9378 N   0  0  0  0  0  0  0  0  0  0  0  0
   -1.6738    5.1203   -2.6334 C   0  0  0  0  0  0  0  0  0  0  0  0
   -2.3615    3.4246   -0.8640 S   0  0  0  0  0  0  0  0  0  0  0  0
   -2.5022    5.0057   -1.5335 C   0  0  0  0  0  0  0  0  0  0  0  0
    0.5317   -1.0110    1.3000 O   0  0  0  0  0  0  0  0  0  0  0  0
    0.7808    1.2918    0.3486 O   0  0  0  0  0  0  0  0  0  0  0  0
    2.8650   -0.2950    0.3732 C   0  0  0  0  0  0  0  0  0  0  0  0
   -1.5580    6.2969   -3.4843 C   0  0  0  0  0  0  0  0  0  0  0  0
    1.2977    2.3425   -3.1567 O   0  0  0  0  0  0  0  0  0  0  0  0
   -1.2873    6.1175   -4.8470 C   0  0  0  0  0  0  0  0  0  0  0  0
   -1.6634    7.6008   -2.9869 C   0  0  0  0  0  0  0  0  0  0  0  0
    0.9738   -2.1871   -1.3801 C   0  0  0  0  0  0  0  0  0  0  0  0
   -1.2200    8.5081   -5.2024 C   0  0  0  0  0  0  0  0  0  0  0  0
    0.5555   -0.5597   -3.7427 C   0  0  0  0  0  0  0  0  0  0  0  0
   -1.1279    7.2116   -5.7030 C   0  0  0  0  0  0  0  0  0  0  0  0
   -1.4925    8.6960   -3.8445 C   0  0  0  0  0  0  0  0  0  0  0  0
   -1.0531    9.6576   -5.9255 O   0  0  0  0  0  0  0  0  0  0  0  0
    3.6910    0.7388   -0.0796 C   0  0  0  0  0  0  0  0  0  0  0  0
    3.4200   -1.4419    0.9559 C   0  0  0  0  0  0  0  0  0  0  0  0
   -0.7438    9.5025   -7.3059 C   0  0  0  0  0  0  0  0  0  0  0  0
    0.4317   -2.7826   -2.6687 C   0  0  0  0  0  0  0  0  0  0  0  0
    0.9657   -2.0173   -3.8647 C   0  0  0  0  0  0  0  0  0  0  0  0
    4.8058   -1.5722    1.0444 C   0  0  0  0  0  0  0  0  0  0  0  0
    5.0763    0.6023    0.0160 C   0  0  0  0  0  0  0  0  0  0  0  0
    5.6322   -0.5534    0.5733 C   0  0  0  0  0  0  0  0  0  0  0  0
    2.1648    0.0906   -2.4616 H   0  0  0  0  0  0  0  0  0  0  0  0
   -0.9226    1.2250   -1.1739 H   0  0  0  0  0  0  0  0  0  0  0  0
   -3.1811    5.7345   -1.1094 H   0  0  0  0  0  0  0  0  0  0  0  0
   -1.1872    5.1111   -5.2508 H   0  0  0  0  0  0  0  0  0  0  0  0
   -1.8425    7.7860   -1.9311 H   0  0  0  0  0  0  0  0  0  0  0  0
    0.5417   -2.7450   -0.5431 H   0  0  0  0  0  0  0  0  0  0  0  0
    2.0604   -2.3213   -1.3631 H   0  0  0  0  0  0  0  0  0  0  0  0
    0.9438   -0.0097   -4.6095 H   0  0  0  0  0  0  0  0  0  0  0  0
   -0.5391   -0.4882   -3.7975 H   0  0  0  0  0  0  0  0  0  0  0  0
   -0.9187    7.0083   -6.7475 H   0  0  0  0  0  0  0  0  0  0  0  0
   -1.5559    9.7055   -3.4453 H   0  0  0  0  0  0  0  0  0  0  0  0
    3.2704    1.6527   -0.4962 H   0  0  0  0  0  0  0  0  0  0  0  0
    2.7827   -2.2325    1.3464 H   0  0  0  0  0  0  0  0  0  0  0  0
    0.1658    8.9097   -7.4512 H   0  0  0  0  0  0  0  0  0  0  0  0
   -1.5902    9.0655   -7.8462 H   0  0  0  0  0  0  0  0  0  0  0  0
   -0.5568   10.4967   -7.7229 H   0  0  0  0  0  0  0  0  0  0  0  0
   -0.6644   -2.7554   -2.6660 H   0  0  0  0  0  0  0  0  0  0  0  0
    0.7311   -3.8344   -2.7410 H   0  0  0  0  0  0  0  0  0  0  0  0
    0.5731   -2.4452   -4.7933 H   0  0  0  0  0  0  0  0  0  0  0  0
    2.0596   -2.0970   -3.9093 H   0  0  0  0  0  0  0  0  0  0  0  0
    5.2416   -2.4627    1.4933 H   0  0  0  0  0  0  0  0  0  0  0  0
    5.7279    1.4004   -0.3316 H   0  0  0  0  0  0  0  0  0  0  0  0
    6.7124   -0.6510    0.6536 H   0  0  0  0  0  0  0  0  0  0  0  0
  2  1  1  0  0  0  0
  3  7  1  0  0  0  0
  4  2  1  0  0  0  0
  4 32  1  0  0  0  0
  5  3  2  0  0  0  0
  6  4  1  0  0  0  0
  7  6  1  0  0  0  0
  7 33  1  0  0  0  0
  8  5  1  0  0  0  0
  9  3  1  0  0  0  0
 10  9  1  0  0  0  0
 10  8  2  0  0  0  0
 10 34  1  0  0  0  0
 11  1  2  0  0  0  0
 12  1  2  0  0  0  0
 13  1  1  0  0  0  0
 14  8  1  0  0  0  0
 15  6  2  0  0  0  0
 16 14  2  0  0  0  0
 16 35  1  0  0  0  0
 17 14  1  0  0  0  0
 17 36  1  0  0  0  0
 18  2  1  0  0  0  0
 18 37  1  0  0  0  0
 18 38  1  0  0  0  0
 19 22  1  0  0  0  0
 20  4  1  0  0  0  0
 20 39  1  0  0  0  0
 20 40  1  0  0  0  0
 21 16  1  0  0  0  0
 21 19  2  0  0  0  0
 21 41  1  0  0  0  0
 22 17  2  0  0  0  0
 22 42  1  0  0  0  0
 23 19  1  0  0  0  0
 24 13  2  0  0  0  0
 24 43  1  0  0  0  0
 25 13  1  0  0  0  0
 25 44  1  0  0  0  0
 26 23  1  0  0  0  0
 26 45  1  0  0  0  0
 26 46  1  0  0  0  0
 26 47  1  0  0  0  0
 27 18  1  0  0  0  0
 27 48  1  0  0  0  0
 27 49  1  0  0  0  0
 28 27  1  0  0  0  0
 28 20  1  0  0  0  0
 28 50  1  0  0  0  0
 28 51  1  0  0  0  0
 29 25  2  0  0  0  0
 29 52  1  0  0  0  0
 30 24  1  0  0  0  0
 30 53  1  0  0  0  0
 31 29  1  0  0  0  0
 31 30  2  0  0  0  0
 31 54  1  0  0  0  0
M  END
>  <Mol_ID>
9108

>  <Formula>
C22H23N3O4S2

>  <MolWeight>
457.56572

>  <Cat>
P3116

>  <Name>
WAY-640878

>  <Synonyms>
N/A

>  <Target>
KCNQ1 potassium channel

>  <Form>
free base

>  <CAS>
1008671-38-2

>  <URL>
N/A

$$$$
