WAY-297407
 OpenBabel08302521343D

 28 29  0  0  0  0  0  0  0  0999 V2000
   -3.4068    2.5253   -1.8506 C   0  0  0  0  0  0  0  0  0  0  0  0
   -4.1012    1.5754   -1.1266 C   0  0  0  0  0  0  0  0  0  0  0  0
   -4.9500    0.7850   -1.9522 C   0  0  0  0  0  0  0  0  0  0  0  0
   -4.8961    1.1762   -3.2709 C   0  0  0  0  0  0  0  0  0  0  0  0
   -3.8437    2.5021   -3.5062 S   0  0  0  0  0  0  0  0  0  0  0  0
   -1.0238    2.7587   -1.3482 C   0  0  0  0  0  0  0  0  0  0  0  0
   -2.3634    3.4764   -1.3581 C   0  0  0  0  0  0  0  0  0  0  0  0
   -0.6277    2.1979   -0.3284 O   0  0  0  0  0  0  0  0  0  0  0  0
   -0.3430    2.8202   -2.5578 N   0  0  0  0  0  0  0  0  0  0  0  0
    0.8736    2.1708   -2.8534 C   0  0  0  0  0  0  0  0  0  0  0  0
    1.3786    1.1223   -2.0771 C   0  0  0  0  0  0  0  0  0  0  0  0
    2.6277    0.5604   -2.3519 C   0  0  0  0  0  0  0  0  0  0  0  0
    3.3808    1.0471   -3.4246 C   0  0  0  0  0  0  0  0  0  0  0  0
    2.8629    2.0526   -4.2502 C   0  0  0  0  0  0  0  0  0  0  0  0
    1.6036    2.6004   -3.9705 C   0  0  0  0  0  0  0  0  0  0  0  0
    4.7252    0.5137   -3.6632 N   0  3  0  0  0  0  0  0  0  0  0  0
    5.1505   -0.3515   -2.8842 O   0  0  0  0  0  0  0  0  0  0  0  0
    5.3608    0.9667   -4.6246 O   0  5  0  0  0  0  0  0  0  0  0  0
   -3.9766    1.4289   -0.0590 H   0  0  0  0  0  0  0  0  0  0  0  0
   -5.5589   -0.0378   -1.5978 H   0  0  0  0  0  0  0  0  0  0  0  0
   -5.4245    0.7468   -4.1107 H   0  0  0  0  0  0  0  0  0  0  0  0
   -2.3051    4.3872   -1.9638 H   0  0  0  0  0  0  0  0  0  0  0  0
   -2.5860    3.7947   -0.3321 H   0  0  0  0  0  0  0  0  0  0  0  0
   -0.7081    3.4542   -3.2612 H   0  0  0  0  0  0  0  0  0  0  0  0
    0.8136    0.7117   -1.2444 H   0  0  0  0  0  0  0  0  0  0  0  0
    2.9950   -0.2391   -1.7121 H   0  0  0  0  0  0  0  0  0  0  0  0
    3.4307    2.4317   -5.0984 H   0  0  0  0  0  0  0  0  0  0  0  0
    1.2258    3.3930   -4.6129 H   0  0  0  0  0  0  0  0  0  0  0  0
  1  2  2  0  0  0  0
  1  5  1  0  0  0  0
  1  7  1  0  0  0  0
  2  3  1  0  0  0  0
  2 19  1  0  0  0  0
  3  4  2  0  0  0  0
  3 20  1  0  0  0  0
  4  5  1  0  0  0  0
  4 21  1  0  0  0  0
  6  7  1  0  0  0  0
  6  8  2  0  0  0  0
  6  9  1  0  0  0  0
  7 22  1  0  0  0  0
  7 23  1  0  0  0  0
  9 10  1  0  0  0  0
  9 24  1  0  0  0  0
 10 11  2  0  0  0  0
 10 15  1  0  0  0  0
 11 12  1  0  0  0  0
 11 25  1  0  0  0  0
 12 13  2  0  0  0  0
 12 26  1  0  0  0  0
 13 14  1  0  0  0  0
 13 16  1  0  0  0  0
 14 15  2  0  0  0  0
 14 27  1  0  0  0  0
 15 28  1  0  0  0  0
 16 17  2  0  0  0  0
 16 18  1  0  0  0  0
M  CHG  2  16   1  18  -1
M  END
>  <Mol_ID>
6430

>  <Formula>
C12H10N2O3S

>  <MolWeight>
262.2844

>  <Cat>
E2137

>  <Name>
WAY-297407

>  <Target>
Anti-infection

>  <Form>
free base

>  <CAS>
384857-54-9

>  <URL>
http://www.selleckchem.com/products/way-297407.html

$$$$
