WAY-329669
 OpenBabel08302521453D

 34 36  0  0  0  0  0  0  0  0999 V2000
   -1.1279   -0.0293   -0.2012 O   0  0  0  0  0  0  0  0  0  0  0  0
   -0.2874   -1.1123   -0.1432 C   0  0  0  0  0  0  0  0  0  0  0  0
    0.9779   -0.7601   -0.0439 N   0  0  0  0  0  0  0  0  0  0  0  0
    1.0090    0.6170   -0.0288 N   0  0  0  0  0  0  0  0  0  0  0  0
   -2.5284   -6.1927   -2.2785 C   0  0  0  0  0  0  0  0  0  0  0  0
   -0.2424    1.0154   -0.1183 C   0  0  0  0  0  0  0  0  0  0  0  0
   -2.1028   -4.9196   -2.0208 N   0  0  0  0  0  0  0  0  0  0  0  0
   -3.7378   -6.6863   -2.2337 N   0  0  0  0  0  0  0  0  0  0  0  0
   -1.2831   -7.2776   -2.7202 S   0  0  0  0  0  0  0  0  0  0  0  0
   -2.9207   -3.9834   -1.4240 C   0  0  0  0  0  0  0  0  0  0  0  0
   -0.8149   -2.7651   -0.1688 S   0  0  0  0  0  0  0  0  0  0  0  0
   -3.6969   -8.0312   -2.5369 C   0  0  0  0  0  0  0  0  0  0  0  0
   -2.4440   -8.5406   -2.8061 C   0  0  0  0  0  0  0  0  0  0  0  0
   -4.0868   -4.1472   -1.0702 O   0  0  0  0  0  0  0  0  0  0  0  0
   -0.7885    2.3960   -0.0777 C   0  0  0  0  0  0  0  0  0  0  0  0
   -2.2621   -2.6256   -1.2468 C   0  0  0  0  0  0  0  0  0  0  0  0
   -0.9459    3.0401   -1.4370 C   0  0  0  0  0  0  0  0  0  0  0  0
   -2.2020    3.4943   -1.8661 C   0  0  0  0  0  0  0  0  0  0  0  0
    0.1666    3.2486   -2.2684 C   0  0  0  0  0  0  0  0  0  0  0  0
   -2.3431    4.1345   -3.0984 C   0  0  0  0  0  0  0  0  0  0  0  0
    0.0222    3.8866   -3.5012 C   0  0  0  0  0  0  0  0  0  0  0  0
   -1.2325    4.3297   -3.9166 C   0  0  0  0  0  0  0  0  0  0  0  0
   -1.1158   -4.7374   -2.1382 H   0  0  0  0  0  0  0  0  0  0  0  0
   -4.6195   -8.5992   -2.5396 H   0  0  0  0  0  0  0  0  0  0  0  0
   -2.1680   -9.5570   -3.0478 H   0  0  0  0  0  0  0  0  0  0  0  0
   -1.7518    2.3831    0.4475 H   0  0  0  0  0  0  0  0  0  0  0  0
   -0.1264    3.0297    0.5260 H   0  0  0  0  0  0  0  0  0  0  0  0
   -2.9928   -1.9429   -0.8011 H   0  0  0  0  0  0  0  0  0  0  0  0
   -1.9765   -2.2390   -2.2306 H   0  0  0  0  0  0  0  0  0  0  0  0
   -3.0827    3.3627   -1.2392 H   0  0  0  0  0  0  0  0  0  0  0  0
    1.1585    2.9225   -1.9579 H   0  0  0  0  0  0  0  0  0  0  0  0
   -3.3201    4.4896   -3.4179 H   0  0  0  0  0  0  0  0  0  0  0  0
    0.8905    4.0440   -4.1362 H   0  0  0  0  0  0  0  0  0  0  0  0
   -1.3424    4.8329   -4.8736 H   0  0  0  0  0  0  0  0  0  0  0  0
  2  1  1  0  0  0  0
  3  2  2  0  0  0  0
  3  4  1  0  0  0  0
  4  6  2  0  0  0  0
  5  7  1  0  0  0  0
  6  1  1  0  0  0  0
  7 10  1  0  0  0  0
  7 23  1  0  0  0  0
  8  5  2  0  0  0  0
  9  5  1  0  0  0  0
 10 16  1  0  0  0  0
 11  2  1  0  0  0  0
 12  8  1  0  0  0  0
 12 24  1  0  0  0  0
 13  9  1  0  0  0  0
 13 12  2  0  0  0  0
 13 25  1  0  0  0  0
 14 10  2  0  0  0  0
 15  6  1  0  0  0  0
 15 26  1  0  0  0  0
 15 27  1  0  0  0  0
 16 11  1  0  0  0  0
 16 28  1  0  0  0  0
 16 29  1  0  0  0  0
 17 15  1  0  0  0  0
 18 17  2  0  0  0  0
 18 30  1  0  0  0  0
 19 17  1  0  0  0  0
 19 31  1  0  0  0  0
 20 18  1  0  0  0  0
 20 32  1  0  0  0  0
 21 19  2  0  0  0  0
 21 33  1  0  0  0  0
 22 21  1  0  0  0  0
 22 20  2  0  0  0  0
 22 34  1  0  0  0  0
M  END
>  <Mol_ID>
9319

>  <Formula>
C14H12N4O2S2

>  <MolWeight>
332.40068

>  <Cat>
P2593

>  <Name>
WAY-329669

>  <Synonyms>
N/A

>  <Target>
olfactory receptor

>  <Form>
free base

>  <CAS>
957486-28-1

>  <URL>
N/A

$$$$
