WAY-294627
 OpenBabel08302521423D

 37 39  0  0  0  0  0  0  0  0999 V2000
   -0.7232    1.1971    0.0096 C   0  0  0  0  0  0  0  0  0  0  0  0
   -1.3699    2.5241    0.0178 C   0  0  0  0  0  0  0  0  0  0  0  0
   -1.4236    0.0228    0.0008 C   0  0  0  0  0  0  0  0  0  0  0  0
    0.7732    1.1494    0.0405 C   0  0  0  0  0  0  0  0  0  0  0  0
   -1.7339    3.1331    1.2276 C   0  0  0  0  0  0  0  0  0  0  0  0
   -1.6701    3.1664   -1.1844 C   0  0  0  0  0  0  0  0  0  0  0  0
   -0.7374   -1.2378   -0.0112 N   0  0  0  0  0  0  0  0  0  0  0  0
   -2.9414    0.1033    0.0566 C   0  0  0  0  0  0  0  0  0  0  0  0
    1.3741   -0.0699   -0.0241 N   0  0  0  0  0  0  0  0  0  0  0  0
    1.4175    2.1887    0.1079 O   0  0  0  0  0  0  0  0  0  0  0  0
   -2.4074    4.3589    1.2260 C   0  0  0  0  0  0  0  0  0  0  0  0
   -2.3365    4.3884   -1.1902 C   0  0  0  0  0  0  0  0  0  0  0  0
   -1.4307   -2.5072    0.0335 C   0  0  0  0  0  0  0  0  0  0  0  0
    0.6798   -1.1656   -0.0632 C   0  0  0  0  0  0  0  0  0  0  0  0
   -2.7091    4.9828    0.0165 C   0  0  0  0  0  0  0  0  0  0  0  0
   -2.6365   -2.7428   -0.6550 C   0  0  0  0  0  0  0  0  0  0  0  0
   -0.9333   -3.6054    0.7630 C   0  0  0  0  0  0  0  0  0  0  0  0
    1.6056   -2.3732   -0.1872 C   0  0  0  0  0  0  0  0  0  0  0  0
   -3.3306   -3.9571   -0.5758 C   0  0  0  0  0  0  0  0  0  0  0  0
   -1.5491   -4.8666    0.7320 C   0  0  0  0  0  0  0  0  0  0  0  0
   -2.7671   -5.0339    0.0878 C   0  0  0  0  0  0  0  0  0  0  0  0
   -1.5064    2.6575    2.1796 H   0  0  0  0  0  0  0  0  0  0  0  0
   -1.3857    2.7133   -2.1355 H   0  0  0  0  0  0  0  0  0  0  0  0
   -3.3684   -0.1248   -0.9239 H   0  0  0  0  0  0  0  0  0  0  0  0
   -3.3463   -0.5540    0.8280 H   0  0  0  0  0  0  0  0  0  0  0  0
   -3.3406    1.0933    0.2865 H   0  0  0  0  0  0  0  0  0  0  0  0
   -2.6949    4.8231    2.1660 H   0  0  0  0  0  0  0  0  0  0  0  0
   -2.5660    4.8836   -2.1295 H   0  0  0  0  0  0  0  0  0  0  0  0
   -3.2311    5.9378    0.0150 H   0  0  0  0  0  0  0  0  0  0  0  0
   -3.0727   -1.9982   -1.3066 H   0  0  0  0  0  0  0  0  0  0  0  0
   -0.0317   -3.5191    1.3637 H   0  0  0  0  0  0  0  0  0  0  0  0
    2.3843   -2.1521   -0.9254 H   0  0  0  0  0  0  0  0  0  0  0  0
    2.1016   -2.5334    0.7771 H   0  0  0  0  0  0  0  0  0  0  0  0
    1.1240   -3.2883   -0.5206 H   0  0  0  0  0  0  0  0  0  0  0  0
   -4.2979   -4.0593   -1.0625 H   0  0  0  0  0  0  0  0  0  0  0  0
   -1.0752   -5.7153    1.2194 H   0  0  0  0  0  0  0  0  0  0  0  0
   -3.2698   -5.9970    0.0960 H   0  0  0  0  0  0  0  0  0  0  0  0
  1  2  1  0  0  0  0
  1  3  2  0  0  0  0
  1  4  1  0  0  0  0
  2  5  2  0  0  0  0
  2  6  1  0  0  0  0
  3  7  1  0  0  0  0
  3  8  1  0  0  0  0
  4  9  1  0  0  0  0
  4 10  2  0  0  0  0
  5 11  1  0  0  0  0
  5 22  1  0  0  0  0
  6 12  2  0  0  0  0
  6 23  1  0  0  0  0
  7 13  1  0  0  0  0
  7 14  1  0  0  0  0
  8 24  1  0  0  0  0
  8 25  1  0  0  0  0
  8 26  1  0  0  0  0
  9 14  2  0  0  0  0
 11 15  2  0  0  0  0
 11 27  1  0  0  0  0
 12 15  1  0  0  0  0
 12 28  1  0  0  0  0
 13 16  2  0  0  0  0
 13 17  1  0  0  0  0
 14 18  1  0  0  0  0
 15 29  1  0  0  0  0
 16 19  1  0  0  0  0
 16 30  1  0  0  0  0
 17 20  2  0  0  0  0
 17 31  1  0  0  0  0
 18 32  1  0  0  0  0
 18 33  1  0  0  0  0
 18 34  1  0  0  0  0
 19 21  2  0  0  0  0
 19 35  1  0  0  0  0
 20 21  1  0  0  0  0
 20 36  1  0  0  0  0
 21 37  1  0  0  0  0
M  END
>  <Mol_ID>
8566

>  <Formula>
C18H16N2O

>  <MolWeight>
276.33244

>  <Cat>
P2085

>  <Name>
WAY-294627

>  <Synonyms>
N/A

>  <Target>
Immunology & Inflammation related

>  <Form>
free base

>  <CAS>
853697-33-3

>  <URL>
N/A

$$$$
