WAY-640833
 OpenBabel08302521443D

 45 47  0  0  0  0  0  0  0  0999 V2000
    1.9220    0.8175    0.4569 C   0  0  0  0  0  0  0  0  0  0  0  0
    0.8685   -1.1951    0.6294 N   0  0  0  0  0  0  0  0  0  0  0  0
    1.8413   -1.0959    1.6084 O   0  0  0  0  0  0  0  0  0  0  0  0
    2.4693    0.1038    1.5012 C   0  0  0  0  0  0  0  0  0  0  0  0
    2.5406    8.6066    0.2051 C   0  0  0  0  0  0  0  0  0  0  0  0
    0.9202   -0.0463   -0.0536 C   0  0  0  0  0  0  0  0  0  0  0  0
    2.3031    2.1666   -0.0203 C   0  0  0  0  0  0  0  0  0  0  0  0
    2.0933    9.4156    1.2333 N   0  0  0  0  0  0  0  0  0  0  0  0
    2.1763    7.1639    0.2711 C   0  0  0  0  0  0  0  0  0  0  0  0
    3.2405    8.9600   -0.7423 O   0  0  0  0  0  0  0  0  0  0  0  0
    1.2385    3.1004    0.1902 O   0  0  0  0  0  0  0  0  0  0  0  0
    1.0102    6.6746    0.8684 C   0  0  0  0  0  0  0  0  0  0  0  0
    3.0528    6.2692   -0.3596 C   0  0  0  0  0  0  0  0  0  0  0  0
    2.5556   10.7239    1.5152 C   0  0  0  0  0  0  0  0  0  0  0  0
    1.6082    4.4169    0.1835 C   0  0  0  0  0  0  0  0  0  0  0  0
    2.7662    4.9078   -0.4238 C   0  0  0  0  0  0  0  0  0  0  0  0
    0.7335    5.3006    0.8192 C   0  0  0  0  0  0  0  0  0  0  0  0
    3.7015   13.1279    2.4356 C   0  0  0  0  0  0  0  0  0  0  0  0
    3.5270   11.3843    0.7600 C   0  0  0  0  0  0  0  0  0  0  0  0
    2.0737   11.3428    2.6732 C   0  0  0  0  0  0  0  0  0  0  0  0
    2.6411   12.5374    3.1291 C   0  0  0  0  0  0  0  0  0  0  0  0
    4.1018   12.5727    1.2188 C   0  0  0  0  0  0  0  0  0  0  0  0
    3.5535    0.3750    2.4646 C   0  0  0  0  0  0  0  0  0  0  0  0
    0.0069    0.1929   -1.1976 C   0  0  0  0  0  0  0  0  0  0  0  0
    4.4135   14.3163    3.0068 C   0  0  0  0  0  0  0  0  0  0  0  0
    3.2013    2.4855    0.5244 H   0  0  0  0  0  0  0  0  0  0  0  0
    2.5401    2.1161   -1.0906 H   0  0  0  0  0  0  0  0  0  0  0  0
    1.5164    8.9993    1.9504 H   0  0  0  0  0  0  0  0  0  0  0  0
    0.2925    7.3314    1.3488 H   0  0  0  0  0  0  0  0  0  0  0  0
    3.9676    6.6361   -0.8227 H   0  0  0  0  0  0  0  0  0  0  0  0
    3.4534    4.2694   -0.9643 H   0  0  0  0  0  0  0  0  0  0  0  0
   -0.1789    4.9162    1.2715 H   0  0  0  0  0  0  0  0  0  0  0  0
    3.9039   10.9808   -0.1739 H   0  0  0  0  0  0  0  0  0  0  0  0
    1.2787   10.8897    3.2584 H   0  0  0  0  0  0  0  0  0  0  0  0
    2.2791   12.9815    4.0535 H   0  0  0  0  0  0  0  0  0  0  0  0
    4.8957   13.0308    0.6329 H   0  0  0  0  0  0  0  0  0  0  0  0
    4.5068    0.4927    1.9386 H   0  0  0  0  0  0  0  0  0  0  0  0
    3.3532    1.2983    3.0170 H   0  0  0  0  0  0  0  0  0  0  0  0
    3.6627   -0.4384    3.1874 H   0  0  0  0  0  0  0  0  0  0  0  0
   -0.5544    1.1213   -1.0539 H   0  0  0  0  0  0  0  0  0  0  0  0
    0.5806    0.2788   -2.1259 H   0  0  0  0  0  0  0  0  0  0  0  0
   -0.7131   -0.6221   -1.3172 H   0  0  0  0  0  0  0  0  0  0  0  0
    3.7669   15.1970    2.9974 H   0  0  0  0  0  0  0  0  0  0  0  0
    4.7207   14.1010    4.0365 H   0  0  0  0  0  0  0  0  0  0  0  0
    5.3240   14.5446    2.4419 H   0  0  0  0  0  0  0  0  0  0  0  0
  2  6  2  0  0  0  0
  3  4  1  0  0  0  0
  3  2  1  0  0  0  0
  4  1  2  0  0  0  0
  5  9  1  0  0  0  0
  6  1  1  0  0  0  0
  7  1  1  0  0  0  0
  7 26  1  0  0  0  0
  7 27  1  0  0  0  0
  8  5  1  0  0  0  0
  8 28  1  0  0  0  0
  9 12  2  0  0  0  0
  9 13  1  0  0  0  0
 10  5  2  0  0  0  0
 11  7  1  0  0  0  0
 12 17  1  0  0  0  0
 12 29  1  0  0  0  0
 13 16  2  0  0  0  0
 13 30  1  0  0  0  0
 14  8  1  0  0  0  0
 15 11  1  0  0  0  0
 16 15  1  0  0  0  0
 16 31  1  0  0  0  0
 17 15  2  0  0  0  0
 17 32  1  0  0  0  0
 18 21  2  0  0  0  0
 18 22  1  0  0  0  0
 19 14  1  0  0  0  0
 19 33  1  0  0  0  0
 20 14  2  0  0  0  0
 20 34  1  0  0  0  0
 21 20  1  0  0  0  0
 21 35  1  0  0  0  0
 22 19  2  0  0  0  0
 22 36  1  0  0  0  0
 23  4  1  0  0  0  0
 23 37  1  0  0  0  0
 23 38  1  0  0  0  0
 23 39  1  0  0  0  0
 24  6  1  0  0  0  0
 24 40  1  0  0  0  0
 24 41  1  0  0  0  0
 24 42  1  0  0  0  0
 25 18  1  0  0  0  0
 25 43  1  0  0  0  0
 25 44  1  0  0  0  0
 25 45  1  0  0  0  0
M  END
>  <Mol_ID>
9107

>  <Formula>
C20H20N2O3

>  <MolWeight>
336.3844

>  <Cat>
P3115

>  <Name>
WAY-640833

>  <Synonyms>
N/A

>  <Target>
Others

>  <Form>
free base

>  <CAS>
851187-80-9

>  <URL>
N/A

$$$$
