WAY-659694
 OpenBabel08302521453D

 36 38  0  0  0  0  0  0  0  0999 V2000
    1.0237    0.0966   -0.2224 C   0  0  0  0  0  0  0  0  0  0  0  0
    0.4801    1.2705    0.5140 C   0  0  0  0  0  0  0  0  0  0  0  0
   -0.9136    1.3216    0.6993 C   0  0  0  0  0  0  0  0  0  0  0  0
   -1.5231    2.4445    1.2596 C   0  0  0  0  0  0  0  0  0  0  0  0
   -0.7322    3.5333    1.6349 C   0  0  0  0  0  0  0  0  0  0  0  0
    0.6635    3.4904    1.4737 C   0  0  0  0  0  0  0  0  0  0  0  0
    1.2697    2.3570    0.9098 C   0  0  0  0  0  0  0  0  0  0  0  0
    0.2588   -0.4811   -0.9822 O   0  0  0  0  0  0  0  0  0  0  0  0
    2.3349   -0.2791    0.0290 N   0  0  0  0  0  0  0  0  0  0  0  0
   -1.3728    4.7422    2.1686 N   0  3  0  0  0  0  0  0  0  0  0  0
   -2.6099    4.7466    2.2636 O   0  0  0  0  0  0  0  0  0  0  0  0
   -0.6402    5.6880    2.4847 O   0  5  0  0  0  0  0  0  0  0  0  0
    4.1737   -3.1560   -4.8691 C   0  0  0  0  0  0  0  0  0  0  0  0
    5.4947   -3.2873   -4.1652 C   0  0  0  0  0  0  0  0  0  0  0  0
    5.2945   -4.0343   -3.0583 C   0  0  0  0  0  0  0  0  0  0  0  0
    4.5245   -3.2119   -2.1070 C   0  0  0  0  0  0  0  0  0  0  0  0
    3.3869   -2.6120   -2.6617 C   0  0  0  0  0  0  0  0  0  0  0  0
    3.1010   -2.8206   -4.0332 O   0  0  0  0  0  0  0  0  0  0  0  0
    2.6156   -1.6952   -1.9651 C   0  0  0  0  0  0  0  0  0  0  0  0
    3.0252   -1.2864   -0.6946 C   0  0  0  0  0  0  0  0  0  0  0  0
    4.2007   -1.8361   -0.1476 C   0  0  0  0  0  0  0  0  0  0  0  0
    4.9372   -2.8189   -0.8390 C   0  0  0  0  0  0  0  0  0  0  0  0
    4.0694   -3.2903   -6.0821 O   0  0  0  0  0  0  0  0  0  0  0  0
    4.9063   -5.4890   -3.1897 C   0  0  0  0  0  0  0  0  0  0  0  0
   -1.5366    0.4877    0.3740 H   0  0  0  0  0  0  0  0  0  0  0  0
   -2.6063    2.4601    1.3685 H   0  0  0  0  0  0  0  0  0  0  0  0
    1.2846    4.3408    1.7531 H   0  0  0  0  0  0  0  0  0  0  0  0
    2.3422    2.3673    0.7373 H   0  0  0  0  0  0  0  0  0  0  0  0
    2.7933    0.0967    0.8479 H   0  0  0  0  0  0  0  0  0  0  0  0
    5.8704   -2.2651   -4.0654 H   0  0  0  0  0  0  0  0  0  0  0  0
    1.7633   -1.2551   -2.4723 H   0  0  0  0  0  0  0  0  0  0  0  0
    4.5649   -1.5033    0.8215 H   0  0  0  0  0  0  0  0  0  0  0  0
    5.8522   -3.2159   -0.4065 H   0  0  0  0  0  0  0  0  0  0  0  0
    3.8747   -5.6819   -2.8760 H   0  0  0  0  0  0  0  0  0  0  0  0
    4.9938   -5.8254   -4.2318 H   0  0  0  0  0  0  0  0  0  0  0  0
    5.5782   -6.1181   -2.5984 H   0  0  0  0  0  0  0  0  0  0  0  0
  1  2  1  0  0  0  0
  1  8  2  0  0  0  0
  1  9  1  0  0  0  0
  2  3  2  0  0  0  0
  2  7  1  0  0  0  0
  3  4  1  0  0  0  0
  3 25  1  0  0  0  0
  4  5  2  0  0  0  0
  4 26  1  0  0  0  0
  5  6  1  0  0  0  0
  5 10  1  0  0  0  0
  6  7  2  0  0  0  0
  6 27  1  0  0  0  0
  7 28  1  0  0  0  0
  9 20  1  0  0  0  0
  9 29  1  0  0  0  0
 10 11  2  0  0  0  0
 10 12  1  0  0  0  0
 13 14  1  0  0  0  0
 13 18  1  0  0  0  0
 13 23  2  0  0  0  0
 14 15  2  0  0  0  0
 14 30  1  0  0  0  0
 15 16  1  0  0  0  0
 15 24  1  0  0  0  0
 16 17  2  0  0  0  0
 17 18  1  0  0  0  0
 19 20  2  0  0  0  0
 19 17  1  0  0  0  0
 19 31  1  0  0  0  0
 20 21  1  0  0  0  0
 21 22  2  0  0  0  0
 21 32  1  0  0  0  0
 22 16  1  0  0  0  0
 22 33  1  0  0  0  0
 24 34  1  0  0  0  0
 24 35  1  0  0  0  0
 24 36  1  0  0  0  0
M  CHG  2  10   1  12  -1
M  END
>  <Mol_ID>
9438

>  <Formula>
C17H12N2O5

>  <MolWeight>
324.28758

>  <Cat>
E0537

>  <Name>
WAY-659694

>  <Target>
Others

>  <Form>
free base

>  <CAS>
867301-81-3

>  <URL>
http://www.selleckchem.com/products/way-659694.html

$$$$
