WAY-621733
 OpenBabel08302521443D

 41 43  0  0  0  0  0  0  0  0999 V2000
   -5.1061   -5.2859    0.4756 C   0  0  0  0  0  0  0  0  0  0  0  0
   -3.7688    3.9970    3.2064 S   0  0  0  0  0  0  0  0  0  0  0  0
   -4.0889   -5.6856    1.2686 N   0  0  0  0  0  0  0  0  0  0  0  0
   -5.9734   -6.3926    0.1773 C   0  0  0  0  0  0  0  0  0  0  0  0
   -4.3379   -6.9821    1.5076 N   0  0  0  0  0  0  0  0  0  0  0  0
   -4.7494    2.8938    2.2017 C   0  0  0  0  0  0  0  0  0  0  0  0
   -5.2546   -3.8869    0.0185 C   0  0  0  0  0  0  0  0  0  0  0  0
   -4.0783    1.5124    2.3059 C   0  0  3  0  0  0  0  0  0  0  0  0
   -4.1722    0.6410    1.1089 N   0  0  0  0  0  0  0  0  0  0  0  0
   -4.1887   -0.7492    1.3104 C   0  0  0  0  0  0  0  0  0  0  0  0
   -5.4552   -7.4690    0.8911 C   0  0  0  0  0  0  0  0  0  0  0  0
   -3.0327    4.8758    2.3188 O   0  0  0  0  0  0  0  0  0  0  0  0
   -4.5739    4.5033    4.2961 O   0  0  0  0  0  0  0  0  0  0  0  0
   -4.2562   -3.0589    0.4545 O   0  0  0  0  0  0  0  0  0  0  0  0
   -2.6125    1.7189    2.7359 C   0  0  0  0  0  0  0  0  0  0  0  0
   -2.6434    2.7727    3.8298 C   0  0  0  0  0  0  0  0  0  0  0  0
   -4.3208   -1.6721    0.0819 C   0  0  0  0  0  0  0  0  0  0  0  0
   -6.1813   -3.5100   -0.6933 O   0  0  0  0  0  0  0  0  0  0  0  0
   -4.1194   -1.2160    2.4510 O   0  0  0  0  0  0  0  0  0  0  0  0
   -7.1348   -6.6048   -0.5952 C   0  0  0  0  0  0  0  0  0  0  0  0
   -4.1429    1.2553   -0.2154 C   0  0  0  0  0  0  0  0  0  0  0  0
   -6.0409   -8.7410    0.9066 C   0  0  0  0  0  0  0  0  0  0  0  0
   -7.7304   -7.8753   -0.6075 C   0  0  0  0  0  0  0  0  0  0  0  0
   -7.1950   -8.9232    0.1400 C   0  0  0  0  0  0  0  0  0  0  0  0
   -3.6988   -7.4902    2.1083 H   0  0  0  0  0  0  0  0  0  0  0  0
   -5.7632    2.8643    2.6117 H   0  0  0  0  0  0  0  0  0  0  0  0
   -4.7877    3.3170    1.1971 H   0  0  0  0  0  0  0  0  0  0  0  0
   -4.5791    0.9891    3.1323 H   0  0  0  0  0  0  0  0  0  0  0  0
   -2.1565    0.7915    3.0969 H   0  0  0  0  0  0  0  0  0  0  0  0
   -2.0120    2.0735    1.8893 H   0  0  0  0  0  0  0  0  0  0  0  0
   -1.6686    3.2252    4.0222 H   0  0  0  0  0  0  0  0  0  0  0  0
   -3.0622    2.3751    4.7594 H   0  0  0  0  0  0  0  0  0  0  0  0
   -3.4692   -1.4968   -0.5819 H   0  0  0  0  0  0  0  0  0  0  0  0
   -5.2486   -1.4162   -0.4399 H   0  0  0  0  0  0  0  0  0  0  0  0
   -7.5690   -5.7970   -1.1785 H   0  0  0  0  0  0  0  0  0  0  0  0
   -3.7304    0.5839   -0.9684 H   0  0  0  0  0  0  0  0  0  0  0  0
   -5.1676    1.5181   -0.4938 H   0  0  0  0  0  0  0  0  0  0  0  0
   -3.5196    2.1544   -0.1978 H   0  0  0  0  0  0  0  0  0  0  0  0
   -5.6261   -9.5569    1.4904 H   0  0  0  0  0  0  0  0  0  0  0  0
   -8.6250   -8.0435   -1.2041 H   0  0  0  0  0  0  0  0  0  0  0  0
   -7.6819   -9.8970    0.1264 H   0  0  0  0  0  0  0  0  0  0  0  0
  2  6  1  0  0  0  0
  3  1  2  0  0  0  0
  4  1  1  0  0  0  0
  5  3  1  0  0  0  0
  5 11  1  0  0  0  0
  5 25  1  0  0  0  0
  6  8  1  0  0  0  0
  6 26  1  0  0  0  0
  6 27  1  0  0  0  0
  7  1  1  0  0  0  0
  8  9  1  0  0  0  0
  8 28  1  0  0  0  0
  9 10  1  0  0  0  0
 10 17  1  0  0  0  0
 11  4  2  0  0  0  0
 12  2  2  0  0  0  0
 13  2  2  0  0  0  0
 14  7  1  0  0  0  0
 15  8  1  0  0  0  0
 15 29  1  0  0  0  0
 15 30  1  0  0  0  0
 16 15  1  0  0  0  0
 16  2  1  0  0  0  0
 16 31  1  0  0  0  0
 16 32  1  0  0  0  0
 17 14  1  0  0  0  0
 17 33  1  0  0  0  0
 17 34  1  0  0  0  0
 18  7  2  0  0  0  0
 19 10  2  0  0  0  0
 20  4  1  0  0  0  0
 20 35  1  0  0  0  0
 21  9  1  0  0  0  0
 21 36  1  0  0  0  0
 21 37  1  0  0  0  0
 21 38  1  0  0  0  0
 22 11  1  0  0  0  0
 22 24  2  0  0  0  0
 22 39  1  0  0  0  0
 23 20  2  0  0  0  0
 23 40  1  0  0  0  0
 24 23  1  0  0  0  0
 24 41  1  0  0  0  0
M  END
>  <Mol_ID>
9053

>  <Formula>
C15H17N3O5S

>  <MolWeight>
351.37758

>  <Cat>
P2974

>  <Name>
WAY-621733

>  <Synonyms>
N/A

>  <Target>
DNA Topoisomerase Iia

>  <Form>
free base

>  <CAS>
745070-17-1

>  <URL>
N/A

$$$$
