WAY-326572
 OpenBabel08302521433D

 27 29  0  0  0  0  0  0  0  0999 V2000
   -1.6937   -0.5956   -0.0005 C   0  0  0  0  0  0  0  0  0  0  0  0
   -0.8726    0.5072   -0.0010 C   0  0  0  0  0  0  0  0  0  0  0  0
   -1.1326   -1.9425   -0.0010 C   0  0  0  0  0  0  0  0  0  0  0  0
    0.2788   -2.0420   -0.0027 N   0  0  0  0  0  0  0  0  0  0  0  0
   -1.7491    1.9636   -0.0001 S   0  0  0  0  0  0  0  0  0  0  0  0
   -3.0793   -0.2196    0.0008 C   0  0  0  0  0  0  0  0  0  0  0  0
   -3.2556    1.1531    0.0012 C   0  0  0  0  0  0  0  0  0  0  0  0
    0.5837    0.4128   -0.0015 C   0  0  0  0  0  0  0  0  0  0  0  0
    1.1464   -0.8878   -0.0021 C   0  0  0  0  0  0  0  0  0  0  0  0
   -4.4631    1.9433    0.0026 C   0  0  0  0  0  0  0  0  0  0  0  0
   -1.8694   -2.9273   -0.0001 O   0  0  0  0  0  0  0  0  0  0  0  0
   -4.5807    3.1623    0.0020 O   0  0  0  0  0  0  0  0  0  0  0  0
    0.7924   -3.4001   -0.0038 C   0  0  0  0  0  0  0  0  0  0  0  0
   -5.5714    1.1705    0.0052 O   0  0  0  0  0  0  0  0  0  0  0  0
    1.4149    1.5462   -0.0007 C   0  0  0  0  0  0  0  0  0  0  0  0
    2.5468   -0.9949   -0.0006 C   0  0  0  0  0  0  0  0  0  0  0  0
    2.7990    1.4108    0.0006 C   0  0  0  0  0  0  0  0  0  0  0  0
    3.3631    0.1429    0.0006 C   0  0  0  0  0  0  0  0  0  0  0  0
   -3.8989   -0.9302    0.0015 H   0  0  0  0  0  0  0  0  0  0  0  0
    0.4154   -3.9199    0.8839 H   0  0  0  0  0  0  0  0  0  0  0  0
    0.4137   -3.9196   -0.8905 H   0  0  0  0  0  0  0  0  0  0  0  0
    1.8775   -3.4827   -0.0045 H   0  0  0  0  0  0  0  0  0  0  0  0
   -6.2914    1.8345    0.0063 H   0  0  0  0  0  0  0  0  0  0  0  0
    0.9991    2.5506   -0.0005 H   0  0  0  0  0  0  0  0  0  0  0  0
    3.0617   -1.9473   -0.0011 H   0  0  0  0  0  0  0  0  0  0  0  0
    3.4320    2.2944    0.0021 H   0  0  0  0  0  0  0  0  0  0  0  0
    4.4451    0.0329    0.0022 H   0  0  0  0  0  0  0  0  0  0  0  0
  2  1  2  0  0  0  0
  3  1  1  0  0  0  0
  4  3  1  0  0  0  0
  5  2  1  0  0  0  0
  6  1  1  0  0  0  0
  6 19  1  0  0  0  0
  7  6  2  0  0  0  0
  7  5  1  0  0  0  0
  8  2  1  0  0  0  0
  8  9  2  0  0  0  0
  9  4  1  0  0  0  0
 10  7  1  0  0  0  0
 11  3  2  0  0  0  0
 12 10  2  0  0  0  0
 13  4  1  0  0  0  0
 13 20  1  0  0  0  0
 13 21  1  0  0  0  0
 13 22  1  0  0  0  0
 14 10  1  0  0  0  0
 14 23  1  0  0  0  0
 15  8  1  0  0  0  0
 15 24  1  0  0  0  0
 16  9  1  0  0  0  0
 16 25  1  0  0  0  0
 17 15  2  0  0  0  0
 17 18  1  0  0  0  0
 17 26  1  0  0  0  0
 18 16  2  0  0  0  0
 18 27  1  0  0  0  0
M  END
>  <Mol_ID>
8929

>  <Formula>
C13H9NO3S

>  <MolWeight>
259.28046

>  <Cat>
P2488

>  <Name>
WAY-326572

>  <Synonyms>
N/A

>  <Target>
DNA Gyrase

>  <Form>
free base

>  <CAS>
870984-20-6

>  <URL>
N/A

$$$$
