WAY-325405
 OpenBabel08302521433D

 45 47  0  0  0  0  0  0  0  0999 V2000
   -0.1937    0.9323   -1.0962 C   0  0  0  0  0  0  0  0  0  0  0  0
   -0.7683    2.2741   -0.9570 C   0  0  0  0  0  0  0  0  0  0  0  0
   -1.0024   -0.1614   -0.8476 O   0  0  0  0  0  0  0  0  0  0  0  0
   -0.1717    3.2723   -1.7424 N   0  0  0  0  0  0  0  0  0  0  0  0
    1.0865    0.4751   -1.3564 C   0  0  0  0  0  0  0  0  0  0  0  0
   -0.2360   -1.3017   -0.9098 C   0  0  0  0  0  0  0  0  0  0  0  0
   -0.6451    4.6118   -1.8067 C   0  0  0  0  0  0  0  0  0  0  0  0
    1.0608   -0.9444   -1.2259 C   0  0  0  0  0  0  0  0  0  0  0  0
   -1.7400    2.4974   -0.2434 O   0  0  0  0  0  0  0  0  0  0  0  0
   -0.7614   -3.6239   -1.4592 O   0  0  0  0  0  0  0  0  0  0  0  0
   -1.9350   -4.2512   -1.8281 C   0  0  0  0  0  0  0  0  0  0  0  0
   -0.7443    5.2709   -3.0515 C   0  0  0  0  0  0  0  0  0  0  0  0
   -1.9975   -5.6424   -2.0605 C   0  0  0  0  0  0  0  0  0  0  0  0
   -0.8794   -2.5881   -0.4561 C   0  0  0  0  0  0  0  0  0  0  0  0
   -0.5271    4.6503   -4.2553 O   0  0  0  0  0  0  0  0  0  0  0  0
   -1.0345   -6.5979   -1.8775 O   0  0  0  0  0  0  0  0  0  0  0  0
   -0.9284    5.3403   -0.6462 C   0  0  0  0  0  0  0  0  0  0  0  0
   -3.0693   -3.4806   -2.1310 C   0  0  0  0  0  0  0  0  0  0  0  0
   -1.0740    6.6353   -3.1070 C   0  0  0  0  0  0  0  0  0  0  0  0
   -3.1756   -6.2100   -2.5814 C   0  0  0  0  0  0  0  0  0  0  0  0
    0.0320   -6.3147   -0.9928 C   0  0  0  0  0  0  0  0  0  0  0  0
   -1.4045    3.5427   -4.4812 C   0  0  0  0  0  0  0  0  0  0  0  0
   -1.2551    6.7025   -0.7077 C   0  0  0  0  0  0  0  0  0  0  0  0
   -4.2412   -4.0646   -2.6267 C   0  0  0  0  0  0  0  0  0  0  0  0
   -1.3275    7.3573   -1.9368 C   0  0  0  0  0  0  0  0  0  0  0  0
   -4.2959   -5.4324   -2.8598 C   0  0  0  0  0  0  0  0  0  0  0  0
    0.3820    2.9669   -2.5327 H   0  0  0  0  0  0  0  0  0  0  0  0
    1.9594    1.0922   -1.5248 H   0  0  0  0  0  0  0  0  0  0  0  0
    1.9061   -1.6176   -1.2773 H   0  0  0  0  0  0  0  0  0  0  0  0
   -0.3183   -2.9423    0.4175 H   0  0  0  0  0  0  0  0  0  0  0  0
   -1.9055   -2.4188   -0.1110 H   0  0  0  0  0  0  0  0  0  0  0  0
   -0.8433    4.8724    0.3344 H   0  0  0  0  0  0  0  0  0  0  0  0
   -3.0507   -2.3997   -2.0215 H   0  0  0  0  0  0  0  0  0  0  0  0
   -1.1468    7.1366   -4.0681 H   0  0  0  0  0  0  0  0  0  0  0  0
   -3.2153   -7.2830   -2.7773 H   0  0  0  0  0  0  0  0  0  0  0  0
    0.7807   -5.6953   -1.4911 H   0  0  0  0  0  0  0  0  0  0  0  0
   -0.3158   -5.8679   -0.0568 H   0  0  0  0  0  0  0  0  0  0  0  0
    0.5073   -7.2698   -0.7411 H   0  0  0  0  0  0  0  0  0  0  0  0
   -0.9760    2.6273   -4.0659 H   0  0  0  0  0  0  0  0  0  0  0  0
   -2.4131    3.7070   -4.0847 H   0  0  0  0  0  0  0  0  0  0  0  0
   -1.4811    3.3873   -5.5613 H   0  0  0  0  0  0  0  0  0  0  0  0
   -1.4366    7.2597    0.2087 H   0  0  0  0  0  0  0  0  0  0  0  0
   -5.1033   -3.4430   -2.8542 H   0  0  0  0  0  0  0  0  0  0  0  0
   -1.5783    8.4143   -1.9860 H   0  0  0  0  0  0  0  0  0  0  0  0
   -5.1941   -5.8898   -3.2672 H   0  0  0  0  0  0  0  0  0  0  0  0
  2  1  1  0  0  0  0
  3  1  1  0  0  0  0
  4  2  1  0  0  0  0
  4 27  1  0  0  0  0
  5  1  2  0  0  0  0
  5 28  1  0  0  0  0
  6  3  1  0  0  0  0
  6  8  2  0  0  0  0
  7  4  1  0  0  0  0
  8  5  1  0  0  0  0
  8 29  1  0  0  0  0
  9  2  2  0  0  0  0
 10 14  1  0  0  0  0
 11 10  1  0  0  0  0
 12  7  2  0  0  0  0
 13 11  2  0  0  0  0
 14  6  1  0  0  0  0
 14 30  1  0  0  0  0
 14 31  1  0  0  0  0
 15 12  1  0  0  0  0
 16 13  1  0  0  0  0
 17  7  1  0  0  0  0
 17 32  1  0  0  0  0
 18 11  1  0  0  0  0
 18 33  1  0  0  0  0
 19 12  1  0  0  0  0
 19 25  2  0  0  0  0
 19 34  1  0  0  0  0
 20 13  1  0  0  0  0
 20 35  1  0  0  0  0
 21 16  1  0  0  0  0
 21 36  1  0  0  0  0
 21 37  1  0  0  0  0
 21 38  1  0  0  0  0
 22 15  1  0  0  0  0
 22 39  1  0  0  0  0
 22 40  1  0  0  0  0
 22 41  1  0  0  0  0
 23 17  2  0  0  0  0
 23 42  1  0  0  0  0
 24 18  2  0  0  0  0
 24 43  1  0  0  0  0
 25 23  1  0  0  0  0
 25 44  1  0  0  0  0
 26 24  1  0  0  0  0
 26 20  2  0  0  0  0
 26 45  1  0  0  0  0
M  END
>  <Mol_ID>
8687

>  <Formula>
C20H19NO5

>  <MolWeight>
353.36856

>  <Cat>
P2386

>  <Name>
WAY-325405

>  <Synonyms>
N/A

>  <Target>
Others

>  <Form>
free base

>  <CAS>
438464-47-2

>  <URL>
N/A

$$$$
