WAY-326270-A
 OpenBabel08302521433D

 39 41  0  0  0  0  0  0  0  0999 V2000
   -0.4875    1.0246   -0.2848 N   0  0  0  0  0  0  0  0  0  0  0  0
    0.7786    0.7672   -0.0785 C   0  0  0  0  0  0  0  0  0  0  0  0
    0.8960   -0.4630    0.5692 N   0  0  0  0  0  0  0  0  0  0  0  0
   -1.1160   -0.1121    0.1400 C   0  0  0  0  0  0  0  0  0  0  0  0
   -0.3097   -1.0858    0.5574 N   0  0  0  0  0  0  0  0  0  0  0  0
   -2.4532   -0.1131    0.0778 N   0  0  0  0  0  0  0  0  0  0  0  0
    2.0417   -1.0540    1.1601 C   0  0  0  0  0  0  0  0  0  0  0  0
    1.8199    1.5196   -0.5105 N   0  0  0  0  0  0  0  0  0  0  0  0
   -3.2297   -1.3295    0.0257 C   0  0  0  0  0  0  0  0  0  0  0  0
   -3.1867   -1.0889   -2.5423 C   0  0  0  0  0  0  0  0  0  0  0  0
   -3.5937   -1.7736   -1.3822 C   0  0  0  0  0  0  0  0  0  0  0  0
   -3.5277   -1.5578   -3.8148 C   0  0  0  0  0  0  0  0  0  0  0  0
   -3.1616   -0.9906   -5.0058 O   0  0  0  0  0  0  0  0  0  0  0  0
   -4.7282   -3.3983   -2.8005 C   0  0  0  0  0  0  0  0  0  0  0  0
    3.0896   -0.2541    1.6396 C   0  0  0  0  0  0  0  0  0  0  0  0
    2.1200   -2.4467    1.2803 C   0  0  0  0  0  0  0  0  0  0  0  0
   -4.3743   -2.9330   -1.5336 C   0  0  0  0  0  0  0  0  0  0  0  0
   -4.3020   -2.7118   -3.9350 C   0  0  0  0  0  0  0  0  0  0  0  0
   -2.3551    0.1789   -4.9387 C   0  0  0  0  0  0  0  0  0  0  0  0
    4.2248   -0.8459    2.1939 C   0  0  0  0  0  0  0  0  0  0  0  0
    3.2699   -3.0326    1.8140 C   0  0  0  0  0  0  0  0  0  0  0  0
    4.3215   -2.2341    2.2655 C   0  0  0  0  0  0  0  0  0  0  0  0
   -2.9036    0.7161   -0.2829 H   0  0  0  0  0  0  0  0  0  0  0  0
    2.7002    1.0524   -0.7122 H   0  0  0  0  0  0  0  0  0  0  0  0
    1.5811    2.2000   -1.2304 H   0  0  0  0  0  0  0  0  0  0  0  0
   -2.7233   -2.1565    0.5432 H   0  0  0  0  0  0  0  0  0  0  0  0
   -4.1664   -1.1445    0.5637 H   0  0  0  0  0  0  0  0  0  0  0  0
   -2.5874   -0.1913   -2.4367 H   0  0  0  0  0  0  0  0  0  0  0  0
   -5.3283   -4.2986   -2.9049 H   0  0  0  0  0  0  0  0  0  0  0  0
    3.0241    0.8322    1.6403 H   0  0  0  0  0  0  0  0  0  0  0  0
    1.3114   -3.0855    0.9282 H   0  0  0  0  0  0  0  0  0  0  0  0
   -4.7077   -3.4870   -0.6584 H   0  0  0  0  0  0  0  0  0  0  0  0
   -4.5704   -3.0813   -4.9225 H   0  0  0  0  0  0  0  0  0  0  0  0
   -2.9284    1.0194   -4.5342 H   0  0  0  0  0  0  0  0  0  0  0  0
   -1.4402    0.0083   -4.3616 H   0  0  0  0  0  0  0  0  0  0  0  0
   -2.0537    0.4363   -5.9586 H   0  0  0  0  0  0  0  0  0  0  0  0
    5.0293   -0.2229    2.5782 H   0  0  0  0  0  0  0  0  0  0  0  0
    3.3473   -4.1153    1.8758 H   0  0  0  0  0  0  0  0  0  0  0  0
    5.2128   -2.6939    2.6849 H   0  0  0  0  0  0  0  0  0  0  0  0
  2  1  2  0  0  0  0
  3  2  1  0  0  0  0
  3  5  1  0  0  0  0
  4  1  1  0  0  0  0
  5  4  2  0  0  0  0
  6  4  1  0  0  0  0
  6 23  1  0  0  0  0
  7  3  1  0  0  0  0
  8  2  1  0  0  0  0
  8 24  1  0  0  0  0
  8 25  1  0  0  0  0
  9  6  1  0  0  0  0
  9 26  1  0  0  0  0
  9 27  1  0  0  0  0
 10 11  2  0  0  0  0
 10 28  1  0  0  0  0
 11  9  1  0  0  0  0
 12 10  1  0  0  0  0
 12 18  2  0  0  0  0
 13 12  1  0  0  0  0
 14 17  2  0  0  0  0
 14 29  1  0  0  0  0
 15  7  2  0  0  0  0
 15 30  1  0  0  0  0
 16  7  1  0  0  0  0
 16 31  1  0  0  0  0
 17 11  1  0  0  0  0
 17 32  1  0  0  0  0
 18 14  1  0  0  0  0
 18 33  1  0  0  0  0
 19 13  1  0  0  0  0
 19 34  1  0  0  0  0
 19 35  1  0  0  0  0
 19 36  1  0  0  0  0
 20 15  1  0  0  0  0
 20 22  2  0  0  0  0
 20 37  1  0  0  0  0
 21 16  2  0  0  0  0
 21 38  1  0  0  0  0
 22 21  1  0  0  0  0
 22 39  1  0  0  0  0
M  END
>  <Mol_ID>
8905

>  <Formula>
C16H17N5O

>  <MolWeight>
295.33908

>  <Cat>
P2463

>  <Name>
WAY-326270-A

>  <Synonyms>
N/A

>  <Target>
Ras

>  <Form>
free base

>  <CAS>
869872-97-9

>  <URL>
N/A

$$$$
