WAY-640150
 OpenBabel08302521443D

 48 50  0  0  0  0  0  0  0  0999 V2000
   -0.2047    1.0549   -0.2575 C   0  0  0  0  0  0  0  0  0  0  0  0
   -0.1387   -1.0055   -1.0727 N   0  0  0  0  0  0  0  0  0  0  0  0
   -0.7930    0.1856   -1.1648 C   0  0  0  0  0  0  0  0  0  0  0  0
    0.8793   -0.9687   -0.1924 N   0  0  0  0  0  0  0  0  0  0  0  0
   -0.6799    2.4201   -0.0501 C   0  0  0  0  0  0  0  0  0  0  0  0
    0.8190    0.2607    0.3379 C   0  0  0  0  0  0  0  0  0  0  0  0
    0.2407    3.3653    0.3693 N   0  0  0  0  0  0  0  0  0  0  0  0
   -0.3562   -2.1904   -1.8931 C   0  0  0  0  0  0  0  0  0  0  0  0
   -1.8478    2.7215   -0.2977 O   0  0  0  0  0  0  0  0  0  0  0  0
   -1.4159   -3.1052   -1.3276 C   0  0  0  0  0  0  0  0  0  0  0  0
   -0.1550    4.7715    0.5521 C   0  0  0  0  0  0  0  0  0  0  0  0
    1.7639    0.5868    1.4354 C   0  0  0  0  0  0  0  0  0  0  0  0
   -2.7521   -2.9975   -1.7417 C   0  0  0  0  0  0  0  0  0  0  0  0
   -1.0794   -4.0871   -0.3834 C   0  0  0  0  0  0  0  0  0  0  0  0
    0.9751    5.7246    0.1408 C   0  0  0  0  0  0  0  0  0  0  0  0
   -0.7327    5.0104    1.9592 C   0  0  0  0  0  0  0  0  0  0  0  0
   -2.0546   -4.9503    0.1228 C   0  0  0  0  0  0  0  0  0  0  0  0
   -3.7255   -3.8601   -1.2326 C   0  0  0  0  0  0  0  0  0  0  0  0
    0.2125    5.6487    2.9805 C   0  0  0  0  0  0  0  0  0  0  0  0
    0.6177    7.2020    0.3338 C   0  0  0  0  0  0  0  0  0  0  0  0
    0.2649    7.1756    2.8893 C   0  0  0  0  0  0  0  0  0  0  0  0
   -3.3765   -4.8380   -0.3029 C   0  0  0  0  0  0  0  0  0  0  0  0
    1.0306    7.7443    1.6991 C   0  0  0  0  0  0  0  0  0  0  0  0
   -1.6185    0.3317   -1.8482 H   0  0  0  0  0  0  0  0  0  0  0  0
    1.2004    3.0938    0.5250 H   0  0  0  0  0  0  0  0  0  0  0  0
   -0.6307   -1.8499   -2.8991 H   0  0  0  0  0  0  0  0  0  0  0  0
    0.6007   -2.7178   -1.9869 H   0  0  0  0  0  0  0  0  0  0  0  0
   -0.9798    4.9484   -0.1521 H   0  0  0  0  0  0  0  0  0  0  0  0
    2.6197    1.1454    1.0457 H   0  0  0  0  0  0  0  0  0  0  0  0
    1.2767    1.1761    2.2180 H   0  0  0  0  0  0  0  0  0  0  0  0
    2.1467   -0.3276    1.9035 H   0  0  0  0  0  0  0  0  0  0  0  0
   -3.0471   -2.2423   -2.4674 H   0  0  0  0  0  0  0  0  0  0  0  0
   -0.0524   -4.1848   -0.0357 H   0  0  0  0  0  0  0  0  0  0  0  0
    1.9069    5.4815    0.6657 H   0  0  0  0  0  0  0  0  0  0  0  0
    1.1869    5.5588   -0.9237 H   0  0  0  0  0  0  0  0  0  0  0  0
   -1.6237    5.6461    1.8664 H   0  0  0  0  0  0  0  0  0  0  0  0
   -1.0961    4.0600    2.3706 H   0  0  0  0  0  0  0  0  0  0  0  0
   -1.7827   -5.7100    0.8512 H   0  0  0  0  0  0  0  0  0  0  0  0
   -4.7578   -3.7697   -1.5616 H   0  0  0  0  0  0  0  0  0  0  0  0
    1.2164    5.2144    2.9239 H   0  0  0  0  0  0  0  0  0  0  0  0
   -0.1716    5.4036    3.9791 H   0  0  0  0  0  0  0  0  0  0  0  0
    1.1533    7.7858   -0.4255 H   0  0  0  0  0  0  0  0  0  0  0  0
   -0.4507    7.3772    0.1582 H   0  0  0  0  0  0  0  0  0  0  0  0
    0.7395    7.5585    3.8025 H   0  0  0  0  0  0  0  0  0  0  0  0
   -0.7553    7.5800    2.8908 H   0  0  0  0  0  0  0  0  0  0  0  0
   -4.1340   -5.5085    0.0932 H   0  0  0  0  0  0  0  0  0  0  0  0
    2.1054    7.5798    1.8463 H   0  0  0  0  0  0  0  0  0  0  0  0
    0.8911    8.8335    1.6961 H   0  0  0  0  0  0  0  0  0  0  0  0
  2  3  1  0  0  0  0
  2  4  1  0  0  0  0
  3  1  2  0  0  0  0
  3 24  1  0  0  0  0
  4  6  2  0  0  0  0
  5  1  1  0  0  0  0
  6  1  1  0  0  0  0
  7  5  1  0  0  0  0
  7 25  1  0  0  0  0
  8  2  1  0  0  0  0
  8 26  1  0  0  0  0
  8 27  1  0  0  0  0
  9  5  2  0  0  0  0
 10  8  1  0  0  0  0
 11  7  1  0  0  0  0
 11 28  1  0  0  0  0
 12  6  1  0  0  0  0
 12 29  1  0  0  0  0
 12 30  1  0  0  0  0
 12 31  1  0  0  0  0
 13 10  2  0  0  0  0
 13 32  1  0  0  0  0
 14 10  1  0  0  0  0
 14 33  1  0  0  0  0
 15 11  1  0  0  0  0
 15 34  1  0  0  0  0
 15 35  1  0  0  0  0
 16 11  1  0  0  0  0
 16 36  1  0  0  0  0
 16 37  1  0  0  0  0
 17 14  2  0  0  0  0
 17 38  1  0  0  0  0
 18 13  1  0  0  0  0
 18 39  1  0  0  0  0
 19 16  1  0  0  0  0
 19 40  1  0  0  0  0
 19 41  1  0  0  0  0
 20 15  1  0  0  0  0
 20 42  1  0  0  0  0
 20 43  1  0  0  0  0
 21 19  1  0  0  0  0
 21 23  1  0  0  0  0
 21 44  1  0  0  0  0
 21 45  1  0  0  0  0
 22 17  1  0  0  0  0
 22 18  2  0  0  0  0
 22 46  1  0  0  0  0
 23 20  1  0  0  0  0
 23 47  1  0  0  0  0
 23 48  1  0  0  0  0
M  END
>  <Mol_ID>
9091

>  <Formula>
C19H24ClN3O

>  <MolWeight>
345.86636

>  <Cat>
P3098

>  <Name>
WAY-640150

>  <Synonyms>
N/A

>  <Target>
Anti-infection

>  <Form>
free base

>  <CAS>
956369-64-5

>  <URL>
N/A

$$$$
