WAY-329593
 OpenBabel08302521453D

 37 39  0  0  0  0  0  0  0  0999 V2000
   -0.8157   -0.5007    2.5405 S   0  0  0  0  0  0  0  0  0  0  0  0
   -0.3075   -0.5214    4.2191 C   0  0  0  0  0  0  0  0  0  0  0  0
    0.7160    0.3152    4.7150 C   0  0  0  0  0  0  0  0  0  0  0  0
    1.5246    1.1339    4.0100 N   0  0  0  0  0  0  0  0  0  0  0  0
    0.5636   -0.8076    1.5069 C   0  0  0  0  0  0  0  0  0  0  0  0
    2.4881    1.9153    5.1114 S   0  0  0  0  0  0  0  0  0  0  0  0
    0.9906    0.3745    6.1994 C   0  0  0  0  0  0  0  0  0  0  0  0
    1.9654    1.2306    6.5219 N   0  0  0  0  0  0  0  0  0  0  0  0
    1.2223   -2.1316    1.6753 C   0  0  0  0  0  0  0  0  0  0  0  0
   -1.0091   -1.2999    5.1650 C   0  0  0  0  0  0  0  0  0  0  0  0
   -1.2660    0.8588    2.2838 O   0  0  0  0  0  0  0  0  0  0  0  0
   -1.7592   -1.5829    2.3469 O   0  0  0  0  0  0  0  0  0  0  0  0
    2.1193   -2.5825    0.7274 N   0  0  0  0  0  0  0  0  0  0  0  0
   -0.7387   -1.2471    6.5513 C   0  0  0  0  0  0  0  0  0  0  0  0
    0.2497   -0.4177    7.1093 C   0  0  0  0  0  0  0  0  0  0  0  0
    2.5096   -2.0791   -0.5343 C   0  0  0  0  0  0  0  0  0  0  0  0
    1.0202   -2.8499    2.6567 O   0  0  0  0  0  0  0  0  0  0  0  0
    2.2454   -0.7879   -0.9842 C   0  0  0  0  0  0  0  0  0  0  0  0
    2.4169   -0.4208   -2.3207 C   0  0  0  0  0  0  0  0  0  0  0  0
    2.0786    0.7952   -2.8537 O   0  0  0  0  0  0  0  0  0  0  0  0
    3.3734   -2.5919   -2.7502 C   0  0  0  0  0  0  0  0  0  0  0  0
    3.1495   -2.9570   -1.4150 C   0  0  0  0  0  0  0  0  0  0  0  0
    2.9637   -1.3411   -3.2079 C   0  0  0  0  0  0  0  0  0  0  0  0
    1.4187    1.7145   -1.9829 C   0  0  0  0  0  0  0  0  0  0  0  0
    0.1371   -0.7328    0.5025 H   0  0  0  0  0  0  0  0  0  0  0  0
    1.2933   -0.0129    1.6828 H   0  0  0  0  0  0  0  0  0  0  0  0
   -1.8145   -1.9504    4.8239 H   0  0  0  0  0  0  0  0  0  0  0  0
    2.4325   -3.5305    0.9394 H   0  0  0  0  0  0  0  0  0  0  0  0
   -1.3364   -1.8692    7.2175 H   0  0  0  0  0  0  0  0  0  0  0  0
    0.4315   -0.3777    8.1766 H   0  0  0  0  0  0  0  0  0  0  0  0
    1.9256   -0.0191   -0.2975 H   0  0  0  0  0  0  0  0  0  0  0  0
    3.8378   -3.2937   -3.4363 H   0  0  0  0  0  0  0  0  0  0  0  0
    3.4488   -3.9507   -1.0949 H   0  0  0  0  0  0  0  0  0  0  0  0
    3.0848   -1.0785   -4.2567 H   0  0  0  0  0  0  0  0  0  0  0  0
    0.4843    1.2954   -1.5928 H   0  0  0  0  0  0  0  0  0  0  0  0
    2.0827    2.0221   -1.1692 H   0  0  0  0  0  0  0  0  0  0  0  0
    1.1669    2.6084   -2.5609 H   0  0  0  0  0  0  0  0  0  0  0  0
  2  1  1  0  0  0  0
  3  2  1  0  0  0  0
  4  3  2  0  0  0  0
  5  1  1  0  0  0  0
  5 25  1  0  0  0  0
  5 26  1  0  0  0  0
  6  4  1  0  0  0  0
  6  8  1  0  0  0  0
  7  3  1  0  0  0  0
  7 15  1  0  0  0  0
  8  7  2  0  0  0  0
  9  5  1  0  0  0  0
 10  2  2  0  0  0  0
 10 27  1  0  0  0  0
 11  1  2  0  0  0  0
 12  1  2  0  0  0  0
 13  9  1  0  0  0  0
 13 28  1  0  0  0  0
 14 10  1  0  0  0  0
 14 29  1  0  0  0  0
 15 14  2  0  0  0  0
 15 30  1  0  0  0  0
 16 13  1  0  0  0  0
 17  9  2  0  0  0  0
 18 16  2  0  0  0  0
 18 31  1  0  0  0  0
 19 18  1  0  0  0  0
 20 19  1  0  0  0  0
 21 22  2  0  0  0  0
 21 32  1  0  0  0  0
 22 16  1  0  0  0  0
 22 33  1  0  0  0  0
 23 21  1  0  0  0  0
 23 19  2  0  0  0  0
 23 34  1  0  0  0  0
 24 20  1  0  0  0  0
 24 35  1  0  0  0  0
 24 36  1  0  0  0  0
 24 37  1  0  0  0  0
M  END
>  <Mol_ID>
9317

>  <Formula>
C15H13N3O4S2

>  <MolWeight>
363.41142

>  <Cat>
P2580

>  <Name>
WAY-329593

>  <Synonyms>
N/A

>  <Target>
others

>  <Form>
free base

>  <CAS>
956979-07-0

>  <URL>
N/A

$$$$
