WAY-327958
 OpenBabel08302521443D

 54 57  0  0  0  0  0  0  0  0999 V2000
    1.6745    0.7238    0.4902 S   0  0  0  0  0  0  0  0  0  0  0  0
   -2.0132    3.2317   -2.5792 C   0  0  0  0  0  0  0  0  0  0  0  0
   -0.8050    3.1788   -1.6907 C   0  0  0  0  0  0  0  0  0  0  0  0
    0.9410    2.1507   -0.2974 C   0  0  0  0  0  0  0  0  0  0  0  0
    3.3297    0.8443    0.0930 N   0  0  0  0  0  0  0  0  0  0  0  0
   -0.8628    5.6341   -1.6432 N   0  0  0  0  0  0  0  0  0  0  0  0
   -1.8805    5.7219   -2.5297 C   0  0  0  0  0  0  0  0  0  0  0  0
   -0.3026    4.4275   -1.2205 C   0  0  0  0  0  0  0  0  0  0  0  0
   -2.4553    4.4470   -2.9771 C   0  0  0  0  0  0  0  0  0  0  0  0
   -3.0108    2.1834   -3.0334 C   0  0  0  0  0  0  0  0  0  0  0  0
   -0.1378    2.0318   -1.2227 C   0  0  0  0  0  0  0  0  0  0  0  0
    1.1483   -0.4638   -0.1418 O   0  0  0  0  0  0  0  0  0  0  0  0
    1.5563    0.9566    1.9219 O   0  0  0  0  0  0  0  0  0  0  0  0
   -2.6461    0.8795   -3.2418 N   0  0  0  0  0  0  0  0  0  0  0  0
    1.3805    3.3989    0.1568 C   0  0  0  0  0  0  0  0  0  0  0  0
    0.7607    4.5401   -0.3166 C   0  0  0  0  0  0  0  0  0  0  0  0
   -2.3282    6.7971   -2.9129 O   0  0  0  0  0  0  0  0  0  0  0  0
   -4.1757    2.5243   -3.2706 O   0  0  0  0  0  0  0  0  0  0  0  0
   -3.5547   -0.0245   -3.9577 C   0  0  0  0  0  0  0  0  0  0  0  0
   -4.9982   -0.5415   -1.9348 C   0  0  0  0  0  0  0  0  0  0  0  0
   -4.3547   -0.9816   -3.0980 C   0  0  0  0  0  0  0  0  0  0  0  0
   -5.8599   -1.3972   -1.2307 C   0  0  0  0  0  0  0  0  0  0  0  0
    3.7128    0.5460   -1.3090 C   0  0  0  0  0  0  0  0  0  0  0  0
    4.2675    0.1131    0.9931 C   0  0  0  0  0  0  0  0  0  0  0  0
   -6.6260   -0.9685   -0.1784 O   0  0  0  0  0  0  0  0  0  0  0  0
   -5.3980   -3.1701   -2.7810 C   0  0  0  0  0  0  0  0  0  0  0  0
   -4.6103   -2.2948   -3.5378 C   0  0  0  0  0  0  0  0  0  0  0  0
   -6.0055   -2.7266   -1.6105 C   0  0  0  0  0  0  0  0  0  0  0  0
   -7.2710    0.2753   -0.4627 C   0  0  0  0  0  0  0  0  0  0  0  0
    5.1190   -0.7969    0.1194 C   0  0  0  0  0  0  0  0  0  0  0  0
    4.4901   -0.7569   -1.2563 C   0  0  0  0  0  0  0  0  0  0  0  0
   -0.5101    6.5189   -1.3020 H   0  0  0  0  0  0  0  0  0  0  0  0
   -3.3306    4.5945   -3.6039 H   0  0  0  0  0  0  0  0  0  0  0  0
   -0.4399    1.0368   -1.5189 H   0  0  0  0  0  0  0  0  0  0  0  0
   -1.6986    0.5681   -3.1039 H   0  0  0  0  0  0  0  0  0  0  0  0
    2.1738    3.4777    0.8962 H   0  0  0  0  0  0  0  0  0  0  0  0
    1.0906    5.5100    0.0466 H   0  0  0  0  0  0  0  0  0  0  0  0
   -4.2691    0.5520   -4.5620 H   0  0  0  0  0  0  0  0  0  0  0  0
   -2.9343   -0.5894   -4.6612 H   0  0  0  0  0  0  0  0  0  0  0  0
   -4.8692    0.4798   -1.6054 H   0  0  0  0  0  0  0  0  0  0  0  0
    4.3423    1.3663   -1.6737 H   0  0  0  0  0  0  0  0  0  0  0  0
    2.8523    0.4650   -1.9762 H   0  0  0  0  0  0  0  0  0  0  0  0
    3.7476   -0.4676    1.7613 H   0  0  0  0  0  0  0  0  0  0  0  0
    4.9044    0.8430    1.5067 H   0  0  0  0  0  0  0  0  0  0  0  0
   -5.5687   -4.1897   -3.1228 H   0  0  0  0  0  0  0  0  0  0  0  0
   -4.2135   -2.6450   -4.4890 H   0  0  0  0  0  0  0  0  0  0  0  0
   -6.6357   -3.3929   -1.0302 H   0  0  0  0  0  0  0  0  0  0  0  0
   -6.6425    1.1041   -0.1232 H   0  0  0  0  0  0  0  0  0  0  0  0
   -7.5137    0.3924   -1.5270 H   0  0  0  0  0  0  0  0  0  0  0  0
   -8.2140    0.3054    0.0904 H   0  0  0  0  0  0  0  0  0  0  0  0
    5.1428   -1.8210    0.5148 H   0  0  0  0  0  0  0  0  0  0  0  0
    6.1557   -0.4461    0.0897 H   0  0  0  0  0  0  0  0  0  0  0  0
    3.8125   -1.6088   -1.3825 H   0  0  0  0  0  0  0  0  0  0  0  0
    5.2410   -0.8129   -2.0501 H   0  0  0  0  0  0  0  0  0  0  0  0
  2  3  1  0  0  0  0
  3 11  2  0  0  0  0
  4  1  1  0  0  0  0
  5  1  1  0  0  0  0
  6  8  1  0  0  0  0
  6 32  1  0  0  0  0
  7  6  1  0  0  0  0
  7  9  1  0  0  0  0
  8 16  2  0  0  0  0
  8  3  1  0  0  0  0
  9  2  2  0  0  0  0
  9 33  1  0  0  0  0
 10  2  1  0  0  0  0
 11  4  1  0  0  0  0
 11 34  1  0  0  0  0
 12  1  2  0  0  0  0
 13  1  2  0  0  0  0
 14 10  1  0  0  0  0
 14 35  1  0  0  0  0
 15  4  2  0  0  0  0
 15 36  1  0  0  0  0
 16 15  1  0  0  0  0
 16 37  1  0  0  0  0
 17  7  2  0  0  0  0
 18 10  2  0  0  0  0
 19 14  1  0  0  0  0
 19 38  1  0  0  0  0
 19 39  1  0  0  0  0
 20 21  2  0  0  0  0
 20 40  1  0  0  0  0
 21 19  1  0  0  0  0
 22 20  1  0  0  0  0
 23  5  1  0  0  0  0
 23 41  1  0  0  0  0
 23 42  1  0  0  0  0
 24  5  1  0  0  0  0
 24 43  1  0  0  0  0
 24 44  1  0  0  0  0
 25 22  1  0  0  0  0
 26 27  2  0  0  0  0
 26 45  1  0  0  0  0
 27 21  1  0  0  0  0
 27 46  1  0  0  0  0
 28 26  1  0  0  0  0
 28 22  2  0  0  0  0
 28 47  1  0  0  0  0
 29 25  1  0  0  0  0
 29 48  1  0  0  0  0
 29 49  1  0  0  0  0
 29 50  1  0  0  0  0
 30 24  1  0  0  0  0
 30 51  1  0  0  0  0
 30 52  1  0  0  0  0
 31 23  1  0  0  0  0
 31 30  1  0  0  0  0
 31 53  1  0  0  0  0
 31 54  1  0  0  0  0
M  END
>  <Mol_ID>
8996

>  <Formula>
C22H23N3O5S

>  <MolWeight>
441.50012

>  <Cat>
P2559

>  <Name>
WAY-327958

>  <Synonyms>
N/A

>  <Target>
caspase

>  <Form>
free base

>  <CAS>
687591-25-9

>  <URL>
N/A

$$$$
