WAY-327960
 OpenBabel08302521443D

 57 60  0  0  0  0  0  0  0  0999 V2000
    1.7964    0.3168    0.4820 S   0  0  0  0  0  0  0  0  0  0  0  0
   -0.3552   -1.6852    4.8859 C   0  0  0  0  0  0  0  0  0  0  0  0
    0.1898   -0.5035    4.1397 C   0  0  0  0  0  0  0  0  0  0  0  0
    1.1111    0.5275    2.1242 C   0  0  0  0  0  0  0  0  0  0  0  0
    0.5934   -0.4631   -0.4271 N   0  0  0  0  0  0  0  0  0  0  0  0
   -0.8779    0.9548    5.7553 N   0  0  0  0  0  0  0  0  0  0  0  0
   -1.4113   -0.0819    6.4543 C   0  0  0  0  0  0  0  0  0  0  0  0
   -0.1517    0.7916    4.5733 C   0  0  0  0  0  0  0  0  0  0  0  0
   -1.1948   -1.4330    5.9028 C   0  0  0  0  0  0  0  0  0  0  0  0
   -0.3116   -3.0953    4.3576 C   0  0  0  0  0  0  0  0  0  0  0  0
    0.9248   -0.5981    2.9494 C   0  0  0  0  0  0  0  0  0  0  0  0
   -0.4451   -4.2033    5.1410 N   0  0  0  0  0  0  0  0  0  0  0  0
    2.9155   -0.5984    0.6294 O   0  0  0  0  0  0  0  0  0  0  0  0
    1.9876    1.6376   -0.0822 O   0  0  0  0  0  0  0  0  0  0  0  0
   -1.0695   -5.7404    6.9995 C   0  0  0  0  0  0  0  0  0  0  0  0
   -0.3460   -4.4661    6.5853 C   0  0  0  0  0  0  0  0  0  0  0  0
    0.7693    1.8001    2.5783 C   0  0  0  0  0  0  0  0  0  0  0  0
    0.1715    1.9336    3.8311 C   0  0  0  0  0  0  0  0  0  0  0  0
   -2.0693    0.0760    7.4746 O   0  0  0  0  0  0  0  0  0  0  0  0
   -0.1873   -3.2955    3.1466 O   0  0  0  0  0  0  0  0  0  0  0  0
   -0.7236   -6.4529    8.1686 C   0  0  0  0  0  0  0  0  0  0  0  0
   -0.5700    0.2921   -0.9233 C   0  0  0  0  0  0  0  0  0  0  0  0
    0.0609   -1.7694    0.0191 C   0  0  0  0  0  0  0  0  0  0  0  0
    0.2606   -5.9335    8.9909 O   0  0  0  0  0  0  0  0  0  0  0  0
   -2.1877   -6.1909    6.2603 C   0  0  0  0  0  0  0  0  0  0  0  0
   -1.4098   -7.6423    8.4816 C   0  0  0  0  0  0  0  0  0  0  0  0
    0.2691   -6.4948   10.3157 C   0  0  0  0  0  0  0  0  0  0  0  0
   -1.6665   -0.0411    0.0675 C   0  0  0  0  0  0  0  0  0  0  0  0
   -1.3607   -1.4704    0.5063 C   0  0  0  0  0  0  0  0  0  0  0  0
    1.0970   -5.6741   11.2850 C   0  0  0  0  0  0  0  0  0  0  0  0
   -2.9017   -7.3338    6.6298 C   0  0  0  0  0  0  0  0  0  0  0  0
   -2.5014   -8.0694    7.7322 C   0  0  0  0  0  0  0  0  0  0  0  0
   -1.0889    1.8788    6.1116 H   0  0  0  0  0  0  0  0  0  0  0  0
   -1.8149   -2.1851    6.3697 H   0  0  0  0  0  0  0  0  0  0  0  0
    1.3076   -1.5586    2.6154 H   0  0  0  0  0  0  0  0  0  0  0  0
   -0.3446   -5.0340    4.5687 H   0  0  0  0  0  0  0  0  0  0  0  0
    0.7252   -4.5445    6.7940 H   0  0  0  0  0  0  0  0  0  0  0  0
   -0.7412   -3.6412    7.1730 H   0  0  0  0  0  0  0  0  0  0  0  0
    0.9546    2.6845    1.9716 H   0  0  0  0  0  0  0  0  0  0  0  0
   -0.0938    2.9251    4.1908 H   0  0  0  0  0  0  0  0  0  0  0  0
   -0.8282   -0.1063   -1.9145 H   0  0  0  0  0  0  0  0  0  0  0  0
   -0.3971    1.3625   -1.0399 H   0  0  0  0  0  0  0  0  0  0  0  0
    0.6797   -2.2757    0.7576 H   0  0  0  0  0  0  0  0  0  0  0  0
    0.0221   -2.4357   -0.8510 H   0  0  0  0  0  0  0  0  0  0  0  0
   -2.5336   -5.6420    5.3865 H   0  0  0  0  0  0  0  0  0  0  0  0
   -1.1343   -8.2594    9.3311 H   0  0  0  0  0  0  0  0  0  0  0  0
   -0.7511   -6.5263   10.7190 H   0  0  0  0  0  0  0  0  0  0  0  0
    0.6904   -7.5067   10.2771 H   0  0  0  0  0  0  0  0  0  0  0  0
   -1.6089    0.6360    0.9267 H   0  0  0  0  0  0  0  0  0  0  0  0
   -2.6671    0.0600   -0.3629 H   0  0  0  0  0  0  0  0  0  0  0  0
   -1.4462   -1.5499    1.5938 H   0  0  0  0  0  0  0  0  0  0  0  0
   -2.0724   -2.1842    0.0792 H   0  0  0  0  0  0  0  0  0  0  0  0
    2.1587   -5.7118   11.0272 H   0  0  0  0  0  0  0  0  0  0  0  0
    0.7850   -4.6264   11.2849 H   0  0  0  0  0  0  0  0  0  0  0  0
    0.9758   -6.0755   12.2983 H   0  0  0  0  0  0  0  0  0  0  0  0
   -3.7701   -7.6482    6.0571 H   0  0  0  0  0  0  0  0  0  0  0  0
   -3.0444   -8.9626    8.0300 H   0  0  0  0  0  0  0  0  0  0  0  0
  2  3  1  0  0  0  0
  3 11  2  0  0  0  0
  4  1  1  0  0  0  0
  5  1  1  0  0  0  0
  6  8  1  0  0  0  0
  6 33  1  0  0  0  0
  7  6  1  0  0  0  0
  8 18  2  0  0  0  0
  8  3  1  0  0  0  0
  9  2  2  0  0  0  0
  9  7  1  0  0  0  0
  9 34  1  0  0  0  0
 10  2  1  0  0  0  0
 11  4  1  0  0  0  0
 11 35  1  0  0  0  0
 12 10  1  0  0  0  0
 12 36  1  0  0  0  0
 13  1  2  0  0  0  0
 14  1  2  0  0  0  0
 15 16  1  0  0  0  0
 16 12  1  0  0  0  0
 16 37  1  0  0  0  0
 16 38  1  0  0  0  0
 17  4  2  0  0  0  0
 17 39  1  0  0  0  0
 18 17  1  0  0  0  0
 18 40  1  0  0  0  0
 19  7  2  0  0  0  0
 20 10  2  0  0  0  0
 21 15  2  0  0  0  0
 22  5  1  0  0  0  0
 22 41  1  0  0  0  0
 22 42  1  0  0  0  0
 23  5  1  0  0  0  0
 23 43  1  0  0  0  0
 23 44  1  0  0  0  0
 24 21  1  0  0  0  0
 25 15  1  0  0  0  0
 25 45  1  0  0  0  0
 26 21  1  0  0  0  0
 26 46  1  0  0  0  0
 27 24  1  0  0  0  0
 27 47  1  0  0  0  0
 27 48  1  0  0  0  0
 28 22  1  0  0  0  0
 28 49  1  0  0  0  0
 28 50  1  0  0  0  0
 29 23  1  0  0  0  0
 29 28  1  0  0  0  0
 29 51  1  0  0  0  0
 29 52  1  0  0  0  0
 30 27  1  0  0  0  0
 30 53  1  0  0  0  0
 30 54  1  0  0  0  0
 30 55  1  0  0  0  0
 31 25  2  0  0  0  0
 31 56  1  0  0  0  0
 32 31  1  0  0  0  0
 32 26  2  0  0  0  0
 32 57  1  0  0  0  0
M  END
>  <Mol_ID>
8998

>  <Formula>
C23H25N3O5S

>  <MolWeight>
455.5267

>  <Cat>
P2561

>  <Name>
WAY-327960

>  <Synonyms>
N/A

>  <Target>
caspase

>  <Form>
free base

>  <CAS>
687591-39-5

>  <URL>
N/A

$$$$
