WAY-640166
 OpenBabel08302521443D

 36 39  0  0  0  0  0  0  0  0999 V2000
   -3.5062   -3.0881   -0.6157 C   0  0  0  0  0  0  0  0  0  0  0  0
   -2.8674   -3.3890    0.5299 N   0  0  0  0  0  0  0  0  0  0  0  0
   -3.9205   -1.7213   -0.9528 C   0  0  0  0  0  0  0  0  0  0  0  0
   -5.0064    2.5660    0.8562 C   0  0  0  0  0  0  0  0  0  0  0  0
   -3.6687   -4.2494   -1.4153 C   0  0  0  0  0  0  0  0  0  0  0  0
   -5.8065    3.4679    1.6578 C   0  0  0  0  0  0  0  0  0  0  0  0
   -4.3080    3.3177   -0.1097 C   0  0  0  0  0  0  0  0  0  0  0  0
   -2.5594   -4.7384    0.4495 O   0  0  0  0  0  0  0  0  0  0  0  0
   -5.5519    4.7959    1.2317 C   0  0  0  0  0  0  0  0  0  0  0  0
   -3.8068   -0.8190    0.0907 N   0  0  0  0  0  0  0  0  0  0  0  0
   -3.0383   -5.2474   -0.7173 C   0  0  0  0  0  0  0  0  0  0  0  0
   -4.5587    4.7979    0.0860 C   0  0  0  0  0  0  0  0  0  0  0  0
   -4.8433    1.1907    0.9296 C   0  0  0  0  0  0  0  0  0  0  0  0
   -4.0458    0.5591   -0.0307 C   0  0  0  0  0  0  0  0  0  0  0  0
   -4.3714   -1.4467   -2.0622 O   0  0  0  0  0  0  0  0  0  0  0  0
   -3.5119    2.7037   -1.0680 C   0  0  0  0  0  0  0  0  0  0  0  0
   -3.4105    1.3072   -1.0437 C   0  0  0  0  0  0  0  0  0  0  0  0
   -6.7325    3.2288    2.6559 C   0  0  0  0  0  0  0  0  0  0  0  0
   -6.1727    5.8837    1.8250 C   0  0  0  0  0  0  0  0  0  0  0  0
   -2.7740   -6.6740   -0.9792 C   0  0  0  0  0  0  0  0  0  0  0  0
   -7.3737    4.3218    3.2531 C   0  0  0  0  0  0  0  0  0  0  0  0
   -7.0893    5.6375    2.8492 C   0  0  0  0  0  0  0  0  0  0  0  0
   -4.1541   -4.3221   -2.3777 H   0  0  0  0  0  0  0  0  0  0  0  0
   -3.7326   -1.2215    1.0209 H   0  0  0  0  0  0  0  0  0  0  0  0
   -4.9955    5.2480   -0.8103 H   0  0  0  0  0  0  0  0  0  0  0  0
   -3.6361    5.3049    0.3833 H   0  0  0  0  0  0  0  0  0  0  0  0
   -5.3636    0.6150    1.6836 H   0  0  0  0  0  0  0  0  0  0  0  0
   -2.9761    3.2848   -1.8112 H   0  0  0  0  0  0  0  0  0  0  0  0
   -2.7706    0.8151   -1.7695 H   0  0  0  0  0  0  0  0  0  0  0  0
   -6.9730    2.2186    2.9675 H   0  0  0  0  0  0  0  0  0  0  0  0
   -5.9585    6.8968    1.5039 H   0  0  0  0  0  0  0  0  0  0  0  0
   -1.7222   -6.8255   -1.2415 H   0  0  0  0  0  0  0  0  0  0  0  0
   -3.0022   -7.2844   -0.1005 H   0  0  0  0  0  0  0  0  0  0  0  0
   -3.3855   -7.0379   -1.8117 H   0  0  0  0  0  0  0  0  0  0  0  0
   -8.1035    4.1511    4.0417 H   0  0  0  0  0  0  0  0  0  0  0  0
   -7.5936    6.4704    3.3353 H   0  0  0  0  0  0  0  0  0  0  0  0
  2  1  2  0  0  0  0
  3  1  1  0  0  0  0
  4 13  2  0  0  0  0
  5  1  1  0  0  0  0
  5 23  1  0  0  0  0
  6  4  1  0  0  0  0
  7 16  2  0  0  0  0
  7  4  1  0  0  0  0
  8  2  1  0  0  0  0
  8 11  1  0  0  0  0
  9  6  2  0  0  0  0
  9 12  1  0  0  0  0
 10  3  1  0  0  0  0
 10 24  1  0  0  0  0
 11  5  2  0  0  0  0
 12  7  1  0  0  0  0
 12 25  1  0  0  0  0
 12 26  1  0  0  0  0
 13 14  1  0  0  0  0
 13 27  1  0  0  0  0
 14 10  1  0  0  0  0
 15  3  2  0  0  0  0
 16 17  1  0  0  0  0
 16 28  1  0  0  0  0
 17 14  2  0  0  0  0
 17 29  1  0  0  0  0
 18  6  1  0  0  0  0
 18 30  1  0  0  0  0
 19  9  1  0  0  0  0
 19 31  1  0  0  0  0
 20 11  1  0  0  0  0
 20 32  1  0  0  0  0
 20 33  1  0  0  0  0
 20 34  1  0  0  0  0
 21 18  2  0  0  0  0
 21 35  1  0  0  0  0
 22 21  1  0  0  0  0
 22 19  2  0  0  0  0
 22 36  1  0  0  0  0
M  END
>  <Mol_ID>
9092

>  <Formula>
C18H14N2O2

>  <MolWeight>
290.31596

>  <Cat>
P3099

>  <Name>
WAY-640166

>  <Synonyms>
N/A

>  <Target>
Androgen Receptor

>  <Form>
free base

>  <CAS>
796123-34-7

>  <URL>
N/A

$$$$
