WAY-324866
 OpenBabel08302521423D

 34 36  0  0  0  0  0  0  0  0999 V2000
   -2.4557    0.0444   -0.0325 N   0  0  0  0  0  0  0  0  0  0  0  0
   -3.1862    0.0442    1.2609 C   0  0  0  0  0  0  0  0  0  0  0  0
   -1.4566    1.1446    0.0263 C   0  0  0  0  0  0  0  0  0  0  0  0
   -3.3469    0.1076   -1.2126 C   0  0  3  0  0  0  0  0  0  0  0  0
   -1.7760    1.9357    1.2548 C   0  0  0  0  0  0  0  0  0  0  0  0
   -2.7755    1.2896    1.9742 C   0  0  0  0  0  0  0  0  0  0  0  0
   -4.2596   -1.1308   -1.2967 C   0  0  0  0  0  0  0  0  0  0  0  0
   -1.2187    3.1168    1.7150 C   0  0  0  0  0  0  0  0  0  0  0  0
   -3.2489    1.7995    3.1715 C   0  0  0  0  0  0  0  0  0  0  0  0
   -4.1095    1.4402   -1.3658 C   0  0  0  0  0  0  0  0  0  0  0  0
   -5.6617   -1.0394   -1.3126 C   0  0  0  0  0  0  0  0  0  0  0  0
   -3.6863   -2.4136   -1.3614 C   0  0  0  0  0  0  0  0  0  0  0  0
   -1.6925    3.6489    2.9181 C   0  0  0  0  0  0  0  0  0  0  0  0
   -2.7015    2.9939    3.6418 C   0  0  0  0  0  0  0  0  0  0  0  0
   -4.4876   -3.5572   -1.4427 C   0  0  0  0  0  0  0  0  0  0  0  0
   -6.4618   -2.1811   -1.4005 C   0  0  0  0  0  0  0  0  0  0  0  0
   -5.8754   -3.4401   -1.4669 C   0  0  0  0  0  0  0  0  0  0  0  0
   -4.2748    0.0196    1.1547 H   0  0  0  0  0  0  0  0  0  0  0  0
   -2.8722   -0.8308    1.8407 H   0  0  0  0  0  0  0  0  0  0  0  0
   -0.4565    0.7083    0.1266 H   0  0  0  0  0  0  0  0  0  0  0  0
   -1.4512    1.7831   -0.8628 H   0  0  0  0  0  0  0  0  0  0  0  0
   -2.7006    0.0310   -2.0996 H   0  0  0  0  0  0  0  0  0  0  0  0
   -0.4337    3.6224    1.1613 H   0  0  0  0  0  0  0  0  0  0  0  0
   -4.0257    1.2871    3.7296 H   0  0  0  0  0  0  0  0  0  0  0  0
   -4.7799    1.6308   -0.5211 H   0  0  0  0  0  0  0  0  0  0  0  0
   -3.4367    2.2976   -1.4523 H   0  0  0  0  0  0  0  0  0  0  0  0
   -4.7138    1.4348   -2.2806 H   0  0  0  0  0  0  0  0  0  0  0  0
   -6.1672   -0.0798   -1.2525 H   0  0  0  0  0  0  0  0  0  0  0  0
   -2.6037   -2.5274   -1.3343 H   0  0  0  0  0  0  0  0  0  0  0  0
   -1.2757    4.5771    3.3015 H   0  0  0  0  0  0  0  0  0  0  0  0
   -3.0582    3.4193    4.5768 H   0  0  0  0  0  0  0  0  0  0  0  0
   -4.0283   -4.5413   -1.4855 H   0  0  0  0  0  0  0  0  0  0  0  0
   -7.5439   -2.0817   -1.4164 H   0  0  0  0  0  0  0  0  0  0  0  0
   -6.4993   -4.3267   -1.5347 H   0  0  0  0  0  0  0  0  0  0  0  0
  2  1  1  0  0  0  0
  2 18  1  0  0  0  0
  2 19  1  0  0  0  0
  3  1  1  0  0  0  0
  3 20  1  0  0  0  0
  3 21  1  0  0  0  0
  4  1  1  0  0  0  0
  4 22  1  0  0  0  0
  5  3  1  0  0  0  0
  5  6  2  0  0  0  0
  6  2  1  0  0  0  0
  7  4  1  0  0  0  0
  8  5  1  0  0  0  0
  8 23  1  0  0  0  0
  9  6  1  0  0  0  0
  9 24  1  0  0  0  0
 10  4  1  0  0  0  0
 10 25  1  0  0  0  0
 10 26  1  0  0  0  0
 10 27  1  0  0  0  0
 11  7  2  0  0  0  0
 11 28  1  0  0  0  0
 12  7  1  0  0  0  0
 12 29  1  0  0  0  0
 13  8  2  0  0  0  0
 13 14  1  0  0  0  0
 13 30  1  0  0  0  0
 14  9  2  0  0  0  0
 14 31  1  0  0  0  0
 15 12  2  0  0  0  0
 15 32  1  0  0  0  0
 16 11  1  0  0  0  0
 16 17  2  0  0  0  0
 16 33  1  0  0  0  0
 17 15  1  0  0  0  0
 17 34  1  0  0  0  0
M  END
>  <Mol_ID>
8656

>  <Formula>
C16H17N

>  <MolWeight>
223.31288

>  <Cat>
P2355

>  <Name>
WAY-324866

>  <Synonyms>
N/A

>  <Target>
dopamine receptor

>  <Form>
free base

>  <CAS>
2102498-30-4

>  <URL>
N/A

$$$$
