WAY-326771
 OpenBabel08302521433D

 47 49  0  0  0  0  0  0  0  0999 V2000
    0.8405    0.1184    0.1374 C   0  0  0  0  0  0  0  0  0  0  0  0
    0.4039    0.5123   -1.3010 C   0  0  3  0  0  0  0  0  0  0  0  0
   -1.6352    1.8120   -0.8752 C   0  0  0  0  0  0  0  0  0  0  0  0
   -0.2981    1.7864   -1.2082 N   0  0  0  0  0  0  0  0  0  0  0  0
    0.5054   -1.1804    0.4994 N   0  0  0  0  0  0  0  0  0  0  0  0
   -2.2255    3.2012   -0.7222 C   0  0  0  0  0  0  0  0  0  0  0  0
   -2.1358    3.6724    0.6957 C   0  0  0  0  0  0  0  0  0  0  0  0
   -0.7485    4.5229    1.2366 S   0  0  0  0  0  0  0  0  0  0  0  0
    1.4181    0.9339    0.8584 O   0  0  0  0  0  0  0  0  0  0  0  0
   -1.4066    4.7334    2.8002 C   0  0  0  0  0  0  0  0  0  0  0  0
   -3.0797    3.5585    1.6985 C   0  0  0  0  0  0  0  0  0  0  0  0
   -2.3061    0.7861   -0.7514 O   0  0  0  0  0  0  0  0  0  0  0  0
    1.5569    0.6261   -2.2930 C   0  0  0  0  0  0  0  0  0  0  0  0
   -2.6577    4.1710    2.9143 C   0  0  0  0  0  0  0  0  0  0  0  0
    0.7753   -1.8183    1.7314 C   0  0  0  0  0  0  0  0  0  0  0  0
    1.2871   -3.2163    4.1325 C   0  0  0  0  0  0  0  0  0  0  0  0
    1.4898   -1.2221    2.7710 C   0  0  0  0  0  0  0  0  0  0  0  0
    0.3012   -3.1223    1.9123 C   0  0  0  0  0  0  0  0  0  0  0  0
    1.7399   -1.9113    3.9646 C   0  0  0  0  0  0  0  0  0  0  0  0
    0.5553   -3.8129    3.1047 C   0  0  0  0  0  0  0  0  0  0  0  0
    1.4951   -3.9989    5.2343 O   0  0  0  0  0  0  0  0  0  0  0  0
    1.2954    0.4540   -3.6653 C   0  0  0  0  0  0  0  0  0  0  0  0
    2.8738    0.9280   -1.9091 C   0  0  0  0  0  0  0  0  0  0  0  0
    2.3322   -3.4577    6.2512 C   0  0  0  0  0  0  0  0  0  0  0  0
    2.3246    0.5205   -4.6094 C   0  0  0  0  0  0  0  0  0  0  0  0
    3.9027    0.9904   -2.8537 C   0  0  0  0  0  0  0  0  0  0  0  0
    3.6308    0.7749   -4.2013 C   0  0  0  0  0  0  0  0  0  0  0  0
   -0.2926   -0.2493   -1.6730 H   0  0  0  0  0  0  0  0  0  0  0  0
    0.2641    2.5730   -0.9008 H   0  0  0  0  0  0  0  0  0  0  0  0
   -0.0521   -1.7128   -0.1597 H   0  0  0  0  0  0  0  0  0  0  0  0
   -1.7203    3.8922   -1.4068 H   0  0  0  0  0  0  0  0  0  0  0  0
   -3.2729    3.1594   -1.0443 H   0  0  0  0  0  0  0  0  0  0  0  0
   -0.8455    5.2598    3.5603 H   0  0  0  0  0  0  0  0  0  0  0  0
   -4.0349    3.0628    1.5672 H   0  0  0  0  0  0  0  0  0  0  0  0
   -3.2429    4.1990    3.8255 H   0  0  0  0  0  0  0  0  0  0  0  0
    1.8746   -0.2108    2.6966 H   0  0  0  0  0  0  0  0  0  0  0  0
   -0.2698   -3.6248    1.1357 H   0  0  0  0  0  0  0  0  0  0  0  0
    2.2939   -1.3902    4.7380 H   0  0  0  0  0  0  0  0  0  0  0  0
    0.1835   -4.8274    3.2308 H   0  0  0  0  0  0  0  0  0  0  0  0
    0.2803    0.2647   -4.0106 H   0  0  0  0  0  0  0  0  0  0  0  0
    3.1307    1.1167   -0.8687 H   0  0  0  0  0  0  0  0  0  0  0  0
    3.3007   -3.1374    5.8516 H   0  0  0  0  0  0  0  0  0  0  0  0
    1.8284   -2.6349    6.7691 H   0  0  0  0  0  0  0  0  0  0  0  0
    2.5270   -4.2475    6.9830 H   0  0  0  0  0  0  0  0  0  0  0  0
    2.1072    0.3721   -5.6643 H   0  0  0  0  0  0  0  0  0  0  0  0
    4.9188    1.2066   -2.5320 H   0  0  0  0  0  0  0  0  0  0  0  0
    4.4350    0.8134   -4.9316 H   0  0  0  0  0  0  0  0  0  0  0  0
  2  1  1  0  0  0  0
  2 28  1  0  0  0  0
  3  4  1  0  0  0  0
  4  2  1  0  0  0  0
  4 29  1  0  0  0  0
  5  1  1  0  0  0  0
  5 30  1  0  0  0  0
  6  3  1  0  0  0  0
  6 31  1  0  0  0  0
  6 32  1  0  0  0  0
  7  6  1  0  0  0  0
  8  7  1  0  0  0  0
  9  1  2  0  0  0  0
 10  8  1  0  0  0  0
 10 33  1  0  0  0  0
 11  7  2  0  0  0  0
 11 34  1  0  0  0  0
 12  3  2  0  0  0  0
 13  2  1  0  0  0  0
 14 11  1  0  0  0  0
 14 10  2  0  0  0  0
 14 35  1  0  0  0  0
 15  5  1  0  0  0  0
 16 20  2  0  0  0  0
 17 15  1  0  0  0  0
 17 36  1  0  0  0  0
 18 15  2  0  0  0  0
 18 37  1  0  0  0  0
 19 17  2  0  0  0  0
 19 16  1  0  0  0  0
 19 38  1  0  0  0  0
 20 18  1  0  0  0  0
 20 39  1  0  0  0  0
 21 16  1  0  0  0  0
 22 13  2  0  0  0  0
 22 40  1  0  0  0  0
 23 13  1  0  0  0  0
 23 41  1  0  0  0  0
 24 21  1  0  0  0  0
 24 42  1  0  0  0  0
 24 43  1  0  0  0  0
 24 44  1  0  0  0  0
 25 22  1  0  0  0  0
 25 27  2  0  0  0  0
 25 45  1  0  0  0  0
 26 23  2  0  0  0  0
 26 46  1  0  0  0  0
 27 26  1  0  0  0  0
 27 47  1  0  0  0  0
M  END
>  <Mol_ID>
8936

>  <Formula>
C21H20N2O3S

>  <MolWeight>
380.4601

>  <Cat>
P2495

>  <Name>
WAY-326771

>  <Synonyms>
N/A

>  <Target>
Anti-infection

>  <Form>
free base

>  <CAS>
1009762-84-8

>  <URL>
N/A

$$$$
