WAY-639461
 OpenBabel08302521433D

 26 28  0  0  0  0  0  0  0  0999 V2000
   -0.2537    0.8377   -1.0484 C   0  0  0  0  0  0  0  0  0  0  0  0
    0.6476    1.2569   -0.0854 C   0  0  0  0  0  0  0  0  0  0  0  0
    0.9293    0.3993    0.9702 C   0  0  0  0  0  0  0  0  0  0  0  0
    0.3009   -0.8424    1.0255 C   0  0  0  0  0  0  0  0  0  0  0  0
   -0.5932   -1.1908    0.0146 C   0  0  0  0  0  0  0  0  0  0  0  0
   -0.8762   -0.3600   -1.0235 N   0  0  0  0  0  0  0  0  0  0  0  0
   -1.2708   -2.4897    0.0471 C   0  0  0  0  0  0  0  0  0  0  0  0
   -1.1086   -3.3785    1.0973 N   0  0  0  0  0  0  0  0  0  0  0  0
   -1.8808   -4.3823    0.7463 C   0  0  0  0  0  0  0  0  0  0  0  0
   -2.5023   -4.1833   -0.4523 O   0  0  0  0  0  0  0  0  0  0  0  0
   -2.1003   -2.9346   -0.9128 N   0  0  0  0  0  0  0  0  0  0  0  0
   -2.1798   -5.6225    1.4505 C   0  0  0  0  0  0  0  0  0  0  0  0
   -1.6286   -5.8520    2.7207 C   0  0  0  0  0  0  0  0  0  0  0  0
   -1.9306   -7.0166    3.4311 C   0  0  0  0  0  0  0  0  0  0  0  0
   -2.7837   -7.9685    2.8770 C   0  0  0  0  0  0  0  0  0  0  0  0
   -3.3278   -7.7621    1.6114 C   0  0  0  0  0  0  0  0  0  0  0  0
   -3.0271   -6.5972    0.9021 C   0  0  0  0  0  0  0  0  0  0  0  0
   -0.5085    1.4723   -1.8931 H   0  0  0  0  0  0  0  0  0  0  0  0
    1.1196    2.2313   -0.1571 H   0  0  0  0  0  0  0  0  0  0  0  0
    1.6318    0.6914    1.7453 H   0  0  0  0  0  0  0  0  0  0  0  0
    0.5093   -1.5239    1.8446 H   0  0  0  0  0  0  0  0  0  0  0  0
   -0.9638   -5.1156    3.1702 H   0  0  0  0  0  0  0  0  0  0  0  0
   -1.5043   -7.1770    4.4182 H   0  0  0  0  0  0  0  0  0  0  0  0
   -3.0264   -8.8712    3.4321 H   0  0  0  0  0  0  0  0  0  0  0  0
   -3.9922   -8.5048    1.1763 H   0  0  0  0  0  0  0  0  0  0  0  0
   -3.4687   -6.4598   -0.0834 H   0  0  0  0  0  0  0  0  0  0  0  0
  1  2  2  0  0  0  0
  1 18  1  0  0  0  0
  2  3  1  0  0  0  0
  2 19  1  0  0  0  0
  3  4  2  0  0  0  0
  3 20  1  0  0  0  0
  4  5  1  0  0  0  0
  4 21  1  0  0  0  0
  5  6  2  0  0  0  0
  5  7  1  0  0  0  0
  6  1  1  0  0  0  0
  7  8  1  0  0  0  0
  8  9  2  0  0  0  0
  9 10  1  0  0  0  0
  9 12  1  0  0  0  0
 10 11  1  0  0  0  0
 11  7  2  0  0  0  0
 12 13  2  0  0  0  0
 13 14  1  0  0  0  0
 13 22  1  0  0  0  0
 14 15  2  0  0  0  0
 14 23  1  0  0  0  0
 15 16  1  0  0  0  0
 15 24  1  0  0  0  0
 16 17  2  0  0  0  0
 16 25  1  0  0  0  0
 17 12  1  0  0  0  0
 17 26  1  0  0  0  0
M  END
>  <Mol_ID>
8814

>  <Formula>
C13H7Cl2N3O

>  <MolWeight>
292.12018

>  <Cat>
P3079

>  <Name>
WAY-639461

>  <Synonyms>
N/A

>  <Target>
mGluR5

>  <Form>
free base

>  <CAS>
339103-05-8

>  <URL>
N/A

$$$$
