WAY-324093
 OpenBabel08302521423D

 50 53  0  0  0  0  0  0  0  0999 V2000
   -0.0780   -0.2724    0.0280 C   0  0  0  0  0  0  0  0  0  0  0  0
   -1.4099    0.2977    0.0011 C   0  0  0  0  0  0  0  0  0  0  0  0
    1.2393    0.2839    0.0147 C   0  0  0  0  0  0  0  0  0  0  0  0
   -0.1570   -1.6557    0.0573 C   0  0  0  0  0  0  0  0  0  0  0  0
   -2.4015   -0.6694    0.0799 C   0  0  0  0  0  0  0  0  0  0  0  0
   -1.7141    1.6228   -0.0802 N   0  0  0  0  0  0  0  0  0  0  0  0
    2.3404   -0.6194   -0.0228 C   0  0  0  0  0  0  0  0  0  0  0  0
    1.4736    1.7800    0.0105 C   0  0  0  0  0  0  0  0  0  0  0  0
   -1.7383   -2.2530    0.1322 S   0  0  0  0  0  0  0  0  0  0  0  0
    0.8580   -2.5343    0.0537 N   0  0  0  0  0  0  0  0  0  0  0  0
   -3.7584   -0.3113    0.0831 C   0  0  0  0  0  0  0  0  0  0  0  0
   -3.0330    1.8787   -0.1081 C   0  0  0  0  0  0  0  0  0  0  0  0
    2.0903   -1.9984    0.0180 C   0  0  0  0  0  0  0  0  0  0  0  0
    3.7650   -0.1069   -0.0301 C   0  0  0  0  0  0  0  0  0  0  0  0
    2.8929    2.1855    0.3959 C   0  0  0  0  0  0  0  0  0  0  0  0
   -4.0464    1.0055   -0.0575 N   0  0  0  0  0  0  0  0  0  0  0  0
   -4.7424   -1.2599    0.2790 N   0  0  0  0  0  0  0  0  0  0  0  0
    3.1950   -3.0323    0.0333 C   0  0  0  0  0  0  0  0  0  0  0  0
    3.8956    1.3665   -0.3969 C   0  0  0  0  0  0  0  0  0  0  0  0
   -6.0672   -1.1575   -0.2991 C   0  0  0  0  0  0  0  0  0  0  0  0
    3.5887   -3.4733   -1.3684 C   0  0  0  0  0  0  0  0  0  0  0  0
   -6.6258   -2.5804   -0.6155 C   0  0  0  0  0  0  0  0  0  0  0  0
   -6.6761   -3.5295    0.5263 N   0  0  0  0  0  0  0  0  0  0  0  0
   -7.5735   -3.0438    1.5770 C   0  0  0  0  0  0  0  0  0  0  0  0
   -7.1379   -4.8489    0.0708 C   0  0  0  0  0  0  0  0  0  0  0  0
    0.7813    2.2662    0.7088 H   0  0  0  0  0  0  0  0  0  0  0  0
    1.2499    2.1558   -0.9958 H   0  0  0  0  0  0  0  0  0  0  0  0
   -3.3147    2.9226   -0.1798 H   0  0  0  0  0  0  0  0  0  0  0  0
    4.3731   -0.6787   -0.7391 H   0  0  0  0  0  0  0  0  0  0  0  0
    4.1850   -0.2646    0.9715 H   0  0  0  0  0  0  0  0  0  0  0  0
    3.0542    2.0271    1.4701 H   0  0  0  0  0  0  0  0  0  0  0  0
    3.0404    3.2533    0.2013 H   0  0  0  0  0  0  0  0  0  0  0  0
   -4.4632   -2.1831    0.5899 H   0  0  0  0  0  0  0  0  0  0  0  0
    4.0684   -2.6696    0.5842 H   0  0  0  0  0  0  0  0  0  0  0  0
    2.8426   -3.9110    0.5896 H   0  0  0  0  0  0  0  0  0  0  0  0
    3.7191    1.5034   -1.4708 H   0  0  0  0  0  0  0  0  0  0  0  0
    4.9176    1.7058   -0.1922 H   0  0  0  0  0  0  0  0  0  0  0  0
   -6.7268   -0.6340    0.3994 H   0  0  0  0  0  0  0  0  0  0  0  0
   -6.0571   -0.5839   -1.2340 H   0  0  0  0  0  0  0  0  0  0  0  0
    3.9991   -2.6431   -1.9517 H   0  0  0  0  0  0  0  0  0  0  0  0
    4.3503   -4.2578   -1.3160 H   0  0  0  0  0  0  0  0  0  0  0  0
    2.7284   -3.8727   -1.9164 H   0  0  0  0  0  0  0  0  0  0  0  0
   -7.6242   -2.4698   -1.0579 H   0  0  0  0  0  0  0  0  0  0  0  0
   -5.9819   -3.0205   -1.3896 H   0  0  0  0  0  0  0  0  0  0  0  0
   -8.5915   -2.8845    1.2044 H   0  0  0  0  0  0  0  0  0  0  0  0
   -7.6194   -3.7588    2.4067 H   0  0  0  0  0  0  0  0  0  0  0  0
   -7.2053   -2.1090    2.0096 H   0  0  0  0  0  0  0  0  0  0  0  0
   -8.0478   -4.7854   -0.5378 H   0  0  0  0  0  0  0  0  0  0  0  0
   -6.3590   -5.3469   -0.5176 H   0  0  0  0  0  0  0  0  0  0  0  0
   -7.3530   -5.5103    0.9197 H   0  0  0  0  0  0  0  0  0  0  0  0
  1  2  1  0  0  0  0
  1  3  2  0  0  0  0
  1  4  1  0  0  0  0
  2  5  1  0  0  0  0
  2  6  2  0  0  0  0
  3  7  1  0  0  0  0
  3  8  1  0  0  0  0
  4  9  1  0  0  0  0
  4 10  2  0  0  0  0
  5 11  2  0  0  0  0
  5  9  1  0  0  0  0
  6 12  1  0  0  0  0
  7 13  2  0  0  0  0
  7 14  1  0  0  0  0
  8 15  1  0  0  0  0
  8 26  1  0  0  0  0
  8 27  1  0  0  0  0
 10 13  1  0  0  0  0
 11 16  1  0  0  0  0
 11 17  1  0  0  0  0
 12 16  2  0  0  0  0
 12 28  1  0  0  0  0
 13 18  1  0  0  0  0
 14 19  1  0  0  0  0
 14 29  1  0  0  0  0
 14 30  1  0  0  0  0
 15 19  1  0  0  0  0
 15 31  1  0  0  0  0
 15 32  1  0  0  0  0
 17 20  1  0  0  0  0
 17 33  1  0  0  0  0
 18 21  1  0  0  0  0
 18 34  1  0  0  0  0
 18 35  1  0  0  0  0
 19 36  1  0  0  0  0
 19 37  1  0  0  0  0
 20 22  1  0  0  0  0
 20 38  1  0  0  0  0
 20 39  1  0  0  0  0
 21 40  1  0  0  0  0
 21 41  1  0  0  0  0
 21 42  1  0  0  0  0
 22 23  1  0  0  0  0
 22 43  1  0  0  0  0
 22 44  1  0  0  0  0
 23 24  1  0  0  0  0
 23 25  1  0  0  0  0
 24 45  1  0  0  0  0
 24 46  1  0  0  0  0
 24 47  1  0  0  0  0
 25 48  1  0  0  0  0
 25 49  1  0  0  0  0
 25 50  1  0  0  0  0
M  END
>  <Mol_ID>
8604

>  <Formula>
C19H25N5S

>  <MolWeight>
355.5003

>  <Cat>
P2298

>  <Name>
WAY-324093

>  <Synonyms>
N/A

>  <Target>
acetylcholinesterase

>  <Form>
free base

>  <CAS>
372171-81-8

>  <URL>
N/A

$$$$
