WAY-262611
 OpenBabel08302521313D

 46 49  0  0  0  0  0  0  0  0999 V2000
    1.3735    0.0217    0.2633 N   0  0  0  0  0  0  0  0  0  0  0  0
    0.1598    0.7073    0.6645 C   0  0  0  0  0  0  0  0  0  0  0  0
   -0.9999   -0.2890    0.6914 C   0  0  0  0  0  0  0  0  0  0  0  0
   -1.1278   -1.0700   -0.6326 C   0  0  0  0  0  0  0  0  0  0  0  0
    0.2281   -1.6891   -1.0268 C   0  0  0  0  0  0  0  0  0  0  0  0
    1.3533   -0.6547   -1.0220 C   0  0  0  0  0  0  0  0  0  0  0  0
   -2.1903   -2.1798   -0.5517 C   0  0  0  0  0  0  0  0  0  0  0  0
   -3.5251   -1.6595   -0.2752 N   0  0  0  0  0  0  0  0  0  0  0  0
    2.4732   -0.0343    1.0829 C   0  0  0  0  0  0  0  0  0  0  0  0
    2.4288    0.5584    2.2890 N   0  0  0  0  0  0  0  0  0  0  0  0
    3.5171    0.4968    3.0908 C   0  0  0  0  0  0  0  0  0  0  0  0
    4.6757   -0.1312    2.6837 C   0  0  0  0  0  0  0  0  0  0  0  0
    4.6398   -0.7148    1.4469 C   0  0  0  0  0  0  0  0  0  0  0  0
    3.5637   -0.6845    0.6476 N   0  0  0  0  0  0  0  0  0  0  0  0
    2.5493    2.2339    4.6415 C   0  0  0  0  0  0  0  0  0  0  0  0
    3.3803    1.1152    4.4296 C   0  0  0  0  0  0  0  0  0  0  0  0
    4.0639    0.6014    5.5460 C   0  0  0  0  0  0  0  0  0  0  0  0
    3.9356    1.1776    6.8133 C   0  0  0  0  0  0  0  0  0  0  0  0
    3.1098    2.2883    7.0105 C   0  0  0  0  0  0  0  0  0  0  0  0
    2.9694    2.8689    8.2820 C   0  0  0  0  0  0  0  0  0  0  0  0
    2.1379    3.9713    8.4716 C   0  0  0  0  0  0  0  0  0  0  0  0
    1.4407    4.5076    7.3941 C   0  0  0  0  0  0  0  0  0  0  0  0
    1.5728    3.9408    6.1234 C   0  0  0  0  0  0  0  0  0  0  0  0
    2.4038    2.8269    5.9139 C   0  0  0  0  0  0  0  0  0  0  0  0
   -0.0555    1.5022   -0.0608 H   0  0  0  0  0  0  0  0  0  0  0  0
    0.2290    1.1967    1.6421 H   0  0  0  0  0  0  0  0  0  0  0  0
   -1.9239    0.2628    0.8983 H   0  0  0  0  0  0  0  0  0  0  0  0
   -0.8517   -0.9941    1.5191 H   0  0  0  0  0  0  0  0  0  0  0  0
   -1.4181   -0.3624   -1.4219 H   0  0  0  0  0  0  0  0  0  0  0  0
    0.4803   -2.4975   -0.3273 H   0  0  0  0  0  0  0  0  0  0  0  0
    0.1563   -2.1400   -2.0236 H   0  0  0  0  0  0  0  0  0  0  0  0
    2.2929   -1.1576   -1.2764 H   0  0  0  0  0  0  0  0  0  0  0  0
    1.1793    0.0850   -1.8132 H   0  0  0  0  0  0  0  0  0  0  0  0
   -2.2249   -2.7226   -1.5036 H   0  0  0  0  0  0  0  0  0  0  0  0
   -1.9216   -2.9068    0.2240 H   0  0  0  0  0  0  0  0  0  0  0  0
   -4.1804   -2.4390   -0.2195 H   0  0  0  0  0  0  0  0  0  0  0  0
   -3.5407   -1.2244    0.6462 H   0  0  0  0  0  0  0  0  0  0  0  0
    5.5705   -0.1695    3.2884 H   0  0  0  0  0  0  0  0  0  0  0  0
    5.4996   -1.2436    1.0477 H   0  0  0  0  0  0  0  0  0  0  0  0
    2.0030    2.6482    3.7959 H   0  0  0  0  0  0  0  0  0  0  0  0
    4.6953   -0.2784    5.4532 H   0  0  0  0  0  0  0  0  0  0  0  0
    4.4818    0.7416    7.6458 H   0  0  0  0  0  0  0  0  0  0  0  0
    3.5067    2.4606    9.1356 H   0  0  0  0  0  0  0  0  0  0  0  0
    2.0353    4.4096    9.4612 H   0  0  0  0  0  0  0  0  0  0  0  0
    0.7915    5.3668    7.5402 H   0  0  0  0  0  0  0  0  0  0  0  0
    1.0179    4.3745    5.2943 H   0  0  0  0  0  0  0  0  0  0  0  0
  1  2  1  0  0  0  0
  1  6  1  0  0  0  0
  1  9  1  0  0  0  0
  2  3  1  0  0  0  0
  2 25  1  0  0  0  0
  2 26  1  0  0  0  0
  3  4  1  0  0  0  0
  3 27  1  0  0  0  0
  3 28  1  0  0  0  0
  4  5  1  0  0  0  0
  4  7  1  0  0  0  0
  4 29  1  0  0  0  0
  5  6  1  0  0  0  0
  5 30  1  0  0  0  0
  5 31  1  0  0  0  0
  6 32  1  0  0  0  0
  6 33  1  0  0  0  0
  7  8  1  0  0  0  0
  7 34  1  0  0  0  0
  7 35  1  0  0  0  0
  8 36  1  0  0  0  0
  8 37  1  0  0  0  0
  9 10  2  0  0  0  0
  9 14  1  0  0  0  0
 10 11  1  0  0  0  0
 11 12  2  0  0  0  0
 11 16  1  0  0  0  0
 12 13  1  0  0  0  0
 12 38  1  0  0  0  0
 13 14  2  0  0  0  0
 13 39  1  0  0  0  0
 15 16  2  0  0  0  0
 15 24  1  0  0  0  0
 15 40  1  0  0  0  0
 16 17  1  0  0  0  0
 17 18  2  0  0  0  0
 17 41  1  0  0  0  0
 18 19  1  0  0  0  0
 18 42  1  0  0  0  0
 19 20  1  0  0  0  0
 19 24  2  0  0  0  0
 20 21  2  0  0  0  0
 20 43  1  0  0  0  0
 21 22  1  0  0  0  0
 21 44  1  0  0  0  0
 22 23  2  0  0  0  0
 22 45  1  0  0  0  0
 23 24  1  0  0  0  0
 23 46  1  0  0  0  0
M  END
>  <Mol_ID>
5925

>  <Formula>
C20H22N4

>  <MolWeight>
318.41548

>  <Cat>
S9828

>  <Name>
WAY-262611

>  <Synonyms>
BML-WN110

>  <Target>
Wnt/beta-catenin

>  <Form>
Free Base

>  <CAS>
1123231-07-1

>  <URL>
http://www.selleckchem.com/products/way-262611.html

$$$$
