WAY-299905
 OpenBabel08302521413D

 48 51  0  0  0  0  0  0  0  0999 V2000
   -1.4257    0.8559    0.0415 C   0  0  0  0  0  0  0  0  0  0  0  0
   -0.5156    2.0834    0.0605 C   0  0  3  0  0  0  0  0  0  0  0  0
   -1.2000   -0.3596   -0.5150 C   0  0  0  0  0  0  0  0  0  0  0  0
   -2.7172    1.0606    0.7915 C   0  0  0  0  0  0  0  0  0  0  0  0
   -1.2076    3.2815   -0.6266 C   0  0  0  0  0  0  0  0  0  0  0  0
    0.7977    1.9303   -0.6082 N   0  0  0  0  0  0  0  0  0  0  0  0
   -0.0078   -0.7484   -1.1210 N   0  0  0  0  0  0  0  0  0  0  0  0
   -2.2326   -1.4844   -0.4722 C   0  0  0  0  0  0  0  0  0  0  0  0
   -3.8250    0.0440    0.6226 C   0  0  0  0  0  0  0  0  0  0  0  0
   -2.8772    2.0280    1.5326 O   0  0  0  0  0  0  0  0  0  0  0  0
   -1.5141    4.4404    0.1109 C   0  0  0  0  0  0  0  0  0  0  0  0
   -1.6141    3.2170   -1.9751 C   0  0  0  0  0  0  0  0  0  0  0  0
    1.5971    0.8495   -0.1753 C   0  0  0  0  0  0  0  0  0  0  0  0
    1.2275   -0.4757   -0.4747 C   0  0  0  0  0  0  0  0  0  0  0  0
   -3.2542   -1.3724    0.6693 C   0  0  0  0  0  0  0  0  0  0  0  0
   -2.2699    5.4743   -0.4543 C   0  0  0  0  0  0  0  0  0  0  0  0
   -2.3631    4.2489   -2.5504 C   0  0  0  0  0  0  0  0  0  0  0  0
    2.8208    1.0932    0.4528 C   0  0  0  0  0  0  0  0  0  0  0  0
    2.0654   -1.5352   -0.0997 C   0  0  0  0  0  0  0  0  0  0  0  0
   -2.5919   -1.6580    2.0347 C   0  0  0  0  0  0  0  0  0  0  0  0
   -4.3762   -2.4038    0.4637 C   0  0  0  0  0  0  0  0  0  0  0  0
   -2.7129    5.3616   -1.7769 C   0  0  0  0  0  0  0  0  0  0  0  0
    3.6647    0.0317    0.7944 C   0  0  0  0  0  0  0  0  0  0  0  0
    3.2857   -1.2821    0.5269 C   0  0  0  0  0  0  0  0  0  0  0  0
   -3.5901    6.3938   -2.3441 N   0  3  0  0  0  0  0  0  0  0  0  0
   -3.9048    7.3493   -1.6202 O   0  0  0  0  0  0  0  0  0  0  0  0
   -3.9798    6.2408   -3.5113 O   0  5  0  0  0  0  0  0  0  0  0  0
   -0.3150    2.3458    1.1084 H   0  0  0  0  0  0  0  0  0  0  0  0
    0.6146    1.7352   -1.5918 H   0  0  0  0  0  0  0  0  0  0  0  0
   -0.0247   -1.7122   -1.4485 H   0  0  0  0  0  0  0  0  0  0  0  0
   -1.7235   -2.4538   -0.3826 H   0  0  0  0  0  0  0  0  0  0  0  0
   -2.7459   -1.4950   -1.4440 H   0  0  0  0  0  0  0  0  0  0  0  0
   -4.3261    0.2477   -0.3326 H   0  0  0  0  0  0  0  0  0  0  0  0
   -4.5650    0.1889    1.4186 H   0  0  0  0  0  0  0  0  0  0  0  0
   -1.2091    4.5202    1.1533 H   0  0  0  0  0  0  0  0  0  0  0  0
   -1.3766    2.3434   -2.5800 H   0  0  0  0  0  0  0  0  0  0  0  0
   -2.5268    6.3368    0.1574 H   0  0  0  0  0  0  0  0  0  0  0  0
   -2.6819    4.1588   -3.5868 H   0  0  0  0  0  0  0  0  0  0  0  0
    3.1365    2.1147    0.6455 H   0  0  0  0  0  0  0  0  0  0  0  0
    1.7756   -2.5645   -0.2913 H   0  0  0  0  0  0  0  0  0  0  0  0
   -3.3097   -1.5242    2.8517 H   0  0  0  0  0  0  0  0  0  0  0  0
   -2.2199   -2.6875    2.0816 H   0  0  0  0  0  0  0  0  0  0  0  0
   -1.7401   -1.0010    2.2376 H   0  0  0  0  0  0  0  0  0  0  0  0
   -4.8876   -2.2579   -0.4939 H   0  0  0  0  0  0  0  0  0  0  0  0
   -3.9771   -3.4250    0.4752 H   0  0  0  0  0  0  0  0  0  0  0  0
   -5.1275   -2.3328    1.2586 H   0  0  0  0  0  0  0  0  0  0  0  0
    4.6281    0.2323    1.2577 H   0  0  0  0  0  0  0  0  0  0  0  0
    3.9360   -2.1059    0.8027 H   0  0  0  0  0  0  0  0  0  0  0  0
  1  2  1  0  0  0  0
  1  3  2  0  0  0  0
  1  4  1  0  0  0  0
  2  5  1  0  0  0  0
  2  6  1  0  0  0  0
  2 28  1  0  0  0  0
  3  7  1  0  0  0  0
  3  8  1  0  0  0  0
  4  9  1  0  0  0  0
  4 10  2  0  0  0  0
  5 11  2  0  0  0  0
  5 12  1  0  0  0  0
  6 13  1  0  0  0  0
  6 29  1  0  0  0  0
  7 14  1  0  0  0  0
  7 30  1  0  0  0  0
  8 15  1  0  0  0  0
  8 31  1  0  0  0  0
  8 32  1  0  0  0  0
  9 15  1  0  0  0  0
  9 33  1  0  0  0  0
  9 34  1  0  0  0  0
 11 16  1  0  0  0  0
 11 35  1  0  0  0  0
 12 17  2  0  0  0  0
 12 36  1  0  0  0  0
 13 18  1  0  0  0  0
 13 14  2  0  0  0  0
 14 19  1  0  0  0  0
 15 20  1  0  0  0  0
 15 21  1  0  0  0  0
 16 22  2  0  0  0  0
 16 37  1  0  0  0  0
 17 22  1  0  0  0  0
 17 38  1  0  0  0  0
 18 23  2  0  0  0  0
 18 39  1  0  0  0  0
 19 24  2  0  0  0  0
 19 40  1  0  0  0  0
 20 41  1  0  0  0  0
 20 42  1  0  0  0  0
 20 43  1  0  0  0  0
 21 44  1  0  0  0  0
 21 45  1  0  0  0  0
 21 46  1  0  0  0  0
 22 25  1  0  0  0  0
 23 24  1  0  0  0  0
 23 47  1  0  0  0  0
 24 48  1  0  0  0  0
 25 26  2  0  0  0  0
 25 27  1  0  0  0  0
M  CHG  2  25   1  27  -1
M  END
>  <Mol_ID>
8397

>  <Formula>
C21H21N3O3

>  <MolWeight>
363.40974

>  <Cat>
P2123

>  <Name>
WAY-299905

>  <Synonyms>
N/A

>  <Target>
a-glucosidase,HCV

>  <Form>
free base

>  <CAS>
82408-04-6

>  <URL>
N/A

$$$$
