WAY-640257
 OpenBabel08302521443D

 38 39  0  0  0  0  0  0  0  0999 V2000
    0.3986    0.6891    2.3073 S   0  0  0  0  0  0  0  0  0  0  0  0
    1.9538    1.1874    2.8745 C   0  0  0  0  0  0  0  0  0  0  0  0
    2.8220    1.9658    2.1372 C   0  0  0  0  0  0  0  0  0  0  0  0
    2.5032    0.8206    4.1405 C   0  0  0  0  0  0  0  0  0  0  0  0
    4.2954    2.2398    2.9648 S   0  0  0  0  0  0  0  0  0  0  0  0
    3.7733    1.3255    4.3149 C   0  0  0  0  0  0  0  0  0  0  0  0
    0.6055   -0.6904    1.3429 N   0  0  0  0  0  0  0  0  0  0  0  0
    2.1496   -5.6828    3.6527 C   0  0  0  0  0  0  0  0  0  0  0  0
   -0.0276    1.7471    1.4211 O   0  0  0  0  0  0  0  0  0  0  0  0
   -0.3549    0.3406    3.4907 O   0  0  0  0  0  0  0  0  0  0  0  0
    1.7207   -4.3695    3.0913 C   0  0  0  0  0  0  0  0  0  0  0  0
    3.2707   -5.8130    4.1297 O   0  0  0  0  0  0  0  0  0  0  0  0
    0.9700   -1.9060    1.9902 C   0  0  0  0  0  0  0  0  0  0  0  0
    1.2210   -6.6983    3.5957 N   0  0  0  0  0  0  0  0  0  0  0  0
    2.6879   -3.5151    2.5483 C   0  0  0  0  0  0  0  0  0  0  0  0
    0.3822   -3.9525    3.1376 C   0  0  0  0  0  0  0  0  0  0  0  0
    0.0075   -2.7230    2.5851 C   0  0  0  0  0  0  0  0  0  0  0  0
    2.3123   -2.2836    2.0011 C   0  0  0  0  0  0  0  0  0  0  0  0
   -0.7228   -7.4752    5.5619 O   0  0  0  0  0  0  0  0  0  0  0  0
    1.3479   -7.9077    4.3916 C   0  0  0  0  0  0  0  0  0  0  0  0
    0.6757   -7.7359    5.7567 C   0  0  0  0  0  0  0  0  0  0  0  0
   -1.3871   -7.2610    6.8021 C   0  0  0  0  0  0  0  0  0  0  0  0
    2.6635    2.3852    1.1514 H   0  0  0  0  0  0  0  0  0  0  0  0
    1.9931    0.2137    4.8806 H   0  0  0  0  0  0  0  0  0  0  0  0
    4.4248    1.2014    5.1701 H   0  0  0  0  0  0  0  0  0  0  0  0
   -0.1935   -0.7732    0.7147 H   0  0  0  0  0  0  0  0  0  0  0  0
    0.3074   -6.5342    3.1969 H   0  0  0  0  0  0  0  0  0  0  0  0
    3.7344   -3.8145    2.5310 H   0  0  0  0  0  0  0  0  0  0  0  0
   -0.3782   -4.5657    3.6162 H   0  0  0  0  0  0  0  0  0  0  0  0
   -1.0357   -2.4176    2.6290 H   0  0  0  0  0  0  0  0  0  0  0  0
    3.0678   -1.6393    1.5594 H   0  0  0  0  0  0  0  0  0  0  0  0
    0.8551   -8.7052    3.8257 H   0  0  0  0  0  0  0  0  0  0  0  0
    2.4048   -8.1611    4.5208 H   0  0  0  0  0  0  0  0  0  0  0  0
    0.7877   -8.6573    6.3386 H   0  0  0  0  0  0  0  0  0  0  0  0
    1.1290   -6.9030    6.3064 H   0  0  0  0  0  0  0  0  0  0  0  0
   -1.2374   -8.1123    7.4732 H   0  0  0  0  0  0  0  0  0  0  0  0
   -1.0264   -6.3414    7.2728 H   0  0  0  0  0  0  0  0  0  0  0  0
   -2.4579   -7.1556    6.6066 H   0  0  0  0  0  0  0  0  0  0  0  0
  2  1  1  0  0  0  0
  3  2  2  0  0  0  0
  3 23  1  0  0  0  0
  4  2  1  0  0  0  0
  4 24  1  0  0  0  0
  5  3  1  0  0  0  0
  5  6  1  0  0  0  0
  6  4  2  0  0  0  0
  6 25  1  0  0  0  0
  7  1  1  0  0  0  0
  7 26  1  0  0  0  0
  8 11  1  0  0  0  0
  9  1  2  0  0  0  0
 10  1  2  0  0  0  0
 11 15  2  0  0  0  0
 11 16  1  0  0  0  0
 12  8  2  0  0  0  0
 13  7  1  0  0  0  0
 14  8  1  0  0  0  0
 14 27  1  0  0  0  0
 15 18  1  0  0  0  0
 15 28  1  0  0  0  0
 16 17  2  0  0  0  0
 16 29  1  0  0  0  0
 17 13  1  0  0  0  0
 17 30  1  0  0  0  0
 18 13  2  0  0  0  0
 18 31  1  0  0  0  0
 19 21  1  0  0  0  0
 20 14  1  0  0  0  0
 20 32  1  0  0  0  0
 20 33  1  0  0  0  0
 21 20  1  0  0  0  0
 21 34  1  0  0  0  0
 21 35  1  0  0  0  0
 22 19  1  0  0  0  0
 22 36  1  0  0  0  0
 22 37  1  0  0  0  0
 22 38  1  0  0  0  0
M  END
>  <Mol_ID>
9094

>  <Formula>
C14H14Cl2N2O4S2

>  <MolWeight>
409.30796

>  <Cat>
P3101

>  <Name>
WAY-640257

>  <Synonyms>
N/A

>  <Target>
TcTS

>  <Form>
free base

>  <CAS>
796858-11-2

>  <URL>
N/A

$$$$
