WAY-607695
 OpenBabel08302521433D

 29 30  0  0  0  0  0  0  0  0999 V2000
   -0.2134    1.2372   -0.2207 C   0  0  0  0  0  0  0  0  0  0  0  0
   -0.6045    2.6207   -0.4021 C   0  0  0  0  0  0  0  0  0  0  0  0
    0.9524    0.5773   -0.5659 C   0  0  0  0  0  0  0  0  0  0  0  0
   -1.0731    0.3537    0.3834 O   0  0  0  0  0  0  0  0  0  0  0  0
   -1.8350    2.9489    0.1290 N   0  0  0  0  0  0  0  0  0  0  0  0
    0.0964    3.4477   -0.9825 O   0  0  0  0  0  0  0  0  0  0  0  0
    0.7984   -0.7695   -0.1613 C   0  0  0  0  0  0  0  0  0  0  0  0
   -0.4489   -0.8556    0.4096 C   0  0  0  0  0  0  0  0  0  0  0  0
   -2.3885    4.2884    0.0392 C   0  0  0  0  0  0  0  0  0  0  0  0
   -3.1706    4.5029   -1.2585 C   0  0  0  0  0  0  0  0  0  0  0  0
   -3.7373    5.8984   -1.3817 C   0  0  0  0  0  0  0  0  0  0  0  0
   -2.9955    6.9094   -2.0139 C   0  0  0  0  0  0  0  0  0  0  0  0
   -5.0113    6.2026   -0.8767 C   0  0  0  0  0  0  0  0  0  0  0  0
   -3.5302    8.1900   -2.1640 C   0  0  0  0  0  0  0  0  0  0  0  0
   -5.5427    7.4855   -1.0268 C   0  0  0  0  0  0  0  0  0  0  0  0
   -4.8004    8.4656   -1.6749 C   0  0  0  0  0  0  0  0  0  0  0  0
   -5.3184    9.6908   -1.8323 F   0  0  0  0  0  0  0  0  0  0  0  0
    1.8053    1.0310   -1.0525 H   0  0  0  0  0  0  0  0  0  0  0  0
   -2.3697    2.2017    0.5578 H   0  0  0  0  0  0  0  0  0  0  0  0
    1.5093   -1.5767   -0.2724 H   0  0  0  0  0  0  0  0  0  0  0  0
   -1.0100   -1.6642    0.8577 H   0  0  0  0  0  0  0  0  0  0  0  0
   -3.0374    4.4267    0.9108 H   0  0  0  0  0  0  0  0  0  0  0  0
   -1.5705    5.0142    0.1163 H   0  0  0  0  0  0  0  0  0  0  0  0
   -2.5305    4.2958   -2.1259 H   0  0  0  0  0  0  0  0  0  0  0  0
   -3.9892    3.7740   -1.3235 H   0  0  0  0  0  0  0  0  0  0  0  0
   -2.0013    6.6989   -2.4045 H   0  0  0  0  0  0  0  0  0  0  0  0
   -5.6037    5.4399   -0.3763 H   0  0  0  0  0  0  0  0  0  0  0  0
   -2.9667    8.9712   -2.6658 H   0  0  0  0  0  0  0  0  0  0  0  0
   -6.5323    7.7257   -0.6508 H   0  0  0  0  0  0  0  0  0  0  0  0
  1  2  1  0  0  0  0
  1  3  2  0  0  0  0
  1  4  1  0  0  0  0
  2  5  1  0  0  0  0
  2  6  2  0  0  0  0
  3  7  1  0  0  0  0
  3 18  1  0  0  0  0
  4  8  1  0  0  0  0
  5  9  1  0  0  0  0
  5 19  1  0  0  0  0
  7  8  2  0  0  0  0
  7 20  1  0  0  0  0
  8 21  1  0  0  0  0
  9 10  1  0  0  0  0
  9 22  1  0  0  0  0
  9 23  1  0  0  0  0
 10 11  1  0  0  0  0
 10 24  1  0  0  0  0
 10 25  1  0  0  0  0
 11 12  2  0  0  0  0
 11 13  1  0  0  0  0
 12 14  1  0  0  0  0
 12 26  1  0  0  0  0
 13 15  2  0  0  0  0
 13 27  1  0  0  0  0
 14 16  2  0  0  0  0
 14 28  1  0  0  0  0
 15 16  1  0  0  0  0
 15 29  1  0  0  0  0
 16 17  1  0  0  0  0
M  END
>  <Mol_ID>
8752

>  <Formula>
C13H12FNO2

>  <MolWeight>
233.2382832

>  <Cat>
P2899

>  <Name>
WAY-607695

>  <Synonyms>
N/A

>  <Target>
melanin

>  <Form>
free base

>  <CAS>
380469-52-3

>  <URL>
N/A

$$$$
