WAY-621746
 OpenBabel08302521443D

 23 24  0  0  0  0  0  0  0  0999 V2000
    0.1516   -0.7044    0.0019 C   0  0  0  0  0  0  0  0  0  0  0  0
    0.2556    0.6707    0.0007 C   0  0  0  0  0  0  0  0  0  0  0  0
    1.6727   -1.4573    0.0007 S   0  0  0  0  0  0  0  0  0  0  0  0
   -0.9895   -1.4404    0.0042 N   0  0  0  0  0  0  0  0  0  0  0  0
    1.6261    1.1218   -0.0002 C   0  0  0  0  0  0  0  0  0  0  0  0
   -0.9909    1.4205    0.0010 C   0  0  0  0  0  0  0  0  0  0  0  0
    2.5081    0.0405    0.0001 C   0  0  0  0  0  0  0  0  0  0  0  0
   -2.0829   -0.7439    0.0049 C   0  0  0  0  0  0  0  0  0  0  0  0
    2.0669    2.5551   -0.0010 C   0  0  0  0  0  0  0  0  0  0  0  0
   -2.1193    0.6303    0.0028 N   0  0  0  0  0  0  0  0  0  0  0  0
   -1.0758    2.6432    0.0002 O   0  0  0  0  0  0  0  0  0  0  0  0
    3.9675    0.0797    0.0003 C   0  0  0  0  0  0  0  0  0  0  0  0
   -3.4154   -1.4367    0.0092 C   0  0  0  0  0  0  0  0  0  0  0  0
    4.5420   -1.1525   -0.0010 O   0  0  0  0  0  0  0  0  0  0  0  0
    4.6521    1.0935    0.0015 O   0  0  0  0  0  0  0  0  0  0  0  0
    2.6690    2.7659    0.8890 H   0  0  0  0  0  0  0  0  0  0  0  0
    2.6684    2.7652   -0.8916 H   0  0  0  0  0  0  0  0  0  0  0  0
    1.2314    3.2564   -0.0009 H   0  0  0  0  0  0  0  0  0  0  0  0
   -2.9943    1.1334    0.0032 H   0  0  0  0  0  0  0  0  0  0  0  0
   -3.4907   -2.0728   -0.8775 H   0  0  0  0  0  0  0  0  0  0  0  0
   -3.4871   -2.0675    0.9001 H   0  0  0  0  0  0  0  0  0  0  0  0
   -4.2447   -0.7248    0.0090 H   0  0  0  0  0  0  0  0  0  0  0  0
    3.8726   -1.8640   -0.0022 H   0  0  0  0  0  0  0  0  0  0  0  0
  1  2  2  0  0  0  0
  1  3  1  0  0  0  0
  1  4  1  0  0  0  0
  2  5  1  0  0  0  0
  2  6  1  0  0  0  0
  3  7  1  0  0  0  0
  4  8  2  0  0  0  0
  5  9  1  0  0  0  0
  5  7  2  0  0  0  0
  6 10  1  0  0  0  0
  6 11  2  0  0  0  0
  7 12  1  0  0  0  0
  8 13  1  0  0  0  0
  8 10  1  0  0  0  0
  9 16  1  0  0  0  0
  9 17  1  0  0  0  0
  9 18  1  0  0  0  0
 10 19  1  0  0  0  0
 12 14  1  0  0  0  0
 12 15  2  0  0  0  0
 13 20  1  0  0  0  0
 13 21  1  0  0  0  0
 13 22  1  0  0  0  0
 14 23  1  0  0  0  0
M  END
>  <Mol_ID>
9055

>  <Formula>
C9H8N2O3S

>  <MolWeight>
224.23642

>  <Cat>
P2976

>  <Name>
WAY-621746

>  <Synonyms>
N/A

>  <Target>
Others

>  <Form>
free base

>  <CAS>
146628-89-9

>  <URL>
N/A

$$$$
