WAY-332028
 OpenBabel08302521443D

 49 51  0  0  0  0  0  0  0  0999 V2000
   -0.0184   -0.9922   -0.2276 C   0  0  0  0  0  0  0  0  0  0  0  0
   -0.4279    0.2218    0.0961 N   0  0  0  0  0  0  0  0  0  0  0  0
    0.6072    1.0528   -0.2874 C   0  0  0  0  0  0  0  0  0  0  0  0
    1.2478   -1.0203   -0.7589 O   0  0  0  0  0  0  0  0  0  0  0  0
   -0.7024   -2.2809   -0.1227 C   0  0  0  0  0  0  0  0  0  0  0  0
    1.6356    0.2882   -0.7969 C   0  0  0  0  0  0  0  0  0  0  0  0
   -0.2071    3.2742   -1.6250 S   0  0  3  0  0  0  0  0  0  0  0  0
    0.5277    2.5298   -0.1358 C   0  0  0  0  0  0  0  0  0  0  0  0
   -0.1865    5.0160   -1.1024 C   0  0  0  0  0  0  0  0  0  0  0  0
    1.1826    5.6233   -0.8802 C   0  0  0  0  0  0  0  0  0  0  0  0
   -1.9925   -2.3684    0.4099 C   0  0  0  0  0  0  0  0  0  0  0  0
    1.2740    6.9639   -0.6222 N   0  0  0  0  0  0  0  0  0  0  0  0
    0.7192    3.1012   -2.7927 O   0  0  0  0  0  0  0  0  0  0  0  0
    2.2369    4.9868   -0.8859 O   0  0  0  0  0  0  0  0  0  0  0  0
    0.2246    7.9481   -0.4503 C   0  0  0  0  0  0  0  0  0  0  0  0
   -2.6329   -1.2749    0.8525 F   0  0  0  0  0  0  0  0  0  0  0  0
   -0.1553    8.7080   -1.6974 C   0  0  0  0  0  0  0  0  0  0  0  0
   -1.0288   10.1256   -3.9849 C   0  0  0  0  0  0  0  0  0  0  0  0
   -0.1000   -3.4727   -0.5656 C   0  0  0  0  0  0  0  0  0  0  0  0
    0.4026    8.4517   -2.9562 C   0  0  0  0  0  0  0  0  0  0  0  0
   -1.1301    9.7151   -1.5962 C   0  0  0  0  0  0  0  0  0  0  0  0
   -0.0332    9.1494   -4.0878 C   0  0  0  0  0  0  0  0  0  0  0  0
   -1.5641   10.4138   -2.7268 C   0  0  0  0  0  0  0  0  0  0  0  0
    2.9655    0.5803   -1.3602 C   0  0  0  0  0  0  0  0  0  0  0  0
   -2.6638   -3.5887    0.5031 C   0  0  0  0  0  0  0  0  0  0  0  0
   -1.5419   10.8368   -5.2021 C   0  0  0  0  0  0  0  0  0  0  0  0
   -0.7674   -4.7009   -0.4755 C   0  0  0  0  0  0  0  0  0  0  0  0
   -2.0533   -4.7583    0.0594 C   0  0  0  0  0  0  0  0  0  0  0  0
   -0.1058    2.7846    0.7200 H   0  0  0  0  0  0  0  0  0  0  0  0
    1.5237    2.9359    0.0461 H   0  0  0  0  0  0  0  0  0  0  0  0
   -0.6888    5.5703   -1.9015 H   0  0  0  0  0  0  0  0  0  0  0  0
   -0.7798    5.0994   -0.1876 H   0  0  0  0  0  0  0  0  0  0  0  0
    2.2314    7.2886   -0.5379 H   0  0  0  0  0  0  0  0  0  0  0  0
    0.6005    8.6608    0.2934 H   0  0  0  0  0  0  0  0  0  0  0  0
   -0.6629    7.4566   -0.0391 H   0  0  0  0  0  0  0  0  0  0  0  0
    0.9009   -3.4559   -0.9928 H   0  0  0  0  0  0  0  0  0  0  0  0
    1.1768    7.6983   -3.0847 H   0  0  0  0  0  0  0  0  0  0  0  0
   -1.5705    9.9598   -0.6312 H   0  0  0  0  0  0  0  0  0  0  0  0
    0.4072    8.9132   -5.0541 H   0  0  0  0  0  0  0  0  0  0  0  0
   -2.3324   11.1773   -2.6213 H   0  0  0  0  0  0  0  0  0  0  0  0
    3.7421    0.0385   -0.8116 H   0  0  0  0  0  0  0  0  0  0  0  0
    3.0101    0.2789   -2.4109 H   0  0  0  0  0  0  0  0  0  0  0  0
    3.1962    1.6486   -1.3034 H   0  0  0  0  0  0  0  0  0  0  0  0
   -3.6676   -3.6138    0.9213 H   0  0  0  0  0  0  0  0  0  0  0  0
   -2.5968   10.5909   -5.3607 H   0  0  0  0  0  0  0  0  0  0  0  0
   -1.4387   11.9205   -5.0835 H   0  0  0  0  0  0  0  0  0  0  0  0
   -0.9901   10.5438   -6.1009 H   0  0  0  0  0  0  0  0  0  0  0  0
   -0.2827   -5.6094   -0.8261 H   0  0  0  0  0  0  0  0  0  0  0  0
   -2.5740   -5.7075    0.1292 H   0  0  0  0  0  0  0  0  0  0  0  0
  2  1  2  0  0  0  0
  3  2  1  0  0  0  0
  4  1  1  0  0  0  0
  5  1  1  0  0  0  0
  6  4  1  0  0  0  0
  6  3  2  0  0  0  0
  7  8  1  0  0  0  0
  8  3  1  0  0  0  0
  8 29  1  0  0  0  0
  8 30  1  0  0  0  0
  9  7  1  0  0  0  0
  9 31  1  0  0  0  0
  9 32  1  0  0  0  0
 10  9  1  0  0  0  0
 11  5  2  0  0  0  0
 12 10  1  0  0  0  0
 12 33  1  0  0  0  0
 13  7  2  0  0  0  0
 14 10  2  0  0  0  0
 15 12  1  0  0  0  0
 15 34  1  0  0  0  0
 15 35  1  0  0  0  0
 16 11  1  0  0  0  0
 17 15  1  0  0  0  0
 18 23  2  0  0  0  0
 19  5  1  0  0  0  0
 19 36  1  0  0  0  0
 20 17  1  0  0  0  0
 20 37  1  0  0  0  0
 21 17  2  0  0  0  0
 21 38  1  0  0  0  0
 22 20  2  0  0  0  0
 22 18  1  0  0  0  0
 22 39  1  0  0  0  0
 23 21  1  0  0  0  0
 23 40  1  0  0  0  0
 24  6  1  0  0  0  0
 24 41  1  0  0  0  0
 24 42  1  0  0  0  0
 24 43  1  0  0  0  0
 25 11  1  0  0  0  0
 25 28  2  0  0  0  0
 25 44  1  0  0  0  0
 26 18  1  0  0  0  0
 26 45  1  0  0  0  0
 26 46  1  0  0  0  0
 26 47  1  0  0  0  0
 27 19  2  0  0  0  0
 27 48  1  0  0  0  0
 28 27  1  0  0  0  0
 28 49  1  0  0  0  0
M  END
>  <Mol_ID>
9247

>  <Formula>
C21H21FN2O3S

>  <MolWeight>
400.4664432

>  <Cat>
P2676

>  <Name>
WAY-332028

>  <Synonyms>
N/A

>  <Target>
beta-catenin

>  <Form>
free base

>  <CAS>
1015857-86-9

>  <URL>
N/A

$$$$
