WAY-325319
 OpenBabel08302521423D

 47 50  0  0  0  0  0  0  0  0999 V2000
    2.4363   -0.6976    0.3763 C   0  0  0  0  0  0  0  0  0  0  0  0
    1.9413    0.5920    0.1199 C   0  0  0  0  0  0  0  0  0  0  0  0
    0.4789    0.5786    0.1773 C   0  0  0  0  0  0  0  0  0  0  0  0
    0.0010   -0.6935    0.4001 C   0  0  0  0  0  0  0  0  0  0  0  0
    1.1955   -1.6873    1.0245 S   0  0  0  0  0  0  0  0  0  0  0  0
    3.7135   -1.2596    0.2481 N   0  0  0  0  0  0  0  0  0  0  0  0
    9.6022   -2.4132    1.1738 N   0  0  0  0  0  0  0  0  0  0  0  0
    5.3303   -3.0714    0.2147 C   0  0  0  0  0  0  0  0  0  0  0  0
    3.9477   -2.6431    0.2625 C   0  0  0  0  0  0  0  0  0  0  0  0
   10.5241   -3.4026    1.2633 N   0  0  0  0  0  0  0  0  0  0  0  0
    6.3737   -2.1977    0.0773 O   0  0  0  0  0  0  0  0  0  0  0  0
    2.7163    1.7725   -0.2642 C   0  0  0  0  0  0  0  0  0  0  0  0
    9.5442   -1.6263    2.2918 C   0  0  0  0  0  0  0  0  0  0  0  0
    7.5167   -2.9575    0.0937 C   0  0  0  0  0  0  0  0  0  0  0  0
   10.4821   -2.1393    3.1458 C   0  0  0  0  0  0  0  0  0  0  0  0
    5.8095   -4.3668    0.3113 C   0  0  0  0  0  0  0  0  0  0  0  0
   11.0539   -3.2303    2.4801 C   0  0  0  0  0  0  0  0  0  0  0  0
   -0.4774    1.7149   -0.0774 C   0  0  0  0  0  0  0  0  0  0  0  0
    7.2092   -4.2942    0.2387 C   0  0  0  0  0  0  0  0  0  0  0  0
    8.8130   -2.2522   -0.0406 C   0  0  0  0  0  0  0  0  0  0  0  0
   -1.3990   -1.1793    0.2409 C   0  0  0  0  0  0  0  0  0  0  0  0
    3.0808   -3.5130    0.2957 O   0  0  0  0  0  0  0  0  0  0  0  0
    2.2668    2.6891   -0.9497 O   0  0  0  0  0  0  0  0  0  0  0  0
    3.9784    1.8673    0.2489 N   0  0  0  0  0  0  0  0  0  0  0  0
   10.9394   -1.5394    4.8506 Br  0  0  0  0  0  0  0  0  0  0  0  0
   -1.9411    1.2876    0.1891 C   0  0  0  0  0  0  0  0  0  0  0  0
   -2.2834   -0.0969   -0.4048 C   0  0  3  0  0  0  0  0  0  0  0  0
   -2.1696   -0.1001   -1.9345 C   0  0  0  0  0  0  0  0  0  0  0  0
    4.4772   -0.6659   -0.0520 H   0  0  0  0  0  0  0  0  0  0  0  0
    8.8541   -0.7990    2.3740 H   0  0  0  0  0  0  0  0  0  0  0  0
    5.1915   -5.2494    0.4358 H   0  0  0  0  0  0  0  0  0  0  0  0
   11.8308   -3.9042    2.8170 H   0  0  0  0  0  0  0  0  0  0  0  0
   -0.3782    2.0580   -1.1126 H   0  0  0  0  0  0  0  0  0  0  0  0
   -0.2345    2.5606    0.5768 H   0  0  0  0  0  0  0  0  0  0  0  0
    7.9155   -5.1135    0.2980 H   0  0  0  0  0  0  0  0  0  0  0  0
    9.3938   -2.6640   -0.8735 H   0  0  0  0  0  0  0  0  0  0  0  0
    8.6795   -1.1791   -0.2079 H   0  0  0  0  0  0  0  0  0  0  0  0
   -1.8013   -1.4472    1.2249 H   0  0  0  0  0  0  0  0  0  0  0  0
   -1.4071   -2.0905   -0.3721 H   0  0  0  0  0  0  0  0  0  0  0  0
    4.1942    1.3775    1.1019 H   0  0  0  0  0  0  0  0  0  0  0  0
    4.3842    2.7911    0.1399 H   0  0  0  0  0  0  0  0  0  0  0  0
   -2.6287    2.0481   -0.1966 H   0  0  0  0  0  0  0  0  0  0  0  0
   -2.1052    1.2404    1.2753 H   0  0  0  0  0  0  0  0  0  0  0  0
   -3.3255   -0.3409   -0.1624 H   0  0  0  0  0  0  0  0  0  0  0  0
   -1.1696    0.1749   -2.2836 H   0  0  0  0  0  0  0  0  0  0  0  0
   -2.3970   -1.0910   -2.3418 H   0  0  0  0  0  0  0  0  0  0  0  0
   -2.8824    0.6096   -2.3675 H   0  0  0  0  0  0  0  0  0  0  0  0
  2  1  2  0  0  0  0
  3  2  1  0  0  0  0
  4  5  1  0  0  0  0
  4  3  2  0  0  0  0
  5  1  1  0  0  0  0
  6  1  1  0  0  0  0
  6 29  1  0  0  0  0
  7 20  1  0  0  0  0
  8  9  1  0  0  0  0
  9  6  1  0  0  0  0
 10  7  1  0  0  0  0
 11  8  1  0  0  0  0
 12  2  1  0  0  0  0
 13  7  1  0  0  0  0
 13 30  1  0  0  0  0
 14 11  1  0  0  0  0
 14 19  2  0  0  0  0
 15 13  2  0  0  0  0
 16  8  2  0  0  0  0
 16 31  1  0  0  0  0
 17 10  2  0  0  0  0
 17 15  1  0  0  0  0
 17 32  1  0  0  0  0
 18  3  1  0  0  0  0
 18 33  1  0  0  0  0
 18 34  1  0  0  0  0
 19 16  1  0  0  0  0
 19 35  1  0  0  0  0
 20 14  1  0  0  0  0
 20 36  1  0  0  0  0
 20 37  1  0  0  0  0
 21  4  1  0  0  0  0
 21 38  1  0  0  0  0
 21 39  1  0  0  0  0
 22  9  2  0  0  0  0
 23 12  2  0  0  0  0
 24 12  1  0  0  0  0
 24 40  1  0  0  0  0
 24 41  1  0  0  0  0
 25 15  1  0  0  0  0
 26 18  1  0  0  0  0
 26 42  1  0  0  0  0
 26 43  1  0  0  0  0
 27 21  1  0  0  0  0
 27 26  1  0  0  0  0
 27 44  1  0  0  0  0
 28 27  1  0  0  0  0
 28 45  1  0  0  0  0
 28 46  1  0  0  0  0
 28 47  1  0  0  0  0
M  END
>  <Mol_ID>
8679

>  <Formula>
C19H19BrN4O3S

>  <MolWeight>
463.34816

>  <Cat>
P2378

>  <Name>
WAY-325319

>  <Synonyms>
N/A

>  <Target>
beta2 integrin

>  <Form>
free base

>  <CAS>
957479-51-5

>  <URL>
N/A

$$$$
