WAY-324407
 OpenBabel08302521423D

 58 61  0  0  0  0  0  0  0  0999 V2000
    2.3053   -0.5874    0.6067 N   0  0  0  0  0  0  0  0  0  0  0  0
    2.3340    0.7821    0.6293 N   0  0  0  0  0  0  0  0  0  0  0  0
    1.2563   -1.2012    0.1453 C   0  0  0  0  0  0  0  0  0  0  0  0
    1.3425    1.5979    0.0980 C   0  0  0  0  0  0  0  0  0  0  0  0
    0.1423    0.9173   -0.4129 C   0  0  0  0  0  0  0  0  0  0  0  0
    0.0380   -0.4640   -0.2997 C   0  0  0  0  0  0  0  0  0  0  0  0
    1.3702   -2.6942   -0.0047 C   0  0  0  0  0  0  0  0  0  0  0  0
    2.1380   -3.4454    0.8931 C   0  0  0  0  0  0  0  0  0  0  0  0
    2.2823   -4.8454    0.7311 C   0  0  0  0  0  0  0  0  0  0  0  0
    5.2299   -7.1292    1.1885 C   0  0  0  0  0  0  0  0  0  0  0  0
    1.4121    2.8241    0.0465 O   0  0  0  0  0  0  0  0  0  0  0  0
    4.2949   -6.2086    0.8416 N   0  0  0  0  0  0  0  0  0  0  0  0
    1.5686   -5.4882   -0.3112 C   0  0  0  0  0  0  0  0  0  0  0  0
    0.8047   -3.3326   -1.1097 C   0  0  0  0  0  0  0  0  0  0  0  0
    3.2424   -5.6040    1.6342 C   0  0  0  0  0  0  0  0  0  0  0  0
    5.8214   -7.7071    0.2722 O   0  0  0  0  0  0  0  0  0  0  0  0
    0.8512   -4.7164   -1.2292 C   0  0  0  0  0  0  0  0  0  0  0  0
    6.3144   -6.5594    3.4154 O   0  0  0  0  0  0  0  0  0  0  0  0
    5.5183   -7.4601    2.6617 C   0  0  0  0  0  0  0  0  0  0  0  0
    7.6293   -6.3840    3.0792 C   0  0  0  0  0  0  0  0  0  0  0  0
    3.5699    1.3951    1.0743 C   0  0  0  0  0  0  0  0  0  0  0  0
   10.2875   -5.6539    2.4783 C   0  0  0  0  0  0  0  0  0  0  0  0
   -0.8905    1.6648   -0.9990 C   0  0  0  0  0  0  0  0  0  0  0  0
   -1.1715   -1.0773   -0.6563 C   0  0  0  0  0  0  0  0  0  0  0  0
    8.3099   -6.9948    2.0300 C   0  0  0  0  0  0  0  0  0  0  0  0
    8.3180   -5.4562    3.8686 C   0  0  0  0  0  0  0  0  0  0  0  0
    9.6390   -5.0884    3.5728 C   0  0  0  0  0  0  0  0  0  0  0  0
    9.6172   -6.6059    1.7126 C   0  0  0  0  0  0  0  0  0  0  0  0
   11.5459   -5.3465    2.0433 O   0  0  0  0  0  0  0  0  0  0  0  0
    1.6131   -6.9738   -0.5467 C   0  0  0  0  0  0  0  0  0  0  0  0
   12.4250   -4.7878    3.0109 C   0  0  0  0  0  0  0  0  0  0  0  0
   -2.1833   -0.3453   -1.2836 C   0  0  0  0  0  0  0  0  0  0  0  0
   -2.0348    1.0244   -1.4706 C   0  0  0  0  0  0  0  0  0  0  0  0
    2.6613   -2.9369    1.7004 H   0  0  0  0  0  0  0  0  0  0  0  0
    4.2555   -6.0693   -0.1608 H   0  0  0  0  0  0  0  0  0  0  0  0
    0.3183   -2.7735   -1.9056 H   0  0  0  0  0  0  0  0  0  0  0  0
    3.7214   -4.9452    2.3671 H   0  0  0  0  0  0  0  0  0  0  0  0
    2.7077   -6.3827    2.1890 H   0  0  0  0  0  0  0  0  0  0  0  0
    0.3415   -5.1834   -2.0700 H   0  0  0  0  0  0  0  0  0  0  0  0
    4.5520   -7.5248    3.1777 H   0  0  0  0  0  0  0  0  0  0  0  0
    5.9349   -8.4745    2.7222 H   0  0  0  0  0  0  0  0  0  0  0  0
    3.9671    2.0235    0.2707 H   0  0  0  0  0  0  0  0  0  0  0  0
    3.3622    2.0248    1.9441 H   0  0  0  0  0  0  0  0  0  0  0  0
    4.3067    0.6310    1.3371 H   0  0  0  0  0  0  0  0  0  0  0  0
   -0.7944    2.7441   -1.1052 H   0  0  0  0  0  0  0  0  0  0  0  0
   -1.3512   -2.1351   -0.4878 H   0  0  0  0  0  0  0  0  0  0  0  0
    7.8639   -7.7646    1.4124 H   0  0  0  0  0  0  0  0  0  0  0  0
    7.8160   -4.9969    4.7169 H   0  0  0  0  0  0  0  0  0  0  0  0
   10.1185   -4.3387    4.1930 H   0  0  0  0  0  0  0  0  0  0  0  0
   10.1141   -7.0510    0.8534 H   0  0  0  0  0  0  0  0  0  0  0  0
    2.5512   -7.2514   -1.0346 H   0  0  0  0  0  0  0  0  0  0  0  0
    1.4954   -7.5272    0.3884 H   0  0  0  0  0  0  0  0  0  0  0  0
    0.7954   -7.2876   -1.2071 H   0  0  0  0  0  0  0  0  0  0  0  0
   12.1849   -3.7367    3.1984 H   0  0  0  0  0  0  0  0  0  0  0  0
   12.4182   -5.3672    3.9397 H   0  0  0  0  0  0  0  0  0  0  0  0
   13.4388   -4.8323    2.6000 H   0  0  0  0  0  0  0  0  0  0  0  0
   -3.0802   -0.8495   -1.6378 H   0  0  0  0  0  0  0  0  0  0  0  0
   -2.8144    1.5953   -1.9686 H   0  0  0  0  0  0  0  0  0  0  0  0
  2  1  1  0  0  0  0
  3  1  2  0  0  0  0
  4  2  1  0  0  0  0
  4  5  1  0  0  0  0
  5  6  2  0  0  0  0
  6  3  1  0  0  0  0
  7  3  1  0  0  0  0
  8  7  2  0  0  0  0
  8 34  1  0  0  0  0
  9  8  1  0  0  0  0
  9 13  2  0  0  0  0
 10 12  1  0  0  0  0
 11  4  2  0  0  0  0
 12 15  1  0  0  0  0
 12 35  1  0  0  0  0
 13 17  1  0  0  0  0
 14  7  1  0  0  0  0
 14 36  1  0  0  0  0
 15  9  1  0  0  0  0
 15 37  1  0  0  0  0
 15 38  1  0  0  0  0
 16 10  2  0  0  0  0
 17 14  2  0  0  0  0
 17 39  1  0  0  0  0
 18 19  1  0  0  0  0
 19 10  1  0  0  0  0
 19 40  1  0  0  0  0
 19 41  1  0  0  0  0
 20 18  1  0  0  0  0
 21  2  1  0  0  0  0
 21 42  1  0  0  0  0
 21 43  1  0  0  0  0
 21 44  1  0  0  0  0
 22 27  2  0  0  0  0
 22 28  1  0  0  0  0
 23  5  1  0  0  0  0
 23 33  2  0  0  0  0
 23 45  1  0  0  0  0
 24  6  1  0  0  0  0
 24 46  1  0  0  0  0
 25 20  1  0  0  0  0
 25 47  1  0  0  0  0
 26 20  2  0  0  0  0
 26 48  1  0  0  0  0
 27 26  1  0  0  0  0
 27 49  1  0  0  0  0
 28 25  2  0  0  0  0
 28 50  1  0  0  0  0
 29 22  1  0  0  0  0
 30 13  1  0  0  0  0
 30 51  1  0  0  0  0
 30 52  1  0  0  0  0
 30 53  1  0  0  0  0
 31 29  1  0  0  0  0
 31 54  1  0  0  0  0
 31 55  1  0  0  0  0
 31 56  1  0  0  0  0
 32 24  2  0  0  0  0
 32 57  1  0  0  0  0
 33 32  1  0  0  0  0
 33 58  1  0  0  0  0
M  END
>  <Mol_ID>
8630

>  <Formula>
C26H25N3O4

>  <MolWeight>
443.4944

>  <Cat>
P2318

>  <Name>
WAY-324407

>  <Synonyms>
N/A

>  <Target>
SYK

>  <Form>
free base

>  <CAS>
713098-26-1

>  <URL>
N/A

$$$$
