WAY-605150
 OpenBabel08302521413D

 45 48  0  0  0  0  0  0  0  0999 V2000
    0.7977    0.7437    1.0442 C   0  0  3  0  0  0  0  0  0  0  0  0
    2.6979    4.2826    3.0530 C   0  0  0  0  0  0  0  0  0  0  0  0
    1.5182    1.5247    2.0576 N   0  0  0  0  0  0  0  0  0  0  0  0
    1.2967    1.4463    3.4186 C   0  0  0  0  0  0  0  0  0  0  0  0
   -1.4652    0.1968    0.0220 C   0  0  3  0  0  0  0  0  0  0  0  0
    0.3253   -1.5764    0.1220 C   0  0  3  0  0  0  0  0  0  0  0  0
    0.5560    0.3624   -1.4660 C   0  0  3  0  0  0  0  0  0  0  0  0
    2.0353    3.7436    4.1082 O   0  0  0  0  0  0  0  0  0  0  0  0
    2.5990    5.7729    3.0156 C   0  0  0  0  0  0  0  0  0  0  0  0
    1.8297    6.4080    3.9373 N   0  0  0  0  0  0  0  0  0  0  0  0
   -0.7295    1.0058    1.1036 C   0  0  0  0  0  0  0  0  0  0  0  0
    1.2903    1.1585   -0.3706 C   0  0  0  0  0  0  0  0  0  0  0  0
    1.0621   -0.7738    1.2086 C   0  0  0  0  0  0  0  0  0  0  0  0
    3.3267    3.6349    2.2238 O   0  0  0  0  0  0  0  0  0  0  0  0
    0.4697    0.6975    3.9341 O   0  0  0  0  0  0  0  0  0  0  0  0
   -0.9544    0.6276   -1.3608 C   0  0  0  0  0  0  0  0  0  0  0  0
    0.8222   -1.1380   -1.2643 C   0  0  0  0  0  0  0  0  0  0  0  0
   -1.1841   -1.3017    0.2267 C   0  0  0  0  0  0  0  0  0  0  0  0
    2.2053    2.3384    4.2769 C   0  0  0  0  0  0  0  0  0  0  0  0
    1.7946    7.7588    3.8743 C   0  0  0  0  0  0  0  0  0  0  0  0
    3.3267    6.4501    2.0378 C   0  0  0  0  0  0  0  0  0  0  0  0
    2.5010    8.5105    2.9461 C   0  0  0  0  0  0  0  0  0  0  0  0
    3.2793    7.8408    2.0104 C   0  0  0  0  0  0  0  0  0  0  0  0
    2.3048    2.0998    1.7544 H   0  0  0  0  0  0  0  0  0  0  0  0
   -2.5428    0.3824    0.0925 H   0  0  0  0  0  0  0  0  0  0  0  0
    0.5171   -2.6462    0.2612 H   0  0  0  0  0  0  0  0  0  0  0  0
    0.9150    0.6705   -2.4544 H   0  0  0  0  0  0  0  0  0  0  0  0
   -0.9316    2.0770    0.9711 H   0  0  0  0  0  0  0  0  0  0  0  0
   -1.1397    0.7362    2.0830 H   0  0  0  0  0  0  0  0  0  0  0  0
    2.3723    0.9926   -0.4590 H   0  0  0  0  0  0  0  0  0  0  0  0
    1.1316    2.2338   -0.5269 H   0  0  0  0  0  0  0  0  0  0  0  0
    2.1401   -0.9761    1.1557 H   0  0  0  0  0  0  0  0  0  0  0  0
    0.7331   -1.1233    2.1940 H   0  0  0  0  0  0  0  0  0  0  0  0
   -1.4899    0.0789   -2.1455 H   0  0  0  0  0  0  0  0  0  0  0  0
   -1.1604    1.6931   -1.5209 H   0  0  0  0  0  0  0  0  0  0  0  0
    0.3131   -1.7180   -2.0443 H   0  0  0  0  0  0  0  0  0  0  0  0
    1.8945   -1.3460   -1.3626 H   0  0  0  0  0  0  0  0  0  0  0  0
   -1.5562   -1.6234    1.2072 H   0  0  0  0  0  0  0  0  0  0  0  0
   -1.7233   -1.8895   -0.5264 H   0  0  0  0  0  0  0  0  0  0  0  0
    1.9808    2.1159    5.3265 H   0  0  0  0  0  0  0  0  0  0  0  0
    3.2516    2.0387    4.1239 H   0  0  0  0  0  0  0  0  0  0  0  0
    1.1661    8.2439    4.6163 H   0  0  0  0  0  0  0  0  0  0  0  0
    3.9272    5.9069    1.3146 H   0  0  0  0  0  0  0  0  0  0  0  0
    2.4454    9.5943    2.9517 H   0  0  0  0  0  0  0  0  0  0  0  0
    3.8472    8.3936    1.2674 H   0  0  0  0  0  0  0  0  0  0  0  0
  2  8  1  0  0  0  0
  3  1  1  0  0  0  0
  3 24  1  0  0  0  0
  4  3  1  0  0  0  0
  5 11  1  0  0  0  0
  5 25  1  0  0  0  0
  6 13  1  0  0  0  0
  6 26  1  0  0  0  0
  7 12  1  0  0  0  0
  7 17  1  0  0  0  0
  7 27  1  0  0  0  0
  8 19  1  0  0  0  0
  9  2  1  0  0  0  0
 10  9  2  0  0  0  0
 11  1  1  0  0  0  0
 11 28  1  0  0  0  0
 11 29  1  0  0  0  0
 12  1  1  0  0  0  0
 12 30  1  0  0  0  0
 12 31  1  0  0  0  0
 13  1  1  0  0  0  0
 13 32  1  0  0  0  0
 13 33  1  0  0  0  0
 14  2  2  0  0  0  0
 15  4  2  0  0  0  0
 16  7  1  0  0  0  0
 16  5  1  0  0  0  0
 16 34  1  0  0  0  0
 16 35  1  0  0  0  0
 17  6  1  0  0  0  0
 17 36  1  0  0  0  0
 17 37  1  0  0  0  0
 18  6  1  0  0  0  0
 18  5  1  0  0  0  0
 18 38  1  0  0  0  0
 18 39  1  0  0  0  0
 19  4  1  0  0  0  0
 19 40  1  0  0  0  0
 19 41  1  0  0  0  0
 20 10  1  0  0  0  0
 20 42  1  0  0  0  0
 21  9  1  0  0  0  0
 21 43  1  0  0  0  0
 22 23  1  0  0  0  0
 22 20  2  0  0  0  0
 22 44  1  0  0  0  0
 23 21  2  0  0  0  0
 23 45  1  0  0  0  0
M  END
>  <Mol_ID>
8466

>  <Formula>
C18H22N2O3

>  <MolWeight>
314.37888

>  <Cat>
P2848

>  <Name>
WAY-605150

>  <Synonyms>
N/A

>  <Target>
RNase H

>  <Form>
free base

>  <CAS>
380486-73-7

>  <URL>
N/A

$$$$
