WAY-310749
 OpenBabel08302521403D

 48 51  0  0  0  0  0  0  0  0999 V2000
    1.6156    1.0546    0.1234 N   0  0  0  0  0  0  0  0  0  0  0  0
    0.2986    0.6635    0.0708 C   0  0  0  0  0  0  0  0  0  0  0  0
    2.3656   -0.0696   -0.1843 C   0  0  0  0  0  0  0  0  0  0  0  0
    2.0684    2.4215    0.3391 C   0  0  0  0  0  0  0  0  0  0  0  0
    0.3351   -0.6924   -0.0860 C   0  0  0  0  0  0  0  0  0  0  0  0
   -0.9217    1.3921    0.1648 C   0  0  0  0  0  0  0  0  0  0  0  0
    1.6108   -1.1502   -0.2596 N   0  0  0  0  0  0  0  0  0  0  0  0
    4.0957   -0.0315   -0.3842 S   0  0  0  0  0  0  0  0  0  0  0  0
    2.2459    2.8016    1.7947 C   0  0  0  0  0  0  0  0  0  0  0  0
   -0.8227   -1.4502   -0.0758 N   0  0  0  0  0  0  0  0  0  0  0  0
   -2.0287    0.5780    0.0981 N   0  0  0  0  0  0  0  0  0  0  0  0
   -1.0191    2.6096    0.2681 O   0  0  0  0  0  0  0  0  0  0  0  0
    4.4381   -1.4499   -1.4747 C   0  0  0  0  0  0  0  0  0  0  0  0
    3.2066    2.1737    2.6015 C   0  0  0  0  0  0  0  0  0  0  0  0
    1.5514    3.9022    2.3269 C   0  0  0  0  0  0  0  0  0  0  0  0
   -2.0497   -0.8000    0.0265 C   0  0  0  0  0  0  0  0  0  0  0  0
   -0.7662   -2.8964   -0.0884 C   0  0  0  0  0  0  0  0  0  0  0  0
    5.9309   -1.6401   -1.7040 C   0  0  0  0  0  0  0  0  0  0  0  0
    3.5209    2.6774    3.8669 C   0  0  0  0  0  0  0  0  0  0  0  0
    1.8642    4.4028    3.5954 C   0  0  0  0  0  0  0  0  0  0  0  0
   -3.1370   -1.3783    0.0641 O   0  0  0  0  0  0  0  0  0  0  0  0
    6.6814   -2.5255   -0.9089 C   0  0  0  0  0  0  0  0  0  0  0  0
    6.5994   -0.9276   -2.7161 C   0  0  0  0  0  0  0  0  0  0  0  0
    2.8664    3.8048    4.3545 C   0  0  0  0  0  0  0  0  0  0  0  0
    8.0628   -2.6914   -1.1097 C   0  0  0  0  0  0  0  0  0  0  0  0
    7.9730   -1.0893   -2.9209 C   0  0  0  0  0  0  0  0  0  0  0  0
    8.6982   -1.9652   -2.1222 C   0  0  0  0  0  0  0  0  0  0  0  0
    8.8717   -3.6437   -0.2744 C   0  0  0  0  0  0  0  0  0  0  0  0
    3.0111    2.5765   -0.1947 H   0  0  0  0  0  0  0  0  0  0  0  0
    1.3470    3.0856   -0.1489 H   0  0  0  0  0  0  0  0  0  0  0  0
   -2.9283    1.0309    0.1593 H   0  0  0  0  0  0  0  0  0  0  0  0
    4.0140   -2.3664   -1.0513 H   0  0  0  0  0  0  0  0  0  0  0  0
    3.9469   -1.2870   -2.4424 H   0  0  0  0  0  0  0  0  0  0  0  0
    3.7570    1.3080    2.2447 H   0  0  0  0  0  0  0  0  0  0  0  0
    0.7798    4.4046    1.7449 H   0  0  0  0  0  0  0  0  0  0  0  0
   -0.2297   -3.2337   -0.9794 H   0  0  0  0  0  0  0  0  0  0  0  0
   -0.2422   -3.2332    0.8118 H   0  0  0  0  0  0  0  0  0  0  0  0
   -1.7667   -3.3387   -0.0886 H   0  0  0  0  0  0  0  0  0  0  0  0
    4.2999    2.2035    4.4591 H   0  0  0  0  0  0  0  0  0  0  0  0
    1.3440    5.2769    3.9801 H   0  0  0  0  0  0  0  0  0  0  0  0
    6.1837   -3.0974   -0.1272 H   0  0  0  0  0  0  0  0  0  0  0  0
    6.0524   -0.2395   -3.3554 H   0  0  0  0  0  0  0  0  0  0  0  0
    3.1420    4.2192    5.3211 H   0  0  0  0  0  0  0  0  0  0  0  0
    8.4771   -0.5315   -3.7061 H   0  0  0  0  0  0  0  0  0  0  0  0
    9.7721   -2.0809   -2.2901 H   0  0  0  0  0  0  0  0  0  0  0  0
    9.2461   -4.4660   -0.8935 H   0  0  0  0  0  0  0  0  0  0  0  0
    9.7251   -3.1238    0.1751 H   0  0  0  0  0  0  0  0  0  0  0  0
    8.2783   -4.0730    0.5386 H   0  0  0  0  0  0  0  0  0  0  0  0
  1  2  1  0  0  0  0
  1  3  1  0  0  0  0
  1  4  1  0  0  0  0
  2  5  2  0  0  0  0
  2  6  1  0  0  0  0
  3  7  2  0  0  0  0
  3  8  1  0  0  0  0
  4  9  1  0  0  0  0
  4 29  1  0  0  0  0
  4 30  1  0  0  0  0
  5 10  1  0  0  0  0
  5  7  1  0  0  0  0
  6 11  1  0  0  0  0
  6 12  2  0  0  0  0
  8 13  1  0  0  0  0
  9 14  2  0  0  0  0
  9 15  1  0  0  0  0
 10 16  1  0  0  0  0
 10 17  1  0  0  0  0
 11 16  1  0  0  0  0
 11 31  1  0  0  0  0
 13 18  1  0  0  0  0
 13 32  1  0  0  0  0
 13 33  1  0  0  0  0
 14 19  1  0  0  0  0
 14 34  1  0  0  0  0
 15 20  2  0  0  0  0
 15 35  1  0  0  0  0
 16 21  2  0  0  0  0
 17 36  1  0  0  0  0
 17 37  1  0  0  0  0
 17 38  1  0  0  0  0
 18 22  2  0  0  0  0
 18 23  1  0  0  0  0
 19 24  2  0  0  0  0
 19 39  1  0  0  0  0
 20 24  1  0  0  0  0
 20 40  1  0  0  0  0
 22 25  1  0  0  0  0
 22 41  1  0  0  0  0
 23 26  2  0  0  0  0
 23 42  1  0  0  0  0
 24 43  1  0  0  0  0
 25 27  2  0  0  0  0
 25 28  1  0  0  0  0
 26 27  1  0  0  0  0
 26 44  1  0  0  0  0
 27 45  1  0  0  0  0
 28 46  1  0  0  0  0
 28 47  1  0  0  0  0
 28 48  1  0  0  0  0
M  END
>  <Mol_ID>
8324

>  <Formula>
C21H20N4O2S

>  <MolWeight>
392.4741

>  <Cat>
P2186

>  <Name>
WAY-310749

>  <Synonyms>
N/A

>  <Target>
NOD1

>  <Form>
free base

>  <CAS>
385387-73-5

>  <URL>
N/A

$$$$
