WAY-606575
 OpenBabel08302521433D

 29 31  0  0  0  0  0  0  0  0999 V2000
    3.9514    0.9993    3.0991 C   0  0  0  0  0  0  0  0  0  0  0  0
    3.2349    0.6103    2.0825 N   0  0  0  0  0  0  0  0  0  0  0  0
    5.2727    0.7018    2.9775 N   0  0  0  0  0  0  0  0  0  0  0  0
    4.1707    0.0225    1.2286 C   0  0  0  0  0  0  0  0  0  0  0  0
    5.4379    0.0474    1.8024 C   0  0  0  0  0  0  0  0  0  0  0  0
    3.6357    1.8351    4.5896 S   0  0  0  0  0  0  0  0  0  0  0  0
    6.0809    1.1147    4.0182 C   0  0  0  0  0  0  0  0  0  0  0  0
    5.3679    1.7458    4.9687 C   0  0  0  0  0  0  0  0  0  0  0  0
    4.6243    0.2572   -1.4828 S   0  0  0  0  0  0  0  0  0  0  0  0
    3.7586   -0.5650   -0.0842 C   0  0  0  0  0  0  0  0  0  0  0  0
    4.3808   -0.2687   -4.2306 C   0  0  0  0  0  0  0  0  0  0  0  0
    3.8941   -0.6809   -2.8525 C   0  0  0  0  0  0  0  0  0  0  0  0
    5.4670   -0.8979   -4.8646 C   0  0  0  0  0  0  0  0  0  0  0  0
    3.6916    0.7304   -4.9340 C   0  0  0  0  0  0  0  0  0  0  0  0
    4.0445    1.0593   -6.2461 C   0  0  0  0  0  0  0  0  0  0  0  0
    5.8071   -0.5815   -6.1864 C   0  0  0  0  0  0  0  0  0  0  0  0
    5.0884    0.3896   -6.8798 C   0  0  0  0  0  0  0  0  0  0  0  0
    6.3962   -0.3088    1.4529 H   0  0  0  0  0  0  0  0  0  0  0  0
    7.1403    0.9312    3.9981 H   0  0  0  0  0  0  0  0  0  0  0  0
    5.7724    2.1710    5.8772 H   0  0  0  0  0  0  0  0  0  0  0  0
    4.0177   -1.6289   -0.0900 H   0  0  0  0  0  0  0  0  0  0  0  0
    2.6736   -0.4794   -0.2073 H   0  0  0  0  0  0  0  0  0  0  0  0
    4.0840   -1.7490   -2.6996 H   0  0  0  0  0  0  0  0  0  0  0  0
    2.8070   -0.5427   -2.8143 H   0  0  0  0  0  0  0  0  0  0  0  0
    6.0521   -1.6491   -4.3436 H   0  0  0  0  0  0  0  0  0  0  0  0
    2.8586    1.2530   -4.4675 H   0  0  0  0  0  0  0  0  0  0  0  0
    3.4956    1.8338   -6.7769 H   0  0  0  0  0  0  0  0  0  0  0  0
    6.6274   -1.1009   -6.6758 H   0  0  0  0  0  0  0  0  0  0  0  0
    5.3426    0.6255   -7.9089 H   0  0  0  0  0  0  0  0  0  0  0  0
  2  1  2  0  0  0  0
  3  1  1  0  0  0  0
  4  2  1  0  0  0  0
  5  3  1  0  0  0  0
  5  4  2  0  0  0  0
  5 18  1  0  0  0  0
  6  1  1  0  0  0  0
  7  3  1  0  0  0  0
  7 19  1  0  0  0  0
  8  6  1  0  0  0  0
  8  7  2  0  0  0  0
  8 20  1  0  0  0  0
  9 10  1  0  0  0  0
 10  4  1  0  0  0  0
 10 21  1  0  0  0  0
 10 22  1  0  0  0  0
 11 12  1  0  0  0  0
 12  9  1  0  0  0  0
 12 23  1  0  0  0  0
 12 24  1  0  0  0  0
 13 11  2  0  0  0  0
 13 25  1  0  0  0  0
 14 11  1  0  0  0  0
 14 26  1  0  0  0  0
 15 14  2  0  0  0  0
 15 27  1  0  0  0  0
 16 13  1  0  0  0  0
 16 28  1  0  0  0  0
 17 15  1  0  0  0  0
 17 16  2  0  0  0  0
 17 29  1  0  0  0  0
M  END
>  <Mol_ID>
8724

>  <Formula>
C13H12N2S2

>  <MolWeight>
260.37778

>  <Cat>
P2867

>  <Name>
WAY-606575

>  <Synonyms>
N/A

>  <Target>
Others

>  <Form>
free base

>  <CAS>
379715-08-9

>  <URL>
N/A

$$$$
