WAY-327952
 OpenBabel08302521443D

 57 60  0  0  0  0  0  0  0  0999 V2000
    1.4940    0.2125   -0.1079 S   0  0  0  0  0  0  0  0  0  0  0  0
   -1.2453    1.9821   -4.3990 C   0  0  0  0  0  0  0  0  0  0  0  0
   -0.4442    2.2039   -3.1402 C   0  0  0  0  0  0  0  0  0  0  0  0
    0.7634    1.5123   -1.1092 C   0  0  0  0  0  0  0  0  0  0  0  0
    0.2400   -0.2658    0.9509 N   0  0  0  0  0  0  0  0  0  0  0  0
   -0.5597    4.5948   -3.5731 N   0  0  0  0  0  0  0  0  0  0  0  0
   -1.1782    4.4352   -4.7709 C   0  0  0  0  0  0  0  0  0  0  0  0
   -0.1793    3.5343   -2.7505 C   0  0  0  0  0  0  0  0  0  0  0  0
   -1.5535    3.0598   -5.1443 C   0  0  0  0  0  0  0  0  0  0  0  0
   -1.7005    0.6194   -4.8849 C   0  0  0  0  0  0  0  0  0  0  0  0
    0.0875    1.1960   -2.3125 C   0  0  0  0  0  0  0  0  0  0  0  0
    2.5524    0.8054    0.6701 O   0  0  0  0  0  0  0  0  0  0  0  0
    1.7650   -0.8964   -1.0087 O   0  0  0  0  0  0  0  0  0  0  0  0
   -2.4241    0.5339   -6.0717 N   0  0  0  0  0  0  0  0  0  0  0  0
    0.9724    2.8391   -0.7384 C   0  0  0  0  0  0  0  0  0  0  0  0
    0.5068    3.8518   -1.5692 C   0  0  0  0  0  0  0  0  0  0  0  0
   -1.4363    5.3718   -5.5144 O   0  0  0  0  0  0  0  0  0  0  0  0
   -1.3994   -0.3984   -4.2651 O   0  0  0  0  0  0  0  0  0  0  0  0
   -2.2732   -0.6809   -6.8388 C   0  0  0  0  0  0  0  0  0  0  0  0
   -2.6400   -1.5911   -9.1237 C   0  0  0  0  0  0  0  0  0  0  0  0
   -3.1799   -0.8821   -8.0300 C   0  0  0  0  0  0  0  0  0  0  0  0
   -3.4489   -2.1036  -10.1371 C   0  0  0  0  0  0  0  0  0  0  0  0
    0.0169    0.5556    2.1606 C   0  0  0  0  0  0  0  0  0  0  0  0
   -1.0163   -0.7033    0.3023 C   0  0  0  0  0  0  0  0  0  0  0  0
   -3.0180   -2.9010  -11.1637 O   0  0  0  0  0  0  0  0  0  0  0  0
   -5.3635   -1.0787   -9.0694 C   0  0  0  0  0  0  0  0  0  0  0  0
   -4.5524   -0.6106   -8.0278 C   0  0  0  0  0  0  0  0  0  0  0  0
   -4.8158   -1.8406  -10.1085 C   0  0  0  0  0  0  0  0  0  0  0  0
   -1.6653   -3.3455  -11.0936 C   0  0  0  0  0  0  0  0  0  0  0  0
   -0.7324   -0.2872    3.1919 C   0  0  0  0  0  0  0  0  0  0  0  0
   -1.9434   -1.4303    1.2707 C   0  0  0  0  0  0  0  0  0  0  0  0
   -2.0653   -0.7874    2.6492 C   0  0  0  0  0  0  0  0  0  0  0  0
   -0.3174    5.5479   -3.3351 H   0  0  0  0  0  0  0  0  0  0  0  0
   -2.0973    3.0442   -6.0751 H   0  0  0  0  0  0  0  0  0  0  0  0
    0.0072    0.1454   -2.5862 H   0  0  0  0  0  0  0  0  0  0  0  0
   -2.6679    1.3471   -6.6094 H   0  0  0  0  0  0  0  0  0  0  0  0
    1.5238    3.0915    0.1652 H   0  0  0  0  0  0  0  0  0  0  0  0
    0.6992    4.8877   -1.3000 H   0  0  0  0  0  0  0  0  0  0  0  0
   -1.2336   -0.6543   -7.1899 H   0  0  0  0  0  0  0  0  0  0  0  0
   -2.3763   -1.5515   -6.1830 H   0  0  0  0  0  0  0  0  0  0  0  0
   -1.5705   -1.7822   -9.1272 H   0  0  0  0  0  0  0  0  0  0  0  0
   -0.5507    1.4574    1.9106 H   0  0  0  0  0  0  0  0  0  0  0  0
    0.9684    0.8590    2.6092 H   0  0  0  0  0  0  0  0  0  0  0  0
   -0.7883   -1.3843   -0.5252 H   0  0  0  0  0  0  0  0  0  0  0  0
   -1.5341    0.1715   -0.1039 H   0  0  0  0  0  0  0  0  0  0  0  0
   -6.4358   -0.8958   -9.0555 H   0  0  0  0  0  0  0  0  0  0  0  0
   -5.0157   -0.0834   -7.1975 H   0  0  0  0  0  0  0  0  0  0  0  0
   -5.4615   -2.2523  -10.8813 H   0  0  0  0  0  0  0  0  0  0  0  0
   -0.9806   -2.5146  -11.2930 H   0  0  0  0  0  0  0  0  0  0  0  0
   -1.4401   -3.8171  -10.1299 H   0  0  0  0  0  0  0  0  0  0  0  0
   -1.5130   -4.1023  -11.8685 H   0  0  0  0  0  0  0  0  0  0  0  0
   -0.9093    0.3038    4.0985 H   0  0  0  0  0  0  0  0  0  0  0  0
   -0.1163   -1.1460    3.4885 H   0  0  0  0  0  0  0  0  0  0  0  0
   -1.6011   -2.4648    1.3879 H   0  0  0  0  0  0  0  0  0  0  0  0
   -2.9418   -1.4856    0.8182 H   0  0  0  0  0  0  0  0  0  0  0  0
   -2.4939   -1.5173    3.3478 H   0  0  0  0  0  0  0  0  0  0  0  0
   -2.7719    0.0494    2.6027 H   0  0  0  0  0  0  0  0  0  0  0  0
  2  3  1  0  0  0  0
  3 11  2  0  0  0  0
  4  1  1  0  0  0  0
  5  1  1  0  0  0  0
  6  8  1  0  0  0  0
  6 33  1  0  0  0  0
  7  6  1  0  0  0  0
  8 16  2  0  0  0  0
  8  3  1  0  0  0  0
  9  2  2  0  0  0  0
  9  7  1  0  0  0  0
  9 34  1  0  0  0  0
 10  2  1  0  0  0  0
 11  4  1  0  0  0  0
 11 35  1  0  0  0  0
 12  1  2  0  0  0  0
 13  1  2  0  0  0  0
 14 10  1  0  0  0  0
 14 36  1  0  0  0  0
 15  4  2  0  0  0  0
 15 37  1  0  0  0  0
 16 15  1  0  0  0  0
 16 38  1  0  0  0  0
 17  7  2  0  0  0  0
 18 10  2  0  0  0  0
 19 14  1  0  0  0  0
 19 39  1  0  0  0  0
 19 40  1  0  0  0  0
 20 21  2  0  0  0  0
 20 41  1  0  0  0  0
 21 19  1  0  0  0  0
 22 20  1  0  0  0  0
 23  5  1  0  0  0  0
 23 42  1  0  0  0  0
 23 43  1  0  0  0  0
 24  5  1  0  0  0  0
 24 44  1  0  0  0  0
 24 45  1  0  0  0  0
 25 22  1  0  0  0  0
 26 27  2  0  0  0  0
 26 46  1  0  0  0  0
 27 21  1  0  0  0  0
 27 47  1  0  0  0  0
 28 26  1  0  0  0  0
 28 22  2  0  0  0  0
 28 48  1  0  0  0  0
 29 25  1  0  0  0  0
 29 49  1  0  0  0  0
 29 50  1  0  0  0  0
 29 51  1  0  0  0  0
 30 23  1  0  0  0  0
 30 52  1  0  0  0  0
 30 53  1  0  0  0  0
 31 24  1  0  0  0  0
 31 54  1  0  0  0  0
 31 55  1  0  0  0  0
 32 31  1  0  0  0  0
 32 30  1  0  0  0  0
 32 56  1  0  0  0  0
 32 57  1  0  0  0  0
M  END
>  <Mol_ID>
8991

>  <Formula>
C23H25N3O5S

>  <MolWeight>
455.5267

>  <Cat>
P2554

>  <Name>
WAY-327952

>  <Synonyms>
N/A

>  <Target>
caspase

>  <Form>
free base

>  <CAS>
687590-66-5

>  <URL>
N/A

$$$$
