WAY-332022
 OpenBabel08302521443D

 50 52  0  0  0  0  0  0  0  0999 V2000
   -1.3482    0.6384    0.6036 N   0  0  0  0  0  0  0  0  0  0  0  0
   -0.2283    1.1801    0.0067 C   0  0  0  0  0  0  0  0  0  0  0  0
   -1.2137   -0.6635    0.4325 C   0  0  0  0  0  0  0  0  0  0  0  0
   -0.0588   -1.0214   -0.2116 O   0  0  0  0  0  0  0  0  0  0  0  0
    0.5661    0.1645   -0.4819 C   0  0  0  0  0  0  0  0  0  0  0  0
   -0.7218    3.3632   -1.5865 S   0  0  3  0  0  0  0  0  0  0  0  0
   -0.0492    2.6475   -0.0512 C   0  0  0  0  0  0  0  0  0  0  0  0
   -3.3492    3.3951   -2.4528 C   0  0  0  0  0  0  0  0  0  0  0  0
   -2.4642    2.9075   -1.3212 C   0  0  0  0  0  0  0  0  0  0  0  0
   -2.1432   -1.7328    0.7826 C   0  0  0  0  0  0  0  0  0  0  0  0
   -4.6627    3.6246   -2.0745 N   0  0  0  0  0  0  0  0  0  0  0  0
   -0.6091    4.8543   -1.4432 O   0  0  0  0  0  0  0  0  0  0  0  0
   -2.9688    3.5041   -3.6163 O   0  0  0  0  0  0  0  0  0  0  0  0
   -3.3807   -1.4108    1.3618 C   0  0  0  0  0  0  0  0  0  0  0  0
   -1.8572   -3.0797    0.5298 C   0  0  0  0  0  0  0  0  0  0  0  0
   -4.0066   -3.7449    1.4402 C   0  0  0  0  0  0  0  0  0  0  0  0
   -2.7871   -4.0750    0.8479 C   0  0  0  0  0  0  0  0  0  0  0  0
   -4.3087   -2.4077    1.6866 C   0  0  0  0  0  0  0  0  0  0  0  0
   -5.6034    4.2645   -2.9731 C   0  0  0  0  0  0  0  0  0  0  0  0
    1.8442    0.0903   -1.2114 C   0  0  0  0  0  0  0  0  0  0  0  0
   -4.8387   -4.7998    1.6934 O   0  0  0  0  0  0  0  0  0  0  0  0
   -5.7325   -4.6266    2.7902 C   0  0  0  0  0  0  0  0  0  0  0  0
   -5.6251    5.7814   -2.7936 C   0  0  0  0  0  0  0  0  0  0  0  0
   -7.0500    3.8771   -2.6899 C   0  0  0  0  0  0  0  0  0  0  0  0
   -6.9853    6.2230   -3.3300 C   0  0  0  0  0  0  0  0  0  0  0  0
   -7.8531    4.9666   -3.3886 C   0  0  0  0  0  0  0  0  0  0  0  0
   -0.5334    3.1361    0.8002 H   0  0  0  0  0  0  0  0  0  0  0  0
    1.0145    2.9045   -0.0179 H   0  0  0  0  0  0  0  0  0  0  0  0
   -2.5604    1.8206   -1.2978 H   0  0  0  0  0  0  0  0  0  0  0  0
   -2.7911    3.3327   -0.3678 H   0  0  0  0  0  0  0  0  0  0  0  0
   -4.8981    3.5940   -1.0909 H   0  0  0  0  0  0  0  0  0  0  0  0
   -3.6357   -0.3695    1.5532 H   0  0  0  0  0  0  0  0  0  0  0  0
   -0.9126   -3.3710    0.0757 H   0  0  0  0  0  0  0  0  0  0  0  0
   -2.5551   -5.1162    0.6379 H   0  0  0  0  0  0  0  0  0  0  0  0
   -5.2631   -2.1065    2.1059 H   0  0  0  0  0  0  0  0  0  0  0  0
   -5.3498    4.0201   -4.0123 H   0  0  0  0  0  0  0  0  0  0  0  0
    2.5651   -0.5238   -0.6632 H   0  0  0  0  0  0  0  0  0  0  0  0
    1.6926   -0.3554   -2.1993 H   0  0  0  0  0  0  0  0  0  0  0  0
    2.2809    1.0836   -1.3508 H   0  0  0  0  0  0  0  0  0  0  0  0
   -5.1909   -4.3393    3.6971 H   0  0  0  0  0  0  0  0  0  0  0  0
   -6.5179   -3.9042    2.5518 H   0  0  0  0  0  0  0  0  0  0  0  0
   -6.2158   -5.5903    2.9763 H   0  0  0  0  0  0  0  0  0  0  0  0
   -5.5481    6.0470   -1.7312 H   0  0  0  0  0  0  0  0  0  0  0  0
   -4.7956    6.2739   -3.3110 H   0  0  0  0  0  0  0  0  0  0  0  0
   -7.2959    2.8787   -3.0656 H   0  0  0  0  0  0  0  0  0  0  0  0
   -7.2588    3.8894   -1.6137 H   0  0  0  0  0  0  0  0  0  0  0  0
   -7.4282    6.9859   -2.6797 H   0  0  0  0  0  0  0  0  0  0  0  0
   -6.8874    6.6637   -4.3286 H   0  0  0  0  0  0  0  0  0  0  0  0
   -8.8299    5.1190   -2.9180 H   0  0  0  0  0  0  0  0  0  0  0  0
   -8.0307    4.6926   -4.4356 H   0  0  0  0  0  0  0  0  0  0  0  0
  2  1  1  0  0  0  0
  3  1  2  0  0  0  0
  4  3  1  0  0  0  0
  5  2  2  0  0  0  0
  5  4  1  0  0  0  0
  6  7  1  0  0  0  0
  7  2  1  0  0  0  0
  7 27  1  0  0  0  0
  7 28  1  0  0  0  0
  8  9  1  0  0  0  0
  9  6  1  0  0  0  0
  9 29  1  0  0  0  0
  9 30  1  0  0  0  0
 10  3  1  0  0  0  0
 11  8  1  0  0  0  0
 11 31  1  0  0  0  0
 12  6  2  0  0  0  0
 13  8  2  0  0  0  0
 14 10  2  0  0  0  0
 14 32  1  0  0  0  0
 15 10  1  0  0  0  0
 15 33  1  0  0  0  0
 16 17  1  0  0  0  0
 16 18  2  0  0  0  0
 17 15  2  0  0  0  0
 17 34  1  0  0  0  0
 18 14  1  0  0  0  0
 18 35  1  0  0  0  0
 19 11  1  0  0  0  0
 19 36  1  0  0  0  0
 20  5  1  0  0  0  0
 20 37  1  0  0  0  0
 20 38  1  0  0  0  0
 20 39  1  0  0  0  0
 21 16  1  0  0  0  0
 22 21  1  0  0  0  0
 22 40  1  0  0  0  0
 22 41  1  0  0  0  0
 22 42  1  0  0  0  0
 23 19  1  0  0  0  0
 23 43  1  0  0  0  0
 23 44  1  0  0  0  0
 24 19  1  0  0  0  0
 24 45  1  0  0  0  0
 24 46  1  0  0  0  0
 25 23  1  0  0  0  0
 25 47  1  0  0  0  0
 25 48  1  0  0  0  0
 26 24  1  0  0  0  0
 26 25  1  0  0  0  0
 26 49  1  0  0  0  0
 26 50  1  0  0  0  0
M  END
>  <Mol_ID>
9253

>  <Formula>
C19H24N2O4S

>  <MolWeight>
376.46986

>  <Cat>
P2670

>  <Name>
WAY-332022

>  <Synonyms>
N/A

>  <Target>
beta-catenin

>  <Form>
free base

>  <CAS>
1015857-31-4

>  <URL>
N/A

$$$$
