WAY-327500
 OpenBabel08302521443D

 54 56  0  0  0  0  0  0  0  0999 V2000
    1.1830    1.3015   -0.1004 C   0  0  0  0  0  0  0  0  0  0  0  0
   -0.0746    0.5059   -0.0161 C   0  0  0  0  0  0  0  0  0  0  0  0
   -0.0013   -0.8866    0.1556 C   0  0  0  0  0  0  0  0  0  0  0  0
    2.3327    0.6221   -0.2163 C   0  0  0  0  0  0  0  0  0  0  0  0
    1.2254    2.8077   -0.1940 C   0  0  0  0  0  0  0  0  0  0  0  0
    1.3266   -1.5558    0.1961 C   0  0  0  0  0  0  0  0  0  0  0  0
    2.4391   -0.7410   -0.0456 N   0  0  0  0  0  0  0  0  0  0  0  0
    2.1556    3.5432    0.5497 N   0  0  0  0  0  0  0  0  0  0  0  0
   -1.3589    1.0616   -0.1216 C   0  0  0  0  0  0  0  0  0  0  0  0
   -1.1594   -1.6864    0.2558 C   0  0  0  0  0  0  0  0  0  0  0  0
   -2.4302   -1.1144    0.1853 C   0  0  0  0  0  0  0  0  0  0  0  0
   -2.5204    0.2741   -0.0009 C   0  0  0  0  0  0  0  0  0  0  0  0
    3.7251    5.3345    2.3504 N   0  0  0  0  0  0  0  0  0  0  0  0
    1.4033   -2.7636    0.4203 O   0  0  0  0  0  0  0  0  0  0  0  0
    0.3952    3.3751   -0.9068 O   0  0  0  0  0  0  0  0  0  0  0  0
    3.3119    3.0328    1.3021 C   0  0  0  0  0  0  0  0  0  0  0  0
    2.1773    5.0000    0.3549 C   0  0  0  0  0  0  0  0  0  0  0  0
    3.6824    3.8735    2.5419 C   0  0  0  0  0  0  0  0  0  0  0  0
    2.4874    5.7569    1.6617 C   0  0  0  0  0  0  0  0  0  0  0  0
    3.7675   -1.3591   -0.0112 C   0  0  0  0  0  0  0  0  0  0  0  0
   -3.6006   -1.8194    0.2565 O   0  0  0  0  0  0  0  0  0  0  0  0
   -3.6930    0.9745   -0.1538 O   0  0  0  0  0  0  0  0  0  0  0  0
    4.9580    5.7745    1.6865 C   0  0  0  0  0  0  0  0  0  0  0  0
   -4.7021    0.6672    0.8048 C   0  0  0  0  0  0  0  0  0  0  0  0
   -3.5364   -3.2264    0.4512 C   0  0  0  0  0  0  0  0  0  0  0  0
    4.2958   -1.5546    1.4079 C   0  0  0  0  0  0  0  0  0  0  0  0
    5.1644    7.2839    1.7943 C   0  0  0  0  0  0  0  0  0  0  0  0
    3.2708    1.1289   -0.4129 H   0  0  0  0  0  0  0  0  0  0  0  0
   -1.4984    2.1231   -0.3122 H   0  0  0  0  0  0  0  0  0  0  0  0
   -1.0329   -2.7596    0.3706 H   0  0  0  0  0  0  0  0  0  0  0  0
    3.1311    2.0146    1.6486 H   0  0  0  0  0  0  0  0  0  0  0  0
    4.1581    3.0193    0.6033 H   0  0  0  0  0  0  0  0  0  0  0  0
    2.9358    5.2148   -0.4073 H   0  0  0  0  0  0  0  0  0  0  0  0
    1.2199    5.3581   -0.0366 H   0  0  0  0  0  0  0  0  0  0  0  0
    2.9356    3.6672    3.3185 H   0  0  0  0  0  0  0  0  0  0  0  0
    4.6338    3.5103    2.9521 H   0  0  0  0  0  0  0  0  0  0  0  0
    1.6548    5.5888    2.3578 H   0  0  0  0  0  0  0  0  0  0  0  0
    2.4877    6.8351    1.4739 H   0  0  0  0  0  0  0  0  0  0  0  0
    3.7183   -2.3323   -0.5135 H   0  0  0  0  0  0  0  0  0  0  0  0
    4.4716   -0.7384   -0.5787 H   0  0  0  0  0  0  0  0  0  0  0  0
    5.8197    5.3103    2.1839 H   0  0  0  0  0  0  0  0  0  0  0  0
    4.9985    5.4653    0.6365 H   0  0  0  0  0  0  0  0  0  0  0  0
   -5.3580   -0.1255    0.4327 H   0  0  0  0  0  0  0  0  0  0  0  0
   -4.2855    0.4066    1.7843 H   0  0  0  0  0  0  0  0  0  0  0  0
   -5.3175    1.5629    0.9347 H   0  0  0  0  0  0  0  0  0  0  0  0
   -3.1177   -3.7214   -0.4306 H   0  0  0  0  0  0  0  0  0  0  0  0
   -2.9781   -3.4848    1.3570 H   0  0  0  0  0  0  0  0  0  0  0  0
   -4.5604   -3.5902    0.5841 H   0  0  0  0  0  0  0  0  0  0  0  0
    4.3914   -0.5984    1.9330 H   0  0  0  0  0  0  0  0  0  0  0  0
    3.6329   -2.1948    1.9989 H   0  0  0  0  0  0  0  0  0  0  0  0
    5.2836   -2.0267    1.3807 H   0  0  0  0  0  0  0  0  0  0  0  0
    4.3869    7.8483    1.2721 H   0  0  0  0  0  0  0  0  0  0  0  0
    5.1779    7.6041    2.8421 H   0  0  0  0  0  0  0  0  0  0  0  0
    6.1243    7.5645    1.3483 H   0  0  0  0  0  0  0  0  0  0  0  0
  2  1  1  0  0  0  0
  3  2  2  0  0  0  0
  4  1  2  0  0  0  0
  4 28  1  0  0  0  0
  5  1  1  0  0  0  0
  6  7  1  0  0  0  0
  6  3  1  0  0  0  0
  7  4  1  0  0  0  0
  8  5  1  0  0  0  0
  9  2  1  0  0  0  0
  9 29  1  0  0  0  0
 10  3  1  0  0  0  0
 10 30  1  0  0  0  0
 11 12  1  0  0  0  0
 11 10  2  0  0  0  0
 12  9  2  0  0  0  0
 13 19  1  0  0  0  0
 13 18  1  0  0  0  0
 14  6  2  0  0  0  0
 15  5  2  0  0  0  0
 16  8  1  0  0  0  0
 16 31  1  0  0  0  0
 16 32  1  0  0  0  0
 17  8  1  0  0  0  0
 17 33  1  0  0  0  0
 17 34  1  0  0  0  0
 18 16  1  0  0  0  0
 18 35  1  0  0  0  0
 18 36  1  0  0  0  0
 19 17  1  0  0  0  0
 19 37  1  0  0  0  0
 19 38  1  0  0  0  0
 20  7  1  0  0  0  0
 20 39  1  0  0  0  0
 20 40  1  0  0  0  0
 21 11  1  0  0  0  0
 22 12  1  0  0  0  0
 23 13  1  0  0  0  0
 23 41  1  0  0  0  0
 23 42  1  0  0  0  0
 24 22  1  0  0  0  0
 24 43  1  0  0  0  0
 24 44  1  0  0  0  0
 24 45  1  0  0  0  0
 25 21  1  0  0  0  0
 25 46  1  0  0  0  0
 25 47  1  0  0  0  0
 25 48  1  0  0  0  0
 26 20  1  0  0  0  0
 26 49  1  0  0  0  0
 26 50  1  0  0  0  0
 26 51  1  0  0  0  0
 27 23  1  0  0  0  0
 27 52  1  0  0  0  0
 27 53  1  0  0  0  0
 27 54  1  0  0  0  0
M  END
>  <Mol_ID>
8976

>  <Formula>
C20H27N3O4

>  <MolWeight>
373.44608

>  <Cat>
P2539

>  <Name>
WAY-327500

>  <Synonyms>
N/A

>  <Target>
phosphodiesterase type 10A

>  <Form>
free base

>  <CAS>
892266-03-4

>  <URL>
N/A

$$$$
