WAY-638857
 OpenBabel08302521433D

 32 34  0  0  0  0  0  0  0  0999 V2000
   -0.0855   -1.0781   -0.0867 N   0  0  0  0  0  0  0  0  0  0  0  0
    0.1405   -0.1504   -1.1083 C   0  0  0  0  0  0  0  0  0  0  0  0
   -1.2362    0.8240    0.5794 C   0  0  3  0  0  0  0  0  0  0  0  0
    0.3818   -2.4156   -0.1100 C   0  0  0  0  0  0  0  0  0  0  0  0
   -0.5720   -0.4352    1.1066 C   0  0  0  0  0  0  0  0  0  0  0  0
   -0.3869    1.1849   -0.6365 C   0  0  0  0  0  0  0  0  0  0  0  0
   -2.6749    0.5753    0.1936 C   0  0  0  0  0  0  0  0  0  0  0  0
    0.0304   -3.3133   -1.1619 C   0  0  0  0  0  0  0  0  0  0  0  0
    0.7245   -0.3124   -2.1663 O   0  0  0  0  0  0  0  0  0  0  0  0
   -3.1899    0.7679   -0.8927 O   0  0  0  0  0  0  0  0  0  0  0  0
    0.5348   -4.6393   -1.1154 C   0  0  0  0  0  0  0  0  0  0  0  0
   -3.4254    0.1595    1.2326 O   0  0  0  0  0  0  0  0  0  0  0  0
    1.1874   -2.8569    0.9509 C   0  0  0  0  0  0  0  0  0  0  0  0
   -0.8406   -2.9943   -2.2334 C   0  0  0  0  0  0  0  0  0  0  0  0
    1.6970   -4.1519    0.9633 C   0  0  0  0  0  0  0  0  0  0  0  0
    1.3708   -5.0353   -0.0612 C   0  0  0  0  0  0  0  0  0  0  0  0
    0.1882   -5.5638   -2.1164 C   0  0  0  0  0  0  0  0  0  0  0  0
   -1.1701   -3.9200   -3.2251 C   0  0  0  0  0  0  0  0  0  0  0  0
   -0.6550   -5.2065   -3.1664 C   0  0  0  0  0  0  0  0  0  0  0  0
   -1.2374    1.6361    1.3147 H   0  0  0  0  0  0  0  0  0  0  0  0
    0.2804   -0.1744    1.7441 H   0  0  0  0  0  0  0  0  0  0  0  0
   -1.2486   -1.1033    1.6502 H   0  0  0  0  0  0  0  0  0  0  0  0
    0.4695    1.8012   -0.3442 H   0  0  0  0  0  0  0  0  0  0  0  0
   -0.9406    1.6788   -1.4381 H   0  0  0  0  0  0  0  0  0  0  0  0
   -4.3263    0.0612    0.8531 H   0  0  0  0  0  0  0  0  0  0  0  0
    1.4805   -2.1815    1.7492 H   0  0  0  0  0  0  0  0  0  0  0  0
   -1.2787   -2.0029   -2.3130 H   0  0  0  0  0  0  0  0  0  0  0  0
    2.3580   -4.4714    1.7649 H   0  0  0  0  0  0  0  0  0  0  0  0
    1.7739   -6.0455   -0.0291 H   0  0  0  0  0  0  0  0  0  0  0  0
    0.5720   -6.5813   -2.0824 H   0  0  0  0  0  0  0  0  0  0  0  0
   -1.8260   -3.6271   -4.0400 H   0  0  0  0  0  0  0  0  0  0  0  0
   -0.9103   -5.9315   -3.9342 H   0  0  0  0  0  0  0  0  0  0  0  0
  2  1  1  0  0  0  0
  3  5  1  0  0  0  0
  3 20  1  0  0  0  0
  4  1  1  0  0  0  0
  5  1  1  0  0  0  0
  5 21  1  0  0  0  0
  5 22  1  0  0  0  0
  6  2  1  0  0  0  0
  6  3  1  0  0  0  0
  6 23  1  0  0  0  0
  6 24  1  0  0  0  0
  7  3  1  0  0  0  0
  8  4  1  0  0  0  0
  9  2  2  0  0  0  0
 10  7  2  0  0  0  0
 11  8  2  0  0  0  0
 12  7  1  0  0  0  0
 12 25  1  0  0  0  0
 13  4  2  0  0  0  0
 13 26  1  0  0  0  0
 14  8  1  0  0  0  0
 14 27  1  0  0  0  0
 15 13  1  0  0  0  0
 15 28  1  0  0  0  0
 16 15  2  0  0  0  0
 16 11  1  0  0  0  0
 16 29  1  0  0  0  0
 17 11  1  0  0  0  0
 17 30  1  0  0  0  0
 18 14  2  0  0  0  0
 18 31  1  0  0  0  0
 19 18  1  0  0  0  0
 19 17  2  0  0  0  0
 19 32  1  0  0  0  0
M  END
>  <Mol_ID>
8793

>  <Formula>
C15H13NO3

>  <MolWeight>
255.26862

>  <Cat>
P3057

>  <Name>
WAY-638857

>  <Synonyms>
N/A

>  <Target>
Androgen Receptor

>  <Form>
free base

>  <CAS>
1351446-58-6

>  <URL>
N/A

$$$$
