WAY-312208
 OpenBabel08302521393D

 49 53  0  0  0  0  0  0  0  0999 V2000
    0.8508   -0.9621   -0.3740 C   0  0  0  0  0  0  0  0  0  0  0  0
   -0.4771   -1.6751   -0.3437 C   0  0  3  0  0  0  0  0  0  0  0  0
    0.9550    0.3682   -0.2364 C   0  0  0  0  0  0  0  0  0  0  0  0
    2.2159   -1.5122   -0.4365 C   0  0  0  0  0  0  0  0  0  0  0  0
   -1.6162   -0.6798   -0.0129 C   0  0  0  0  0  0  0  0  0  0  0  0
   -0.4270   -2.9022    0.5659 C   0  0  0  0  0  0  0  0  0  0  0  0
    2.3434    0.7715   -0.1517 C   0  0  0  0  0  0  0  0  0  0  0  0
   -0.1268    1.1821   -0.0902 N   0  0  0  0  0  0  0  0  0  0  0  0
    3.1238   -0.3794   -0.2316 C   0  0  0  0  0  0  0  0  0  0  0  0
    2.5515   -2.6618   -0.6260 O   0  0  0  0  0  0  0  0  0  0  0  0
   -1.4058    0.6624    0.0524 C   0  0  0  0  0  0  0  0  0  0  0  0
   -3.0065   -1.1894    0.1844 C   0  0  0  0  0  0  0  0  0  0  0  0
   -0.0524   -2.8158    1.9153 C   0  0  0  0  0  0  0  0  0  0  0  0
   -0.7167   -4.1722    0.0289 C   0  0  0  0  0  0  0  0  0  0  0  0
    2.9432    2.0032    0.0413 C   0  0  0  0  0  0  0  0  0  0  0  0
    4.4993   -0.3650   -0.0920 C   0  0  0  0  0  0  0  0  0  0  0  0
   -2.5049    1.6834    0.2600 C   0  0  0  0  0  0  0  0  0  0  0  0
   -4.0540   -0.2179    0.6954 C   0  0  0  0  0  0  0  0  0  0  0  0
   -3.3010   -2.3595   -0.0429 O   0  0  0  0  0  0  0  0  0  0  0  0
    0.0705   -3.9719    2.6935 C   0  0  0  0  0  0  0  0  0  0  0  0
   -0.6108   -5.3231    0.8116 C   0  0  0  0  0  0  0  0  0  0  0  0
    4.3358    2.0491    0.1789 C   0  0  0  0  0  0  0  0  0  0  0  0
    5.1073    0.8727    0.1241 C   0  0  0  0  0  0  0  0  0  0  0  0
   -3.9248    1.1435    0.0012 C   0  0  0  0  0  0  0  0  0  0  0  0
   -0.2009   -5.2159    2.1329 C   0  0  0  0  0  0  0  0  0  0  0  0
   -4.9558    2.1284    0.5798 C   0  0  0  0  0  0  0  0  0  0  0  0
   -4.1996    1.0028   -1.5119 C   0  0  0  0  0  0  0  0  0  0  0  0
   -0.0693   -6.3661    2.8533 O   0  0  0  0  0  0  0  0  0  0  0  0
   -0.6645   -2.0183   -1.3675 H   0  0  0  0  0  0  0  0  0  0  0  0
    0.0194    2.1761    0.0455 H   0  0  0  0  0  0  0  0  0  0  0  0
    0.1758   -1.8517    2.3610 H   0  0  0  0  0  0  0  0  0  0  0  0
   -1.0255   -4.2755   -1.0096 H   0  0  0  0  0  0  0  0  0  0  0  0
    2.3594    2.9164    0.0999 H   0  0  0  0  0  0  0  0  0  0  0  0
    5.0743   -1.2844   -0.1288 H   0  0  0  0  0  0  0  0  0  0  0  0
   -2.3277    2.5489   -0.3927 H   0  0  0  0  0  0  0  0  0  0  0  0
   -2.4226    2.0509    1.2917 H   0  0  0  0  0  0  0  0  0  0  0  0
   -5.0469   -0.6462    0.5128 H   0  0  0  0  0  0  0  0  0  0  0  0
   -3.9308   -0.1256    1.7820 H   0  0  0  0  0  0  0  0  0  0  0  0
    0.3878   -3.8818    3.7272 H   0  0  0  0  0  0  0  0  0  0  0  0
   -0.8310   -6.2966    0.3845 H   0  0  0  0  0  0  0  0  0  0  0  0
    4.8303    3.0050    0.3437 H   0  0  0  0  0  0  0  0  0  0  0  0
    6.1855    0.9305    0.2585 H   0  0  0  0  0  0  0  0  0  0  0  0
   -4.8147    2.2688    1.6569 H   0  0  0  0  0  0  0  0  0  0  0  0
   -4.8724    3.1111    0.1030 H   0  0  0  0  0  0  0  0  0  0  0  0
   -5.9784    1.7668    0.4232 H   0  0  0  0  0  0  0  0  0  0  0  0
   -4.1518    1.9761   -2.0124 H   0  0  0  0  0  0  0  0  0  0  0  0
   -3.4796    0.3467   -2.0105 H   0  0  0  0  0  0  0  0  0  0  0  0
   -5.1982    0.5873   -1.6886 H   0  0  0  0  0  0  0  0  0  0  0  0
    0.3381   -6.1452    3.7056 H   0  0  0  0  0  0  0  0  0  0  0  0
  1  2  1  0  0  0  0
  1  3  2  0  0  0  0
  1  4  1  0  0  0  0
  2  5  1  0  0  0  0
  2  6  1  0  0  0  0
  2 29  1  0  0  0  0
  3  7  1  0  0  0  0
  3  8  1  0  0  0  0
  4  9  1  0  0  0  0
  4 10  2  0  0  0  0
  5 11  2  0  0  0  0
  5 12  1  0  0  0  0
  6 13  2  0  0  0  0
  6 14  1  0  0  0  0
  7 15  2  0  0  0  0
  7  9  1  0  0  0  0
  8 11  1  0  0  0  0
  8 30  1  0  0  0  0
  9 16  2  0  0  0  0
 11 17  1  0  0  0  0
 12 18  1  0  0  0  0
 12 19  2  0  0  0  0
 13 20  1  0  0  0  0
 13 31  1  0  0  0  0
 14 21  2  0  0  0  0
 14 32  1  0  0  0  0
 15 22  1  0  0  0  0
 15 33  1  0  0  0  0
 16 23  1  0  0  0  0
 16 34  1  0  0  0  0
 17 24  1  0  0  0  0
 17 35  1  0  0  0  0
 17 36  1  0  0  0  0
 18 24  1  0  0  0  0
 18 37  1  0  0  0  0
 18 38  1  0  0  0  0
 20 25  2  0  0  0  0
 20 39  1  0  0  0  0
 21 25  1  0  0  0  0
 21 40  1  0  0  0  0
 22 23  2  0  0  0  0
 22 41  1  0  0  0  0
 23 42  1  0  0  0  0
 24 26  1  0  0  0  0
 24 27  1  0  0  0  0
 25 28  1  0  0  0  0
 26 43  1  0  0  0  0
 26 44  1  0  0  0  0
 26 45  1  0  0  0  0
 27 46  1  0  0  0  0
 27 47  1  0  0  0  0
 27 48  1  0  0  0  0
 28 49  1  0  0  0  0
M  END
>  <Mol_ID>
8147

>  <Formula>
C24H21NO3

>  <MolWeight>
371.42844

>  <Cat>
P2228

>  <Name>
WAY-312208

>  <Synonyms>
N/A

>  <Target>
others

>  <Form>
free base

>  <CAS>
332938-24-6

>  <URL>
N/A

$$$$
