WAY-300781
 OpenBabel08302521413D

 53 56  0  0  0  0  0  0  0  0999 V2000
    0.8829   -0.7483    0.0794 N   0  0  0  0  0  0  0  0  0  0  0  0
   -0.2256    1.2171   -0.1284 C   0  0  0  0  0  0  0  0  0  0  0  0
   -0.4412   -0.9817   -0.0324 N   0  0  0  0  0  0  0  0  0  0  0  0
    1.0355    0.5842    0.0864 C   0  0  0  0  0  0  0  0  0  0  0  0
   -1.1447    0.1938   -0.1862 C   0  0  0  0  0  0  0  0  0  0  0  0
   -0.7017    3.5722   -0.9567 C   0  0  0  0  0  0  0  0  0  0  0  0
   -0.7428    6.9449    0.8217 C   0  0  0  0  0  0  0  0  0  0  0  0
   -0.5120    5.4981    0.6044 C   0  0  0  0  0  0  0  0  0  0  0  0
   -0.5531    2.6056   -0.0270 C   0  0  0  0  0  0  0  0  0  0  0  0
   -0.8749    4.9280   -0.6108 N   0  0  0  0  0  0  0  0  0  0  0  0
   -0.7399    3.2569   -2.4386 C   0  0  0  0  0  0  0  0  0  0  0  0
   -1.0007    7.3293    2.1465 C   0  0  0  0  0  0  0  0  0  0  0  0
   -0.5575    7.9198   -0.1615 C   0  0  0  0  0  0  0  0  0  0  0  0
   -1.0305    8.6736    2.5041 C   0  0  0  0  0  0  0  0  0  0  0  0
   -0.9273   -2.3192    0.0676 C   0  0  0  0  0  0  0  0  0  0  0  0
    0.0414    4.8986    1.5185 O   0  0  0  0  0  0  0  0  0  0  0  0
    2.3742    1.1329    0.3562 C   0  0  0  0  0  0  0  0  0  0  0  0
   -1.1216    2.1900   -2.9044 O   0  0  0  0  0  0  0  0  0  0  0  0
   -0.3601    4.3492   -3.2259 N   0  0  0  0  0  0  0  0  0  0  0  0
   -0.8100    9.6458    1.5342 C   0  0  0  0  0  0  0  0  0  0  0  0
   -0.5872    9.2728    0.2051 C   0  0  0  0  0  0  0  0  0  0  0  0
   -0.7597    4.4135   -4.5779 N   0  0  0  0  0  0  0  0  0  0  0  0
   -0.0158   -3.3645    0.3111 C   0  0  0  0  0  0  0  0  0  0  0  0
   -2.2884   -2.6182   -0.0553 C   0  0  0  0  0  0  0  0  0  0  0  0
    2.5730    2.3940    0.9297 C   0  0  0  0  0  0  0  0  0  0  0  0
    3.5069    0.3373    0.1035 C   0  0  0  0  0  0  0  0  0  0  0  0
   -2.7241   -3.9444    0.0574 C   0  0  0  0  0  0  0  0  0  0  0  0
   -0.4580   -4.6838    0.4248 C   0  0  0  0  0  0  0  0  0  0  0  0
    3.8607    2.8476    1.2363 C   0  0  0  0  0  0  0  0  0  0  0  0
    4.7921    0.7840    0.4175 C   0  0  0  0  0  0  0  0  0  0  0  0
   -1.8128   -4.9736    0.2961 C   0  0  0  0  0  0  0  0  0  0  0  0
    4.9681    2.0418    0.9844 C   0  0  0  0  0  0  0  0  0  0  0  0
   -2.2209    0.2083   -0.2631 H   0  0  0  0  0  0  0  0  0  0  0  0
   -0.6601    2.8893    1.0169 H   0  0  0  0  0  0  0  0  0  0  0  0
   -1.2874    5.5229   -1.3226 H   0  0  0  0  0  0  0  0  0  0  0  0
   -1.1308    6.5710    2.9173 H   0  0  0  0  0  0  0  0  0  0  0  0
   -0.3213    7.6630   -1.1894 H   0  0  0  0  0  0  0  0  0  0  0  0
   -1.1906    8.9525    3.5427 H   0  0  0  0  0  0  0  0  0  0  0  0
    0.0535    5.1672   -2.7902 H   0  0  0  0  0  0  0  0  0  0  0  0
   -0.7914   10.6948    1.8206 H   0  0  0  0  0  0  0  0  0  0  0  0
   -0.3997   10.0459   -0.5370 H   0  0  0  0  0  0  0  0  0  0  0  0
   -0.7890    3.4480   -4.9340 H   0  0  0  0  0  0  0  0  0  0  0  0
   -0.0448    4.8882   -5.1320 H   0  0  0  0  0  0  0  0  0  0  0  0
    1.0489   -3.1635    0.4233 H   0  0  0  0  0  0  0  0  0  0  0  0
   -3.0313   -1.8503   -0.2434 H   0  0  0  0  0  0  0  0  0  0  0  0
    1.7397    3.0367    1.1901 H   0  0  0  0  0  0  0  0  0  0  0  0
    3.3879   -0.6574   -0.3237 H   0  0  0  0  0  0  0  0  0  0  0  0
   -3.7811   -4.1777   -0.0432 H   0  0  0  0  0  0  0  0  0  0  0  0
    0.2570   -5.4806    0.6156 H   0  0  0  0  0  0  0  0  0  0  0  0
    3.9902    3.8249    1.6943 H   0  0  0  0  0  0  0  0  0  0  0  0
    5.6470    0.1399    0.2320 H   0  0  0  0  0  0  0  0  0  0  0  0
   -2.1585   -6.0006    0.3810 H   0  0  0  0  0  0  0  0  0  0  0  0
    5.9647    2.3875    1.2433 H   0  0  0  0  0  0  0  0  0  0  0  0
  2  4  1  0  0  0  0
  3  1  1  0  0  0  0
  4  1  2  0  0  0  0
  5  3  1  0  0  0  0
  5  2  2  0  0  0  0
  5 33  1  0  0  0  0
  6  9  2  0  0  0  0
  7  8  1  0  0  0  0
  8 10  1  0  0  0  0
  9  2  1  0  0  0  0
  9 34  1  0  0  0  0
 10  6  1  0  0  0  0
 10 35  1  0  0  0  0
 11  6  1  0  0  0  0
 12  7  2  0  0  0  0
 12 36  1  0  0  0  0
 13  7  1  0  0  0  0
 13 37  1  0  0  0  0
 14 12  1  0  0  0  0
 14 38  1  0  0  0  0
 15  3  1  0  0  0  0
 16  8  2  0  0  0  0
 17  4  1  0  0  0  0
 18 11  2  0  0  0  0
 19 11  1  0  0  0  0
 19 39  1  0  0  0  0
 20 21  1  0  0  0  0
 20 14  2  0  0  0  0
 20 40  1  0  0  0  0
 21 13  2  0  0  0  0
 21 41  1  0  0  0  0
 22 19  1  0  0  0  0
 22 42  1  0  0  0  0
 22 43  1  0  0  0  0
 23 15  2  0  0  0  0
 23 44  1  0  0  0  0
 24 15  1  0  0  0  0
 24 45  1  0  0  0  0
 25 17  2  0  0  0  0
 25 46  1  0  0  0  0
 26 17  1  0  0  0  0
 26 47  1  0  0  0  0
 27 24  2  0  0  0  0
 27 48  1  0  0  0  0
 28 23  1  0  0  0  0
 28 49  1  0  0  0  0
 29 25  1  0  0  0  0
 29 50  1  0  0  0  0
 30 26  2  0  0  0  0
 30 51  1  0  0  0  0
 31 28  2  0  0  0  0
 31 27  1  0  0  0  0
 31 52  1  0  0  0  0
 32 30  1  0  0  0  0
 32 29  2  0  0  0  0
 32 53  1  0  0  0  0
M  END
>  <Mol_ID>
8422

>  <Formula>
C25H19Cl2N5O2

>  <MolWeight>
492.35666

>  <Cat>
P2155

>  <Name>
WAY-300781

>  <Synonyms>
N/A

>  <Target>
ras

>  <Form>
free base

>  <CAS>
257289-82-0

>  <URL>
N/A

$$$$
