WAY-332009
 OpenBabel08302521443D

 54 56  0  0  0  0  0  0  0  0999 V2000
   -3.0853    0.9249   -2.6748 N   0  0  0  0  0  0  0  0  0  0  0  0
   -3.4387   -0.1708   -2.0254 C   0  0  0  0  0  0  0  0  0  0  0  0
   -2.9587    1.8810   -1.6881 C   0  0  0  0  0  0  0  0  0  0  0  0
   -3.5749    0.0052   -0.6712 O   0  0  0  0  0  0  0  0  0  0  0  0
   -3.2618    1.3191   -0.4659 C   0  0  0  0  0  0  0  0  0  0  0  0
   -3.5932   -1.5318   -2.5348 C   0  0  0  0  0  0  0  0  0  0  0  0
    1.4583    2.6119   -3.0846 C   0  0  0  0  0  0  0  0  0  0  0  0
    2.2540    1.5002   -3.1550 N   0  0  0  0  0  0  0  0  0  0  0  0
    2.0104    3.7101   -3.1905 O   0  0  0  0  0  0  0  0  0  0  0  0
   -3.3400   -1.7929   -3.8889 C   0  0  0  0  0  0  0  0  0  0  0  0
   -3.9267   -2.6082   -1.7007 C   0  0  0  0  0  0  0  0  0  0  0  0
   -0.7363    3.4863   -1.6426 S   0  0  0  0  0  0  0  0  0  0  0  0
   -2.5122    3.2636   -1.9989 C   0  0  0  0  0  0  0  0  0  0  0  0
    1.9993    0.1677   -2.6176 C   0  0  3  0  0  0  0  0  0  0  0  0
   -3.3625   -3.0997   -4.3851 C   0  0  0  0  0  0  0  0  0  0  0  0
   -3.9499   -3.9176   -2.1958 C   0  0  0  0  0  0  0  0  0  0  0  0
   -3.6460   -4.1747   -3.5367 C   0  0  0  0  0  0  0  0  0  0  0  0
   -0.0552    2.4661   -2.9913 C   0  0  0  0  0  0  0  0  0  0  0  0
    2.7671   -0.8870   -3.4207 C   0  0  0  0  0  0  0  0  0  0  0  0
    2.4101    0.1084   -1.1385 C   0  0  0  0  0  0  0  0  0  0  0  0
   -3.2639    1.8187    0.9190 C   0  0  0  0  0  0  0  0  0  0  0  0
    2.5054   -2.2808   -2.8558 C   0  0  0  0  0  0  0  0  0  0  0  0
    2.2360   -1.2923   -0.5478 C   0  0  0  0  0  0  0  0  0  0  0  0
    2.9421   -2.3684   -1.3882 C   0  0  3  0  0  0  0  0  0  0  0  0
   -3.5788   -5.5790   -4.0607 C   0  0  0  0  0  0  0  0  0  0  0  0
    2.6803   -3.7706   -0.8392 C   0  0  0  0  0  0  0  0  0  0  0  0
    3.2283    1.7658   -3.2418 H   0  0  0  0  0  0  0  0  0  0  0  0
   -3.0959   -0.9740   -4.5638 H   0  0  0  0  0  0  0  0  0  0  0  0
   -4.1476   -2.4428   -0.6482 H   0  0  0  0  0  0  0  0  0  0  0  0
   -2.7124    3.5151   -3.0456 H   0  0  0  0  0  0  0  0  0  0  0  0
   -3.0722    3.9791   -1.3870 H   0  0  0  0  0  0  0  0  0  0  0  0
    0.9325   -0.0564   -2.6912 H   0  0  0  0  0  0  0  0  0  0  0  0
   -3.1360   -3.2736   -5.4347 H   0  0  0  0  0  0  0  0  0  0  0  0
   -4.1875   -4.7349   -1.5183 H   0  0  0  0  0  0  0  0  0  0  0  0
   -0.3607    1.4342   -2.8408 H   0  0  0  0  0  0  0  0  0  0  0  0
   -0.4645    2.8062   -3.9484 H   0  0  0  0  0  0  0  0  0  0  0  0
    3.8439   -0.6773   -3.3931 H   0  0  0  0  0  0  0  0  0  0  0  0
    2.4673   -0.8544   -4.4737 H   0  0  0  0  0  0  0  0  0  0  0  0
    3.4641    0.4104   -1.0406 H   0  0  0  0  0  0  0  0  0  0  0  0
    1.8306    0.8292   -0.5556 H   0  0  0  0  0  0  0  0  0  0  0  0
   -3.9010    1.2080    1.5655 H   0  0  0  0  0  0  0  0  0  0  0  0
   -2.2475    1.8082    1.3253 H   0  0  0  0  0  0  0  0  0  0  0  0
   -3.6336    2.8488    0.9574 H   0  0  0  0  0  0  0  0  0  0  0  0
    3.0409   -3.0268   -3.4527 H   0  0  0  0  0  0  0  0  0  0  0  0
    1.4348   -2.5136   -2.9405 H   0  0  0  0  0  0  0  0  0  0  0  0
    1.1647   -1.5176   -0.4751 H   0  0  0  0  0  0  0  0  0  0  0  0
    2.6314   -1.3011    0.4752 H   0  0  0  0  0  0  0  0  0  0  0  0
    4.0242   -2.1845   -1.3363 H   0  0  0  0  0  0  0  0  0  0  0  0
   -4.2456   -5.7012   -4.9198 H   0  0  0  0  0  0  0  0  0  0  0  0
   -2.5524   -5.8123   -4.3662 H   0  0  0  0  0  0  0  0  0  0  0  0
   -3.8733   -6.3069   -3.2984 H   0  0  0  0  0  0  0  0  0  0  0  0
    2.9672   -3.8362    0.2151 H   0  0  0  0  0  0  0  0  0  0  0  0
    1.6241   -4.0421   -0.9235 H   0  0  0  0  0  0  0  0  0  0  0  0
    3.2678   -4.5131   -1.3919 H   0  0  0  0  0  0  0  0  0  0  0  0
  2  1  2  0  0  0  0
  3  1  1  0  0  0  0
  4  2  1  0  0  0  0
  5  3  2  0  0  0  0
  5  4  1  0  0  0  0
  6  2  1  0  0  0  0
  7 18  1  0  0  0  0
  8  7  1  0  0  0  0
  8 27  1  0  0  0  0
  9  7  2  0  0  0  0
 10  6  2  0  0  0  0
 10 28  1  0  0  0  0
 11  6  1  0  0  0  0
 11 29  1  0  0  0  0
 12 13  1  0  0  0  0
 13  3  1  0  0  0  0
 13 30  1  0  0  0  0
 13 31  1  0  0  0  0
 14  8  1  0  0  0  0
 14 32  1  0  0  0  0
 15 10  1  0  0  0  0
 15 33  1  0  0  0  0
 16 11  2  0  0  0  0
 16 34  1  0  0  0  0
 17 16  1  0  0  0  0
 17 15  2  0  0  0  0
 18 12  1  0  0  0  0
 18 35  1  0  0  0  0
 18 36  1  0  0  0  0
 19 14  1  0  0  0  0
 19 37  1  0  0  0  0
 19 38  1  0  0  0  0
 20 14  1  0  0  0  0
 20 39  1  0  0  0  0
 20 40  1  0  0  0  0
 21  5  1  0  0  0  0
 21 41  1  0  0  0  0
 21 42  1  0  0  0  0
 21 43  1  0  0  0  0
 22 19  1  0  0  0  0
 22 24  1  0  0  0  0
 22 44  1  0  0  0  0
 22 45  1  0  0  0  0
 23 20  1  0  0  0  0
 23 46  1  0  0  0  0
 23 47  1  0  0  0  0
 24 23  1  0  0  0  0
 24 48  1  0  0  0  0
 25 17  1  0  0  0  0
 25 49  1  0  0  0  0
 25 50  1  0  0  0  0
 25 51  1  0  0  0  0
 26 24  1  0  0  0  0
 26 52  1  0  0  0  0
 26 53  1  0  0  0  0
 26 54  1  0  0  0  0
M  END
>  <Mol_ID>
9236

>  <Formula>
C21H28N2O2S

>  <MolWeight>
372.52422

>  <Cat>
P2666

>  <Name>
WAY-332009

>  <Synonyms>
N/A

>  <Target>
beta-catenin

>  <Form>
free base

>  <CAS>
902168-19-8

>  <URL>
N/A

$$$$
