WAY-622024
 OpenBabel08302521443D

 26 27  0  0  0  0  0  0  0  0999 V2000
    1.2944    0.0824    0.2770 C   0  0  0  0  0  0  0  0  0  0  0  0
    2.6806    0.0700    0.6816 N   0  3  0  0  0  0  0  0  0  0  0  0
    0.5737   -1.1147    0.1318 C   0  0  0  0  0  0  0  0  0  0  0  0
    0.6912    1.3507    0.2187 C   0  0  0  0  0  0  0  0  0  0  0  0
   -0.6907    1.4404    0.0521 C   0  0  0  0  0  0  0  0  0  0  0  0
    1.0975   -2.4227    0.1528 N   0  0  0  0  0  0  0  0  0  0  0  0
   -1.3191    2.7826    0.0905 C   0  0  0  0  0  0  0  0  0  0  0  0
    2.4367   -2.7857   -0.3093 C   0  0  0  0  0  0  0  0  0  0  0  0
    2.9174   -0.2094    1.8656 O   0  5  0  0  0  0  0  0  0  0  0  0
    3.5190    0.4155   -0.1620 O   0  0  0  0  0  0  0  0  0  0  0  0
    2.8215   -2.7428   -1.7608 C   0  0  0  0  0  0  0  0  0  0  0  0
    2.6246   -4.0647   -1.0827 C   0  0  0  0  0  0  0  0  0  0  0  0
   -0.8133   -0.9842   -0.0645 C   0  0  0  0  0  0  0  0  0  0  0  0
   -0.7274    3.8452    0.1363 O   0  0  0  0  0  0  0  0  0  0  0  0
   -1.4400    0.2697   -0.0942 C   0  0  0  0  0  0  0  0  0  0  0  0
   -2.6628    2.7246    0.1368 O   0  0  0  0  0  0  0  0  0  0  0  0
    1.2839    2.2542    0.3491 H   0  0  0  0  0  0  0  0  0  0  0  0
    0.3947   -3.1574    0.1460 H   0  0  0  0  0  0  0  0  0  0  0  0
    3.2076   -2.5853    0.4302 H   0  0  0  0  0  0  0  0  0  0  0  0
    2.0831   -2.4357   -2.4913 H   0  0  0  0  0  0  0  0  0  0  0  0
    3.8358   -2.4472   -2.0064 H   0  0  0  0  0  0  0  0  0  0  0  0
    3.5045   -4.6606   -0.8673 H   0  0  0  0  0  0  0  0  0  0  0  0
    1.7545   -4.6473   -1.3597 H   0  0  0  0  0  0  0  0  0  0  0  0
   -1.4356   -1.8686   -0.1874 H   0  0  0  0  0  0  0  0  0  0  0  0
   -2.5214    0.3174   -0.2232 H   0  0  0  0  0  0  0  0  0  0  0  0
   -2.9415    3.6610    0.2340 H   0  0  0  0  0  0  0  0  0  0  0  0
  2  1  1  0  0  0  0
  3  1  2  0  0  0  0
  4  1  1  0  0  0  0
  4 17  1  0  0  0  0
  5  4  2  0  0  0  0
  6  3  1  0  0  0  0
  6 18  1  0  0  0  0
  7  5  1  0  0  0  0
  8  6  1  0  0  0  0
  8 19  1  0  0  0  0
  9  2  1  0  0  0  0
 10  2  2  0  0  0  0
 11  8  1  0  0  0  0
 11 20  1  0  0  0  0
 11 21  1  0  0  0  0
 12  8  1  0  0  0  0
 12 11  1  0  0  0  0
 12 22  1  0  0  0  0
 12 23  1  0  0  0  0
 13  3  1  0  0  0  0
 13 24  1  0  0  0  0
 14  7  2  0  0  0  0
 15  5  1  0  0  0  0
 15 13  2  0  0  0  0
 15 25  1  0  0  0  0
 16  7  1  0  0  0  0
 16 26  1  0  0  0  0
M  CHG  2   2   1   9  -1
M  END
>  <Mol_ID>
9065

>  <Formula>
C10H10N2O4

>  <MolWeight>
222.1974

>  <Cat>
P2986

>  <Name>
WAY-622024

>  <Synonyms>
N/A

>  <Target>
GPR109b

>  <Form>
free base

>  <CAS>
291528-35-3

>  <URL>
N/A

$$$$
