WAY-325695
 OpenBabel08302521433D

 42 44  0  0  0  0  0  0  0  0999 V2000
   -0.7553    1.0936    0.0309 C   0  0  0  0  0  0  0  0  0  0  0  0
    0.5251   -0.0268    0.2050 S   0  0  0  0  0  0  0  0  0  0  0  0
   -1.7477    0.6408   -0.7062 N   0  0  0  0  0  0  0  0  0  0  0  0
   -1.6230   -0.7112   -0.9793 N   0  0  0  0  0  0  0  0  0  0  0  0
   -0.5267   -1.2196   -0.4523 C   0  0  0  0  0  0  0  0  0  0  0  0
   -0.7600    2.3555    0.5984 N   0  0  0  0  0  0  0  0  0  0  0  0
    0.1148    2.8045    1.5747 C   0  0  0  0  0  0  0  0  0  0  0  0
   -0.0903    4.2557    2.0356 C   0  0  0  0  0  0  0  0  0  0  0  0
   -1.4021    4.4445    2.7272 C   0  0  0  0  0  0  0  0  0  0  0  0
   -2.7620    5.0073    1.8511 S   0  0  0  0  0  0  0  0  0  0  0  0
    0.0255   -4.6208    2.9282 C   0  0  0  0  0  0  0  0  0  0  0  0
   -1.3153   -4.6547    3.3410 C   0  0  0  0  0  0  0  0  0  0  0  0
    0.3596   -3.9344    1.7472 C   0  0  0  0  0  0  0  0  0  0  0  0
   -3.8093    4.6615    3.1540 C   0  0  0  0  0  0  0  0  0  0  0  0
    1.0378    2.1571    2.0528 O   0  0  0  0  0  0  0  0  0  0  0  0
   -1.7060    4.2723    4.0632 C   0  0  0  0  0  0  0  0  0  0  0  0
   -0.6140   -3.3304    0.9363 C   0  0  0  0  0  0  0  0  0  0  0  0
   -0.2091   -2.6821   -0.3787 C   0  0  0  0  0  0  0  0  0  0  0  0
   -3.1178    4.3121    4.2927 C   0  0  0  0  0  0  0  0  0  0  0  0
   -2.2910   -4.0532    2.5341 C   0  0  0  0  0  0  0  0  0  0  0  0
   -1.9499   -3.3953    1.3483 C   0  0  0  0  0  0  0  0  0  0  0  0
    0.9731   -5.2493    3.6931 O   0  0  0  0  0  0  0  0  0  0  0  0
   -1.8346   -5.2841    4.4435 O   0  0  0  0  0  0  0  0  0  0  0  0
    2.1096   -5.7527    2.9968 C   0  0  0  0  0  0  0  0  0  0  0  0
   -0.9969   -5.3920    5.5884 C   0  0  0  0  0  0  0  0  0  0  0  0
   -1.6079    2.8737    0.4149 H   0  0  0  0  0  0  0  0  0  0  0  0
    0.7276    4.4907    2.7305 H   0  0  0  0  0  0  0  0  0  0  0  0
    0.0336    4.9267    1.1759 H   0  0  0  0  0  0  0  0  0  0  0  0
    1.3957   -3.8637    1.4325 H   0  0  0  0  0  0  0  0  0  0  0  0
   -4.8794    4.7492    3.0333 H   0  0  0  0  0  0  0  0  0  0  0  0
   -0.9754    4.0382    4.8303 H   0  0  0  0  0  0  0  0  0  0  0  0
   -0.7246   -3.2151   -1.1882 H   0  0  0  0  0  0  0  0  0  0  0  0
    0.8622   -2.8449   -0.5612 H   0  0  0  0  0  0  0  0  0  0  0  0
   -3.5919    4.0711    5.2332 H   0  0  0  0  0  0  0  0  0  0  0  0
   -3.3352   -4.1029    2.8373 H   0  0  0  0  0  0  0  0  0  0  0  0
   -2.7391   -2.9422    0.7494 H   0  0  0  0  0  0  0  0  0  0  0  0
    1.8114   -6.3969    2.1619 H   0  0  0  0  0  0  0  0  0  0  0  0
    2.7586   -4.9404    2.6556 H   0  0  0  0  0  0  0  0  0  0  0  0
    2.6932   -6.3571    3.6973 H   0  0  0  0  0  0  0  0  0  0  0  0
   -0.2702   -6.2010    5.4746 H   0  0  0  0  0  0  0  0  0  0  0  0
   -0.5117   -4.4397    5.8280 H   0  0  0  0  0  0  0  0  0  0  0  0
   -1.6328   -5.6605    6.4390 H   0  0  0  0  0  0  0  0  0  0  0  0
  2  1  1  0  0  0  0
  3  1  2  0  0  0  0
  4  3  1  0  0  0  0
  4  5  2  0  0  0  0
  5  2  1  0  0  0  0
  6  1  1  0  0  0  0
  6 26  1  0  0  0  0
  7  6  1  0  0  0  0
  8  7  1  0  0  0  0
  8 27  1  0  0  0  0
  8 28  1  0  0  0  0
  9  8  1  0  0  0  0
 10  9  1  0  0  0  0
 11 13  2  0  0  0  0
 11 12  1  0  0  0  0
 12 20  2  0  0  0  0
 13 17  1  0  0  0  0
 13 29  1  0  0  0  0
 14 10  1  0  0  0  0
 14 30  1  0  0  0  0
 15  7  2  0  0  0  0
 16  9  2  0  0  0  0
 16 31  1  0  0  0  0
 17 18  1  0  0  0  0
 18  5  1  0  0  0  0
 18 32  1  0  0  0  0
 18 33  1  0  0  0  0
 19 16  1  0  0  0  0
 19 14  2  0  0  0  0
 19 34  1  0  0  0  0
 20 21  1  0  0  0  0
 20 35  1  0  0  0  0
 21 17  2  0  0  0  0
 21 36  1  0  0  0  0
 22 11  1  0  0  0  0
 23 12  1  0  0  0  0
 24 22  1  0  0  0  0
 24 37  1  0  0  0  0
 24 38  1  0  0  0  0
 24 39  1  0  0  0  0
 25 23  1  0  0  0  0
 25 40  1  0  0  0  0
 25 41  1  0  0  0  0
 25 42  1  0  0  0  0
M  END
>  <Mol_ID>
8876

>  <Formula>
C17H17N3O3S2

>  <MolWeight>
375.46518

>  <Cat>
P2424

>  <Name>
WAY-325695

>  <Synonyms>
N/A

>  <Target>
CFTR,Mcl-1,APE1

>  <Form>
free base

>  <CAS>
869357-04-0

>  <URL>
N/A

$$$$
