WAY-356814
 OpenBabel08302521393D

 48 51  0  0  0  0  0  0  0  0999 V2000
    0.3877   -0.3350   -2.9218 C   0  0  0  0  0  0  0  0  0  0  0  0
    1.5334   -0.5959   -3.8202 C   0  0  0  0  0  0  0  0  0  0  0  0
    0.2301   -0.9827   -1.6829 C   0  0  0  0  0  0  0  0  0  0  0  0
   -0.6248    0.5569   -3.3070 C   0  0  0  0  0  0  0  0  0  0  0  0
    2.0768   -1.8816   -3.9672 C   0  0  0  0  0  0  0  0  0  0  0  0
    2.0928    0.4344   -4.6047 C   0  0  0  0  0  0  0  0  0  0  0  0
   -0.8544   -0.6896   -0.8410 C   0  0  0  0  0  0  0  0  0  0  0  0
   -1.7298    0.8074   -2.4955 C   0  0  0  0  0  0  0  0  0  0  0  0
    3.1141   -2.1358   -4.8704 C   0  0  0  0  0  0  0  0  0  0  0  0
    3.1193    0.1815   -5.5168 C   0  0  0  0  0  0  0  0  0  0  0  0
   -1.8171    0.2524   -1.2205 C   0  0  0  0  0  0  0  0  0  0  0  0
    3.6289   -1.1063   -5.6506 C   0  0  0  0  0  0  0  0  0  0  0  0
   -2.9285    0.5650   -0.2767 C   0  0  0  0  0  0  0  0  0  0  0  0
   -3.4594    1.8551   -0.1736 N   0  0  0  0  0  0  0  0  0  0  0  0
   -3.3315   -0.3665    0.4294 O   0  0  0  0  0  0  0  0  0  0  0  0
   -3.0816    3.0376   -0.9668 C   0  0  0  0  0  0  0  0  0  0  0  0
   -4.6910    2.0226    0.6137 C   0  0  0  0  0  0  0  0  0  0  0  0
   -3.1630    4.3661   -0.2009 C   0  0  0  0  0  0  0  0  0  0  0  0
   -4.7055    3.3278    1.4291 C   0  0  0  0  0  0  0  0  0  0  0  0
   -4.4144    4.4682    0.5483 N   0  0  0  0  0  0  0  0  0  0  0  0
   -5.3047    5.5068    0.3857 C   0  0  0  0  0  0  0  0  0  0  0  0
   -5.5240    6.1128   -0.8610 C   0  0  0  0  0  0  0  0  0  0  0  0
   -6.0410    6.0040    1.4709 C   0  0  0  0  0  0  0  0  0  0  0  0
   -6.4511    7.1496   -1.0195 C   0  0  0  0  0  0  0  0  0  0  0  0
   -6.9634    7.0433    1.3247 C   0  0  0  0  0  0  0  0  0  0  0  0
   -7.1735    7.6140    0.0748 C   0  0  0  0  0  0  0  0  0  0  0  0
    0.9588   -1.7196   -1.3462 H   0  0  0  0  0  0  0  0  0  0  0  0
   -0.5783    1.0574   -4.2723 H   0  0  0  0  0  0  0  0  0  0  0  0
    1.6791   -2.7167   -3.3954 H   0  0  0  0  0  0  0  0  0  0  0  0
    1.7318    1.4580   -4.5142 H   0  0  0  0  0  0  0  0  0  0  0  0
   -0.9428   -1.2066    0.1136 H   0  0  0  0  0  0  0  0  0  0  0  0
   -2.5125    1.4523   -2.8840 H   0  0  0  0  0  0  0  0  0  0  0  0
    3.5084   -3.1438   -4.9712 H   0  0  0  0  0  0  0  0  0  0  0  0
    3.5145    0.9912   -6.1252 H   0  0  0  0  0  0  0  0  0  0  0  0
    4.4196   -1.3067   -6.3669 H   0  0  0  0  0  0  0  0  0  0  0  0
   -2.0565    2.9479   -1.3310 H   0  0  0  0  0  0  0  0  0  0  0  0
   -3.7646    3.0667   -1.8248 H   0  0  0  0  0  0  0  0  0  0  0  0
   -5.5200    2.0252   -0.1054 H   0  0  0  0  0  0  0  0  0  0  0  0
   -4.8493    1.1747    1.2888 H   0  0  0  0  0  0  0  0  0  0  0  0
   -2.3315    4.4122    0.5145 H   0  0  0  0  0  0  0  0  0  0  0  0
   -3.0074    5.1963   -0.8985 H   0  0  0  0  0  0  0  0  0  0  0  0
   -3.9406    3.2837    2.2136 H   0  0  0  0  0  0  0  0  0  0  0  0
   -5.6798    3.4112    1.9217 H   0  0  0  0  0  0  0  0  0  0  0  0
   -5.0029    5.7584   -1.7459 H   0  0  0  0  0  0  0  0  0  0  0  0
   -5.8765    5.6025    2.4678 H   0  0  0  0  0  0  0  0  0  0  0  0
   -6.6118    7.5879   -2.0011 H   0  0  0  0  0  0  0  0  0  0  0  0
   -7.5111    7.4056    2.1901 H   0  0  0  0  0  0  0  0  0  0  0  0
   -7.8945    8.4156   -0.0448 H   0  0  0  0  0  0  0  0  0  0  0  0
  1  2  1  0  0  0  0
  1  3  2  0  0  0  0
  1  4  1  0  0  0  0
  2  5  2  0  0  0  0
  2  6  1  0  0  0  0
  3  7  1  0  0  0  0
  3 27  1  0  0  0  0
  4  8  2  0  0  0  0
  4 28  1  0  0  0  0
  5  9  1  0  0  0  0
  5 29  1  0  0  0  0
  6 10  2  0  0  0  0
  6 30  1  0  0  0  0
  7 11  2  0  0  0  0
  7 31  1  0  0  0  0
  8 11  1  0  0  0  0
  8 32  1  0  0  0  0
  9 12  2  0  0  0  0
  9 33  1  0  0  0  0
 10 12  1  0  0  0  0
 10 34  1  0  0  0  0
 11 13  1  0  0  0  0
 12 35  1  0  0  0  0
 13 14  1  0  0  0  0
 13 15  2  0  0  0  0
 14 16  1  0  0  0  0
 14 17  1  0  0  0  0
 16 18  1  0  0  0  0
 16 36  1  0  0  0  0
 16 37  1  0  0  0  0
 17 19  1  0  0  0  0
 17 38  1  0  0  0  0
 17 39  1  0  0  0  0
 18 20  1  0  0  0  0
 18 40  1  0  0  0  0
 18 41  1  0  0  0  0
 19 20  1  0  0  0  0
 19 42  1  0  0  0  0
 19 43  1  0  0  0  0
 20 21  1  0  0  0  0
 21 22  2  0  0  0  0
 21 23  1  0  0  0  0
 22 24  1  0  0  0  0
 22 44  1  0  0  0  0
 23 25  2  0  0  0  0
 23 45  1  0  0  0  0
 24 26  2  0  0  0  0
 24 46  1  0  0  0  0
 25 26  1  0  0  0  0
 25 47  1  0  0  0  0
 26 48  1  0  0  0  0
M  END
>  <Mol_ID>
8069

>  <Formula>
C23H22N2O

>  <MolWeight>
342.43358

>  <Cat>
P2772

>  <Name>
WAY-356814

>  <Synonyms>
N/A

>  <Target>
L-proline transporter

>  <Form>
free base

>  <CAS>
329935-45-7

>  <URL>
N/A

$$$$
