WAY-325412
 OpenBabel08302521433D

 39 41  0  0  0  0  0  0  0  0999 V2000
   -0.0921    1.1445   -0.1368 C   0  0  0  0  0  0  0  0  0  0  0  0
   -0.9198    0.0573   -0.0049 O   0  0  0  0  0  0  0  0  0  0  0  0
   -0.6670    2.4761   -0.0327 C   0  0  0  0  0  0  0  0  0  0  0  0
    1.2086    0.6996   -0.3043 C   0  0  0  0  0  0  0  0  0  0  0  0
   -0.1530   -1.0690   -0.1072 C   0  0  0  0  0  0  0  0  0  0  0  0
    0.0704    3.4752   -0.6451 N   0  0  0  0  0  0  0  0  0  0  0  0
    1.1673   -0.7168   -0.2937 C   0  0  0  0  0  0  0  0  0  0  0  0
   -1.2869   -2.8945   -1.1324 O   0  0  0  0  0  0  0  0  0  0  0  0
   -1.7154    2.7217    0.5587 O   0  0  0  0  0  0  0  0  0  0  0  0
   -2.0009   -4.0659   -1.0587 C   0  0  0  0  0  0  0  0  0  0  0  0
   -0.1439    7.2494   -3.4621 N   0  0  0  0  0  0  0  0  0  0  0  0
   -2.1677   -4.8492    0.0905 C   0  0  0  0  0  0  0  0  0  0  0  0
   -0.6127    5.5291   -1.8165 C   0  0  0  0  0  0  0  0  0  0  0  0
   -0.8311   -2.3760    0.1203 C   0  0  0  0  0  0  0  0  0  0  0  0
   -0.2618    4.8770   -0.5105 C   0  0  0  0  0  0  0  0  0  0  0  0
    0.1579    6.5658   -2.3344 C   0  0  0  0  0  0  0  0  0  0  0  0
   -1.2701    6.8879   -4.1098 C   0  0  0  0  0  0  0  0  0  0  0  0
   -2.5975   -4.4891   -2.2506 C   0  0  0  0  0  0  0  0  0  0  0  0
   -2.9342   -6.0185    0.0508 C   0  0  0  0  0  0  0  0  0  0  0  0
   -1.7663    5.1758   -2.5267 C   0  0  0  0  0  0  0  0  0  0  0  0
   -2.1033    5.8664   -3.6892 C   0  0  0  0  0  0  0  0  0  0  0  0
   -3.5377   -6.4214   -1.1368 C   0  0  0  0  0  0  0  0  0  0  0  0
   -3.3671   -5.6585   -2.2899 C   0  0  0  0  0  0  0  0  0  0  0  0
    2.0906    1.3202   -0.3763 H   0  0  0  0  0  0  0  0  0  0  0  0
    0.8663    3.2234   -1.2131 H   0  0  0  0  0  0  0  0  0  0  0  0
    2.0028   -1.4001   -0.3633 H   0  0  0  0  0  0  0  0  0  0  0  0
   -1.7167   -4.5818    1.0397 H   0  0  0  0  0  0  0  0  0  0  0  0
   -0.1034   -3.0683    0.5614 H   0  0  0  0  0  0  0  0  0  0  0  0
   -1.6740   -2.2306    0.8060 H   0  0  0  0  0  0  0  0  0  0  0  0
   -1.0800    5.0250    0.2018 H   0  0  0  0  0  0  0  0  0  0  0  0
    0.6250    5.3550   -0.0784 H   0  0  0  0  0  0  0  0  0  0  0  0
    1.0580    6.9085   -1.8325 H   0  0  0  0  0  0  0  0  0  0  0  0
   -1.4977    7.4648   -5.0034 H   0  0  0  0  0  0  0  0  0  0  0  0
   -2.4738   -3.9013   -3.1568 H   0  0  0  0  0  0  0  0  0  0  0  0
   -3.0611   -6.6120    0.9534 H   0  0  0  0  0  0  0  0  0  0  0  0
   -2.4130    4.3797   -2.1644 H   0  0  0  0  0  0  0  0  0  0  0  0
   -3.0024    5.6211   -4.2445 H   0  0  0  0  0  0  0  0  0  0  0  0
   -4.1394   -7.3267   -1.1629 H   0  0  0  0  0  0  0  0  0  0  0  0
   -3.8349   -5.9714   -3.2199 H   0  0  0  0  0  0  0  0  0  0  0  0
  2  1  1  0  0  0  0
  3  1  1  0  0  0  0
  4  1  2  0  0  0  0
  4 24  1  0  0  0  0
  5  2  1  0  0  0  0
  6  3  1  0  0  0  0
  6 25  1  0  0  0  0
  7  4  1  0  0  0  0
  7  5  2  0  0  0  0
  7 26  1  0  0  0  0
  8 14  1  0  0  0  0
  9  3  2  0  0  0  0
 10  8  1  0  0  0  0
 11 16  2  0  0  0  0
 12 10  2  0  0  0  0
 12 27  1  0  0  0  0
 13 15  1  0  0  0  0
 14  5  1  0  0  0  0
 14 28  1  0  0  0  0
 14 29  1  0  0  0  0
 15  6  1  0  0  0  0
 15 30  1  0  0  0  0
 15 31  1  0  0  0  0
 16 13  1  0  0  0  0
 16 32  1  0  0  0  0
 17 21  2  0  0  0  0
 17 11  1  0  0  0  0
 17 33  1  0  0  0  0
 18 10  1  0  0  0  0
 18 34  1  0  0  0  0
 19 12  1  0  0  0  0
 19 22  2  0  0  0  0
 19 35  1  0  0  0  0
 20 13  2  0  0  0  0
 20 36  1  0  0  0  0
 21 20  1  0  0  0  0
 21 37  1  0  0  0  0
 22 23  1  0  0  0  0
 22 38  1  0  0  0  0
 23 18  2  0  0  0  0
 23 39  1  0  0  0  0
M  END
>  <Mol_ID>
8688

>  <Formula>
C18H15ClN2O3

>  <MolWeight>
342.7763

>  <Cat>
P2387

>  <Name>
WAY-325412

>  <Synonyms>
N/A

>  <Target>
CYP51

>  <Form>
free base

>  <CAS>
438473-17-7

>  <URL>
N/A

$$$$
