WAY-640879
 OpenBabel08302521443D

 56 59  0  0  0  0  0  0  0  0999 V2000
    1.0447    0.3131   -0.0571 S   0  0  0  0  0  0  0  0  0  0  0  0
    0.5771    1.0209   -1.7023 C   0  0  0  0  0  0  0  0  0  0  0  0
   -0.3012   -0.2343    0.8483 N   0  0  0  0  0  0  0  0  0  0  0  0
    0.9037    5.5339   -2.9853 C   0  0  0  0  0  0  0  0  0  0  0  0
    0.7678    6.9121   -3.6571 C   0  0  0  0  0  0  0  0  0  0  0  0
    1.3524    7.4564   -4.8146 C   0  0  0  0  0  0  0  0  0  0  0  0
    0.6975    4.3803   -3.7260 N   0  0  0  0  0  0  0  0  0  0  0  0
    0.6616    2.4557   -1.9555 C   0  0  0  0  0  0  0  0  0  0  0  0
    1.5967    1.4183    0.6933 O   0  0  0  0  0  0  0  0  0  0  0  0
    1.8629   -0.8602   -0.2907 O   0  0  0  0  0  0  0  0  0  0  0  0
    2.1330    6.8830   -5.7815 O   0  0  0  0  0  0  0  0  0  0  0  0
    0.5639    3.0040   -3.2758 C   0  0  0  0  0  0  0  0  0  0  0  0
    0.4644    0.1555   -2.8120 C   0  0  0  0  0  0  0  0  0  0  0  0
    1.0972    5.5300   -1.7724 O   0  0  0  0  0  0  0  0  0  0  0  0
   -3.1383   -0.0584    0.5787 O   0  0  0  0  0  0  0  0  0  0  0  0
   -1.1065    0.7218    1.6304 C   0  0  0  0  0  0  0  0  0  0  0  0
    0.2614    0.7152   -4.0865 C   0  0  0  0  0  0  0  0  0  0  0  0
   -1.0783   -1.4850    0.6407 C   0  0  0  0  0  0  0  0  0  0  0  0
    0.3181    2.0960   -4.3104 C   0  0  0  0  0  0  0  0  0  0  0  0
    3.1632    6.0249   -5.5602 C   0  0  0  0  0  0  0  0  0  0  0  0
   -0.0689    7.7862   -2.9177 C   0  0  0  0  0  0  0  0  0  0  0  0
    1.0425    8.7865   -5.2101 C   0  0  0  0  0  0  0  0  0  0  0  0
   -2.4456   -1.1799   -0.0055 C   0  0  0  0  0  0  0  0  0  0  0  0
   -2.2929    1.0921    0.7575 C   0  0  0  0  0  0  0  0  0  0  0  0
    0.7786   -1.3174   -2.7840 C   0  0  0  0  0  0  0  0  0  0  0  0
    3.6245    5.4281   -6.7421 C   0  0  0  0  0  0  0  0  0  0  0  0
    3.7673    5.7092   -4.3513 C   0  0  0  0  0  0  0  0  0  0  0  0
   -0.3497    9.1086   -3.3037 C   0  0  0  0  0  0  0  0  0  0  0  0
    0.2127    9.6216   -4.4658 C   0  0  0  0  0  0  0  0  0  0  0  0
    4.7071    4.6750   -4.3084 C   0  0  0  0  0  0  0  0  0  0  0  0
    4.5710    4.4117   -6.7032 C   0  0  0  0  0  0  0  0  0  0  0  0
    5.0870    4.0101   -5.4778 C   0  0  0  0  0  0  0  0  0  0  0  0
    0.6398    4.5174   -4.7298 H   0  0  0  0  0  0  0  0  0  0  0  0
    0.8768    3.1212   -1.1195 H   0  0  0  0  0  0  0  0  0  0  0  0
   -1.4598    0.2132    2.5422 H   0  0  0  0  0  0  0  0  0  0  0  0
   -0.5216    1.5785    1.9664 H   0  0  0  0  0  0  0  0  0  0  0  0
    0.1369    0.0636   -4.9520 H   0  0  0  0  0  0  0  0  0  0  0  0
   -1.2811   -1.9122    1.6383 H   0  0  0  0  0  0  0  0  0  0  0  0
   -0.5315   -2.2625    0.1053 H   0  0  0  0  0  0  0  0  0  0  0  0
    0.2188    2.4391   -5.3383 H   0  0  0  0  0  0  0  0  0  0  0  0
   -0.5301    7.4317   -1.9910 H   0  0  0  0  0  0  0  0  0  0  0  0
    1.4830    9.1988   -6.1262 H   0  0  0  0  0  0  0  0  0  0  0  0
   -2.3350   -1.0081   -1.0794 H   0  0  0  0  0  0  0  0  0  0  0  0
   -3.1113   -2.0439    0.1215 H   0  0  0  0  0  0  0  0  0  0  0  0
   -2.8824    1.8765    1.2368 H   0  0  0  0  0  0  0  0  0  0  0  0
   -1.9623    1.4519   -0.2219 H   0  0  0  0  0  0  0  0  0  0  0  0
    0.2675   -1.8409   -1.9768 H   0  0  0  0  0  0  0  0  0  0  0  0
    0.4878   -1.8132   -3.7167 H   0  0  0  0  0  0  0  0  0  0  0  0
    1.8651   -1.4412   -2.6965 H   0  0  0  0  0  0  0  0  0  0  0  0
    3.2255    5.7574   -7.6998 H   0  0  0  0  0  0  0  0  0  0  0  0
    3.5180    6.2254   -3.4297 H   0  0  0  0  0  0  0  0  0  0  0  0
   -0.9931    9.7364   -2.7001 H   0  0  0  0  0  0  0  0  0  0  0  0
   -0.0047   10.6398   -4.7935 H   0  0  0  0  0  0  0  0  0  0  0  0
    5.1354    4.3754   -3.3547 H   0  0  0  0  0  0  0  0  0  0  0  0
    4.8893    3.9323   -7.6259 H   0  0  0  0  0  0  0  0  0  0  0  0
    5.7958    3.1884   -5.4319 H   0  0  0  0  0  0  0  0  0  0  0  0
  2  1  1  0  0  0  0
  3  1  1  0  0  0  0
  4  7  1  0  0  0  0
  5  4  1  0  0  0  0
  6  5  1  0  0  0  0
  7 12  1  0  0  0  0
  7 33  1  0  0  0  0
  8  2  2  0  0  0  0
  8 34  1  0  0  0  0
  9  1  2  0  0  0  0
 10  1  2  0  0  0  0
 11  6  1  0  0  0  0
 12  8  1  0  0  0  0
 12 19  2  0  0  0  0
 13  2  1  0  0  0  0
 14  4  2  0  0  0  0
 15 23  1  0  0  0  0
 15 24  1  0  0  0  0
 16  3  1  0  0  0  0
 16 35  1  0  0  0  0
 16 36  1  0  0  0  0
 17 13  2  0  0  0  0
 17 37  1  0  0  0  0
 18  3  1  0  0  0  0
 18 38  1  0  0  0  0
 18 39  1  0  0  0  0
 19 17  1  0  0  0  0
 19 40  1  0  0  0  0
 20 11  1  0  0  0  0
 21  5  2  0  0  0  0
 21 41  1  0  0  0  0
 22  6  2  0  0  0  0
 22 42  1  0  0  0  0
 23 18  1  0  0  0  0
 23 43  1  0  0  0  0
 23 44  1  0  0  0  0
 24 16  1  0  0  0  0
 24 45  1  0  0  0  0
 24 46  1  0  0  0  0
 25 13  1  0  0  0  0
 25 47  1  0  0  0  0
 25 48  1  0  0  0  0
 25 49  1  0  0  0  0
 26 20  2  0  0  0  0
 26 50  1  0  0  0  0
 27 20  1  0  0  0  0
 27 51  1  0  0  0  0
 28 21  1  0  0  0  0
 28 52  1  0  0  0  0
 29 28  2  0  0  0  0
 29 22  1  0  0  0  0
 29 53  1  0  0  0  0
 30 27  2  0  0  0  0
 30 54  1  0  0  0  0
 31 26  1  0  0  0  0
 31 55  1  0  0  0  0
 32 30  1  0  0  0  0
 32 31  2  0  0  0  0
 32 56  1  0  0  0  0
M  END
>  <Mol_ID>
9109

>  <Formula>
C24H24N2O5S

>  <MolWeight>
452.52276

>  <Cat>
P3117

>  <Name>
WAY-640879

>  <Synonyms>
N/A

>  <Target>
CB1 receptor

>  <Form>
free base

>  <CAS>
851212-80-1

>  <URL>
N/A

$$$$
