WAY-620298
 OpenBabel08302521433D

 42 44  0  0  0  0  0  0  0  0999 V2000
    0.2097  -11.1122    1.0025 S   0  0  0  0  0  0  0  0  0  0  0  0
    0.6129   -0.9451    2.3650 C   0  0  0  0  0  0  0  0  0  0  0  0
    0.2886   -1.5913    3.5336 N   0  0  0  0  0  0  0  0  0  0  0  0
    2.1353   -3.0339    3.5204 N   0  0  0  0  0  0  0  0  0  0  0  0
    1.7589   -1.5083    1.6305 C   0  0  0  0  0  0  0  0  0  0  0  0
    1.0373   -2.6099    4.0550 C   0  0  0  0  0  0  0  0  0  0  0  0
    2.4998   -2.5042    2.2716 C   0  0  0  0  0  0  0  0  0  0  0  0
   -0.1491   -9.7125    2.0193 C   0  0  0  0  0  0  0  0  0  0  0  0
    0.4058  -12.2711    1.8388 O   0  0  0  0  0  0  0  0  0  0  0  0
    1.1572  -10.7123   -0.0191 O   0  0  0  0  0  0  0  0  0  0  0  0
   -0.8518   -4.9643    4.0145 C   0  0  0  0  0  0  0  0  0  0  0  0
   -0.0091    0.0293    1.9635 O   0  0  0  0  0  0  0  0  0  0  0  0
   -0.5755   -6.2635    4.4110 N   0  0  0  0  0  0  0  0  0  0  0  0
   -1.2474  -11.3821    0.2091 N   0  0  0  0  0  0  0  0  0  0  0  0
   -1.1163   -4.5878    2.8778 O   0  0  0  0  0  0  0  0  0  0  0  0
    0.0947   -9.7627    3.3918 C   0  0  0  0  0  0  0  0  0  0  0  0
   -0.6446   -8.5470    1.4354 C   0  0  0  0  0  0  0  0  0  0  0  0
    0.5330   -3.2632    5.3220 C   0  0  0  0  0  0  0  0  0  0  0  0
   -0.5237   -7.4115    3.5842 C   0  0  0  0  0  0  0  0  0  0  0  0
   -0.8173   -3.9521    5.1514 C   0  0  0  0  0  0  0  0  0  0  0  0
   -0.8404   -7.4069    2.2221 C   0  0  0  0  0  0  0  0  0  0  0  0
   -0.0992   -8.6157    4.1701 C   0  0  0  0  0  0  0  0  0  0  0  0
    2.0500   -1.1155    0.3205 C   0  0  0  0  0  0  0  0  0  0  0  0
    3.5814   -3.0737    1.5985 C   0  0  0  0  0  0  0  0  0  0  0  0
    3.0915   -1.7429   -0.3633 C   0  0  0  0  0  0  0  0  0  0  0  0
    3.8658   -2.7103    0.2799 C   0  0  0  0  0  0  0  0  0  0  0  0
   -0.5306   -1.2411    4.0080 H   0  0  0  0  0  0  0  0  0  0  0  0
   -0.3065   -6.4040    5.3764 H   0  0  0  0  0  0  0  0  0  0  0  0
   -1.6670  -12.2489    0.5455 H   0  0  0  0  0  0  0  0  0  0  0  0
   -1.0892  -11.3663   -0.7997 H   0  0  0  0  0  0  0  0  0  0  0  0
    0.4566  -10.6786    3.8585 H   0  0  0  0  0  0  0  0  0  0  0  0
   -0.8610   -8.5100    0.3703 H   0  0  0  0  0  0  0  0  0  0  0  0
    0.4527   -2.4908    6.0958 H   0  0  0  0  0  0  0  0  0  0  0  0
    1.2817   -3.9898    5.6595 H   0  0  0  0  0  0  0  0  0  0  0  0
   -1.6018   -3.2133    4.9486 H   0  0  0  0  0  0  0  0  0  0  0  0
   -1.0974   -4.4445    6.0893 H   0  0  0  0  0  0  0  0  0  0  0  0
   -1.2250   -6.5194    1.7286 H   0  0  0  0  0  0  0  0  0  0  0  0
    0.1157   -8.6727    5.2344 H   0  0  0  0  0  0  0  0  0  0  0  0
    1.4428   -0.3629   -0.1764 H   0  0  0  0  0  0  0  0  0  0  0  0
    4.1729   -3.8407    2.0918 H   0  0  0  0  0  0  0  0  0  0  0  0
    3.2892   -1.4933   -1.4032 H   0  0  0  0  0  0  0  0  0  0  0  0
    4.6728   -3.2072   -0.2528 H   0  0  0  0  0  0  0  0  0  0  0  0
  2  3  1  0  0  0  0
  2  5  1  0  0  0  0
  3  6  1  0  0  0  0
  3 27  1  0  0  0  0
  4  6  2  0  0  0  0
  5  7  2  0  0  0  0
  6 18  1  0  0  0  0
  7  4  1  0  0  0  0
  8  1  1  0  0  0  0
  9  1  2  0  0  0  0
 10  1  2  0  0  0  0
 11 13  1  0  0  0  0
 12  2  2  0  0  0  0
 13 19  1  0  0  0  0
 13 28  1  0  0  0  0
 14  1  1  0  0  0  0
 14 29  1  0  0  0  0
 14 30  1  0  0  0  0
 15 11  2  0  0  0  0
 16  8  2  0  0  0  0
 16 31  1  0  0  0  0
 17  8  1  0  0  0  0
 17 32  1  0  0  0  0
 18 20  1  0  0  0  0
 18 33  1  0  0  0  0
 18 34  1  0  0  0  0
 19 21  1  0  0  0  0
 20 11  1  0  0  0  0
 20 35  1  0  0  0  0
 20 36  1  0  0  0  0
 21 17  2  0  0  0  0
 21 37  1  0  0  0  0
 22 16  1  0  0  0  0
 22 19  2  0  0  0  0
 22 38  1  0  0  0  0
 23  5  1  0  0  0  0
 23 39  1  0  0  0  0
 24  7  1  0  0  0  0
 24 40  1  0  0  0  0
 25 23  2  0  0  0  0
 25 41  1  0  0  0  0
 26 24  2  0  0  0  0
 26 25  1  0  0  0  0
 26 42  1  0  0  0  0
M  END
>  <Mol_ID>
8770

>  <Formula>
C17H16N4O4S

>  <MolWeight>
372.39834

>  <Cat>
P2940

>  <Name>
WAY-620298

>  <Synonyms>
N/A

>  <Target>
Anti-infection

>  <Form>
free base

>  <CAS>
731801-19-7

>  <URL>
N/A

$$$$
