WAY-327957
 OpenBabel08302521443D

 53 56  0  0  0  0  0  0  0  0999 V2000
    0.4752    0.2746    0.5800 S   0  0  0  0  0  0  0  0  0  0  0  0
    0.5495   -4.8356    1.7953 C   0  0  0  0  0  0  0  0  0  0  0  0
    0.1052   -3.4458    2.1101 C   0  0  0  0  0  0  0  0  0  0  0  0
   -0.0268   -1.0737    1.6222 C   0  0  0  0  0  0  0  0  0  0  0  0
    1.2714   -0.4427   -0.7486 N   0  0  0  0  0  0  0  0  0  0  0  0
   -0.3781   -4.1534    4.3740 N   0  0  0  0  0  0  0  0  0  0  0  0
   -0.1121   -5.4582    4.1008 C   0  0  0  0  0  0  0  0  0  0  0  0
   -0.2703   -3.1345    3.4307 C   0  0  0  0  0  0  0  0  0  0  0  0
    0.3931   -5.7713    2.7485 C   0  0  0  0  0  0  0  0  0  0  0  0
    1.1868   -5.2418    0.4803 C   0  0  0  0  0  0  0  0  0  0  0  0
    0.1130   -2.3985    1.1894 C   0  0  0  0  0  0  0  0  0  0  0  0
    1.4770    1.0146    1.3192 O   0  0  0  0  0  0  0  0  0  0  0  0
   -0.7281    0.9170    0.0958 O   0  0  0  0  0  0  0  0  0  0  0  0
    1.9460   -6.3922    0.4886 N   0  0  0  0  0  0  0  0  0  0  0  0
   -0.3674   -0.7786    2.9434 C   0  0  0  0  0  0  0  0  0  0  0  0
   -0.5351   -1.8248    3.8442 C   0  0  0  0  0  0  0  0  0  0  0  0
   -0.2486   -6.3434    4.9360 O   0  0  0  0  0  0  0  0  0  0  0  0
    1.0770   -4.5569   -0.5314 O   0  0  0  0  0  0  0  0  0  0  0  0
    2.5551   -6.9357   -0.7103 C   0  0  0  0  0  0  0  0  0  0  0  0
    1.9244   -8.2162   -1.2157 C   0  0  0  0  0  0  0  0  0  0  0  0
    0.8716  -10.6406   -2.2420 C   0  0  0  0  0  0  0  0  0  0  0  0
    0.7248   -8.7451   -0.7205 C   0  0  0  0  0  0  0  0  0  0  0  0
    2.5723   -8.9105   -2.2514 C   0  0  0  0  0  0  0  0  0  0  0  0
    2.4975   -1.2395   -0.4549 C   0  0  0  0  0  0  0  0  0  0  0  0
    1.6444    0.5362   -1.8197 C   0  0  0  0  0  0  0  0  0  0  0  0
    0.2083   -9.9504   -1.2215 C   0  0  0  0  0  0  0  0  0  0  0  0
    2.0567  -10.1077   -2.7545 C   0  0  0  0  0  0  0  0  0  0  0  0
    0.3557  -11.9496   -2.7643 C   0  0  0  0  0  0  0  0  0  0  0  0
    3.1286    0.3081   -2.0981 C   0  0  0  0  0  0  0  0  0  0  0  0
    3.6441   -0.3288   -0.8265 C   0  0  0  0  0  0  0  0  0  0  0  0
   -0.6871   -3.9565    5.3155 H   0  0  0  0  0  0  0  0  0  0  0  0
    0.6449   -6.8154    2.6277 H   0  0  0  0  0  0  0  0  0  0  0  0
    0.2956   -2.5819    0.1365 H   0  0  0  0  0  0  0  0  0  0  0  0
    2.1745   -6.8665    1.3477 H   0  0  0  0  0  0  0  0  0  0  0  0
   -0.4729    0.2539    3.2723 H   0  0  0  0  0  0  0  0  0  0  0  0
   -0.8119   -1.6032    4.8715 H   0  0  0  0  0  0  0  0  0  0  0  0
    3.5958   -7.1547   -0.4375 H   0  0  0  0  0  0  0  0  0  0  0  0
    2.5615   -6.1906   -1.5125 H   0  0  0  0  0  0  0  0  0  0  0  0
    0.1691   -8.2338    0.0603 H   0  0  0  0  0  0  0  0  0  0  0  0
    3.4933   -8.5184   -2.6791 H   0  0  0  0  0  0  0  0  0  0  0  0
    2.4792   -2.1291   -1.0984 H   0  0  0  0  0  0  0  0  0  0  0  0
    2.5735   -1.5780    0.5794 H   0  0  0  0  0  0  0  0  0  0  0  0
    1.4764    1.5698   -1.5003 H   0  0  0  0  0  0  0  0  0  0  0  0
    1.0415    0.3518   -2.7147 H   0  0  0  0  0  0  0  0  0  0  0  0
   -0.7210  -10.3383   -0.8128 H   0  0  0  0  0  0  0  0  0  0  0  0
    2.5886  -10.6250   -3.5504 H   0  0  0  0  0  0  0  0  0  0  0  0
    0.3111  -11.9330   -3.8585 H   0  0  0  0  0  0  0  0  0  0  0  0
    1.0164  -12.7637   -2.4480 H   0  0  0  0  0  0  0  0  0  0  0  0
   -0.6520  -12.1647   -2.3950 H   0  0  0  0  0  0  0  0  0  0  0  0
    3.6529    1.2362   -2.3413 H   0  0  0  0  0  0  0  0  0  0  0  0
    3.2518   -0.3833   -2.9399 H   0  0  0  0  0  0  0  0  0  0  0  0
    3.7939    0.4277   -0.0478 H   0  0  0  0  0  0  0  0  0  0  0  0
    4.5809   -0.8744   -0.9645 H   0  0  0  0  0  0  0  0  0  0  0  0
  2  3  1  0  0  0  0
  3 11  2  0  0  0  0
  4  1  1  0  0  0  0
  5  1  1  0  0  0  0
  6  8  1  0  0  0  0
  6 31  1  0  0  0  0
  7  6  1  0  0  0  0
  7  9  1  0  0  0  0
  8 16  2  0  0  0  0
  8  3  1  0  0  0  0
  9  2  2  0  0  0  0
  9 32  1  0  0  0  0
 10  2  1  0  0  0  0
 11  4  1  0  0  0  0
 11 33  1  0  0  0  0
 12  1  2  0  0  0  0
 13  1  2  0  0  0  0
 14 10  1  0  0  0  0
 14 34  1  0  0  0  0
 15  4  2  0  0  0  0
 15 35  1  0  0  0  0
 16 15  1  0  0  0  0
 16 36  1  0  0  0  0
 17  7  2  0  0  0  0
 18 10  2  0  0  0  0
 19 14  1  0  0  0  0
 19 37  1  0  0  0  0
 19 38  1  0  0  0  0
 20 19  1  0  0  0  0
 21 27  2  0  0  0  0
 21 26  1  0  0  0  0
 22 20  1  0  0  0  0
 22 39  1  0  0  0  0
 23 20  2  0  0  0  0
 23 40  1  0  0  0  0
 24  5  1  0  0  0  0
 24 41  1  0  0  0  0
 24 42  1  0  0  0  0
 25  5  1  0  0  0  0
 25 43  1  0  0  0  0
 25 44  1  0  0  0  0
 26 22  2  0  0  0  0
 26 45  1  0  0  0  0
 27 23  1  0  0  0  0
 27 46  1  0  0  0  0
 28 21  1  0  0  0  0
 28 47  1  0  0  0  0
 28 48  1  0  0  0  0
 28 49  1  0  0  0  0
 29 25  1  0  0  0  0
 29 30  1  0  0  0  0
 29 50  1  0  0  0  0
 29 51  1  0  0  0  0
 30 24  1  0  0  0  0
 30 52  1  0  0  0  0
 30 53  1  0  0  0  0
M  END
>  <Mol_ID>
8995

>  <Formula>
C22H23N3O4S

>  <MolWeight>
425.50072

>  <Cat>
P2558

>  <Name>
WAY-327957

>  <Synonyms>
N/A

>  <Target>
caspase

>  <Form>
free base

>  <CAS>
687591-14-6

>  <URL>
N/A

$$$$
