WAY-324498
 OpenBabel08302521423D

 38 40  0  0  0  0  0  0  0  0999 V2000
    0.8126   -2.9915    0.0109 S   0  0  0  0  0  0  0  0  0  0  0  0
   -0.5586   -1.7999    1.8787 C   0  0  0  0  0  0  0  0  0  0  0  0
   -2.4885   -1.0219    3.0512 C   0  0  0  0  0  0  0  0  0  0  0  0
   -1.7861   -2.0195    3.6938 C   0  0  0  0  0  0  0  0  0  0  0  0
   -0.6159   -2.3968    3.0503 N   0  0  0  0  0  0  0  0  0  0  0  0
    0.6604   -1.7575    1.1545 N   0  0  0  0  0  0  0  0  0  0  0  0
   -1.8721   -0.7684    1.4875 S   0  0  0  0  0  0  0  0  0  0  0  0
   -3.5804   -0.2823    3.6354 C   0  0  0  0  0  0  0  0  0  0  0  0
    1.0289   -2.0958   -1.5178 C   0  0  0  0  0  0  0  0  0  0  0  0
   -2.1782   -2.5517    5.0462 C   0  0  0  0  0  0  0  0  0  0  0  0
   -3.6077   -2.0669    5.4674 C   0  0  0  0  0  0  0  0  0  0  0  0
   -0.4082   -3.7558   -0.0987 O   0  0  0  0  0  0  0  0  0  0  0  0
    2.0783   -3.6348    0.3056 O   0  0  0  0  0  0  0  0  0  0  0  0
   -3.7749   -0.5623    5.1269 C   0  0  0  0  0  0  0  0  0  0  0  0
   -4.2526    0.5659    3.0557 O   0  0  0  0  0  0  0  0  0  0  0  0
    2.3072   -1.6873   -1.9289 C   0  0  0  0  0  0  0  0  0  0  0  0
   -0.0710   -1.9213   -2.3659 C   0  0  0  0  0  0  0  0  0  0  0  0
    1.3669   -0.8883   -4.0154 C   0  0  0  0  0  0  0  0  0  0  0  0
    0.1017   -1.3149   -3.6112 C   0  0  0  0  0  0  0  0  0  0  0  0
    2.4690   -1.0778   -3.1752 C   0  0  0  0  0  0  0  0  0  0  0  0
   -3.8095   -2.2573    6.9834 C   0  0  0  0  0  0  0  0  0  0  0  0
   -4.7063   -2.8827    4.7502 C   0  0  0  0  0  0  0  0  0  0  0  0
    1.4174   -1.9360    1.8151 H   0  0  0  0  0  0  0  0  0  0  0  0
   -1.4371   -2.1979    5.7742 H   0  0  0  0  0  0  0  0  0  0  0  0
   -2.1351   -3.6475    5.0445 H   0  0  0  0  0  0  0  0  0  0  0  0
   -4.7674   -0.2039    5.4242 H   0  0  0  0  0  0  0  0  0  0  0  0
   -3.0332    0.0352    5.6750 H   0  0  0  0  0  0  0  0  0  0  0  0
    3.1780   -1.8611   -1.3033 H   0  0  0  0  0  0  0  0  0  0  0  0
   -1.0567   -2.2753   -2.0761 H   0  0  0  0  0  0  0  0  0  0  0  0
    1.4976   -0.4235   -4.9882 H   0  0  0  0  0  0  0  0  0  0  0  0
   -0.7507   -1.1887   -4.2769 H   0  0  0  0  0  0  0  0  0  0  0  0
    3.4555   -0.7622   -3.5075 H   0  0  0  0  0  0  0  0  0  0  0  0
   -4.7934   -1.8859    7.2967 H   0  0  0  0  0  0  0  0  0  0  0  0
   -3.7548   -3.3155    7.2629 H   0  0  0  0  0  0  0  0  0  0  0  0
   -3.0543   -1.7162    7.5629 H   0  0  0  0  0  0  0  0  0  0  0  0
   -4.5823   -2.8855    3.6631 H   0  0  0  0  0  0  0  0  0  0  0  0
   -4.7046   -3.9266    5.0817 H   0  0  0  0  0  0  0  0  0  0  0  0
   -5.6993   -2.4692    4.9648 H   0  0  0  0  0  0  0  0  0  0  0  0
  2  6  1  0  0  0  0
  3  7  1  0  0  0  0
  4  5  1  0  0  0  0
  4  3  2  0  0  0  0
  5  2  2  0  0  0  0
  6  1  1  0  0  0  0
  6 23  1  0  0  0  0
  7  2  1  0  0  0  0
  8  3  1  0  0  0  0
  9  1  1  0  0  0  0
 10  4  1  0  0  0  0
 10 24  1  0  0  0  0
 10 25  1  0  0  0  0
 11 10  1  0  0  0  0
 11 14  1  0  0  0  0
 12  1  2  0  0  0  0
 13  1  2  0  0  0  0
 14  8  1  0  0  0  0
 14 26  1  0  0  0  0
 14 27  1  0  0  0  0
 15  8  2  0  0  0  0
 16  9  2  0  0  0  0
 16 28  1  0  0  0  0
 17  9  1  0  0  0  0
 17 29  1  0  0  0  0
 18 19  1  0  0  0  0
 18 30  1  0  0  0  0
 19 17  2  0  0  0  0
 19 31  1  0  0  0  0
 20 16  1  0  0  0  0
 20 18  2  0  0  0  0
 20 32  1  0  0  0  0
 21 11  1  0  0  0  0
 21 33  1  0  0  0  0
 21 34  1  0  0  0  0
 21 35  1  0  0  0  0
 22 11  1  0  0  0  0
 22 36  1  0  0  0  0
 22 37  1  0  0  0  0
 22 38  1  0  0  0  0
M  END
>  <Mol_ID>
8637

>  <Formula>
C15H15ClN2O3S2

>  <MolWeight>
370.8742

>  <Cat>
P2325

>  <Name>
WAY-324498

>  <Synonyms>
N/A

>  <Target>
Anti-infection

>  <Form>
free base

>  <CAS>
600130-11-8

>  <URL>
N/A

$$$$
