WAY-332078
 OpenBabel08302521453D

 56 58  0  0  0  0  0  0  0  0999 V2000
   -1.3573    0.6532    0.5989 N   0  0  0  0  0  0  0  0  0  0  0  0
   -0.2250    1.1933    0.0265 C   0  0  0  0  0  0  0  0  0  0  0  0
   -1.2183   -0.6493    0.4346 C   0  0  0  0  0  0  0  0  0  0  0  0
   -0.0493   -1.0090   -0.1788 O   0  0  0  0  0  0  0  0  0  0  0  0
    0.5788    0.1737   -0.4431 C   0  0  0  0  0  0  0  0  0  0  0  0
   -3.3622    3.3796   -2.4221 C   0  0  0  0  0  0  0  0  0  0  0  0
   -4.6813    3.6912   -2.0733 N   0  0  0  0  0  0  0  0  0  0  0  0
   -2.4560    2.8645   -1.3183 C   0  0  0  0  0  0  0  0  0  0  0  0
   -0.7178    3.3520   -1.5922 S   0  0  3  0  0  0  0  0  0  0  0  0
   -0.0467    2.6588   -0.0440 C   0  0  0  0  0  0  0  0  0  0  0  0
   -2.1630   -1.7155    0.7497 C   0  0  0  0  0  0  0  0  0  0  0  0
   -7.3266    4.7945   -1.3274 N   0  0  0  0  0  0  0  0  0  0  0  0
   -3.4409   -1.3777    1.2208 C   0  0  0  0  0  0  0  0  0  0  0  0
   -4.4096   -2.3539    1.5046 C   0  0  0  0  0  0  0  0  0  0  0  0
   -2.9658    3.4921   -3.5840 O   0  0  0  0  0  0  0  0  0  0  0  0
   -4.0695   -3.7101    1.3368 C   0  0  0  0  0  0  0  0  0  0  0  0
   -5.2199    3.5068   -0.7226 C   0  0  0  0  0  0  0  0  0  0  0  0
   -5.3201    4.7261   -2.8892 C   0  0  0  0  0  0  0  0  0  0  0  0
   -0.6327    4.8470   -1.4560 O   0  0  0  0  0  0  0  0  0  0  0  0
   -1.8463   -3.0606    0.5659 C   0  0  0  0  0  0  0  0  0  0  0  0
   -2.7925   -4.0440    0.8639 C   0  0  0  0  0  0  0  0  0  0  0  0
   -6.7546    3.6234   -0.6407 C   0  0  0  0  0  0  0  0  0  0  0  0
   -6.8471    4.8092   -2.7241 C   0  0  0  0  0  0  0  0  0  0  0  0
   -5.6736   -2.0430    1.9226 O   0  0  0  0  0  0  0  0  0  0  0  0
   -4.8338   -4.8188    1.5779 O   0  0  0  0  0  0  0  0  0  0  0  0
    1.8653    0.0945   -1.1519 C   0  0  0  0  0  0  0  0  0  0  0  0
   -7.0135    6.0433   -0.6341 C   0  0  0  0  0  0  0  0  0  0  0  0
   -6.0218   -0.6757    2.0945 C   0  0  0  0  0  0  0  0  0  0  0  0
   -6.1535   -4.6497    2.0728 C   0  0  0  0  0  0  0  0  0  0  0  0
   -2.5403    1.7770   -1.3162 H   0  0  0  0  0  0  0  0  0  0  0  0
   -2.7358    3.2745   -0.3470 H   0  0  0  0  0  0  0  0  0  0  0  0
   -0.5398    3.1547    0.7986 H   0  0  0  0  0  0  0  0  0  0  0  0
    1.0156    2.9210   -0.0061 H   0  0  0  0  0  0  0  0  0  0  0  0
   -3.6634   -0.3210    1.3492 H   0  0  0  0  0  0  0  0  0  0  0  0
   -4.9186    2.5187   -0.3563 H   0  0  0  0  0  0  0  0  0  0  0  0
   -4.7516    4.2600   -0.0789 H   0  0  0  0  0  0  0  0  0  0  0  0
   -4.8605    5.6758   -2.5886 H   0  0  0  0  0  0  0  0  0  0  0  0
   -5.0755    4.5772   -3.9468 H   0  0  0  0  0  0  0  0  0  0  0  0
   -0.8725   -3.3611    0.1911 H   0  0  0  0  0  0  0  0  0  0  0  0
   -2.5324   -5.0910    0.7203 H   0  0  0  0  0  0  0  0  0  0  0  0
   -7.2002    2.7241   -1.0870 H   0  0  0  0  0  0  0  0  0  0  0  0
   -7.0668    3.6123    0.4111 H   0  0  0  0  0  0  0  0  0  0  0  0
   -7.3012    3.9551   -3.2431 H   0  0  0  0  0  0  0  0  0  0  0  0
   -7.2214    5.7016   -3.2411 H   0  0  0  0  0  0  0  0  0  0  0  0
    2.5782   -0.5116   -0.5851 H   0  0  0  0  0  0  0  0  0  0  0  0
    1.7263   -0.3659   -2.1352 H   0  0  0  0  0  0  0  0  0  0  0  0
    2.3017    1.0866   -1.2995 H   0  0  0  0  0  0  0  0  0  0  0  0
   -5.9402    6.2483   -0.5678 H   0  0  0  0  0  0  0  0  0  0  0  0
   -7.4891    6.8897   -1.1419 H   0  0  0  0  0  0  0  0  0  0  0  0
   -7.4173    6.0241    0.3843 H   0  0  0  0  0  0  0  0  0  0  0  0
   -5.4191   -0.2138    2.8839 H   0  0  0  0  0  0  0  0  0  0  0  0
   -5.9373   -0.1224    1.1528 H   0  0  0  0  0  0  0  0  0  0  0  0
   -7.0675   -0.6355    2.4083 H   0  0  0  0  0  0  0  0  0  0  0  0
   -6.1676   -4.0859    3.0108 H   0  0  0  0  0  0  0  0  0  0  0  0
   -6.7986   -4.2014    1.3103 H   0  0  0  0  0  0  0  0  0  0  0  0
   -6.5529   -5.6431    2.2978 H   0  0  0  0  0  0  0  0  0  0  0  0
  2  1  1  0  0  0  0
  3  1  2  0  0  0  0
  4  3  1  0  0  0  0
  5  2  2  0  0  0  0
  5  4  1  0  0  0  0
  6  8  1  0  0  0  0
  7  6  1  0  0  0  0
  8  9  1  0  0  0  0
  8 30  1  0  0  0  0
  8 31  1  0  0  0  0
  9 10  1  0  0  0  0
 10  2  1  0  0  0  0
 10 32  1  0  0  0  0
 10 33  1  0  0  0  0
 11  3  1  0  0  0  0
 12 23  1  0  0  0  0
 12 22  1  0  0  0  0
 13 11  2  0  0  0  0
 13 34  1  0  0  0  0
 14 13  1  0  0  0  0
 14 16  2  0  0  0  0
 15  6  2  0  0  0  0
 16 21  1  0  0  0  0
 17  7  1  0  0  0  0
 17 35  1  0  0  0  0
 17 36  1  0  0  0  0
 18  7  1  0  0  0  0
 18 37  1  0  0  0  0
 18 38  1  0  0  0  0
 19  9  2  0  0  0  0
 20 11  1  0  0  0  0
 20 39  1  0  0  0  0
 21 20  2  0  0  0  0
 21 40  1  0  0  0  0
 22 17  1  0  0  0  0
 22 41  1  0  0  0  0
 22 42  1  0  0  0  0
 23 18  1  0  0  0  0
 23 43  1  0  0  0  0
 23 44  1  0  0  0  0
 24 14  1  0  0  0  0
 25 16  1  0  0  0  0
 26  5  1  0  0  0  0
 26 45  1  0  0  0  0
 26 46  1  0  0  0  0
 26 47  1  0  0  0  0
 27 12  1  0  0  0  0
 27 48  1  0  0  0  0
 27 49  1  0  0  0  0
 27 50  1  0  0  0  0
 28 24  1  0  0  0  0
 28 51  1  0  0  0  0
 28 52  1  0  0  0  0
 28 53  1  0  0  0  0
 29 25  1  0  0  0  0
 29 54  1  0  0  0  0
 29 55  1  0  0  0  0
 29 56  1  0  0  0  0
M  END
>  <Mol_ID>
9261

>  <Formula>
C20H27N3O5S

>  <MolWeight>
421.51048

>  <Cat>
P2718

>  <Name>
WAY-332078

>  <Synonyms>
N/A

>  <Target>
beta-catenin

>  <Form>
free base

>  <CAS>
1015866-01-9

>  <URL>
N/A

$$$$
