WAY-325943
 OpenBabel08302521433D

 40 42  0  0  0  0  0  0  0  0999 V2000
   -6.7877   -1.7568    5.0570 C   0  0  0  0  0  0  0  0  0  0  0  0
   -3.7271   -3.7648    2.9665 C   0  0  0  0  0  0  0  0  0  0  0  0
   -1.8567   -1.8907    5.5416 C   0  0  0  0  0  0  0  0  0  0  0  0
   -2.4844   -3.0184    4.7416 C   0  0  0  0  0  0  0  0  0  0  0  0
   -7.3865   -2.3637    6.0856 N   0  0  0  0  0  0  0  0  0  0  0  0
   -3.2025   -2.7290    3.6313 N   0  0  0  0  0  0  0  0  0  0  0  0
   -3.6093   -5.0512    3.3150 N   0  0  0  0  0  0  0  0  0  0  0  0
   -6.4654   -0.4179    5.3971 C   0  0  0  0  0  0  0  0  0  0  0  0
   -2.9065   -5.3275    4.4351 C   0  0  0  0  0  0  0  0  0  0  0  0
   -2.3131   -4.3214    5.1773 C   0  0  0  0  0  0  0  0  0  0  0  0
   -6.4998   -2.3420    3.8365 N   0  0  0  0  0  0  0  0  0  0  0  0
   -7.4634   -1.4380    7.1014 O   0  0  0  0  0  0  0  0  0  0  0  0
   -6.9077   -0.2708    6.6900 C   0  0  0  0  0  0  0  0  0  0  0  0
   -6.7458   -3.6685    3.5363 C   0  0  0  0  0  0  0  0  0  0  0  0
   -2.8064   -6.7554    4.8120 C   0  0  0  0  0  0  0  0  0  0  0  0
   -4.7502   -3.3456    1.5832 S   0  0  0  0  0  0  0  0  0  0  0  0
   -7.3435   -4.4691    4.2540 O   0  0  0  0  0  0  0  0  0  0  0  0
   -2.0863   -0.6495    5.0283 F   0  0  0  0  0  0  0  0  0  0  0  0
   -2.3112   -1.8513    6.8269 F   0  0  0  0  0  0  0  0  0  0  0  0
   -0.5015   -2.0133    5.6356 F   0  0  0  0  0  0  0  0  0  0  0  0
   -2.8075   -7.7670    3.8305 C   0  0  0  0  0  0  0  0  0  0  0  0
   -2.7022   -7.1623    6.1592 C   0  0  0  0  0  0  0  0  0  0  0  0
   -6.2914   -4.1162    2.1530 C   0  0  0  0  0  0  0  0  0  0  0  0
   -2.5670   -9.4764    5.5108 C   0  0  0  0  0  0  0  0  0  0  0  0
   -2.6856   -9.1178    4.1758 C   0  0  0  0  0  0  0  0  0  0  0  0
   -2.5780   -8.5114    6.5065 C   0  0  0  0  0  0  0  0  0  0  0  0
   -2.4429  -10.7673    5.8431 F   0  0  0  0  0  0  0  0  0  0  0  0
   -6.9056    0.8232    7.6760 C   0  0  0  0  0  0  0  0  0  0  0  0
   -5.9764    0.3309    4.7925 H   0  0  0  0  0  0  0  0  0  0  0  0
   -1.7266   -4.5320    6.0645 H   0  0  0  0  0  0  0  0  0  0  0  0
   -5.9896   -1.7779    3.1690 H   0  0  0  0  0  0  0  0  0  0  0  0
   -2.8991   -7.5042    2.7773 H   0  0  0  0  0  0  0  0  0  0  0  0
   -2.7351   -6.4339    6.9666 H   0  0  0  0  0  0  0  0  0  0  0  0
   -6.1555   -5.2027    2.1662 H   0  0  0  0  0  0  0  0  0  0  0  0
   -7.0882   -3.8830    1.4401 H   0  0  0  0  0  0  0  0  0  0  0  0
   -2.6835   -9.8878    3.4107 H   0  0  0  0  0  0  0  0  0  0  0  0
   -2.4970   -8.8112    7.5468 H   0  0  0  0  0  0  0  0  0  0  0  0
   -7.9287    1.0678    7.9787 H   0  0  0  0  0  0  0  0  0  0  0  0
   -6.3466    0.5290    8.5699 H   0  0  0  0  0  0  0  0  0  0  0  0
   -6.4448    1.7272    7.2675 H   0  0  0  0  0  0  0  0  0  0  0  0
  2 16  1  0  0  0  0
  3  4  1  0  0  0  0
  4  6  2  0  0  0  0
  4 10  1  0  0  0  0
  5  1  2  0  0  0  0
  6  2  1  0  0  0  0
  7  2  2  0  0  0  0
  8  1  1  0  0  0  0
  8 29  1  0  0  0  0
  9  7  1  0  0  0  0
 10  9  2  0  0  0  0
 10 30  1  0  0  0  0
 11  1  1  0  0  0  0
 11 31  1  0  0  0  0
 12  5  1  0  0  0  0
 13  8  2  0  0  0  0
 13 12  1  0  0  0  0
 14 11  1  0  0  0  0
 15  9  1  0  0  0  0
 16 23  1  0  0  0  0
 17 14  2  0  0  0  0
 18  3  1  0  0  0  0
 19  3  1  0  0  0  0
 20  3  1  0  0  0  0
 21 15  2  0  0  0  0
 21 32  1  0  0  0  0
 22 15  1  0  0  0  0
 22 33  1  0  0  0  0
 23 14  1  0  0  0  0
 23 34  1  0  0  0  0
 23 35  1  0  0  0  0
 24 26  1  0  0  0  0
 25 21  1  0  0  0  0
 25 24  2  0  0  0  0
 25 36  1  0  0  0  0
 26 22  2  0  0  0  0
 26 37  1  0  0  0  0
 27 24  1  0  0  0  0
 28 13  1  0  0  0  0
 28 38  1  0  0  0  0
 28 39  1  0  0  0  0
 28 40  1  0  0  0  0
M  END
>  <Mol_ID>
8860

>  <Formula>
C17H12F4N4O2S

>  <MolWeight>
412.3613928

>  <Cat>
P2438

>  <Name>
WAY-325943

>  <Synonyms>
N/A

>  <Target>
Hsp90

>  <Form>
free base

>  <CAS>
868972-45-6

>  <URL>
N/A

$$$$
