WAY-327148
 OpenBabel08302521443D

 46 48  0  0  0  0  0  0  0  0999 V2000
    0.1222    1.3256   -0.0740 C   0  0  0  0  0  0  0  0  0  0  0  0
    1.2411    0.5911   -0.0773 N   0  0  0  0  0  0  0  0  0  0  0  0
   -1.0945    0.7590   -0.0650 N   0  0  0  0  0  0  0  0  0  0  0  0
    1.1510   -0.7548   -0.0577 C   0  0  0  0  0  0  0  0  0  0  0  0
    2.4232   -1.5757   -0.0171 C   0  0  0  0  0  0  0  0  0  0  0  0
   -1.1916   -0.5893   -0.0645 C   0  0  0  0  0  0  0  0  0  0  0  0
    0.2547    2.7068   -0.0073 N   0  0  0  0  0  0  0  0  0  0  0  0
   -0.0698   -1.3941   -0.0581 C   0  0  0  0  0  0  0  0  0  0  0  0
   -2.5596   -1.1507   -0.0281 C   0  0  0  0  0  0  0  0  0  0  0  0
   -3.6095   -0.4606    0.6137 C   0  0  0  0  0  0  0  0  0  0  0  0
   -4.9132   -0.9859    0.7107 C   0  0  0  0  0  0  0  0  0  0  0  0
   -5.1785   -2.2463    0.1509 C   0  0  0  0  0  0  0  0  0  0  0  0
   -2.8665   -2.3899   -0.6051 C   0  0  0  0  0  0  0  0  0  0  0  0
    3.5687   -0.8392    0.0327 F   0  0  0  0  0  0  0  0  0  0  0  0
    2.4704   -2.4103    1.0619 F   0  0  0  0  0  0  0  0  0  0  0  0
    2.5504   -2.3868   -1.1074 F   0  0  0  0  0  0  0  0  0  0  0  0
   -4.1502   -2.9292   -0.5087 C   0  0  0  0  0  0  0  0  0  0  0  0
   -5.9396   -0.3234    1.3292 O   0  0  0  0  0  0  0  0  0  0  0  0
   -6.3468   -2.9622    0.1463 O   0  0  0  0  0  0  0  0  0  0  0  0
    1.5288    3.2266   -0.5095 C   0  0  0  0  0  0  0  0  0  0  0  0
   -0.9239    3.4945   -0.3596 C   0  0  0  0  0  0  0  0  0  0  0  0
   -5.6773    0.9465    1.9104 C   0  0  0  0  0  0  0  0  0  0  0  0
   -7.4925   -2.4159    0.7790 C   0  0  0  0  0  0  0  0  0  0  0  0
    1.7482    4.6416    0.0201 C   0  0  0  0  0  0  0  0  0  0  0  0
   -0.7511    4.9199    0.1748 C   0  0  0  0  0  0  0  0  0  0  0  0
    0.5610    5.5489   -0.2875 C   0  0  0  0  0  0  0  0  0  0  0  0
   -0.1289   -2.4746   -0.0241 H   0  0  0  0  0  0  0  0  0  0  0  0
   -3.3713    0.5049    1.0535 H   0  0  0  0  0  0  0  0  0  0  0  0
   -2.1162   -2.9607   -1.1463 H   0  0  0  0  0  0  0  0  0  0  0  0
   -4.3549   -3.9004   -0.9547 H   0  0  0  0  0  0  0  0  0  0  0  0
    1.5253    3.2288   -1.6069 H   0  0  0  0  0  0  0  0  0  0  0  0
    2.3890    2.6300   -0.1822 H   0  0  0  0  0  0  0  0  0  0  0  0
   -1.8424    3.0875    0.0803 H   0  0  0  0  0  0  0  0  0  0  0  0
   -1.0541    3.5147   -1.4493 H   0  0  0  0  0  0  0  0  0  0  0  0
   -4.9618    0.8613    2.7346 H   0  0  0  0  0  0  0  0  0  0  0  0
   -5.3383    1.6663    1.1581 H   0  0  0  0  0  0  0  0  0  0  0  0
   -6.6180    1.3221    2.3247 H   0  0  0  0  0  0  0  0  0  0  0  0
   -7.3195   -2.2413    1.8454 H   0  0  0  0  0  0  0  0  0  0  0  0
   -7.8346   -1.5147    0.2610 H   0  0  0  0  0  0  0  0  0  0  0  0
   -8.2944   -3.1573    0.7039 H   0  0  0  0  0  0  0  0  0  0  0  0
    2.6621    5.0606   -0.4169 H   0  0  0  0  0  0  0  0  0  0  0  0
    1.9008    4.6002    1.1061 H   0  0  0  0  0  0  0  0  0  0  0  0
   -0.7694    4.8972    1.2714 H   0  0  0  0  0  0  0  0  0  0  0  0
   -1.5935    5.5427   -0.1480 H   0  0  0  0  0  0  0  0  0  0  0  0
    0.7033    6.5167    0.2066 H   0  0  0  0  0  0  0  0  0  0  0  0
    0.5178    5.7399   -1.3659 H   0  0  0  0  0  0  0  0  0  0  0  0
  2  1  2  0  0  0  0
  3  1  1  0  0  0  0
  4  2  1  0  0  0  0
  5  4  1  0  0  0  0
  6  3  2  0  0  0  0
  7  1  1  0  0  0  0
  8  6  1  0  0  0  0
  8  4  2  0  0  0  0
  8 27  1  0  0  0  0
  9  6  1  0  0  0  0
 10  9  2  0  0  0  0
 10 28  1  0  0  0  0
 11 10  1  0  0  0  0
 12 17  1  0  0  0  0
 12 11  2  0  0  0  0
 13  9  1  0  0  0  0
 13 29  1  0  0  0  0
 14  5  1  0  0  0  0
 15  5  1  0  0  0  0
 16  5  1  0  0  0  0
 17 13  2  0  0  0  0
 17 30  1  0  0  0  0
 18 11  1  0  0  0  0
 19 12  1  0  0  0  0
 20  7  1  0  0  0  0
 20 31  1  0  0  0  0
 20 32  1  0  0  0  0
 21  7  1  0  0  0  0
 21 33  1  0  0  0  0
 21 34  1  0  0  0  0
 22 18  1  0  0  0  0
 22 35  1  0  0  0  0
 22 36  1  0  0  0  0
 22 37  1  0  0  0  0
 23 19  1  0  0  0  0
 23 38  1  0  0  0  0
 23 39  1  0  0  0  0
 23 40  1  0  0  0  0
 24 20  1  0  0  0  0
 24 26  1  0  0  0  0
 24 41  1  0  0  0  0
 24 42  1  0  0  0  0
 25 21  1  0  0  0  0
 25 43  1  0  0  0  0
 25 44  1  0  0  0  0
 26 25  1  0  0  0  0
 26 45  1  0  0  0  0
 26 46  1  0  0  0  0
M  END
>  <Mol_ID>
8958

>  <Formula>
C18H20F3N3O2

>  <MolWeight>
367.3655096

>  <Cat>
P2517

>  <Name>
WAY-327148

>  <Synonyms>
N/A

>  <Target>
EP2 receptor

>  <Form>
free base

>  <CAS>
725695-51-2

>  <URL>
N/A

$$$$
