WAY-637196
 OpenBabel08302521423D

 21 22  0  0  0  0  0  0  0  0999 V2000
   -0.6531    1.2581   -0.1107 N   0  0  0  0  0  0  0  0  0  0  0  0
   -1.4457    0.1250   -0.0839 C   0  0  0  0  0  0  0  0  0  0  0  0
   -0.6582   -1.1658    0.0344 C   0  0  0  0  0  0  0  0  0  0  0  0
    0.7061    1.1842    0.1068 C   0  0  0  0  0  0  0  0  0  0  0  0
    0.6302   -1.1547    0.2098 N   0  0  0  0  0  0  0  0  0  0  0  0
    1.3268    0.0572    0.2719 N   0  0  0  0  0  0  0  0  0  0  0  0
   -1.3861   -2.4215   -0.0560 C   0  0  0  0  0  0  0  0  0  0  0  0
   -0.7853   -3.8094    0.7633 S   0  0  0  0  0  0  0  0  0  0  0  0
   -2.6720    0.1505   -0.1053 O   0  0  0  0  0  0  0  0  0  0  0  0
   -1.2808    2.5489   -0.2170 N   0  0  0  0  0  0  0  0  0  0  0  0
   -2.5563   -2.7222   -0.7324 C   0  0  0  0  0  0  0  0  0  0  0  0
   -2.0959   -4.7754    0.2482 C   0  0  0  0  0  0  0  0  0  0  0  0
    1.4029    2.3592    0.1371 N   0  0  0  0  0  0  0  0  0  0  0  0
   -2.9659   -4.0766   -0.5553 C   0  0  0  0  0  0  0  0  0  0  0  0
   -1.0775    3.0311    0.6629 H   0  0  0  0  0  0  0  0  0  0  0  0
   -2.2935    2.3734   -0.1865 H   0  0  0  0  0  0  0  0  0  0  0  0
   -3.1074   -2.0078   -1.3335 H   0  0  0  0  0  0  0  0  0  0  0  0
   -2.1616   -5.8107    0.5543 H   0  0  0  0  0  0  0  0  0  0  0  0
    2.3957    2.2217   -0.0190 H   0  0  0  0  0  0  0  0  0  0  0  0
    0.9891    3.0707   -0.4571 H   0  0  0  0  0  0  0  0  0  0  0  0
   -3.8557   -4.5126   -0.9933 H   0  0  0  0  0  0  0  0  0  0  0  0
  2  1  1  0  0  0  0
  3  2  1  0  0  0  0
  3  5  2  0  0  0  0
  4  1  1  0  0  0  0
  5  6  1  0  0  0  0
  6  4  2  0  0  0  0
  7  3  1  0  0  0  0
  8  7  1  0  0  0  0
  9  2  2  0  0  0  0
 10  1  1  0  0  0  0
 10 15  1  0  0  0  0
 10 16  1  0  0  0  0
 11  7  2  0  0  0  0
 11 17  1  0  0  0  0
 12  8  1  0  0  0  0
 12 14  2  0  0  0  0
 12 18  1  0  0  0  0
 13  4  1  0  0  0  0
 13 19  1  0  0  0  0
 13 20  1  0  0  0  0
 14 11  1  0  0  0  0
 14 21  1  0  0  0  0
M  END
>  <Mol_ID>
8482

>  <Formula>
C7H7N5OS

>  <MolWeight>
209.22838

>  <Cat>
P3008

>  <Name>
WAY-637196

>  <Synonyms>
N/A

>  <Target>
others

>  <Form>
free base

>  <CAS>
197793-86-5

>  <URL>
N/A

$$$$
