WAY-658118
 OpenBabel08302521433D

 47 50  0  0  0  0  0  0  0  0999 V2000
    4.8539    4.0842    1.2410 C   0  0  0  0  0  0  0  0  0  0  0  0
    3.5127    4.1453    1.0275 C   0  0  0  0  0  0  0  0  0  0  0  0
    5.5012    5.0102    2.0214 N   0  0  0  0  0  0  0  0  0  0  0  0
    3.3715    6.0310    2.4178 N   0  0  0  0  0  0  0  0  0  0  0  0
    4.7643    6.0152    2.6548 C   0  0  0  0  0  0  0  0  0  0  0  0
    2.6918    5.1663    1.5621 C   0  0  0  0  0  0  0  0  0  0  0  0
    5.4198    3.0244    0.5973 N   0  0  0  0  0  0  0  0  0  0  0  0
    3.2234    3.0661    0.2397 N   0  0  0  0  0  0  0  0  0  0  0  0
    0.4219    5.0425   -2.5143 C   0  0  0  0  0  0  0  0  0  0  0  0
    1.0869    6.0257   -3.0662 N   0  0  0  0  0  0  0  0  0  0  0  0
    0.3966    6.4681   -4.2028 C   0  0  0  0  0  0  0  0  0  0  0  0
   -1.1033    4.6813   -3.1666 S   0  0  0  0  0  0  0  0  0  0  0  0
    4.4099    2.4257   -0.0069 C   0  0  0  0  0  0  0  0  0  0  0  0
   -0.8562    5.8820   -4.3790 C   0  0  0  0  0  0  0  0  0  0  0  0
    0.7238    4.3790   -1.3508 N   0  0  0  0  0  0  0  0  0  0  0  0
    1.4722    3.2174   -1.4846 C   0  0  0  0  0  0  0  0  0  0  0  0
    1.9072    2.6143   -0.1656 C   0  0  0  0  0  0  0  0  0  0  0  0
    5.3001    6.8482    3.3841 O   0  0  0  0  0  0  0  0  0  0  0  0
    1.5027    5.2736    1.2597 O   0  0  0  0  0  0  0  0  0  0  0  0
    1.0143    7.4231   -5.1324 C   0  0  0  0  0  0  0  0  0  0  0  0
    1.7606    2.6674   -2.5461 O   0  0  0  0  0  0  0  0  0  0  0  0
    6.9425    4.9341    2.1996 C   0  0  0  0  0  0  0  0  0  0  0  0
    2.5675    7.0484    3.0668 C   0  0  0  0  0  0  0  0  0  0  0  0
    2.3920    7.3489   -5.3908 C   0  0  0  0  0  0  0  0  0  0  0  0
    0.2668    8.3856   -5.8279 C   0  0  0  0  0  0  0  0  0  0  0  0
    2.2128    9.0654   -7.0910 C   0  0  0  0  0  0  0  0  0  0  0  0
    0.8531    9.1798   -6.8199 C   0  0  0  0  0  0  0  0  0  0  0  0
    2.9869    8.1669   -6.3603 C   0  0  0  0  0  0  0  0  0  0  0  0
   -1.9387    6.0763   -5.3848 C   0  0  0  0  0  0  0  0  0  0  0  0
    4.4831    1.5349   -0.6189 H   0  0  0  0  0  0  0  0  0  0  0  0
    1.0309    4.9864   -0.5945 H   0  0  0  0  0  0  0  0  0  0  0  0
    1.9348    1.5229   -0.2632 H   0  0  0  0  0  0  0  0  0  0  0  0
    1.1907    2.8406    0.6300 H   0  0  0  0  0  0  0  0  0  0  0  0
    7.1989    3.9727    2.6442 H   0  0  0  0  0  0  0  0  0  0  0  0
    7.4253    5.0313    1.2191 H   0  0  0  0  0  0  0  0  0  0  0  0
    7.3148    5.7334    2.8487 H   0  0  0  0  0  0  0  0  0  0  0  0
    2.0382    7.6286    2.3056 H   0  0  0  0  0  0  0  0  0  0  0  0
    1.8169    6.5475    3.6942 H   0  0  0  0  0  0  0  0  0  0  0  0
    3.1544    7.7243    3.6909 H   0  0  0  0  0  0  0  0  0  0  0  0
    3.0112    6.6335   -4.8526 H   0  0  0  0  0  0  0  0  0  0  0  0
   -0.7892    8.5275   -5.6213 H   0  0  0  0  0  0  0  0  0  0  0  0
    2.6679    9.6796   -7.8642 H   0  0  0  0  0  0  0  0  0  0  0  0
    0.2433    9.8815   -7.3829 H   0  0  0  0  0  0  0  0  0  0  0  0
    4.0542    8.0901   -6.5563 H   0  0  0  0  0  0  0  0  0  0  0  0
   -2.3641    5.1182   -5.7001 H   0  0  0  0  0  0  0  0  0  0  0  0
   -2.7436    6.6801   -4.9495 H   0  0  0  0  0  0  0  0  0  0  0  0
   -1.5938    6.5717   -6.2940 H   0  0  0  0  0  0  0  0  0  0  0  0
  2  1  2  0  0  0  0
  3  1  1  0  0  0  0
  4  5  1  0  0  0  0
  4  6  1  0  0  0  0
  5  3  1  0  0  0  0
  6  2  1  0  0  0  0
  7  1  1  0  0  0  0
  8  2  1  0  0  0  0
  9 15  1  0  0  0  0
 10  9  2  0  0  0  0
 11 10  1  0  0  0  0
 11 14  2  0  0  0  0
 12  9  1  0  0  0  0
 13  7  2  0  0  0  0
 13  8  1  0  0  0  0
 13 30  1  0  0  0  0
 14 12  1  0  0  0  0
 15 16  1  0  0  0  0
 15 31  1  0  0  0  0
 16 17  1  0  0  0  0
 17  8  1  0  0  0  0
 17 32  1  0  0  0  0
 17 33  1  0  0  0  0
 18  5  2  0  0  0  0
 19  6  2  0  0  0  0
 20 11  1  0  0  0  0
 21 16  2  0  0  0  0
 22  3  1  0  0  0  0
 22 34  1  0  0  0  0
 22 35  1  0  0  0  0
 22 36  1  0  0  0  0
 23  4  1  0  0  0  0
 23 37  1  0  0  0  0
 23 38  1  0  0  0  0
 23 39  1  0  0  0  0
 24 20  2  0  0  0  0
 24 40  1  0  0  0  0
 25 20  1  0  0  0  0
 25 41  1  0  0  0  0
 26 27  1  0  0  0  0
 26 28  2  0  0  0  0
 26 42  1  0  0  0  0
 27 25  2  0  0  0  0
 27 43  1  0  0  0  0
 28 24  1  0  0  0  0
 28 44  1  0  0  0  0
 29 14  1  0  0  0  0
 29 45  1  0  0  0  0
 29 46  1  0  0  0  0
 29 47  1  0  0  0  0
M  END
>  <Mol_ID>
8818

>  <Formula>
C19H17ClN6O3S

>  <MolWeight>
444.89468

>  <Cat>
P3164

>  <Name>
WAY-658118

>  <Synonyms>
N/A

>  <Target>
TRPA1

>  <Form>
free base

>  <CAS>
848341-57-1

>  <URL>
N/A

$$$$
