WAY-324128
 OpenBabel08302521423D

 50 53  0  0  0  0  0  0  0  0999 V2000
    1.8652    0.0510   -0.1550 N   0  0  0  0  0  0  0  0  0  0  0  0
    1.0610    1.1545   -0.2483 C   0  0  0  0  0  0  0  0  0  0  0  0
    1.1358   -1.1024   -0.0586 C   0  0  0  0  0  0  0  0  0  0  0  0
   -0.3168    0.6740   -0.1698 C   0  0  0  0  0  0  0  0  0  0  0  0
   -6.4664    2.4237    0.2353 C   0  0  0  0  0  0  0  0  0  0  0  0
   -4.0729    2.6484   -0.0498 N   0  0  0  0  0  0  0  0  0  0  0  0
   -3.9879    1.3618    0.0266 C   0  0  0  0  0  0  0  0  0  0  0  0
   -6.2761    0.9713    0.3051 C   0  0  0  0  0  0  0  0  0  0  0  0
   -5.0144    0.5008    0.1916 O   0  0  0  0  0  0  0  0  0  0  0  0
   -5.3447    3.2078    0.0520 C   0  0  0  0  0  0  0  0  0  0  0  0
   -0.2707   -0.7038   -0.0627 C   0  0  0  0  0  0  0  0  0  0  0  0
   -1.5089    1.3739   -0.1638 C   0  0  0  0  0  0  0  0  0  0  0  0
   -7.7422    2.9908    0.3501 C   0  0  0  0  0  0  0  0  0  0  0  0
   -5.5037    4.5885   -0.0216 C   0  0  0  0  0  0  0  0  0  0  0  0
   -2.6942    0.6309   -0.0390 C   0  0  0  0  0  0  0  0  0  0  0  0
   -7.9096    4.3786    0.2771 C   0  0  0  0  0  0  0  0  0  0  0  0
    3.3161    0.0983   -0.1542 C   0  0  0  0  0  0  0  0  0  0  0  0
   -6.7717    5.1882    0.0861 C   0  0  0  0  0  0  0  0  0  0  0  0
   -1.4159   -1.4660    0.0437 C   0  0  0  0  0  0  0  0  0  0  0  0
    1.3665    2.3242   -0.3768 O   0  0  0  0  0  0  0  0  0  0  0  0
    1.5160   -2.2539    0.0284 O   0  0  0  0  0  0  0  0  0  0  0  0
   -7.2314    0.2184    0.4618 O   0  0  0  0  0  0  0  0  0  0  0  0
   -2.6394   -0.7846    0.0540 C   0  0  0  0  0  0  0  0  0  0  0  0
   -9.1305    4.9851    0.3847 O   0  0  0  0  0  0  0  0  0  0  0  0
   -6.7004    6.5526   -0.0147 O   0  0  0  0  0  0  0  0  0  0  0  0
    3.9342   -0.1796   -1.5356 C   0  0  0  0  0  0  0  0  0  0  0  0
  -10.2802    4.1732    0.5894 C   0  0  0  0  0  0  0  0  0  0  0  0
   -7.8939    7.3158    0.0616 C   0  0  0  0  0  0  0  0  0  0  0  0
    3.5438    0.8743   -2.5734 C   0  0  0  0  0  0  0  0  0  0  0  0
    5.4595   -0.2357   -1.4184 C   0  0  0  0  0  0  0  0  0  0  0  0
   -1.5110    2.4583   -0.2354 H   0  0  0  0  0  0  0  0  0  0  0  0
   -8.5842    2.3204    0.4960 H   0  0  0  0  0  0  0  0  0  0  0  0
   -4.6272    5.2170   -0.1654 H   0  0  0  0  0  0  0  0  0  0  0  0
    3.6367    1.0782    0.2183 H   0  0  0  0  0  0  0  0  0  0  0  0
    3.6659   -0.6615    0.5557 H   0  0  0  0  0  0  0  0  0  0  0  0
   -1.3675   -2.5470    0.1297 H   0  0  0  0  0  0  0  0  0  0  0  0
   -3.5527   -1.3715    0.1483 H   0  0  0  0  0  0  0  0  0  0  0  0
    3.5805   -1.1554   -1.8918 H   0  0  0  0  0  0  0  0  0  0  0  0
  -10.4438    3.5013   -0.2591 H   0  0  0  0  0  0  0  0  0  0  0  0
  -10.2100    3.6187    1.5307 H   0  0  0  0  0  0  0  0  0  0  0  0
  -11.1471    4.8373    0.6594 H   0  0  0  0  0  0  0  0  0  0  0  0
   -8.5715    7.0771   -0.7641 H   0  0  0  0  0  0  0  0  0  0  0  0
   -8.3749    7.2034    1.0383 H   0  0  0  0  0  0  0  0  0  0  0  0
   -7.6192    8.3702   -0.0413 H   0  0  0  0  0  0  0  0  0  0  0  0
    3.9282    1.8627   -2.2993 H   0  0  0  0  0  0  0  0  0  0  0  0
    3.9526    0.6139   -3.5556 H   0  0  0  0  0  0  0  0  0  0  0  0
    2.4585    0.9486   -2.6857 H   0  0  0  0  0  0  0  0  0  0  0  0
    5.8679    0.7301   -1.0999 H   0  0  0  0  0  0  0  0  0  0  0  0
    5.7708   -0.9908   -0.6893 H   0  0  0  0  0  0  0  0  0  0  0  0
    5.9138   -0.4921   -2.3813 H   0  0  0  0  0  0  0  0  0  0  0  0
  2  1  1  0  0  0  0
  3  1  1  0  0  0  0
  4  2  1  0  0  0  0
  5  8  1  0  0  0  0
  6  7  2  0  0  0  0
  7 15  1  0  0  0  0
  8  9  1  0  0  0  0
  9  7  1  0  0  0  0
 10  6  1  0  0  0  0
 10  5  2  0  0  0  0
 11  3  1  0  0  0  0
 11  4  2  0  0  0  0
 12  4  1  0  0  0  0
 12 31  1  0  0  0  0
 13  5  1  0  0  0  0
 13 32  1  0  0  0  0
 14 10  1  0  0  0  0
 14 33  1  0  0  0  0
 15 12  2  0  0  0  0
 15 23  1  0  0  0  0
 16 13  2  0  0  0  0
 17  1  1  0  0  0  0
 17 34  1  0  0  0  0
 17 35  1  0  0  0  0
 18 14  2  0  0  0  0
 18 16  1  0  0  0  0
 19 11  1  0  0  0  0
 19 36  1  0  0  0  0
 20  2  2  0  0  0  0
 21  3  2  0  0  0  0
 22  8  2  0  0  0  0
 23 19  2  0  0  0  0
 23 37  1  0  0  0  0
 24 16  1  0  0  0  0
 25 18  1  0  0  0  0
 26 17  1  0  0  0  0
 26 38  1  0  0  0  0
 27 24  1  0  0  0  0
 27 39  1  0  0  0  0
 27 40  1  0  0  0  0
 27 41  1  0  0  0  0
 28 25  1  0  0  0  0
 28 42  1  0  0  0  0
 28 43  1  0  0  0  0
 28 44  1  0  0  0  0
 29 26  1  0  0  0  0
 29 45  1  0  0  0  0
 29 46  1  0  0  0  0
 29 47  1  0  0  0  0
 30 26  1  0  0  0  0
 30 48  1  0  0  0  0
 30 49  1  0  0  0  0
 30 50  1  0  0  0  0
M  END
>  <Mol_ID>
8611

>  <Formula>
C22H20N2O6

>  <MolWeight>
408.404

>  <Cat>
P2306

>  <Name>
WAY-324128

>  <Synonyms>
N/A

>  <Target>
PDE4D

>  <Form>
free base

>  <CAS>
500263-71-8

>  <URL>
N/A

$$$$
