WAY-310624
 OpenBabel08302521393D

 48 51  0  0  0  0  0  0  0  0999 V2000
    1.8370   -0.1003   -0.3095 N   0  0  0  0  0  0  0  0  0  0  0  0
    3.3177   -0.1227   -0.2864 C   0  0  3  0  0  0  0  0  0  0  0  0
    0.9890   -0.3291    0.7418 C   0  0  0  0  0  0  0  0  0  0  0  0
    1.1326    0.5084   -1.3217 C   0  0  0  0  0  0  0  0  0  0  0  0
    3.9314   -0.8135    0.9620 C   0  0  0  0  0  0  0  0  0  0  0  0
    3.8215   -0.7788   -1.6100 C   0  0  0  0  0  0  0  0  0  0  0  0
   -0.3692   -0.2444    0.2205 C   0  0  0  0  0  0  0  0  0  0  0  0
    1.2108   -0.4621    1.9299 O   0  0  0  0  0  0  0  0  0  0  0  0
   -0.2809    0.2520   -1.0626 C   0  0  0  0  0  0  0  0  0  0  0  0
    1.5371    1.2216   -2.2190 O   0  0  0  0  0  0  0  0  0  0  0  0
    3.4864   -2.2344    1.2746 C   0  0  0  0  0  0  0  0  0  0  0  0
    5.1971   -0.9867   -1.7239 N   0  0  0  0  0  0  0  0  0  0  0  0
    3.0445   -1.1467   -2.4887 O   0  0  0  0  0  0  0  0  0  0  0  0
   -1.5798   -0.5460    0.8135 C   0  0  0  0  0  0  0  0  0  0  0  0
   -1.4001    0.4437   -1.8471 C   0  0  0  0  0  0  0  0  0  0  0  0
    3.1870   -3.1892    0.2935 C   0  0  0  0  0  0  0  0  0  0  0  0
    3.3029   -2.5976    2.6199 C   0  0  0  0  0  0  0  0  0  0  0  0
    5.7080   -1.6235   -2.8765 C   0  0  0  0  0  0  0  0  0  0  0  0
   -2.7300   -0.3529    0.0441 C   0  0  0  0  0  0  0  0  0  0  0  0
   -2.6399    0.1287   -1.2792 C   0  0  0  0  0  0  0  0  0  0  0  0
    2.6228   -4.4192    0.6351 C   0  0  0  0  0  0  0  0  0  0  0  0
    2.7423   -3.8301    2.9616 C   0  0  0  0  0  0  0  0  0  0  0  0
    5.4059   -1.1395   -4.1536 C   0  0  0  0  0  0  0  0  0  0  0  0
    6.4849   -2.7753   -2.7289 C   0  0  0  0  0  0  0  0  0  0  0  0
    2.3815   -4.7327    1.9666 C   0  0  0  0  0  0  0  0  0  0  0  0
    5.8419   -1.8227   -5.2904 C   0  0  0  0  0  0  0  0  0  0  0  0
    6.8939   -3.4884   -3.8611 C   0  0  0  0  0  0  0  0  0  0  0  0
    6.5682   -3.0090   -5.1387 C   0  0  0  0  0  0  0  0  0  0  0  0
    6.9747   -3.7673   -6.3280 N   0  3  0  0  0  0  0  0  0  0  0  0
    6.6937   -3.2942   -7.4387 O   0  0  0  0  0  0  0  0  0  0  0  0
    7.5748   -4.8375   -6.1513 O   0  5  0  0  0  0  0  0  0  0  0  0
    3.6499    0.9226   -0.3208 H   0  0  0  0  0  0  0  0  0  0  0  0
    5.0264   -0.8081    0.9222 H   0  0  0  0  0  0  0  0  0  0  0  0
    3.6910   -0.1773    1.8251 H   0  0  0  0  0  0  0  0  0  0  0  0
    5.6909   -1.1941   -0.8672 H   0  0  0  0  0  0  0  0  0  0  0  0
   -1.6284   -0.9191    1.8314 H   0  0  0  0  0  0  0  0  0  0  0  0
   -1.3154    0.8151   -2.8629 H   0  0  0  0  0  0  0  0  0  0  0  0
    3.3274   -3.0080   -0.7664 H   0  0  0  0  0  0  0  0  0  0  0  0
    3.5269   -1.8892    3.4157 H   0  0  0  0  0  0  0  0  0  0  0  0
   -3.7070   -0.5756    0.4695 H   0  0  0  0  0  0  0  0  0  0  0  0
   -3.5492    0.2606   -1.8629 H   0  0  0  0  0  0  0  0  0  0  0  0
    2.3447   -5.1181   -0.1499 H   0  0  0  0  0  0  0  0  0  0  0  0
    2.5505   -4.0661    4.0040 H   0  0  0  0  0  0  0  0  0  0  0  0
    4.8147   -0.2323   -4.2721 H   0  0  0  0  0  0  0  0  0  0  0  0
    6.7096   -3.1768   -1.7433 H   0  0  0  0  0  0  0  0  0  0  0  0
    1.9053   -5.6735    2.2262 H   0  0  0  0  0  0  0  0  0  0  0  0
    5.5868   -1.4302   -6.2724 H   0  0  0  0  0  0  0  0  0  0  0  0
    7.4392   -4.4216   -3.7314 H   0  0  0  0  0  0  0  0  0  0  0  0
  1  2  1  0  0  0  0
  1  3  1  0  0  0  0
  1  4  1  0  0  0  0
  2  5  1  0  0  0  0
  2  6  1  0  0  0  0
  2 32  1  0  0  0  0
  3  7  1  0  0  0  0
  3  8  2  0  0  0  0
  4  9  1  0  0  0  0
  4 10  2  0  0  0  0
  5 11  1  0  0  0  0
  5 33  1  0  0  0  0
  5 34  1  0  0  0  0
  6 12  1  0  0  0  0
  6 13  2  0  0  0  0
  7 14  1  0  0  0  0
  7  9  2  0  0  0  0
  9 15  1  0  0  0  0
 11 16  2  0  0  0  0
 11 17  1  0  0  0  0
 12 18  1  0  0  0  0
 12 35  1  0  0  0  0
 14 19  2  0  0  0  0
 14 36  1  0  0  0  0
 15 20  2  0  0  0  0
 15 37  1  0  0  0  0
 16 21  1  0  0  0  0
 16 38  1  0  0  0  0
 17 22  2  0  0  0  0
 17 39  1  0  0  0  0
 18 23  2  0  0  0  0
 18 24  1  0  0  0  0
 19 20  1  0  0  0  0
 19 40  1  0  0  0  0
 20 41  1  0  0  0  0
 21 25  2  0  0  0  0
 21 42  1  0  0  0  0
 22 25  1  0  0  0  0
 22 43  1  0  0  0  0
 23 26  1  0  0  0  0
 23 44  1  0  0  0  0
 24 27  2  0  0  0  0
 24 45  1  0  0  0  0
 25 46  1  0  0  0  0
 26 28  2  0  0  0  0
 26 47  1  0  0  0  0
 27 28  1  0  0  0  0
 27 48  1  0  0  0  0
 28 29  1  0  0  0  0
 29 30  2  0  0  0  0
 29 31  1  0  0  0  0
M  CHG  2  29   1  31  -1
M  END
>  <Mol_ID>
8128

>  <Formula>
C23H17N3O5

>  <MolWeight>
415.39818

>  <Cat>
P2185

>  <Name>
WAY-310624

>  <Synonyms>
N/A

>  <Target>
Others

>  <Form>
free base

>  <CAS>
1212146-39-8

>  <URL>
N/A

$$$$
