WAY-326406
 OpenBabel08302521433D

 38 40  0  0  0  0  0  0  0  0999 V2000
   -0.1139    0.5777    0.0293 N   0  0  0  0  0  0  0  0  0  0  0  0
    1.0348    1.3624    0.0439 C   0  0  0  0  0  0  0  0  0  0  0  0
    2.4492   -0.6863    0.0182 N   0  0  0  0  0  0  0  0  0  0  0  0
    2.3711    0.6112    0.0006 C   0  0  0  0  0  0  0  0  0  0  0  0
   -0.0145   -0.8413    0.0650 C   0  0  0  0  0  0  0  0  0  0  0  0
    1.2635   -1.4287    0.0794 C   0  0  0  0  0  0  0  0  0  0  0  0
    3.5921    1.4704   -0.0774 C   0  0  0  0  0  0  0  0  0  0  0  0
    4.8224    0.9312   -0.1119 C   0  0  0  0  0  0  0  0  0  0  0  0
    1.0395    2.5876    0.0923 O   0  0  0  0  0  0  0  0  0  0  0  0
    6.0612    1.7149   -0.2326 C   0  0  0  0  0  0  0  0  0  0  0  0
   -1.4119    1.2284    0.0484 C   0  0  0  0  0  0  0  0  0  0  0  0
    8.4717    3.1527   -0.5457 C   0  0  0  0  0  0  0  0  0  0  0  0
    6.1877    3.0143    0.2702 C   0  0  0  0  0  0  0  0  0  0  0  0
    7.1741    1.1294   -0.8502 C   0  0  0  0  0  0  0  0  0  0  0  0
    8.3709    1.8421   -1.0083 C   0  0  0  0  0  0  0  0  0  0  0  0
    7.3799    3.7271    0.1062 C   0  0  0  0  0  0  0  0  0  0  0  0
   -1.1466   -1.6684    0.1146 C   0  0  0  0  0  0  0  0  0  0  0  0
    9.5603    3.9706   -0.6665 O   0  0  0  0  0  0  0  0  0  0  0  0
    1.3835   -2.8201    0.1609 C   0  0  0  0  0  0  0  0  0  0  0  0
   10.6836    3.4488   -1.3648 C   0  0  0  0  0  0  0  0  0  0  0  0
   -1.0116   -3.0561    0.2064 C   0  0  0  0  0  0  0  0  0  0  0  0
    0.2537   -3.6324    0.2351 C   0  0  0  0  0  0  0  0  0  0  0  0
    3.4295    2.5407   -0.1272 H   0  0  0  0  0  0  0  0  0  0  0  0
    4.9442   -0.1502   -0.0903 H   0  0  0  0  0  0  0  0  0  0  0  0
   -1.9886    0.9201   -0.8294 H   0  0  0  0  0  0  0  0  0  0  0  0
   -1.9411    0.9560    0.9668 H   0  0  0  0  0  0  0  0  0  0  0  0
   -1.3185    2.3176    0.0238 H   0  0  0  0  0  0  0  0  0  0  0  0
    5.3668    3.4958    0.7948 H   0  0  0  0  0  0  0  0  0  0  0  0
    7.1183    0.1122   -1.2333 H   0  0  0  0  0  0  0  0  0  0  0  0
    9.1979    1.3443   -1.5029 H   0  0  0  0  0  0  0  0  0  0  0  0
    7.4539    4.7427    0.4875 H   0  0  0  0  0  0  0  0  0  0  0  0
   -2.1522   -1.2597    0.0961 H   0  0  0  0  0  0  0  0  0  0  0  0
    2.3740   -3.2679    0.1759 H   0  0  0  0  0  0  0  0  0  0  0  0
   11.1586    2.6495   -0.7875 H   0  0  0  0  0  0  0  0  0  0  0  0
   10.4132    3.1054   -2.3690 H   0  0  0  0  0  0  0  0  0  0  0  0
   11.4102    4.2589   -1.4807 H   0  0  0  0  0  0  0  0  0  0  0  0
   -1.8964   -3.6855    0.2629 H   0  0  0  0  0  0  0  0  0  0  0  0
    0.3640   -4.7105    0.3164 H   0  0  0  0  0  0  0  0  0  0  0  0
  2  1  1  0  0  0  0
  3  6  1  0  0  0  0
  3  4  2  0  0  0  0
  4  2  1  0  0  0  0
  5  1  1  0  0  0  0
  6  5  2  0  0  0  0
  7  4  1  0  0  0  0
  7 23  1  0  0  0  0
  8  7  2  0  0  0  0
  8 24  1  0  0  0  0
  9  2  2  0  0  0  0
 10  8  1  0  0  0  0
 11  1  1  0  0  0  0
 11 25  1  0  0  0  0
 11 26  1  0  0  0  0
 11 27  1  0  0  0  0
 12 15  2  0  0  0  0
 13 10  1  0  0  0  0
 13 28  1  0  0  0  0
 14 10  2  0  0  0  0
 14 29  1  0  0  0  0
 15 14  1  0  0  0  0
 15 30  1  0  0  0  0
 16 13  2  0  0  0  0
 16 12  1  0  0  0  0
 16 31  1  0  0  0  0
 17  5  1  0  0  0  0
 17 32  1  0  0  0  0
 18 12  1  0  0  0  0
 19  6  1  0  0  0  0
 19 33  1  0  0  0  0
 20 18  1  0  0  0  0
 20 34  1  0  0  0  0
 20 35  1  0  0  0  0
 20 36  1  0  0  0  0
 21 17  2  0  0  0  0
 21 37  1  0  0  0  0
 22 21  1  0  0  0  0
 22 19  2  0  0  0  0
 22 38  1  0  0  0  0
M  END
>  <Mol_ID>
8922

>  <Formula>
C18H16N2O2

>  <MolWeight>
292.33184

>  <Cat>
P2481

>  <Name>
WAY-326406

>  <Synonyms>
N/A

>  <Target>
Androgen Receptor

>  <Form>
free base

>  <CAS>
870760-37-5

>  <URL>
N/A

$$$$
