WAY-247615
 OpenBabel08302521403D

 49 52  0  0  0  0  0  0  0  0999 V2000
   -0.2206   -0.8401   -0.0638 C   0  0  0  0  0  0  0  0  0  0  0  0
    1.8769    0.8745    0.0357 N   0  0  0  0  0  0  0  0  0  0  0  0
   -0.4488    0.5024   -0.0386 C   0  0  0  0  0  0  0  0  0  0  0  0
   -1.3697   -1.5520   -0.1786 N   0  0  0  0  0  0  0  0  0  0  0  0
    1.0413   -1.3661    0.0201 N   0  0  0  0  0  0  0  0  0  0  0  0
    2.1352   -0.5094    0.1363 C   0  0  0  0  0  0  0  0  0  0  0  0
    0.6045    1.4586   -0.0044 C   0  0  0  0  0  0  0  0  0  0  0  0
   -2.3319   -0.6551   -0.2095 C   0  0  0  0  0  0  0  0  0  0  0  0
   -1.8175    0.6169   -0.0657 N   0  0  0  0  0  0  0  0  0  0  0  0
    3.0366    1.7635    0.0298 C   0  0  0  0  0  0  0  0  0  0  0  0
    3.5467    2.0508   -1.3709 C   0  0  0  0  0  0  0  0  0  0  0  0
   -3.6488   -0.8916   -0.4111 N   0  0  0  0  0  0  0  0  0  0  0  0
    3.2748   -0.9422    0.3301 O   0  0  0  0  0  0  0  0  0  0  0  0
    0.4046    2.6675    0.0044 O   0  0  0  0  0  0  0  0  0  0  0  0
    3.1051    3.1829   -2.0696 C   0  0  0  0  0  0  0  0  0  0  0  0
    1.2238   -2.8060    0.0414 C   0  0  0  0  0  0  0  0  0  0  0  0
   -4.0076   -2.2531   -0.7912 C   0  0  0  0  0  0  0  0  0  0  0  0
   -2.5499    1.8622   -0.0304 C   0  0  0  0  0  0  0  0  0  0  0  0
   -5.4268   -2.3038   -1.3079 C   0  0  0  0  0  0  0  0  0  0  0  0
    4.4541    1.1833   -2.0006 C   0  0  0  0  0  0  0  0  0  0  0  0
    3.5525    3.4387   -3.3695 C   0  0  0  0  0  0  0  0  0  0  0  0
   -5.7150   -1.9021   -2.6217 C   0  0  0  0  0  0  0  0  0  0  0  0
   -6.4719   -2.7803   -0.5032 C   0  0  0  0  0  0  0  0  0  0  0  0
    4.9003    1.4418   -3.3002 C   0  0  0  0  0  0  0  0  0  0  0  0
    4.4447    2.5644   -3.9865 C   0  0  0  0  0  0  0  0  0  0  0  0
   -7.7687   -2.8803   -1.0129 C   0  0  0  0  0  0  0  0  0  0  0  0
   -7.0113   -2.0048   -3.1295 C   0  0  0  0  0  0  0  0  0  0  0  0
   -8.0374   -2.4987   -2.3262 C   0  0  0  0  0  0  0  0  0  0  0  0
    2.7820    2.7095    0.5239 H   0  0  0  0  0  0  0  0  0  0  0  0
    3.8526    1.3339    0.6242 H   0  0  0  0  0  0  0  0  0  0  0  0
   -4.3104   -0.4846    0.2428 H   0  0  0  0  0  0  0  0  0  0  0  0
    2.4068    3.8772   -1.6046 H   0  0  0  0  0  0  0  0  0  0  0  0
    0.7794   -3.2053    0.9592 H   0  0  0  0  0  0  0  0  0  0  0  0
    0.7257   -3.2459   -0.8281 H   0  0  0  0  0  0  0  0  0  0  0  0
    2.2814   -3.0839    0.0120 H   0  0  0  0  0  0  0  0  0  0  0  0
   -3.3478   -2.6201   -1.5892 H   0  0  0  0  0  0  0  0  0  0  0  0
   -3.8900   -2.9351    0.0602 H   0  0  0  0  0  0  0  0  0  0  0  0
   -2.2674    2.4041    0.8764 H   0  0  0  0  0  0  0  0  0  0  0  0
   -2.2985    2.4430   -0.9207 H   0  0  0  0  0  0  0  0  0  0  0  0
   -3.6254    1.6721   -0.0081 H   0  0  0  0  0  0  0  0  0  0  0  0
    4.8236    0.3005   -1.4813 H   0  0  0  0  0  0  0  0  0  0  0  0
    3.2018    4.3200   -3.8988 H   0  0  0  0  0  0  0  0  0  0  0  0
   -4.9195   -1.5226   -3.2602 H   0  0  0  0  0  0  0  0  0  0  0  0
   -6.2784   -3.0972    0.5195 H   0  0  0  0  0  0  0  0  0  0  0  0
    5.6013    0.7609   -3.7781 H   0  0  0  0  0  0  0  0  0  0  0  0
    4.7863    2.7603   -4.9977 H   0  0  0  0  0  0  0  0  0  0  0  0
   -8.5702   -3.2679   -0.3879 H   0  0  0  0  0  0  0  0  0  0  0  0
   -7.2181   -1.7087   -4.1548 H   0  0  0  0  0  0  0  0  0  0  0  0
   -9.0443   -2.5888   -2.7252 H   0  0  0  0  0  0  0  0  0  0  0  0
  2  7  1  0  0  0  0
  3  1  2  0  0  0  0
  4  1  1  0  0  0  0
  5  1  1  0  0  0  0
  6  5  1  0  0  0  0
  6  2  1  0  0  0  0
  7  3  1  0  0  0  0
  8  4  2  0  0  0  0
  9  3  1  0  0  0  0
  9  8  1  0  0  0  0
 10  2  1  0  0  0  0
 10 29  1  0  0  0  0
 10 30  1  0  0  0  0
 11 10  1  0  0  0  0
 12  8  1  0  0  0  0
 12 31  1  0  0  0  0
 13  6  2  0  0  0  0
 14  7  2  0  0  0  0
 15 11  2  0  0  0  0
 15 32  1  0  0  0  0
 16  5  1  0  0  0  0
 16 33  1  0  0  0  0
 16 34  1  0  0  0  0
 16 35  1  0  0  0  0
 17 12  1  0  0  0  0
 17 36  1  0  0  0  0
 17 37  1  0  0  0  0
 18  9  1  0  0  0  0
 18 38  1  0  0  0  0
 18 39  1  0  0  0  0
 18 40  1  0  0  0  0
 19 17  1  0  0  0  0
 20 11  1  0  0  0  0
 20 41  1  0  0  0  0
 21 15  1  0  0  0  0
 21 42  1  0  0  0  0
 22 19  2  0  0  0  0
 22 43  1  0  0  0  0
 23 19  1  0  0  0  0
 23 44  1  0  0  0  0
 24 20  2  0  0  0  0
 24 45  1  0  0  0  0
 25 24  1  0  0  0  0
 25 21  2  0  0  0  0
 25 46  1  0  0  0  0
 26 23  2  0  0  0  0
 26 47  1  0  0  0  0
 27 22  1  0  0  0  0
 27 48  1  0  0  0  0
 28 26  1  0  0  0  0
 28 27  2  0  0  0  0
 28 49  1  0  0  0  0
M  END
>  <Mol_ID>
8347

>  <Formula>
C21H20ClN5O2

>  <MolWeight>
409.8688

>  <Cat>
P2077

>  <Name>
WAY-247615

>  <Synonyms>
N/A

>  <Target>
PTP1B

>  <Form>
free base

>  <CAS>
368837-78-9

>  <URL>
N/A

$$$$
