WAY-324883
 OpenBabel08302521423D

 51 53  0  0  0  0  0  0  0  0999 V2000
   -1.4497    1.3503   -1.1093 S   0  0  0  0  0  0  0  0  0  0  0  0
   -1.4517   -4.7234   -4.4124 C   0  0  0  0  0  0  0  0  0  0  0  0
   -1.7143   -0.1474   -2.0033 C   0  0  0  0  0  0  0  0  0  0  0  0
   -3.3486   -6.0652   -5.3040 N   0  0  0  0  0  0  0  0  0  0  0  0
   -3.7469   -9.0360   -4.7593 N   0  0  0  0  0  0  0  0  0  0  0  0
   -0.4298    1.1428   -0.1071 O   0  0  0  0  0  0  0  0  0  0  0  0
   -2.7233    1.9621   -0.8088 O   0  0  0  0  0  0  0  0  0  0  0  0
   -2.2283   -3.5735   -4.3892 N   0  0  0  0  0  0  0  0  0  0  0  0
   -0.7444    2.2961   -2.3022 N   0  0  0  0  0  0  0  0  0  0  0  0
   -1.9117   -5.7417   -5.4560 C   0  0  0  0  0  0  0  0  0  0  0  0
   -0.4947   -4.9756   -3.6868 O   0  0  0  0  0  0  0  0  0  0  0  0
   -0.7195   -1.1208   -2.0067 C   0  0  0  0  0  0  0  0  0  0  0  0
   -2.8879   -0.3272   -2.7404 C   0  0  0  0  0  0  0  0  0  0  0  0
   -5.2120   -9.1964   -4.6637 C   0  0  0  0  0  0  0  0  0  0  0  0
   -2.0361   -2.4522   -3.5607 C   0  0  0  0  0  0  0  0  0  0  0  0
   -3.6438   -6.6362   -3.9630 C   0  0  0  0  0  0  0  0  0  0  0  0
   -3.3798   -8.5208   -6.0986 C   0  0  0  0  0  0  0  0  0  0  0  0
   -3.1993   -8.1018   -3.7557 C   0  0  0  0  0  0  0  0  0  0  0  0
   -3.7564   -7.0324   -6.3533 C   0  0  0  0  0  0  0  0  0  0  0  0
   -3.0400   -1.4751   -3.5255 C   0  0  0  0  0  0  0  0  0  0  0  0
   -0.8838   -2.2644   -2.7894 C   0  0  0  0  0  0  0  0  0  0  0  0
   -5.7303   -9.7037   -3.3339 C   0  0  0  0  0  0  0  0  0  0  0  0
   -6.5630   -8.8943   -2.5437 C   0  0  0  0  0  0  0  0  0  0  0  0
   -5.4328  -10.9993   -2.8908 C   0  0  0  0  0  0  0  0  0  0  0  0
   -5.9739  -11.4814   -1.6955 C   0  0  0  0  0  0  0  0  0  0  0  0
   -7.0969   -9.3741   -1.3480 C   0  0  0  0  0  0  0  0  0  0  0  0
   -6.8078  -10.6704   -0.9269 C   0  0  0  0  0  0  0  0  0  0  0  0
   -3.0745   -3.6178   -4.9481 H   0  0  0  0  0  0  0  0  0  0  0  0
    0.2166    2.5270   -2.0522 H   0  0  0  0  0  0  0  0  0  0  0  0
   -1.3357    3.0976   -2.5170 H   0  0  0  0  0  0  0  0  0  0  0  0
   -1.7317   -5.2837   -6.4364 H   0  0  0  0  0  0  0  0  0  0  0  0
   -1.2716   -6.6280   -5.3805 H   0  0  0  0  0  0  0  0  0  0  0  0
    0.1926   -0.9944   -1.4305 H   0  0  0  0  0  0  0  0  0  0  0  0
   -3.6730    0.4255   -2.7198 H   0  0  0  0  0  0  0  0  0  0  0  0
   -5.7383   -8.2678   -4.9116 H   0  0  0  0  0  0  0  0  0  0  0  0
   -5.5348   -9.9237   -5.4208 H   0  0  0  0  0  0  0  0  0  0  0  0
   -3.2160   -6.0197   -3.1646 H   0  0  0  0  0  0  0  0  0  0  0  0
   -4.7265   -6.5622   -3.8081 H   0  0  0  0  0  0  0  0  0  0  0  0
   -2.2954   -8.6392   -6.2238 H   0  0  0  0  0  0  0  0  0  0  0  0
   -3.8298   -9.1487   -6.8779 H   0  0  0  0  0  0  0  0  0  0  0  0
   -2.1027   -8.1551   -3.8012 H   0  0  0  0  0  0  0  0  0  0  0  0
   -3.4473   -8.4269   -2.7393 H   0  0  0  0  0  0  0  0  0  0  0  0
   -4.8449   -6.9579   -6.4616 H   0  0  0  0  0  0  0  0  0  0  0  0
   -3.3552   -6.7238   -7.3273 H   0  0  0  0  0  0  0  0  0  0  0  0
   -3.9531   -1.5913   -4.1069 H   0  0  0  0  0  0  0  0  0  0  0  0
   -0.0678   -2.9792   -2.7985 H   0  0  0  0  0  0  0  0  0  0  0  0
   -6.8111   -7.8842   -2.8614 H   0  0  0  0  0  0  0  0  0  0  0  0
   -4.7869  -11.6416   -3.4855 H   0  0  0  0  0  0  0  0  0  0  0  0
   -5.7494  -12.4926   -1.3684 H   0  0  0  0  0  0  0  0  0  0  0  0
   -7.7474   -8.7414   -0.7488 H   0  0  0  0  0  0  0  0  0  0  0  0
   -7.2328  -11.0492   -0.0012 H   0  0  0  0  0  0  0  0  0  0  0  0
  2  8  1  0  0  0  0
  3  1  1  0  0  0  0
  4 10  1  0  0  0  0
  5 18  1  0  0  0  0
  6  1  2  0  0  0  0
  7  1  2  0  0  0  0
  8 15  1  0  0  0  0
  8 28  1  0  0  0  0
  9  1  1  0  0  0  0
  9 29  1  0  0  0  0
  9 30  1  0  0  0  0
 10  2  1  0  0  0  0
 10 31  1  0  0  0  0
 10 32  1  0  0  0  0
 11  2  2  0  0  0  0
 12  3  2  0  0  0  0
 12 33  1  0  0  0  0
 13  3  1  0  0  0  0
 13 34  1  0  0  0  0
 14  5  1  0  0  0  0
 14 35  1  0  0  0  0
 14 36  1  0  0  0  0
 15 21  2  0  0  0  0
 15 20  1  0  0  0  0
 16  4  1  0  0  0  0
 16 37  1  0  0  0  0
 16 38  1  0  0  0  0
 17 19  1  0  0  0  0
 17  5  1  0  0  0  0
 17 39  1  0  0  0  0
 17 40  1  0  0  0  0
 18 16  1  0  0  0  0
 18 41  1  0  0  0  0
 18 42  1  0  0  0  0
 19  4  1  0  0  0  0
 19 43  1  0  0  0  0
 19 44  1  0  0  0  0
 20 13  2  0  0  0  0
 20 45  1  0  0  0  0
 21 12  1  0  0  0  0
 21 46  1  0  0  0  0
 22 14  1  0  0  0  0
 23 22  2  0  0  0  0
 23 47  1  0  0  0  0
 24 22  1  0  0  0  0
 24 48  1  0  0  0  0
 25 24  2  0  0  0  0
 25 49  1  0  0  0  0
 26 23  1  0  0  0  0
 26 50  1  0  0  0  0
 27 26  2  0  0  0  0
 27 25  1  0  0  0  0
 27 51  1  0  0  0  0
M  END
>  <Mol_ID>
8657

>  <Formula>
C19H24N4O3S

>  <MolWeight>
388.48386

>  <Cat>
P2356

>  <Name>
WAY-324883

>  <Synonyms>
N/A

>  <Target>
HIV-1

>  <Form>
free base

>  <CAS>
694466-00-7

>  <URL>
N/A

$$$$
