WAY-325764
 OpenBabel08302521433D

 43 45  0  0  0  0  0  0  0  0999 V2000
    2.4293    0.1812    0.0196 C   0  0  0  0  0  0  0  0  0  0  0  0
    1.7536   -1.0249    0.0223 N   0  0  0  0  0  0  0  0  0  0  0  0
    4.1903    0.4375    0.0581 S   0  0  0  0  0  0  0  0  0  0  0  0
    1.5818    1.1971   -0.0115 N   0  0  0  0  0  0  0  0  0  0  0  0
    0.3980   -0.7413    0.0073 C   0  0  0  0  0  0  0  0  0  0  0  0
    0.3354    0.6481   -0.0087 C   0  0  0  0  0  0  0  0  0  0  0  0
    2.3112   -2.3620   -0.0785 C   0  0  0  0  0  0  0  0  0  0  0  0
    4.2766    2.2416    0.0640 C   0  0  0  0  0  0  0  0  0  0  0  0
    4.6015   -0.1137    1.3374 O   0  0  0  0  0  0  0  0  0  0  0  0
    4.6586   -0.1089   -1.1987 O   0  0  0  0  0  0  0  0  0  0  0  0
    2.3333   -3.1415    1.2133 C   0  0  0  0  0  0  0  0  0  0  0  0
    2.1047   -4.3445    1.2564 O   0  0  0  0  0  0  0  0  0  0  0  0
    5.7069    2.7004    0.1824 C   0  0  0  0  0  0  0  0  0  0  0  0
    2.7097   -2.3871    2.2793 O   0  0  0  0  0  0  0  0  0  0  0  0
   -0.7574   -1.5358    0.0031 C   0  0  0  0  0  0  0  0  0  0  0  0
   -0.9038    1.2987   -0.0191 C   0  0  0  0  0  0  0  0  0  0  0  0
    2.8940   -3.1390    3.4887 C   0  0  0  0  0  0  0  0  0  0  0  0
    6.4812    2.9429   -0.9614 C   0  0  0  0  0  0  0  0  0  0  0  0
    6.2840    2.9055    1.4446 C   0  0  0  0  0  0  0  0  0  0  0  0
   -1.9905   -0.8692    0.0031 C   0  0  0  0  0  0  0  0  0  0  0  0
   -2.0661    0.5260   -0.0059 C   0  0  0  0  0  0  0  0  0  0  0  0
    3.3744   -2.2104    4.5878 C   0  0  0  0  0  0  0  0  0  0  0  0
    7.6194    3.2958    1.5601 C   0  0  0  0  0  0  0  0  0  0  0  0
    7.8162    3.3371   -0.8427 C   0  0  0  0  0  0  0  0  0  0  0  0
    8.3889    3.4984    0.4170 C   0  0  0  0  0  0  0  0  0  0  0  0
    1.6729   -2.9135   -0.7824 H   0  0  0  0  0  0  0  0  0  0  0  0
    3.3135   -2.3232   -0.5059 H   0  0  0  0  0  0  0  0  0  0  0  0
    3.8257    2.6073   -0.8644 H   0  0  0  0  0  0  0  0  0  0  0  0
    3.6891    2.6104    0.9108 H   0  0  0  0  0  0  0  0  0  0  0  0
   -0.7192   -2.6207    0.0093 H   0  0  0  0  0  0  0  0  0  0  0  0
   -0.9464    2.3820   -0.0304 H   0  0  0  0  0  0  0  0  0  0  0  0
    1.9439   -3.5986    3.7846 H   0  0  0  0  0  0  0  0  0  0  0  0
    3.6445   -3.9205    3.3243 H   0  0  0  0  0  0  0  0  0  0  0  0
    6.0551    2.8244   -1.9559 H   0  0  0  0  0  0  0  0  0  0  0  0
    5.6999    2.7572    2.3512 H   0  0  0  0  0  0  0  0  0  0  0  0
   -2.9126   -1.4471    0.0115 H   0  0  0  0  0  0  0  0  0  0  0  0
   -3.0347    1.0201   -0.0009 H   0  0  0  0  0  0  0  0  0  0  0  0
    4.2887   -1.6886    4.2867 H   0  0  0  0  0  0  0  0  0  0  0  0
    2.6228   -1.4455    4.8061 H   0  0  0  0  0  0  0  0  0  0  0  0
    3.5763   -2.7733    5.5045 H   0  0  0  0  0  0  0  0  0  0  0  0
    8.0617    3.4335    2.5436 H   0  0  0  0  0  0  0  0  0  0  0  0
    8.4132    3.5105   -1.7346 H   0  0  0  0  0  0  0  0  0  0  0  0
    9.4346    3.7813    0.5082 H   0  0  0  0  0  0  0  0  0  0  0  0
  2  1  1  0  0  0  0
  3  1  1  0  0  0  0
  4  1  2  0  0  0  0
  5  2  1  0  0  0  0
  6  4  1  0  0  0  0
  6  5  2  0  0  0  0
  7  2  1  0  0  0  0
  7 26  1  0  0  0  0
  7 27  1  0  0  0  0
  8  3  1  0  0  0  0
  8 28  1  0  0  0  0
  8 29  1  0  0  0  0
  9  3  2  0  0  0  0
 10  3  2  0  0  0  0
 11  7  1  0  0  0  0
 12 11  2  0  0  0  0
 13  8  1  0  0  0  0
 14 11  1  0  0  0  0
 15  5  1  0  0  0  0
 15 30  1  0  0  0  0
 16  6  1  0  0  0  0
 16 31  1  0  0  0  0
 17 14  1  0  0  0  0
 17 32  1  0  0  0  0
 17 33  1  0  0  0  0
 18 13  2  0  0  0  0
 18 34  1  0  0  0  0
 19 13  1  0  0  0  0
 19 35  1  0  0  0  0
 20 15  2  0  0  0  0
 20 36  1  0  0  0  0
 21 16  2  0  0  0  0
 21 20  1  0  0  0  0
 21 37  1  0  0  0  0
 22 17  1  0  0  0  0
 22 38  1  0  0  0  0
 22 39  1  0  0  0  0
 22 40  1  0  0  0  0
 23 19  2  0  0  0  0
 23 41  1  0  0  0  0
 24 18  1  0  0  0  0
 24 25  2  0  0  0  0
 24 42  1  0  0  0  0
 25 23  1  0  0  0  0
 25 43  1  0  0  0  0
M  END
>  <Mol_ID>
8878

>  <Formula>
C18H18N2O4S

>  <MolWeight>
358.41152

>  <Cat>
P2426

>  <Name>
WAY-325764

>  <Synonyms>
N/A

>  <Target>
MKK4

>  <Form>
free base

>  <CAS>
869471-47-6

>  <URL>
N/A

$$$$
