WAY-325875
 OpenBabel08302521433D

 40 42  0  0  0  0  0  0  0  0999 V2000
   -0.8373   -0.0927    0.1005 C   0  0  0  0  0  0  0  0  0  0  0  0
   -0.1743   -1.2446    0.1600 N   0  0  0  0  0  0  0  0  0  0  0  0
   -0.2497    1.1007    0.0266 N   0  0  0  0  0  0  0  0  0  0  0  0
    4.0775    3.9670   -0.1233 C   0  0  0  0  0  0  0  0  0  0  0  0
    1.8163   -0.0353    0.0294 N   0  0  0  0  0  0  0  0  0  0  0  0
    1.1372   -1.1586    0.1438 C   0  0  0  0  0  0  0  0  0  0  0  0
    5.3827    4.3836   -0.1297 N   0  0  0  0  0  0  0  0  0  0  0  0
    1.0891    1.0843   -0.0100 C   0  0  0  0  0  0  0  0  0  0  0  0
    3.2442    4.9821   -0.1499 N   0  0  0  0  0  0  0  0  0  0  0  0
    3.6221    2.3041   -0.0677 S   0  0  0  0  0  0  0  0  0  0  0  0
   -2.2379   -0.1189    0.1204 N   0  0  0  0  0  0  0  0  0  0  0  0
    4.0372    6.1005   -0.1569 C   0  0  0  0  0  0  0  0  0  0  0  0
    5.3679    5.7561   -0.1411 C   0  0  0  0  0  0  0  0  0  0  0  0
    1.8017    2.4204   -0.1281 C   0  0  0  0  0  0  0  0  0  0  0  0
    1.8539   -2.3373    0.1955 N   0  0  0  0  0  0  0  0  0  0  0  0
   -3.0515   -1.0992   -0.4836 C   0  0  0  0  0  0  0  0  0  0  0  0
   -4.7673   -2.9861   -1.7046 C   0  0  0  0  0  0  0  0  0  0  0  0
   -4.3301   -1.3396    0.0296 C   0  0  0  0  0  0  0  0  0  0  0  0
   -2.6568   -1.7953   -1.6336 C   0  0  0  0  0  0  0  0  0  0  0  0
   -3.5012   -2.7315   -2.2362 C   0  0  0  0  0  0  0  0  0  0  0  0
   -5.1751   -2.2847   -0.5643 C   0  0  0  0  0  0  0  0  0  0  0  0
    6.5907    3.5947   -0.1251 C   0  0  0  0  0  0  0  0  0  0  0  0
   -5.6839   -3.9823   -2.3495 C   0  0  0  0  0  0  0  0  0  0  0  0
   -2.5739    0.8239   -0.0386 H   0  0  0  0  0  0  0  0  0  0  0  0
    3.6098    7.0948   -0.1702 H   0  0  0  0  0  0  0  0  0  0  0  0
    6.2727    6.3479   -0.1371 H   0  0  0  0  0  0  0  0  0  0  0  0
    1.5110    2.8792   -1.0796 H   0  0  0  0  0  0  0  0  0  0  0  0
    1.4555    3.0637    0.6880 H   0  0  0  0  0  0  0  0  0  0  0  0
    2.7579   -2.2171   -0.2377 H   0  0  0  0  0  0  0  0  0  0  0  0
    1.2769   -3.1045   -0.1210 H   0  0  0  0  0  0  0  0  0  0  0  0
   -4.6655   -0.8134    0.9199 H   0  0  0  0  0  0  0  0  0  0  0  0
   -1.6825   -1.6150   -2.0803 H   0  0  0  0  0  0  0  0  0  0  0  0
   -3.1576   -3.2564   -3.1243 H   0  0  0  0  0  0  0  0  0  0  0  0
   -6.1537   -2.4715   -0.1280 H   0  0  0  0  0  0  0  0  0  0  0  0
    7.2111    3.9130   -0.9676 H   0  0  0  0  0  0  0  0  0  0  0  0
    7.1137    3.7755    0.8176 H   0  0  0  0  0  0  0  0  0  0  0  0
    6.3730    2.5311   -0.2264 H   0  0  0  0  0  0  0  0  0  0  0  0
   -5.9524   -4.7694   -1.6380 H   0  0  0  0  0  0  0  0  0  0  0  0
   -6.5935   -3.4836   -2.6989 H   0  0  0  0  0  0  0  0  0  0  0  0
   -5.2111   -4.4603   -3.2142 H   0  0  0  0  0  0  0  0  0  0  0  0
  2  1  2  0  0  0  0
  3  1  1  0  0  0  0
  4 10  1  0  0  0  0
  5  8  1  0  0  0  0
  6  2  1  0  0  0  0
  6  5  2  0  0  0  0
  7  4  1  0  0  0  0
  8  3  2  0  0  0  0
  9  4  2  0  0  0  0
 10 14  1  0  0  0  0
 11  1  1  0  0  0  0
 11 24  1  0  0  0  0
 12  9  1  0  0  0  0
 12 25  1  0  0  0  0
 13  7  1  0  0  0  0
 13 12  2  0  0  0  0
 13 26  1  0  0  0  0
 14  8  1  0  0  0  0
 14 27  1  0  0  0  0
 14 28  1  0  0  0  0
 15  6  1  0  0  0  0
 15 29  1  0  0  0  0
 15 30  1  0  0  0  0
 16 11  1  0  0  0  0
 17 20  2  0  0  0  0
 18 16  1  0  0  0  0
 18 31  1  0  0  0  0
 19 16  2  0  0  0  0
 19 32  1  0  0  0  0
 20 19  1  0  0  0  0
 20 33  1  0  0  0  0
 21 18  2  0  0  0  0
 21 17  1  0  0  0  0
 21 34  1  0  0  0  0
 22  7  1  0  0  0  0
 22 35  1  0  0  0  0
 22 36  1  0  0  0  0
 22 37  1  0  0  0  0
 23 17  1  0  0  0  0
 23 38  1  0  0  0  0
 23 39  1  0  0  0  0
 23 40  1  0  0  0  0
M  END
>  <Mol_ID>
8854

>  <Formula>
C15H17N7S

>  <MolWeight>
327.40738

>  <Cat>
P2432

>  <Name>
WAY-325875

>  <Synonyms>
N/A

>  <Target>
CK1

>  <Form>
free base

>  <CAS>
868963-65-9

>  <URL>
N/A

$$$$
