WAY-332035
 OpenBabel08302521443D

 49 51  0  0  0  0  0  0  0  0999 V2000
    0.0069    0.1939   -1.1151 N   0  0  0  0  0  0  0  0  0  0  0  0
    0.1814    1.0232   -0.0253 C   0  0  0  0  0  0  0  0  0  0  0  0
   -0.2157   -0.9999   -0.5973 C   0  0  0  0  0  0  0  0  0  0  0  0
   -0.2166   -1.0095    0.7757 O   0  0  0  0  0  0  0  0  0  0  0  0
    0.0536    0.2821    1.1319 C   0  0  0  0  0  0  0  0  0  0  0  0
   -0.3128    3.2218   -1.6484 S   0  0  3  0  0  0  0  0  0  0  0  0
    0.4658    2.4695   -0.1782 C   0  0  0  0  0  0  0  0  0  0  0  0
   -2.0439    2.8817   -1.1956 C   0  0  0  0  0  0  0  0  0  0  0  0
   -0.4432   -2.2732   -1.2755 C   0  0  0  0  0  0  0  0  0  0  0  0
   -3.0304    3.2360   -2.2997 C   0  0  0  0  0  0  0  0  0  0  0  0
   -6.2853    2.0484   -3.1405 C   0  0  0  0  0  0  0  0  0  0  0  0
   -4.3547    3.0083   -1.9487 N   0  0  0  0  0  0  0  0  0  0  0  0
   -0.0804    4.7025   -1.5275 O   0  0  0  0  0  0  0  0  0  0  0  0
   -5.4516    3.2779   -2.8629 C   0  0  0  0  0  0  0  0  0  0  0  0
   -0.4123   -2.3375   -2.6830 C   0  0  0  0  0  0  0  0  0  0  0  0
   -7.6494    1.9951   -2.8061 C   0  0  0  0  0  0  0  0  0  0  0  0
   -2.7115    3.6475   -3.4071 O   0  0  0  0  0  0  0  0  0  0  0  0
   -0.6086   -3.5535   -3.3567 C   0  0  0  0  0  0  0  0  0  0  0  0
    0.1550    0.5730    2.5732 C   0  0  0  0  0  0  0  0  0  0  0  0
   -0.6811   -3.4527   -0.5570 C   0  0  0  0  0  0  0  0  0  0  0  0
   -0.8763   -4.6660   -1.2207 C   0  0  0  0  0  0  0  0  0  0  0  0
   -5.7194    0.9590   -3.8187 C   0  0  0  0  0  0  0  0  0  0  0  0
   -8.4268    0.8897   -3.1679 C   0  0  0  0  0  0  0  0  0  0  0  0
   -0.8398   -4.7161   -2.6121 C   0  0  0  0  0  0  0  0  0  0  0  0
   -0.5734   -3.6305   -4.8551 C   0  0  0  0  0  0  0  0  0  0  0  0
   -6.4983   -0.1411   -4.1837 C   0  0  0  0  0  0  0  0  0  0  0  0
   -7.8541   -0.1719   -3.8661 C   0  0  0  0  0  0  0  0  0  0  0  0
    0.1319    3.0328    0.6990 H   0  0  0  0  0  0  0  0  0  0  0  0
    1.5470    2.6159   -0.2759 H   0  0  0  0  0  0  0  0  0  0  0  0
   -2.1597    1.8137   -1.0014 H   0  0  0  0  0  0  0  0  0  0  0  0
   -2.2785    3.4478   -0.2891 H   0  0  0  0  0  0  0  0  0  0  0  0
   -4.5874    2.6604   -1.0317 H   0  0  0  0  0  0  0  0  0  0  0  0
   -5.0862    3.6780   -3.8143 H   0  0  0  0  0  0  0  0  0  0  0  0
   -6.0643    4.0584   -2.3981 H   0  0  0  0  0  0  0  0  0  0  0  0
   -0.2240   -1.4298   -3.2521 H   0  0  0  0  0  0  0  0  0  0  0  0
   -8.1255    2.8220   -2.2850 H   0  0  0  0  0  0  0  0  0  0  0  0
   -0.7705    0.3028    3.0903 H   0  0  0  0  0  0  0  0  0  0  0  0
    0.9786    0.0072    3.0203 H   0  0  0  0  0  0  0  0  0  0  0  0
    0.3424    1.6359    2.7516 H   0  0  0  0  0  0  0  0  0  0  0  0
   -0.7121   -3.4415    0.5301 H   0  0  0  0  0  0  0  0  0  0  0  0
   -1.0543   -5.5749   -0.6499 H   0  0  0  0  0  0  0  0  0  0  0  0
   -4.6643    0.9789   -4.0920 H   0  0  0  0  0  0  0  0  0  0  0  0
   -9.4856    0.8635   -2.9203 H   0  0  0  0  0  0  0  0  0  0  0  0
   -0.9900   -5.6678   -3.1173 H   0  0  0  0  0  0  0  0  0  0  0  0
    0.2215   -4.3105   -5.1790 H   0  0  0  0  0  0  0  0  0  0  0  0
   -1.5328   -3.9975   -5.2347 H   0  0  0  0  0  0  0  0  0  0  0  0
   -0.3847   -2.6519   -5.3078 H   0  0  0  0  0  0  0  0  0  0  0  0
   -6.0489   -0.9648   -4.7311 H   0  0  0  0  0  0  0  0  0  0  0  0
   -8.4642   -1.0195   -4.1683 H   0  0  0  0  0  0  0  0  0  0  0  0
  2  1  1  0  0  0  0
  3  1  2  0  0  0  0
  4  3  1  0  0  0  0
  5  2  2  0  0  0  0
  5  4  1  0  0  0  0
  6  7  1  0  0  0  0
  7  2  1  0  0  0  0
  7 28  1  0  0  0  0
  7 29  1  0  0  0  0
  8  6  1  0  0  0  0
  8 30  1  0  0  0  0
  8 31  1  0  0  0  0
  9  3  1  0  0  0  0
 10  8  1  0  0  0  0
 11 14  1  0  0  0  0
 12 10  1  0  0  0  0
 12 32  1  0  0  0  0
 13  6  2  0  0  0  0
 14 12  1  0  0  0  0
 14 33  1  0  0  0  0
 14 34  1  0  0  0  0
 15  9  2  0  0  0  0
 15 35  1  0  0  0  0
 16 11  2  0  0  0  0
 16 36  1  0  0  0  0
 17 10  2  0  0  0  0
 18 15  1  0  0  0  0
 18 24  2  0  0  0  0
 19  5  1  0  0  0  0
 19 37  1  0  0  0  0
 19 38  1  0  0  0  0
 19 39  1  0  0  0  0
 20  9  1  0  0  0  0
 20 40  1  0  0  0  0
 21 20  2  0  0  0  0
 21 41  1  0  0  0  0
 22 11  1  0  0  0  0
 22 42  1  0  0  0  0
 23 16  1  0  0  0  0
 23 43  1  0  0  0  0
 24 21  1  0  0  0  0
 24 44  1  0  0  0  0
 25 18  1  0  0  0  0
 25 45  1  0  0  0  0
 25 46  1  0  0  0  0
 25 47  1  0  0  0  0
 26 22  2  0  0  0  0
 26 48  1  0  0  0  0
 27 26  1  0  0  0  0
 27 23  2  0  0  0  0
 27 49  1  0  0  0  0
M  END
>  <Mol_ID>
9215

>  <Formula>
C21H21ClN2O3S

>  <MolWeight>
416.92104

>  <Cat>
P2683

>  <Name>
WAY-332035

>  <Synonyms>
N/A

>  <Target>
beta-catenin

>  <Form>
free base

>  <CAS>
1015858-20-4

>  <URL>
N/A

$$$$
