WAY-332056
 OpenBabel08302521443D

 46 48  0  0  0  0  0  0  0  0999 V2000
   -0.2595    4.1080    1.8246 N   0  0  0  0  0  0  0  0  0  0  0  0
   -0.3397    2.9222    1.1227 C   0  0  0  0  0  0  0  0  0  0  0  0
   -1.2817    4.0661    2.6586 C   0  0  0  0  0  0  0  0  0  0  0  0
   -2.0125    2.9099    2.5795 O   0  0  0  0  0  0  0  0  0  0  0  0
   -1.4066    2.1852    1.5923 C   0  0  0  0  0  0  0  0  0  0  0  0
   -0.1358    3.2888   -1.5564 S   0  0  3  0  0  0  0  0  0  0  0  0
    0.5766    2.6456   -0.0097 C   0  0  0  0  0  0  0  0  0  0  0  0
   -0.1442    5.0692   -1.1879 C   0  0  0  0  0  0  0  0  0  0  0  0
    1.2015    5.6851   -0.8686 C   0  0  0  0  0  0  0  0  0  0  0  0
   -1.7788    5.1057    3.5532 C   0  0  0  0  0  0  0  0  0  0  0  0
   -0.1581    8.6946   -1.7043 C   0  0  0  0  0  0  0  0  0  0  0  0
    1.2560    7.0121   -0.5439 N   0  0  0  0  0  0  0  0  0  0  0  0
    0.8005    3.0056   -2.6924 O   0  0  0  0  0  0  0  0  0  0  0  0
    0.1961    7.9928   -0.4158 C   0  0  0  0  0  0  0  0  0  0  0  0
   -1.4355    9.2627   -1.8431 C   0  0  0  0  0  0  0  0  0  0  0  0
    2.2683    5.0752   -0.8837 O   0  0  0  0  0  0  0  0  0  0  0  0
   -1.1191    6.3433    3.6212 C   0  0  0  0  0  0  0  0  0  0  0  0
   -2.9396    4.9215    4.3228 C   0  0  0  0  0  0  0  0  0  0  0  0
   -2.7684    7.1755    5.1797 C   0  0  0  0  0  0  0  0  0  0  0  0
   -1.6116    7.3725    4.4283 C   0  0  0  0  0  0  0  0  0  0  0  0
   -3.4296    5.9500    5.1299 C   0  0  0  0  0  0  0  0  0  0  0  0
   -2.0295    0.8989    1.2349 C   0  0  0  0  0  0  0  0  0  0  0  0
    0.7598    8.8585   -2.7526 C   0  0  0  0  0  0  0  0  0  0  0  0
   -1.8076    9.9103   -3.0240 C   0  0  0  0  0  0  0  0  0  0  0  0
    0.3868    9.5068   -3.9334 C   0  0  0  0  0  0  0  0  0  0  0  0
   -0.9006   10.0186   -4.0747 C   0  0  0  0  0  0  0  0  0  0  0  0
    1.5739    3.0496    0.1695 H   0  0  0  0  0  0  0  0  0  0  0  0
    0.6922    1.5642   -0.1410 H   0  0  0  0  0  0  0  0  0  0  0  0
   -0.5497    5.5604   -2.0776 H   0  0  0  0  0  0  0  0  0  0  0  0
   -0.8467    5.2418   -0.3680 H   0  0  0  0  0  0  0  0  0  0  0  0
    2.2078    7.3279   -0.3900 H   0  0  0  0  0  0  0  0  0  0  0  0
   -0.6867    7.4966   -0.0008 H   0  0  0  0  0  0  0  0  0  0  0  0
    0.5430    8.7392    0.3061 H   0  0  0  0  0  0  0  0  0  0  0  0
   -2.1569    9.2022   -1.0306 H   0  0  0  0  0  0  0  0  0  0  0  0
   -0.2160    6.5112    3.0366 H   0  0  0  0  0  0  0  0  0  0  0  0
   -3.4741    3.9759    4.2929 H   0  0  0  0  0  0  0  0  0  0  0  0
   -3.1556    7.9760    5.8047 H   0  0  0  0  0  0  0  0  0  0  0  0
   -1.0938    8.3276    4.4691 H   0  0  0  0  0  0  0  0  0  0  0  0
   -4.3323    5.7935    5.7150 H   0  0  0  0  0  0  0  0  0  0  0  0
   -2.0667    0.2339    2.1025 H   0  0  0  0  0  0  0  0  0  0  0  0
   -3.0523    1.0591    0.8791 H   0  0  0  0  0  0  0  0  0  0  0  0
   -1.4721    0.3930    0.4412 H   0  0  0  0  0  0  0  0  0  0  0  0
    1.7744    8.4751   -2.6698 H   0  0  0  0  0  0  0  0  0  0  0  0
   -2.8065   10.3270   -3.1255 H   0  0  0  0  0  0  0  0  0  0  0  0
    1.1023    9.6063   -4.7461 H   0  0  0  0  0  0  0  0  0  0  0  0
   -1.1941   10.5057   -5.0011 H   0  0  0  0  0  0  0  0  0  0  0  0
  2  1  1  0  0  0  0
  3  1  2  0  0  0  0
  4  3  1  0  0  0  0
  4  5  1  0  0  0  0
  5  2  2  0  0  0  0
  6  7  1  0  0  0  0
  7  2  1  0  0  0  0
  7 27  1  0  0  0  0
  7 28  1  0  0  0  0
  8  6  1  0  0  0  0
  8 29  1  0  0  0  0
  8 30  1  0  0  0  0
  9  8  1  0  0  0  0
 10  3  1  0  0  0  0
 11 14  1  0  0  0  0
 12  9  1  0  0  0  0
 12 31  1  0  0  0  0
 13  6  2  0  0  0  0
 14 12  1  0  0  0  0
 14 32  1  0  0  0  0
 14 33  1  0  0  0  0
 15 11  2  0  0  0  0
 15 34  1  0  0  0  0
 16  9  2  0  0  0  0
 17 10  2  0  0  0  0
 17 35  1  0  0  0  0
 18 10  1  0  0  0  0
 18 36  1  0  0  0  0
 19 21  1  0  0  0  0
 19 37  1  0  0  0  0
 20 17  1  0  0  0  0
 20 19  2  0  0  0  0
 20 38  1  0  0  0  0
 21 18  2  0  0  0  0
 21 39  1  0  0  0  0
 22  5  1  0  0  0  0
 22 40  1  0  0  0  0
 22 41  1  0  0  0  0
 22 42  1  0  0  0  0
 23 11  1  0  0  0  0
 23 43  1  0  0  0  0
 24 15  1  0  0  0  0
 24 26  2  0  0  0  0
 24 44  1  0  0  0  0
 25 23  2  0  0  0  0
 25 45  1  0  0  0  0
 26 25  1  0  0  0  0
 26 46  1  0  0  0  0
M  END
>  <Mol_ID>
9200

>  <Formula>
C20H18Cl2N2O3S

>  <MolWeight>
437.33952

>  <Cat>
P2701

>  <Name>
WAY-332056

>  <Synonyms>
N/A

>  <Target>
beta-catenin

>  <Form>
free base

>  <CAS>
1015858-71-5

>  <URL>
N/A

$$$$
