WAY-323096
 OpenBabel08302521353D

 44 47  0  0  0  0  0  0  0  0999 V2000
    1.0959   -0.1530    0.0853 C   0  0  0  0  0  0  0  0  0  0  0  0
    2.5109    0.3904   -0.0995 C   0  0  0  0  0  0  0  0  0  0  0  0
    3.4630   -0.1744    0.7321 N   0  0  0  0  0  0  0  0  0  0  0  0
    2.7519    1.1222   -1.0625 O   0  0  0  0  0  0  0  0  0  0  0  0
    0.0494    1.6568    1.9152 O   0  0  0  0  0  0  0  0  0  0  0  0
    8.9426    0.3999    0.1428 F   0  0  0  0  0  0  0  0  0  0  0  0
    0.4506   -2.2112    2.9825 C   0  0  0  0  0  0  0  0  0  0  0  0
   -0.1026   -1.2592    3.9891 C   0  0  0  0  0  0  0  0  0  0  0  0
    0.8865   -1.8119    1.8214 N   0  0  0  0  0  0  0  0  0  0  0  0
   -0.2825    0.0598    3.5850 C   0  0  0  0  0  0  0  0  0  0  0  0
   -0.4382   -1.6042    5.3061 C   0  0  0  0  0  0  0  0  0  0  0  0
    0.7668   -0.4929    1.4639 N   0  0  0  0  0  0  0  0  0  0  0  0
    0.1839    0.4858    2.2582 C   0  0  0  0  0  0  0  0  0  0  0  0
   -0.8868    0.9971    4.4375 C   0  0  0  0  0  0  0  0  0  0  0  0
   -1.0660   -0.6814    6.1489 C   0  0  0  0  0  0  0  0  0  0  0  0
   -1.3039    0.6163    5.7097 C   0  0  0  0  0  0  0  0  0  0  0  0
    0.5110   -3.6889    3.2430 C   0  0  0  0  0  0  0  0  0  0  0  0
   -0.5036   -4.3694    3.9289 C   0  0  0  0  0  0  0  0  0  0  0  0
    1.5898   -4.4220    2.7302 C   0  0  0  0  0  0  0  0  0  0  0  0
   -0.3770   -5.7309    4.2133 C   0  0  0  0  0  0  0  0  0  0  0  0
    1.6931   -5.7935    2.9776 C   0  0  0  0  0  0  0  0  0  0  0  0
    0.7250   -6.4405    3.7435 C   0  0  0  0  0  0  0  0  0  0  0  0
    4.8534    0.0518    0.6485 C   0  0  0  0  0  0  0  0  0  0  0  0
    5.4014    1.1491   -0.0274 C   0  0  0  0  0  0  0  0  0  0  0  0
    5.7194   -0.8809    1.2365 C   0  0  0  0  0  0  0  0  0  0  0  0
    6.7827    1.2753   -0.1910 C   0  0  0  0  0  0  0  0  0  0  0  0
    7.1042   -0.7583    1.0663 C   0  0  0  0  0  0  0  0  0  0  0  0
    7.6196    0.3086    0.3397 C   0  0  0  0  0  0  0  0  0  0  0  0
    0.9868   -1.0453   -0.5414 H   0  0  0  0  0  0  0  0  0  0  0  0
    0.3942    0.6071   -0.2770 H   0  0  0  0  0  0  0  0  0  0  0  0
    3.1269   -0.9252    1.3319 H   0  0  0  0  0  0  0  0  0  0  0  0
   -0.2269   -2.5866    5.7157 H   0  0  0  0  0  0  0  0  0  0  0  0
   -1.0346    2.0242    4.1078 H   0  0  0  0  0  0  0  0  0  0  0  0
   -1.3677   -0.9793    7.1509 H   0  0  0  0  0  0  0  0  0  0  0  0
   -1.7929    1.3358    6.3620 H   0  0  0  0  0  0  0  0  0  0  0  0
   -1.4077   -3.8604    4.2514 H   0  0  0  0  0  0  0  0  0  0  0  0
    2.3541   -3.9342    2.1302 H   0  0  0  0  0  0  0  0  0  0  0  0
   -1.1442   -6.2387    4.7933 H   0  0  0  0  0  0  0  0  0  0  0  0
    2.5304   -6.3573    2.5733 H   0  0  0  0  0  0  0  0  0  0  0  0
    0.8185   -7.5026    3.9568 H   0  0  0  0  0  0  0  0  0  0  0  0
    4.7715    1.9316   -0.4397 H   0  0  0  0  0  0  0  0  0  0  0  0
    5.3326   -1.7307    1.7905 H   0  0  0  0  0  0  0  0  0  0  0  0
    7.1959    2.1135   -0.7417 H   0  0  0  0  0  0  0  0  0  0  0  0
    7.7834   -1.4978    1.4783 H   0  0  0  0  0  0  0  0  0  0  0  0
  1  2  1  0  0  0  0
  1 12  1  0  0  0  0
  1 29  1  0  0  0  0
  1 30  1  0  0  0  0
  2  3  1  0  0  0  0
  2  4  2  0  0  0  0
  3 23  1  0  0  0  0
  3 31  1  0  0  0  0
  5 13  2  0  0  0  0
  6 28  1  0  0  0  0
  7  8  1  0  0  0  0
  7  9  2  0  0  0  0
  7 17  1  0  0  0  0
  8 10  2  0  0  0  0
  8 11  1  0  0  0  0
  9 12  1  0  0  0  0
 10 13  1  0  0  0  0
 10 14  1  0  0  0  0
 11 15  2  0  0  0  0
 11 32  1  0  0  0  0
 12 13  1  0  0  0  0
 14 16  2  0  0  0  0
 14 33  1  0  0  0  0
 15 16  1  0  0  0  0
 15 34  1  0  0  0  0
 16 35  1  0  0  0  0
 17 18  2  0  0  0  0
 17 19  1  0  0  0  0
 18 20  1  0  0  0  0
 18 36  1  0  0  0  0
 19 21  2  0  0  0  0
 19 37  1  0  0  0  0
 20 22  2  0  0  0  0
 20 38  1  0  0  0  0
 21 22  1  0  0  0  0
 21 39  1  0  0  0  0
 22 40  1  0  0  0  0
 23 24  2  0  0  0  0
 23 25  1  0  0  0  0
 24 26  1  0  0  0  0
 24 41  1  0  0  0  0
 25 27  2  0  0  0  0
 25 42  1  0  0  0  0
 26 28  2  0  0  0  0
 26 43  1  0  0  0  0
 27 28  1  0  0  0  0
 27 44  1  0  0  0  0
M  END
>  <Mol_ID>
6923

>  <Formula>
C22H15ClFN3O2

>  <MolWeight>
407.8248032

>  <Cat>
E2806

>  <Name>
WAY-323096

>  <Target>
Others

>  <Form>
Free base

>  <CAS>
684234-60-4

>  <URL>
https://www.selleckchem.com/products/way-323096.html

$$$$
