WAY-620645
 OpenBabel08302521343D

 50 53  0  0  0  0  0  0  0  0999 V2000
    1.3255    0.2690    1.5760 O   0  0  0  0  0  0  0  0  0  0  0  0
    4.4576   -3.3678    0.0794 O   0  0  0  0  0  0  0  0  0  0  0  0
    4.4528    1.1600    0.3751 N   0  0  0  0  0  0  0  0  0  0  0  0
    3.2239    1.5631    0.9408 N   0  0  0  0  0  0  0  0  0  0  0  0
    2.8342   -2.0183    1.0121 N   0  0  0  0  0  0  0  0  0  0  0  0
    0.7605   -3.7587   -3.2033 N   0  0  0  0  0  0  0  0  0  0  0  0
    4.5515   -0.2314    0.5312 C   0  0  0  0  0  0  0  0  0  0  0  0
    0.9076   -4.2573    0.4347 C   0  0  0  0  0  0  0  0  0  0  0  0
    3.3669   -0.7607    0.8867 C   0  0  0  0  0  0  0  0  0  0  0  0
    0.6133   -3.8625   -0.9794 C   0  0  0  0  0  0  0  0  0  0  0  0
    2.4087   -4.4217    0.7367 C   0  0  0  0  0  0  0  0  0  0  0  0
   -0.1036   -2.7094   -1.4408 C   0  0  0  0  0  0  0  0  0  0  0  0
    2.4748    0.4079    1.1992 C   0  0  0  0  0  0  0  0  0  0  0  0
    0.2036   -2.5731   -2.7951 C   0  0  0  0  0  0  0  0  0  0  0  0
    3.3298   -3.2110    0.5449 C   0  0  0  0  0  0  0  0  0  0  0  0
    2.5826    2.7626    0.5718 C   0  0  0  0  0  0  0  0  0  0  0  0
    1.0607   -4.5226   -2.1094 C   0  0  0  0  0  0  0  0  0  0  0  0
    5.8675   -0.9297    0.3893 C   0  0  0  0  0  0  0  0  0  0  0  0
    5.5762    2.0879    0.4157 C   0  0  0  0  0  0  0  0  0  0  0  0
   -0.8967   -1.7111   -0.8385 C   0  0  0  0  0  0  0  0  0  0  0  0
    0.0126   -1.3826   -3.4961 C   0  0  0  0  0  0  0  0  0  0  0  0
    1.7041    3.3728    1.4731 C   0  0  0  0  0  0  0  0  0  0  0  0
    2.8274    3.3758   -0.6606 C   0  0  0  0  0  0  0  0  0  0  0  0
   -1.1237   -0.5225   -1.5393 C   0  0  0  0  0  0  0  0  0  0  0  0
   -0.5240   -0.3160   -2.7772 C   0  0  0  0  0  0  0  0  0  0  0  0
    1.1173    4.6032    1.1663 C   0  0  0  0  0  0  0  0  0  0  0  0
    2.2244    4.5945   -0.9707 C   0  0  0  0  0  0  0  0  0  0  0  0
    1.3775    5.2142   -0.0581 C   0  0  0  0  0  0  0  0  0  0  0  0
    1.8568   -1.9881    1.2848 H   0  0  0  0  0  0  0  0  0  0  0  0
    1.0269   -3.9673   -4.1555 H   0  0  0  0  0  0  0  0  0  0  0  0
    0.4107   -5.2171    0.6235 H   0  0  0  0  0  0  0  0  0  0  0  0
    0.4626   -3.5424    1.1352 H   0  0  0  0  0  0  0  0  0  0  0  0
    2.8085   -5.2160    0.0920 H   0  0  0  0  0  0  0  0  0  0  0  0
    2.5334   -4.7731    1.7687 H   0  0  0  0  0  0  0  0  0  0  0  0
    1.6207   -5.4389   -2.2248 H   0  0  0  0  0  0  0  0  0  0  0  0
    5.9648   -1.7420    1.1174 H   0  0  0  0  0  0  0  0  0  0  0  0
    6.0052   -1.3163   -0.6222 H   0  0  0  0  0  0  0  0  0  0  0  0
    6.7069   -0.2593    0.6063 H   0  0  0  0  0  0  0  0  0  0  0  0
    6.2046    1.9283    1.2969 H   0  0  0  0  0  0  0  0  0  0  0  0
    6.1844    1.9481   -0.4850 H   0  0  0  0  0  0  0  0  0  0  0  0
    5.2650    3.1373    0.4241 H   0  0  0  0  0  0  0  0  0  0  0  0
   -1.2731   -1.8167    0.1745 H   0  0  0  0  0  0  0  0  0  0  0  0
    0.3573   -1.2606   -4.5165 H   0  0  0  0  0  0  0  0  0  0  0  0
    1.4960    2.9120    2.4355 H   0  0  0  0  0  0  0  0  0  0  0  0
    3.4736    2.8976   -1.3914 H   0  0  0  0  0  0  0  0  0  0  0  0
   -1.7144    0.2707   -1.0880 H   0  0  0  0  0  0  0  0  0  0  0  0
   -0.4553    0.6906   -3.1797 H   0  0  0  0  0  0  0  0  0  0  0  0
    0.4585    5.0829    1.8853 H   0  0  0  0  0  0  0  0  0  0  0  0
    2.3962    5.0564   -1.9356 H   0  0  0  0  0  0  0  0  0  0  0  0
    0.9214    6.1711   -0.3011 H   0  0  0  0  0  0  0  0  0  0  0  0
  1 13  2  0  0  0  0
  2 15  2  0  0  0  0
  3  4  1  0  0  0  0
  3  7  1  0  0  0  0
  3 19  1  0  0  0  0
  4 13  1  0  0  0  0
  4 16  1  0  0  0  0
  5  9  1  0  0  0  0
  5 15  1  0  0  0  0
  5 29  1  0  0  0  0
  6 14  1  0  0  0  0
  6 17  1  0  0  0  0
  6 30  1  0  0  0  0
  7  9  2  0  0  0  0
  7 18  1  0  0  0  0
  8 10  1  0  0  0  0
  8 11  1  0  0  0  0
  8 31  1  0  0  0  0
  8 32  1  0  0  0  0
  9 13  1  0  0  0  0
 10 12  1  0  0  0  0
 10 17  2  0  0  0  0
 11 15  1  0  0  0  0
 11 33  1  0  0  0  0
 11 34  1  0  0  0  0
 12 14  2  0  0  0  0
 12 20  1  0  0  0  0
 14 21  1  0  0  0  0
 16 22  2  0  0  0  0
 16 23  1  0  0  0  0
 17 35  1  0  0  0  0
 18 36  1  0  0  0  0
 18 37  1  0  0  0  0
 18 38  1  0  0  0  0
 19 39  1  0  0  0  0
 19 40  1  0  0  0  0
 19 41  1  0  0  0  0
 20 24  2  0  0  0  0
 20 42  1  0  0  0  0
 21 25  2  0  0  0  0
 21 43  1  0  0  0  0
 22 26  1  0  0  0  0
 22 44  1  0  0  0  0
 23 27  2  0  0  0  0
 23 45  1  0  0  0  0
 24 25  1  0  0  0  0
 24 46  1  0  0  0  0
 25 47  1  0  0  0  0
 26 28  2  0  0  0  0
 26 48  1  0  0  0  0
 27 28  1  0  0  0  0
 27 49  1  0  0  0  0
 28 50  1  0  0  0  0
M  END
>  <Mol_ID>
6429

>  <Formula>
C22H22N4O2

>  <MolWeight>
374.43568

>  <Cat>
E2135

>  <Name>
WAY-620645

>  <Target>
Others

>  <Form>
free base

>  <CAS>
742116-45-6

>  <URL>
http://www.selleckchem.com/products/way-620645.html

$$$$
