WAY-328133
 OpenBabel08302521353D

 38 40  0  0  0  0  0  0  0  0999 V2000
    0.9790    0.1660   -0.0233 C   0  0  0  0  0  0  0  0  0  0  0  0
    0.3777   -1.0477    0.2362 N   0  0  0  0  0  0  0  0  0  0  0  0
    0.3319    1.1820   -0.2692 O   0  0  0  0  0  0  0  0  0  0  0  0
   -1.0696   -1.1833    0.2139 C   0  0  0  0  0  0  0  0  0  0  0  0
   -1.5274   -2.6030    0.5304 C   0  0  0  0  0  0  0  0  0  0  0  0
    9.4775    3.3563   -1.0957 F   0  0  0  0  0  0  0  0  0  0  0  0
    4.5508    0.8533   -0.1529 C   0  0  0  0  0  0  0  0  0  0  0  0
    3.2592    1.3055   -0.2428 C   0  0  0  0  0  0  0  0  0  0  0  0
    4.5186   -0.4779    0.1588 O   0  0  0  0  0  0  0  0  0  0  0  0
    2.4427    0.1767    0.0044 C   0  0  0  0  0  0  0  0  0  0  0  0
    3.1978   -0.9082    0.2583 N   0  0  0  0  0  0  0  0  0  0  0  0
    5.8559    1.4855   -0.3421 C   0  0  0  0  0  0  0  0  0  0  0  0
    5.9220    2.8701   -0.5878 C   0  0  0  0  0  0  0  0  0  0  0  0
    7.0541    0.7547   -0.3282 C   0  0  0  0  0  0  0  0  0  0  0  0
    7.1421    3.5038   -0.8370 C   0  0  0  0  0  0  0  0  0  0  0  0
    8.2788    1.3902   -0.5771 C   0  0  0  0  0  0  0  0  0  0  0  0
    8.3092    2.7550   -0.8365 C   0  0  0  0  0  0  0  0  0  0  0  0
   -3.0276   -2.7742    0.5208 C   0  0  0  0  0  0  0  0  0  0  0  0
   -3.6918   -3.1681   -0.6493 C   0  0  0  0  0  0  0  0  0  0  0  0
   -3.7769   -2.5789    1.6897 C   0  0  0  0  0  0  0  0  0  0  0  0
   -5.0665   -3.4152   -0.6361 C   0  0  0  0  0  0  0  0  0  0  0  0
   -5.1521   -2.8236    1.6999 C   0  0  0  0  0  0  0  0  0  0  0  0
   -5.7946   -3.2551    0.5410 C   0  0  0  0  0  0  0  0  0  0  0  0
    0.9844   -1.8414    0.4183 H   0  0  0  0  0  0  0  0  0  0  0  0
   -1.4820   -0.4688    0.9365 H   0  0  0  0  0  0  0  0  0  0  0  0
   -1.4193   -0.8717   -0.7798 H   0  0  0  0  0  0  0  0  0  0  0  0
   -1.0819   -3.3032   -0.1877 H   0  0  0  0  0  0  0  0  0  0  0  0
   -1.1382   -2.9081    1.5103 H   0  0  0  0  0  0  0  0  0  0  0  0
    2.9223    2.3018   -0.4836 H   0  0  0  0  0  0  0  0  0  0  0  0
    5.0204    3.4785   -0.5981 H   0  0  0  0  0  0  0  0  0  0  0  0
    7.0532   -0.3151   -0.1363 H   0  0  0  0  0  0  0  0  0  0  0  0
    7.1826    4.5685   -1.0389 H   0  0  0  0  0  0  0  0  0  0  0  0
    9.2063    0.8259   -0.5804 H   0  0  0  0  0  0  0  0  0  0  0  0
   -3.1400   -3.3075   -1.5762 H   0  0  0  0  0  0  0  0  0  0  0  0
   -3.2921   -2.2556    2.6082 H   0  0  0  0  0  0  0  0  0  0  0  0
   -5.5682   -3.7460   -1.5422 H   0  0  0  0  0  0  0  0  0  0  0  0
   -5.7217   -2.6908    2.6165 H   0  0  0  0  0  0  0  0  0  0  0  0
   -6.8604   -3.4679    0.5556 H   0  0  0  0  0  0  0  0  0  0  0  0
  1  2  1  0  0  0  0
  1  3  2  0  0  0  0
  1 10  1  0  0  0  0
  2  4  1  0  0  0  0
  2 24  1  0  0  0  0
  4  5  1  0  0  0  0
  4 25  1  0  0  0  0
  4 26  1  0  0  0  0
  5 18  1  0  0  0  0
  5 27  1  0  0  0  0
  5 28  1  0  0  0  0
  6 17  1  0  0  0  0
  7  8  2  0  0  0  0
  7  9  1  0  0  0  0
  7 12  1  0  0  0  0
  8 10  1  0  0  0  0
  8 29  1  0  0  0  0
  9 11  1  0  0  0  0
 10 11  2  0  0  0  0
 12 13  2  0  0  0  0
 12 14  1  0  0  0  0
 13 15  1  0  0  0  0
 13 30  1  0  0  0  0
 14 16  2  0  0  0  0
 14 31  1  0  0  0  0
 15 17  2  0  0  0  0
 15 32  1  0  0  0  0
 16 17  1  0  0  0  0
 16 33  1  0  0  0  0
 18 19  2  0  0  0  0
 18 20  1  0  0  0  0
 19 21  1  0  0  0  0
 19 34  1  0  0  0  0
 20 22  2  0  0  0  0
 20 35  1  0  0  0  0
 21 23  2  0  0  0  0
 21 36  1  0  0  0  0
 22 23  1  0  0  0  0
 22 37  1  0  0  0  0
 23 38  1  0  0  0  0
M  END
>  <Mol_ID>
6927

>  <Formula>
C18H15FN2O2

>  <MolWeight>
310.3223032

>  <Cat>
E2811

>  <Name>
WAY-328133

>  <Target>
Others

>  <Form>
Free base

>  <CAS>
912790-04-6

>  <URL>
https://www.selleckchem.com/products/way-328133.html

$$$$
