WAY-330324
 OpenBabel08302521443D

 50 54  0  0  0  0  0  0  0  0999 V2000
   -3.5281   -0.0168    0.0062 C   0  0  0  0  0  0  0  0  0  0  0  0
   -1.4843   -0.3966    0.7283 C   0  0  0  0  0  0  0  0  0  0  0  0
   -2.7856   -0.7329    0.9077 O   0  0  0  0  0  0  0  0  0  0  0  0
   -4.9495   -0.2935   -0.1333 C   0  0  0  0  0  0  0  0  0  0  0  0
   -0.4849   -1.0214    1.3667 N   0  0  0  0  0  0  0  0  0  0  0  0
   -2.7112    0.9002   -0.6284 C   0  0  0  0  0  0  0  0  0  0  0  0
   -1.3846    0.6258   -0.2050 C   0  0  0  0  0  0  0  0  0  0  0  0
   -5.3650   -1.6249   -0.0053 N   0  0  0  0  0  0  0  0  0  0  0  0
   -6.2914   -4.2060    0.8373 N   0  0  0  0  0  0  0  0  0  0  0  0
    0.7354   -0.5706    1.0601 C   0  0  0  0  0  0  0  0  0  0  0  0
    0.9893    0.4841    0.1521 C   0  0  0  0  0  0  0  0  0  0  0  0
   -6.7122   -5.4723    0.4633 C   0  0  0  0  0  0  0  0  0  0  0  0
   -0.0970    1.0950   -0.5019 C   0  0  0  0  0  0  0  0  0  0  0  0
   -6.7855   -1.9593   -0.1404 C   0  0  0  0  0  0  0  0  0  0  0  0
   -4.4867   -2.8064   -0.1004 C   0  0  0  0  0  0  0  0  0  0  0  0
   -5.7514    0.6022   -0.3891 O   0  0  0  0  0  0  0  0  0  0  0  0
   -4.8659   -3.8586    0.9484 C   0  0  0  0  0  0  0  0  0  0  0  0
   -7.2251   -3.0612    0.8521 C   0  0  0  0  0  0  0  0  0  0  0  0
    2.3116    0.9048   -0.0792 C   0  0  0  0  0  0  0  0  0  0  0  0
   -5.9557   -6.3485   -0.3405 C   0  0  0  0  0  0  0  0  0  0  0  0
    1.8208   -1.1751    1.6757 C   0  0  0  0  0  0  0  0  0  0  0  0
    3.3865    0.2981    0.5752 C   0  0  0  0  0  0  0  0  0  0  0  0
   -4.7751   -5.9623   -0.8524 F   0  0  0  0  0  0  0  0  0  0  0  0
    3.1363   -0.7539    1.4480 C   0  0  0  0  0  0  0  0  0  0  0  0
    4.6129    0.8234    0.2799 O   0  0  0  0  0  0  0  0  0  0  0  0
   -7.9503   -5.9635    0.9137 C   0  0  0  0  0  0  0  0  0  0  0  0
   -6.4078   -7.6244   -0.6873 C   0  0  0  0  0  0  0  0  0  0  0  0
    5.7329    0.2606    0.9539 C   0  0  0  0  0  0  0  0  0  0  0  0
   -8.4157   -7.2390    0.5686 C   0  0  0  0  0  0  0  0  0  0  0  0
   -7.6443   -8.0692   -0.2360 C   0  0  0  0  0  0  0  0  0  0  0  0
   -3.0371    1.6222   -1.3667 H   0  0  0  0  0  0  0  0  0  0  0  0
    0.0494    1.8937   -1.2221 H   0  0  0  0  0  0  0  0  0  0  0  0
   -7.4175   -1.0748   -0.0122 H   0  0  0  0  0  0  0  0  0  0  0  0
   -6.9262   -2.3155   -1.1701 H   0  0  0  0  0  0  0  0  0  0  0  0
   -4.6154   -3.2061   -1.1116 H   0  0  0  0  0  0  0  0  0  0  0  0
   -3.4282   -2.5755   -0.0099 H   0  0  0  0  0  0  0  0  0  0  0  0
   -4.6983   -3.4452    1.9505 H   0  0  0  0  0  0  0  0  0  0  0  0
   -4.2007   -4.7240    0.8742 H   0  0  0  0  0  0  0  0  0  0  0  0
   -7.2434   -2.6488    1.8680 H   0  0  0  0  0  0  0  0  0  0  0  0
   -8.2514   -3.3519    0.6000 H   0  0  0  0  0  0  0  0  0  0  0  0
    2.5136    1.7217   -0.7684 H   0  0  0  0  0  0  0  0  0  0  0  0
    1.6406   -1.9991    2.3640 H   0  0  0  0  0  0  0  0  0  0  0  0
    3.9330   -1.2689    1.9751 H   0  0  0  0  0  0  0  0  0  0  0  0
   -8.5632   -5.3613    1.5801 H   0  0  0  0  0  0  0  0  0  0  0  0
   -5.7860   -8.2551   -1.3147 H   0  0  0  0  0  0  0  0  0  0  0  0
    5.6389    0.3651    2.0404 H   0  0  0  0  0  0  0  0  0  0  0  0
    5.8749   -0.7870    0.6687 H   0  0  0  0  0  0  0  0  0  0  0  0
    6.6240    0.8150    0.6441 H   0  0  0  0  0  0  0  0  0  0  0  0
   -9.3780   -7.5799    0.9412 H   0  0  0  0  0  0  0  0  0  0  0  0
   -8.0029   -9.0586   -0.5066 H   0  0  0  0  0  0  0  0  0  0  0  0
  2  3  1  0  0  0  0
  2  7  2  0  0  0  0
  3  1  1  0  0  0  0
  4  1  1  0  0  0  0
  5  2  1  0  0  0  0
  6  1  2  0  0  0  0
  6 31  1  0  0  0  0
  7  6  1  0  0  0  0
  8  4  1  0  0  0  0
  9 17  1  0  0  0  0
  9 18  1  0  0  0  0
 10  5  2  0  0  0  0
 10 11  1  0  0  0  0
 11 13  2  0  0  0  0
 12  9  1  0  0  0  0
 13  7  1  0  0  0  0
 13 32  1  0  0  0  0
 14  8  1  0  0  0  0
 14 33  1  0  0  0  0
 14 34  1  0  0  0  0
 15  8  1  0  0  0  0
 15 35  1  0  0  0  0
 15 36  1  0  0  0  0
 16  4  2  0  0  0  0
 17 15  1  0  0  0  0
 17 37  1  0  0  0  0
 17 38  1  0  0  0  0
 18 14  1  0  0  0  0
 18 39  1  0  0  0  0
 18 40  1  0  0  0  0
 19 11  1  0  0  0  0
 19 41  1  0  0  0  0
 20 12  2  0  0  0  0
 21 10  1  0  0  0  0
 21 42  1  0  0  0  0
 22 19  2  0  0  0  0
 23 20  1  0  0  0  0
 24 21  2  0  0  0  0
 24 22  1  0  0  0  0
 24 43  1  0  0  0  0
 25 22  1  0  0  0  0
 26 12  1  0  0  0  0
 26 44  1  0  0  0  0
 27 20  1  0  0  0  0
 27 45  1  0  0  0  0
 28 25  1  0  0  0  0
 28 46  1  0  0  0  0
 28 47  1  0  0  0  0
 28 48  1  0  0  0  0
 29 26  2  0  0  0  0
 29 49  1  0  0  0  0
 30 29  1  0  0  0  0
 30 27  2  0  0  0  0
 30 50  1  0  0  0  0
M  END
>  <Mol_ID>
9180

>  <Formula>
C23H20FN3O3

>  <MolWeight>
405.4216032

>  <Cat>
P2605

>  <Name>
WAY-330324

>  <Synonyms>
N/A

>  <Target>
Anti-infection

>  <Form>
free base

>  <CAS>
901031-81-0

>  <URL>
N/A

$$$$
