WAY-605925
 OpenBabel08302521433D

 41 43  0  0  0  0  0  0  0  0999 V2000
    0.2416   -1.1668   -0.0207 C   0  0  0  0  0  0  0  0  0  0  0  0
    1.3373   -0.5611   -0.3890 N   0  0  0  0  0  0  0  0  0  0  0  0
    1.2285    0.8106   -0.2577 C   0  0  0  0  0  0  0  0  0  0  0  0
    0.0078   -2.5210    0.0097 N   0  0  0  0  0  0  0  0  0  0  0  0
   -1.0337   -0.1233    0.4692 S   0  0  0  0  0  0  0  0  0  0  0  0
   -0.0042    1.2446    0.1997 C   0  0  0  0  0  0  0  0  0  0  0  0
    1.0748   -3.4089   -0.0215 C   0  0  0  0  0  0  0  0  0  0  0  0
   -0.1533   -5.4271   -1.0200 N   0  0  0  0  0  0  0  0  0  0  0  0
    2.3539    1.6842   -0.5888 C   0  0  0  0  0  0  0  0  0  0  0  0
    0.7175   -4.9285    0.0793 C   0  0  0  0  0  0  0  0  0  0  0  0
    2.2338   -3.0736   -0.0706 O   0  0  0  0  0  0  0  0  0  0  0  0
    1.6418   -7.3841   -2.2420 O   0  0  0  0  0  0  0  0  0  0  0  0
    2.1519    2.9915   -1.0453 C   0  0  0  0  0  0  0  0  0  0  0  0
    3.6699    1.2122   -0.4620 C   0  0  0  0  0  0  0  0  0  0  0  0
    3.2384    3.8119   -1.3649 C   0  0  0  0  0  0  0  0  0  0  0  0
    4.7572    2.0355   -0.7788 C   0  0  0  0  0  0  0  0  0  0  0  0
    4.5495    3.3419   -1.2324 C   0  0  0  0  0  0  0  0  0  0  0  0
    0.5111   -5.2142   -2.3265 C   0  0  0  0  0  0  0  0  0  0  0  0
   -0.3205   -6.9051   -0.8469 C   0  0  0  0  0  0  0  0  0  0  0  0
    1.0102   -7.6709   -0.9858 C   0  0  0  0  0  0  0  0  0  0  0  0
    1.8445   -5.9722   -2.4163 C   0  0  0  0  0  0  0  0  0  0  0  0
    5.7124    4.2324   -1.5591 C   0  0  0  0  0  0  0  0  0  0  0  0
   -0.9253   -2.8951   -0.0053 H   0  0  0  0  0  0  0  0  0  0  0  0
   -0.3292    2.2647    0.3712 H   0  0  0  0  0  0  0  0  0  0  0  0
    1.6865   -5.4462    0.1682 H   0  0  0  0  0  0  0  0  0  0  0  0
    0.2086   -5.2076    1.0043 H   0  0  0  0  0  0  0  0  0  0  0  0
    1.1466    3.3854   -1.1531 H   0  0  0  0  0  0  0  0  0  0  0  0
    3.8592    0.1993   -0.1049 H   0  0  0  0  0  0  0  0  0  0  0  0
    3.0522    4.8252   -1.7111 H   0  0  0  0  0  0  0  0  0  0  0  0
    5.7676    1.6473   -0.6712 H   0  0  0  0  0  0  0  0  0  0  0  0
   -0.1710   -5.5526   -3.1186 H   0  0  0  0  0  0  0  0  0  0  0  0
    0.6547   -4.1432   -2.5022 H   0  0  0  0  0  0  0  0  0  0  0  0
   -1.0300   -7.2698   -1.6031 H   0  0  0  0  0  0  0  0  0  0  0  0
   -0.7799   -7.1259    0.1267 H   0  0  0  0  0  0  0  0  0  0  0  0
    1.7013   -7.4262   -0.1716 H   0  0  0  0  0  0  0  0  0  0  0  0
    0.8376   -8.7489   -0.9190 H   0  0  0  0  0  0  0  0  0  0  0  0
    2.3025   -5.7966   -3.3914 H   0  0  0  0  0  0  0  0  0  0  0  0
    2.5674   -5.6213   -1.6715 H   0  0  0  0  0  0  0  0  0  0  0  0
    5.6643    4.5597   -2.6026 H   0  0  0  0  0  0  0  0  0  0  0  0
    5.7124    5.1103   -0.9049 H   0  0  0  0  0  0  0  0  0  0  0  0
    6.6655    3.7115   -1.4170 H   0  0  0  0  0  0  0  0  0  0  0  0
  2  1  2  0  0  0  0
  3  2  1  0  0  0  0
  4  1  1  0  0  0  0
  4 23  1  0  0  0  0
  5  1  1  0  0  0  0
  6  5  1  0  0  0  0
  6  3  2  0  0  0  0
  6 24  1  0  0  0  0
  7  4  1  0  0  0  0
  8 10  1  0  0  0  0
  9  3  1  0  0  0  0
 10  7  1  0  0  0  0
 10 25  1  0  0  0  0
 10 26  1  0  0  0  0
 11  7  2  0  0  0  0
 12 20  1  0  0  0  0
 12 21  1  0  0  0  0
 13  9  2  0  0  0  0
 13 27  1  0  0  0  0
 14  9  1  0  0  0  0
 14 28  1  0  0  0  0
 15 13  1  0  0  0  0
 15 29  1  0  0  0  0
 16 14  2  0  0  0  0
 16 30  1  0  0  0  0
 17 16  1  0  0  0  0
 17 15  2  0  0  0  0
 18  8  1  0  0  0  0
 18 31  1  0  0  0  0
 18 32  1  0  0  0  0
 19  8  1  0  0  0  0
 19 33  1  0  0  0  0
 19 34  1  0  0  0  0
 20 19  1  0  0  0  0
 20 35  1  0  0  0  0
 20 36  1  0  0  0  0
 21 18  1  0  0  0  0
 21 37  1  0  0  0  0
 21 38  1  0  0  0  0
 22 17  1  0  0  0  0
 22 39  1  0  0  0  0
 22 40  1  0  0  0  0
 22 41  1  0  0  0  0
M  END
>  <Mol_ID>
8712

>  <Formula>
C16H19N3O2S

>  <MolWeight>
317.40596

>  <Cat>
P2858

>  <Name>
WAY-605925

>  <Synonyms>
N/A

>  <Target>
Others

>  <Form>
free base

>  <CAS>
93023-72-4

>  <URL>
N/A

$$$$
