WAY-325398
 OpenBabel08302521433D

 41 43  0  0  0  0  0  0  0  0999 V2000
   -0.2643    0.9627   -0.8673 C   0  0  0  0  0  0  0  0  0  0  0  0
   -0.8678    2.2831   -0.7253 C   0  0  0  0  0  0  0  0  0  0  0  0
   -1.0617   -0.1339   -0.5854 O   0  0  0  0  0  0  0  0  0  0  0  0
   -0.1829    3.3725   -1.2869 N   0  0  0  0  0  0  0  0  0  0  0  0
    1.0139    0.5128   -1.1465 C   0  0  0  0  0  0  0  0  0  0  0  0
   -0.2954   -1.2643   -0.6566 C   0  0  0  0  0  0  0  0  0  0  0  0
   -0.6075    4.7347   -1.2099 C   0  0  0  0  0  0  0  0  0  0  0  0
    0.9919   -0.9055   -1.0139 C   0  0  0  0  0  0  0  0  0  0  0  0
   -1.9471    2.4195   -0.1490 O   0  0  0  0  0  0  0  0  0  0  0  0
   -1.9347   -3.0446   -0.9890 O   0  0  0  0  0  0  0  0  0  0  0  0
   -2.5050   -4.2638   -0.6567 C   0  0  0  0  0  0  0  0  0  0  0  0
   -1.5179    5.2006   -0.2525 C   0  0  0  0  0  0  0  0  0  0  0  0
   -3.6526   -4.7088   -1.3492 C   0  0  0  0  0  0  0  0  0  0  0  0
   -0.8740   -2.5621   -0.1516 C   0  0  0  0  0  0  0  0  0  0  0  0
   -4.3456   -4.0951   -2.3605 O   0  0  0  0  0  0  0  0  0  0  0  0
   -0.1033    5.6599   -2.1360 C   0  0  0  0  0  0  0  0  0  0  0  0
   -1.9702   -5.1240    0.3220 C   0  0  0  0  0  0  0  0  0  0  0  0
   -1.9780    6.5232   -0.2654 C   0  0  0  0  0  0  0  0  0  0  0  0
   -4.2290   -5.9588   -1.0395 C   0  0  0  0  0  0  0  0  0  0  0  0
   -4.0814   -2.7302   -2.6225 C   0  0  0  0  0  0  0  0  0  0  0  0
   -0.5694    6.9858   -2.1535 C   0  0  0  0  0  0  0  0  0  0  0  0
   -3.6797   -6.7881   -0.0706 C   0  0  0  0  0  0  0  0  0  0  0  0
   -2.5428   -6.3769    0.6027 C   0  0  0  0  0  0  0  0  0  0  0  0
   -1.5194    7.4129   -1.2288 C   0  0  0  0  0  0  0  0  0  0  0  0
    0.5591    3.1657   -1.9387 H   0  0  0  0  0  0  0  0  0  0  0  0
    1.8848    1.1260   -1.3361 H   0  0  0  0  0  0  0  0  0  0  0  0
    1.8380   -1.5768   -1.0800 H   0  0  0  0  0  0  0  0  0  0  0  0
   -1.8919    4.5543    0.5360 H   0  0  0  0  0  0  0  0  0  0  0  0
   -0.0577   -3.2928   -0.1382 H   0  0  0  0  0  0  0  0  0  0  0  0
   -1.2483   -2.4028    0.8683 H   0  0  0  0  0  0  0  0  0  0  0  0
    0.6268    5.3662   -2.8844 H   0  0  0  0  0  0  0  0  0  0  0  0
   -1.0850   -4.8659    0.8911 H   0  0  0  0  0  0  0  0  0  0  0  0
   -2.7047    6.8469    0.4766 H   0  0  0  0  0  0  0  0  0  0  0  0
   -5.1244   -6.2837   -1.5687 H   0  0  0  0  0  0  0  0  0  0  0  0
   -4.2579   -2.1172   -1.7338 H   0  0  0  0  0  0  0  0  0  0  0  0
   -3.0771   -2.5959   -3.0313 H   0  0  0  0  0  0  0  0  0  0  0  0
   -4.7869   -2.4090   -3.3943 H   0  0  0  0  0  0  0  0  0  0  0  0
   -0.2025    7.6872   -2.9005 H   0  0  0  0  0  0  0  0  0  0  0  0
   -4.1316   -7.7592    0.1420 H   0  0  0  0  0  0  0  0  0  0  0  0
   -2.0926   -7.0299    1.3471 H   0  0  0  0  0  0  0  0  0  0  0  0
   -1.8998    8.4318   -1.2546 H   0  0  0  0  0  0  0  0  0  0  0  0
  2  1  1  0  0  0  0
  3  1  1  0  0  0  0
  4  2  1  0  0  0  0
  4 25  1  0  0  0  0
  5  1  2  0  0  0  0
  5 26  1  0  0  0  0
  6  3  1  0  0  0  0
  6  8  2  0  0  0  0
  7  4  1  0  0  0  0
  8  5  1  0  0  0  0
  8 27  1  0  0  0  0
  9  2  2  0  0  0  0
 10 14  1  0  0  0  0
 11 10  1  0  0  0  0
 12  7  2  0  0  0  0
 12 28  1  0  0  0  0
 13 11  2  0  0  0  0
 14  6  1  0  0  0  0
 14 29  1  0  0  0  0
 14 30  1  0  0  0  0
 15 13  1  0  0  0  0
 16  7  1  0  0  0  0
 16 31  1  0  0  0  0
 17 11  1  0  0  0  0
 17 32  1  0  0  0  0
 18 12  1  0  0  0  0
 18 33  1  0  0  0  0
 19 13  1  0  0  0  0
 19 34  1  0  0  0  0
 20 15  1  0  0  0  0
 20 35  1  0  0  0  0
 20 36  1  0  0  0  0
 20 37  1  0  0  0  0
 21 16  2  0  0  0  0
 21 38  1  0  0  0  0
 22 23  1  0  0  0  0
 22 19  2  0  0  0  0
 22 39  1  0  0  0  0
 23 17  2  0  0  0  0
 23 40  1  0  0  0  0
 24 21  1  0  0  0  0
 24 18  2  0  0  0  0
 24 41  1  0  0  0  0
M  END
>  <Mol_ID>
8685

>  <Formula>
C19H16ClNO4

>  <MolWeight>
357.78764

>  <Cat>
P2384

>  <Name>
WAY-325398

>  <Synonyms>
N/A

>  <Target>
Others

>  <Form>
free base

>  <CAS>
445231-36-7

>  <URL>
N/A

$$$$
