WAY-325046
 OpenBabel08302521423D

 24 26  0  0  0  0  0  0  0  0999 V2000
   -1.3467   -0.8758    0.0016 C   0  0  0  0  0  0  0  0  0  0  0  0
   -2.6081   -1.1437    0.0044 N   0  0  0  0  0  0  0  0  0  0  0  0
   -0.7559    0.3796   -0.0006 N   0  0  0  0  0  0  0  0  0  0  0  0
   -0.1542   -2.1818    0.0003 S   0  0  0  0  0  0  0  0  0  0  0  0
    1.1652   -0.9832   -0.0020 C   0  0  0  0  0  0  0  0  0  0  0  0
    0.6600    0.3333   -0.0017 C   0  0  0  0  0  0  0  0  0  0  0  0
   -1.5809    1.4728   -0.0009 C   0  0  0  0  0  0  0  0  0  0  0  0
   -3.4769   -0.0741    0.0055 C   0  0  0  0  0  0  0  0  0  0  0  0
   -2.9093    1.3099    0.0014 C   0  0  0  0  0  0  0  0  0  0  0  0
    2.5196   -1.2670   -0.0025 C   0  0  0  0  0  0  0  0  0  0  0  0
    1.5569    1.3939   -0.0009 C   0  0  0  0  0  0  0  0  0  0  0  0
   -4.6969   -0.1994    0.0092 O   0  0  0  0  0  0  0  0  0  0  0  0
    3.4182   -0.2044   -0.0021 C   0  0  0  0  0  0  0  0  0  0  0  0
    2.9336    1.1164   -0.0010 C   0  0  0  0  0  0  0  0  0  0  0  0
    4.7822   -0.3272   -0.0024 O   0  0  0  0  0  0  0  0  0  0  0  0
    5.2965   -1.6568   -0.0057 C   0  0  0  0  0  0  0  0  0  0  0  0
   -1.1184    2.4520   -0.0033 H   0  0  0  0  0  0  0  0  0  0  0  0
   -3.6180    2.1262    0.0007 H   0  0  0  0  0  0  0  0  0  0  0  0
    2.8364   -2.3041   -0.0028 H   0  0  0  0  0  0  0  0  0  0  0  0
    1.2245    2.4261    0.0005 H   0  0  0  0  0  0  0  0  0  0  0  0
    3.6452    1.9414   -0.0002 H   0  0  0  0  0  0  0  0  0  0  0  0
    4.9902   -2.1996    0.8954 H   0  0  0  0  0  0  0  0  0  0  0  0
    4.9923   -2.1939   -0.9108 H   0  0  0  0  0  0  0  0  0  0  0  0
    6.3890   -1.6002   -0.0040 H   0  0  0  0  0  0  0  0  0  0  0  0
  2  1  2  0  0  0  0
  3  1  1  0  0  0  0
  4  1  1  0  0  0  0
  5  4  1  0  0  0  0
  5  6  2  0  0  0  0
  6  3  1  0  0  0  0
  7  3  1  0  0  0  0
  7 17  1  0  0  0  0
  8  2  1  0  0  0  0
  9  8  1  0  0  0  0
  9  7  2  0  0  0  0
  9 18  1  0  0  0  0
 10  5  1  0  0  0  0
 10 19  1  0  0  0  0
 11  6  1  0  0  0  0
 11 20  1  0  0  0  0
 12  8  2  0  0  0  0
 13 10  2  0  0  0  0
 13 14  1  0  0  0  0
 14 11  2  0  0  0  0
 14 21  1  0  0  0  0
 15 13  1  0  0  0  0
 16 15  1  0  0  0  0
 16 22  1  0  0  0  0
 16 23  1  0  0  0  0
 16 24  1  0  0  0  0
M  END
>  <Mol_ID>
8668

>  <Formula>
C11H8N2O2S

>  <MolWeight>
232.25842

>  <Cat>
P2367

>  <Name>
WAY-325046

>  <Synonyms>
N/A

>  <Target>
benzodiazepine receptor

>  <Form>
free base

>  <CAS>
32329-52-5

>  <URL>
N/A

$$$$
