WAY-637664
 OpenBabel08302521423D

 45 48  0  0  0  0  0  0  0  0999 V2000
    0.4789   -2.9572    0.9549 C   0  0  0  0  0  0  0  0  0  0  0  0
   -0.6853   -3.2869    0.1927 C   0  0  0  0  0  0  0  0  0  0  0  0
    1.4424   -3.9267    0.6782 C   0  0  0  0  0  0  0  0  0  0  0  0
    0.8037   -1.9222    1.8568 C   0  0  0  0  0  0  0  0  0  0  0  0
   -0.3988   -4.4385   -0.5109 C   0  0  0  0  0  0  0  0  0  0  0  0
   -1.9634   -2.5220    0.1438 C   0  0  0  0  0  0  0  0  0  0  0  0
    0.8858   -4.8072   -0.2197 N   0  0  0  0  0  0  0  0  0  0  0  0
    2.7139   -3.9173    1.2622 C   0  0  0  0  0  0  0  0  0  0  0  0
    2.0665   -1.9044    2.4590 C   0  0  0  0  0  0  0  0  0  0  0  0
   -2.9827   -2.9944    1.1840 C   0  0  0  0  0  0  0  0  0  0  0  0
    3.0055   -2.8900    2.1646 C   0  0  0  0  0  0  0  0  0  0  0  0
   -4.3043   -2.2254    1.2084 C   0  0  0  0  0  0  0  0  0  0  0  0
   -5.0052   -2.1886   -0.1327 C   0  0  0  0  0  0  0  0  0  0  0  0
   -4.7225   -1.1758   -0.9984 N   0  0  0  0  0  0  0  0  0  0  0  0
   -5.7996   -3.0667   -0.4691 O   0  0  0  0  0  0  0  0  0  0  0  0
   -3.7945   -0.0836   -0.8279 C   0  0  0  0  0  0  0  0  0  0  0  0
   -4.4849    1.2430   -0.8863 C   0  0  0  0  0  0  0  0  0  0  0  0
   -5.0863    1.7676    0.2699 C   0  0  0  0  0  0  0  0  0  0  0  0
   -4.5075    1.9670   -2.0920 C   0  0  0  0  0  0  0  0  0  0  0  0
   -5.6558    3.0153    0.1826 C   0  0  0  0  0  0  0  0  0  0  0  0
   -5.1062    3.2314   -2.1493 C   0  0  0  0  0  0  0  0  0  0  0  0
   -5.6627    3.7303   -0.9927 C   0  0  0  0  0  0  0  0  0  0  0  0
   -6.2457    3.6880    1.2053 O   0  0  0  0  0  0  0  0  0  0  0  0
   -6.2571    4.9424   -0.8573 O   0  0  0  0  0  0  0  0  0  0  0  0
   -6.5919    4.9230    0.5464 C   0  0  0  0  0  0  0  0  0  0  0  0
    0.0804   -1.1476    2.0931 H   0  0  0  0  0  0  0  0  0  0  0  0
   -1.0007   -5.0204   -1.1964 H   0  0  0  0  0  0  0  0  0  0  0  0
   -1.7204   -1.4674    0.3034 H   0  0  0  0  0  0  0  0  0  0  0  0
   -2.3788   -2.6116   -0.8667 H   0  0  0  0  0  0  0  0  0  0  0  0
    1.3602   -5.6128   -0.6020 H   0  0  0  0  0  0  0  0  0  0  0  0
    3.4487   -4.6818    1.0329 H   0  0  0  0  0  0  0  0  0  0  0  0
    2.3134   -1.1158    3.1652 H   0  0  0  0  0  0  0  0  0  0  0  0
   -3.1977   -4.0567    1.0137 H   0  0  0  0  0  0  0  0  0  0  0  0
   -2.5351   -2.9248    2.1837 H   0  0  0  0  0  0  0  0  0  0  0  0
    3.9805   -2.8624    2.6451 H   0  0  0  0  0  0  0  0  0  0  0  0
   -4.9887   -2.7111    1.9157 H   0  0  0  0  0  0  0  0  0  0  0  0
   -4.1726   -1.2137    1.6023 H   0  0  0  0  0  0  0  0  0  0  0  0
   -5.2325   -1.2313   -1.8718 H   0  0  0  0  0  0  0  0  0  0  0  0
   -3.2643   -0.1355    0.1213 H   0  0  0  0  0  0  0  0  0  0  0  0
   -3.0388   -0.1687   -1.6173 H   0  0  0  0  0  0  0  0  0  0  0  0
   -5.0919    1.2292    1.2107 H   0  0  0  0  0  0  0  0  0  0  0  0
   -4.0465    1.5579   -2.9892 H   0  0  0  0  0  0  0  0  0  0  0  0
   -5.1163    3.8028   -3.0680 H   0  0  0  0  0  0  0  0  0  0  0  0
   -7.6700    5.0859    0.6524 H   0  0  0  0  0  0  0  0  0  0  0  0
   -6.0594    5.7427    1.0432 H   0  0  0  0  0  0  0  0  0  0  0  0
  1  2  1  0  0  0  0
  1  3  1  0  0  0  0
  1  4  2  0  0  0  0
  2  5  2  0  0  0  0
  2  6  1  0  0  0  0
  3  7  1  0  0  0  0
  3  8  2  0  0  0  0
  4  9  1  0  0  0  0
  4 26  1  0  0  0  0
  5  7  1  0  0  0  0
  5 27  1  0  0  0  0
  6 10  1  0  0  0  0
  6 28  1  0  0  0  0
  6 29  1  0  0  0  0
  7 30  1  0  0  0  0
  8 11  1  0  0  0  0
  8 31  1  0  0  0  0
  9 11  2  0  0  0  0
  9 32  1  0  0  0  0
 10 12  1  0  0  0  0
 10 33  1  0  0  0  0
 10 34  1  0  0  0  0
 11 35  1  0  0  0  0
 12 13  1  0  0  0  0
 12 36  1  0  0  0  0
 12 37  1  0  0  0  0
 13 14  1  0  0  0  0
 13 15  2  0  0  0  0
 14 16  1  0  0  0  0
 14 38  1  0  0  0  0
 16 17  1  0  0  0  0
 16 39  1  0  0  0  0
 16 40  1  0  0  0  0
 17 18  2  0  0  0  0
 17 19  1  0  0  0  0
 18 20  1  0  0  0  0
 18 41  1  0  0  0  0
 19 21  2  0  0  0  0
 19 42  1  0  0  0  0
 20 22  2  0  0  0  0
 20 23  1  0  0  0  0
 21 22  1  0  0  0  0
 21 43  1  0  0  0  0
 22 24  1  0  0  0  0
 23 25  1  0  0  0  0
 24 25  1  0  0  0  0
 25 44  1  0  0  0  0
 25 45  1  0  0  0  0
M  END
>  <Mol_ID>
8487

>  <Formula>
C20H20N2O3

>  <MolWeight>
336.3844

>  <Cat>
P3020

>  <Name>
WAY-637664

>  <Synonyms>
N/A

>  <Target>
InhA

>  <Form>
free base

>  <CAS>
353522-37-9

>  <URL>
N/A

$$$$
