WAY-300194-A
 OpenBabel08302521413D

 39 41  0  0  0  0  0  0  0  0999 V2000
    1.2817    0.1424   -0.0298 C   0  0  0  0  0  0  0  0  0  0  0  0
    0.8344   -0.4626   -1.1877 N   0  0  0  0  0  0  0  0  0  0  0  0
   -0.5017   -1.8935   -3.4179 N   0  0  0  0  0  0  0  0  0  0  0  0
   -5.2939   -2.2846   -3.9656 C   0  0  0  0  0  0  0  0  0  0  0  0
    0.6588   -0.1008    1.5023 S   0  0  0  0  0  0  0  0  0  0  0  0
   -5.2521   -2.6051   -5.3026 C   0  0  0  0  0  0  0  0  0  0  0  0
   -6.5690   -2.1359   -3.5086 O   0  0  0  0  0  0  0  0  0  0  0  0
   -6.4946   -2.7065   -5.8463 O   0  0  0  0  0  0  0  0  0  0  0  0
   -7.3081   -2.5899   -4.6600 C   0  0  0  0  0  0  0  0  0  0  0  0
   -4.1528   -2.1940   -3.1983 C   0  0  0  0  0  0  0  0  0  0  0  0
    0.9306   -1.9167   -1.2951 C   0  0  0  0  0  0  0  0  0  0  0  0
   -0.4044    0.0662   -1.7677 C   0  0  0  0  0  0  0  0  0  0  0  0
   -2.9219   -2.4858   -3.8076 C   0  0  0  0  0  0  0  0  0  0  0  0
    2.3202    1.0181   -0.1958 N   0  0  0  0  0  0  0  0  0  0  0  0
   -1.6788   -2.6373   -2.9458 C   0  0  0  0  0  0  0  0  0  0  0  0
   -4.0600   -2.8257   -5.9544 C   0  0  0  0  0  0  0  0  0  0  0  0
    0.7330   -2.3807   -2.7531 C   0  0  0  0  0  0  0  0  0  0  0  0
   -0.6266   -0.4311   -3.2120 C   0  0  0  0  0  0  0  0  0  0  0  0
   -2.8831   -2.7756   -5.1946 C   0  0  0  0  0  0  0  0  0  0  0  0
    3.1586    1.0919   -1.3704 C   0  0  0  0  0  0  0  0  0  0  0  0
   -8.1316   -1.8950   -4.8568 H   0  0  0  0  0  0  0  0  0  0  0  0
   -7.7328   -3.5771   -4.4302 H   0  0  0  0  0  0  0  0  0  0  0  0
   -4.2240   -1.9635   -2.1416 H   0  0  0  0  0  0  0  0  0  0  0  0
    1.9189   -2.2260   -0.9346 H   0  0  0  0  0  0  0  0  0  0  0  0
    0.1829   -2.3738   -0.6350 H   0  0  0  0  0  0  0  0  0  0  0  0
   -1.2418   -0.2326   -1.1248 H   0  0  0  0  0  0  0  0  0  0  0  0
   -0.3579    1.1614   -1.7513 H   0  0  0  0  0  0  0  0  0  0  0  0
    2.6719    1.4247    0.6633 H   0  0  0  0  0  0  0  0  0  0  0  0
   -1.4550   -3.7146   -2.9708 H   0  0  0  0  0  0  0  0  0  0  0  0
   -1.9080   -2.4017   -1.9016 H   0  0  0  0  0  0  0  0  0  0  0  0
   -4.0342   -3.0776   -7.0061 H   0  0  0  0  0  0  0  0  0  0  0  0
    1.5846   -2.0209   -3.3449 H   0  0  0  0  0  0  0  0  0  0  0  0
    0.7855   -3.4757   -2.7988 H   0  0  0  0  0  0  0  0  0  0  0  0
    0.1287    0.0461   -3.8504 H   0  0  0  0  0  0  0  0  0  0  0  0
   -1.5921   -0.0642   -3.5794 H   0  0  0  0  0  0  0  0  0  0  0  0
   -1.9311   -3.0000   -5.6704 H   0  0  0  0  0  0  0  0  0  0  0  0
    3.7094    0.1517   -1.4623 H   0  0  0  0  0  0  0  0  0  0  0  0
    2.5489    1.2471   -2.2641 H   0  0  0  0  0  0  0  0  0  0  0  0
    3.8601    1.9202   -1.2482 H   0  0  0  0  0  0  0  0  0  0  0  0
  2  1  1  0  0  0  0
  3 18  1  0  0  0  0
  4 10  2  0  0  0  0
  5  1  2  0  0  0  0
  6 16  2  0  0  0  0
  6  4  1  0  0  0  0
  7  4  1  0  0  0  0
  8  6  1  0  0  0  0
  8  9  1  0  0  0  0
  9  7  1  0  0  0  0
  9 21  1  0  0  0  0
  9 22  1  0  0  0  0
 10 13  1  0  0  0  0
 10 23  1  0  0  0  0
 11  2  1  0  0  0  0
 11 24  1  0  0  0  0
 11 25  1  0  0  0  0
 12  2  1  0  0  0  0
 12 26  1  0  0  0  0
 12 27  1  0  0  0  0
 13 15  1  0  0  0  0
 14  1  1  0  0  0  0
 14 28  1  0  0  0  0
 15  3  1  0  0  0  0
 15 29  1  0  0  0  0
 15 30  1  0  0  0  0
 16 19  1  0  0  0  0
 16 31  1  0  0  0  0
 17 11  1  0  0  0  0
 17  3  1  0  0  0  0
 17 32  1  0  0  0  0
 17 33  1  0  0  0  0
 18 12  1  0  0  0  0
 18 34  1  0  0  0  0
 18 35  1  0  0  0  0
 19 13  2  0  0  0  0
 19 36  1  0  0  0  0
 20 14  1  0  0  0  0
 20 37  1  0  0  0  0
 20 38  1  0  0  0  0
 20 39  1  0  0  0  0
M  END
>  <Mol_ID>
8388

>  <Formula>
C14H19N3O2S

>  <MolWeight>
293.38456

>  <Cat>
P2133

>  <Name>
WAY-300194-A

>  <Synonyms>
N/A

>  <Target>
others

>  <Form>
free base

>  <CAS>
351332-37-1

>  <URL>
N/A

$$$$
