WAY-326327
 OpenBabel08302521433D

 39 41  0  0  0  0  0  0  0  0999 V2000
   -0.8996   -1.3921    0.5874 N   0  0  0  0  0  0  0  0  0  0  0  0
   -0.3418   -0.7130   -0.5005 C   0  0  0  0  0  0  0  0  0  0  0  0
   -0.5392    0.7698    1.3108 C   0  0  0  0  0  0  0  0  0  0  0  0
   -0.0949    0.7103   -0.0607 C   0  0  0  0  0  0  0  0  0  0  0  0
   -1.0556   -0.4850    1.6856 C   0  0  0  0  0  0  0  0  0  0  0  0
   -0.0336   -1.0564   -1.6192 O   0  0  0  0  0  0  0  0  0  0  0  0
    0.3667    1.6024   -0.7171 O   0  0  0  0  0  0  0  0  0  0  0  0
   -1.5718   -0.5913    2.9762 C   0  0  0  0  0  0  0  0  0  0  0  0
   -1.2972   -2.7963    0.5217 C   0  0  0  0  0  0  0  0  0  0  0  0
   -1.1822   -4.1632   -2.4735 C   0  0  0  0  0  0  0  0  0  0  0  0
   -1.7128   -3.4803   -3.5897 C   0  0  0  0  0  0  0  0  0  0  0  0
   -0.4455    1.8948    2.1005 C   0  0  0  0  0  0  0  0  0  0  0  0
   -0.2978   -3.5128   -1.6648 O   0  0  0  0  0  0  0  0  0  0  0  0
   -0.3194   -3.7285   -0.2457 C   0  0  0  0  0  0  0  0  0  0  0  0
   -0.9055    1.7741    3.3937 C   0  0  0  0  0  0  0  0  0  0  0  0
   -1.4614    0.5554    3.8195 C   0  0  0  0  0  0  0  0  0  0  0  0
   -2.2217   -1.7973    3.5840 C   0  0  0  0  0  0  0  0  0  0  0  0
   -1.3649   -2.0595   -3.9464 C   0  0  0  0  0  0  0  0  0  0  0  0
   -1.4690   -5.5181   -2.3022 C   0  0  0  0  0  0  0  0  0  0  0  0
   -2.6282   -4.1411   -4.4258 C   0  0  0  0  0  0  0  0  0  0  0  0
   -2.9433   -5.4771   -4.2142 C   0  0  0  0  0  0  0  0  0  0  0  0
   -2.3457   -6.1718   -3.1686 C   0  0  0  0  0  0  0  0  0  0  0  0
   -1.3622   -3.1859    1.5413 H   0  0  0  0  0  0  0  0  0  0  0  0
   -2.2924   -2.8456    0.0666 H   0  0  0  0  0  0  0  0  0  0  0  0
   -0.0172    2.8141    1.7120 H   0  0  0  0  0  0  0  0  0  0  0  0
    0.6989   -3.5323    0.1126 H   0  0  0  0  0  0  0  0  0  0  0  0
   -0.5270   -4.7730    0.0066 H   0  0  0  0  0  0  0  0  0  0  0  0
   -0.8393    2.6195    4.0725 H   0  0  0  0  0  0  0  0  0  0  0  0
   -1.8200    0.5091    4.8478 H   0  0  0  0  0  0  0  0  0  0  0  0
   -3.0095   -2.1943    2.9384 H   0  0  0  0  0  0  0  0  0  0  0  0
   -1.4800   -2.5682    3.8098 H   0  0  0  0  0  0  0  0  0  0  0  0
   -2.7101   -1.5372    4.5334 H   0  0  0  0  0  0  0  0  0  0  0  0
   -1.5280   -1.8750   -5.0158 H   0  0  0  0  0  0  0  0  0  0  0  0
   -1.9907   -1.3553   -3.3891 H   0  0  0  0  0  0  0  0  0  0  0  0
   -0.3047   -1.8546   -3.7823 H   0  0  0  0  0  0  0  0  0  0  0  0
   -0.9749   -6.1017   -1.5339 H   0  0  0  0  0  0  0  0  0  0  0  0
   -3.0762   -3.6142   -5.2663 H   0  0  0  0  0  0  0  0  0  0  0  0
   -3.6320   -5.9827   -4.8859 H   0  0  0  0  0  0  0  0  0  0  0  0
   -2.5459   -7.2303   -3.0350 H   0  0  0  0  0  0  0  0  0  0  0  0
  2  1  1  0  0  0  0
  3  5  2  0  0  0  0
  4  2  1  0  0  0  0
  4  3  1  0  0  0  0
  5  1  1  0  0  0  0
  6  2  2  0  0  0  0
  7  4  2  0  0  0  0
  8  5  1  0  0  0  0
  9  1  1  0  0  0  0
  9 23  1  0  0  0  0
  9 24  1  0  0  0  0
 10 13  1  0  0  0  0
 11 10  2  0  0  0  0
 12  3  1  0  0  0  0
 12 15  2  0  0  0  0
 12 25  1  0  0  0  0
 13 14  1  0  0  0  0
 14  9  1  0  0  0  0
 14 26  1  0  0  0  0
 14 27  1  0  0  0  0
 15 16  1  0  0  0  0
 15 28  1  0  0  0  0
 16  8  2  0  0  0  0
 16 29  1  0  0  0  0
 17  8  1  0  0  0  0
 17 30  1  0  0  0  0
 17 31  1  0  0  0  0
 17 32  1  0  0  0  0
 18 11  1  0  0  0  0
 18 33  1  0  0  0  0
 18 34  1  0  0  0  0
 18 35  1  0  0  0  0
 19 10  1  0  0  0  0
 19 36  1  0  0  0  0
 20 11  1  0  0  0  0
 20 21  2  0  0  0  0
 20 37  1  0  0  0  0
 21 22  1  0  0  0  0
 21 38  1  0  0  0  0
 22 19  2  0  0  0  0
 22 39  1  0  0  0  0
M  END
>  <Mol_ID>
8909

>  <Formula>
C18H17NO3

>  <MolWeight>
295.33248

>  <Cat>
P2467

>  <Name>
WAY-326327

>  <Synonyms>
N/A

>  <Target>
Androgen Receptor

>  <Form>
free base

>  <CAS>
870693-13-3

>  <URL>
N/A

$$$$
