WAY-324593
 OpenBabel08302521423D

 57 60  0  0  0  0  0  0  0  0999 V2000
    0.0528   -0.8390   -0.0322 C   0  0  0  0  0  0  0  0  0  0  0  0
   -1.1765   -1.5596   -0.0085 C   0  0  0  0  0  0  0  0  0  0  0  0
   -0.0487    0.5647   -0.0532 C   0  0  0  0  0  0  0  0  0  0  0  0
    1.3592   -1.4046   -0.0320 C   0  0  0  0  0  0  0  0  0  0  0  0
   -2.3936   -0.8701   -0.0052 C   0  0  0  0  0  0  0  0  0  0  0  0
   -1.2024   -3.0476    0.1466 C   0  0  0  0  0  0  0  0  0  0  0  0
   -1.2224    1.2123   -0.0694 N   0  0  0  0  0  0  0  0  0  0  0  0
    1.1073    1.3368   -0.0432 C   0  0  0  0  0  0  0  0  0  0  0  0
    2.5068   -0.6107   -0.0193 C   0  0  0  0  0  0  0  0  0  0  0  0
   -2.3830    0.5169   -0.0314 C   0  0  0  0  0  0  0  0  0  0  0  0
   -2.2147   -3.7417   -0.5173 N   0  0  0  0  0  0  0  0  0  0  0  0
   -0.3336   -3.5649    0.8405 O   0  0  0  0  0  0  0  0  0  0  0  0
    2.3804    0.7673   -0.0210 C   0  0  0  0  0  0  0  0  0  0  0  0
   -3.6110    1.3407    0.0144 C   0  0  0  0  0  0  0  0  0  0  0  0
   -2.3694   -5.1544   -0.5153 C   0  0  0  0  0  0  0  0  0  0  0  0
   -4.7804    0.9027    0.6599 C   0  0  0  0  0  0  0  0  0  0  0  0
   -3.6427    2.6218   -0.5677 C   0  0  0  0  0  0  0  0  0  0  0  0
   -1.6998   -5.9951    0.3808 C   0  0  0  0  0  0  0  0  0  0  0  0
   -3.1967   -5.7404   -1.4842 C   0  0  0  0  0  0  0  0  0  0  0  0
   -5.9279    1.7021    0.7169 C   0  0  0  0  0  0  0  0  0  0  0  0
   -4.7862    3.4266   -0.5100 C   0  0  0  0  0  0  0  0  0  0  0  0
   -1.7718   -7.3871    0.2663 C   0  0  0  0  0  0  0  0  0  0  0  0
   -3.2694   -7.1375   -1.6118 C   0  0  0  0  0  0  0  0  0  0  0  0
   -5.9415    2.9702    0.1301 C   0  0  0  0  0  0  0  0  0  0  0  0
   -2.5463   -7.9583   -0.7413 C   0  0  0  0  0  0  0  0  0  0  0  0
   -7.1685    3.8403    0.2182 C   0  0  0  0  0  0  0  0  0  0  0  0
   -2.4706   -9.7155   -1.0074 S   0  0  0  0  0  0  0  0  0  0  0  0
   -7.1747    4.6991    1.4740 C   0  0  0  0  0  0  0  0  0  0  0  0
   -3.6996  -10.3254   -0.0699 N   0  0  0  0  0  0  0  0  0  0  0  0
   -2.7435   -9.9924   -2.3995 O   0  0  0  0  0  0  0  0  0  0  0  0
   -1.2567  -10.1969   -0.3837 O   0  0  0  0  0  0  0  0  0  0  0  0
   -5.0571  -10.0556   -0.2444 C   0  0  0  0  0  0  0  0  0  0  0  0
   -5.9661  -10.6802    0.7765 C   0  0  0  0  0  0  0  0  0  0  0  0
   -5.4913   -9.3406   -1.1401 O   0  0  0  0  0  0  0  0  0  0  0  0
    1.5008   -2.4835   -0.0290 H   0  0  0  0  0  0  0  0  0  0  0  0
   -3.3331   -1.4068    0.0562 H   0  0  0  0  0  0  0  0  0  0  0  0
    1.0139    2.4209   -0.0405 H   0  0  0  0  0  0  0  0  0  0  0  0
    3.4899   -1.0746    0.0009 H   0  0  0  0  0  0  0  0  0  0  0  0
   -2.7874   -3.2312   -1.1772 H   0  0  0  0  0  0  0  0  0  0  0  0
    3.2630    1.4017   -0.0030 H   0  0  0  0  0  0  0  0  0  0  0  0
   -4.8133   -0.0626    1.1595 H   0  0  0  0  0  0  0  0  0  0  0  0
   -2.7577    3.0093   -1.0715 H   0  0  0  0  0  0  0  0  0  0  0  0
   -1.0836   -5.5982    1.1817 H   0  0  0  0  0  0  0  0  0  0  0  0
   -3.7552   -5.1294   -2.1889 H   0  0  0  0  0  0  0  0  0  0  0  0
   -6.8082    1.3286    1.2356 H   0  0  0  0  0  0  0  0  0  0  0  0
   -4.7611    4.4144   -0.9646 H   0  0  0  0  0  0  0  0  0  0  0  0
   -1.1865   -8.0029    0.9451 H   0  0  0  0  0  0  0  0  0  0  0  0
   -3.8715   -7.5776   -2.4057 H   0  0  0  0  0  0  0  0  0  0  0  0
   -7.2297    4.4819   -0.6689 H   0  0  0  0  0  0  0  0  0  0  0  0
   -8.0657    3.2096    0.1988 H   0  0  0  0  0  0  0  0  0  0  0  0
   -6.3083    5.3685    1.5034 H   0  0  0  0  0  0  0  0  0  0  0  0
   -8.0796    5.3146    1.5047 H   0  0  0  0  0  0  0  0  0  0  0  0
   -7.1540    4.0829    2.3793 H   0  0  0  0  0  0  0  0  0  0  0  0
   -3.3618  -10.9317    0.6705 H   0  0  0  0  0  0  0  0  0  0  0  0
   -6.5732   -9.8920    1.2307 H   0  0  0  0  0  0  0  0  0  0  0  0
   -6.6192  -11.4074    0.2870 H   0  0  0  0  0  0  0  0  0  0  0  0
   -5.4018  -11.1810    1.5674 H   0  0  0  0  0  0  0  0  0  0  0  0
  1  2  1  0  0  0  0
  1  3  1  0  0  0  0
  1  4  2  0  0  0  0
  2  5  2  0  0  0  0
  2  6  1  0  0  0  0
  3  7  1  0  0  0  0
  3  8  2  0  0  0  0
  4  9  1  0  0  0  0
  4 35  1  0  0  0  0
  5 10  1  0  0  0  0
  5 36  1  0  0  0  0
  6 11  1  0  0  0  0
  6 12  2  0  0  0  0
  7 10  2  0  0  0  0
  8 13  1  0  0  0  0
  8 37  1  0  0  0  0
  9 13  2  0  0  0  0
  9 38  1  0  0  0  0
 10 14  1  0  0  0  0
 11 15  1  0  0  0  0
 11 39  1  0  0  0  0
 13 40  1  0  0  0  0
 14 16  2  0  0  0  0
 14 17  1  0  0  0  0
 15 18  2  0  0  0  0
 15 19  1  0  0  0  0
 16 20  1  0  0  0  0
 16 41  1  0  0  0  0
 17 21  2  0  0  0  0
 17 42  1  0  0  0  0
 18 22  1  0  0  0  0
 18 43  1  0  0  0  0
 19 23  2  0  0  0  0
 19 44  1  0  0  0  0
 20 24  2  0  0  0  0
 20 45  1  0  0  0  0
 21 24  1  0  0  0  0
 21 46  1  0  0  0  0
 22 25  2  0  0  0  0
 22 47  1  0  0  0  0
 23 25  1  0  0  0  0
 23 48  1  0  0  0  0
 24 26  1  0  0  0  0
 25 27  1  0  0  0  0
 26 28  1  0  0  0  0
 26 49  1  0  0  0  0
 26 50  1  0  0  0  0
 27 29  1  0  0  0  0
 27 30  2  0  0  0  0
 27 31  2  0  0  0  0
 28 51  1  0  0  0  0
 28 52  1  0  0  0  0
 28 53  1  0  0  0  0
 29 32  1  0  0  0  0
 29 54  1  0  0  0  0
 32 33  1  0  0  0  0
 32 34  2  0  0  0  0
 33 55  1  0  0  0  0
 33 56  1  0  0  0  0
 33 57  1  0  0  0  0
M  END
>  <Mol_ID>
8646

>  <Formula>
C26H23N3O4S

>  <MolWeight>
473.54352

>  <Cat>
P2335

>  <Name>
WAY-324593

>  <Synonyms>
N/A

>  <Target>
Anti-infection

>  <Form>
free base

>  <CAS>
420090-97-7

>  <URL>
N/A

$$$$
