WAY-227676
 OpenBabel08302521413D

 54 56  0  0  0  0  0  0  0  0999 V2000
   -0.7396    1.3773    0.0210 C   0  0  0  0  0  0  0  0  0  0  0  0
   -1.1010   -0.8699    0.1818 N   0  0  0  0  0  0  0  0  0  0  0  0
    0.4609    0.8103    0.1710 C   0  0  0  0  0  0  0  0  0  0  0  0
    0.2459   -0.6416    0.3339 C   0  0  0  0  0  0  0  0  0  0  0  0
   -1.8611    0.3747    0.1179 C   0  0  3  0  0  0  0  0  0  0  0  0
   -2.7094    0.5570    1.3715 C   0  0  0  0  0  0  0  0  0  0  0  0
   -1.7106   -2.1891    0.2824 C   0  0  0  0  0  0  0  0  0  0  0  0
   -1.0242    2.8117   -0.1864 C   0  0  0  0  0  0  0  0  0  0  0  0
   -2.0988    0.6117    2.6399 C   0  0  0  0  0  0  0  0  0  0  0  0
   -2.8297    0.7893    3.8224 C   0  0  0  0  0  0  0  0  0  0  0  0
   -1.9334   -2.5676   -2.2359 N   0  0  0  0  0  0  0  0  0  0  0  0
    1.1486   -1.4221    0.5770 O   0  0  0  0  0  0  0  0  0  0  0  0
   -4.0987    0.6552    1.3029 C   0  0  0  0  0  0  0  0  0  0  0  0
   -4.2278    0.8869    3.7352 C   0  0  0  0  0  0  0  0  0  0  0  0
    1.6978    1.3828    0.2174 O   0  0  0  0  0  0  0  0  0  0  0  0
   -2.1824    3.1746   -0.3896 O   0  0  0  0  0  0  0  0  0  0  0  0
   -2.6021   -2.5805   -0.9174 C   0  0  0  0  0  0  0  0  0  0  0  0
   -4.8430    0.8144    2.4765 C   0  0  0  0  0  0  0  0  0  0  0  0
   -2.2687   -5.2053   -3.5138 O   0  0  0  0  0  0  0  0  0  0  0  0
   -2.2245    0.8725    5.0465 O   0  0  0  0  0  0  0  0  0  0  0  0
   -5.1344    1.0482    4.7542 O   0  0  0  0  0  0  0  0  0  0  0  0
   -0.8521   -3.5739   -2.3536 C   0  0  0  0  0  0  0  0  0  0  0  0
   -2.8980   -2.8307   -3.3307 C   0  0  0  0  0  0  0  0  0  0  0  0
    0.1089    3.8058   -0.1533 C   0  0  0  0  0  0  0  0  0  0  0  0
   -3.3712   -4.2950   -3.4241 C   0  0  0  0  0  0  0  0  0  0  0  0
   -1.3598   -5.0255   -2.4208 C   0  0  0  0  0  0  0  0  0  0  0  0
   -0.8036    0.8027    5.1027 C   0  0  0  0  0  0  0  0  0  0  0  0
   -4.6530    1.2058    6.0790 C   0  0  0  0  0  0  0  0  0  0  0  0
   -2.4672    0.3711   -0.7946 H   0  0  0  0  0  0  0  0  0  0  0  0
   -0.9194   -2.9339    0.4195 H   0  0  0  0  0  0  0  0  0  0  0  0
   -2.3081   -2.2130    1.2000 H   0  0  0  0  0  0  0  0  0  0  0  0
   -1.0201    0.5118    2.6834 H   0  0  0  0  0  0  0  0  0  0  0  0
   -4.6170    0.6205    0.3472 H   0  0  0  0  0  0  0  0  0  0  0  0
    2.3198    0.6397    0.3674 H   0  0  0  0  0  0  0  0  0  0  0  0
   -3.0435   -3.5604   -0.7029 H   0  0  0  0  0  0  0  0  0  0  0  0
   -3.4376   -1.8700   -0.9506 H   0  0  0  0  0  0  0  0  0  0  0  0
   -5.9280    0.8933    2.4118 H   0  0  0  0  0  0  0  0  0  0  0  0
   -0.3098   -3.3603   -3.2847 H   0  0  0  0  0  0  0  0  0  0  0  0
   -0.1141   -3.4652   -1.5534 H   0  0  0  0  0  0  0  0  0  0  0  0
   -2.3976   -2.5738   -4.2747 H   0  0  0  0  0  0  0  0  0  0  0  0
   -3.7614   -2.1599   -3.2552 H   0  0  0  0  0  0  0  0  0  0  0  0
    0.5963    3.7920    0.8259 H   0  0  0  0  0  0  0  0  0  0  0  0
    0.8269    3.5879   -0.9483 H   0  0  0  0  0  0  0  0  0  0  0  0
   -0.2838    4.8131   -0.3207 H   0  0  0  0  0  0  0  0  0  0  0  0
   -3.9980   -4.5728   -2.5694 H   0  0  0  0  0  0  0  0  0  0  0  0
   -3.9756   -4.4273   -4.3276 H   0  0  0  0  0  0  0  0  0  0  0  0
   -0.5162   -5.7045   -2.5817 H   0  0  0  0  0  0  0  0  0  0  0  0
   -1.8493   -5.3313   -1.4891 H   0  0  0  0  0  0  0  0  0  0  0  0
   -0.4496   -0.1799    4.7725 H   0  0  0  0  0  0  0  0  0  0  0  0
   -0.3418    1.6081    4.5206 H   0  0  0  0  0  0  0  0  0  0  0  0
   -0.4990    0.9337    6.1448 H   0  0  0  0  0  0  0  0  0  0  0  0
   -4.1160    0.3131    6.4170 H   0  0  0  0  0  0  0  0  0  0  0  0
   -4.0473    2.1128    6.1772 H   0  0  0  0  0  0  0  0  0  0  0  0
   -5.5191    1.3234    6.7378 H   0  0  0  0  0  0  0  0  0  0  0  0
  2  5  1  0  0  0  0
  2  4  1  0  0  0  0
  3  1  2  0  0  0  0
  4  3  1  0  0  0  0
  5  1  1  0  0  0  0
  5 29  1  0  0  0  0
  6  5  1  0  0  0  0
  7  2  1  0  0  0  0
  7 30  1  0  0  0  0
  7 31  1  0  0  0  0
  8  1  1  0  0  0  0
  9  6  2  0  0  0  0
  9 32  1  0  0  0  0
 10  9  1  0  0  0  0
 10 14  2  0  0  0  0
 11 17  1  0  0  0  0
 12  4  2  0  0  0  0
 13  6  1  0  0  0  0
 13 33  1  0  0  0  0
 14 18  1  0  0  0  0
 15  3  1  0  0  0  0
 15 34  1  0  0  0  0
 16  8  2  0  0  0  0
 17  7  1  0  0  0  0
 17 35  1  0  0  0  0
 17 36  1  0  0  0  0
 18 13  2  0  0  0  0
 18 37  1  0  0  0  0
 19 25  1  0  0  0  0
 20 10  1  0  0  0  0
 21 14  1  0  0  0  0
 22 11  1  0  0  0  0
 22 38  1  0  0  0  0
 22 39  1  0  0  0  0
 23 11  1  0  0  0  0
 23 40  1  0  0  0  0
 23 41  1  0  0  0  0
 24  8  1  0  0  0  0
 24 42  1  0  0  0  0
 24 43  1  0  0  0  0
 24 44  1  0  0  0  0
 25 23  1  0  0  0  0
 25 45  1  0  0  0  0
 25 46  1  0  0  0  0
 26 22  1  0  0  0  0
 26 19  1  0  0  0  0
 26 47  1  0  0  0  0
 26 48  1  0  0  0  0
 27 20  1  0  0  0  0
 27 49  1  0  0  0  0
 27 50  1  0  0  0  0
 27 51  1  0  0  0  0
 28 21  1  0  0  0  0
 28 52  1  0  0  0  0
 28 53  1  0  0  0  0
 28 54  1  0  0  0  0
M  END
>  <Mol_ID>
8375

>  <Formula>
C20H26N2O6

>  <MolWeight>
390.43024

>  <Cat>
P2061

>  <Name>
WAY-227676

>  <Synonyms>
N/A

>  <Target>
Anti-infection

>  <Form>
free base

>  <CAS>
1427733-94-5

>  <URL>
N/A

$$$$
