WAY-311188
 OpenBabel08302521393D

 45 47  0  0  0  0  0  0  0  0999 V2000
   -0.2520   -1.2197    0.2426 N   0  0  0  0  0  0  0  0  0  0  0  0
    0.9734   -0.5585    0.1700 C   0  0  0  0  0  0  0  0  0  0  0  0
   -1.1902   -0.2174    0.3066 C   0  0  0  0  0  0  0  0  0  0  0  0
   -0.3430   -2.6644    0.1959 C   0  0  0  0  0  0  0  0  0  0  0  0
    2.3233   -1.2039    0.0821 C   0  0  0  0  0  0  0  0  0  0  0  0
    0.7590    0.7408    0.1619 N   0  0  0  0  0  0  0  0  0  0  0  0
   -0.5871    0.9507    0.2508 N   0  0  0  0  0  0  0  0  0  0  0  0
   -2.9119   -0.3171    0.1526 S   0  0  0  0  0  0  0  0  0  0  0  0
   -1.6939   -3.3471    0.2268 C   0  0  0  0  0  0  0  0  0  0  0  0
    2.9727   -1.4387    1.4286 C   0  0  0  0  0  0  0  0  0  0  0  0
   -3.5451   -0.9189    1.7270 C   0  0  0  0  0  0  0  0  0  0  0  0
    3.3221   -2.7355    1.8349 C   0  0  0  0  0  0  0  0  0  0  0  0
    3.2741   -0.3620    2.2772 C   0  0  0  0  0  0  0  0  0  0  0  0
   -3.0932   -0.2107    2.9762 C   0  0  0  0  0  0  0  0  0  0  0  0
    3.9450   -2.9493    3.0659 C   0  0  0  0  0  0  0  0  0  0  0  0
    3.8987   -0.5791    3.5072 C   0  0  0  0  0  0  0  0  0  0  0  0
   -2.9029    1.1474    2.8575 N   0  0  0  0  0  0  0  0  0  0  0  0
   -3.0401   -0.8578    4.0252 O   0  0  0  0  0  0  0  0  0  0  0  0
    4.2324   -1.8727    3.9020 C   0  0  0  0  0  0  0  0  0  0  0  0
   -2.5020    2.0182    3.8873 C   0  0  0  0  0  0  0  0  0  0  0  0
   -1.9846    1.5647    5.0958 C   0  0  0  0  0  0  0  0  0  0  0  0
   -2.6619    3.3864    3.6779 C   0  0  0  0  0  0  0  0  0  0  0  0
   -1.6550    2.4716    6.1099 C   0  0  0  0  0  0  0  0  0  0  0  0
   -2.3461    4.2923    4.6910 C   0  0  0  0  0  0  0  0  0  0  0  0
   -1.8492    3.8330    5.9100 C   0  0  0  0  0  0  0  0  0  0  0  0
    0.1678   -2.9828   -0.7197 H   0  0  0  0  0  0  0  0  0  0  0  0
    0.2377   -3.0340    1.0502 H   0  0  0  0  0  0  0  0  0  0  0  0
    2.2631   -2.1469   -0.4736 H   0  0  0  0  0  0  0  0  0  0  0  0
    2.9938   -0.5679   -0.5118 H   0  0  0  0  0  0  0  0  0  0  0  0
   -2.3833   -2.9372   -0.5170 H   0  0  0  0  0  0  0  0  0  0  0  0
   -1.6028   -4.4141    0.0335 H   0  0  0  0  0  0  0  0  0  0  0  0
   -2.1153   -3.2660    1.2274 H   0  0  0  0  0  0  0  0  0  0  0  0
   -4.6394   -0.8775    1.6937 H   0  0  0  0  0  0  0  0  0  0  0  0
   -3.2982   -1.9663    1.8667 H   0  0  0  0  0  0  0  0  0  0  0  0
    3.1213   -3.5895    1.1934 H   0  0  0  0  0  0  0  0  0  0  0  0
    3.0237    0.6570    1.9833 H   0  0  0  0  0  0  0  0  0  0  0  0
    4.2124   -3.9579    3.3711 H   0  0  0  0  0  0  0  0  0  0  0  0
    4.1258    0.2632    4.1554 H   0  0  0  0  0  0  0  0  0  0  0  0
   -3.0887    1.5620    1.9498 H   0  0  0  0  0  0  0  0  0  0  0  0
    4.7199   -2.0401    4.8589 H   0  0  0  0  0  0  0  0  0  0  0  0
   -1.7900    0.5142    5.2879 H   0  0  0  0  0  0  0  0  0  0  0  0
   -3.0518    3.7666    2.7377 H   0  0  0  0  0  0  0  0  0  0  0  0
   -1.2426    2.1111    7.0498 H   0  0  0  0  0  0  0  0  0  0  0  0
   -2.4895    5.3568    4.5321 H   0  0  0  0  0  0  0  0  0  0  0  0
   -1.6124    4.5375    6.7014 H   0  0  0  0  0  0  0  0  0  0  0  0
  1  2  1  0  0  0  0
  1  3  1  0  0  0  0
  1  4  1  0  0  0  0
  2  5  1  0  0  0  0
  2  6  2  0  0  0  0
  3  7  2  0  0  0  0
  3  8  1  0  0  0  0
  4  9  1  0  0  0  0
  4 26  1  0  0  0  0
  4 27  1  0  0  0  0
  5 10  1  0  0  0  0
  5 28  1  0  0  0  0
  5 29  1  0  0  0  0
  6  7  1  0  0  0  0
  8 11  1  0  0  0  0
  9 30  1  0  0  0  0
  9 31  1  0  0  0  0
  9 32  1  0  0  0  0
 10 12  2  0  0  0  0
 10 13  1  0  0  0  0
 11 14  1  0  0  0  0
 11 33  1  0  0  0  0
 11 34  1  0  0  0  0
 12 15  1  0  0  0  0
 12 35  1  0  0  0  0
 13 16  2  0  0  0  0
 13 36  1  0  0  0  0
 14 17  1  0  0  0  0
 14 18  2  0  0  0  0
 15 19  2  0  0  0  0
 15 37  1  0  0  0  0
 16 19  1  0  0  0  0
 16 38  1  0  0  0  0
 17 20  1  0  0  0  0
 17 39  1  0  0  0  0
 19 40  1  0  0  0  0
 20 21  2  0  0  0  0
 20 22  1  0  0  0  0
 21 23  1  0  0  0  0
 21 41  1  0  0  0  0
 22 24  2  0  0  0  0
 22 42  1  0  0  0  0
 23 25  2  0  0  0  0
 23 43  1  0  0  0  0
 24 25  1  0  0  0  0
 24 44  1  0  0  0  0
 25 45  1  0  0  0  0
M  END
>  <Mol_ID>
8103

>  <Formula>
C19H19ClN4OS

>  <MolWeight>
386.89836

>  <Cat>
P2196

>  <Name>
WAY-311188

>  <Synonyms>
N/A

>  <Target>
11bHSD1

>  <Form>
free base

>  <CAS>
577761-03-6

>  <URL>
N/A

$$$$
