WAY-323876
 OpenBabel08302521423D

 26 28  0  0  0  0  0  0  0  0999 V2000
   -3.9663    2.4283    0.0459 N   0  0  0  0  0  0  0  0  0  0  0  0
   -4.4823    1.2169    0.0312 C   0  0  0  0  0  0  0  0  0  0  0  0
   -5.8616    1.2838    0.0172 N   0  0  0  0  0  0  0  0  0  0  0  0
   -5.0344    3.2963    0.0459 C   0  0  0  0  0  0  0  0  0  0  0  0
   -6.2392    2.6044    0.0249 C   0  0  0  0  0  0  0  0  0  0  0  0
   -3.8729   -0.0647    0.0230 C   0  0  0  0  0  0  0  0  0  0  0  0
   -1.9577   -1.5132    0.0172 C   0  0  0  0  0  0  0  0  0  0  0  0
   -2.5372   -0.2099    0.0436 C   0  0  0  0  0  0  0  0  0  0  0  0
   -2.6978   -2.6766   -0.0614 O   0  0  0  0  0  0  0  0  0  0  0  0
   -0.6159   -1.8870    0.0547 C   0  0  0  0  0  0  0  0  0  0  0  0
   -1.8501   -3.7317   -0.0778 C   0  0  0  0  0  0  0  0  0  0  0  0
   -0.5514   -3.3019   -0.0064 C   0  0  0  0  0  0  0  0  0  0  0  0
   -5.0526    4.6978    0.0640 C   0  0  0  0  0  0  0  0  0  0  0  0
   -7.4879    3.2372    0.0181 C   0  0  0  0  0  0  0  0  0  0  0  0
   -7.4840    4.6386    0.0407 C   0  0  0  0  0  0  0  0  0  0  0  0
   -6.2875    5.3593    0.0643 C   0  0  0  0  0  0  0  0  0  0  0  0
   -6.4915    0.4970    0.0074 H   0  0  0  0  0  0  0  0  0  0  0  0
   -4.5070   -0.9461   -0.0048 H   0  0  0  0  0  0  0  0  0  0  0  0
   -1.8740    0.6522    0.0747 H   0  0  0  0  0  0  0  0  0  0  0  0
    0.2239   -1.2090    0.1169 H   0  0  0  0  0  0  0  0  0  0  0  0
   -2.3176   -4.7041   -0.1427 H   0  0  0  0  0  0  0  0  0  0  0  0
    0.3300   -3.9282   -0.0008 H   0  0  0  0  0  0  0  0  0  0  0  0
   -4.1200    5.2499    0.0792 H   0  0  0  0  0  0  0  0  0  0  0  0
   -8.4198    2.6825   -0.0020 H   0  0  0  0  0  0  0  0  0  0  0  0
   -8.4304    5.1769    0.0401 H   0  0  0  0  0  0  0  0  0  0  0  0
   -6.3101    6.4466    0.0839 H   0  0  0  0  0  0  0  0  0  0  0  0
  2  1  2  0  0  0  0
  3  2  1  0  0  0  0
  3  5  1  0  0  0  0
  3 17  1  0  0  0  0
  4  1  1  0  0  0  0
  5  4  2  0  0  0  0
  6  2  1  0  0  0  0
  6 18  1  0  0  0  0
  7  8  1  0  0  0  0
  8  6  2  0  0  0  0
  8 19  1  0  0  0  0
  9  7  1  0  0  0  0
 10  7  2  0  0  0  0
 10 20  1  0  0  0  0
 11  9  1  0  0  0  0
 11 12  2  0  0  0  0
 11 21  1  0  0  0  0
 12 10  1  0  0  0  0
 12 22  1  0  0  0  0
 13  4  1  0  0  0  0
 13 23  1  0  0  0  0
 14  5  1  0  0  0  0
 14 24  1  0  0  0  0
 15 16  1  0  0  0  0
 15 14  2  0  0  0  0
 15 25  1  0  0  0  0
 16 13  2  0  0  0  0
 16 26  1  0  0  0  0
M  END
>  <Mol_ID>
8588

>  <Formula>
C13H10N2O

>  <MolWeight>
210.2313

>  <Cat>
P2280

>  <Name>
WAY-323876

>  <Synonyms>
N/A

>  <Target>
Anti-infection

>  <Form>
free base

>  <CAS>
18298-50-5

>  <URL>
N/A

$$$$
