WAY-329765
 OpenBabel08302521453D

 54 58  0  0  0  0  0  0  0  0999 V2000
    4.1974    0.0311    0.5686 C   0  0  0  0  0  0  0  0  0  0  0  0
    4.1954   -1.6238    1.0382 S   0  0  0  0  0  0  0  0  0  0  0  0
    2.9003   -1.3882    2.1329 C   0  0  0  0  0  0  0  0  0  0  0  0
    5.1619    0.5381   -0.4022 C   0  0  0  0  0  0  0  0  0  0  0  0
    2.3664   -2.4006    2.8523 N   0  0  0  0  0  0  0  0  0  0  0  0
    3.1617    0.7078    1.1783 C   0  0  0  0  0  0  0  0  0  0  0  0
    2.4965   -0.0646    2.1654 C   0  0  0  0  0  0  0  0  0  0  0  0
    5.6218    1.8525   -0.2355 N   0  0  0  0  0  0  0  0  0  0  0  0
    5.9450    4.7008   -0.3084 N   0  0  0  0  0  0  0  0  0  0  0  0
    1.3255   -2.0563    3.6360 C   0  0  0  0  0  0  0  0  0  0  0  0
    1.5027    0.2886    3.0827 C   0  0  0  0  0  0  0  0  0  0  0  0
    0.8802   -0.7255    3.7952 C   0  0  0  0  0  0  0  0  0  0  0  0
    6.6709    5.8290    0.0178 C   0  0  0  0  0  0  0  0  0  0  0  0
    5.5285    2.6671    0.9870 C   0  0  0  0  0  0  0  0  0  0  0  0
    6.5208    2.4385   -1.2391 C   0  0  0  0  0  0  0  0  0  0  0  0
    5.5345   -0.1344   -1.3618 O   0  0  0  0  0  0  0  0  0  0  0  0
    8.1754    8.1624    0.6530 C   0  0  0  0  0  0  0  0  0  0  0  0
    8.9895    9.3572    1.0199 C   0  0  0  0  0  0  0  0  0  0  0  0
    5.0139    4.0701    0.6350 C   0  0  0  0  0  0  0  0  0  0  0  0
    6.2042    3.9274   -1.5436 C   0  0  0  0  0  0  0  0  0  0  0  0
    0.5975   -3.0376    4.3045 C   0  0  0  0  0  0  0  0  0  0  0  0
    9.2461    9.5884    2.2005 O   0  0  0  0  0  0  0  0  0  0  0  0
    7.1059    6.7192   -0.9735 C   0  0  0  0  0  0  0  0  0  0  0  0
    6.9949    6.1600    1.3433 C   0  0  0  0  0  0  0  0  0  0  0  0
    7.7358    7.3062    1.6618 C   0  0  0  0  0  0  0  0  0  0  0  0
    7.8460    7.8693   -0.6702 C   0  0  0  0  0  0  0  0  0  0  0  0
   -0.1993   -0.4045    4.6206 C   0  0  0  0  0  0  0  0  0  0  0  0
   -0.5421   -2.7369    5.0840 C   0  0  0  0  0  0  0  0  0  0  0  0
   -0.9198   -1.4106    5.2509 C   0  0  0  0  0  0  0  0  0  0  0  0
    9.4944   10.2500   -0.0819 C   0  0  0  0  0  0  0  0  0  0  0  0
   -1.3508   -3.8327    5.7097 C   0  0  0  0  0  0  0  0  0  0  0  0
    2.9135    1.7395    0.9679 H   0  0  0  0  0  0  0  0  0  0  0  0
    1.1890    1.3232    3.1748 H   0  0  0  0  0  0  0  0  0  0  0  0
    4.9136    2.2224    1.7668 H   0  0  0  0  0  0  0  0  0  0  0  0
    6.5371    2.7287    1.4086 H   0  0  0  0  0  0  0  0  0  0  0  0
    7.5347    2.3586   -0.8279 H   0  0  0  0  0  0  0  0  0  0  0  0
    6.5008    1.8673   -2.1725 H   0  0  0  0  0  0  0  0  0  0  0  0
    4.0345    3.9926    0.1439 H   0  0  0  0  0  0  0  0  0  0  0  0
    4.8453    4.6605    1.5410 H   0  0  0  0  0  0  0  0  0  0  0  0
    5.3111    3.9878   -2.1763 H   0  0  0  0  0  0  0  0  0  0  0  0
    7.0429    4.3300   -2.1233 H   0  0  0  0  0  0  0  0  0  0  0  0
    0.9043   -4.0763    4.1826 H   0  0  0  0  0  0  0  0  0  0  0  0
    6.8430    6.5471   -2.0144 H   0  0  0  0  0  0  0  0  0  0  0  0
    6.7071    5.5136    2.1673 H   0  0  0  0  0  0  0  0  0  0  0  0
    7.9715    7.5147    2.7045 H   0  0  0  0  0  0  0  0  0  0  0  0
    8.1424    8.5142   -1.4908 H   0  0  0  0  0  0  0  0  0  0  0  0
   -0.5195    0.6283    4.7416 H   0  0  0  0  0  0  0  0  0  0  0  0
   -1.7891   -1.1461    5.8438 H   0  0  0  0  0  0  0  0  0  0  0  0
   10.1374    9.6835   -0.7613 H   0  0  0  0  0  0  0  0  0  0  0  0
    8.6531   10.6932   -0.6212 H   0  0  0  0  0  0  0  0  0  0  0  0
   10.0880   11.0605    0.3504 H   0  0  0  0  0  0  0  0  0  0  0  0
   -1.6809   -4.5432    4.9429 H   0  0  0  0  0  0  0  0  0  0  0  0
   -0.7616   -4.3581    6.4641 H   0  0  0  0  0  0  0  0  0  0  0  0
   -2.2470   -3.4307    6.1959 H   0  0  0  0  0  0  0  0  0  0  0  0
  2  1  1  0  0  0  0
  3  2  1  0  0  0  0
  3  7  2  0  0  0  0
  4  1  1  0  0  0  0
  5  3  1  0  0  0  0
  6  1  2  0  0  0  0
  6 32  1  0  0  0  0
  7  6  1  0  0  0  0
  8  4  1  0  0  0  0
  9 20  1  0  0  0  0
  9 19  1  0  0  0  0
 10  5  2  0  0  0  0
 10 12  1  0  0  0  0
 11  7  1  0  0  0  0
 11 33  1  0  0  0  0
 12 11  2  0  0  0  0
 13  9  1  0  0  0  0
 14  8  1  0  0  0  0
 14 34  1  0  0  0  0
 14 35  1  0  0  0  0
 15  8  1  0  0  0  0
 15 36  1  0  0  0  0
 15 37  1  0  0  0  0
 16  4  2  0  0  0  0
 17 25  2  0  0  0  0
 17 26  1  0  0  0  0
 18 17  1  0  0  0  0
 19 14  1  0  0  0  0
 19 38  1  0  0  0  0
 19 39  1  0  0  0  0
 20 15  1  0  0  0  0
 20 40  1  0  0  0  0
 20 41  1  0  0  0  0
 21 10  1  0  0  0  0
 21 42  1  0  0  0  0
 22 18  2  0  0  0  0
 23 13  1  0  0  0  0
 23 43  1  0  0  0  0
 24 13  2  0  0  0  0
 24 44  1  0  0  0  0
 25 24  1  0  0  0  0
 25 45  1  0  0  0  0
 26 23  2  0  0  0  0
 26 46  1  0  0  0  0
 27 12  1  0  0  0  0
 27 47  1  0  0  0  0
 28 21  2  0  0  0  0
 28 29  1  0  0  0  0
 29 27  2  0  0  0  0
 29 48  1  0  0  0  0
 30 18  1  0  0  0  0
 30 49  1  0  0  0  0
 30 50  1  0  0  0  0
 30 51  1  0  0  0  0
 31 28  1  0  0  0  0
 31 52  1  0  0  0  0
 31 53  1  0  0  0  0
 31 54  1  0  0  0  0
M  END
>  <Mol_ID>
9329

>  <Formula>
C25H23N3O2S

>  <MolWeight>
429.53402

>  <Cat>
P2599

>  <Name>
WAY-329765

>  <Synonyms>
N/A

>  <Target>
anti-infection

>  <Form>
free base

>  <CAS>
901225-47-6

>  <URL>
N/A

$$$$
