WAY-357819
 OpenBabel08302521393D

 38 40  0  0  0  0  0  0  0  0999 V2000
    2.4126    0.5450    0.2012 N   0  0  0  0  0  0  0  0  0  0  0  0
    3.6445    0.3807   -2.0039 C   0  0  0  0  0  0  0  0  0  0  0  0
    4.3961    1.1847   -2.8490 N   0  0  0  0  0  0  0  0  0  0  0  0
    4.4455    1.0427   -4.2538 C   0  0  0  0  0  0  0  0  0  0  0  0
   -0.0958    0.6166   -0.0508 C   0  0  0  0  0  0  0  0  0  0  0  0
    1.2451    1.2533   -0.3492 C   0  0  0  0  0  0  0  0  0  0  0  0
    3.6568    0.8486   -0.5366 C   0  0  0  0  0  0  0  0  0  0  0  0
   -0.2057   -0.7839   -0.0799 C   0  0  0  0  0  0  0  0  0  0  0  0
    3.0583   -0.6361   -2.3657 O   0  0  0  0  0  0  0  0  0  0  0  0
    3.4368    0.4088   -4.9874 C   0  0  0  0  0  0  0  0  0  0  0  0
    2.2162   -0.8943    0.4499 C   0  0  0  0  0  0  0  0  0  0  0  0
    1.0511   -1.5786   -0.2817 C   0  0  0  0  0  0  0  0  0  0  0  0
   -1.2498    1.3873    0.1200 C   0  0  0  0  0  0  0  0  0  0  0  0
    5.5444    1.5730   -4.9360 C   0  0  0  0  0  0  0  0  0  0  0  0
   -1.4538   -1.4003    0.0370 C   0  0  0  0  0  0  0  0  0  0  0  0
    3.5456    0.2633   -6.3717 C   0  0  0  0  0  0  0  0  0  0  0  0
   -2.4935    0.7681    0.2610 C   0  0  0  0  0  0  0  0  0  0  0  0
    5.6586    1.4172   -6.3203 C   0  0  0  0  0  0  0  0  0  0  0  0
   -2.5957   -0.6224    0.2124 C   0  0  0  0  0  0  0  0  0  0  0  0
    4.6627    0.7556   -7.0381 C   0  0  0  0  0  0  0  0  0  0  0  0
    5.0886    1.7883   -2.4251 H   0  0  0  0  0  0  0  0  0  0  0  0
    1.2582    2.2738    0.0546 H   0  0  0  0  0  0  0  0  0  0  0  0
    1.3032    1.3436   -1.4410 H   0  0  0  0  0  0  0  0  0  0  0  0
    3.8369    1.9297   -0.4955 H   0  0  0  0  0  0  0  0  0  0  0  0
    4.5135    0.3738   -0.0428 H   0  0  0  0  0  0  0  0  0  0  0  0
    2.5404    0.0271   -4.5061 H   0  0  0  0  0  0  0  0  0  0  0  0
    3.1378   -1.4666    0.2865 H   0  0  0  0  0  0  0  0  0  0  0  0
    2.0199   -0.9847    1.5279 H   0  0  0  0  0  0  0  0  0  0  0  0
    1.2344   -1.6740   -1.3548 H   0  0  0  0  0  0  0  0  0  0  0  0
    0.9306   -2.5922    0.1171 H   0  0  0  0  0  0  0  0  0  0  0  0
   -1.1916    2.4733    0.1235 H   0  0  0  0  0  0  0  0  0  0  0  0
    6.3434    2.0785   -4.3999 H   0  0  0  0  0  0  0  0  0  0  0  0
   -1.5389   -2.4831   -0.0122 H   0  0  0  0  0  0  0  0  0  0  0  0
    2.7556   -0.2407   -6.9226 H   0  0  0  0  0  0  0  0  0  0  0  0
   -3.3880    1.3709    0.3920 H   0  0  0  0  0  0  0  0  0  0  0  0
    6.5345    1.7963   -6.8398 H   0  0  0  0  0  0  0  0  0  0  0  0
   -3.5668   -1.1004    0.3072 H   0  0  0  0  0  0  0  0  0  0  0  0
    4.7560    0.6229   -8.1114 H   0  0  0  0  0  0  0  0  0  0  0  0
  2  7  1  0  0  0  0
  3  2  1  0  0  0  0
  3 21  1  0  0  0  0
  4  3  1  0  0  0  0
  5  6  1  0  0  0  0
  6  1  1  0  0  0  0
  6 22  1  0  0  0  0
  6 23  1  0  0  0  0
  7  1  1  0  0  0  0
  7 24  1  0  0  0  0
  7 25  1  0  0  0  0
  8 12  1  0  0  0  0
  8  5  2  0  0  0  0
  9  2  2  0  0  0  0
 10  4  2  0  0  0  0
 10 26  1  0  0  0  0
 11  1  1  0  0  0  0
 11 27  1  0  0  0  0
 11 28  1  0  0  0  0
 12 11  1  0  0  0  0
 12 29  1  0  0  0  0
 12 30  1  0  0  0  0
 13  5  1  0  0  0  0
 13 31  1  0  0  0  0
 14  4  1  0  0  0  0
 14 32  1  0  0  0  0
 15  8  1  0  0  0  0
 15 33  1  0  0  0  0
 16 10  1  0  0  0  0
 16 34  1  0  0  0  0
 17 13  2  0  0  0  0
 17 19  1  0  0  0  0
 17 35  1  0  0  0  0
 18 14  2  0  0  0  0
 18 36  1  0  0  0  0
 19 15  2  0  0  0  0
 19 37  1  0  0  0  0
 20 18  1  0  0  0  0
 20 16  2  0  0  0  0
 20 38  1  0  0  0  0
M  END
>  <Mol_ID>
8072

>  <Formula>
C17H17ClN2O

>  <MolWeight>
300.78268

>  <Cat>
P2775

>  <Name>
WAY-357819

>  <Synonyms>
N/A

>  <Target>
HIV-1 reverse

>  <Form>
free base

>  <CAS>
848594-00-3

>  <URL>
N/A

$$$$
