WAY-325089
 OpenBabel08302521423D

 37 39  0  0  0  0  0  0  0  0999 V2000
    1.2539    0.7411   -0.1465 C   0  0  0  0  0  0  0  0  0  0  0  0
    2.3953    1.5960   -0.4672 C   0  0  0  0  0  0  0  0  0  0  0  0
    1.2962   -0.6441   -0.2217 N   0  0  0  0  0  0  0  0  0  0  0  0
    0.0205    1.2582    0.2052 C   0  0  0  0  0  0  0  0  0  0  0  0
    3.3392    1.1911   -1.4212 C   0  0  0  0  0  0  0  0  0  0  0  0
    2.5348    2.8616    0.1257 C   0  0  0  0  0  0  0  0  0  0  0  0
    0.1037   -1.1397    0.0251 C   0  0  0  0  0  0  0  0  0  0  0  0
   -1.1044   -0.0064    0.4263 S   0  0  0  0  0  0  0  0  0  0  0  0
    4.3732    2.0560   -1.8030 C   0  0  0  0  0  0  0  0  0  0  0  0
    3.5632    3.7227   -0.2608 C   0  0  0  0  0  0  0  0  0  0  0  0
   -0.1489   -2.4880    0.0154 N   0  0  0  0  0  0  0  0  0  0  0  0
    4.4746    3.3228   -1.2338 C   0  0  0  0  0  0  0  0  0  0  0  0
   -1.3866   -3.0962    0.0323 C   0  0  0  0  0  0  0  0  0  0  0  0
   -1.3530   -4.6208    0.0246 C   0  0  0  0  0  0  0  0  0  0  0  0
   -2.4733   -2.5267   -0.0533 O   0  0  0  0  0  0  0  0  0  0  0  0
    0.0794   -5.3295    0.8843 S   0  0  0  0  0  0  0  0  0  0  0  0
   -0.2680   -4.6579    2.4862 C   0  0  0  0  0  0  0  0  0  0  0  0
   -1.4331   -4.9950    3.0581 N   0  0  0  0  0  0  0  0  0  0  0  0
    0.6169   -3.7827    2.9824 N   0  0  0  0  0  0  0  0  0  0  0  0
   -1.7228   -4.4125    4.2391 C   0  0  0  0  0  0  0  0  0  0  0  0
    0.2889   -3.2222    4.1595 C   0  0  0  0  0  0  0  0  0  0  0  0
   -0.8761   -3.5014    4.8369 C   0  0  0  0  0  0  0  0  0  0  0  0
   -3.0259   -4.7975    4.8699 C   0  0  0  0  0  0  0  0  0  0  0  0
   -0.2831    2.2863    0.3162 H   0  0  0  0  0  0  0  0  0  0  0  0
    3.2628    0.2121   -1.8896 H   0  0  0  0  0  0  0  0  0  0  0  0
    1.8421    3.1956    0.8920 H   0  0  0  0  0  0  0  0  0  0  0  0
    5.0874    1.7447   -2.5616 H   0  0  0  0  0  0  0  0  0  0  0  0
    3.6430    4.7059    0.1962 H   0  0  0  0  0  0  0  0  0  0  0  0
    0.6841   -3.0624   -0.0194 H   0  0  0  0  0  0  0  0  0  0  0  0
    5.2663    4.0028   -1.5442 H   0  0  0  0  0  0  0  0  0  0  0  0
   -2.2745   -4.9922    0.4861 H   0  0  0  0  0  0  0  0  0  0  0  0
   -1.3430   -4.9529   -1.0182 H   0  0  0  0  0  0  0  0  0  0  0  0
    1.0126   -2.5147    4.5548 H   0  0  0  0  0  0  0  0  0  0  0  0
   -1.1053   -3.0277    5.7821 H   0  0  0  0  0  0  0  0  0  0  0  0
   -3.8539   -4.5070    4.2158 H   0  0  0  0  0  0  0  0  0  0  0  0
   -3.0571   -5.8812    5.0206 H   0  0  0  0  0  0  0  0  0  0  0  0
   -3.1668   -4.3133    5.8403 H   0  0  0  0  0  0  0  0  0  0  0  0
  1  2  1  0  0  0  0
  1  3  1  0  0  0  0
  1  4  2  0  0  0  0
  2  5  2  0  0  0  0
  2  6  1  0  0  0  0
  3  7  2  0  0  0  0
  4  8  1  0  0  0  0
  4 24  1  0  0  0  0
  5  9  1  0  0  0  0
  5 25  1  0  0  0  0
  6 10  2  0  0  0  0
  6 26  1  0  0  0  0
  7 11  1  0  0  0  0
  7  8  1  0  0  0  0
  9 12  2  0  0  0  0
  9 27  1  0  0  0  0
 10 12  1  0  0  0  0
 10 28  1  0  0  0  0
 11 13  1  0  0  0  0
 11 29  1  0  0  0  0
 12 30  1  0  0  0  0
 13 14  1  0  0  0  0
 13 15  2  0  0  0  0
 14 16  1  0  0  0  0
 14 31  1  0  0  0  0
 14 32  1  0  0  0  0
 16 17  1  0  0  0  0
 17 18  2  0  0  0  0
 17 19  1  0  0  0  0
 18 20  1  0  0  0  0
 19 21  2  0  0  0  0
 20 22  2  0  0  0  0
 20 23  1  0  0  0  0
 21 22  1  0  0  0  0
 21 33  1  0  0  0  0
 22 34  1  0  0  0  0
 23 35  1  0  0  0  0
 23 36  1  0  0  0  0
 23 37  1  0  0  0  0
M  END
>  <Mol_ID>
8670

>  <Formula>
C16H14N4OS2

>  <MolWeight>
342.43856

>  <Cat>
P2369

>  <Name>
WAY-325089

>  <Synonyms>
N/A

>  <Target>
TMEM16A

>  <Form>
free base

>  <CAS>
483977-96-4

>  <URL>
N/A

$$$$
