WAY-328178
 OpenBabel08302521353D

 41 43  0  0  0  0  0  0  0  0999 V2000
    0.8925    0.1490    0.0373 C   0  0  0  0  0  0  0  0  0  0  0  0
    0.2928   -1.0885    0.1038 N   0  0  0  0  0  0  0  0  0  0  0  0
    0.2373    1.1950   -0.0061 O   0  0  0  0  0  0  0  0  0  0  0  0
   -1.1544   -1.2276    0.0934 C   0  0  0  0  0  0  0  0  0  0  0  0
   -1.7734   -1.3114   -1.3255 C   0  0  0  0  0  0  0  0  0  0  0  0
    4.4462    0.8857    0.0512 C   0  0  0  0  0  0  0  0  0  0  0  0
    3.1503    1.3289    0.0212 C   0  0  0  0  0  0  0  0  0  0  0  0
    4.4352   -0.4809    0.0865 O   0  0  0  0  0  0  0  0  0  0  0  0
    2.3507    0.1625    0.0485 C   0  0  0  0  0  0  0  0  0  0  0  0
    3.1192   -0.9397    0.0842 N   0  0  0  0  0  0  0  0  0  0  0  0
    5.7357    1.5670    0.0491 C   0  0  0  0  0  0  0  0  0  0  0  0
    5.7739    2.9716    0.0917 C   0  0  0  0  0  0  0  0  0  0  0  0
    6.9498    0.8721   -0.0065 C   0  0  0  0  0  0  0  0  0  0  0  0
    6.9883    3.6662    0.0646 C   0  0  0  0  0  0  0  0  0  0  0  0
    8.1648    1.5645   -0.0320 C   0  0  0  0  0  0  0  0  0  0  0  0
    8.1816    2.9592    0.0022 C   0  0  0  0  0  0  0  0  0  0  0  0
   -1.1896   -2.3852   -2.1318 N   0  0  0  0  0  0  0  0  0  0  0  0
   -1.5489   -3.7418   -1.6838 C   0  0  0  0  0  0  0  0  0  0  0  0
   -1.4759   -2.2951   -3.5782 C   0  0  0  0  0  0  0  0  0  0  0  0
   -0.6441   -4.7383   -2.4220 C   0  0  0  0  0  0  0  0  0  0  0  0
   -0.5793   -3.3171   -4.3048 C   0  0  0  0  0  0  0  0  0  0  0  0
   -0.8306   -4.6554   -3.8430 O   0  0  0  0  0  0  0  0  0  0  0  0
    0.8894   -1.9043    0.0288 H   0  0  0  0  0  0  0  0  0  0  0  0
   -1.3918   -2.1108    0.6919 H   0  0  0  0  0  0  0  0  0  0  0  0
   -1.5872   -0.3638    0.6110 H   0  0  0  0  0  0  0  0  0  0  0  0
   -2.8613   -1.4192   -1.2385 H   0  0  0  0  0  0  0  0  0  0  0  0
   -1.5823   -0.3514   -1.8214 H   0  0  0  0  0  0  0  0  0  0  0  0
    2.8012    2.3510   -0.0105 H   0  0  0  0  0  0  0  0  0  0  0  0
    4.8560    3.5539    0.1447 H   0  0  0  0  0  0  0  0  0  0  0  0
    6.9667   -0.2147   -0.0373 H   0  0  0  0  0  0  0  0  0  0  0  0
    6.9903    4.7501    0.0978 H   0  0  0  0  0  0  0  0  0  0  0  0
    9.1010    1.0135   -0.0832 H   0  0  0  0  0  0  0  0  0  0  0  0
    9.1268    3.4945   -0.0231 H   0  0  0  0  0  0  0  0  0  0  0  0
   -2.6052   -3.9579   -1.8985 H   0  0  0  0  0  0  0  0  0  0  0  0
   -1.3952   -3.8649   -0.6089 H   0  0  0  0  0  0  0  0  0  0  0  0
   -2.5323   -2.5148   -3.7896 H   0  0  0  0  0  0  0  0  0  0  0  0
   -1.2570   -1.2945   -3.9669 H   0  0  0  0  0  0  0  0  0  0  0  0
    0.4100   -4.5470   -2.1826 H   0  0  0  0  0  0  0  0  0  0  0  0
   -0.8761   -5.7605   -2.1097 H   0  0  0  0  0  0  0  0  0  0  0  0
   -0.7670   -3.2981   -5.3830 H   0  0  0  0  0  0  0  0  0  0  0  0
    0.4804   -3.0771   -4.1496 H   0  0  0  0  0  0  0  0  0  0  0  0
  1  2  1  0  0  0  0
  1  3  2  0  0  0  0
  1  9  1  0  0  0  0
  2  4  1  0  0  0  0
  2 23  1  0  0  0  0
  4  5  1  0  0  0  0
  4 24  1  0  0  0  0
  4 25  1  0  0  0  0
  5 17  1  0  0  0  0
  5 26  1  0  0  0  0
  5 27  1  0  0  0  0
  6  7  2  0  0  0  0
  6  8  1  0  0  0  0
  6 11  1  0  0  0  0
  7  9  1  0  0  0  0
  7 28  1  0  0  0  0
  8 10  1  0  0  0  0
  9 10  2  0  0  0  0
 11 12  2  0  0  0  0
 11 13  1  0  0  0  0
 12 14  1  0  0  0  0
 12 29  1  0  0  0  0
 13 15  2  0  0  0  0
 13 30  1  0  0  0  0
 14 16  2  0  0  0  0
 14 31  1  0  0  0  0
 15 16  1  0  0  0  0
 15 32  1  0  0  0  0
 16 33  1  0  0  0  0
 17 18  1  0  0  0  0
 17 19  1  0  0  0  0
 18 20  1  0  0  0  0
 18 34  1  0  0  0  0
 18 35  1  0  0  0  0
 19 21  1  0  0  0  0
 19 36  1  0  0  0  0
 19 37  1  0  0  0  0
 20 22  1  0  0  0  0
 20 38  1  0  0  0  0
 20 39  1  0  0  0  0
 21 22  1  0  0  0  0
 21 40  1  0  0  0  0
 21 41  1  0  0  0  0
M  END
>  <Mol_ID>
6926

>  <Formula>
C16H18ClN3O3

>  <MolWeight>
335.78542

>  <Cat>
E2810

>  <Name>
WAY-328178

>  <Target>
Others

>  <Form>
Free base

>  <CAS>
909090-75-1

>  <URL>
https://www.selleckchem.com/products/way-328178.html

$$$$
