WAY-656018
 OpenBabel08302521423D

 33 35  0  0  0  0  0  0  0  0999 V2000
   -0.2775   -0.7101   -0.4720 C   0  0  0  0  0  0  0  0  0  0  0  0
   -0.2988    0.6754   -0.5688 C   0  0  0  0  0  0  0  0  0  0  0  0
   -1.5997   -1.0501   -0.3033 N   0  0  0  0  0  0  0  0  0  0  0  0
    0.9005   -1.4596   -0.5513 C   0  0  0  0  0  0  0  0  0  0  0  0
   -1.5748    1.1491   -0.4538 N   0  0  0  0  0  0  0  0  0  0  0  0
    0.8999    1.3760   -0.7604 C   0  0  0  0  0  0  0  0  0  0  0  0
   -2.3510    0.1042   -0.3093 C   0  0  0  0  0  0  0  0  0  0  0  0
    2.0887   -0.7412   -0.7487 C   0  0  0  0  0  0  0  0  0  0  0  0
    2.0921    0.6523   -0.8534 C   0  0  0  0  0  0  0  0  0  0  0  0
   -3.7227    0.0863   -0.1689 N   0  0  0  0  0  0  0  0  0  0  0  0
   -4.4460    1.2743   -0.1366 C   0  0  0  0  0  0  0  0  0  0  0  0
   -5.9502    1.0786    0.0963 C   0  0  0  0  0  0  0  0  0  0  0  0
   -3.9842    2.4078   -0.2390 O   0  0  0  0  0  0  0  0  0  0  0  0
   -6.7311    0.8388   -1.0662 O   0  0  0  0  0  0  0  0  0  0  0  0
   -7.3245    1.9324   -1.6438 C   0  0  0  0  0  0  0  0  0  0  0  0
   -6.7763    3.2149   -1.6947 C   0  0  0  0  0  0  0  0  0  0  0  0
   -8.5439    1.6931   -2.2844 C   0  0  0  0  0  0  0  0  0  0  0  0
   -7.4377    4.2427   -2.3756 C   0  0  0  0  0  0  0  0  0  0  0  0
   -9.2102    2.7223   -2.9587 C   0  0  0  0  0  0  0  0  0  0  0  0
   -8.6527    3.9976   -3.0075 C   0  0  0  0  0  0  0  0  0  0  0  0
   -1.9520   -1.9874   -0.1959 H   0  0  0  0  0  0  0  0  0  0  0  0
    0.9073   -2.5398   -0.4716 H   0  0  0  0  0  0  0  0  0  0  0  0
    0.8850    2.4577   -0.8392 H   0  0  0  0  0  0  0  0  0  0  0  0
    3.0330   -1.2797   -0.8244 H   0  0  0  0  0  0  0  0  0  0  0  0
    3.0275    1.1845   -1.0099 H   0  0  0  0  0  0  0  0  0  0  0  0
   -4.2055   -0.7959   -0.0872 H   0  0  0  0  0  0  0  0  0  0  0  0
   -6.0746    0.1986    0.7399 H   0  0  0  0  0  0  0  0  0  0  0  0
   -6.3327    1.9179    0.6917 H   0  0  0  0  0  0  0  0  0  0  0  0
   -5.8199    3.4502   -1.2430 H   0  0  0  0  0  0  0  0  0  0  0  0
   -8.9845    0.7005   -2.2586 H   0  0  0  0  0  0  0  0  0  0  0  0
   -6.9883    5.2325   -2.4220 H   0  0  0  0  0  0  0  0  0  0  0  0
  -10.1576    2.5251   -3.4534 H   0  0  0  0  0  0  0  0  0  0  0  0
   -9.1577    4.7964   -3.5466 H   0  0  0  0  0  0  0  0  0  0  0  0
  1  2  2  0  0  0  0
  1  3  1  0  0  0  0
  1  4  1  0  0  0  0
  2  5  1  0  0  0  0
  2  6  1  0  0  0  0
  3  7  1  0  0  0  0
  3 21  1  0  0  0  0
  4  8  2  0  0  0  0
  4 22  1  0  0  0  0
  5  7  2  0  0  0  0
  6  9  2  0  0  0  0
  6 23  1  0  0  0  0
  7 10  1  0  0  0  0
  8  9  1  0  0  0  0
  8 24  1  0  0  0  0
  9 25  1  0  0  0  0
 10 11  1  0  0  0  0
 10 26  1  0  0  0  0
 11 12  1  0  0  0  0
 11 13  2  0  0  0  0
 12 14  1  0  0  0  0
 12 27  1  0  0  0  0
 12 28  1  0  0  0  0
 14 15  1  0  0  0  0
 15 16  2  0  0  0  0
 15 17  1  0  0  0  0
 16 18  1  0  0  0  0
 16 29  1  0  0  0  0
 17 19  2  0  0  0  0
 17 30  1  0  0  0  0
 18 20  2  0  0  0  0
 18 31  1  0  0  0  0
 19 20  1  0  0  0  0
 19 32  1  0  0  0  0
 20 33  1  0  0  0  0
M  END
>  <Mol_ID>
8523

>  <Formula>
C15H12ClN3O2

>  <MolWeight>
301.72768

>  <Cat>
P3134

>  <Name>
WAY-656018

>  <Synonyms>
N/A

>  <Target>
Anti-infection

>  <Form>
free base

>  <CAS>
107249-99-0

>  <URL>
N/A

$$$$
