WAY-311571
 OpenBabel08302521403D

 48 50  0  0  0  0  0  0  0  0999 V2000
    2.3164    2.1770   -1.3153 C   0  0  0  0  0  0  0  0  0  0  0  0
    1.7863    3.4497   -1.0675 C   0  0  0  0  0  0  0  0  0  0  0  0
    1.5898    1.2827   -2.1080 C   0  0  0  0  0  0  0  0  0  0  0  0
    3.6501    1.9136   -0.7062 C   0  0  0  0  0  0  0  0  0  0  0  0
    0.5445    3.8281   -1.5711 C   0  0  0  0  0  0  0  0  0  0  0  0
    0.3373    1.6697   -2.6171 C   0  0  0  0  0  0  0  0  0  0  0  0
    4.0090    0.6035   -0.4493 N   0  0  0  0  0  0  0  0  0  0  0  0
    4.3424    2.8704   -0.3750 O   0  0  0  0  0  0  0  0  0  0  0  0
   -0.1932    2.9370   -2.3430 C   0  0  0  0  0  0  0  0  0  0  0  0
    5.1891    0.1753    0.1290 C   0  0  0  0  0  0  0  0  0  0  0  0
   -1.4278    3.1972   -2.8743 O   0  0  0  0  0  0  0  0  0  0  0  0
    6.0793    1.1675    0.4823 N   0  0  0  0  0  0  0  0  0  0  0  0
    5.3541   -1.4720    0.3906 S   0  0  0  0  0  0  0  0  0  0  0  0
   -1.9848    4.4763   -2.5758 C   0  0  0  0  0  0  0  0  0  0  0  0
    7.4861    1.1149    0.5440 C   0  0  0  0  0  0  0  0  0  0  0  0
    8.2089    0.2282   -0.2521 C   0  0  0  0  0  0  0  0  0  0  0  0
    8.1772    2.0266    1.3420 C   0  0  0  0  0  0  0  0  0  0  0  0
    9.6047    0.1750   -0.2123 C   0  0  0  0  0  0  0  0  0  0  0  0
    9.5725    1.9580    1.4271 C   0  0  0  0  0  0  0  0  0  0  0  0
   10.3445   -0.7162   -1.0259 N   0  0  0  0  0  0  0  0  0  0  0  0
   10.2826    1.0160    0.6723 C   0  0  0  0  0  0  0  0  0  0  0  0
    9.8512   -1.3241   -2.1728 C   0  0  0  0  0  0  0  0  0  0  0  0
   10.7001   -2.3623   -2.8148 C   0  0  0  0  0  0  0  0  0  0  0  0
    8.7937   -1.0463   -2.7317 O   0  0  0  0  0  0  0  0  0  0  0  0
   11.6154   -3.1461   -2.1045 C   0  0  0  0  0  0  0  0  0  0  0  0
   10.4878   -2.6125   -4.1799 C   0  0  0  0  0  0  0  0  0  0  0  0
   12.3127   -4.1637   -2.7647 C   0  0  0  0  0  0  0  0  0  0  0  0
   11.1824   -3.6279   -4.8323 C   0  0  0  0  0  0  0  0  0  0  0  0
   12.0947   -4.4041   -4.1233 C   0  0  0  0  0  0  0  0  0  0  0  0
    2.3437    4.1662   -0.4647 H   0  0  0  0  0  0  0  0  0  0  0  0
    1.9764    0.3018   -2.3719 H   0  0  0  0  0  0  0  0  0  0  0  0
    0.1930    4.8267   -1.3372 H   0  0  0  0  0  0  0  0  0  0  0  0
   -0.2305    0.9799   -3.2395 H   0  0  0  0  0  0  0  0  0  0  0  0
    3.3731   -0.1450   -0.6829 H   0  0  0  0  0  0  0  0  0  0  0  0
    5.6632    2.0845    0.6549 H   0  0  0  0  0  0  0  0  0  0  0  0
   -2.0836    4.6270   -1.4945 H   0  0  0  0  0  0  0  0  0  0  0  0
   -1.3902    5.2772   -3.0296 H   0  0  0  0  0  0  0  0  0  0  0  0
   -2.9892    4.5207   -3.0059 H   0  0  0  0  0  0  0  0  0  0  0  0
    7.6665   -0.4068   -0.9399 H   0  0  0  0  0  0  0  0  0  0  0  0
    7.6419    2.7673    1.9307 H   0  0  0  0  0  0  0  0  0  0  0  0
   10.1101    2.6429    2.0793 H   0  0  0  0  0  0  0  0  0  0  0  0
   11.3284   -0.8093   -0.8239 H   0  0  0  0  0  0  0  0  0  0  0  0
   11.3652    0.9867    0.7558 H   0  0  0  0  0  0  0  0  0  0  0  0
   11.7648   -3.0156   -1.0369 H   0  0  0  0  0  0  0  0  0  0  0  0
    9.7583   -2.0237   -4.7344 H   0  0  0  0  0  0  0  0  0  0  0  0
   13.0117   -4.7896   -2.2151 H   0  0  0  0  0  0  0  0  0  0  0  0
   10.9950   -3.8192   -5.8858 H   0  0  0  0  0  0  0  0  0  0  0  0
   12.6243   -5.2082   -4.6278 H   0  0  0  0  0  0  0  0  0  0  0  0
  1  2  2  0  0  0  0
  1  3  1  0  0  0  0
  1  4  1  0  0  0  0
  2  5  1  0  0  0  0
  2 30  1  0  0  0  0
  3  6  2  0  0  0  0
  3 31  1  0  0  0  0
  4  7  1  0  0  0  0
  4  8  2  0  0  0  0
  5  9  2  0  0  0  0
  5 32  1  0  0  0  0
  6  9  1  0  0  0  0
  6 33  1  0  0  0  0
  7 10  1  0  0  0  0
  7 34  1  0  0  0  0
  9 11  1  0  0  0  0
 10 12  1  0  0  0  0
 10 13  2  0  0  0  0
 11 14  1  0  0  0  0
 12 15  1  0  0  0  0
 12 35  1  0  0  0  0
 14 36  1  0  0  0  0
 14 37  1  0  0  0  0
 14 38  1  0  0  0  0
 15 16  2  0  0  0  0
 15 17  1  0  0  0  0
 16 18  1  0  0  0  0
 16 39  1  0  0  0  0
 17 19  2  0  0  0  0
 17 40  1  0  0  0  0
 18 20  1  0  0  0  0
 18 21  2  0  0  0  0
 19 21  1  0  0  0  0
 19 41  1  0  0  0  0
 20 22  1  0  0  0  0
 20 42  1  0  0  0  0
 21 43  1  0  0  0  0
 22 23  1  0  0  0  0
 22 24  2  0  0  0  0
 23 25  2  0  0  0  0
 23 26  1  0  0  0  0
 25 27  1  0  0  0  0
 25 44  1  0  0  0  0
 26 28  2  0  0  0  0
 26 45  1  0  0  0  0
 27 29  2  0  0  0  0
 27 46  1  0  0  0  0
 28 29  1  0  0  0  0
 28 47  1  0  0  0  0
 29 48  1  0  0  0  0
M  END
>  <Mol_ID>
8283

>  <Formula>
C22H19N3O3S

>  <MolWeight>
405.46956

>  <Cat>
P2207

>  <Name>
WAY-311571

>  <Synonyms>
N/A

>  <Target>
Hedgehog

>  <Form>
free base

>  <CAS>
333739-88-1

>  <URL>
N/A

$$$$
