WAY-324714
 OpenBabel08302521423D

 42 45  0  0  0  0  0  0  0  0999 V2000
   -1.1096   -1.0048    1.2507 C   0  0  0  0  0  0  0  0  0  0  0  0
   -1.1088   -3.3589    0.4748 C   0  0  0  0  0  0  0  0  0  0  0  0
   -1.5290    0.2381    1.0938 N   0  0  0  0  0  0  0  0  0  0  0  0
   -1.6500   -2.0794    0.5676 N   0  0  0  0  0  0  0  0  0  0  0  0
   -2.1144   -4.3991   -0.0425 C   0  0  3  0  0  0  0  0  0  0  0  0
   -0.8474    1.0914    1.9717 C   0  0  0  0  0  0  0  0  0  0  0  0
   -1.6004   -5.8551   -0.2587 C   0  0  3  0  0  0  0  0  0  0  0  0
   -2.7112   -4.0719   -1.4293 C   0  0  3  0  0  0  0  0  0  0  0  0
   -2.2156   -6.2326   -1.6418 C   0  0  3  0  0  0  0  0  0  0  0  0
    0.0502   -1.2395    2.4772 S   0  0  0  0  0  0  0  0  0  0  0  0
    0.0502    0.4391    2.7973 C   0  0  0  0  0  0  0  0  0  0  0  0
   -2.1105   -6.8239    0.7863 C   0  0  0  0  0  0  0  0  0  0  0  0
   -3.4768   -5.3664   -1.7001 C   0  0  0  0  0  0  0  0  0  0  0  0
   -1.0414    2.5490    2.0052 C   0  0  0  0  0  0  0  0  0  0  0  0
    0.0277   -3.6857    0.7997 O   0  0  0  0  0  0  0  0  0  0  0  0
   -1.3809   -5.5991   -2.7555 C   0  0  0  0  0  0  0  0  0  0  0  0
   -1.6228   -4.1020   -2.5294 C   0  0  0  0  0  0  0  0  0  0  0  0
   -2.7583   -7.8437    0.5985 O   0  0  0  0  0  0  0  0  0  0  0  0
   -0.7341    3.3048    3.1560 C   0  0  0  0  0  0  0  0  0  0  0  0
   -1.5099    3.2418    0.8790 C   0  0  0  0  0  0  0  0  0  0  0  0
   -1.7101   -6.5072    2.0306 O   0  0  0  0  0  0  0  0  0  0  0  0
   -1.3326    5.3625    2.0456 C   0  0  0  0  0  0  0  0  0  0  0  0
   -0.8761    4.6992    3.1777 C   0  0  0  0  0  0  0  0  0  0  0  0
   -1.6539    4.6393    0.9006 C   0  0  0  0  0  0  0  0  0  0  0  0
   -1.5235    7.2413    2.0707 Br  0  0  0  0  0  0  0  0  0  0  0  0
   -2.4619   -1.8323    0.0219 H   0  0  0  0  0  0  0  0  0  0  0  0
   -2.9208   -4.4135    0.7050 H   0  0  0  0  0  0  0  0  0  0  0  0
   -0.5070   -5.9386   -0.2888 H   0  0  0  0  0  0  0  0  0  0  0  0
   -3.3205   -3.1672   -1.4506 H   0  0  0  0  0  0  0  0  0  0  0  0
   -2.3921   -7.2995   -1.8017 H   0  0  0  0  0  0  0  0  0  0  0  0
    0.7070    0.8459    3.5515 H   0  0  0  0  0  0  0  0  0  0  0  0
   -3.9720   -5.3799   -2.6752 H   0  0  0  0  0  0  0  0  0  0  0  0
   -4.2052   -5.6109   -0.9191 H   0  0  0  0  0  0  0  0  0  0  0  0
   -0.3236   -5.8755   -2.7138 H   0  0  0  0  0  0  0  0  0  0  0  0
   -1.7702   -5.8997   -3.7372 H   0  0  0  0  0  0  0  0  0  0  0  0
   -0.7019   -3.5899   -2.2345 H   0  0  0  0  0  0  0  0  0  0  0  0
   -1.9867   -3.6414   -3.4540 H   0  0  0  0  0  0  0  0  0  0  0  0
   -0.3803    2.8237    4.0661 H   0  0  0  0  0  0  0  0  0  0  0  0
   -1.7535    2.6978   -0.0313 H   0  0  0  0  0  0  0  0  0  0  0  0
   -2.0221   -7.2606    2.5761 H   0  0  0  0  0  0  0  0  0  0  0  0
   -0.6213    5.2515    4.0792 H   0  0  0  0  0  0  0  0  0  0  0  0
   -2.0061    5.1539    0.0068 H   0  0  0  0  0  0  0  0  0  0  0  0
  2  4  1  0  0  0  0
  3  1  2  0  0  0  0
  4  1  1  0  0  0  0
  4 26  1  0  0  0  0
  5  2  1  0  0  0  0
  5 27  1  0  0  0  0
  6  3  1  0  0  0  0
  6 11  2  0  0  0  0
  7  5  1  0  0  0  0
  7 28  1  0  0  0  0
  8  5  1  0  0  0  0
  8 29  1  0  0  0  0
  9  7  1  0  0  0  0
  9 13  1  0  0  0  0
  9 30  1  0  0  0  0
 10  1  1  0  0  0  0
 11 10  1  0  0  0  0
 11 31  1  0  0  0  0
 12  7  1  0  0  0  0
 13  8  1  0  0  0  0
 13 32  1  0  0  0  0
 13 33  1  0  0  0  0
 14  6  1  0  0  0  0
 15  2  2  0  0  0  0
 16 17  1  0  0  0  0
 16  9  1  0  0  0  0
 16 34  1  0  0  0  0
 16 35  1  0  0  0  0
 17  8  1  0  0  0  0
 17 36  1  0  0  0  0
 17 37  1  0  0  0  0
 18 12  2  0  0  0  0
 19 14  2  0  0  0  0
 19 38  1  0  0  0  0
 20 14  1  0  0  0  0
 20 39  1  0  0  0  0
 21 12  1  0  0  0  0
 21 40  1  0  0  0  0
 22 24  1  0  0  0  0
 23 19  1  0  0  0  0
 23 22  2  0  0  0  0
 23 41  1  0  0  0  0
 24 20  2  0  0  0  0
 24 42  1  0  0  0  0
 25 22  1  0  0  0  0
M  END
>  <Mol_ID>
8622

>  <Formula>
C18H17BrN2O3S

>  <MolWeight>
421.30818

>  <Cat>
P2344

>  <Name>
WAY-324714

>  <Synonyms>
N/A

>  <Target>
Anti-infection

>  <Form>
free base

>  <CAS>
849658-83-9

>  <URL>
N/A

$$$$
