WAY-325415
 OpenBabel08302521433D

 42 44  0  0  0  0  0  0  0  0999 V2000
   -0.1087    1.0500   -0.0432 C   0  0  0  0  0  0  0  0  0  0  0  0
   -0.6443    2.4213   -0.0625 C   0  0  0  0  0  0  0  0  0  0  0  0
    0.1418    3.4450   -0.6253 N   0  0  0  0  0  0  0  0  0  0  0  0
   -0.9961   -0.0087   -0.0605 O   0  0  0  0  0  0  0  0  0  0  0  0
    1.1701    0.5112    0.0093 C   0  0  0  0  0  0  0  0  0  0  0  0
   -0.2677   -1.1597   -0.1213 C   0  0  0  0  0  0  0  0  0  0  0  0
   -2.0481   -4.1719   -1.0965 C   0  0  0  0  0  0  0  0  0  0  0  0
    1.8553    5.6937   -1.5555 N   0  0  0  0  0  0  0  0  0  0  0  0
    1.0742   -0.8794   -0.1758 C   0  0  0  0  0  0  0  0  0  0  0  0
   -2.2467   -4.8945    0.0887 C   0  0  0  0  0  0  0  0  0  0  0  0
   -1.3497   -2.9916   -1.1950 O   0  0  0  0  0  0  0  0  0  0  0  0
   -2.5995   -4.6570   -2.2844 C   0  0  0  0  0  0  0  0  0  0  0  0
   -1.7710    2.6828    0.3844 O   0  0  0  0  0  0  0  0  0  0  0  0
   -0.3229    4.8347   -0.5244 C   0  0  0  0  0  0  0  0  0  0  0  0
    1.5688    3.2777   -0.8938 C   0  0  0  0  0  0  0  0  0  0  0  0
   -3.3686   -5.8244   -2.2808 C   0  0  0  0  0  0  0  0  0  0  0  0
   -3.0087   -6.0625    0.0902 C   0  0  0  0  0  0  0  0  0  0  0  0
    2.2212    4.3015   -1.8234 C   0  0  0  0  0  0  0  0  0  0  0  0
    0.3800    5.7882   -1.5198 C   0  0  0  0  0  0  0  0  0  0  0  0
   -0.9701   -2.4477    0.0670 C   0  0  0  0  0  0  0  0  0  0  0  0
   -3.5781   -6.5237   -1.0921 C   0  0  0  0  0  0  0  0  0  0  0  0
    2.4762    6.1808   -0.3283 C   0  0  0  0  0  0  0  0  0  0  0  0
    2.1060    1.0387    0.1351 H   0  0  0  0  0  0  0  0  0  0  0  0
    1.8808   -1.5947   -0.2211 H   0  0  0  0  0  0  0  0  0  0  0  0
   -1.8300   -4.5782    1.0382 H   0  0  0  0  0  0  0  0  0  0  0  0
   -2.4447   -4.1164   -3.2137 H   0  0  0  0  0  0  0  0  0  0  0  0
   -1.4057    4.8715   -0.6949 H   0  0  0  0  0  0  0  0  0  0  0  0
   -0.1483    5.1680    0.5055 H   0  0  0  0  0  0  0  0  0  0  0  0
    2.0708    3.2739    0.0807 H   0  0  0  0  0  0  0  0  0  0  0  0
    1.7156    2.3282   -1.4025 H   0  0  0  0  0  0  0  0  0  0  0  0
   -3.8137   -6.1845   -3.2038 H   0  0  0  0  0  0  0  0  0  0  0  0
   -3.1630   -6.6035    1.0209 H   0  0  0  0  0  0  0  0  0  0  0  0
    1.9325    4.0571   -2.8529 H   0  0  0  0  0  0  0  0  0  0  0  0
    3.3094    4.1640   -1.7848 H   0  0  0  0  0  0  0  0  0  0  0  0
    0.0141    5.5568   -2.5303 H   0  0  0  0  0  0  0  0  0  0  0  0
    0.0816    6.8249   -1.3282 H   0  0  0  0  0  0  0  0  0  0  0  0
   -0.2579   -3.1284    0.5532 H   0  0  0  0  0  0  0  0  0  0  0  0
   -1.8420   -2.2908    0.7113 H   0  0  0  0  0  0  0  0  0  0  0  0
   -4.1848   -7.4233   -1.0847 H   0  0  0  0  0  0  0  0  0  0  0  0
    2.1707    5.6271    0.5661 H   0  0  0  0  0  0  0  0  0  0  0  0
    3.5685    6.1151   -0.4036 H   0  0  0  0  0  0  0  0  0  0  0  0
    2.2359    7.2383   -0.1769 H   0  0  0  0  0  0  0  0  0  0  0  0
  2  1  1  0  0  0  0
  3  2  1  0  0  0  0
  4  1  1  0  0  0  0
  5  1  2  0  0  0  0
  5 23  1  0  0  0  0
  6  4  1  0  0  0  0
  6  9  2  0  0  0  0
  7 11  1  0  0  0  0
  8 18  1  0  0  0  0
  9  5  1  0  0  0  0
  9 24  1  0  0  0  0
 10  7  2  0  0  0  0
 10 25  1  0  0  0  0
 11 20  1  0  0  0  0
 12  7  1  0  0  0  0
 12 26  1  0  0  0  0
 13  2  2  0  0  0  0
 14  3  1  0  0  0  0
 14 27  1  0  0  0  0
 14 28  1  0  0  0  0
 15  3  1  0  0  0  0
 15 29  1  0  0  0  0
 15 30  1  0  0  0  0
 16 12  2  0  0  0  0
 16 31  1  0  0  0  0
 17 10  1  0  0  0  0
 17 32  1  0  0  0  0
 18 15  1  0  0  0  0
 18 33  1  0  0  0  0
 18 34  1  0  0  0  0
 19 14  1  0  0  0  0
 19  8  1  0  0  0  0
 19 35  1  0  0  0  0
 19 36  1  0  0  0  0
 20  6  1  0  0  0  0
 20 37  1  0  0  0  0
 20 38  1  0  0  0  0
 21 16  1  0  0  0  0
 21 17  2  0  0  0  0
 21 39  1  0  0  0  0
 22  8  1  0  0  0  0
 22 40  1  0  0  0  0
 22 41  1  0  0  0  0
 22 42  1  0  0  0  0
M  END
>  <Mol_ID>
8689

>  <Formula>
C17H18Cl2N2O3

>  <MolWeight>
369.24242

>  <Cat>
P2388

>  <Name>
WAY-325415

>  <Synonyms>
N/A

>  <Target>
Others

>  <Form>
free base

>  <CAS>
438474-97-6

>  <URL>
N/A

$$$$
