WAY-312084
 OpenBabel08302521403D

 29 30  0  0  0  0  0  0  0  0999 V2000
    0.6832    6.5775    2.4998 C   0  0  0  0  0  0  0  0  0  0  0  0
    0.2808    5.6135    1.4798 C   0  0  0  0  0  0  0  0  0  0  0  0
    1.9805    6.9748    2.7761 C   0  0  0  0  0  0  0  0  0  0  0  0
   -0.4295    7.3295    3.5658 S   0  0  0  0  0  0  0  0  0  0  0  0
   -1.0716    5.5821    1.1955 N   0  0  0  0  0  0  0  0  0  0  0  0
    1.1136    4.9419    0.8734 O   0  0  0  0  0  0  0  0  0  0  0  0
    2.0615    7.8623    3.8859 C   0  0  0  0  0  0  0  0  0  0  0  0
    0.8216    8.1288    4.4206 C   0  0  0  0  0  0  0  0  0  0  0  0
   -1.8467    4.6752    0.4882 C   0  0  0  0  0  0  0  0  0  0  0  0
   -3.1350    5.1020    0.2509 N   0  0  0  0  0  0  0  0  0  0  0  0
   -1.4250    3.1267    0.0349 S   0  0  0  0  0  0  0  0  0  0  0  0
   -3.4980    6.4392    0.0105 C   0  0  0  0  0  0  0  0  0  0  0  0
   -4.8371    6.8204    0.0590 C   0  0  0  0  0  0  0  0  0  0  0  0
   -2.5001    7.3066   -0.2739 N   0  0  0  0  0  0  0  0  0  0  0  0
   -5.1368    8.1559   -0.2420 C   0  0  0  0  0  0  0  0  0  0  0  0
   -5.9241    5.8796    0.4814 C   0  0  0  0  0  0  0  0  0  0  0  0
   -2.8258    8.5705   -0.6031 C   0  0  0  0  0  0  0  0  0  0  0  0
   -4.1209    9.0411   -0.5918 C   0  0  0  0  0  0  0  0  0  0  0  0
    2.8301    6.6180    2.2074 H   0  0  0  0  0  0  0  0  0  0  0  0
   -1.5944    6.3758    1.5481 H   0  0  0  0  0  0  0  0  0  0  0  0
    2.9855    8.2710    4.2766 H   0  0  0  0  0  0  0  0  0  0  0  0
    0.5917    8.7543    5.2724 H   0  0  0  0  0  0  0  0  0  0  0  0
   -3.7967    4.3894   -0.0250 H   0  0  0  0  0  0  0  0  0  0  0  0
   -6.1606    8.5168   -0.1991 H   0  0  0  0  0  0  0  0  0  0  0  0
   -6.0879    5.1126   -0.2811 H   0  0  0  0  0  0  0  0  0  0  0  0
   -5.6594    5.3988    1.4301 H   0  0  0  0  0  0  0  0  0  0  0  0
   -6.8690    6.4085    0.6448 H   0  0  0  0  0  0  0  0  0  0  0  0
   -1.9914    9.2057   -0.8841 H   0  0  0  0  0  0  0  0  0  0  0  0
   -4.3336   10.0745   -0.8396 H   0  0  0  0  0  0  0  0  0  0  0  0
  1  2  1  0  0  0  0
  1  3  2  0  0  0  0
  1  4  1  0  0  0  0
  2  5  1  0  0  0  0
  2  6  2  0  0  0  0
  3  7  1  0  0  0  0
  3 19  1  0  0  0  0
  4  8  1  0  0  0  0
  5  9  1  0  0  0  0
  5 20  1  0  0  0  0
  7  8  2  0  0  0  0
  7 21  1  0  0  0  0
  8 22  1  0  0  0  0
  9 10  1  0  0  0  0
  9 11  2  0  0  0  0
 10 12  1  0  0  0  0
 10 23  1  0  0  0  0
 12 13  2  0  0  0  0
 12 14  1  0  0  0  0
 13 15  1  0  0  0  0
 13 16  1  0  0  0  0
 14 17  2  0  0  0  0
 15 18  2  0  0  0  0
 15 24  1  0  0  0  0
 16 25  1  0  0  0  0
 16 26  1  0  0  0  0
 16 27  1  0  0  0  0
 17 18  1  0  0  0  0
 17 28  1  0  0  0  0
 18 29  1  0  0  0  0
M  END
>  <Mol_ID>
8280

>  <Formula>
C12H11N3OS2

>  <MolWeight>
277.36524

>  <Cat>
P2224

>  <Name>
WAY-312084

>  <Synonyms>
N/A

>  <Target>
Bax/Bak

>  <Form>
free base

>  <CAS>
335209-06-8

>  <URL>
N/A

$$$$
