WAY-358871
 OpenBabel08302521343D

 28 29  0  0  0  0  0  0  0  0999 V2000
    1.2734    0.2798    0.0993 N   0  0  0  0  0  0  0  0  0  0  0  0
    0.3489    1.2492    0.0610 N   0  0  0  0  0  0  0  0  0  0  0  0
   -0.7984    0.5421   -0.0218 C   0  0  0  0  0  0  0  0  0  0  0  0
   -0.5859   -0.8247   -0.0272 N   0  0  0  0  0  0  0  0  0  0  0  0
    0.7144   -0.9659    0.0422 C   0  0  0  0  0  0  0  0  0  0  0  0
   -2.1347    1.1650   -0.1015 C   0  0  0  0  0  0  0  0  0  0  0  0
   -2.3309    2.3779   -0.0908 O   0  0  0  0  0  0  0  0  0  0  0  0
   -3.1435    0.2419   -0.1924 O   0  0  0  0  0  0  0  0  0  0  0  0
    1.4697   -2.1181    0.0600 N   0  0  0  0  0  0  0  0  0  0  0  0
    0.8662   -3.3611   -0.0131 C   0  0  0  0  0  0  0  0  0  0  0  0
    1.7844   -4.5402    0.0063 C   0  0  0  0  0  0  0  0  0  0  0  0
    3.0268   -4.5329    0.6586 C   0  0  0  0  0  0  0  0  0  0  0  0
    3.8146   -5.6898    0.6665 C   0  0  0  0  0  0  0  0  0  0  0  0
    3.3602   -6.8435    0.0340 C   0  0  0  0  0  0  0  0  0  0  0  0
    2.1297   -6.8687   -0.6085 C   0  0  0  0  0  0  0  0  0  0  0  0
    1.3402   -5.7181   -0.6202 C   0  0  0  0  0  0  0  0  0  0  0  0
   -0.3334   -3.5862   -0.1155 O   0  0  0  0  0  0  0  0  0  0  0  0
    4.1154   -7.9488    0.0568 F   0  0  0  0  0  0  0  0  0  0  0  0
   -4.4490    0.8116   -0.2751 C   0  0  0  0  0  0  0  0  0  0  0  0
    2.2486    0.5393    0.1686 H   0  0  0  0  0  0  0  0  0  0  0  0
    2.4748   -2.0424    0.0642 H   0  0  0  0  0  0  0  0  0  0  0  0
    3.3833   -3.6626    1.1997 H   0  0  0  0  0  0  0  0  0  0  0  0
    4.7730   -5.7086    1.1775 H   0  0  0  0  0  0  0  0  0  0  0  0
    1.7846   -7.7810   -1.0852 H   0  0  0  0  0  0  0  0  0  0  0  0
    0.3682   -5.7418   -1.1112 H   0  0  0  0  0  0  0  0  0  0  0  0
   -4.6683    1.4022    0.6201 H   0  0  0  0  0  0  0  0  0  0  0  0
   -4.5439    1.4251   -1.1766 H   0  0  0  0  0  0  0  0  0  0  0  0
   -5.1761   -0.0036   -0.3357 H   0  0  0  0  0  0  0  0  0  0  0  0
  1  2  1  0  0  0  0
  1  5  1  0  0  0  0
  1 20  1  0  0  0  0
  2  3  2  0  0  0  0
  3  4  1  0  0  0  0
  3  6  1  0  0  0  0
  4  5  2  0  0  0  0
  5  9  1  0  0  0  0
  6  7  2  0  0  0  0
  6  8  1  0  0  0  0
  8 19  1  0  0  0  0
  9 10  1  0  0  0  0
  9 21  1  0  0  0  0
 10 11  1  0  0  0  0
 10 17  2  0  0  0  0
 11 12  2  0  0  0  0
 11 16  1  0  0  0  0
 12 13  1  0  0  0  0
 12 22  1  0  0  0  0
 13 14  2  0  0  0  0
 13 23  1  0  0  0  0
 14 15  1  0  0  0  0
 14 18  1  0  0  0  0
 15 16  2  0  0  0  0
 15 24  1  0  0  0  0
 16 25  1  0  0  0  0
 19 26  1  0  0  0  0
 19 27  1  0  0  0  0
 19 28  1  0  0  0  0
M  END
>  <Mol_ID>
6466

>  <Formula>
C11H9FN4O3

>  <MolWeight>
264.2125632

>  <Cat>
E2520

>  <Name>
WAY-358871

>  <Target>
Others

>  <Form>
free base

>  <CAS>
328108-09-4

>  <URL>
http://www.selleckchem.com/products/way-358871.html

$$$$
