WAY-332071
 OpenBabel08302521453D

 55 58  0  0  0  0  0  0  0  0999 V2000
   -3.6892    6.2835   -3.3932 C   0  0  0  0  0  0  0  0  0  0  0  0
   -3.1733    5.8246   -2.2678 N   0  0  0  0  0  0  0  0  0  0  0  0
   -3.0406    4.4661   -2.4803 C   0  0  0  0  0  0  0  0  0  0  0  0
   -3.9240    5.3111   -4.3302 O   0  0  0  0  0  0  0  0  0  0  0  0
   -3.9740    7.6579   -3.7873 C   0  0  0  0  0  0  0  0  0  0  0  0
   -3.5024    4.1533   -3.7415 C   0  0  0  0  0  0  0  0  0  0  0  0
    1.3074    5.3576   -1.4942 C   0  0  0  0  0  0  0  0  0  0  0  0
    1.7815    6.6395   -1.2452 N   0  0  0  0  0  0  0  0  0  0  0  0
   -0.1925    5.1409   -1.3895 C   0  0  0  0  0  0  0  0  0  0  0  0
   -0.6593    3.3932   -1.6242 S   0  0  3  0  0  0  0  0  0  0  0  0
    2.8285    9.2363   -1.8211 N   0  0  0  0  0  0  0  0  0  0  0  0
   -2.4581    3.5947   -1.4363 C   0  0  0  0  0  0  0  0  0  0  0  0
   -3.6438    8.7127   -2.9225 C   0  0  0  0  0  0  0  0  0  0  0  0
    0.9766    7.8331   -0.9371 C   0  0  0  0  0  0  0  0  0  0  0  0
    3.2322    6.8748   -1.2366 C   0  0  0  0  0  0  0  0  0  0  0  0
    1.3679    9.0493   -1.8146 C   0  0  0  0  0  0  0  0  0  0  0  0
    3.6147    8.0378   -2.1617 C   0  0  0  0  0  0  0  0  0  0  0  0
    2.0794    4.4573   -1.8313 O   0  0  0  0  0  0  0  0  0  0  0  0
    3.4230   10.4204   -1.4335 C   0  0  0  0  0  0  0  0  0  0  0  0
   -0.1975    2.6195   -0.4213 O   0  0  0  0  0  0  0  0  0  0  0  0
   -4.5503    7.9648   -5.0289 C   0  0  0  0  0  0  0  0  0  0  0  0
   -3.6063    2.9278   -4.5518 C   0  0  0  0  0  0  0  0  0  0  0  0
   -3.8719   10.0398   -3.2939 C   0  0  0  0  0  0  0  0  0  0  0  0
    2.8324   11.6645   -1.7033 C   0  0  0  0  0  0  0  0  0  0  0  0
    4.6529   10.4437   -0.7569 C   0  0  0  0  0  0  0  0  0  0  0  0
   -4.7823    9.2928   -5.4003 C   0  0  0  0  0  0  0  0  0  0  0  0
   -4.4408   10.3274   -4.5330 C   0  0  0  0  0  0  0  0  0  0  0  0
    3.4381   12.8694   -1.3239 C   0  0  0  0  0  0  0  0  0  0  0  0
    5.2680   11.6422   -0.3752 C   0  0  0  0  0  0  0  0  0  0  0  0
    4.6588   12.8570   -0.6589 C   0  0  0  0  0  0  0  0  0  0  0  0
   -0.6505    5.7284   -2.1887 H   0  0  0  0  0  0  0  0  0  0  0  0
   -0.5531    5.4640   -0.4092 H   0  0  0  0  0  0  0  0  0  0  0  0
   -2.6620    3.9861   -0.4348 H   0  0  0  0  0  0  0  0  0  0  0  0
   -2.8936    2.5906   -1.4924 H   0  0  0  0  0  0  0  0  0  0  0  0
   -3.2005    8.5021   -1.9504 H   0  0  0  0  0  0  0  0  0  0  0  0
   -0.0920    7.6369   -1.0471 H   0  0  0  0  0  0  0  0  0  0  0  0
    1.1641    8.0690    0.1175 H   0  0  0  0  0  0  0  0  0  0  0  0
    3.5073    7.1100   -0.2013 H   0  0  0  0  0  0  0  0  0  0  0  0
    3.7883    5.9786   -1.5275 H   0  0  0  0  0  0  0  0  0  0  0  0
    1.0317    8.8822   -2.8450 H   0  0  0  0  0  0  0  0  0  0  0  0
    0.8314    9.9246   -1.4319 H   0  0  0  0  0  0  0  0  0  0  0  0
    3.3902    7.7662   -3.2009 H   0  0  0  0  0  0  0  0  0  0  0  0
    4.6960    8.2033   -2.1219 H   0  0  0  0  0  0  0  0  0  0  0  0
   -4.8201    7.1717   -5.7234 H   0  0  0  0  0  0  0  0  0  0  0  0
   -4.6392    2.7678   -4.8758 H   0  0  0  0  0  0  0  0  0  0  0  0
   -2.9760    3.0110   -5.4428 H   0  0  0  0  0  0  0  0  0  0  0  0
   -3.2843    2.0472   -3.9879 H   0  0  0  0  0  0  0  0  0  0  0  0
   -3.6058   10.8483   -2.6180 H   0  0  0  0  0  0  0  0  0  0  0  0
    1.8986   11.7193   -2.2561 H   0  0  0  0  0  0  0  0  0  0  0  0
    5.1541    9.5190   -0.4879 H   0  0  0  0  0  0  0  0  0  0  0  0
   -5.2278    9.5141   -6.3661 H   0  0  0  0  0  0  0  0  0  0  0  0
   -4.6186   11.3598   -4.8243 H   0  0  0  0  0  0  0  0  0  0  0  0
    2.9576   13.8149   -1.5605 H   0  0  0  0  0  0  0  0  0  0  0  0
    6.2206   11.6160    0.1473 H   0  0  0  0  0  0  0  0  0  0  0  0
    5.1342   13.7887   -0.3660 H   0  0  0  0  0  0  0  0  0  0  0  0
  2  1  2  0  0  0  0
  3  2  1  0  0  0  0
  4  1  1  0  0  0  0
  5  1  1  0  0  0  0
  6  4  1  0  0  0  0
  6  3  2  0  0  0  0
  7  9  1  0  0  0  0
  8  7  1  0  0  0  0
  9 10  1  0  0  0  0
  9 31  1  0  0  0  0
  9 32  1  0  0  0  0
 10 12  1  0  0  0  0
 11 17  1  0  0  0  0
 12  3  1  0  0  0  0
 12 33  1  0  0  0  0
 12 34  1  0  0  0  0
 13  5  2  0  0  0  0
 13 35  1  0  0  0  0
 14  8  1  0  0  0  0
 14 36  1  0  0  0  0
 14 37  1  0  0  0  0
 15  8  1  0  0  0  0
 15 38  1  0  0  0  0
 15 39  1  0  0  0  0
 16 14  1  0  0  0  0
 16 11  1  0  0  0  0
 16 40  1  0  0  0  0
 16 41  1  0  0  0  0
 17 15  1  0  0  0  0
 17 42  1  0  0  0  0
 17 43  1  0  0  0  0
 18  7  2  0  0  0  0
 19 11  1  0  0  0  0
 20 10  2  0  0  0  0
 21  5  1  0  0  0  0
 21 44  1  0  0  0  0
 22  6  1  0  0  0  0
 22 45  1  0  0  0  0
 22 46  1  0  0  0  0
 22 47  1  0  0  0  0
 23 13  1  0  0  0  0
 23 48  1  0  0  0  0
 24 19  2  0  0  0  0
 24 49  1  0  0  0  0
 25 19  1  0  0  0  0
 25 50  1  0  0  0  0
 26 21  2  0  0  0  0
 26 51  1  0  0  0  0
 27 26  1  0  0  0  0
 27 23  2  0  0  0  0
 27 52  1  0  0  0  0
 28 24  1  0  0  0  0
 28 53  1  0  0  0  0
 29 25  2  0  0  0  0
 29 54  1  0  0  0  0
 30 29  1  0  0  0  0
 30 28  2  0  0  0  0
 30 55  1  0  0  0  0
M  END
>  <Mol_ID>
9275

>  <Formula>
C23H24ClN3O3S

>  <MolWeight>
457.97296

>  <Cat>
P2713

>  <Name>
WAY-332071

>  <Synonyms>
N/A

>  <Target>
beta-catenin

>  <Form>
free base

>  <CAS>
1015865-08-3

>  <URL>
N/A

$$$$
