WAY-324109
 OpenBabel08302521423D

 39 41  0  0  0  0  0  0  0  0999 V2000
   -4.0528    0.7719   -0.3819 C   0  0  0  0  0  0  0  0  0  0  0  0
   -3.1063    1.7428   -0.2657 O   0  0  0  0  0  0  0  0  0  0  0  0
   -1.3946    1.5127   -2.0634 C   0  0  0  0  0  0  0  0  0  0  0  0
   -1.7308    1.4576   -0.5604 C   0  0  3  0  0  0  0  0  0  0  0  0
   -3.5723   -0.6067   -0.6533 C   0  0  0  0  0  0  0  0  0  0  0  0
   -2.2266   -0.9366   -0.4491 C   0  0  0  0  0  0  0  0  0  0  0  0
   -2.1327    2.4548   -2.7643 N   0  0  0  0  0  0  0  0  0  0  0  0
   -1.2979    0.1287    0.0584 C   0  0  0  0  0  0  0  0  0  0  0  0
   -5.2449    1.0277   -0.2746 O   0  0  0  0  0  0  0  0  0  0  0  0
   -0.4835    0.8256   -2.5266 O   0  0  0  0  0  0  0  0  0  0  0  0
   -1.9973    2.7588   -4.1379 C   0  0  0  0  0  0  0  0  0  0  0  0
   -1.6527    3.5455   -6.8300 C   0  0  0  0  0  0  0  0  0  0  0  0
   -1.2956    1.9506   -5.0347 C   0  0  0  0  0  0  0  0  0  0  0  0
   -2.5802    3.9367   -4.6135 C   0  0  0  0  0  0  0  0  0  0  0  0
   -2.3963    4.3351   -5.9449 C   0  0  0  0  0  0  0  0  0  0  0  0
   -1.1185    2.3415   -6.3665 C   0  0  0  0  0  0  0  0  0  0  0  0
   -1.7797   -2.2315   -0.7305 C   0  0  0  0  0  0  0  0  0  0  0  0
   -4.4697   -1.5704   -1.1231 C   0  0  0  0  0  0  0  0  0  0  0  0
   -1.4020    3.9924   -8.2479 C   0  0  0  0  0  0  0  0  0  0  0  0
   -2.6736   -3.1844   -1.2225 C   0  0  0  0  0  0  0  0  0  0  0  0
   -0.1292    4.8197   -8.3721 C   0  0  0  0  0  0  0  0  0  0  0  0
   -4.0159   -2.8570   -1.4151 C   0  0  0  0  0  0  0  0  0  0  0  0
   -1.1432    2.2585   -0.0949 H   0  0  0  0  0  0  0  0  0  0  0  0
   -2.7605    3.0397   -2.2210 H   0  0  0  0  0  0  0  0  0  0  0  0
   -0.2566   -0.1039   -0.1901 H   0  0  0  0  0  0  0  0  0  0  0  0
   -1.3869    0.1682    1.1505 H   0  0  0  0  0  0  0  0  0  0  0  0
   -0.8709    0.9975   -4.7336 H   0  0  0  0  0  0  0  0  0  0  0  0
   -3.1526    4.5827   -3.9529 H   0  0  0  0  0  0  0  0  0  0  0  0
   -2.8269    5.2755   -6.2826 H   0  0  0  0  0  0  0  0  0  0  0  0
   -0.5497    1.6958   -7.0310 H   0  0  0  0  0  0  0  0  0  0  0  0
   -0.7340   -2.4995   -0.5953 H   0  0  0  0  0  0  0  0  0  0  0  0
   -5.5177   -1.3189   -1.2750 H   0  0  0  0  0  0  0  0  0  0  0  0
   -1.3319    3.1148   -8.9031 H   0  0  0  0  0  0  0  0  0  0  0  0
   -2.2577    4.5736   -8.6084 H   0  0  0  0  0  0  0  0  0  0  0  0
   -2.3202   -4.1847   -1.4641 H   0  0  0  0  0  0  0  0  0  0  0  0
   -0.1705    5.7133   -7.7409 H   0  0  0  0  0  0  0  0  0  0  0  0
    0.7532    4.2412   -8.0784 H   0  0  0  0  0  0  0  0  0  0  0  0
    0.0104    5.1434   -9.4088 H   0  0  0  0  0  0  0  0  0  0  0  0
   -4.7082   -3.6023   -1.7990 H   0  0  0  0  0  0  0  0  0  0  0  0
  2  1  1  0  0  0  0
  3  4  1  0  0  0  0
  4  2  1  0  0  0  0
  4 23  1  0  0  0  0
  5  1  1  0  0  0  0
  6  5  2  0  0  0  0
  7  3  1  0  0  0  0
  7 24  1  0  0  0  0
  8  6  1  0  0  0  0
  8  4  1  0  0  0  0
  8 25  1  0  0  0  0
  8 26  1  0  0  0  0
  9  1  2  0  0  0  0
 10  3  2  0  0  0  0
 11  7  1  0  0  0  0
 12 15  2  0  0  0  0
 12 16  1  0  0  0  0
 13 11  1  0  0  0  0
 13 27  1  0  0  0  0
 14 11  2  0  0  0  0
 14 28  1  0  0  0  0
 15 14  1  0  0  0  0
 15 29  1  0  0  0  0
 16 13  2  0  0  0  0
 16 30  1  0  0  0  0
 17  6  1  0  0  0  0
 17 31  1  0  0  0  0
 18  5  1  0  0  0  0
 18 32  1  0  0  0  0
 19 12  1  0  0  0  0
 19 33  1  0  0  0  0
 19 34  1  0  0  0  0
 20 22  1  0  0  0  0
 20 17  2  0  0  0  0
 20 35  1  0  0  0  0
 21 19  1  0  0  0  0
 21 36  1  0  0  0  0
 21 37  1  0  0  0  0
 21 38  1  0  0  0  0
 22 18  2  0  0  0  0
 22 39  1  0  0  0  0
M  END
>  <Mol_ID>
8609

>  <Formula>
C18H17NO3

>  <MolWeight>
295.33248

>  <Cat>
P2304

>  <Name>
WAY-324109

>  <Synonyms>
N/A

>  <Target>
Androgen Receptor

>  <Form>
free base

>  <CAS>
1351360-79-6

>  <URL>
N/A

$$$$
