WAY-332001
 OpenBabel08302521443D

 51 53  0  0  0  0  0  0  0  0999 V2000
   -0.8233    1.0232    1.5723 N   0  0  0  0  0  0  0  0  0  0  0  0
   -1.1450   -0.2541    1.4753 C   0  0  0  0  0  0  0  0  0  0  0  0
   -0.3619    1.3694    0.3090 C   0  0  0  0  0  0  0  0  0  0  0  0
   -0.8785   -0.7939    0.2455 O   0  0  0  0  0  0  0  0  0  0  0  0
   -0.3957    0.2459   -0.4971 C   0  0  0  0  0  0  0  0  0  0  0  0
   -1.7922   -1.1433    2.4426 C   0  0  0  0  0  0  0  0  0  0  0  0
   -0.2509    6.0798   -0.3471 C   0  0  0  0  0  0  0  0  0  0  0  0
    0.3574    7.3182   -0.5131 N   0  0  0  0  0  0  0  0  0  0  0  0
   -2.3123   -0.6264    3.6408 C   0  0  0  0  0  0  0  0  0  0  0  0
   -0.9227    5.8067    0.6405 O   0  0  0  0  0  0  0  0  0  0  0  0
   -0.8349    3.5130   -1.3790 S   0  0  0  0  0  0  0  0  0  0  0  0
    0.0866    2.7700    0.0164 C   0  0  0  0  0  0  0  0  0  0  0  0
   -2.9961   -1.4491    4.5525 C   0  0  0  0  0  0  0  0  0  0  0  0
    0.0085    8.4566    0.3406 C   0  0  0  0  0  0  0  0  0  0  0  0
    0.0010    5.1281   -1.5142 C   0  0  0  0  0  0  0  0  0  0  0  0
   -0.0899   -0.0673   -1.9035 C   0  0  0  0  0  0  0  0  0  0  0  0
   -1.9483   -2.5158    2.1881 C   0  0  0  0  0  0  0  0  0  0  0  0
   -2.6148   -3.3446    3.0942 C   0  0  0  0  0  0  0  0  0  0  0  0
   -3.1373   -2.8125    4.2705 C   0  0  0  0  0  0  0  0  0  0  0  0
   -3.5663   -0.8916    5.8237 C   0  0  0  0  0  0  0  0  0  0  0  0
   -1.1990    9.1944   -0.2597 C   0  0  0  0  0  0  0  0  0  0  0  0
    1.2067    9.4021    0.5110 C   0  0  0  0  0  0  0  0  0  0  0  0
   -1.5483   10.4675    0.5065 C   0  0  0  0  0  0  0  0  0  0  0  0
    0.8344   10.6693    1.2849 C   0  0  0  0  0  0  0  0  0  0  0  0
   -0.3436   11.3913    0.6411 C   0  0  0  0  0  0  0  0  0  0  0  0
    0.7780    7.5288   -1.4094 H   0  0  0  0  0  0  0  0  0  0  0  0
   -2.1984    0.4361    3.8526 H   0  0  0  0  0  0  0  0  0  0  0  0
   -0.0578    3.3846    0.9091 H   0  0  0  0  0  0  0  0  0  0  0  0
    1.1555    2.7609   -0.2233 H   0  0  0  0  0  0  0  0  0  0  0  0
   -0.2734    8.0743    1.3299 H   0  0  0  0  0  0  0  0  0  0  0  0
    1.0755    4.9874   -1.6630 H   0  0  0  0  0  0  0  0  0  0  0  0
   -0.4040    5.6098   -2.4120 H   0  0  0  0  0  0  0  0  0  0  0  0
    0.6775   -0.8451   -1.9663 H   0  0  0  0  0  0  0  0  0  0  0  0
   -0.9892   -0.4395   -2.4058 H   0  0  0  0  0  0  0  0  0  0  0  0
    0.2675    0.8073   -2.4518 H   0  0  0  0  0  0  0  0  0  0  0  0
   -1.5590   -2.9535    1.2711 H   0  0  0  0  0  0  0  0  0  0  0  0
   -2.7337   -4.4030    2.8767 H   0  0  0  0  0  0  0  0  0  0  0  0
   -3.6629   -3.4651    4.9649 H   0  0  0  0  0  0  0  0  0  0  0  0
   -4.6179   -1.1810    5.9250 H   0  0  0  0  0  0  0  0  0  0  0  0
   -3.0072   -1.2702    6.6852 H   0  0  0  0  0  0  0  0  0  0  0  0
   -3.5228    0.2018    5.8386 H   0  0  0  0  0  0  0  0  0  0  0  0
   -0.9845    9.4554   -1.3048 H   0  0  0  0  0  0  0  0  0  0  0  0
   -2.0710    8.5312   -0.2803 H   0  0  0  0  0  0  0  0  0  0  0  0
    2.0187    8.8825    1.0338 H   0  0  0  0  0  0  0  0  0  0  0  0
    1.6028    9.6850   -0.4727 H   0  0  0  0  0  0  0  0  0  0  0  0
   -2.3598   10.9941   -0.0084 H   0  0  0  0  0  0  0  0  0  0  0  0
   -1.9211   10.2024    1.5031 H   0  0  0  0  0  0  0  0  0  0  0  0
    1.6989   11.3413    1.3276 H   0  0  0  0  0  0  0  0  0  0  0  0
    0.5819   10.4071    2.3184 H   0  0  0  0  0  0  0  0  0  0  0  0
   -0.0510   11.7620   -0.3493 H   0  0  0  0  0  0  0  0  0  0  0  0
   -0.6147   12.2680    1.2415 H   0  0  0  0  0  0  0  0  0  0  0  0
  2  1  2  0  0  0  0
  3  1  1  0  0  0  0
  4  2  1  0  0  0  0
  4  5  1  0  0  0  0
  5  3  2  0  0  0  0
  6  2  1  0  0  0  0
  7 15  1  0  0  0  0
  8  7  1  0  0  0  0
  8 26  1  0  0  0  0
  9  6  2  0  0  0  0
  9 27  1  0  0  0  0
 10  7  2  0  0  0  0
 11 12  1  0  0  0  0
 12  3  1  0  0  0  0
 12 28  1  0  0  0  0
 12 29  1  0  0  0  0
 13  9  1  0  0  0  0
 14  8  1  0  0  0  0
 14 30  1  0  0  0  0
 15 11  1  0  0  0  0
 15 31  1  0  0  0  0
 15 32  1  0  0  0  0
 16  5  1  0  0  0  0
 16 33  1  0  0  0  0
 16 34  1  0  0  0  0
 16 35  1  0  0  0  0
 17  6  1  0  0  0  0
 17 36  1  0  0  0  0
 18 17  2  0  0  0  0
 18 37  1  0  0  0  0
 19 18  1  0  0  0  0
 19 13  2  0  0  0  0
 19 38  1  0  0  0  0
 20 13  1  0  0  0  0
 20 39  1  0  0  0  0
 20 40  1  0  0  0  0
 20 41  1  0  0  0  0
 21 14  1  0  0  0  0
 21 42  1  0  0  0  0
 21 43  1  0  0  0  0
 22 14  1  0  0  0  0
 22 44  1  0  0  0  0
 22 45  1  0  0  0  0
 23 21  1  0  0  0  0
 23 46  1  0  0  0  0
 23 47  1  0  0  0  0
 24 22  1  0  0  0  0
 24 48  1  0  0  0  0
 24 49  1  0  0  0  0
 25 24  1  0  0  0  0
 25 23  1  0  0  0  0
 25 50  1  0  0  0  0
 25 51  1  0  0  0  0
M  END
>  <Mol_ID>
9216

>  <Formula>
C20H26N2O2S

>  <MolWeight>
358.49764

>  <Cat>
P2658

>  <Name>
WAY-332001

>  <Synonyms>
N/A

>  <Target>
beta-catenin

>  <Form>
free base

>  <CAS>
901722-57-4

>  <URL>
N/A

$$$$
