WAY-331965
 OpenBabel08302521453D

 51 53  0  0  0  0  0  0  0  0999 V2000
   -0.2214   -0.8385   -0.7346 C   0  0  0  0  0  0  0  0  0  0  0  0
    0.5425    0.2199   -0.5287 N   0  0  0  0  0  0  0  0  0  0  0  0
   -0.2900    1.1415    0.0746 C   0  0  0  0  0  0  0  0  0  0  0  0
   -1.5035   -0.6865   -0.2627 O   0  0  0  0  0  0  0  0  0  0  0  0
   -1.5388    0.5824    0.2414 C   0  0  0  0  0  0  0  0  0  0  0  0
    0.0757   -2.1145   -1.3966 C   0  0  0  0  0  0  0  0  0  0  0  0
    0.6774    3.9825   -3.4757 C   0  0  0  0  0  0  0  0  0  0  0  0
    0.9412    3.2585   -4.6357 N   0  0  0  0  0  0  0  0  0  0  0  0
    1.0512   -2.2502   -2.4100 C   0  0  0  0  0  0  0  0  0  0  0  0
    0.3867    5.1770   -3.4994 O   0  0  0  0  0  0  0  0  0  0  0  0
   -0.2684    3.7263   -0.8660 S   0  0  0  0  0  0  0  0  0  0  0  0
    0.1850    2.5079    0.4141 C   0  0  0  0  0  0  0  0  0  0  0  0
    0.5548    3.7490   -5.9443 C   0  0  0  0  0  0  0  0  0  0  0  0
   -0.7694    3.1289   -6.3200 C   0  0  0  0  0  0  0  0  0  0  0  0
   -3.1467    1.6585   -6.6298 C   0  0  0  0  0  0  0  0  0  0  0  0
   -1.9165    3.4637   -5.5864 C   0  0  0  0  0  0  0  0  0  0  0  0
   -0.8557    2.1230   -7.2906 C   0  0  0  0  0  0  0  0  0  0  0  0
   -3.0887    2.7240   -5.7271 C   0  0  0  0  0  0  0  0  0  0  0  0
   -2.0394    1.3947   -7.4453 C   0  0  0  0  0  0  0  0  0  0  0  0
    0.8181    3.1465   -2.2081 C   0  0  0  0  0  0  0  0  0  0  0  0
   -2.8264    1.0587    0.7731 C   0  0  0  0  0  0  0  0  0  0  0  0
   -0.6468   -3.2646   -1.0110 C   0  0  0  0  0  0  0  0  0  0  0  0
    1.8268   -1.1069   -3.0079 C   0  0  0  0  0  0  0  0  0  0  0  0
    1.2947   -3.5213   -2.9729 C   0  0  0  0  0  0  0  0  0  0  0  0
   -4.3327    0.7399   -6.6379 C   0  0  0  0  0  0  0  0  0  0  0  0
   -0.4081   -4.5111   -1.5924 C   0  0  0  0  0  0  0  0  0  0  0  0
    0.5731   -4.6421   -2.5678 C   0  0  0  0  0  0  0  0  0  0  0  0
    1.0236    2.2549   -4.5488 H   0  0  0  0  0  0  0  0  0  0  0  0
   -0.2680    2.8308    1.3596 H   0  0  0  0  0  0  0  0  0  0  0  0
    1.2691    2.5213    0.5625 H   0  0  0  0  0  0  0  0  0  0  0  0
    1.3404    3.4369   -6.6437 H   0  0  0  0  0  0  0  0  0  0  0  0
    0.4930    4.8412   -5.9634 H   0  0  0  0  0  0  0  0  0  0  0  0
   -1.8792    4.2639   -4.8492 H   0  0  0  0  0  0  0  0  0  0  0  0
    0.0062    1.8642   -7.9005 H   0  0  0  0  0  0  0  0  0  0  0  0
   -3.9388    2.9594   -5.0912 H   0  0  0  0  0  0  0  0  0  0  0  0
   -2.0779    0.5872   -8.1735 H   0  0  0  0  0  0  0  0  0  0  0  0
    1.8619    3.1849   -1.8883 H   0  0  0  0  0  0  0  0  0  0  0  0
    0.5437    2.1142   -2.4448 H   0  0  0  0  0  0  0  0  0  0  0  0
   -3.5035    1.3104   -0.0488 H   0  0  0  0  0  0  0  0  0  0  0  0
   -3.3018    0.2906    1.3905 H   0  0  0  0  0  0  0  0  0  0  0  0
   -2.6926    1.9524    1.3899 H   0  0  0  0  0  0  0  0  0  0  0  0
   -1.4129   -3.1952   -0.2399 H   0  0  0  0  0  0  0  0  0  0  0  0
    2.9019   -1.3149   -2.9596 H   0  0  0  0  0  0  0  0  0  0  0  0
    1.5373   -0.9852   -4.0575 H   0  0  0  0  0  0  0  0  0  0  0  0
    1.6639   -0.1467   -2.5233 H   0  0  0  0  0  0  0  0  0  0  0  0
    2.0465   -3.6370   -3.7502 H   0  0  0  0  0  0  0  0  0  0  0  0
   -4.6403    0.5032   -7.6615 H   0  0  0  0  0  0  0  0  0  0  0  0
   -4.0734   -0.1874   -6.1173 H   0  0  0  0  0  0  0  0  0  0  0  0
   -5.1882    1.1887   -6.1241 H   0  0  0  0  0  0  0  0  0  0  0  0
   -0.9847   -5.3780   -1.2828 H   0  0  0  0  0  0  0  0  0  0  0  0
    0.7699   -5.6100   -3.0204 H   0  0  0  0  0  0  0  0  0  0  0  0
  2  1  2  0  0  0  0
  3  2  1  0  0  0  0
  4  1  1  0  0  0  0
  5  4  1  0  0  0  0
  5  3  2  0  0  0  0
  6  1  1  0  0  0  0
  7 20  1  0  0  0  0
  8  7  1  0  0  0  0
  8 28  1  0  0  0  0
  9  6  2  0  0  0  0
 10  7  2  0  0  0  0
 11 12  1  0  0  0  0
 12  3  1  0  0  0  0
 12 29  1  0  0  0  0
 12 30  1  0  0  0  0
 13  8  1  0  0  0  0
 13 31  1  0  0  0  0
 13 32  1  0  0  0  0
 14 13  1  0  0  0  0
 15 19  2  0  0  0  0
 16 14  1  0  0  0  0
 16 33  1  0  0  0  0
 17 14  2  0  0  0  0
 17 34  1  0  0  0  0
 18 16  2  0  0  0  0
 18 15  1  0  0  0  0
 18 35  1  0  0  0  0
 19 17  1  0  0  0  0
 19 36  1  0  0  0  0
 20 11  1  0  0  0  0
 20 37  1  0  0  0  0
 20 38  1  0  0  0  0
 21  5  1  0  0  0  0
 21 39  1  0  0  0  0
 21 40  1  0  0  0  0
 21 41  1  0  0  0  0
 22  6  1  0  0  0  0
 22 42  1  0  0  0  0
 23  9  1  0  0  0  0
 23 43  1  0  0  0  0
 23 44  1  0  0  0  0
 23 45  1  0  0  0  0
 24  9  1  0  0  0  0
 24 46  1  0  0  0  0
 25 15  1  0  0  0  0
 25 47  1  0  0  0  0
 25 48  1  0  0  0  0
 25 49  1  0  0  0  0
 26 22  2  0  0  0  0
 26 50  1  0  0  0  0
 27 26  1  0  0  0  0
 27 24  2  0  0  0  0
 27 51  1  0  0  0  0
M  END
>  <Mol_ID>
9277

>  <Formula>
C22H24N2O2S

>  <MolWeight>
380.50316

>  <Cat>
P2627

>  <Name>
WAY-331965

>  <Synonyms>
N/A

>  <Target>
beta-catenin

>  <Form>
free base

>  <CAS>
901870-97-1

>  <URL>
N/A

$$$$
