WAY-359473
 OpenBabel08302521393D

 35 38  0  0  0  0  0  0  0  0999 V2000
    0.3283    0.5225    0.0810 C   0  0  0  0  0  0  0  0  0  0  0  0
    0.8701   -0.7612    0.1748 C   0  0  0  0  0  0  0  0  0  0  0  0
    1.2611    1.5870   -0.0160 C   0  0  0  0  0  0  0  0  0  0  0  0
   -0.3200   -2.0078    0.1886 S   0  0  0  0  0  0  0  0  0  0  0  0
   -1.0953    0.4221    0.0391 C   0  0  0  0  0  0  0  0  0  0  0  0
   -1.5350   -0.8757    0.0623 C   0  0  0  0  0  0  0  0  0  0  0  0
    0.8688    2.8872   -0.2831 N   0  0  0  0  0  0  0  0  0  0  0  0
    2.1735   -1.0835    0.2175 N   0  0  0  0  0  0  0  0  0  0  0  0
    2.5824    1.2773    0.0040 N   0  0  0  0  0  0  0  0  0  0  0  0
    2.9557   -0.0054    0.1278 C   0  0  0  0  0  0  0  0  0  0  0  0
   -2.2519    1.3487   -0.0810 C   0  0  0  0  0  0  0  0  0  0  0  0
   -3.0071   -1.0211   -0.0592 C   0  0  0  0  0  0  0  0  0  0  0  0
    1.7901    3.7381   -1.0281 C   0  0  0  0  0  0  0  0  0  0  0  0
    0.1016    3.6099    0.7243 C   0  0  0  0  0  0  0  0  0  0  0  0
   -3.4666    0.4329    0.2342 C   0  0  0  0  0  0  0  0  0  0  0  0
   -0.8429    4.5516   -0.0330 C   0  0  0  0  0  0  0  0  0  0  0  0
    0.9256    4.6902   -1.8621 C   0  0  0  0  0  0  0  0  0  0  0  0
   -0.0701    5.4688   -0.9918 C   0  0  0  0  0  0  0  0  0  0  0  0
    4.0258   -0.1918    0.1424 H   0  0  0  0  0  0  0  0  0  0  0  0
   -2.3177    1.7532   -1.0962 H   0  0  0  0  0  0  0  0  0  0  0  0
   -2.2366    2.1624    0.6444 H   0  0  0  0  0  0  0  0  0  0  0  0
   -3.2867   -1.3057   -1.0793 H   0  0  0  0  0  0  0  0  0  0  0  0
   -3.4370   -1.7265    0.6549 H   0  0  0  0  0  0  0  0  0  0  0  0
    2.4322    3.1665   -1.7096 H   0  0  0  0  0  0  0  0  0  0  0  0
    2.4395    4.3025   -0.3479 H   0  0  0  0  0  0  0  0  0  0  0  0
    0.7704    4.1908    1.3724 H   0  0  0  0  0  0  0  0  0  0  0  0
   -0.4607    2.9510    1.3936 H   0  0  0  0  0  0  0  0  0  0  0  0
   -4.3594    0.7224   -0.3272 H   0  0  0  0  0  0  0  0  0  0  0  0
   -3.7058    0.5223    1.3025 H   0  0  0  0  0  0  0  0  0  0  0  0
   -1.4303    5.1488    0.6720 H   0  0  0  0  0  0  0  0  0  0  0  0
   -1.5563    3.9682   -0.6278 H   0  0  0  0  0  0  0  0  0  0  0  0
    0.3670    4.1021   -2.6022 H   0  0  0  0  0  0  0  0  0  0  0  0
    1.5598    5.3885   -2.4156 H   0  0  0  0  0  0  0  0  0  0  0  0
   -0.7800    6.0006   -1.6354 H   0  0  0  0  0  0  0  0  0  0  0  0
    0.4716    6.2176   -0.4096 H   0  0  0  0  0  0  0  0  0  0  0  0
  2  1  2  0  0  0  0
  3  1  1  0  0  0  0
  4  2  1  0  0  0  0
  5  1  1  0  0  0  0
  6  5  2  0  0  0  0
  6  4  1  0  0  0  0
  7  3  1  0  0  0  0
  8  2  1  0  0  0  0
  8 10  2  0  0  0  0
  9  3  2  0  0  0  0
 10  9  1  0  0  0  0
 10 19  1  0  0  0  0
 11  5  1  0  0  0  0
 11 20  1  0  0  0  0
 11 21  1  0  0  0  0
 12  6  1  0  0  0  0
 12 15  1  0  0  0  0
 12 22  1  0  0  0  0
 12 23  1  0  0  0  0
 13  7  1  0  0  0  0
 13 24  1  0  0  0  0
 13 25  1  0  0  0  0
 14  7  1  0  0  0  0
 14 26  1  0  0  0  0
 14 27  1  0  0  0  0
 15 11  1  0  0  0  0
 15 28  1  0  0  0  0
 15 29  1  0  0  0  0
 16 14  1  0  0  0  0
 16 30  1  0  0  0  0
 16 31  1  0  0  0  0
 17 13  1  0  0  0  0
 17 18  1  0  0  0  0
 17 32  1  0  0  0  0
 17 33  1  0  0  0  0
 18 16  1  0  0  0  0
 18 34  1  0  0  0  0
 18 35  1  0  0  0  0
M  END
>  <Mol_ID>
8088

>  <Formula>
C14H17N3S

>  <MolWeight>
259.36988

>  <Cat>
P2792

>  <Name>
WAY-359473

>  <Synonyms>
N/A

>  <Target>
PDE7B

>  <Form>
free base

>  <CAS>
314248-20-9

>  <URL>
N/A

$$$$
