WAY-226055
 OpenBabel08302521403D

 50 53  0  0  0  0  0  0  0  0999 V2000
   -0.7932    1.4180   -0.0790 C   0  0  0  0  0  0  0  0  0  0  0  0
   -1.0840   -0.8609   -0.0055 N   0  0  0  0  0  0  0  0  0  0  0  0
    0.4293    0.8727   -0.1291 C   0  0  0  0  0  0  0  0  0  0  0  0
    0.2616   -0.5913   -0.1567 C   0  0  0  0  0  0  0  0  0  0  0  0
   -1.8642    0.3705    0.0250 C   0  0  3  0  0  0  0  0  0  0  0  0
   -1.0065    2.8801   -0.0295 C   0  0  0  0  0  0  0  0  0  0  0  0
    1.5843   -5.5671    3.1961 N   0  0  0  0  0  0  0  0  0  0  0  0
   -0.0841   -4.3669    2.3781 N   0  0  0  0  0  0  0  0  0  0  0  0
    1.2653   -4.4597    2.5635 C   0  0  0  0  0  0  0  0  0  0  0  0
   -2.7080    0.4593    1.2816 C   0  0  0  0  0  0  0  0  0  0  0  0
    1.1929   -1.3623   -0.2936 O   0  0  0  0  0  0  0  0  0  0  0  0
    0.3945   -6.2105    3.4207 C   0  0  0  0  0  0  0  0  0  0  0  0
   -0.6573   -5.4863    2.9101 C   0  0  0  0  0  0  0  0  0  0  0  0
   -0.1862    3.6276    0.4983 O   0  0  0  0  0  0  0  0  0  0  0  0
   -2.2557    3.4745   -0.5730 C   0  0  0  0  0  0  0  0  0  0  0  0
    1.6513    1.4706   -0.1804 O   0  0  0  0  0  0  0  0  0  0  0  0
   -1.7016   -2.1502   -0.2867 C   0  0  0  0  0  0  0  0  0  0  0  0
   -2.1315    0.3428    2.5589 C   0  0  0  0  0  0  0  0  0  0  0  0
   -4.0932    0.6700    1.1896 C   0  0  0  0  0  0  0  0  0  0  0  0
   -0.9697   -3.3599    0.2973 C   0  0  0  0  0  0  0  0  0  0  0  0
   -4.2814    0.6892    3.6001 C   0  0  0  0  0  0  0  0  0  0  0  0
   -4.8726    0.7876    2.3425 C   0  0  0  0  0  0  0  0  0  0  0  0
   -2.9131    0.4577    3.7086 C   0  0  0  0  0  0  0  0  0  0  0  0
   -0.7841   -3.2362    1.8060 C   0  0  0  0  0  0  0  0  0  0  0  0
   -2.7275    4.6587    0.0117 C   0  0  0  0  0  0  0  0  0  0  0  0
   -2.9382    2.9347   -1.6694 C   0  0  0  0  0  0  0  0  0  0  0  0
   -4.1236    3.5241   -2.1158 C   0  0  0  0  0  0  0  0  0  0  0  0
   -3.8987    5.2589   -0.4521 C   0  0  0  0  0  0  0  0  0  0  0  0
   -4.6062    4.6802   -1.5033 C   0  0  0  0  0  0  0  0  0  0  0  0
   -2.4931    0.3545   -0.8707 H   0  0  0  0  0  0  0  0  0  0  0  0
    1.9608   -3.6990    2.2305 H   0  0  0  0  0  0  0  0  0  0  0  0
    0.3582   -7.1578    3.9424 H   0  0  0  0  0  0  0  0  0  0  0  0
   -1.7229   -5.6640    2.8978 H   0  0  0  0  0  0  0  0  0  0  0  0
    2.3076    0.7462   -0.1419 H   0  0  0  0  0  0  0  0  0  0  0  0
   -2.7241   -2.1312    0.1073 H   0  0  0  0  0  0  0  0  0  0  0  0
   -1.7697   -2.2493   -1.3760 H   0  0  0  0  0  0  0  0  0  0  0  0
   -1.0626    0.1707    2.6712 H   0  0  0  0  0  0  0  0  0  0  0  0
   -4.5815    0.7547    0.2209 H   0  0  0  0  0  0  0  0  0  0  0  0
   -1.5478   -4.2633    0.0669 H   0  0  0  0  0  0  0  0  0  0  0  0
   -0.0010   -3.4970   -0.1962 H   0  0  0  0  0  0  0  0  0  0  0  0
   -4.8860    0.7981    4.4971 H   0  0  0  0  0  0  0  0  0  0  0  0
   -5.9423    0.9655    2.2613 H   0  0  0  0  0  0  0  0  0  0  0  0
   -2.4503    0.3782    4.6895 H   0  0  0  0  0  0  0  0  0  0  0  0
   -0.2090   -2.3430    2.0722 H   0  0  0  0  0  0  0  0  0  0  0  0
   -1.7553   -3.1621    2.3083 H   0  0  0  0  0  0  0  0  0  0  0  0
   -2.1760    5.1240    0.8280 H   0  0  0  0  0  0  0  0  0  0  0  0
   -2.5521    2.0778   -2.2108 H   0  0  0  0  0  0  0  0  0  0  0  0
   -4.6631    3.0936   -2.9559 H   0  0  0  0  0  0  0  0  0  0  0  0
   -4.2531    6.1804    0.0038 H   0  0  0  0  0  0  0  0  0  0  0  0
   -5.5225    5.1444   -1.8603 H   0  0  0  0  0  0  0  0  0  0  0  0
  2  5  1  0  0  0  0
  3  1  2  0  0  0  0
  4  3  1  0  0  0  0
  4  2  1  0  0  0  0
  5  1  1  0  0  0  0
  5 30  1  0  0  0  0
  6  1  1  0  0  0  0
  7  9  2  0  0  0  0
  7 12  1  0  0  0  0
  8 24  1  0  0  0  0
  9  8  1  0  0  0  0
  9 31  1  0  0  0  0
 10  5  1  0  0  0  0
 11  4  2  0  0  0  0
 12 13  2  0  0  0  0
 12 32  1  0  0  0  0
 13  8  1  0  0  0  0
 13 33  1  0  0  0  0
 14  6  2  0  0  0  0
 15  6  1  0  0  0  0
 16  3  1  0  0  0  0
 16 34  1  0  0  0  0
 17  2  1  0  0  0  0
 17 35  1  0  0  0  0
 17 36  1  0  0  0  0
 18 10  2  0  0  0  0
 18 37  1  0  0  0  0
 19 10  1  0  0  0  0
 19 38  1  0  0  0  0
 20 17  1  0  0  0  0
 20 39  1  0  0  0  0
 20 40  1  0  0  0  0
 21 22  1  0  0  0  0
 21 23  2  0  0  0  0
 21 41  1  0  0  0  0
 22 19  2  0  0  0  0
 22 42  1  0  0  0  0
 23 18  1  0  0  0  0
 23 43  1  0  0  0  0
 24 20  1  0  0  0  0
 24 44  1  0  0  0  0
 24 45  1  0  0  0  0
 25 15  2  0  0  0  0
 25 46  1  0  0  0  0
 26 15  1  0  0  0  0
 26 47  1  0  0  0  0
 27 26  2  0  0  0  0
 27 48  1  0  0  0  0
 28 25  1  0  0  0  0
 28 49  1  0  0  0  0
 29 27  1  0  0  0  0
 29 28  2  0  0  0  0
 29 50  1  0  0  0  0
M  END
>  <Mol_ID>
8308

>  <Formula>
C23H20ClN3O3

>  <MolWeight>
421.8762

>  <Cat>
P2060

>  <Name>
WAY-226055

>  <Synonyms>
N/A

>  <Target>
p53-MDM2

>  <Form>
free base

>  <CAS>
381717-91-5

>  <URL>
N/A

$$$$
