WAY-607600
 OpenBabel08302521433D

 26 27  0  0  0  0  0  0  0  0999 V2000
    1.2156   -4.9046   -0.2362 N   0  0  0  0  0  0  0  0  0  0  0  0
    0.4641   -3.7767   -0.3742 C   0  0  0  0  0  0  0  0  0  0  0  0
    1.2191   -0.1257   -0.9444 C   0  0  0  0  0  0  0  0  0  0  0  0
    3.4267   -4.0125   -0.0818 N   0  0  0  0  0  0  0  0  0  0  0  0
    2.5929   -5.0684   -0.0502 C   0  0  0  0  0  0  0  0  0  0  0  0
    0.3961    1.2207   -1.6436 S   0  0  0  0  0  0  0  0  0  0  0  0
    1.0944   -2.4414   -0.2629 C   0  0  0  0  0  0  0  0  0  0  0  0
    0.5588   -1.3894   -0.9010 C   0  0  0  0  0  0  0  0  0  0  0  0
    1.7532    2.2435   -1.4718 C   0  0  0  0  0  0  0  0  0  0  0  0
    2.4974    0.2489   -0.5531 C   0  0  0  0  0  0  0  0  0  0  0  0
    2.8092    1.6032   -0.8697 C   0  0  0  0  0  0  0  0  0  0  0  0
   -0.7459   -3.8871   -0.5874 O   0  0  0  0  0  0  0  0  0  0  0  0
    4.7346   -4.2153    0.2067 C   0  0  0  0  0  0  0  0  0  0  0  0
    5.2586   -5.4502    0.5327 C   0  0  0  0  0  0  0  0  0  0  0  0
    3.0581   -6.3562    0.2057 C   0  0  0  0  0  0  0  0  0  0  0  0
    7.0670   -5.6320    1.0233 Br  0  0  0  0  0  0  0  0  0  0  0  0
    4.4078   -6.5460    0.5146 C   0  0  0  0  0  0  0  0  0  0  0  0
    0.6500   -5.7415   -0.2797 H   0  0  0  0  0  0  0  0  0  0  0  0
    1.9918   -2.3485    0.3264 H   0  0  0  0  0  0  0  0  0  0  0  0
   -0.3741   -1.5103   -1.4492 H   0  0  0  0  0  0  0  0  0  0  0  0
    1.7113    3.2647   -1.8249 H   0  0  0  0  0  0  0  0  0  0  0  0
    3.2061   -0.4298   -0.0941 H   0  0  0  0  0  0  0  0  0  0  0  0
    3.7637    2.0756   -0.6761 H   0  0  0  0  0  0  0  0  0  0  0  0
    5.3491   -3.3208    0.1803 H   0  0  0  0  0  0  0  0  0  0  0  0
    2.3864   -7.2087    0.2064 H   0  0  0  0  0  0  0  0  0  0  0  0
    4.7734   -7.5395    0.7572 H   0  0  0  0  0  0  0  0  0  0  0  0
  1 18  1  0  0  0  0
  2  1  1  0  0  0  0
  3  8  1  0  0  0  0
  4  5  2  0  0  0  0
  5  1  1  0  0  0  0
  6  3  1  0  0  0  0
  7  2  1  0  0  0  0
  7 19  1  0  0  0  0
  8  7  2  0  0  0  0
  8 20  1  0  0  0  0
  9  6  1  0  0  0  0
  9 11  2  0  0  0  0
  9 21  1  0  0  0  0
 10  3  2  0  0  0  0
 10 22  1  0  0  0  0
 11 10  1  0  0  0  0
 11 23  1  0  0  0  0
 12  2  2  0  0  0  0
 13  4  1  0  0  0  0
 13 24  1  0  0  0  0
 14 17  1  0  0  0  0
 14 13  2  0  0  0  0
 15  5  1  0  0  0  0
 15 25  1  0  0  0  0
 16 14  1  0  0  0  0
 17 15  2  0  0  0  0
 17 26  1  0  0  0  0
M  END
>  <Mol_ID>
8748

>  <Formula>
C12H9BrN2OS

>  <MolWeight>
309.18166

>  <Cat>
P2895

>  <Name>
WAY-607600

>  <Synonyms>
N/A

>  <Target>
Others

>  <Form>
free base

>  <CAS>
1164496-07-4

>  <URL>
N/A

$$$$
