WAY-330332
 OpenBabel08302521443D

 45 48  0  0  0  0  0  0  0  0999 V2000
   -3.5210   -0.0430    0.0492 C   0  0  0  0  0  0  0  0  0  0  0  0
   -1.3886   -0.5881    0.0230 C   0  0  0  0  0  0  0  0  0  0  0  0
   -2.6470   -1.0936    0.0001 O   0  0  0  0  0  0  0  0  0  0  0  0
   -4.9522   -0.2759   -0.0038 C   0  0  0  0  0  0  0  0  0  0  0  0
   -0.2961   -1.3655    0.0137 N   0  0  0  0  0  0  0  0  0  0  0  0
   -2.8098    1.1447    0.0482 C   0  0  0  0  0  0  0  0  0  0  0  0
   -1.4355    0.8004    0.0361 C   0  0  0  0  0  0  0  0  0  0  0  0
   -5.4839   -1.4262    0.5965 N   0  0  0  0  0  0  0  0  0  0  0  0
    0.8601   -0.6947    0.0096 C   0  0  0  0  0  0  0  0  0  0  0  0
    0.9648    0.7147    0.0152 C   0  0  0  0  0  0  0  0  0  0  0  0
   -7.5607   -3.2763    3.8683 C   0  0  0  0  0  0  0  0  0  0  0  0
   -0.2115    1.4818    0.0255 C   0  0  0  0  0  0  0  0  0  0  0  0
   -5.6910    0.5418   -0.5550 O   0  0  0  0  0  0  0  0  0  0  0  0
   -6.8897   -3.0873    2.5151 C   0  0  0  0  0  0  0  0  0  0  0  0
   -6.8879   -1.7499    0.3729 C   0  0  0  0  0  0  0  0  0  0  0  0
   -4.7292   -2.4081    1.3757 C   0  0  0  0  0  0  0  0  0  0  0  0
    2.2340    1.3270    0.0155 C   0  0  0  0  0  0  0  0  0  0  0  0
   -6.9902   -3.1582    4.9465 O   0  0  0  0  0  0  0  0  0  0  0  0
   -7.6122   -2.0178    1.6861 C   0  0  0  0  0  0  0  0  0  0  0  0
   -5.4141   -2.7185    2.6997 C   0  0  0  0  0  0  0  0  0  0  0  0
    2.0321   -1.4333   -0.0031 C   0  0  0  0  0  0  0  0  0  0  0  0
   -8.8746   -3.6375    3.8246 N   0  0  0  0  0  0  0  0  0  0  0  0
    3.4013    0.5598    0.0155 C   0  0  0  0  0  0  0  0  0  0  0  0
    3.2948   -0.8280    0.0013 C   0  0  0  0  0  0  0  0  0  0  0  0
    4.5670    1.2724    0.0353 O   0  0  0  0  0  0  0  0  0  0  0  0
    5.7773    0.5225    0.0535 C   0  0  0  0  0  0  0  0  0  0  0  0
   -3.2486    2.1327    0.0499 H   0  0  0  0  0  0  0  0  0  0  0  0
   -0.1885    2.5669    0.0203 H   0  0  0  0  0  0  0  0  0  0  0  0
   -6.9405   -4.0484    1.9887 H   0  0  0  0  0  0  0  0  0  0  0  0
   -6.9190   -2.6411   -0.2658 H   0  0  0  0  0  0  0  0  0  0  0  0
   -7.4063   -0.9524   -0.1686 H   0  0  0  0  0  0  0  0  0  0  0  0
   -3.7301   -2.0577    1.6270 H   0  0  0  0  0  0  0  0  0  0  0  0
   -4.6305   -3.3099    0.7608 H   0  0  0  0  0  0  0  0  0  0  0  0
    2.3198    2.4089    0.0216 H   0  0  0  0  0  0  0  0  0  0  0  0
   -8.6393   -2.3303    1.4653 H   0  0  0  0  0  0  0  0  0  0  0  0
   -7.6853   -1.0860    2.2625 H   0  0  0  0  0  0  0  0  0  0  0  0
   -5.3260   -1.8382    3.3522 H   0  0  0  0  0  0  0  0  0  0  0  0
   -4.8767   -3.5313    3.2002 H   0  0  0  0  0  0  0  0  0  0  0  0
    1.9666   -2.5198   -0.0134 H   0  0  0  0  0  0  0  0  0  0  0  0
   -9.3826   -3.8105    2.9698 H   0  0  0  0  0  0  0  0  0  0  0  0
   -9.3433   -3.7930    4.7073 H   0  0  0  0  0  0  0  0  0  0  0  0
    4.1667   -1.4716   -0.0113 H   0  0  0  0  0  0  0  0  0  0  0  0
    5.8327   -0.1251    0.9354 H   0  0  0  0  0  0  0  0  0  0  0  0
    5.8926   -0.0569   -0.8688 H   0  0  0  0  0  0  0  0  0  0  0  0
    6.6109    1.2290    0.1102 H   0  0  0  0  0  0  0  0  0  0  0  0
  2  3  1  0  0  0  0
  2  7  2  0  0  0  0
  3  1  1  0  0  0  0
  4  1  1  0  0  0  0
  5  2  1  0  0  0  0
  6  1  2  0  0  0  0
  6 27  1  0  0  0  0
  7  6  1  0  0  0  0
  8  4  1  0  0  0  0
  9  5  2  0  0  0  0
  9 10  1  0  0  0  0
 10 12  2  0  0  0  0
 11 14  1  0  0  0  0
 12  7  1  0  0  0  0
 12 28  1  0  0  0  0
 13  4  2  0  0  0  0
 14 20  1  0  0  0  0
 14 19  1  0  0  0  0
 14 29  1  0  0  0  0
 15  8  1  0  0  0  0
 15 30  1  0  0  0  0
 15 31  1  0  0  0  0
 16  8  1  0  0  0  0
 16 32  1  0  0  0  0
 16 33  1  0  0  0  0
 17 10  1  0  0  0  0
 17 34  1  0  0  0  0
 18 11  2  0  0  0  0
 19 15  1  0  0  0  0
 19 35  1  0  0  0  0
 19 36  1  0  0  0  0
 20 16  1  0  0  0  0
 20 37  1  0  0  0  0
 20 38  1  0  0  0  0
 21  9  1  0  0  0  0
 21 39  1  0  0  0  0
 22 11  1  0  0  0  0
 22 40  1  0  0  0  0
 22 41  1  0  0  0  0
 23 17  2  0  0  0  0
 24 21  2  0  0  0  0
 24 23  1  0  0  0  0
 24 42  1  0  0  0  0
 25 23  1  0  0  0  0
 26 25  1  0  0  0  0
 26 43  1  0  0  0  0
 26 44  1  0  0  0  0
 26 45  1  0  0  0  0
M  END
>  <Mol_ID>
9155

>  <Formula>
C19H19N3O4

>  <MolWeight>
353.37186

>  <Cat>
P2606

>  <Name>
WAY-330332

>  <Synonyms>
N/A

>  <Target>
Anti-infection

>  <Form>
free base

>  <CAS>
956204-01-6

>  <URL>
N/A

$$$$
