WAY-638778
 OpenBabel08302521433D

 35 37  0  0  0  0  0  0  0  0999 V2000
    2.3452   -0.5559   -0.0630 N   0  0  0  0  0  0  0  0  0  0  0  0
    1.6997    0.0296   -1.1498 C   0  0  0  0  0  0  0  0  0  0  0  0
    1.8102   -0.5357    1.2382 C   0  0  0  0  0  0  0  0  0  0  0  0
    0.4801    0.0804    1.4098 C   0  0  0  0  0  0  0  0  0  0  0  0
    0.5793    0.7665   -0.8867 N   0  0  0  0  0  0  0  0  0  0  0  0
   -0.0765    0.7647    0.3404 C   0  0  0  0  0  0  0  0  0  0  0  0
    3.6511   -1.2292   -0.1994 C   0  0  0  0  0  0  0  0  0  0  0  0
    2.1005   -0.0878   -2.7762 S   0  0  0  0  0  0  0  0  0  0  0  0
    2.3652   -1.0153    2.2259 O   0  0  0  0  0  0  0  0  0  0  0  0
    4.8156   -0.2627   -0.1002 C   0  0  0  0  0  0  0  0  0  0  0  0
   -0.2360   -0.0422    2.6053 C   0  0  0  0  0  0  0  0  0  0  0  0
    6.8277    1.7139    0.1027 C   0  0  0  0  0  0  0  0  0  0  0  0
    5.3625    0.0745    1.1440 C   0  0  0  0  0  0  0  0  0  0  0  0
    5.3402    0.3626   -1.2412 C   0  0  0  0  0  0  0  0  0  0  0  0
    6.3553    1.0555    1.2416 C   0  0  0  0  0  0  0  0  0  0  0  0
    6.3286    1.3490   -1.1421 C   0  0  0  0  0  0  0  0  0  0  0  0
   -1.3234    1.3780    0.4551 C   0  0  0  0  0  0  0  0  0  0  0  0
    7.7251    2.7146    0.3490 O   0  0  0  0  0  0  0  0  0  0  0  0
    8.5030    3.1768   -0.7471 C   0  0  0  0  0  0  0  0  0  0  0  0
   -1.5117    0.5224    2.7093 C   0  0  0  0  0  0  0  0  0  0  0  0
   -2.0459    1.2484    1.6424 C   0  0  0  0  0  0  0  0  0  0  0  0
    0.1416    1.2147   -1.6837 H   0  0  0  0  0  0  0  0  0  0  0  0
    3.7615   -2.0057    0.5682 H   0  0  0  0  0  0  0  0  0  0  0  0
    3.6998   -1.7718   -1.1521 H   0  0  0  0  0  0  0  0  0  0  0  0
    0.1820   -0.5966    3.4414 H   0  0  0  0  0  0  0  0  0  0  0  0
    5.0064   -0.4087    2.0527 H   0  0  0  0  0  0  0  0  0  0  0  0
    4.9708    0.1071   -2.2307 H   0  0  0  0  0  0  0  0  0  0  0  0
    6.7564    1.3179    2.2166 H   0  0  0  0  0  0  0  0  0  0  0  0
    6.6522    1.8296   -2.0600 H   0  0  0  0  0  0  0  0  0  0  0  0
   -1.7573    1.9290   -0.3753 H   0  0  0  0  0  0  0  0  0  0  0  0
    9.2355    2.4160   -1.0340 H   0  0  0  0  0  0  0  0  0  0  0  0
    7.8962    3.4834   -1.6037 H   0  0  0  0  0  0  0  0  0  0  0  0
    9.0491    4.0649   -0.4129 H   0  0  0  0  0  0  0  0  0  0  0  0
   -2.0888    0.3936    3.6207 H   0  0  0  0  0  0  0  0  0  0  0  0
   -3.0397    1.6815    1.7229 H   0  0  0  0  0  0  0  0  0  0  0  0
  2  1  1  0  0  0  0
  3  1  1  0  0  0  0
  4  3  1  0  0  0  0
  5  2  1  0  0  0  0
  5 22  1  0  0  0  0
  6  4  2  0  0  0  0
  6  5  1  0  0  0  0
  7  1  1  0  0  0  0
  7 23  1  0  0  0  0
  7 24  1  0  0  0  0
  8  2  2  0  0  0  0
  9  3  2  0  0  0  0
 10  7  1  0  0  0  0
 11  4  1  0  0  0  0
 11 25  1  0  0  0  0
 12 16  2  0  0  0  0
 13 10  1  0  0  0  0
 13 26  1  0  0  0  0
 14 10  2  0  0  0  0
 14 27  1  0  0  0  0
 15 13  2  0  0  0  0
 15 12  1  0  0  0  0
 15 28  1  0  0  0  0
 16 14  1  0  0  0  0
 16 29  1  0  0  0  0
 17  6  1  0  0  0  0
 17 21  2  0  0  0  0
 17 30  1  0  0  0  0
 18 12  1  0  0  0  0
 19 18  1  0  0  0  0
 19 31  1  0  0  0  0
 19 32  1  0  0  0  0
 19 33  1  0  0  0  0
 20 11  2  0  0  0  0
 20 34  1  0  0  0  0
 21 20  1  0  0  0  0
 21 35  1  0  0  0  0
M  END
>  <Mol_ID>
8789

>  <Formula>
C16H14N2O2S

>  <MolWeight>
298.35956

>  <Cat>
P3053

>  <Name>
WAY-638778

>  <Synonyms>
N/A

>  <Target>
SHP2

>  <Form>
free base

>  <CAS>
343618-41-7

>  <URL>
N/A

$$$$
