WAY-624876
 OpenBabel08302521453D

 46 50  0  0  0  0  0  0  0  0999 V2000
    0.6860    2.6054    2.3619 O   0  0  0  0  0  0  0  0  0  0  0  0
    0.5545    3.3915    3.4758 C   0  0  0  0  0  0  0  0  0  0  0  0
   -0.6512    3.9133    3.5829 N   0  0  0  0  0  0  0  0  0  0  0  0
   -4.9486    0.3307   -0.5829 C   0  0  0  0  0  0  0  0  0  0  0  0
   -0.5499    2.7184    1.7805 C   0  0  0  0  0  0  0  0  0  0  0  0
   -1.3653    3.4758    2.4860 N   0  0  0  0  0  0  0  0  0  0  0  0
   -5.5658    1.4691   -0.6396 N   0  0  0  0  0  0  0  0  0  0  0  0
   -3.3968    0.2459   -1.3850 S   0  0  0  0  0  0  0  0  0  0  0  0
    1.7344    3.5708    4.3162 C   0  0  0  0  0  0  0  0  0  0  0  0
    2.8095    4.6291    6.1747 C   0  0  0  0  0  0  0  0  0  0  0  0
    1.6707    4.4439    5.4159 C   0  0  0  0  0  0  0  0  0  0  0  0
   -5.4700   -0.8398    0.1552 C   0  0  0  0  0  0  0  0  0  0  0  0
    3.9876    3.9831    5.8869 C   0  0  0  0  0  0  0  0  0  0  0  0
    2.9192    5.4465    7.2566 O   0  0  0  0  0  0  0  0  0  0  0  0
   -0.9371    1.9654    0.2652 S   0  0  0  0  0  0  0  0  0  0  0  0
   -3.2680    2.0561   -1.3069 C   0  0  3  0  0  0  0  0  0  0  0  0
    4.9855    4.3128    6.7486 O   0  0  0  0  0  0  0  0  0  0  0  0
    4.3005    5.2387    7.6177 C   0  0  0  0  0  0  0  0  0  0  0  0
   -4.7484    2.4382   -1.4042 C   0  0  0  0  0  0  0  0  0  0  0  0
    2.9526    2.9046    4.0382 C   0  0  0  0  0  0  0  0  0  0  0  0
    4.0921    3.1109    4.8273 C   0  0  0  0  0  0  0  0  0  0  0  0
   -4.6183   -1.8138    0.6951 C   0  0  0  0  0  0  0  0  0  0  0  0
   -6.8454   -0.9282    0.3930 C   0  0  0  0  0  0  0  0  0  0  0  0
   -2.6441    2.5642    0.0055 C   0  0  0  0  0  0  0  0  0  0  0  0
   -6.5073   -2.9437    1.7032 C   0  0  0  0  0  0  0  0  0  0  0  0
   -7.3570   -1.9742    1.1658 C   0  0  0  0  0  0  0  0  0  0  0  0
   -5.1356   -2.8594    1.4684 C   0  0  0  0  0  0  0  0  0  0  0  0
   -7.1207   -3.8872    2.4793 O   0  0  0  0  0  0  0  0  0  0  0  0
   -6.4371   -5.1280    2.6111 C   0  0  0  0  0  0  0  0  0  0  0  0
    0.7581    4.9754    5.6664 H   0  0  0  0  0  0  0  0  0  0  0  0
   -2.7133    2.4432   -2.1683 H   0  0  0  0  0  0  0  0  0  0  0  0
    4.8220    6.2029    7.5856 H   0  0  0  0  0  0  0  0  0  0  0  0
    4.3411    4.8515    8.6423 H   0  0  0  0  0  0  0  0  0  0  0  0
   -4.9197    3.4459   -1.0091 H   0  0  0  0  0  0  0  0  0  0  0  0
   -5.0901    2.4424   -2.4476 H   0  0  0  0  0  0  0  0  0  0  0  0
    3.0264    2.2205    3.1937 H   0  0  0  0  0  0  0  0  0  0  0  0
    5.0274    2.6073    4.6091 H   0  0  0  0  0  0  0  0  0  0  0  0
   -3.5411   -1.7579    0.5616 H   0  0  0  0  0  0  0  0  0  0  0  0
   -7.5245   -0.1798   -0.0100 H   0  0  0  0  0  0  0  0  0  0  0  0
   -3.2576    2.2807    0.8686 H   0  0  0  0  0  0  0  0  0  0  0  0
   -2.6128    3.6598   -0.0256 H   0  0  0  0  0  0  0  0  0  0  0  0
   -8.4261   -2.0307    1.3560 H   0  0  0  0  0  0  0  0  0  0  0  0
   -4.4367   -3.5674    1.9015 H   0  0  0  0  0  0  0  0  0  0  0  0
   -6.2590   -5.5794    1.6294 H   0  0  0  0  0  0  0  0  0  0  0  0
   -5.5033   -5.0194    3.1711 H   0  0  0  0  0  0  0  0  0  0  0  0
   -7.0824   -5.8036    3.1806 H   0  0  0  0  0  0  0  0  0  0  0  0
  2  1  1  0  0  0  0
  3  2  2  0  0  0  0
  3  6  1  0  0  0  0
  4  8  1  0  0  0  0
  5  1  1  0  0  0  0
  6  5  2  0  0  0  0
  7 19  1  0  0  0  0
  7  4  2  0  0  0  0
  8 16  1  0  0  0  0
  9  2  1  0  0  0  0
 10 11  2  0  0  0  0
 11  9  1  0  0  0  0
 11 30  1  0  0  0  0
 12  4  1  0  0  0  0
 13 21  2  0  0  0  0
 13 10  1  0  0  0  0
 14 10  1  0  0  0  0
 15  5  1  0  0  0  0
 16 24  1  0  0  0  0
 16 31  1  0  0  0  0
 17 13  1  0  0  0  0
 18 14  1  0  0  0  0
 18 17  1  0  0  0  0
 18 32  1  0  0  0  0
 18 33  1  0  0  0  0
 19 16  1  0  0  0  0
 19 34  1  0  0  0  0
 19 35  1  0  0  0  0
 20  9  2  0  0  0  0
 20 36  1  0  0  0  0
 21 20  1  0  0  0  0
 21 37  1  0  0  0  0
 22 12  2  0  0  0  0
 22 38  1  0  0  0  0
 23 12  1  0  0  0  0
 23 39  1  0  0  0  0
 24 15  1  0  0  0  0
 24 40  1  0  0  0  0
 24 41  1  0  0  0  0
 25 26  1  0  0  0  0
 26 23  2  0  0  0  0
 26 42  1  0  0  0  0
 27 22  1  0  0  0  0
 27 25  2  0  0  0  0
 27 43  1  0  0  0  0
 28 25  1  0  0  0  0
 29 28  1  0  0  0  0
 29 44  1  0  0  0  0
 29 45  1  0  0  0  0
 29 46  1  0  0  0  0
M  END
>  <Mol_ID>
9324

>  <Formula>
C20H17N3O4S2

>  <MolWeight>
427.49668

>  <Cat>
P2999

>  <Name>
WAY-624876

>  <Synonyms>
N/A

>  <Target>
anti-infection

>  <Form>
free base

>  <CAS>
745033-86-7

>  <URL>
N/A

$$$$
