WAY-638832
 OpenBabel08302521433D

 34 35  0  0  0  0  0  0  0  0999 V2000
    0.5724    1.2403   -0.0605 C   0  0  0  0  0  0  0  0  0  0  0  0
    1.3433   -0.2933   -0.1752 S   0  0  0  0  0  0  0  0  0  0  0  0
   -0.7291    1.1749    0.0611 N   0  0  0  0  0  0  0  0  0  0  0  0
    1.3025    2.3770   -0.0991 N   0  0  0  0  0  0  0  0  0  0  0  0
   -0.1662   -1.1041   -0.0450 C   0  0  0  0  0  0  0  0  0  0  0  0
   -1.1716   -0.1454    0.0522 C   0  0  0  0  0  0  0  0  0  0  0  0
    0.6630    3.6878   -0.0542 C   0  0  0  0  0  0  0  0  0  0  0  0
   -0.2972   -2.5596   -0.0538 C   0  0  0  0  0  0  0  0  0  0  0  0
   -2.6440   -0.3483    0.1407 C   0  0  0  0  0  0  0  0  0  0  0  0
    1.7209    4.8023   -0.1523 C   0  0  0  0  0  0  0  0  0  0  0  0
    0.9146   -3.4578   -0.1668 C   0  0  0  0  0  0  0  0  0  0  0  0
   -1.3950   -3.1225    0.0302 O   0  0  0  0  0  0  0  0  0  0  0  0
    1.1598    6.2060   -0.0836 C   0  0  0  0  0  0  0  0  0  0  0  0
    1.0242    6.8621    1.1483 C   0  0  0  0  0  0  0  0  0  0  0  0
    0.7892    6.8876   -1.2525 C   0  0  0  0  0  0  0  0  0  0  0  0
    0.5266    8.1672    1.2101 C   0  0  0  0  0  0  0  0  0  0  0  0
    0.2841    8.1888   -1.1878 C   0  0  0  0  0  0  0  0  0  0  0  0
    0.1516    8.8291    0.0425 C   0  0  0  0  0  0  0  0  0  0  0  0
    2.2781    2.3287   -0.3640 H   0  0  0  0  0  0  0  0  0  0  0  0
   -0.0565    3.7876   -0.8764 H   0  0  0  0  0  0  0  0  0  0  0  0
    0.1094    3.7920    0.8871 H   0  0  0  0  0  0  0  0  0  0  0  0
   -3.0264    0.0959    1.0647 H   0  0  0  0  0  0  0  0  0  0  0  0
   -3.1318    0.1471   -0.7056 H   0  0  0  0  0  0  0  0  0  0  0  0
   -2.9481   -1.3939    0.1256 H   0  0  0  0  0  0  0  0  0  0  0  0
    2.4619    4.6769    0.6486 H   0  0  0  0  0  0  0  0  0  0  0  0
    2.2877    4.6914   -1.0866 H   0  0  0  0  0  0  0  0  0  0  0  0
    0.9319   -4.1280    0.6979 H   0  0  0  0  0  0  0  0  0  0  0  0
    0.8191   -4.0575   -1.0786 H   0  0  0  0  0  0  0  0  0  0  0  0
    1.8667   -2.9333   -0.2022 H   0  0  0  0  0  0  0  0  0  0  0  0
    1.3181    6.3668    2.0719 H   0  0  0  0  0  0  0  0  0  0  0  0
    0.9022    6.4153   -2.2259 H   0  0  0  0  0  0  0  0  0  0  0  0
    0.4368    8.6707    2.1700 H   0  0  0  0  0  0  0  0  0  0  0  0
   -0.0015    8.7079   -2.1002 H   0  0  0  0  0  0  0  0  0  0  0  0
   -0.2378    9.8418    0.0917 H   0  0  0  0  0  0  0  0  0  0  0  0
  1  2  1  0  0  0  0
  1  3  2  0  0  0  0
  1  4  1  0  0  0  0
  2  5  1  0  0  0  0
  3  6  1  0  0  0  0
  4  7  1  0  0  0  0
  4 19  1  0  0  0  0
  5  8  1  0  0  0  0
  5  6  2  0  0  0  0
  6  9  1  0  0  0  0
  7 10  1  0  0  0  0
  7 20  1  0  0  0  0
  7 21  1  0  0  0  0
  8 11  1  0  0  0  0
  8 12  2  0  0  0  0
  9 22  1  0  0  0  0
  9 23  1  0  0  0  0
  9 24  1  0  0  0  0
 10 13  1  0  0  0  0
 10 25  1  0  0  0  0
 10 26  1  0  0  0  0
 11 27  1  0  0  0  0
 11 28  1  0  0  0  0
 11 29  1  0  0  0  0
 13 14  2  0  0  0  0
 13 15  1  0  0  0  0
 14 16  1  0  0  0  0
 14 30  1  0  0  0  0
 15 17  2  0  0  0  0
 15 31  1  0  0  0  0
 16 18  2  0  0  0  0
 16 32  1  0  0  0  0
 17 18  1  0  0  0  0
 17 33  1  0  0  0  0
 18 34  1  0  0  0  0
M  END
>  <Mol_ID>
8790

>  <Formula>
C14H16N2OS

>  <MolWeight>
260.35464

>  <Cat>
P3054

>  <Name>
WAY-638832

>  <Synonyms>
N/A

>  <Target>
Other

>  <Form>
free base

>  <CAS>
196797-05-4

>  <URL>
N/A

$$$$
