WAY-323977
 OpenBabel08302521423D

 34 37  0  0  0  0  0  0  0  0999 V2000
   -0.0261    0.3603    0.0965 C   0  0  0  0  0  0  0  0  0  0  0  0
    1.2468   -0.2726    0.0186 C   0  0  0  0  0  0  0  0  0  0  0  0
   -1.3386   -0.3296    0.1171 C   0  0  0  0  0  0  0  0  0  0  0  0
   -0.0386    1.7731    0.1250 C   0  0  0  0  0  0  0  0  0  0  0  0
    2.3980    0.5258    0.1428 C   0  0  0  0  0  0  0  0  0  0  0  0
    1.4250   -1.7596   -0.2006 C   0  0  0  0  0  0  0  0  0  0  0  0
   -2.4875    0.4056   -0.1812 C   0  0  0  0  0  0  0  0  0  0  0  0
   -1.5664   -1.6661    0.4807 C   0  0  0  0  0  0  0  0  0  0  0  0
    1.1605    2.4822    0.2423 C   0  0  0  0  0  0  0  0  0  0  0  0
   -1.2935    2.5362   -0.1090 C   0  0  0  0  0  0  0  0  0  0  0  0
    2.3533    1.8693    0.2705 N   0  0  0  0  0  0  0  0  0  0  0  0
    3.7971   -0.0391    0.0852 C   0  0  0  0  0  0  0  0  0  0  0  0
    2.8069   -2.1716   -0.7027 C   0  0  0  0  0  0  0  0  0  0  0  0
   -2.4330    1.7947   -0.3746 O   0  0  0  0  0  0  0  0  0  0  0  0
   -3.7676   -0.1552   -0.2528 C   0  0  0  0  0  0  0  0  0  0  0  0
   -2.8379   -2.2541    0.4176 C   0  0  0  0  0  0  0  0  0  0  0  0
    1.2321    3.8513    0.4619 N   0  0  0  0  0  0  0  0  0  0  0  0
   -1.3290    3.7604   -0.1826 O   0  0  0  0  0  0  0  0  0  0  0  0
    3.8657   -1.5554    0.1930 C   0  0  0  0  0  0  0  0  0  0  0  0
   -3.9386   -1.5022    0.0280 C   0  0  0  0  0  0  0  0  0  0  0  0
    0.6969   -2.1211   -0.9345 H   0  0  0  0  0  0  0  0  0  0  0  0
    1.2633   -2.2669    0.7573 H   0  0  0  0  0  0  0  0  0  0  0  0
   -0.7748   -2.3022    0.8557 H   0  0  0  0  0  0  0  0  0  0  0  0
    4.4003    0.4039    0.8867 H   0  0  0  0  0  0  0  0  0  0  0  0
    4.2436    0.2730   -0.8674 H   0  0  0  0  0  0  0  0  0  0  0  0
    2.9498   -1.8429   -1.7396 H   0  0  0  0  0  0  0  0  0  0  0  0
    2.8900   -3.2642   -0.6937 H   0  0  0  0  0  0  0  0  0  0  0  0
   -4.6225    0.4654   -0.5079 H   0  0  0  0  0  0  0  0  0  0  0  0
   -2.9637   -3.3011    0.6848 H   0  0  0  0  0  0  0  0  0  0  0  0
    0.5454    4.3852   -0.0703 H   0  0  0  0  0  0  0  0  0  0  0  0
    2.1903    4.1690    0.3715 H   0  0  0  0  0  0  0  0  0  0  0  0
    3.6985   -1.8667    1.2322 H   0  0  0  0  0  0  0  0  0  0  0  0
    4.8629   -1.9077   -0.0915 H   0  0  0  0  0  0  0  0  0  0  0  0
   -4.9254   -1.9550   -0.0235 H   0  0  0  0  0  0  0  0  0  0  0  0
  1  2  1  0  0  0  0
  1  3  1  0  0  0  0
  1  4  2  0  0  0  0
  2  5  2  0  0  0  0
  2  6  1  0  0  0  0
  3  7  2  0  0  0  0
  3  8  1  0  0  0  0
  4  9  1  0  0  0  0
  4 10  1  0  0  0  0
  5 11  1  0  0  0  0
  5 12  1  0  0  0  0
  6 13  1  0  0  0  0
  6 21  1  0  0  0  0
  6 22  1  0  0  0  0
  7 14  1  0  0  0  0
  7 15  1  0  0  0  0
  8 16  2  0  0  0  0
  8 23  1  0  0  0  0
  9 17  1  0  0  0  0
  9 11  2  0  0  0  0
 10 18  2  0  0  0  0
 10 14  1  0  0  0  0
 12 19  1  0  0  0  0
 12 24  1  0  0  0  0
 12 25  1  0  0  0  0
 13 19  1  0  0  0  0
 13 26  1  0  0  0  0
 13 27  1  0  0  0  0
 15 20  2  0  0  0  0
 15 28  1  0  0  0  0
 16 20  1  0  0  0  0
 16 29  1  0  0  0  0
 17 30  1  0  0  0  0
 17 31  1  0  0  0  0
 19 32  1  0  0  0  0
 19 33  1  0  0  0  0
 20 34  1  0  0  0  0
M  END
>  <Mol_ID>
8592

>  <Formula>
C16H14N2O2

>  <MolWeight>
266.29456

>  <Cat>
P2285

>  <Name>
WAY-323977

>  <Synonyms>
N/A

>  <Target>
TLR7

>  <Form>
free base

>  <CAS>
29542-37-8

>  <URL>
N/A

$$$$
