WAY-112639
 OpenBabel08302521413D

 40 42  0  0  0  0  0  0  0  0999 V2000
    1.4288   -0.2118    0.0495 C   0  0  0  0  0  0  0  0  0  0  0  0
    3.1629   -0.5474    0.1596 S   0  0  0  0  0  0  0  0  0  0  0  0
    0.5452   -1.2847   -0.0190 C   0  0  0  0  0  0  0  0  0  0  0  0
    0.9528    1.1001    0.0396 C   0  0  0  0  0  0  0  0  0  0  0  0
    3.7003   -0.4530   -1.4444 N   0  0  0  0  0  0  0  0  0  0  0  0
    3.7850    0.5609    0.8574 O   0  0  0  0  0  0  0  0  0  0  0  0
    3.3547   -1.8973    0.6366 O   0  0  0  0  0  0  0  0  0  0  0  0
   -0.8183   -1.0458   -0.1639 C   0  0  0  0  0  0  0  0  0  0  0  0
   -0.4241    1.3304   -0.1020 C   0  0  0  0  0  0  0  0  0  0  0  0
    3.2017   -1.5226   -2.2260 C   0  0  0  0  0  0  0  0  0  0  0  0
   -1.3224    0.2567   -0.2192 C   0  0  0  0  0  0  0  0  0  0  0  0
    2.0863   -1.3769   -2.8967 N   0  0  0  0  0  0  0  0  0  0  0  0
    4.0501   -2.9842   -2.4783 S   0  0  0  0  0  0  0  0  0  0  0  0
   -2.7000    0.5429   -0.3816 N   0  0  0  0  0  0  0  0  0  0  0  0
    1.8434   -2.5190   -3.6352 C   0  0  0  0  0  0  0  0  0  0  0  0
    2.7738   -3.5266   -3.4914 C   0  0  0  0  0  0  0  0  0  0  0  0
   -3.7275   -0.3943   -0.4178 C   0  0  0  0  0  0  0  0  0  0  0  0
   -5.1169    0.1455   -0.4974 C   0  0  0  0  0  0  0  0  0  0  0  0
   -3.5987   -1.6099   -0.3398 O   0  0  0  0  0  0  0  0  0  0  0  0
   -6.1349   -0.5122   -1.2232 C   0  0  0  0  0  0  0  0  0  0  0  0
   -5.4381    1.2625    0.2959 C   0  0  0  0  0  0  0  0  0  0  0  0
   -7.4529   -0.0283   -1.1241 C   0  0  0  0  0  0  0  0  0  0  0  0
   -5.9281   -1.7122   -2.1108 C   0  0  0  0  0  0  0  0  0  0  0  0
   -6.7525    1.7226    0.3775 C   0  0  0  0  0  0  0  0  0  0  0  0
   -7.7599    1.0730   -0.3266 C   0  0  0  0  0  0  0  0  0  0  0  0
    0.9013   -2.3122    0.0015 H   0  0  0  0  0  0  0  0  0  0  0  0
    1.6406    1.9382    0.1288 H   0  0  0  0  0  0  0  0  0  0  0  0
    4.7155   -0.4390   -1.4035 H   0  0  0  0  0  0  0  0  0  0  0  0
   -1.4574   -1.9152   -0.2566 H   0  0  0  0  0  0  0  0  0  0  0  0
   -0.7756    2.3594   -0.1198 H   0  0  0  0  0  0  0  0  0  0  0  0
   -2.9479    1.5217   -0.4753 H   0  0  0  0  0  0  0  0  0  0  0  0
    0.9623   -2.5660   -4.2650 H   0  0  0  0  0  0  0  0  0  0  0  0
    2.7797   -4.5085   -3.9430 H   0  0  0  0  0  0  0  0  0  0  0  0
   -4.6834    1.7501    0.9073 H   0  0  0  0  0  0  0  0  0  0  0  0
   -8.2572   -0.5319   -1.6585 H   0  0  0  0  0  0  0  0  0  0  0  0
   -6.5740   -2.5329   -1.7784 H   0  0  0  0  0  0  0  0  0  0  0  0
   -6.1926   -1.4551   -3.1423 H   0  0  0  0  0  0  0  0  0  0  0  0
   -4.9067   -2.0905   -2.1367 H   0  0  0  0  0  0  0  0  0  0  0  0
   -6.9956    2.5673    1.0168 H   0  0  0  0  0  0  0  0  0  0  0  0
   -8.7899    1.4106   -0.2434 H   0  0  0  0  0  0  0  0  0  0  0  0
  1  2  1  0  0  0  0
  1  3  2  0  0  0  0
  1  4  1  0  0  0  0
  2  5  1  0  0  0  0
  2  6  2  0  0  0  0
  2  7  2  0  0  0  0
  3  8  1  0  0  0  0
  3 26  1  0  0  0  0
  4  9  2  0  0  0  0
  4 27  1  0  0  0  0
  5 10  1  0  0  0  0
  5 28  1  0  0  0  0
  8 11  2  0  0  0  0
  8 29  1  0  0  0  0
  9 11  1  0  0  0  0
  9 30  1  0  0  0  0
 10 12  2  0  0  0  0
 10 13  1  0  0  0  0
 11 14  1  0  0  0  0
 12 15  1  0  0  0  0
 13 16  1  0  0  0  0
 14 17  1  0  0  0  0
 14 31  1  0  0  0  0
 15 16  2  0  0  0  0
 15 32  1  0  0  0  0
 16 33  1  0  0  0  0
 17 18  1  0  0  0  0
 17 19  2  0  0  0  0
 18 20  2  0  0  0  0
 18 21  1  0  0  0  0
 20 22  1  0  0  0  0
 20 23  1  0  0  0  0
 21 24  2  0  0  0  0
 21 34  1  0  0  0  0
 22 25  2  0  0  0  0
 22 35  1  0  0  0  0
 23 36  1  0  0  0  0
 23 37  1  0  0  0  0
 23 38  1  0  0  0  0
 24 25  1  0  0  0  0
 24 39  1  0  0  0  0
 25 40  1  0  0  0  0
M  END
>  <Mol_ID>
8370

>  <Formula>
C17H15N3O3S2

>  <MolWeight>
373.4493

>  <Cat>
P2043

>  <Name>
WAY-112639

>  <Synonyms>
N/A

>  <Target>
voltage-gated sodium channels

>  <Form>
free base

>  <CAS>
1164471-66-2

>  <URL>
N/A

$$$$
