WAY-640360
 OpenBabel08302521443D

 64 67  0  0  0  0  0  0  0  0999 V2000
    0.8596    1.1664   -0.2806 N   0  0  0  0  0  0  0  0  0  0  0  0
   -0.6560   -1.2517    0.0186 N   0  0  0  0  0  0  0  0  0  0  0  0
   -1.2167   -2.1141    0.9569 C   0  0  0  0  0  0  0  0  0  0  0  0
   -2.6601   -1.9190    1.3809 C   0  0  0  0  0  0  0  0  0  0  0  0
   -2.3654   -1.9283    4.5819 C   0  0  0  0  0  0  0  0  0  0  0  0
   -2.3746   -2.9919    3.6949 N   0  0  0  0  0  0  0  0  0  0  0  0
   -3.1097   -3.0004    2.4136 C   0  0  3  0  0  0  0  0  0  0  0  0
    1.5253    2.1262   -1.0263 C   0  0  0  0  0  0  0  0  0  0  0  0
    1.5371   -0.0548    0.2242 C   0  0  3  0  0  0  0  0  0  0  0  0
    0.7899   -1.3336   -0.2349 C   0  0  0  0  0  0  0  0  0  0  0  0
   -0.6087    1.2331   -0.1015 C   0  0  0  0  0  0  0  0  0  0  0  0
   -1.2673   -0.0706   -0.6122 C   0  0  0  0  0  0  0  0  0  0  0  0
   -0.5473   -3.0324    1.4390 O   0  0  0  0  0  0  0  0  0  0  0  0
   -3.0067   -0.9091    4.3863 O   0  0  0  0  0  0  0  0  0  0  0  0
    1.1711    3.4854   -0.9535 C   0  0  0  0  0  0  0  0  0  0  0  0
   -1.4967   -2.0175    5.8103 C   0  0  0  0  0  0  0  0  0  0  0  0
   -4.6378   -3.0386    2.5566 C   0  0  0  0  0  0  0  0  0  0  0  0
    1.8297    4.4807   -1.7000 C   0  0  0  0  0  0  0  0  0  0  0  0
    2.5819    1.8050   -1.8900 C   0  0  0  0  0  0  0  0  0  0  0  0
    1.6535    0.0143    1.7500 C   0  0  0  0  0  0  0  0  0  0  0  0
    3.2437    2.7777   -2.6482 C   0  0  0  0  0  0  0  0  0  0  0  0
   -0.7940   -3.1562    6.2247 C   0  0  0  0  0  0  0  0  0  0  0  0
   -1.4211   -0.8624    6.6122 C   0  0  0  0  0  0  0  0  0  0  0  0
   -5.3883   -1.8638    2.7206 C   0  0  0  0  0  0  0  0  0  0  0  0
   -5.3459   -4.2445    2.3897 C   0  0  0  0  0  0  0  0  0  0  0  0
    2.8667    4.1117   -2.5581 C   0  0  0  0  0  0  0  0  0  0  0  0
    1.4220    5.9205   -1.5938 C   0  0  0  0  0  0  0  0  0  0  0  0
   -0.6540   -0.8334    7.7802 C   0  0  0  0  0  0  0  0  0  0  0  0
   -6.7822   -1.8710    2.6197 C   0  0  0  0  0  0  0  0  0  0  0  0
   -6.7447   -4.2517    2.2850 C   0  0  0  0  0  0  0  0  0  0  0  0
   -0.0227   -3.1255    7.3987 C   0  0  0  0  0  0  0  0  0  0  0  0
    0.0518   -1.9657    8.1718 C   0  0  0  0  0  0  0  0  0  0  0  0
   -7.4598   -3.0597    2.3732 C   0  0  0  0  0  0  0  0  0  0  0  0
   -2.7759   -0.9105    1.7885 H   0  0  0  0  0  0  0  0  0  0  0  0
   -3.2875   -2.0054    0.4857 H   0  0  0  0  0  0  0  0  0  0  0  0
   -1.5492   -3.5732    3.6912 H   0  0  0  0  0  0  0  0  0  0  0  0
   -2.8379   -3.9749    1.9806 H   0  0  0  0  0  0  0  0  0  0  0  0
    2.5633   -0.1294   -0.1494 H   0  0  0  0  0  0  0  0  0  0  0  0
    0.9112   -1.4580   -1.3184 H   0  0  0  0  0  0  0  0  0  0  0  0
    1.2310   -2.2152    0.2402 H   0  0  0  0  0  0  0  0  0  0  0  0
   -0.8350    1.3709    0.9616 H   0  0  0  0  0  0  0  0  0  0  0  0
   -1.0526    2.0746   -0.6446 H   0  0  0  0  0  0  0  0  0  0  0  0
   -1.0694   -0.1555   -1.6915 H   0  0  0  0  0  0  0  0  0  0  0  0
   -2.3500   -0.0481   -0.4788 H   0  0  0  0  0  0  0  0  0  0  0  0
    0.3837    3.7939   -0.2685 H   0  0  0  0  0  0  0  0  0  0  0  0
    2.8956    0.7738   -2.0221 H   0  0  0  0  0  0  0  0  0  0  0  0
    0.6790   -0.0484    2.2439 H   0  0  0  0  0  0  0  0  0  0  0  0
    2.2711   -0.8107    2.1211 H   0  0  0  0  0  0  0  0  0  0  0  0
    2.1249    0.9531    2.0613 H   0  0  0  0  0  0  0  0  0  0  0  0
    4.0516    2.4852   -3.3154 H   0  0  0  0  0  0  0  0  0  0  0  0
   -0.8393   -4.0868    5.6671 H   0  0  0  0  0  0  0  0  0  0  0  0
   -1.9742    0.0327    6.3310 H   0  0  0  0  0  0  0  0  0  0  0  0
   -4.8922   -0.9131    2.8983 H   0  0  0  0  0  0  0  0  0  0  0  0
   -4.8166   -5.1892    2.2950 H   0  0  0  0  0  0  0  0  0  0  0  0
    3.3836    4.8594   -3.1543 H   0  0  0  0  0  0  0  0  0  0  0  0
    2.2939    6.5456   -1.3727 H   0  0  0  0  0  0  0  0  0  0  0  0
    0.9696    6.2552   -2.5325 H   0  0  0  0  0  0  0  0  0  0  0  0
    0.6938    6.0741   -0.7911 H   0  0  0  0  0  0  0  0  0  0  0  0
   -0.6196    0.0716    8.3823 H   0  0  0  0  0  0  0  0  0  0  0  0
   -7.3318   -0.9383    2.7106 H   0  0  0  0  0  0  0  0  0  0  0  0
   -7.2754   -5.1827    2.1078 H   0  0  0  0  0  0  0  0  0  0  0  0
    0.5191   -4.0124    7.7242 H   0  0  0  0  0  0  0  0  0  0  0  0
    0.6466   -1.9444    9.0832 H   0  0  0  0  0  0  0  0  0  0  0  0
   -8.5403   -3.0552    2.2505 H   0  0  0  0  0  0  0  0  0  0  0  0
  2 12  1  0  0  0  0
  2 10  1  0  0  0  0
  3  2  1  0  0  0  0
  4  3  1  0  0  0  0
  4 34  1  0  0  0  0
  4 35  1  0  0  0  0
  5  6  1  0  0  0  0
  6  7  1  0  0  0  0
  6 36  1  0  0  0  0
  7  4  1  0  0  0  0
  7 37  1  0  0  0  0
  8  1  1  0  0  0  0
  9  1  1  0  0  0  0
  9 38  1  0  0  0  0
 10  9  1  0  0  0  0
 10 39  1  0  0  0  0
 10 40  1  0  0  0  0
 11  1  1  0  0  0  0
 11 41  1  0  0  0  0
 11 42  1  0  0  0  0
 12 11  1  0  0  0  0
 12 43  1  0  0  0  0
 12 44  1  0  0  0  0
 13  3  2  0  0  0  0
 14  5  2  0  0  0  0
 15  8  2  0  0  0  0
 15 45  1  0  0  0  0
 16  5  1  0  0  0  0
 17  7  1  0  0  0  0
 18 15  1  0  0  0  0
 19  8  1  0  0  0  0
 19 46  1  0  0  0  0
 20  9  1  0  0  0  0
 20 47  1  0  0  0  0
 20 48  1  0  0  0  0
 20 49  1  0  0  0  0
 21 19  2  0  0  0  0
 21 50  1  0  0  0  0
 22 16  2  0  0  0  0
 22 51  1  0  0  0  0
 23 16  1  0  0  0  0
 23 52  1  0  0  0  0
 24 17  2  0  0  0  0
 24 53  1  0  0  0  0
 25 17  1  0  0  0  0
 25 54  1  0  0  0  0
 26 21  1  0  0  0  0
 26 18  2  0  0  0  0
 26 55  1  0  0  0  0
 27 18  1  0  0  0  0
 27 56  1  0  0  0  0
 27 57  1  0  0  0  0
 27 58  1  0  0  0  0
 28 23  2  0  0  0  0
 28 59  1  0  0  0  0
 29 24  1  0  0  0  0
 29 60  1  0  0  0  0
 30 25  2  0  0  0  0
 30 61  1  0  0  0  0
 31 22  1  0  0  0  0
 31 62  1  0  0  0  0
 32 28  1  0  0  0  0
 32 31  2  0  0  0  0
 32 63  1  0  0  0  0
 33 30  1  0  0  0  0
 33 29  2  0  0  0  0
 33 64  1  0  0  0  0
M  END
>  <Mol_ID>
9095

>  <Formula>
C28H31N3O2

>  <MolWeight>
441.56464

>  <Cat>
P3103

>  <Name>
WAY-640360

>  <Synonyms>
N/A

>  <Target>
TREK-2

>  <Form>
free base

>  <CAS>
851400-21-0

>  <URL>
N/A

$$$$
