WAY-329729
 OpenBabel08302521453D

 35 36  0  0  0  0  0  0  0  0999 V2000
    1.4987   -2.6146    0.2062 N   0  0  0  0  0  0  0  0  0  0  0  0
    2.3333   -3.6693    0.2957 N   0  0  0  0  0  0  0  0  0  0  0  0
    0.1813   -2.9491    0.3945 C   0  0  0  0  0  0  0  0  0  0  0  0
    0.1805   -4.3030    0.6550 C   0  0  0  0  0  0  0  0  0  0  0  0
    1.5338   -4.6995    0.5905 C   0  0  0  0  0  0  0  0  0  0  0  0
    3.4227    0.2672   -1.3077 C   0  0  0  0  0  0  0  0  0  0  0  0
    2.8314   -1.1249   -1.2714 C   0  0  0  0  0  0  0  0  0  0  0  0
    2.0711   -1.2931    0.0390 C   0  0  0  0  0  0  0  0  0  0  0  0
    4.5797    0.3490   -2.0612 N   0  0  0  0  0  0  0  0  0  0  0  0
    2.8691    1.1985   -0.7292 O   0  0  0  0  0  0  0  0  0  0  0  0
    5.4489    1.4588   -2.1551 C   0  0  0  0  0  0  0  0  0  0  0  0
   -0.9412   -1.9812    0.3458 C   0  0  0  0  0  0  0  0  0  0  0  0
    2.1044   -6.0459    0.8226 C   0  0  0  0  0  0  0  0  0  0  0  0
    5.3052    2.6225   -1.3951 C   0  0  0  0  0  0  0  0  0  0  0  0
    6.5333    1.3614   -3.0359 C   0  0  0  0  0  0  0  0  0  0  0  0
    7.4497    2.4116   -3.1576 C   0  0  0  0  0  0  0  0  0  0  0  0
    6.2235    3.6703   -1.5134 C   0  0  0  0  0  0  0  0  0  0  0  0
    7.2947    3.5661   -2.3946 C   0  0  0  0  0  0  0  0  0  0  0  0
   -0.6789   -4.9188    0.8798 H   0  0  0  0  0  0  0  0  0  0  0  0
    3.6271   -1.8736   -1.3578 H   0  0  0  0  0  0  0  0  0  0  0  0
    2.1610   -1.2426   -2.1305 H   0  0  0  0  0  0  0  0  0  0  0  0
    1.2659   -0.5562    0.1215 H   0  0  0  0  0  0  0  0  0  0  0  0
    2.7390   -1.1346    0.8954 H   0  0  0  0  0  0  0  0  0  0  0  0
    4.8407   -0.4682   -2.6000 H   0  0  0  0  0  0  0  0  0  0  0  0
   -0.8483   -1.2385    1.1447 H   0  0  0  0  0  0  0  0  0  0  0  0
   -0.9654   -1.4614   -0.6172 H   0  0  0  0  0  0  0  0  0  0  0  0
   -1.9016   -2.4912    0.4746 H   0  0  0  0  0  0  0  0  0  0  0  0
    2.6972   -6.3687   -0.0391 H   0  0  0  0  0  0  0  0  0  0  0  0
    2.7516   -6.0378    1.7059 H   0  0  0  0  0  0  0  0  0  0  0  0
    1.3155   -6.7865    0.9884 H   0  0  0  0  0  0  0  0  0  0  0  0
    4.4955    2.7456   -0.6831 H   0  0  0  0  0  0  0  0  0  0  0  0
    6.6828    0.4717   -3.6413 H   0  0  0  0  0  0  0  0  0  0  0  0
    8.2871    2.3264   -3.8452 H   0  0  0  0  0  0  0  0  0  0  0  0
    6.0977    4.5650   -0.9083 H   0  0  0  0  0  0  0  0  0  0  0  0
    8.0075    4.3817   -2.4831 H   0  0  0  0  0  0  0  0  0  0  0  0
  2  1  1  0  0  0  0
  3  1  1  0  0  0  0
  4  3  2  0  0  0  0
  4 19  1  0  0  0  0
  5  2  2  0  0  0  0
  5  4  1  0  0  0  0
  6  7  1  0  0  0  0
  7  8  1  0  0  0  0
  7 20  1  0  0  0  0
  7 21  1  0  0  0  0
  8  1  1  0  0  0  0
  8 22  1  0  0  0  0
  8 23  1  0  0  0  0
  9  6  1  0  0  0  0
  9 24  1  0  0  0  0
 10  6  2  0  0  0  0
 11  9  1  0  0  0  0
 12  3  1  0  0  0  0
 12 25  1  0  0  0  0
 12 26  1  0  0  0  0
 12 27  1  0  0  0  0
 13  5  1  0  0  0  0
 13 28  1  0  0  0  0
 13 29  1  0  0  0  0
 13 30  1  0  0  0  0
 14 11  2  0  0  0  0
 14 31  1  0  0  0  0
 15 11  1  0  0  0  0
 15 32  1  0  0  0  0
 16 15  2  0  0  0  0
 16 33  1  0  0  0  0
 17 14  1  0  0  0  0
 17 34  1  0  0  0  0
 18 16  1  0  0  0  0
 18 17  2  0  0  0  0
 18 35  1  0  0  0  0
M  END
>  <Mol_ID>
9336

>  <Formula>
C14H17N3O

>  <MolWeight>
243.30428

>  <Cat>
P2594

>  <Name>
WAY-329729

>  <Synonyms>
N/A

>  <Target>
others

>  <Form>
free base

>  <CAS>
1020049-17-5

>  <URL>
N/A

$$$$
