WAY-637379
 OpenBabel08302521423D

 49 51  0  0  0  0  0  0  0  0999 V2000
    4.2446   -1.0501   -3.5235 N   0  0  0  0  0  0  0  0  0  0  0  0
    3.5092   -2.2039   -3.5418 C   0  0  0  0  0  0  0  0  0  0  0  0
    5.5396   -1.2715   -3.9004 C   0  0  0  0  0  0  0  0  0  0  0  0
    5.6346   -2.6849   -4.2629 C   0  0  0  0  0  0  0  0  0  0  0  0
    4.3862   -3.2460   -4.0742 C   0  0  0  0  0  0  0  0  0  0  0  0
   -0.3770    3.7922   -5.4952 C   0  0  0  0  0  0  0  0  0  0  0  0
   -0.2083    3.5248   -4.1167 N   0  0  0  0  0  0  0  0  0  0  0  0
   -0.4839    4.3880   -3.0684 C   0  0  0  0  0  0  0  0  0  0  0  0
    1.8234    2.3623   -1.8416 C   0  0  0  0  0  0  0  0  0  0  0  0
    1.2821    3.5974   -1.5112 N   0  0  0  0  0  0  0  0  0  0  0  0
    2.3522   -2.3917   -3.2248 O   0  0  0  0  0  0  0  0  0  0  0  0
    6.4614   -0.4790   -3.9877 O   0  0  0  0  0  0  0  0  0  0  0  0
   -0.1579    3.8033   -1.6905 C   0  0  0  0  0  0  0  0  0  0  0  0
   -0.6069    5.0716   -6.0093 C   0  0  0  0  0  0  0  0  0  0  0  0
   -0.2982    2.7147   -6.3883 C   0  0  0  0  0  0  0  0  0  0  0  0
   -0.9844    5.5072   -3.1584 O   0  0  0  0  0  0  0  0  0  0  0  0
    1.1134    1.4832   -2.3303 O   0  0  0  0  0  0  0  0  0  0  0  0
    3.6769    0.2677   -3.2970 C   0  0  0  0  0  0  0  0  0  0  0  0
    6.6827   -3.4010   -4.8075 C   0  0  0  0  0  0  0  0  0  0  0  0
    4.1016   -4.5448   -4.4510 C   0  0  0  0  0  0  0  0  0  0  0  0
    3.3223    2.1806   -1.6303 C   0  0  0  0  0  0  0  0  0  0  0  0
    3.8411    0.7528   -1.8544 C   0  0  0  0  0  0  0  0  0  0  0  0
    2.0602    4.7285   -1.0305 C   0  0  0  0  0  0  0  0  0  0  0  0
   -0.7187    4.1928   -8.2581 C   0  0  0  0  0  0  0  0  0  0  0  0
   -0.7749    5.2717   -7.3825 C   0  0  0  0  0  0  0  0  0  0  0  0
   -0.4794    2.9128   -7.7618 C   0  0  0  0  0  0  0  0  0  0  0  0
    5.1381   -5.2821   -5.0317 C   0  0  0  0  0  0  0  0  0  0  0  0
    6.4220   -4.7192   -5.1970 C   0  0  0  0  0  0  0  0  0  0  0  0
    0.0703    2.5799   -3.8587 H   0  0  0  0  0  0  0  0  0  0  0  0
   -0.7038    2.8597   -1.5734 H   0  0  0  0  0  0  0  0  0  0  0  0
   -0.5196    4.4848   -0.9106 H   0  0  0  0  0  0  0  0  0  0  0  0
   -0.6470    5.9436   -5.3636 H   0  0  0  0  0  0  0  0  0  0  0  0
   -0.1223    1.7048   -6.0255 H   0  0  0  0  0  0  0  0  0  0  0  0
    4.1697    0.9689   -3.9773 H   0  0  0  0  0  0  0  0  0  0  0  0
    2.6239    0.2158   -3.5794 H   0  0  0  0  0  0  0  0  0  0  0  0
    7.6581   -2.9472   -4.9564 H   0  0  0  0  0  0  0  0  0  0  0  0
    3.1051   -4.9575   -4.3360 H   0  0  0  0  0  0  0  0  0  0  0  0
    3.5582    2.4656   -0.5987 H   0  0  0  0  0  0  0  0  0  0  0  0
    3.8503    2.8645   -2.3039 H   0  0  0  0  0  0  0  0  0  0  0  0
    3.3442    0.0582   -1.1670 H   0  0  0  0  0  0  0  0  0  0  0  0
    4.9080    0.7368   -1.5978 H   0  0  0  0  0  0  0  0  0  0  0  0
    2.3599    4.5300    0.0022 H   0  0  0  0  0  0  0  0  0  0  0  0
    2.9539    4.8613   -1.6472 H   0  0  0  0  0  0  0  0  0  0  0  0
    1.4688    5.6474   -1.0654 H   0  0  0  0  0  0  0  0  0  0  0  0
   -0.8612    4.3494   -9.3246 H   0  0  0  0  0  0  0  0  0  0  0  0
   -0.9532    6.2749   -7.7612 H   0  0  0  0  0  0  0  0  0  0  0  0
   -0.4406    2.0683   -8.4430 H   0  0  0  0  0  0  0  0  0  0  0  0
    4.9501   -6.2972   -5.3777 H   0  0  0  0  0  0  0  0  0  0  0  0
    7.2104   -5.3125   -5.6571 H   0  0  0  0  0  0  0  0  0  0  0  0
  2  1  1  0  0  0  0
  3  1  1  0  0  0  0
  4  3  1  0  0  0  0
  4  5  2  0  0  0  0
  5  2  1  0  0  0  0
  6  7  1  0  0  0  0
  7  8  1  0  0  0  0
  7 29  1  0  0  0  0
  8 13  1  0  0  0  0
  9 21  1  0  0  0  0
 10  9  1  0  0  0  0
 11  2  2  0  0  0  0
 12  3  2  0  0  0  0
 13 10  1  0  0  0  0
 13 30  1  0  0  0  0
 13 31  1  0  0  0  0
 14  6  2  0  0  0  0
 14 32  1  0  0  0  0
 15  6  1  0  0  0  0
 15 33  1  0  0  0  0
 16  8  2  0  0  0  0
 17  9  2  0  0  0  0
 18  1  1  0  0  0  0
 18 34  1  0  0  0  0
 18 35  1  0  0  0  0
 19  4  1  0  0  0  0
 19 36  1  0  0  0  0
 20  5  1  0  0  0  0
 20 37  1  0  0  0  0
 21 22  1  0  0  0  0
 21 38  1  0  0  0  0
 21 39  1  0  0  0  0
 22 18  1  0  0  0  0
 22 40  1  0  0  0  0
 22 41  1  0  0  0  0
 23 10  1  0  0  0  0
 23 42  1  0  0  0  0
 23 43  1  0  0  0  0
 23 44  1  0  0  0  0
 24 26  1  0  0  0  0
 24 25  2  0  0  0  0
 24 45  1  0  0  0  0
 25 14  1  0  0  0  0
 25 46  1  0  0  0  0
 26 15  2  0  0  0  0
 26 47  1  0  0  0  0
 27 20  2  0  0  0  0
 27 48  1  0  0  0  0
 28 19  2  0  0  0  0
 28 27  1  0  0  0  0
 28 49  1  0  0  0  0
M  END
>  <Mol_ID>
8491

>  <Formula>
C21H19Cl2N3O4

>  <MolWeight>
448.29926

>  <Cat>
P3011

>  <Name>
WAY-637379

>  <Synonyms>
N/A

>  <Target>
Bcl-2

>  <Form>
free base

>  <CAS>
791598-98-6

>  <URL>
N/A

$$$$
