WAY-328127
 OpenBabel08302521443D

 35 37  0  0  0  0  0  0  0  0999 V2000
   -0.3349   -1.2545    0.2700 C   0  0  0  0  0  0  0  0  0  0  0  0
    0.5149   -0.3954   -0.3203 N   0  0  0  0  0  0  0  0  0  0  0  0
   -1.3226   -0.5505    1.0062 C   0  0  0  0  0  0  0  0  0  0  0  0
   -1.0431    0.7817    0.8076 C   0  0  0  0  0  0  0  0  0  0  0  0
   -0.2099   -2.7061    0.1092 C   0  0  0  0  0  0  0  0  0  0  0  0
    0.0537    0.8718   -0.0013 O   0  0  0  0  0  0  0  0  0  0  0  0
    1.0658   -3.1414   -0.1955 N   0  0  0  0  0  0  0  0  0  0  0  0
   -1.6385    2.0404    1.2545 C   0  0  0  0  0  0  0  0  0  0  0  0
   -1.1700   -3.4614    0.2430 O   0  0  0  0  0  0  0  0  0  0  0  0
   -0.9510    3.2602    1.1319 C   0  0  0  0  0  0  0  0  0  0  0  0
   -2.9218    2.0528    1.8396 C   0  0  0  0  0  0  0  0  0  0  0  0
   -2.7802    4.4370    2.1676 C   0  0  0  0  0  0  0  0  0  0  0  0
    1.3393   -4.4650   -0.7193 C   0  0  0  0  0  0  0  0  0  0  0  0
   -1.5184    4.4538    1.5899 C   0  0  0  0  0  0  0  0  0  0  0  0
   -3.4886    3.2496    2.2934 C   0  0  0  0  0  0  0  0  0  0  0  0
   -3.3222    5.5794    2.6082 F   0  0  0  0  0  0  0  0  0  0  0  0
    2.6313   -5.0711   -0.1719 C   0  0  0  0  0  0  0  0  0  0  0  0
    1.5779   -4.4095   -2.2260 C   0  0  0  0  0  0  0  0  0  0  0  0
    2.3425   -5.6869   -2.5270 C   0  0  0  0  0  0  0  0  0  0  0  0
    3.1915   -5.9543   -1.2891 C   0  0  0  0  0  0  0  0  0  0  0  0
   -2.1135   -0.9768    1.6051 H   0  0  0  0  0  0  0  0  0  0  0  0
    1.7596   -2.4118   -0.3293 H   0  0  0  0  0  0  0  0  0  0  0  0
    0.0420    3.2962    0.6871 H   0  0  0  0  0  0  0  0  0  0  0  0
   -3.4925    1.1369    1.9421 H   0  0  0  0  0  0  0  0  0  0  0  0
    0.5001   -5.1377   -0.5033 H   0  0  0  0  0  0  0  0  0  0  0  0
   -0.9819    5.3941    1.5018 H   0  0  0  0  0  0  0  0  0  0  0  0
   -4.4764    3.2577    2.7439 H   0  0  0  0  0  0  0  0  0  0  0  0
    3.3633   -4.2959    0.0854 H   0  0  0  0  0  0  0  0  0  0  0  0
    2.4478   -5.6511    0.7394 H   0  0  0  0  0  0  0  0  0  0  0  0
    0.6440   -4.3404   -2.7926 H   0  0  0  0  0  0  0  0  0  0  0  0
    2.1900   -3.5375   -2.4918 H   0  0  0  0  0  0  0  0  0  0  0  0
    2.9548   -5.5908   -3.4294 H   0  0  0  0  0  0  0  0  0  0  0  0
    1.6443   -6.5158   -2.6868 H   0  0  0  0  0  0  0  0  0  0  0  0
    4.2426   -5.7069   -1.4750 H   0  0  0  0  0  0  0  0  0  0  0  0
    3.1537   -7.0158   -1.0198 H   0  0  0  0  0  0  0  0  0  0  0  0
  2  1  2  0  0  0  0
  3  1  1  0  0  0  0
  3 21  1  0  0  0  0
  4  3  2  0  0  0  0
  5  1  1  0  0  0  0
  6  2  1  0  0  0  0
  6  4  1  0  0  0  0
  7  5  1  0  0  0  0
  7 22  1  0  0  0  0
  8  4  1  0  0  0  0
  9  5  2  0  0  0  0
 10  8  2  0  0  0  0
 10 23  1  0  0  0  0
 11  8  1  0  0  0  0
 11 24  1  0  0  0  0
 12 15  1  0  0  0  0
 13  7  1  0  0  0  0
 13 25  1  0  0  0  0
 14 10  1  0  0  0  0
 14 12  2  0  0  0  0
 14 26  1  0  0  0  0
 15 11  2  0  0  0  0
 15 27  1  0  0  0  0
 16 12  1  0  0  0  0
 17 13  1  0  0  0  0
 17 28  1  0  0  0  0
 17 29  1  0  0  0  0
 18 13  1  0  0  0  0
 18 30  1  0  0  0  0
 18 31  1  0  0  0  0
 19 18  1  0  0  0  0
 19 20  1  0  0  0  0
 19 32  1  0  0  0  0
 19 33  1  0  0  0  0
 20 17  1  0  0  0  0
 20 34  1  0  0  0  0
 20 35  1  0  0  0  0
M  END
>  <Mol_ID>
9001

>  <Formula>
C15H15FN2O2

>  <MolWeight>
274.2902032

>  <Cat>
P2564

>  <Name>
WAY-328127

>  <Synonyms>
N/A

>  <Target>
Others

>  <Form>
free base

>  <CAS>
912784-67-9

>  <URL>
N/A

$$$$
