WAY-332027
 OpenBabel08302521443D

 46 48  0  0  0  0  0  0  0  0999 V2000
   -0.8966    4.4429    2.8890 C   0  0  0  0  0  0  0  0  0  0  0  0
    0.0266    4.0733    2.0167 N   0  0  0  0  0  0  0  0  0  0  0  0
   -0.6557    3.2927    1.1024 C   0  0  0  0  0  0  0  0  0  0  0  0
   -2.1401    3.9467    2.6105 O   0  0  0  0  0  0  0  0  0  0  0  0
   -0.7770    5.3421    4.0298 C   0  0  0  0  0  0  0  0  0  0  0  0
   -1.9827    3.2199    1.4682 C   0  0  0  0  0  0  0  0  0  0  0  0
   -0.6300    3.3411   -1.6521 S   0  0  3  0  0  0  0  0  0  0  0  0
    0.0411    2.7241   -0.0746 C   0  0  0  0  0  0  0  0  0  0  0  0
   -0.7497    5.9425   -2.5619 C   0  0  0  0  0  0  0  0  0  0  0  0
   -0.2727    5.1026   -1.3889 C   0  0  0  0  0  0  0  0  0  0  0  0
   -0.0034    7.0925   -2.7590 N   0  0  0  0  0  0  0  0  0  0  0  0
   -1.8749    5.7006    4.8225 C   0  0  0  0  0  0  0  0  0  0  0  0
    0.2864    2.8403   -2.7315 O   0  0  0  0  0  0  0  0  0  0  0  0
   -1.7397    5.6729   -3.2305 O   0  0  0  0  0  0  0  0  0  0  0  0
   -3.0929    5.1879    4.5957 F   0  0  0  0  0  0  0  0  0  0  0  0
    0.4697    5.9158    4.3369 C   0  0  0  0  0  0  0  0  0  0  0  0
   -0.1632    7.9055   -3.9481 C   0  0  0  0  0  0  0  0  0  0  0  0
   -3.2005    2.6172    0.8999 C   0  0  0  0  0  0  0  0  0  0  0  0
   -1.7470    6.6101    5.8719 C   0  0  0  0  0  0  0  0  0  0  0  0
    0.8097    7.4970   -5.0522 C   0  0  0  0  0  0  0  0  0  0  0  0
    0.2003    9.3670   -3.7125 C   0  0  0  0  0  0  0  0  0  0  0  0
    0.6027    6.8285    5.3875 C   0  0  0  0  0  0  0  0  0  0  0  0
   -0.5084    7.1810    6.1523 C   0  0  0  0  0  0  0  0  0  0  0  0
    0.9434    8.7323   -5.9398 C   0  0  0  0  0  0  0  0  0  0  0  0
    0.4223    9.9107   -5.1176 C   0  0  0  0  0  0  0  0  0  0  0  0
    1.1120    2.9501   -0.0468 H   0  0  0  0  0  0  0  0  0  0  0  0
   -0.0692    1.6347   -0.0818 H   0  0  0  0  0  0  0  0  0  0  0  0
   -0.7946    5.4617   -0.5001 H   0  0  0  0  0  0  0  0  0  0  0  0
    0.8067    5.2148   -1.2510 H   0  0  0  0  0  0  0  0  0  0  0  0
    0.8385    7.2243   -2.2136 H   0  0  0  0  0  0  0  0  0  0  0  0
    1.3480    5.6586    3.7461 H   0  0  0  0  0  0  0  0  0  0  0  0
   -1.1939    7.8304   -4.3156 H   0  0  0  0  0  0  0  0  0  0  0  0
   -3.6940    1.9757    1.6350 H   0  0  0  0  0  0  0  0  0  0  0  0
   -3.9020    3.4023    0.5997 H   0  0  0  0  0  0  0  0  0  0  0  0
   -2.9735    2.0113    0.0181 H   0  0  0  0  0  0  0  0  0  0  0  0
   -2.6236    6.8717    6.4564 H   0  0  0  0  0  0  0  0  0  0  0  0
    1.7910    7.2448   -4.6295 H   0  0  0  0  0  0  0  0  0  0  0  0
    0.4638    6.6210   -5.6098 H   0  0  0  0  0  0  0  0  0  0  0  0
   -0.5835    9.9115   -3.1767 H   0  0  0  0  0  0  0  0  0  0  0  0
    1.1247    9.4536   -3.1274 H   0  0  0  0  0  0  0  0  0  0  0  0
    1.5724    7.2711    5.6058 H   0  0  0  0  0  0  0  0  0  0  0  0
   -0.4113    7.8986    6.9632 H   0  0  0  0  0  0  0  0  0  0  0  0
    1.9864    8.8838   -6.2380 H   0  0  0  0  0  0  0  0  0  0  0  0
    0.3547    8.6213   -6.8571 H   0  0  0  0  0  0  0  0  0  0  0  0
    1.1182   10.7553   -5.1225 H   0  0  0  0  0  0  0  0  0  0  0  0
   -0.5263   10.2626   -5.5400 H   0  0  0  0  0  0  0  0  0  0  0  0
  2  1  2  0  0  0  0
  3  2  1  0  0  0  0
  4  1  1  0  0  0  0
  5  1  1  0  0  0  0
  6  4  1  0  0  0  0
  6  3  2  0  0  0  0
  7  8  1  0  0  0  0
  8  3  1  0  0  0  0
  8 26  1  0  0  0  0
  8 27  1  0  0  0  0
  9 10  1  0  0  0  0
 10  7  1  0  0  0  0
 10 28  1  0  0  0  0
 10 29  1  0  0  0  0
 11  9  1  0  0  0  0
 11 30  1  0  0  0  0
 12  5  2  0  0  0  0
 13  7  2  0  0  0  0
 14  9  2  0  0  0  0
 15 12  1  0  0  0  0
 16  5  1  0  0  0  0
 16 31  1  0  0  0  0
 17 11  1  0  0  0  0
 17 32  1  0  0  0  0
 18  6  1  0  0  0  0
 18 33  1  0  0  0  0
 18 34  1  0  0  0  0
 18 35  1  0  0  0  0
 19 12  1  0  0  0  0
 19 23  2  0  0  0  0
 19 36  1  0  0  0  0
 20 17  1  0  0  0  0
 20 37  1  0  0  0  0
 20 38  1  0  0  0  0
 21 17  1  0  0  0  0
 21 39  1  0  0  0  0
 21 40  1  0  0  0  0
 22 16  2  0  0  0  0
 22 41  1  0  0  0  0
 23 22  1  0  0  0  0
 23 42  1  0  0  0  0
 24 20  1  0  0  0  0
 24 25  1  0  0  0  0
 24 43  1  0  0  0  0
 24 44  1  0  0  0  0
 25 21  1  0  0  0  0
 25 45  1  0  0  0  0
 25 46  1  0  0  0  0
M  END
>  <Mol_ID>
9245

>  <Formula>
C18H21FN2O3S

>  <MolWeight>
364.4343432

>  <Cat>
P2675

>  <Name>
WAY-332027

>  <Synonyms>
N/A

>  <Target>
beta-catenin

>  <Form>
free base

>  <CAS>
1015857-83-6

>  <URL>
N/A

$$$$
