WAY-323282
 OpenBabel08302521423D

 39 41  0  0  0  0  0  0  0  0999 V2000
    1.0703   -1.1970   -0.0658 C   0  0  0  0  0  0  0  0  0  0  0  0
    1.7522   -2.3938   -0.1849 N   0  0  0  0  0  0  0  0  0  0  0  0
    1.7304   -0.0278   -0.0797 N   0  0  0  0  0  0  0  0  0  0  0  0
   -0.3084   -1.2279   -0.0237 C   0  0  0  0  0  0  0  0  0  0  0  0
    3.1275   -2.4012   -0.6918 C   0  0  0  0  0  0  0  0  0  0  0  0
    1.5091   -3.4667    0.7897 C   0  0  0  0  0  0  0  0  0  0  0  0
    1.0253    1.1147    0.0046 C   0  0  0  0  0  0  0  0  0  0  0  0
   -0.9738   -0.0306    0.0080 C   0  0  0  0  0  0  0  0  0  0  0  0
    3.3385   -3.7688   -1.3723 C   0  0  0  0  0  0  0  0  0  0  0  0
    1.7684   -4.8044    0.0781 C   0  0  0  0  0  0  0  0  0  0  0  0
    1.7022    2.3097    0.1626 N   0  0  0  0  0  0  0  0  0  0  0  0
   -0.3167    1.1401    0.0376 N   0  0  0  0  0  0  0  0  0  0  0  0
   -2.4673    0.0193   -0.0006 C   0  0  0  0  0  0  0  0  0  0  0  0
    3.1031   -4.8635   -0.4612 O   0  0  0  0  0  0  0  0  0  0  0  0
    3.0799    2.4014   -0.3112 C   0  0  0  0  0  0  0  0  0  0  0  0
    0.9453    3.5594    0.0534 C   0  0  0  0  0  0  0  0  0  0  0  0
    3.7771    3.5573    0.4307 C   0  0  0  0  0  0  0  0  0  0  0  0
    1.7197    4.6569    0.8011 C   0  0  0  0  0  0  0  0  0  0  0  0
    3.0582    4.7965    0.2920 O   0  0  0  0  0  0  0  0  0  0  0  0
   -0.8498   -2.1636   -0.0712 H   0  0  0  0  0  0  0  0  0  0  0  0
    3.8356   -2.2801    0.1374 H   0  0  0  0  0  0  0  0  0  0  0  0
    3.3045   -1.6071   -1.4254 H   0  0  0  0  0  0  0  0  0  0  0  0
    2.2027   -3.3549    1.6336 H   0  0  0  0  0  0  0  0  0  0  0  0
    0.4922   -3.4624    1.1953 H   0  0  0  0  0  0  0  0  0  0  0  0
    2.6632   -3.8790   -2.2315 H   0  0  0  0  0  0  0  0  0  0  0  0
    4.3658   -3.8571   -1.7391 H   0  0  0  0  0  0  0  0  0  0  0  0
    1.6539   -5.6341    0.7821 H   0  0  0  0  0  0  0  0  0  0  0  0
    1.0484   -4.9526   -0.7365 H   0  0  0  0  0  0  0  0  0  0  0  0
   -2.8289    0.5425    0.8888 H   0  0  0  0  0  0  0  0  0  0  0  0
   -2.8196    0.5413   -0.8946 H   0  0  0  0  0  0  0  0  0  0  0  0
   -2.9035   -0.9874   -0.0024 H   0  0  0  0  0  0  0  0  0  0  0  0
    3.0780    2.6067   -1.3887 H   0  0  0  0  0  0  0  0  0  0  0  0
    3.6558    1.4862   -0.1376 H   0  0  0  0  0  0  0  0  0  0  0  0
    0.8455    3.8336   -1.0061 H   0  0  0  0  0  0  0  0  0  0  0  0
   -0.0570    3.4953    0.4914 H   0  0  0  0  0  0  0  0  0  0  0  0
    3.8797    3.3261    1.4979 H   0  0  0  0  0  0  0  0  0  0  0  0
    4.7818    3.7112    0.0247 H   0  0  0  0  0  0  0  0  0  0  0  0
    1.2144    5.6205    0.6831 H   0  0  0  0  0  0  0  0  0  0  0  0
    1.7684    4.4345    1.8740 H   0  0  0  0  0  0  0  0  0  0  0  0
  1  2  1  0  0  0  0
  1  3  2  0  0  0  0
  1  4  1  0  0  0  0
  2  5  1  0  0  0  0
  2  6  1  0  0  0  0
  3  7  1  0  0  0  0
  4  8  2  0  0  0  0
  4 20  1  0  0  0  0
  5  9  1  0  0  0  0
  5 21  1  0  0  0  0
  5 22  1  0  0  0  0
  6 10  1  0  0  0  0
  6 23  1  0  0  0  0
  6 24  1  0  0  0  0
  7 11  1  0  0  0  0
  7 12  2  0  0  0  0
  8 13  1  0  0  0  0
  8 12  1  0  0  0  0
  9 14  1  0  0  0  0
  9 25  1  0  0  0  0
  9 26  1  0  0  0  0
 10 14  1  0  0  0  0
 10 27  1  0  0  0  0
 10 28  1  0  0  0  0
 11 15  1  0  0  0  0
 11 16  1  0  0  0  0
 13 29  1  0  0  0  0
 13 30  1  0  0  0  0
 13 31  1  0  0  0  0
 15 17  1  0  0  0  0
 15 32  1  0  0  0  0
 15 33  1  0  0  0  0
 16 18  1  0  0  0  0
 16 34  1  0  0  0  0
 16 35  1  0  0  0  0
 17 19  1  0  0  0  0
 17 36  1  0  0  0  0
 17 37  1  0  0  0  0
 18 19  1  0  0  0  0
 18 38  1  0  0  0  0
 18 39  1  0  0  0  0
M  END
>  <Mol_ID>
8571

>  <Formula>
C13H20N4O2

>  <MolWeight>
264.3235

>  <Cat>
P2255

>  <Name>
WAY-323282

>  <Synonyms>
N/A

>  <Target>
CD40

>  <Form>
free base

>  <CAS>
853726-31-5

>  <URL>
N/A

$$$$
