WAY-621137
 OpenBabel08302521443D

 46 49  0  0  0  0  0  0  0  0999 V2000
    0.0342    0.8673   -0.0858 N   0  0  0  0  0  0  0  0  0  0  0  0
   -1.1129    0.1189   -0.1365 C   0  0  0  0  0  0  0  0  0  0  0  0
    1.1620    0.0923    0.0039 C   0  0  0  0  0  0  0  0  0  0  0  0
    4.0732   -1.1595   -2.7217 S   0  0  0  0  0  0  0  0  0  0  0  0
    3.0426   -1.9043   -1.5777 C   0  0  0  0  0  0  0  0  0  0  0  0
    5.3731   -1.4121   -1.6098 C   0  0  0  0  0  0  0  0  0  0  0  0
    0.7690   -1.3592   -0.1367 C   0  0  3  0  0  0  0  0  0  0  0  0
   -0.7488   -1.3334   -0.0271 C   0  0  0  0  0  0  0  0  0  0  0  0
    5.0054   -2.1260   -0.5610 N   0  0  0  0  0  0  0  0  0  0  0  0
    3.6542   -2.4008   -0.5297 N   0  0  0  0  0  0  0  0  0  0  0  0
    0.0655    2.2838   -0.1282 C   0  0  0  0  0  0  0  0  0  0  0  0
    1.3057   -1.9945   -1.7658 S   0  0  0  0  0  0  0  0  0  0  0  0
    6.6042   -0.9077   -1.8746 N   0  0  0  0  0  0  0  0  0  0  0  0
    7.6126   -0.5959   -0.9343 C   0  0  0  0  0  0  0  0  0  0  0  0
   -2.2685    0.5020   -0.2518 O   0  0  0  0  0  0  0  0  0  0  0  0
    2.3128    0.4740    0.1769 O   0  0  0  0  0  0  0  0  0  0  0  0
   -0.5704    3.0488    0.8796 C   0  0  0  0  0  0  0  0  0  0  0  0
    0.7556    2.9433   -1.1771 C   0  0  0  0  0  0  0  0  0  0  0  0
    8.8686   -0.1592   -1.3903 C   0  0  0  0  0  0  0  0  0  0  0  0
    9.0677    0.0085   -2.7083 F   0  0  0  0  0  0  0  0  0  0  0  0
    0.1810    5.0949   -0.2038 C   0  0  0  0  0  0  0  0  0  0  0  0
    7.4568   -0.7495    0.4494 C   0  0  0  0  0  0  0  0  0  0  0  0
   -0.5102    4.4520    0.8176 C   0  0  0  0  0  0  0  0  0  0  0  0
    0.8129    4.3466   -1.1901 C   0  0  0  0  0  0  0  0  0  0  0  0
    1.3987    2.2077   -2.3244 C   0  0  0  0  0  0  0  0  0  0  0  0
   -1.2585    2.4313    2.0685 C   0  0  0  0  0  0  0  0  0  0  0  0
    9.9194    0.1210   -0.5157 C   0  0  0  0  0  0  0  0  0  0  0  0
    8.5029   -0.4712    1.3357 C   0  0  0  0  0  0  0  0  0  0  0  0
    9.7353   -0.0393    0.8547 C   0  0  0  0  0  0  0  0  0  0  0  0
    1.1976   -1.9529    0.6772 H   0  0  0  0  0  0  0  0  0  0  0  0
   -1.0770   -1.6932    0.9544 H   0  0  0  0  0  0  0  0  0  0  0  0
   -1.2636   -1.9085   -0.8030 H   0  0  0  0  0  0  0  0  0  0  0  0
    6.7720   -0.4898   -2.7847 H   0  0  0  0  0  0  0  0  0  0  0  0
    0.2291    6.1806   -0.2299 H   0  0  0  0  0  0  0  0  0  0  0  0
    6.5117   -1.0711    0.8776 H   0  0  0  0  0  0  0  0  0  0  0  0
   -0.9887    5.0581    1.5846 H   0  0  0  0  0  0  0  0  0  0  0  0
    1.3433    4.8689   -1.9839 H   0  0  0  0  0  0  0  0  0  0  0  0
    2.3021    1.6866   -2.0017 H   0  0  0  0  0  0  0  0  0  0  0  0
    0.6937    1.4961   -2.7660 H   0  0  0  0  0  0  0  0  0  0  0  0
    1.6963    2.8961   -3.1234 H   0  0  0  0  0  0  0  0  0  0  0  0
   -2.1786    1.9227    1.7745 H   0  0  0  0  0  0  0  0  0  0  0  0
   -0.5882    1.7294    2.5748 H   0  0  0  0  0  0  0  0  0  0  0  0
   -1.5388    3.1921    2.8061 H   0  0  0  0  0  0  0  0  0  0  0  0
   10.8727    0.4595   -0.9082 H   0  0  0  0  0  0  0  0  0  0  0  0
    8.3429   -0.5971    2.4040 H   0  0  0  0  0  0  0  0  0  0  0  0
   10.5451    0.1701    1.5487 H   0  0  0  0  0  0  0  0  0  0  0  0
  2  1  1  0  0  0  0
  3  1  1  0  0  0  0
  4  5  1  0  0  0  0
  5 12  1  0  0  0  0
  6  4  1  0  0  0  0
  7  3  1  0  0  0  0
  7 30  1  0  0  0  0
  8  2  1  0  0  0  0
  8  7  1  0  0  0  0
  8 31  1  0  0  0  0
  8 32  1  0  0  0  0
  9 10  1  0  0  0  0
  9  6  2  0  0  0  0
 10  5  2  0  0  0  0
 11  1  1  0  0  0  0
 12  7  1  0  0  0  0
 13  6  1  0  0  0  0
 13 33  1  0  0  0  0
 14 13  1  0  0  0  0
 15  2  2  0  0  0  0
 16  3  2  0  0  0  0
 17 11  2  0  0  0  0
 18 11  1  0  0  0  0
 19 14  2  0  0  0  0
 20 19  1  0  0  0  0
 21 24  1  0  0  0  0
 21 34  1  0  0  0  0
 22 14  1  0  0  0  0
 22 35  1  0  0  0  0
 23 17  1  0  0  0  0
 23 21  2  0  0  0  0
 23 36  1  0  0  0  0
 24 18  2  0  0  0  0
 24 37  1  0  0  0  0
 25 18  1  0  0  0  0
 25 38  1  0  0  0  0
 25 39  1  0  0  0  0
 25 40  1  0  0  0  0
 26 17  1  0  0  0  0
 26 41  1  0  0  0  0
 26 42  1  0  0  0  0
 26 43  1  0  0  0  0
 27 19  1  0  0  0  0
 27 29  2  0  0  0  0
 27 44  1  0  0  0  0
 28 22  2  0  0  0  0
 28 45  1  0  0  0  0
 29 28  1  0  0  0  0
 29 46  1  0  0  0  0
M  END
>  <Mol_ID>
9044

>  <Formula>
C20H17FN4O2S2

>  <MolWeight>
428.5029832

>  <Cat>
P2965

>  <Name>
WAY-621137

>  <Synonyms>
N/A

>  <Target>
the interaction of MDM4 and p53;

>  <Form>
free base

>  <CAS>
742095-19-8

>  <URL>
N/A

$$$$
