WAY-325148-A
 OpenBabel08302521423D

 41 43  0  0  0  0  0  0  0  0999 V2000
    2.3602    0.7607   -0.0685 C   0  0  0  0  0  0  0  0  0  0  0  0
    1.2977   -1.4244    0.0170 C   0  0  0  0  0  0  0  0  0  0  0  0
    2.5013   -0.5686   -0.0485 C   0  0  0  0  0  0  0  0  0  0  0  0
   -0.0060   -0.7147    0.0572 C   0  0  0  0  0  0  0  0  0  0  0  0
    1.1630    1.4348   -0.0276 O   0  0  0  0  0  0  0  0  0  0  0  0
    0.0075    0.6868    0.0084 C   0  0  0  0  0  0  0  0  0  0  0  0
    1.4085   -2.7131    0.0040 N   0  3  0  0  0  0  0  0  0  0  0  0
   -1.2368   -1.3910    0.0894 C   0  0  0  0  0  0  0  0  0  0  0  0
    3.5814    1.5653   -0.1760 C   0  0  0  0  0  0  0  0  0  0  0  0
   -1.1921    1.3978   -0.0306 C   0  0  0  0  0  0  0  0  0  0  0  0
   -2.4437   -0.6797    0.0229 C   0  0  0  0  0  0  0  0  0  0  0  0
   -2.4122    0.7172   -0.0381 C   0  0  0  0  0  0  0  0  0  0  0  0
    2.6717   -3.4823   -0.1188 C   0  0  0  0  0  0  0  0  0  0  0  0
    4.0936    1.8932   -1.4389 C   0  0  0  0  0  0  0  0  0  0  0  0
    4.3454    1.8375    0.9667 C   0  0  0  0  0  0  0  0  0  0  0  0
   -3.7485   -1.4264    0.0240 C   0  0  0  0  0  0  0  0  0  0  0  0
    2.3922   -4.9748   -0.1000 C   0  0  0  0  0  0  0  0  0  0  0  0
    3.7017   -5.7381   -0.2354 C   0  0  0  0  0  0  0  0  0  0  0  0
    5.3669    2.4531   -1.5569 C   0  0  0  0  0  0  0  0  0  0  0  0
    5.6157    2.4032    0.8450 C   0  0  0  0  0  0  0  0  0  0  0  0
    6.1309    2.6978   -0.4169 C   0  0  0  0  0  0  0  0  0  0  0  0
    3.4935   -1.0036   -0.1001 H   0  0  0  0  0  0  0  0  0  0  0  0
    0.5618   -3.2818    0.0448 H   0  0  0  0  0  0  0  0  0  0  0  0
   -1.3129   -2.4721    0.1498 H   0  0  0  0  0  0  0  0  0  0  0  0
   -1.1834    2.4857   -0.0721 H   0  0  0  0  0  0  0  0  0  0  0  0
   -3.3383    1.2882   -0.0981 H   0  0  0  0  0  0  0  0  0  0  0  0
    3.1402   -3.1899   -1.0621 H   0  0  0  0  0  0  0  0  0  0  0  0
    3.3171   -3.1992    0.7245 H   0  0  0  0  0  0  0  0  0  0  0  0
    3.5218    1.6871   -2.3414 H   0  0  0  0  0  0  0  0  0  0  0  0
    3.9727    1.5864    1.9575 H   0  0  0  0  0  0  0  0  0  0  0  0
   -3.7449   -2.1879   -0.7647 H   0  0  0  0  0  0  0  0  0  0  0  0
   -3.8987   -1.9172    0.9908 H   0  0  0  0  0  0  0  0  0  0  0  0
   -4.5972   -0.7617   -0.1615 H   0  0  0  0  0  0  0  0  0  0  0  0
    1.8942   -5.2625    0.8316 H   0  0  0  0  0  0  0  0  0  0  0  0
    1.7229   -5.2512   -0.9235 H   0  0  0  0  0  0  0  0  0  0  0  0
    4.2034   -5.4863   -1.1755 H   0  0  0  0  0  0  0  0  0  0  0  0
    4.3822   -5.4890    0.5874 H   0  0  0  0  0  0  0  0  0  0  0  0
    3.5217   -6.8149   -0.2189 H   0  0  0  0  0  0  0  0  0  0  0  0
    5.7728    2.6849   -2.5391 H   0  0  0  0  0  0  0  0  0  0  0  0
    6.2133    2.6003    1.7323 H   0  0  0  0  0  0  0  0  0  0  0  0
    7.1298    3.1181   -0.5113 H   0  0  0  0  0  0  0  0  0  0  0  0
  2  3  1  0  0  0  0
  2  4  1  0  0  0  0
  3  1  2  0  0  0  0
  3 22  1  0  0  0  0
  4  6  2  0  0  0  0
  5  1  1  0  0  0  0
  6  5  1  0  0  0  0
  7  2  2  0  0  0  0
  7 23  1  0  0  0  0
  8  4  1  0  0  0  0
  8 24  1  0  0  0  0
  9  1  1  0  0  0  0
 10  6  1  0  0  0  0
 10 25  1  0  0  0  0
 11 12  1  0  0  0  0
 11  8  2  0  0  0  0
 12 10  2  0  0  0  0
 12 26  1  0  0  0  0
 13  7  1  0  0  0  0
 13 27  1  0  0  0  0
 13 28  1  0  0  0  0
 14  9  2  0  0  0  0
 14 29  1  0  0  0  0
 15  9  1  0  0  0  0
 15 30  1  0  0  0  0
 16 11  1  0  0  0  0
 16 31  1  0  0  0  0
 16 32  1  0  0  0  0
 16 33  1  0  0  0  0
 17 13  1  0  0  0  0
 17 34  1  0  0  0  0
 17 35  1  0  0  0  0
 18 17  1  0  0  0  0
 18 36  1  0  0  0  0
 18 37  1  0  0  0  0
 18 38  1  0  0  0  0
 19 14  1  0  0  0  0
 19 21  2  0  0  0  0
 19 39  1  0  0  0  0
 20 15  2  0  0  0  0
 20 40  1  0  0  0  0
 21 20  1  0  0  0  0
 21 41  1  0  0  0  0
M  CHG  1   7   1
M  END
>  <Mol_ID>
8674

>  <Formula>
C19H20NO+

>  <MolWeight>
278.3682

>  <Cat>
P2373

>  <Name>
WAY-325148-A

>  <Synonyms>
N/A

>  <Target>
DNA synthesis

>  <Form>
free base

>  <CAS>
913525-45-8

>  <URL>
N/A

$$$$
