WAY-313072
 OpenBabel08302521403D

 54 57  0  0  0  0  0  0  0  0999 V2000
   -2.7477   -0.2481   -0.2500 N   0  0  0  0  0  0  0  0  0  0  0  0
   -1.4352   -0.1129   -0.1239 C   0  0  0  0  0  0  0  0  0  0  0  0
   -3.4871    0.8548   -0.2267 C   0  0  0  0  0  0  0  0  0  0  0  0
   -0.8602    1.0608    0.0404 N   0  0  0  0  0  0  0  0  0  0  0  0
   -2.9650    2.0718   -0.1095 N   0  0  0  0  0  0  0  0  0  0  0  0
   -1.6439    2.1294    0.0384 C   0  0  0  0  0  0  0  0  0  0  0  0
   -4.8500    0.7153   -0.2961 N   0  0  0  0  0  0  0  0  0  0  0  0
   -0.6419   -1.2262   -0.1475 N   0  0  0  0  0  0  0  0  0  0  0  0
   -1.0687    3.3965    0.2138 N   0  0  0  0  0  0  0  0  0  0  0  0
    0.2689    3.5121    0.4165 N   0  0  0  0  0  0  0  0  0  0  0  0
    2.1645    4.9306    0.8309 C   0  0  0  0  0  0  0  0  0  0  0  0
    2.6443    6.1729    0.9821 C   0  0  0  0  0  0  0  0  0  0  0  0
   -7.5219    0.3590    0.5871 O   0  0  0  0  0  0  0  0  0  0  0  0
    0.7988   -3.4216    0.9026 O   0  0  0  0  0  0  0  0  0  0  0  0
    0.7235    4.7094    0.5813 C   0  0  0  0  0  0  0  0  0  0  0  0
    4.0640    6.4977    1.2081 C   0  0  0  0  0  0  0  0  0  0  0  0
   -1.1778   -2.5709   -0.3030 C   0  0  0  0  0  0  0  0  0  0  0  0
   -5.7581    1.8560   -0.2559 C   0  0  0  0  0  0  0  0  0  0  0  0
    0.8075   -1.1301    0.0102 C   0  0  0  0  0  0  0  0  0  0  0  0
   -5.4881   -0.5948   -0.4263 C   0  0  0  0  0  0  0  0  0  0  0  0
   -0.6379   -3.4618    0.8276 C   0  0  0  0  0  0  0  0  0  0  0  0
   -6.8375    1.6047    0.8104 C   0  0  0  0  0  0  0  0  0  0  0  0
    1.2514   -2.0749    1.1361 C   0  0  0  0  0  0  0  0  0  0  0  0
   -6.5916   -0.7368    0.6359 C   0  0  0  0  0  0  0  0  0  0  0  0
    5.1108    5.7038    0.7180 C   0  0  0  0  0  0  0  0  0  0  0  0
    4.3861    7.6899    1.8728 C   0  0  0  0  0  0  0  0  0  0  0  0
    5.7187    8.0737    2.0520 C   0  0  0  0  0  0  0  0  0  0  0  0
    6.4437    6.0867    0.8983 C   0  0  0  0  0  0  0  0  0  0  0  0
    6.7470    7.2723    1.5632 C   0  0  0  0  0  0  0  0  0  0  0  0
   -1.6955    4.1585   -0.0049 H   0  0  0  0  0  0  0  0  0  0  0  0
    2.7770    4.0378    0.8840 H   0  0  0  0  0  0  0  0  0  0  0  0
    1.9735    7.0276    0.9415 H   0  0  0  0  0  0  0  0  0  0  0  0
    0.0781    5.6045    0.5503 H   0  0  0  0  0  0  0  0  0  0  0  0
   -0.8394   -2.9638   -1.2693 H   0  0  0  0  0  0  0  0  0  0  0  0
   -2.2719   -2.6129   -0.2977 H   0  0  0  0  0  0  0  0  0  0  0  0
   -6.2360    1.9486   -1.2389 H   0  0  0  0  0  0  0  0  0  0  0  0
   -5.2611    2.8071   -0.0395 H   0  0  0  0  0  0  0  0  0  0  0  0
    1.2745   -1.4400   -0.9323 H   0  0  0  0  0  0  0  0  0  0  0  0
    1.1687   -0.1206    0.2347 H   0  0  0  0  0  0  0  0  0  0  0  0
   -5.9375   -0.6598   -1.4245 H   0  0  0  0  0  0  0  0  0  0  0  0
   -4.7975   -1.4384   -0.3239 H   0  0  0  0  0  0  0  0  0  0  0  0
   -1.0509   -3.1571    1.7968 H   0  0  0  0  0  0  0  0  0  0  0  0
   -0.9305   -4.5013    0.6512 H   0  0  0  0  0  0  0  0  0  0  0  0
   -6.4005    1.5933    1.8164 H   0  0  0  0  0  0  0  0  0  0  0  0
   -7.5856    2.4028    0.7793 H   0  0  0  0  0  0  0  0  0  0  0  0
    2.3440   -2.0964    1.1943 H   0  0  0  0  0  0  0  0  0  0  0  0
    0.8702   -1.7353    2.1070 H   0  0  0  0  0  0  0  0  0  0  0  0
   -7.1570   -1.6588    0.4640 H   0  0  0  0  0  0  0  0  0  0  0  0
   -6.1623   -0.7929    1.6437 H   0  0  0  0  0  0  0  0  0  0  0  0
    4.9086    4.7849    0.1738 H   0  0  0  0  0  0  0  0  0  0  0  0
    3.6017    8.3357    2.2611 H   0  0  0  0  0  0  0  0  0  0  0  0
    5.9522    9.0015    2.5680 H   0  0  0  0  0  0  0  0  0  0  0  0
    7.2445    5.4630    0.5087 H   0  0  0  0  0  0  0  0  0  0  0  0
    7.7834    7.5742    1.6942 H   0  0  0  0  0  0  0  0  0  0  0  0
  2  1  2  0  0  0  0
  3  1  1  0  0  0  0
  4  2  1  0  0  0  0
  4  6  2  0  0  0  0
  5  3  2  0  0  0  0
  6  5  1  0  0  0  0
  7  3  1  0  0  0  0
  8  2  1  0  0  0  0
  9  6  1  0  0  0  0
  9 30  1  0  0  0  0
 10  9  1  0  0  0  0
 11 15  1  0  0  0  0
 11 31  1  0  0  0  0
 12 11  2  0  0  0  0
 12 32  1  0  0  0  0
 13 24  1  0  0  0  0
 14 23  1  0  0  0  0
 14 21  1  0  0  0  0
 15 10  2  0  0  0  0
 15 33  1  0  0  0  0
 16 12  1  0  0  0  0
 17  8  1  0  0  0  0
 17 34  1  0  0  0  0
 17 35  1  0  0  0  0
 18  7  1  0  0  0  0
 18 36  1  0  0  0  0
 18 37  1  0  0  0  0
 19  8  1  0  0  0  0
 19 38  1  0  0  0  0
 19 39  1  0  0  0  0
 20  7  1  0  0  0  0
 20 40  1  0  0  0  0
 20 41  1  0  0  0  0
 21 17  1  0  0  0  0
 21 42  1  0  0  0  0
 21 43  1  0  0  0  0
 22 18  1  0  0  0  0
 22 13  1  0  0  0  0
 22 44  1  0  0  0  0
 22 45  1  0  0  0  0
 23 19  1  0  0  0  0
 23 46  1  0  0  0  0
 23 47  1  0  0  0  0
 24 20  1  0  0  0  0
 24 48  1  0  0  0  0
 24 49  1  0  0  0  0
 25 16  2  0  0  0  0
 25 50  1  0  0  0  0
 26 16  1  0  0  0  0
 26 51  1  0  0  0  0
 27 26  2  0  0  0  0
 27 52  1  0  0  0  0
 28 25  1  0  0  0  0
 28 53  1  0  0  0  0
 29 27  1  0  0  0  0
 29 28  2  0  0  0  0
 29 54  1  0  0  0  0
M  END
>  <Mol_ID>
8325

>  <Formula>
C20H25N7O2

>  <MolWeight>
395.4582

>  <Cat>
P2240

>  <Name>
WAY-313072

>  <Synonyms>
N/A

>  <Target>
Anti-infection

>  <Form>
free base

>  <CAS>
304884-21-7

>  <URL>
N/A

$$$$
