WAY-640582
 OpenBabel08302521443D

 41 44  0  0  0  0  0  0  0  0999 V2000
    0.0432   -1.6413   -0.0121 N   0  0  0  0  0  0  0  0  0  0  0  0
    5.9673    3.5813   -0.3552 C   0  0  0  0  0  0  0  0  0  0  0  0
    0.7172    0.4921   -0.0138 C   0  0  0  0  0  0  0  0  0  0  0  0
    1.1631   -0.8303   -0.0247 C   0  0  0  0  0  0  0  0  0  0  0  0
    5.3448    4.7023    0.0501 N   0  0  0  0  0  0  0  0  0  0  0  0
   -1.1106   -0.8771   -0.0178 C   0  0  0  0  0  0  0  0  0  0  0  0
   -0.7132    0.4618   -0.0117 C   0  0  0  0  0  0  0  0  0  0  0  0
    5.3031    2.2731   -0.3937 C   0  0  0  0  0  0  0  0  0  0  0  0
    7.3060    3.8589   -0.7345 C   0  0  0  0  0  0  0  0  0  0  0  0
    6.2825    5.7171   -0.0652 O   0  0  0  0  0  0  0  0  0  0  0  0
    3.9487    2.3263   -0.0953 N   0  0  0  0  0  0  0  0  0  0  0  0
    7.4482    5.2087   -0.5475 C   0  0  0  0  0  0  0  0  0  0  0  0
    2.5291   -1.1436   -0.0356 C   0  0  0  0  0  0  0  0  0  0  0  0
    1.6739    1.5366   -0.0117 C   0  0  0  0  0  0  0  0  0  0  0  0
    3.0449    1.2427   -0.0560 C   0  0  0  0  0  0  0  0  0  0  0  0
    5.9327    1.2693   -0.7077 O   0  0  0  0  0  0  0  0  0  0  0  0
    3.4517   -0.0906   -0.0542 C   0  0  0  0  0  0  0  0  0  0  0  0
    0.0641   -3.0945    0.0587 C   0  0  0  0  0  0  0  0  0  0  0  0
   -2.4650   -1.2510   -0.0214 C   0  0  0  0  0  0  0  0  0  0  0  0
   -1.7082    1.4632   -0.0053 C   0  0  0  0  0  0  0  0  0  0  0  0
    8.5494    6.1638   -0.7676 C   0  0  0  0  0  0  0  0  0  0  0  0
    0.0070   -3.7620   -1.3048 C   0  0  0  0  0  0  0  0  0  0  0  0
   -3.0587    1.1004   -0.0024 C   0  0  0  0  0  0  0  0  0  0  0  0
   -3.4295   -0.2397   -0.0107 C   0  0  0  0  0  0  0  0  0  0  0  0
    8.0408    3.1598   -1.1074 H   0  0  0  0  0  0  0  0  0  0  0  0
    3.5728    3.2609    0.0315 H   0  0  0  0  0  0  0  0  0  0  0  0
    2.8817   -2.1697   -0.0346 H   0  0  0  0  0  0  0  0  0  0  0  0
    1.3242    2.5663   -0.0081 H   0  0  0  0  0  0  0  0  0  0  0  0
    4.5052   -0.3594   -0.0464 H   0  0  0  0  0  0  0  0  0  0  0  0
    0.9683   -3.3991    0.5966 H   0  0  0  0  0  0  0  0  0  0  0  0
   -0.7844   -3.4123    0.6744 H   0  0  0  0  0  0  0  0  0  0  0  0
   -2.7682   -2.2929   -0.0306 H   0  0  0  0  0  0  0  0  0  0  0  0
   -1.4289    2.5126   -0.0010 H   0  0  0  0  0  0  0  0  0  0  0  0
    8.2440    6.9427   -1.4726 H   0  0  0  0  0  0  0  0  0  0  0  0
    8.8434    6.6404    0.1717 H   0  0  0  0  0  0  0  0  0  0  0  0
    9.4277    5.6587   -1.1826 H   0  0  0  0  0  0  0  0  0  0  0  0
   -0.8812   -3.4538   -1.8656 H   0  0  0  0  0  0  0  0  0  0  0  0
    0.8873   -3.5126   -1.9060 H   0  0  0  0  0  0  0  0  0  0  0  0
   -0.0270   -4.8502   -1.1888 H   0  0  0  0  0  0  0  0  0  0  0  0
   -3.8232    1.8733    0.0060 H   0  0  0  0  0  0  0  0  0  0  0  0
   -4.4836   -0.5069   -0.0081 H   0  0  0  0  0  0  0  0  0  0  0  0
  2  8  1  0  0  0  0
  3  4  2  0  0  0  0
  3  7  1  0  0  0  0
  4  1  1  0  0  0  0
  5  2  2  0  0  0  0
  6  1  1  0  0  0  0
  7  6  2  0  0  0  0
  8 11  1  0  0  0  0
  9  2  1  0  0  0  0
  9 25  1  0  0  0  0
 10  5  1  0  0  0  0
 10 12  1  0  0  0  0
 11 15  1  0  0  0  0
 11 26  1  0  0  0  0
 12  9  2  0  0  0  0
 13  4  1  0  0  0  0
 13 27  1  0  0  0  0
 14  3  1  0  0  0  0
 14 28  1  0  0  0  0
 15 17  1  0  0  0  0
 15 14  2  0  0  0  0
 16  8  2  0  0  0  0
 17 13  2  0  0  0  0
 17 29  1  0  0  0  0
 18  1  1  0  0  0  0
 18 30  1  0  0  0  0
 18 31  1  0  0  0  0
 19  6  1  0  0  0  0
 19 32  1  0  0  0  0
 20  7  1  0  0  0  0
 20 33  1  0  0  0  0
 21 12  1  0  0  0  0
 21 34  1  0  0  0  0
 21 35  1  0  0  0  0
 21 36  1  0  0  0  0
 22 18  1  0  0  0  0
 22 37  1  0  0  0  0
 22 38  1  0  0  0  0
 22 39  1  0  0  0  0
 23 24  1  0  0  0  0
 23 20  2  0  0  0  0
 23 40  1  0  0  0  0
 24 19  2  0  0  0  0
 24 41  1  0  0  0  0
M  END
>  <Mol_ID>
9101

>  <Formula>
C19H17N3O2

>  <MolWeight>
319.35718

>  <Cat>
P3109

>  <Name>
WAY-640582

>  <Synonyms>
N/A

>  <Target>
neuropeptide Y5 receptor

>  <Form>
free base

>  <CAS>
322723-35-3

>  <URL>
N/A

$$$$
