WAY-298199
 OpenBabel08302521413D

 28 29  0  0  0  0  0  0  0  0999 V2000
    0.9376   -1.0909   -0.2809 C   0  0  0  0  0  0  0  0  0  0  0  0
    0.9383   -0.8358    0.9994 N   0  0  0  0  0  0  0  0  0  0  0  0
    1.3626   -2.2181   -0.9290 N   0  0  0  0  0  0  0  0  0  0  0  0
    0.3223    0.1395   -1.2960 S   0  0  0  0  0  0  0  0  0  0  0  0
    0.1264    1.1520    0.0819 C   0  0  0  0  0  0  0  0  0  0  0  0
    0.4746    0.4418    1.2142 C   0  0  0  0  0  0  0  0  0  0  0  0
    2.0777   -3.1953   -0.2703 C   0  0  0  0  0  0  0  0  0  0  0  0
    2.4572   -3.1833    0.8951 O   0  0  0  0  0  0  0  0  0  0  0  0
   -0.3437    2.5680   -0.0217 C   0  0  0  0  0  0  0  0  0  0  0  0
    0.8049    3.5497   -0.1007 C   0  0  0  0  0  0  0  0  0  0  0  0
    2.4019   -4.3660   -1.1611 C   0  0  0  0  0  0  0  0  0  0  0  0
    1.3089    3.9544   -1.3484 C   0  0  0  0  0  0  0  0  0  0  0  0
    1.4157    4.0362    1.0651 C   0  0  0  0  0  0  0  0  0  0  0  0
    2.5047    4.9061    0.9860 C   0  0  0  0  0  0  0  0  0  0  0  0
    2.3971    4.8223   -1.4229 C   0  0  0  0  0  0  0  0  0  0  0  0
    2.9982    5.2955   -0.2576 C   0  0  0  0  0  0  0  0  0  0  0  0
    1.2149   -2.2613   -1.9252 H   0  0  0  0  0  0  0  0  0  0  0  0
    0.4307    0.8177    2.2289 H   0  0  0  0  0  0  0  0  0  0  0  0
   -1.0059    2.7009   -0.8865 H   0  0  0  0  0  0  0  0  0  0  0  0
   -0.9608    2.8121    0.8536 H   0  0  0  0  0  0  0  0  0  0  0  0
    1.4803   -4.8731   -1.4578 H   0  0  0  0  0  0  0  0  0  0  0  0
    2.9499   -4.0300   -2.0452 H   0  0  0  0  0  0  0  0  0  0  0  0
    3.0302   -5.0740   -0.6114 H   0  0  0  0  0  0  0  0  0  0  0  0
    0.8606    3.5854   -2.2661 H   0  0  0  0  0  0  0  0  0  0  0  0
    1.0530    3.7335    2.0456 H   0  0  0  0  0  0  0  0  0  0  0  0
    2.9762    5.2698    1.8961 H   0  0  0  0  0  0  0  0  0  0  0  0
    2.7843    5.1268   -2.3917 H   0  0  0  0  0  0  0  0  0  0  0  0
    3.8520    5.9654   -0.3172 H   0  0  0  0  0  0  0  0  0  0  0  0
  2  1  2  0  0  0  0
  3  1  1  0  0  0  0
  3 17  1  0  0  0  0
  4  1  1  0  0  0  0
  5  4  1  0  0  0  0
  6  2  1  0  0  0  0
  6  5  2  0  0  0  0
  6 18  1  0  0  0  0
  7  3  1  0  0  0  0
  8  7  2  0  0  0  0
  9  5  1  0  0  0  0
  9 19  1  0  0  0  0
  9 20  1  0  0  0  0
 10  9  1  0  0  0  0
 11  7  1  0  0  0  0
 11 21  1  0  0  0  0
 11 22  1  0  0  0  0
 11 23  1  0  0  0  0
 12 10  2  0  0  0  0
 12 24  1  0  0  0  0
 13 10  1  0  0  0  0
 13 25  1  0  0  0  0
 14 13  2  0  0  0  0
 14 26  1  0  0  0  0
 15 12  1  0  0  0  0
 15 16  2  0  0  0  0
 15 27  1  0  0  0  0
 16 14  1  0  0  0  0
 16 28  1  0  0  0  0
M  END
>  <Mol_ID>
8351

>  <Formula>
C12H12N2OS

>  <MolWeight>
232.30148

>  <Cat>
P2100

>  <Name>
WAY-298199

>  <Synonyms>
N/A

>  <Target>
Anti-infection

>  <Form>
free base

>  <CAS>
303093-76-7

>  <URL>
N/A

$$$$
