WAY-223535
 OpenBabel08302521413D

 43 45  0  0  0  0  0  0  0  0999 V2000
    0.2031   -0.9889    0.3182 N   0  0  0  0  0  0  0  0  0  0  0  0
    0.9570    0.1668    0.1589 C   0  0  0  0  0  0  0  0  0  0  0  0
   -1.3236    0.6903   -0.2383 C   0  0  3  0  0  0  0  0  0  0  0  0
   -1.4755    0.6886   -1.7488 C   0  0  0  0  0  0  0  0  0  0  0  0
   -1.2146   -0.7100    0.3367 C   0  0  0  0  0  0  0  0  0  0  0  0
    0.0055    1.3385    0.1478 C   0  0  0  0  0  0  0  0  0  0  0  0
   -1.7914    1.8140   -2.4511 N   0  0  0  0  0  0  0  0  0  0  0  0
    2.1694    0.2482    0.0759 O   0  0  0  0  0  0  0  0  0  0  0  0
    0.7450   -2.3366    0.1846 C   0  0  0  0  0  0  0  0  0  0  0  0
   -1.3135   -0.3421   -2.4099 O   0  0  0  0  0  0  0  0  0  0  0  0
   -2.3163    3.0687   -2.0908 C   0  0  0  0  0  0  0  0  0  0  0  0
    0.5970   -2.8501   -1.2586 C   0  0  0  0  0  0  0  0  0  0  0  0
    0.1105   -3.3151    1.1799 C   0  0  0  0  0  0  0  0  0  0  0  0
   -2.3767    3.5919   -0.8012 C   0  0  0  0  0  0  0  0  0  0  0  0
   -2.8872    3.8126   -3.1335 C   0  0  0  0  0  0  0  0  0  0  0  0
    0.7028   -4.7130    1.0289 C   0  0  0  0  0  0  0  0  0  0  0  0
    1.1652   -4.2578   -1.4141 C   0  0  0  0  0  0  0  0  0  0  0  0
   -3.5990    4.9857   -2.8723 C   0  0  0  0  0  0  0  0  0  0  0  0
   -3.0944    4.7624   -0.5358 C   0  0  0  0  0  0  0  0  0  0  0  0
    0.5598   -5.2264   -0.4015 C   0  0  0  0  0  0  0  0  0  0  0  0
   -3.7278    5.4449   -1.5668 C   0  0  0  0  0  0  0  0  0  0  0  0
   -2.2078    1.1589    0.1993 H   0  0  0  0  0  0  0  0  0  0  0  0
   -1.5258   -0.7263    1.3882 H   0  0  0  0  0  0  0  0  0  0  0  0
   -1.7834   -1.4609   -0.2129 H   0  0  0  0  0  0  0  0  0  0  0  0
   -0.0332    1.7594    1.1581 H   0  0  0  0  0  0  0  0  0  0  0  0
    0.3543    2.0953   -0.5643 H   0  0  0  0  0  0  0  0  0  0  0  0
   -1.8244    1.5936   -3.4417 H   0  0  0  0  0  0  0  0  0  0  0  0
    1.8181   -2.2710    0.4030 H   0  0  0  0  0  0  0  0  0  0  0  0
   -0.4605   -2.8626   -1.5486 H   0  0  0  0  0  0  0  0  0  0  0  0
    1.1017   -2.1698   -1.9555 H   0  0  0  0  0  0  0  0  0  0  0  0
    0.2631   -2.9560    2.2053 H   0  0  0  0  0  0  0  0  0  0  0  0
   -0.9748   -3.3708    1.0277 H   0  0  0  0  0  0  0  0  0  0  0  0
   -1.8802    3.1428    0.0440 H   0  0  0  0  0  0  0  0  0  0  0  0
   -2.8263    3.4663   -4.1633 H   0  0  0  0  0  0  0  0  0  0  0  0
    0.2039   -5.4006    1.7204 H   0  0  0  0  0  0  0  0  0  0  0  0
    1.7637   -4.6908    1.3061 H   0  0  0  0  0  0  0  0  0  0  0  0
    0.9741   -4.6207   -2.4304 H   0  0  0  0  0  0  0  0  0  0  0  0
    2.2537   -4.2262   -1.2849 H   0  0  0  0  0  0  0  0  0  0  0  0
   -4.0720    5.5264   -3.6881 H   0  0  0  0  0  0  0  0  0  0  0  0
   -3.1634    5.1306    0.4852 H   0  0  0  0  0  0  0  0  0  0  0  0
   -0.5030   -5.3746   -0.6301 H   0  0  0  0  0  0  0  0  0  0  0  0
    1.0455   -6.2042   -0.4918 H   0  0  0  0  0  0  0  0  0  0  0  0
   -4.3118    6.3354   -1.3523 H   0  0  0  0  0  0  0  0  0  0  0  0
  2  1  1  0  0  0  0
  3  5  1  0  0  0  0
  3  6  1  0  0  0  0
  3 22  1  0  0  0  0
  4  3  1  0  0  0  0
  5  1  1  0  0  0  0
  5 23  1  0  0  0  0
  5 24  1  0  0  0  0
  6  2  1  0  0  0  0
  6 25  1  0  0  0  0
  6 26  1  0  0  0  0
  7  4  1  0  0  0  0
  7 27  1  0  0  0  0
  8  2  2  0  0  0  0
  9  1  1  0  0  0  0
  9 28  1  0  0  0  0
 10  4  2  0  0  0  0
 11  7  1  0  0  0  0
 12  9  1  0  0  0  0
 12 29  1  0  0  0  0
 12 30  1  0  0  0  0
 13  9  1  0  0  0  0
 13 31  1  0  0  0  0
 13 32  1  0  0  0  0
 14 11  2  0  0  0  0
 14 33  1  0  0  0  0
 15 11  1  0  0  0  0
 15 34  1  0  0  0  0
 16 13  1  0  0  0  0
 16 35  1  0  0  0  0
 16 36  1  0  0  0  0
 17 12  1  0  0  0  0
 17 37  1  0  0  0  0
 17 38  1  0  0  0  0
 18 15  2  0  0  0  0
 18 39  1  0  0  0  0
 19 14  1  0  0  0  0
 19 21  2  0  0  0  0
 19 40  1  0  0  0  0
 20 16  1  0  0  0  0
 20 17  1  0  0  0  0
 20 41  1  0  0  0  0
 20 42  1  0  0  0  0
 21 18  1  0  0  0  0
 21 43  1  0  0  0  0
M  END
>  <Mol_ID>
8374

>  <Formula>
C17H22N2O2

>  <MolWeight>
286.36878

>  <Cat>
P2058

>  <Name>
WAY-223535

>  <Synonyms>
N/A

>  <Target>
InhA,Enoyl Acyl Carrier Protein Reductase

>  <Form>
free base

>  <CAS>
136353-11-2

>  <URL>
N/A

$$$$
