WAY-637184-A
 OpenBabel08302521423D

 37 39  0  0  0  0  0  0  0  0999 V2000
   -0.2855    0.3647    0.8127 O   0  0  0  0  0  0  0  0  0  0  0  0
   -1.1397   -0.6132    0.1824 C   0  0  0  0  0  0  0  0  0  0  0  0
    1.6447   -0.8246   -0.1016 C   0  0  0  0  0  0  0  0  0  0  0  0
    1.0338    0.3082    0.4551 C   0  0  0  0  0  0  0  0  0  0  0  0
    0.8667   -2.0986   -0.3210 C   0  0  3  0  0  0  0  0  0  0  0  0
   -0.5087   -2.0087    0.3429 C   0  0  0  0  0  0  0  0  0  0  0  0
   -3.4763    1.0564   -0.6571 N   0  0  0  0  0  0  0  0  0  0  0  0
   -2.4740   -0.5907    0.9606 C   0  0  0  0  0  0  0  0  0  0  0  0
   -1.4069   -0.2101   -1.2847 C   0  0  0  0  0  0  0  0  0  0  0  0
   -3.2494    0.7143    0.7513 C   0  0  0  0  0  0  0  0  0  0  0  0
   -2.2034    1.0912   -1.3836 C   0  0  0  0  0  0  0  0  0  0  0  0
    0.7215   -2.4096   -1.7474 N   0  0  0  0  0  0  0  0  0  0  0  0
    3.0035   -0.7495   -0.4469 C   0  0  0  0  0  0  0  0  0  0  0  0
    1.7650    1.4735    0.6826 C   0  0  0  0  0  0  0  0  0  0  0  0
   -4.4555    0.1838   -1.2996 C   0  0  0  0  0  0  0  0  0  0  0  0
    3.7281    0.4277   -0.2447 C   0  0  0  0  0  0  0  0  0  0  0  0
    3.1092    1.5385    0.3241 C   0  0  0  0  0  0  0  0  0  0  0  0
    1.4153   -2.9267    0.1467 H   0  0  0  0  0  0  0  0  0  0  0  0
   -0.3704   -2.2058    1.4163 H   0  0  0  0  0  0  0  0  0  0  0  0
   -1.1783   -2.7954   -0.0281 H   0  0  0  0  0  0  0  0  0  0  0  0
   -3.1004   -1.4406    0.6630 H   0  0  0  0  0  0  0  0  0  0  0  0
   -2.2803   -0.6990    2.0359 H   0  0  0  0  0  0  0  0  0  0  0  0
   -1.9363   -1.0168   -1.8049 H   0  0  0  0  0  0  0  0  0  0  0  0
   -0.4727   -0.0407   -1.8304 H   0  0  0  0  0  0  0  0  0  0  0  0
   -2.7025    1.5396    1.2261 H   0  0  0  0  0  0  0  0  0  0  0  0
   -4.2079    0.6613    1.2821 H   0  0  0  0  0  0  0  0  0  0  0  0
   -2.3782    1.3345   -2.4392 H   0  0  0  0  0  0  0  0  0  0  0  0
   -1.5978    1.9204   -0.9944 H   0  0  0  0  0  0  0  0  0  0  0  0
    1.6412   -2.4859   -2.1761 H   0  0  0  0  0  0  0  0  0  0  0  0
    0.2744   -3.3177   -1.8554 H   0  0  0  0  0  0  0  0  0  0  0  0
    3.5070   -1.6101   -0.8836 H   0  0  0  0  0  0  0  0  0  0  0  0
    1.2771    2.3405    1.1222 H   0  0  0  0  0  0  0  0  0  0  0  0
   -4.1633   -0.8711   -1.3046 H   0  0  0  0  0  0  0  0  0  0  0  0
   -5.4238    0.2632   -0.7946 H   0  0  0  0  0  0  0  0  0  0  0  0
   -4.6182    0.4913   -2.3386 H   0  0  0  0  0  0  0  0  0  0  0  0
    4.7745    0.4780   -0.5325 H   0  0  0  0  0  0  0  0  0  0  0  0
    3.6698    2.4557    0.4824 H   0  0  0  0  0  0  0  0  0  0  0  0
  2  1  1  0  0  0  0
  3  4  2  0  0  0  0
  4  1  1  0  0  0  0
  5  3  1  0  0  0  0
  5  6  1  0  0  0  0
  5 18  1  0  0  0  0
  6  2  1  0  0  0  0
  6 19  1  0  0  0  0
  6 20  1  0  0  0  0
  7 11  1  0  0  0  0
  7 10  1  0  0  0  0
  8  2  1  0  0  0  0
  8 21  1  0  0  0  0
  8 22  1  0  0  0  0
  9  2  1  0  0  0  0
  9 23  1  0  0  0  0
  9 24  1  0  0  0  0
 10  8  1  0  0  0  0
 10 25  1  0  0  0  0
 10 26  1  0  0  0  0
 11  9  1  0  0  0  0
 11 27  1  0  0  0  0
 11 28  1  0  0  0  0
 12  5  1  0  0  0  0
 12 29  1  0  0  0  0
 12 30  1  0  0  0  0
 13  3  1  0  0  0  0
 13 31  1  0  0  0  0
 14  4  1  0  0  0  0
 14 32  1  0  0  0  0
 15  7  1  0  0  0  0
 15 33  1  0  0  0  0
 15 34  1  0  0  0  0
 15 35  1  0  0  0  0
 16 17  1  0  0  0  0
 16 13  2  0  0  0  0
 16 36  1  0  0  0  0
 17 14  2  0  0  0  0
 17 37  1  0  0  0  0
M  END
>  <Mol_ID>
8479

>  <Formula>
C14H20N2O

>  <MolWeight>
232.3214

>  <Cat>
P3005

>  <Name>
WAY-637184-A

>  <Synonyms>
N/A

>  <Target>
vanilloid receptor subtype 1

>  <Form>
free base

>  <CAS>
70505-90-7

>  <URL>
N/A

$$$$
