WAY-312431
 OpenBabel08302521403D

 47 49  0  0  0  0  0  0  0  0999 V2000
   -0.9981    0.3967    0.2591 N   0  0  0  0  0  0  0  0  0  0  0  0
   -0.7984   -0.9835   -0.2604 C   0  0  3  0  0  0  0  0  0  0  0  0
   -1.6436    0.5738    1.8256 S   0  0  0  0  0  0  0  0  0  0  0  0
    0.2360    1.1520   -0.0683 C   0  0  0  0  0  0  0  0  0  0  0  0
   -0.9990   -1.0788   -1.7783 C   0  0  0  0  0  0  0  0  0  0  0  0
    0.6804   -1.2510    0.0195 C   0  0  0  0  0  0  0  0  0  0  0  0
   -0.3675    0.0208    2.9555 C   0  0  0  0  0  0  0  0  0  0  0  0
   -1.8167    1.9980    2.0590 O   0  0  0  0  0  0  0  0  0  0  0  0
   -2.7564   -0.3335    1.9424 O   0  0  0  0  0  0  0  0  0  0  0  0
    1.3421    0.1052   -0.2119 C   0  0  0  0  0  0  0  0  0  0  0  0
   -1.8509   -0.1463   -2.3559 N   0  0  0  0  0  0  0  0  0  0  0  0
   -0.3844   -1.9361   -2.4143 O   0  0  0  0  0  0  0  0  0  0  0  0
    0.5837    0.9218    3.4462 C   0  0  0  0  0  0  0  0  0  0  0  0
   -0.3482   -1.3125    3.3735 C   0  0  0  0  0  0  0  0  0  0  0  0
   -2.1553   -0.1343   -3.7320 C   0  0  0  0  0  0  0  0  0  0  0  0
    1.6269    0.4597    4.2559 C   0  0  0  0  0  0  0  0  0  0  0  0
    0.6819   -1.7620    4.2062 C   0  0  0  0  0  0  0  0  0  0  0  0
   -1.9283   -1.2519   -4.5499 C   0  0  0  0  0  0  0  0  0  0  0  0
   -2.6563    1.0288   -4.3208 C   0  0  0  0  0  0  0  0  0  0  0  0
    1.6902   -0.8861    4.6333 C   0  0  0  0  0  0  0  0  0  0  0  0
   -2.1079   -1.1939   -5.9239 C   0  0  0  0  0  0  0  0  0  0  0  0
   -2.8291    1.0924   -5.7087 C   0  0  0  0  0  0  0  0  0  0  0  0
    2.8029   -1.3871    5.5084 C   0  0  0  0  0  0  0  0  0  0  0  0
   -2.5392   -0.0123   -6.5190 C   0  0  0  0  0  0  0  0  0  0  0  0
   -2.6527    0.0875   -8.0154 C   0  0  0  0  0  0  0  0  0  0  0  0
   -1.4482   -1.7270    0.2125 H   0  0  0  0  0  0  0  0  0  0  0  0
    0.4800    1.9209    0.6673 H   0  0  0  0  0  0  0  0  0  0  0  0
    0.0676    1.6737   -1.0178 H   0  0  0  0  0  0  0  0  0  0  0  0
    0.8273   -1.5752    1.0506 H   0  0  0  0  0  0  0  0  0  0  0  0
    1.1204   -2.0327   -0.6095 H   0  0  0  0  0  0  0  0  0  0  0  0
    2.1529    0.2756    0.5020 H   0  0  0  0  0  0  0  0  0  0  0  0
    1.7803    0.1593   -1.2139 H   0  0  0  0  0  0  0  0  0  0  0  0
   -2.0276    0.7005   -1.8136 H   0  0  0  0  0  0  0  0  0  0  0  0
    0.5360    1.9804    3.2034 H   0  0  0  0  0  0  0  0  0  0  0  0
   -1.1118   -2.0120    3.0411 H   0  0  0  0  0  0  0  0  0  0  0  0
    2.3927    1.1593    4.5872 H   0  0  0  0  0  0  0  0  0  0  0  0
    0.6968   -2.8043    4.5191 H   0  0  0  0  0  0  0  0  0  0  0  0
   -1.5812   -2.1920   -4.1382 H   0  0  0  0  0  0  0  0  0  0  0  0
   -2.8698    1.9079   -3.7219 H   0  0  0  0  0  0  0  0  0  0  0  0
   -1.8859   -2.0762   -6.5210 H   0  0  0  0  0  0  0  0  0  0  0  0
   -3.1647    2.0234   -6.1608 H   0  0  0  0  0  0  0  0  0  0  0  0
    2.4019   -1.7353    6.4654 H   0  0  0  0  0  0  0  0  0  0  0  0
    3.3314   -2.2101    5.0166 H   0  0  0  0  0  0  0  0  0  0  0  0
    3.5352   -0.5999    5.7162 H   0  0  0  0  0  0  0  0  0  0  0  0
   -3.6605    0.3984   -8.3044 H   0  0  0  0  0  0  0  0  0  0  0  0
   -1.9254    0.8112   -8.3968 H   0  0  0  0  0  0  0  0  0  0  0  0
   -2.4479   -0.8749   -8.4985 H   0  0  0  0  0  0  0  0  0  0  0  0
  1  2  1  0  0  0  0
  1  3  1  0  0  0  0
  1  4  1  0  0  0  0
  2  5  1  0  0  0  0
  2  6  1  0  0  0  0
  2 26  1  0  0  0  0
  3  7  1  0  0  0  0
  3  8  2  0  0  0  0
  3  9  2  0  0  0  0
  4 10  1  0  0  0  0
  4 27  1  0  0  0  0
  4 28  1  0  0  0  0
  5 11  1  0  0  0  0
  5 12  2  0  0  0  0
  6 10  1  0  0  0  0
  6 29  1  0  0  0  0
  6 30  1  0  0  0  0
  7 13  2  0  0  0  0
  7 14  1  0  0  0  0
 10 31  1  0  0  0  0
 10 32  1  0  0  0  0
 11 15  1  0  0  0  0
 11 33  1  0  0  0  0
 13 16  1  0  0  0  0
 13 34  1  0  0  0  0
 14 17  2  0  0  0  0
 14 35  1  0  0  0  0
 15 18  2  0  0  0  0
 15 19  1  0  0  0  0
 16 20  2  0  0  0  0
 16 36  1  0  0  0  0
 17 20  1  0  0  0  0
 17 37  1  0  0  0  0
 18 21  1  0  0  0  0
 18 38  1  0  0  0  0
 19 22  2  0  0  0  0
 19 39  1  0  0  0  0
 20 23  1  0  0  0  0
 21 24  2  0  0  0  0
 21 40  1  0  0  0  0
 22 24  1  0  0  0  0
 22 41  1  0  0  0  0
 23 42  1  0  0  0  0
 23 43  1  0  0  0  0
 23 44  1  0  0  0  0
 24 25  1  0  0  0  0
 25 45  1  0  0  0  0
 25 46  1  0  0  0  0
 25 47  1  0  0  0  0
M  END
>  <Mol_ID>
8271

>  <Formula>
C19H22N2O3S

>  <MolWeight>
358.45458

>  <Cat>
P2231

>  <Name>
WAY-312431

>  <Synonyms>
N/A

>  <Target>
others

>  <Form>
free base

>  <CAS>
73096-28-3

>  <URL>
N/A

$$$$
