WAY-604499
 OpenBabel08302521393D

 24 25  0  0  0  0  0  0  0  0999 V2000
   -0.3959    1.2704   -0.0446 C   0  0  0  0  0  0  0  0  0  0  0  0
    0.8687    0.1928    0.3638 S   0  0  0  0  0  0  0  0  0  0  0  0
   -0.0123    2.5810   -0.0422 N   0  0  0  0  0  0  0  0  0  0  0  0
   -1.5477    0.7010   -0.2929 N   0  0  0  0  0  0  0  0  0  0  0  0
   -0.2760   -1.0814    0.2146 C   0  0  0  0  0  0  0  0  0  0  0  0
   -0.8937    3.6308   -0.0901 C   0  0  0  0  0  0  0  0  0  0  0  0
   -1.4721   -0.6799   -0.1652 N   0  0  0  0  0  0  0  0  0  0  0  0
    0.1023   -2.4994    0.4968 C   0  0  0  0  0  0  0  0  0  0  0  0
   -0.1728    4.9479   -0.0619 C   0  0  0  0  0  0  0  0  0  0  0  0
   -2.1111    3.5907   -0.1352 O   0  0  0  0  0  0  0  0  0  0  0  0
   -0.1996   -2.8880    1.9373 C   0  0  0  0  0  0  0  0  0  0  0  0
   -0.8680    6.2399    0.2892 C   0  0  0  0  0  0  0  0  0  0  0  0
   -0.4559    5.9758   -1.1312 C   0  0  0  0  0  0  0  0  0  0  0  0
    0.9730    2.7504    0.0728 H   0  0  0  0  0  0  0  0  0  0  0  0
   -0.4569   -3.1582   -0.1773 H   0  0  0  0  0  0  0  0  0  0  0  0
    1.1658   -2.6685    0.2897 H   0  0  0  0  0  0  0  0  0  0  0  0
    0.8576    4.8923    0.2801 H   0  0  0  0  0  0  0  0  0  0  0  0
   -1.2520   -2.7137    2.1853 H   0  0  0  0  0  0  0  0  0  0  0  0
    0.0153   -3.9497    2.0968 H   0  0  0  0  0  0  0  0  0  0  0  0
    0.4109   -2.3120    2.6415 H   0  0  0  0  0  0  0  0  0  0  0  0
   -1.9303    6.2221    0.5160 H   0  0  0  0  0  0  0  0  0  0  0  0
   -0.3110    6.9783    0.8502 H   0  0  0  0  0  0  0  0  0  0  0  0
    0.3879    6.5254   -1.5343 H   0  0  0  0  0  0  0  0  0  0  0  0
   -1.2464    5.7837   -1.8468 H   0  0  0  0  0  0  0  0  0  0  0  0
  1  2  1  0  0  0  0
  1  3  1  0  0  0  0
  1  4  2  0  0  0  0
  2  5  1  0  0  0  0
  3  6  1  0  0  0  0
  3 14  1  0  0  0  0
  4  7  1  0  0  0  0
  5  8  1  0  0  0  0
  5  7  2  0  0  0  0
  6  9  1  0  0  0  0
  6 10  2  0  0  0  0
  8 11  1  0  0  0  0
  8 15  1  0  0  0  0
  8 16  1  0  0  0  0
  9 12  1  0  0  0  0
  9 13  1  0  0  0  0
  9 17  1  0  0  0  0
 11 18  1  0  0  0  0
 11 19  1  0  0  0  0
 11 20  1  0  0  0  0
 12 13  1  0  0  0  0
 12 21  1  0  0  0  0
 12 22  1  0  0  0  0
 13 23  1  0  0  0  0
 13 24  1  0  0  0  0
M  END
>  <Mol_ID>
8118

>  <Formula>
C8H11N3OS

>  <MolWeight>
197.25744

>  <Cat>
P2831

>  <Name>
WAY-604499

>  <Synonyms>
N/A

>  <Target>
Anti-infection

>  <Form>
free base

>  <CAS>
354542-00-0

>  <URL>
N/A

$$$$
