WAY-639698
 OpenBabel08302521443D

 33 35  0  0  0  0  0  0  0  0999 V2000
    0.0922   -1.1179   -0.1180 C   0  0  0  0  0  0  0  0  0  0  0  0
    1.3002   -0.6433    0.0777 N   0  0  0  0  0  0  0  0  0  0  0  0
    0.3609   -4.8872   -1.9414 N   0  3  0  0  0  0  0  0  0  0  0  0
   -1.3642   -3.0943   -0.1839 C   0  0  0  0  0  0  0  0  0  0  0  0
   -1.3765   -4.5839   -0.1959 C   0  0  0  0  0  0  0  0  0  0  0  0
   -0.1388   -2.4738   -0.1821 N   0  0  0  0  0  0  0  0  0  0  0  0
    1.2550    0.7492    0.1332 C   0  0  0  0  0  0  0  0  0  0  0  0
   -0.6122   -5.4157   -1.0181 C   0  0  0  0  0  0  0  0  0  0  0  0
   -1.1401    0.0397   -0.3209 S   0  0  0  0  0  0  0  0  0  0  0  0
   -0.0005    1.2899   -0.0783 C   0  0  0  0  0  0  0  0  0  0  0  0
    1.3389   -4.3116   -1.4447 O   0  5  0  0  0  0  0  0  0  0  0  0
    2.4378    1.5682    0.3940 C   0  0  0  0  0  0  0  0  0  0  0  0
    0.1780   -5.0986   -3.1463 O   0  0  0  0  0  0  0  0  0  0  0  0
   -2.4612   -2.5480   -0.0964 O   0  0  0  0  0  0  0  0  0  0  0  0
    2.2450    2.9111    0.4902 N   0  0  0  0  0  0  0  0  0  0  0  0
   -2.3165   -5.1960    0.6533 C   0  0  0  0  0  0  0  0  0  0  0  0
   -0.7544   -6.8158   -0.9917 C   0  0  0  0  0  0  0  0  0  0  0  0
    3.3321    3.6769    0.7291 C   0  0  0  0  0  0  0  0  0  0  0  0
    3.6907    0.9810    0.5368 C   0  0  0  0  0  0  0  0  0  0  0  0
   -2.4600   -6.5866    0.6951 C   0  0  0  0  0  0  0  0  0  0  0  0
   -1.6776   -7.3965   -0.1259 C   0  0  0  0  0  0  0  0  0  0  0  0
    4.6129    3.1733    0.8761 C   0  0  0  0  0  0  0  0  0  0  0  0
    4.7933    1.7992    0.7781 C   0  0  0  0  0  0  0  0  0  0  0  0
    0.7232   -3.0104   -0.1553 H   0  0  0  0  0  0  0  0  0  0  0  0
   -0.2897    2.3309   -0.0947 H   0  0  0  0  0  0  0  0  0  0  0  0
   -2.9584   -4.5831    1.2893 H   0  0  0  0  0  0  0  0  0  0  0  0
   -0.1555   -7.4515   -1.6440 H   0  0  0  0  0  0  0  0  0  0  0  0
    3.1385    4.7440    0.8007 H   0  0  0  0  0  0  0  0  0  0  0  0
    3.8126   -0.0952    0.4591 H   0  0  0  0  0  0  0  0  0  0  0  0
   -3.1944   -7.0354    1.3620 H   0  0  0  0  0  0  0  0  0  0  0  0
   -1.7964   -8.4778   -0.0963 H   0  0  0  0  0  0  0  0  0  0  0  0
    5.4500    3.8372    1.0636 H   0  0  0  0  0  0  0  0  0  0  0  0
    5.7826    1.3652    0.8876 H   0  0  0  0  0  0  0  0  0  0  0  0
  2  1  2  0  0  0  0
  3  8  1  0  0  0  0
  4  6  1  0  0  0  0
  5  4  1  0  0  0  0
  6  1  1  0  0  0  0
  6 24  1  0  0  0  0
  7  2  1  0  0  0  0
  8  5  2  0  0  0  0
  9  1  1  0  0  0  0
 10  9  1  0  0  0  0
 10  7  2  0  0  0  0
 10 25  1  0  0  0  0
 11  3  1  0  0  0  0
 12  7  1  0  0  0  0
 13  3  2  0  0  0  0
 14  4  2  0  0  0  0
 15 12  2  0  0  0  0
 16  5  1  0  0  0  0
 16 26  1  0  0  0  0
 17  8  1  0  0  0  0
 17 27  1  0  0  0  0
 18 15  1  0  0  0  0
 18 28  1  0  0  0  0
 19 12  1  0  0  0  0
 19 29  1  0  0  0  0
 20 16  2  0  0  0  0
 20 30  1  0  0  0  0
 21 20  1  0  0  0  0
 21 17  2  0  0  0  0
 21 31  1  0  0  0  0
 22 23  1  0  0  0  0
 22 18  2  0  0  0  0
 22 32  1  0  0  0  0
 23 19  2  0  0  0  0
 23 33  1  0  0  0  0
M  CHG  2   3   1  11  -1
M  END
>  <Mol_ID>
9077

>  <Formula>
C15H10N4O3S

>  <MolWeight>
326.3299

>  <Cat>
P3084

>  <Name>
WAY-639698

>  <Synonyms>
N/A

>  <Target>
Anti-infection

>  <Form>
free base

>  <CAS>
476317-29-0

>  <URL>
N/A

$$$$
