WAY-660898
 OpenBabel08302521443D

 33 36  0  0  0  0  0  0  0  0999 V2000
    0.7040    0.3897    0.0055 N   0  0  0  0  0  0  0  0  0  0  0  0
    1.0616   -0.9498    0.0477 C   0  0  0  0  0  0  0  0  0  0  0  0
    0.0075   -1.7351    0.0490 N   0  0  0  0  0  0  0  0  0  0  0  0
    1.5502    1.4675   -0.0207 N   0  0  0  0  0  0  0  0  0  0  0  0
    3.3413   -0.2594    0.0230 C   0  0  0  0  0  0  0  0  0  0  0  0
    2.4467   -1.2569    0.0722 C   0  0  0  0  0  0  0  0  0  0  0  0
   -0.6689    0.4489    0.0025 C   0  0  0  0  0  0  0  0  0  0  0  0
    4.7856   -0.5857    0.0721 C   0  0  0  0  0  0  0  0  0  0  0  0
   -1.0717   -0.8839    0.0236 C   0  0  0  0  0  0  0  0  0  0  0  0
    5.7660    0.2766   -0.6304 C   0  0  0  0  0  0  0  0  0  0  0  0
    2.7997    1.1252   -0.0018 C   0  0  0  0  0  0  0  0  0  0  0  0
    7.0554    0.4238   -0.0973 C   0  0  0  0  0  0  0  0  0  0  0  0
    5.2020   -1.5389    0.7286 O   0  0  0  0  0  0  0  0  0  0  0  0
    7.4373   -0.1225    1.0990 O   0  0  0  0  0  0  0  0  0  0  0  0
   -1.5724    1.5189   -0.0150 C   0  0  0  0  0  0  0  0  0  0  0  0
    5.4558    0.8950   -1.8511 C   0  0  0  0  0  0  0  0  0  0  0  0
   -2.4425   -1.1834    0.0188 C   0  0  0  0  0  0  0  0  0  0  0  0
    8.0221    1.1640   -0.7739 C   0  0  0  0  0  0  0  0  0  0  0  0
   -2.9347    1.1988   -0.0142 C   0  0  0  0  0  0  0  0  0  0  0  0
    6.4241    1.6499   -2.5196 C   0  0  0  0  0  0  0  0  0  0  0  0
   -3.3652   -0.1291   -0.0005 C   0  0  0  0  0  0  0  0  0  0  0  0
    7.7077    1.7730   -1.9880 C   0  0  0  0  0  0  0  0  0  0  0  0
    2.7374   -2.3005    0.1261 H   0  0  0  0  0  0  0  0  0  0  0  0
    3.5494    1.9333    0.0115 H   0  0  0  0  0  0  0  0  0  0  0  0
    6.7591   -0.7758    1.3765 H   0  0  0  0  0  0  0  0  0  0  0  0
   -1.2288    2.5482   -0.0251 H   0  0  0  0  0  0  0  0  0  0  0  0
    4.4787    0.7866   -2.3146 H   0  0  0  0  0  0  0  0  0  0  0  0
   -2.7729   -2.2165    0.0317 H   0  0  0  0  0  0  0  0  0  0  0  0
    9.0233    1.2552   -0.3598 H   0  0  0  0  0  0  0  0  0  0  0  0
   -3.6704    2.0013   -0.0238 H   0  0  0  0  0  0  0  0  0  0  0  0
    6.1842    2.1302   -3.4661 H   0  0  0  0  0  0  0  0  0  0  0  0
   -4.4299   -0.3510   -0.0022 H   0  0  0  0  0  0  0  0  0  0  0  0
    8.4681    2.3383   -2.5224 H   0  0  0  0  0  0  0  0  0  0  0  0
  2  1  1  0  0  0  0
  3  2  2  0  0  0  0
  4  1  1  0  0  0  0
  5 11  1  0  0  0  0
  5  6  2  0  0  0  0
  6  2  1  0  0  0  0
  6 23  1  0  0  0  0
  7  1  1  0  0  0  0
  8  5  1  0  0  0  0
  9  7  2  0  0  0  0
  9  3  1  0  0  0  0
 10  8  1  0  0  0  0
 11  4  2  0  0  0  0
 11 24  1  0  0  0  0
 12 10  2  0  0  0  0
 13  8  2  0  0  0  0
 14 12  1  0  0  0  0
 14 25  1  0  0  0  0
 15  7  1  0  0  0  0
 15 26  1  0  0  0  0
 16 10  1  0  0  0  0
 16 27  1  0  0  0  0
 17  9  1  0  0  0  0
 17 28  1  0  0  0  0
 18 12  1  0  0  0  0
 18 29  1  0  0  0  0
 19 15  2  0  0  0  0
 19 30  1  0  0  0  0
 20 16  2  0  0  0  0
 20 31  1  0  0  0  0
 21 19  1  0  0  0  0
 21 17  2  0  0  0  0
 21 32  1  0  0  0  0
 22 20  1  0  0  0  0
 22 18  2  0  0  0  0
 22 33  1  0  0  0  0
M  END
>  <Mol_ID>
9123

>  <Formula>
C17H11N3O2

>  <MolWeight>
289.28814

>  <Cat>
P3204

>  <Name>
WAY-660898

>  <Synonyms>
N/A

>  <Target>
Androgen Receptor

>  <Form>
free base

>  <CAS>
871797-45-4

>  <URL>
N/A

$$$$
