WAY-227882
 OpenBabel08302521393D

 29 30  0  0  0  0  0  0  0  0999 V2000
    1.4598   -3.1000   -0.2981 C   0  0  0  0  0  0  0  0  0  0  0  0
   -2.3558   -2.1116    3.6431 C   0  0  0  0  0  0  0  0  0  0  0  0
    0.0918   -2.5973   -0.1875 C   0  0  0  0  0  0  0  0  0  0  0  0
   -1.7574   -2.3308    2.4324 O   0  0  0  0  0  0  0  0  0  0  0  0
    2.5914   -2.3277   -0.5344 C   0  0  0  0  0  0  0  0  0  0  0  0
   -1.6407   -1.4364    4.6923 C   0  0  0  0  0  0  0  0  0  0  0  0
   -3.6448   -2.6168    3.6089 C   0  0  0  0  0  0  0  0  0  0  0  0
   -2.6592   -2.9629    1.6276 C   0  0  0  0  0  0  0  0  0  0  0  0
   -0.8503   -3.5540    0.1271 N   0  0  0  0  0  0  0  0  0  0  0  0
   -3.8327   -3.1758    2.3223 C   0  0  0  0  0  0  0  0  0  0  0  0
    1.9455   -4.4458   -0.2343 C   0  0  0  0  0  0  0  0  0  0  0  0
    3.6910   -3.1216   -0.6822 O   0  0  0  0  0  0  0  0  0  0  0  0
    3.2901   -4.4010   -0.5094 C   0  0  0  0  0  0  0  0  0  0  0  0
   -0.2033   -1.4275   -0.4126 O   0  0  0  0  0  0  0  0  0  0  0  0
   -2.0567   -1.1393    5.8038 O   0  0  0  0  0  0  0  0  0  0  0  0
   -2.2557   -3.2367    0.2227 C   0  0  0  0  0  0  0  0  0  0  0  0
   -0.3701   -1.1382    4.3399 O   0  0  0  0  0  0  0  0  0  0  0  0
    2.8620   -0.8776   -0.6589 C   0  0  0  0  0  0  0  0  0  0  0  0
   -4.3569   -2.5713    4.4222 H   0  0  0  0  0  0  0  0  0  0  0  0
   -0.5510   -4.4639    0.4357 H   0  0  0  0  0  0  0  0  0  0  0  0
   -4.7257   -3.6479    1.9370 H   0  0  0  0  0  0  0  0  0  0  0  0
    1.3852   -5.3495   -0.0484 H   0  0  0  0  0  0  0  0  0  0  0  0
    4.0614   -5.1514   -0.6107 H   0  0  0  0  0  0  0  0  0  0  0  0
   -2.4990   -2.3788   -0.4121 H   0  0  0  0  0  0  0  0  0  0  0  0
   -2.8004   -4.1087   -0.1553 H   0  0  0  0  0  0  0  0  0  0  0  0
   -0.0093   -0.6808    5.1242 H   0  0  0  0  0  0  0  0  0  0  0  0
    3.5940   -0.5724    0.0966 H   0  0  0  0  0  0  0  0  0  0  0  0
    3.2795   -0.6501   -1.6450 H   0  0  0  0  0  0  0  0  0  0  0  0
    1.9689   -0.2668   -0.5182 H   0  0  0  0  0  0  0  0  0  0  0  0
  2  4  1  0  0  0  0
  3  1  1  0  0  0  0
  4  8  1  0  0  0  0
  5  1  2  0  0  0  0
  6  2  1  0  0  0  0
  7 10  1  0  0  0  0
  7  2  2  0  0  0  0
  7 19  1  0  0  0  0
  8 16  1  0  0  0  0
  9  3  1  0  0  0  0
  9 20  1  0  0  0  0
 10  8  2  0  0  0  0
 10 21  1  0  0  0  0
 11  1  1  0  0  0  0
 11 22  1  0  0  0  0
 12  5  1  0  0  0  0
 13 11  2  0  0  0  0
 13 12  1  0  0  0  0
 13 23  1  0  0  0  0
 14  3  2  0  0  0  0
 15  6  2  0  0  0  0
 16  9  1  0  0  0  0
 16 24  1  0  0  0  0
 16 25  1  0  0  0  0
 17  6  1  0  0  0  0
 17 26  1  0  0  0  0
 18  5  1  0  0  0  0
 18 27  1  0  0  0  0
 18 28  1  0  0  0  0
 18 29  1  0  0  0  0
M  END
>  <Mol_ID>
8037

>  <Formula>
C12H11NO5

>  <MolWeight>
249.21944

>  <Cat>
P2062

>  <Name>
WAY-227882

>  <Synonyms>
N/A

>  <Target>
others

>  <Form>
free base

>  <CAS>
446054-20-2

>  <URL>
N/A

$$$$
