WAY-385540
 OpenBabel08302521413D

 58 62  0  0  0  0  0  0  0  0999 V2000
    1.8117    1.3901   -0.9129 N   0  0  0  0  0  0  0  0  0  0  0  0
    1.6908    1.8435   -2.2576 C   0  0  0  0  0  0  0  0  0  0  0  0
    0.3901    1.3518   -2.4920 C   0  0  0  0  0  0  0  0  0  0  0  0
    0.5893    1.8394   -0.3281 C   0  0  0  0  0  0  0  0  0  0  0  0
   -0.1827    2.1551   -1.4570 C   0  0  0  0  0  0  0  0  0  0  0  0
    3.0078    0.8956   -0.3212 C   0  0  0  0  0  0  0  0  0  0  0  0
    0.2048    2.0841    0.9478 N   0  0  0  0  0  0  0  0  0  0  0  0
   -1.1122    3.1375   -1.3986 N   0  0  0  0  0  0  0  0  0  0  0  0
    0.2192   -0.1329   -2.5068 C   0  0  0  0  0  0  0  0  0  0  0  0
    3.1557    1.1482    1.0257 C   0  0  0  0  0  0  0  0  0  0  0  0
   -0.8892    2.8710    1.0065 C   0  0  0  0  0  0  0  0  0  0  0  0
   -1.4355    3.5087   -0.1399 C   0  0  0  0  0  0  0  0  0  0  0  0
   -0.9564   -0.7261   -2.8131 N   0  0  0  0  0  0  0  0  0  0  0  0
    4.0687    0.3004   -1.0487 C   0  0  0  0  0  0  0  0  0  0  0  0
    2.2492    3.0576   -2.6149 N   0  0  0  0  0  0  0  0  0  0  0  0
    1.1078   -0.9090   -2.1517 O   0  0  0  0  0  0  0  0  0  0  0  0
   -3.2142   -1.7513   -1.6631 O   0  0  0  0  0  0  0  0  0  0  0  0
    5.2864    0.0778   -0.3801 C   0  0  0  0  0  0  0  0  0  0  0  0
    4.4470    1.2449    1.5309 C   0  0  0  0  0  0  0  0  0  0  0  0
   -2.2123   -0.2568   -3.3440 C   0  0  0  0  0  0  0  0  0  0  0  0
    5.4945    0.6234    0.8946 C   0  0  0  0  0  0  0  0  0  0  0  0
   -3.3846   -0.5082   -2.3736 C   0  0  3  0  0  0  0  0  0  0  0  0
    3.8697   -0.0501   -2.3591 O   0  0  0  0  0  0  0  0  0  0  0  0
    4.6951    2.1226    2.5585 O   0  0  0  0  0  0  0  0  0  0  0  0
   -1.5336    3.0727    2.2278 C   0  0  0  0  0  0  0  0  0  0  0  0
   -2.3835    4.5118    0.0416 C   0  0  0  0  0  0  0  0  0  0  0  0
   -3.0708   -1.4743   -0.2644 C   0  0  0  0  0  0  0  0  0  0  0  0
    4.9010   -0.7706   -3.0312 C   0  0  0  0  0  0  0  0  0  0  0  0
    3.9282    3.3350    2.3769 C   0  0  0  0  0  0  0  0  0  0  0  0
   -3.5737    0.5888   -1.3451 C   0  0  0  0  0  0  0  0  0  0  0  0
   -3.6515   -0.1053   -0.0119 C   0  0  0  0  0  0  0  0  0  0  0  0
   -2.5939    3.9749    2.3688 C   0  0  0  0  0  0  0  0  0  0  0  0
   -2.9696    4.7535    1.2854 C   0  0  0  0  0  0  0  0  0  0  0  0
    2.3326    1.5040    1.6315 H   0  0  0  0  0  0  0  0  0  0  0  0
   -0.9000   -1.7257   -2.6509 H   0  0  0  0  0  0  0  0  0  0  0  0
    2.0637    3.8260   -1.9574 H   0  0  0  0  0  0  0  0  0  0  0  0
    1.9775    3.4139   -3.5321 H   0  0  0  0  0  0  0  0  0  0  0  0
    6.1163   -0.4344   -0.8573 H   0  0  0  0  0  0  0  0  0  0  0  0
   -2.1438    0.7818   -3.6745 H   0  0  0  0  0  0  0  0  0  0  0  0
   -2.3683   -0.8854   -4.2289 H   0  0  0  0  0  0  0  0  0  0  0  0
    6.4910    0.6247    1.3273 H   0  0  0  0  0  0  0  0  0  0  0  0
   -4.2998   -0.6039   -2.9668 H   0  0  0  0  0  0  0  0  0  0  0  0
   -1.2127    2.5001    3.0924 H   0  0  0  0  0  0  0  0  0  0  0  0
   -2.6992    5.1071   -0.8136 H   0  0  0  0  0  0  0  0  0  0  0  0
   -2.0071   -1.5121   -0.0054 H   0  0  0  0  0  0  0  0  0  0  0  0
   -3.5892   -2.2464    0.3133 H   0  0  0  0  0  0  0  0  0  0  0  0
    5.0894   -1.7395   -2.5545 H   0  0  0  0  0  0  0  0  0  0  0  0
    4.5705   -0.9696   -4.0559 H   0  0  0  0  0  0  0  0  0  0  0  0
    5.8232   -0.1825   -3.0977 H   0  0  0  0  0  0  0  0  0  0  0  0
    3.8246    3.6164    1.3158 H   0  0  0  0  0  0  0  0  0  0  0  0
    2.9334    3.2201    2.8240 H   0  0  0  0  0  0  0  0  0  0  0  0
    4.4363    4.1596    2.8765 H   0  0  0  0  0  0  0  0  0  0  0  0
   -2.7533    1.2978   -1.3651 H   0  0  0  0  0  0  0  0  0  0  0  0
   -4.4821    1.1649   -1.5491 H   0  0  0  0  0  0  0  0  0  0  0  0
   -3.1161    0.4309    0.7784 H   0  0  0  0  0  0  0  0  0  0  0  0
   -4.6968   -0.1881    0.3035 H   0  0  0  0  0  0  0  0  0  0  0  0
   -3.1068    4.0766    3.3225 H   0  0  0  0  0  0  0  0  0  0  0  0
   -3.7410    5.5125    1.3936 H   0  0  0  0  0  0  0  0  0  0  0  0
  2  1  1  0  0  0  0
  3  2  2  0  0  0  0
  3  5  1  0  0  0  0
  4  1  1  0  0  0  0
  5  4  2  0  0  0  0
  6  1  1  0  0  0  0
  7  4  1  0  0  0  0
  8  5  1  0  0  0  0
  8 12  2  0  0  0  0
  9  3  1  0  0  0  0
 10  6  2  0  0  0  0
 10 34  1  0  0  0  0
 11  7  2  0  0  0  0
 12 11  1  0  0  0  0
 13  9  1  0  0  0  0
 13 35  1  0  0  0  0
 14  6  1  0  0  0  0
 15  2  1  0  0  0  0
 15 36  1  0  0  0  0
 15 37  1  0  0  0  0
 16  9  2  0  0  0  0
 17 22  1  0  0  0  0
 18 14  2  0  0  0  0
 18 38  1  0  0  0  0
 19 10  1  0  0  0  0
 19 21  2  0  0  0  0
 20 13  1  0  0  0  0
 20 39  1  0  0  0  0
 20 40  1  0  0  0  0
 21 18  1  0  0  0  0
 21 41  1  0  0  0  0
 22 20  1  0  0  0  0
 22 42  1  0  0  0  0
 23 14  1  0  0  0  0
 24 19  1  0  0  0  0
 25 11  1  0  0  0  0
 25 43  1  0  0  0  0
 26 12  1  0  0  0  0
 26 44  1  0  0  0  0
 27 17  1  0  0  0  0
 27 45  1  0  0  0  0
 27 46  1  0  0  0  0
 28 23  1  0  0  0  0
 28 47  1  0  0  0  0
 28 48  1  0  0  0  0
 28 49  1  0  0  0  0
 29 24  1  0  0  0  0
 29 50  1  0  0  0  0
 29 51  1  0  0  0  0
 29 52  1  0  0  0  0
 30 22  1  0  0  0  0
 30 53  1  0  0  0  0
 30 54  1  0  0  0  0
 31 30  1  0  0  0  0
 31 27  1  0  0  0  0
 31 55  1  0  0  0  0
 31 56  1  0  0  0  0
 32 25  2  0  0  0  0
 32 57  1  0  0  0  0
 33 32  1  0  0  0  0
 33 26  2  0  0  0  0
 33 58  1  0  0  0  0
M  END
>  <Mol_ID>
8447

>  <Formula>
C24H25N5O4

>  <MolWeight>
447.4864

>  <Cat>
P2812

>  <Name>
WAY-385540

>  <Synonyms>
N/A

>  <Target>
Mcl-1

>  <Form>
free base

>  <CAS>
376386-30-0

>  <URL>
N/A

$$$$
