WAY-233765
 OpenBabel08302521403D

 39 41  0  0  0  0  0  0  0  0999 V2000
   -0.1501   -0.1604    0.5769 C   0  0  0  0  0  0  0  0  0  0  0  0
   -0.2571    0.5243   -0.6278 C   0  0  0  0  0  0  0  0  0  0  0  0
   -1.4453   -0.4507    0.9151 N   0  0  0  0  0  0  0  0  0  0  0  0
    1.0672   -0.4261    1.2046 C   0  0  0  0  0  0  0  0  0  0  0  0
   -1.5718    0.6603   -1.0023 N   0  0  0  0  0  0  0  0  0  0  0  0
    0.9076    0.9694   -1.2681 C   0  0  0  0  0  0  0  0  0  0  0  0
   -2.2700    0.0648   -0.0564 C   0  0  0  0  0  0  0  0  0  0  0  0
    2.2197    0.0267    0.5521 C   0  0  0  0  0  0  0  0  0  0  0  0
    2.1448    0.7105   -0.6645 C   0  0  0  0  0  0  0  0  0  0  0  0
   -3.7583   -0.0155    0.0262 C   0  0  0  0  0  0  0  0  0  0  0  0
   -4.2924    0.6971    1.2675 C   0  0  0  0  0  0  0  0  0  0  0  0
   -3.9339    2.1011    1.2758 N   0  0  0  0  0  0  0  0  0  0  0  0
   -3.7574    2.8069    2.4437 C   0  0  0  0  0  0  0  0  0  0  0  0
   -3.4219    4.2467    2.2897 C   0  0  0  0  0  0  0  0  0  0  0  0
   -3.8954    2.3126    3.5583 O   0  0  0  0  0  0  0  0  0  0  0  0
   -2.6851    4.7158    1.1915 C   0  0  0  0  0  0  0  0  0  0  0  0
   -3.8738    5.1401    3.2674 C   0  0  0  0  0  0  0  0  0  0  0  0
   -2.4440    6.0825    1.0475 C   0  0  0  0  0  0  0  0  0  0  0  0
   -3.6264    6.5033    3.1284 C   0  0  0  0  0  0  0  0  0  0  0  0
   -2.9216    6.9696    2.0176 C   0  0  0  0  0  0  0  0  0  0  0  0
   -1.7719    6.6713    0.0113 O   0  0  0  0  0  0  0  0  0  0  0  0
   -1.2815    5.8085   -1.0090 C   0  0  0  0  0  0  0  0  0  0  0  0
   -1.7425   -0.9247    1.7558 H   0  0  0  0  0  0  0  0  0  0  0  0
    1.1251   -0.9550    2.1500 H   0  0  0  0  0  0  0  0  0  0  0  0
    0.8408    1.5000   -2.2105 H   0  0  0  0  0  0  0  0  0  0  0  0
    3.1932   -0.1594    1.0010 H   0  0  0  0  0  0  0  0  0  0  0  0
    3.0567    1.0474   -1.1508 H   0  0  0  0  0  0  0  0  0  0  0  0
   -4.1869    0.4461   -0.8728 H   0  0  0  0  0  0  0  0  0  0  0  0
   -4.0732   -1.0649    0.0314 H   0  0  0  0  0  0  0  0  0  0  0  0
   -5.3873    0.6356    1.2954 H   0  0  0  0  0  0  0  0  0  0  0  0
   -3.9146    0.2232    2.1803 H   0  0  0  0  0  0  0  0  0  0  0  0
   -3.8941    2.5820    0.3850 H   0  0  0  0  0  0  0  0  0  0  0  0
   -2.2970    4.0048    0.4704 H   0  0  0  0  0  0  0  0  0  0  0  0
   -4.4317    4.7753    4.1270 H   0  0  0  0  0  0  0  0  0  0  0  0
   -3.9930    7.2047    3.8731 H   0  0  0  0  0  0  0  0  0  0  0  0
   -2.7391    8.0368    1.9041 H   0  0  0  0  0  0  0  0  0  0  0  0
   -0.5039    5.1451   -0.6165 H   0  0  0  0  0  0  0  0  0  0  0  0
   -2.0931    5.2371   -1.4723 H   0  0  0  0  0  0  0  0  0  0  0  0
   -0.8312    6.4316   -1.7873 H   0  0  0  0  0  0  0  0  0  0  0  0
  1  2  2  0  0  0  0
  1  3  1  0  0  0  0
  1  4  1  0  0  0  0
  2  5  1  0  0  0  0
  2  6  1  0  0  0  0
  3  7  1  0  0  0  0
  3 23  1  0  0  0  0
  4  8  2  0  0  0  0
  4 24  1  0  0  0  0
  5  7  2  0  0  0  0
  6  9  2  0  0  0  0
  6 25  1  0  0  0  0
  7 10  1  0  0  0  0
  8  9  1  0  0  0  0
  8 26  1  0  0  0  0
  9 27  1  0  0  0  0
 10 11  1  0  0  0  0
 10 28  1  0  0  0  0
 10 29  1  0  0  0  0
 11 12  1  0  0  0  0
 11 30  1  0  0  0  0
 11 31  1  0  0  0  0
 12 13  1  0  0  0  0
 12 32  1  0  0  0  0
 13 14  1  0  0  0  0
 13 15  2  0  0  0  0
 14 16  2  0  0  0  0
 14 17  1  0  0  0  0
 16 18  1  0  0  0  0
 16 33  1  0  0  0  0
 17 19  2  0  0  0  0
 17 34  1  0  0  0  0
 18 20  2  0  0  0  0
 18 21  1  0  0  0  0
 19 20  1  0  0  0  0
 19 35  1  0  0  0  0
 20 36  1  0  0  0  0
 21 22  1  0  0  0  0
 22 37  1  0  0  0  0
 22 38  1  0  0  0  0
 22 39  1  0  0  0  0
M  END
>  <Mol_ID>
8315

>  <Formula>
C17H17N3O2

>  <MolWeight>
295.33578

>  <Cat>
P2067

>  <Name>
WAY-233765

>  <Synonyms>
N/A

>  <Target>
ion channel

>  <Form>
free base

>  <CAS>
302950-26-1

>  <URL>
N/A

$$$$
