WAY-324590
 OpenBabel08302521423D

 47 50  0  0  0  0  0  0  0  0999 V2000
    0.1653   -0.7974    0.0050 C   0  0  0  0  0  0  0  0  0  0  0  0
    0.3254    0.5975    0.0180 N   0  0  0  0  0  0  0  0  0  0  0  0
    1.4363   -1.3446   -0.0300 C   0  0  0  0  0  0  0  0  0  0  0  0
   -1.0692   -1.3961    0.0281 N   0  0  0  0  0  0  0  0  0  0  0  0
   -0.7887    1.4278    0.0181 C   0  0  0  0  0  0  0  0  0  0  0  0
    1.6368    0.9300    0.0164 N   0  0  0  0  0  0  0  0  0  0  0  0
    2.2909   -0.2297   -0.0152 C   0  0  0  0  0  0  0  0  0  0  0  0
    1.8179   -2.7422   -0.0651 C   0  0  0  0  0  0  0  0  0  0  0  0
   -2.1091   -0.6092    0.0558 C   0  0  0  0  0  0  0  0  0  0  0  0
   -2.0224    0.8844    0.0198 C   0  0  0  0  0  0  0  0  0  0  0  0
   -0.6026    2.8993   -0.0002 C   0  0  0  0  0  0  0  0  0  0  0  0
    0.7625   -3.6241   -0.1319 N   0  0  0  0  0  0  0  0  0  0  0  0
    2.9897   -3.0983   -0.0337 O   0  0  0  0  0  0  0  0  0  0  0  0
   -3.4758   -1.2143    0.1103 C   0  0  0  0  0  0  0  0  0  0  0  0
    0.6673    3.3598   -0.0294 F   0  0  0  0  0  0  0  0  0  0  0  0
   -1.2337    3.4447   -1.0774 F   0  0  0  0  0  0  0  0  0  0  0  0
   -1.1916    3.4630    1.0919 F   0  0  0  0  0  0  0  0  0  0  0  0
    0.9338   -5.0575   -0.1444 C   0  0  0  0  0  0  0  0  0  0  0  0
   -4.5614   -0.5532    0.7015 C   0  0  0  0  0  0  0  0  0  0  0  0
   -3.6644   -2.4997   -0.4199 C   0  0  0  0  0  0  0  0  0  0  0  0
    1.0686   -5.6461    1.2570 C   0  0  0  0  0  0  0  0  0  0  0  0
   -5.8234   -1.1558    0.7306 C   0  0  0  0  0  0  0  0  0  0  0  0
   -4.9247   -3.1039   -0.3841 C   0  0  0  0  0  0  0  0  0  0  0  0
   -0.1849   -5.4270    2.1019 C   0  0  0  0  0  0  0  0  0  0  0  0
   -5.9998   -2.4257    0.1853 C   0  0  0  0  0  0  0  0  0  0  0  0
   -0.0664   -6.0321    3.4137 N   0  0  0  0  0  0  0  0  0  0  0  0
   -7.7070   -3.2342    0.2259 Br  0  0  0  0  0  0  0  0  0  0  0  0
   -0.4586   -7.2929    3.7641 C   0  0  0  0  0  0  0  0  0  0  0  0
    0.4486   -5.4318    4.5264 C   0  0  0  0  0  0  0  0  0  0  0  0
   -0.1365   -7.4039    5.0971 C   0  0  0  0  0  0  0  0  0  0  0  0
    0.4212   -6.2407    5.5616 N   0  0  0  0  0  0  0  0  0  0  0  0
    3.3751   -0.2230   -0.0279 H   0  0  0  0  0  0  0  0  0  0  0  0
   -2.9159    1.4947   -0.0239 H   0  0  0  0  0  0  0  0  0  0  0  0
   -0.1727   -3.2211   -0.1406 H   0  0  0  0  0  0  0  0  0  0  0  0
    0.0693   -5.4849   -0.6630 H   0  0  0  0  0  0  0  0  0  0  0  0
    1.8294   -5.2989   -0.7277 H   0  0  0  0  0  0  0  0  0  0  0  0
   -4.4527    0.4209    1.1694 H   0  0  0  0  0  0  0  0  0  0  0  0
   -2.8355   -3.0386   -0.8735 H   0  0  0  0  0  0  0  0  0  0  0  0
    1.2648   -6.7217    1.1671 H   0  0  0  0  0  0  0  0  0  0  0  0
    1.9384   -5.2109    1.7651 H   0  0  0  0  0  0  0  0  0  0  0  0
   -6.6587   -0.6295    1.1874 H   0  0  0  0  0  0  0  0  0  0  0  0
   -5.0568   -4.0987   -0.8028 H   0  0  0  0  0  0  0  0  0  0  0  0
   -0.3849   -4.3600    2.2539 H   0  0  0  0  0  0  0  0  0  0  0  0
   -1.0658   -5.8636    1.6171 H   0  0  0  0  0  0  0  0  0  0  0  0
   -0.9093   -7.9859    3.0683 H   0  0  0  0  0  0  0  0  0  0  0  0
    0.8295   -4.4185    4.5287 H   0  0  0  0  0  0  0  0  0  0  0  0
   -0.2774   -8.2575    5.7474 H   0  0  0  0  0  0  0  0  0  0  0  0
  1  2  1  0  0  0  0
  1  3  2  0  0  0  0
  1  4  1  0  0  0  0
  2  5  1  0  0  0  0
  2  6  1  0  0  0  0
  3  7  1  0  0  0  0
  3  8  1  0  0  0  0
  4  9  2  0  0  0  0
  5 10  2  0  0  0  0
  5 11  1  0  0  0  0
  6  7  2  0  0  0  0
  7 32  1  0  0  0  0
  8 12  1  0  0  0  0
  8 13  2  0  0  0  0
  9 14  1  0  0  0  0
  9 10  1  0  0  0  0
 10 33  1  0  0  0  0
 11 15  1  0  0  0  0
 11 16  1  0  0  0  0
 11 17  1  0  0  0  0
 12 18  1  0  0  0  0
 12 34  1  0  0  0  0
 14 19  2  0  0  0  0
 14 20  1  0  0  0  0
 18 21  1  0  0  0  0
 18 35  1  0  0  0  0
 18 36  1  0  0  0  0
 19 22  1  0  0  0  0
 19 37  1  0  0  0  0
 20 23  2  0  0  0  0
 20 38  1  0  0  0  0
 21 24  1  0  0  0  0
 21 39  1  0  0  0  0
 21 40  1  0  0  0  0
 22 25  2  0  0  0  0
 22 41  1  0  0  0  0
 23 25  1  0  0  0  0
 23 42  1  0  0  0  0
 24 26  1  0  0  0  0
 24 43  1  0  0  0  0
 24 44  1  0  0  0  0
 25 27  1  0  0  0  0
 26 28  1  0  0  0  0
 26 29  1  0  0  0  0
 28 30  2  0  0  0  0
 28 45  1  0  0  0  0
 29 31  2  0  0  0  0
 29 46  1  0  0  0  0
 30 31  1  0  0  0  0
 30 47  1  0  0  0  0
M  END
>  <Mol_ID>
8645

>  <Formula>
C20H16BrF3N6O

>  <MolWeight>
493.2798496

>  <Cat>
P2334

>  <Name>
WAY-324590

>  <Synonyms>
N/A

>  <Target>
Others

>  <Form>
free base

>  <CAS>
333763-97-6

>  <URL>
N/A

$$$$
