WAY-301356
 OpenBabel08302521413D

 49 52  0  0  0  0  0  0  0  0999 V2000
   -0.4784    0.5345   -0.0897 C   0  0  0  0  0  0  0  0  0  0  0  0
   -1.8316    0.7121    0.0530 N   0  0  0  0  0  0  0  0  0  0  0  0
   -0.2910   -0.8071    0.0098 C   0  0  0  0  0  0  0  0  0  0  0  0
    0.5965    1.4561   -0.2571 C   0  0  0  0  0  0  0  0  0  0  0  0
   -2.3957   -0.5506    0.1585 C   0  0  0  0  0  0  0  0  0  0  0  0
   -2.5472    1.9827    0.0370 C   0  0  0  0  0  0  0  0  0  0  0  0
   -1.4664   -1.4850    0.1139 N   0  0  0  0  0  0  0  0  0  0  0  0
    0.9672   -1.3667    0.0070 N   0  0  0  0  0  0  0  0  0  0  0  0
    1.8521    0.8515   -0.1122 N   0  0  0  0  0  0  0  0  0  0  0  0
    0.4379    2.6454   -0.4910 O   0  0  0  0  0  0  0  0  0  0  0  0
   -3.7421   -0.7155    0.2004 N   0  0  0  0  0  0  0  0  0  0  0  0
   -2.7243    2.6038    1.4057 C   0  0  0  0  0  0  0  0  0  0  0  0
    2.0867   -0.5321   -0.0007 C   0  0  0  0  0  0  0  0  0  0  0  0
    1.1251   -2.8078    0.0638 C   0  0  0  0  0  0  0  0  0  0  0  0
    2.9927    1.7483   -0.0996 C   0  0  0  0  0  0  0  0  0  0  0  0
   -4.2800   -1.9152   -0.4543 C   0  0  0  0  0  0  0  0  0  0  0  0
   -4.4155   -0.4616    1.4803 C   0  0  0  0  0  0  0  0  0  0  0  0
   -3.8295    3.4350    1.6275 C   0  0  0  0  0  0  0  0  0  0  0  0
   -1.8127    2.4381    2.4614 C   0  0  0  0  0  0  0  0  0  0  0  0
    3.2313   -0.9856    0.0854 O   0  0  0  0  0  0  0  0  0  0  0  0
   -5.7343   -1.6252   -0.8376 C   0  0  0  0  0  0  0  0  0  0  0  0
   -5.8572   -0.0641    1.1711 C   0  0  0  0  0  0  0  0  0  0  0  0
   -4.0286    4.0838    2.8449 C   0  0  0  0  0  0  0  0  0  0  0  0
   -4.7359    3.6106    0.6549 F   0  0  0  0  0  0  0  0  0  0  0  0
   -2.0103    3.0793    3.6884 C   0  0  0  0  0  0  0  0  0  0  0  0
   -6.5672   -1.1495    0.3579 C   0  0  0  0  0  0  0  0  0  0  0  0
   -3.1124    3.9096    3.8782 C   0  0  0  0  0  0  0  0  0  0  0  0
   -2.0099    2.6756   -0.6165 H   0  0  0  0  0  0  0  0  0  0  0  0
   -3.5187    1.7968   -0.4357 H   0  0  0  0  0  0  0  0  0  0  0  0
    0.6447   -3.1890    0.9702 H   0  0  0  0  0  0  0  0  0  0  0  0
    0.6505   -3.2496   -0.8184 H   0  0  0  0  0  0  0  0  0  0  0  0
    2.1773   -3.1027    0.0740 H   0  0  0  0  0  0  0  0  0  0  0  0
    2.9847    2.3627   -1.0054 H   0  0  0  0  0  0  0  0  0  0  0  0
    2.8989    2.4128    0.7665 H   0  0  0  0  0  0  0  0  0  0  0  0
    3.9479    1.2221   -0.0346 H   0  0  0  0  0  0  0  0  0  0  0  0
   -4.2264   -2.7807    0.2182 H   0  0  0  0  0  0  0  0  0  0  0  0
   -3.7164   -2.1647   -1.3621 H   0  0  0  0  0  0  0  0  0  0  0  0
   -3.9357    0.3333    2.0545 H   0  0  0  0  0  0  0  0  0  0  0  0
   -4.3904   -1.3584    2.1131 H   0  0  0  0  0  0  0  0  0  0  0  0
   -0.9359    1.8051    2.3561 H   0  0  0  0  0  0  0  0  0  0  0  0
   -6.1916   -2.5203   -1.2739 H   0  0  0  0  0  0  0  0  0  0  0  0
   -5.7484   -0.8465   -1.6112 H   0  0  0  0  0  0  0  0  0  0  0  0
   -5.8614    0.8733    0.6006 H   0  0  0  0  0  0  0  0  0  0  0  0
   -6.4033    0.1225    2.1024 H   0  0  0  0  0  0  0  0  0  0  0  0
   -4.8944    4.7252    2.9763 H   0  0  0  0  0  0  0  0  0  0  0  0
   -1.2948    2.9336    4.4949 H   0  0  0  0  0  0  0  0  0  0  0  0
   -7.5326   -0.7696    0.0047 H   0  0  0  0  0  0  0  0  0  0  0  0
   -6.7788   -2.0041    1.0112 H   0  0  0  0  0  0  0  0  0  0  0  0
   -3.2525    4.4214    4.8267 H   0  0  0  0  0  0  0  0  0  0  0  0
  1  2  1  0  0  0  0
  1  3  2  0  0  0  0
  1  4  1  0  0  0  0
  2  5  1  0  0  0  0
  2  6  1  0  0  0  0
  3  7  1  0  0  0  0
  3  8  1  0  0  0  0
  4  9  1  0  0  0  0
  4 10  2  0  0  0  0
  5 11  1  0  0  0  0
  5  7  2  0  0  0  0
  6 12  1  0  0  0  0
  6 28  1  0  0  0  0
  6 29  1  0  0  0  0
  8 13  1  0  0  0  0
  8 14  1  0  0  0  0
  9 15  1  0  0  0  0
  9 13  1  0  0  0  0
 11 16  1  0  0  0  0
 11 17  1  0  0  0  0
 12 18  2  0  0  0  0
 12 19  1  0  0  0  0
 13 20  2  0  0  0  0
 14 30  1  0  0  0  0
 14 31  1  0  0  0  0
 14 32  1  0  0  0  0
 15 33  1  0  0  0  0
 15 34  1  0  0  0  0
 15 35  1  0  0  0  0
 16 21  1  0  0  0  0
 16 36  1  0  0  0  0
 16 37  1  0  0  0  0
 17 22  1  0  0  0  0
 17 38  1  0  0  0  0
 17 39  1  0  0  0  0
 18 23  1  0  0  0  0
 18 24  1  0  0  0  0
 19 25  2  0  0  0  0
 19 40  1  0  0  0  0
 21 26  1  0  0  0  0
 21 41  1  0  0  0  0
 21 42  1  0  0  0  0
 22 26  1  0  0  0  0
 22 43  1  0  0  0  0
 22 44  1  0  0  0  0
 23 27  2  0  0  0  0
 23 45  1  0  0  0  0
 25 27  1  0  0  0  0
 25 46  1  0  0  0  0
 26 47  1  0  0  0  0
 26 48  1  0  0  0  0
 27 49  1  0  0  0  0
M  END
>  <Mol_ID>
8435

>  <Formula>
C19H22FN5O2

>  <MolWeight>
371.4086832

>  <Cat>
P2168

>  <Name>
WAY-301356

>  <Synonyms>
N/A

>  <Target>
liver X receptor

>  <Form>
free base

>  <CAS>
332116-01-5

>  <URL>
N/A

$$$$
