WAY-332048
 OpenBabel08302521443D

 49 51  0  0  0  0  0  0  0  0999 V2000
   -0.9663    0.6085    0.6951 N   0  0  0  0  0  0  0  0  0  0  0  0
    0.1654    1.0470    0.0289 C   0  0  0  0  0  0  0  0  0  0  0  0
   -0.9818   -0.7006    0.4994 C   0  0  0  0  0  0  0  0  0  0  0  0
    0.1107   -1.1589   -0.2013 O   0  0  0  0  0  0  0  0  0  0  0  0
    0.8341   -0.0378   -0.4910 C   0  0  0  0  0  0  0  0  0  0  0  0
   -0.2653    3.2121   -1.6392 S   0  0  3  0  0  0  0  0  0  0  0  0
    0.4931    2.4894   -0.1083 C   0  0  0  0  0  0  0  0  0  0  0  0
   -1.9997    2.9417   -1.1876 C   0  0  0  0  0  0  0  0  0  0  0  0
   -3.0411    3.2918   -2.2454 C   0  0  0  0  0  0  0  0  0  0  0  0
   -2.0032   -1.6951    0.8529 C   0  0  0  0  0  0  0  0  0  0  0  0
   -4.6159    6.1332   -3.8507 C   0  0  0  0  0  0  0  0  0  0  0  0
   -3.6259    4.5420   -2.1894 N   0  0  0  0  0  0  0  0  0  0  0  0
    0.0073    4.6889   -1.5911 O   0  0  0  0  0  0  0  0  0  0  0  0
   -4.8123    4.9418   -2.9261 C   0  0  0  0  0  0  0  0  0  0  0  0
   -3.7469    6.0535   -4.9467 C   0  0  0  0  0  0  0  0  0  0  0  0
   -3.4281    2.4348   -3.0545 O   0  0  0  0  0  0  0  0  0  0  0  0
   -3.1881   -1.3116    1.5010 C   0  0  0  0  0  0  0  0  0  0  0  0
   -1.8480   -3.0507    0.5276 C   0  0  0  0  0  0  0  0  0  0  0  0
   -4.1882   -2.2525    1.8001 C   0  0  0  0  0  0  0  0  0  0  0  0
   -2.8467   -3.9906    0.8211 C   0  0  0  0  0  0  0  0  0  0  0  0
   -4.0281   -3.6004    1.4570 C   0  0  0  0  0  0  0  0  0  0  0  0
    2.0653   -0.1949   -1.2826 C   0  0  0  0  0  0  0  0  0  0  0  0
   -5.3889    7.3006   -3.6982 C   0  0  0  0  0  0  0  0  0  0  0  0
   -3.6831    7.0911   -5.8862 C   0  0  0  0  0  0  0  0  0  0  0  0
   -5.1102   -4.5974    1.7608 C   0  0  0  0  0  0  0  0  0  0  0  0
   -5.3415    8.3256   -4.6511 C   0  0  0  0  0  0  0  0  0  0  0  0
   -4.4930    8.2169   -5.7509 C   0  0  0  0  0  0  0  0  0  0  0  0
    0.1762    3.0593    0.7701 H   0  0  0  0  0  0  0  0  0  0  0  0
    1.5798    2.6239   -0.2001 H   0  0  0  0  0  0  0  0  0  0  0  0
   -2.1190    1.8678   -1.0311 H   0  0  0  0  0  0  0  0  0  0  0  0
   -2.1997    3.4596   -0.2474 H   0  0  0  0  0  0  0  0  0  0  0  0
   -3.2214    5.2335   -1.5634 H   0  0  0  0  0  0  0  0  0  0  0  0
   -5.5717    5.2081   -2.1786 H   0  0  0  0  0  0  0  0  0  0  0  0
   -5.2427    4.1091   -3.5040 H   0  0  0  0  0  0  0  0  0  0  0  0
   -3.1316    5.1681   -5.0911 H   0  0  0  0  0  0  0  0  0  0  0  0
   -3.3491   -0.2695    1.7733 H   0  0  0  0  0  0  0  0  0  0  0  0
   -0.9439   -3.3932    0.0294 H   0  0  0  0  0  0  0  0  0  0  0  0
   -5.0981   -1.9225    2.2994 H   0  0  0  0  0  0  0  0  0  0  0  0
   -2.6897   -5.0304    0.5419 H   0  0  0  0  0  0  0  0  0  0  0  0
    2.7652   -0.8660   -0.7779 H   0  0  0  0  0  0  0  0  0  0  0  0
    1.8398   -0.5923   -2.2761 H   0  0  0  0  0  0  0  0  0  0  0  0
    2.5642    0.7709   -1.4147 H   0  0  0  0  0  0  0  0  0  0  0  0
   -6.0586    7.4148   -2.8488 H   0  0  0  0  0  0  0  0  0  0  0  0
   -3.0134    7.0078   -6.7376 H   0  0  0  0  0  0  0  0  0  0  0  0
   -5.3141   -4.6239    2.8361 H   0  0  0  0  0  0  0  0  0  0  0  0
   -6.0307   -4.3360    1.2283 H   0  0  0  0  0  0  0  0  0  0  0  0
   -4.8251   -5.6097    1.4527 H   0  0  0  0  0  0  0  0  0  0  0  0
   -5.9793    9.1991   -4.5447 H   0  0  0  0  0  0  0  0  0  0  0  0
   -4.4760    8.9976   -6.5050 H   0  0  0  0  0  0  0  0  0  0  0  0
  2  1  1  0  0  0  0
  3  1  2  0  0  0  0
  4  3  1  0  0  0  0
  5  2  2  0  0  0  0
  5  4  1  0  0  0  0
  6  7  1  0  0  0  0
  7  2  1  0  0  0  0
  7 28  1  0  0  0  0
  7 29  1  0  0  0  0
  8  6  1  0  0  0  0
  8 30  1  0  0  0  0
  8 31  1  0  0  0  0
  9  8  1  0  0  0  0
 10  3  1  0  0  0  0
 11 14  1  0  0  0  0
 12  9  1  0  0  0  0
 12 32  1  0  0  0  0
 13  6  2  0  0  0  0
 14 12  1  0  0  0  0
 14 33  1  0  0  0  0
 14 34  1  0  0  0  0
 15 11  2  0  0  0  0
 15 35  1  0  0  0  0
 16  9  2  0  0  0  0
 17 10  2  0  0  0  0
 17 36  1  0  0  0  0
 18 10  1  0  0  0  0
 18 37  1  0  0  0  0
 19 17  1  0  0  0  0
 19 38  1  0  0  0  0
 20 18  2  0  0  0  0
 20 39  1  0  0  0  0
 21 20  1  0  0  0  0
 21 19  2  0  0  0  0
 22  5  1  0  0  0  0
 22 40  1  0  0  0  0
 22 41  1  0  0  0  0
 22 42  1  0  0  0  0
 23 11  1  0  0  0  0
 23 43  1  0  0  0  0
 24 15  1  0  0  0  0
 24 44  1  0  0  0  0
 25 21  1  0  0  0  0
 25 45  1  0  0  0  0
 25 46  1  0  0  0  0
 25 47  1  0  0  0  0
 26 23  2  0  0  0  0
 26 48  1  0  0  0  0
 27 26  1  0  0  0  0
 27 24  2  0  0  0  0
 27 49  1  0  0  0  0
M  END
>  <Mol_ID>
9235

>  <Formula>
C21H21ClN2O3S

>  <MolWeight>
416.92104

>  <Cat>
P2696

>  <Name>
WAY-332048

>  <Synonyms>
N/A

>  <Target>
beta-catenin

>  <Form>
free base

>  <CAS>
959555-36-3

>  <URL>
N/A

$$$$
