WAY-620220
 OpenBabel08302521433D

 44 48  0  0  0  0  0  0  0  0999 V2000
    0.5765   -0.8028   -0.4182 C   0  0  0  0  0  0  0  0  0  0  0  0
    1.6206   -1.6814   -0.6311 N   0  0  0  0  0  0  0  0  0  0  0  0
    0.0918   -0.3602   -1.5655 N   0  0  0  0  0  0  0  0  0  0  0  0
   -0.0244   -0.4559    0.9160 C   0  0  0  0  0  0  0  0  0  0  0  0
    1.8254   -1.7696   -1.9925 C   0  0  0  0  0  0  0  0  0  0  0  0
    0.7929   -1.0181   -2.5435 C   0  0  0  0  0  0  0  0  0  0  0  0
    0.3319   -1.1377    2.0760 N   0  0  0  0  0  0  0  0  0  0  0  0
    2.1842   -2.6072    0.3270 C   0  0  0  0  0  0  0  0  0  0  0  0
    3.3601   -2.0648    1.1113 C   0  0  0  0  0  0  0  0  0  0  0  0
   -1.4724    0.5757    2.7355 S   0  0  0  0  0  0  0  0  0  0  0  0
   -0.4237   -0.7286    3.0703 C   0  0  0  0  0  0  0  0  0  0  0  0
   -0.9632    0.5373    1.0948 C   0  0  0  0  0  0  0  0  0  0  0  0
    2.9999   -1.5164    2.3280 N   0  0  0  0  0  0  0  0  0  0  0  0
    3.7759   -1.4721    3.5058 C   0  0  0  0  0  0  0  0  0  0  0  0
    5.5530   -2.3662    4.8940 C   0  0  0  0  0  0  0  0  0  0  0  0
    4.9845   -2.1469    3.6302 C   0  0  0  0  0  0  0  0  0  0  0  0
    4.5101   -2.1862    0.6959 O   0  0  0  0  0  0  0  0  0  0  0  0
    4.9601   -1.7949    6.0426 C   0  0  0  0  0  0  0  0  0  0  0  0
    3.8146   -1.0026    5.8922 C   0  0  0  0  0  0  0  0  0  0  0  0
    3.2069   -0.8780    4.6354 C   0  0  0  0  0  0  0  0  0  0  0  0
    2.7533   -2.4871   -2.7627 C   0  0  0  0  0  0  0  0  0  0  0  0
    0.6058   -1.0533   -3.9339 C   0  0  0  0  0  0  0  0  0  0  0  0
    6.6467   -3.2290    5.0387 C   0  0  0  0  0  0  0  0  0  0  0  0
    5.4861   -2.0962    7.3082 C   0  0  0  0  0  0  0  0  0  0  0  0
    2.5451   -2.5096   -4.1448 C   0  0  0  0  0  0  0  0  0  0  0  0
    1.4718   -1.8301   -4.7215 C   0  0  0  0  0  0  0  0  0  0  0  0
    7.0864   -3.6038    6.3067 C   0  0  0  0  0  0  0  0  0  0  0  0
    6.5119   -3.0334    7.4393 C   0  0  0  0  0  0  0  0  0  0  0  0
    1.3889   -2.9748    0.9808 H   0  0  0  0  0  0  0  0  0  0  0  0
    2.5271   -3.4956   -0.2136 H   0  0  0  0  0  0  0  0  0  0  0  0
   -0.3639   -1.1831    4.0555 H   0  0  0  0  0  0  0  0  0  0  0  0
   -1.3684    1.2231    0.3657 H   0  0  0  0  0  0  0  0  0  0  0  0
    2.0217   -1.2446    2.4272 H   0  0  0  0  0  0  0  0  0  0  0  0
    5.4505   -2.6149    2.7670 H   0  0  0  0  0  0  0  0  0  0  0  0
    3.3416   -0.5466    6.7614 H   0  0  0  0  0  0  0  0  0  0  0  0
    2.2664   -0.3405    4.5722 H   0  0  0  0  0  0  0  0  0  0  0  0
    3.5847   -3.0228   -2.3158 H   0  0  0  0  0  0  0  0  0  0  0  0
   -0.2246   -0.5257   -4.3876 H   0  0  0  0  0  0  0  0  0  0  0  0
    7.1178   -3.6698    4.1628 H   0  0  0  0  0  0  0  0  0  0  0  0
    5.0583   -1.6545    8.2050 H   0  0  0  0  0  0  0  0  0  0  0  0
    3.2183   -3.0899   -4.7739 H   0  0  0  0  0  0  0  0  0  0  0  0
    1.3057   -1.9065   -5.7958 H   0  0  0  0  0  0  0  0  0  0  0  0
    7.8605   -4.3596    6.4065 H   0  0  0  0  0  0  0  0  0  0  0  0
    6.8463   -3.3377    8.4275 H   0  0  0  0  0  0  0  0  0  0  0  0
  2  1  1  0  0  0  0
  3  1  2  0  0  0  0
  4  1  1  0  0  0  0
  5  2  1  0  0  0  0
  6  3  1  0  0  0  0
  6  5  2  0  0  0  0
  7  4  1  0  0  0  0
  8  2  1  0  0  0  0
  8 29  1  0  0  0  0
  8 30  1  0  0  0  0
  9  8  1  0  0  0  0
 10 12  1  0  0  0  0
 10 11  1  0  0  0  0
 11  7  2  0  0  0  0
 11 31  1  0  0  0  0
 12  4  2  0  0  0  0
 12 32  1  0  0  0  0
 13  9  1  0  0  0  0
 13 33  1  0  0  0  0
 14 13  1  0  0  0  0
 15 16  2  0  0  0  0
 15 18  1  0  0  0  0
 16 14  1  0  0  0  0
 16 34  1  0  0  0  0
 17  9  2  0  0  0  0
 18 19  2  0  0  0  0
 19 20  1  0  0  0  0
 19 35  1  0  0  0  0
 20 14  2  0  0  0  0
 20 36  1  0  0  0  0
 21  5  1  0  0  0  0
 21 37  1  0  0  0  0
 22  6  1  0  0  0  0
 22 38  1  0  0  0  0
 23 15  1  0  0  0  0
 23 39  1  0  0  0  0
 24 18  1  0  0  0  0
 24 40  1  0  0  0  0
 25 21  2  0  0  0  0
 25 41  1  0  0  0  0
 26 22  2  0  0  0  0
 26 25  1  0  0  0  0
 26 42  1  0  0  0  0
 27 23  2  0  0  0  0
 27 43  1  0  0  0  0
 28 24  2  0  0  0  0
 28 27  1  0  0  0  0
 28 44  1  0  0  0  0
M  END
>  <Mol_ID>
8767

>  <Formula>
C22H16N4OS

>  <MolWeight>
384.45364

>  <Cat>
P2937

>  <Name>
WAY-620220

>  <Synonyms>
N/A

>  <Target>
IMPDH

>  <Form>
free base

>  <CAS>
743445-57-0

>  <URL>
N/A

$$$$
