WAY-638178-A
 OpenBabel08302521423D

 49 52  0  0  0  0  0  0  0  0999 V2000
   -1.3946    0.1672    0.5597 N   0  0  0  0  0  0  0  0  0  0  0  0
    1.4306    0.1585   -0.5478 N   0  0  0  0  0  0  0  0  0  0  0  0
    2.6092    3.5516   -3.5944 C   0  0  0  0  0  0  0  0  0  0  0  0
    3.8567    3.7112   -3.0423 C   0  0  0  0  0  0  0  0  0  0  0  0
    2.2427    4.6152   -4.3592 O   0  0  0  0  0  0  0  0  0  0  0  0
    4.4289    4.8971   -3.3780 O   0  0  0  0  0  0  0  0  0  0  0  0
   -1.3934   -0.0613    2.0215 C   0  0  0  0  0  0  0  0  0  0  0  0
    3.3801    5.4846   -4.1773 C   0  0  0  0  0  0  0  0  0  0  0  0
    1.8286    2.4419   -3.3393 C   0  0  0  0  0  0  0  0  0  0  0  0
   -2.1056    1.0104    2.9032 C   0  0  3  0  0  0  0  0  0  0  0  0
    2.3345    1.4704   -2.4595 C   0  0  0  0  0  0  0  0  0  0  0  0
    1.4606    0.3103   -2.0147 C   0  0  0  0  0  0  0  0  0  0  0  0
    4.4145    2.7468   -2.2282 C   0  0  0  0  0  0  0  0  0  0  0  0
   -3.5017    1.4222    2.4718 C   0  0  0  0  0  0  0  0  0  0  0  0
   -0.8218   -0.9796   -0.1712 C   0  0  0  0  0  0  0  0  0  0  0  0
   -0.7022    1.4018    0.1486 C   0  0  0  0  0  0  0  0  0  0  0  0
    0.8423    1.3217    0.1515 C   0  0  0  0  0  0  0  0  0  0  0  0
    0.7235   -1.0699   -0.1391 C   0  0  0  0  0  0  0  0  0  0  0  0
    3.6471    1.6151   -1.9400 C   0  0  0  0  0  0  0  0  0  0  0  0
   -2.1543    0.5404    4.2606 O   0  0  0  0  0  0  0  0  0  0  0  0
   -4.4145    0.5078    1.9262 C   0  0  0  0  0  0  0  0  0  0  0  0
   -3.9042    2.7605    2.6181 C   0  0  0  0  0  0  0  0  0  0  0  0
   -5.1559    3.1836    2.1663 C   0  0  0  0  0  0  0  0  0  0  0  0
   -5.6636    0.9334    1.4684 C   0  0  0  0  0  0  0  0  0  0  0  0
   -6.0286    2.2730    1.5763 C   0  0  0  0  0  0  0  0  0  0  0  0
   -1.8846   -1.0237    2.2235 H   0  0  0  0  0  0  0  0  0  0  0  0
   -0.3721   -0.1865    2.4032 H   0  0  0  0  0  0  0  0  0  0  0  0
    3.7908    5.7332   -5.1608 H   0  0  0  0  0  0  0  0  0  0  0  0
    3.0403    6.4056   -3.6920 H   0  0  0  0  0  0  0  0  0  0  0  0
    0.8391    2.3559   -3.7761 H   0  0  0  0  0  0  0  0  0  0  0  0
   -1.4684    1.9033    2.9190 H   0  0  0  0  0  0  0  0  0  0  0  0
    1.8889   -0.5941   -2.4686 H   0  0  0  0  0  0  0  0  0  0  0  0
    0.4493    0.4192   -2.4244 H   0  0  0  0  0  0  0  0  0  0  0  0
    5.3996    2.8789   -1.7979 H   0  0  0  0  0  0  0  0  0  0  0  0
   -1.2488   -1.9195    0.2012 H   0  0  0  0  0  0  0  0  0  0  0  0
   -1.1499   -0.9089   -1.2160 H   0  0  0  0  0  0  0  0  0  0  0  0
   -1.0376    1.6470   -0.8671 H   0  0  0  0  0  0  0  0  0  0  0  0
   -1.0165    2.2539    0.7601 H   0  0  0  0  0  0  0  0  0  0  0  0
    1.1870    1.2824    1.1924 H   0  0  0  0  0  0  0  0  0  0  0  0
    1.2417    2.2658   -0.2370 H   0  0  0  0  0  0  0  0  0  0  0  0
    1.0421   -1.3107    0.8830 H   0  0  0  0  0  0  0  0  0  0  0  0
    1.0525   -1.9199   -0.7494 H   0  0  0  0  0  0  0  0  0  0  0  0
    4.0474    0.8513   -1.2764 H   0  0  0  0  0  0  0  0  0  0  0  0
   -2.9008    0.9895    4.6893 H   0  0  0  0  0  0  0  0  0  0  0  0
   -4.1508   -0.5419    1.8222 H   0  0  0  0  0  0  0  0  0  0  0  0
   -3.2331    3.4905    3.0661 H   0  0  0  0  0  0  0  0  0  0  0  0
   -5.4437    4.2273    2.2611 H   0  0  0  0  0  0  0  0  0  0  0  0
   -6.3444    0.2192    1.0127 H   0  0  0  0  0  0  0  0  0  0  0  0
   -6.9914    2.6064    1.1985 H   0  0  0  0  0  0  0  0  0  0  0  0
  2 17  1  0  0  0  0
  3  9  2  0  0  0  0
  4 13  2  0  0  0  0
  4  3  1  0  0  0  0
  5  3  1  0  0  0  0
  6  4  1  0  0  0  0
  7  1  1  0  0  0  0
  7 26  1  0  0  0  0
  7 27  1  0  0  0  0
  8  5  1  0  0  0  0
  8  6  1  0  0  0  0
  8 28  1  0  0  0  0
  8 29  1  0  0  0  0
  9 11  1  0  0  0  0
  9 30  1  0  0  0  0
 10  7  1  0  0  0  0
 10 31  1  0  0  0  0
 11 12  1  0  0  0  0
 12  2  1  0  0  0  0
 12 32  1  0  0  0  0
 12 33  1  0  0  0  0
 13 19  1  0  0  0  0
 13 34  1  0  0  0  0
 14 10  1  0  0  0  0
 15  1  1  0  0  0  0
 15 35  1  0  0  0  0
 15 36  1  0  0  0  0
 16  1  1  0  0  0  0
 16 37  1  0  0  0  0
 16 38  1  0  0  0  0
 17 16  1  0  0  0  0
 17 39  1  0  0  0  0
 17 40  1  0  0  0  0
 18 15  1  0  0  0  0
 18  2  1  0  0  0  0
 18 41  1  0  0  0  0
 18 42  1  0  0  0  0
 19 11  2  0  0  0  0
 19 43  1  0  0  0  0
 20 10  1  0  0  0  0
 20 44  1  0  0  0  0
 21 14  2  0  0  0  0
 21 45  1  0  0  0  0
 22 14  1  0  0  0  0
 22 46  1  0  0  0  0
 23 22  2  0  0  0  0
 23 47  1  0  0  0  0
 24 21  1  0  0  0  0
 24 48  1  0  0  0  0
 25 23  1  0  0  0  0
 25 24  2  0  0  0  0
 25 49  1  0  0  0  0
M  END
>  <Mol_ID>
8506

>  <Formula>
C20H24N2O3

>  <MolWeight>
340.41616

>  <Cat>
P3032

>  <Name>
WAY-638178-A

>  <Synonyms>
N/A

>  <Target>
others

>  <Form>
free base

>  <CAS>
691008-82-9

>  <URL>
N/A

$$$$
