WAY-327951
 OpenBabel08302521443D

 56 59  0  0  0  0  0  0  0  0999 V2000
    1.1208    0.0866   -0.0264 S   0  0  0  0  0  0  0  0  0  0  0  0
   -1.1910    0.9904    4.6522 C   0  0  0  0  0  0  0  0  0  0  0  0
   -0.4930    1.4874    3.4293 C   0  0  0  0  0  0  0  0  0  0  0  0
    0.6231    1.1870    1.2816 C   0  0  0  0  0  0  0  0  0  0  0  0
    2.2590   -0.9625    0.7446 N   0  0  0  0  0  0  0  0  0  0  0  0
   -0.4738    3.7101    4.4087 N   0  0  0  0  0  0  0  0  0  0  0  0
   -1.1122    3.3044    5.5386 C   0  0  0  0  0  0  0  0  0  0  0  0
   -0.1314    2.8481    3.3633 C   0  0  0  0  0  0  0  0  0  0  0  0
   -1.4386    1.8688    5.6422 C   0  0  0  0  0  0  0  0  0  0  0  0
   -0.1330    0.6726    2.3448 C   0  0  0  0  0  0  0  0  0  0  0  0
   -1.4647   -0.4730    4.9055 C   0  0  0  0  0  0  0  0  0  0  0  0
    1.8508    0.8632   -1.0110 O   0  0  0  0  0  0  0  0  0  0  0  0
   -0.0399   -0.6813   -0.4041 O   0  0  0  0  0  0  0  0  0  0  0  0
    0.9750    2.5366    1.2374 C   0  0  0  0  0  0  0  0  0  0  0  0
    0.5824    3.3730    2.2790 C   0  0  0  0  0  0  0  0  0  0  0  0
   -1.3930    4.0733    6.4507 O   0  0  0  0  0  0  0  0  0  0  0  0
   -0.8808   -1.3507    4.2764 O   0  0  0  0  0  0  0  0  0  0  0  0
   -2.3757   -0.7947    5.8900 N   0  0  0  0  0  0  0  0  0  0  0  0
   -3.5988   -6.5305    8.5460 C   0  0  0  0  0  0  0  0  0  0  0  0
   -3.6186   -3.8129    7.8530 C   0  0  0  0  0  0  0  0  0  0  0  0
   -4.4332   -6.0766    7.5264 C   0  0  0  0  0  0  0  0  0  0  0  0
   -2.7869   -5.6300    9.2326 C   0  0  0  0  0  0  0  0  0  0  0  0
    3.5084   -0.2640    1.1679 C   0  0  0  0  0  0  0  0  0  0  0  0
    2.5305   -2.1770   -0.0871 C   0  0  0  0  0  0  0  0  0  0  0  0
   -2.7982   -4.2764    8.8909 C   0  0  0  0  0  0  0  0  0  0  0  0
   -4.4427   -4.7246    7.1796 C   0  0  0  0  0  0  0  0  0  0  0  0
   -2.5193   -2.1803    6.3068 C   0  0  0  0  0  0  0  0  0  0  0  0
   -3.5574   -2.3707    7.4132 C   0  0  0  0  0  0  0  0  0  0  0  0
    3.5102   -3.1245    0.6017 C   0  0  0  0  0  0  0  0  0  0  0  0
    4.4676   -1.2163    1.8728 C   0  0  0  0  0  0  0  0  0  0  0  0
    4.7966   -2.4099    0.9889 C   0  0  0  0  0  0  0  0  0  0  0  0
   -0.2343    4.6922    4.3675 H   0  0  0  0  0  0  0  0  0  0  0  0
   -1.8515    1.6062    6.6063 H   0  0  0  0  0  0  0  0  0  0  0  0
   -0.4075   -0.3791    2.3055 H   0  0  0  0  0  0  0  0  0  0  0  0
    1.5509    2.9404    0.4074 H   0  0  0  0  0  0  0  0  0  0  0  0
    0.8545    4.4251    2.2466 H   0  0  0  0  0  0  0  0  0  0  0  0
   -2.8891   -0.0874    6.3931 H   0  0  0  0  0  0  0  0  0  0  0  0
   -3.5779   -7.5866    8.8017 H   0  0  0  0  0  0  0  0  0  0  0  0
   -5.0680   -6.7784    6.9917 H   0  0  0  0  0  0  0  0  0  0  0  0
   -2.1354   -5.9846   10.0273 H   0  0  0  0  0  0  0  0  0  0  0  0
    3.2582    0.5389    1.8682 H   0  0  0  0  0  0  0  0  0  0  0  0
    4.0059    0.1757    0.2969 H   0  0  0  0  0  0  0  0  0  0  0  0
    2.9270   -1.8778   -1.0638 H   0  0  0  0  0  0  0  0  0  0  0  0
    1.5937   -2.7231   -0.2456 H   0  0  0  0  0  0  0  0  0  0  0  0
   -2.1497   -3.5900    9.4308 H   0  0  0  0  0  0  0  0  0  0  0  0
   -5.0865   -4.3907    6.3688 H   0  0  0  0  0  0  0  0  0  0  0  0
   -2.7774   -2.7764    5.4229 H   0  0  0  0  0  0  0  0  0  0  0  0
   -1.5322   -2.5198    6.6458 H   0  0  0  0  0  0  0  0  0  0  0  0
   -3.3174   -1.7314    8.2725 H   0  0  0  0  0  0  0  0  0  0  0  0
   -4.5458   -2.0437    7.0664 H   0  0  0  0  0  0  0  0  0  0  0  0
    3.7423   -3.9630   -0.0652 H   0  0  0  0  0  0  0  0  0  0  0  0
    3.0474   -3.5496    1.5011 H   0  0  0  0  0  0  0  0  0  0  0  0
    4.0244   -1.5673    2.8130 H   0  0  0  0  0  0  0  0  0  0  0  0
    5.3896   -0.6826    2.1294 H   0  0  0  0  0  0  0  0  0  0  0  0
    5.4669   -3.0967    1.5173 H   0  0  0  0  0  0  0  0  0  0  0  0
    5.3237   -2.0739    0.0872 H   0  0  0  0  0  0  0  0  0  0  0  0
  2  3  1  0  0  0  0
  3 10  2  0  0  0  0
  4  1  1  0  0  0  0
  5  1  1  0  0  0  0
  6  8  1  0  0  0  0
  6 32  1  0  0  0  0
  7  6  1  0  0  0  0
  8 15  2  0  0  0  0
  8  3  1  0  0  0  0
  9  2  2  0  0  0  0
  9  7  1  0  0  0  0
  9 33  1  0  0  0  0
 10  4  1  0  0  0  0
 10 34  1  0  0  0  0
 11  2  1  0  0  0  0
 12  1  2  0  0  0  0
 13  1  2  0  0  0  0
 14  4  2  0  0  0  0
 14 35  1  0  0  0  0
 15 14  1  0  0  0  0
 15 36  1  0  0  0  0
 16  7  2  0  0  0  0
 17 11  2  0  0  0  0
 18 11  1  0  0  0  0
 18 37  1  0  0  0  0
 19 21  2  0  0  0  0
 19 22  1  0  0  0  0
 19 38  1  0  0  0  0
 20 28  1  0  0  0  0
 21 26  1  0  0  0  0
 21 39  1  0  0  0  0
 22 25  2  0  0  0  0
 22 40  1  0  0  0  0
 23  5  1  0  0  0  0
 23 41  1  0  0  0  0
 23 42  1  0  0  0  0
 24  5  1  0  0  0  0
 24 43  1  0  0  0  0
 24 44  1  0  0  0  0
 25 20  1  0  0  0  0
 25 45  1  0  0  0  0
 26 20  2  0  0  0  0
 26 46  1  0  0  0  0
 27 18  1  0  0  0  0
 27 47  1  0  0  0  0
 27 48  1  0  0  0  0
 28 27  1  0  0  0  0
 28 49  1  0  0  0  0
 28 50  1  0  0  0  0
 29 24  1  0  0  0  0
 29 51  1  0  0  0  0
 29 52  1  0  0  0  0
 30 23  1  0  0  0  0
 30 53  1  0  0  0  0
 30 54  1  0  0  0  0
 31 29  1  0  0  0  0
 31 30  1  0  0  0  0
 31 55  1  0  0  0  0
 31 56  1  0  0  0  0
M  END
>  <Mol_ID>
8990

>  <Formula>
C23H24ClN3O4S

>  <MolWeight>
473.97236

>  <Cat>
P2553

>  <Name>
WAY-327951

>  <Synonyms>
N/A

>  <Target>
caspase

>  <Form>
free base

>  <CAS>
687590-53-0

>  <URL>
N/A

$$$$
