WAY-619283
 OpenBabel08302521433D

 24 26  0  0  0  0  0  0  0  0999 V2000
   -0.0332   -0.4162   -0.1255 C   0  0  0  0  0  0  0  0  0  0  0  0
   -0.0547    0.7386    0.6774 C   0  0  0  0  0  0  0  0  0  0  0  0
    1.1915   -0.6538   -0.9324 C   0  0  0  0  0  0  0  0  0  0  0  0
   -1.1806   -1.1416   -0.4391 C   0  0  0  0  0  0  0  0  0  0  0  0
    1.1279    1.4227    1.0568 N   0  0  0  0  0  0  0  0  0  0  0  0
   -1.2986    1.2956    0.9575 C   0  0  0  0  0  0  0  0  0  0  0  0
    2.1357    0.3301   -0.7792 N   0  0  0  0  0  0  0  0  0  0  0  0
    1.2816   -1.5767   -1.7307 O   0  0  0  0  0  0  0  0  0  0  0  0
   -2.4147   -0.5984   -0.0931 C   0  0  0  0  0  0  0  0  0  0  0  0
    2.1398    1.1926    0.2951 C   0  0  0  0  0  0  0  0  0  0  0  0
   -2.4680    0.6462    0.5410 C   0  0  0  0  0  0  0  0  0  0  0  0
    2.6279    1.1027   -1.8804 C   0  0  0  0  0  0  0  0  0  0  0  0
    3.4507    1.9044    0.2634 C   0  0  0  0  0  0  0  0  0  0  0  0
    3.6857    2.0043   -1.2526 C   0  0  0  0  0  0  0  0  0  0  0  0
   -1.1239   -2.0673   -1.0095 H   0  0  0  0  0  0  0  0  0  0  0  0
   -1.3466    2.2625    1.4335 H   0  0  0  0  0  0  0  0  0  0  0  0
   -3.3260   -1.1069   -0.3813 H   0  0  0  0  0  0  0  0  0  0  0  0
   -3.4298    1.1258    0.7009 H   0  0  0  0  0  0  0  0  0  0  0  0
    2.9391    0.5037   -2.7332 H   0  0  0  0  0  0  0  0  0  0  0  0
    1.7780    1.7298   -2.2047 H   0  0  0  0  0  0  0  0  0  0  0  0
    3.4255    2.8672    0.7730 H   0  0  0  0  0  0  0  0  0  0  0  0
    4.2172    1.2637    0.7199 H   0  0  0  0  0  0  0  0  0  0  0  0
    3.5784    3.0382   -1.5988 H   0  0  0  0  0  0  0  0  0  0  0  0
    4.6912    1.6633   -1.5191 H   0  0  0  0  0  0  0  0  0  0  0  0
  1  2  2  0  0  0  0
  1  3  1  0  0  0  0
  1  4  1  0  0  0  0
  2  5  1  0  0  0  0
  2  6  1  0  0  0  0
  3  7  1  0  0  0  0
  3  8  2  0  0  0  0
  4  9  2  0  0  0  0
  4 15  1  0  0  0  0
  5 10  2  0  0  0  0
  6 11  2  0  0  0  0
  6 16  1  0  0  0  0
  7 12  1  0  0  0  0
  7 10  1  0  0  0  0
  9 11  1  0  0  0  0
  9 17  1  0  0  0  0
 10 13  1  0  0  0  0
 11 18  1  0  0  0  0
 12 14  1  0  0  0  0
 12 19  1  0  0  0  0
 12 20  1  0  0  0  0
 13 14  1  0  0  0  0
 13 21  1  0  0  0  0
 13 22  1  0  0  0  0
 14 23  1  0  0  0  0
 14 24  1  0  0  0  0
M  END
>  <Mol_ID>
8755

>  <Formula>
C11H9ClN2O

>  <MolWeight>
220.65496

>  <Cat>
P2924

>  <Name>
WAY-619283

>  <Synonyms>
N/A

>  <Target>
orexin receptor

>  <Form>
free base

>  <CAS>
60811-39-4

>  <URL>
N/A

$$$$
