WAY-640666
 OpenBabel08302521443D

 60 63  0  0  0  0  0  0  0  0999 V2000
    1.0754   -0.0682    0.1903 S   0  0  0  0  0  0  0  0  0  0  0  0
    0.6191    1.5829    0.3224 N   0  0  0  0  0  0  0  0  0  0  0  0
    3.9817   -1.0725   -4.1665 C   0  0  0  0  0  0  0  0  0  0  0  0
    1.2083   -0.4818   -1.5676 C   0  0  0  0  0  0  0  0  0  0  0  0
   -0.5695    5.8623   -0.2569 C   0  0  0  0  0  0  0  0  0  0  0  0
    0.0624    6.7088   -1.1785 N   0  0  0  0  0  0  0  0  0  0  0  0
   -0.9572    9.5247   -0.2078 N   0  0  0  0  0  0  0  0  0  0  0  0
   -0.6474    7.7204   -1.9394 C   0  0  0  0  0  0  0  0  0  0  0  0
   -1.1239    9.0009   -1.4937 C   0  0  0  0  0  0  0  0  0  0  0  0
    2.6237   -0.9972   -3.5064 C   0  0  0  0  0  0  0  0  0  0  0  0
    2.4617   -0.4628   -2.2002 C   0  0  0  0  0  0  0  0  0  0  0  0
   -0.0243   -0.8642    0.7012 O   0  0  0  0  0  0  0  0  0  0  0  0
    2.4066   -0.2072    0.7398 O   0  0  0  0  0  0  0  0  0  0  0  0
   -0.0317    4.3835   -0.2869 C   0  0  0  0  0  0  0  0  0  0  0  0
    1.6786    2.6171    0.3079 C   0  0  0  0  0  0  0  0  0  0  0  0
   -0.7477    1.9284   -0.1103 C   0  0  0  0  0  0  0  0  0  0  0  0
   -1.5131    6.1901    0.4625 O   0  0  0  0  0  0  0  0  0  0  0  0
    5.0056   -0.6783   -3.3620 F   0  0  0  0  0  0  0  0  0  0  0  0
    4.2912   -2.3356   -4.5742 F   0  0  0  0  0  0  0  0  0  0  0  0
    4.0580   -0.2937   -5.2809 F   0  0  0  0  0  0  0  0  0  0  0  0
    1.1514    4.0375    0.6238 C   0  0  0  0  0  0  0  0  0  0  0  0
   -1.1370    3.3936    0.0967 C   0  0  0  0  0  0  0  0  0  0  0  0
    0.5250   11.7720    0.8823 O   0  0  0  0  0  0  0  0  0  0  0  0
    0.3527    9.3737    0.4448 C   0  0  0  0  0  0  0  0  0  0  0  0
   -1.6626   10.7490    0.2729 C   0  0  0  0  0  0  0  0  0  0  0  0
    0.1294   -1.0971   -2.2214 C   0  0  0  0  0  0  0  0  0  0  0  0
    1.5126   -1.5232   -4.1795 C   0  0  0  0  0  0  0  0  0  0  0  0
   -0.7789    7.3726   -3.3071 C   0  0  0  0  0  0  0  0  0  0  0  0
    0.2778   -1.5900   -3.5298 C   0  0  0  0  0  0  0  0  0  0  0  0
   -1.7547    9.8064   -2.4821 C   0  0  0  0  0  0  0  0  0  0  0  0
   -0.7563   12.0042    0.2773 C   0  0  0  0  0  0  0  0  0  0  0  0
    1.1752   10.6570    0.2553 C   0  0  0  0  0  0  0  0  0  0  0  0
   -1.4035    8.2045   -4.2345 C   0  0  0  0  0  0  0  0  0  0  0  0
   -1.8983    9.4246   -3.8202 C   0  0  0  0  0  0  0  0  0  0  0  0
    0.7079    6.1977   -1.7660 H   0  0  0  0  0  0  0  0  0  0  0  0
    3.3357   -0.0960   -1.6613 H   0  0  0  0  0  0  0  0  0  0  0  0
    0.2661    4.1808   -1.3247 H   0  0  0  0  0  0  0  0  0  0  0  0
    2.1862    2.6106   -0.6614 H   0  0  0  0  0  0  0  0  0  0  0  0
    2.4194    2.3628    1.0784 H   0  0  0  0  0  0  0  0  0  0  0  0
   -1.4509    1.3235    0.4766 H   0  0  0  0  0  0  0  0  0  0  0  0
   -0.8734    1.6612   -1.1630 H   0  0  0  0  0  0  0  0  0  0  0  0
    1.9652    4.7638    0.5262 H   0  0  0  0  0  0  0  0  0  0  0  0
    0.8370    4.0741    1.6763 H   0  0  0  0  0  0  0  0  0  0  0  0
   -1.4083    3.5436    1.1512 H   0  0  0  0  0  0  0  0  0  0  0  0
   -2.0453    3.5992   -0.4804 H   0  0  0  0  0  0  0  0  0  0  0  0
    0.1713    9.2150    1.5143 H   0  0  0  0  0  0  0  0  0  0  0  0
    0.9358    8.5292    0.0829 H   0  0  0  0  0  0  0  0  0  0  0  0
   -1.9698   10.5553    1.3072 H   0  0  0  0  0  0  0  0  0  0  0  0
   -2.5925   10.9638   -0.2654 H   0  0  0  0  0  0  0  0  0  0  0  0
   -0.8181   -1.2557   -1.7056 H   0  0  0  0  0  0  0  0  0  0  0  0
    1.6135   -1.9415   -5.1849 H   0  0  0  0  0  0  0  0  0  0  0  0
   -0.4142    6.4137   -3.6660 H   0  0  0  0  0  0  0  0  0  0  0  0
   -0.5666   -2.0722   -4.0254 H   0  0  0  0  0  0  0  0  0  0  0  0
   -2.1224   10.8028   -2.2491 H   0  0  0  0  0  0  0  0  0  0  0  0
   -0.5980   12.3967   -0.7337 H   0  0  0  0  0  0  0  0  0  0  0  0
   -1.2388   12.7996    0.8582 H   0  0  0  0  0  0  0  0  0  0  0  0
    2.1563   10.5393    0.7239 H   0  0  0  0  0  0  0  0  0  0  0  0
    1.3336   10.8837   -0.8067 H   0  0  0  0  0  0  0  0  0  0  0  0
   -1.5012    7.8999   -5.2729 H   0  0  0  0  0  0  0  0  0  0  0  0
   -2.3821   10.0927   -4.5298 H   0  0  0  0  0  0  0  0  0  0  0  0
  2  1  1  0  0  0  0
  3 10  1  0  0  0  0
  4  1  1  0  0  0  0
  5 14  1  0  0  0  0
  6  5  1  0  0  0  0
  6 35  1  0  0  0  0
  7  9  1  0  0  0  0
  8  6  1  0  0  0  0
  9  8  1  0  0  0  0
 10 11  2  0  0  0  0
 11  4  1  0  0  0  0
 11 36  1  0  0  0  0
 12  1  2  0  0  0  0
 13  1  2  0  0  0  0
 14 22  1  0  0  0  0
 14 21  1  0  0  0  0
 14 37  1  0  0  0  0
 15  2  1  0  0  0  0
 15 38  1  0  0  0  0
 15 39  1  0  0  0  0
 16  2  1  0  0  0  0
 16 40  1  0  0  0  0
 16 41  1  0  0  0  0
 17  5  2  0  0  0  0
 18  3  1  0  0  0  0
 19  3  1  0  0  0  0
 20  3  1  0  0  0  0
 21 15  1  0  0  0  0
 21 42  1  0  0  0  0
 21 43  1  0  0  0  0
 22 16  1  0  0  0  0
 22 44  1  0  0  0  0
 22 45  1  0  0  0  0
 23 31  1  0  0  0  0
 23 32  1  0  0  0  0
 24  7  1  0  0  0  0
 24 46  1  0  0  0  0
 24 47  1  0  0  0  0
 25  7  1  0  0  0  0
 25 48  1  0  0  0  0
 25 49  1  0  0  0  0
 26  4  2  0  0  0  0
 26 50  1  0  0  0  0
 27 29  2  0  0  0  0
 27 10  1  0  0  0  0
 27 51  1  0  0  0  0
 28  8  2  0  0  0  0
 28 52  1  0  0  0  0
 29 26  1  0  0  0  0
 29 53  1  0  0  0  0
 30  9  2  0  0  0  0
 30 54  1  0  0  0  0
 31 25  1  0  0  0  0
 31 55  1  0  0  0  0
 31 56  1  0  0  0  0
 32 24  1  0  0  0  0
 32 57  1  0  0  0  0
 32 58  1  0  0  0  0
 33 28  1  0  0  0  0
 33 59  1  0  0  0  0
 34 33  2  0  0  0  0
 34 30  1  0  0  0  0
 34 60  1  0  0  0  0
M  END
>  <Mol_ID>
9102

>  <Formula>
C23H26F3N3O4S

>  <MolWeight>
497.5304496

>  <Cat>
P3110

>  <Name>
WAY-640666

>  <Synonyms>
N/A

>  <Target>
advanced glycosylation end product receptor

>  <Form>
free base

>  <CAS>
796082-31-0

>  <URL>
N/A

$$$$
