WAY-606012
 OpenBabel08302521433D

 45 48  0  0  0  0  0  0  0  0999 V2000
    0.0444   -1.7200    0.0139 N   0  0  0  0  0  0  0  0  0  0  0  0
    0.7191    0.4079    0.1298 C   0  0  0  0  0  0  0  0  0  0  0  0
    1.1666   -0.9101    0.0368 C   0  0  0  0  0  0  0  0  0  0  0  0
   -1.1084   -0.9542    0.0191 C   0  0  0  0  0  0  0  0  0  0  0  0
    5.9099    4.2874    3.0689 N   0  0  0  0  0  0  0  0  0  0  0  0
   -0.7091    0.3812    0.1007 C   0  0  0  0  0  0  0  0  0  0  0  0
    4.8289    4.5107    2.3084 C   0  0  0  0  0  0  0  0  0  0  0  0
    5.6644    3.6090    4.1920 C   0  0  0  0  0  0  0  0  0  0  0  0
    2.5358   -1.2109   -0.0153 C   0  0  0  0  0  0  0  0  0  0  0  0
    1.6697    1.4541    0.2034 C   0  0  0  0  0  0  0  0  0  0  0  0
    5.3034    2.2619    0.2525 C   0  0  0  0  0  0  0  0  0  0  0  0
    3.5702    4.1381    2.5985 N   0  0  0  0  0  0  0  0  0  0  0  0
    3.9241    2.2834    0.1521 N   0  0  0  0  0  0  0  0  0  0  0  0
    5.0896    5.0579    0.6456 S   0  0  0  0  0  0  0  0  0  0  0  0
    3.0429    1.1772    0.1390 C   0  0  0  0  0  0  0  0  0  0  0  0
    4.4420    3.1391    4.5862 C   0  0  0  0  0  0  0  0  0  0  0  0
    5.9840    1.2457    0.3997 O   0  0  0  0  0  0  0  0  0  0  0  0
    6.0143    3.6028    0.0841 C   0  0  0  0  0  0  0  0  0  0  0  0
    3.4062    3.4535    3.7439 C   0  0  0  0  0  0  0  0  0  0  0  0
    3.4559   -0.1494    0.0262 C   0  0  0  0  0  0  0  0  0  0  0  0
    0.0618   -3.1758    0.0329 C   0  0  0  0  0  0  0  0  0  0  0  0
    6.7634    3.3711    4.9535 O   0  0  0  0  0  0  0  0  0  0  0  0
   -2.4654   -1.3174   -0.0400 C   0  0  0  0  0  0  0  0  0  0  0  0
   -1.6964    1.3891    0.1181 C   0  0  0  0  0  0  0  0  0  0  0  0
    0.0381   -3.7954   -1.3544 C   0  0  0  0  0  0  0  0  0  0  0  0
   -3.4236   -0.2988   -0.0270 C   0  0  0  0  0  0  0  0  0  0  0  0
   -3.0471    1.0377    0.0487 C   0  0  0  0  0  0  0  0  0  0  0  0
    2.8934   -2.2316   -0.1082 H   0  0  0  0  0  0  0  0  0  0  0  0
    1.3133    2.4752    0.3007 H   0  0  0  0  0  0  0  0  0  0  0  0
    3.4891    3.2007    0.2115 H   0  0  0  0  0  0  0  0  0  0  0  0
    4.3081    2.5582    5.4865 H   0  0  0  0  0  0  0  0  0  0  0  0
    6.9607    3.5580    0.6372 H   0  0  0  0  0  0  0  0  0  0  0  0
    6.2538    3.7226   -0.9761 H   0  0  0  0  0  0  0  0  0  0  0  0
    2.3881    3.1360    3.9589 H   0  0  0  0  0  0  0  0  0  0  0  0
    4.5085   -0.4059   -0.0499 H   0  0  0  0  0  0  0  0  0  0  0  0
    0.9510   -3.5002    0.5832 H   0  0  0  0  0  0  0  0  0  0  0  0
   -0.8041   -3.5143    0.6128 H   0  0  0  0  0  0  0  0  0  0  0  0
    7.4560    3.8088    4.4268 H   0  0  0  0  0  0  0  0  0  0  0  0
   -2.7754   -2.3552   -0.1060 H   0  0  0  0  0  0  0  0  0  0  0  0
   -1.4087    2.4348    0.1703 H   0  0  0  0  0  0  0  0  0  0  0  0
   -0.8434   -3.4774   -1.9207 H   0  0  0  0  0  0  0  0  0  0  0  0
    0.9264   -3.5156   -1.9295 H   0  0  0  0  0  0  0  0  0  0  0  0
    0.0139   -4.8877   -1.2781 H   0  0  0  0  0  0  0  0  0  0  0  0
   -4.4789   -0.5563   -0.0812 H   0  0  0  0  0  0  0  0  0  0  0  0
   -3.8049    1.8168    0.0484 H   0  0  0  0  0  0  0  0  0  0  0  0
  2  3  2  0  0  0  0
  2  6  1  0  0  0  0
  3  1  1  0  0  0  0
  4  1  1  0  0  0  0
  5  7  2  0  0  0  0
  6  4  2  0  0  0  0
  7 14  1  0  0  0  0
  8  5  1  0  0  0  0
  9  3  1  0  0  0  0
  9 28  1  0  0  0  0
 10  2  1  0  0  0  0
 10 29  1  0  0  0  0
 11 13  1  0  0  0  0
 12  7  1  0  0  0  0
 13 15  1  0  0  0  0
 13 30  1  0  0  0  0
 14 18  1  0  0  0  0
 15 20  1  0  0  0  0
 15 10  2  0  0  0  0
 16 19  1  0  0  0  0
 16  8  2  0  0  0  0
 16 31  1  0  0  0  0
 17 11  2  0  0  0  0
 18 11  1  0  0  0  0
 18 32  1  0  0  0  0
 18 33  1  0  0  0  0
 19 12  2  0  0  0  0
 19 34  1  0  0  0  0
 20  9  2  0  0  0  0
 20 35  1  0  0  0  0
 21  1  1  0  0  0  0
 21 36  1  0  0  0  0
 21 37  1  0  0  0  0
 22  8  1  0  0  0  0
 22 38  1  0  0  0  0
 23  4  1  0  0  0  0
 23 39  1  0  0  0  0
 24  6  1  0  0  0  0
 24 40  1  0  0  0  0
 25 21  1  0  0  0  0
 25 41  1  0  0  0  0
 25 42  1  0  0  0  0
 25 43  1  0  0  0  0
 26 23  2  0  0  0  0
 26 44  1  0  0  0  0
 27 26  1  0  0  0  0
 27 24  2  0  0  0  0
 27 45  1  0  0  0  0
M  END
>  <Mol_ID>
8713

>  <Formula>
C20H18N4O2S

>  <MolWeight>
378.44752

>  <Cat>
P2859

>  <Name>
WAY-606012

>  <Synonyms>
N/A

>  <Target>
p53

>  <Form>
free base

>  <CAS>
380314-37-4

>  <URL>
N/A

$$$$
