WAY-607654
 OpenBabel08302521433D

 48 51  0  0  0  0  0  0  0  0999 V2000
   -1.8801    0.9195    0.1803 C   0  0  3  0  0  0  0  0  0  0  0  0
   -1.1442   -1.3680    0.3085 N   0  0  0  0  0  0  0  0  0  0  0  0
   -2.3097   -0.5874    0.2884 C   0  0  0  0  0  0  0  0  0  0  0  0
   -0.3725    0.7864    0.1504 C   0  0  0  0  0  0  0  0  0  0  0  0
   -0.0022   -0.5605    0.2100 C   0  0  0  0  0  0  0  0  0  0  0  0
   -2.3794    1.5571   -1.1249 C   0  0  0  0  0  0  0  0  0  0  0  0
   -3.8872    1.7154   -1.1522 C   0  0  0  0  0  0  0  0  0  0  0  0
   -1.1530   -2.8238    0.3657 C   0  0  0  0  0  0  0  0  0  0  0  0
   -3.4590   -1.0035    0.3296 O   0  0  0  0  0  0  0  0  0  0  0  0
   -4.5655    1.8431   -2.4669 C   0  0  0  0  0  0  0  0  0  0  0  0
   -2.2268    1.7062    1.3071 O   0  0  0  0  0  0  0  0  0  0  0  0
   -4.5548    1.7964   -0.1227 O   0  0  0  0  0  0  0  0  0  0  0  0
   -4.5237    2.5351   -4.7884 N   0  0  0  0  0  0  0  0  0  0  0  0
   -0.6029   -3.4084    1.6784 C   0  0  0  0  0  0  0  0  0  0  0  0
    0.5848    1.7891    0.0508 C   0  0  0  0  0  0  0  0  0  0  0  0
   -3.9271    2.3720   -3.5818 C   0  0  0  0  0  0  0  0  0  0  0  0
    1.3276   -0.9386    0.1552 C   0  0  0  0  0  0  0  0  0  0  0  0
   -0.6444   -4.9177    1.8116 C   0  0  0  0  0  0  0  0  0  0  0  0
   -5.9017    1.4628   -2.6011 C   0  0  0  0  0  0  0  0  0  0  0  0
   -5.8191    2.1598   -4.8830 C   0  0  0  0  0  0  0  0  0  0  0  0
    0.4140   -5.5828    2.4577 C   0  0  0  0  0  0  0  0  0  0  0  0
   -1.7479   -5.6809    1.4077 C   0  0  0  0  0  0  0  0  0  0  0  0
    1.9289    1.4186    0.0001 C   0  0  0  0  0  0  0  0  0  0  0  0
   -6.5409    1.6208   -3.8297 C   0  0  0  0  0  0  0  0  0  0  0  0
    2.2970    0.0653    0.0517 C   0  0  0  0  0  0  0  0  0  0  0  0
   -1.7860   -7.0629    1.6266 C   0  0  0  0  0  0  0  0  0  0  0  0
    0.3773   -6.9622    2.6786 C   0  0  0  0  0  0  0  0  0  0  0  0
   -0.7248   -7.7043    2.2647 C   0  0  0  0  0  0  0  0  0  0  0  0
   -1.9642    2.5678   -1.2324 H   0  0  0  0  0  0  0  0  0  0  0  0
   -2.0645    0.9528   -1.9839 H   0  0  0  0  0  0  0  0  0  0  0  0
   -2.1920   -3.1460    0.2338 H   0  0  0  0  0  0  0  0  0  0  0  0
   -0.5977   -3.2047   -0.4991 H   0  0  0  0  0  0  0  0  0  0  0  0
   -3.2083    1.6984    1.3390 H   0  0  0  0  0  0  0  0  0  0  0  0
    0.4393   -3.0890    1.7898 H   0  0  0  0  0  0  0  0  0  0  0  0
   -1.1441   -2.9809    2.5313 H   0  0  0  0  0  0  0  0  0  0  0  0
    0.2981    2.8360    0.0198 H   0  0  0  0  0  0  0  0  0  0  0  0
   -2.8975    2.7151   -3.5537 H   0  0  0  0  0  0  0  0  0  0  0  0
    1.6338   -1.9772    0.1882 H   0  0  0  0  0  0  0  0  0  0  0  0
   -6.4438    1.0455   -1.7551 H   0  0  0  0  0  0  0  0  0  0  0  0
   -6.2779    2.3136   -5.8562 H   0  0  0  0  0  0  0  0  0  0  0  0
    1.2767   -5.0225    2.8127 H   0  0  0  0  0  0  0  0  0  0  0  0
   -2.6127   -5.2187    0.9370 H   0  0  0  0  0  0  0  0  0  0  0  0
    2.6980    2.1843   -0.0782 H   0  0  0  0  0  0  0  0  0  0  0  0
   -7.5791    1.3335   -3.9602 H   0  0  0  0  0  0  0  0  0  0  0  0
    3.3506   -0.2038    0.0142 H   0  0  0  0  0  0  0  0  0  0  0  0
   -2.6538   -7.6398    1.3151 H   0  0  0  0  0  0  0  0  0  0  0  0
    1.2003   -7.4545    3.1903 H   0  0  0  0  0  0  0  0  0  0  0  0
   -0.7633   -8.7746    2.4473 H   0  0  0  0  0  0  0  0  0  0  0  0
  2  3  1  0  0  0  0
  3  1  1  0  0  0  0
  4  1  1  0  0  0  0
  5  4  2  0  0  0  0
  5  2  1  0  0  0  0
  6  1  1  0  0  0  0
  6 29  1  0  0  0  0
  6 30  1  0  0  0  0
  7  6  1  0  0  0  0
  8  2  1  0  0  0  0
  8 31  1  0  0  0  0
  8 32  1  0  0  0  0
  9  3  2  0  0  0  0
 10  7  1  0  0  0  0
 11  1  1  0  0  0  0
 11 33  1  0  0  0  0
 12  7  2  0  0  0  0
 13 16  2  0  0  0  0
 14  8  1  0  0  0  0
 14 34  1  0  0  0  0
 14 35  1  0  0  0  0
 15  4  1  0  0  0  0
 15 36  1  0  0  0  0
 16 10  1  0  0  0  0
 16 37  1  0  0  0  0
 17  5  1  0  0  0  0
 17 38  1  0  0  0  0
 18 14  1  0  0  0  0
 19 10  2  0  0  0  0
 19 39  1  0  0  0  0
 20 24  2  0  0  0  0
 20 13  1  0  0  0  0
 20 40  1  0  0  0  0
 21 18  2  0  0  0  0
 21 41  1  0  0  0  0
 22 18  1  0  0  0  0
 22 42  1  0  0  0  0
 23 15  2  0  0  0  0
 23 43  1  0  0  0  0
 24 19  1  0  0  0  0
 24 44  1  0  0  0  0
 25 23  1  0  0  0  0
 25 17  2  0  0  0  0
 25 45  1  0  0  0  0
 26 22  2  0  0  0  0
 26 46  1  0  0  0  0
 27 21  1  0  0  0  0
 27 47  1  0  0  0  0
 28 26  1  0  0  0  0
 28 27  2  0  0  0  0
 28 48  1  0  0  0  0
M  END
>  <Mol_ID>
8750

>  <Formula>
C23H20N2O3

>  <MolWeight>
372.4165

>  <Cat>
P2897

>  <Name>
WAY-607654

>  <Synonyms>
N/A

>  <Target>
Others

>  <Form>
free base

>  <CAS>
356080-86-9

>  <URL>
N/A

$$$$
