WAY-619272
 OpenBabel08302521433D

 29 30  0  0  0  0  0  0  0  0999 V2000
    0.8341   -0.0582   -0.0731 S   0  0  0  0  0  0  0  0  0  0  0  0
    0.0712    0.6103   -1.5280 C   0  0  0  0  0  0  0  0  0  0  0  0
    0.2080   -1.6076   -0.0832 N   0  0  0  0  0  0  0  0  0  0  0  0
    0.7089    0.4855   -2.7645 C   0  0  0  0  0  0  0  0  0  0  0  0
    0.0732    0.9846   -3.8960 C   0  0  0  0  0  0  0  0  0  0  0  0
    0.2557    0.6068    1.0679 O   0  0  0  0  0  0  0  0  0  0  0  0
    2.2601   -0.1215   -0.2920 O   0  0  0  0  0  0  0  0  0  0  0  0
   -1.1666    1.6102   -3.7972 C   0  0  0  0  0  0  0  0  0  0  0  0
   -1.1652    1.2604   -1.4157 C   0  0  0  0  0  0  0  0  0  0  0  0
   -0.6834   -6.5833    0.0075 N   0  0  0  0  0  0  0  0  0  0  0  0
   -1.7875    1.7591   -2.5605 C   0  0  0  0  0  0  0  0  0  0  0  0
    0.9798   -2.6671   -0.7224 C   0  0  0  0  0  0  0  0  0  0  0  0
    0.6631    0.8453   -5.0907 F   0  0  0  0  0  0  0  0  0  0  0  0
   -1.7770    2.0719   -4.8959 F   0  0  0  0  0  0  0  0  0  0  0  0
    0.3801   -4.0266   -0.4688 C   0  0  0  0  0  0  0  0  0  0  0  0
   -0.1930   -5.8249    1.0096 C   0  0  0  0  0  0  0  0  0  0  0  0
   -0.6363   -6.0548   -1.2335 C   0  0  0  0  0  0  0  0  0  0  0  0
   -0.1257   -4.7976   -1.5185 C   0  0  0  0  0  0  0  0  0  0  0  0
    0.3421   -4.5597    0.8254 C   0  0  0  0  0  0  0  0  0  0  0  0
   -0.3858   -1.8321    0.7121 H   0  0  0  0  0  0  0  0  0  0  0  0
    1.6780    0.0054   -2.8608 H   0  0  0  0  0  0  0  0  0  0  0  0
   -1.6479    1.3746   -0.4466 H   0  0  0  0  0  0  0  0  0  0  0  0
   -2.7501    2.2575   -2.4967 H   0  0  0  0  0  0  0  0  0  0  0  0
    1.0277   -2.4734   -1.7997 H   0  0  0  0  0  0  0  0  0  0  0  0
    2.0080   -2.6849   -0.3434 H   0  0  0  0  0  0  0  0  0  0  0  0
   -0.2396   -6.2761    1.9972 H   0  0  0  0  0  0  0  0  0  0  0  0
   -1.0280   -6.6916   -2.0220 H   0  0  0  0  0  0  0  0  0  0  0  0
   -0.1162   -4.4407   -2.5430 H   0  0  0  0  0  0  0  0  0  0  0  0
    0.7290   -4.0083    1.6765 H   0  0  0  0  0  0  0  0  0  0  0  0
  2  1  1  0  0  0  0
  3  1  1  0  0  0  0
  3 20  1  0  0  0  0
  4  2  2  0  0  0  0
  4 21  1  0  0  0  0
  5  4  1  0  0  0  0
  5  8  2  0  0  0  0
  6  1  2  0  0  0  0
  7  1  2  0  0  0  0
  8 11  1  0  0  0  0
  9  2  1  0  0  0  0
  9 22  1  0  0  0  0
 10 16  2  0  0  0  0
 10 17  1  0  0  0  0
 11  9  2  0  0  0  0
 11 23  1  0  0  0  0
 12  3  1  0  0  0  0
 12 24  1  0  0  0  0
 12 25  1  0  0  0  0
 13  5  1  0  0  0  0
 14  8  1  0  0  0  0
 15 12  1  0  0  0  0
 16 19  1  0  0  0  0
 16 26  1  0  0  0  0
 17 18  2  0  0  0  0
 17 27  1  0  0  0  0
 18 15  1  0  0  0  0
 18 28  1  0  0  0  0
 19 15  2  0  0  0  0
 19 29  1  0  0  0  0
M  END
>  <Mol_ID>
8754

>  <Formula>
C12H10F2N2O2S

>  <MolWeight>
284.2818064

>  <Cat>
P2923

>  <Name>
WAY-619272

>  <Synonyms>
N/A

>  <Target>
Anti-infection

>  <Form>
free base

>  <CAS>
736154-60-2

>  <URL>
N/A

$$$$
