WAY-620496
 OpenBabel08302521433D

 37 39  0  0  0  0  0  0  0  0999 V2000
   -5.3342    0.3014   -1.6741 C   0  0  0  0  0  0  0  0  0  0  0  0
   -5.5959    1.3338   -0.9087 N   0  0  0  0  0  0  0  0  0  0  0  0
   -4.8429   -0.9382   -1.3352 N   0  0  0  0  0  0  0  0  0  0  0  0
   -5.5899    0.6049   -2.9904 N   0  0  0  0  0  0  0  0  0  0  0  0
   -4.4662   -1.2662   -0.0440 C   0  0  0  0  0  0  0  0  0  0  0  0
   -5.9468    2.3553   -1.7561 C   0  0  0  0  0  0  0  0  0  0  0  0
   -3.7957   -2.5985    0.0874 C   0  0  0  0  0  0  0  0  0  0  0  0
   -5.9284    1.9291   -3.0798 C   0  0  0  0  0  0  0  0  0  0  0  0
   -2.8143   -2.7592    1.0810 C   0  0  0  0  0  0  0  0  0  0  0  0
   -2.0787   -3.9518    1.1951 C   0  0  0  0  0  0  0  0  0  0  0  0
   -4.5713   -0.5756    0.9630 O   0  0  0  0  0  0  0  0  0  0  0  0
   -2.3554   -5.0063    0.3057 C   0  0  0  0  0  0  0  0  0  0  0  0
   -4.0963   -3.6669   -0.7578 C   0  0  0  0  0  0  0  0  0  0  0  0
   -3.3748   -4.8553   -0.6471 C   0  0  0  0  0  0  0  0  0  0  0  0
   -1.0972   -4.1383    2.1307 O   0  0  0  0  0  0  0  0  0  0  0  0
   -1.7563   -6.2356    0.2135 O   0  0  0  0  0  0  0  0  0  0  0  0
   -6.2773    3.6894   -1.4758 C   0  0  0  0  0  0  0  0  0  0  0  0
   -6.2044    2.7646   -4.1636 C   0  0  0  0  0  0  0  0  0  0  0  0
   -0.7701   -3.0621    3.0007 C   0  0  0  0  0  0  0  0  0  0  0  0
   -0.6412   -6.5271    1.0418 C   0  0  0  0  0  0  0  0  0  0  0  0
   -6.5106    4.0970   -3.8651 C   0  0  0  0  0  0  0  0  0  0  0  0
   -6.5543    4.5536   -2.5451 C   0  0  0  0  0  0  0  0  0  0  0  0
   -4.6262   -1.5731   -2.0863 H   0  0  0  0  0  0  0  0  0  0  0  0
   -5.4976   -0.0264   -3.7688 H   0  0  0  0  0  0  0  0  0  0  0  0
   -2.6361   -1.9214    1.7506 H   0  0  0  0  0  0  0  0  0  0  0  0
   -4.8924   -3.6108   -1.4926 H   0  0  0  0  0  0  0  0  0  0  0  0
   -3.6027   -5.6838   -1.3153 H   0  0  0  0  0  0  0  0  0  0  0  0
   -6.3008    4.0379   -0.4491 H   0  0  0  0  0  0  0  0  0  0  0  0
   -6.1698    2.4120   -5.1884 H   0  0  0  0  0  0  0  0  0  0  0  0
   -0.4955   -2.1611    2.4428 H   0  0  0  0  0  0  0  0  0  0  0  0
   -1.5879   -2.8670    3.7009 H   0  0  0  0  0  0  0  0  0  0  0  0
    0.1062   -3.3638    3.5833 H   0  0  0  0  0  0  0  0  0  0  0  0
    0.1725   -5.8102    0.8931 H   0  0  0  0  0  0  0  0  0  0  0  0
   -0.9413   -6.6015    2.0915 H   0  0  0  0  0  0  0  0  0  0  0  0
   -0.2589   -7.5089    0.7442 H   0  0  0  0  0  0  0  0  0  0  0  0
   -6.7161    4.7928   -4.6767 H   0  0  0  0  0  0  0  0  0  0  0  0
   -6.7984    5.5933   -2.3404 H   0  0  0  0  0  0  0  0  0  0  0  0
  2  1  2  0  0  0  0
  3  1  1  0  0  0  0
  3 23  1  0  0  0  0
  4  1  1  0  0  0  0
  4 24  1  0  0  0  0
  5  3  1  0  0  0  0
  6  2  1  0  0  0  0
  6  8  2  0  0  0  0
  7  5  1  0  0  0  0
  8  4  1  0  0  0  0
  9  7  2  0  0  0  0
  9 25  1  0  0  0  0
 10  9  1  0  0  0  0
 10 12  2  0  0  0  0
 11  5  2  0  0  0  0
 12 14  1  0  0  0  0
 13  7  1  0  0  0  0
 13 26  1  0  0  0  0
 14 13  2  0  0  0  0
 14 27  1  0  0  0  0
 15 10  1  0  0  0  0
 16 12  1  0  0  0  0
 17  6  1  0  0  0  0
 17 28  1  0  0  0  0
 18  8  1  0  0  0  0
 18 29  1  0  0  0  0
 19 15  1  0  0  0  0
 19 30  1  0  0  0  0
 19 31  1  0  0  0  0
 19 32  1  0  0  0  0
 20 16  1  0  0  0  0
 20 33  1  0  0  0  0
 20 34  1  0  0  0  0
 20 35  1  0  0  0  0
 21 18  2  0  0  0  0
 21 36  1  0  0  0  0
 22 17  2  0  0  0  0
 22 21  1  0  0  0  0
 22 37  1  0  0  0  0
M  END
>  <Mol_ID>
8776

>  <Formula>
C16H15N3O3

>  <MolWeight>
297.3086

>  <Cat>
P2947

>  <Name>
WAY-620496

>  <Synonyms>
N/A

>  <Target>
Androgen Receptor

>  <Form>
free base

>  <CAS>
191028-27-0

>  <URL>
N/A

$$$$
