WAY-278742
 OpenBabel08302521453D

 36 38  0  0  0  0  0  0  0  0999 V2000
    0.9857    0.5371   -0.3300 C   0  0  0  0  0  0  0  0  0  0  0  0
    1.0522   -0.8133   -0.4081 N   0  0  0  0  0  0  0  0  0  0  0  0
    1.9654    1.3695   -0.3043 N   0  0  0  0  0  0  0  0  0  0  0  0
   -0.0850   -1.5403   -0.2395 C   0  0  0  0  0  0  0  0  0  0  0  0
   -0.6723    1.0548   -0.2722 S   0  0  0  0  0  0  0  0  0  0  0  0
   -1.2890   -0.6524    0.0025 C   0  0  3  0  0  0  0  0  0  0  0  0
    3.2835    0.9009   -0.2702 C   0  0  0  0  0  0  0  0  0  0  0  0
    3.4998   -0.3102    0.2996 N   0  0  0  0  0  0  0  0  0  0  0  0
   -0.1060   -2.7640   -0.2151 O   0  0  0  0  0  0  0  0  0  0  0  0
   -1.7645   -0.8816    1.4433 C   0  0  0  0  0  0  0  0  0  0  0  0
   -2.9858   -0.1258    1.9164 C   0  0  0  0  0  0  0  0  0  0  0  0
   -5.3107    1.1267    2.9212 C   0  0  0  0  0  0  0  0  0  0  0  0
   -4.0337    0.2294    1.0597 C   0  0  0  0  0  0  0  0  0  0  0  0
   -3.1192    0.1542    3.2854 C   0  0  0  0  0  0  0  0  0  0  0  0
   -4.2659    0.7792    3.7818 C   0  0  0  0  0  0  0  0  0  0  0  0
   -5.1800    0.8568    1.5561 C   0  0  0  0  0  0  0  0  0  0  0  0
    4.7778   -0.7401    0.3807 C   0  0  0  0  0  0  0  0  0  0  0  0
    4.3094    1.6862   -0.7700 C   0  0  0  0  0  0  0  0  0  0  0  0
   -6.5485    1.7766    3.4625 C   0  0  0  0  0  0  0  0  0  0  0  0
    5.8580   -0.0278   -0.1059 C   0  0  0  0  0  0  0  0  0  0  0  0
    5.6172    1.2080   -0.6943 C   0  0  0  0  0  0  0  0  0  0  0  0
    1.9607   -1.2587   -0.4175 H   0  0  0  0  0  0  0  0  0  0  0  0
   -2.0493   -0.8909   -0.7461 H   0  0  0  0  0  0  0  0  0  0  0  0
   -0.9300   -0.6790    2.1309 H   0  0  0  0  0  0  0  0  0  0  0  0
   -1.9936   -1.9491    1.5707 H   0  0  0  0  0  0  0  0  0  0  0  0
   -3.9875    0.0216   -0.0054 H   0  0  0  0  0  0  0  0  0  0  0  0
   -2.3305   -0.1222    3.9826 H   0  0  0  0  0  0  0  0  0  0  0  0
   -4.3423    0.9822    4.8477 H   0  0  0  0  0  0  0  0  0  0  0  0
   -5.9765    1.1224    0.8650 H   0  0  0  0  0  0  0  0  0  0  0  0
    4.9114   -1.7040    0.8640 H   0  0  0  0  0  0  0  0  0  0  0  0
    4.0917    2.6543   -1.2078 H   0  0  0  0  0  0  0  0  0  0  0  0
   -6.9854    1.1562    4.2519 H   0  0  0  0  0  0  0  0  0  0  0  0
   -6.3114    2.7646    3.8690 H   0  0  0  0  0  0  0  0  0  0  0  0
   -7.3075    1.9025    2.6832 H   0  0  0  0  0  0  0  0  0  0  0  0
    6.8631   -0.4238   -0.0212 H   0  0  0  0  0  0  0  0  0  0  0  0
    6.4390    1.8007   -1.0835 H   0  0  0  0  0  0  0  0  0  0  0  0
  2  1  1  0  0  0  0
  2 22  1  0  0  0  0
  3  1  2  0  0  0  0
  4  2  1  0  0  0  0
  4  6  1  0  0  0  0
  5  1  1  0  0  0  0
  6  5  1  0  0  0  0
  6 23  1  0  0  0  0
  7  3  1  0  0  0  0
  8  7  2  0  0  0  0
  9  4  2  0  0  0  0
 10  6  1  0  0  0  0
 10 24  1  0  0  0  0
 10 25  1  0  0  0  0
 11 10  1  0  0  0  0
 12 15  2  0  0  0  0
 13 11  1  0  0  0  0
 13 26  1  0  0  0  0
 14 11  2  0  0  0  0
 14 27  1  0  0  0  0
 15 14  1  0  0  0  0
 15 28  1  0  0  0  0
 16 13  2  0  0  0  0
 16 12  1  0  0  0  0
 16 29  1  0  0  0  0
 17  8  1  0  0  0  0
 17 30  1  0  0  0  0
 18  7  1  0  0  0  0
 18 31  1  0  0  0  0
 19 12  1  0  0  0  0
 19 32  1  0  0  0  0
 19 33  1  0  0  0  0
 19 34  1  0  0  0  0
 20 21  1  0  0  0  0
 20 17  2  0  0  0  0
 20 35  1  0  0  0  0
 21 18  2  0  0  0  0
 21 36  1  0  0  0  0
M  END
>  <Mol_ID>
9299

>  <Formula>
C16H15N3OS

>  <MolWeight>
297.3748

>  <Cat>
P2083

>  <Name>
WAY-278742

>  <Synonyms>
N/A

>  <Target>
others

>  <Form>
free base

>  <CAS>
956369-08-7

>  <URL>
N/A

$$$$
