WAY-607694
 OpenBabel08302521433D

 54 58  0  0  0  0  0  0  0  0999 V2000
   -0.4286    1.1790    0.2981 C   0  0  0  0  0  0  0  0  0  0  0  0
   -0.7309    2.5912   -0.0939 C   0  0  3  0  0  0  0  0  0  0  0  0
   -2.1094    2.9866   -0.3191 N   0  0  0  0  0  0  0  0  0  0  0  0
    0.8256   -0.6849    0.8029 N   0  0  0  0  0  0  0  0  0  0  0  0
    0.8919    0.6151    0.4727 C   0  0  0  0  0  0  0  0  0  0  0  0
   -0.4872   -1.0062    0.7132 N   0  0  0  0  0  0  0  0  0  0  0  0
   -1.2661    0.1254    0.6135 C   0  0  0  0  0  0  0  0  0  0  0  0
   -0.1609    3.7544    1.1876 S   0  0  0  0  0  0  0  0  0  0  0  0
   -2.3164    4.3640   -0.1884 C   0  0  0  0  0  0  0  0  0  0  0  0
   -3.0119    2.2615   -1.2037 C   0  0  0  0  0  0  0  0  0  0  0  0
    2.1824    1.3231    0.4207 C   0  0  0  0  0  0  0  0  0  0  0  0
   -1.1702    5.0682    0.5093 C   0  0  0  0  0  0  0  0  0  0  0  0
   -0.9164   -2.3633    0.6216 C   0  0  0  0  0  0  0  0  0  0  0  0
   -3.2924    4.9625   -0.6262 O   0  0  0  0  0  0  0  0  0  0  0  0
   -1.5594    1.6521   -3.0941 N   0  0  0  0  0  0  0  0  0  0  0  0
    2.4496    2.2721   -0.5766 C   0  0  0  0  0  0  0  0  0  0  0  0
    3.1190    1.1617    1.4489 C   0  0  0  0  0  0  0  0  0  0  0  0
   -2.6729    2.3079   -2.6823 C   0  0  0  0  0  0  0  0  0  0  0  0
    4.4563    2.9912    0.5657 C   0  0  0  0  0  0  0  0  0  0  0  0
    4.2459    1.9925    1.5185 C   0  0  0  0  0  0  0  0  0  0  0  0
    3.5522    3.1297   -0.4832 C   0  0  0  0  0  0  0  0  0  0  0  0
    5.5521    3.7828    0.7742 O   0  0  0  0  0  0  0  0  0  0  0  0
   -1.3725    1.5317   -4.4287 C   0  0  0  0  0  0  0  0  0  0  0  0
   -2.2392   -2.6768    0.2707 C   0  0  0  0  0  0  0  0  0  0  0  0
    0.0180   -3.3992    0.7657 C   0  0  0  0  0  0  0  0  0  0  0  0
   -3.5853    2.8664   -3.5808 C   0  0  0  0  0  0  0  0  0  0  0  0
    6.0447    4.4781   -0.3660 C   0  0  0  0  0  0  0  0  0  0  0  0
   -2.2457    2.0289   -5.3845 C   0  0  0  0  0  0  0  0  0  0  0  0
   -0.3520   -4.7215    0.5009 C   0  0  0  0  0  0  0  0  0  0  0  0
   -2.5979   -4.0000   -0.0048 C   0  0  0  0  0  0  0  0  0  0  0  0
   -3.3661    2.7208   -4.9465 C   0  0  0  0  0  0  0  0  0  0  0  0
   -1.6516   -5.0176    0.0941 C   0  0  0  0  0  0  0  0  0  0  0  0
   -0.2070    2.8314   -1.0227 H   0  0  0  0  0  0  0  0  0  0  0  0
   -2.3386    0.0686    0.6968 H   0  0  0  0  0  0  0  0  0  0  0  0
   -3.0747    1.2154   -0.9038 H   0  0  0  0  0  0  0  0  0  0  0  0
   -4.0213    2.6622   -1.0500 H   0  0  0  0  0  0  0  0  0  0  0  0
   -1.5385    5.7219    1.3009 H   0  0  0  0  0  0  0  0  0  0  0  0
   -0.5911    5.6390   -0.2230 H   0  0  0  0  0  0  0  0  0  0  0  0
    1.7823    2.3914   -1.4234 H   0  0  0  0  0  0  0  0  0  0  0  0
    2.9597    0.4161    2.2248 H   0  0  0  0  0  0  0  0  0  0  0  0
    4.9534    1.8728    2.3350 H   0  0  0  0  0  0  0  0  0  0  0  0
    3.6546    3.9138   -1.2258 H   0  0  0  0  0  0  0  0  0  0  0  0
   -0.4775    0.9890   -4.7231 H   0  0  0  0  0  0  0  0  0  0  0  0
   -3.0024   -1.9148    0.1509 H   0  0  0  0  0  0  0  0  0  0  0  0
    1.0456   -3.1887    1.0560 H   0  0  0  0  0  0  0  0  0  0  0  0
   -4.4741    3.3865   -3.2241 H   0  0  0  0  0  0  0  0  0  0  0  0
    6.1913    3.7981   -1.2122 H   0  0  0  0  0  0  0  0  0  0  0  0
    5.3864    5.3095   -0.6394 H   0  0  0  0  0  0  0  0  0  0  0  0
    7.0204    4.8989   -0.1048 H   0  0  0  0  0  0  0  0  0  0  0  0
   -2.0583    1.8791   -6.4409 H   0  0  0  0  0  0  0  0  0  0  0  0
    0.3841   -5.5168    0.5866 H   0  0  0  0  0  0  0  0  0  0  0  0
   -3.6109   -4.2321   -0.3246 H   0  0  0  0  0  0  0  0  0  0  0  0
   -4.0773    3.1266   -5.6622 H   0  0  0  0  0  0  0  0  0  0  0  0
   -1.9250   -6.0403   -0.1542 H   0  0  0  0  0  0  0  0  0  0  0  0
  2  1  1  0  0  0  0
  2 33  1  0  0  0  0
  3  2  1  0  0  0  0
  4  5  2  0  0  0  0
  5  1  1  0  0  0  0
  6  7  1  0  0  0  0
  6  4  1  0  0  0  0
  7  1  2  0  0  0  0
  7 34  1  0  0  0  0
  8  2  1  0  0  0  0
  9  3  1  0  0  0  0
  9 12  1  0  0  0  0
 10  3  1  0  0  0  0
 10 35  1  0  0  0  0
 10 36  1  0  0  0  0
 11  5  1  0  0  0  0
 12  8  1  0  0  0  0
 12 37  1  0  0  0  0
 12 38  1  0  0  0  0
 13  6  1  0  0  0  0
 14  9  2  0  0  0  0
 15 18  2  0  0  0  0
 16 11  2  0  0  0  0
 16 39  1  0  0  0  0
 17 11  1  0  0  0  0
 17 40  1  0  0  0  0
 18 10  1  0  0  0  0
 19 20  1  0  0  0  0
 20 17  2  0  0  0  0
 20 41  1  0  0  0  0
 21 16  1  0  0  0  0
 21 19  2  0  0  0  0
 21 42  1  0  0  0  0
 22 19  1  0  0  0  0
 23 15  1  0  0  0  0
 23 43  1  0  0  0  0
 24 13  2  0  0  0  0
 24 44  1  0  0  0  0
 25 13  1  0  0  0  0
 25 45  1  0  0  0  0
 26 18  1  0  0  0  0
 26 46  1  0  0  0  0
 27 22  1  0  0  0  0
 27 47  1  0  0  0  0
 27 48  1  0  0  0  0
 27 49  1  0  0  0  0
 28 31  1  0  0  0  0
 28 23  2  0  0  0  0
 28 50  1  0  0  0  0
 29 25  2  0  0  0  0
 29 51  1  0  0  0  0
 30 24  1  0  0  0  0
 30 52  1  0  0  0  0
 31 26  2  0  0  0  0
 31 53  1  0  0  0  0
 32 29  1  0  0  0  0
 32 30  2  0  0  0  0
 32 54  1  0  0  0  0
M  END
>  <Mol_ID>
8751

>  <Formula>
C25H22N4O2S

>  <MolWeight>
442.53278

>  <Cat>
P2898

>  <Name>
WAY-607694

>  <Synonyms>
N/A

>  <Target>
hepatitis B

>  <Form>
free base

>  <CAS>
380469-44-3

>  <URL>
N/A

$$$$
