WAY-330540
 OpenBabel08302521453D

 46 50  0  0  0  0  0  0  0  0999 V2000
    0.0606    0.6342   -0.0015 C   0  0  0  0  0  0  0  0  0  0  0  0
    0.0624   -0.7255   -0.0504 C   0  0  0  0  0  0  0  0  0  0  0  0
    1.3562    1.1908    0.0703 C   0  0  0  0  0  0  0  0  0  0  0  0
    2.2096    0.0623    0.0302 N   0  0  0  0  0  0  0  0  0  0  0  0
    1.4550   -1.2300   -0.0176 C   0  0  3  0  0  0  0  0  0  0  0  0
   -1.2119    1.0509   -0.0216 N   0  0  0  0  0  0  0  0  0  0  0  0
   -2.0704    0.0061   -0.0500 N   0  0  0  0  0  0  0  0  0  0  0  0
   -1.2915   -1.1037   -0.0622 C   0  0  0  0  0  0  0  0  0  0  0  0
    3.6285    0.1172   -0.0045 C   0  0  0  0  0  0  0  0  0  0  0  0
    7.9323    0.2247   -0.1123 C   0  0  0  0  0  0  0  0  0  0  0  0
    1.5981   -2.0690    1.2297 C   0  0  0  0  0  0  0  0  0  0  0  0
    1.6120    2.3816    0.1232 O   0  0  0  0  0  0  0  0  0  0  0  0
    6.4530    0.2176   -0.0629 C   0  0  0  0  0  0  0  0  0  0  0  0
   -1.8797   -2.4412   -0.0436 C   0  0  0  0  0  0  0  0  0  0  0  0
    8.6358   -0.6863   -0.5074 O   0  0  0  0  0  0  0  0  0  0  0  0
    2.3131   -4.1859    2.1928 N   0  0  0  0  0  0  0  0  0  0  0  0
    4.3197    1.2601    0.4166 C   0  0  0  0  0  0  0  0  0  0  0  0
    4.3803   -0.9747   -0.4632 C   0  0  0  0  0  0  0  0  0  0  0  0
    5.7784   -0.9253   -0.4993 C   0  0  0  0  0  0  0  0  0  0  0  0
    5.7180    1.3092    0.3980 C   0  0  0  0  0  0  0  0  0  0  0  0
    8.4620    1.3760    0.3334 O   0  0  0  0  0  0  0  0  0  0  0  0
    2.1603   -3.3421    1.1470 C   0  0  0  0  0  0  0  0  0  0  0  0
    1.2031   -1.6449    2.5074 C   0  0  0  0  0  0  0  0  0  0  0  0
    1.8818   -3.7485    3.3939 C   0  0  0  0  0  0  0  0  0  0  0  0
   -3.1336   -2.6443    0.5530 C   0  0  0  0  0  0  0  0  0  0  0  0
   -1.2167   -3.5386   -0.6074 C   0  0  0  0  0  0  0  0  0  0  0  0
    1.3300   -2.4976    3.6001 C   0  0  0  0  0  0  0  0  0  0  0  0
   -1.7938   -4.8109   -0.5701 C   0  0  0  0  0  0  0  0  0  0  0  0
   -3.7067   -3.9165    0.5958 C   0  0  0  0  0  0  0  0  0  0  0  0
   -3.0356   -4.9992    0.0331 C   0  0  0  0  0  0  0  0  0  0  0  0
    1.6871   -1.7645   -0.9450 H   0  0  0  0  0  0  0  0  0  0  0  0
   -1.5805    1.9979   -0.0085 H   0  0  0  0  0  0  0  0  0  0  0  0
    3.7965    2.1320    0.8019 H   0  0  0  0  0  0  0  0  0  0  0  0
    3.9131   -1.8777   -0.8402 H   0  0  0  0  0  0  0  0  0  0  0  0
    6.3363   -1.7825   -0.8726 H   0  0  0  0  0  0  0  0  0  0  0  0
    6.2164    2.2091    0.7528 H   0  0  0  0  0  0  0  0  0  0  0  0
    9.4281    1.2400    0.2440 H   0  0  0  0  0  0  0  0  0  0  0  0
    2.5203   -3.7464    0.2042 H   0  0  0  0  0  0  0  0  0  0  0  0
    0.7712   -0.6587    2.6613 H   0  0  0  0  0  0  0  0  0  0  0  0
    1.9928   -4.4527    4.2133 H   0  0  0  0  0  0  0  0  0  0  0  0
   -3.6718   -1.8053    0.9908 H   0  0  0  0  0  0  0  0  0  0  0  0
   -0.2567   -3.4220   -1.0985 H   0  0  0  0  0  0  0  0  0  0  0  0
    0.9967   -2.1936    4.5860 H   0  0  0  0  0  0  0  0  0  0  0  0
   -1.2757   -5.6553   -1.0171 H   0  0  0  0  0  0  0  0  0  0  0  0
   -4.6768   -4.0571    1.0649 H   0  0  0  0  0  0  0  0  0  0  0  0
   -3.4838   -5.9890    0.0602 H   0  0  0  0  0  0  0  0  0  0  0  0
  2  1  2  0  0  0  0
  3  1  1  0  0  0  0
  4  3  1  0  0  0  0
  4  5  1  0  0  0  0
  5  2  1  0  0  0  0
  5 31  1  0  0  0  0
  6  1  1  0  0  0  0
  6 32  1  0  0  0  0
  7  6  1  0  0  0  0
  8  2  1  0  0  0  0
  8  7  2  0  0  0  0
  9  4  1  0  0  0  0
 10 13  1  0  0  0  0
 11  5  1  0  0  0  0
 12  3  2  0  0  0  0
 13 19  2  0  0  0  0
 13 20  1  0  0  0  0
 14  8  1  0  0  0  0
 15 10  2  0  0  0  0
 16 22  2  0  0  0  0
 16 24  1  0  0  0  0
 17  9  1  0  0  0  0
 17 33  1  0  0  0  0
 18  9  2  0  0  0  0
 18 34  1  0  0  0  0
 19 18  1  0  0  0  0
 19 35  1  0  0  0  0
 20 17  2  0  0  0  0
 20 36  1  0  0  0  0
 21 10  1  0  0  0  0
 21 37  1  0  0  0  0
 22 11  1  0  0  0  0
 22 38  1  0  0  0  0
 23 11  2  0  0  0  0
 23 39  1  0  0  0  0
 24 27  2  0  0  0  0
 24 40  1  0  0  0  0
 25 14  2  0  0  0  0
 25 41  1  0  0  0  0
 26 14  1  0  0  0  0
 26 42  1  0  0  0  0
 27 23  1  0  0  0  0
 27 43  1  0  0  0  0
 28 26  2  0  0  0  0
 28 44  1  0  0  0  0
 29 25  1  0  0  0  0
 29 45  1  0  0  0  0
 30 28  1  0  0  0  0
 30 29  2  0  0  0  0
 30 46  1  0  0  0  0
M  END
>  <Mol_ID>
9300

>  <Formula>
C23H16N4O3

>  <MolWeight>
396.39814

>  <Cat>
P2614

>  <Name>
WAY-330540

>  <Synonyms>
N/A

>  <Target>
others

>  <Form>
free base

>  <CAS>
956695-97-9

>  <URL>
N/A

$$$$
