WAY-325648
 OpenBabel08302521433D

 49 51  0  0  0  0  0  0  0  0999 V2000
    0.4658   -2.1958    0.4144 N   0  0  0  0  0  0  0  0  0  0  0  0
   -0.6648   -3.1632    0.5866 C   0  0  3  0  0  0  0  0  0  0  0  0
    0.0152   -1.0545   -0.3872 C   0  0  3  0  0  0  0  0  0  0  0  0
    0.3284   -1.6791   -4.7195 C   0  0  0  0  0  0  0  0  0  0  0  0
   -1.6958   -0.7695    0.1267 S   0  0  0  0  0  0  0  0  0  0  0  0
    0.1525   -1.2689   -1.8900 C   0  0  0  0  0  0  0  0  0  0  0  0
    0.8995   -2.5895   -3.8133 C   0  0  0  0  0  0  0  0  0  0  0  0
   -0.1964   -0.4821   -4.1953 C   0  0  0  0  0  0  0  0  0  0  0  0
   -0.6780   -3.7486    2.0027 C   0  0  0  0  0  0  0  0  0  0  0  0
    0.3256   -1.8463   -6.0813 O   0  0  0  0  0  0  0  0  0  0  0  0
    0.7922   -2.3912   -2.4276 C   0  0  0  0  0  0  0  0  0  0  0  0
   -0.2929   -0.2993   -2.8006 C   0  0  0  0  0  0  0  0  0  0  0  0
   -2.0230   -2.5348    0.2788 C   0  0  0  0  0  0  0  0  0  0  0  0
   -0.1910   -3.0916   -6.5979 C   0  0  0  0  0  0  0  0  0  0  0  0
   -1.4677   -4.5852    2.4208 O   0  0  0  0  0  0  0  0  0  0  0  0
    0.8196   -3.8005   -7.4968 C   0  0  0  0  0  0  0  0  0  0  0  0
    0.6139   -5.1149   -7.9762 C   0  0  0  0  0  0  0  0  0  0  0  0
    1.9710   -4.0842   -4.3074 Br  0  0  0  0  0  0  0  0  0  0  0  0
    0.2828   -3.2608    2.8123 O   0  0  0  0  0  0  0  0  0  0  0  0
   -0.7062    0.5867   -4.8892 O   0  0  0  0  0  0  0  0  0  0  0  0
    2.0276   -3.1558   -7.8293 C   0  0  0  0  0  0  0  0  0  0  0  0
   -0.6740   -5.8755   -7.8162 C   0  0  0  0  0  0  0  0  0  0  0  0
    1.6639   -5.7801   -8.6414 C   0  0  0  0  0  0  0  0  0  0  0  0
   -0.1213    0.9081   -6.1520 C   0  0  0  0  0  0  0  0  0  0  0  0
   -0.1923    2.4185   -6.3339 C   0  0  0  0  0  0  0  0  0  0  0  0
    2.8734   -5.1412   -8.9009 C   0  0  0  0  0  0  0  0  0  0  0  0
    3.0427   -3.8171   -8.5214 C   0  0  0  0  0  0  0  0  0  0  0  0
    0.6838   -1.8434    1.3516 H   0  0  0  0  0  0  0  0  0  0  0  0
   -0.4834   -4.0147   -0.0794 H   0  0  0  0  0  0  0  0  0  0  0  0
    0.6211   -0.1796   -0.1240 H   0  0  0  0  0  0  0  0  0  0  0  0
    1.2385   -3.1236   -1.7577 H   0  0  0  0  0  0  0  0  0  0  0  0
   -0.7242    0.6302   -2.4307 H   0  0  0  0  0  0  0  0  0  0  0  0
   -2.3999   -2.8931   -0.6845 H   0  0  0  0  0  0  0  0  0  0  0  0
   -2.7871   -2.7100    1.0411 H   0  0  0  0  0  0  0  0  0  0  0  0
   -1.0737   -2.8443   -7.1984 H   0  0  0  0  0  0  0  0  0  0  0  0
   -0.5245   -3.7618   -5.7960 H   0  0  0  0  0  0  0  0  0  0  0  0
    0.1725   -3.7641    3.6478 H   0  0  0  0  0  0  0  0  0  0  0  0
    2.2080   -2.1299   -7.5162 H   0  0  0  0  0  0  0  0  0  0  0  0
   -0.9850   -6.2743   -8.7877 H   0  0  0  0  0  0  0  0  0  0  0  0
   -0.5412   -6.7103   -7.1201 H   0  0  0  0  0  0  0  0  0  0  0  0
   -1.4934   -5.2466   -7.4571 H   0  0  0  0  0  0  0  0  0  0  0  0
    1.5390   -6.8136   -8.9622 H   0  0  0  0  0  0  0  0  0  0  0  0
    0.9288    0.6014   -6.2189 H   0  0  0  0  0  0  0  0  0  0  0  0
   -0.7068    0.4228   -6.9394 H   0  0  0  0  0  0  0  0  0  0  0  0
   -1.2157    2.7857   -6.1985 H   0  0  0  0  0  0  0  0  0  0  0  0
    0.4264    2.9257   -5.5850 H   0  0  0  0  0  0  0  0  0  0  0  0
    0.1585    2.7109   -7.3277 H   0  0  0  0  0  0  0  0  0  0  0  0
    3.6752   -5.6713   -9.4053 H   0  0  0  0  0  0  0  0  0  0  0  0
    3.9733   -3.3006   -8.7400 H   0  0  0  0  0  0  0  0  0  0  0  0
  1 28  1  0  0  0  0
  2  1  1  0  0  0  0
  2 29  1  0  0  0  0
  3  1  1  0  0  0  0
  3 30  1  0  0  0  0
  4  8  1  0  0  0  0
  4  7  2  0  0  0  0
  5  3  1  0  0  0  0
  5 13  1  0  0  0  0
  6  3  1  0  0  0  0
  7 11  1  0  0  0  0
  8 12  2  0  0  0  0
  9  2  1  0  0  0  0
 10  4  1  0  0  0  0
 11  6  2  0  0  0  0
 11 31  1  0  0  0  0
 12  6  1  0  0  0  0
 12 32  1  0  0  0  0
 13  2  1  0  0  0  0
 13 33  1  0  0  0  0
 13 34  1  0  0  0  0
 14 10  1  0  0  0  0
 14 35  1  0  0  0  0
 14 36  1  0  0  0  0
 15  9  2  0  0  0  0
 16 14  1  0  0  0  0
 17 16  2  0  0  0  0
 18  7  1  0  0  0  0
 19  9  1  0  0  0  0
 19 37  1  0  0  0  0
 20  8  1  0  0  0  0
 21 16  1  0  0  0  0
 21 38  1  0  0  0  0
 22 17  1  0  0  0  0
 22 39  1  0  0  0  0
 22 40  1  0  0  0  0
 22 41  1  0  0  0  0
 23 17  1  0  0  0  0
 23 42  1  0  0  0  0
 24 20  1  0  0  0  0
 24 43  1  0  0  0  0
 24 44  1  0  0  0  0
 25 24  1  0  0  0  0
 25 45  1  0  0  0  0
 25 46  1  0  0  0  0
 25 47  1  0  0  0  0
 26 27  1  0  0  0  0
 26 23  2  0  0  0  0
 26 48  1  0  0  0  0
 27 21  2  0  0  0  0
 27 49  1  0  0  0  0
M  END
>  <Mol_ID>
8868

>  <Formula>
C20H22BrNO4S

>  <MolWeight>
452.36198

>  <Cat>
P2416

>  <Name>
WAY-325648

>  <Synonyms>
N/A

>  <Target>
Others

>  <Form>
free base

>  <CAS>
869354-55-2

>  <URL>
N/A

$$$$
