WAY-661054
 OpenBabel08302521443D

 47 51  0  0  0  0  0  0  0  0999 V2000
   -0.2418   -1.3050   -0.0147 N   0  0  0  0  0  0  0  0  0  0  0  0
    1.0191   -0.6794   -0.0736 C   0  0  0  0  0  0  0  0  0  0  0  0
    0.8354    0.6316   -0.1275 N   0  0  0  0  0  0  0  0  0  0  0  0
   -1.1458   -0.2484   -0.1084 C   0  0  0  0  0  0  0  0  0  0  0  0
   -0.5057    0.8959   -0.1704 N   0  0  0  0  0  0  0  0  0  0  0  0
    2.3570   -1.3140   -0.1050 C   0  0  0  0  0  0  0  0  0  0  0  0
   -2.8684   -0.3631    0.1322 S   0  0  0  0  0  0  0  0  0  0  0  0
    3.8259   -3.1233   -0.6532 C   0  0  0  0  0  0  0  0  0  0  0  0
    2.6004   -2.5085   -0.8049 C   0  0  0  0  0  0  0  0  0  0  0  0
   -0.5096   -2.7052    0.0953 C   0  0  0  0  0  0  0  0  0  0  0  0
    4.8413   -2.5509    0.0706 C   0  0  0  0  0  0  0  0  0  0  0  0
    4.1637   -4.3453   -1.1459 O   0  0  0  0  0  0  0  0  0  0  0  0
   -3.4749    0.9945   -2.2292 C   0  0  0  0  0  0  0  0  0  0  0  0
    5.9541   -3.3312    0.1115 O   0  0  0  0  0  0  0  0  0  0  0  0
    5.4979   -4.4909   -0.6166 C   0  0  0  0  0  0  0  0  0  0  0  0
   -3.4882    1.1314   -0.7137 C   0  0  0  0  0  0  0  0  0  0  0  0
    3.4271   -0.7079    0.5934 C   0  0  0  0  0  0  0  0  0  0  0  0
    4.6843   -1.3257    0.6804 C   0  0  0  0  0  0  0  0  0  0  0  0
   -3.2490   -0.0738   -2.7990 O   0  0  0  0  0  0  0  0  0  0  0  0
   -3.8147    2.1915   -3.0758 C   0  0  0  0  0  0  0  0  0  0  0  0
    0.3198   -3.5334    0.8704 C   0  0  0  0  0  0  0  0  0  0  0  0
   -1.5410   -3.2893   -0.6515 C   0  0  0  0  0  0  0  0  0  0  0  0
   -4.1327    3.4501   -2.5465 C   0  0  0  0  0  0  0  0  0  0  0  0
   -3.8254    2.0256   -4.4715 C   0  0  0  0  0  0  0  0  0  0  0  0
   -4.4429    4.5182   -3.4038 C   0  0  0  0  0  0  0  0  0  0  0  0
   -4.1364    3.0902   -5.3203 C   0  0  0  0  0  0  0  0  0  0  0  0
    0.1783   -4.9231    0.8254 C   0  0  0  0  0  0  0  0  0  0  0  0
   -1.7033   -4.6788   -0.6593 C   0  0  0  0  0  0  0  0  0  0  0  0
   -4.4401    4.3407   -4.7853 C   0  0  0  0  0  0  0  0  0  0  0  0
   -0.8314   -5.4952    0.0584 C   0  0  0  0  0  0  0  0  0  0  0  0
    1.8383   -2.9935   -1.4066 H   0  0  0  0  0  0  0  0  0  0  0  0
    6.1836   -4.6779   -1.4499 H   0  0  0  0  0  0  0  0  0  0  0  0
    5.5184   -5.3577    0.0563 H   0  0  0  0  0  0  0  0  0  0  0  0
   -4.5328    1.2555   -0.4049 H   0  0  0  0  0  0  0  0  0  0  0  0
   -2.9166    2.0048   -0.3924 H   0  0  0  0  0  0  0  0  0  0  0  0
    3.2758    0.2468    1.0951 H   0  0  0  0  0  0  0  0  0  0  0  0
    5.5002   -0.8665    1.2276 H   0  0  0  0  0  0  0  0  0  0  0  0
    1.1074   -3.1259    1.5004 H   0  0  0  0  0  0  0  0  0  0  0  0
   -2.1935   -2.7013   -1.2937 H   0  0  0  0  0  0  0  0  0  0  0  0
   -4.1502    3.6372   -1.4765 H   0  0  0  0  0  0  0  0  0  0  0  0
   -3.5896    1.0577   -4.9111 H   0  0  0  0  0  0  0  0  0  0  0  0
   -4.6818    5.4960   -2.9900 H   0  0  0  0  0  0  0  0  0  0  0  0
   -4.1363    2.9437   -6.3978 H   0  0  0  0  0  0  0  0  0  0  0  0
    0.8691   -5.5582    1.3757 H   0  0  0  0  0  0  0  0  0  0  0  0
   -2.4954   -5.1253   -1.2550 H   0  0  0  0  0  0  0  0  0  0  0  0
   -4.6800    5.1682   -5.4452 H   0  0  0  0  0  0  0  0  0  0  0  0
   -0.9368   -6.5763    0.0147 H   0  0  0  0  0  0  0  0  0  0  0  0
  2  1  1  0  0  0  0
  3  2  2  0  0  0  0
  4  1  1  0  0  0  0
  5  4  2  0  0  0  0
  5  3  1  0  0  0  0
  6  2  1  0  0  0  0
  7  4  1  0  0  0  0
  8  9  2  0  0  0  0
  9  6  1  0  0  0  0
  9 31  1  0  0  0  0
 10  1  1  0  0  0  0
 11 18  2  0  0  0  0
 11  8  1  0  0  0  0
 12  8  1  0  0  0  0
 13 16  1  0  0  0  0
 14 11  1  0  0  0  0
 14 15  1  0  0  0  0
 15 12  1  0  0  0  0
 15 32  1  0  0  0  0
 15 33  1  0  0  0  0
 16  7  1  0  0  0  0
 16 34  1  0  0  0  0
 16 35  1  0  0  0  0
 17  6  2  0  0  0  0
 17 36  1  0  0  0  0
 18 17  1  0  0  0  0
 18 37  1  0  0  0  0
 19 13  2  0  0  0  0
 20 13  1  0  0  0  0
 21 10  2  0  0  0  0
 21 38  1  0  0  0  0
 22 10  1  0  0  0  0
 22 39  1  0  0  0  0
 23 20  2  0  0  0  0
 23 40  1  0  0  0  0
 24 20  1  0  0  0  0
 24 41  1  0  0  0  0
 25 23  1  0  0  0  0
 25 42  1  0  0  0  0
 26 24  2  0  0  0  0
 26 43  1  0  0  0  0
 27 21  1  0  0  0  0
 27 30  2  0  0  0  0
 27 44  1  0  0  0  0
 28 22  2  0  0  0  0
 28 45  1  0  0  0  0
 29 26  1  0  0  0  0
 29 25  2  0  0  0  0
 29 46  1  0  0  0  0
 30 28  1  0  0  0  0
 30 47  1  0  0  0  0
M  END
>  <Mol_ID>
9127

>  <Formula>
C23H17N3O3S

>  <MolWeight>
415.46438

>  <Cat>
P3208

>  <Name>
WAY-661054

>  <Synonyms>
N/A

>  <Target>
Hsp90

>  <Form>
free base

>  <CAS>
872457-88-0

>  <URL>
N/A

$$$$
