WAY-385995
 OpenBabel08302521413D

 29 31  0  0  0  0  0  0  0  0999 V2000
    2.5127    0.6907   -0.0385 C   0  0  0  0  0  0  0  0  0  0  0  0
    2.4571   -0.6938    0.0347 C   0  0  0  0  0  0  0  0  0  0  0  0
    1.2166   -1.3362    0.0650 C   0  0  0  0  0  0  0  0  0  0  0  0
    0.0212   -0.6303    0.0220 C   0  0  0  0  0  0  0  0  0  0  0  0
    0.0672    0.7651   -0.0565 C   0  0  0  0  0  0  0  0  0  0  0  0
    1.3268    1.4203   -0.0873 C   0  0  0  0  0  0  0  0  0  0  0  0
   -1.1233   -1.3175    0.0523 N   0  0  0  0  0  0  0  0  0  0  0  0
   -2.2727   -0.6248   -0.0173 C   0  0  0  0  0  0  0  0  0  0  0  0
   -2.3511    0.7110   -0.1171 N   0  0  0  0  0  0  0  0  0  0  0  0
   -1.1879    1.3979   -0.1120 C   0  0  0  0  0  0  0  0  0  0  0  0
   -3.5327   -1.3888    0.0235 C   0  0  0  0  0  0  0  0  0  0  0  0
   -1.2532    2.8231   -0.2301 N   0  0  0  0  0  0  0  0  0  0  0  0
   -2.5537    3.3977   -0.2856 N   0  0  0  0  0  0  0  0  0  0  0  0
   -3.5396   -2.7875    0.1477 C   0  0  0  0  0  0  0  0  0  0  0  0
   -4.7484   -3.4651    0.1803 C   0  0  0  0  0  0  0  0  0  0  0  0
   -5.9496   -2.8595    0.1007 N   0  0  0  0  0  0  0  0  0  0  0  0
   -5.9395   -1.5169   -0.0148 C   0  0  0  0  0  0  0  0  0  0  0  0
   -4.7820   -0.7549   -0.0548 C   0  0  0  0  0  0  0  0  0  0  0  0
    3.4725    1.2003   -0.0657 H   0  0  0  0  0  0  0  0  0  0  0  0
    3.3725   -1.2795    0.0637 H   0  0  0  0  0  0  0  0  0  0  0  0
    1.1844   -2.4228    0.1172 H   0  0  0  0  0  0  0  0  0  0  0  0
    1.3870    2.5033   -0.1638 H   0  0  0  0  0  0  0  0  0  0  0  0
   -0.6662    3.2361    0.4989 H   0  0  0  0  0  0  0  0  0  0  0  0
   -2.6603    3.8928   -1.1732 H   0  0  0  0  0  0  0  0  0  0  0  0
   -3.2368    2.6290   -0.3395 H   0  0  0  0  0  0  0  0  0  0  0  0
   -2.6130   -3.3490    0.2181 H   0  0  0  0  0  0  0  0  0  0  0  0
   -4.7790   -4.5468    0.2747 H   0  0  0  0  0  0  0  0  0  0  0  0
   -6.9183   -1.0492   -0.0762 H   0  0  0  0  0  0  0  0  0  0  0  0
   -4.8590    0.3242   -0.1467 H   0  0  0  0  0  0  0  0  0  0  0  0
  1  2  2  0  0  0  0
  1  6  1  0  0  0  0
  1 19  1  0  0  0  0
  2  3  1  0  0  0  0
  2 20  1  0  0  0  0
  3  4  2  0  0  0  0
  3 21  1  0  0  0  0
  4  5  1  0  0  0  0
  4  7  1  0  0  0  0
  5  6  2  0  0  0  0
  5 10  1  0  0  0  0
  6 22  1  0  0  0  0
  7  8  2  0  0  0  0
  8  9  1  0  0  0  0
  8 11  1  0  0  0  0
  9 10  2  0  0  0  0
 10 12  1  0  0  0  0
 11 14  2  0  0  0  0
 11 18  1  0  0  0  0
 12 13  1  0  0  0  0
 12 23  1  0  0  0  0
 13 24  1  0  0  0  0
 13 25  1  0  0  0  0
 14 15  1  0  0  0  0
 14 26  1  0  0  0  0
 15 16  2  0  0  0  0
 15 27  1  0  0  0  0
 16 17  1  0  0  0  0
 17 18  2  0  0  0  0
 17 28  1  0  0  0  0
 18 29  1  0  0  0  0
M  END
>  <Mol_ID>
8448

>  <Formula>
C13H11N5

>  <MolWeight>
237.25994

>  <Cat>
P2813

>  <Name>
WAY-385995

>  <Synonyms>
N/A

>  <Target>
others

>  <Form>
free base

>  <CAS>
6484-31-7

>  <URL>
N/A

$$$$
