WAY-620521
 OpenBabel08302521433D

 39 42  0  0  0  0  0  0  0  0999 V2000
    0.1461   -0.1750   -0.6350 C   0  0  0  0  0  0  0  0  0  0  0  0
   -0.0137   -0.1916   -2.0404 C   0  0  0  0  0  0  0  0  0  0  0  0
    1.3665   -0.5942   -0.0754 C   0  0  0  0  0  0  0  0  0  0  0  0
   -0.9258    0.2470    0.1698 C   0  0  0  0  0  0  0  0  0  0  0  0
    1.0586   -0.6041   -2.8475 C   0  0  0  0  0  0  0  0  0  0  0  0
   -1.2429    0.1971   -2.5980 C   0  0  0  0  0  0  0  0  0  0  0  0
    2.4163   -1.0151   -0.8951 C   0  0  0  0  0  0  0  0  0  0  0  0
   -2.1422    0.6280   -0.4004 C   0  0  0  0  0  0  0  0  0  0  0  0
    2.2653   -1.0160   -2.2781 C   0  0  0  0  0  0  0  0  0  0  0  0
   -2.3022    0.5974   -1.7823 C   0  0  0  0  0  0  0  0  0  0  0  0
    3.6204   -1.5032   -0.3086 N   0  0  0  0  0  0  0  0  0  0  0  0
    3.7831   -3.1759   -0.0963 S   0  0  0  0  0  0  0  0  0  0  0  0
    4.5544   -3.7113   -1.6058 C   0  0  0  0  0  0  0  0  0  0  0  0
    4.7631   -3.3346    0.9619 O   0  0  0  0  0  0  0  0  0  0  0  0
    2.4810   -3.7959    0.0046 O   0  0  0  0  0  0  0  0  0  0  0  0
    3.7607   -4.1638   -2.6653 C   0  0  0  0  0  0  0  0  0  0  0  0
    5.9508   -3.7645   -1.6909 C   0  0  0  0  0  0  0  0  0  0  0  0
    4.3722   -4.6289   -3.8285 C   0  0  0  0  0  0  0  0  0  0  0  0
    6.5559   -4.2332   -2.8588 C   0  0  0  0  0  0  0  0  0  0  0  0
    5.7682   -4.6461   -3.9332 C   0  0  0  0  0  0  0  0  0  0  0  0
    3.5409   -5.0477   -4.8353 O   0  0  0  0  0  0  0  0  0  0  0  0
    6.4332   -5.0715   -5.0533 O   0  0  0  0  0  0  0  0  0  0  0  0
    4.2485   -5.8137   -5.8179 C   0  0  0  0  0  0  0  0  0  0  0  0
    5.5604   -5.1411   -6.1870 C   0  0  0  0  0  0  0  0  0  0  0  0
    1.4854   -0.6090    1.0042 H   0  0  0  0  0  0  0  0  0  0  0  0
   -0.8241    0.2747    1.2526 H   0  0  0  0  0  0  0  0  0  0  0  0
    0.9588   -0.6148   -3.9306 H   0  0  0  0  0  0  0  0  0  0  0  0
   -1.3883    0.1799   -3.6759 H   0  0  0  0  0  0  0  0  0  0  0  0
   -2.9662    0.9409    0.2357 H   0  0  0  0  0  0  0  0  0  0  0  0
    3.0809   -1.3238   -2.9249 H   0  0  0  0  0  0  0  0  0  0  0  0
   -3.2529    0.8817   -2.2265 H   0  0  0  0  0  0  0  0  0  0  0  0
    3.9471   -1.0217    0.5297 H   0  0  0  0  0  0  0  0  0  0  0  0
    2.6758   -4.1650   -2.5880 H   0  0  0  0  0  0  0  0  0  0  0  0
    6.5725   -3.4516   -0.8540 H   0  0  0  0  0  0  0  0  0  0  0  0
    7.6393   -4.2748   -2.9340 H   0  0  0  0  0  0  0  0  0  0  0  0
    3.6057   -5.8944   -6.7004 H   0  0  0  0  0  0  0  0  0  0  0  0
    4.4123   -6.8229   -5.4213 H   0  0  0  0  0  0  0  0  0  0  0  0
    6.0731   -5.7148   -6.9656 H   0  0  0  0  0  0  0  0  0  0  0  0
    5.3985   -4.1236   -6.5636 H   0  0  0  0  0  0  0  0  0  0  0  0
  1  2  1  0  0  0  0
  1  3  2  0  0  0  0
  1  4  1  0  0  0  0
  2  5  2  0  0  0  0
  2  6  1  0  0  0  0
  3  7  1  0  0  0  0
  3 25  1  0  0  0  0
  4  8  2  0  0  0  0
  4 26  1  0  0  0  0
  5  9  1  0  0  0  0
  5 27  1  0  0  0  0
  6 10  2  0  0  0  0
  6 28  1  0  0  0  0
  7 11  1  0  0  0  0
  7  9  2  0  0  0  0
  8 10  1  0  0  0  0
  8 29  1  0  0  0  0
  9 30  1  0  0  0  0
 10 31  1  0  0  0  0
 11 12  1  0  0  0  0
 11 32  1  0  0  0  0
 12 13  1  0  0  0  0
 12 14  2  0  0  0  0
 12 15  2  0  0  0  0
 13 16  2  0  0  0  0
 13 17  1  0  0  0  0
 16 18  1  0  0  0  0
 16 33  1  0  0  0  0
 17 19  2  0  0  0  0
 17 34  1  0  0  0  0
 18 20  2  0  0  0  0
 18 21  1  0  0  0  0
 19 20  1  0  0  0  0
 19 35  1  0  0  0  0
 20 22  1  0  0  0  0
 21 23  1  0  0  0  0
 22 24  1  0  0  0  0
 23 24  1  0  0  0  0
 23 36  1  0  0  0  0
 23 37  1  0  0  0  0
 24 38  1  0  0  0  0
 24 39  1  0  0  0  0
M  END
>  <Mol_ID>
8778

>  <Formula>
C18H15NO4S

>  <MolWeight>
341.381

>  <Cat>
P2949

>  <Name>
WAY-620521

>  <Synonyms>
N/A

>  <Target>
urea transporter UT-B

>  <Form>
free base

>  <CAS>
315693-33-5

>  <URL>
N/A

$$$$
