WAY-638944
 OpenBabel08302521433D

 32 34  0  0  0  0  0  0  0  0999 V2000
   -1.4241    0.0759    0.0955 N   0  0  0  0  0  0  0  0  0  0  0  0
   -2.5516    0.1389    0.8837 C   0  0  0  0  0  0  0  0  0  0  0  0
   -0.7942   -1.2187   -0.2004 C   0  0  0  0  0  0  0  0  0  0  0  0
   -0.6550    1.2802   -0.2672 C   0  0  0  0  0  0  0  0  0  0  0  0
   -3.4871    1.1788    0.7612 C   0  0  0  0  0  0  0  0  0  0  0  0
   -2.7862   -0.8395    1.7829 N   0  0  0  0  0  0  0  0  0  0  0  0
    0.6788   -1.2815    0.2546 C   0  0  0  0  0  0  0  0  0  0  0  0
    0.8064    1.1924    0.2304 C   0  0  0  0  0  0  0  0  0  0  0  0
   -4.6242    1.2918    1.4971 N   0  0  0  0  0  0  0  0  0  0  0  0
   -3.9113   -0.7343    2.5316 C   0  0  0  0  0  0  0  0  0  0  0  0
    1.4044   -0.0798   -0.1604 N   0  0  0  0  0  0  0  0  0  0  0  0
   -4.8134    0.3035    2.3890 C   0  0  0  0  0  0  0  0  0  0  0  0
    2.5233   -0.1389   -0.9462 C   0  0  0  0  0  0  0  0  0  0  0  0
    2.9644   -1.3371   -1.3657 N   0  0  0  0  0  0  0  0  0  0  0  0
    3.1497    1.0062   -1.2665 N   0  0  0  0  0  0  0  0  0  0  0  0
    4.0798   -1.3694   -2.1208 C   0  0  0  0  0  0  0  0  0  0  0  0
    4.2658    0.9269   -2.0184 C   0  0  0  0  0  0  0  0  0  0  0  0
    4.7848   -0.2522   -2.4807 C   0  0  0  0  0  0  0  0  0  0  0  0
   -1.3401   -2.0657    0.2287 H   0  0  0  0  0  0  0  0  0  0  0  0
   -0.8303   -1.3538   -1.2893 H   0  0  0  0  0  0  0  0  0  0  0  0
   -0.6684    1.3781   -1.3576 H   0  0  0  0  0  0  0  0  0  0  0  0
   -1.0941    2.1951    0.1486 H   0  0  0  0  0  0  0  0  0  0  0  0
   -3.3619    1.9566    0.0160 H   0  0  0  0  0  0  0  0  0  0  0  0
    0.7171   -1.3470    1.3495 H   0  0  0  0  0  0  0  0  0  0  0  0
    1.1187   -2.2092   -0.1275 H   0  0  0  0  0  0  0  0  0  0  0  0
    0.8222    1.2592    1.3258 H   0  0  0  0  0  0  0  0  0  0  0  0
    1.3503    2.0676   -0.1417 H   0  0  0  0  0  0  0  0  0  0  0  0
   -4.0700   -1.5219    3.2592 H   0  0  0  0  0  0  0  0  0  0  0  0
   -5.7095    0.3669    2.9930 H   0  0  0  0  0  0  0  0  0  0  0  0
    4.3960   -2.3603   -2.4325 H   0  0  0  0  0  0  0  0  0  0  0  0
    4.7419    1.8774   -2.2383 H   0  0  0  0  0  0  0  0  0  0  0  0
    5.6801   -0.2979   -3.0826 H   0  0  0  0  0  0  0  0  0  0  0  0
  1  2  1  0  0  0  0
  1  3  1  0  0  0  0
  1  4  1  0  0  0  0
  2  5  2  0  0  0  0
  2  6  1  0  0  0  0
  3  7  1  0  0  0  0
  3 19  1  0  0  0  0
  3 20  1  0  0  0  0
  4  8  1  0  0  0  0
  4 21  1  0  0  0  0
  4 22  1  0  0  0  0
  5  9  1  0  0  0  0
  5 23  1  0  0  0  0
  6 10  2  0  0  0  0
  7 11  1  0  0  0  0
  7 24  1  0  0  0  0
  7 25  1  0  0  0  0
  8 11  1  0  0  0  0
  8 26  1  0  0  0  0
  8 27  1  0  0  0  0
  9 12  2  0  0  0  0
 10 12  1  0  0  0  0
 10 28  1  0  0  0  0
 11 13  1  0  0  0  0
 12 29  1  0  0  0  0
 13 14  2  0  0  0  0
 13 15  1  0  0  0  0
 14 16  1  0  0  0  0
 15 17  2  0  0  0  0
 16 18  2  0  0  0  0
 16 30  1  0  0  0  0
 17 18  1  0  0  0  0
 17 31  1  0  0  0  0
 18 32  1  0  0  0  0
M  END
>  <Mol_ID>
8798

>  <Formula>
C12H14N6

>  <MolWeight>
242.27976

>  <Cat>
P3062

>  <Name>
WAY-638944

>  <Synonyms>
N/A

>  <Target>
Others

>  <Form>
free base

>  <CAS>
137448-39-6

>  <URL>
N/A

$$$$
