WAY-331987
 OpenBabel08302521453D

 54 57  0  0  0  0  0  0  0  0999 V2000
    0.8390    0.7523   -7.0622 C   0  0  0  0  0  0  0  0  0  0  0  0
    1.2788    1.7982   -6.3879 N   0  0  0  0  0  0  0  0  0  0  0  0
    0.1512    2.5559   -6.1330 C   0  0  0  0  0  0  0  0  0  0  0  0
   -0.5233    0.7465   -7.2265 O   0  0  0  0  0  0  0  0  0  0  0  0
    1.5628   -0.3682   -7.6567 C   0  0  0  0  0  0  0  0  0  0  0  0
   -0.9524    1.8997   -6.6366 C   0  0  0  0  0  0  0  0  0  0  0  0
    2.5626    1.8255   -2.7934 N   0  0  0  0  0  0  0  0  0  0  0  0
    4.5105   -0.2207   -2.3250 N   0  0  0  0  0  0  0  0  0  0  0  0
    1.6798    2.8938   -2.8056 C   0  0  0  0  0  0  0  0  0  0  0  0
    5.4422   -1.2364   -2.1785 C   0  0  0  0  0  0  0  0  0  0  0  0
    2.9551   -0.4602   -7.5607 C   0  0  0  0  0  0  0  0  0  0  0  0
    2.1969    0.4090   -2.9137 C   0  0  0  0  0  0  0  0  0  0  0  0
    3.9868    2.0967   -3.0153 C   0  0  0  0  0  0  0  0  0  0  0  0
    3.0908   -0.4899   -2.0396 C   0  0  0  0  0  0  0  0  0  0  0  0
    4.9058    1.1924   -2.1765 C   0  0  0  0  0  0  0  0  0  0  0  0
    2.0829    4.0531   -2.6769 O   0  0  0  0  0  0  0  0  0  0  0  0
    6.6846   -1.0431   -1.5516 C   0  0  0  0  0  0  0  0  0  0  0  0
    5.2047   -2.4990   -2.7507 C   0  0  0  0  0  0  0  0  0  0  0  0
   -0.7013    3.8903   -3.8613 S   0  0  0  0  0  0  0  0  0  0  0  0
    0.2455    3.8623   -5.4246 C   0  0  0  0  0  0  0  0  0  0  0  0
    7.3954   -3.2668   -2.1341 C   0  0  0  0  0  0  0  0  0  0  0  0
    3.6619    0.4687   -6.9020 F   0  0  0  0  0  0  0  0  0  0  0  0
    0.1929    2.5835   -2.9539 C   0  0  0  0  0  0  0  0  0  0  0  0
    6.1707   -3.5080   -2.7340 C   0  0  0  0  0  0  0  0  0  0  0  0
    7.6585   -2.0472   -1.5307 C   0  0  0  0  0  0  0  0  0  0  0  0
    8.3375   -4.2182   -2.1462 F   0  0  0  0  0  0  0  0  0  0  0  0
    0.8846   -1.3829   -8.3593 C   0  0  0  0  0  0  0  0  0  0  0  0
   -2.4024    2.1517   -6.6625 C   0  0  0  0  0  0  0  0  0  0  0  0
    3.6534   -1.5150   -8.1445 C   0  0  0  0  0  0  0  0  0  0  0  0
    1.5818   -2.4431   -8.9478 C   0  0  0  0  0  0  0  0  0  0  0  0
    2.9699   -2.5063   -8.8459 C   0  0  0  0  0  0  0  0  0  0  0  0
    1.1599    0.2429   -2.6211 H   0  0  0  0  0  0  0  0  0  0  0  0
    2.3018    0.1380   -3.9711 H   0  0  0  0  0  0  0  0  0  0  0  0
    4.1697    1.9140   -4.0824 H   0  0  0  0  0  0  0  0  0  0  0  0
    4.2298    3.1461   -2.8232 H   0  0  0  0  0  0  0  0  0  0  0  0
    2.8907   -0.2815   -0.9803 H   0  0  0  0  0  0  0  0  0  0  0  0
    2.8029   -1.5306   -2.2172 H   0  0  0  0  0  0  0  0  0  0  0  0
    4.8577    1.4837   -1.1201 H   0  0  0  0  0  0  0  0  0  0  0  0
    5.9293    1.3559   -2.5333 H   0  0  0  0  0  0  0  0  0  0  0  0
    6.9198   -0.1011   -1.0639 H   0  0  0  0  0  0  0  0  0  0  0  0
    4.2758   -2.6944   -3.2792 H   0  0  0  0  0  0  0  0  0  0  0  0
    1.2904    4.1246   -5.2319 H   0  0  0  0  0  0  0  0  0  0  0  0
   -0.1587    4.6492   -6.0697 H   0  0  0  0  0  0  0  0  0  0  0  0
   -0.2386    2.4846   -1.9533 H   0  0  0  0  0  0  0  0  0  0  0  0
    0.0138    1.6565   -3.4981 H   0  0  0  0  0  0  0  0  0  0  0  0
    5.9781   -4.4639   -3.2082 H   0  0  0  0  0  0  0  0  0  0  0  0
    8.6198   -1.8751   -1.0583 H   0  0  0  0  0  0  0  0  0  0  0  0
   -0.1992   -1.3528   -8.4634 H   0  0  0  0  0  0  0  0  0  0  0  0
   -2.7853    2.0814   -7.6847 H   0  0  0  0  0  0  0  0  0  0  0  0
   -2.9245    1.4109   -6.0483 H   0  0  0  0  0  0  0  0  0  0  0  0
   -2.6460    3.1461   -6.2789 H   0  0  0  0  0  0  0  0  0  0  0  0
    4.7380   -1.5488   -8.0609 H   0  0  0  0  0  0  0  0  0  0  0  0
    1.0397   -3.2139   -9.4905 H   0  0  0  0  0  0  0  0  0  0  0  0
    3.5147   -3.3278   -9.3051 H   0  0  0  0  0  0  0  0  0  0  0  0
  2  1  2  0  0  0  0
  3  2  1  0  0  0  0
  4  1  1  0  0  0  0
  5  1  1  0  0  0  0
  6  4  1  0  0  0  0
  6  3  2  0  0  0  0
  7  9  1  0  0  0  0
  8 15  1  0  0  0  0
  9 23  1  0  0  0  0
 10  8  1  0  0  0  0
 11  5  2  0  0  0  0
 12  7  1  0  0  0  0
 12 32  1  0  0  0  0
 12 33  1  0  0  0  0
 13  7  1  0  0  0  0
 13 34  1  0  0  0  0
 13 35  1  0  0  0  0
 14 12  1  0  0  0  0
 14  8  1  0  0  0  0
 14 36  1  0  0  0  0
 14 37  1  0  0  0  0
 15 13  1  0  0  0  0
 15 38  1  0  0  0  0
 15 39  1  0  0  0  0
 16  9  2  0  0  0  0
 17 10  2  0  0  0  0
 17 40  1  0  0  0  0
 18 10  1  0  0  0  0
 18 41  1  0  0  0  0
 19 20  1  0  0  0  0
 20  3  1  0  0  0  0
 20 42  1  0  0  0  0
 20 43  1  0  0  0  0
 21 24  1  0  0  0  0
 21 25  2  0  0  0  0
 22 11  1  0  0  0  0
 23 19  1  0  0  0  0
 23 44  1  0  0  0  0
 23 45  1  0  0  0  0
 24 18  2  0  0  0  0
 24 46  1  0  0  0  0
 25 17  1  0  0  0  0
 25 47  1  0  0  0  0
 26 21  1  0  0  0  0
 27  5  1  0  0  0  0
 27 48  1  0  0  0  0
 28  6  1  0  0  0  0
 28 49  1  0  0  0  0
 28 50  1  0  0  0  0
 28 51  1  0  0  0  0
 29 11  1  0  0  0  0
 29 31  2  0  0  0  0
 29 52  1  0  0  0  0
 30 27  2  0  0  0  0
 30 53  1  0  0  0  0
 31 30  1  0  0  0  0
 31 54  1  0  0  0  0
M  END
>  <Mol_ID>
9288

>  <Formula>
C23H23F2N3O2S

>  <MolWeight>
443.5094264

>  <Cat>
P2646

>  <Name>
WAY-331987

>  <Synonyms>
N/A

>  <Target>
beta-catenin

>  <Form>
free base

>  <CAS>
902585-93-7

>  <URL>
N/A

$$$$
