WAY-299941
 OpenBabel08302521413D

 31 33  0  0  0  0  0  0  0  0999 V2000
    0.8811   -1.1744   -0.0324 C   0  0  0  0  0  0  0  0  0  0  0  0
    0.1096   -2.4109   -0.1800 C   0  0  0  0  0  0  0  0  0  0  0  0
    0.4331    0.0771   -0.5006 C   0  0  0  0  0  0  0  0  0  0  0  0
    2.1609   -1.2339    0.5615 C   0  0  0  0  0  0  0  0  0  0  0  0
    0.2587   -3.3380    0.8083 O   0  0  0  0  0  0  0  0  0  0  0  0
   -0.7389   -2.9140   -1.1410 C   0  0  0  0  0  0  0  0  0  0  0  0
    1.2579    1.2088   -0.4422 C   0  0  0  0  0  0  0  0  0  0  0  0
   -1.3190    0.3826   -1.1850 Br  0  0  0  0  0  0  0  0  0  0  0  0
    2.9867   -0.1052    0.6372 C   0  0  0  0  0  0  0  0  0  0  0  0
   -0.4982   -4.4501    0.5016 C   0  0  0  0  0  0  0  0  0  0  0  0
   -1.1654   -4.1807   -0.6843 C   0  0  0  0  0  0  0  0  0  0  0  0
    2.5350    1.1101    0.1140 C   0  0  0  0  0  0  0  0  0  0  0  0
   -0.5594   -5.6373    1.2802 C   0  0  0  0  0  0  0  0  0  0  0  0
    3.4037    2.2949    0.1426 N   0  3  0  0  0  0  0  0  0  0  0  0
    0.4383   -6.0809    2.0546 C   0  0  0  0  0  0  0  0  0  0  0  0
    2.9627    3.3420   -0.3564 O   0  0  0  0  0  0  0  0  0  0  0  0
    4.5245    2.1745    0.6522 O   0  5  0  0  0  0  0  0  0  0  0  0
    1.9997   -5.3947    2.3327 S   0  0  0  0  0  0  0  0  0  0  0  0
    0.3203   -7.3606    2.8064 C   0  0  0  0  0  0  0  0  0  0  0  0
    2.4367   -6.6645    3.4225 C   0  0  0  0  0  0  0  0  0  0  0  0
    1.4563   -7.5861    3.5312 N   0  0  0  0  0  0  0  0  0  0  0  0
   -0.6435   -8.1108    2.7805 O   0  0  0  0  0  0  0  0  0  0  0  0
    3.5530   -6.7167    4.0451 N   0  0  0  0  0  0  0  0  0  0  0  0
    2.5360   -2.1783    0.9581 H   0  0  0  0  0  0  0  0  0  0  0  0
   -1.0196   -2.4356   -2.0666 H   0  0  0  0  0  0  0  0  0  0  0  0
    0.8961    2.1591   -0.8302 H   0  0  0  0  0  0  0  0  0  0  0  0
    3.9729   -0.1958    1.0905 H   0  0  0  0  0  0  0  0  0  0  0  0
   -1.8473   -4.8511   -1.1890 H   0  0  0  0  0  0  0  0  0  0  0  0
   -1.4661   -6.2347    1.1964 H   0  0  0  0  0  0  0  0  0  0  0  0
    1.5276   -8.4121    4.1000 H   0  0  0  0  0  0  0  0  0  0  0  0
    3.5952   -7.5448    4.6407 H   0  0  0  0  0  0  0  0  0  0  0  0
  1  2  1  0  0  0  0
  1  3  2  0  0  0  0
  1  4  1  0  0  0  0
  2  5  1  0  0  0  0
  2  6  2  0  0  0  0
  3  7  1  0  0  0  0
  3  8  1  0  0  0  0
  4  9  2  0  0  0  0
  4 24  1  0  0  0  0
  5 10  1  0  0  0  0
  6 11  1  0  0  0  0
  6 25  1  0  0  0  0
  7 12  2  0  0  0  0
  7 26  1  0  0  0  0
  9 12  1  0  0  0  0
  9 27  1  0  0  0  0
 10 13  1  0  0  0  0
 10 11  2  0  0  0  0
 11 28  1  0  0  0  0
 12 14  1  0  0  0  0
 13 15  2  0  0  0  0
 13 29  1  0  0  0  0
 14 16  2  0  0  0  0
 14 17  1  0  0  0  0
 15 18  1  0  0  0  0
 15 19  1  0  0  0  0
 18 20  1  0  0  0  0
 19 21  1  0  0  0  0
 19 22  2  0  0  0  0
 20 23  2  0  0  0  0
 20 21  1  0  0  0  0
 21 30  1  0  0  0  0
 23 31  1  0  0  0  0
M  CHG  2  14   1  17  -1
M  END
>  <Mol_ID>
8400

>  <Formula>
C14H8BrN3O4S

>  <MolWeight>
394.20002

>  <Cat>
P2126

>  <Name>
WAY-299941

>  <Synonyms>
N/A

>  <Target>
diaminopimelate aminotransferase

>  <Form>
free base

>  <CAS>
344945-14-8

>  <URL>
N/A

$$$$
