WAY-301314
 OpenBabel08302521413D

 43 45  0  0  0  0  0  0  0  0999 V2000
    0.6556   -1.6010   -0.5929 C   0  0  3  0  0  0  0  0  0  0  0  0
   -0.2690   -0.4211   -0.3009 C   0  0  0  0  0  0  0  0  0  0  0  0
    2.1102   -1.2977   -0.1788 C   0  0  0  0  0  0  0  0  0  0  0  0
    0.5464   -1.9790   -2.0828 C   0  0  0  0  0  0  0  0  0  0  0  0
    0.2203    0.8260   -0.1567 C   0  0  0  0  0  0  0  0  0  0  0  0
   -1.7200   -0.6621   -0.0918 C   0  0  0  0  0  0  0  0  0  0  0  0
    2.5160   -0.0067   -0.0440 C   0  0  0  0  0  0  0  0  0  0  0  0
    2.9292   -2.5192    0.0846 C   0  0  0  0  0  0  0  0  0  0  0  0
   -0.3839   -2.9337   -2.4980 C   0  0  0  0  0  0  0  0  0  0  0  0
    1.2937   -1.2795   -2.9827 N   0  0  0  0  0  0  0  0  0  0  0  0
    1.5862    1.0229   -0.1697 N   0  0  0  0  0  0  0  0  0  0  0  0
   -0.6436    2.0463    0.0349 C   0  0  0  0  0  0  0  0  0  0  0  0
   -2.5974    0.5053    0.3022 C   0  0  0  0  0  0  0  0  0  0  0  0
   -2.1741   -1.8068   -0.1357 O   0  0  0  0  0  0  0  0  0  0  0  0
    3.9140    0.4824    0.2430 C   0  0  0  0  0  0  0  0  0  0  0  0
    3.9489   -2.2420    0.9354 O   0  0  0  0  0  0  0  0  0  0  0  0
    2.6388   -3.6364   -0.3145 O   0  0  0  0  0  0  0  0  0  0  0  0
   -0.5545   -3.1786   -3.8598 C   0  0  0  0  0  0  0  0  0  0  0  0
    1.1161   -1.5458   -4.2966 C   0  0  0  0  0  0  0  0  0  0  0  0
   -2.1023    1.7940   -0.3291 C   0  0  0  0  0  0  0  0  0  0  0  0
    4.7953   -3.3191    1.3666 C   0  0  0  0  0  0  0  0  0  0  0  0
    0.2107   -2.4703   -4.7787 C   0  0  0  0  0  0  0  0  0  0  0  0
    5.8980   -3.5966    0.3596 C   0  0  0  0  0  0  0  0  0  0  0  0
    0.3180   -2.4516    0.0169 H   0  0  0  0  0  0  0  0  0  0  0  0
   -0.9924   -3.4640   -1.7701 H   0  0  0  0  0  0  0  0  0  0  0  0
    1.9228    1.9686   -0.0097 H   0  0  0  0  0  0  0  0  0  0  0  0
   -0.5708    2.3711    1.0801 H   0  0  0  0  0  0  0  0  0  0  0  0
   -0.2699    2.8704   -0.5861 H   0  0  0  0  0  0  0  0  0  0  0  0
   -2.5959    0.5814    1.3956 H   0  0  0  0  0  0  0  0  0  0  0  0
   -3.6231    0.3084   -0.0284 H   0  0  0  0  0  0  0  0  0  0  0  0
    4.1910    1.2498   -0.4888 H   0  0  0  0  0  0  0  0  0  0  0  0
    3.9508    0.9376    1.2391 H   0  0  0  0  0  0  0  0  0  0  0  0
    4.6922   -0.2768    0.1792 H   0  0  0  0  0  0  0  0  0  0  0  0
   -1.2885   -3.9045   -4.1985 H   0  0  0  0  0  0  0  0  0  0  0  0
    1.7423   -0.9721   -4.9730 H   0  0  0  0  0  0  0  0  0  0  0  0
   -2.7196    2.6384   -0.0013 H   0  0  0  0  0  0  0  0  0  0  0  0
   -2.2015    1.7292   -1.4205 H   0  0  0  0  0  0  0  0  0  0  0  0
    5.2504   -2.9833    2.3048 H   0  0  0  0  0  0  0  0  0  0  0  0
    4.2148   -4.2195    1.5939 H   0  0  0  0  0  0  0  0  0  0  0  0
    0.1018   -2.6386   -5.8466 H   0  0  0  0  0  0  0  0  0  0  0  0
    6.2210   -2.6837   -0.1502 H   0  0  0  0  0  0  0  0  0  0  0  0
    6.7634   -4.0513    0.8539 H   0  0  0  0  0  0  0  0  0  0  0  0
    5.5503   -4.2970   -0.4063 H   0  0  0  0  0  0  0  0  0  0  0  0
  1  2  1  0  0  0  0
  1  3  1  0  0  0  0
  1  4  1  0  0  0  0
  1 24  1  0  0  0  0
  2  5  2  0  0  0  0
  2  6  1  0  0  0  0
  3  7  2  0  0  0  0
  3  8  1  0  0  0  0
  4  9  2  0  0  0  0
  4 10  1  0  0  0  0
  5 11  1  0  0  0  0
  5 12  1  0  0  0  0
  6 13  1  0  0  0  0
  6 14  2  0  0  0  0
  7 15  1  0  0  0  0
  7 11  1  0  0  0  0
  8 16  1  0  0  0  0
  8 17  2  0  0  0  0
  9 18  1  0  0  0  0
  9 25  1  0  0  0  0
 10 19  2  0  0  0  0
 11 26  1  0  0  0  0
 12 20  1  0  0  0  0
 12 27  1  0  0  0  0
 12 28  1  0  0  0  0
 13 20  1  0  0  0  0
 13 29  1  0  0  0  0
 13 30  1  0  0  0  0
 15 31  1  0  0  0  0
 15 32  1  0  0  0  0
 15 33  1  0  0  0  0
 16 21  1  0  0  0  0
 18 22  2  0  0  0  0
 18 34  1  0  0  0  0
 19 22  1  0  0  0  0
 19 35  1  0  0  0  0
 20 36  1  0  0  0  0
 20 37  1  0  0  0  0
 21 23  1  0  0  0  0
 21 38  1  0  0  0  0
 21 39  1  0  0  0  0
 22 40  1  0  0  0  0
 23 41  1  0  0  0  0
 23 42  1  0  0  0  0
 23 43  1  0  0  0  0
M  END
>  <Mol_ID>
8433

>  <Formula>
C18H20N2O3

>  <MolWeight>
312.363

>  <Cat>
P2166

>  <Name>
WAY-301314

>  <Synonyms>
N/A

>  <Target>
others

>  <Form>
free base

>  <CAS>
33323-30-7

>  <URL>
N/A

$$$$
