WAY-638592
 OpenBabel08302521433D

 44 47  0  0  0  0  0  0  0  0999 V2000
    0.2559   -0.7609   -0.0399 C   0  0  0  0  0  0  0  0  0  0  0  0
    2.3822    0.0630    0.0816 N   0  0  0  0  0  0  0  0  0  0  0  0
    0.1681    0.6191    0.0681 C   0  0  0  0  0  0  0  0  0  0  0  0
    1.4629    1.0621    0.0775 N   0  0  0  0  0  0  0  0  0  0  0  0
    1.6502   -1.0638    0.0001 C   0  0  0  0  0  0  0  0  0  0  0  0
   -0.9608    1.3613    0.1090 N   0  0  0  0  0  0  0  0  0  0  0  0
   -0.9407   -1.4816   -0.1664 C   0  0  0  0  0  0  0  0  0  0  0  0
   -2.1388   -0.7765   -0.0599 C   0  0  0  0  0  0  0  0  0  0  0  0
   -3.4308   -1.4929   -0.0799 C   0  0  0  0  0  0  0  0  0  0  0  0
   -3.5843   -2.8219    0.5788 C   0  0  0  0  0  0  0  0  0  0  0  0
   -2.0948    0.6091    0.0500 C   0  0  0  0  0  0  0  0  0  0  0  0
    2.2689   -2.3927   -0.0559 C   0  0  0  0  0  0  0  0  0  0  0  0
   -4.4862   -3.7585    0.0586 C   0  0  0  0  0  0  0  0  0  0  0  0
   -4.3823   -1.0072   -0.6861 O   0  0  0  0  0  0  0  0  0  0  0  0
    1.9129    2.4399   -0.0123 C   0  0  0  0  0  0  0  0  0  0  0  0
   -5.2690   -3.5094   -1.0359 O   0  0  0  0  0  0  0  0  0  0  0  0
   -2.8415   -3.1528    1.7241 C   0  0  0  0  0  0  0  0  0  0  0  0
    4.0438    2.1784    1.1641 O   0  0  0  0  0  0  0  0  0  0  0  0
    2.7863    2.8522    1.1671 C   0  0  0  0  0  0  0  0  0  0  0  0
   -4.6157   -5.0176    0.6438 C   0  0  0  0  0  0  0  0  0  0  0  0
    1.6294   -3.5137    0.4983 C   0  0  0  0  0  0  0  0  0  0  0  0
    3.4995   -2.5750   -0.6999 C   0  0  0  0  0  0  0  0  0  0  0  0
   -2.9675   -4.4178    2.3050 C   0  0  0  0  0  0  0  0  0  0  0  0
    4.0542   -3.8517   -0.8199 C   0  0  0  0  0  0  0  0  0  0  0  0
    2.1761   -4.7916    0.3641 C   0  0  0  0  0  0  0  0  0  0  0  0
   -3.8524   -5.3482    1.7641 C   0  0  0  0  0  0  0  0  0  0  0  0
    3.3875   -4.9602   -0.2994 C   0  0  0  0  0  0  0  0  0  0  0  0
   -0.9285   -2.5529   -0.3335 H   0  0  0  0  0  0  0  0  0  0  0  0
   -3.0176    1.1853    0.1041 H   0  0  0  0  0  0  0  0  0  0  0  0
    2.4679    2.5178   -0.9542 H   0  0  0  0  0  0  0  0  0  0  0  0
    1.0321    3.0865   -0.0708 H   0  0  0  0  0  0  0  0  0  0  0  0
   -5.2158   -2.5483   -1.2339 H   0  0  0  0  0  0  0  0  0  0  0  0
   -2.1581   -2.4426    2.1810 H   0  0  0  0  0  0  0  0  0  0  0  0
    3.8562    1.2276    1.0033 H   0  0  0  0  0  0  0  0  0  0  0  0
    3.0017    3.9239    1.1029 H   0  0  0  0  0  0  0  0  0  0  0  0
    2.2924    2.6617    2.1249 H   0  0  0  0  0  0  0  0  0  0  0  0
   -5.3165   -5.7381    0.2297 H   0  0  0  0  0  0  0  0  0  0  0  0
    0.6982   -3.4144    1.0484 H   0  0  0  0  0  0  0  0  0  0  0  0
    4.0264   -1.7234   -1.1254 H   0  0  0  0  0  0  0  0  0  0  0  0
   -2.3792   -4.6750    3.1831 H   0  0  0  0  0  0  0  0  0  0  0  0
    5.0069   -3.9824   -1.3284 H   0  0  0  0  0  0  0  0  0  0  0  0
    1.6557   -5.6522    0.7770 H   0  0  0  0  0  0  0  0  0  0  0  0
   -3.9586   -6.3292    2.2216 H   0  0  0  0  0  0  0  0  0  0  0  0
    3.8148   -5.9541   -0.4057 H   0  0  0  0  0  0  0  0  0  0  0  0
  2  5  2  0  0  0  0
  2  4  1  0  0  0  0
  3  1  2  0  0  0  0
  4  3  1  0  0  0  0
  5  1  1  0  0  0  0
  6  3  1  0  0  0  0
  7  1  1  0  0  0  0
  7 28  1  0  0  0  0
  8  7  2  0  0  0  0
  9  8  1  0  0  0  0
 10  9  1  0  0  0  0
 11  8  1  0  0  0  0
 11  6  2  0  0  0  0
 11 29  1  0  0  0  0
 12  5  1  0  0  0  0
 13 10  2  0  0  0  0
 14  9  2  0  0  0  0
 15  4  1  0  0  0  0
 15 30  1  0  0  0  0
 15 31  1  0  0  0  0
 16 13  1  0  0  0  0
 16 32  1  0  0  0  0
 17 10  1  0  0  0  0
 17 33  1  0  0  0  0
 18 19  1  0  0  0  0
 18 34  1  0  0  0  0
 19 15  1  0  0  0  0
 19 35  1  0  0  0  0
 19 36  1  0  0  0  0
 20 13  1  0  0  0  0
 20 37  1  0  0  0  0
 21 12  2  0  0  0  0
 21 38  1  0  0  0  0
 22 12  1  0  0  0  0
 22 39  1  0  0  0  0
 23 17  2  0  0  0  0
 23 40  1  0  0  0  0
 24 22  2  0  0  0  0
 24 41  1  0  0  0  0
 25 21  1  0  0  0  0
 25 42  1  0  0  0  0
 26 23  1  0  0  0  0
 26 20  2  0  0  0  0
 26 43  1  0  0  0  0
 27 24  1  0  0  0  0
 27 25  2  0  0  0  0
 27 44  1  0  0  0  0
M  END
>  <Mol_ID>
8783

>  <Formula>
C21H17N3O3

>  <MolWeight>
359.37798

>  <Cat>
P3047

>  <Name>
WAY-638592

>  <Synonyms>
N/A

>  <Target>
Anti-infection

>  <Form>
free base

>  <CAS>
796053-09-3

>  <URL>
N/A

$$$$
