WAY-311446
 OpenBabel08302521403D

 59 62  0  0  0  0  0  0  0  0999 V2000
    1.1223   -0.0335    0.0389 S   0  0  0  0  0  0  0  0  0  0  0  0
    0.6972    1.2166   -1.0759 N   0  0  0  0  0  0  0  0  0  0  0  0
   -0.0703    0.1467    1.3406 C   0  0  0  0  0  0  0  0  0  0  0  0
    2.4345    0.2934    0.5617 O   0  0  0  0  0  0  0  0  0  0  0  0
    0.8596   -1.3033   -0.5946 O   0  0  0  0  0  0  0  0  0  0  0  0
    0.9918    2.5908   -0.5665 C   0  0  0  0  0  0  0  0  0  0  0  0
    1.3217    0.9788   -2.4154 C   0  0  0  0  0  0  0  0  0  0  0  0
   -1.4203   -0.0669    1.0487 C   0  0  0  0  0  0  0  0  0  0  0  0
    0.3424    0.4027    2.6473 C   0  0  0  0  0  0  0  0  0  0  0  0
    0.4544    3.6304   -1.5420 C   0  0  0  0  0  0  0  0  0  0  0  0
    0.7918    1.9866   -3.4289 C   0  0  0  0  0  0  0  0  0  0  0  0
   -2.3661   -0.0348    2.0780 C   0  0  0  0  0  0  0  0  0  0  0  0
   -0.6104    0.4327    3.6688 C   0  0  0  0  0  0  0  0  0  0  0  0
    1.0310    3.4129   -2.9421 C   0  0  0  0  0  0  0  0  0  0  0  0
   -1.9644    0.2074    3.3927 C   0  0  0  0  0  0  0  0  0  0  0  0
    0.4996    4.4364   -3.9318 C   0  0  0  0  0  0  0  0  0  0  0  0
   -2.7839    0.2415    4.4881 O   0  0  0  0  0  0  0  0  0  0  0  0
   -0.8748    4.4217   -4.0968 N   0  0  0  0  0  0  0  0  0  0  0  0
    1.2889    5.2032   -4.4783 O   0  0  0  0  0  0  0  0  0  0  0  0
   -4.1595   -0.0532    4.2731 C   0  0  0  0  0  0  0  0  0  0  0  0
   -1.6208    5.3203   -4.8854 C   0  0  0  0  0  0  0  0  0  0  0  0
   -1.0402    6.1476   -5.8456 C   0  0  0  0  0  0  0  0  0  0  0  0
   -2.9999    5.4038   -4.6620 C   0  0  0  0  0  0  0  0  0  0  0  0
   -1.8070    7.0915   -6.5289 C   0  0  0  0  0  0  0  0  0  0  0  0
   -3.7741    6.3338   -5.3648 C   0  0  0  0  0  0  0  0  0  0  0  0
   -3.1816    7.1700   -6.3122 C   0  0  0  0  0  0  0  0  0  0  0  0
   -4.0146    8.0741   -6.9305 O   0  0  0  0  0  0  0  0  0  0  0  0
   -3.7317    8.5058   -8.2070 C   0  0  0  0  0  0  0  0  0  0  0  0
   -3.1748    7.6971   -9.2028 C   0  0  0  0  0  0  0  0  0  0  0  0
   -4.1011    9.8179   -8.5094 C   0  0  0  0  0  0  0  0  0  0  0  0
   -2.9117    8.2250  -10.4671 C   0  0  0  0  0  0  0  0  0  0  0  0
   -3.8670   10.3351   -9.7846 C   0  0  0  0  0  0  0  0  0  0  0  0
   -3.2587    9.5429  -10.7579 C   0  0  0  0  0  0  0  0  0  0  0  0
    2.0711    2.7269   -0.4356 H   0  0  0  0  0  0  0  0  0  0  0  0
    0.5012    2.7442    0.3997 H   0  0  0  0  0  0  0  0  0  0  0  0
    1.0596   -0.0221   -2.7742 H   0  0  0  0  0  0  0  0  0  0  0  0
    2.4130    1.0467   -2.3403 H   0  0  0  0  0  0  0  0  0  0  0  0
   -1.7340   -0.2840    0.0303 H   0  0  0  0  0  0  0  0  0  0  0  0
    1.3931    0.5502    2.8865 H   0  0  0  0  0  0  0  0  0  0  0  0
    0.7100    4.6370   -1.1888 H   0  0  0  0  0  0  0  0  0  0  0  0
   -0.6405    3.5749   -1.5543 H   0  0  0  0  0  0  0  0  0  0  0  0
   -0.2756    1.8067   -3.6009 H   0  0  0  0  0  0  0  0  0  0  0  0
    1.2930    1.8332   -4.3929 H   0  0  0  0  0  0  0  0  0  0  0  0
   -3.4042   -0.2193    1.8211 H   0  0  0  0  0  0  0  0  0  0  0  0
   -0.2949    0.6121    4.6940 H   0  0  0  0  0  0  0  0  0  0  0  0
    2.1180    3.5736   -2.8879 H   0  0  0  0  0  0  0  0  0  0  0  0
   -1.4136    3.8084   -3.4993 H   0  0  0  0  0  0  0  0  0  0  0  0
   -4.6173    0.6742    3.5949 H   0  0  0  0  0  0  0  0  0  0  0  0
   -4.2917   -1.0760    3.9041 H   0  0  0  0  0  0  0  0  0  0  0  0
   -4.6734    0.0231    5.2362 H   0  0  0  0  0  0  0  0  0  0  0  0
    0.0150    6.0859   -6.0916 H   0  0  0  0  0  0  0  0  0  0  0  0
   -3.4874    4.7797   -3.9170 H   0  0  0  0  0  0  0  0  0  0  0  0
   -1.3039    7.7523   -7.2287 H   0  0  0  0  0  0  0  0  0  0  0  0
   -4.8391    6.4167   -5.1628 H   0  0  0  0  0  0  0  0  0  0  0  0
   -2.9254    6.6587   -9.0044 H   0  0  0  0  0  0  0  0  0  0  0  0
   -4.5696   10.4392   -7.7504 H   0  0  0  0  0  0  0  0  0  0  0  0
   -2.4397    7.6042  -11.2241 H   0  0  0  0  0  0  0  0  0  0  0  0
   -4.1583   11.3560  -10.0186 H   0  0  0  0  0  0  0  0  0  0  0  0
   -3.0631    9.9494  -11.7468 H   0  0  0  0  0  0  0  0  0  0  0  0
  1  2  1  0  0  0  0
  1  3  1  0  0  0  0
  1  4  2  0  0  0  0
  1  5  2  0  0  0  0
  2  6  1  0  0  0  0
  2  7  1  0  0  0  0
  3  8  2  0  0  0  0
  3  9  1  0  0  0  0
  6 10  1  0  0  0  0
  6 34  1  0  0  0  0
  6 35  1  0  0  0  0
  7 11  1  0  0  0  0
  7 36  1  0  0  0  0
  7 37  1  0  0  0  0
  8 12  1  0  0  0  0
  8 38  1  0  0  0  0
  9 13  2  0  0  0  0
  9 39  1  0  0  0  0
 10 14  1  0  0  0  0
 10 40  1  0  0  0  0
 10 41  1  0  0  0  0
 11 14  1  0  0  0  0
 11 42  1  0  0  0  0
 11 43  1  0  0  0  0
 12 15  2  0  0  0  0
 12 44  1  0  0  0  0
 13 15  1  0  0  0  0
 13 45  1  0  0  0  0
 14 16  1  0  0  0  0
 14 46  1  0  0  0  0
 15 17  1  0  0  0  0
 16 18  1  0  0  0  0
 16 19  2  0  0  0  0
 17 20  1  0  0  0  0
 18 21  1  0  0  0  0
 18 47  1  0  0  0  0
 20 48  1  0  0  0  0
 20 49  1  0  0  0  0
 20 50  1  0  0  0  0
 21 22  2  0  0  0  0
 21 23  1  0  0  0  0
 22 24  1  0  0  0  0
 22 51  1  0  0  0  0
 23 25  2  0  0  0  0
 23 52  1  0  0  0  0
 24 26  2  0  0  0  0
 24 53  1  0  0  0  0
 25 26  1  0  0  0  0
 25 54  1  0  0  0  0
 26 27  1  0  0  0  0
 27 28  1  0  0  0  0
 28 29  2  0  0  0  0
 28 30  1  0  0  0  0
 29 31  1  0  0  0  0
 29 55  1  0  0  0  0
 30 32  2  0  0  0  0
 30 56  1  0  0  0  0
 31 33  2  0  0  0  0
 31 57  1  0  0  0  0
 32 33  1  0  0  0  0
 32 58  1  0  0  0  0
 33 59  1  0  0  0  0
M  END
>  <Mol_ID>
8304

>  <Formula>
C25H26N2O5S

>  <MolWeight>
466.54934

>  <Cat>
P2202

>  <Name>
WAY-311446

>  <Synonyms>
N/A

>  <Target>
others

>  <Form>
free base

>  <CAS>
511237-52-8

>  <URL>
N/A

$$$$
