WAY-324582
 OpenBabel08302521423D

 43 45  0  0  0  0  0  0  0  0999 V2000
    0.7915   -0.5424    0.1111 C   0  0  0  0  0  0  0  0  0  0  0  0
   -0.3464    0.0042    0.7076 C   0  0  0  0  0  0  0  0  0  0  0  0
    1.8907    0.3332   -0.2663 C   0  0  0  0  0  0  0  0  0  0  0  0
    0.8584   -1.9252   -0.0999 C   0  0  0  0  0  0  0  0  0  0  0  0
   -0.4333    1.4659    0.9414 C   0  0  0  0  0  0  0  0  0  0  0  0
   -1.4103   -0.8222    1.0954 C   0  0  0  0  0  0  0  0  0  0  0  0
    1.7860    1.6464   -0.0175 C   0  0  0  0  0  0  0  0  0  0  0  0
   -0.2015   -2.7496    0.2896 C   0  0  0  0  0  0  0  0  0  0  0  0
    0.6459    2.2220    0.5809 O   0  0  0  0  0  0  0  0  0  0  0  0
   -1.4275    1.9724    1.4456 O   0  0  0  0  0  0  0  0  0  0  0  0
   -1.3341   -2.1994    0.8882 C   0  0  0  0  0  0  0  0  0  0  0  0
    2.9270    2.5591   -0.3759 C   0  0  0  0  0  0  0  0  0  0  0  0
    2.7282    3.8617    0.0579 N   0  0  0  0  0  0  0  0  0  0  0  0
    3.9121    2.1234   -0.9578 O   0  0  0  0  0  0  0  0  0  0  0  0
    3.6077    4.9562   -0.1127 C   0  0  0  0  0  0  0  0  0  0  0  0
    4.7134    4.9170   -0.9655 C   0  0  0  0  0  0  0  0  0  0  0  0
    3.3485    6.1327    0.6039 C   0  0  0  0  0  0  0  0  0  0  0  0
    5.5701    6.0211   -1.0901 C   0  0  0  0  0  0  0  0  0  0  0  0
    4.2065    7.2450    0.5020 C   0  0  0  0  0  0  0  0  0  0  0  0
    5.3212    7.1804   -0.3440 C   0  0  0  0  0  0  0  0  0  0  0  0
    6.7451    6.0041   -2.0078 C   0  0  0  0  0  0  0  0  0  0  0  0
    3.8946    8.4636    1.3097 C   0  0  0  0  0  0  0  0  0  0  0  0
    6.8013    4.8327   -2.6866 O   0  0  0  0  0  0  0  0  0  0  0  0
    7.5247    6.9361   -2.1212 O   0  0  0  0  0  0  0  0  0  0  0  0
    4.8427    9.4141    1.1218 O   0  0  0  0  0  0  0  0  0  0  0  0
    2.9149    8.5582    2.0281 O   0  0  0  0  0  0  0  0  0  0  0  0
    7.8877    4.7205   -3.6066 C   0  0  0  0  0  0  0  0  0  0  0  0
    4.6314   10.6287    1.8478 C   0  0  0  0  0  0  0  0  0  0  0  0
    2.7767   -0.0971   -0.7252 H   0  0  0  0  0  0  0  0  0  0  0  0
    1.7337   -2.3772   -0.5631 H   0  0  0  0  0  0  0  0  0  0  0  0
   -2.2966   -0.3969    1.5627 H   0  0  0  0  0  0  0  0  0  0  0  0
   -0.1428   -3.8241    0.1286 H   0  0  0  0  0  0  0  0  0  0  0  0
   -2.1567   -2.8420    1.1947 H   0  0  0  0  0  0  0  0  0  0  0  0
    1.8906    4.0265    0.6073 H   0  0  0  0  0  0  0  0  0  0  0  0
    4.9149    4.0330   -1.5620 H   0  0  0  0  0  0  0  0  0  0  0  0
    2.4877    6.1923    1.2679 H   0  0  0  0  0  0  0  0  0  0  0  0
    5.9978    8.0285   -0.4366 H   0  0  0  0  0  0  0  0  0  0  0  0
    7.8116    5.4856   -4.3850 H   0  0  0  0  0  0  0  0  0  0  0  0
    8.8454    4.7902   -3.0821 H   0  0  0  0  0  0  0  0  0  0  0  0
    7.8247    3.7371   -4.0818 H   0  0  0  0  0  0  0  0  0  0  0  0
    3.7178   11.1251    1.5066 H   0  0  0  0  0  0  0  0  0  0  0  0
    4.5929   10.4385    2.9250 H   0  0  0  0  0  0  0  0  0  0  0  0
    5.4789   11.2919    1.6467 H   0  0  0  0  0  0  0  0  0  0  0  0
  1  2  2  0  0  0  0
  1  3  1  0  0  0  0
  1  4  1  0  0  0  0
  2  5  1  0  0  0  0
  2  6  1  0  0  0  0
  3  7  2  0  0  0  0
  3 29  1  0  0  0  0
  4  8  2  0  0  0  0
  4 30  1  0  0  0  0
  5  9  1  0  0  0  0
  5 10  2  0  0  0  0
  6 11  2  0  0  0  0
  6 31  1  0  0  0  0
  7 12  1  0  0  0  0
  7  9  1  0  0  0  0
  8 11  1  0  0  0  0
  8 32  1  0  0  0  0
 11 33  1  0  0  0  0
 12 13  1  0  0  0  0
 12 14  2  0  0  0  0
 13 15  1  0  0  0  0
 13 34  1  0  0  0  0
 15 16  2  0  0  0  0
 15 17  1  0  0  0  0
 16 18  1  0  0  0  0
 16 35  1  0  0  0  0
 17 19  2  0  0  0  0
 17 36  1  0  0  0  0
 18 20  2  0  0  0  0
 18 21  1  0  0  0  0
 19 22  1  0  0  0  0
 19 20  1  0  0  0  0
 20 37  1  0  0  0  0
 21 23  1  0  0  0  0
 21 24  2  0  0  0  0
 22 25  1  0  0  0  0
 22 26  2  0  0  0  0
 23 27  1  0  0  0  0
 25 28  1  0  0  0  0
 27 38  1  0  0  0  0
 27 39  1  0  0  0  0
 27 40  1  0  0  0  0
 28 41  1  0  0  0  0
 28 42  1  0  0  0  0
 28 43  1  0  0  0  0
M  END
>  <Mol_ID>
8644

>  <Formula>
C20H15NO7

>  <MolWeight>
381.3356

>  <Cat>
P2333

>  <Name>
WAY-324582

>  <Synonyms>
N/A

>  <Target>
Others

>  <Form>
free base

>  <CAS>
353473-84-4

>  <URL>
N/A

$$$$
