WAY-604556
 OpenBabel08302521393D

 29 31  0  0  0  0  0  0  0  0999 V2000
   -2.2556    0.0081   -0.0031 C   0  0  0  0  0  0  0  0  0  0  0  0
   -5.6960   -1.2791    0.1256 C   0  0  0  0  0  0  0  0  0  0  0  0
   -1.4094   -1.5058    0.0095 S   0  0  0  0  0  0  0  0  0  0  0  0
   -4.3425   -1.1288    0.1826 N   0  0  0  0  0  0  0  0  0  0  0  0
   -3.7173    0.0826   -0.0168 C   0  0  0  0  0  0  0  0  0  0  0  0
   -6.6072   -0.4287   -0.2619 N   0  0  0  0  0  0  0  0  0  0  0  0
   -1.3712    1.0838   -0.0131 C   0  0  0  0  0  0  0  0  0  0  0  0
    0.0618   -0.7166    0.0092 C   0  0  0  0  0  0  0  0  0  0  0  0
   -0.0320    0.6439    0.0027 C   0  0  0  0  0  0  0  0  0  0  0  0
   -6.2511   -2.8184    0.6096 S   0  0  0  0  0  0  0  0  0  0  0  0
   -7.8591   -1.0106   -0.1768 C   0  0  0  0  0  0  0  0  0  0  0  0
   -7.8628   -2.3010    0.3190 C   0  0  0  0  0  0  0  0  0  0  0  0
   -4.2921    1.1580   -0.1551 O   0  0  0  0  0  0  0  0  0  0  0  0
    1.4431   -1.2385    0.0180 C   0  0  0  0  0  0  0  0  0  0  0  0
    1.3012    1.2881    0.0105 C   0  0  0  0  0  0  0  0  0  0  0  0
    2.2848    0.0744   -0.0181 C   0  0  0  0  0  0  0  0  0  0  0  0
   -9.0284   -0.2132   -0.6217 C   0  0  0  0  0  0  0  0  0  0  0  0
   -3.7913   -1.9424    0.4021 H   0  0  0  0  0  0  0  0  0  0  0  0
   -1.6988    2.1179   -0.0236 H   0  0  0  0  0  0  0  0  0  0  0  0
   -8.7060   -2.9526    0.4990 H   0  0  0  0  0  0  0  0  0  0  0  0
    1.6540   -1.8585   -0.8590 H   0  0  0  0  0  0  0  0  0  0  0  0
    1.6542   -1.8109    0.9264 H   0  0  0  0  0  0  0  0  0  0  0  0
    1.4502    1.8840    0.9163 H   0  0  0  0  0  0  0  0  0  0  0  0
    1.4482    1.9272   -0.8659 H   0  0  0  0  0  0  0  0  0  0  0  0
    2.9722    0.1148    0.8350 H   0  0  0  0  0  0  0  0  0  0  0  0
    2.8988    0.1040   -0.9255 H   0  0  0  0  0  0  0  0  0  0  0  0
   -9.0649    0.7396   -0.0852 H   0  0  0  0  0  0  0  0  0  0  0  0
   -8.9491   -0.0028   -1.6929 H   0  0  0  0  0  0  0  0  0  0  0  0
   -9.9676   -0.7455   -0.4461 H   0  0  0  0  0  0  0  0  0  0  0  0
  2  4  1  0  0  0  0
  3  1  1  0  0  0  0
  4  5  1  0  0  0  0
  4 18  1  0  0  0  0
  5  1  1  0  0  0  0
  6  2  2  0  0  0  0
  7  1  2  0  0  0  0
  7 19  1  0  0  0  0
  8  3  1  0  0  0  0
  8  9  2  0  0  0  0
  9  7  1  0  0  0  0
 10  2  1  0  0  0  0
 11  6  1  0  0  0  0
 12 10  1  0  0  0  0
 12 11  2  0  0  0  0
 12 20  1  0  0  0  0
 13  5  2  0  0  0  0
 14  8  1  0  0  0  0
 14 21  1  0  0  0  0
 14 22  1  0  0  0  0
 15  9  1  0  0  0  0
 15 23  1  0  0  0  0
 15 24  1  0  0  0  0
 16 15  1  0  0  0  0
 16 14  1  0  0  0  0
 16 25  1  0  0  0  0
 16 26  1  0  0  0  0
 17 11  1  0  0  0  0
 17 27  1  0  0  0  0
 17 28  1  0  0  0  0
 17 29  1  0  0  0  0
M  END
>  <Mol_ID>
8119

>  <Formula>
C12H12N2OS2

>  <MolWeight>
264.36648

>  <Cat>
P2832

>  <Name>
WAY-604556

>  <Synonyms>
N/A

>  <Target>
others

>  <Form>
free base

>  <CAS>
380471-64-7

>  <URL>
N/A

$$$$
