WAY-332010
 OpenBabel08302521443D

 54 56  0  0  0  0  0  0  0  0999 V2000
   -4.7163    3.4882   -1.5637 N   0  0  0  0  0  0  0  0  0  0  0  0
   -5.5680    3.4899   -2.5719 C   0  0  0  0  0  0  0  0  0  0  0  0
   -3.4634    3.2377   -2.1424 C   0  0  0  0  0  0  0  0  0  0  0  0
   -4.9766    3.2446   -3.7714 O   0  0  0  0  0  0  0  0  0  0  0  0
   -3.6543    3.0752   -3.5042 C   0  0  0  0  0  0  0  0  0  0  0  0
    1.8114    1.6586   -4.1751 N   0  0  0  0  0  0  0  0  0  0  0  0
   -7.0116    3.7085   -2.6392 C   0  0  0  0  0  0  0  0  0  0  0  0
    1.3342    2.7648   -3.4754 C   0  0  0  0  0  0  0  0  0  0  0  0
    2.8553    1.7854   -5.1977 C   0  0  3  0  0  0  0  0  0  0  0  0
    1.9454    3.8291   -3.4276 O   0  0  0  0  0  0  0  0  0  0  0  0
   -7.7626    3.9640   -1.4877 C   0  0  0  0  0  0  0  0  0  0  0  0
   -7.6835    3.6890   -3.8762 C   0  0  0  0  0  0  0  0  0  0  0  0
   -0.6646    3.7937   -1.7495 S   0  0  0  0  0  0  0  0  0  0  0  0
    3.9325    0.6858   -5.0785 C   0  0  3  0  0  0  0  0  0  0  0  0
   -2.2737    3.1000   -1.2320 C   0  0  0  0  0  0  0  0  0  0  0  0
   -9.0497    3.9575   -3.9679 C   0  0  0  0  0  0  0  0  0  0  0  0
   -9.1366    4.2322   -1.5726 C   0  0  0  0  0  0  0  0  0  0  0  0
   -9.7849    4.2432   -2.8176 C   0  0  0  0  0  0  0  0  0  0  0  0
   -0.0825    2.5585   -2.9455 C   0  0  0  0  0  0  0  0  0  0  0  0
   -2.8709    2.7631   -4.7057 C   0  0  0  0  0  0  0  0  0  0  0  0
    2.1981    1.7332   -6.5888 C   0  0  0  0  0  0  0  0  0  0  0  0
    4.6482    0.7534   -3.7285 C   0  0  0  0  0  0  0  0  0  0  0  0
    4.9629    0.8078   -6.2193 C   0  0  0  0  0  0  0  0  0  0  0  0
  -11.2437    4.5932   -2.9132 C   0  0  0  0  0  0  0  0  0  0  0  0
    3.2281    1.8810   -7.7045 C   0  0  0  0  0  0  0  0  0  0  0  0
    4.3106    0.8140   -7.5995 C   0  0  0  0  0  0  0  0  0  0  0  0
    1.2813    0.7979   -4.1607 H   0  0  0  0  0  0  0  0  0  0  0  0
    3.3358    2.7658   -5.0871 H   0  0  0  0  0  0  0  0  0  0  0  0
   -7.2794    3.9715   -0.5124 H   0  0  0  0  0  0  0  0  0  0  0  0
   -7.1393    3.4783   -4.7953 H   0  0  0  0  0  0  0  0  0  0  0  0
    3.4504   -0.2983   -5.1552 H   0  0  0  0  0  0  0  0  0  0  0  0
   -2.5194    3.6504   -0.3126 H   0  0  0  0  0  0  0  0  0  0  0  0
   -2.1535    2.0556   -0.9233 H   0  0  0  0  0  0  0  0  0  0  0  0
   -9.5256    3.9509   -4.9455 H   0  0  0  0  0  0  0  0  0  0  0  0
   -9.6958    4.4429   -0.6685 H   0  0  0  0  0  0  0  0  0  0  0  0
   -0.2243    1.5393   -2.5750 H   0  0  0  0  0  0  0  0  0  0  0  0
   -0.6733    2.7164   -3.8384 H   0  0  0  0  0  0  0  0  0  0  0  0
   -3.5227    2.5781   -5.5655 H   0  0  0  0  0  0  0  0  0  0  0  0
   -2.2254    3.6053   -4.9705 H   0  0  0  0  0  0  0  0  0  0  0  0
   -2.2911    1.8488   -4.5641 H   0  0  0  0  0  0  0  0  0  0  0  0
    1.6660    0.7798   -6.7141 H   0  0  0  0  0  0  0  0  0  0  0  0
    1.4411    2.5215   -6.6826 H   0  0  0  0  0  0  0  0  0  0  0  0
    5.4410    0.0007   -3.6707 H   0  0  0  0  0  0  0  0  0  0  0  0
    5.1018    1.7379   -3.5711 H   0  0  0  0  0  0  0  0  0  0  0  0
    3.9522    0.5643   -2.9052 H   0  0  0  0  0  0  0  0  0  0  0  0
    5.5425    1.7320   -6.0964 H   0  0  0  0  0  0  0  0  0  0  0  0
    5.6783   -0.0218   -6.1667 H   0  0  0  0  0  0  0  0  0  0  0  0
  -11.8386    3.9173   -2.2912 H   0  0  0  0  0  0  0  0  0  0  0  0
  -11.3989    5.6241   -2.5822 H   0  0  0  0  0  0  0  0  0  0  0  0
  -11.6072    4.5123   -3.9385 H   0  0  0  0  0  0  0  0  0  0  0  0
    2.7337    1.8100   -8.6804 H   0  0  0  0  0  0  0  0  0  0  0  0
    3.6852    2.8764   -7.6495 H   0  0  0  0  0  0  0  0  0  0  0  0
    3.8768   -0.1712   -7.8049 H   0  0  0  0  0  0  0  0  0  0  0  0
    5.0752    0.9899   -8.3675 H   0  0  0  0  0  0  0  0  0  0  0  0
  2  1  2  0  0  0  0
  3  1  1  0  0  0  0
  4  2  1  0  0  0  0
  5  3  2  0  0  0  0
  5  4  1  0  0  0  0
  6  8  1  0  0  0  0
  6 27  1  0  0  0  0
  7  2  1  0  0  0  0
  8 19  1  0  0  0  0
  9  6  1  0  0  0  0
  9 28  1  0  0  0  0
 10  8  2  0  0  0  0
 11  7  2  0  0  0  0
 11 29  1  0  0  0  0
 12  7  1  0  0  0  0
 12 30  1  0  0  0  0
 13 15  1  0  0  0  0
 14  9  1  0  0  0  0
 14 31  1  0  0  0  0
 15  3  1  0  0  0  0
 15 32  1  0  0  0  0
 15 33  1  0  0  0  0
 16 12  2  0  0  0  0
 16 34  1  0  0  0  0
 17 11  1  0  0  0  0
 17 35  1  0  0  0  0
 18 16  1  0  0  0  0
 18 17  2  0  0  0  0
 19 13  1  0  0  0  0
 19 36  1  0  0  0  0
 19 37  1  0  0  0  0
 20  5  1  0  0  0  0
 20 38  1  0  0  0  0
 20 39  1  0  0  0  0
 20 40  1  0  0  0  0
 21  9  1  0  0  0  0
 21 41  1  0  0  0  0
 21 42  1  0  0  0  0
 22 14  1  0  0  0  0
 22 43  1  0  0  0  0
 22 44  1  0  0  0  0
 22 45  1  0  0  0  0
 23 14  1  0  0  0  0
 23 26  1  0  0  0  0
 23 46  1  0  0  0  0
 23 47  1  0  0  0  0
 24 18  1  0  0  0  0
 24 48  1  0  0  0  0
 24 49  1  0  0  0  0
 24 50  1  0  0  0  0
 25 21  1  0  0  0  0
 25 51  1  0  0  0  0
 25 52  1  0  0  0  0
 26 25  1  0  0  0  0
 26 53  1  0  0  0  0
 26 54  1  0  0  0  0
M  END
>  <Mol_ID>
9240

>  <Formula>
C21H28N2O2S

>  <MolWeight>
372.52422

>  <Cat>
P2667

>  <Name>
WAY-332010

>  <Synonyms>
N/A

>  <Target>
beta-catenin

>  <Form>
free base

>  <CAS>
901722-77-8

>  <URL>
N/A

$$$$
