WAY-605849
 OpenBabel08302521423D

 35 38  0  0  0  0  0  0  0  0999 V2000
    0.7013   -0.3943   -0.0164 N   0  0  0  0  0  0  0  0  0  0  0  0
    1.1190    0.9044   -0.0241 C   0  0  0  0  0  0  0  0  0  0  0  0
    1.6505   -1.5087    0.0307 C   0  0  3  0  0  0  0  0  0  0  0  0
    3.0871   -1.1483   -0.0435 N   0  0  0  0  0  0  0  0  0  0  0  0
    2.4411    1.1279   -0.0366 N   0  0  0  0  0  0  0  0  0  0  0  0
    0.1069    1.7380   -0.0202 N   0  0  0  0  0  0  0  0  0  0  0  0
    3.3472    0.1153   -0.0799 C   0  0  0  0  0  0  0  0  0  0  0  0
    1.1358   -2.0086    5.0053 N   0  3  0  0  0  0  0  0  0  0  0  0
   -0.6673   -0.4175   -0.0434 C   0  0  0  0  0  0  0  0  0  0  0  0
   -1.0153    0.9330   -0.0255 C   0  0  0  0  0  0  0  0  0  0  0  0
    1.3821   -2.3650    1.2602 C   0  0  0  0  0  0  0  0  0  0  0  0
    1.1151   -2.6019    3.6634 C   0  0  0  0  0  0  0  0  0  0  0  0
    1.4623   -1.8220    2.5552 C   0  0  0  0  0  0  0  0  0  0  0  0
    1.4558   -0.8184    5.1056 O   0  5  0  0  0  0  0  0  0  0  0  0
    0.8229   -2.7344    5.9642 O   0  0  0  0  0  0  0  0  0  0  0  0
    4.6339    0.5168   -0.2073 N   0  0  0  0  0  0  0  0  0  0  0  0
    1.0011   -3.7103    1.1105 C   0  0  0  0  0  0  0  0  0  0  0  0
   -1.6150   -1.4501   -0.0589 C   0  0  0  0  0  0  0  0  0  0  0  0
   -2.3752    1.2833   -0.0146 C   0  0  0  0  0  0  0  0  0  0  0  0
    0.7199   -3.9371    3.5015 C   0  0  0  0  0  0  0  0  0  0  0  0
    0.6700   -4.4860    2.2203 C   0  0  0  0  0  0  0  0  0  0  0  0
   -2.9618   -1.0779   -0.0371 C   0  0  0  0  0  0  0  0  0  0  0  0
   -3.3397    0.2645   -0.0154 C   0  0  0  0  0  0  0  0  0  0  0  0
    1.4290   -2.0894   -0.8754 H   0  0  0  0  0  0  0  0  0  0  0  0
    2.7596    2.0837   -0.0924 H   0  0  0  0  0  0  0  0  0  0  0  0
    1.7693   -0.7829    2.6815 H   0  0  0  0  0  0  0  0  0  0  0  0
    4.9104    1.3904    0.2176 H   0  0  0  0  0  0  0  0  0  0  0  0
    5.2900   -0.2382   -0.0262 H   0  0  0  0  0  0  0  0  0  0  0  0
    0.9304   -4.1514    0.1170 H   0  0  0  0  0  0  0  0  0  0  0  0
   -1.3326   -2.4943   -0.0740 H   0  0  0  0  0  0  0  0  0  0  0  0
   -2.6698    2.3265    0.0013 H   0  0  0  0  0  0  0  0  0  0  0  0
    0.4453   -4.5528    4.3535 H   0  0  0  0  0  0  0  0  0  0  0  0
    0.3602   -5.5208    2.0852 H   0  0  0  0  0  0  0  0  0  0  0  0
   -3.7262   -1.8525   -0.0312 H   0  0  0  0  0  0  0  0  0  0  0  0
   -4.3957    0.5243    0.0038 H   0  0  0  0  0  0  0  0  0  0  0  0
  2  1  1  0  0  0  0
  3  1  1  0  0  0  0
  3 24  1  0  0  0  0
  4  3  1  0  0  0  0
  5  2  1  0  0  0  0
  5 25  1  0  0  0  0
  6  2  2  0  0  0  0
  7  4  2  0  0  0  0
  7  5  1  0  0  0  0
  8 12  1  0  0  0  0
  9  1  1  0  0  0  0
 10  9  2  0  0  0  0
 10  6  1  0  0  0  0
 11  3  1  0  0  0  0
 12 13  2  0  0  0  0
 13 11  1  0  0  0  0
 13 26  1  0  0  0  0
 14  8  1  0  0  0  0
 15  8  2  0  0  0  0
 16  7  1  0  0  0  0
 16 27  1  0  0  0  0
 16 28  1  0  0  0  0
 17 11  2  0  0  0  0
 17 29  1  0  0  0  0
 18  9  1  0  0  0  0
 18 30  1  0  0  0  0
 19 10  1  0  0  0  0
 19 31  1  0  0  0  0
 20 21  2  0  0  0  0
 20 12  1  0  0  0  0
 20 32  1  0  0  0  0
 21 17  1  0  0  0  0
 21 33  1  0  0  0  0
 22 18  2  0  0  0  0
 22 34  1  0  0  0  0
 23 22  1  0  0  0  0
 23 19  2  0  0  0  0
 23 35  1  0  0  0  0
M  CHG  2   8   1  14  -1
M  END
>  <Mol_ID>
8473

>  <Formula>
C15H12N6O2

>  <MolWeight>
308.29478

>  <Cat>
P2856

>  <Name>
WAY-605849

>  <Synonyms>
N/A

>  <Target>
Anti-infection

>  <Form>
free base

>  <CAS>
78650-05-2

>  <URL>
N/A

$$$$
