WAY-658230
 OpenBabel08302521433D

 35 37  0  0  0  0  0  0  0  0999 V2000
   -1.5728   -1.3068   -0.0087 C   0  0  0  0  0  0  0  0  0  0  0  0
   -2.4142   -0.2001   -0.0343 C   0  0  0  0  0  0  0  0  0  0  0  0
   -1.6659    0.9495   -0.0410 O   0  0  0  0  0  0  0  0  0  0  0  0
   -0.2396   -0.8007    0.0003 C   0  0  0  0  0  0  0  0  0  0  0  0
   -0.3549    0.5828   -0.0208 C   0  0  0  0  0  0  0  0  0  0  0  0
   -3.8599   -0.1376   -0.0704 C   0  0  0  0  0  0  0  0  0  0  0  0
   -1.9889   -2.7384    0.0085 C   0  0  0  0  0  0  0  0  0  0  0  0
   -4.6033   -1.1138   -0.1065 O   0  0  0  0  0  0  0  0  0  0  0  0
   -2.1977   -3.1716    1.3514 O   0  0  0  0  0  0  0  0  0  0  0  0
   -4.3032    1.1530   -0.0940 O   0  0  0  0  0  0  0  0  0  0  0  0
   -2.5926   -4.4697    1.5240 C   0  0  0  0  0  0  0  0  0  0  0  0
    1.0493   -1.3676    0.0218 C   0  0  0  0  0  0  0  0  0  0  0  0
    0.7330    1.4545   -0.0244 C   0  0  0  0  0  0  0  0  0  0  0  0
   -5.7259    1.2523   -0.1693 C   0  0  0  0  0  0  0  0  0  0  0  0
   -2.8771   -5.3853    0.5090 C   0  0  0  0  0  0  0  0  0  0  0  0
   -2.7083   -4.8735    2.8574 C   0  0  0  0  0  0  0  0  0  0  0  0
    2.1629   -0.5170    0.0122 C   0  0  0  0  0  0  0  0  0  0  0  0
    2.0053    0.8704   -0.0103 C   0  0  0  0  0  0  0  0  0  0  0  0
   -3.0935   -6.1776    3.1750 C   0  0  0  0  0  0  0  0  0  0  0  0
   -3.2642   -6.6904    0.8255 C   0  0  0  0  0  0  0  0  0  0  0  0
   -3.3700   -7.0869    2.1569 C   0  0  0  0  0  0  0  0  0  0  0  0
   -2.9049   -2.8596   -0.5811 H   0  0  0  0  0  0  0  0  0  0  0  0
   -1.2020   -3.3455   -0.4567 H   0  0  0  0  0  0  0  0  0  0  0  0
    1.1853   -2.4451    0.0459 H   0  0  0  0  0  0  0  0  0  0  0  0
    0.5957    2.5287   -0.0390 H   0  0  0  0  0  0  0  0  0  0  0  0
   -6.0953    0.7817   -1.0870 H   0  0  0  0  0  0  0  0  0  0  0  0
   -6.1897    0.7929    0.7102 H   0  0  0  0  0  0  0  0  0  0  0  0
   -5.9986    2.3101   -0.1915 H   0  0  0  0  0  0  0  0  0  0  0  0
   -2.8169   -5.1179   -0.5412 H   0  0  0  0  0  0  0  0  0  0  0  0
   -2.4973   -4.1653    3.6550 H   0  0  0  0  0  0  0  0  0  0  0  0
    3.1627   -0.9466    0.0244 H   0  0  0  0  0  0  0  0  0  0  0  0
    2.8868    1.5084   -0.0154 H   0  0  0  0  0  0  0  0  0  0  0  0
   -3.1794   -6.4797    4.2153 H   0  0  0  0  0  0  0  0  0  0  0  0
   -3.4873   -7.3961    0.0293 H   0  0  0  0  0  0  0  0  0  0  0  0
   -3.6708   -8.1028    2.4003 H   0  0  0  0  0  0  0  0  0  0  0  0
  2  1  2  0  0  0  0
  3  2  1  0  0  0  0
  4  1  1  0  0  0  0
  5  4  2  0  0  0  0
  5  3  1  0  0  0  0
  6  2  1  0  0  0  0
  7  1  1  0  0  0  0
  7 22  1  0  0  0  0
  7 23  1  0  0  0  0
  8  6  2  0  0  0  0
  9  7  1  0  0  0  0
 10  6  1  0  0  0  0
 11  9  1  0  0  0  0
 12  4  1  0  0  0  0
 12 24  1  0  0  0  0
 13  5  1  0  0  0  0
 13 25  1  0  0  0  0
 14 10  1  0  0  0  0
 14 26  1  0  0  0  0
 14 27  1  0  0  0  0
 14 28  1  0  0  0  0
 15 11  2  0  0  0  0
 15 29  1  0  0  0  0
 16 11  1  0  0  0  0
 16 30  1  0  0  0  0
 17 12  2  0  0  0  0
 17 31  1  0  0  0  0
 18 17  1  0  0  0  0
 18 13  2  0  0  0  0
 18 32  1  0  0  0  0
 19 16  2  0  0  0  0
 19 33  1  0  0  0  0
 20 15  1  0  0  0  0
 20 34  1  0  0  0  0
 21 19  1  0  0  0  0
 21 20  2  0  0  0  0
 21 35  1  0  0  0  0
M  END
>  <Mol_ID>
8819

>  <Formula>
C17H14O4

>  <MolWeight>
282.29066

>  <Cat>
P3165

>  <Name>
WAY-658230

>  <Synonyms>
N/A

>  <Target>
mGluR5

>  <Form>
free base

>  <CAS>
849128-64-9

>  <URL>
N/A

$$$$
