WAY-332024
 OpenBabel08302521443D

 59 61  0  0  0  0  0  0  0  0999 V2000
   -3.5050    1.6450   -2.7620 N   0  0  0  0  0  0  0  0  0  0  0  0
   -3.0814    2.1090   -1.5308 C   0  0  0  0  0  0  0  0  0  0  0  0
   -3.9475    0.4236   -2.5175 C   0  0  0  0  0  0  0  0  0  0  0  0
   -3.9002    0.0708   -1.1951 O   0  0  0  0  0  0  0  0  0  0  0  0
   -3.3365    1.1481   -0.5731 C   0  0  0  0  0  0  0  0  0  0  0  0
   -0.6275    3.2952   -1.4940 S   0  0  3  0  0  0  0  0  0  0  0  0
   -2.4465    3.4452   -1.3843 C   0  0  0  0  0  0  0  0  0  0  0  0
    1.2112    5.3695   -1.4859 C   0  0  0  0  0  0  0  0  0  0  0  0
   -0.2673    5.0688   -1.3024 C   0  0  0  0  0  0  0  0  0  0  0  0
    1.6883    6.3960   -0.6828 N   0  0  0  0  0  0  0  0  0  0  0  0
    3.0406    6.9461   -0.8464 C   0  0  3  0  0  0  0  0  0  0  0  0
   -4.4355   -0.5901   -3.4492 C   0  0  0  0  0  0  0  0  0  0  0  0
    3.5912    7.5088    0.4921 C   0  0  3  0  0  0  0  0  0  0  0  0
   -0.1668    2.6137   -0.2326 O   0  0  0  0  0  0  0  0  0  0  0  0
    1.9097    4.8077   -2.3251 O   0  0  0  0  0  0  0  0  0  0  0  0
   -4.4129   -0.3350   -4.8282 C   0  0  0  0  0  0  0  0  0  0  0  0
   -4.9106   -1.8375   -3.0169 C   0  0  0  0  0  0  0  0  0  0  0  0
    2.8619    8.8188    0.8951 C   0  0  3  0  0  0  0  0  0  0  0  0
   -5.3192   -2.5317   -5.3081 C   0  0  0  0  0  0  0  0  0  0  0  0
   -4.8463   -1.2963   -5.7508 C   0  0  0  0  0  0  0  0  0  0  0  0
   -5.3494   -2.7962   -3.9382 C   0  0  0  0  0  0  0  0  0  0  0  0
   -3.1084    1.0259    0.8769 C   0  0  0  0  0  0  0  0  0  0  0  0
    3.0586    8.0105   -1.9561 C   0  0  0  0  0  0  0  0  0  0  0  0
   -5.7797   -3.5488   -6.0984 O   0  0  0  0  0  0  0  0  0  0  0  0
    2.3478    9.2977   -1.5423 C   0  0  0  0  0  0  0  0  0  0  0  0
    5.1189    7.6789    0.4095 C   0  0  0  0  0  0  0  0  0  0  0  0
    2.8877    9.8623   -0.2312 C   0  0  0  0  0  0  0  0  0  0  0  0
    3.3917    9.4254    2.1974 C   0  0  0  0  0  0  0  0  0  0  0  0
   -5.7696   -3.3271   -7.5028 C   0  0  0  0  0  0  0  0  0  0  0  0
   -2.7951    4.1195   -2.1735 H   0  0  0  0  0  0  0  0  0  0  0  0
   -2.6975    3.8888   -0.4150 H   0  0  0  0  0  0  0  0  0  0  0  0
   -0.8179    5.6313   -2.0648 H   0  0  0  0  0  0  0  0  0  0  0  0
   -0.6081    5.3786   -0.3108 H   0  0  0  0  0  0  0  0  0  0  0  0
    1.0285    6.9236   -0.1277 H   0  0  0  0  0  0  0  0  0  0  0  0
    3.6797    6.1132   -1.1669 H   0  0  0  0  0  0  0  0  0  0  0  0
    3.4015    6.7641    1.2776 H   0  0  0  0  0  0  0  0  0  0  0  0
   -4.0360    0.6196   -5.1948 H   0  0  0  0  0  0  0  0  0  0  0  0
   -4.9432   -2.0783   -1.9562 H   0  0  0  0  0  0  0  0  0  0  0  0
    1.8100    8.5663    1.0831 H   0  0  0  0  0  0  0  0  0  0  0  0
   -4.7934   -1.0476   -6.8055 H   0  0  0  0  0  0  0  0  0  0  0  0
   -5.7147   -3.7574   -3.5827 H   0  0  0  0  0  0  0  0  0  0  0  0
   -4.0449    0.7939    1.3938 H   0  0  0  0  0  0  0  0  0  0  0  0
   -2.3948    0.2221    1.0830 H   0  0  0  0  0  0  0  0  0  0  0  0
   -2.7098    1.9530    1.2984 H   0  0  0  0  0  0  0  0  0  0  0  0
    4.0971    8.2484   -2.2173 H   0  0  0  0  0  0  0  0  0  0  0  0
    2.5938    7.6201   -2.8690 H   0  0  0  0  0  0  0  0  0  0  0  0
    1.2725    9.1067   -1.4395 H   0  0  0  0  0  0  0  0  0  0  0  0
    2.4587   10.0473   -2.3343 H   0  0  0  0  0  0  0  0  0  0  0  0
    5.4134    8.4598   -0.2982 H   0  0  0  0  0  0  0  0  0  0  0  0
    5.5434    7.9366    1.3848 H   0  0  0  0  0  0  0  0  0  0  0  0
    5.5964    6.7459    0.0917 H   0  0  0  0  0  0  0  0  0  0  0  0
    2.2843   10.7320    0.0566 H   0  0  0  0  0  0  0  0  0  0  0  0
    3.9083   10.2330   -0.3857 H   0  0  0  0  0  0  0  0  0  0  0  0
    4.4128    9.8046    2.0901 H   0  0  0  0  0  0  0  0  0  0  0  0
    2.7633   10.2666    2.5102 H   0  0  0  0  0  0  0  0  0  0  0  0
    3.3807    8.6849    3.0039 H   0  0  0  0  0  0  0  0  0  0  0  0
   -6.3729   -2.4543   -7.7735 H   0  0  0  0  0  0  0  0  0  0  0  0
   -4.7446   -3.2312   -7.8756 H   0  0  0  0  0  0  0  0  0  0  0  0
   -6.2206   -4.2011   -7.9828 H   0  0  0  0  0  0  0  0  0  0  0  0
  2  1  1  0  0  0  0
  3  1  2  0  0  0  0
  4  3  1  0  0  0  0
  5  2  2  0  0  0  0
  5  4  1  0  0  0  0
  6  7  1  0  0  0  0
  7  2  1  0  0  0  0
  7 30  1  0  0  0  0
  7 31  1  0  0  0  0
  8  9  1  0  0  0  0
  9  6  1  0  0  0  0
  9 32  1  0  0  0  0
  9 33  1  0  0  0  0
 10  8  1  0  0  0  0
 10 34  1  0  0  0  0
 11 10  1  0  0  0  0
 11 35  1  0  0  0  0
 12  3  1  0  0  0  0
 13 11  1  0  0  0  0
 13 36  1  0  0  0  0
 14  6  2  0  0  0  0
 15  8  2  0  0  0  0
 16 12  2  0  0  0  0
 16 37  1  0  0  0  0
 17 12  1  0  0  0  0
 17 38  1  0  0  0  0
 18 13  1  0  0  0  0
 18 27  1  0  0  0  0
 18 39  1  0  0  0  0
 19 21  1  0  0  0  0
 19 20  2  0  0  0  0
 20 16  1  0  0  0  0
 20 40  1  0  0  0  0
 21 17  2  0  0  0  0
 21 41  1  0  0  0  0
 22  5  1  0  0  0  0
 22 42  1  0  0  0  0
 22 43  1  0  0  0  0
 22 44  1  0  0  0  0
 23 11  1  0  0  0  0
 23 45  1  0  0  0  0
 23 46  1  0  0  0  0
 24 19  1  0  0  0  0
 25 23  1  0  0  0  0
 25 47  1  0  0  0  0
 25 48  1  0  0  0  0
 26 13  1  0  0  0  0
 26 49  1  0  0  0  0
 26 50  1  0  0  0  0
 26 51  1  0  0  0  0
 27 25  1  0  0  0  0
 27 52  1  0  0  0  0
 27 53  1  0  0  0  0
 28 18  1  0  0  0  0
 28 54  1  0  0  0  0
 28 55  1  0  0  0  0
 28 56  1  0  0  0  0
 29 24  1  0  0  0  0
 29 57  1  0  0  0  0
 29 58  1  0  0  0  0
 29 59  1  0  0  0  0
M  END
>  <Mol_ID>
9257

>  <Formula>
C22H30N2O4S

>  <MolWeight>
418.5496

>  <Cat>
P2672

>  <Name>
WAY-332024

>  <Synonyms>
N/A

>  <Target>
beta-catenin

>  <Form>
free base

>  <CAS>
1053087-48-1

>  <URL>
N/A

$$$$
