WAY-332031
 OpenBabel08302521453D

 58 61  0  0  0  0  0  0  0  0999 V2000
    0.3755    4.3286    1.6137 N   0  0  0  0  0  0  0  0  0  0  0  0
   -0.1925    3.1972    1.0623 C   0  0  0  0  0  0  0  0  0  0  0  0
   -0.2784    4.5094    2.7454 C   0  0  0  0  0  0  0  0  0  0  0  0
   -1.2522    3.5724    2.9756 O   0  0  0  0  0  0  0  0  0  0  0  0
   -1.1956    2.7427    1.8930 C   0  0  0  0  0  0  0  0  0  0  0  0
    1.3251    5.3805   -1.4903 C   0  0  0  0  0  0  0  0  0  0  0  0
    1.7765    6.6680   -1.2346 N   0  0  0  0  0  0  0  0  0  0  0  0
   -0.1709    5.1420   -1.4044 C   0  0  0  0  0  0  0  0  0  0  0  0
   -0.6790    3.4103   -1.6105 S   0  0  3  0  0  0  0  0  0  0  0  0
    2.7948    9.2676   -1.7707 N   0  0  0  0  0  0  0  0  0  0  0  0
    0.2701    2.6715   -0.2452 C   0  0  0  0  0  0  0  0  0  0  0  0
   -0.1312    5.5670    3.7393 C   0  0  0  0  0  0  0  0  0  0  0  0
    0.9576    7.8378   -0.9090 C   0  0  0  0  0  0  0  0  0  0  0  0
    3.2216    6.9071   -1.2094 C   0  0  0  0  0  0  0  0  0  0  0  0
    1.3373    9.0678   -1.7677 C   0  0  0  0  0  0  0  0  0  0  0  0
    3.6015    8.0841   -2.1150 C   0  0  0  0  0  0  0  0  0  0  0  0
    2.1229    4.4904   -1.7790 O   0  0  0  0  0  0  0  0  0  0  0  0
    3.3751   10.4516   -1.3691 C   0  0  0  0  0  0  0  0  0  0  0  0
   -0.1532    2.8922   -2.9202 O   0  0  0  0  0  0  0  0  0  0  0  0
    0.7892    6.6063    3.5179 C   0  0  0  0  0  0  0  0  0  0  0  0
    0.9562    7.6374    4.4535 C   0  0  0  0  0  0  0  0  0  0  0  0
   -2.1694    1.6406    1.8513 C   0  0  0  0  0  0  0  0  0  0  0  0
   -0.8893    5.5812    4.9177 C   0  0  0  0  0  0  0  0  0  0  0  0
   -0.7238    6.5983    5.8588 C   0  0  0  0  0  0  0  0  0  0  0  0
    2.7658   11.6911   -1.6217 C   0  0  0  0  0  0  0  0  0  0  0  0
    4.6055   10.4795   -0.6956 C   0  0  0  0  0  0  0  0  0  0  0  0
    0.1970    7.6193    5.6288 C   0  0  0  0  0  0  0  0  0  0  0  0
    1.9440    8.7417    4.2171 C   0  0  0  0  0  0  0  0  0  0  0  0
    3.3576   12.8945   -1.2288 C   0  0  0  0  0  0  0  0  0  0  0  0
    5.2048   11.6764   -0.2962 C   0  0  0  0  0  0  0  0  0  0  0  0
    4.5809   12.8865   -0.5646 C   0  0  0  0  0  0  0  0  0  0  0  0
   -0.6637    5.7033   -2.2057 H   0  0  0  0  0  0  0  0  0  0  0  0
   -0.5651    5.4958   -0.4518 H   0  0  0  0  0  0  0  0  0  0  0  0
    1.3413    2.8285   -0.3699 H   0  0  0  0  0  0  0  0  0  0  0  0
    0.1064    1.5898   -0.2946 H   0  0  0  0  0  0  0  0  0  0  0  0
   -0.1092    7.6333   -1.0214 H   0  0  0  0  0  0  0  0  0  0  0  0
    1.1430    8.0579    0.1506 H   0  0  0  0  0  0  0  0  0  0  0  0
    3.4850    7.1274   -0.1672 H   0  0  0  0  0  0  0  0  0  0  0  0
    3.7902    6.0236   -1.5101 H   0  0  0  0  0  0  0  0  0  0  0  0
    1.0019    8.9147   -2.8003 H   0  0  0  0  0  0  0  0  0  0  0  0
    0.7932    9.9309   -1.3693 H   0  0  0  0  0  0  0  0  0  0  0  0
    3.4002    7.8236   -3.1628 H   0  0  0  0  0  0  0  0  0  0  0  0
    4.6802    8.2582   -2.0542 H   0  0  0  0  0  0  0  0  0  0  0  0
    1.3835    6.6058    2.6048 H   0  0  0  0  0  0  0  0  0  0  0  0
   -2.0779    1.0129    2.7428 H   0  0  0  0  0  0  0  0  0  0  0  0
   -3.1880    2.0389    1.8123 H   0  0  0  0  0  0  0  0  0  0  0  0
   -2.0184    1.0087    0.9714 H   0  0  0  0  0  0  0  0  0  0  0  0
   -1.6143    4.7948    5.1173 H   0  0  0  0  0  0  0  0  0  0  0  0
   -1.3111    6.5910    6.7734 H   0  0  0  0  0  0  0  0  0  0  0  0
    1.8301   11.7403   -2.1729 H   0  0  0  0  0  0  0  0  0  0  0  0
    5.1167    9.5570   -0.4399 H   0  0  0  0  0  0  0  0  0  0  0  0
    0.3209    8.4026    6.3736 H   0  0  0  0  0  0  0  0  0  0  0  0
    1.4402    9.7129    4.2551 H   0  0  0  0  0  0  0  0  0  0  0  0
    2.7292    8.7130    4.9793 H   0  0  0  0  0  0  0  0  0  0  0  0
    2.4210    8.6517    3.2355 H   0  0  0  0  0  0  0  0  0  0  0  0
    2.8685   13.8377   -1.4528 H   0  0  0  0  0  0  0  0  0  0  0  0
    6.1586   11.6530    0.2210 H   0  0  0  0  0  0  0  0  0  0  0  0
    5.0457   13.8188   -0.2597 H   0  0  0  0  0  0  0  0  0  0  0  0
  2  1  1  0  0  0  0
  3  1  2  0  0  0  0
  4  3  1  0  0  0  0
  4  5  1  0  0  0  0
  5  2  2  0  0  0  0
  6  8  1  0  0  0  0
  7  6  1  0  0  0  0
  8  9  1  0  0  0  0
  8 32  1  0  0  0  0
  8 33  1  0  0  0  0
  9 11  1  0  0  0  0
 10 16  1  0  0  0  0
 11  2  1  0  0  0  0
 11 34  1  0  0  0  0
 11 35  1  0  0  0  0
 12  3  1  0  0  0  0
 13  7  1  0  0  0  0
 13 36  1  0  0  0  0
 13 37  1  0  0  0  0
 14  7  1  0  0  0  0
 14 38  1  0  0  0  0
 14 39  1  0  0  0  0
 15 13  1  0  0  0  0
 15 10  1  0  0  0  0
 15 40  1  0  0  0  0
 15 41  1  0  0  0  0
 16 14  1  0  0  0  0
 16 42  1  0  0  0  0
 16 43  1  0  0  0  0
 17  6  2  0  0  0  0
 18 10  1  0  0  0  0
 19  9  2  0  0  0  0
 20 12  2  0  0  0  0
 20 44  1  0  0  0  0
 21 20  1  0  0  0  0
 22  5  1  0  0  0  0
 22 45  1  0  0  0  0
 22 46  1  0  0  0  0
 22 47  1  0  0  0  0
 23 12  1  0  0  0  0
 23 48  1  0  0  0  0
 24 23  2  0  0  0  0
 24 49  1  0  0  0  0
 25 18  2  0  0  0  0
 25 50  1  0  0  0  0
 26 18  1  0  0  0  0
 26 51  1  0  0  0  0
 27 24  1  0  0  0  0
 27 21  2  0  0  0  0
 27 52  1  0  0  0  0
 28 21  1  0  0  0  0
 28 53  1  0  0  0  0
 28 54  1  0  0  0  0
 28 55  1  0  0  0  0
 29 25  1  0  0  0  0
 29 56  1  0  0  0  0
 30 26  2  0  0  0  0
 30 57  1  0  0  0  0
 31 30  1  0  0  0  0
 31 29  2  0  0  0  0
 31 58  1  0  0  0  0
M  END
>  <Mol_ID>
9267

>  <Formula>
C24H27N3O3S

>  <MolWeight>
437.55448

>  <Cat>
P2679

>  <Name>
WAY-332031

>  <Synonyms>
N/A

>  <Target>
beta-catenin

>  <Form>
free base

>  <CAS>
959545-47-2

>  <URL>
N/A

$$$$
