WAY-332066
 OpenBabel08302521453D

 49 51  0  0  0  0  0  0  0  0999 V2000
   -0.2342   -0.9927   -0.5332 C   0  0  0  0  0  0  0  0  0  0  0  0
   -0.0345    0.2069   -1.0491 N   0  0  0  0  0  0  0  0  0  0  0  0
    0.1259    1.0386    0.0407 C   0  0  0  0  0  0  0  0  0  0  0  0
   -0.2348   -1.0038    0.8400 O   0  0  0  0  0  0  0  0  0  0  0  0
    0.0052    0.2925    1.1947 C   0  0  0  0  0  0  0  0  0  0  0  0
   -0.2943    3.2638   -1.5660 S   0  0  3  0  0  0  0  0  0  0  0  0
    0.4199    2.4888   -0.0897 C   0  0  0  0  0  0  0  0  0  0  0  0
   -0.4481   -2.2855   -1.1949 C   0  0  0  0  0  0  0  0  0  0  0  0
   -2.0400    2.9408   -1.2553 C   0  0  0  0  0  0  0  0  0  0  0  0
   -2.5694    3.5360    0.0298 C   0  0  0  0  0  0  0  0  0  0  0  0
   -3.4766    6.6264    1.4572 C   0  0  0  0  0  0  0  0  0  0  0  0
   -3.2384    4.7317   -0.1147 N   0  0  0  0  0  0  0  0  0  0  0  0
   -0.0687    4.7462   -1.4890 O   0  0  0  0  0  0  0  0  0  0  0  0
   -4.0226    5.3166    0.9515 C   0  0  0  0  0  0  0  0  0  0  0  0
   -4.2224    7.8085    1.3357 C   0  0  0  0  0  0  0  0  0  0  0  0
   -2.4553    2.9546    1.1072 O   0  0  0  0  0  0  0  0  0  0  0  0
    0.1141   -2.6103   -2.4501 C   0  0  0  0  0  0  0  0  0  0  0  0
    0.0938    0.5918    2.6349 C   0  0  0  0  0  0  0  0  0  0  0  0
   -1.2614   -3.2485   -0.5597 C   0  0  0  0  0  0  0  0  0  0  0  0
   -2.2519    6.6690    2.1380 C   0  0  0  0  0  0  0  0  0  0  0  0
    1.0335   -1.7100   -3.2328 C   0  0  0  0  0  0  0  0  0  0  0  0
   -3.7623    9.0014    1.9034 C   0  0  0  0  0  0  0  0  0  0  0  0
   -0.1593   -3.8695   -3.0263 C   0  0  0  0  0  0  0  0  0  0  0  0
   -1.5213   -4.4912   -1.1452 C   0  0  0  0  0  0  0  0  0  0  0  0
   -1.7945    7.8604    2.7056 C   0  0  0  0  0  0  0  0  0  0  0  0
   -0.9703   -4.8005   -2.3811 C   0  0  0  0  0  0  0  0  0  0  0  0
   -2.5536    9.0241    2.5948 C   0  0  0  0  0  0  0  0  0  0  0  0
    0.0989    3.0496    0.7916 H   0  0  0  0  0  0  0  0  0  0  0  0
    1.5056    2.6155   -0.1716 H   0  0  0  0  0  0  0  0  0  0  0  0
   -2.5984    3.3441   -2.1068 H   0  0  0  0  0  0  0  0  0  0  0  0
   -2.2267    1.8630   -1.2490 H   0  0  0  0  0  0  0  0  0  0  0  0
   -3.1193    5.2683   -0.9659 H   0  0  0  0  0  0  0  0  0  0  0  0
   -4.1221    4.6192    1.7908 H   0  0  0  0  0  0  0  0  0  0  0  0
   -5.0285    5.4615    0.5410 H   0  0  0  0  0  0  0  0  0  0  0  0
   -5.1795    7.8103    0.8186 H   0  0  0  0  0  0  0  0  0  0  0  0
   -0.8396    0.3336    3.1422 H   0  0  0  0  0  0  0  0  0  0  0  0
    0.9088    0.0232    3.0930 H   0  0  0  0  0  0  0  0  0  0  0  0
    0.2903    1.6550    2.8069 H   0  0  0  0  0  0  0  0  0  0  0  0
   -1.7132   -3.0296    0.4070 H   0  0  0  0  0  0  0  0  0  0  0  0
   -1.6589    5.7630    2.2485 H   0  0  0  0  0  0  0  0  0  0  0  0
    2.0014   -2.2051   -3.3678 H   0  0  0  0  0  0  0  0  0  0  0  0
    0.6004   -1.5049   -4.2178 H   0  0  0  0  0  0  0  0  0  0  0  0
    1.2370   -0.7511   -2.7590 H   0  0  0  0  0  0  0  0  0  0  0  0
   -4.3555    9.9087    1.8185 H   0  0  0  0  0  0  0  0  0  0  0  0
    0.2719   -4.1290   -3.9914 H   0  0  0  0  0  0  0  0  0  0  0  0
   -2.1551   -5.2127   -0.6351 H   0  0  0  0  0  0  0  0  0  0  0  0
   -0.8525    7.8764    3.2471 H   0  0  0  0  0  0  0  0  0  0  0  0
   -1.1668   -5.7640   -2.8440 H   0  0  0  0  0  0  0  0  0  0  0  0
   -2.2053    9.9467    3.0522 H   0  0  0  0  0  0  0  0  0  0  0  0
  2  1  2  0  0  0  0
  3  2  1  0  0  0  0
  4  1  1  0  0  0  0
  5  4  1  0  0  0  0
  5  3  2  0  0  0  0
  6  7  1  0  0  0  0
  7  3  1  0  0  0  0
  7 28  1  0  0  0  0
  7 29  1  0  0  0  0
  8  1  1  0  0  0  0
  9  6  1  0  0  0  0
  9 30  1  0  0  0  0
  9 31  1  0  0  0  0
 10  9  1  0  0  0  0
 11 14  1  0  0  0  0
 12 10  1  0  0  0  0
 12 32  1  0  0  0  0
 13  6  2  0  0  0  0
 14 12  1  0  0  0  0
 14 33  1  0  0  0  0
 14 34  1  0  0  0  0
 15 11  2  0  0  0  0
 15 35  1  0  0  0  0
 16 10  2  0  0  0  0
 17  8  2  0  0  0  0
 18  5  1  0  0  0  0
 18 36  1  0  0  0  0
 18 37  1  0  0  0  0
 18 38  1  0  0  0  0
 19  8  1  0  0  0  0
 19 39  1  0  0  0  0
 20 11  1  0  0  0  0
 20 40  1  0  0  0  0
 21 17  1  0  0  0  0
 21 41  1  0  0  0  0
 21 42  1  0  0  0  0
 21 43  1  0  0  0  0
 22 15  1  0  0  0  0
 22 27  2  0  0  0  0
 22 44  1  0  0  0  0
 23 17  1  0  0  0  0
 23 45  1  0  0  0  0
 24 19  2  0  0  0  0
 24 46  1  0  0  0  0
 25 20  2  0  0  0  0
 25 47  1  0  0  0  0
 26 24  1  0  0  0  0
 26 23  2  0  0  0  0
 26 48  1  0  0  0  0
 27 25  1  0  0  0  0
 27 49  1  0  0  0  0
M  END
>  <Mol_ID>
9282

>  <Formula>
C21H21ClN2O3S

>  <MolWeight>
416.92104

>  <Cat>
P2709

>  <Name>
WAY-332066

>  <Synonyms>
N/A

>  <Target>
beta-catenin

>  <Form>
free base

>  <CAS>
1015859-29-6

>  <URL>
N/A

$$$$
