WAY-299209
 OpenBabel08302521413D

 29 30  0  0  0  0  0  0  0  0999 V2000
    0.6385    0.7348   -0.0050 C   0  0  0  0  0  0  0  0  0  0  0  0
    0.6030   -0.6732    0.0001 C   0  0  0  0  0  0  0  0  0  0  0  0
   -0.5721    1.4508    0.0007 C   0  0  0  0  0  0  0  0  0  0  0  0
    1.9298    1.5037   -0.0056 C   0  0  0  0  0  0  0  0  0  0  0  0
   -0.6417   -1.3272    0.0036 C   0  0  0  0  0  0  0  0  0  0  0  0
    1.8421   -1.5263    0.0024 C   0  0  0  0  0  0  0  0  0  0  0  0
   -1.8015    0.7885    0.0492 C   0  0  0  0  0  0  0  0  0  0  0  0
   -1.8342   -0.6025    0.0239 C   0  0  0  0  0  0  0  0  0  0  0  0
   -3.0177    1.4324    0.0284 O   0  0  0  0  0  0  0  0  0  0  0  0
   -3.1593    2.6067    0.7602 C   0  0  0  0  0  0  0  0  0  0  0  0
   -4.1102    3.4885    0.3087 C   0  0  0  0  0  0  0  0  0  0  0  0
   -2.4139    2.8081    1.8637 N   0  0  0  0  0  0  0  0  0  0  0  0
   -4.2215    4.6423    1.0397 C   0  0  0  0  0  0  0  0  0  0  0  0
   -2.6136    3.9563    2.5077 C   0  0  0  0  0  0  0  0  0  0  0  0
   -3.4748    4.9046    2.1286 N   0  0  0  0  0  0  0  0  0  0  0  0
   -1.8246    4.2119    3.6092 N   0  0  0  0  0  0  0  0  0  0  0  0
   -0.5478    2.5374   -0.0202 H   0  0  0  0  0  0  0  0  0  0  0  0
    2.5090    1.2727    0.8941 H   0  0  0  0  0  0  0  0  0  0  0  0
    2.5174    1.2610   -0.8968 H   0  0  0  0  0  0  0  0  0  0  0  0
    1.7562    2.5857   -0.0127 H   0  0  0  0  0  0  0  0  0  0  0  0
   -0.6858   -2.4147   -0.0051 H   0  0  0  0  0  0  0  0  0  0  0  0
    1.8547   -2.1613    0.8946 H   0  0  0  0  0  0  0  0  0  0  0  0
    1.8592   -2.1622   -0.8891 H   0  0  0  0  0  0  0  0  0  0  0  0
    2.7646   -0.9406    0.0054 H   0  0  0  0  0  0  0  0  0  0  0  0
   -2.7856   -1.1264    0.0275 H   0  0  0  0  0  0  0  0  0  0  0  0
   -4.7146    3.2920   -0.5646 H   0  0  0  0  0  0  0  0  0  0  0  0
   -4.9309    5.4172    0.7659 H   0  0  0  0  0  0  0  0  0  0  0  0
   -1.7249    5.2092    3.7341 H   0  0  0  0  0  0  0  0  0  0  0  0
   -0.9801    3.6602    3.5549 H   0  0  0  0  0  0  0  0  0  0  0  0
  1  2  2  0  0  0  0
  1  3  1  0  0  0  0
  1  4  1  0  0  0  0
  2  5  1  0  0  0  0
  2  6  1  0  0  0  0
  3  7  2  0  0  0  0
  3 17  1  0  0  0  0
  4 18  1  0  0  0  0
  4 19  1  0  0  0  0
  4 20  1  0  0  0  0
  5  8  2  0  0  0  0
  5 21  1  0  0  0  0
  6 22  1  0  0  0  0
  6 23  1  0  0  0  0
  6 24  1  0  0  0  0
  7  9  1  0  0  0  0
  7  8  1  0  0  0  0
  8 25  1  0  0  0  0
  9 10  1  0  0  0  0
 10 11  2  0  0  0  0
 10 12  1  0  0  0  0
 11 13  1  0  0  0  0
 11 26  1  0  0  0  0
 12 14  2  0  0  0  0
 13 15  2  0  0  0  0
 13 27  1  0  0  0  0
 14 16  1  0  0  0  0
 14 15  1  0  0  0  0
 16 28  1  0  0  0  0
 16 29  1  0  0  0  0
M  END
>  <Mol_ID>
8359

>  <Formula>
C12H12ClN3O

>  <MolWeight>
249.69618

>  <Cat>
P2109

>  <Name>
WAY-299209

>  <Synonyms>
N/A

>  <Target>
Anti-infection

>  <Form>
free base

>  <CAS>
100763-74-4

>  <URL>
N/A

$$$$
