WAY-312197
 OpenBabel08302521393D

 38 40  0  0  0  0  0  0  0  0999 V2000
    5.1549   -0.1003   -4.2623 C   0  0  0  0  0  0  0  0  0  0  0  0
    5.6151   -1.1956   -4.9852 C   0  0  0  0  0  0  0  0  0  0  0  0
    4.9297   -0.4401   -2.9460 N   0  0  0  0  0  0  0  0  0  0  0  0
    5.0094    1.1089   -4.9541 C   0  0  0  0  0  0  0  0  0  0  0  0
    5.6772   -2.2094   -4.0762 N   0  0  0  0  0  0  0  0  0  0  0  0
    5.9310   -1.2635   -6.2905 N   0  0  0  0  0  0  0  0  0  0  0  0
    5.2636   -1.7090   -2.8764 C   0  0  0  0  0  0  0  0  0  0  0  0
    5.3310    1.1097   -6.3174 C   0  0  0  0  0  0  0  0  0  0  0  0
    5.7699   -0.0707   -6.9152 C   0  0  0  0  0  0  0  0  0  0  0  0
    5.2318   -2.7458   -1.4938 S   0  0  0  0  0  0  0  0  0  0  0  0
    4.5723   -1.6270   -0.2185 C   0  0  0  0  0  0  0  0  0  0  0  0
    4.5030   -2.3427    1.1233 C   0  0  0  0  0  0  0  0  0  0  0  0
    3.6307   -3.4309    1.1259 N   0  0  0  0  0  0  0  0  0  0  0  0
    5.1697   -1.9648    2.0880 O   0  0  0  0  0  0  0  0  0  0  0  0
    3.4462   -4.2846    2.2445 C   0  0  0  0  0  0  0  0  0  0  0  0
    2.9640   -3.7915    3.4778 C   0  0  0  0  0  0  0  0  0  0  0  0
    3.6597   -5.6727    2.0805 C   0  0  0  0  0  0  0  0  0  0  0  0
    2.7614   -4.6886    4.5420 C   0  0  0  0  0  0  0  0  0  0  0  0
    2.5805   -2.3528    3.6956 C   0  0  0  0  0  0  0  0  0  0  0  0
    3.4341   -6.5401    3.1626 C   0  0  0  0  0  0  0  0  0  0  0  0
    4.1977   -6.2640    0.8043 C   0  0  0  0  0  0  0  0  0  0  0  0
    2.9912   -6.0514    4.3860 C   0  0  0  0  0  0  0  0  0  0  0  0
    4.6668    2.0041   -4.4507 H   0  0  0  0  0  0  0  0  0  0  0  0
    5.9834   -3.1504   -4.2638 H   0  0  0  0  0  0  0  0  0  0  0  0
    5.2416    2.0174   -6.9047 H   0  0  0  0  0  0  0  0  0  0  0  0
    6.0191   -0.0819   -7.9751 H   0  0  0  0  0  0  0  0  0  0  0  0
    5.2229   -0.7524   -0.1148 H   0  0  0  0  0  0  0  0  0  0  0  0
    3.5677   -1.2872   -0.4896 H   0  0  0  0  0  0  0  0  0  0  0  0
    3.5386   -3.8668    0.2162 H   0  0  0  0  0  0  0  0  0  0  0  0
    2.3944   -4.3276    5.5012 H   0  0  0  0  0  0  0  0  0  0  0  0
    3.4613   -1.7162    3.7971 H   0  0  0  0  0  0  0  0  0  0  0  0
    1.9497   -1.9964    2.8751 H   0  0  0  0  0  0  0  0  0  0  0  0
    1.9934   -2.2364    4.6141 H   0  0  0  0  0  0  0  0  0  0  0  0
    3.6122   -7.6087    3.0605 H   0  0  0  0  0  0  0  0  0  0  0  0
    3.5212   -6.0637   -0.0314 H   0  0  0  0  0  0  0  0  0  0  0  0
    5.1897   -5.8547    0.5863 H   0  0  0  0  0  0  0  0  0  0  0  0
    4.3046   -7.3524    0.8807 H   0  0  0  0  0  0  0  0  0  0  0  0
    2.8190   -6.7320    5.2160 H   0  0  0  0  0  0  0  0  0  0  0  0
  1  2  2  0  0  0  0
  1  3  1  0  0  0  0
  1  4  1  0  0  0  0
  2  5  1  0  0  0  0
  2  6  1  0  0  0  0
  3  7  2  0  0  0  0
  4  8  2  0  0  0  0
  4 23  1  0  0  0  0
  5  7  1  0  0  0  0
  5 24  1  0  0  0  0
  6  9  2  0  0  0  0
  7 10  1  0  0  0  0
  8  9  1  0  0  0  0
  8 25  1  0  0  0  0
  9 26  1  0  0  0  0
 10 11  1  0  0  0  0
 11 12  1  0  0  0  0
 11 27  1  0  0  0  0
 11 28  1  0  0  0  0
 12 13  1  0  0  0  0
 12 14  2  0  0  0  0
 13 15  1  0  0  0  0
 13 29  1  0  0  0  0
 15 16  2  0  0  0  0
 15 17  1  0  0  0  0
 16 18  1  0  0  0  0
 16 19  1  0  0  0  0
 17 20  2  0  0  0  0
 17 21  1  0  0  0  0
 18 22  2  0  0  0  0
 18 30  1  0  0  0  0
 19 31  1  0  0  0  0
 19 32  1  0  0  0  0
 19 33  1  0  0  0  0
 20 22  1  0  0  0  0
 20 34  1  0  0  0  0
 21 35  1  0  0  0  0
 21 36  1  0  0  0  0
 21 37  1  0  0  0  0
 22 38  1  0  0  0  0
M  END
>  <Mol_ID>
8111

>  <Formula>
C16H16N4OS

>  <MolWeight>
312.38944

>  <Cat>
P2227

>  <Name>
WAY-312197

>  <Synonyms>
N/A

>  <Target>
NPP1

>  <Form>
free base

>  <CAS>
686743-70-4

>  <URL>
N/A

$$$$
