WAY-329284
 OpenBabel08302521453D

 40 43  0  0  0  0  0  0  0  0999 V2000
    1.0839   -0.0768    0.0754 S   0  0  0  0  0  0  0  0  0  0  0  0
   -0.3724    2.7090    4.2485 N   0  0  0  0  0  0  0  0  0  0  0  0
   -0.8084    2.3326    5.4357 C   0  0  0  0  0  0  0  0  0  0  0  0
   -0.9426    0.9604    5.4782 N   0  0  0  0  0  0  0  0  0  0  0  0
    2.7622   -0.1981    0.3123 N   0  0  0  0  0  0  0  0  0  0  0  0
   -0.1992    1.5591    3.5259 C   0  0  0  0  0  0  0  0  0  0  0  0
    0.4515    0.1026    1.7306 C   0  0  0  0  0  0  0  0  0  0  0  0
   -0.5376    0.4397    4.2739 C   0  0  0  0  0  0  0  0  0  0  0  0
    0.2851    1.4003    2.2255 C   0  0  0  0  0  0  0  0  0  0  0  0
    3.5126    1.0257    0.3238 C   0  0  0  0  0  0  0  0  0  0  0  0
    0.6474   -1.3631   -0.4177 O   0  0  0  0  0  0  0  0  0  0  0  0
    0.7851    1.1437   -0.6497 O   0  0  0  0  0  0  0  0  0  0  0  0
   -1.0225    3.2023    6.5908 C   0  0  0  0  0  0  0  0  0  0  0  0
    4.0365    1.5765   -0.8525 C   0  0  0  0  0  0  0  0  0  0  0  0
    0.0808   -1.0203    2.4899 C   0  0  0  0  0  0  0  0  0  0  0  0
   -0.4228   -0.8684    3.7926 C   0  0  0  0  0  0  0  0  0  0  0  0
    3.8636    0.9517   -2.0268 F   0  0  0  0  0  0  0  0  0  0  0  0
    3.6696    1.7172    1.5248 C   0  0  0  0  0  0  0  0  0  0  0  0
   -1.9709    2.8971    7.5757 C   0  0  0  0  0  0  0  0  0  0  0  0
   -0.2216    4.3424    6.7528 C   0  0  0  0  0  0  0  0  0  0  0  0
    4.7498    2.7757   -0.8296 C   0  0  0  0  0  0  0  0  0  0  0  0
    4.3679    2.9338    1.5471 C   0  0  0  0  0  0  0  0  0  0  0  0
   -0.3237    5.1267    7.9037 C   0  0  0  0  0  0  0  0  0  0  0  0
   -2.0801    3.6880    8.7220 C   0  0  0  0  0  0  0  0  0  0  0  0
    4.9148    3.4578    0.3751 C   0  0  0  0  0  0  0  0  0  0  0  0
   -1.2456    4.7914    8.8926 C   0  0  0  0  0  0  0  0  0  0  0  0
   -1.2186    0.4281    6.2907 H   0  0  0  0  0  0  0  0  0  0  0  0
    3.1353   -0.9353   -0.2901 H   0  0  0  0  0  0  0  0  0  0  0  0
    0.5555    2.2746    1.6422 H   0  0  0  0  0  0  0  0  0  0  0  0
    0.1896   -2.0245    2.0815 H   0  0  0  0  0  0  0  0  0  0  0  0
   -0.6907   -1.7281    4.3996 H   0  0  0  0  0  0  0  0  0  0  0  0
    3.2591    1.3262    2.4471 H   0  0  0  0  0  0  0  0  0  0  0  0
   -2.6311    2.0412    7.4676 H   0  0  0  0  0  0  0  0  0  0  0  0
    0.5132    4.6025    5.9924 H   0  0  0  0  0  0  0  0  0  0  0  0
    5.1599    3.1780   -1.7509 H   0  0  0  0  0  0  0  0  0  0  0  0
    4.4776    3.4736    2.4851 H   0  0  0  0  0  0  0  0  0  0  0  0
    0.3303    5.9852    8.0347 H   0  0  0  0  0  0  0  0  0  0  0  0
   -2.8044    3.4318    9.4908 H   0  0  0  0  0  0  0  0  0  0  0  0
    5.4587    4.4005    0.4015 H   0  0  0  0  0  0  0  0  0  0  0  0
   -1.3088    5.3861    9.8003 H   0  0  0  0  0  0  0  0  0  0  0  0
  2  6  1  0  0  0  0
  3  2  2  0  0  0  0
  3  4  1  0  0  0  0
  4  8  1  0  0  0  0
  4 27  1  0  0  0  0
  5  1  1  0  0  0  0
  5 28  1  0  0  0  0
  6  9  2  0  0  0  0
  7  1  1  0  0  0  0
  8 16  2  0  0  0  0
  8  6  1  0  0  0  0
  9  7  1  0  0  0  0
  9 29  1  0  0  0  0
 10  5  1  0  0  0  0
 11  1  2  0  0  0  0
 12  1  2  0  0  0  0
 13  3  1  0  0  0  0
 14 10  2  0  0  0  0
 15  7  2  0  0  0  0
 15 30  1  0  0  0  0
 16 15  1  0  0  0  0
 16 31  1  0  0  0  0
 17 14  1  0  0  0  0
 18 10  1  0  0  0  0
 18 32  1  0  0  0  0
 19 13  2  0  0  0  0
 19 33  1  0  0  0  0
 20 13  1  0  0  0  0
 20 34  1  0  0  0  0
 21 14  1  0  0  0  0
 21 35  1  0  0  0  0
 22 18  2  0  0  0  0
 22 36  1  0  0  0  0
 23 20  2  0  0  0  0
 23 37  1  0  0  0  0
 24 19  1  0  0  0  0
 24 38  1  0  0  0  0
 25 22  1  0  0  0  0
 25 21  2  0  0  0  0
 25 39  1  0  0  0  0
 26 23  1  0  0  0  0
 26 24  2  0  0  0  0
 26 40  1  0  0  0  0
M  END
>  <Mol_ID>
9340

>  <Formula>
C19H14FN3O2S

>  <MolWeight>
367.3967632

>  <Cat>
P2579

>  <Name>
WAY-329284

>  <Synonyms>
N/A

>  <Target>
mGluR4

>  <Form>
free base

>  <CAS>
689756-93-2

>  <URL>
N/A

$$$$
