WAY-326387
 OpenBabel08302521433D

 42 44  0  0  0  0  0  0  0  0999 V2000
   -0.1079   -0.7060   -0.1037 C   0  0  0  0  0  0  0  0  0  0  0  0
   -0.0048    0.6294   -0.0790 C   0  0  0  0  0  0  0  0  0  0  0  0
   -2.5098    0.7012   -0.1723 C   0  0  0  0  0  0  0  0  0  0  0  0
   -2.5069   -0.6484   -0.2067 C   0  0  0  0  0  0  0  0  0  0  0  0
   -1.3196   -1.3705   -0.1049 O   0  0  0  0  0  0  0  0  0  0  0  0
   -1.2362    1.5021   -0.0020 C   0  0  3  0  0  0  0  0  0  0  0  0
    1.1402   -1.5065   -0.1026 C   0  0  0  0  0  0  0  0  0  0  0  0
    1.2016    1.3096   -0.1088 O   0  0  0  0  0  0  0  0  0  0  0  0
    2.4095   -0.7518   -0.0707 C   0  0  0  0  0  0  0  0  0  0  0  0
   -3.7883    1.4518   -0.2547 C   0  0  0  0  0  0  0  0  0  0  0  0
    2.3861    0.5891   -0.0752 C   0  0  0  0  0  0  0  0  0  0  0  0
   -1.2089    2.3031    1.3026 C   0  0  0  0  0  0  0  0  0  0  0  0
   -3.6136   -1.4554   -0.3184 N   0  0  0  0  0  0  0  0  0  0  0  0
    1.1429   -2.7321   -0.1115 O   0  0  0  0  0  0  0  0  0  0  0  0
   -4.8805    0.9938    0.0503 O   0  0  0  0  0  0  0  0  0  0  0  0
   -3.5572    2.7148   -0.6947 O   0  0  0  0  0  0  0  0  0  0  0  0
    3.6053    1.4667   -0.0346 C   0  0  0  0  0  0  0  0  0  0  0  0
    4.8012    0.7024    0.0054 O   0  0  0  0  0  0  0  0  0  0  0  0
   -0.6533    3.5937    1.3145 C   0  0  0  0  0  0  0  0  0  0  0  0
   -1.6581    1.7526    2.5165 C   0  0  0  0  0  0  0  0  0  0  0  0
   -4.7143    3.5574   -0.7442 C   0  0  0  0  0  0  0  0  0  0  0  0
   -4.2660    4.9416   -1.1745 C   0  0  0  0  0  0  0  0  0  0  0  0
   -1.5639    2.4776    3.7036 C   0  0  0  0  0  0  0  0  0  0  0  0
   -0.5493    4.3106    2.5067 C   0  0  0  0  0  0  0  0  0  0  0  0
   -1.0044    3.7528    3.6992 C   0  0  0  0  0  0  0  0  0  0  0  0
   -1.1714    2.1984   -0.8508 H   0  0  0  0  0  0  0  0  0  0  0  0
    3.3237   -1.3297   -0.0407 H   0  0  0  0  0  0  0  0  0  0  0  0
   -3.4714   -2.3617    0.1207 H   0  0  0  0  0  0  0  0  0  0  0  0
   -4.4817   -0.9980   -0.0257 H   0  0  0  0  0  0  0  0  0  0  0  0
    3.6336    2.1040   -0.9245 H   0  0  0  0  0  0  0  0  0  0  0  0
    3.5734    2.1050    0.8555 H   0  0  0  0  0  0  0  0  0  0  0  0
    5.5370    1.3371    0.0469 H   0  0  0  0  0  0  0  0  0  0  0  0
   -0.2808    4.0406    0.3950 H   0  0  0  0  0  0  0  0  0  0  0  0
   -2.0793    0.7497    2.5546 H   0  0  0  0  0  0  0  0  0  0  0  0
   -5.4283    3.1547   -1.4705 H   0  0  0  0  0  0  0  0  0  0  0  0
   -5.1818    3.6119    0.2453 H   0  0  0  0  0  0  0  0  0  0  0  0
   -3.5744    5.3677   -0.4396 H   0  0  0  0  0  0  0  0  0  0  0  0
   -3.7274    4.8958   -2.1269 H   0  0  0  0  0  0  0  0  0  0  0  0
   -5.1213    5.6144   -1.2828 H   0  0  0  0  0  0  0  0  0  0  0  0
   -1.9179    2.0406    4.6335 H   0  0  0  0  0  0  0  0  0  0  0  0
   -0.1042    5.3021    2.5070 H   0  0  0  0  0  0  0  0  0  0  0  0
   -0.9175    4.3090    4.6289 H   0  0  0  0  0  0  0  0  0  0  0  0
  2  1  2  0  0  0  0
  3  4  2  0  0  0  0
  4  5  1  0  0  0  0
  5  1  1  0  0  0  0
  6  2  1  0  0  0  0
  6  3  1  0  0  0  0
  6 26  1  0  0  0  0
  7  1  1  0  0  0  0
  8  2  1  0  0  0  0
  8 11  1  0  0  0  0
  9  7  1  0  0  0  0
  9 27  1  0  0  0  0
 10  3  1  0  0  0  0
 11  9  2  0  0  0  0
 12  6  1  0  0  0  0
 13  4  1  0  0  0  0
 13 28  1  0  0  0  0
 13 29  1  0  0  0  0
 14  7  2  0  0  0  0
 15 10  2  0  0  0  0
 16 10  1  0  0  0  0
 17 11  1  0  0  0  0
 17 30  1  0  0  0  0
 17 31  1  0  0  0  0
 18 17  1  0  0  0  0
 18 32  1  0  0  0  0
 19 12  2  0  0  0  0
 19 33  1  0  0  0  0
 20 12  1  0  0  0  0
 20 34  1  0  0  0  0
 21 16  1  0  0  0  0
 21 35  1  0  0  0  0
 21 36  1  0  0  0  0
 22 21  1  0  0  0  0
 22 37  1  0  0  0  0
 22 38  1  0  0  0  0
 22 39  1  0  0  0  0
 23 20  2  0  0  0  0
 23 40  1  0  0  0  0
 24 19  1  0  0  0  0
 24 25  2  0  0  0  0
 24 41  1  0  0  0  0
 25 23  1  0  0  0  0
 25 42  1  0  0  0  0
M  END
>  <Mol_ID>
8917

>  <Formula>
C18H17NO6

>  <MolWeight>
343.33068

>  <Cat>
P2476

>  <Name>
WAY-326387

>  <Synonyms>
N/A

>  <Target>
Anti-infection

>  <Form>
free base

>  <CAS>
870758-11-5

>  <URL>
N/A

$$$$
