WAY-639009
 OpenBabel08302521433D

 42 44  0  0  0  0  0  0  0  0999 V2000
   -1.1525    0.1111   -0.2160 C   0  0  0  0  0  0  0  0  0  0  0  0
   -0.3488   -0.9982   -0.0417 N   0  0  0  0  0  0  0  0  0  0  0  0
   -0.3703    1.2305    0.0083 C   0  0  0  0  0  0  0  0  0  0  0  0
    0.9035   -0.6397    0.3291 N   0  0  0  0  0  0  0  0  0  0  0  0
    0.9102    0.6966    0.2993 C   0  0  0  0  0  0  0  0  0  0  0  0
   -0.7469    2.6348   -0.0489 C   0  0  0  0  0  0  0  0  0  0  0  0
   -0.6851   -2.3708   -0.2204 C   0  0  0  0  0  0  0  0  0  0  0  0
    0.0799    3.5266   -0.2157 O   0  0  0  0  0  0  0  0  0  0  0  0
   -2.0859    2.8901    0.1739 N   0  0  0  0  0  0  0  0  0  0  0  0
    2.1660    1.4368    0.5838 C   0  0  0  0  0  0  0  0  0  0  0  0
   -2.5279    4.2513    0.4322 C   0  0  0  0  0  0  0  0  0  0  0  0
   -4.4957    5.7368    0.9803 C   0  0  0  0  0  0  0  0  0  0  0  0
   -1.9319   -2.7574   -0.7295 C   0  0  0  0  0  0  0  0  0  0  0  0
    0.2631   -3.3583    0.0963 C   0  0  0  0  0  0  0  0  0  0  0  0
   -4.0288    4.3274    0.7137 C   0  0  0  0  0  0  0  0  0  0  0  0
   -4.9093    6.5586   -0.0768 C   0  0  0  0  0  0  0  0  0  0  0  0
   -4.5046    6.2525    2.2834 C   0  0  0  0  0  0  0  0  0  0  0  0
   -0.0297   -4.7092   -0.1024 C   0  0  0  0  0  0  0  0  0  0  0  0
   -2.2144   -4.1123   -0.9334 C   0  0  0  0  0  0  0  0  0  0  0  0
   -4.9263    7.5619    2.5245 C   0  0  0  0  0  0  0  0  0  0  0  0
   -5.3297    7.8682    0.1660 C   0  0  0  0  0  0  0  0  0  0  0  0
   -5.3384    8.3699    1.4658 C   0  0  0  0  0  0  0  0  0  0  0  0
   -1.2655   -5.0853   -0.6221 C   0  0  0  0  0  0  0  0  0  0  0  0
   -2.1868    0.0196   -0.5059 H   0  0  0  0  0  0  0  0  0  0  0  0
   -2.6514    2.1253    0.5157 H   0  0  0  0  0  0  0  0  0  0  0  0
    2.4238    2.0870   -0.2582 H   0  0  0  0  0  0  0  0  0  0  0  0
    2.0540    2.0531    1.4814 H   0  0  0  0  0  0  0  0  0  0  0  0
    3.0064    0.7532    0.7448 H   0  0  0  0  0  0  0  0  0  0  0  0
   -1.9569    4.6276    1.2898 H   0  0  0  0  0  0  0  0  0  0  0  0
   -2.2555    4.8673   -0.4330 H   0  0  0  0  0  0  0  0  0  0  0  0
   -2.6958   -2.0360   -0.9999 H   0  0  0  0  0  0  0  0  0  0  0  0
    1.2383   -3.0892    0.4990 H   0  0  0  0  0  0  0  0  0  0  0  0
   -4.5911    3.9075   -0.1307 H   0  0  0  0  0  0  0  0  0  0  0  0
   -4.2781    3.6926    1.5735 H   0  0  0  0  0  0  0  0  0  0  0  0
   -4.9094    6.1844   -1.0980 H   0  0  0  0  0  0  0  0  0  0  0  0
   -4.1852    5.6392    3.1233 H   0  0  0  0  0  0  0  0  0  0  0  0
    0.7126   -5.4655    0.1429 H   0  0  0  0  0  0  0  0  0  0  0  0
   -3.1755   -4.4101   -1.3461 H   0  0  0  0  0  0  0  0  0  0  0  0
   -4.9327    7.9540    3.5385 H   0  0  0  0  0  0  0  0  0  0  0  0
   -5.6495    8.4974   -0.6605 H   0  0  0  0  0  0  0  0  0  0  0  0
   -5.6643    9.3894    1.6534 H   0  0  0  0  0  0  0  0  0  0  0  0
   -1.4875   -6.1362   -0.7885 H   0  0  0  0  0  0  0  0  0  0  0  0
  1 24  1  0  0  0  0
  2  1  1  0  0  0  0
  3  1  2  0  0  0  0
  4  2  1  0  0  0  0
  4  5  2  0  0  0  0
  5  3  1  0  0  0  0
  6  3  1  0  0  0  0
  7  2  1  0  0  0  0
  8  6  2  0  0  0  0
  9  6  1  0  0  0  0
  9 25  1  0  0  0  0
 10  5  1  0  0  0  0
 10 26  1  0  0  0  0
 10 27  1  0  0  0  0
 10 28  1  0  0  0  0
 11  9  1  0  0  0  0
 11 29  1  0  0  0  0
 11 30  1  0  0  0  0
 12 15  1  0  0  0  0
 13  7  2  0  0  0  0
 13 31  1  0  0  0  0
 14  7  1  0  0  0  0
 14 32  1  0  0  0  0
 15 11  1  0  0  0  0
 15 33  1  0  0  0  0
 15 34  1  0  0  0  0
 16 12  2  0  0  0  0
 16 35  1  0  0  0  0
 17 12  1  0  0  0  0
 17 36  1  0  0  0  0
 18 14  2  0  0  0  0
 18 37  1  0  0  0  0
 19 13  1  0  0  0  0
 19 38  1  0  0  0  0
 20 17  2  0  0  0  0
 20 39  1  0  0  0  0
 21 16  1  0  0  0  0
 21 40  1  0  0  0  0
 22 20  1  0  0  0  0
 22 21  2  0  0  0  0
 22 41  1  0  0  0  0
 23 18  1  0  0  0  0
 23 19  2  0  0  0  0
 23 42  1  0  0  0  0
M  END
>  <Mol_ID>
8800

>  <Formula>
C19H18ClN3O

>  <MolWeight>
339.81872

>  <Cat>
P3064

>  <Name>
WAY-639009

>  <Synonyms>
N/A

>  <Target>
p38

>  <Form>
free base

>  <CAS>
956323-98-1

>  <URL>
N/A

$$$$
