WAY-327360
 OpenBabel08302521443D

 56 59  0  0  0  0  0  0  0  0999 V2000
    1.1647   -0.1621   -0.2273 S   0  0  0  0  0  0  0  0  0  0  0  0
   -1.0868    1.6180   -5.8029 C   0  0  0  0  0  0  0  0  0  0  0  0
   -0.2831   -0.5311    0.6107 N   0  0  0  0  0  0  0  0  0  0  0  0
   -0.4229    2.2316   -4.7414 C   0  0  0  0  0  0  0  0  0  0  0  0
   -1.1083    0.2604   -5.5987 O   0  0  0  0  0  0  0  0  0  0  0  0
   -0.0353    1.1793   -3.8490 C   0  0  0  0  0  0  0  0  0  0  0  0
    0.6286   -0.1144   -1.9261 C   0  0  0  0  0  0  0  0  0  0  0  0
   -0.5226    0.0046   -4.4016 C   0  0  0  0  0  0  0  0  0  0  0  0
   -1.7297    2.1107   -7.0144 C   0  0  0  0  0  0  0  0  0  0  0  0
    0.6224    1.1161   -2.6055 C   0  0  0  0  0  0  0  0  0  0  0  0
    2.0636   -1.2896   -0.0913 O   0  0  0  0  0  0  0  0  0  0  0  0
    1.5940    1.1724    0.1455 O   0  0  0  0  0  0  0  0  0  0  0  0
   -2.2142    3.4032   -6.9487 N   0  0  0  0  0  0  0  0  0  0  0  0
   -1.4757    0.3275    0.3935 C   0  0  0  0  0  0  0  0  0  0  0  0
    0.1158   -1.2807   -2.5056 C   0  0  0  0  0  0  0  0  0  0  0  0
   -0.4473   -1.2456   -3.7860 C   0  0  0  0  0  0  0  0  0  0  0  0
   -1.8540    1.4341   -8.0328 O   0  0  0  0  0  0  0  0  0  0  0  0
   -2.7405    4.0960   -8.1042 C   0  0  0  0  0  0  0  0  0  0  0  0
   -0.1237   -0.8646    2.0504 C   0  0  0  0  0  0  0  0  0  0  0  0
   -0.1905    3.6798   -4.5063 C   0  0  0  0  0  0  0  0  0  0  0  0
   -1.3479    1.6555    1.1386 C   0  0  3  0  0  0  0  0  0  0  0  0
   -4.1417    4.6010   -7.8751 C   0  0  0  0  0  0  0  0  0  0  0  0
   -0.0164    0.3930    2.9096 C   0  0  0  0  0  0  0  0  0  0  0  0
   -1.1319    1.4069    2.6376 C   0  0  0  0  0  0  0  0  0  0  0  0
   -4.4321    5.9730   -7.8933 C   0  0  0  0  0  0  0  0  0  0  0  0
   -5.1957    3.6907   -7.6903 C   0  0  0  0  0  0  0  0  0  0  0  0
   -2.5690    2.5388    0.8908 C   0  0  0  0  0  0  0  0  0  0  0  0
   -5.7391    6.4278   -7.7339 C   0  0  0  0  0  0  0  0  0  0  0  0
   -6.5055    4.1492   -7.5285 C   0  0  0  0  0  0  0  0  0  0  0  0
   -6.7777    5.5151   -7.5521 C   0  0  0  0  0  0  0  0  0  0  0  0
    1.0437    2.0099   -2.1543 H   0  0  0  0  0  0  0  0  0  0  0  0
   -2.2442    3.8825   -6.0629 H   0  0  0  0  0  0  0  0  0  0  0  0
   -1.6522    0.4821   -0.6743 H   0  0  0  0  0  0  0  0  0  0  0  0
   -2.3561   -0.2240    0.7533 H   0  0  0  0  0  0  0  0  0  0  0  0
    0.1245   -2.2154   -1.9466 H   0  0  0  0  0  0  0  0  0  0  0  0
   -0.8656   -2.1291   -4.2540 H   0  0  0  0  0  0  0  0  0  0  0  0
   -2.0625    4.9380   -8.2853 H   0  0  0  0  0  0  0  0  0  0  0  0
   -2.7161    3.4661   -8.9993 H   0  0  0  0  0  0  0  0  0  0  0  0
   -0.9955   -1.4553    2.3610 H   0  0  0  0  0  0  0  0  0  0  0  0
    0.7457   -1.5124    2.2034 H   0  0  0  0  0  0  0  0  0  0  0  0
   -1.0095    4.0832   -3.9003 H   0  0  0  0  0  0  0  0  0  0  0  0
    0.7462    3.8512   -3.9675 H   0  0  0  0  0  0  0  0  0  0  0  0
   -0.1368    4.2456   -5.4398 H   0  0  0  0  0  0  0  0  0  0  0  0
   -0.4850    2.2054    0.7519 H   0  0  0  0  0  0  0  0  0  0  0  0
    0.9542    0.8720    2.7409 H   0  0  0  0  0  0  0  0  0  0  0  0
   -0.0417    0.1088    3.9687 H   0  0  0  0  0  0  0  0  0  0  0  0
   -0.8872    2.3526    3.1367 H   0  0  0  0  0  0  0  0  0  0  0  0
   -2.0621    1.0438    3.0925 H   0  0  0  0  0  0  0  0  0  0  0  0
   -3.6353    6.7018   -8.0515 H   0  0  0  0  0  0  0  0  0  0  0  0
   -5.0016    2.6227   -7.6896 H   0  0  0  0  0  0  0  0  0  0  0  0
   -3.4696    2.1263    1.3565 H   0  0  0  0  0  0  0  0  0  0  0  0
   -2.4024    3.5414    1.2985 H   0  0  0  0  0  0  0  0  0  0  0  0
   -2.7595    2.6452   -0.1830 H   0  0  0  0  0  0  0  0  0  0  0  0
   -5.9536    7.4955   -7.7595 H   0  0  0  0  0  0  0  0  0  0  0  0
   -7.3108    3.4365   -7.3898 H   0  0  0  0  0  0  0  0  0  0  0  0
   -7.7982    5.8695   -7.4339 H   0  0  0  0  0  0  0  0  0  0  0  0
  2  4  2  0  0  0  0
  3  1  1  0  0  0  0
  4  6  1  0  0  0  0
  5  8  1  0  0  0  0
  5  2  1  0  0  0  0
  6 10  2  0  0  0  0
  6  8  1  0  0  0  0
  7  1  1  0  0  0  0
  8 16  2  0  0  0  0
  9  2  1  0  0  0  0
 10  7  1  0  0  0  0
 10 31  1  0  0  0  0
 11  1  2  0  0  0  0
 12  1  2  0  0  0  0
 13  9  1  0  0  0  0
 13 32  1  0  0  0  0
 14  3  1  0  0  0  0
 14 33  1  0  0  0  0
 14 34  1  0  0  0  0
 15  7  2  0  0  0  0
 15 35  1  0  0  0  0
 16 15  1  0  0  0  0
 16 36  1  0  0  0  0
 17  9  2  0  0  0  0
 18 13  1  0  0  0  0
 18 37  1  0  0  0  0
 18 38  1  0  0  0  0
 19  3  1  0  0  0  0
 19 39  1  0  0  0  0
 19 40  1  0  0  0  0
 20  4  1  0  0  0  0
 20 41  1  0  0  0  0
 20 42  1  0  0  0  0
 20 43  1  0  0  0  0
 21 14  1  0  0  0  0
 21 24  1  0  0  0  0
 21 44  1  0  0  0  0
 22 18  1  0  0  0  0
 23 19  1  0  0  0  0
 23 45  1  0  0  0  0
 23 46  1  0  0  0  0
 24 23  1  0  0  0  0
 24 47  1  0  0  0  0
 24 48  1  0  0  0  0
 25 22  2  0  0  0  0
 25 49  1  0  0  0  0
 26 22  1  0  0  0  0
 26 50  1  0  0  0  0
 27 21  1  0  0  0  0
 27 51  1  0  0  0  0
 27 52  1  0  0  0  0
 27 53  1  0  0  0  0
 28 25  1  0  0  0  0
 28 30  2  0  0  0  0
 28 54  1  0  0  0  0
 29 26  2  0  0  0  0
 29 55  1  0  0  0  0
 30 29  1  0  0  0  0
 30 56  1  0  0  0  0
M  END
>  <Mol_ID>
8963

>  <Formula>
C23H26N2O4S

>  <MolWeight>
426.52854

>  <Cat>
P2523

>  <Name>
WAY-327360

>  <Synonyms>
N/A

>  <Target>
calcium channel

>  <Form>
free base

>  <CAS>
687573-14-4

>  <URL>
N/A

$$$$
