WAY-312491
 OpenBabel08302521393D

 48 50  0  0  0  0  0  0  0  0999 V2000
   -0.8255   -0.5403   -0.6751 C   0  0  0  0  0  0  0  0  0  0  0  0
   -0.1499    0.6739   -0.6956 N   0  0  0  0  0  0  0  0  0  0  0  0
   -2.0633   -0.8545   -1.4078 C   0  0  0  0  0  0  0  0  0  0  0  0
   -0.1715   -1.3411    0.1521 N   0  0  0  0  0  0  0  0  0  0  0  0
    0.9797    0.5029    0.0641 C   0  0  0  0  0  0  0  0  0  0  0  0
   -0.5930    1.8968   -1.3360 C   0  0  0  0  0  0  0  0  0  0  0  0
   -2.2479   -0.4429   -2.7389 C   0  0  0  0  0  0  0  0  0  0  0  0
   -3.1114   -1.5689   -0.8050 C   0  0  0  0  0  0  0  0  0  0  0  0
    0.9728   -0.6977    0.5907 N   0  0  0  0  0  0  0  0  0  0  0  0
    2.1646    1.7468    0.3087 S   0  0  0  0  0  0  0  0  0  0  0  0
    0.0241    2.0991   -2.7119 C   0  0  0  0  0  0  0  0  0  0  0  0
   -3.4648   -0.6112   -3.4037 C   0  0  0  0  0  0  0  0  0  0  0  0
   -4.3209   -1.7779   -1.4854 C   0  0  0  0  0  0  0  0  0  0  0  0
    3.7065    0.8002    0.4455 C   0  0  0  0  0  0  0  0  0  0  0  0
   -4.5086   -1.2757   -2.7708 C   0  0  0  0  0  0  0  0  0  0  0  0
    4.8928    1.7616    0.5138 C   0  0  0  0  0  0  0  0  0  0  0  0
    5.3079    2.1168    1.7851 N   0  0  0  0  0  0  0  0  0  0  0  0
    5.4441    2.1765   -0.5079 O   0  0  0  0  0  0  0  0  0  0  0  0
    6.4357    3.0260    2.0091 C   0  0  0  0  0  0  0  0  0  0  0  0
    7.1243    2.7271    3.3495 C   0  0  0  0  0  0  0  0  0  0  0  0
    6.0000    4.4981    1.9558 C   0  0  0  0  0  0  0  0  0  0  0  0
    8.3119    3.6598    3.5886 C   0  0  0  0  0  0  0  0  0  0  0  0
    7.1663    5.4523    2.2278 C   0  0  0  0  0  0  0  0  0  0  0  0
    7.8944    5.1260    3.5294 C   0  0  0  0  0  0  0  0  0  0  0  0
   -1.6863    1.8659   -1.3984 H   0  0  0  0  0  0  0  0  0  0  0  0
   -0.3639    2.7411   -0.6791 H   0  0  0  0  0  0  0  0  0  0  0  0
   -1.4462    0.0258   -3.2940 H   0  0  0  0  0  0  0  0  0  0  0  0
   -2.9962   -1.9617    0.2014 H   0  0  0  0  0  0  0  0  0  0  0  0
    0.3285    1.1588   -3.1831 H   0  0  0  0  0  0  0  0  0  0  0  0
   -0.6903    2.6003   -3.3732 H   0  0  0  0  0  0  0  0  0  0  0  0
    0.9176    2.7261   -2.6484 H   0  0  0  0  0  0  0  0  0  0  0  0
   -3.5890   -0.2272   -4.4139 H   0  0  0  0  0  0  0  0  0  0  0  0
   -5.1250   -2.3315   -1.0074 H   0  0  0  0  0  0  0  0  0  0  0  0
    3.6968    0.1585    1.3310 H   0  0  0  0  0  0  0  0  0  0  0  0
    3.8431    0.1642   -0.4359 H   0  0  0  0  0  0  0  0  0  0  0  0
   -5.4556   -1.4122   -3.2890 H   0  0  0  0  0  0  0  0  0  0  0  0
    4.6856    1.9265    2.5622 H   0  0  0  0  0  0  0  0  0  0  0  0
    7.1631    2.8533    1.2052 H   0  0  0  0  0  0  0  0  0  0  0  0
    6.4065    2.8369    4.1727 H   0  0  0  0  0  0  0  0  0  0  0  0
    7.4692    1.6869    3.3721 H   0  0  0  0  0  0  0  0  0  0  0  0
    5.5673    4.7285    0.9755 H   0  0  0  0  0  0  0  0  0  0  0  0
    5.2087    4.6760    2.6954 H   0  0  0  0  0  0  0  0  0  0  0  0
    8.7634    3.4461    4.5645 H   0  0  0  0  0  0  0  0  0  0  0  0
    9.0850    3.4709    2.8330 H   0  0  0  0  0  0  0  0  0  0  0  0
    6.7973    6.4839    2.2666 H   0  0  0  0  0  0  0  0  0  0  0  0
    7.8789    5.4020    1.3952 H   0  0  0  0  0  0  0  0  0  0  0  0
    7.2425    5.3543    4.3815 H   0  0  0  0  0  0  0  0  0  0  0  0
    8.7791    5.7664    3.6281 H   0  0  0  0  0  0  0  0  0  0  0  0
  1  2  1  0  0  0  0
  1  3  1  0  0  0  0
  1  4  2  0  0  0  0
  2  5  1  0  0  0  0
  2  6  1  0  0  0  0
  3  7  2  0  0  0  0
  3  8  1  0  0  0  0
  4  9  1  0  0  0  0
  5 10  1  0  0  0  0
  5  9  2  0  0  0  0
  6 11  1  0  0  0  0
  6 25  1  0  0  0  0
  6 26  1  0  0  0  0
  7 12  1  0  0  0  0
  7 27  1  0  0  0  0
  8 13  2  0  0  0  0
  8 28  1  0  0  0  0
 10 14  1  0  0  0  0
 11 29  1  0  0  0  0
 11 30  1  0  0  0  0
 11 31  1  0  0  0  0
 12 15  2  0  0  0  0
 12 32  1  0  0  0  0
 13 15  1  0  0  0  0
 13 33  1  0  0  0  0
 14 16  1  0  0  0  0
 14 34  1  0  0  0  0
 14 35  1  0  0  0  0
 15 36  1  0  0  0  0
 16 17  1  0  0  0  0
 16 18  2  0  0  0  0
 17 19  1  0  0  0  0
 17 37  1  0  0  0  0
 19 20  1  0  0  0  0
 19 21  1  0  0  0  0
 19 38  1  0  0  0  0
 20 22  1  0  0  0  0
 20 39  1  0  0  0  0
 20 40  1  0  0  0  0
 21 23  1  0  0  0  0
 21 41  1  0  0  0  0
 21 42  1  0  0  0  0
 22 24  1  0  0  0  0
 22 43  1  0  0  0  0
 22 44  1  0  0  0  0
 23 24  1  0  0  0  0
 23 45  1  0  0  0  0
 23 46  1  0  0  0  0
 24 47  1  0  0  0  0
 24 48  1  0  0  0  0
M  END
>  <Mol_ID>
8105

>  <Formula>
C18H24N4OS

>  <MolWeight>
344.47436

>  <Cat>
P2234

>  <Name>
WAY-312491

>  <Synonyms>
N/A

>  <Target>
11bHSD1

>  <Form>
free base

>  <CAS>
609792-38-3

>  <URL>
N/A

$$$$
