WAY-639024-A
 OpenBabel08302521433D

 54 57  0  0  0  0  0  0  0  0999 V2000
    2.0428   -0.1265    0.1995 C   0  0  0  0  0  0  0  0  0  0  0  0
    2.6442   -1.3800    0.4126 N   0  0  0  0  0  0  0  0  0  0  0  0
    4.5117   -3.6401    0.7005 N   0  0  0  0  0  0  0  0  0  0  0  0
    1.2347    0.1120   -1.0205 C   0  0  0  0  0  0  0  0  0  0  0  0
    5.8404   -3.6014    0.0580 C   0  0  0  0  0  0  0  0  0  0  0  0
    2.8255   -2.3761   -0.6598 C   0  0  0  0  0  0  0  0  0  0  0  0
    3.6883   -1.3601    1.4403 C   0  0  0  0  0  0  0  0  0  0  0  0
    4.2293   -2.7400    1.8203 C   0  0  0  0  0  0  0  0  0  0  0  0
    3.3660   -3.7268   -0.1898 C   0  0  0  0  0  0  0  0  0  0  0  0
    2.2030    0.8242    0.9660 O   0  0  0  0  0  0  0  0  0  0  0  0
    1.3819    1.3341   -1.6880 C   0  0  0  0  0  0  0  0  0  0  0  0
    6.3102   -2.2453   -0.5067 C   0  0  0  0  0  0  0  0  0  0  0  0
    6.9043   -4.3183    0.9133 C   0  0  0  0  0  0  0  0  0  0  0  0
    0.6676    1.5815   -2.8656 C   0  0  0  0  0  0  0  0  0  0  0  0
    0.3146   -0.8253   -1.4927 C   0  0  0  0  0  0  0  0  0  0  0  0
   -0.3079   -0.6342   -2.7215 C   0  0  0  0  0  0  0  0  0  0  0  0
    6.5796   -4.9677    2.1206 C   0  0  0  0  0  0  0  0  0  0  0  0
    8.2372   -4.3850    0.4753 C   0  0  0  0  0  0  0  0  0  0  0  0
    7.0097   -1.3206    0.2831 C   0  0  0  0  0  0  0  0  0  0  0  0
    6.1343   -1.9418   -1.8695 C   0  0  0  0  0  0  0  0  0  0  0  0
   -0.1275    0.5639   -3.4083 C   0  0  0  0  0  0  0  0  0  0  0  0
    0.6918    2.9315   -3.5161 C   0  0  0  0  0  0  0  0  0  0  0  0
    9.2149   -5.0169    1.2530 C   0  0  0  0  0  0  0  0  0  0  0  0
    7.5338   -0.1501   -0.2670 C   0  0  0  0  0  0  0  0  0  0  0  0
    6.6522   -0.7603   -2.4189 C   0  0  0  0  0  0  0  0  0  0  0  0
    7.5536   -5.5868    2.9012 C   0  0  0  0  0  0  0  0  0  0  0  0
    7.3608    0.1313   -1.6196 C   0  0  0  0  0  0  0  0  0  0  0  0
    8.8690   -5.6078    2.4671 C   0  0  0  0  0  0  0  0  0  0  0  0
    5.7749   -4.2739   -0.8115 H   0  0  0  0  0  0  0  0  0  0  0  0
    1.8701   -2.6056   -1.1253 H   0  0  0  0  0  0  0  0  0  0  0  0
    3.4549   -1.9306   -1.4287 H   0  0  0  0  0  0  0  0  0  0  0  0
    4.4942   -0.7171    1.0764 H   0  0  0  0  0  0  0  0  0  0  0  0
    3.2879   -0.8814    2.3421 H   0  0  0  0  0  0  0  0  0  0  0  0
    3.4561   -3.2347    2.4276 H   0  0  0  0  0  0  0  0  0  0  0  0
    5.0852   -2.6305    2.4946 H   0  0  0  0  0  0  0  0  0  0  0  0
    2.5645   -4.2373    0.3675 H   0  0  0  0  0  0  0  0  0  0  0  0
    3.5616   -4.3797   -1.0474 H   0  0  0  0  0  0  0  0  0  0  0  0
    2.0414    2.0953   -1.2722 H   0  0  0  0  0  0  0  0  0  0  0  0
    0.0875   -1.7159   -0.9145 H   0  0  0  0  0  0  0  0  0  0  0  0
   -0.9509   -1.4092   -3.1290 H   0  0  0  0  0  0  0  0  0  0  0  0
    5.5541   -4.9969    2.4805 H   0  0  0  0  0  0  0  0  0  0  0  0
    8.5340   -3.9299   -0.4677 H   0  0  0  0  0  0  0  0  0  0  0  0
    7.1824   -1.5226    1.3385 H   0  0  0  0  0  0  0  0  0  0  0  0
    5.6071   -2.6270   -2.5284 H   0  0  0  0  0  0  0  0  0  0  0  0
   -0.6463    0.7185   -4.3512 H   0  0  0  0  0  0  0  0  0  0  0  0
    1.0343    2.8562   -4.5516 H   0  0  0  0  0  0  0  0  0  0  0  0
   -0.3186    3.3558   -3.5001 H   0  0  0  0  0  0  0  0  0  0  0  0
    1.3496    3.6256   -2.9835 H   0  0  0  0  0  0  0  0  0  0  0  0
   10.2432   -5.0430    0.9074 H   0  0  0  0  0  0  0  0  0  0  0  0
    8.0971    0.5416    0.3594 H   0  0  0  0  0  0  0  0  0  0  0  0
    6.5160   -0.5434   -3.4773 H   0  0  0  0  0  0  0  0  0  0  0  0
    7.2731   -6.0498    3.8420 H   0  0  0  0  0  0  0  0  0  0  0  0
    7.7833    1.0367   -2.0490 H   0  0  0  0  0  0  0  0  0  0  0  0
    9.6337   -6.0884    3.0725 H   0  0  0  0  0  0  0  0  0  0  0  0
  2  1  1  0  0  0  0
  3  8  1  0  0  0  0
  3  9  1  0  0  0  0
  4  1  1  0  0  0  0
  5  3  1  0  0  0  0
  5 29  1  0  0  0  0
  6  2  1  0  0  0  0
  6 30  1  0  0  0  0
  6 31  1  0  0  0  0
  7  2  1  0  0  0  0
  7 32  1  0  0  0  0
  7 33  1  0  0  0  0
  8  7  1  0  0  0  0
  8 34  1  0  0  0  0
  8 35  1  0  0  0  0
  9  6  1  0  0  0  0
  9 36  1  0  0  0  0
  9 37  1  0  0  0  0
 10  1  2  0  0  0  0
 11  4  2  0  0  0  0
 11 38  1  0  0  0  0
 12  5  1  0  0  0  0
 13  5  1  0  0  0  0
 14 11  1  0  0  0  0
 15  4  1  0  0  0  0
 15 39  1  0  0  0  0
 16 15  2  0  0  0  0
 16 40  1  0  0  0  0
 17 13  2  0  0  0  0
 17 41  1  0  0  0  0
 18 13  1  0  0  0  0
 18 42  1  0  0  0  0
 19 12  2  0  0  0  0
 19 43  1  0  0  0  0
 20 12  1  0  0  0  0
 20 44  1  0  0  0  0
 21 16  1  0  0  0  0
 21 14  2  0  0  0  0
 21 45  1  0  0  0  0
 22 14  1  0  0  0  0
 22 46  1  0  0  0  0
 22 47  1  0  0  0  0
 22 48  1  0  0  0  0
 23 18  2  0  0  0  0
 23 49  1  0  0  0  0
 24 19  1  0  0  0  0
 24 50  1  0  0  0  0
 25 20  2  0  0  0  0
 25 27  1  0  0  0  0
 25 51  1  0  0  0  0
 26 17  1  0  0  0  0
 26 52  1  0  0  0  0
 27 24  2  0  0  0  0
 27 53  1  0  0  0  0
 28 23  1  0  0  0  0
 28 26  2  0  0  0  0
 28 54  1  0  0  0  0
M  END
>  <Mol_ID>
8803

>  <Formula>
C25H26N2O

>  <MolWeight>
370.48674

>  <Cat>
P3067

>  <Name>
WAY-639024-A

>  <Synonyms>
N/A

>  <Target>
sodium channel

>  <Form>
free base

>  <CAS>
497228-34-9

>  <URL>
N/A

$$$$
