WAY-299860
 OpenBabel08302521413D

 33 36  0  0  0  0  0  0  0  0999 V2000
    0.7530    0.4423    0.0345 C   0  0  0  0  0  0  0  0  0  0  0  0
    1.1241   -0.8876    0.0919 C   0  0  0  0  0  0  0  0  0  0  0  0
   -0.6690    0.5016    0.0308 C   0  0  0  0  0  0  0  0  0  0  0  0
    1.7132    1.3976   -0.0175 N   0  0  0  0  0  0  0  0  0  0  0  0
   -0.0143   -1.6372    0.1158 N   0  0  0  0  0  0  0  0  0  0  0  0
    2.3753   -1.3715    0.1016 N   0  0  0  0  0  0  0  0  0  0  0  0
   -1.1255   -0.8224    0.0650 C   0  0  0  0  0  0  0  0  0  0  0  0
   -1.6237    1.5395   -0.0143 C   0  0  0  0  0  0  0  0  0  0  0  0
    2.9823    0.9470   -0.0402 N   0  0  0  0  0  0  0  0  0  0  0  0
    3.2928   -0.3827    0.0174 C   0  0  0  0  0  0  0  0  0  0  0  0
   -2.4844   -1.1569    0.0426 C   0  0  0  0  0  0  0  0  0  0  0  0
   -2.9875    1.2185   -0.0280 C   0  0  0  0  0  0  0  0  0  0  0  0
    4.6658   -0.6997   -0.0790 N   0  0  0  0  0  0  0  0  0  0  0  0
   -3.4080   -0.1092   -0.0044 C   0  0  0  0  0  0  0  0  0  0  0  0
    5.1495   -1.8250    0.5348 N   0  0  0  0  0  0  0  0  0  0  0  0
    6.4251   -1.9952    0.3569 C   0  0  0  0  0  0  0  0  0  0  0  0
    7.2027   -3.0909    0.9731 C   0  0  0  0  0  0  0  0  0  0  0  0
    6.6094   -4.0412    1.7925 C   0  0  0  0  0  0  0  0  0  0  0  0
    8.5335   -3.0447    0.7090 N   0  0  0  0  0  0  0  0  0  0  0  0
    7.4327   -4.9940    2.3901 C   0  0  0  0  0  0  0  0  0  0  0  0
    9.3003   -3.9854    1.3013 C   0  0  0  0  0  0  0  0  0  0  0  0
    8.8031   -4.9655    2.1458 C   0  0  0  0  0  0  0  0  0  0  0  0
   -0.0219   -2.6446    0.1462 H   0  0  0  0  0  0  0  0  0  0  0  0
   -1.3067    2.5788   -0.0406 H   0  0  0  0  0  0  0  0  0  0  0  0
   -2.8166   -2.1902    0.0578 H   0  0  0  0  0  0  0  0  0  0  0  0
   -3.7275    2.0161   -0.0626 H   0  0  0  0  0  0  0  0  0  0  0  0
    5.1906    0.1690   -0.0055 H   0  0  0  0  0  0  0  0  0  0  0  0
   -4.4721   -0.3371   -0.0232 H   0  0  0  0  0  0  0  0  0  0  0  0
    7.0135   -1.3014   -0.2711 H   0  0  0  0  0  0  0  0  0  0  0  0
    5.5399   -4.0356    1.9741 H   0  0  0  0  0  0  0  0  0  0  0  0
    7.0108   -5.7482    3.0491 H   0  0  0  0  0  0  0  0  0  0  0  0
   10.3623   -3.9267    1.0785 H   0  0  0  0  0  0  0  0  0  0  0  0
    9.4694   -5.6883    2.6050 H   0  0  0  0  0  0  0  0  0  0  0  0
  1  2  1  0  0  0  0
  1  3  1  0  0  0  0
  1  4  2  0  0  0  0
  2  5  1  0  0  0  0
  2  6  2  0  0  0  0
  3  7  2  0  0  0  0
  3  8  1  0  0  0  0
  4  9  1  0  0  0  0
  5  7  1  0  0  0  0
  5 23  1  0  0  0  0
  6 10  1  0  0  0  0
  7 11  1  0  0  0  0
  8 12  2  0  0  0  0
  8 24  1  0  0  0  0
  9 10  2  0  0  0  0
 10 13  1  0  0  0  0
 11 14  2  0  0  0  0
 11 25  1  0  0  0  0
 12 14  1  0  0  0  0
 12 26  1  0  0  0  0
 13 15  1  0  0  0  0
 13 27  1  0  0  0  0
 14 28  1  0  0  0  0
 15 16  2  0  0  0  0
 16 17  1  0  0  0  0
 16 29  1  0  0  0  0
 17 18  2  0  0  0  0
 17 19  1  0  0  0  0
 18 20  1  0  0  0  0
 18 30  1  0  0  0  0
 19 21  2  0  0  0  0
 20 22  2  0  0  0  0
 20 31  1  0  0  0  0
 21 22  1  0  0  0  0
 21 32  1  0  0  0  0
 22 33  1  0  0  0  0
M  END
>  <Mol_ID>
8394

>  <Formula>
C15H11N7

>  <MolWeight>
289.29474

>  <Cat>
P2120

>  <Name>
WAY-299860

>  <Synonyms>
N/A

>  <Target>
VEGF,autophagy

>  <Form>
free base

>  <CAS>
324031-29-0

>  <URL>
N/A

$$$$
