WAY-359440
 OpenBabel08302521393D

 40 42  0  0  0  0  0  0  0  0999 V2000
   -2.6631   -1.5716    0.5878 N   0  0  0  0  0  0  0  0  0  0  0  0
   -3.1556   -1.3261    1.7893 C   0  0  0  0  0  0  0  0  0  0  0  0
   -2.6962   -2.2464    2.7028 N   0  0  0  0  0  0  0  0  0  0  0  0
   -1.8962   -2.7043    0.7267 C   0  0  0  0  0  0  0  0  0  0  0  0
   -1.8995   -3.1503    2.0447 C   0  0  0  0  0  0  0  0  0  0  0  0
   -5.3229    1.5823    1.0622 C   0  0  0  0  0  0  0  0  0  0  0  0
   -4.4536    0.5210    0.9959 N   0  0  0  0  0  0  0  0  0  0  0  0
   -5.8975    1.8939    2.1046 O   0  0  0  0  0  0  0  0  0  0  0  0
   -4.0917   -0.2313    2.1744 C   0  0  0  0  0  0  0  0  0  0  0  0
   -6.4540    1.9591   -1.1156 O   0  0  0  0  0  0  0  0  0  0  0  0
   -5.4449    2.4075   -0.2223 C   0  0  0  0  0  0  0  0  0  0  0  0
   -6.5932    2.6909   -2.2715 C   0  0  0  0  0  0  0  0  0  0  0  0
   -7.0289    4.0295   -4.7180 C   0  0  0  0  0  0  0  0  0  0  0  0
   -5.8364    3.8140   -2.6184 C   0  0  0  0  0  0  0  0  0  0  0  0
   -7.5711    2.2431   -3.1620 C   0  0  0  0  0  0  0  0  0  0  0  0
   -7.7808    2.9018   -4.3821 C   0  0  0  0  0  0  0  0  0  0  0  0
   -6.0506    4.4768   -3.8347 C   0  0  0  0  0  0  0  0  0  0  0  0
   -7.3044    4.5864   -5.9362 O   0  0  0  0  0  0  0  0  0  0  0  0
   -1.1677   -3.4196   -0.2343 C   0  0  0  0  0  0  0  0  0  0  0  0
   -1.2097   -4.2861    2.4727 C   0  0  0  0  0  0  0  0  0  0  0  0
   -6.9886    5.9689   -6.0706 C   0  0  0  0  0  0  0  0  0  0  0  0
   -0.4723   -4.5691    0.1646 C   0  0  0  0  0  0  0  0  0  0  0  0
   -0.4955   -4.9921    1.4969 C   0  0  0  0  0  0  0  0  0  0  0  0
   -2.9228   -2.2694    3.6860 H   0  0  0  0  0  0  0  0  0  0  0  0
   -4.0402    0.2242    0.1149 H   0  0  0  0  0  0  0  0  0  0  0  0
   -5.0006   -0.6318    2.6342 H   0  0  0  0  0  0  0  0  0  0  0  0
   -3.6123    0.4528    2.8843 H   0  0  0  0  0  0  0  0  0  0  0  0
   -5.6526    3.4366    0.0985 H   0  0  0  0  0  0  0  0  0  0  0  0
   -4.4666    2.3817   -0.7190 H   0  0  0  0  0  0  0  0  0  0  0  0
   -5.0600    4.2070   -1.9716 H   0  0  0  0  0  0  0  0  0  0  0  0
   -8.1792    1.3771   -2.9131 H   0  0  0  0  0  0  0  0  0  0  0  0
   -8.5409    2.5374   -5.0692 H   0  0  0  0  0  0  0  0  0  0  0  0
   -5.4184    5.3269   -4.0687 H   0  0  0  0  0  0  0  0  0  0  0  0
   -1.1572   -3.0885   -1.2669 H   0  0  0  0  0  0  0  0  0  0  0  0
   -1.2277   -4.6177    3.5048 H   0  0  0  0  0  0  0  0  0  0  0  0
   -7.4911    6.5617   -5.2986 H   0  0  0  0  0  0  0  0  0  0  0  0
   -5.9074    6.1404   -6.0564 H   0  0  0  0  0  0  0  0  0  0  0  0
   -7.3581    6.3047   -7.0447 H   0  0  0  0  0  0  0  0  0  0  0  0
    0.0873   -5.1387   -0.5734 H   0  0  0  0  0  0  0  0  0  0  0  0
    0.0512   -5.8905    1.7792 H   0  0  0  0  0  0  0  0  0  0  0  0
  2  1  2  0  0  0  0
  3  2  1  0  0  0  0
  3 24  1  0  0  0  0
  4  1  1  0  0  0  0
  5  4  2  0  0  0  0
  5  3  1  0  0  0  0
  6  7  1  0  0  0  0
  7  9  1  0  0  0  0
  7 25  1  0  0  0  0
  8  6  2  0  0  0  0
  9  2  1  0  0  0  0
  9 26  1  0  0  0  0
  9 27  1  0  0  0  0
 10 11  1  0  0  0  0
 11  6  1  0  0  0  0
 11 28  1  0  0  0  0
 11 29  1  0  0  0  0
 12 10  1  0  0  0  0
 13 16  2  0  0  0  0
 14 12  1  0  0  0  0
 14 30  1  0  0  0  0
 15 12  2  0  0  0  0
 15 31  1  0  0  0  0
 16 15  1  0  0  0  0
 16 32  1  0  0  0  0
 17 14  2  0  0  0  0
 17 13  1  0  0  0  0
 17 33  1  0  0  0  0
 18 13  1  0  0  0  0
 19  4  1  0  0  0  0
 19 34  1  0  0  0  0
 20  5  1  0  0  0  0
 20 35  1  0  0  0  0
 21 18  1  0  0  0  0
 21 36  1  0  0  0  0
 21 37  1  0  0  0  0
 21 38  1  0  0  0  0
 22 19  2  0  0  0  0
 22 39  1  0  0  0  0
 23 22  1  0  0  0  0
 23 20  2  0  0  0  0
 23 40  1  0  0  0  0
M  END
>  <Mol_ID>
8085

>  <Formula>
C17H17N3O3

>  <MolWeight>
311.33518

>  <Cat>
P2789

>  <Name>
WAY-359440

>  <Synonyms>
N/A

>  <Target>
ion channel

>  <Form>
free base

>  <CAS>
438031-72-2

>  <URL>
N/A

$$$$
