WAY-331968
 OpenBabel08302521453D

 54 57  0  0  0  0  0  0  0  0999 V2000
   -2.5827    0.8444   -5.7271 C   0  0  0  0  0  0  0  0  0  0  0  0
   -2.3514    1.1788   -4.4702 N   0  0  0  0  0  0  0  0  0  0  0  0
   -2.6235    2.5360   -4.4251 C   0  0  0  0  0  0  0  0  0  0  0  0
   -2.9920    1.8885   -6.5130 O   0  0  0  0  0  0  0  0  0  0  0  0
   -2.4827   -0.4562   -6.3842 C   0  0  0  0  0  0  0  0  0  0  0  0
   -3.0176    2.9635   -5.6758 C   0  0  0  0  0  0  0  0  0  0  0  0
    2.5672    1.8410   -2.8362 N   0  0  0  0  0  0  0  0  0  0  0  0
    4.4713   -0.2041   -2.2722 N   0  0  0  0  0  0  0  0  0  0  0  0
    1.6868    2.9219   -2.8194 C   0  0  0  0  0  0  0  0  0  0  0  0
   -2.1373   -1.5971   -5.6434 C   0  0  0  0  0  0  0  0  0  0  0  0
    2.1919    0.4250   -2.9665 C   0  0  0  0  0  0  0  0  0  0  0  0
    4.0020    2.1058   -3.0006 C   0  0  0  0  0  0  0  0  0  0  0  0
    3.0458   -0.4824   -2.0532 C   0  0  0  0  0  0  0  0  0  0  0  0
    4.8724    1.2057   -2.1082 C   0  0  0  0  0  0  0  0  0  0  0  0
    5.4176   -1.2106   -2.2139 C   0  0  0  0  0  0  0  0  0  0  0  0
    2.1088    4.0719   -2.7086 O   0  0  0  0  0  0  0  0  0  0  0  0
   -0.8399    4.0899   -3.0284 S   0  0  0  0  0  0  0  0  0  0  0  0
   -2.4751    3.3111   -3.1678 C   0  0  0  0  0  0  0  0  0  0  0  0
    0.2010    2.5903   -2.9530 C   0  0  0  0  0  0  0  0  0  0  0  0
   -2.7393   -0.6020   -7.7569 C   0  0  0  0  0  0  0  0  0  0  0  0
   -3.4358    4.2452   -6.2670 C   0  0  0  0  0  0  0  0  0  0  0  0
   -2.0588   -2.8517   -6.2576 C   0  0  0  0  0  0  0  0  0  0  0  0
    5.2309   -2.3887   -1.4766 C   0  0  0  0  0  0  0  0  0  0  0  0
    6.5889   -1.1195   -2.9818 C   0  0  0  0  0  0  0  0  0  0  0  0
   -2.6618   -1.8543   -8.3704 C   0  0  0  0  0  0  0  0  0  0  0  0
   -2.3251   -2.9751   -7.6197 C   0  0  0  0  0  0  0  0  0  0  0  0
    6.1510   -3.4426   -1.5337 C   0  0  0  0  0  0  0  0  0  0  0  0
    7.5090   -2.1688   -3.0508 C   0  0  0  0  0  0  0  0  0  0  0  0
    7.2841   -3.3370   -2.3332 C   0  0  0  0  0  0  0  0  0  0  0  0
   -1.9326   -1.5123   -4.5778 H   0  0  0  0  0  0  0  0  0  0  0  0
    1.1348    0.2644   -2.7489 H   0  0  0  0  0  0  0  0  0  0  0  0
    2.3592    0.1522   -4.0163 H   0  0  0  0  0  0  0  0  0  0  0  0
    4.2319    1.9092   -4.0549 H   0  0  0  0  0  0  0  0  0  0  0  0
    4.2412    3.1567   -2.8085 H   0  0  0  0  0  0  0  0  0  0  0  0
    2.7891   -0.3078   -1.0013 H   0  0  0  0  0  0  0  0  0  0  0  0
    2.7965   -1.5223   -2.2968 H   0  0  0  0  0  0  0  0  0  0  0  0
    4.7467    1.4957   -1.0573 H   0  0  0  0  0  0  0  0  0  0  0  0
    5.9225    1.3824   -2.3633 H   0  0  0  0  0  0  0  0  0  0  0  0
   -3.2244    4.1094   -3.1352 H   0  0  0  0  0  0  0  0  0  0  0  0
   -2.6506    2.6748   -2.2944 H   0  0  0  0  0  0  0  0  0  0  0  0
   -0.1114    1.9921   -2.0914 H   0  0  0  0  0  0  0  0  0  0  0  0
    0.0751    2.0272   -3.8811 H   0  0  0  0  0  0  0  0  0  0  0  0
   -3.0079    0.2620   -8.3623 H   0  0  0  0  0  0  0  0  0  0  0  0
   -2.8431    4.4667   -7.1601 H   0  0  0  0  0  0  0  0  0  0  0  0
   -4.4886    4.1998   -6.5573 H   0  0  0  0  0  0  0  0  0  0  0  0
   -3.3101    5.0724   -5.5611 H   0  0  0  0  0  0  0  0  0  0  0  0
   -1.7941   -3.7279   -5.6709 H   0  0  0  0  0  0  0  0  0  0  0  0
    4.3626   -2.5046   -0.8337 H   0  0  0  0  0  0  0  0  0  0  0  0
    6.7702   -0.2408   -3.5945 H   0  0  0  0  0  0  0  0  0  0  0  0
   -2.8708   -1.9467   -9.4347 H   0  0  0  0  0  0  0  0  0  0  0  0
   -2.2679   -3.9509   -8.0982 H   0  0  0  0  0  0  0  0  0  0  0  0
    5.9730   -4.3488   -0.9612 H   0  0  0  0  0  0  0  0  0  0  0  0
    8.3852   -2.0747   -3.6859 H   0  0  0  0  0  0  0  0  0  0  0  0
    7.9864   -4.1627   -2.4018 H   0  0  0  0  0  0  0  0  0  0  0  0
  2  1  2  0  0  0  0
  3  2  1  0  0  0  0
  4  1  1  0  0  0  0
  5  1  1  0  0  0  0
  6  4  1  0  0  0  0
  6  3  2  0  0  0  0
  7  9  1  0  0  0  0
  8 14  1  0  0  0  0
  9 19  1  0  0  0  0
 10  5  2  0  0  0  0
 10 30  1  0  0  0  0
 11  7  1  0  0  0  0
 11 31  1  0  0  0  0
 11 32  1  0  0  0  0
 12  7  1  0  0  0  0
 12 33  1  0  0  0  0
 12 34  1  0  0  0  0
 13 11  1  0  0  0  0
 13  8  1  0  0  0  0
 13 35  1  0  0  0  0
 13 36  1  0  0  0  0
 14 12  1  0  0  0  0
 14 37  1  0  0  0  0
 14 38  1  0  0  0  0
 15  8  1  0  0  0  0
 16  9  2  0  0  0  0
 17 18  1  0  0  0  0
 18  3  1  0  0  0  0
 18 39  1  0  0  0  0
 18 40  1  0  0  0  0
 19 17  1  0  0  0  0
 19 41  1  0  0  0  0
 19 42  1  0  0  0  0
 20  5  1  0  0  0  0
 20 43  1  0  0  0  0
 21  6  1  0  0  0  0
 21 44  1  0  0  0  0
 21 45  1  0  0  0  0
 21 46  1  0  0  0  0
 22 10  1  0  0  0  0
 22 26  2  0  0  0  0
 22 47  1  0  0  0  0
 23 15  2  0  0  0  0
 23 48  1  0  0  0  0
 24 15  1  0  0  0  0
 24 49  1  0  0  0  0
 25 20  2  0  0  0  0
 25 50  1  0  0  0  0
 26 25  1  0  0  0  0
 26 51  1  0  0  0  0
 27 23  1  0  0  0  0
 27 52  1  0  0  0  0
 28 24  2  0  0  0  0
 28 53  1  0  0  0  0
 29 28  1  0  0  0  0
 29 27  2  0  0  0  0
 29 54  1  0  0  0  0
M  END
>  <Mol_ID>
9270

>  <Formula>
C23H24ClN3O2S

>  <MolWeight>
441.97356

>  <Cat>
P2630

>  <Name>
WAY-331968

>  <Synonyms>
N/A

>  <Target>
beta-catenin

>  <Form>
free base

>  <CAS>
901750-85-4

>  <URL>
N/A

$$$$
