WAY-326363
 OpenBabel08302521433D

 42 45  0  0  0  0  0  0  0  0999 V2000
   -1.3747    0.6982   -0.0319 C   0  0  0  0  0  0  0  0  0  0  0  0
   -1.4518   -0.6875   -0.0472 C   0  0  0  0  0  0  0  0  0  0  0  0
   -2.9077    1.4420    0.0252 S   0  0  0  0  0  0  0  0  0  0  0  0
   -0.2502    1.4414   -0.0506 N   0  0  0  0  0  0  0  0  0  0  0  0
   -2.8112   -1.1147   -0.0232 C   0  0  0  0  0  0  0  0  0  0  0  0
   -0.2351   -1.3938   -0.0732 C   0  0  0  0  0  0  0  0  0  0  0  0
   -3.7142   -0.0683    0.0341 C   0  0  0  0  0  0  0  0  0  0  0  0
    0.8979    0.7218   -0.0686 C   0  0  0  0  0  0  0  0  0  0  0  0
   -3.1841   -2.4122   -0.0392 N   0  0  0  0  0  0  0  0  0  0  0  0
    0.9604   -0.6743   -0.0556 C   0  0  0  0  0  0  0  0  0  0  0  0
   -5.1647   -0.1950    0.0952 C   0  0  0  0  0  0  0  0  0  0  0  0
    2.1718    1.5292   -0.0149 C   0  0  0  0  0  0  0  0  0  0  0  0
    2.2744   -1.4118   -0.0764 C   0  0  0  0  0  0  0  0  0  0  0  0
   -5.8870    0.9905    0.1137 N   0  0  0  0  0  0  0  0  0  0  0  0
   -5.6947   -1.3060    0.0881 O   0  0  0  0  0  0  0  0  0  0  0  0
    3.4206    0.6838   -0.2856 C   0  0  0  0  0  0  0  0  0  0  0  0
    3.4210   -0.6218    0.3917 N   0  0  0  0  0  0  0  0  0  0  0  0
   -7.2939    1.0896    0.1536 C   0  0  0  0  0  0  0  0  0  0  0  0
    3.4366   -0.5005    1.8502 C   0  0  0  0  0  0  0  0  0  0  0  0
   -8.1252    0.0214    0.5163 C   0  0  0  0  0  0  0  0  0  0  0  0
   -7.8777    2.3101   -0.2068 C   0  0  0  0  0  0  0  0  0  0  0  0
   -9.5126    0.1407    0.4492 C   0  0  0  0  0  0  0  0  0  0  0  0
   -9.2694    2.4289   -0.2778 C   0  0  0  0  0  0  0  0  0  0  0  0
  -10.0726    1.3389    0.0369 C   0  0  0  0  0  0  0  0  0  0  0  0
  -11.4037    1.4454   -0.0582 F   0  0  0  0  0  0  0  0  0  0  0  0
   -0.2328   -2.4793   -0.0853 H   0  0  0  0  0  0  0  0  0  0  0  0
   -4.1747   -2.6683   -0.0716 H   0  0  0  0  0  0  0  0  0  0  0  0
   -2.5470   -3.1885   -0.1739 H   0  0  0  0  0  0  0  0  0  0  0  0
    2.2420    1.9873    0.9791 H   0  0  0  0  0  0  0  0  0  0  0  0
    2.1179    2.3424   -0.7479 H   0  0  0  0  0  0  0  0  0  0  0  0
    2.4650   -1.7289   -1.1101 H   0  0  0  0  0  0  0  0  0  0  0  0
    2.1975   -2.3348    0.5130 H   0  0  0  0  0  0  0  0  0  0  0  0
   -5.3589    1.8418   -0.0411 H   0  0  0  0  0  0  0  0  0  0  0  0
    4.3188    1.2506   -0.0133 H   0  0  0  0  0  0  0  0  0  0  0  0
    3.5050    0.5082   -1.3673 H   0  0  0  0  0  0  0  0  0  0  0  0
    2.5458   -0.0113    2.2592 H   0  0  0  0  0  0  0  0  0  0  0  0
    3.5123   -1.4906    2.3133 H   0  0  0  0  0  0  0  0  0  0  0  0
    4.3154    0.0664    2.1757 H   0  0  0  0  0  0  0  0  0  0  0  0
   -7.7236   -0.9250    0.8646 H   0  0  0  0  0  0  0  0  0  0  0  0
   -7.2649    3.1668   -0.4744 H   0  0  0  0  0  0  0  0  0  0  0  0
  -10.1476   -0.7001    0.7084 H   0  0  0  0  0  0  0  0  0  0  0  0
   -9.7326    3.3585   -0.5920 H   0  0  0  0  0  0  0  0  0  0  0  0
  1  2  2  0  0  0  0
  1  3  1  0  0  0  0
  1  4  1  0  0  0  0
  2  5  1  0  0  0  0
  2  6  1  0  0  0  0
  3  7  1  0  0  0  0
  4  8  2  0  0  0  0
  5  9  1  0  0  0  0
  5  7  2  0  0  0  0
  6 10  2  0  0  0  0
  6 26  1  0  0  0  0
  7 11  1  0  0  0  0
  8 12  1  0  0  0  0
  8 10  1  0  0  0  0
  9 27  1  0  0  0  0
  9 28  1  0  0  0  0
 10 13  1  0  0  0  0
 11 14  1  0  0  0  0
 11 15  2  0  0  0  0
 12 16  1  0  0  0  0
 12 29  1  0  0  0  0
 12 30  1  0  0  0  0
 13 17  1  0  0  0  0
 13 31  1  0  0  0  0
 13 32  1  0  0  0  0
 14 18  1  0  0  0  0
 14 33  1  0  0  0  0
 16 17  1  0  0  0  0
 16 34  1  0  0  0  0
 16 35  1  0  0  0  0
 17 19  1  0  0  0  0
 18 20  2  0  0  0  0
 18 21  1  0  0  0  0
 19 36  1  0  0  0  0
 19 37  1  0  0  0  0
 19 38  1  0  0  0  0
 20 22  1  0  0  0  0
 20 39  1  0  0  0  0
 21 23  2  0  0  0  0
 21 40  1  0  0  0  0
 22 24  2  0  0  0  0
 22 41  1  0  0  0  0
 23 24  1  0  0  0  0
 23 42  1  0  0  0  0
 24 25  1  0  0  0  0
M  END
>  <Mol_ID>
8915

>  <Formula>
C18H17FN4OS

>  <MolWeight>
356.4171832

>  <Cat>
P2473

>  <Name>
WAY-326363

>  <Synonyms>
N/A

>  <Target>
Anti-infection

>  <Form>
free base

>  <CAS>
870757-57-6

>  <URL>
N/A

$$$$
