WAY-638867
 OpenBabel08302521433D

 29 30  0  0  0  0  0  0  0  0999 V2000
    0.5853   -0.3341   -0.1142 N   0  0  0  0  0  0  0  0  0  0  0  0
    0.5152    0.7062   -1.0235 C   0  0  0  0  0  0  0  0  0  0  0  0
   -0.4533   -0.3048    0.7559 N   0  0  0  0  0  0  0  0  0  0  0  0
   -0.6887    1.3272   -0.8064 C   0  0  0  0  0  0  0  0  0  0  0  0
    1.6064   -1.3788    0.0007 C   0  0  0  0  0  0  0  0  0  0  0  0
    0.1616   -3.8697   -0.6843 N   0  0  0  0  0  0  0  0  0  0  0  0
   -1.2412    0.6666    0.2985 C   0  0  0  0  0  0  0  0  0  0  0  0
    1.2966   -2.4427    1.0673 C   0  0  0  0  0  0  0  0  0  0  0  0
    1.8607   -2.1476   -1.3031 C   0  0  0  0  0  0  0  0  0  0  0  0
    1.4574    0.9831   -1.9492 N   0  0  0  0  0  0  0  0  0  0  0  0
    0.6194   -2.9295   -1.7160 C   0  0  0  0  0  0  0  0  0  0  0  0
    0.0937   -3.3071    0.6734 C   0  0  0  0  0  0  0  0  0  0  0  0
   -1.1664   -4.3756   -1.0627 C   0  0  0  0  0  0  0  0  0  0  0  0
   -1.1033    2.1595   -1.3537 H   0  0  0  0  0  0  0  0  0  0  0  0
    2.5204   -0.8454    0.2912 H   0  0  0  0  0  0  0  0  0  0  0  0
   -2.1849    0.8491    0.7927 H   0  0  0  0  0  0  0  0  0  0  0  0
    2.1756   -3.0901    1.1936 H   0  0  0  0  0  0  0  0  0  0  0  0
    1.1178   -1.9803    2.0460 H   0  0  0  0  0  0  0  0  0  0  0  0
    2.7001   -2.8422   -1.1582 H   0  0  0  0  0  0  0  0  0  0  0  0
    2.1635   -1.4879   -2.1206 H   0  0  0  0  0  0  0  0  0  0  0  0
    2.4207    0.6797   -1.8486 H   0  0  0  0  0  0  0  0  0  0  0  0
    1.3757    1.8304   -2.5067 H   0  0  0  0  0  0  0  0  0  0  0  0
    0.8620   -3.4987   -2.6226 H   0  0  0  0  0  0  0  0  0  0  0  0
   -0.1703   -2.2199   -1.9922 H   0  0  0  0  0  0  0  0  0  0  0  0
   -0.8346   -2.7445    0.8138 H   0  0  0  0  0  0  0  0  0  0  0  0
    0.0463   -4.1440    1.3830 H   0  0  0  0  0  0  0  0  0  0  0  0
   -1.6271   -4.9458   -0.2492 H   0  0  0  0  0  0  0  0  0  0  0  0
   -1.8555   -3.5610   -1.3238 H   0  0  0  0  0  0  0  0  0  0  0  0
   -1.0864   -5.0460   -1.9237 H   0  0  0  0  0  0  0  0  0  0  0  0
  2  1  1  0  0  0  0
  3  1  1  0  0  0  0
  4  2  2  0  0  0  0
  4  7  1  0  0  0  0
  4 14  1  0  0  0  0
  5  1  1  0  0  0  0
  5 15  1  0  0  0  0
  6 11  1  0  0  0  0
  6 12  1  0  0  0  0
  7  3  2  0  0  0  0
  7 16  1  0  0  0  0
  8  5  1  0  0  0  0
  8 17  1  0  0  0  0
  8 18  1  0  0  0  0
  9  5  1  0  0  0  0
  9 19  1  0  0  0  0
  9 20  1  0  0  0  0
 10  2  1  0  0  0  0
 10 21  1  0  0  0  0
 10 22  1  0  0  0  0
 11  9  1  0  0  0  0
 11 23  1  0  0  0  0
 11 24  1  0  0  0  0
 12  8  1  0  0  0  0
 12 25  1  0  0  0  0
 12 26  1  0  0  0  0
 13  6  1  0  0  0  0
 13 27  1  0  0  0  0
 13 28  1  0  0  0  0
 13 29  1  0  0  0  0
M  END
>  <Mol_ID>
8795

>  <Formula>
C9H16N4

>  <MolWeight>
180.25014

>  <Cat>
P3059

>  <Name>
WAY-638867

>  <Synonyms>
N/A

>  <Target>
NIK,FAK

>  <Form>
free base

>  <CAS>
3524-30-9

>  <URL>
N/A

$$$$
