WAY-640783
 OpenBabel08302521443D

 26 28  0  0  0  0  0  0  0  0999 V2000
    0.0879   -0.7253    0.0928 C   0  0  0  0  0  0  0  0  0  0  0  0
    0.1558    0.6578    0.0711 C   0  0  0  0  0  0  0  0  0  0  0  0
   -1.0243   -1.4735    0.1091 N   0  0  0  0  0  0  0  0  0  0  0  0
   -1.0808    1.3104    0.0758 C   0  0  0  0  0  0  0  0  0  0  0  0
   -2.2305    0.6010    0.0816 N   0  0  0  0  0  0  0  0  0  0  0  0
   -2.1468   -0.7457    0.0936 C   0  0  0  0  0  0  0  0  0  0  0  0
    1.6195   -1.4555    0.0852 S   0  0  0  0  0  0  0  0  0  0  0  0
    1.5259    1.1219    0.0416 C   0  0  0  0  0  0  0  0  0  0  0  0
    2.4177    0.0571    0.0367 C   0  0  0  0  0  0  0  0  0  0  0  0
   -3.4246   -1.4706    0.0420 C   0  0  0  0  0  0  0  0  0  0  0  0
   -3.4629   -3.1933    0.0718 S   0  0  0  0  0  0  0  0  0  0  0  0
   -4.7125   -0.9623   -0.0444 C   0  0  0  0  0  0  0  0  0  0  0  0
   -5.1633   -3.2389   -0.0556 C   0  0  0  0  0  0  0  0  0  0  0  0
   -5.7108   -1.9789   -0.1078 C   0  0  0  0  0  0  0  0  0  0  0  0
    1.9359    2.5601    0.0100 C   0  0  0  0  0  0  0  0  0  0  0  0
    3.9110    0.0727   -0.0069 C   0  0  0  0  0  0  0  0  0  0  0  0
   -1.1847    2.3885    0.0625 H   0  0  0  0  0  0  0  0  0  0  0  0
   -4.9223    0.1008   -0.0740 H   0  0  0  0  0  0  0  0  0  0  0  0
   -5.6781   -4.1898   -0.0861 H   0  0  0  0  0  0  0  0  0  0  0  0
   -6.7750   -1.7933   -0.1898 H   0  0  0  0  0  0  0  0  0  0  0  0
    2.5386    2.8009    0.8918 H   0  0  0  0  0  0  0  0  0  0  0  0
    2.5307    2.7656   -0.8861 H   0  0  0  0  0  0  0  0  0  0  0  0
    1.0744    3.2330   -0.0002 H   0  0  0  0  0  0  0  0  0  0  0  0
    4.3290   -0.4338    0.8695 H   0  0  0  0  0  0  0  0  0  0  0  0
    4.2747   -0.4321   -0.9082 H   0  0  0  0  0  0  0  0  0  0  0  0
    4.3033    1.0939   -0.0179 H   0  0  0  0  0  0  0  0  0  0  0  0
  2  1  1  0  0  0  0
  3  1  2  0  0  0  0
  4  2  2  0  0  0  0
  4 17  1  0  0  0  0
  5  6  2  0  0  0  0
  5  4  1  0  0  0  0
  6  3  1  0  0  0  0
  7  1  1  0  0  0  0
  8  2  1  0  0  0  0
  8  9  2  0  0  0  0
  9  7  1  0  0  0  0
 10  6  1  0  0  0  0
 11 10  1  0  0  0  0
 12 10  2  0  0  0  0
 12 18  1  0  0  0  0
 13 11  1  0  0  0  0
 13 14  2  0  0  0  0
 13 19  1  0  0  0  0
 14 12  1  0  0  0  0
 14 20  1  0  0  0  0
 15  8  1  0  0  0  0
 15 21  1  0  0  0  0
 15 22  1  0  0  0  0
 15 23  1  0  0  0  0
 16  9  1  0  0  0  0
 16 24  1  0  0  0  0
 16 25  1  0  0  0  0
 16 26  1  0  0  0  0
M  END
>  <Mol_ID>
9104

>  <Formula>
C12H9ClN2S2

>  <MolWeight>
280.79626

>  <Cat>
P3112

>  <Name>
WAY-640783

>  <Synonyms>
N/A

>  <Target>
FLT3

>  <Form>
free base

>  <CAS>
851208-04-3

>  <URL>
N/A

$$$$
