WAY-311015
 OpenBabel08302521393D

 52 54  0  0  0  0  0  0  0  0999 V2000
    1.0587   -0.0214   -0.1256 N   0  0  0  0  0  0  0  0  0  0  0  0
    0.2780    1.1611   -0.2810 C   0  0  0  0  0  0  0  0  0  0  0  0
    0.2584   -1.4846    0.1525 S   0  0  0  0  0  0  0  0  0  0  0  0
    2.5258    0.0133   -0.0087 C   0  0  0  0  0  0  0  0  0  0  0  0
   -0.0603    1.8883    0.8612 C   0  0  0  0  0  0  0  0  0  0  0  0
   -0.1732    1.5726   -1.5340 C   0  0  0  0  0  0  0  0  0  0  0  0
    0.2765   -2.2887   -1.4390 C   0  0  0  0  0  0  0  0  0  0  0  0
    1.0884   -2.2788    1.0414 O   0  0  0  0  0  0  0  0  0  0  0  0
   -1.1280   -1.2271    0.4819 O   0  0  0  0  0  0  0  0  0  0  0  0
    3.1684    1.3906    0.0707 C   0  0  0  0  0  0  0  0  0  0  0  0
   -0.8619    3.0331    0.7698 C   0  0  0  0  0  0  0  0  0  0  0  0
   -0.9692    2.7165   -1.6378 C   0  0  0  0  0  0  0  0  0  0  0  0
    1.2918   -3.1997   -1.7453 C   0  0  0  0  0  0  0  0  0  0  0  0
   -0.7982   -2.1104   -2.3149 C   0  0  0  0  0  0  0  0  0  0  0  0
    3.2700    1.9182    1.3458 N   0  0  0  0  0  0  0  0  0  0  0  0
    3.5617    1.9871   -0.9292 O   0  0  0  0  0  0  0  0  0  0  0  0
   -1.3100    3.4427   -0.4944 C   0  0  0  0  0  0  0  0  0  0  0  0
   -1.2524    3.7973    2.0077 C   0  0  0  0  0  0  0  0  0  0  0  0
    1.2502   -3.9063   -2.9510 C   0  0  0  0  0  0  0  0  0  0  0  0
   -0.8339   -2.8202   -3.5190 C   0  0  0  0  0  0  0  0  0  0  0  0
    3.9382    3.1786    1.5858 C   0  0  0  0  0  0  0  0  0  0  0  0
   -0.7301    3.2800    3.1528 F   0  0  0  0  0  0  0  0  0  0  0  0
   -0.8381    5.0954    1.9646 F   0  0  0  0  0  0  0  0  0  0  0  0
   -2.5993    3.8413    2.1953 F   0  0  0  0  0  0  0  0  0  0  0  0
    0.1913   -3.7179   -3.8485 C   0  0  0  0  0  0  0  0  0  0  0  0
    3.3823    3.8773    2.7974 C   0  0  0  0  0  0  0  0  0  0  0  0
    0.1367   -4.4684   -5.1484 C   0  0  0  0  0  0  0  0  0  0  0  0
    3.9102    3.6573    4.0729 C   0  0  0  0  0  0  0  0  0  0  0  0
    2.3069    4.7614    2.6716 C   0  0  0  0  0  0  0  0  0  0  0  0
    3.3558    4.3346    5.1495 C   0  0  0  0  0  0  0  0  0  0  0  0
    1.8187    5.3884    3.8083 C   0  0  0  0  0  0  0  0  0  0  0  0
    2.3221    5.1955    5.0451 N   0  0  0  0  0  0  0  0  0  0  0  0
    2.8331   -0.5274    0.8945 H   0  0  0  0  0  0  0  0  0  0  0  0
    2.9749   -0.5107   -0.8603 H   0  0  0  0  0  0  0  0  0  0  0  0
    0.2899    1.5487    1.8346 H   0  0  0  0  0  0  0  0  0  0  0  0
    0.0779    1.0118   -2.4296 H   0  0  0  0  0  0  0  0  0  0  0  0
   -1.3336    3.0390   -2.6106 H   0  0  0  0  0  0  0  0  0  0  0  0
    2.1045   -3.3858   -1.0470 H   0  0  0  0  0  0  0  0  0  0  0  0
   -1.6195   -1.4443   -2.0608 H   0  0  0  0  0  0  0  0  0  0  0  0
    3.0473    1.3392    2.1456 H   0  0  0  0  0  0  0  0  0  0  0  0
   -1.9379    4.3296   -0.5894 H   0  0  0  0  0  0  0  0  0  0  0  0
    2.0424   -4.6174   -3.1781 H   0  0  0  0  0  0  0  0  0  0  0  0
   -1.6758   -2.6820   -4.1950 H   0  0  0  0  0  0  0  0  0  0  0  0
    5.0045    2.9670    1.7260 H   0  0  0  0  0  0  0  0  0  0  0  0
    3.8577    3.8265    0.7056 H   0  0  0  0  0  0  0  0  0  0  0  0
   -0.7798   -5.0646   -5.2057 H   0  0  0  0  0  0  0  0  0  0  0  0
    0.1612   -3.7654   -5.9873 H   0  0  0  0  0  0  0  0  0  0  0  0
    0.9868   -5.1500   -5.2568 H   0  0  0  0  0  0  0  0  0  0  0  0
    4.7445    2.9829    4.2339 H   0  0  0  0  0  0  0  0  0  0  0  0
    1.8562    4.9674    1.7060 H   0  0  0  0  0  0  0  0  0  0  0  0
    3.7413    4.2011    6.1567 H   0  0  0  0  0  0  0  0  0  0  0  0
    0.9826    6.0815    3.7504 H   0  0  0  0  0  0  0  0  0  0  0  0
  1  2  1  0  0  0  0
  1  3  1  0  0  0  0
  1  4  1  0  0  0  0
  2  5  2  0  0  0  0
  2  6  1  0  0  0  0
  3  7  1  0  0  0  0
  3  8  2  0  0  0  0
  3  9  2  0  0  0  0
  4 10  1  0  0  0  0
  4 33  1  0  0  0  0
  4 34  1  0  0  0  0
  5 11  1  0  0  0  0
  5 35  1  0  0  0  0
  6 12  2  0  0  0  0
  6 36  1  0  0  0  0
  7 13  2  0  0  0  0
  7 14  1  0  0  0  0
 10 15  1  0  0  0  0
 10 16  2  0  0  0  0
 11 17  2  0  0  0  0
 11 18  1  0  0  0  0
 12 17  1  0  0  0  0
 12 37  1  0  0  0  0
 13 19  1  0  0  0  0
 13 38  1  0  0  0  0
 14 20  2  0  0  0  0
 14 39  1  0  0  0  0
 15 21  1  0  0  0  0
 15 40  1  0  0  0  0
 17 41  1  0  0  0  0
 18 22  1  0  0  0  0
 18 23  1  0  0  0  0
 18 24  1  0  0  0  0
 19 25  2  0  0  0  0
 19 42  1  0  0  0  0
 20 25  1  0  0  0  0
 20 43  1  0  0  0  0
 21 26  1  0  0  0  0
 21 44  1  0  0  0  0
 21 45  1  0  0  0  0
 25 27  1  0  0  0  0
 26 28  2  0  0  0  0
 26 29  1  0  0  0  0
 27 46  1  0  0  0  0
 27 47  1  0  0  0  0
 27 48  1  0  0  0  0
 28 30  1  0  0  0  0
 28 49  1  0  0  0  0
 29 31  2  0  0  0  0
 29 50  1  0  0  0  0
 30 32  2  0  0  0  0
 30 51  1  0  0  0  0
 31 32  1  0  0  0  0
 31 52  1  0  0  0  0
M  END
>  <Mol_ID>
8132

>  <Formula>
C22H20F3N3O3S

>  <MolWeight>
463.4727096

>  <Cat>
P2192

>  <Name>
WAY-311015

>  <Synonyms>
N/A

>  <Target>
ROR¦Ã

>  <Form>
free base

>  <CAS>
529500-72-9

>  <URL>
N/A

$$$$
