WAY-640509
 OpenBabel08302521443D

 58 63  0  0  0  0  0  0  0  0999 V2000
    1.0852   -0.3022    0.1685 S   0  0  0  0  0  0  0  0  0  0  0  0
   -3.1800    3.7630    0.6303 N   0  0  0  0  0  0  0  0  0  0  0  0
   -2.0540    3.9705   -0.0853 C   0  0  0  0  0  0  0  0  0  0  0  0
   -4.0212    4.8015    0.7923 C   0  0  0  0  0  0  0  0  0  0  0  0
    0.5002    0.7257   -1.0551 N   0  0  0  0  0  0  0  0  0  0  0  0
   -1.7941    5.2142   -0.7022 C   0  0  0  0  0  0  0  0  0  0  0  0
   -3.8116    6.0327    0.2995 N   0  0  0  0  0  0  0  0  0  0  0  0
    2.6169   -0.8602   -0.5324 C   0  0  0  0  0  0  0  0  0  0  0  0
   -1.1974    2.8975   -0.2749 N   0  0  0  0  0  0  0  0  0  0  0  0
   -2.7173    6.2276   -0.4378 C   0  0  0  0  0  0  0  0  0  0  0  0
    2.5651   -1.7164   -1.6359 C   0  0  0  0  0  0  0  0  0  0  0  0
   -5.2785    4.5885    1.5304 C   0  0  0  0  0  0  0  0  0  0  0  0
    3.7478   -2.2369   -2.1489 C   0  0  0  0  0  0  0  0  0  0  0  0
    0.2219   -1.4637    0.2569 O   0  0  0  0  0  0  0  0  0  0  0  0
    1.3966    0.4958    1.3335 O   0  0  0  0  0  0  0  0  0  0  0  0
    1.0126    2.1391   -1.0138 C   0  0  0  0  0  0  0  0  0  0  0  0
   -0.9917    0.6998   -1.2583 C   0  0  0  0  0  0  0  0  0  0  0  0
    4.9747   -1.8965   -1.5674 C   0  0  0  0  0  0  0  0  0  0  0  0
    0.2418    2.9904    0.0328 C   0  0  0  0  0  0  0  0  0  0  0  0
   -1.7274    1.5309   -0.1875 C   0  0  0  0  0  0  0  0  0  0  0  0
    3.6291   -3.0698   -3.2302 O   0  0  0  0  0  0  0  0  0  0  0  0
    3.8371   -0.5169    0.0584 C   0  0  0  0  0  0  0  0  0  0  0  0
    6.1760   -2.3710   -2.0271 O   0  0  0  0  0  0  0  0  0  0  0  0
   -7.4107    5.5022    2.3299 N   0  0  0  0  0  0  0  0  0  0  0  0
    5.0196   -1.0468   -0.4610 C   0  0  0  0  0  0  0  0  0  0  0  0
   -6.2213    5.6101    1.6776 C   0  0  0  0  0  0  0  0  0  0  0  0
   -0.7220    5.4950   -1.5937 C   0  0  0  0  0  0  0  0  0  0  0  0
   -5.6274    3.3628    2.1212 C   0  0  0  0  0  0  0  0  0  0  0  0
   -2.5082    7.4865   -0.9959 C   0  0  0  0  0  0  0  0  0  0  0  0
   -7.6878    4.3054    2.8820 C   0  0  0  0  0  0  0  0  0  0  0  0
    4.8421   -3.7840   -3.4898 C   0  0  0  0  0  0  0  0  0  0  0  0
    6.0527   -2.8737   -3.3618 C   0  0  0  0  0  0  0  0  0  0  0  0
   -6.8387    3.2154    2.8008 C   0  0  0  0  0  0  0  0  0  0  0  0
   -0.5119    6.7656   -2.1166 C   0  0  0  0  0  0  0  0  0  0  0  0
   -1.4095    7.7714   -1.8097 C   0  0  0  0  0  0  0  0  0  0  0  0
    1.6113   -1.9940   -2.0775 H   0  0  0  0  0  0  0  0  0  0  0  0
    2.0912    2.1597   -0.8324 H   0  0  0  0  0  0  0  0  0  0  0  0
    0.8618    2.5649   -2.0159 H   0  0  0  0  0  0  0  0  0  0  0  0
   -1.1920    1.1350   -2.2488 H   0  0  0  0  0  0  0  0  0  0  0  0
   -1.3647   -0.3263   -1.3009 H   0  0  0  0  0  0  0  0  0  0  0  0
    0.4172    2.6333    1.0515 H   0  0  0  0  0  0  0  0  0  0  0  0
    0.6295    4.0131    0.0231 H   0  0  0  0  0  0  0  0  0  0  0  0
   -1.5618    1.1144    0.8140 H   0  0  0  0  0  0  0  0  0  0  0  0
   -2.8014    1.4890   -0.4004 H   0  0  0  0  0  0  0  0  0  0  0  0
    3.8767    0.1406    0.9237 H   0  0  0  0  0  0  0  0  0  0  0  0
    5.9755   -0.7989   -0.0066 H   0  0  0  0  0  0  0  0  0  0  0  0
   -6.0513    6.5961    1.2485 H   0  0  0  0  0  0  0  0  0  0  0  0
   -0.0415    4.7106   -1.9043 H   0  0  0  0  0  0  0  0  0  0  0  0
   -4.9528    2.5135    2.0515 H   0  0  0  0  0  0  0  0  0  0  0  0
   -3.2339    8.2721   -0.7953 H   0  0  0  0  0  0  0  0  0  0  0  0
   -8.6387    4.2404    3.3984 H   0  0  0  0  0  0  0  0  0  0  0  0
    4.7777   -4.1792   -4.5086 H   0  0  0  0  0  0  0  0  0  0  0  0
    4.9007   -4.6322   -2.7972 H   0  0  0  0  0  0  0  0  0  0  0  0
    6.9675   -3.4276   -3.5941 H   0  0  0  0  0  0  0  0  0  0  0  0
    5.9869   -2.0198   -4.0473 H   0  0  0  0  0  0  0  0  0  0  0  0
   -7.1095    2.2703    3.2594 H   0  0  0  0  0  0  0  0  0  0  0  0
    0.3388    6.9557   -2.7645 H   0  0  0  0  0  0  0  0  0  0  0  0
   -1.2753    8.7684   -2.2188 H   0  0  0  0  0  0  0  0  0  0  0  0
  2  3  2  0  0  0  0
  3  9  1  0  0  0  0
  4  2  1  0  0  0  0
  5  1  1  0  0  0  0
  6  3  1  0  0  0  0
  7 10  1  0  0  0  0
  7  4  2  0  0  0  0
  8  1  1  0  0  0  0
  9 20  1  0  0  0  0
  9 19  1  0  0  0  0
 10  6  2  0  0  0  0
 11  8  2  0  0  0  0
 11 36  1  0  0  0  0
 12  4  1  0  0  0  0
 13 11  1  0  0  0  0
 14  1  2  0  0  0  0
 15  1  2  0  0  0  0
 16  5  1  0  0  0  0
 16 37  1  0  0  0  0
 16 38  1  0  0  0  0
 17  5  1  0  0  0  0
 17 39  1  0  0  0  0
 17 40  1  0  0  0  0
 18 25  1  0  0  0  0
 18 13  2  0  0  0  0
 19 16  1  0  0  0  0
 19 41  1  0  0  0  0
 19 42  1  0  0  0  0
 20 17  1  0  0  0  0
 20 43  1  0  0  0  0
 20 44  1  0  0  0  0
 21 13  1  0  0  0  0
 22  8  1  0  0  0  0
 22 45  1  0  0  0  0
 23 18  1  0  0  0  0
 24 26  2  0  0  0  0
 25 22  2  0  0  0  0
 25 46  1  0  0  0  0
 26 12  1  0  0  0  0
 26 47  1  0  0  0  0
 27  6  1  0  0  0  0
 27 48  1  0  0  0  0
 28 12  2  0  0  0  0
 28 49  1  0  0  0  0
 29 10  1  0  0  0  0
 29 50  1  0  0  0  0
 30 33  2  0  0  0  0
 30 24  1  0  0  0  0
 30 51  1  0  0  0  0
 31 21  1  0  0  0  0
 31 32  1  0  0  0  0
 31 52  1  0  0  0  0
 31 53  1  0  0  0  0
 32 23  1  0  0  0  0
 32 54  1  0  0  0  0
 32 55  1  0  0  0  0
 33 28  1  0  0  0  0
 33 56  1  0  0  0  0
 34 27  2  0  0  0  0
 34 57  1  0  0  0  0
 35 34  1  0  0  0  0
 35 29  2  0  0  0  0
 35 58  1  0  0  0  0
M  END
>  <Mol_ID>
9100

>  <Formula>
C25H23N5O4S

>  <MolWeight>
489.54622

>  <Cat>
P3108

>  <Name>
WAY-640509

>  <Synonyms>
N/A

>  <Target>
glucocerebrosidase

>  <Form>
free base

>  <CAS>
851185-20-1

>  <URL>
N/A

$$$$
