WAY-622252
 OpenBabel08302521443D

 30 32  0  0  0  0  0  0  0  0999 V2000
    2.4289   -0.6340   -0.0633 N   0  0  0  0  0  0  0  0  0  0  0  0
    3.6844   -1.3113   -0.1058 C   0  0  0  0  0  0  0  0  0  0  0  0
    1.2730   -1.4309   -0.0611 C   0  0  0  0  0  0  0  0  0  0  0  0
    2.3351    0.7497   -0.0408 C   0  0  0  0  0  0  0  0  0  0  0  0
   -1.2305   -1.4117   -0.0340 C   0  0  0  0  0  0  0  0  0  0  0  0
   -2.4121    0.6914   -0.0225 C   0  0  0  0  0  0  0  0  0  0  0  0
   -0.0141   -0.7165   -0.0212 C   0  0  0  0  0  0  0  0  0  0  0  0
    1.2553   -2.6611   -0.0656 O   0  0  0  0  0  0  0  0  0  0  0  0
    1.2090    1.3934    0.0142 N   0  0  0  0  0  0  0  0  0  0  0  0
    3.5728    1.6205   -0.1441 C   0  0  0  0  0  0  0  0  0  0  0  0
   -1.1931    1.3736    0.0088 C   0  0  0  0  0  0  0  0  0  0  0  0
   -2.4314   -0.7032   -0.0376 C   0  0  0  0  0  0  0  0  0  0  0  0
    0.0152    0.6725    0.0127 C   0  0  0  0  0  0  0  0  0  0  0  0
    3.9524   -2.2162   -1.1459 C   0  0  0  0  0  0  0  0  0  0  0  0
    5.1905   -2.8555   -1.2255 C   0  0  0  0  0  0  0  0  0  0  0  0
    6.1501   -2.6107   -0.2524 C   0  0  0  0  0  0  0  0  0  0  0  0
    5.8933   -1.7431    0.8036 C   0  0  0  0  0  0  0  0  0  0  0  0
    4.6594   -1.0918    0.8794 C   0  0  0  0  0  0  0  0  0  0  0  0
    7.3400   -3.2198   -0.3312 F   0  0  0  0  0  0  0  0  0  0  0  0
   -1.2431   -2.4991   -0.0493 H   0  0  0  0  0  0  0  0  0  0  0  0
   -3.3448    1.2503   -0.0385 H   0  0  0  0  0  0  0  0  0  0  0  0
    3.3819    2.4130   -0.8755 H   0  0  0  0  0  0  0  0  0  0  0  0
    3.7577    2.0905    0.8257 H   0  0  0  0  0  0  0  0  0  0  0  0
    4.4682    1.0960   -0.4737 H   0  0  0  0  0  0  0  0  0  0  0  0
   -1.1804    2.4606    0.0177 H   0  0  0  0  0  0  0  0  0  0  0  0
   -3.3788   -1.2352   -0.0598 H   0  0  0  0  0  0  0  0  0  0  0  0
    3.2061   -2.4133   -1.9128 H   0  0  0  0  0  0  0  0  0  0  0  0
    5.4082   -3.5399   -2.0397 H   0  0  0  0  0  0  0  0  0  0  0  0
    6.6540   -1.5828    1.5613 H   0  0  0  0  0  0  0  0  0  0  0  0
    4.4607   -0.4335    1.7217 H   0  0  0  0  0  0  0  0  0  0  0  0
  2  1  1  0  0  0  0
  3  1  1  0  0  0  0
  4  1  1  0  0  0  0
  4  9  2  0  0  0  0
  5  7  2  0  0  0  0
  5 20  1  0  0  0  0
  6 12  2  0  0  0  0
  6 21  1  0  0  0  0
  7  3  1  0  0  0  0
  7 13  1  0  0  0  0
  8  3  2  0  0  0  0
 10  4  1  0  0  0  0
 10 22  1  0  0  0  0
 10 23  1  0  0  0  0
 10 24  1  0  0  0  0
 11  6  1  0  0  0  0
 11 13  2  0  0  0  0
 11 25  1  0  0  0  0
 12  5  1  0  0  0  0
 12 26  1  0  0  0  0
 13  9  1  0  0  0  0
 14 15  2  0  0  0  0
 14  2  1  0  0  0  0
 14 27  1  0  0  0  0
 15 28  1  0  0  0  0
 16 15  1  0  0  0  0
 16 17  2  0  0  0  0
 16 19  1  0  0  0  0
 17 29  1  0  0  0  0
 18 17  1  0  0  0  0
 18  2  2  0  0  0  0
 18 30  1  0  0  0  0
M  END
>  <Mol_ID>
9074

>  <Formula>
C15H11FN2O

>  <MolWeight>
254.2590432

>  <Cat>
P2995

>  <Name>
WAY-622252

>  <Synonyms>
N/A

>  <Target>
Others

>  <Form>
free base

>  <CAS>
1897-80-9

>  <URL>
N/A

$$$$
