WAY-637476
 OpenBabel08302521423D

 32 34  0  0  0  0  0  0  0  0999 V2000
   -1.1709    1.4148   -0.0973 N   0  0  0  0  0  0  0  0  0  0  0  0
   -4.5103    4.6347   -1.5412 C   0  0  0  0  0  0  0  0  0  0  0  0
   -1.2431    2.7606   -0.5772 C   0  0  0  0  0  0  0  0  0  0  0  0
   -5.4264    5.3856   -2.3591 N   0  3  0  0  0  0  0  0  0  0  0  0
   -2.5594    3.4080   -0.6500 C   0  0  0  0  0  0  0  0  0  0  0  0
   -2.9018    4.3991   -2.0246 S   0  0  0  0  0  0  0  0  0  0  0  0
    0.0858    0.6941   -0.0025 C   0  0  0  0  0  0  0  0  0  0  0  0
   -4.7962    4.0327   -0.3371 C   0  0  0  0  0  0  0  0  0  0  0  0
   -3.6369    3.4154    0.2237 C   0  0  0  0  0  0  0  0  0  0  0  0
   -6.6128    5.3820   -1.9958 O   0  5  0  0  0  0  0  0  0  0  0  0
   -4.9857    5.9801   -3.3496 O   0  0  0  0  0  0  0  0  0  0  0  0
   -0.2552    3.3632   -0.9960 O   0  0  0  0  0  0  0  0  0  0  0  0
    0.0837   -0.7218    0.0281 C   0  0  0  0  0  0  0  0  0  0  0  0
   -2.3605    0.6252    0.2559 C   0  0  0  0  0  0  0  0  0  0  0  0
    1.3277    1.3393    0.0688 C   0  0  0  0  0  0  0  0  0  0  0  0
   -2.3827   -0.7410   -0.3935 C   0  0  0  0  0  0  0  0  0  0  0  0
   -1.1797   -1.5385    0.0429 C   0  0  0  0  0  0  0  0  0  0  0  0
    1.2966   -1.4359    0.0748 C   0  0  0  0  0  0  0  0  0  0  0  0
    2.5273    0.6184    0.1260 C   0  0  0  0  0  0  0  0  0  0  0  0
    2.5142   -0.7671    0.1134 C   0  0  0  0  0  0  0  0  0  0  0  0
   -5.7742    4.0487    0.1323 H   0  0  0  0  0  0  0  0  0  0  0  0
   -3.6309    2.9217    1.1887 H   0  0  0  0  0  0  0  0  0  0  0  0
   -3.2802    1.1019   -0.0679 H   0  0  0  0  0  0  0  0  0  0  0  0
   -2.3897    0.5530    1.3507 H   0  0  0  0  0  0  0  0  0  0  0  0
    1.4087    2.4213    0.1124 H   0  0  0  0  0  0  0  0  0  0  0  0
   -3.3011   -1.2703   -0.1165 H   0  0  0  0  0  0  0  0  0  0  0  0
   -2.3885   -0.6244   -1.4838 H   0  0  0  0  0  0  0  0  0  0  0  0
   -1.3324   -1.9126    1.0628 H   0  0  0  0  0  0  0  0  0  0  0  0
   -1.0810   -2.4067   -0.6190 H   0  0  0  0  0  0  0  0  0  0  0  0
    1.2906   -2.5242    0.0790 H   0  0  0  0  0  0  0  0  0  0  0  0
    3.4740    1.1514    0.1810 H   0  0  0  0  0  0  0  0  0  0  0  0
    3.4460   -1.3282    0.1449 H   0  0  0  0  0  0  0  0  0  0  0  0
  2  6  1  0  0  0  0
  3  1  1  0  0  0  0
  4  2  1  0  0  0  0
  5  3  1  0  0  0  0
  6  5  1  0  0  0  0
  7  1  1  0  0  0  0
  8  9  1  0  0  0  0
  8  2  2  0  0  0  0
  8 21  1  0  0  0  0
  9  5  2  0  0  0  0
  9 22  1  0  0  0  0
 10  4  1  0  0  0  0
 11  4  2  0  0  0  0
 12  3  2  0  0  0  0
 13  7  2  0  0  0  0
 14  1  1  0  0  0  0
 14 23  1  0  0  0  0
 14 24  1  0  0  0  0
 15  7  1  0  0  0  0
 15 25  1  0  0  0  0
 16 14  1  0  0  0  0
 16 26  1  0  0  0  0
 16 27  1  0  0  0  0
 17 16  1  0  0  0  0
 17 13  1  0  0  0  0
 17 28  1  0  0  0  0
 17 29  1  0  0  0  0
 18 13  1  0  0  0  0
 18 30  1  0  0  0  0
 19 15  2  0  0  0  0
 19 31  1  0  0  0  0
 20 19  1  0  0  0  0
 20 18  2  0  0  0  0
 20 32  1  0  0  0  0
M  CHG  2   4   1  10  -1
M  END
>  <Mol_ID>
8494

>  <Formula>
C14H12N2O3S

>  <MolWeight>
288.32168

>  <Cat>
P3014

>  <Name>
WAY-637476

>  <Synonyms>
N/A

>  <Target>
gonadotropin-releasing hormone

>  <Form>
free base

>  <CAS>
793729-55-2

>  <URL>
N/A

$$$$
