WAY-326571
 OpenBabel08302521433D

 33 35  0  0  0  0  0  0  0  0999 V2000
   -1.7062   -0.5787   -0.0014 C   0  0  0  0  0  0  0  0  0  0  0  0
   -0.8755    0.5172   -0.0012 C   0  0  0  0  0  0  0  0  0  0  0  0
   -1.1493   -1.9279   -0.0028 C   0  0  0  0  0  0  0  0  0  0  0  0
    0.2624   -2.0349   -0.0029 N   0  0  0  0  0  0  0  0  0  0  0  0
   -1.7363    1.9787   -0.0001 S   0  0  0  0  0  0  0  0  0  0  0  0
   -3.0917   -0.1894   -0.0005 C   0  0  0  0  0  0  0  0  0  0  0  0
   -3.2555    1.1860    0.0007 C   0  0  0  0  0  0  0  0  0  0  0  0
    0.5799    0.4167   -0.0016 C   0  0  0  0  0  0  0  0  0  0  0  0
    1.1364   -0.8850   -0.0017 C   0  0  0  0  0  0  0  0  0  0  0  0
   -4.4451    2.0156    0.0024 C   0  0  0  0  0  0  0  0  0  0  0  0
   -1.8897   -2.9106   -0.0036 O   0  0  0  0  0  0  0  0  0  0  0  0
   -4.4617    3.2436    0.0027 O   0  0  0  0  0  0  0  0  0  0  0  0
    0.7721   -3.3951   -0.0028 C   0  0  0  0  0  0  0  0  0  0  0  0
   -5.5772    1.2486    0.0040 O   0  0  0  0  0  0  0  0  0  0  0  0
    1.4154    1.5477   -0.0009 C   0  0  0  0  0  0  0  0  0  0  0  0
    2.5369   -0.9961   -0.0003 C   0  0  0  0  0  0  0  0  0  0  0  0
   -6.7746    2.0379    0.0054 C   0  0  0  0  0  0  0  0  0  0  0  0
    2.7989    1.4084    0.0006 C   0  0  0  0  0  0  0  0  0  0  0  0
    3.3578    0.1386    0.0011 C   0  0  0  0  0  0  0  0  0  0  0  0
   -7.9785    1.1196    0.0099 C   0  0  0  0  0  0  0  0  0  0  0  0
   -3.9150   -0.8961   -0.0005 H   0  0  0  0  0  0  0  0  0  0  0  0
    0.3930   -3.9128    0.8851 H   0  0  0  0  0  0  0  0  0  0  0  0
    0.3914   -3.9137   -0.8895 H   0  0  0  0  0  0  0  0  0  0  0  0
    1.8564   -3.4809   -0.0040 H   0  0  0  0  0  0  0  0  0  0  0  0
    1.0039    2.5541   -0.0012 H   0  0  0  0  0  0  0  0  0  0  0  0
    3.0488   -1.9505    0.0003 H   0  0  0  0  0  0  0  0  0  0  0  0
   -6.7975    2.6723    0.8996 H   0  0  0  0  0  0  0  0  0  0  0  0
   -6.8010    2.6682   -0.8914 H   0  0  0  0  0  0  0  0  0  0  0  0
    3.4345    2.2903    0.0018 H   0  0  0  0  0  0  0  0  0  0  0  0
    4.4395    0.0252    0.0027 H   0  0  0  0  0  0  0  0  0  0  0  0
   -7.9703    0.4683   -0.8696 H   0  0  0  0  0  0  0  0  0  0  0  0
   -7.9673    0.4727    0.8926 H   0  0  0  0  0  0  0  0  0  0  0  0
   -8.9052    1.7013    0.0100 H   0  0  0  0  0  0  0  0  0  0  0  0
  2  1  2  0  0  0  0
  3  1  1  0  0  0  0
  4  3  1  0  0  0  0
  5  2  1  0  0  0  0
  6  1  1  0  0  0  0
  6 21  1  0  0  0  0
  7  6  2  0  0  0  0
  7  5  1  0  0  0  0
  8  2  1  0  0  0  0
  8  9  2  0  0  0  0
  9  4  1  0  0  0  0
 10  7  1  0  0  0  0
 11  3  2  0  0  0  0
 12 10  2  0  0  0  0
 13  4  1  0  0  0  0
 13 22  1  0  0  0  0
 13 23  1  0  0  0  0
 13 24  1  0  0  0  0
 14 10  1  0  0  0  0
 15  8  1  0  0  0  0
 15 25  1  0  0  0  0
 16  9  1  0  0  0  0
 16 26  1  0  0  0  0
 17 14  1  0  0  0  0
 17 27  1  0  0  0  0
 17 28  1  0  0  0  0
 18 15  2  0  0  0  0
 18 19  1  0  0  0  0
 18 29  1  0  0  0  0
 19 16  2  0  0  0  0
 19 30  1  0  0  0  0
 20 17  1  0  0  0  0
 20 31  1  0  0  0  0
 20 32  1  0  0  0  0
 20 33  1  0  0  0  0
M  END
>  <Mol_ID>
8928

>  <Formula>
C15H13NO3S

>  <MolWeight>
287.33362

>  <Cat>
P2487

>  <Name>
WAY-326571

>  <Synonyms>
N/A

>  <Target>
DNA Gyrase

>  <Form>
free base

>  <CAS>
870984-18-2

>  <URL>
N/A

$$$$
