WAY-333576
 OpenBabel08302521443D

 55 58  0  0  0  0  0  0  0  0999 V2000
    0.1751    0.6868   -0.1004 N   0  0  0  0  0  0  0  0  0  0  0  0
    1.4711    1.1761   -0.0815 C   0  0  0  0  0  0  0  0  0  0  0  0
    2.3065    0.1469   -0.0516 N   0  0  0  0  0  0  0  0  0  0  0  0
    0.3067   -0.6854   -0.0552 C   0  0  0  0  0  0  0  0  0  0  0  0
   -1.0047    1.3917   -0.1281 N   0  0  0  0  0  0  0  0  0  0  0  0
    1.5755   -1.0159   -0.0462 N   0  0  0  0  0  0  0  0  0  0  0  0
    1.8568    2.5907   -0.0628 C   0  0  0  0  0  0  0  0  0  0  0  0
   -2.0661    0.6479   -0.0902 C   0  0  0  0  0  0  0  0  0  0  0  0
   -0.8779   -1.4529    0.0075 C   0  0  0  0  0  0  0  0  0  0  0  0
    3.0791    2.9723    0.5217 C   0  0  0  0  0  0  0  0  0  0  0  0
   -2.0662   -0.8338    0.0093 C   0  0  0  0  0  0  0  0  0  0  0  0
    3.5012    4.3139    0.5395 C   0  0  0  0  0  0  0  0  0  0  0  0
   -6.1550    1.0926   -1.1306 C   0  0  0  0  0  0  0  0  0  0  0  0
   -7.1078    0.2845   -1.7404 N   0  0  0  0  0  0  0  0  0  0  0  0
   -3.6076    1.4797   -0.0651 S   0  0  0  0  0  0  0  0  0  0  0  0
    2.6618    5.2948   -0.0241 C   0  0  0  0  0  0  0  0  0  0  0  0
    1.0576    3.5779   -0.6358 C   0  0  0  0  0  0  0  0  0  0  0  0
   -6.4188    2.2328   -0.7622 O   0  0  0  0  0  0  0  0  0  0  0  0
    1.4512    4.9117   -0.6061 C   0  0  0  0  0  0  0  0  0  0  0  0
   -4.7847    0.4124   -0.9473 C   0  0  0  0  0  0  0  0  0  0  0  0
    4.6914    4.7134    1.0837 O   0  0  0  0  0  0  0  0  0  0  0  0
   -8.4630    0.7701   -2.0446 C   0  0  0  0  0  0  0  0  0  0  0  0
    2.8518    6.6490   -0.1023 O   0  0  0  0  0  0  0  0  0  0  0  0
    5.5474    3.7319    1.6533 C   0  0  0  0  0  0  0  0  0  0  0  0
    4.0511    7.2033    0.4105 C   0  0  0  0  0  0  0  0  0  0  0  0
   -9.4749   -0.3862   -2.0244 C   0  0  0  0  0  0  0  0  0  0  0  0
   -8.5164    1.4915   -3.4014 C   0  0  0  0  0  0  0  0  0  0  0  0
   -9.9330    1.9679   -3.7345 C   0  0  0  0  0  0  0  0  0  0  0  0
  -10.8913    0.0970   -2.3412 C   0  0  0  0  0  0  0  0  0  0  0  0
  -10.9479    0.8297   -3.6780 C   0  0  0  0  0  0  0  0  0  0  0  0
   -0.7899   -2.5293    0.0856 H   0  0  0  0  0  0  0  0  0  0  0  0
    3.6894    2.1908    0.9680 H   0  0  0  0  0  0  0  0  0  0  0  0
   -2.9850   -1.3908    0.1126 H   0  0  0  0  0  0  0  0  0  0  0  0
   -6.8354   -0.6095   -2.1198 H   0  0  0  0  0  0  0  0  0  0  0  0
    0.1146    3.3360   -1.1190 H   0  0  0  0  0  0  0  0  0  0  0  0
    0.8017    5.6657   -1.0493 H   0  0  0  0  0  0  0  0  0  0  0  0
   -4.3888    0.1482   -1.9327 H   0  0  0  0  0  0  0  0  0  0  0  0
   -4.9494   -0.4965   -0.3616 H   0  0  0  0  0  0  0  0  0  0  0  0
   -8.7423    1.4873   -1.2627 H   0  0  0  0  0  0  0  0  0  0  0  0
    5.0889    3.2781    2.5381 H   0  0  0  0  0  0  0  0  0  0  0  0
    5.8326    2.9738    0.9164 H   0  0  0  0  0  0  0  0  0  0  0  0
    6.4628    4.2375    1.9752 H   0  0  0  0  0  0  0  0  0  0  0  0
    4.1676    6.9930    1.4776 H   0  0  0  0  0  0  0  0  0  0  0  0
    4.9141    6.8733   -0.1760 H   0  0  0  0  0  0  0  0  0  0  0  0
    3.9807    8.2907    0.3083 H   0  0  0  0  0  0  0  0  0  0  0  0
   -9.1839   -1.1515   -2.7561 H   0  0  0  0  0  0  0  0  0  0  0  0
   -9.4684   -0.8746   -1.0429 H   0  0  0  0  0  0  0  0  0  0  0  0
   -7.8366    2.3515   -3.4012 H   0  0  0  0  0  0  0  0  0  0  0  0
   -8.1667    0.8182   -4.1950 H   0  0  0  0  0  0  0  0  0  0  0  0
   -9.9478    2.4217   -4.7322 H   0  0  0  0  0  0  0  0  0  0  0  0
  -10.2294    2.7512   -3.0255 H   0  0  0  0  0  0  0  0  0  0  0  0
  -11.5802   -0.7553   -2.3599 H   0  0  0  0  0  0  0  0  0  0  0  0
  -11.2366    0.7671   -1.5440 H   0  0  0  0  0  0  0  0  0  0  0  0
  -10.7508    0.1214   -4.4921 H   0  0  0  0  0  0  0  0  0  0  0  0
  -11.9582    1.2252   -3.8407 H   0  0  0  0  0  0  0  0  0  0  0  0
  2  1  1  0  0  0  0
  3  2  2  0  0  0  0
  4  1  1  0  0  0  0
  5  1  1  0  0  0  0
  6  4  2  0  0  0  0
  6  3  1  0  0  0  0
  7  2  1  0  0  0  0
  8  5  2  0  0  0  0
  9  4  1  0  0  0  0
  9 31  1  0  0  0  0
 10  7  2  0  0  0  0
 10 32  1  0  0  0  0
 11  8  1  0  0  0  0
 11  9  2  0  0  0  0
 11 33  1  0  0  0  0
 12 10  1  0  0  0  0
 12 16  2  0  0  0  0
 13 20  1  0  0  0  0
 14 13  1  0  0  0  0
 14 34  1  0  0  0  0
 15  8  1  0  0  0  0
 16 19  1  0  0  0  0
 17  7  1  0  0  0  0
 17 35  1  0  0  0  0
 18 13  2  0  0  0  0
 19 17  2  0  0  0  0
 19 36  1  0  0  0  0
 20 15  1  0  0  0  0
 20 37  1  0  0  0  0
 20 38  1  0  0  0  0
 21 12  1  0  0  0  0
 22 14  1  0  0  0  0
 22 39  1  0  0  0  0
 23 16  1  0  0  0  0
 24 21  1  0  0  0  0
 24 40  1  0  0  0  0
 24 41  1  0  0  0  0
 24 42  1  0  0  0  0
 25 23  1  0  0  0  0
 25 43  1  0  0  0  0
 25 44  1  0  0  0  0
 25 45  1  0  0  0  0
 26 22  1  0  0  0  0
 26 46  1  0  0  0  0
 26 47  1  0  0  0  0
 27 22  1  0  0  0  0
 27 48  1  0  0  0  0
 27 49  1  0  0  0  0
 28 27  1  0  0  0  0
 28 50  1  0  0  0  0
 28 51  1  0  0  0  0
 29 26  1  0  0  0  0
 29 52  1  0  0  0  0
 29 53  1  0  0  0  0
 30 28  1  0  0  0  0
 30 29  1  0  0  0  0
 30 54  1  0  0  0  0
 30 55  1  0  0  0  0
M  END
>  <Mol_ID>
9187

>  <Formula>
C21H25N5O3S

>  <MolWeight>
427.5199

>  <Cat>
P2729

>  <Name>
WAY-333576

>  <Synonyms>
N/A

>  <Target>
PfPI(4)K

>  <Form>
free base

>  <CAS>
852437-70-8

>  <URL>
N/A

$$$$
