WAY-300505-A
 OpenBabel08302521413D

 47 49  0  0  0  0  0  0  0  0999 V2000
   -1.2867   -0.0514   -0.1339 C   0  0  0  0  0  0  0  0  0  0  0  0
   -0.5299   -1.1381   -0.1880 N   0  0  0  0  0  0  0  0  0  0  0  0
   -0.8186    1.1750    0.0319 N   0  0  0  0  0  0  0  0  0  0  0  0
   -2.6450   -0.1490   -0.2768 N   0  0  0  0  0  0  0  0  0  0  0  0
    0.7634   -0.9353    0.0312 C   0  0  0  0  0  0  0  0  0  0  0  0
    0.5018    1.3090    0.0721 C   0  0  0  0  0  0  0  0  0  0  0  0
   -3.2778   -1.3872   -0.6434 C   0  0  0  0  0  0  0  0  0  0  0  0
    1.3150    0.2673    0.1252 N   0  0  0  0  0  0  0  0  0  0  0  0
    1.5467   -2.0901    0.2412 N   0  0  0  0  0  0  0  0  0  0  0  0
    1.0422    2.5749    0.0302 N   0  0  0  0  0  0  0  0  0  0  0  0
   -4.6697   -1.1109   -1.1739 C   0  0  0  0  0  0  0  0  0  0  0  0
    2.8499   -2.0828    0.6700 N   0  0  0  0  0  0  0  0  0  0  0  0
    2.4753    2.7700    0.0549 C   0  0  0  0  0  0  0  0  0  0  0  0
    0.1657    3.7089    0.2288 C   0  0  0  0  0  0  0  0  0  0  0  0
   -4.8724   -0.1406   -2.1698 C   0  0  0  0  0  0  0  0  0  0  0  0
   -5.7679   -1.8630   -0.7342 C   0  0  0  0  0  0  0  0  0  0  0  0
    3.0788   -1.3570    1.7240 C   0  0  0  0  0  0  0  0  0  0  0  0
   -6.1418    0.0700   -2.7123 C   0  0  0  0  0  0  0  0  0  0  0  0
   -7.0377   -1.6482   -1.2760 C   0  0  0  0  0  0  0  0  0  0  0  0
    4.3823   -1.3224    2.4035 C   0  0  0  0  0  0  0  0  0  0  0  0
   -7.2234   -0.6831   -2.2654 C   0  0  0  0  0  0  0  0  0  0  0  0
    4.5719   -0.4107    3.4409 C   0  0  0  0  0  0  0  0  0  0  0  0
    5.3900   -2.2365    2.0871 C   0  0  0  0  0  0  0  0  0  0  0  0
    5.7564   -0.4062    4.1726 C   0  0  0  0  0  0  0  0  0  0  0  0
    3.6146    0.4712    3.7618 F   0  0  0  0  0  0  0  0  0  0  0  0
    6.5767   -2.2402    2.8282 C   0  0  0  0  0  0  0  0  0  0  0  0
    6.7575   -1.3299    3.8724 C   0  0  0  0  0  0  0  0  0  0  0  0
   -3.1700    0.5685    0.2012 H   0  0  0  0  0  0  0  0  0  0  0  0
   -2.7236   -1.8892   -1.4468 H   0  0  0  0  0  0  0  0  0  0  0  0
   -3.3168   -2.0683    0.2149 H   0  0  0  0  0  0  0  0  0  0  0  0
    1.2536   -2.8178   -0.4025 H   0  0  0  0  0  0  0  0  0  0  0  0
    2.7577    3.5122   -0.7005 H   0  0  0  0  0  0  0  0  0  0  0  0
    2.7935    3.1425    1.0336 H   0  0  0  0  0  0  0  0  0  0  0  0
    3.0550    1.8686   -0.1703 H   0  0  0  0  0  0  0  0  0  0  0  0
   -0.5621    3.7909   -0.5863 H   0  0  0  0  0  0  0  0  0  0  0  0
   -0.3703    3.6333    1.1816 H   0  0  0  0  0  0  0  0  0  0  0  0
    0.7338    4.6460    0.2493 H   0  0  0  0  0  0  0  0  0  0  0  0
   -4.0336    0.4495   -2.5348 H   0  0  0  0  0  0  0  0  0  0  0  0
   -5.6425   -2.6289    0.0286 H   0  0  0  0  0  0  0  0  0  0  0  0
    2.2849   -0.7532    2.1985 H   0  0  0  0  0  0  0  0  0  0  0  0
   -6.2799    0.8276   -3.4814 H   0  0  0  0  0  0  0  0  0  0  0  0
   -7.8814   -2.2410   -0.9321 H   0  0  0  0  0  0  0  0  0  0  0  0
   -8.2097   -0.5238   -2.6950 H   0  0  0  0  0  0  0  0  0  0  0  0
    5.2463   -2.9620    1.2902 H   0  0  0  0  0  0  0  0  0  0  0  0
    5.8832    0.3061    4.9821 H   0  0  0  0  0  0  0  0  0  0  0  0
    7.3528   -2.9671    2.6008 H   0  0  0  0  0  0  0  0  0  0  0  0
    7.6772   -1.3434    4.4530 H   0  0  0  0  0  0  0  0  0  0  0  0
  1  2  2  0  0  0  0
  1  3  1  0  0  0  0
  1  4  1  0  0  0  0
  2  5  1  0  0  0  0
  3  6  2  0  0  0  0
  4  7  1  0  0  0  0
  4 28  1  0  0  0  0
  5  8  2  0  0  0  0
  5  9  1  0  0  0  0
  6 10  1  0  0  0  0
  6  8  1  0  0  0  0
  7 11  1  0  0  0  0
  7 29  1  0  0  0  0
  7 30  1  0  0  0  0
  9 12  1  0  0  0  0
  9 31  1  0  0  0  0
 10 13  1  0  0  0  0
 10 14  1  0  0  0  0
 11 15  2  0  0  0  0
 11 16  1  0  0  0  0
 12 17  2  0  0  0  0
 13 32  1  0  0  0  0
 13 33  1  0  0  0  0
 13 34  1  0  0  0  0
 14 35  1  0  0  0  0
 14 36  1  0  0  0  0
 14 37  1  0  0  0  0
 15 18  1  0  0  0  0
 15 38  1  0  0  0  0
 16 19  2  0  0  0  0
 16 39  1  0  0  0  0
 17 20  1  0  0  0  0
 17 40  1  0  0  0  0
 18 21  2  0  0  0  0
 18 41  1  0  0  0  0
 19 21  1  0  0  0  0
 19 42  1  0  0  0  0
 20 22  2  0  0  0  0
 20 23  1  0  0  0  0
 21 43  1  0  0  0  0
 22 24  1  0  0  0  0
 22 25  1  0  0  0  0
 23 26  2  0  0  0  0
 23 44  1  0  0  0  0
 24 27  2  0  0  0  0
 24 45  1  0  0  0  0
 26 27  1  0  0  0  0
 26 46  1  0  0  0  0
 27 47  1  0  0  0  0
M  END
>  <Mol_ID>
8411

>  <Formula>
C19H20FN7

>  <MolWeight>
365.4074032

>  <Cat>
P2144

>  <Name>
WAY-300505-A

>  <Synonyms>
N/A

>  <Target>
Anti-infection

>  <Form>
free base

>  <CAS>
339321-57-2

>  <URL>
N/A

$$$$
