WAY-655834
 OpenBabel08302521423D

 49 52  0  0  0  0  0  0  0  0999 V2000
    1.2063    0.3141   -0.1485 O   0  0  0  0  0  0  0  0  0  0  0  0
    2.4260    0.1227   -0.1568 C   0  0  0  0  0  0  0  0  0  0  0  0
    3.1467   -0.1888    1.1493 C   0  0  0  0  0  0  0  0  0  0  0  0
    3.1967   -1.6554    1.5045 C   0  0  0  0  0  0  0  0  0  0  0  0
    2.0246   -2.3928    1.6888 C   0  0  0  0  0  0  0  0  0  0  0  0
    2.0809   -3.7541    2.0235 C   0  0  0  0  0  0  0  0  0  0  0  0
    3.3054   -4.4308    2.1707 C   0  0  0  0  0  0  0  0  0  0  0  0
    4.4726   -3.6624    2.0147 C   0  0  0  0  0  0  0  0  0  0  0  0
    4.4217   -2.2993    1.7005 C   0  0  0  0  0  0  0  0  0  0  0  0
    3.3695   -5.8898    2.4430 C   0  0  0  0  0  0  0  0  0  0  0  0
    4.4292   -6.4640    3.1711 C   0  0  0  0  0  0  0  0  0  0  0  0
    4.5202   -7.8467    3.3709 C   0  0  0  0  0  0  0  0  0  0  0  0
    3.5393   -8.6911    2.8630 C   0  0  0  0  0  0  0  0  0  0  0  0
    2.4685   -8.1531    2.1582 C   0  0  0  0  0  0  0  0  0  0  0  0
    2.3894   -6.7717    1.9477 C   0  0  0  0  0  0  0  0  0  0  0  0
    3.1714    0.2334   -1.3201 N   0  0  0  0  0  0  0  0  0  0  0  0
    4.5634   -0.2035   -1.5066 C   0  0  0  0  0  0  0  0  0  0  0  0
    4.6954   -1.1763   -2.6971 C   0  0  0  0  0  0  0  0  0  0  0  0
    4.0681   -0.6072   -3.8873 N   0  0  0  0  0  0  0  0  0  0  0  0
    2.6803   -0.1664   -3.7429 C   0  0  0  0  0  0  0  0  0  0  0  0
    2.5450    0.7800   -2.5335 C   0  0  0  0  0  0  0  0  0  0  0  0
    4.7953   -0.3309   -5.0152 C   0  0  0  0  0  0  0  0  0  0  0  0
    4.1814    0.2448   -6.0638 N   0  0  0  0  0  0  0  0  0  0  0  0
    4.9047    0.4670   -7.1774 C   0  0  0  0  0  0  0  0  0  0  0  0
    6.2314    0.1500   -7.2957 C   0  0  0  0  0  0  0  0  0  0  0  0
    6.7857   -0.4203   -6.1803 C   0  0  0  0  0  0  0  0  0  0  0  0
    6.0989   -0.6618   -5.0454 N   0  0  0  0  0  0  0  0  0  0  0  0
    4.1467    0.2567    1.1386 H   0  0  0  0  0  0  0  0  0  0  0  0
    2.6166    0.3415    1.9512 H   0  0  0  0  0  0  0  0  0  0  0  0
    1.0509   -1.9179    1.5721 H   0  0  0  0  0  0  0  0  0  0  0  0
    1.1384   -4.2794    2.1690 H   0  0  0  0  0  0  0  0  0  0  0  0
    5.4530   -4.1226    2.1144 H   0  0  0  0  0  0  0  0  0  0  0  0
    5.3566   -1.7517    1.6054 H   0  0  0  0  0  0  0  0  0  0  0  0
    5.2088   -5.8384    3.5995 H   0  0  0  0  0  0  0  0  0  0  0  0
    5.3610   -8.2602    3.9220 H   0  0  0  0  0  0  0  0  0  0  0  0
    3.6097   -9.7648    3.0142 H   0  0  0  0  0  0  0  0  0  0  0  0
    1.6965   -8.8057    1.7589 H   0  0  0  0  0  0  0  0  0  0  0  0
    1.5524   -6.3958    1.3635 H   0  0  0  0  0  0  0  0  0  0  0  0
    5.1573    0.7008   -1.6903 H   0  0  0  0  0  0  0  0  0  0  0  0
    4.9574   -0.6844   -0.6137 H   0  0  0  0  0  0  0  0  0  0  0  0
    4.1765   -2.1125   -2.4513 H   0  0  0  0  0  0  0  0  0  0  0  0
    5.7511   -1.4337   -2.8313 H   0  0  0  0  0  0  0  0  0  0  0  0
    2.0538   -1.0518   -3.5774 H   0  0  0  0  0  0  0  0  0  0  0  0
    2.2837    0.3376   -4.6303 H   0  0  0  0  0  0  0  0  0  0  0  0
    1.4912    1.0193   -2.3686 H   0  0  0  0  0  0  0  0  0  0  0  0
    3.0623    1.7247   -2.7492 H   0  0  0  0  0  0  0  0  0  0  0  0
    4.3596    0.9222   -7.9991 H   0  0  0  0  0  0  0  0  0  0  0  0
    6.7956    0.3299   -8.1979 H   0  0  0  0  0  0  0  0  0  0  0  0
    7.8311   -0.7150   -6.1588 H   0  0  0  0  0  0  0  0  0  0  0  0
  1  2  2  0  0  0  0
  2  3  1  0  0  0  0
  2 16  1  0  0  0  0
  3  4  1  0  0  0  0
  3 28  1  0  0  0  0
  3 29  1  0  0  0  0
  4  9  1  0  0  0  0
  4  5  2  0  0  0  0
  5  6  1  0  0  0  0
  5 30  1  0  0  0  0
  6  7  2  0  0  0  0
  6 31  1  0  0  0  0
  7  8  1  0  0  0  0
  7 10  1  0  0  0  0
  8  9  2  0  0  0  0
  8 32  1  0  0  0  0
  9 33  1  0  0  0  0
 10 15  1  0  0  0  0
 10 11  2  0  0  0  0
 11 12  1  0  0  0  0
 11 34  1  0  0  0  0
 12 13  2  0  0  0  0
 12 35  1  0  0  0  0
 13 14  1  0  0  0  0
 13 36  1  0  0  0  0
 14 15  2  0  0  0  0
 14 37  1  0  0  0  0
 15 38  1  0  0  0  0
 16 21  1  0  0  0  0
 16 17  1  0  0  0  0
 17 18  1  0  0  0  0
 17 39  1  0  0  0  0
 17 40  1  0  0  0  0
 18 19  1  0  0  0  0
 18 41  1  0  0  0  0
 18 42  1  0  0  0  0
 19 20  1  0  0  0  0
 19 22  1  0  0  0  0
 20 21  1  0  0  0  0
 20 43  1  0  0  0  0
 20 44  1  0  0  0  0
 21 45  1  0  0  0  0
 21 46  1  0  0  0  0
 22 27  1  0  0  0  0
 22 23  2  0  0  0  0
 23 24  1  0  0  0  0
 24 25  2  0  0  0  0
 24 47  1  0  0  0  0
 25 26  1  0  0  0  0
 25 48  1  0  0  0  0
 26 27  2  0  0  0  0
 26 49  1  0  0  0  0
M  END
>  <Mol_ID>
8521

>  <Formula>
C22H22N4O

>  <MolWeight>
358.43628

>  <Cat>
P3132

>  <Name>
WAY-655834

>  <Synonyms>
N/A

>  <Target>
proline transporter

>  <Form>
free base

>  <CAS>
796977-98-5

>  <URL>
N/A

$$$$
