WAY-327111
 OpenBabel08302521443D

 36 38  0  0  0  0  0  0  0  0999 V2000
    1.0964   -0.7831    0.0625 C   0  0  0  0  0  0  0  0  0  0  0  0
    2.3659   -1.5392    0.0027 C   0  0  0  0  0  0  0  0  0  0  0  0
   -0.1339   -1.4061    0.0756 C   0  0  0  0  0  0  0  0  0  0  0  0
    1.2058    0.5643    0.0689 N   0  0  0  0  0  0  0  0  0  0  0  0
    2.4598   -2.7767   -0.6620 C   0  0  0  0  0  0  0  0  0  0  0  0
    3.5356   -1.0404    0.6021 C   0  0  0  0  0  0  0  0  0  0  0  0
   -1.2445   -0.5909    0.0693 C   0  0  0  0  0  0  0  0  0  0  0  0
    0.0898    1.3062    0.0526 C   0  0  0  0  0  0  0  0  0  0  0  0
    3.6606   -3.4931   -0.7135 C   0  0  0  0  0  0  0  0  0  0  0  0
    4.7395   -1.7521    0.5554 C   0  0  0  0  0  0  0  0  0  0  0  0
   -1.1312    0.7577    0.0668 N   0  0  0  0  0  0  0  0  0  0  0  0
    0.1874    2.6768   -0.0925 N   0  0  0  0  0  0  0  0  0  0  0  0
   -2.6333   -1.1982    0.0205 C   0  0  0  0  0  0  0  0  0  0  0  0
    4.7988   -2.9793   -0.1009 C   0  0  0  0  0  0  0  0  0  0  0  0
   -2.6192   -2.5622   -0.0682 F   0  0  0  0  0  0  0  0  0  0  0  0
   -3.3822   -0.9137    1.1226 F   0  0  0  0  0  0  0  0  0  0  0  0
   -3.3616   -0.7760   -1.0527 F   0  0  0  0  0  0  0  0  0  0  0  0
   -1.0048    3.4637    0.2439 C   0  0  0  0  0  0  0  0  0  0  0  0
   -0.8557    4.8816   -0.3289 C   0  0  0  0  0  0  0  0  0  0  0  0
    0.3600    5.5089    0.1127 O   0  0  0  0  0  0  0  0  0  0  0  0
    1.4504    3.3093    0.2973 C   0  0  0  0  0  0  0  0  0  0  0  0
    1.4980    4.7286   -0.2940 C   0  0  0  0  0  0  0  0  0  0  0  0
   -0.2303   -2.4847    0.0806 H   0  0  0  0  0  0  0  0  0  0  0  0
    1.5992   -3.2001   -1.1771 H   0  0  0  0  0  0  0  0  0  0  0  0
    3.5146   -0.0815    1.1189 H   0  0  0  0  0  0  0  0  0  0  0  0
    3.7046   -4.4438   -1.2355 H   0  0  0  0  0  0  0  0  0  0  0  0
    5.6276   -1.3440    1.0290 H   0  0  0  0  0  0  0  0  0  0  0  0
    5.7339   -3.5314   -0.1406 H   0  0  0  0  0  0  0  0  0  0  0  0
   -1.1069    3.5166    1.3355 H   0  0  0  0  0  0  0  0  0  0  0  0
   -1.9223    3.0311   -0.1709 H   0  0  0  0  0  0  0  0  0  0  0  0
   -0.8678    4.8611   -1.4257 H   0  0  0  0  0  0  0  0  0  0  0  0
   -1.6924    5.5051    0.0013 H   0  0  0  0  0  0  0  0  0  0  0  0
    1.5029    3.3690    1.3923 H   0  0  0  0  0  0  0  0  0  0  0  0
    2.3259    2.7587   -0.0639 H   0  0  0  0  0  0  0  0  0  0  0  0
    2.3970    5.2491    0.0492 H   0  0  0  0  0  0  0  0  0  0  0  0
    1.5301    4.6929   -1.3906 H   0  0  0  0  0  0  0  0  0  0  0  0
  1  2  1  0  0  0  0
  1  3  2  0  0  0  0
  1  4  1  0  0  0  0
  2  5  2  0  0  0  0
  2  6  1  0  0  0  0
  3  7  1  0  0  0  0
  3 23  1  0  0  0  0
  4  8  2  0  0  0  0
  5  9  1  0  0  0  0
  5 24  1  0  0  0  0
  6 10  2  0  0  0  0
  6 25  1  0  0  0  0
  7 11  2  0  0  0  0
  7 13  1  0  0  0  0
  8 11  1  0  0  0  0
  9 14  2  0  0  0  0
  9 26  1  0  0  0  0
 10 14  1  0  0  0  0
 10 27  1  0  0  0  0
 12 21  1  0  0  0  0
 12  8  1  0  0  0  0
 12 18  1  0  0  0  0
 13 15  1  0  0  0  0
 13 16  1  0  0  0  0
 13 17  1  0  0  0  0
 14 28  1  0  0  0  0
 18 19  1  0  0  0  0
 18 29  1  0  0  0  0
 18 30  1  0  0  0  0
 19 20  1  0  0  0  0
 19 31  1  0  0  0  0
 19 32  1  0  0  0  0
 20 22  1  0  0  0  0
 21 22  1  0  0  0  0
 21 33  1  0  0  0  0
 21 34  1  0  0  0  0
 22 35  1  0  0  0  0
 22 36  1  0  0  0  0
M  END
>  <Mol_ID>
8954

>  <Formula>
C15H14F3N3O

>  <MolWeight>
309.2863696

>  <Cat>
P2513

>  <Name>
WAY-327111

>  <Synonyms>
N/A

>  <Target>
EP2 receptor

>  <Form>
free base

>  <CAS>
615273-95-5

>  <URL>
N/A

$$$$
