WAY-621848
 OpenBabel08302521443D

 38 39  0  0  0  0  0  0  0  0999 V2000
    0.5843    1.3969   -0.2424 C   0  0  0  0  0  0  0  0  0  0  0  0
    1.4809    2.5621   -0.2074 C   0  0  0  0  0  0  0  0  0  0  0  0
    0.8528    0.2243   -0.9413 C   0  0  0  0  0  0  0  0  0  0  0  0
   -0.6498    1.1291    0.4312 C   0  0  0  0  0  0  0  0  0  0  0  0
   -0.1669   -0.6715   -0.8010 O   0  0  0  0  0  0  0  0  0  0  0  0
    0.9470    3.8583   -0.0417 N   0  0  0  0  0  0  0  0  0  0  0  0
   -1.0816   -0.1142    0.0294 C   0  0  0  0  0  0  0  0  0  0  0  0
    2.6924    2.3964   -0.3408 O   0  0  0  0  0  0  0  0  0  0  0  0
    1.8830    5.0059    0.0235 C   0  0  0  0  0  0  0  0  0  0  0  0
    1.9684   -0.2567   -1.7882 C   0  0  0  0  0  0  0  0  0  0  0  0
   -0.4805    4.1404    0.0150 C   0  0  0  0  0  0  0  0  0  0  0  0
   -2.2789   -0.9244    0.3237 C   0  0  0  0  0  0  0  0  0  0  0  0
    1.7881    5.7484    1.3676 C   0  0  0  0  0  0  0  0  0  0  0  0
    1.7041    5.9667   -1.1692 C   0  0  0  0  0  0  0  0  0  0  0  0
    2.6436    7.1684   -1.0866 C   0  0  0  0  0  0  0  0  0  0  0  0
    2.7438    6.9399    1.4215 C   0  0  0  0  0  0  0  0  0  0  0  0
    2.5190    7.8919    0.2509 C   0  0  0  0  0  0  0  0  0  0  0  0
   -1.1776    1.7533    1.1352 H   0  0  0  0  0  0  0  0  0  0  0  0
    2.9085    4.6240   -0.0416 H   0  0  0  0  0  0  0  0  0  0  0  0
    2.3914   -1.1742   -1.3652 H   0  0  0  0  0  0  0  0  0  0  0  0
    1.6071   -0.4842   -2.7964 H   0  0  0  0  0  0  0  0  0  0  0  0
    2.7753    0.4731   -1.8786 H   0  0  0  0  0  0  0  0  0  0  0  0
   -0.9988    3.6044   -0.7840 H   0  0  0  0  0  0  0  0  0  0  0  0
   -0.8599    3.8418    0.9940 H   0  0  0  0  0  0  0  0  0  0  0  0
   -0.6874    5.2060   -0.0980 H   0  0  0  0  0  0  0  0  0  0  0  0
   -2.8400   -1.1235   -0.5950 H   0  0  0  0  0  0  0  0  0  0  0  0
   -1.9977   -1.8823    0.7715 H   0  0  0  0  0  0  0  0  0  0  0  0
   -2.9438   -0.4036    1.0201 H   0  0  0  0  0  0  0  0  0  0  0  0
    0.7659    6.1064    1.5397 H   0  0  0  0  0  0  0  0  0  0  0  0
    2.0188    5.0590    2.1888 H   0  0  0  0  0  0  0  0  0  0  0  0
    1.8781    5.4276   -2.1087 H   0  0  0  0  0  0  0  0  0  0  0  0
    0.6773    6.3445   -1.2186 H   0  0  0  0  0  0  0  0  0  0  0  0
    2.4183    7.8657   -1.9021 H   0  0  0  0  0  0  0  0  0  0  0  0
    3.6785    6.8351   -1.2283 H   0  0  0  0  0  0  0  0  0  0  0  0
    2.6089    7.4790    2.3660 H   0  0  0  0  0  0  0  0  0  0  0  0
    3.7803    6.5805    1.4048 H   0  0  0  0  0  0  0  0  0  0  0  0
    1.5228    8.3441    0.3332 H   0  0  0  0  0  0  0  0  0  0  0  0
    3.2454    8.7113    0.2955 H   0  0  0  0  0  0  0  0  0  0  0  0
  2  1  1  0  0  0  0
  3  1  2  0  0  0  0
  4  1  1  0  0  0  0
  4 18  1  0  0  0  0
  5  3  1  0  0  0  0
  6  2  1  0  0  0  0
  7  4  2  0  0  0  0
  7  5  1  0  0  0  0
  8  2  2  0  0  0  0
  9  6  1  0  0  0  0
  9 19  1  0  0  0  0
 10  3  1  0  0  0  0
 10 20  1  0  0  0  0
 10 21  1  0  0  0  0
 10 22  1  0  0  0  0
 11  6  1  0  0  0  0
 11 23  1  0  0  0  0
 11 24  1  0  0  0  0
 11 25  1  0  0  0  0
 12  7  1  0  0  0  0
 12 26  1  0  0  0  0
 12 27  1  0  0  0  0
 12 28  1  0  0  0  0
 13  9  1  0  0  0  0
 13 29  1  0  0  0  0
 13 30  1  0  0  0  0
 14  9  1  0  0  0  0
 14 31  1  0  0  0  0
 14 32  1  0  0  0  0
 15 14  1  0  0  0  0
 15 33  1  0  0  0  0
 15 34  1  0  0  0  0
 16 13  1  0  0  0  0
 16 17  1  0  0  0  0
 16 35  1  0  0  0  0
 16 36  1  0  0  0  0
 17 15  1  0  0  0  0
 17 37  1  0  0  0  0
 17 38  1  0  0  0  0
M  END
>  <Mol_ID>
9060

>  <Formula>
C14H21NO2

>  <MolWeight>
235.32204

>  <Cat>
P2981

>  <Name>
WAY-621848

>  <Synonyms>
N/A

>  <Target>
Anti-infection

>  <Form>
free base

>  <CAS>
34967-98-1

>  <URL>
N/A

$$$$
