WAY-621306
 OpenBabel08302521443D

 69 71  0  0  0  0  0  0  0  0999 V2000
    1.0228   -1.5870   -0.0811 C   0  0  0  0  0  0  0  0  0  0  0  0
    2.2079   -0.8603   -0.2010 C   0  0  0  0  0  0  0  0  0  0  0  0
   -0.1207   -0.6893    0.0281 C   0  0  0  0  0  0  0  0  0  0  0  0
    0.2108    0.6468   -0.0627 C   0  0  0  0  0  0  0  0  0  0  0  0
    1.8895    0.8287   -0.1747 S   0  0  0  0  0  0  0  0  0  0  0  0
   -0.7821    1.8073   -0.1084 C   0  0  0  0  0  0  0  0  0  0  0  0
    3.5356   -1.3056   -0.2692 N   0  0  0  0  0  0  0  0  0  0  0  0
   -2.1891    1.3241    0.0716 N   0  0  0  0  0  0  0  0  0  0  0  0
    0.8275   -3.0385   -0.0730 C   0  0  0  0  0  0  0  0  0  0  0  0
    4.6474   -0.4898   -0.4629 C   0  0  0  0  0  0  0  0  0  0  0  0
   -2.4938   -0.0275   -0.4709 C   0  0  0  0  0  0  0  0  0  0  0  0
   -1.5601   -1.0945    0.1503 C   0  0  0  0  0  0  0  0  0  0  0  0
    6.2053   -2.4906   -0.9248 N   0  0  0  0  0  0  0  0  0  0  0  0
    7.2754   -3.7418   -4.6507 N   0  0  0  0  0  0  0  0  0  0  0  0
    6.0150   -1.1639   -0.2854 C   0  0  0  0  0  0  0  0  0  0  0  0
    5.8237   -2.5394   -2.3644 C   0  0  0  0  0  0  0  0  0  0  0  0
    6.6058   -1.6956   -3.3940 C   0  0  0  0  0  0  0  0  0  0  0  0
    5.6449   -3.9908   -2.8517 C   0  0  0  0  0  0  0  0  0  0  0  0
   -0.1182   -3.5605    0.5093 O   0  0  0  0  0  0  0  0  0  0  0  0
    4.6501    0.7173   -0.6879 O   0  0  0  0  0  0  0  0  0  0  0  0
    6.8719   -4.5901   -3.5288 C   0  0  0  0  0  0  0  0  0  0  0  0
    7.7110   -2.4266   -4.1661 C   0  0  0  0  0  0  0  0  0  0  0  0
    1.6800   -3.7367   -0.8794 O   0  0  0  0  0  0  0  0  0  0  0  0
   -0.6892    2.6006   -1.4274 C   0  0  0  0  0  0  0  0  0  0  0  0
   -0.5119    2.8114    1.0369 C   0  0  0  0  0  0  0  0  0  0  0  0
    8.3270   -4.3920   -5.4338 C   0  0  0  0  0  0  0  0  0  0  0  0
   -3.9363   -0.3938   -0.0680 C   0  0  0  0  0  0  0  0  0  0  0  0
   -2.4200   -0.0870   -2.0101 C   0  0  0  0  0  0  0  0  0  0  0  0
    7.6004   -2.8803   -0.6710 C   0  0  0  0  0  0  0  0  0  0  0  0
    1.2014   -5.0527   -1.2335 C   0  0  0  0  0  0  0  0  0  0  0  0
    1.2773   -6.0463   -0.0836 C   0  0  0  0  0  0  0  0  0  0  0  0
    3.7065   -2.3115   -0.2374 H   0  0  0  0  0  0  0  0  0  0  0  0
   -2.3709    1.2947    1.0767 H   0  0  0  0  0  0  0  0  0  0  0  0
   -1.7827   -1.2286    1.2183 H   0  0  0  0  0  0  0  0  0  0  0  0
   -1.7463   -2.0502   -0.3493 H   0  0  0  0  0  0  0  0  0  0  0  0
    6.7710   -0.4566   -0.6466 H   0  0  0  0  0  0  0  0  0  0  0  0
    6.1571   -1.2662    0.8002 H   0  0  0  0  0  0  0  0  0  0  0  0
    4.8035   -2.1401   -2.3931 H   0  0  0  0  0  0  0  0  0  0  0  0
    5.8760   -1.3366   -4.1344 H   0  0  0  0  0  0  0  0  0  0  0  0
    7.0174   -0.7880   -2.9382 H   0  0  0  0  0  0  0  0  0  0  0  0
    4.8227   -3.9986   -3.5814 H   0  0  0  0  0  0  0  0  0  0  0  0
    5.3122   -4.6399   -2.0323 H   0  0  0  0  0  0  0  0  0  0  0  0
    6.5972   -5.5879   -3.8915 H   0  0  0  0  0  0  0  0  0  0  0  0
    7.7006   -4.7360   -2.8295 H   0  0  0  0  0  0  0  0  0  0  0  0
    8.6129   -2.5101   -3.5489 H   0  0  0  0  0  0  0  0  0  0  0  0
    7.9761   -1.8017   -5.0298 H   0  0  0  0  0  0  0  0  0  0  0  0
   -1.4845    3.3538   -1.4904 H   0  0  0  0  0  0  0  0  0  0  0  0
    0.2639    3.1379   -1.5038 H   0  0  0  0  0  0  0  0  0  0  0  0
   -0.7575    1.9730   -2.3179 H   0  0  0  0  0  0  0  0  0  0  0  0
   -0.4922    2.3222    2.0172 H   0  0  0  0  0  0  0  0  0  0  0  0
    0.4499    3.3225    0.9070 H   0  0  0  0  0  0  0  0  0  0  0  0
   -1.2814    3.5940    1.0667 H   0  0  0  0  0  0  0  0  0  0  0  0
    8.5597   -3.8048   -6.3284 H   0  0  0  0  0  0  0  0  0  0  0  0
    9.2497   -4.5339   -4.8595 H   0  0  0  0  0  0  0  0  0  0  0  0
    7.9916   -5.3748   -5.7873 H   0  0  0  0  0  0  0  0  0  0  0  0
   -4.6636    0.3151   -0.4775 H   0  0  0  0  0  0  0  0  0  0  0  0
   -4.1992   -1.3914   -0.4434 H   0  0  0  0  0  0  0  0  0  0  0  0
   -4.0589   -0.4185    1.0209 H   0  0  0  0  0  0  0  0  0  0  0  0
   -1.3955   -0.0228   -2.3873 H   0  0  0  0  0  0  0  0  0  0  0  0
   -2.8152   -1.0393   -2.3832 H   0  0  0  0  0  0  0  0  0  0  0  0
   -3.0078    0.7155   -2.4689 H   0  0  0  0  0  0  0  0  0  0  0  0
    8.3176   -2.2315   -1.1872 H   0  0  0  0  0  0  0  0  0  0  0  0
    7.8262   -2.8237    0.4019 H   0  0  0  0  0  0  0  0  0  0  0  0
    7.7925   -3.9176   -0.9453 H   0  0  0  0  0  0  0  0  0  0  0  0
    0.1782   -4.9900   -1.6312 H   0  0  0  0  0  0  0  0  0  0  0  0
    1.8315   -5.4074   -2.0563 H   0  0  0  0  0  0  0  0  0  0  0  0
    2.2280   -5.9561    0.4493 H   0  0  0  0  0  0  0  0  0  0  0  0
    0.4795   -5.8778    0.6474 H   0  0  0  0  0  0  0  0  0  0  0  0
    1.1601   -7.0707   -0.4490 H   0  0  0  0  0  0  0  0  0  0  0  0
  2  1  2  0  0  0  0
  3  1  1  0  0  0  0
  4  3  2  0  0  0  0
  5  2  1  0  0  0  0
  5  4  1  0  0  0  0
  6  4  1  0  0  0  0
  7  2  1  0  0  0  0
  7 32  1  0  0  0  0
  8 11  1  0  0  0  0
  8  6  1  0  0  0  0
  8 33  1  0  0  0  0
  9  1  1  0  0  0  0
 10  7  1  0  0  0  0
 11 12  1  0  0  0  0
 12  3  1  0  0  0  0
 12 34  1  0  0  0  0
 12 35  1  0  0  0  0
 13 15  1  0  0  0  0
 14 21  1  0  0  0  0
 15 10  1  0  0  0  0
 15 36  1  0  0  0  0
 15 37  1  0  0  0  0
 16 13  1  0  0  0  0
 16 38  1  0  0  0  0
 17 16  1  0  0  0  0
 17 39  1  0  0  0  0
 17 40  1  0  0  0  0
 18 16  1  0  0  0  0
 18 41  1  0  0  0  0
 18 42  1  0  0  0  0
 19  9  2  0  0  0  0
 20 10  2  0  0  0  0
 21 18  1  0  0  0  0
 21 43  1  0  0  0  0
 21 44  1  0  0  0  0
 22 17  1  0  0  0  0
 22 14  1  0  0  0  0
 22 45  1  0  0  0  0
 22 46  1  0  0  0  0
 23  9  1  0  0  0  0
 24  6  1  0  0  0  0
 24 47  1  0  0  0  0
 24 48  1  0  0  0  0
 24 49  1  0  0  0  0
 25  6  1  0  0  0  0
 25 50  1  0  0  0  0
 25 51  1  0  0  0  0
 25 52  1  0  0  0  0
 26 14  1  0  0  0  0
 26 53  1  0  0  0  0
 26 54  1  0  0  0  0
 26 55  1  0  0  0  0
 27 11  1  0  0  0  0
 27 56  1  0  0  0  0
 27 57  1  0  0  0  0
 27 58  1  0  0  0  0
 28 11  1  0  0  0  0
 28 59  1  0  0  0  0
 28 60  1  0  0  0  0
 28 61  1  0  0  0  0
 29 13  1  0  0  0  0
 29 62  1  0  0  0  0
 29 63  1  0  0  0  0
 29 64  1  0  0  0  0
 30 23  1  0  0  0  0
 30 65  1  0  0  0  0
 30 66  1  0  0  0  0
 31 30  1  0  0  0  0
 31 67  1  0  0  0  0
 31 68  1  0  0  0  0
 31 69  1  0  0  0  0
M  END
>  <Mol_ID>
9046

>  <Formula>
C23H38N4O3S

>  <MolWeight>
450.63782

>  <Cat>
P2967

>  <Name>
WAY-621306

>  <Synonyms>
N/A

>  <Target>
Anti-infection

>  <Form>
free base

>  <CAS>
744204-47-5

>  <URL>
N/A

$$$$
