WAY-332052
 OpenBabel08302521443D

 49 51  0  0  0  0  0  0  0  0999 V2000
   -0.0102    0.2054   -1.1009 N   0  0  0  0  0  0  0  0  0  0  0  0
    0.1923    1.0328   -0.0127 C   0  0  0  0  0  0  0  0  0  0  0  0
   -0.2249   -0.9841   -0.5793 C   0  0  0  0  0  0  0  0  0  0  0  0
   -0.1948   -1.0002    0.7934 O   0  0  0  0  0  0  0  0  0  0  0  0
    0.0865    0.2902    1.1440 C   0  0  0  0  0  0  0  0  0  0  0  0
   -0.3223    3.2331   -1.6137 S   0  0  3  0  0  0  0  0  0  0  0  0
    0.4771    2.4774   -0.1637 C   0  0  0  0  0  0  0  0  0  0  0  0
   -2.0566    2.9034   -1.1286 C   0  0  0  0  0  0  0  0  0  0  0  0
   -3.0308    3.2955   -2.2231 C   0  0  0  0  0  0  0  0  0  0  0  0
   -0.4403   -2.2651   -1.2535 C   0  0  0  0  0  0  0  0  0  0  0  0
   -4.3764    3.1858   -2.0008 N   0  0  0  0  0  0  0  0  0  0  0  0
   -0.0811    4.7127   -1.5024 O   0  0  0  0  0  0  0  0  0  0  0  0
   -2.6907    3.6673   -3.3466 O   0  0  0  0  0  0  0  0  0  0  0  0
   -0.4316   -2.3217   -2.6546 C   0  0  0  0  0  0  0  0  0  0  0  0
   -0.6257   -3.4534   -0.5374 C   0  0  0  0  0  0  0  0  0  0  0  0
   -5.1161    2.7411   -0.8371 C   0  0  0  0  0  0  0  0  0  0  0  0
   -5.6676   -1.5147   -0.3923 C   0  0  0  0  0  0  0  0  0  0  0  0
   -5.3479    1.2468   -0.7512 C   0  0  0  0  0  0  0  0  0  0  0  0
   -0.5772   -3.5487   -3.3233 C   0  0  0  0  0  0  0  0  0  0  0  0
   -0.7699   -4.6767   -1.2044 C   0  0  0  0  0  0  0  0  0  0  0  0
   -0.7385   -4.7330   -2.6008 C   0  0  0  0  0  0  0  0  0  0  0  0
   -5.7751   -2.8353   -0.1932 F   0  0  0  0  0  0  0  0  0  0  0  0
   -5.0063   -1.0392   -1.5145 C   0  0  0  0  0  0  0  0  0  0  0  0
   -6.2194   -0.6372    0.5333 C   0  0  0  0  0  0  0  0  0  0  0  0
   -4.8553    0.3378   -1.7006 C   0  0  0  0  0  0  0  0  0  0  0  0
   -6.0680    0.7405    0.3489 C   0  0  0  0  0  0  0  0  0  0  0  0
    0.2172    0.5790    2.5845 C   0  0  0  0  0  0  0  0  0  0  0  0
   -0.8565   -6.0451   -3.3208 C   0  0  0  0  0  0  0  0  0  0  0  0
    0.1575    3.0387    0.7194 H   0  0  0  0  0  0  0  0  0  0  0  0
    1.5582    2.6235   -0.2777 H   0  0  0  0  0  0  0  0  0  0  0  0
   -2.1742    1.8328   -0.9544 H   0  0  0  0  0  0  0  0  0  0  0  0
   -2.2604    3.4588   -0.2084 H   0  0  0  0  0  0  0  0  0  0  0  0
   -4.9161    3.4351   -2.8226 H   0  0  0  0  0  0  0  0  0  0  0  0
   -0.2965   -1.4170   -3.2402 H   0  0  0  0  0  0  0  0  0  0  0  0
   -0.6446   -3.4455    0.5481 H   0  0  0  0  0  0  0  0  0  0  0  0
   -6.0896    3.2415   -0.8892 H   0  0  0  0  0  0  0  0  0  0  0  0
   -4.5957    3.0783    0.0632 H   0  0  0  0  0  0  0  0  0  0  0  0
   -0.5495   -3.5657   -4.4120 H   0  0  0  0  0  0  0  0  0  0  0  0
   -0.8964   -5.5842   -0.6183 H   0  0  0  0  0  0  0  0  0  0  0  0
   -4.5976   -1.7418   -2.2345 H   0  0  0  0  0  0  0  0  0  0  0  0
   -6.7484   -1.0305    1.3951 H   0  0  0  0  0  0  0  0  0  0  0  0
   -4.3343    0.6829   -2.5906 H   0  0  0  0  0  0  0  0  0  0  0  0
   -6.5078    1.4163    1.0805 H   0  0  0  0  0  0  0  0  0  0  0  0
   -0.7024    0.3158    3.1150 H   0  0  0  0  0  0  0  0  0  0  0  0
    1.0425    0.0055    3.0156 H   0  0  0  0  0  0  0  0  0  0  0  0
    0.4164    1.6402    2.7600 H   0  0  0  0  0  0  0  0  0  0  0  0
   -1.7224   -6.0352   -3.9893 H   0  0  0  0  0  0  0  0  0  0  0  0
    0.0491   -6.2381   -3.9053 H   0  0  0  0  0  0  0  0  0  0  0  0
   -0.9835   -6.8772   -2.6192 H   0  0  0  0  0  0  0  0  0  0  0  0
  2  1  1  0  0  0  0
  3  1  2  0  0  0  0
  4  3  1  0  0  0  0
  5  2  2  0  0  0  0
  5  4  1  0  0  0  0
  6  7  1  0  0  0  0
  7  2  1  0  0  0  0
  7 29  1  0  0  0  0
  7 30  1  0  0  0  0
  8  6  1  0  0  0  0
  8 31  1  0  0  0  0
  8 32  1  0  0  0  0
  9  8  1  0  0  0  0
 10  3  1  0  0  0  0
 11  9  1  0  0  0  0
 11 33  1  0  0  0  0
 12  6  2  0  0  0  0
 13  9  2  0  0  0  0
 14 10  2  0  0  0  0
 14 34  1  0  0  0  0
 15 10  1  0  0  0  0
 15 35  1  0  0  0  0
 16 11  1  0  0  0  0
 16 36  1  0  0  0  0
 16 37  1  0  0  0  0
 17 24  2  0  0  0  0
 17 23  1  0  0  0  0
 18 16  1  0  0  0  0
 19 14  1  0  0  0  0
 19 38  1  0  0  0  0
 20 15  2  0  0  0  0
 20 39  1  0  0  0  0
 21 20  1  0  0  0  0
 21 19  2  0  0  0  0
 22 17  1  0  0  0  0
 23 25  2  0  0  0  0
 23 40  1  0  0  0  0
 24 26  1  0  0  0  0
 24 41  1  0  0  0  0
 25 18  1  0  0  0  0
 25 42  1  0  0  0  0
 26 18  2  0  0  0  0
 26 43  1  0  0  0  0
 27  5  1  0  0  0  0
 27 44  1  0  0  0  0
 27 45  1  0  0  0  0
 27 46  1  0  0  0  0
 28 21  1  0  0  0  0
 28 47  1  0  0  0  0
 28 48  1  0  0  0  0
 28 49  1  0  0  0  0
M  END
>  <Mol_ID>
9230

>  <Formula>
C21H21FN2O3S

>  <MolWeight>
400.4664432

>  <Cat>
P2698

>  <Name>
WAY-332052

>  <Synonyms>
N/A

>  <Target>
beta-catenin

>  <Form>
free base

>  <CAS>
1015858-38-4

>  <URL>
N/A

$$$$
