WAY-326259
 OpenBabel08302521433D

 35 37  0  0  0  0  0  0  0  0999 V2000
   -0.2827   -1.2332    0.2213 N   0  0  0  0  0  0  0  0  0  0  0  0
   -0.3550    0.9394    0.6779 N   0  0  0  0  0  0  0  0  0  0  0  0
    0.9396   -0.7396   -0.1416 N   0  0  0  0  0  0  0  0  0  0  0  0
   -1.0609   -0.1685    0.6643 C   0  0  0  0  0  0  0  0  0  0  0  0
    0.8637    0.5501    0.1994 C   0  0  0  0  0  0  0  0  0  0  0  0
   -0.4915   -2.6338    0.1618 C   0  0  0  0  0  0  0  0  0  0  0  0
   -1.4304   -3.4151    1.0213 C   0  0  0  0  0  0  0  0  0  0  0  0
    2.0248    1.4834    0.0918 C   0  0  0  0  0  0  0  0  0  0  0  0
    1.9953    2.8170    0.4056 O   0  0  0  0  0  0  0  0  0  0  0  0
    0.2509   -3.2647   -0.5924 O   0  0  0  0  0  0  0  0  0  0  0  0
   -2.0848   -4.5784    0.5593 C   0  0  0  0  0  0  0  0  0  0  0  0
   -2.7450   -0.2305    1.0730 S   0  0  0  0  0  0  0  0  0  0  0  0
    3.3034    1.1417   -0.3125 C   0  0  0  0  0  0  0  0  0  0  0  0
    3.2439    3.3101    0.1983 C   0  0  0  0  0  0  0  0  0  0  0  0
    4.0893    2.3179   -0.2362 C   0  0  0  0  0  0  0  0  0  0  0  0
   -1.5536   -3.0460    2.3721 C   0  0  0  0  0  0  0  0  0  0  0  0
   -1.8905   -4.9520   -0.7448 O   0  0  0  0  0  0  0  0  0  0  0  0
   -2.8811   -5.3101    1.4543 C   0  0  0  0  0  0  0  0  0  0  0  0
   -3.0487    1.4966    1.5441 C   0  0  0  0  0  0  0  0  0  0  0  0
   -2.7253   -5.9751   -1.2780 C   0  0  0  0  0  0  0  0  0  0  0  0
   -2.3744   -3.7670    3.2374 C   0  0  0  0  0  0  0  0  0  0  0  0
   -3.0374   -4.8974    2.7786 C   0  0  0  0  0  0  0  0  0  0  0  0
    3.6245    0.1529   -0.6118 H   0  0  0  0  0  0  0  0  0  0  0  0
    3.3697    4.3641    0.4048 H   0  0  0  0  0  0  0  0  0  0  0  0
    5.1394    2.4265   -0.4681 H   0  0  0  0  0  0  0  0  0  0  0  0
   -1.0033   -2.2011    2.7787 H   0  0  0  0  0  0  0  0  0  0  0  0
   -3.3850   -6.2251    1.1596 H   0  0  0  0  0  0  0  0  0  0  0  0
   -2.2813    1.8713    2.2287 H   0  0  0  0  0  0  0  0  0  0  0  0
   -3.0805    2.1318    0.6544 H   0  0  0  0  0  0  0  0  0  0  0  0
   -4.0144    1.5675    2.0531 H   0  0  0  0  0  0  0  0  0  0  0  0
   -2.6341   -6.9179   -0.7276 H   0  0  0  0  0  0  0  0  0  0  0  0
   -3.7659   -5.6361   -1.3086 H   0  0  0  0  0  0  0  0  0  0  0  0
   -2.4044   -6.1744   -2.3050 H   0  0  0  0  0  0  0  0  0  0  0  0
   -2.4809   -3.4559    4.2736 H   0  0  0  0  0  0  0  0  0  0  0  0
   -3.6630   -5.4748    3.4560 H   0  0  0  0  0  0  0  0  0  0  0  0
  2  4  2  0  0  0  0
  2  5  1  0  0  0  0
  3  1  1  0  0  0  0
  4  1  1  0  0  0  0
  5  3  2  0  0  0  0
  6  1  1  0  0  0  0
  7  6  1  0  0  0  0
  8  5  1  0  0  0  0
  9  8  1  0  0  0  0
 10  6  2  0  0  0  0
 11  7  2  0  0  0  0
 12  4  1  0  0  0  0
 13  8  2  0  0  0  0
 13 23  1  0  0  0  0
 14  9  1  0  0  0  0
 14 15  2  0  0  0  0
 14 24  1  0  0  0  0
 15 13  1  0  0  0  0
 15 25  1  0  0  0  0
 16  7  1  0  0  0  0
 16 26  1  0  0  0  0
 17 11  1  0  0  0  0
 18 11  1  0  0  0  0
 18 27  1  0  0  0  0
 19 12  1  0  0  0  0
 19 28  1  0  0  0  0
 19 29  1  0  0  0  0
 19 30  1  0  0  0  0
 20 17  1  0  0  0  0
 20 31  1  0  0  0  0
 20 32  1  0  0  0  0
 20 33  1  0  0  0  0
 21 16  2  0  0  0  0
 21 34  1  0  0  0  0
 22 21  1  0  0  0  0
 22 18  2  0  0  0  0
 22 35  1  0  0  0  0
M  END
>  <Mol_ID>
8904

>  <Formula>
C15H13N3O3S

>  <MolWeight>
315.34702

>  <Cat>
P2462

>  <Name>
WAY-326259

>  <Synonyms>
N/A

>  <Target>
thrombin,factor XIa

>  <Form>
free base

>  <CAS>
869872-50-4

>  <URL>
N/A

$$$$
