WAY-311141-A
 OpenBabel08302521403D

 45 47  0  0  0  0  0  0  0  0999 V2000
    0.5743   -1.3118    0.0420 C   0  0  3  0  0  0  0  0  0  0  0  0
    0.8616   -1.7960    1.4585 C   0  0  0  0  0  0  0  0  0  0  0  0
   -0.9263   -1.0469   -0.1965 C   0  0  0  0  0  0  0  0  0  0  0  0
    1.2094   -0.0051   -0.4448 C   0  0  0  0  0  0  0  0  0  0  0  0
    0.2724   -3.0064    1.8744 C   0  0  0  0  0  0  0  0  0  0  0  0
    1.6655   -1.1151    2.3830 C   0  0  0  0  0  0  0  0  0  0  0  0
   -1.1464    0.4054   -0.0378 N   0  0  0  0  0  0  0  0  0  0  0  0
    0.0872    1.0288   -0.5160 C   0  0  0  0  0  0  0  0  0  0  0  0
    0.4044   -3.4688    3.1850 C   0  0  0  0  0  0  0  0  0  0  0  0
    1.8054   -1.5829    3.6951 C   0  0  0  0  0  0  0  0  0  0  0  0
   -1.5275    0.7376    1.3457 C   0  0  0  0  0  0  0  0  0  0  0  0
    1.1577   -2.7458    4.1019 C   0  0  0  0  0  0  0  0  0  0  0  0
   -1.8251    2.2158    1.6255 C   0  0  0  0  0  0  0  0  0  0  0  0
   -2.9758    2.7636    0.8049 C   0  0  0  0  0  0  0  0  0  0  0  0
   -2.8410    4.1131    0.1830 C   0  0  0  0  0  0  0  0  0  0  0  0
   -4.0441    2.1685    0.6891 O   0  0  0  0  0  0  0  0  0  0  0  0
   -3.5617    4.3892   -0.9828 C   0  0  0  0  0  0  0  0  0  0  0  0
   -2.0604    5.1229    0.7638 C   0  0  0  0  0  0  0  0  0  0  0  0
   -3.5153    5.6632   -1.5584 C   0  0  0  0  0  0  0  0  0  0  0  0
   -2.0172    6.3958    0.1884 C   0  0  0  0  0  0  0  0  0  0  0  0
   -2.7555    6.6816   -0.9708 C   0  0  0  0  0  0  0  0  0  0  0  0
   -2.7356    8.0667   -1.5454 C   0  0  0  0  0  0  0  0  0  0  0  0
    0.9151   -2.1180   -0.6227 H   0  0  0  0  0  0  0  0  0  0  0  0
   -1.1640   -1.3024   -1.2378 H   0  0  0  0  0  0  0  0  0  0  0  0
   -1.6006   -1.6480    0.4234 H   0  0  0  0  0  0  0  0  0  0  0  0
    2.0480    0.3554    0.1528 H   0  0  0  0  0  0  0  0  0  0  0  0
    1.6024   -0.1570   -1.4591 H   0  0  0  0  0  0  0  0  0  0  0  0
   -0.3204   -3.5942    1.1756 H   0  0  0  0  0  0  0  0  0  0  0  0
    2.1849   -0.1988    2.1238 H   0  0  0  0  0  0  0  0  0  0  0  0
    0.3602    1.9517    0.0010 H   0  0  0  0  0  0  0  0  0  0  0  0
   -0.0666    1.3078   -1.5666 H   0  0  0  0  0  0  0  0  0  0  0  0
   -0.0915   -4.3869    3.4888 H   0  0  0  0  0  0  0  0  0  0  0  0
    2.4139   -1.0284    4.4053 H   0  0  0  0  0  0  0  0  0  0  0  0
   -2.4295    0.1649    1.5992 H   0  0  0  0  0  0  0  0  0  0  0  0
   -0.7505    0.4224    2.0496 H   0  0  0  0  0  0  0  0  0  0  0  0
    1.2434   -3.0895    5.1290 H   0  0  0  0  0  0  0  0  0  0  0  0
   -2.1155    2.3253    2.6786 H   0  0  0  0  0  0  0  0  0  0  0  0
   -0.9191    2.8084    1.4894 H   0  0  0  0  0  0  0  0  0  0  0  0
   -4.1753    3.6151   -1.4382 H   0  0  0  0  0  0  0  0  0  0  0  0
   -1.5124    4.9537    1.6844 H   0  0  0  0  0  0  0  0  0  0  0  0
   -4.0927    5.8569   -2.4614 H   0  0  0  0  0  0  0  0  0  0  0  0
   -1.4230    7.1751    0.6572 H   0  0  0  0  0  0  0  0  0  0  0  0
   -3.0319    8.7941   -0.7819 H   0  0  0  0  0  0  0  0  0  0  0  0
   -1.7327    8.3155   -1.9075 H   0  0  0  0  0  0  0  0  0  0  0  0
   -3.4356    8.1655   -2.3830 H   0  0  0  0  0  0  0  0  0  0  0  0
  1  2  1  0  0  0  0
  1  3  1  0  0  0  0
  1  4  1  0  0  0  0
  1 23  1  0  0  0  0
  2  5  2  0  0  0  0
  2  6  1  0  0  0  0
  3  7  1  0  0  0  0
  3 24  1  0  0  0  0
  3 25  1  0  0  0  0
  4  8  1  0  0  0  0
  4 26  1  0  0  0  0
  4 27  1  0  0  0  0
  5  9  1  0  0  0  0
  5 28  1  0  0  0  0
  6 10  2  0  0  0  0
  6 29  1  0  0  0  0
  7 11  1  0  0  0  0
  7  8  1  0  0  0  0
  8 30  1  0  0  0  0
  8 31  1  0  0  0  0
  9 12  2  0  0  0  0
  9 32  1  0  0  0  0
 10 12  1  0  0  0  0
 10 33  1  0  0  0  0
 11 13  1  0  0  0  0
 11 34  1  0  0  0  0
 11 35  1  0  0  0  0
 12 36  1  0  0  0  0
 13 14  1  0  0  0  0
 13 37  1  0  0  0  0
 13 38  1  0  0  0  0
 14 15  1  0  0  0  0
 14 16  2  0  0  0  0
 15 17  2  0  0  0  0
 15 18  1  0  0  0  0
 17 19  1  0  0  0  0
 17 39  1  0  0  0  0
 18 20  2  0  0  0  0
 18 40  1  0  0  0  0
 19 21  2  0  0  0  0
 19 41  1  0  0  0  0
 20 21  1  0  0  0  0
 20 42  1  0  0  0  0
 21 22  1  0  0  0  0
 22 43  1  0  0  0  0
 22 44  1  0  0  0  0
 22 45  1  0  0  0  0
M  END
>  <Mol_ID>
8263

>  <Formula>
C20H23NO

>  <MolWeight>
293.40272

>  <Cat>
P2194

>  <Name>
WAY-311141-A

>  <Synonyms>
N/A

>  <Target>
enoyl-acyl carrier protein reductase

>  <Form>
free base

>  <CAS>
425653-82-3

>  <URL>
N/A

$$$$
