WAY-353603
 OpenBabel08302521393D

 39 40  0  0  0  0  0  0  0  0999 V2000
    1.4533    0.1463   -0.4125 C   0  0  0  0  0  0  0  0  0  0  0  0
    2.8479   -0.0797   -0.2921 N   0  0  0  0  0  0  0  0  0  0  0  0
    0.8688    1.3878   -0.1539 C   0  0  0  0  0  0  0  0  0  0  0  0
    0.6242   -0.9038   -0.8213 C   0  0  0  0  0  0  0  0  0  0  0  0
    3.7213    0.7232    0.4218 C   0  0  0  0  0  0  0  0  0  0  0  0
   -0.5101    1.5885   -0.2794 C   0  0  0  0  0  0  0  0  0  0  0  0
   -0.7629   -0.7052   -0.9339 C   0  0  0  0  0  0  0  0  0  0  0  0
    5.1791    0.3069    0.3460 C   0  0  0  0  0  0  0  0  0  0  0  0
    3.4201    1.7075    1.0954 O   0  0  0  0  0  0  0  0  0  0  0  0
   -1.3367    0.5393   -0.6655 C   0  0  0  0  0  0  0  0  0  0  0  0
    5.9333    0.9490   -0.8290 C   0  0  0  0  0  0  0  0  0  0  0  0
   -2.6946    0.6021   -0.8112 O   0  0  0  0  0  0  0  0  0  0  0  0
    7.4033    0.4879   -0.8127 C   0  0  0  0  0  0  0  0  0  0  0  0
    5.8750    2.4888   -0.8007 C   0  0  0  0  0  0  0  0  0  0  0  0
   -3.3105    1.8634   -0.5699 C   0  0  0  0  0  0  0  0  0  0  0  0
    8.2086    1.1080   -1.9520 C   0  0  0  0  0  0  0  0  0  0  0  0
    6.6828    3.1112   -1.9385 C   0  0  0  0  0  0  0  0  0  0  0  0
    8.1289    2.6307   -1.9347 C   0  0  0  0  0  0  0  0  0  0  0  0
    3.1985   -0.9554   -0.6519 H   0  0  0  0  0  0  0  0  0  0  0  0
    1.4689    2.2462    0.1348 H   0  0  0  0  0  0  0  0  0  0  0  0
    1.0217   -1.8922   -1.0236 H   0  0  0  0  0  0  0  0  0  0  0  0
   -0.8940    2.5789   -0.0618 H   0  0  0  0  0  0  0  0  0  0  0  0
   -1.4051   -1.5327   -1.2277 H   0  0  0  0  0  0  0  0  0  0  0  0
    5.6449    0.5879    1.2997 H   0  0  0  0  0  0  0  0  0  0  0  0
    5.2377   -0.7860    0.2880 H   0  0  0  0  0  0  0  0  0  0  0  0
    5.4695    0.6088   -1.7646 H   0  0  0  0  0  0  0  0  0  0  0  0
    7.8677    0.7632    0.1436 H   0  0  0  0  0  0  0  0  0  0  0  0
    7.4550   -0.6046   -0.8863 H   0  0  0  0  0  0  0  0  0  0  0  0
    4.8387    2.8345   -0.8866 H   0  0  0  0  0  0  0  0  0  0  0  0
    6.2575    2.8592    0.1592 H   0  0  0  0  0  0  0  0  0  0  0  0
   -3.1067    2.2243    0.4444 H   0  0  0  0  0  0  0  0  0  0  0  0
   -3.0016    2.5996   -1.3198 H   0  0  0  0  0  0  0  0  0  0  0  0
   -4.3929    1.7298   -0.6582 H   0  0  0  0  0  0  0  0  0  0  0  0
    9.2560    0.7947   -1.8775 H   0  0  0  0  0  0  0  0  0  0  0  0
    7.8295    0.7332   -2.9104 H   0  0  0  0  0  0  0  0  0  0  0  0
    6.6575    4.2036   -1.8543 H   0  0  0  0  0  0  0  0  0  0  0  0
    6.2158    2.8548   -2.8975 H   0  0  0  0  0  0  0  0  0  0  0  0
    8.6398    3.0153   -1.0434 H   0  0  0  0  0  0  0  0  0  0  0  0
    8.6560    3.0383   -2.8049 H   0  0  0  0  0  0  0  0  0  0  0  0
  1  2  1  0  0  0  0
  1  3  2  0  0  0  0
  1  4  1  0  0  0  0
  2  5  1  0  0  0  0
  2 19  1  0  0  0  0
  3  6  1  0  0  0  0
  3 20  1  0  0  0  0
  4  7  2  0  0  0  0
  4 21  1  0  0  0  0
  5  8  1  0  0  0  0
  5  9  2  0  0  0  0
  6 10  2  0  0  0  0
  6 22  1  0  0  0  0
  7 10  1  0  0  0  0
  7 23  1  0  0  0  0
  8 11  1  0  0  0  0
  8 24  1  0  0  0  0
  8 25  1  0  0  0  0
 10 12  1  0  0  0  0
 11 13  1  0  0  0  0
 11 14  1  0  0  0  0
 11 26  1  0  0  0  0
 12 15  1  0  0  0  0
 13 16  1  0  0  0  0
 13 27  1  0  0  0  0
 13 28  1  0  0  0  0
 14 17  1  0  0  0  0
 14 29  1  0  0  0  0
 14 30  1  0  0  0  0
 15 31  1  0  0  0  0
 15 32  1  0  0  0  0
 15 33  1  0  0  0  0
 16 18  1  0  0  0  0
 16 34  1  0  0  0  0
 16 35  1  0  0  0  0
 17 18  1  0  0  0  0
 17 36  1  0  0  0  0
 17 37  1  0  0  0  0
 18 38  1  0  0  0  0
 18 39  1  0  0  0  0
M  END
>  <Mol_ID>
8058

>  <Formula>
C15H21NO2

>  <MolWeight>
247.33274

>  <Cat>
P2766

>  <Name>
WAY-353603

>  <Synonyms>
N/A

>  <Target>
soluble epoxide hydrolase

>  <Form>
free base

>  <CAS>
340221-20-7

>  <URL>
N/A

$$$$
