WAY-606810
 OpenBabel08302521433D

 57 61  0  0  0  0  0  0  0  0999 V2000
   -0.3934    1.2641    0.3525 C   0  0  0  0  0  0  0  0  0  0  0  0
   -0.5598    2.6825   -0.1066 C   0  0  3  0  0  0  0  0  0  0  0  0
   -0.6440   -0.8110    1.3057 N   0  0  0  0  0  0  0  0  0  0  0  0
   -1.4382    2.9146   -1.2297 N   0  0  0  0  0  0  0  0  0  0  0  0
   -1.3130    0.2642    0.8359 C   0  0  0  0  0  0  0  0  0  0  0  0
    0.6736   -0.4880    1.2390 N   0  0  0  0  0  0  0  0  0  0  0  0
    0.8517    0.6845    0.5585 C   0  0  0  0  0  0  0  0  0  0  0  0
   -1.1685    3.7221    1.2459 S   0  0  0  0  0  0  0  0  0  0  0  0
   -2.1323    4.1188   -1.2055 C   0  0  0  0  0  0  0  0  0  0  0  0
   -1.3814    2.1297   -2.4646 C   0  0  0  0  0  0  0  0  0  0  0  0
   -2.0352    4.8303    0.1258 C   0  0  0  0  0  0  0  0  0  0  0  0
    0.8676    2.9750   -3.2334 N   0  0  0  0  0  0  0  0  0  0  0  0
    1.6875   -1.2763    1.8771 C   0  0  0  0  0  0  0  0  0  0  0  0
   -2.7817    0.3514    0.9698 C   0  0  0  0  0  0  0  0  0  0  0  0
   -2.7735    4.5638   -2.1525 O   0  0  0  0  0  0  0  0  0  0  0  0
   -0.5401    2.7451   -3.5928 C   0  0  0  0  0  0  0  0  0  0  0  0
    2.7061    1.8349   -5.2246 O   0  0  0  0  0  0  0  0  0  0  0  0
    1.6277    1.7284   -3.0175 C   0  0  0  0  0  0  0  0  0  0  0  0
    1.5435    3.7697   -4.2878 C   0  0  0  0  0  0  0  0  0  0  0  0
    1.8824    2.9603   -5.5511 C   0  0  0  0  0  0  0  0  0  0  0  0
    2.0372    0.9780   -4.2950 C   0  0  0  0  0  0  0  0  0  0  0  0
    1.3486   -2.4473    2.5678 C   0  0  0  0  0  0  0  0  0  0  0  0
    3.0328   -0.8678    1.8639 C   0  0  0  0  0  0  0  0  0  0  0  0
   -3.4500   -0.2481    2.0468 C   0  0  0  0  0  0  0  0  0  0  0  0
   -3.5583    1.1090    0.0898 C   0  0  0  0  0  0  0  0  0  0  0  0
   -4.8865    1.4399    0.3567 C   0  0  0  0  0  0  0  0  0  0  0  0
    2.3343   -3.1871    3.2368 C   0  0  0  0  0  0  0  0  0  0  0  0
    4.0111   -1.6071    2.5416 C   0  0  0  0  0  0  0  0  0  0  0  0
   -4.8049    0.0288    2.2925 C   0  0  0  0  0  0  0  0  0  0  0  0
   -5.5068    0.9139    1.4762 C   0  0  0  0  0  0  0  0  0  0  0  0
    3.6638   -2.7639    3.2320 C   0  0  0  0  0  0  0  0  0  0  0  0
    0.4179    3.0938   -0.3844 H   0  0  0  0  0  0  0  0  0  0  0  0
    1.8322    1.0932    0.3740 H   0  0  0  0  0  0  0  0  0  0  0  0
   -1.0765    1.1045   -2.2409 H   0  0  0  0  0  0  0  0  0  0  0  0
   -2.4093    2.0649   -2.8460 H   0  0  0  0  0  0  0  0  0  0  0  0
   -3.0388    5.0474    0.5007 H   0  0  0  0  0  0  0  0  0  0  0  0
   -1.4640    5.7535    0.0079 H   0  0  0  0  0  0  0  0  0  0  0  0
   -0.6307    2.1045   -4.4781 H   0  0  0  0  0  0  0  0  0  0  0  0
   -0.9994    3.7044   -3.8635 H   0  0  0  0  0  0  0  0  0  0  0  0
    2.5369    2.0067   -2.4716 H   0  0  0  0  0  0  0  0  0  0  0  0
    1.0886    1.0422   -2.3581 H   0  0  0  0  0  0  0  0  0  0  0  0
    2.4779    4.1516   -3.8584 H   0  0  0  0  0  0  0  0  0  0  0  0
    0.9478    4.6505   -4.5553 H   0  0  0  0  0  0  0  0  0  0  0  0
    0.9820    2.6144   -6.0744 H   0  0  0  0  0  0  0  0  0  0  0  0
    2.4441    3.5871   -6.2516 H   0  0  0  0  0  0  0  0  0  0  0  0
    2.7324    0.1743   -4.0313 H   0  0  0  0  0  0  0  0  0  0  0  0
    1.1724    0.5183   -4.7860 H   0  0  0  0  0  0  0  0  0  0  0  0
    0.3185   -2.7981    2.6028 H   0  0  0  0  0  0  0  0  0  0  0  0
    3.3593    0.0366    1.3635 H   0  0  0  0  0  0  0  0  0  0  0  0
   -2.9158   -0.9150    2.7190 H   0  0  0  0  0  0  0  0  0  0  0  0
   -3.1519    1.4748   -0.8317 H   0  0  0  0  0  0  0  0  0  0  0  0
   -5.4135    2.1189   -0.3100 H   0  0  0  0  0  0  0  0  0  0  0  0
    2.0628   -4.0911    3.7754 H   0  0  0  0  0  0  0  0  0  0  0  0
    5.0468   -1.2703    2.5356 H   0  0  0  0  0  0  0  0  0  0  0  0
   -5.3048   -0.4272    3.1430 H   0  0  0  0  0  0  0  0  0  0  0  0
   -6.5343    1.1835    1.7009 H   0  0  0  0  0  0  0  0  0  0  0  0
    4.4263   -3.3391    3.7555 H   0  0  0  0  0  0  0  0  0  0  0  0
  2  1  1  0  0  0  0
  2 32  1  0  0  0  0
  3  5  2  0  0  0  0
  3  6  1  0  0  0  0
  4  2  1  0  0  0  0
  5  1  1  0  0  0  0
  6  7  1  0  0  0  0
  7  1  2  0  0  0  0
  7 33  1  0  0  0  0
  8  2  1  0  0  0  0
  9  4  1  0  0  0  0
 10  4  1  0  0  0  0
 10 34  1  0  0  0  0
 10 35  1  0  0  0  0
 11  8  1  0  0  0  0
 11  9  1  0  0  0  0
 11 36  1  0  0  0  0
 11 37  1  0  0  0  0
 12 16  1  0  0  0  0
 13  6  1  0  0  0  0
 14  5  1  0  0  0  0
 15  9  2  0  0  0  0
 16 10  1  0  0  0  0
 16 38  1  0  0  0  0
 16 39  1  0  0  0  0
 17 20  1  0  0  0  0
 17 21  1  0  0  0  0
 18 12  1  0  0  0  0
 18 40  1  0  0  0  0
 18 41  1  0  0  0  0
 19 12  1  0  0  0  0
 19 42  1  0  0  0  0
 19 43  1  0  0  0  0
 20 19  1  0  0  0  0
 20 44  1  0  0  0  0
 20 45  1  0  0  0  0
 21 18  1  0  0  0  0
 21 46  1  0  0  0  0
 21 47  1  0  0  0  0
 22 13  2  0  0  0  0
 22 48  1  0  0  0  0
 23 13  1  0  0  0  0
 23 49  1  0  0  0  0
 24 14  2  0  0  0  0
 24 50  1  0  0  0  0
 25 14  1  0  0  0  0
 25 51  1  0  0  0  0
 26 25  2  0  0  0  0
 26 52  1  0  0  0  0
 27 22  1  0  0  0  0
 27 53  1  0  0  0  0
 28 23  2  0  0  0  0
 28 54  1  0  0  0  0
 29 24  1  0  0  0  0
 29 55  1  0  0  0  0
 30 26  1  0  0  0  0
 30 29  2  0  0  0  0
 30 56  1  0  0  0  0
 31 28  1  0  0  0  0
 31 27  2  0  0  0  0
 31 57  1  0  0  0  0
M  END
>  <Mol_ID>
8730

>  <Formula>
C24H26N4O2S

>  <MolWeight>
434.55384

>  <Cat>
P2873

>  <Name>
WAY-606810

>  <Synonyms>
N/A

>  <Target>
hepatitis B

>  <Form>
free base

>  <CAS>
881665-42-5

>  <URL>
N/A

$$$$
