WAY-298139
 OpenBabel08302521413D

 35 37  0  0  0  0  0  0  0  0999 V2000
   -1.2418   -1.5879    0.4060 C   0  0  0  0  0  0  0  0  0  0  0  0
   -0.0584   -0.9026    0.1288 C   0  0  0  0  0  0  0  0  0  0  0  0
   -2.4563   -0.9060    0.4385 C   0  0  0  0  0  0  0  0  0  0  0  0
   -1.2991   -2.9383    0.6400 O   0  0  0  0  0  0  0  0  0  0  0  0
   -0.0878    0.4759   -0.0662 C   0  0  0  0  0  0  0  0  0  0  0  0
    1.1611   -1.5233    0.0416 O   0  0  0  0  0  0  0  0  0  0  0  0
   -2.5073    0.4692    0.1974 C   0  0  0  0  0  0  0  0  0  0  0  0
   -0.0018   -3.4840    0.8857 C   0  0  0  0  0  0  0  0  0  0  0  0
   -1.3091    1.1603   -0.0308 C   0  0  0  0  0  0  0  0  0  0  0  0
    1.0074   -2.9404   -0.1121 C   0  0  0  0  0  0  0  0  0  0  0  0
   -3.7141    1.2104    0.1793 N   0  0  0  0  0  0  0  0  0  0  0  0
   -4.9839    0.6718    0.0951 C   0  0  0  0  0  0  0  0  0  0  0  0
   -6.1938    1.5578    0.2071 C   0  0  0  0  0  0  0  0  0  0  0  0
   -5.2117   -0.5286   -0.0530 O   0  0  0  0  0  0  0  0  0  0  0  0
   -6.3167    2.9342   -0.0536 C   0  0  0  0  0  0  0  0  0  0  0  0
   -7.3593    0.8565    0.6065 C   0  0  0  0  0  0  0  0  0  0  0  0
   -7.5931    3.5426    0.0190 C   0  0  0  0  0  0  0  0  0  0  0  0
   -5.1851    3.7903   -0.4809 C   0  0  0  0  0  0  0  0  0  0  0  0
   -8.6036    1.4766    0.7108 C   0  0  0  0  0  0  0  0  0  0  0  0
   -8.7235    2.8209    0.4043 C   0  0  0  0  0  0  0  0  0  0  0  0
   -5.2297    5.0567   -0.0148 O   0  0  0  0  0  0  0  0  0  0  0  0
   -4.2451    3.3828   -1.1383 O   0  0  0  0  0  0  0  0  0  0  0  0
   -3.3466   -1.4826    0.6625 H   0  0  0  0  0  0  0  0  0  0  0  0
    0.8330    1.0152   -0.2701 H   0  0  0  0  0  0  0  0  0  0  0  0
   -0.0801   -4.5718    0.7927 H   0  0  0  0  0  0  0  0  0  0  0  0
    0.2829   -3.2477    1.9181 H   0  0  0  0  0  0  0  0  0  0  0  0
   -1.3136    2.2324   -0.2136 H   0  0  0  0  0  0  0  0  0  0  0  0
    1.9856   -3.4018    0.0540 H   0  0  0  0  0  0  0  0  0  0  0  0
    0.7017   -3.1488   -1.1453 H   0  0  0  0  0  0  0  0  0  0  0  0
   -3.6014    2.2003   -0.0177 H   0  0  0  0  0  0  0  0  0  0  0  0
   -7.3065   -0.2095    0.8346 H   0  0  0  0  0  0  0  0  0  0  0  0
   -7.7356    4.5841   -0.2637 H   0  0  0  0  0  0  0  0  0  0  0  0
   -9.4741    0.8928    1.0017 H   0  0  0  0  0  0  0  0  0  0  0  0
   -9.6970    3.3018    0.4461 H   0  0  0  0  0  0  0  0  0  0  0  0
   -5.9302    5.2639    0.6311 H   0  0  0  0  0  0  0  0  0  0  0  0
  1  2  1  0  0  0  0
  1  3  2  0  0  0  0
  1  4  1  0  0  0  0
  2  5  2  0  0  0  0
  2  6  1  0  0  0  0
  3  7  1  0  0  0  0
  3 23  1  0  0  0  0
  4  8  1  0  0  0  0
  5  9  1  0  0  0  0
  5 24  1  0  0  0  0
  6 10  1  0  0  0  0
  7 11  1  0  0  0  0
  7  9  2  0  0  0  0
  8 10  1  0  0  0  0
  8 25  1  0  0  0  0
  8 26  1  0  0  0  0
  9 27  1  0  0  0  0
 10 28  1  0  0  0  0
 10 29  1  0  0  0  0
 11 12  1  0  0  0  0
 11 30  1  0  0  0  0
 12 13  1  0  0  0  0
 12 14  2  0  0  0  0
 13 15  2  0  0  0  0
 13 16  1  0  0  0  0
 15 17  1  0  0  0  0
 15 18  1  0  0  0  0
 16 19  2  0  0  0  0
 16 31  1  0  0  0  0
 17 20  2  0  0  0  0
 17 32  1  0  0  0  0
 18 21  1  0  0  0  0
 18 22  2  0  0  0  0
 19 20  1  0  0  0  0
 19 33  1  0  0  0  0
 20 34  1  0  0  0  0
 21 35  1  0  0  0  0
M  END
>  <Mol_ID>
8350

>  <Formula>
C16H13NO5

>  <MolWeight>
299.27812

>  <Cat>
P2099

>  <Name>
WAY-298139

>  <Synonyms>
N/A

>  <Target>
Anti-infection

>  <Form>
free base

>  <CAS>
312937-58-9

>  <URL>
N/A

$$$$
