WAY-331990
 OpenBabel08302521443D

 48 50  0  0  0  0  0  0  0  0999 V2000
   -3.0518    4.9103   -4.1574 C   0  0  0  0  0  0  0  0  0  0  0  0
   -2.6119    3.9460   -3.3702 N   0  0  0  0  0  0  0  0  0  0  0  0
   -2.3655    4.5662   -2.1605 C   0  0  0  0  0  0  0  0  0  0  0  0
   -3.1225    6.1338   -3.5369 O   0  0  0  0  0  0  0  0  0  0  0  0
   -3.4442    4.8774   -5.5647 C   0  0  0  0  0  0  0  0  0  0  0  0
   -2.6813    5.9039   -2.2654 C   0  0  0  0  0  0  0  0  0  0  0  0
    2.0291    3.0995   -2.4823 C   0  0  0  0  0  0  0  0  0  0  0  0
   -3.4690    3.6724   -6.2756 C   0  0  0  0  0  0  0  0  0  0  0  0
    2.4129    3.0206   -3.8155 N   0  0  0  0  0  0  0  0  0  0  0  0
    2.8420    3.1296   -1.5607 O   0  0  0  0  0  0  0  0  0  0  0  0
   -0.0194    4.0219   -0.8275 S   0  0  0  0  0  0  0  0  0  0  0  0
   -1.8238    3.8141   -0.9979 C   0  0  0  0  0  0  0  0  0  0  0  0
    3.7754    3.2779   -4.2470 C   0  0  0  0  0  0  0  0  0  0  0  0
   -3.1404    2.5140   -5.6837 F   0  0  0  0  0  0  0  0  0  0  0  0
    3.8770    4.7035   -4.7338 C   0  0  0  0  0  0  0  0  0  0  0  0
    3.6429    7.3637   -5.6236 C   0  0  0  0  0  0  0  0  0  0  0  0
   -3.7955    6.0504   -6.2572 C   0  0  0  0  0  0  0  0  0  0  0  0
    3.7406    5.7554   -3.8178 C   0  0  0  0  0  0  0  0  0  0  0  0
    3.9953    5.0058   -6.0966 C   0  0  0  0  0  0  0  0  0  0  0  0
    3.6136    7.0712   -4.2584 C   0  0  0  0  0  0  0  0  0  0  0  0
    3.8846    6.3290   -6.5375 C   0  0  0  0  0  0  0  0  0  0  0  0
    0.5125    3.1062   -2.3113 C   0  0  0  0  0  0  0  0  0  0  0  0
   -2.6138    7.0621   -1.3584 C   0  0  0  0  0  0  0  0  0  0  0  0
   -3.8334    3.6274   -7.6231 C   0  0  0  0  0  0  0  0  0  0  0  0
    3.3687    8.7569   -6.1100 C   0  0  0  0  0  0  0  0  0  0  0  0
   -4.1570    6.0128   -7.6089 C   0  0  0  0  0  0  0  0  0  0  0  0
   -4.1771    4.7993   -8.2925 C   0  0  0  0  0  0  0  0  0  0  0  0
    1.6983    3.1371   -4.5221 H   0  0  0  0  0  0  0  0  0  0  0  0
   -2.2915    4.1780   -0.0763 H   0  0  0  0  0  0  0  0  0  0  0  0
   -2.0637    2.7486   -1.0749 H   0  0  0  0  0  0  0  0  0  0  0  0
    3.9882    2.5751   -5.0604 H   0  0  0  0  0  0  0  0  0  0  0  0
    4.4901    3.0926   -3.4395 H   0  0  0  0  0  0  0  0  0  0  0  0
   -3.7863    7.0144   -5.7480 H   0  0  0  0  0  0  0  0  0  0  0  0
    3.6773    5.5435   -2.7502 H   0  0  0  0  0  0  0  0  0  0  0  0
    4.1350    4.2157   -6.8300 H   0  0  0  0  0  0  0  0  0  0  0  0
    3.4546    7.8577   -3.5259 H   0  0  0  0  0  0  0  0  0  0  0  0
    3.9478    6.5445   -7.6021 H   0  0  0  0  0  0  0  0  0  0  0  0
    0.1693    2.0700   -2.2522 H   0  0  0  0  0  0  0  0  0  0  0  0
    0.0668    3.5899   -3.1844 H   0  0  0  0  0  0  0  0  0  0  0  0
   -1.7394    7.6760   -1.5939 H   0  0  0  0  0  0  0  0  0  0  0  0
   -3.5088    7.6842   -1.4542 H   0  0  0  0  0  0  0  0  0  0  0  0
   -2.5358    6.7428   -0.3148 H   0  0  0  0  0  0  0  0  0  0  0  0
   -3.8437    2.6726   -8.1411 H   0  0  0  0  0  0  0  0  0  0  0  0
    4.2357    9.1598   -6.6404 H   0  0  0  0  0  0  0  0  0  0  0  0
    2.5024    8.7502   -6.7790 H   0  0  0  0  0  0  0  0  0  0  0  0
    3.1327    9.4280   -5.2782 H   0  0  0  0  0  0  0  0  0  0  0  0
   -4.4206    6.9321   -8.1253 H   0  0  0  0  0  0  0  0  0  0  0  0
   -4.4586    4.7672   -9.3421 H   0  0  0  0  0  0  0  0  0  0  0  0
  2  1  2  0  0  0  0
  3  2  1  0  0  0  0
  4  1  1  0  0  0  0
  5  1  1  0  0  0  0
  6  4  1  0  0  0  0
  6  3  2  0  0  0  0
  7 22  1  0  0  0  0
  8  5  2  0  0  0  0
  9  7  1  0  0  0  0
  9 28  1  0  0  0  0
 10  7  2  0  0  0  0
 11 12  1  0  0  0  0
 12  3  1  0  0  0  0
 12 29  1  0  0  0  0
 12 30  1  0  0  0  0
 13  9  1  0  0  0  0
 13 31  1  0  0  0  0
 13 32  1  0  0  0  0
 14  8  1  0  0  0  0
 15 13  1  0  0  0  0
 16 21  2  0  0  0  0
 17  5  1  0  0  0  0
 17 33  1  0  0  0  0
 18 15  1  0  0  0  0
 18 34  1  0  0  0  0
 19 15  2  0  0  0  0
 19 35  1  0  0  0  0
 20 18  2  0  0  0  0
 20 16  1  0  0  0  0
 20 36  1  0  0  0  0
 21 19  1  0  0  0  0
 21 37  1  0  0  0  0
 22 11  1  0  0  0  0
 22 38  1  0  0  0  0
 22 39  1  0  0  0  0
 23  6  1  0  0  0  0
 23 40  1  0  0  0  0
 23 41  1  0  0  0  0
 23 42  1  0  0  0  0
 24  8  1  0  0  0  0
 24 27  2  0  0  0  0
 24 43  1  0  0  0  0
 25 16  1  0  0  0  0
 25 44  1  0  0  0  0
 25 45  1  0  0  0  0
 25 46  1  0  0  0  0
 26 17  2  0  0  0  0
 26 47  1  0  0  0  0
 27 26  1  0  0  0  0
 27 48  1  0  0  0  0
M  END
>  <Mol_ID>
9243

>  <Formula>
C21H21FN2O2S

>  <MolWeight>
384.4670432

>  <Cat>
P2649

>  <Name>
WAY-331990

>  <Synonyms>
N/A

>  <Target>
beta-catenin

>  <Form>
free base

>  <CAS>
902168-02-9

>  <URL>
N/A

$$$$
