WAY-607152
 OpenBabel08302521433D

 45 49  0  0  0  0  0  0  0  0999 V2000
   -0.3883    1.1486    0.2581 C   0  0  0  0  0  0  0  0  0  0  0  0
    0.9080    0.5827    0.4538 C   0  0  0  0  0  0  0  0  0  0  0  0
   -0.6968    2.5666   -0.0697 C   0  0  3  0  0  0  0  0  0  0  0  0
   -1.8481    2.8055   -0.9192 N   0  0  0  0  0  0  0  0  0  0  0  0
    0.8534   -0.7490    0.5554 N   0  0  0  0  0  0  0  0  0  0  0  0
   -0.4605   -1.0655    0.5375 N   0  0  0  0  0  0  0  0  0  0  0  0
   -1.2400    0.0645    0.4095 C   0  0  0  0  0  0  0  0  0  0  0  0
   -1.0602    3.5342    1.4208 S   0  0  0  0  0  0  0  0  0  0  0  0
   -2.3907    4.0858   -0.7877 C   0  0  0  0  0  0  0  0  0  0  0  0
    2.2350    1.3015    0.5297 C   0  0  0  0  0  0  0  0  0  0  0  0
   -2.0600    2.0853   -2.1665 C   0  0  0  0  0  0  0  0  0  0  0  0
    3.7330    0.5538    0.1573 S   0  0  0  0  0  0  0  0  0  0  0  0
   -1.0724    2.4784   -3.2035 C   0  0  0  0  0  0  0  0  0  0  0  0
   -1.8679    4.8070    0.4391 C   0  0  0  0  0  0  0  0  0  0  0  0
   -0.8796   -2.4269    0.6148 C   0  0  0  0  0  0  0  0  0  0  0  0
    0.0123    1.6663   -3.3514 O   0  0  0  0  0  0  0  0  0  0  0  0
    2.4286    2.6064    0.9404 C   0  0  0  0  0  0  0  0  0  0  0  0
   -3.1684    4.6012   -1.5830 O   0  0  0  0  0  0  0  0  0  0  0  0
    4.6087    1.9937    0.4531 C   0  0  0  0  0  0  0  0  0  0  0  0
   -1.0290    3.4963   -4.1344 C   0  0  0  0  0  0  0  0  0  0  0  0
    0.7275    2.1444   -4.4012 C   0  0  0  0  0  0  0  0  0  0  0  0
    3.7944    3.0106    0.8903 C   0  0  0  0  0  0  0  0  0  0  0  0
    0.1305    3.2697   -4.9189 C   0  0  0  0  0  0  0  0  0  0  0  0
    0.0855   -3.4412    0.7127 C   0  0  0  0  0  0  0  0  0  0  0  0
   -2.2387   -2.7788    0.5804 C   0  0  0  0  0  0  0  0  0  0  0  0
   -2.6143   -4.1264    0.6389 C   0  0  0  0  0  0  0  0  0  0  0  0
   -0.2978   -4.7843    0.7728 C   0  0  0  0  0  0  0  0  0  0  0  0
   -1.6477   -5.1253    0.7354 C   0  0  0  0  0  0  0  0  0  0  0  0
    0.1556    3.0292   -0.5804 H   0  0  0  0  0  0  0  0  0  0  0  0
   -2.3175    0.0127    0.3779 H   0  0  0  0  0  0  0  0  0  0  0  0
   -2.0296    1.0085   -1.9879 H   0  0  0  0  0  0  0  0  0  0  0  0
   -3.0679    2.3108   -2.5337 H   0  0  0  0  0  0  0  0  0  0  0  0
   -2.6815    5.2733    0.9957 H   0  0  0  0  0  0  0  0  0  0  0  0
   -1.1338    5.5572    0.1299 H   0  0  0  0  0  0  0  0  0  0  0  0
    1.6570    3.2619    1.3092 H   0  0  0  0  0  0  0  0  0  0  0  0
    5.6804    2.0183    0.3175 H   0  0  0  0  0  0  0  0  0  0  0  0
   -1.7630    4.2831   -4.2515 H   0  0  0  0  0  0  0  0  0  0  0  0
    1.6116    1.5800   -4.6610 H   0  0  0  0  0  0  0  0  0  0  0  0
    4.1537    3.9918    1.1751 H   0  0  0  0  0  0  0  0  0  0  0  0
    0.4779    3.8469   -5.7647 H   0  0  0  0  0  0  0  0  0  0  0  0
    1.1495   -3.2039    0.7376 H   0  0  0  0  0  0  0  0  0  0  0  0
   -3.0241   -2.0362    0.5038 H   0  0  0  0  0  0  0  0  0  0  0  0
   -3.6673   -4.3948    0.6084 H   0  0  0  0  0  0  0  0  0  0  0  0
    0.4591   -5.5607    0.8457 H   0  0  0  0  0  0  0  0  0  0  0  0
   -1.9461   -6.1695    0.7805 H   0  0  0  0  0  0  0  0  0  0  0  0
  2  1  1  0  0  0  0
  3  1  1  0  0  0  0
  3 29  1  0  0  0  0
  4  3  1  0  0  0  0
  5  2  2  0  0  0  0
  5  6  1  0  0  0  0
  6  7  1  0  0  0  0
  7  1  2  0  0  0  0
  7 30  1  0  0  0  0
  8  3  1  0  0  0  0
  9  4  1  0  0  0  0
 10  2  1  0  0  0  0
 11  4  1  0  0  0  0
 11 31  1  0  0  0  0
 11 32  1  0  0  0  0
 12 10  1  0  0  0  0
 13 11  1  0  0  0  0
 14  8  1  0  0  0  0
 14  9  1  0  0  0  0
 14 33  1  0  0  0  0
 14 34  1  0  0  0  0
 15  6  1  0  0  0  0
 16 13  1  0  0  0  0
 17 10  2  0  0  0  0
 17 35  1  0  0  0  0
 18  9  2  0  0  0  0
 19 12  1  0  0  0  0
 19 22  2  0  0  0  0
 19 36  1  0  0  0  0
 20 13  2  0  0  0  0
 20 37  1  0  0  0  0
 21 16  1  0  0  0  0
 21 23  2  0  0  0  0
 21 38  1  0  0  0  0
 22 17  1  0  0  0  0
 22 39  1  0  0  0  0
 23 20  1  0  0  0  0
 23 40  1  0  0  0  0
 24 15  2  0  0  0  0
 24 41  1  0  0  0  0
 25 15  1  0  0  0  0
 25 42  1  0  0  0  0
 26 25  2  0  0  0  0
 26 43  1  0  0  0  0
 27 24  1  0  0  0  0
 27 44  1  0  0  0  0
 28 26  1  0  0  0  0
 28 27  2  0  0  0  0
 28 45  1  0  0  0  0
M  END
>  <Mol_ID>
8738

>  <Formula>
C21H17N3O2S2

>  <MolWeight>
407.50858

>  <Cat>
P2884

>  <Name>
WAY-607152

>  <Synonyms>
N/A

>  <Target>
hepatitis B

>  <Form>
free base

>  <CAS>
380483-23-8

>  <URL>
N/A

$$$$
