WAY-325616
 OpenBabel08302521433D

 36 39  0  0  0  0  0  0  0  0999 V2000
    0.1353   -0.7020    0.3788 C   0  0  0  0  0  0  0  0  0  0  0  0
    0.4675    0.6310    0.3836 N   0  0  0  0  0  0  0  0  0  0  0  0
    1.2287   -1.4214    0.3561 N   0  0  0  0  0  0  0  0  0  0  0  0
    1.8021    0.7852    0.2557 N   0  0  0  0  0  0  0  0  0  0  0  0
   -0.4948    1.7047    0.1426 C   0  0  3  0  0  0  0  0  0  0  0  0
    2.2061   -0.4832    0.2404 C   0  0  0  0  0  0  0  0  0  0  0  0
   -1.1436   -1.1151    0.2357 N   0  0  0  0  0  0  0  0  0  0  0  0
   -1.9382    1.1758    0.2583 C   0  0  0  0  0  0  0  0  0  0  0  0
   -2.0840   -0.2027   -0.4114 C   0  0  3  0  0  0  0  0  0  0  0  0
   -0.2928    2.8867    1.0440 C   0  0  0  0  0  0  0  0  0  0  0  0
   -1.2005    3.9027    0.8934 O   0  0  0  0  0  0  0  0  0  0  0  0
   -1.9644   -0.1812   -1.9369 C   0  0  0  0  0  0  0  0  0  0  0  0
    0.6286    3.2401    2.0117 C   0  0  0  0  0  0  0  0  0  0  0  0
   -0.8508    4.8907    1.7562 C   0  0  0  0  0  0  0  0  0  0  0  0
    3.4549   -0.8968    0.0684 N   0  0  0  0  0  0  0  0  0  0  0  0
    0.2711    4.5347    2.4633 C   0  0  0  0  0  0  0  0  0  0  0  0
   -0.9645   -0.8781   -2.6421 C   0  0  0  0  0  0  0  0  0  0  0  0
   -2.9154    0.5300   -2.6925 C   0  0  0  0  0  0  0  0  0  0  0  0
   -1.8826   -0.1805   -4.7592 C   0  0  0  0  0  0  0  0  0  0  0  0
   -2.8758    0.5291   -4.0925 C   0  0  0  0  0  0  0  0  0  0  0  0
   -0.9192   -0.8759   -4.0397 C   0  0  0  0  0  0  0  0  0  0  0  0
   -1.8546   -0.2239   -6.6475 Br  0  0  0  0  0  0  0  0  0  0  0  0
   -0.3100    2.0282   -0.8898 H   0  0  0  0  0  0  0  0  0  0  0  0
   -1.2552   -2.0916   -0.0296 H   0  0  0  0  0  0  0  0  0  0  0  0
   -2.6485    1.9009   -0.1579 H   0  0  0  0  0  0  0  0  0  0  0  0
   -2.2019    1.0683    1.3220 H   0  0  0  0  0  0  0  0  0  0  0  0
   -3.0910   -0.5814   -0.1892 H   0  0  0  0  0  0  0  0  0  0  0  0
    1.4736    2.6480    2.3364 H   0  0  0  0  0  0  0  0  0  0  0  0
   -1.4810    5.7690    1.7430 H   0  0  0  0  0  0  0  0  0  0  0  0
    4.2067   -0.2355    0.1917 H   0  0  0  0  0  0  0  0  0  0  0  0
    3.6684   -1.8645    0.2626 H   0  0  0  0  0  0  0  0  0  0  0  0
    0.7761    5.1383    3.2058 H   0  0  0  0  0  0  0  0  0  0  0  0
   -0.1947   -1.4485   -2.1260 H   0  0  0  0  0  0  0  0  0  0  0  0
   -3.7130    1.0831   -2.1990 H   0  0  0  0  0  0  0  0  0  0  0  0
   -3.6317    1.0753   -4.6512 H   0  0  0  0  0  0  0  0  0  0  0  0
   -0.1333   -1.4292   -4.5471 H   0  0  0  0  0  0  0  0  0  0  0  0
  2  1  1  0  0  0  0
  3  1  2  0  0  0  0
  4  2  1  0  0  0  0
  4  6  2  0  0  0  0
  5  2  1  0  0  0  0
  5  8  1  0  0  0  0
  5 23  1  0  0  0  0
  6  3  1  0  0  0  0
  7  1  1  0  0  0  0
  7 24  1  0  0  0  0
  8  9  1  0  0  0  0
  8 25  1  0  0  0  0
  8 26  1  0  0  0  0
  9  7  1  0  0  0  0
  9 27  1  0  0  0  0
 10  5  1  0  0  0  0
 11 10  1  0  0  0  0
 12  9  1  0  0  0  0
 13 10  2  0  0  0  0
 13 28  1  0  0  0  0
 14 11  1  0  0  0  0
 14 29  1  0  0  0  0
 15  6  1  0  0  0  0
 15 30  1  0  0  0  0
 15 31  1  0  0  0  0
 16 13  1  0  0  0  0
 16 14  2  0  0  0  0
 16 32  1  0  0  0  0
 17 12  2  0  0  0  0
 17 33  1  0  0  0  0
 18 12  1  0  0  0  0
 18 34  1  0  0  0  0
 19 20  1  0  0  0  0
 19 21  2  0  0  0  0
 20 18  2  0  0  0  0
 20 35  1  0  0  0  0
 21 17  1  0  0  0  0
 21 36  1  0  0  0  0
 22 19  1  0  0  0  0
M  END
>  <Mol_ID>
8865

>  <Formula>
C15H14BrN5O

>  <MolWeight>
360.20856

>  <Cat>
P2413

>  <Name>
WAY-325616

>  <Synonyms>
N/A

>  <Target>
Androgen Receptor

>  <Form>
free base

>  <CAS>
869352-15-8

>  <URL>
N/A

$$$$
