WAY-323877
 OpenBabel08302521423D

 32 34  0  0  0  0  0  0  0  0999 V2000
   -4.9646    1.5062    3.7106 C   0  0  0  0  0  0  0  0  0  0  0  0
   -5.4006    0.1930    3.8729 C   0  0  0  0  0  0  0  0  0  0  0  0
   -4.3283    1.4958    2.4941 N   0  0  0  0  0  0  0  0  0  0  0  0
   -5.2063    2.5143    4.6488 C   0  0  0  0  0  0  0  0  0  0  0  0
   -5.0575   -0.5827    2.7916 N   0  0  0  0  0  0  0  0  0  0  0  0
   -6.1101   -0.1547    5.0317 C   0  0  0  0  0  0  0  0  0  0  0  0
   -4.4486    0.2386    1.9732 C   0  0  0  0  0  0  0  0  0  0  0  0
   -5.9410    2.1518    5.7855 C   0  0  0  0  0  0  0  0  0  0  0  0
   -6.3846    0.8409    5.9780 C   0  0  0  0  0  0  0  0  0  0  0  0
   -3.8678   -0.1061    0.3853 S   0  0  0  0  0  0  0  0  0  0  0  0
   -4.4332   -1.8348    0.1816 C   0  0  0  0  0  0  0  0  0  0  0  0
   -4.1286   -2.3201   -1.2371 C   0  0  0  0  0  0  0  0  0  0  0  0
   -4.4842   -3.7747   -1.4604 C   0  0  0  0  0  0  0  0  0  0  0  0
   -5.7693   -4.1401   -1.8848 C   0  0  0  0  0  0  0  0  0  0  0  0
   -3.5244   -4.7800   -1.2702 C   0  0  0  0  0  0  0  0  0  0  0  0
   -6.0785   -5.4780   -2.1413 C   0  0  0  0  0  0  0  0  0  0  0  0
   -3.8347   -6.1167   -1.5262 C   0  0  0  0  0  0  0  0  0  0  0  0
   -5.1106   -6.4657   -1.9687 C   0  0  0  0  0  0  0  0  0  0  0  0
   -3.8896    2.2782    2.0349 H   0  0  0  0  0  0  0  0  0  0  0  0
   -4.8633    3.5332    4.5051 H   0  0  0  0  0  0  0  0  0  0  0  0
   -6.4521   -1.1738    5.1730 H   0  0  0  0  0  0  0  0  0  0  0  0
   -6.1770    2.9075    6.5333 H   0  0  0  0  0  0  0  0  0  0  0  0
   -6.9570    0.5881    6.8675 H   0  0  0  0  0  0  0  0  0  0  0  0
   -3.9227   -2.4611    0.9211 H   0  0  0  0  0  0  0  0  0  0  0  0
   -5.5106   -1.8890    0.3731 H   0  0  0  0  0  0  0  0  0  0  0  0
   -4.6730   -1.7126   -1.9723 H   0  0  0  0  0  0  0  0  0  0  0  0
   -3.0635   -2.1867   -1.4682 H   0  0  0  0  0  0  0  0  0  0  0  0
   -6.5350   -3.3825   -2.0344 H   0  0  0  0  0  0  0  0  0  0  0  0
   -2.5215   -4.5264   -0.9358 H   0  0  0  0  0  0  0  0  0  0  0  0
   -7.0735   -5.7500   -2.4860 H   0  0  0  0  0  0  0  0  0  0  0  0
   -3.0806   -6.8883   -1.3911 H   0  0  0  0  0  0  0  0  0  0  0  0
   -5.3483   -7.5050   -2.1816 H   0  0  0  0  0  0  0  0  0  0  0  0
  1  2  2  0  0  0  0
  1  3  1  0  0  0  0
  1  4  1  0  0  0  0
  2  5  1  0  0  0  0
  2  6  1  0  0  0  0
  3  7  1  0  0  0  0
  3 19  1  0  0  0  0
  4  8  2  0  0  0  0
  4 20  1  0  0  0  0
  5  7  2  0  0  0  0
  6  9  2  0  0  0  0
  6 21  1  0  0  0  0
  7 10  1  0  0  0  0
  8  9  1  0  0  0  0
  8 22  1  0  0  0  0
  9 23  1  0  0  0  0
 10 11  1  0  0  0  0
 11 12  1  0  0  0  0
 11 24  1  0  0  0  0
 11 25  1  0  0  0  0
 12 13  1  0  0  0  0
 12 26  1  0  0  0  0
 12 27  1  0  0  0  0
 13 14  2  0  0  0  0
 13 15  1  0  0  0  0
 14 16  1  0  0  0  0
 14 28  1  0  0  0  0
 15 17  2  0  0  0  0
 15 29  1  0  0  0  0
 16 18  2  0  0  0  0
 16 30  1  0  0  0  0
 17 18  1  0  0  0  0
 17 31  1  0  0  0  0
 18 32  1  0  0  0  0
M  END
>  <Mol_ID>
8589

>  <Formula>
C15H14N2S

>  <MolWeight>
254.35006

>  <Cat>
P2281

>  <Name>
WAY-323877

>  <Synonyms>
N/A

>  <Target>
Androgen Receptor,Anti-infection

>  <Form>
free base

>  <CAS>
167483-31-0

>  <URL>
N/A

$$$$
