WAY-604440
 OpenBabel08302521393D

 36 38  0  0  0  0  0  0  0  0999 V2000
    0.6739   -0.0696   -0.1937 N   0  0  0  0  0  0  0  0  0  0  0  0
   -0.1743   -1.1567   -0.0659 C   0  0  0  0  0  0  0  0  0  0  0  0
   -1.4106   -0.6852    0.0246 N   0  0  0  0  0  0  0  0  0  0  0  0
   -0.1060    1.0481   -0.0540 C   0  0  0  0  0  0  0  0  0  0  0  0
   -1.3637    0.6972    0.0519 N   0  0  0  0  0  0  0  0  0  0  0  0
    0.5661    2.6384   -0.0300 S   0  0  0  0  0  0  0  0  0  0  0  0
   -0.3775    5.1742    0.4534 C   0  0  0  0  0  0  0  0  0  0  0  0
    0.2195   -2.5708   -0.0767 C   0  0  0  0  0  0  0  0  0  0  0  0
   -1.3911    6.2772    0.4603 C   0  0  0  0  0  0  0  0  0  0  0  0
   -0.8527    3.7248    0.3105 C   0  0  0  0  0  0  0  0  0  0  0  0
    1.0360   -5.2578   -0.2449 N   0  0  0  0  0  0  0  0  0  0  0  0
    0.8076    5.4922    0.5668 O   0  0  0  0  0  0  0  0  0  0  0  0
    2.0883   -0.0972   -0.4681 C   0  0  0  0  0  0  0  0  0  0  0  0
   -2.7683    6.0411    0.5254 C   0  0  0  0  0  0  0  0  0  0  0  0
   -0.9305    7.6035    0.3885 C   0  0  0  0  0  0  0  0  0  0  0  0
   -3.1999    8.4251    0.3816 C   0  0  0  0  0  0  0  0  0  0  0  0
   -1.8298    8.6706    0.3453 C   0  0  0  0  0  0  0  0  0  0  0  0
   -3.6666    7.1137    0.4826 C   0  0  0  0  0  0  0  0  0  0  0  0
    1.7662   -4.3398    0.4157 C   0  0  0  0  0  0  0  0  0  0  0  0
   -0.1275   -4.8332   -0.7828 C   0  0  0  0  0  0  0  0  0  0  0  0
    1.3926   -3.0123    0.5459 C   0  0  0  0  0  0  0  0  0  0  0  0
   -0.5735   -3.5204   -0.7251 C   0  0  0  0  0  0  0  0  0  0  0  0
   -1.5515    3.6507   -0.5274 H   0  0  0  0  0  0  0  0  0  0  0  0
   -1.3363    3.4207    1.2433 H   0  0  0  0  0  0  0  0  0  0  0  0
    2.3505    0.7186   -1.1467 H   0  0  0  0  0  0  0  0  0  0  0  0
    2.6200    0.0112    0.4819 H   0  0  0  0  0  0  0  0  0  0  0  0
    2.3628   -1.0291   -0.9594 H   0  0  0  0  0  0  0  0  0  0  0  0
   -3.1736    5.0376    0.6114 H   0  0  0  0  0  0  0  0  0  0  0  0
    0.1377    7.8145    0.3576 H   0  0  0  0  0  0  0  0  0  0  0  0
   -3.9012    9.2549    0.3344 H   0  0  0  0  0  0  0  0  0  0  0  0
   -1.4586    9.6917    0.2775 H   0  0  0  0  0  0  0  0  0  0  0  0
   -4.7374    6.9293    0.5247 H   0  0  0  0  0  0  0  0  0  0  0  0
    2.6950   -4.7043    0.8468 H   0  0  0  0  0  0  0  0  0  0  0  0
   -0.7073   -5.6026   -1.2871 H   0  0  0  0  0  0  0  0  0  0  0  0
    2.0228   -2.3451    1.1224 H   0  0  0  0  0  0  0  0  0  0  0  0
   -1.5156   -3.2471   -1.1905 H   0  0  0  0  0  0  0  0  0  0  0  0
  2  1  1  0  0  0  0
  3  2  2  0  0  0  0
  4  1  1  0  0  0  0
  5  4  2  0  0  0  0
  5  3  1  0  0  0  0
  6  4  1  0  0  0  0
  7 10  1  0  0  0  0
  8  2  1  0  0  0  0
  9  7  1  0  0  0  0
 10  6  1  0  0  0  0
 10 23  1  0  0  0  0
 10 24  1  0  0  0  0
 11 20  2  0  0  0  0
 12  7  2  0  0  0  0
 13  1  1  0  0  0  0
 13 25  1  0  0  0  0
 13 26  1  0  0  0  0
 13 27  1  0  0  0  0
 14  9  2  0  0  0  0
 14 28  1  0  0  0  0
 15  9  1  0  0  0  0
 15 29  1  0  0  0  0
 16 17  1  0  0  0  0
 16 18  2  0  0  0  0
 16 30  1  0  0  0  0
 17 15  2  0  0  0  0
 17 31  1  0  0  0  0
 18 14  1  0  0  0  0
 18 32  1  0  0  0  0
 19 21  2  0  0  0  0
 19 11  1  0  0  0  0
 19 33  1  0  0  0  0
 20 22  1  0  0  0  0
 20 34  1  0  0  0  0
 21  8  1  0  0  0  0
 21 35  1  0  0  0  0
 22  8  2  0  0  0  0
 22 36  1  0  0  0  0
M  END
>  <Mol_ID>
8116

>  <Formula>
C16H13ClN4OS

>  <MolWeight>
344.81862

>  <Cat>
P2829

>  <Name>
WAY-604440

>  <Synonyms>
N/A

>  <Target>
others

>  <Form>
free base

>  <CAS>
501113-03-7

>  <URL>
N/A

$$$$
