WAY-324914
 OpenBabel08302521423D

 52 55  0  0  0  0  0  0  0  0999 V2000
   -1.9867   -0.1924   -0.1489 C   0  0  0  0  0  0  0  0  0  0  0  0
    0.4365   -0.5105   -0.3949 C   0  0  0  0  0  0  0  0  0  0  0  0
   -0.9597   -1.4497   -0.6733 S   0  0  0  0  0  0  0  0  0  0  0  0
   -1.2651    0.9458    0.1707 C   0  0  0  0  0  0  0  0  0  0  0  0
    0.1431    0.7710    0.0430 C   0  0  0  0  0  0  0  0  0  0  0  0
   -3.4339   -0.3251   -0.1025 C   0  0  0  0  0  0  0  0  0  0  0  0
    1.6615   -1.0402   -0.5708 N   0  0  0  0  0  0  0  0  0  0  0  0
   -8.0411   -2.7831   -0.1236 C   0  0  0  0  0  0  0  0  0  0  0  0
   -3.9361   -1.6225   -0.0397 N   0  0  0  0  0  0  0  0  0  0  0  0
   -7.6734   -1.4379   -0.3456 C   0  0  0  0  0  0  0  0  0  0  0  0
   -7.0198   -3.7082    0.2002 C   0  0  0  0  0  0  0  0  0  0  0  0
   -5.3037   -1.9842   -0.0388 C   0  0  0  0  0  0  0  0  0  0  0  0
    2.6911   -0.2224   -0.2458 C   0  0  0  0  0  0  0  0  0  0  0  0
    1.2358    1.6243    0.2949 C   0  0  0  0  0  0  0  0  0  0  0  0
   -6.3193   -1.0713   -0.2852 C   0  0  0  0  0  0  0  0  0  0  0  0
   -5.6667   -3.3004    0.2137 C   0  0  0  0  0  0  0  0  0  0  0  0
    4.0277   -0.8556   -0.2846 C   0  0  0  0  0  0  0  0  0  0  0  0
   -4.1349    0.6832   -0.0618 O   0  0  0  0  0  0  0  0  0  0  0  0
    2.5164    1.1043    0.1508 C   0  0  0  0  0  0  0  0  0  0  0  0
   -1.8413    2.0934    0.6026 N   0  0  0  0  0  0  0  0  0  0  0  0
    4.3065   -1.9034   -1.1847 C   0  0  0  0  0  0  0  0  0  0  0  0
    5.0566   -0.4709    0.6019 C   0  0  0  0  0  0  0  0  0  0  0  0
   -9.3223   -3.2594   -0.1619 O   0  0  0  0  0  0  0  0  0  0  0  0
   -7.1240   -5.0266    0.5684 O   0  0  0  0  0  0  0  0  0  0  0  0
   -8.6266   -0.4683   -0.5288 O   0  0  0  0  0  0  0  0  0  0  0  0
    6.5436   -2.1159   -0.3232 C   0  0  0  0  0  0  0  0  0  0  0  0
    5.5560   -2.5295   -1.2061 C   0  0  0  0  0  0  0  0  0  0  0  0
    6.3056   -1.0917    0.5809 C   0  0  0  0  0  0  0  0  0  0  0  0
    7.7393   -2.7186   -0.3389 F   0  0  0  0  0  0  0  0  0  0  0  0
  -10.3407   -2.5661   -0.8724 C   0  0  0  0  0  0  0  0  0  0  0  0
   -8.3358   -5.7424    0.4050 C   0  0  0  0  0  0  0  0  0  0  0  0
   -8.2248    0.6500   -1.3282 C   0  0  0  0  0  0  0  0  0  0  0  0
   -3.2584   -2.3709    0.0506 H   0  0  0  0  0  0  0  0  0  0  0  0
    1.0808    2.6423    0.6355 H   0  0  0  0  0  0  0  0  0  0  0  0
   -6.0729   -0.0329   -0.4369 H   0  0  0  0  0  0  0  0  0  0  0  0
   -4.9100   -4.0443    0.4546 H   0  0  0  0  0  0  0  0  0  0  0  0
    3.3644    1.7438    0.3740 H   0  0  0  0  0  0  0  0  0  0  0  0
   -1.3473    2.9762    0.6381 H   0  0  0  0  0  0  0  0  0  0  0  0
   -2.8572    2.2043    0.5200 H   0  0  0  0  0  0  0  0  0  0  0  0
    3.5359   -2.2448   -1.8752 H   0  0  0  0  0  0  0  0  0  0  0  0
    4.8855    0.3060    1.3463 H   0  0  0  0  0  0  0  0  0  0  0  0
    5.7562   -3.3394   -1.8997 H   0  0  0  0  0  0  0  0  0  0  0  0
    7.0858   -0.7938    1.2742 H   0  0  0  0  0  0  0  0  0  0  0  0
   -9.9952   -1.8245   -1.5944 H   0  0  0  0  0  0  0  0  0  0  0  0
  -10.8946   -3.3052   -1.4594 H   0  0  0  0  0  0  0  0  0  0  0  0
  -11.0372   -2.1167   -0.1572 H   0  0  0  0  0  0  0  0  0  0  0  0
   -9.1846   -5.2769    0.9096 H   0  0  0  0  0  0  0  0  0  0  0  0
   -8.5328   -5.9271   -0.6550 H   0  0  0  0  0  0  0  0  0  0  0  0
   -8.1958   -6.7168    0.8875 H   0  0  0  0  0  0  0  0  0  0  0  0
   -7.6379    1.3636   -0.7384 H   0  0  0  0  0  0  0  0  0  0  0  0
   -7.6706    0.3322   -2.2204 H   0  0  0  0  0  0  0  0  0  0  0  0
   -9.1257    1.1682   -1.6653 H   0  0  0  0  0  0  0  0  0  0  0  0
  2  3  1  0  0  0  0
  3  1  1  0  0  0  0
  4  1  2  0  0  0  0
  5  4  1  0  0  0  0
  5  2  2  0  0  0  0
  6  1  1  0  0  0  0
  7  2  1  0  0  0  0
  8 11  2  0  0  0  0
  9  6  1  0  0  0  0
  9 33  1  0  0  0  0
 10 15  2  0  0  0  0
 10  8  1  0  0  0  0
 11 16  1  0  0  0  0
 12  9  1  0  0  0  0
 13  7  2  0  0  0  0
 14  5  1  0  0  0  0
 14 34  1  0  0  0  0
 15 12  1  0  0  0  0
 15 35  1  0  0  0  0
 16 12  2  0  0  0  0
 16 36  1  0  0  0  0
 17 13  1  0  0  0  0
 18  6  2  0  0  0  0
 19 14  2  0  0  0  0
 19 13  1  0  0  0  0
 19 37  1  0  0  0  0
 20  4  1  0  0  0  0
 20 38  1  0  0  0  0
 20 39  1  0  0  0  0
 21 17  2  0  0  0  0
 21 40  1  0  0  0  0
 22 17  1  0  0  0  0
 22 41  1  0  0  0  0
 23  8  1  0  0  0  0
 24 11  1  0  0  0  0
 25 10  1  0  0  0  0
 26 28  1  0  0  0  0
 27 21  1  0  0  0  0
 27 26  2  0  0  0  0
 27 42  1  0  0  0  0
 28 22  2  0  0  0  0
 28 43  1  0  0  0  0
 29 26  1  0  0  0  0
 30 23  1  0  0  0  0
 30 44  1  0  0  0  0
 30 45  1  0  0  0  0
 30 46  1  0  0  0  0
 31 24  1  0  0  0  0
 31 47  1  0  0  0  0
 31 48  1  0  0  0  0
 31 49  1  0  0  0  0
 32 25  1  0  0  0  0
 32 50  1  0  0  0  0
 32 51  1  0  0  0  0
 32 52  1  0  0  0  0
M  END
>  <Mol_ID>
8659

>  <Formula>
C23H20FN3O4S

>  <MolWeight>
453.4860032

>  <Cat>
P2358

>  <Name>
WAY-324914

>  <Synonyms>
N/A

>  <Target>
Other

>  <Form>
free base

>  <CAS>
625370-60-7

>  <URL>
N/A

$$$$
