WAY-332084
 OpenBabel08302521443D

 46 48  0  0  0  0  0  0  0  0999 V2000
    0.1845    3.9093    1.7510 N   0  0  0  0  0  0  0  0  0  0  0  0
    0.0996    2.7260    1.0563 C   0  0  0  0  0  0  0  0  0  0  0  0
   -0.5857    3.7387    2.8078 C   0  0  0  0  0  0  0  0  0  0  0  0
   -1.0576    2.4587    2.9349 O   0  0  0  0  0  0  0  0  0  0  0  0
   -0.5703    1.8043    1.8352 C   0  0  0  0  0  0  0  0  0  0  0  0
   -0.4409    3.2417   -1.5881 S   0  0  3  0  0  0  0  0  0  0  0  0
    0.6827    2.6106   -0.3018 C   0  0  0  0  0  0  0  0  0  0  0  0
   -0.2779    5.0191   -1.3422 C   0  0  0  0  0  0  0  0  0  0  0  0
   -0.8580    5.6685   -0.1113 C   0  0  0  0  0  0  0  0  0  0  0  0
   -1.0600    4.7296    3.7720 C   0  0  0  0  0  0  0  0  0  0  0  0
   -2.0109    5.2927    0.4919 N   0  0  0  0  0  0  0  0  0  0  0  0
    0.1616    2.9150   -2.9254 O   0  0  0  0  0  0  0  0  0  0  0  0
   -0.2979    6.6701    0.3554 O   0  0  0  0  0  0  0  0  0  0  0  0
   -3.0549    4.3499    0.1623 C   0  0  0  0  0  0  0  0  0  0  0  0
   -6.2251    6.8755   -1.1980 C   0  0  0  0  0  0  0  0  0  0  0  0
   -4.2358    5.1260   -0.3271 C   0  0  0  0  0  0  0  0  0  0  0  0
   -5.2960    6.3735   -2.1041 C   0  0  0  0  0  0  0  0  0  0  0  0
   -6.1734    6.4895    0.1465 C   0  0  0  0  0  0  0  0  0  0  0  0
   -4.3064    5.4985   -1.6745 C   0  0  0  0  0  0  0  0  0  0  0  0
   -5.1837    5.6120    0.5835 C   0  0  0  0  0  0  0  0  0  0  0  0
   -0.8685    0.3655    1.7462 C   0  0  0  0  0  0  0  0  0  0  0  0
   -2.1262    4.4624    4.6440 C   0  0  0  0  0  0  0  0  0  0  0  0
   -0.4781    6.0069    3.8046 C   0  0  0  0  0  0  0  0  0  0  0  0
   -2.5604    5.4256    5.5605 C   0  0  0  0  0  0  0  0  0  0  0  0
   -0.9082    6.9687    4.7233 C   0  0  0  0  0  0  0  0  0  0  0  0
   -1.9403    6.6720    5.6102 C   0  0  0  0  0  0  0  0  0  0  0  0
    1.6470    3.1168   -0.3813 H   0  0  0  0  0  0  0  0  0  0  0  0
    0.8364    1.5532   -0.5456 H   0  0  0  0  0  0  0  0  0  0  0  0
    0.7920    5.2544   -1.3745 H   0  0  0  0  0  0  0  0  0  0  0  0
   -0.7455    5.5105   -2.2029 H   0  0  0  0  0  0  0  0  0  0  0  0
   -2.2110    5.8955    1.2830 H   0  0  0  0  0  0  0  0  0  0  0  0
   -2.7555    3.6173   -0.5820 H   0  0  0  0  0  0  0  0  0  0  0  0
   -3.3050    3.7981    1.0759 H   0  0  0  0  0  0  0  0  0  0  0  0
   -6.9762    7.5840   -1.5222 H   0  0  0  0  0  0  0  0  0  0  0  0
   -5.3304    6.6855   -3.1420 H   0  0  0  0  0  0  0  0  0  0  0  0
   -6.8960    6.8912    0.8568 H   0  0  0  0  0  0  0  0  0  0  0  0
   -3.5664    5.1384   -2.3908 H   0  0  0  0  0  0  0  0  0  0  0  0
   -5.1265    5.3489    1.6356 H   0  0  0  0  0  0  0  0  0  0  0  0
   -0.5215   -0.1396    2.6536 H   0  0  0  0  0  0  0  0  0  0  0  0
   -1.9438    0.1931    1.6469 H   0  0  0  0  0  0  0  0  0  0  0  0
   -0.3615   -0.0945    0.8937 H   0  0  0  0  0  0  0  0  0  0  0  0
   -2.6352    3.5017    4.6135 H   0  0  0  0  0  0  0  0  0  0  0  0
    0.3164    6.2639    3.1034 H   0  0  0  0  0  0  0  0  0  0  0  0
   -3.3800    5.2005    6.2382 H   0  0  0  0  0  0  0  0  0  0  0  0
   -0.4349    7.9476    4.7438 H   0  0  0  0  0  0  0  0  0  0  0  0
   -2.2642    7.4146    6.3356 H   0  0  0  0  0  0  0  0  0  0  0  0
  2  1  1  0  0  0  0
  3  1  2  0  0  0  0
  4  3  1  0  0  0  0
  5  2  2  0  0  0  0
  5  4  1  0  0  0  0
  6  7  1  0  0  0  0
  7  2  1  0  0  0  0
  7 27  1  0  0  0  0
  7 28  1  0  0  0  0
  8  6  1  0  0  0  0
  8 29  1  0  0  0  0
  8 30  1  0  0  0  0
  9  8  1  0  0  0  0
 10  3  1  0  0  0  0
 11  9  1  0  0  0  0
 11 31  1  0  0  0  0
 12  6  2  0  0  0  0
 13  9  2  0  0  0  0
 14 11  1  0  0  0  0
 14 32  1  0  0  0  0
 14 33  1  0  0  0  0
 15 18  2  0  0  0  0
 15 17  1  0  0  0  0
 15 34  1  0  0  0  0
 16 14  1  0  0  0  0
 17 19  2  0  0  0  0
 17 35  1  0  0  0  0
 18 20  1  0  0  0  0
 18 36  1  0  0  0  0
 19 16  1  0  0  0  0
 19 37  1  0  0  0  0
 20 16  2  0  0  0  0
 20 38  1  0  0  0  0
 21  5  1  0  0  0  0
 21 39  1  0  0  0  0
 21 40  1  0  0  0  0
 21 41  1  0  0  0  0
 22 10  2  0  0  0  0
 22 42  1  0  0  0  0
 23 10  1  0  0  0  0
 23 43  1  0  0  0  0
 24 22  1  0  0  0  0
 24 44  1  0  0  0  0
 25 23  2  0  0  0  0
 25 45  1  0  0  0  0
 26 25  1  0  0  0  0
 26 24  2  0  0  0  0
 26 46  1  0  0  0  0
M  END
>  <Mol_ID>
9197

>  <Formula>
C20H19ClN2O3S

>  <MolWeight>
402.89446

>  <Cat>
P2723

>  <Name>
WAY-332084

>  <Synonyms>
N/A

>  <Target>
beta-catenin

>  <Form>
free base

>  <CAS>
1015859-75-2

>  <URL>
N/A

$$$$
