WAY-326102
 OpenBabel08302521433D

 37 39  0  0  0  0  0  0  0  0999 V2000
    0.1673   -0.6560    0.0480 C   0  0  0  0  0  0  0  0  0  0  0  0
    0.2080    0.7530    0.0222 N   0  0  0  0  0  0  0  0  0  0  0  0
   -0.9616    1.5071    0.0103 C   0  0  0  0  0  0  0  0  0  0  0  0
    1.4890   -1.0767    0.0787 C   0  0  0  0  0  0  0  0  0  0  0  0
    1.4774    1.2190    0.0359 N   0  0  0  0  0  0  0  0  0  0  0  0
   -1.0242   -1.3349    0.0398 N   0  0  0  0  0  0  0  0  0  0  0  0
   -2.1498    0.8808    0.0215 C   0  0  0  0  0  0  0  0  0  0  0  0
    2.2322    0.1244    0.0564 C   0  0  0  0  0  0  0  0  0  0  0  0
    2.0861   -2.4011    0.1126 C   0  0  0  0  0  0  0  0  0  0  0  0
   -2.1120   -0.6143    0.0254 C   0  0  0  0  0  0  0  0  0  0  0  0
   -0.8173    2.9890    0.0133 C   0  0  0  0  0  0  0  0  0  0  0  0
    1.2267   -3.4746    0.1502 N   0  0  0  0  0  0  0  0  0  0  0  0
    3.3076   -2.5409    0.0882 O   0  0  0  0  0  0  0  0  0  0  0  0
    1.7219   -4.8322    0.0756 C   0  0  0  0  0  0  0  0  0  0  0  0
   -0.7211    3.4640   -1.2575 F   0  0  0  0  0  0  0  0  0  0  0  0
   -1.9337    3.5778    0.5356 F   0  0  0  0  0  0  0  0  0  0  0  0
    1.9838   -6.8854    3.8545 C   0  0  0  0  0  0  0  0  0  0  0  0
    1.8003   -5.5173    1.4198 C   0  0  0  0  0  0  0  0  0  0  0  0
    2.0758   -7.5569    5.0110 F   0  0  0  0  0  0  0  0  0  0  0  0
    0.8110   -6.9583    3.1133 C   0  0  0  0  0  0  0  0  0  0  0  0
    3.0633   -6.1331    3.4099 C   0  0  0  0  0  0  0  0  0  0  0  0
    0.7171   -6.2723    1.8989 C   0  0  0  0  0  0  0  0  0  0  0  0
    2.9707   -5.4448    2.1960 C   0  0  0  0  0  0  0  0  0  0  0  0
   -3.4466   -1.3180    0.0098 C   0  0  0  0  0  0  0  0  0  0  0  0
   -3.0987    1.4044    0.0170 H   0  0  0  0  0  0  0  0  0  0  0  0
    3.3114    0.2272    0.0583 H   0  0  0  0  0  0  0  0  0  0  0  0
    0.0370    3.3517    0.5932 H   0  0  0  0  0  0  0  0  0  0  0  0
    0.2277   -3.2948    0.1646 H   0  0  0  0  0  0  0  0  0  0  0  0
    1.0534   -5.3917   -0.5881 H   0  0  0  0  0  0  0  0  0  0  0  0
    2.7105   -4.8525   -0.3999 H   0  0  0  0  0  0  0  0  0  0  0  0
   -0.0167   -7.5572    3.4778 H   0  0  0  0  0  0  0  0  0  0  0  0
    3.9708   -6.0933    4.0046 H   0  0  0  0  0  0  0  0  0  0  0  0
   -0.1989   -6.3469    1.3180 H   0  0  0  0  0  0  0  0  0  0  0  0
    3.8242   -4.8641    1.8484 H   0  0  0  0  0  0  0  0  0  0  0  0
   -3.5306   -1.9116   -0.9049 H   0  0  0  0  0  0  0  0  0  0  0  0
   -3.5172   -1.9784    0.8778 H   0  0  0  0  0  0  0  0  0  0  0  0
   -4.2775   -0.6067    0.0425 H   0  0  0  0  0  0  0  0  0  0  0  0
  2  1  1  0  0  0  0
  3  2  1  0  0  0  0
  3  7  2  0  0  0  0
  4  1  2  0  0  0  0
  5  2  1  0  0  0  0
  5  8  2  0  0  0  0
  6  1  1  0  0  0  0
  7 10  1  0  0  0  0
  7 25  1  0  0  0  0
  8  4  1  0  0  0  0
  8 26  1  0  0  0  0
  9  4  1  0  0  0  0
 10  6  2  0  0  0  0
 11  3  1  0  0  0  0
 11 27  1  0  0  0  0
 12  9  1  0  0  0  0
 12 28  1  0  0  0  0
 13  9  2  0  0  0  0
 14 12  1  0  0  0  0
 14 29  1  0  0  0  0
 14 30  1  0  0  0  0
 15 11  1  0  0  0  0
 16 11  1  0  0  0  0
 17 21  2  0  0  0  0
 18 14  1  0  0  0  0
 19 17  1  0  0  0  0
 20 22  2  0  0  0  0
 20 17  1  0  0  0  0
 20 31  1  0  0  0  0
 21 23  1  0  0  0  0
 21 32  1  0  0  0  0
 22 18  1  0  0  0  0
 22 33  1  0  0  0  0
 23 18  2  0  0  0  0
 23 34  1  0  0  0  0
 24 10  1  0  0  0  0
 24 35  1  0  0  0  0
 24 36  1  0  0  0  0
 24 37  1  0  0  0  0
M  END
>  <Mol_ID>
8890

>  <Formula>
C16H13F3N4O

>  <MolWeight>
334.2958296

>  <Cat>
P2448

>  <Name>
WAY-326102

>  <Synonyms>
N/A

>  <Target>
glucocerebrosidase

>  <Form>
free base

>  <CAS>
869714-30-7

>  <URL>
N/A

$$$$
