WAY-313137
 OpenBabel08302521403D

 36 38  0  0  0  0  0  0  0  0999 V2000
   -0.2375   -0.7531   -0.0239 C   0  0  0  0  0  0  0  0  0  0  0  0
   -1.5887   -1.2253   -0.0283 C   0  0  0  0  0  0  0  0  0  0  0  0
   -0.2757    0.6409   -0.0226 C   0  0  0  0  0  0  0  0  0  0  0  0
    1.0183   -1.3963   -0.0310 C   0  0  0  0  0  0  0  0  0  0  0  0
   -2.4024   -0.1093   -0.0149 C   0  0  0  0  0  0  0  0  0  0  0  0
   -1.9833   -2.6193   -0.0630 C   0  0  0  0  0  0  0  0  0  0  0  0
   -1.6039    1.0052   -0.0082 N   0  0  0  0  0  0  0  0  0  0  0  0
    0.8857    1.4245   -0.0359 C   0  0  0  0  0  0  0  0  0  0  0  0
    2.1862   -0.6300   -0.0467 C   0  0  0  0  0  0  0  0  0  0  0  0
   -3.2323   -2.9589   -0.1032 N   0  0  0  0  0  0  0  0  0  0  0  0
    2.1174    0.7604   -0.0511 C   0  0  0  0  0  0  0  0  0  0  0  0
   -3.5299   -4.3043   -0.1357 N   0  0  0  0  0  0  0  0  0  0  0  0
   -2.7670   -5.3339    0.4138 C   0  0  0  0  0  0  0  0  0  0  0  0
   -3.3977   -6.7011    0.2163 C   0  0  0  0  0  0  0  0  0  0  0  0
   -1.6895   -5.2059    0.9980 O   0  0  0  0  0  0  0  0  0  0  0  0
   -4.2904   -7.1160    1.3602 C   0  0  0  0  0  0  0  0  0  0  0  0
   -5.6434   -7.4076    1.1386 C   0  0  0  0  0  0  0  0  0  0  0  0
   -3.7714   -7.2485    2.6566 C   0  0  0  0  0  0  0  0  0  0  0  0
   -6.4598   -7.8195    2.1933 C   0  0  0  0  0  0  0  0  0  0  0  0
   -4.5903   -7.6593    3.7096 C   0  0  0  0  0  0  0  0  0  0  0  0
   -5.9335   -7.9464    3.4773 C   0  0  0  0  0  0  0  0  0  0  0  0
    1.0848   -2.4804   -0.0247 H   0  0  0  0  0  0  0  0  0  0  0  0
   -3.4806   -0.0154   -0.0145 H   0  0  0  0  0  0  0  0  0  0  0  0
   -1.1539   -3.3399   -0.0967 H   0  0  0  0  0  0  0  0  0  0  0  0
   -1.9346    1.9606   -0.0022 H   0  0  0  0  0  0  0  0  0  0  0  0
    0.8415    2.5085   -0.0376 H   0  0  0  0  0  0  0  0  0  0  0  0
    3.1518   -1.1294   -0.0563 H   0  0  0  0  0  0  0  0  0  0  0  0
    3.0387    1.3385   -0.0655 H   0  0  0  0  0  0  0  0  0  0  0  0
   -4.5059   -4.4950   -0.3430 H   0  0  0  0  0  0  0  0  0  0  0  0
   -3.9527   -6.7056   -0.7303 H   0  0  0  0  0  0  0  0  0  0  0  0
   -2.5970   -7.4404    0.0938 H   0  0  0  0  0  0  0  0  0  0  0  0
   -6.0734   -7.3265    0.1431 H   0  0  0  0  0  0  0  0  0  0  0  0
   -2.7224   -7.0323    2.8559 H   0  0  0  0  0  0  0  0  0  0  0  0
   -7.5073   -8.0468    2.0129 H   0  0  0  0  0  0  0  0  0  0  0  0
   -4.1772   -7.7565    4.7101 H   0  0  0  0  0  0  0  0  0  0  0  0
   -6.5689   -8.2716    4.2969 H   0  0  0  0  0  0  0  0  0  0  0  0
  1  2  1  0  0  0  0
  1  3  1  0  0  0  0
  1  4  2  0  0  0  0
  2  5  2  0  0  0  0
  2  6  1  0  0  0  0
  3  7  1  0  0  0  0
  3  8  2  0  0  0  0
  4  9  1  0  0  0  0
  4 22  1  0  0  0  0
  5  7  1  0  0  0  0
  5 23  1  0  0  0  0
  6 10  2  0  0  0  0
  6 24  1  0  0  0  0
  7 25  1  0  0  0  0
  8 11  1  0  0  0  0
  8 26  1  0  0  0  0
  9 11  2  0  0  0  0
  9 27  1  0  0  0  0
 10 12  1  0  0  0  0
 11 28  1  0  0  0  0
 12 13  1  0  0  0  0
 12 29  1  0  0  0  0
 13 14  1  0  0  0  0
 13 15  2  0  0  0  0
 14 16  1  0  0  0  0
 14 30  1  0  0  0  0
 14 31  1  0  0  0  0
 16 17  2  0  0  0  0
 16 18  1  0  0  0  0
 17 19  1  0  0  0  0
 17 32  1  0  0  0  0
 18 20  2  0  0  0  0
 18 33  1  0  0  0  0
 19 21  2  0  0  0  0
 19 34  1  0  0  0  0
 20 21  1  0  0  0  0
 20 35  1  0  0  0  0
 21 36  1  0  0  0  0
M  END
>  <Mol_ID>
8279

>  <Formula>
C17H15N3O

>  <MolWeight>
277.3205

>  <Cat>
P2241

>  <Name>
WAY-313137

>  <Synonyms>
N/A

>  <Target>
others

>  <Form>
free base

>  <CAS>
15641-17-5

>  <URL>
N/A

$$$$
