WAY-325472
 OpenBabel08302521433D

 50 52  0  0  0  0  0  0  0  0999 V2000
   -0.1253    1.1015   -0.2074 C   0  0  0  0  0  0  0  0  0  0  0  0
   -0.6505    2.4559   -0.2671 C   0  0  0  0  0  0  0  0  0  0  0  0
   -1.9150    2.6826   -0.8353 N   0  0  0  0  0  0  0  0  0  0  0  0
   -0.9552    0.0263   -0.0351 O   0  0  0  0  0  0  0  0  0  0  0  0
    1.1828    0.6521   -0.2316 C   0  0  0  0  0  0  0  0  0  0  0  0
   -0.1960   -1.1029   -0.0908 C   0  0  0  0  0  0  0  0  0  0  0  0
    1.1349   -0.7631   -0.2047 C   0  0  0  0  0  0  0  0  0  0  0  0
    0.0290    3.4034    0.1391 O   0  0  0  0  0  0  0  0  0  0  0  0
   -2.7798    1.6686   -1.4398 C   0  0  0  0  0  0  0  0  0  0  0  0
   -2.4642    4.0371   -0.8402 C   0  0  0  0  0  0  0  0  0  0  0  0
   -1.3231   -2.9425   -1.1358 O   0  0  0  0  0  0  0  0  0  0  0  0
   -0.9072   -2.3872    0.1209 C   0  0  0  0  0  0  0  0  0  0  0  0
   -2.0227   -4.1248   -1.0195 C   0  0  0  0  0  0  0  0  0  0  0  0
   -3.5133   -6.5286   -0.9357 C   0  0  0  0  0  0  0  0  0  0  0  0
   -2.8523    4.4721   -2.2544 C   0  0  0  0  0  0  0  0  0  0  0  0
   -3.1973    2.0533   -2.8532 C   0  0  0  0  0  0  0  0  0  0  0  0
   -2.2275   -4.8058    0.1820 C   0  0  0  0  0  0  0  0  0  0  0  0
   -2.5582   -4.6692   -2.1902 C   0  0  0  0  0  0  0  0  0  0  0  0
   -2.9627   -5.9909    0.2240 C   0  0  0  0  0  0  0  0  0  0  0  0
   -3.3009   -5.8640   -2.1471 C   0  0  0  0  0  0  0  0  0  0  0  0
   -3.7975    3.4587   -2.9155 C   0  0  0  0  0  0  0  0  0  0  0  0
   -4.2622   -7.6783   -0.9839 O   0  0  0  0  0  0  0  0  0  0  0  0
   -4.4877   -8.3169    0.2783 C   0  0  0  0  0  0  0  0  0  0  0  0
   -4.0818    3.8338   -4.3681 C   0  0  0  0  0  0  0  0  0  0  0  0
   -5.3575   -9.5453    0.0957 C   0  0  0  0  0  0  0  0  0  0  0  0
    2.0579    1.2857   -0.2881 H   0  0  0  0  0  0  0  0  0  0  0  0
    1.9691   -1.4503   -0.2247 H   0  0  0  0  0  0  0  0  0  0  0  0
   -3.6544    1.5562   -0.7888 H   0  0  0  0  0  0  0  0  0  0  0  0
   -2.3035    0.6969   -1.5275 H   0  0  0  0  0  0  0  0  0  0  0  0
   -3.3472    4.0325   -0.1898 H   0  0  0  0  0  0  0  0  0  0  0  0
   -1.7593    4.7606   -0.4194 H   0  0  0  0  0  0  0  0  0  0  0  0
   -0.2157   -3.0753    0.6207 H   0  0  0  0  0  0  0  0  0  0  0  0
   -1.7843   -2.2006    0.7533 H   0  0  0  0  0  0  0  0  0  0  0  0
   -1.9429    4.5784   -2.8597 H   0  0  0  0  0  0  0  0  0  0  0  0
   -3.3306    5.4577   -2.2162 H   0  0  0  0  0  0  0  0  0  0  0  0
   -3.9188    1.3170   -3.2273 H   0  0  0  0  0  0  0  0  0  0  0  0
   -2.3172    1.9987   -3.5075 H   0  0  0  0  0  0  0  0  0  0  0  0
   -1.8331   -4.4517    1.1275 H   0  0  0  0  0  0  0  0  0  0  0  0
   -2.4084   -4.1675   -3.1436 H   0  0  0  0  0  0  0  0  0  0  0  0
   -3.0819   -6.4614    1.1932 H   0  0  0  0  0  0  0  0  0  0  0  0
   -3.7168   -6.2727   -3.0654 H   0  0  0  0  0  0  0  0  0  0  0  0
   -4.7480    3.4576   -2.3661 H   0  0  0  0  0  0  0  0  0  0  0  0
   -3.5311   -8.6316    0.7130 H   0  0  0  0  0  0  0  0  0  0  0  0
   -5.0042   -7.6307    0.9607 H   0  0  0  0  0  0  0  0  0  0  0  0
   -4.5397    4.8251   -4.4346 H   0  0  0  0  0  0  0  0  0  0  0  0
   -3.1611    3.8428   -4.9623 H   0  0  0  0  0  0  0  0  0  0  0  0
   -4.7674    3.1120   -4.8254 H   0  0  0  0  0  0  0  0  0  0  0  0
   -6.3306   -9.2728   -0.3233 H   0  0  0  0  0  0  0  0  0  0  0  0
   -4.8903  -10.2555   -0.5927 H   0  0  0  0  0  0  0  0  0  0  0  0
   -5.5175  -10.0413    1.0588 H   0  0  0  0  0  0  0  0  0  0  0  0
  2  1  1  0  0  0  0
  3  2  1  0  0  0  0
  4  1  1  0  0  0  0
  5  1  2  0  0  0  0
  5 26  1  0  0  0  0
  6  4  1  0  0  0  0
  6  7  2  0  0  0  0
  7  5  1  0  0  0  0
  7 27  1  0  0  0  0
  8  2  2  0  0  0  0
  9  3  1  0  0  0  0
  9 28  1  0  0  0  0
  9 29  1  0  0  0  0
 10  3  1  0  0  0  0
 10 30  1  0  0  0  0
 10 31  1  0  0  0  0
 11 12  1  0  0  0  0
 12  6  1  0  0  0  0
 12 32  1  0  0  0  0
 12 33  1  0  0  0  0
 13 11  1  0  0  0  0
 14 20  2  0  0  0  0
 15 10  1  0  0  0  0
 15 34  1  0  0  0  0
 15 35  1  0  0  0  0
 16  9  1  0  0  0  0
 16 21  1  0  0  0  0
 16 36  1  0  0  0  0
 16 37  1  0  0  0  0
 17 13  1  0  0  0  0
 17 38  1  0  0  0  0
 18 13  2  0  0  0  0
 18 39  1  0  0  0  0
 19 17  2  0  0  0  0
 19 14  1  0  0  0  0
 19 40  1  0  0  0  0
 20 18  1  0  0  0  0
 20 41  1  0  0  0  0
 21 15  1  0  0  0  0
 21 42  1  0  0  0  0
 22 14  1  0  0  0  0
 23 22  1  0  0  0  0
 23 43  1  0  0  0  0
 23 44  1  0  0  0  0
 24 21  1  0  0  0  0
 24 45  1  0  0  0  0
 24 46  1  0  0  0  0
 24 47  1  0  0  0  0
 25 23  1  0  0  0  0
 25 48  1  0  0  0  0
 25 49  1  0  0  0  0
 25 50  1  0  0  0  0
M  END
>  <Mol_ID>
8706

>  <Formula>
C20H25NO4

>  <MolWeight>
343.4168

>  <Cat>
P2405

>  <Name>
WAY-325472

>  <Synonyms>
N/A

>  <Target>
11¦Â-HSD1

>  <Form>
free base

>  <CAS>
438471-96-6

>  <URL>
N/A

$$$$
