WAY-301591
 OpenBabel08302521413D

 32 34  0  0  0  0  0  0  0  0999 V2000
   -1.9354    3.9120   -0.8392 N   0  0  0  0  0  0  0  0  0  0  0  0
   -1.3846    2.8397   -0.1994 C   0  0  0  0  0  0  0  0  0  0  0  0
   -2.0983    1.8293    0.2024 N   0  0  0  0  0  0  0  0  0  0  0  0
   -3.2583    3.9852   -1.1538 C   0  0  0  0  0  0  0  0  0  0  0  0
   -4.0690    2.8462   -0.6951 C   0  0  0  0  0  0  0  0  0  0  0  0
   -3.4490    1.8584   -0.0366 C   0  0  0  0  0  0  0  0  0  0  0  0
    5.5558    4.8436    0.2158 C   0  0  0  0  0  0  0  0  0  0  0  0
    0.8598    3.8376   -0.2386 N   0  0  0  0  0  0  0  0  0  0  0  0
    5.3696    6.1686   -0.0979 C   0  0  0  0  0  0  0  0  0  0  0  0
   -0.0321    2.8320    0.0143 N   0  0  0  0  0  0  0  0  0  0  0  0
    6.8511    4.5584    0.5175 O   0  0  0  0  0  0  0  0  0  0  0  0
    6.5221    6.8860   -0.0214 O   0  0  0  0  0  0  0  0  0  0  0  0
    7.4632    5.8553    0.3447 C   0  0  0  0  0  0  0  0  0  0  0  0
   -3.7632    4.9162   -1.7696 O   0  0  0  0  0  0  0  0  0  0  0  0
    4.5101    3.9436    0.2279 C   0  0  0  0  0  0  0  0  0  0  0  0
    4.1278    6.6676   -0.4355 C   0  0  0  0  0  0  0  0  0  0  0  0
    2.0882    3.5019    0.0216 C   0  0  0  0  0  0  0  0  0  0  0  0
    3.2328    4.4299   -0.0869 C   0  0  0  0  0  0  0  0  0  0  0  0
    3.0438    5.7815   -0.4331 C   0  0  0  0  0  0  0  0  0  0  0  0
   -4.2318    0.6892    0.4953 C   0  0  0  0  0  0  0  0  0  0  0  0
   -1.3196    4.6592   -1.1179 H   0  0  0  0  0  0  0  0  0  0  0  0
   -5.1307    2.8654   -0.8968 H   0  0  0  0  0  0  0  0  0  0  0  0
    0.2613    1.9947    0.5137 H   0  0  0  0  0  0  0  0  0  0  0  0
    7.9546    6.1401    1.2822 H   0  0  0  0  0  0  0  0  0  0  0  0
    8.2233    5.7824   -0.4417 H   0  0  0  0  0  0  0  0  0  0  0  0
    4.6869    2.9069    0.4926 H   0  0  0  0  0  0  0  0  0  0  0  0
    3.9969    7.7154   -0.6807 H   0  0  0  0  0  0  0  0  0  0  0  0
    2.3362    2.4809    0.3682 H   0  0  0  0  0  0  0  0  0  0  0  0
    2.0510    6.1503   -0.6822 H   0  0  0  0  0  0  0  0  0  0  0  0
   -4.9689    1.0234    1.2326 H   0  0  0  0  0  0  0  0  0  0  0  0
   -4.7510    0.1640   -0.3133 H   0  0  0  0  0  0  0  0  0  0  0  0
   -3.5763   -0.0343    0.9921 H   0  0  0  0  0  0  0  0  0  0  0  0
  1 21  1  0  0  0  0
  2  1  1  0  0  0  0
  3  2  2  0  0  0  0
  3  6  1  0  0  0  0
  4  1  1  0  0  0  0
  5  4  1  0  0  0  0
  5 22  1  0  0  0  0
  6  5  2  0  0  0  0
  7 15  2  0  0  0  0
  8 10  1  0  0  0  0
  9 16  2  0  0  0  0
  9  7  1  0  0  0  0
 10  2  1  0  0  0  0
 10 23  1  0  0  0  0
 11  7  1  0  0  0  0
 12  9  1  0  0  0  0
 13 11  1  0  0  0  0
 13 12  1  0  0  0  0
 13 24  1  0  0  0  0
 13 25  1  0  0  0  0
 14  4  2  0  0  0  0
 15 18  1  0  0  0  0
 15 26  1  0  0  0  0
 16 19  1  0  0  0  0
 16 27  1  0  0  0  0
 17  8  2  0  0  0  0
 17 28  1  0  0  0  0
 18 17  1  0  0  0  0
 19 18  2  0  0  0  0
 19 29  1  0  0  0  0
 20  6  1  0  0  0  0
 20 30  1  0  0  0  0
 20 31  1  0  0  0  0
 20 32  1  0  0  0  0
M  END
>  <Mol_ID>
8443

>  <Formula>
C13H12N4O3

>  <MolWeight>
272.25938

>  <Cat>
P2176

>  <Name>
WAY-301591

>  <Synonyms>
N/A

>  <Target>
bax

>  <Form>
free base

>  <CAS>
301228-56-8

>  <URL>
N/A

$$$$
