WAY-608119
 OpenBabel08302521443D

 26 28  0  0  0  0  0  0  0  0999 V2000
   -0.0954   -0.4782    0.0000 C   0  0  0  0  0  0  0  0  0  0  0  0
   -0.4704    0.8670    0.0286 C   0  0  0  0  0  0  0  0  0  0  0  0
    1.3443   -0.7765   -0.0222 C   0  0  0  0  0  0  0  0  0  0  0  0
   -1.0469   -1.5026   -0.0116 C   0  0  0  0  0  0  0  0  0  0  0  0
    0.4662    1.9149    0.0263 N   0  0  0  0  0  0  0  0  0  0  0  0
   -1.8312    1.1784    0.0445 C   0  0  0  0  0  0  0  0  0  0  0  0
    2.1759    0.3145   -0.0516 N   0  0  0  0  0  0  0  0  0  0  0  0
    1.7795   -1.9218   -0.0144 O   0  0  0  0  0  0  0  0  0  0  0  0
   -2.4019   -1.1756    0.0017 C   0  0  0  0  0  0  0  0  0  0  0  0
    1.7249    1.6159   -0.0303 C   0  0  0  0  0  0  0  0  0  0  0  0
   -2.7938    0.1638    0.0297 C   0  0  0  0  0  0  0  0  0  0  0  0
    2.7516    2.6812   -0.0703 C   0  0  0  0  0  0  0  0  0  0  0  0
    3.9805    2.5198   -0.7141 C   0  0  0  0  0  0  0  0  0  0  0  0
    2.4799    3.9133    0.5128 C   0  0  0  0  0  0  0  0  0  0  0  0
    4.8855    3.5798   -0.7345 C   0  0  0  0  0  0  0  0  0  0  0  0
    3.3478    4.9565    0.5149 N   0  0  0  0  0  0  0  0  0  0  0  0
    4.5287    4.7653   -0.1110 C   0  0  0  0  0  0  0  0  0  0  0  0
   -0.7344   -2.5439   -0.0348 H   0  0  0  0  0  0  0  0  0  0  0  0
   -2.1416    2.2202    0.0630 H   0  0  0  0  0  0  0  0  0  0  0  0
    3.1598    0.0923   -0.0286 H   0  0  0  0  0  0  0  0  0  0  0  0
   -3.1521   -1.9627   -0.0116 H   0  0  0  0  0  0  0  0  0  0  0  0
   -3.8500    0.4215    0.0374 H   0  0  0  0  0  0  0  0  0  0  0  0
    4.2371    1.6008   -1.2322 H   0  0  0  0  0  0  0  0  0  0  0  0
    1.5352    4.1063    1.0153 H   0  0  0  0  0  0  0  0  0  0  0  0
    5.8422    3.4893   -1.2380 H   0  0  0  0  0  0  0  0  0  0  0  0
    5.1994    5.6202   -0.1065 H   0  0  0  0  0  0  0  0  0  0  0  0
  1  2  2  0  0  0  0
  1  3  1  0  0  0  0
  1  4  1  0  0  0  0
  2  5  1  0  0  0  0
  2  6  1  0  0  0  0
  3  7  1  0  0  0  0
  3  8  2  0  0  0  0
  4  9  2  0  0  0  0
  4 18  1  0  0  0  0
  5 10  2  0  0  0  0
  6 11  2  0  0  0  0
  6 19  1  0  0  0  0
  7 10  1  0  0  0  0
  7 20  1  0  0  0  0
  9 11  1  0  0  0  0
  9 21  1  0  0  0  0
 10 12  1  0  0  0  0
 11 22  1  0  0  0  0
 12 13  2  0  0  0  0
 12 14  1  0  0  0  0
 13 15  1  0  0  0  0
 13 23  1  0  0  0  0
 14 16  2  0  0  0  0
 14 24  1  0  0  0  0
 15 17  2  0  0  0  0
 15 25  1  0  0  0  0
 16 17  1  0  0  0  0
 17 26  1  0  0  0  0
M  END
>  <Mol_ID>
9030

>  <Formula>
C13H9N3O

>  <MolWeight>
223.23006

>  <Cat>
P2910

>  <Name>
WAY-608119

>  <Synonyms>
N/A

>  <Target>
Anti-infection,CYP1B1

>  <Form>
free base

>  <CAS>
50362-93-1

>  <URL>
N/A

$$$$
