WAY-388604
 OpenBabel08302521413D

 18 19  0  0  0  0  0  0  0  0999 V2000
   -1.1900   -0.8085   -0.0041 C   0  0  0  0  0  0  0  0  0  0  0  0
   -2.2664   -1.7630   -0.0247 C   0  0  0  0  0  0  0  0  0  0  0  0
    0.0878   -1.1502    0.0698 N   0  0  0  0  0  0  0  0  0  0  0  0
   -1.3774    0.5538   -0.0813 O   0  0  0  0  0  0  0  0  0  0  0  0
   -2.1638   -3.1393    0.0528 C   0  0  0  0  0  0  0  0  0  0  0  0
   -3.9023   -1.2704   -0.1721 S   0  0  0  0  0  0  0  0  0  0  0  0
    0.7719    0.0445    0.0282 C   0  0  0  0  0  0  0  0  0  0  0  0
   -0.1253    1.0790   -0.0612 C   0  0  0  0  0  0  0  0  0  0  0  0
   -3.4324   -3.7877   -0.0189 C   0  0  0  0  0  0  0  0  0  0  0  0
   -4.4631   -2.8855   -0.1472 C   0  0  0  0  0  0  0  0  0  0  0  0
    2.2470    0.0831    0.0620 C   0  0  0  0  0  0  0  0  0  0  0  0
   -1.2153   -3.6553    0.1505 H   0  0  0  0  0  0  0  0  0  0  0  0
   -0.0524    2.1546   -0.1237 H   0  0  0  0  0  0  0  0  0  0  0  0
   -3.5779   -4.8604    0.0181 H   0  0  0  0  0  0  0  0  0  0  0  0
   -5.5212   -3.0927   -0.2275 H   0  0  0  0  0  0  0  0  0  0  0  0
    2.6232   -0.4115    0.9627 H   0  0  0  0  0  0  0  0  0  0  0  0
    2.6588   -0.4301   -0.8123 H   0  0  0  0  0  0  0  0  0  0  0  0
    2.6175    1.1129    0.0580 H   0  0  0  0  0  0  0  0  0  0  0  0
  1  2  1  0  0  0  0
  1  3  2  0  0  0  0
  1  4  1  0  0  0  0
  2  5  2  0  0  0  0
  2  6  1  0  0  0  0
  3  7  1  0  0  0  0
  4  8  1  0  0  0  0
  5  9  1  0  0  0  0
  5 12  1  0  0  0  0
  6 10  1  0  0  0  0
  7 11  1  0  0  0  0
  7  8  2  0  0  0  0
  8 13  1  0  0  0  0
  9 10  2  0  0  0  0
  9 14  1  0  0  0  0
 10 15  1  0  0  0  0
 11 16  1  0  0  0  0
 11 17  1  0  0  0  0
 11 18  1  0  0  0  0
M  END
>  <Mol_ID>
8455

>  <Formula>
C8H6ClNOS

>  <MolWeight>
199.65734

>  <Cat>
P2821

>  <Name>
WAY-388604

>  <Synonyms>
N/A

>  <Target>
ClpP

>  <Form>
free base

>  <CAS>
54679-74-2

>  <URL>
N/A

$$$$
