WAY-659763
 OpenBabel08302521433D

 39 40  0  0  0  0  0  0  0  0999 V2000
    0.8753    0.0586   -0.0395 C   0  0  0  0  0  0  0  0  0  0  0  0
    0.0862   -0.4328    1.1906 C   0  0  3  0  0  0  0  0  0  0  0  0
   -0.0041   -1.9736    1.1827 C   0  0  3  0  0  0  0  0  0  0  0  0
   -0.5125   -2.5431    2.5014 C   0  0  0  0  0  0  0  0  0  0  0  0
    0.1445    0.5343   -1.1015 N   0  0  0  0  0  0  0  0  0  0  0  0
    2.1036   -0.0352   -0.0780 O   0  0  0  0  0  0  0  0  0  0  0  0
   -1.1887   -3.5462    2.6499 O   0  0  0  0  0  0  0  0  0  0  0  0
   -2.1685   -1.6435   -0.1040 C   0  0  0  0  0  0  0  0  0  0  0  0
   -2.3646   -0.4715    0.5205 C   0  0  0  0  0  0  0  0  0  0  0  0
    0.7316    0.9099   -2.3698 C   0  0  0  0  0  0  0  0  0  0  0  0
   -0.0833   -1.8742    3.5879 O   0  0  0  0  0  0  0  0  0  0  0  0
   -0.1437    1.9044   -3.0972 C   0  0  0  0  0  0  0  0  0  0  0  0
   -1.3064    0.2015    1.3558 C   0  0  0  0  0  0  0  0  0  0  0  0
   -0.9052   -2.4529    0.0315 C   0  0  0  0  0  0  0  0  0  0  0  0
   -1.7039    3.8235   -4.4696 C   0  0  0  0  0  0  0  0  0  0  0  0
   -0.3573    3.1798   -2.5549 C   0  0  0  0  0  0  0  0  0  0  0  0
   -0.7426    1.5936   -4.3266 C   0  0  0  0  0  0  0  0  0  0  0  0
   -1.1286    4.1288   -3.2326 C   0  0  0  0  0  0  0  0  0  0  0  0
   -1.5134    2.5457   -5.0068 C   0  0  0  0  0  0  0  0  0  0  0  0
   -2.4903    4.8529   -5.2288 C   0  0  0  0  0  0  0  0  0  0  0  0
    0.6882   -0.0962    2.0463 H   0  0  0  0  0  0  0  0  0  0  0  0
    0.9959   -2.4057    1.0463 H   0  0  0  0  0  0  0  0  0  0  0  0
   -0.8584    0.4179   -1.1112 H   0  0  0  0  0  0  0  0  0  0  0  0
   -2.9512   -2.0565   -0.7365 H   0  0  0  0  0  0  0  0  0  0  0  0
   -3.3098    0.0532    0.3988 H   0  0  0  0  0  0  0  0  0  0  0  0
    0.8419   -0.0103   -2.9548 H   0  0  0  0  0  0  0  0  0  0  0  0
    1.7334    1.3276   -2.2197 H   0  0  0  0  0  0  0  0  0  0  0  0
   -0.4633   -2.3807    4.3384 H   0  0  0  0  0  0  0  0  0  0  0  0
   -1.6200    0.1390    2.4052 H   0  0  0  0  0  0  0  0  0  0  0  0
   -1.2677    1.2685    1.1066 H   0  0  0  0  0  0  0  0  0  0  0  0
   -0.3528   -2.3922   -0.9143 H   0  0  0  0  0  0  0  0  0  0  0  0
   -1.1728   -3.5081    0.1603 H   0  0  0  0  0  0  0  0  0  0  0  0
    0.0915    3.4451   -1.5996 H   0  0  0  0  0  0  0  0  0  0  0  0
   -0.6053    0.6117   -4.7755 H   0  0  0  0  0  0  0  0  0  0  0  0
   -1.2646    5.1130   -2.7905 H   0  0  0  0  0  0  0  0  0  0  0  0
   -1.9553    2.2859   -5.9669 H   0  0  0  0  0  0  0  0  0  0  0  0
   -1.9978    5.0741   -6.1815 H   0  0  0  0  0  0  0  0  0  0  0  0
   -3.5057    4.4935   -5.4237 H   0  0  0  0  0  0  0  0  0  0  0  0
   -2.5692    5.7912   -4.6694 H   0  0  0  0  0  0  0  0  0  0  0  0
  2  1  1  0  0  0  0
  2 21  1  0  0  0  0
  3  2  1  0  0  0  0
  3 22  1  0  0  0  0
  4  3  1  0  0  0  0
  5  1  1  0  0  0  0
  5 23  1  0  0  0  0
  6  1  2  0  0  0  0
  7  4  2  0  0  0  0
  8  9  2  0  0  0  0
  8 14  1  0  0  0  0
  8 24  1  0  0  0  0
  9 13  1  0  0  0  0
  9 25  1  0  0  0  0
 10  5  1  0  0  0  0
 10 26  1  0  0  0  0
 10 27  1  0  0  0  0
 11  4  1  0  0  0  0
 11 28  1  0  0  0  0
 12 10  1  0  0  0  0
 13  2  1  0  0  0  0
 13 29  1  0  0  0  0
 13 30  1  0  0  0  0
 14  3  1  0  0  0  0
 14 31  1  0  0  0  0
 14 32  1  0  0  0  0
 15 19  2  0  0  0  0
 16 12  1  0  0  0  0
 16 33  1  0  0  0  0
 17 12  2  0  0  0  0
 17 34  1  0  0  0  0
 18 16  2  0  0  0  0
 18 15  1  0  0  0  0
 18 35  1  0  0  0  0
 19 17  1  0  0  0  0
 19 36  1  0  0  0  0
 20 15  1  0  0  0  0
 20 37  1  0  0  0  0
 20 38  1  0  0  0  0
 20 39  1  0  0  0  0
M  END
>  <Mol_ID>
8844

>  <Formula>
C16H19NO3

>  <MolWeight>
273.32696

>  <Cat>
P3192

>  <Name>
WAY-659763

>  <Synonyms>
N/A

>  <Target>
Others

>  <Form>
free base

>  <CAS>
867329-47-3

>  <URL>
N/A

$$$$
