WAY-324106
 OpenBabel08302521423D

 37 39  0  0  0  0  0  0  0  0999 V2000
   -3.4098   -0.2769   -0.3421 C   0  0  0  0  0  0  0  0  0  0  0  0
   -3.0731    1.0451   -0.3072 O   0  0  0  0  0  0  0  0  0  0  0  0
   -1.3855    1.5546   -2.0483 C   0  0  0  0  0  0  0  0  0  0  0  0
   -1.7182    1.4570   -0.5456 C   0  0  3  0  0  0  0  0  0  0  0  0
   -2.2984   -1.2570   -0.4607 C   0  0  0  0  0  0  0  0  0  0  0  0
   -0.9816   -0.8617   -0.1970 C   0  0  0  0  0  0  0  0  0  0  0  0
   -2.2127    2.4188   -2.7514 N   0  0  0  0  0  0  0  0  0  0  0  0
   -0.7287    0.5631    0.2011 C   0  0  0  0  0  0  0  0  0  0  0  0
   -4.5756   -0.6407   -0.2728 O   0  0  0  0  0  0  0  0  0  0  0  0
   -2.0977    2.7087   -4.1319 C   0  0  0  0  0  0  0  0  0  0  0  0
   -0.4185    0.9627   -2.5231 O   0  0  0  0  0  0  0  0  0  0  0  0
   -1.4078    1.8769   -5.0231 C   0  0  0  0  0  0  0  0  0  0  0  0
   -1.2564    2.2248   -6.3673 C   0  0  0  0  0  0  0  0  0  0  0  0
   -0.5868    1.4911   -7.3087 O   0  0  0  0  0  0  0  0  0  0  0  0
    0.0619   -1.7830   -0.3374 C   0  0  0  0  0  0  0  0  0  0  0  0
   -2.5716   -2.5736   -0.8461 C   0  0  0  0  0  0  0  0  0  0  0  0
   -2.5404    4.2360   -5.9597 C   0  0  0  0  0  0  0  0  0  0  0  0
   -2.6912    3.8776   -4.6173 C   0  0  0  0  0  0  0  0  0  0  0  0
   -1.8173    3.4150   -6.8268 C   0  0  0  0  0  0  0  0  0  0  0  0
    0.0129    0.2778   -6.8620 C   0  0  0  0  0  0  0  0  0  0  0  0
   -0.2113   -3.0880   -0.7491 C   0  0  0  0  0  0  0  0  0  0  0  0
   -1.5254   -3.4850   -0.9983 C   0  0  0  0  0  0  0  0  0  0  0  0
   -1.6244    2.4723   -0.1417 H   0  0  0  0  0  0  0  0  0  0  0  0
   -2.8628    2.9846   -2.2148 H   0  0  0  0  0  0  0  0  0  0  0  0
    0.3028    0.8573   -0.0238 H   0  0  0  0  0  0  0  0  0  0  0  0
   -0.8811    0.6467    1.2836 H   0  0  0  0  0  0  0  0  0  0  0  0
   -1.0017    0.9378   -4.6687 H   0  0  0  0  0  0  0  0  0  0  0  0
    1.0930   -1.4831   -0.1620 H   0  0  0  0  0  0  0  0  0  0  0  0
   -3.5944   -2.8877   -1.0440 H   0  0  0  0  0  0  0  0  0  0  0  0
   -2.9753    5.1602   -6.3318 H   0  0  0  0  0  0  0  0  0  0  0  0
   -3.2441    4.5421   -3.9587 H   0  0  0  0  0  0  0  0  0  0  0  0
   -1.6922    3.7011   -7.8684 H   0  0  0  0  0  0  0  0  0  0  0  0
    0.7601    0.4656   -6.0831 H   0  0  0  0  0  0  0  0  0  0  0  0
   -0.7472   -0.4321   -6.5181 H   0  0  0  0  0  0  0  0  0  0  0  0
    0.5294   -0.1761   -7.7129 H   0  0  0  0  0  0  0  0  0  0  0  0
    0.6040   -3.7950   -0.8855 H   0  0  0  0  0  0  0  0  0  0  0  0
   -1.7336   -4.5026   -1.3201 H   0  0  0  0  0  0  0  0  0  0  0  0
  2  1  1  0  0  0  0
  3  4  1  0  0  0  0
  4  2  1  0  0  0  0
  4 23  1  0  0  0  0
  5  1  1  0  0  0  0
  6  5  2  0  0  0  0
  7  3  1  0  0  0  0
  7 24  1  0  0  0  0
  8  6  1  0  0  0  0
  8  4  1  0  0  0  0
  8 25  1  0  0  0  0
  8 26  1  0  0  0  0
  9  1  2  0  0  0  0
 10  7  1  0  0  0  0
 11  3  2  0  0  0  0
 12 10  2  0  0  0  0
 12 27  1  0  0  0  0
 13 12  1  0  0  0  0
 14 13  1  0  0  0  0
 15  6  1  0  0  0  0
 15 28  1  0  0  0  0
 16  5  1  0  0  0  0
 16 29  1  0  0  0  0
 17 18  2  0  0  0  0
 17 30  1  0  0  0  0
 18 10  1  0  0  0  0
 18 31  1  0  0  0  0
 19 17  1  0  0  0  0
 19 13  2  0  0  0  0
 19 32  1  0  0  0  0
 20 14  1  0  0  0  0
 20 33  1  0  0  0  0
 20 34  1  0  0  0  0
 20 35  1  0  0  0  0
 21 22  1  0  0  0  0
 21 15  2  0  0  0  0
 21 36  1  0  0  0  0
 22 16  2  0  0  0  0
 22 37  1  0  0  0  0
M  END
>  <Mol_ID>
8606

>  <Formula>
C17H15NO4

>  <MolWeight>
297.3053

>  <Cat>
P2301

>  <Name>
WAY-324106

>  <Synonyms>
N/A

>  <Target>
Androgen Receptor

>  <Form>
free base

>  <CAS>
1351506-85-8

>  <URL>
N/A

$$$$
