WAY-312298
 OpenBabel08302521393D

 42 44  0  0  0  0  0  0  0  0999 V2000
    1.3600   -0.2420    0.2707 C   0  0  0  0  0  0  0  0  0  0  0  0
    3.1176   -0.5388    0.3365 S   0  0  0  0  0  0  0  0  0  0  0  0
    0.4847   -1.3251    0.1552 C   0  0  0  0  0  0  0  0  0  0  0  0
    0.8590    1.0549    0.4047 C   0  0  0  0  0  0  0  0  0  0  0  0
    3.6079   -0.4230   -1.2834 N   0  0  0  0  0  0  0  0  0  0  0  0
    3.7058    0.5605    1.0629 O   0  0  0  0  0  0  0  0  0  0  0  0
    3.3100   -1.9088    0.7640 O   0  0  0  0  0  0  0  0  0  0  0  0
   -0.9018   -1.1122    0.1256 C   0  0  0  0  0  0  0  0  0  0  0  0
   -0.5201    1.2727    0.3392 C   0  0  0  0  0  0  0  0  0  0  0  0
    3.5753    0.8910   -1.9503 C   0  0  0  0  0  0  0  0  0  0  0  0
    3.1349   -1.4419   -2.2444 C   0  0  0  0  0  0  0  0  0  0  0  0
   -1.7663   -2.3210    0.0186 C   0  0  0  0  0  0  0  0  0  0  0  0
   -1.4001    0.1952    0.1868 C   0  0  0  0  0  0  0  0  0  0  0  0
    2.4163    0.7805   -2.9201 C   0  0  0  0  0  0  0  0  0  0  0  0
    2.4527   -0.6697   -3.3719 C   0  0  0  0  0  0  0  0  0  0  0  0
   -3.0432   -2.2310    0.5492 N   0  0  0  0  0  0  0  0  0  0  0  0
   -1.2799   -3.3101   -0.5247 O   0  0  0  0  0  0  0  0  0  0  0  0
   -3.9563   -3.3064    0.6668 C   0  0  0  0  0  0  0  0  0  0  0  0
   -3.5698   -4.6455    0.5627 C   0  0  0  0  0  0  0  0  0  0  0  0
   -5.3011   -3.0059    0.9188 C   0  0  0  0  0  0  0  0  0  0  0  0
   -4.5207   -5.6577    0.6639 C   0  0  0  0  0  0  0  0  0  0  0  0
   -6.2519   -4.0297    1.0016 C   0  0  0  0  0  0  0  0  0  0  0  0
   -5.8601   -5.3599    0.8669 C   0  0  0  0  0  0  0  0  0  0  0  0
   -4.1614   -6.9707    0.5710 O   0  0  0  0  0  0  0  0  0  0  0  0
    0.8780   -2.3398    0.0950 H   0  0  0  0  0  0  0  0  0  0  0  0
    1.5322    1.8972    0.5473 H   0  0  0  0  0  0  0  0  0  0  0  0
   -0.9103    2.2863    0.4075 H   0  0  0  0  0  0  0  0  0  0  0  0
    4.5221    1.0240   -2.4869 H   0  0  0  0  0  0  0  0  0  0  0  0
    3.4644    1.7332   -1.2628 H   0  0  0  0  0  0  0  0  0  0  0  0
    2.4583   -2.1743   -1.7980 H   0  0  0  0  0  0  0  0  0  0  0  0
    4.0020   -1.9905   -2.6292 H   0  0  0  0  0  0  0  0  0  0  0  0
   -2.4625    0.4031    0.1034 H   0  0  0  0  0  0  0  0  0  0  0  0
    1.4692    0.9875   -2.4118 H   0  0  0  0  0  0  0  0  0  0  0  0
    2.5023    1.4831   -3.7536 H   0  0  0  0  0  0  0  0  0  0  0  0
    1.4446   -1.0509   -3.5666 H   0  0  0  0  0  0  0  0  0  0  0  0
    3.0255   -0.7702   -4.3002 H   0  0  0  0  0  0  0  0  0  0  0  0
   -3.3832   -1.3325    0.8552 H   0  0  0  0  0  0  0  0  0  0  0  0
   -2.5289   -4.9149    0.4278 H   0  0  0  0  0  0  0  0  0  0  0  0
   -5.6359   -1.9774    1.0215 H   0  0  0  0  0  0  0  0  0  0  0  0
   -7.2996   -3.7915    1.1645 H   0  0  0  0  0  0  0  0  0  0  0  0
   -6.5908   -6.1612    0.9245 H   0  0  0  0  0  0  0  0  0  0  0  0
   -3.2002   -7.0135    0.4301 H   0  0  0  0  0  0  0  0  0  0  0  0
  1  2  1  0  0  0  0
  1  3  2  0  0  0  0
  1  4  1  0  0  0  0
  2  5  1  0  0  0  0
  2  6  2  0  0  0  0
  2  7  2  0  0  0  0
  3  8  1  0  0  0  0
  3 25  1  0  0  0  0
  4  9  2  0  0  0  0
  4 26  1  0  0  0  0
  5 10  1  0  0  0  0
  5 11  1  0  0  0  0
  8 12  1  0  0  0  0
  8 13  2  0  0  0  0
  9 13  1  0  0  0  0
  9 27  1  0  0  0  0
 10 14  1  0  0  0  0
 10 28  1  0  0  0  0
 10 29  1  0  0  0  0
 11 15  1  0  0  0  0
 11 30  1  0  0  0  0
 11 31  1  0  0  0  0
 12 16  1  0  0  0  0
 12 17  2  0  0  0  0
 13 32  1  0  0  0  0
 14 15  1  0  0  0  0
 14 33  1  0  0  0  0
 14 34  1  0  0  0  0
 15 35  1  0  0  0  0
 15 36  1  0  0  0  0
 16 18  1  0  0  0  0
 16 37  1  0  0  0  0
 18 19  2  0  0  0  0
 18 20  1  0  0  0  0
 19 21  1  0  0  0  0
 19 38  1  0  0  0  0
 20 22  2  0  0  0  0
 20 39  1  0  0  0  0
 21 23  2  0  0  0  0
 21 24  1  0  0  0  0
 22 23  1  0  0  0  0
 22 40  1  0  0  0  0
 23 41  1  0  0  0  0
 24 42  1  0  0  0  0
M  END
>  <Mol_ID>
8139

>  <Formula>
C17H18N2O4S

>  <MolWeight>
346.40082

>  <Cat>
P2230

>  <Name>
WAY-312298

>  <Synonyms>
N/A

>  <Target>
others

>  <Form>
free base

>  <CAS>
328549-38-8

>  <URL>
N/A

$$$$
