WAY-328182
 OpenBabel08302521443D

 46 48  0  0  0  0  0  0  0  0999 V2000
   -0.0928   -1.3610   -0.8526 C   0  0  0  0  0  0  0  0  0  0  0  0
   -1.2132   -0.6828   -1.1561 N   0  0  0  0  0  0  0  0  0  0  0  0
    1.0553   -0.5688   -1.1102 C   0  0  0  0  0  0  0  0  0  0  0  0
    0.5708    0.6093   -1.6266 C   0  0  0  0  0  0  0  0  0  0  0  0
   -0.7928    0.5448   -1.6353 O   0  0  0  0  0  0  0  0  0  0  0  0
   -0.1290   -2.7430   -0.3637 C   0  0  0  0  0  0  0  0  0  0  0  0
   -4.1234   -5.0171   -3.6673 C   0  0  0  0  0  0  0  0  0  0  0  0
    1.1737    1.8339   -2.1503 C   0  0  0  0  0  0  0  0  0  0  0  0
   -5.2107   -4.1322   -3.6370 C   0  0  0  0  0  0  0  0  0  0  0  0
    0.8881   -3.3768   -0.1061 O   0  0  0  0  0  0  0  0  0  0  0  0
   -3.4912   -5.3647   -2.4627 C   0  0  0  0  0  0  0  0  0  0  0  0
   -1.3990   -3.2795   -0.2651 N   0  0  0  0  0  0  0  0  0  0  0  0
    2.5699    1.9527   -2.2469 C   0  0  0  0  0  0  0  0  0  0  0  0
    0.3876    2.9135   -2.5835 C   0  0  0  0  0  0  0  0  0  0  0  0
   -5.6061   -3.5770   -2.4132 C   0  0  0  0  0  0  0  0  0  0  0  0
   -3.8640   -4.7804   -1.2424 C   0  0  0  0  0  0  0  0  0  0  0  0
    2.3634    4.1762   -3.1748 C   0  0  0  0  0  0  0  0  0  0  0  0
    0.9773    4.0762   -3.0915 C   0  0  0  0  0  0  0  0  0  0  0  0
    3.1599    3.1150   -2.7550 C   0  0  0  0  0  0  0  0  0  0  0  0
   -4.9421   -3.8942   -1.2261 C   0  0  0  0  0  0  0  0  0  0  0  0
   -3.7041   -5.5208   -4.8707 O   0  0  0  0  0  0  0  0  0  0  0  0
   -5.9341   -3.6567   -4.7007 O   0  0  0  0  0  0  0  0  0  0  0  0
   -1.6073   -4.6981   -0.0680 C   0  0  0  0  0  0  0  0  0  0  0  0
   -3.0910   -5.0845    0.0222 C   0  0  0  0  0  0  0  0  0  0  0  0
   -2.3114   -5.8049   -4.9749 C   0  0  0  0  0  0  0  0  0  0  0  0
   -6.0470   -4.4987   -5.8397 C   0  0  0  0  0  0  0  0  0  0  0  0
    2.0862   -0.8524   -0.9637 H   0  0  0  0  0  0  0  0  0  0  0  0
   -2.6840   -6.0917   -2.4624 H   0  0  0  0  0  0  0  0  0  0  0  0
   -2.1423   -2.7134   -0.6698 H   0  0  0  0  0  0  0  0  0  0  0  0
    3.2203    1.1408   -1.9325 H   0  0  0  0  0  0  0  0  0  0  0  0
   -0.6986    2.8638   -2.5343 H   0  0  0  0  0  0  0  0  0  0  0  0
   -6.4405   -2.8792   -2.3893 H   0  0  0  0  0  0  0  0  0  0  0  0
    2.8219    5.0800   -3.5685 H   0  0  0  0  0  0  0  0  0  0  0  0
    0.3514    4.9005   -3.4223 H   0  0  0  0  0  0  0  0  0  0  0  0
    4.2425    3.1885   -2.8225 H   0  0  0  0  0  0  0  0  0  0  0  0
   -5.2730   -3.4336   -0.2979 H   0  0  0  0  0  0  0  0  0  0  0  0
   -1.1094   -5.2221   -0.8921 H   0  0  0  0  0  0  0  0  0  0  0  0
   -1.0904   -4.9901    0.8536 H   0  0  0  0  0  0  0  0  0  0  0  0
   -3.1777   -6.1581    0.2295 H   0  0  0  0  0  0  0  0  0  0  0  0
   -3.5468   -4.5623    0.8730 H   0  0  0  0  0  0  0  0  0  0  0  0
   -1.6941   -5.0378   -4.4927 H   0  0  0  0  0  0  0  0  0  0  0  0
   -2.0953   -6.7956   -4.5625 H   0  0  0  0  0  0  0  0  0  0  0  0
   -2.0499   -5.8192   -6.0369 H   0  0  0  0  0  0  0  0  0  0  0  0
   -5.1300   -4.4903   -6.4352 H   0  0  0  0  0  0  0  0  0  0  0  0
   -6.3447   -5.5153   -5.5624 H   0  0  0  0  0  0  0  0  0  0  0  0
   -6.8362   -4.0846   -6.4757 H   0  0  0  0  0  0  0  0  0  0  0  0
  2  1  2  0  0  0  0
  3  1  1  0  0  0  0
  3 27  1  0  0  0  0
  4  3  2  0  0  0  0
  5  2  1  0  0  0  0
  5  4  1  0  0  0  0
  6  1  1  0  0  0  0
  7 11  2  0  0  0  0
  8  4  1  0  0  0  0
  9 15  2  0  0  0  0
  9  7  1  0  0  0  0
 10  6  2  0  0  0  0
 11 16  1  0  0  0  0
 11 28  1  0  0  0  0
 12  6  1  0  0  0  0
 12 29  1  0  0  0  0
 13  8  2  0  0  0  0
 13 30  1  0  0  0  0
 14  8  1  0  0  0  0
 14 31  1  0  0  0  0
 15 20  1  0  0  0  0
 15 32  1  0  0  0  0
 16 24  1  0  0  0  0
 17 18  1  0  0  0  0
 17 19  2  0  0  0  0
 17 33  1  0  0  0  0
 18 14  2  0  0  0  0
 18 34  1  0  0  0  0
 19 13  1  0  0  0  0
 19 35  1  0  0  0  0
 20 16  2  0  0  0  0
 20 36  1  0  0  0  0
 21  7  1  0  0  0  0
 22  9  1  0  0  0  0
 23 12  1  0  0  0  0
 23 37  1  0  0  0  0
 23 38  1  0  0  0  0
 24 23  1  0  0  0  0
 24 39  1  0  0  0  0
 24 40  1  0  0  0  0
 25 21  1  0  0  0  0
 25 41  1  0  0  0  0
 25 42  1  0  0  0  0
 25 43  1  0  0  0  0
 26 22  1  0  0  0  0
 26 44  1  0  0  0  0
 26 45  1  0  0  0  0
 26 46  1  0  0  0  0
M  END
>  <Mol_ID>
9007

>  <Formula>
C20H19ClN2O4

>  <MolWeight>
386.82886

>  <Cat>
P2573

>  <Name>
WAY-328182

>  <Synonyms>
N/A

>  <Target>
Others

>  <Form>
free base

>  <CAS>
912787-60-1

>  <URL>
N/A

$$$$
