WAY-297587
 OpenBabel08302521403D

 32 34  0  0  0  0  0  0  0  0999 V2000
   -5.3668    0.3792    3.6823 C   0  0  0  0  0  0  0  0  0  0  0  0
   -4.9051    1.6767    3.5447 C   0  0  0  0  0  0  0  0  0  0  0  0
   -5.1426   -0.3186    2.5253 N   0  0  0  0  0  0  0  0  0  0  0  0
   -5.9520   -0.0105    4.8930 C   0  0  0  0  0  0  0  0  0  0  0  0
   -4.3781    1.7992    2.2933 O   0  0  0  0  0  0  0  0  0  0  0  0
   -4.9806    2.6520    4.5309 C   0  0  0  0  0  0  0  0  0  0  0  0
   -4.5456    0.5566    1.7387 C   0  0  0  0  0  0  0  0  0  0  0  0
   -6.0426    0.9427    5.9183 C   0  0  0  0  0  0  0  0  0  0  0  0
   -5.5663    2.2482    5.7377 C   0  0  0  0  0  0  0  0  0  0  0  0
   -4.0170    0.1861    0.1232 S   0  0  0  0  0  0  0  0  0  0  0  0
   -4.4975   -1.5632    0.0465 C   0  0  0  0  0  0  0  0  0  0  0  0
   -4.0510   -2.1815   -1.2626 C   0  0  0  0  0  0  0  0  0  0  0  0
   -4.6108   -1.5848   -2.3833 N   0  0  0  0  0  0  0  0  0  0  0  0
   -3.2791   -3.1407   -1.2631 O   0  0  0  0  0  0  0  0  0  0  0  0
   -4.3813   -1.9569   -3.7238 C   0  0  0  0  0  0  0  0  0  0  0  0
   -3.8430   -3.1908   -4.0940 C   0  0  0  0  0  0  0  0  0  0  0  0
   -4.7038   -1.0305   -4.7241 C   0  0  0  0  0  0  0  0  0  0  0  0
   -3.5828   -3.4803   -5.4335 C   0  0  0  0  0  0  0  0  0  0  0  0
   -4.4320   -1.3163   -6.0654 C   0  0  0  0  0  0  0  0  0  0  0  0
   -3.8640   -2.5381   -6.4195 C   0  0  0  0  0  0  0  0  0  0  0  0
   -6.3187   -1.0219    5.0289 H   0  0  0  0  0  0  0  0  0  0  0  0
   -4.6057    3.6556    4.3744 H   0  0  0  0  0  0  0  0  0  0  0  0
   -6.4890    0.6601    6.8699 H   0  0  0  0  0  0  0  0  0  0  0  0
   -5.6511    2.9638    6.5538 H   0  0  0  0  0  0  0  0  0  0  0  0
   -4.0182   -2.1171    0.8622 H   0  0  0  0  0  0  0  0  0  0  0  0
   -5.5821   -1.6740    0.1356 H   0  0  0  0  0  0  0  0  0  0  0  0
   -5.0751   -0.6963   -2.2326 H   0  0  0  0  0  0  0  0  0  0  0  0
   -3.6205   -3.9567   -3.3572 H   0  0  0  0  0  0  0  0  0  0  0  0
   -5.1337   -0.0644   -4.4743 H   0  0  0  0  0  0  0  0  0  0  0  0
   -3.1509   -4.4411   -5.7013 H   0  0  0  0  0  0  0  0  0  0  0  0
   -4.6516   -0.5797   -6.8345 H   0  0  0  0  0  0  0  0  0  0  0  0
   -3.6395   -2.7581   -7.4593 H   0  0  0  0  0  0  0  0  0  0  0  0
  1  2  2  0  0  0  0
  1  3  1  0  0  0  0
  1  4  1  0  0  0  0
  2  5  1  0  0  0  0
  2  6  1  0  0  0  0
  3  7  2  0  0  0  0
  4  8  2  0  0  0  0
  4 21  1  0  0  0  0
  5  7  1  0  0  0  0
  6  9  2  0  0  0  0
  6 22  1  0  0  0  0
  7 10  1  0  0  0  0
  8  9  1  0  0  0  0
  8 23  1  0  0  0  0
  9 24  1  0  0  0  0
 10 11  1  0  0  0  0
 11 12  1  0  0  0  0
 11 25  1  0  0  0  0
 11 26  1  0  0  0  0
 12 13  1  0  0  0  0
 12 14  2  0  0  0  0
 13 15  1  0  0  0  0
 13 27  1  0  0  0  0
 15 16  2  0  0  0  0
 15 17  1  0  0  0  0
 16 18  1  0  0  0  0
 16 28  1  0  0  0  0
 17 19  2  0  0  0  0
 17 29  1  0  0  0  0
 18 20  2  0  0  0  0
 18 30  1  0  0  0  0
 19 20  1  0  0  0  0
 19 31  1  0  0  0  0
 20 32  1  0  0  0  0
M  END
>  <Mol_ID>
8340

>  <Formula>
C15H12N2O2S

>  <MolWeight>
284.33298

>  <Cat>
P2096

>  <Name>
WAY-297587

>  <Synonyms>
N/A

>  <Target>
Anti-infection

>  <Form>
free base

>  <CAS>
86109-43-5

>  <URL>
N/A

$$$$
