WAY-323478
 OpenBabel08302521423D

 49 53  0  0  0  0  0  0  0  0999 V2000
   -1.2067    0.6540   -0.0559 C   0  0  0  0  0  0  0  0  0  0  0  0
   -1.2601   -0.6987   -0.0736 C   0  0  0  0  0  0  0  0  0  0  0  0
   -3.7120   -0.7691   -0.0560 C   0  0  0  0  0  0  0  0  0  0  0  0
   -2.4245    1.3825   -0.0386 N   0  0  0  0  0  0  0  0  0  0  0  0
   -0.0006    1.3172   -0.0341 N   0  0  0  0  0  0  0  0  0  0  0  0
   -5.1788   -1.6876   -0.0758 S   0  0  0  0  0  0  0  0  0  0  0  0
   -3.6706    0.7298    0.0237 C   0  0  0  0  0  0  0  0  0  0  0  0
    0.0137   -1.4736   -0.0487 C   0  0  0  0  0  0  0  0  0  0  0  0
    1.1823   -0.7310   -0.0367 N   0  0  0  0  0  0  0  0  0  0  0  0
   -2.5304   -1.4072   -0.0971 C   0  0  0  0  0  0  0  0  0  0  0  0
    1.1057    0.6471   -0.0341 C   0  0  0  0  0  0  0  0  0  0  0  0
   -2.3815    2.8571    0.0732 C   0  0  0  0  0  0  0  0  0  0  0  0
   -4.7546    1.4371    0.1651 N   0  0  0  0  0  0  0  0  0  0  0  0
   -4.9730   -2.9341    0.6465 O   0  0  0  0  0  0  0  0  0  0  0  0
   -6.3065   -0.8402    0.2533 O   0  0  0  0  0  0  0  0  0  0  0  0
    2.4126   -1.3797   -0.0155 C   0  0  0  0  0  0  0  0  0  0  0  0
   -5.3807   -2.1164   -1.8002 C   0  0  0  0  0  0  0  0  0  0  0  0
   -0.0204   -2.7065   -0.0400 O   0  0  0  0  0  0  0  0  0  0  0  0
    2.3923    1.4004   -0.0263 C   0  0  0  0  0  0  0  0  0  0  0  0
   -3.4670    4.5868   -3.1279 N   0  0  0  0  0  0  0  0  0  0  0  0
    3.5679   -0.7025   -0.0056 C   0  0  0  0  0  0  0  0  0  0  0  0
    3.5546    0.7367   -0.0148 C   0  0  0  0  0  0  0  0  0  0  0  0
   -2.3053    3.5408   -1.2713 C   0  0  0  0  0  0  0  0  0  0  0  0
   -3.4573    3.9738   -1.9193 C   0  0  0  0  0  0  0  0  0  0  0  0
   -2.2725    4.7736   -3.7264 C   0  0  0  0  0  0  0  0  0  0  0  0
   -5.4602   -3.4599   -2.1809 C   0  0  0  0  0  0  0  0  0  0  0  0
   -5.4471   -1.0985   -2.7576 C   0  0  0  0  0  0  0  0  0  0  0  0
   -1.0869    3.7749   -1.9192 C   0  0  0  0  0  0  0  0  0  0  0  0
   -1.0664    4.3935   -3.1659 C   0  0  0  0  0  0  0  0  0  0  0  0
   -5.5225   -1.4357   -4.1095 C   0  0  0  0  0  0  0  0  0  0  0  0
   -5.5399   -3.7863   -3.5352 C   0  0  0  0  0  0  0  0  0  0  0  0
   -5.5517   -2.7764   -4.4983 C   0  0  0  0  0  0  0  0  0  0  0  0
   -2.4834   -2.4949   -0.1373 H   0  0  0  0  0  0  0  0  0  0  0  0
   -3.2433    3.2450    0.6310 H   0  0  0  0  0  0  0  0  0  0  0  0
   -1.5262    3.1736    0.6852 H   0  0  0  0  0  0  0  0  0  0  0  0
   -5.6053    0.8544    0.2612 H   0  0  0  0  0  0  0  0  0  0  0  0
    2.3989   -2.4675   -0.0069 H   0  0  0  0  0  0  0  0  0  0  0  0
    2.3390    2.4818   -0.0306 H   0  0  0  0  0  0  0  0  0  0  0  0
    4.5229   -1.2178    0.0121 H   0  0  0  0  0  0  0  0  0  0  0  0
    4.5023    1.2648   -0.0090 H   0  0  0  0  0  0  0  0  0  0  0  0
   -4.4386    3.8456   -1.4667 H   0  0  0  0  0  0  0  0  0  0  0  0
   -2.3096    5.2518   -4.7009 H   0  0  0  0  0  0  0  0  0  0  0  0
   -5.4596   -4.2562   -1.4394 H   0  0  0  0  0  0  0  0  0  0  0  0
   -5.4430   -0.0492   -2.4700 H   0  0  0  0  0  0  0  0  0  0  0  0
   -0.1498    3.4780   -1.4574 H   0  0  0  0  0  0  0  0  0  0  0  0
   -0.1326    4.5721   -3.6866 H   0  0  0  0  0  0  0  0  0  0  0  0
   -5.5583   -0.6526   -4.8644 H   0  0  0  0  0  0  0  0  0  0  0  0
   -5.5880   -4.8290   -3.8427 H   0  0  0  0  0  0  0  0  0  0  0  0
   -5.5928   -3.0344   -5.5542 H   0  0  0  0  0  0  0  0  0  0  0  0
  2  1  2  0  0  0  0
  3  7  1  0  0  0  0
  3 10  2  0  0  0  0
  4  1  1  0  0  0  0
  5  1  1  0  0  0  0
  6  3  1  0  0  0  0
  7  4  1  0  0  0  0
  8  2  1  0  0  0  0
  9 11  1  0  0  0  0
  9  8  1  0  0  0  0
 10  2  1  0  0  0  0
 10 33  1  0  0  0  0
 11  5  2  0  0  0  0
 12  4  1  0  0  0  0
 12 34  1  0  0  0  0
 12 35  1  0  0  0  0
 13  7  2  0  0  0  0
 13 36  1  0  0  0  0
 14  6  2  0  0  0  0
 15  6  2  0  0  0  0
 16  9  1  0  0  0  0
 16 21  2  0  0  0  0
 16 37  1  0  0  0  0
 17  6  1  0  0  0  0
 18  8  2  0  0  0  0
 19 11  1  0  0  0  0
 19 38  1  0  0  0  0
 20 24  2  0  0  0  0
 21 22  1  0  0  0  0
 21 39  1  0  0  0  0
 22 19  2  0  0  0  0
 22 40  1  0  0  0  0
 23 12  1  0  0  0  0
 24 23  1  0  0  0  0
 24 41  1  0  0  0  0
 25 29  2  0  0  0  0
 25 20  1  0  0  0  0
 25 42  1  0  0  0  0
 26 17  2  0  0  0  0
 26 43  1  0  0  0  0
 27 17  1  0  0  0  0
 27 44  1  0  0  0  0
 28 23  2  0  0  0  0
 28 45  1  0  0  0  0
 29 28  1  0  0  0  0
 29 46  1  0  0  0  0
 30 27  2  0  0  0  0
 30 47  1  0  0  0  0
 31 26  1  0  0  0  0
 31 48  1  0  0  0  0
 32 30  1  0  0  0  0
 32 31  2  0  0  0  0
 32 49  1  0  0  0  0
M  END
>  <Mol_ID>
8553

>  <Formula>
C23H17N5O3S

>  <MolWeight>
443.47778

>  <Cat>
P2267

>  <Name>
WAY-323478

>  <Synonyms>
N/A

>  <Target>
others

>  <Form>
free base

>  <CAS>
853597-49-6

>  <URL>
N/A

$$$$
