WAY-323400
 OpenBabel08302521423D

 39 42  0  0  0  0  0  0  0  0999 V2000
    2.4712   -0.6206   -0.7461 C   0  0  0  0  0  0  0  0  0  0  0  0
    2.2075    0.5562   -0.1601 N   0  0  0  0  0  0  0  0  0  0  0  0
    3.6309   -2.7630   -0.2927 C   0  0  0  0  0  0  0  0  0  0  0  0
    1.2236    1.2728   -0.7219 C   0  0  0  0  0  0  0  0  0  0  0  0
    3.4681   -1.3923   -0.1689 N   0  0  0  0  0  0  0  0  0  0  0  0
    3.0867   -3.4158   -1.3242 N   0  0  0  0  0  0  0  0  0  0  0  0
    1.8031   -1.0655   -1.8217 N   0  0  0  0  0  0  0  0  0  0  0  0
    4.2904   -3.3841    0.6959 N   0  0  0  0  0  0  0  0  0  0  0  0
    0.4799    0.9111   -1.8367 C   0  0  0  0  0  0  0  0  0  0  0  0
    3.7646   -5.4880   -0.3520 C   0  0  0  0  0  0  0  0  0  0  0  0
    3.1321   -4.7555   -1.3499 C   0  0  0  0  0  0  0  0  0  0  0  0
    4.3454   -4.7259    0.6650 C   0  0  0  0  0  0  0  0  0  0  0  0
    0.8292   -0.3277   -2.3538 C   0  0  0  0  0  0  0  0  0  0  0  0
    3.8225   -6.9004   -0.3150 C   0  0  0  0  0  0  0  0  0  0  0  0
    4.9774   -5.4029    1.7034 C   0  0  0  0  0  0  0  0  0  0  0  0
    0.9848    2.4481   -0.0754 O   0  0  0  0  0  0  0  0  0  0  0  0
    4.4412   -7.5631    0.7446 C   0  0  0  0  0  0  0  0  0  0  0  0
    5.0274   -6.8032    1.7555 C   0  0  0  0  0  0  0  0  0  0  0  0
   -0.5427    1.6764   -2.4436 C   0  0  0  0  0  0  0  0  0  0  0  0
    2.4031   -5.3936   -2.4940 C   0  0  0  0  0  0  0  0  0  0  0  0
    0.1418   -0.8067   -3.4615 C   0  0  0  0  0  0  0  0  0  0  0  0
    4.4745   -9.0613    0.7641 C   0  0  0  0  0  0  0  0  0  0  0  0
   -1.2050    1.1899   -3.5694 C   0  0  0  0  0  0  0  0  0  0  0  0
   -0.8663   -0.0597   -4.0764 C   0  0  0  0  0  0  0  0  0  0  0  0
    3.7904   -1.0398    0.7132 H   0  0  0  0  0  0  0  0  0  0  0  0
    3.3725   -7.4884   -1.1108 H   0  0  0  0  0  0  0  0  0  0  0  0
    5.4319   -4.8270    2.5061 H   0  0  0  0  0  0  0  0  0  0  0  0
    1.6402    2.3903    0.6421 H   0  0  0  0  0  0  0  0  0  0  0  0
    5.5204   -7.2841    2.5967 H   0  0  0  0  0  0  0  0  0  0  0  0
   -0.8058    2.6506   -2.0375 H   0  0  0  0  0  0  0  0  0  0  0  0
    3.0896   -5.9765   -3.1137 H   0  0  0  0  0  0  0  0  0  0  0  0
    1.6022   -6.0398   -2.1198 H   0  0  0  0  0  0  0  0  0  0  0  0
    1.9382   -4.6318   -3.1303 H   0  0  0  0  0  0  0  0  0  0  0  0
    0.4049   -1.7859   -3.8568 H   0  0  0  0  0  0  0  0  0  0  0  0
    3.4654   -9.4620    0.6213 H   0  0  0  0  0  0  0  0  0  0  0  0
    5.1223   -9.4313   -0.0366 H   0  0  0  0  0  0  0  0  0  0  0  0
    4.8514   -9.4432    1.7186 H   0  0  0  0  0  0  0  0  0  0  0  0
   -1.9796    1.7824   -4.0487 H   0  0  0  0  0  0  0  0  0  0  0  0
   -1.3765   -0.4571   -4.9502 H   0  0  0  0  0  0  0  0  0  0  0  0
  1  7  1  0  0  0  0
  2  1  2  0  0  0  0
  3  5  1  0  0  0  0
  4  2  1  0  0  0  0
  4  9  2  0  0  0  0
  5  1  1  0  0  0  0
  5 25  1  0  0  0  0
  6  3  2  0  0  0  0
  6 11  1  0  0  0  0
  8  3  1  0  0  0  0
  9 13  1  0  0  0  0
 10 12  1  0  0  0  0
 10 11  2  0  0  0  0
 12  8  2  0  0  0  0
 13  7  2  0  0  0  0
 13 21  1  0  0  0  0
 14 10  1  0  0  0  0
 14 17  2  0  0  0  0
 14 26  1  0  0  0  0
 15 12  1  0  0  0  0
 15 27  1  0  0  0  0
 16  4  1  0  0  0  0
 16 28  1  0  0  0  0
 17 18  1  0  0  0  0
 18 15  2  0  0  0  0
 18 29  1  0  0  0  0
 19  9  1  0  0  0  0
 19 23  2  0  0  0  0
 19 30  1  0  0  0  0
 20 11  1  0  0  0  0
 20 31  1  0  0  0  0
 20 32  1  0  0  0  0
 20 33  1  0  0  0  0
 21 34  1  0  0  0  0
 22 17  1  0  0  0  0
 22 35  1  0  0  0  0
 22 36  1  0  0  0  0
 22 37  1  0  0  0  0
 23 38  1  0  0  0  0
 24 23  1  0  0  0  0
 24 21  2  0  0  0  0
 24 39  1  0  0  0  0
M  END
>  <Mol_ID>
8577

>  <Formula>
C18H15N5O

>  <MolWeight>
317.3446

>  <Cat>
P2262

>  <Name>
WAY-323400

>  <Synonyms>
N/A

>  <Target>
DNA polymerase III,Transthyretin Amyloidosis

>  <Form>
free base

>  <CAS>
854032-15-8

>  <URL>
N/A

$$$$
