WAY-311727
 OpenBabel08302521403D

 32 34  0  0  0  0  0  0  0  0999 V2000
   -0.2344   -0.7937    0.1315 C   0  0  0  0  0  0  0  0  0  0  0  0
   -1.5950   -1.2268   -0.0232 C   0  0  0  0  0  0  0  0  0  0  0  0
   -0.2249    0.6017    0.0633 C   0  0  0  0  0  0  0  0  0  0  0  0
    0.9978   -1.4550    0.3215 C   0  0  0  0  0  0  0  0  0  0  0  0
   -2.3547   -0.0774   -0.1727 C   0  0  0  0  0  0  0  0  0  0  0  0
   -2.1077   -2.5989   -0.0346 C   0  0  0  0  0  0  0  0  0  0  0  0
   -1.5238    1.0084   -0.1142 N   0  0  0  0  0  0  0  0  0  0  0  0
    0.9460    1.3630    0.1692 C   0  0  0  0  0  0  0  0  0  0  0  0
    2.1798   -0.7106    0.4240 C   0  0  0  0  0  0  0  0  0  0  0  0
   -3.6086   -2.8510   -0.1495 C   0  0  0  0  0  0  0  0  0  0  0  0
   -1.3853   -3.5933    0.0145 O   0  0  0  0  0  0  0  0  0  0  0  0
    2.1506    0.6816    0.3511 C   0  0  0  0  0  0  0  0  0  0  0  0
   -3.9722   -3.6900   -1.1963 N   0  0  0  0  0  0  0  0  0  0  0  0
   -4.3411   -2.3231    0.6817 O   0  0  0  0  0  0  0  0  0  0  0  0
   -5.3022   -4.0727   -1.4952 C   0  0  0  0  0  0  0  0  0  0  0  0
   -6.4079   -3.3761   -1.0026 C   0  0  0  0  0  0  0  0  0  0  0  0
   -5.5238   -5.1966   -2.3011 C   0  0  0  0  0  0  0  0  0  0  0  0
   -7.7080   -3.8191   -1.2531 C   0  0  0  0  0  0  0  0  0  0  0  0
   -6.8239   -5.6491   -2.5436 C   0  0  0  0  0  0  0  0  0  0  0  0
   -7.9192   -4.9622   -2.0134 C   0  0  0  0  0  0  0  0  0  0  0  0
    1.0344   -2.5400    0.3866 H   0  0  0  0  0  0  0  0  0  0  0  0
   -3.4207    0.0657   -0.3039 H   0  0  0  0  0  0  0  0  0  0  0  0
   -1.8153    1.9738   -0.1924 H   0  0  0  0  0  0  0  0  0  0  0  0
    0.9248    2.4469    0.1127 H   0  0  0  0  0  0  0  0  0  0  0  0
    3.1260   -1.2235    0.5681 H   0  0  0  0  0  0  0  0  0  0  0  0
    3.0777    1.2440    0.4344 H   0  0  0  0  0  0  0  0  0  0  0  0
   -3.2192   -4.1710   -1.6748 H   0  0  0  0  0  0  0  0  0  0  0  0
   -6.2962   -2.4700   -0.4164 H   0  0  0  0  0  0  0  0  0  0  0  0
   -4.6935   -5.7610   -2.7167 H   0  0  0  0  0  0  0  0  0  0  0  0
   -8.5479   -3.2695   -0.8387 H   0  0  0  0  0  0  0  0  0  0  0  0
   -6.9954   -6.5441   -3.1389 H   0  0  0  0  0  0  0  0  0  0  0  0
   -8.9314   -5.3172   -2.1907 H   0  0  0  0  0  0  0  0  0  0  0  0
  1  2  1  0  0  0  0
  1  3  1  0  0  0  0
  1  4  2  0  0  0  0
  2  5  2  0  0  0  0
  2  6  1  0  0  0  0
  3  7  1  0  0  0  0
  3  8  2  0  0  0  0
  4  9  1  0  0  0  0
  4 21  1  0  0  0  0
  5  7  1  0  0  0  0
  5 22  1  0  0  0  0
  6 10  1  0  0  0  0
  6 11  2  0  0  0  0
  7 23  1  0  0  0  0
  8 12  1  0  0  0  0
  8 24  1  0  0  0  0
  9 12  2  0  0  0  0
  9 25  1  0  0  0  0
 10 13  1  0  0  0  0
 10 14  2  0  0  0  0
 12 26  1  0  0  0  0
 13 15  1  0  0  0  0
 13 27  1  0  0  0  0
 15 16  2  0  0  0  0
 15 17  1  0  0  0  0
 16 18  1  0  0  0  0
 16 28  1  0  0  0  0
 17 19  2  0  0  0  0
 17 29  1  0  0  0  0
 18 20  2  0  0  0  0
 18 30  1  0  0  0  0
 19 20  1  0  0  0  0
 19 31  1  0  0  0  0
 20 32  1  0  0  0  0
M  END
>  <Mol_ID>
8265

>  <Formula>
C16H12N2O2

>  <MolWeight>
264.27868

>  <Cat>
P2216

>  <Name>
WAY-311727

>  <Synonyms>
N/A

>  <Target>
others

>  <Form>
free base

>  <CAS>
73031-16-0

>  <URL>
N/A

$$$$
