WAY-659590
 OpenBabel08302521433D

 27 28  0  0  0  0  0  0  0  0999 V2000
    0.0178   -1.3199   -0.8559 C   0  0  0  0  0  0  0  0  0  0  0  0
    0.2291   -2.5958   -0.3946 N   0  0  0  0  0  0  0  0  0  0  0  0
    1.3787   -3.1605    0.1560 C   0  0  0  0  0  0  0  0  0  0  0  0
   -1.1302   -1.0090   -1.3628 N   0  0  0  0  0  0  0  0  0  0  0  0
    1.2297   -0.0911   -0.7595 S   0  0  0  0  0  0  0  0  0  0  0  0
   -0.8153   -6.1718    3.2838 C   0  0  0  0  0  0  0  0  0  0  0  0
   -0.1279   -5.7122    4.3993 C   0  0  0  0  0  0  0  0  0  0  0  0
   -0.3923   -5.8278    1.9909 C   0  0  0  0  0  0  0  0  0  0  0  0
    2.4262   -2.5667    0.3695 O   0  0  0  0  0  0  0  0  0  0  0  0
    0.7491   -5.0200    1.8126 C   0  0  0  0  0  0  0  0  0  0  0  0
    1.2697   -4.6535    0.4407 C   0  0  0  0  0  0  0  0  0  0  0  0
    1.0074   -4.9167    4.2313 C   0  0  0  0  0  0  0  0  0  0  0  0
    1.4422   -4.5899    2.9461 C   0  0  0  0  0  0  0  0  0  0  0  0
   -1.0784    0.3970   -1.8323 C   0  0  0  0  0  0  0  0  0  0  0  0
   -0.0006    1.1710   -1.0899 C   0  0  0  0  0  0  0  0  0  0  0  0
   -0.6073   -3.1598   -0.4263 H   0  0  0  0  0  0  0  0  0  0  0  0
   -1.7028   -6.7905    3.4150 H   0  0  0  0  0  0  0  0  0  0  0  0
   -0.4633   -5.9692    5.3986 H   0  0  0  0  0  0  0  0  0  0  0  0
   -0.9762   -6.1878    1.1527 H   0  0  0  0  0  0  0  0  0  0  0  0
    0.6784   -5.1253   -0.3481 H   0  0  0  0  0  0  0  0  0  0  0  0
    2.2901   -5.0540    0.3464 H   0  0  0  0  0  0  0  0  0  0  0  0
    1.5420   -4.5403    5.0964 H   0  0  0  0  0  0  0  0  0  0  0  0
    2.3333   -3.9675    2.8384 H   0  0  0  0  0  0  0  0  0  0  0  0
   -2.0521    0.8733   -1.6738 H   0  0  0  0  0  0  0  0  0  0  0  0
   -0.8884    0.4058   -2.9130 H   0  0  0  0  0  0  0  0  0  0  0  0
    0.4113    1.9894   -1.6856 H   0  0  0  0  0  0  0  0  0  0  0  0
   -0.3805    1.5711   -0.1448 H   0  0  0  0  0  0  0  0  0  0  0  0
  2  1  1  0  0  0  0
  2 16  1  0  0  0  0
  3  2  1  0  0  0  0
  4  1  2  0  0  0  0
  5  1  1  0  0  0  0
  6  8  2  0  0  0  0
  6 17  1  0  0  0  0
  7 12  2  0  0  0  0
  7  6  1  0  0  0  0
  7 18  1  0  0  0  0
  8 10  1  0  0  0  0
  8 19  1  0  0  0  0
  9  3  2  0  0  0  0
 10 11  1  0  0  0  0
 11  3  1  0  0  0  0
 11 20  1  0  0  0  0
 11 21  1  0  0  0  0
 12 13  1  0  0  0  0
 12 22  1  0  0  0  0
 13 10  2  0  0  0  0
 13 23  1  0  0  0  0
 14  4  1  0  0  0  0
 14 24  1  0  0  0  0
 14 25  1  0  0  0  0
 15  5  1  0  0  0  0
 15 14  1  0  0  0  0
 15 26  1  0  0  0  0
 15 27  1  0  0  0  0
M  END
>  <Mol_ID>
8840

>  <Formula>
C11H10Cl2N2OS

>  <MolWeight>
289.1809

>  <Cat>
P3187

>  <Name>
WAY-659590

>  <Synonyms>
N/A

>  <Target>
Androgen Receptor

>  <Form>
free base

>  <CAS>
867283-39-4

>  <URL>
N/A

$$$$
