WAY-607145
 OpenBabel08302521433D

 49 53  0  0  0  0  0  0  0  0999 V2000
   -0.5003    1.2561    0.5267 C   0  0  0  0  0  0  0  0  0  0  0  0
    0.7880    0.7262    0.8543 C   0  0  0  0  0  0  0  0  0  0  0  0
   -0.7807    2.6500    0.0751 C   0  0  3  0  0  0  0  0  0  0  0  0
   -1.8579    2.8528   -0.8813 N   0  0  0  0  0  0  0  0  0  0  0  0
    0.7361   -0.5927    1.0608 N   0  0  0  0  0  0  0  0  0  0  0  0
   -0.5689   -0.9306    0.9821 N   0  0  0  0  0  0  0  0  0  0  0  0
   -1.3515    0.1766    0.7228 C   0  0  0  0  0  0  0  0  0  0  0  0
   -1.2469    3.7084    1.4744 S   0  0  0  0  0  0  0  0  0  0  0  0
   -2.3540    4.1638   -0.8764 C   0  0  0  0  0  0  0  0  0  0  0  0
    2.1072    1.4636    0.9565 C   0  0  0  0  0  0  0  0  0  0  0  0
    3.6297    0.6846    0.7927 S   0  0  0  0  0  0  0  0  0  0  0  0
   -1.9547    2.0967   -2.1321 C   0  0  0  0  0  0  0  0  0  0  0  0
   -1.9427    4.9368    0.3607 C   0  0  0  0  0  0  0  0  0  0  0  0
   -0.9644   -2.2966    1.1139 C   0  0  0  0  0  0  0  0  0  0  0  0
    2.2786    2.8103    1.2236 C   0  0  0  0  0  0  0  0  0  0  0  0
   -3.0066    4.6617   -1.7872 O   0  0  0  0  0  0  0  0  0  0  0  0
    4.4807    2.1534    0.9568 C   0  0  0  0  0  0  0  0  0  0  0  0
    3.6442    3.2171    1.2087 C   0  0  0  0  0  0  0  0  0  0  0  0
    0.3583    2.0135   -2.8848 O   0  0  0  0  0  0  0  0  0  0  0  0
   -0.9463    2.5148   -3.2154 C   0  0  3  0  0  0  0  0  0  0  0  0
    1.0698    1.8024   -4.1084 C   0  0  0  0  0  0  0  0  0  0  0  0
    0.0276   -3.2925    1.2163 C   0  0  0  0  0  0  0  0  0  0  0  0
   -2.3116   -2.6857    1.1131 C   0  0  0  0  0  0  0  0  0  0  0  0
   -1.2854    1.9109   -4.5724 C   0  0  0  0  0  0  0  0  0  0  0  0
    0.0520    1.6366   -5.2179 C   0  0  0  0  0  0  0  0  0  0  0  0
   -2.6532   -4.0428    1.1994 C   0  0  0  0  0  0  0  0  0  0  0  0
   -0.3184   -4.6430    1.2914 C   0  0  0  0  0  0  0  0  0  0  0  0
   -1.6593   -5.0202    1.2818 C   0  0  0  0  0  0  0  0  0  0  0  0
    0.1115    3.0774   -0.3965 H   0  0  0  0  0  0  0  0  0  0  0  0
   -2.4261    0.1065    0.6345 H   0  0  0  0  0  0  0  0  0  0  0  0
   -1.8593    1.0316   -1.9024 H   0  0  0  0  0  0  0  0  0  0  0  0
   -2.9678    2.2590   -2.5200 H   0  0  0  0  0  0  0  0  0  0  0  0
   -2.8001    5.4356    0.8140 H   0  0  0  0  0  0  0  0  0  0  0  0
   -1.1736    5.6663    0.0883 H   0  0  0  0  0  0  0  0  0  0  0  0
    1.4872    3.5009    1.4550 H   0  0  0  0  0  0  0  0  0  0  0  0
    5.5627    2.1703    0.8857 H   0  0  0  0  0  0  0  0  0  0  0  0
    3.9874    4.2282    1.3834 H   0  0  0  0  0  0  0  0  0  0  0  0
   -0.8723    3.6048   -3.2990 H   0  0  0  0  0  0  0  0  0  0  0  0
    1.7118    0.9232   -4.0016 H   0  0  0  0  0  0  0  0  0  0  0  0
    1.7097    2.6730   -4.2933 H   0  0  0  0  0  0  0  0  0  0  0  0
    1.0840   -3.0269    1.2188 H   0  0  0  0  0  0  0  0  0  0  0  0
   -3.1183   -1.9610    1.0535 H   0  0  0  0  0  0  0  0  0  0  0  0
   -1.8350    0.9697   -4.4613 H   0  0  0  0  0  0  0  0  0  0  0  0
   -1.9093    2.5801   -5.1729 H   0  0  0  0  0  0  0  0  0  0  0  0
    0.0838    0.6233   -5.6344 H   0  0  0  0  0  0  0  0  0  0  0  0
    0.2595    2.3220   -6.0467 H   0  0  0  0  0  0  0  0  0  0  0  0
   -3.6971   -4.3422    1.1986 H   0  0  0  0  0  0  0  0  0  0  0  0
    0.4594   -5.4004    1.3511 H   0  0  0  0  0  0  0  0  0  0  0  0
   -1.9300   -6.0728    1.3398 H   0  0  0  0  0  0  0  0  0  0  0  0
  2  1  1  0  0  0  0
  3  1  1  0  0  0  0
  3 29  1  0  0  0  0
  4  3  1  0  0  0  0
  5  2  2  0  0  0  0
  5  6  1  0  0  0  0
  6  7  1  0  0  0  0
  7  1  2  0  0  0  0
  7 30  1  0  0  0  0
  8  3  1  0  0  0  0
  9  4  1  0  0  0  0
 10  2  1  0  0  0  0
 11 10  1  0  0  0  0
 12  4  1  0  0  0  0
 12 31  1  0  0  0  0
 12 32  1  0  0  0  0
 13  8  1  0  0  0  0
 13  9  1  0  0  0  0
 13 33  1  0  0  0  0
 13 34  1  0  0  0  0
 14  6  1  0  0  0  0
 15 10  2  0  0  0  0
 15 35  1  0  0  0  0
 16  9  2  0  0  0  0
 17 11  1  0  0  0  0
 17 18  2  0  0  0  0
 17 36  1  0  0  0  0
 18 15  1  0  0  0  0
 18 37  1  0  0  0  0
 19 20  1  0  0  0  0
 20 12  1  0  0  0  0
 20 38  1  0  0  0  0
 21 19  1  0  0  0  0
 21 25  1  0  0  0  0
 21 39  1  0  0  0  0
 21 40  1  0  0  0  0
 22 14  2  0  0  0  0
 22 41  1  0  0  0  0
 23 14  1  0  0  0  0
 23 42  1  0  0  0  0
 24 20  1  0  0  0  0
 24 43  1  0  0  0  0
 24 44  1  0  0  0  0
 25 24  1  0  0  0  0
 25 45  1  0  0  0  0
 25 46  1  0  0  0  0
 26 23  2  0  0  0  0
 26 47  1  0  0  0  0
 27 22  1  0  0  0  0
 27 48  1  0  0  0  0
 28 26  1  0  0  0  0
 28 27  2  0  0  0  0
 28 49  1  0  0  0  0
M  END
>  <Mol_ID>
8736

>  <Formula>
C21H21N3O2S2

>  <MolWeight>
411.54034

>  <Cat>
P2882

>  <Name>
WAY-607145

>  <Synonyms>
N/A

>  <Target>
Anti-infection

>  <Form>
free base

>  <CAS>
380471-87-4

>  <URL>
N/A

$$$$
