WAY-641910
 OpenBabel08302521453D

 49 52  0  0  0  0  0  0  0  0999 V2000
   -2.9865   -0.5875   -1.1611 C   0  0  0  0  0  0  0  0  0  0  0  0
   -2.0054   -0.1232   -0.4298 N   0  0  0  0  0  0  0  0  0  0  0  0
   -2.6076   -0.8621   -2.4400 N   0  0  0  0  0  0  0  0  0  0  0  0
   -0.9138   -0.1411   -1.2771 C   0  0  0  0  0  0  0  0  0  0  0  0
   -4.3392   -3.5593   -1.1992 C   0  0  0  0  0  0  0  0  0  0  0  0
   -4.2280   -4.8759   -0.7619 N   0  0  0  0  0  0  0  0  0  0  0  0
   -4.6196   -0.8077   -0.6842 S   0  0  0  0  0  0  0  0  0  0  0  0
   -1.2666   -0.6007   -2.5391 C   0  0  0  0  0  0  0  0  0  0  0  0
   -4.7197   -5.9855   -1.5918 C   0  0  3  0  0  0  0  0  0  0  0  0
   -4.4040   -7.2962   -0.8868 C   0  0  0  0  0  0  0  0  0  0  0  0
   -4.6015   -2.5317   -0.0721 C   0  0  3  0  0  0  0  0  0  0  0  0
    0.4205    0.2186   -1.0203 C   0  0  0  0  0  0  0  0  0  0  0  0
   -4.3579   -3.2708   -2.3869 O   0  0  0  0  0  0  0  0  0  0  0  0
   -5.4090   -7.8685   -0.1030 C   0  0  0  0  0  0  0  0  0  0  0  0
   -0.3469   -0.7490   -3.5765 C   0  0  0  0  0  0  0  0  0  0  0  0
    1.3785    0.0463   -2.0319 C   0  0  0  0  0  0  0  0  0  0  0  0
    0.9845   -0.4242   -3.2900 C   0  0  0  0  0  0  0  0  0  0  0  0
   -6.2572   -5.7859   -1.7100 C   0  0  0  0  0  0  0  0  0  0  0  0
   -6.9787   -7.1022   -1.9293 C   0  0  0  0  0  0  0  0  0  0  0  0
   -3.1305   -7.8557   -0.8178 C   0  0  0  0  0  0  0  0  0  0  0  0
   -6.7926   -7.9892   -0.6907 C   0  0  0  0  0  0  0  0  0  0  0  0
   -6.0005   -2.7615    0.5107 C   0  0  0  0  0  0  0  0  0  0  0  0
   -5.0611   -8.4780    1.0962 C   0  0  0  0  0  0  0  0  0  0  0  0
    2.8219    0.3302   -1.7305 C   0  0  0  0  0  0  0  0  0  0  0  0
   -2.8120   -8.6757    0.2661 C   0  0  0  0  0  0  0  0  0  0  0  0
   -3.7360   -8.8446    1.2989 C   0  0  0  0  0  0  0  0  0  0  0  0
   -3.2129   -1.2548   -3.1478 H   0  0  0  0  0  0  0  0  0  0  0  0
   -4.2189   -5.0481    0.2498 H   0  0  0  0  0  0  0  0  0  0  0  0
   -4.2517   -5.9515   -2.5791 H   0  0  0  0  0  0  0  0  0  0  0  0
   -3.8400   -2.6419    0.7081 H   0  0  0  0  0  0  0  0  0  0  0  0
    0.6930    0.5862   -0.0362 H   0  0  0  0  0  0  0  0  0  0  0  0
   -0.6492   -1.1175   -4.5552 H   0  0  0  0  0  0  0  0  0  0  0  0
    1.7254   -0.5643   -4.0805 H   0  0  0  0  0  0  0  0  0  0  0  0
   -6.6485   -5.3544   -0.7782 H   0  0  0  0  0  0  0  0  0  0  0  0
   -6.4888   -5.0613   -2.4972 H   0  0  0  0  0  0  0  0  0  0  0  0
   -8.0453   -6.9358   -2.1056 H   0  0  0  0  0  0  0  0  0  0  0  0
   -6.5764   -7.5882   -2.8274 H   0  0  0  0  0  0  0  0  0  0  0  0
   -2.3833   -7.6482   -1.5801 H   0  0  0  0  0  0  0  0  0  0  0  0
   -7.5559   -7.7802    0.0613 H   0  0  0  0  0  0  0  0  0  0  0  0
   -6.9169   -9.0310   -1.0179 H   0  0  0  0  0  0  0  0  0  0  0  0
   -6.2137   -2.0711    1.3337 H   0  0  0  0  0  0  0  0  0  0  0  0
   -6.7742   -2.6323   -0.2568 H   0  0  0  0  0  0  0  0  0  0  0  0
   -6.1116   -3.7768    0.9025 H   0  0  0  0  0  0  0  0  0  0  0  0
   -5.8166   -8.7024    1.8435 H   0  0  0  0  0  0  0  0  0  0  0  0
    2.9606    1.3711   -1.4195 H   0  0  0  0  0  0  0  0  0  0  0  0
    3.1732   -0.3378   -0.9337 H   0  0  0  0  0  0  0  0  0  0  0  0
    3.4481    0.1510   -2.6110 H   0  0  0  0  0  0  0  0  0  0  0  0
   -1.8298   -9.1336    0.3393 H   0  0  0  0  0  0  0  0  0  0  0  0
   -3.4421   -9.3276    2.2260 H   0  0  0  0  0  0  0  0  0  0  0  0
  2  1  2  0  0  0  0
  3  1  1  0  0  0  0
  3 27  1  0  0  0  0
  4  2  1  0  0  0  0
  5 11  1  0  0  0  0
  6  5  1  0  0  0  0
  6 28  1  0  0  0  0
  7  1  1  0  0  0  0
  8  3  1  0  0  0  0
  8  4  2  0  0  0  0
  9  6  1  0  0  0  0
  9 29  1  0  0  0  0
 10  9  1  0  0  0  0
 11  7  1  0  0  0  0
 11 30  1  0  0  0  0
 12  4  1  0  0  0  0
 12 31  1  0  0  0  0
 13  5  2  0  0  0  0
 14 10  2  0  0  0  0
 15  8  1  0  0  0  0
 15 32  1  0  0  0  0
 16 12  2  0  0  0  0
 17 15  2  0  0  0  0
 17 16  1  0  0  0  0
 17 33  1  0  0  0  0
 18  9  1  0  0  0  0
 18 34  1  0  0  0  0
 18 35  1  0  0  0  0
 19 18  1  0  0  0  0
 19 36  1  0  0  0  0
 19 37  1  0  0  0  0
 20 10  1  0  0  0  0
 20 38  1  0  0  0  0
 21 19  1  0  0  0  0
 21 14  1  0  0  0  0
 21 39  1  0  0  0  0
 21 40  1  0  0  0  0
 22 11  1  0  0  0  0
 22 41  1  0  0  0  0
 22 42  1  0  0  0  0
 22 43  1  0  0  0  0
 23 14  1  0  0  0  0
 23 44  1  0  0  0  0
 24 16  1  0  0  0  0
 24 45  1  0  0  0  0
 24 46  1  0  0  0  0
 24 47  1  0  0  0  0
 25 20  2  0  0  0  0
 25 48  1  0  0  0  0
 26 25  1  0  0  0  0
 26 23  2  0  0  0  0
 26 49  1  0  0  0  0
M  END
>  <Mol_ID>
9339

>  <Formula>
C21H23N3OS

>  <MolWeight>
365.49182

>  <Cat>
P3122

>  <Name>
WAY-641910

>  <Synonyms>
N/A

>  <Target>
Mcl-1

>  <Form>
free base

>  <CAS>
851687-22-4

>  <URL>
N/A

$$$$
