WAY-638833
 OpenBabel08302521433D

 36 39  0  0  0  0  0  0  0  0999 V2000
   -4.4057    1.0260   -0.5125 C   0  0  0  0  0  0  0  0  0  0  0  0
   -5.7185    0.9915   -0.9100 O   0  0  0  0  0  0  0  0  0  0  0  0
   -3.6672   -0.1803   -0.1867 C   0  0  0  0  0  0  0  0  0  0  0  0
   -3.9669    2.3364   -0.4561 C   0  0  0  0  0  0  0  0  0  0  0  0
   -4.3833   -1.3632   -0.2911 N   0  0  0  0  0  0  0  0  0  0  0  0
   -6.1128    2.2927   -1.0738 C   0  0  0  0  0  0  0  0  0  0  0  0
   -5.0659    3.1593   -0.7804 C   0  0  0  0  0  0  0  0  0  0  0  0
   -2.3628   -4.1870    1.0703 C   0  0  0  0  0  0  0  0  0  0  0  0
   -3.9323   -2.6554    0.0749 C   0  0  0  0  0  0  0  0  0  0  0  0
   -2.4906   -0.1056    0.1539 O   0  0  0  0  0  0  0  0  0  0  0  0
   -2.7087   -2.8912    0.7148 C   0  0  0  0  0  0  0  0  0  0  0  0
   -3.2181   -5.2584    0.8171 C   0  0  0  0  0  0  0  0  0  0  0  0
   -4.4285   -5.0559    0.1787 C   0  0  0  0  0  0  0  0  0  0  0  0
   -4.7803   -3.7491   -0.1951 C   0  0  0  0  0  0  0  0  0  0  0  0
   -1.1323   -4.6357    1.7955 C   0  0  0  0  0  0  0  0  0  0  0  0
   -1.1742   -6.1488    1.5403 C   0  0  0  0  0  0  0  0  0  0  0  0
   -7.3780    2.7256   -1.4685 C   0  0  0  0  0  0  0  0  0  0  0  0
   -5.2827    4.5459   -0.8514 C   0  0  0  0  0  0  0  0  0  0  0  0
   -2.6561   -6.5238    1.3865 C   0  0  0  0  0  0  0  0  0  0  0  0
   -7.5746    4.1135   -1.5363 C   0  0  0  0  0  0  0  0  0  0  0  0
   -6.5486    5.0093   -1.2253 C   0  0  0  0  0  0  0  0  0  0  0  0
   -2.9681    2.6440   -0.1786 H   0  0  0  0  0  0  0  0  0  0  0  0
   -5.3239   -1.2782   -0.6546 H   0  0  0  0  0  0  0  0  0  0  0  0
   -2.0197   -2.0954    0.9709 H   0  0  0  0  0  0  0  0  0  0  0  0
   -5.0966   -5.8873   -0.0240 H   0  0  0  0  0  0  0  0  0  0  0  0
   -5.7319   -3.5967   -0.6977 H   0  0  0  0  0  0  0  0  0  0  0  0
   -1.2188   -4.4096    2.8630 H   0  0  0  0  0  0  0  0  0  0  0  0
   -0.2208   -4.1881    1.3890 H   0  0  0  0  0  0  0  0  0  0  0  0
   -0.6477   -6.3702    0.6014 H   0  0  0  0  0  0  0  0  0  0  0  0
   -0.6755   -6.7186    2.3308 H   0  0  0  0  0  0  0  0  0  0  0  0
   -8.1708    2.0276   -1.7008 H   0  0  0  0  0  0  0  0  0  0  0  0
   -4.4878    5.2460   -0.6096 H   0  0  0  0  0  0  0  0  0  0  0  0
   -2.7866   -7.3847    0.7260 H   0  0  0  0  0  0  0  0  0  0  0  0
   -3.1094   -6.7267    2.3629 H   0  0  0  0  0  0  0  0  0  0  0  0
   -8.5469    4.5019   -1.8342 H   0  0  0  0  0  0  0  0  0  0  0  0
   -6.7323    6.0809   -1.2731 H   0  0  0  0  0  0  0  0  0  0  0  0
  2  1  1  0  0  0  0
  3  1  1  0  0  0  0
  4  1  2  0  0  0  0
  4 22  1  0  0  0  0
  5  3  1  0  0  0  0
  5 23  1  0  0  0  0
  6  2  1  0  0  0  0
  6  7  2  0  0  0  0
  7  4  1  0  0  0  0
  8 11  2  0  0  0  0
  9  5  1  0  0  0  0
 10  3  2  0  0  0  0
 11  9  1  0  0  0  0
 11 24  1  0  0  0  0
 12 13  2  0  0  0  0
 12  8  1  0  0  0  0
 13 14  1  0  0  0  0
 13 25  1  0  0  0  0
 14  9  2  0  0  0  0
 14 26  1  0  0  0  0
 15  8  1  0  0  0  0
 15 27  1  0  0  0  0
 15 28  1  0  0  0  0
 16 15  1  0  0  0  0
 16 19  1  0  0  0  0
 16 29  1  0  0  0  0
 16 30  1  0  0  0  0
 17  6  1  0  0  0  0
 17 31  1  0  0  0  0
 18  7  1  0  0  0  0
 18 32  1  0  0  0  0
 19 12  1  0  0  0  0
 19 33  1  0  0  0  0
 19 34  1  0  0  0  0
 20 17  2  0  0  0  0
 20 21  1  0  0  0  0
 20 35  1  0  0  0  0
 21 18  2  0  0  0  0
 21 36  1  0  0  0  0
M  END
>  <Mol_ID>
8791

>  <Formula>
C18H15NO2

>  <MolWeight>
277.3172

>  <Cat>
P3055

>  <Name>
WAY-638833

>  <Synonyms>
N/A

>  <Target>
Others

>  <Form>
free base

>  <CAS>
794576-60-6

>  <URL>
N/A

$$$$
