WAY-656416
 OpenBabel08302521423D

 55 58  0  0  0  0  0  0  0  0999 V2000
   -0.0216   -0.2407   -1.0918 N   0  3  0  0  0  0  0  0  0  0  0  0
   -3.4124    4.2821    2.3245 C   0  0  0  0  0  0  0  0  0  0  0  0
   -4.0228    5.4875    2.6344 N   0  0  0  0  0  0  0  0  0  0  0  0
   -4.8801    8.0900    3.7574 N   0  0  0  0  0  0  0  0  0  0  0  0
   -2.8826    4.1741    1.0600 N   0  0  0  0  0  0  0  0  0  0  0  0
   -0.7891    0.8850   -0.5486 C   0  0  0  0  0  0  0  0  0  0  0  0
   -6.3625    8.1891    3.5896 C   0  0  0  0  0  0  0  0  0  0  0  0
    0.6481   -0.0347   -2.1181 O   0  5  0  0  0  0  0  0  0  0  0  0
   -0.0845   -1.3254   -0.5018 O   0  0  0  0  0  0  0  0  0  0  0  0
   -3.3522    3.3863    3.1653 O   0  0  0  0  0  0  0  0  0  0  0  0
   -4.2821    6.6322    1.7483 C   0  0  0  0  0  0  0  0  0  0  0  0
   -4.6968    5.5605    3.9340 C   0  0  0  0  0  0  0  0  0  0  0  0
   -4.4971    6.9269    4.6030 C   0  0  0  0  0  0  0  0  0  0  0  0
   -4.1244    7.9762    2.4920 C   0  0  0  0  0  0  0  0  0  0  0  0
   -7.0808    8.4105    4.9321 C   0  0  0  0  0  0  0  0  0  0  0  0
   -6.8064    9.2669    2.5862 C   0  0  0  0  0  0  0  0  0  0  0  0
   -0.7485    2.1364   -1.1770 C   0  0  0  0  0  0  0  0  0  0  0  0
   -1.5588    0.6975    0.6000 C   0  0  0  0  0  0  0  0  0  0  0  0
   -2.2235    3.0397    0.5346 C   0  0  0  0  0  0  0  0  0  0  0  0
   -2.2763    1.7731    1.1301 C   0  0  0  0  0  0  0  0  0  0  0  0
   -1.4725    3.2067   -0.6373 C   0  0  0  0  0  0  0  0  0  0  0  0
   -7.4947    8.9053    1.4148 C   0  0  0  0  0  0  0  0  0  0  0  0
   -6.5685   10.6311    2.8211 C   0  0  0  0  0  0  0  0  0  0  0  0
   -6.4690    9.1224    5.9817 C   0  0  0  0  0  0  0  0  0  0  0  0
   -8.3898    7.9389    5.1206 C   0  0  0  0  0  0  0  0  0  0  0  0
   -6.9927   11.6014    1.9102 C   0  0  0  0  0  0  0  0  0  0  0  0
   -7.1341    9.3454    7.1847 C   0  0  0  0  0  0  0  0  0  0  0  0
   -9.0621    8.1790    6.3205 C   0  0  0  0  0  0  0  0  0  0  0  0
   -7.9104    9.8776    0.4973 C   0  0  0  0  0  0  0  0  0  0  0  0
   -8.4354    8.8844    7.3488 C   0  0  0  0  0  0  0  0  0  0  0  0
   -7.6556   11.2240    0.7439 C   0  0  0  0  0  0  0  0  0  0  0  0
   -2.7931    5.0160    0.5224 H   0  0  0  0  0  0  0  0  0  0  0  0
   -6.7239    7.2291    3.1984 H   0  0  0  0  0  0  0  0  0  0  0  0
   -3.6092    6.6385    0.8900 H   0  0  0  0  0  0  0  0  0  0  0  0
   -5.3012    6.5200    1.3631 H   0  0  0  0  0  0  0  0  0  0  0  0
   -5.7581    5.3498    3.7612 H   0  0  0  0  0  0  0  0  0  0  0  0
   -4.3352    4.7878    4.6207 H   0  0  0  0  0  0  0  0  0  0  0  0
   -3.4337    7.0371    4.8570 H   0  0  0  0  0  0  0  0  0  0  0  0
   -5.0138    6.9256    5.5674 H   0  0  0  0  0  0  0  0  0  0  0  0
   -3.0593    8.0924    2.7441 H   0  0  0  0  0  0  0  0  0  0  0  0
   -4.3368    8.8110    1.8169 H   0  0  0  0  0  0  0  0  0  0  0  0
   -0.1545    2.2977   -2.0740 H   0  0  0  0  0  0  0  0  0  0  0  0
   -1.6126   -0.2653    1.1034 H   0  0  0  0  0  0  0  0  0  0  0  0
   -2.8736    1.5808    2.0163 H   0  0  0  0  0  0  0  0  0  0  0  0
   -1.4177    4.1742   -1.1300 H   0  0  0  0  0  0  0  0  0  0  0  0
   -7.7255    7.8633    1.2068 H   0  0  0  0  0  0  0  0  0  0  0  0
   -6.0594   10.9481    3.7291 H   0  0  0  0  0  0  0  0  0  0  0  0
   -5.4514    9.4941    5.8674 H   0  0  0  0  0  0  0  0  0  0  0  0
   -8.8984    7.3927    4.3294 H   0  0  0  0  0  0  0  0  0  0  0  0
   -6.8123   12.6531    2.1165 H   0  0  0  0  0  0  0  0  0  0  0  0
   -6.6350    9.8839    7.9852 H   0  0  0  0  0  0  0  0  0  0  0  0
  -10.0806    7.8236    6.4534 H   0  0  0  0  0  0  0  0  0  0  0  0
   -8.4421    9.5849   -0.4045 H   0  0  0  0  0  0  0  0  0  0  0  0
   -8.9640    9.0781    8.2778 H   0  0  0  0  0  0  0  0  0  0  0  0
   -7.9808   11.9800    0.0353 H   0  0  0  0  0  0  0  0  0  0  0  0
  2  5  1  0  0  0  0
  3  2  1  0  0  0  0
  4 13  1  0  0  0  0
  4 14  1  0  0  0  0
  5 19  1  0  0  0  0
  5 32  1  0  0  0  0
  6  1  1  0  0  0  0
  7  4  1  0  0  0  0
  7 33  1  0  0  0  0
  8  1  1  0  0  0  0
  9  1  2  0  0  0  0
 10  2  2  0  0  0  0
 11  3  1  0  0  0  0
 11 34  1  0  0  0  0
 11 35  1  0  0  0  0
 12  3  1  0  0  0  0
 12 36  1  0  0  0  0
 12 37  1  0  0  0  0
 13 12  1  0  0  0  0
 13 38  1  0  0  0  0
 13 39  1  0  0  0  0
 14 11  1  0  0  0  0
 14 40  1  0  0  0  0
 14 41  1  0  0  0  0
 15  7  1  0  0  0  0
 16  7  1  0  0  0  0
 17  6  2  0  0  0  0
 17 42  1  0  0  0  0
 18  6  1  0  0  0  0
 18 43  1  0  0  0  0
 19 20  1  0  0  0  0
 19 21  2  0  0  0  0
 20 18  2  0  0  0  0
 20 44  1  0  0  0  0
 21 17  1  0  0  0  0
 21 45  1  0  0  0  0
 22 16  2  0  0  0  0
 22 46  1  0  0  0  0
 23 16  1  0  0  0  0
 23 47  1  0  0  0  0
 24 15  2  0  0  0  0
 24 48  1  0  0  0  0
 25 15  1  0  0  0  0
 25 49  1  0  0  0  0
 26 23  2  0  0  0  0
 26 50  1  0  0  0  0
 27 24  1  0  0  0  0
 27 51  1  0  0  0  0
 28 25  2  0  0  0  0
 28 52  1  0  0  0  0
 29 22  1  0  0  0  0
 29 53  1  0  0  0  0
 30 28  1  0  0  0  0
 30 27  2  0  0  0  0
 30 54  1  0  0  0  0
 31 26  1  0  0  0  0
 31 29  2  0  0  0  0
 31 55  1  0  0  0  0
M  CHG  2   1   1   8  -1
M  END
>  <Mol_ID>
8527

>  <Formula>
C24H24N4O3

>  <MolWeight>
416.47236

>  <Cat>
P3138

>  <Name>
WAY-656416

>  <Synonyms>
N/A

>  <Target>
MAGL/FAAH

>  <Form>
free base

>  <CAS>
852828-17-2

>  <URL>
N/A

$$$$
