WAY-639228-A
 OpenBabel08302521433D

 51 54  0  0  0  0  0  0  0  0999 V2000
    4.3894   -1.0183   -3.6698 C   0  0  0  0  0  0  0  0  0  0  0  0
    3.1248   -1.5178   -4.0641 C   0  0  0  0  0  0  0  0  0  0  0  0
    4.7078   -0.9765   -2.2951 C   0  0  0  0  0  0  0  0  0  0  0  0
    5.2797   -0.5419   -4.6368 C   0  0  0  0  0  0  0  0  0  0  0  0
    2.2167   -1.9622   -3.0875 C   0  0  0  0  0  0  0  0  0  0  0  0
    2.7910   -1.5242   -5.4241 C   0  0  0  0  0  0  0  0  0  0  0  0
    3.7864   -1.4222   -1.3307 C   0  0  0  0  0  0  0  0  0  0  0  0
    4.9332   -0.5631   -5.9885 C   0  0  0  0  0  0  0  0  0  0  0  0
    2.5432   -1.9128   -1.7312 C   0  0  0  0  0  0  0  0  0  0  0  0
    3.6929   -1.0554   -6.3835 C   0  0  0  0  0  0  0  0  0  0  0  0
    4.1126   -1.1123    0.3839 S   0  0  0  0  0  0  0  0  0  0  0  0
    4.2697   -2.6414    1.1569 N   0  0  0  0  0  0  0  0  0  0  0  0
    5.3798   -0.4325    0.4926 O   0  0  0  0  0  0  0  0  0  0  0  0
    2.9006   -0.5169    0.9364 O   0  0  0  0  0  0  0  0  0  0  0  0
    5.6650   -3.1902    1.2444 C   0  0  0  0  0  0  0  0  0  0  0  0
    6.2716   -3.4519   -0.1226 C   0  0  0  0  0  0  0  0  0  0  0  0
    5.7742   -4.4766    2.0806 C   0  0  0  0  0  0  0  0  0  0  0  0
    5.6445   -4.6842   -0.7610 C   0  0  0  0  0  0  0  0  0  0  0  0
    5.3864   -5.7807    1.3535 C   0  0  0  0  0  0  0  0  0  0  0  0
    6.0002   -5.8775    0.0153 N   0  0  0  0  0  0  0  0  0  0  0  0
    5.5742   -7.1154   -0.6796 C   0  0  0  0  0  0  0  0  0  0  0  0
    6.2376   -7.3287   -2.0359 C   0  0  0  0  0  0  0  0  0  0  0  0
    7.6335   -7.4207   -2.1590 C   0  0  0  0  0  0  0  0  0  0  0  0
    5.4607   -7.4141   -3.2041 C   0  0  0  0  0  0  0  0  0  0  0  0
    8.2375   -7.4959   -3.4180 C   0  0  0  0  0  0  0  0  0  0  0  0
    6.0646   -7.5707   -4.4560 C   0  0  0  0  0  0  0  0  0  0  0  0
    7.4533   -7.5789   -4.5667 C   0  0  0  0  0  0  0  0  0  0  0  0
    5.6578   -0.5466   -1.9832 H   0  0  0  0  0  0  0  0  0  0  0  0
    6.2491   -0.1380   -4.3503 H   0  0  0  0  0  0  0  0  0  0  0  0
    1.2298   -2.3135   -3.3854 H   0  0  0  0  0  0  0  0  0  0  0  0
    1.8203   -1.8881   -5.7513 H   0  0  0  0  0  0  0  0  0  0  0  0
    5.6315   -0.1896   -6.7352 H   0  0  0  0  0  0  0  0  0  0  0  0
    1.8004   -2.1995   -0.9914 H   0  0  0  0  0  0  0  0  0  0  0  0
    3.4206   -1.0706   -7.4360 H   0  0  0  0  0  0  0  0  0  0  0  0
    3.7973   -2.5547    2.0606 H   0  0  0  0  0  0  0  0  0  0  0  0
    6.2474   -2.4290    1.7808 H   0  0  0  0  0  0  0  0  0  0  0  0
    6.1680   -2.6077   -0.7974 H   0  0  0  0  0  0  0  0  0  0  0  0
    7.3562   -3.5957   -0.0112 H   0  0  0  0  0  0  0  0  0  0  0  0
    6.8345   -4.5836    2.3608 H   0  0  0  0  0  0  0  0  0  0  0  0
    5.2193   -4.4019    3.0268 H   0  0  0  0  0  0  0  0  0  0  0  0
    4.5537   -4.5666   -0.8126 H   0  0  0  0  0  0  0  0  0  0  0  0
    6.0167   -4.7487   -1.7876 H   0  0  0  0  0  0  0  0  0  0  0  0
    5.7317   -6.6264    1.9650 H   0  0  0  0  0  0  0  0  0  0  0  0
    4.2924   -5.8541    1.2995 H   0  0  0  0  0  0  0  0  0  0  0  0
    5.8168   -7.9914   -0.0644 H   0  0  0  0  0  0  0  0  0  0  0  0
    4.4835   -7.1123   -0.8032 H   0  0  0  0  0  0  0  0  0  0  0  0
    8.2626   -7.4080   -1.2720 H   0  0  0  0  0  0  0  0  0  0  0  0
    4.3762   -7.3457   -3.1494 H   0  0  0  0  0  0  0  0  0  0  0  0
    9.3211   -7.4789   -3.5003 H   0  0  0  0  0  0  0  0  0  0  0  0
    5.4507   -7.6716   -5.3468 H   0  0  0  0  0  0  0  0  0  0  0  0
    7.9233   -7.6538   -5.5434 H   0  0  0  0  0  0  0  0  0  0  0  0
  1  2  1  0  0  0  0
  1  3  2  0  0  0  0
  1  4  1  0  0  0  0
  2  5  2  0  0  0  0
  2  6  1  0  0  0  0
  3  7  1  0  0  0  0
  3 28  1  0  0  0  0
  4  8  2  0  0  0  0
  4 29  1  0  0  0  0
  5  9  1  0  0  0  0
  5 30  1  0  0  0  0
  6 10  2  0  0  0  0
  6 31  1  0  0  0  0
  7 11  1  0  0  0  0
  7  9  2  0  0  0  0
  8 10  1  0  0  0  0
  8 32  1  0  0  0  0
  9 33  1  0  0  0  0
 10 34  1  0  0  0  0
 11 12  1  0  0  0  0
 11 13  2  0  0  0  0
 11 14  2  0  0  0  0
 12 15  1  0  0  0  0
 12 35  1  0  0  0  0
 15 16  1  0  0  0  0
 15 17  1  0  0  0  0
 15 36  1  0  0  0  0
 16 18  1  0  0  0  0
 16 37  1  0  0  0  0
 16 38  1  0  0  0  0
 17 19  1  0  0  0  0
 17 39  1  0  0  0  0
 17 40  1  0  0  0  0
 18 20  1  0  0  0  0
 18 41  1  0  0  0  0
 18 42  1  0  0  0  0
 19 20  1  0  0  0  0
 19 43  1  0  0  0  0
 19 44  1  0  0  0  0
 20 21  1  0  0  0  0
 21 22  1  0  0  0  0
 21 45  1  0  0  0  0
 21 46  1  0  0  0  0
 22 23  2  0  0  0  0
 22 24  1  0  0  0  0
 23 25  1  0  0  0  0
 23 47  1  0  0  0  0
 24 26  2  0  0  0  0
 24 48  1  0  0  0  0
 25 27  2  0  0  0  0
 25 49  1  0  0  0  0
 26 27  1  0  0  0  0
 26 50  1  0  0  0  0
 27 51  1  0  0  0  0
M  END
>  <Mol_ID>
8806

>  <Formula>
C22H24N2O2S

>  <MolWeight>
380.50316

>  <Cat>
P3070

>  <Name>
WAY-639228-A

>  <Synonyms>
N/A

>  <Target>
Others

>  <Form>
free base

>  <CAS>
179051-05-9

>  <URL>
N/A

$$$$
