WAY-351285
 OpenBabel08302521393D

 44 46  0  0  0  0  0  0  0  0999 V2000
    0.0224   -0.6293   -0.3874 C   0  0  0  0  0  0  0  0  0  0  0  0
    0.0926    0.7278   -0.2536 C   0  0  0  0  0  0  0  0  0  0  0  0
   -1.0763   -1.3621   -0.0340 N   0  0  0  0  0  0  0  0  0  0  0  0
   -2.1745    0.7101    0.3962 N   0  0  0  0  0  0  0  0  0  0  0  0
   -2.2209   -0.7014    0.3945 C   0  0  0  0  0  0  0  0  0  0  0  0
   -1.0264    1.4959    0.1787 C   0  0  0  0  0  0  0  0  0  0  0  0
    1.1307   -1.1538   -0.9491 N   0  0  0  0  0  0  0  0  0  0  0  0
    1.3725    1.0442   -0.6464 N   0  0  0  0  0  0  0  0  0  0  0  0
    1.8876   -0.1099   -1.1692 C   0  0  0  0  0  0  0  0  0  0  0  0
    5.3288   -2.3014   -5.7907 C   0  0  0  0  0  0  0  0  0  0  0  0
    2.0499    2.3309   -0.5938 C   0  0  0  0  0  0  0  0  0  0  0  0
    5.3160   -1.7032   -4.4027 C   0  0  0  0  0  0  0  0  0  0  0  0
    3.5491    2.2630   -0.2982 C   0  0  0  0  0  0  0  0  0  0  0  0
   -3.2283   -1.3208    0.7464 O   0  0  0  0  0  0  0  0  0  0  0  0
   -0.9918    2.7178    0.3113 O   0  0  0  0  0  0  0  0  0  0  0  0
    4.4906    2.0458   -1.2627 N   0  0  0  0  0  0  0  0  0  0  0  0
    4.9238   -0.3678   -4.1693 C   0  0  0  0  0  0  0  0  0  0  0  0
    3.9695    2.4636    0.8433 O   0  0  0  0  0  0  0  0  0  0  0  0
   -1.0095   -2.8127   -0.0888 C   0  0  0  0  0  0  0  0  0  0  0  0
   -3.4096    1.4161    0.6728 C   0  0  0  0  0  0  0  0  0  0  0  0
    4.9518   -1.4256   -6.7632 F   0  0  0  0  0  0  0  0  0  0  0  0
    6.5657   -2.7462   -6.1498 F   0  0  0  0  0  0  0  0  0  0  0  0
    4.4985   -3.3740   -5.9097 F   0  0  0  0  0  0  0  0  0  0  0  0
    4.9401    0.1847   -2.8730 C   0  0  0  0  0  0  0  0  0  0  0  0
    4.4160    1.6042   -2.6516 C   0  0  0  0  0  0  0  0  0  0  0  0
    5.7082   -2.5002   -3.3179 C   0  0  0  0  0  0  0  0  0  0  0  0
    5.7514   -1.9647   -2.0343 C   0  0  0  0  0  0  0  0  0  0  0  0
    5.3831   -0.6357   -1.8180 C   0  0  0  0  0  0  0  0  0  0  0  0
    2.8112   -0.1617   -1.7014 H   0  0  0  0  0  0  0  0  0  0  0  0
    1.8475    2.8806   -1.5158 H   0  0  0  0  0  0  0  0  0  0  0  0
    1.6034    2.8903    0.2395 H   0  0  0  0  0  0  0  0  0  0  0  0
    5.4288    2.0896   -0.8778 H   0  0  0  0  0  0  0  0  0  0  0  0
    4.5888    0.2393   -5.0102 H   0  0  0  0  0  0  0  0  0  0  0  0
   -0.6041   -3.1270   -1.0564 H   0  0  0  0  0  0  0  0  0  0  0  0
   -0.3442   -3.1585    0.7097 H   0  0  0  0  0  0  0  0  0  0  0  0
   -1.9925   -3.2689    0.0453 H   0  0  0  0  0  0  0  0  0  0  0  0
   -3.3138    1.9594    1.6160 H   0  0  0  0  0  0  0  0  0  0  0  0
   -3.5859    2.1377   -0.1325 H   0  0  0  0  0  0  0  0  0  0  0  0
   -4.2730    0.7471    0.7257 H   0  0  0  0  0  0  0  0  0  0  0  0
    3.3827    1.6835   -3.0024 H   0  0  0  0  0  0  0  0  0  0  0  0
    5.0385    2.2950   -3.2299 H   0  0  0  0  0  0  0  0  0  0  0  0
    5.9851   -3.5414   -3.4710 H   0  0  0  0  0  0  0  0  0  0  0  0
    6.0422   -2.5914   -1.1930 H   0  0  0  0  0  0  0  0  0  0  0  0
    5.4027   -0.2718   -0.7933 H   0  0  0  0  0  0  0  0  0  0  0  0
  2  1  2  0  0  0  0
  3  1  1  0  0  0  0
  4  5  1  0  0  0  0
  4  6  1  0  0  0  0
  5  3  1  0  0  0  0
  6  2  1  0  0  0  0
  7  1  1  0  0  0  0
  8  2  1  0  0  0  0
  9  7  2  0  0  0  0
  9  8  1  0  0  0  0
  9 29  1  0  0  0  0
 10 12  1  0  0  0  0
 11  8  1  0  0  0  0
 11 30  1  0  0  0  0
 11 31  1  0  0  0  0
 12 17  2  0  0  0  0
 12 26  1  0  0  0  0
 13 11  1  0  0  0  0
 14  5  2  0  0  0  0
 15  6  2  0  0  0  0
 16 13  1  0  0  0  0
 16 32  1  0  0  0  0
 17 24  1  0  0  0  0
 17 33  1  0  0  0  0
 18 13  2  0  0  0  0
 19  3  1  0  0  0  0
 19 34  1  0  0  0  0
 19 35  1  0  0  0  0
 19 36  1  0  0  0  0
 20  4  1  0  0  0  0
 20 37  1  0  0  0  0
 20 38  1  0  0  0  0
 20 39  1  0  0  0  0
 21 10  1  0  0  0  0
 22 10  1  0  0  0  0
 23 10  1  0  0  0  0
 24 25  1  0  0  0  0
 25 16  1  0  0  0  0
 25 40  1  0  0  0  0
 25 41  1  0  0  0  0
 26 27  2  0  0  0  0
 26 42  1  0  0  0  0
 27 28  1  0  0  0  0
 27 43  1  0  0  0  0
 28 24  2  0  0  0  0
 28 44  1  0  0  0  0
M  END
>  <Mol_ID>
8049

>  <Formula>
C17H16F3N5O3

>  <MolWeight>
395.3358496

>  <Cat>
P2757

>  <Name>
WAY-351285

>  <Synonyms>
N/A

>  <Target>
TRPA1

>  <Form>
free base

>  <CAS>
450336-72-8

>  <URL>
N/A

$$$$
