WAY-323259
 OpenBabel08302521423D

 48 51  0  0  0  0  0  0  0  0999 V2000
   -0.6143    7.2885   -3.5072 C   0  0  0  0  0  0  0  0  0  0  0  0
   -1.0119    6.8302   -2.2747 O   0  0  0  0  0  0  0  0  0  0  0  0
   -0.0393    6.3359   -4.2216 N   0  0  0  0  0  0  0  0  0  0  0  0
   -0.0473    5.1928   -3.4511 N   0  0  0  0  0  0  0  0  0  0  0  0
   -0.6294    5.5141   -2.3143 C   0  0  0  0  0  0  0  0  0  0  0  0
   -3.1647    6.1758    2.3200 C   0  0  0  0  0  0  0  0  0  0  0  0
   -0.7971    8.6312   -3.9701 C   0  0  0  0  0  0  0  0  0  0  0  0
   -2.6808    4.8844    2.1799 N   0  0  0  0  0  0  0  0  0  0  0  0
   -3.8871    6.5234    3.5753 C   0  0  0  0  0  0  0  0  0  0  0  0
   -0.9323    4.6824   -1.1554 C   0  0  0  0  0  0  0  0  0  0  0  0
   -5.1827    7.4720    5.8609 C   0  0  0  0  0  0  0  0  0  0  0  0
   -4.3062    6.3747    5.9626 C   0  0  0  0  0  0  0  0  0  0  0  0
   -3.6591    5.9000    4.8098 C   0  0  0  0  0  0  0  0  0  0  0  0
   -5.7636    7.9795    7.0481 O   0  0  0  0  0  0  0  0  0  0  0  0
   -1.3571    9.6287   -3.2091 O   0  0  0  0  0  0  0  0  0  0  0  0
   -7.0462    8.5288    7.0305 C   0  0  0  0  0  0  0  0  0  0  0  0
   -1.9607    4.3987    1.0540 C   0  0  0  0  0  0  0  0  0  0  0  0
   -0.4608    9.1615   -5.2075 C   0  0  0  0  0  0  0  0  0  0  0  0
   -1.6152    5.1982   -0.0434 C   0  0  0  0  0  0  0  0  0  0  0  0
   -3.0607    7.0727    1.4919 O   0  0  0  0  0  0  0  0  0  0  0  0
   -1.3657   10.7627   -3.9548 C   0  0  0  0  0  0  0  0  0  0  0  0
   -4.7561    7.6244    3.5028 C   0  0  0  0  0  0  0  0  0  0  0  0
   -5.3915    8.1067    4.6396 C   0  0  0  0  0  0  0  0  0  0  0  0
   -0.8249   10.5276   -5.1950 C   0  0  0  0  0  0  0  0  0  0  0  0
   -7.8220    8.5593    6.0840 O   0  0  0  0  0  0  0  0  0  0  0  0
   -4.0879    5.8849    7.2250 O   0  0  0  0  0  0  0  0  0  0  0  0
   -0.5622    3.3337   -1.1423 C   0  0  0  0  0  0  0  0  0  0  0  0
   -0.8807    2.5231   -0.0509 C   0  0  0  0  0  0  0  0  0  0  0  0
   -7.3400    9.1516    8.3621 C   0  0  0  0  0  0  0  0  0  0  0  0
   -1.5828    3.0512    1.0384 C   0  0  0  0  0  0  0  0  0  0  0  0
   -3.5976    4.5529    7.3197 C   0  0  0  0  0  0  0  0  0  0  0  0
   -2.9020    4.2042    2.8916 H   0  0  0  0  0  0  0  0  0  0  0  0
   -2.9290    5.1028    4.8762 H   0  0  0  0  0  0  0  0  0  0  0  0
   -0.0038    8.6100   -6.0178 H   0  0  0  0  0  0  0  0  0  0  0  0
   -1.8769    6.2501   -0.0693 H   0  0  0  0  0  0  0  0  0  0  0  0
   -1.7803   11.6374   -3.4718 H   0  0  0  0  0  0  0  0  0  0  0  0
   -4.9172    8.1395    2.5563 H   0  0  0  0  0  0  0  0  0  0  0  0
   -6.0234    8.9853    4.5508 H   0  0  0  0  0  0  0  0  0  0  0  0
   -0.7067   11.2506   -5.9906 H   0  0  0  0  0  0  0  0  0  0  0  0
   -0.0268    2.9062   -1.9890 H   0  0  0  0  0  0  0  0  0  0  0  0
   -0.5859    1.4763   -0.0572 H   0  0  0  0  0  0  0  0  0  0  0  0
   -6.9586    8.5226    9.1696 H   0  0  0  0  0  0  0  0  0  0  0  0
   -6.8914   10.1469    8.4079 H   0  0  0  0  0  0  0  0  0  0  0  0
   -8.4239    9.2365    8.4851 H   0  0  0  0  0  0  0  0  0  0  0  0
   -1.8249    2.3908    1.8665 H   0  0  0  0  0  0  0  0  0  0  0  0
   -4.2452    3.8582    6.7747 H   0  0  0  0  0  0  0  0  0  0  0  0
   -2.5612    4.4783    6.9745 H   0  0  0  0  0  0  0  0  0  0  0  0
   -3.6115    4.2670    8.3760 H   0  0  0  0  0  0  0  0  0  0  0  0
  2  1  1  0  0  0  0
  3  1  2  0  0  0  0
  4  3  1  0  0  0  0
  4  5  2  0  0  0  0
  5  2  1  0  0  0  0
  6  8  1  0  0  0  0
  7  1  1  0  0  0  0
  8 17  1  0  0  0  0
  8 32  1  0  0  0  0
  9  6  1  0  0  0  0
 10  5  1  0  0  0  0
 11 23  2  0  0  0  0
 11 12  1  0  0  0  0
 12 13  2  0  0  0  0
 13  9  1  0  0  0  0
 13 33  1  0  0  0  0
 14 11  1  0  0  0  0
 15  7  1  0  0  0  0
 16 14  1  0  0  0  0
 17 19  2  0  0  0  0
 17 30  1  0  0  0  0
 18  7  2  0  0  0  0
 18 34  1  0  0  0  0
 19 10  1  0  0  0  0
 19 35  1  0  0  0  0
 20  6  2  0  0  0  0
 21 15  1  0  0  0  0
 21 24  2  0  0  0  0
 21 36  1  0  0  0  0
 22  9  2  0  0  0  0
 22 37  1  0  0  0  0
 23 22  1  0  0  0  0
 23 38  1  0  0  0  0
 24 18  1  0  0  0  0
 24 39  1  0  0  0  0
 25 16  2  0  0  0  0
 26 12  1  0  0  0  0
 27 10  2  0  0  0  0
 27 40  1  0  0  0  0
 28 27  1  0  0  0  0
 28 41  1  0  0  0  0
 29 16  1  0  0  0  0
 29 42  1  0  0  0  0
 29 43  1  0  0  0  0
 29 44  1  0  0  0  0
 30 28  2  0  0  0  0
 30 45  1  0  0  0  0
 31 26  1  0  0  0  0
 31 46  1  0  0  0  0
 31 47  1  0  0  0  0
 31 48  1  0  0  0  0
M  END
>  <Mol_ID>
8569

>  <Formula>
C22H17N3O6

>  <MolWeight>
419.38688

>  <Cat>
P2253

>  <Name>
WAY-323259

>  <Synonyms>
N/A

>  <Target>
NMD

>  <Form>
free base

>  <CAS>
853709-75-8

>  <URL>
N/A

$$$$
