WAY-655810
 OpenBabel08302521423D

 51 54  0  0  0  0  0  0  0  0999 V2000
    0.8745   -0.0071   -0.2393 S   0  0  0  0  0  0  0  0  0  0  0  0
    0.4784   -0.2512    1.4043 N   0  0  0  0  0  0  0  0  0  0  0  0
    0.5407    1.7141   -0.4872 C   0  0  0  0  0  0  0  0  0  0  0  0
    2.4879   -1.6907    2.9548 N   0  0  0  0  0  0  0  0  0  0  0  0
    3.3442   -2.3034    3.8636 C   0  0  0  0  0  0  0  0  0  0  0  0
    1.5629    2.5614   -0.9200 C   0  0  0  0  0  0  0  0  0  0  0  0
    1.3024    3.9216   -1.0535 C   0  0  0  0  0  0  0  0  0  0  0  0
   -0.0774   -0.7454   -1.0401 O   0  0  0  0  0  0  0  0  0  0  0  0
    2.2973   -0.2206   -0.3862 O   0  0  0  0  0  0  0  0  0  0  0  0
    1.3123    0.4615    2.4263 C   0  0  0  0  0  0  0  0  0  0  0  0
    0.3084   -1.6894    1.7860 C   0  0  0  0  0  0  0  0  0  0  0  0
    0.0198    4.4242   -0.8009 C   0  0  0  0  0  0  0  0  0  0  0  0
    1.6634   -2.3934    1.9625 C   0  0  0  0  0  0  0  0  0  0  0  0
    2.6469   -0.2473    2.7118 C   0  0  0  0  0  0  0  0  0  0  0  0
    2.3572    4.7128   -1.4292 O   0  0  0  0  0  0  0  0  0  0  0  0
   -0.7439    2.2049   -0.2296 C   0  0  0  0  0  0  0  0  0  0  0  0
    3.2939   -3.8283    4.0367 C   0  0  0  0  0  0  0  0  0  0  0  0
   -0.3024    5.7520   -0.9172 O   0  0  0  0  0  0  0  0  0  0  0  0
    4.1120   -1.6387    4.5624 O   0  0  0  0  0  0  0  0  0  0  0  0
   -1.0012    3.5675   -0.3880 C   0  0  0  0  0  0  0  0  0  0  0  0
    4.1269   -4.4567    3.0718 O   0  0  0  0  0  0  0  0  0  0  0  0
    4.3413   -5.8026    3.2106 C   0  0  0  0  0  0  0  0  0  0  0  0
    2.0991    6.0882   -1.1278 C   0  0  0  0  0  0  0  0  0  0  0  0
    0.7140    6.4878   -1.6090 C   0  0  0  0  0  0  0  0  0  0  0  0
    3.6508   -6.6628    4.0668 C   0  0  0  0  0  0  0  0  0  0  0  0
    5.3352   -6.3284    2.3793 C   0  0  0  0  0  0  0  0  0  0  0  0
    5.6329   -7.6933    2.3939 C   0  0  0  0  0  0  0  0  0  0  0  0
    3.9464   -8.0323    4.0789 C   0  0  0  0  0  0  0  0  0  0  0  0
    4.9343   -8.5482    3.2420 C   0  0  0  0  0  0  0  0  0  0  0  0
    2.5583    2.1800   -1.1345 H   0  0  0  0  0  0  0  0  0  0  0  0
    1.4784    1.5046    2.1383 H   0  0  0  0  0  0  0  0  0  0  0  0
    0.7214    0.4967    3.3526 H   0  0  0  0  0  0  0  0  0  0  0  0
   -0.2444   -1.7157    2.7347 H   0  0  0  0  0  0  0  0  0  0  0  0
   -0.3164   -2.2111    1.0549 H   0  0  0  0  0  0  0  0  0  0  0  0
    2.2263   -2.4096    1.0221 H   0  0  0  0  0  0  0  0  0  0  0  0
    1.4914   -3.4309    2.2464 H   0  0  0  0  0  0  0  0  0  0  0  0
    3.3365   -0.1365    1.8691 H   0  0  0  0  0  0  0  0  0  0  0  0
    3.1233    0.2379    3.5705 H   0  0  0  0  0  0  0  0  0  0  0  0
   -1.5375    1.5342    0.0928 H   0  0  0  0  0  0  0  0  0  0  0  0
    3.6504   -4.0400    5.0534 H   0  0  0  0  0  0  0  0  0  0  0  0
    2.2622   -4.1839    3.9650 H   0  0  0  0  0  0  0  0  0  0  0  0
   -1.9948    3.9622   -0.1922 H   0  0  0  0  0  0  0  0  0  0  0  0
    2.8643    6.6879   -1.6304 H   0  0  0  0  0  0  0  0  0  0  0  0
    2.2077    6.2335   -0.0456 H   0  0  0  0  0  0  0  0  0  0  0  0
    0.5414    7.5511   -1.4151 H   0  0  0  0  0  0  0  0  0  0  0  0
    0.5975    6.3118   -2.6851 H   0  0  0  0  0  0  0  0  0  0  0  0
    2.8720   -6.3078    4.7321 H   0  0  0  0  0  0  0  0  0  0  0  0
    5.8871   -5.6679    1.7145 H   0  0  0  0  0  0  0  0  0  0  0  0
    6.4081   -8.0873    1.7409 H   0  0  0  0  0  0  0  0  0  0  0  0
    3.4000   -8.7002    4.7415 H   0  0  0  0  0  0  0  0  0  0  0  0
    5.1583   -9.6117    3.2502 H   0  0  0  0  0  0  0  0  0  0  0  0
  2  1  1  0  0  0  0
  3  1  1  0  0  0  0
  4 13  1  0  0  0  0
  5  4  1  0  0  0  0
  6  3  2  0  0  0  0
  6 30  1  0  0  0  0
  7  6  1  0  0  0  0
  8  1  2  0  0  0  0
  9  1  2  0  0  0  0
 10  2  1  0  0  0  0
 10 31  1  0  0  0  0
 10 32  1  0  0  0  0
 11  2  1  0  0  0  0
 11 33  1  0  0  0  0
 11 34  1  0  0  0  0
 12 20  1  0  0  0  0
 12  7  2  0  0  0  0
 13 11  1  0  0  0  0
 13 35  1  0  0  0  0
 13 36  1  0  0  0  0
 14 10  1  0  0  0  0
 14  4  1  0  0  0  0
 14 37  1  0  0  0  0
 14 38  1  0  0  0  0
 15  7  1  0  0  0  0
 16  3  1  0  0  0  0
 16 39  1  0  0  0  0
 17  5  1  0  0  0  0
 17 40  1  0  0  0  0
 17 41  1  0  0  0  0
 18 12  1  0  0  0  0
 19  5  2  0  0  0  0
 20 16  2  0  0  0  0
 20 42  1  0  0  0  0
 21 17  1  0  0  0  0
 22 21  1  0  0  0  0
 23 15  1  0  0  0  0
 23 24  1  0  0  0  0
 23 43  1  0  0  0  0
 23 44  1  0  0  0  0
 24 18  1  0  0  0  0
 24 45  1  0  0  0  0
 24 46  1  0  0  0  0
 25 22  2  0  0  0  0
 25 47  1  0  0  0  0
 26 22  1  0  0  0  0
 26 48  1  0  0  0  0
 27 26  2  0  0  0  0
 27 49  1  0  0  0  0
 28 25  1  0  0  0  0
 28 50  1  0  0  0  0
 29 27  1  0  0  0  0
 29 28  2  0  0  0  0
 29 51  1  0  0  0  0
M  END
>  <Mol_ID>
8519

>  <Formula>
C20H22N2O6S

>  <MolWeight>
418.46348

>  <Cat>
P3130

>  <Name>
WAY-655810

>  <Synonyms>
N/A

>  <Target>
PKM2

>  <Form>
free base

>  <CAS>
847840-70-4

>  <URL>
N/A

$$$$
