WAY-323975
 OpenBabel08302521423D

 48 49  0  0  0  0  0  0  0  0999 V2000
   -1.1249    2.2278   -2.2352 S   0  0  0  0  0  0  0  0  0  0  0  0
   -1.8145    1.2892   -0.9759 N   0  0  0  0  0  0  0  0  0  0  0  0
   -1.7451    0.7631    1.5483 C   0  0  0  0  0  0  0  0  0  0  0  0
   -1.1106    1.4336    0.3303 C   0  0  0  0  0  0  0  0  0  0  0  0
   -3.6561    3.0668    4.5739 N   0  0  0  0  0  0  0  0  0  0  0  0
   -2.3206    1.5699    2.5301 N   0  0  0  0  0  0  0  0  0  0  0  0
   -3.7932    3.9694    5.6081 C   0  0  0  0  0  0  0  0  0  0  0  0
    0.4770    1.5028   -2.4802 C   0  0  0  0  0  0  0  0  0  0  0  0
   -0.9508    3.5692   -1.7084 O   0  0  0  0  0  0  0  0  0  0  0  0
   -1.8819    1.9956   -3.4450 O   0  0  0  0  0  0  0  0  0  0  0  0
   -3.6739    3.5472    3.2004 C   0  0  0  0  0  0  0  0  0  0  0  0
   -3.5747    1.6128    4.7220 C   0  0  0  0  0  0  0  0  0  0  0  0
   -2.4608    3.0290    2.4235 C   0  0  0  0  0  0  0  0  0  0  0  0
   -2.4109    1.0299    3.9003 C   0  0  0  0  0  0  0  0  0  0  0  0
   -3.8828    5.1793    5.4385 O   0  0  0  0  0  0  0  0  0  0  0  0
   -1.7229   -0.4651    1.6624 O   0  0  0  0  0  0  0  0  0  0  0  0
    0.5605    0.1590   -2.8547 C   0  0  0  0  0  0  0  0  0  0  0  0
    1.6297    2.2859   -2.3612 C   0  0  0  0  0  0  0  0  0  0  0  0
   -3.8024    3.3806    6.8336 O   0  0  0  0  0  0  0  0  0  0  0  0
    2.9638    0.3722   -3.0025 C   0  0  0  0  0  0  0  0  0  0  0  0
    1.8095   -0.4054   -3.1135 C   0  0  0  0  0  0  0  0  0  0  0  0
    2.8755    1.7141   -2.6259 C   0  0  0  0  0  0  0  0  0  0  0  0
   -3.2840    1.4419   -0.8971 C   0  0  0  0  0  0  0  0  0  0  0  0
   -3.9271    4.3178    7.9111 C   0  0  0  0  0  0  0  0  0  0  0  0
   -3.9407    3.5557    9.2205 C   0  0  0  0  0  0  0  0  0  0  0  0
   -0.1243    0.9617    0.2359 H   0  0  0  0  0  0  0  0  0  0  0  0
   -0.9031    2.4838    0.5425 H   0  0  0  0  0  0  0  0  0  0  0  0
   -4.5994    3.1760    2.7435 H   0  0  0  0  0  0  0  0  0  0  0  0
   -3.6988    4.6396    3.1542 H   0  0  0  0  0  0  0  0  0  0  0  0
   -3.4716    1.3199    5.7713 H   0  0  0  0  0  0  0  0  0  0  0  0
   -4.5240    1.2041    4.3559 H   0  0  0  0  0  0  0  0  0  0  0  0
   -1.5362    3.4678    2.8160 H   0  0  0  0  0  0  0  0  0  0  0  0
   -2.5703    3.3303    1.3801 H   0  0  0  0  0  0  0  0  0  0  0  0
   -1.4629    1.2933    4.3880 H   0  0  0  0  0  0  0  0  0  0  0  0
   -2.4718   -0.0635    3.8897 H   0  0  0  0  0  0  0  0  0  0  0  0
   -0.3402   -0.4414   -2.9605 H   0  0  0  0  0  0  0  0  0  0  0  0
    1.5678    3.3370   -2.0901 H   0  0  0  0  0  0  0  0  0  0  0  0
    3.9350   -0.0668   -3.2207 H   0  0  0  0  0  0  0  0  0  0  0  0
    1.8833   -1.4474   -3.4156 H   0  0  0  0  0  0  0  0  0  0  0  0
    3.7781    2.3168   -2.5546 H   0  0  0  0  0  0  0  0  0  0  0  0
   -3.5591    2.4532   -0.5860 H   0  0  0  0  0  0  0  0  0  0  0  0
   -3.7431    1.2306   -1.8682 H   0  0  0  0  0  0  0  0  0  0  0  0
   -3.7130    0.7207   -0.1964 H   0  0  0  0  0  0  0  0  0  0  0  0
   -3.0763    5.0091    7.8990 H   0  0  0  0  0  0  0  0  0  0  0  0
   -4.8613    4.8819    7.8063 H   0  0  0  0  0  0  0  0  0  0  0  0
   -4.7746    2.8472    9.2456 H   0  0  0  0  0  0  0  0  0  0  0  0
   -3.0211    2.9737    9.3374 H   0  0  0  0  0  0  0  0  0  0  0  0
   -4.0345    4.2419   10.0671 H   0  0  0  0  0  0  0  0  0  0  0  0
  2  1  1  0  0  0  0
  3  4  1  0  0  0  0
  4  2  1  0  0  0  0
  4 26  1  0  0  0  0
  4 27  1  0  0  0  0
  5 12  1  0  0  0  0
  5 11  1  0  0  0  0
  6  3  1  0  0  0  0
  7  5  1  0  0  0  0
  8  1  1  0  0  0  0
  9  1  2  0  0  0  0
 10  1  2  0  0  0  0
 11 13  1  0  0  0  0
 11 28  1  0  0  0  0
 11 29  1  0  0  0  0
 12 14  1  0  0  0  0
 12 30  1  0  0  0  0
 12 31  1  0  0  0  0
 13  6  1  0  0  0  0
 13 32  1  0  0  0  0
 13 33  1  0  0  0  0
 14  6  1  0  0  0  0
 14 34  1  0  0  0  0
 14 35  1  0  0  0  0
 15  7  2  0  0  0  0
 16  3  2  0  0  0  0
 17  8  2  0  0  0  0
 17 36  1  0  0  0  0
 18  8  1  0  0  0  0
 18 37  1  0  0  0  0
 19  7  1  0  0  0  0
 20 22  1  0  0  0  0
 20 21  2  0  0  0  0
 20 38  1  0  0  0  0
 21 17  1  0  0  0  0
 21 39  1  0  0  0  0
 22 18  2  0  0  0  0
 22 40  1  0  0  0  0
 23  2  1  0  0  0  0
 23 41  1  0  0  0  0
 23 42  1  0  0  0  0
 23 43  1  0  0  0  0
 24 19  1  0  0  0  0
 24 44  1  0  0  0  0
 24 45  1  0  0  0  0
 25 24  1  0  0  0  0
 25 46  1  0  0  0  0
 25 47  1  0  0  0  0
 25 48  1  0  0  0  0
M  END
>  <Mol_ID>
8591

>  <Formula>
C16H22ClN3O5S

>  <MolWeight>
403.88098

>  <Cat>
P2284

>  <Name>
WAY-323975

>  <Synonyms>
N/A

>  <Target>
fluorogen-fluorogen activating protein binding pair

>  <Form>
free base

>  <CAS>
510716-65-1

>  <URL>
N/A

$$$$
