WAY-310955
 OpenBabel08302521393D

 46 48  0  0  0  0  0  0  0  0999 V2000
    1.3872    0.8860    0.0993 C   0  0  0  0  0  0  0  0  0  0  0  0
    0.1590    1.7651   -0.1708 C   0  0  3  0  0  0  0  0  0  0  0  0
    2.6409    1.7090    0.2633 C   0  0  0  0  0  0  0  0  0  0  0  0
    1.2392   -0.4595    0.1788 C   0  0  0  0  0  0  0  0  0  0  0  0
   -0.0105    2.2371   -1.6199 C   0  0  0  0  0  0  0  0  0  0  0  0
   -1.0418    1.0664    0.2516 N   0  0  0  0  0  0  0  0  0  0  0  0
    4.0037    1.1663    0.0332 C   0  0  0  0  0  0  0  0  0  0  0  0
    2.5516    2.8907    0.6019 O   0  0  0  0  0  0  0  0  0  0  0  0
   -0.0291   -0.9794    0.0164 N   0  0  0  0  0  0  0  0  0  0  0  0
    2.2568   -1.5235    0.4746 C   0  0  0  0  0  0  0  0  0  0  0  0
    0.8861    1.8823   -2.6442 C   0  0  0  0  0  0  0  0  0  0  0  0
   -1.1000    3.0481   -1.9650 C   0  0  0  0  0  0  0  0  0  0  0  0
   -1.1837   -0.2715    0.0811 C   0  0  0  0  0  0  0  0  0  0  0  0
    4.2901    0.1912   -0.9274 C   0  0  0  0  0  0  0  0  0  0  0  0
    5.0431    1.6632    0.8322 C   0  0  0  0  0  0  0  0  0  0  0  0
    0.7237    2.3096   -3.9721 C   0  0  0  0  0  0  0  0  0  0  0  0
   -1.2827    3.4687   -3.2842 C   0  0  0  0  0  0  0  0  0  0  0  0
   -2.2844   -0.8112    0.0654 O   0  0  0  0  0  0  0  0  0  0  0  0
    5.5567   -0.3983   -0.9697 C   0  0  0  0  0  0  0  0  0  0  0  0
    6.3199    1.1053    0.7566 C   0  0  0  0  0  0  0  0  0  0  0  0
   -0.3788    3.1133   -4.2956 C   0  0  0  0  0  0  0  0  0  0  0  0
    1.5994    1.9594   -4.9666 O   0  0  0  0  0  0  0  0  0  0  0  0
    6.5649    0.0482   -0.1168 C   0  0  0  0  0  0  0  0  0  0  0  0
   -0.7309    3.6400   -5.5110 O   0  0  0  0  0  0  0  0  0  0  0  0
    2.7441    1.1898   -4.6250 C   0  0  0  0  0  0  0  0  0  0  0  0
    0.0925    3.3730   -6.6353 C   0  0  0  0  0  0  0  0  0  0  0  0
    0.1893    2.6562    0.4680 H   0  0  0  0  0  0  0  0  0  0  0  0
   -1.9137    1.5665    0.2800 H   0  0  0  0  0  0  0  0  0  0  0  0
   -0.1701   -1.9848    0.0049 H   0  0  0  0  0  0  0  0  0  0  0  0
    1.8281   -2.2989    1.1215 H   0  0  0  0  0  0  0  0  0  0  0  0
    2.5642   -2.0184   -0.4537 H   0  0  0  0  0  0  0  0  0  0  0  0
    3.1305   -1.1521    1.0082 H   0  0  0  0  0  0  0  0  0  0  0  0
    1.7282    1.2560   -2.3928 H   0  0  0  0  0  0  0  0  0  0  0  0
   -1.8267    3.3566   -1.2175 H   0  0  0  0  0  0  0  0  0  0  0  0
    3.5280   -0.1651   -1.6132 H   0  0  0  0  0  0  0  0  0  0  0  0
    4.8568    2.4767    1.5318 H   0  0  0  0  0  0  0  0  0  0  0  0
   -2.1449    4.0851   -3.5323 H   0  0  0  0  0  0  0  0  0  0  0  0
    5.7528   -1.2202   -1.6545 H   0  0  0  0  0  0  0  0  0  0  0  0
    7.1157    1.4836    1.3940 H   0  0  0  0  0  0  0  0  0  0  0  0
    7.5454   -0.4217   -0.1383 H   0  0  0  0  0  0  0  0  0  0  0  0
    3.3801    1.7195   -3.9071 H   0  0  0  0  0  0  0  0  0  0  0  0
    2.4558    0.2027   -4.2484 H   0  0  0  0  0  0  0  0  0  0  0  0
    3.3287    1.0381   -5.5365 H   0  0  0  0  0  0  0  0  0  0  0  0
    1.1114    3.7441   -6.4862 H   0  0  0  0  0  0  0  0  0  0  0  0
    0.0730    2.3092   -6.8933 H   0  0  0  0  0  0  0  0  0  0  0  0
   -0.3220    3.9215   -7.4870 H   0  0  0  0  0  0  0  0  0  0  0  0
  1  2  1  0  0  0  0
  1  3  1  0  0  0  0
  1  4  2  0  0  0  0
  2  5  1  0  0  0  0
  2  6  1  0  0  0  0
  2 27  1  0  0  0  0
  3  7  1  0  0  0  0
  3  8  2  0  0  0  0
  4  9  1  0  0  0  0
  4 10  1  0  0  0  0
  5 11  2  0  0  0  0
  5 12  1  0  0  0  0
  6 13  1  0  0  0  0
  6 28  1  0  0  0  0
  7 14  2  0  0  0  0
  7 15  1  0  0  0  0
  9 13  1  0  0  0  0
  9 29  1  0  0  0  0
 10 30  1  0  0  0  0
 10 31  1  0  0  0  0
 10 32  1  0  0  0  0
 11 16  1  0  0  0  0
 11 33  1  0  0  0  0
 12 17  2  0  0  0  0
 12 34  1  0  0  0  0
 13 18  2  0  0  0  0
 14 19  1  0  0  0  0
 14 35  1  0  0  0  0
 15 20  2  0  0  0  0
 15 36  1  0  0  0  0
 16 21  2  0  0  0  0
 16 22  1  0  0  0  0
 17 21  1  0  0  0  0
 17 37  1  0  0  0  0
 19 23  2  0  0  0  0
 19 38  1  0  0  0  0
 20 23  1  0  0  0  0
 20 39  1  0  0  0  0
 21 24  1  0  0  0  0
 22 25  1  0  0  0  0
 23 40  1  0  0  0  0
 24 26  1  0  0  0  0
 25 41  1  0  0  0  0
 25 42  1  0  0  0  0
 25 43  1  0  0  0  0
 26 44  1  0  0  0  0
 26 45  1  0  0  0  0
 26 46  1  0  0  0  0
M  END
>  <Mol_ID>
8144

>  <Formula>
C20H20N2O4

>  <MolWeight>
352.3838

>  <Cat>
P2191

>  <Name>
WAY-310955

>  <Synonyms>
N/A

>  <Target>
mitotic Eg5

>  <Form>
free base

>  <CAS>
459793-01-2

>  <URL>
N/A

$$$$
