WAY-388657
 OpenBabel08302521413D

 36 38  0  0  0  0  0  0  0  0999 V2000
    0.0588    0.6194   -0.0845 C   0  0  0  0  0  0  0  0  0  0  0  0
    0.1900   -0.7612   -0.1186 C   0  0  0  0  0  0  0  0  0  0  0  0
    1.5364    1.4451   -0.2139 S   0  0  0  0  0  0  0  0  0  0  0  0
    1.6015   -1.1298   -0.2365 C   0  0  0  0  0  0  0  0  0  0  0  0
    2.4214   -0.0097   -0.3045 C   0  0  0  0  0  0  0  0  0  0  0  0
   -4.8397   -6.6690    0.7487 C   0  0  0  0  0  0  0  0  0  0  0  0
   -4.3007   -7.6722    0.0388 N   0  0  0  0  0  0  0  0  0  0  0  0
   -5.9946   -7.1258    1.4290 C   0  0  0  0  0  0  0  0  0  0  0  0
   -1.0355   -1.4604   -0.0358 C   0  0  0  0  0  0  0  0  0  0  0  0
   -1.0789    1.3259    0.0298 N   0  0  0  0  0  0  0  0  0  0  0  0
   -4.3324   -5.3762    0.7556 N   0  0  0  0  0  0  0  0  0  0  0  0
   -5.1095   -8.7607    0.2134 O   0  0  0  0  0  0  0  0  0  0  0  0
   -2.2020   -0.7856    0.0750 N   0  0  0  0  0  0  0  0  0  0  0  0
   -6.1438   -8.4332    1.0287 C   0  0  0  0  0  0  0  0  0  0  0  0
   -3.2089   -5.0206    0.0187 C   0  0  0  0  0  0  0  0  0  0  0  0
   -1.0935   -3.2294   -0.0697 S   0  0  0  0  0  0  0  0  0  0  0  0
   -2.1577    0.5516    0.1067 C   0  0  0  0  0  0  0  0  0  0  0  0
   -2.5458   -5.7870   -0.6749 O   0  0  0  0  0  0  0  0  0  0  0  0
   -2.8906   -3.5294    0.0567 C   0  0  0  0  0  0  0  0  0  0  0  0
    2.1222   -2.5354   -0.2871 C   0  0  0  0  0  0  0  0  0  0  0  0
    3.9111    0.0502   -0.4399 C   0  0  0  0  0  0  0  0  0  0  0  0
   -7.1420   -9.4922    1.2337 C   0  0  0  0  0  0  0  0  0  0  0  0
   -6.6548   -6.5725    2.0846 H   0  0  0  0  0  0  0  0  0  0  0  0
   -4.8776   -4.6749    1.2366 H   0  0  0  0  0  0  0  0  0  0  0  0
   -3.1093    1.0639    0.2145 H   0  0  0  0  0  0  0  0  0  0  0  0
   -3.2797   -3.0667    0.9704 H   0  0  0  0  0  0  0  0  0  0  0  0
   -3.3869   -3.0894   -0.8116 H   0  0  0  0  0  0  0  0  0  0  0  0
    1.8579   -3.0743    0.6278 H   0  0  0  0  0  0  0  0  0  0  0  0
    1.7175   -3.0642   -1.1550 H   0  0  0  0  0  0  0  0  0  0  0  0
    3.2131   -2.5651   -0.3738 H   0  0  0  0  0  0  0  0  0  0  0  0
    4.3871   -0.4519    0.4088 H   0  0  0  0  0  0  0  0  0  0  0  0
    4.2279   -0.4508   -1.3607 H   0  0  0  0  0  0  0  0  0  0  0  0
    4.2894    1.0771   -0.4736 H   0  0  0  0  0  0  0  0  0  0  0  0
   -7.3150   -9.6805    2.2953 H   0  0  0  0  0  0  0  0  0  0  0  0
   -8.0921   -9.2078    0.7677 H   0  0  0  0  0  0  0  0  0  0  0  0
   -6.8205  -10.4326    0.7706 H   0  0  0  0  0  0  0  0  0  0  0  0
  2  1  2  0  0  0  0
  3  1  1  0  0  0  0
  4  2  1  0  0  0  0
  4  5  2  0  0  0  0
  5  3  1  0  0  0  0
  6 11  1  0  0  0  0
  7  6  2  0  0  0  0
  8  6  1  0  0  0  0
  8 23  1  0  0  0  0
  9  2  1  0  0  0  0
  9 13  2  0  0  0  0
 10  1  1  0  0  0  0
 11 15  1  0  0  0  0
 11 24  1  0  0  0  0
 12  7  1  0  0  0  0
 12 14  1  0  0  0  0
 13 17  1  0  0  0  0
 14  8  2  0  0  0  0
 15 19  1  0  0  0  0
 16  9  1  0  0  0  0
 17 10  2  0  0  0  0
 17 25  1  0  0  0  0
 18 15  2  0  0  0  0
 19 16  1  0  0  0  0
 19 26  1  0  0  0  0
 19 27  1  0  0  0  0
 20  4  1  0  0  0  0
 20 28  1  0  0  0  0
 20 29  1  0  0  0  0
 20 30  1  0  0  0  0
 21  5  1  0  0  0  0
 21 31  1  0  0  0  0
 21 32  1  0  0  0  0
 21 33  1  0  0  0  0
 22 14  1  0  0  0  0
 22 34  1  0  0  0  0
 22 35  1  0  0  0  0
 22 36  1  0  0  0  0
M  END
>  <Mol_ID>
8456

>  <Formula>
C14H14N4O2S2

>  <MolWeight>
334.41656

>  <Cat>
P2822

>  <Name>
WAY-388657

>  <Synonyms>
N/A

>  <Target>
notum pectinacetylesterase

>  <Form>
free base

>  <CAS>
460727-10-0

>  <URL>
N/A

$$$$
