WAY-340935
 OpenBabel08302521323D

 30 32  0  0  0  0  0  0  0  0999 V2000
   -1.1331   -1.3721   -0.1281 N   0  0  0  0  0  0  0  0  0  0  0  0
   -2.2533   -0.6474   -0.1745 C   0  0  0  0  0  0  0  0  0  0  0  0
   -2.3290    0.6833   -0.2701 N   0  0  0  0  0  0  0  0  0  0  0  0
   -1.1494    1.3337   -0.3430 C   0  0  0  0  0  0  0  0  0  0  0  0
    0.0950    0.6879   -0.3650 C   0  0  0  0  0  0  0  0  0  0  0  0
    1.3636    1.3089   -0.4959 C   0  0  0  0  0  0  0  0  0  0  0  0
    2.5359    0.5520   -0.4432 C   0  0  0  0  0  0  0  0  0  0  0  0
    2.4559   -0.8234   -0.2546 C   0  0  0  0  0  0  0  0  0  0  0  0
    1.2049   -1.4361   -0.1569 C   0  0  0  0  0  0  0  0  0  0  0  0
    0.0254   -0.7068   -0.2221 C   0  0  0  0  0  0  0  0  0  0  0  0
   -1.1805    2.7251   -0.3620 O   0  0  0  0  0  0  0  0  0  0  0  0
   -2.4863    3.2305   -0.0282 C   0  0  0  0  0  0  0  0  0  0  0  0
   -2.5306    4.7310    0.2037 C   0  0  0  0  0  0  0  0  0  0  0  0
   -1.4022    5.5525    0.1013 C   0  0  0  0  0  0  0  0  0  0  0  0
   -1.4898    6.9187    0.3931 C   0  0  0  0  0  0  0  0  0  0  0  0
   -2.7070    7.4730    0.7849 C   0  0  0  0  0  0  0  0  0  0  0  0
   -3.8461    6.6791    0.8668 C   0  0  0  0  0  0  0  0  0  0  0  0
   -3.7577    5.3155    0.5745 C   0  0  0  0  0  0  0  0  0  0  0  0
   -2.8068    9.3085    1.2258 Br  0  0  0  0  0  0  0  0  0  0  0  0
   -3.1891   -1.1895   -0.1165 H   0  0  0  0  0  0  0  0  0  0  0  0
    1.4334    2.3854   -0.6455 H   0  0  0  0  0  0  0  0  0  0  0  0
    3.5076    1.0291   -0.5407 H   0  0  0  0  0  0  0  0  0  0  0  0
    3.3588   -1.4256   -0.1875 H   0  0  0  0  0  0  0  0  0  0  0  0
    1.1492   -2.5142   -0.0222 H   0  0  0  0  0  0  0  0  0  0  0  0
   -3.1826    2.9969   -0.8440 H   0  0  0  0  0  0  0  0  0  0  0  0
   -2.8272    2.7702    0.9098 H   0  0  0  0  0  0  0  0  0  0  0  0
   -0.4422    5.1363   -0.1924 H   0  0  0  0  0  0  0  0  0  0  0  0
   -0.5991    7.5378    0.3212 H   0  0  0  0  0  0  0  0  0  0  0  0
   -4.8009    7.1056    1.1671 H   0  0  0  0  0  0  0  0  0  0  0  0
   -4.6549    4.7034    0.6528 H   0  0  0  0  0  0  0  0  0  0  0  0
  1  2  2  0  0  0  0
  1 10  1  0  0  0  0
  2  3  1  0  0  0  0
  2 20  1  0  0  0  0
  3  4  2  0  0  0  0
  4  5  1  0  0  0  0
  4 11  1  0  0  0  0
  5  6  1  0  0  0  0
  5 10  2  0  0  0  0
  6  7  2  0  0  0  0
  6 21  1  0  0  0  0
  7  8  1  0  0  0  0
  7 22  1  0  0  0  0
  8  9  2  0  0  0  0
  8 23  1  0  0  0  0
  9 10  1  0  0  0  0
  9 24  1  0  0  0  0
 11 12  1  0  0  0  0
 12 13  1  0  0  0  0
 12 25  1  0  0  0  0
 12 26  1  0  0  0  0
 13 14  2  0  0  0  0
 13 18  1  0  0  0  0
 14 15  1  0  0  0  0
 14 27  1  0  0  0  0
 15 16  2  0  0  0  0
 15 28  1  0  0  0  0
 16 17  1  0  0  0  0
 16 19  1  0  0  0  0
 17 18  2  0  0  0  0
 17 29  1  0  0  0  0
 18 30  1  0  0  0  0
M  END
>  <Mol_ID>
6305

>  <Formula>
C15H11BrN2O

>  <MolWeight>
315.16464

>  <Cat>
E0534

>  <Name>
WAY-340935

>  <Synonyms>
VEGFR2-IN-2

>  <Target>
VEGFR

>  <Form>
free base

>  <CAS>
737818-56-3

>  <URL>
http://www.selleckchem.com/products/way-340935.html

$$$$
