WAY-325459
 OpenBabel08302521433D

 44 46  0  0  0  0  0  0  0  0999 V2000
    1.9177    1.7769   -2.1888 N   0  0  0  0  0  0  0  0  0  0  0  0
    0.9326    2.0710   -1.2407 C   0  0  0  0  0  0  0  0  0  0  0  0
    0.1129    3.2430   -1.4778 C   0  0  0  0  0  0  0  0  0  0  0  0
   -0.1745    3.6016   -2.7728 O   0  0  0  0  0  0  0  0  0  0  0  0
   -0.4593    4.1586   -0.6202 C   0  0  0  0  0  0  0  0  0  0  0  0
   -0.8009    4.8038   -2.7397 C   0  0  0  0  0  0  0  0  0  0  0  0
    4.7443    2.0884   -2.3498 O   0  0  0  0  0  0  0  0  0  0  0  0
    2.7797    0.6147   -2.0236 C   0  0  0  0  0  0  0  0  0  0  0  0
    2.5371    2.8090   -3.0315 C   0  0  0  0  0  0  0  0  0  0  0  0
   -1.0570    5.1619   -1.4299 C   0  0  0  0  0  0  0  0  0  0  0  0
    0.7954    1.3807   -0.2131 O   0  0  0  0  0  0  0  0  0  0  0  0
   -1.0789    4.5704   -5.1174 O   0  0  0  0  0  0  0  0  0  0  0  0
    4.1814    1.0374   -1.5260 C   0  0  3  0  0  0  0  0  0  0  0  0
    3.8698    3.2287   -2.4016 C   0  0  3  0  0  0  0  0  0  0  0  0
   -1.3454    5.1349   -6.3428 C   0  0  0  0  0  0  0  0  0  0  0  0
   -0.8669    4.5369   -7.5200 C   0  0  0  0  0  0  0  0  0  0  0  0
   -1.0114    5.5138   -4.0327 C   0  0  0  0  0  0  0  0  0  0  0  0
   -0.2454    2.7416   -7.5497 Br  0  0  0  0  0  0  0  0  0  0  0  0
   -2.1706    6.2544   -6.4804 C   0  0  0  0  0  0  0  0  0  0  0  0
   -1.0184    5.1700   -8.7610 C   0  0  0  0  0  0  0  0  0  0  0  0
    4.5106    4.3330   -3.2241 C   0  0  0  0  0  0  0  0  0  0  0  0
    5.1586   -0.1297   -1.5687 C   0  0  0  0  0  0  0  0  0  0  0  0
   -2.4473    6.8001   -7.7267 C   0  0  0  0  0  0  0  0  0  0  0  0
   -1.8281    6.2985   -8.8651 C   0  0  0  0  0  0  0  0  0  0  0  0
   -0.3878    4.1356    0.4574 H   0  0  0  0  0  0  0  0  0  0  0  0
    2.3251   -0.1205   -1.3447 H   0  0  0  0  0  0  0  0  0  0  0  0
    2.8582    0.1463   -3.0115 H   0  0  0  0  0  0  0  0  0  0  0  0
    2.6868    2.3733   -4.0231 H   0  0  0  0  0  0  0  0  0  0  0  0
    1.9326    3.7104   -3.1500 H   0  0  0  0  0  0  0  0  0  0  0  0
   -1.5564    6.0600   -1.0955 H   0  0  0  0  0  0  0  0  0  0  0  0
    4.1145    1.4160   -0.4981 H   0  0  0  0  0  0  0  0  0  0  0  0
    3.7165    3.5936   -1.3782 H   0  0  0  0  0  0  0  0  0  0  0  0
   -1.9417    6.0764   -3.9214 H   0  0  0  0  0  0  0  0  0  0  0  0
   -0.1777    6.2102   -4.1998 H   0  0  0  0  0  0  0  0  0  0  0  0
   -2.6924    6.6859   -5.6284 H   0  0  0  0  0  0  0  0  0  0  0  0
   -0.5803    4.7513   -9.6638 H   0  0  0  0  0  0  0  0  0  0  0  0
    4.6539    4.0161   -4.2631 H   0  0  0  0  0  0  0  0  0  0  0  0
    3.8810    5.2303   -3.2216 H   0  0  0  0  0  0  0  0  0  0  0  0
    5.4938    4.5955   -2.8256 H   0  0  0  0  0  0  0  0  0  0  0  0
    5.2919   -0.4909   -2.5948 H   0  0  0  0  0  0  0  0  0  0  0  0
    6.1470    0.1887   -1.2202 H   0  0  0  0  0  0  0  0  0  0  0  0
    4.8167   -0.9593   -0.9445 H   0  0  0  0  0  0  0  0  0  0  0  0
   -3.1755    7.6051   -7.8091 H   0  0  0  0  0  0  0  0  0  0  0  0
   -2.0391    6.7326   -9.8371 H   0  0  0  0  0  0  0  0  0  0  0  0
  2  1  1  0  0  0  0
  3  2  1  0  0  0  0
  4  3  1  0  0  0  0
  5  3  2  0  0  0  0
  5 25  1  0  0  0  0
  6  4  1  0  0  0  0
  6 10  2  0  0  0  0
  7 14  1  0  0  0  0
  8  1  1  0  0  0  0
  8 26  1  0  0  0  0
  8 27  1  0  0  0  0
  9  1  1  0  0  0  0
  9 28  1  0  0  0  0
  9 29  1  0  0  0  0
 10  5  1  0  0  0  0
 10 30  1  0  0  0  0
 11  2  2  0  0  0  0
 12 17  1  0  0  0  0
 13  8  1  0  0  0  0
 13  7  1  0  0  0  0
 13 31  1  0  0  0  0
 14  9  1  0  0  0  0
 14 32  1  0  0  0  0
 15 12  1  0  0  0  0
 16 15  2  0  0  0  0
 17  6  1  0  0  0  0
 17 33  1  0  0  0  0
 17 34  1  0  0  0  0
 18 16  1  0  0  0  0
 19 15  1  0  0  0  0
 19 35  1  0  0  0  0
 20 16  1  0  0  0  0
 20 24  2  0  0  0  0
 20 36  1  0  0  0  0
 21 14  1  0  0  0  0
 21 37  1  0  0  0  0
 21 38  1  0  0  0  0
 21 39  1  0  0  0  0
 22 13  1  0  0  0  0
 22 40  1  0  0  0  0
 22 41  1  0  0  0  0
 22 42  1  0  0  0  0
 23 19  2  0  0  0  0
 23 43  1  0  0  0  0
 24 23  1  0  0  0  0
 24 44  1  0  0  0  0
M  END
>  <Mol_ID>
8702

>  <Formula>
C18H20BrNO4

>  <MolWeight>
394.2597

>  <Cat>
P2401

>  <Name>
WAY-325459

>  <Synonyms>
N/A

>  <Target>
11¦Â-HSD1

>  <Form>
free base

>  <CAS>
438468-03-2

>  <URL>
N/A

$$$$
