WAY-324965
 OpenBabel08302521423D

 51 54  0  0  0  0  0  0  0  0999 V2000
    0.9339   -0.1518    0.2065 C   0  0  0  0  0  0  0  0  0  0  0  0
    2.9802   -6.1491   -1.9855 C   0  0  0  0  0  0  0  0  0  0  0  0
    1.6586   -1.2363    0.6727 N   0  0  0  0  0  0  0  0  0  0  0  0
    2.1861   -6.6767   -2.9909 N   0  0  0  0  0  0  0  0  0  0  0  0
    2.3778   -9.4737   -5.7509 C   0  0  0  0  0  0  0  0  0  0  0  0
    0.5574    0.8444    1.2619 C   0  0  0  0  0  0  0  0  0  0  0  0
    2.5902   -4.8204   -1.3952 C   0  0  0  0  0  0  0  0  0  0  0  0
    2.2875   -8.1048   -5.0741 C   0  0  3  0  0  0  0  0  0  0  0  0
    0.6526    0.0674   -0.9654 O   0  0  0  0  0  0  0  0  0  0  0  0
    1.0783   -7.4299   -5.4943 O   0  0  0  0  0  0  0  0  0  0  0  0
    3.9786   -6.7218   -1.5586 O   0  0  0  0  0  0  0  0  0  0  0  0
    2.3685   -8.0412   -3.5266 C   0  0  0  0  0  0  0  0  0  0  0  0
    1.8891   -9.6077   -7.0732 C   0  0  0  0  0  0  0  0  0  0  0  0
    0.5017    2.2131    0.9668 C   0  0  0  0  0  0  0  0  0  0  0  0
    0.1850    0.4039    2.5420 C   0  0  0  0  0  0  0  0  0  0  0  0
    1.9571   -2.3792   -0.0953 C   0  0  0  0  0  0  0  0  0  0  0  0
    3.5898   -4.0382   -0.7923 C   0  0  0  0  0  0  0  0  0  0  0  0
    1.2662   -4.3669   -1.3300 C   0  0  0  0  0  0  0  0  0  0  0  0
   -0.2776    2.6803    3.2126 C   0  0  0  0  0  0  0  0  0  0  0  0
    3.2735   -2.8376   -0.1328 C   0  0  0  0  0  0  0  0  0  0  0  0
    0.9564   -3.1341   -0.7080 C   0  0  0  0  0  0  0  0  0  0  0  0
   -0.2314    1.3210    3.5080 C   0  0  0  0  0  0  0  0  0  0  0  0
    0.0921    3.1270    1.9458 C   0  0  0  0  0  0  0  0  0  0  0  0
    1.0938   -7.2276   -6.9109 C   0  0  0  0  0  0  0  0  0  0  0  0
    3.0375  -10.5719   -5.1836 C   0  0  0  0  0  0  0  0  0  0  0  0
    0.9847   -8.5518   -7.6545 C   0  0  0  0  0  0  0  0  0  0  0  0
    2.1553  -10.7654   -7.8255 C   0  0  0  0  0  0  0  0  0  0  0  0
    3.2794  -11.7331   -5.9359 C   0  0  0  0  0  0  0  0  0  0  0  0
    2.8742  -11.8153   -7.2582 C   0  0  0  0  0  0  0  0  0  0  0  0
    2.2746   -1.0388    1.4532 H   0  0  0  0  0  0  0  0  0  0  0  0
    1.3954   -6.1607   -3.3458 H   0  0  0  0  0  0  0  0  0  0  0  0
    3.1397   -7.5211   -5.4485 H   0  0  0  0  0  0  0  0  0  0  0  0
    3.3288   -8.4389   -3.1816 H   0  0  0  0  0  0  0  0  0  0  0  0
    1.5707   -8.6444   -3.0775 H   0  0  0  0  0  0  0  0  0  0  0  0
    0.7727    2.5750   -0.0222 H   0  0  0  0  0  0  0  0  0  0  0  0
    0.1697   -0.6592    2.7762 H   0  0  0  0  0  0  0  0  0  0  0  0
    4.6270   -4.3653   -0.8233 H   0  0  0  0  0  0  0  0  0  0  0  0
    0.4498   -4.9813   -1.6995 H   0  0  0  0  0  0  0  0  0  0  0  0
   -0.6123    3.3837    3.9699 H   0  0  0  0  0  0  0  0  0  0  0  0
    4.0733   -2.2552    0.3156 H   0  0  0  0  0  0  0  0  0  0  0  0
   -0.0856   -2.8275   -0.6293 H   0  0  0  0  0  0  0  0  0  0  0  0
   -0.5403    0.9615    4.4899 H   0  0  0  0  0  0  0  0  0  0  0  0
    0.0441    4.1889    1.7174 H   0  0  0  0  0  0  0  0  0  0  0  0
    0.2440   -6.5885   -7.1717 H   0  0  0  0  0  0  0  0  0  0  0  0
    2.0057   -6.6880   -7.1965 H   0  0  0  0  0  0  0  0  0  0  0  0
    3.3909  -10.5496   -4.1551 H   0  0  0  0  0  0  0  0  0  0  0  0
   -0.0426   -8.9289   -7.5677 H   0  0  0  0  0  0  0  0  0  0  0  0
    1.1970   -8.3977   -8.7187 H   0  0  0  0  0  0  0  0  0  0  0  0
    1.8095  -10.8489   -8.8528 H   0  0  0  0  0  0  0  0  0  0  0  0
    3.8016  -12.5732   -5.4804 H   0  0  0  0  0  0  0  0  0  0  0  0
    3.0992  -12.7001   -7.8511 H   0  0  0  0  0  0  0  0  0  0  0  0
  2  7  1  0  0  0  0
  3  1  1  0  0  0  0
  3 30  1  0  0  0  0
  4  2  1  0  0  0  0
  4 31  1  0  0  0  0
  5  8  1  0  0  0  0
  6  1  1  0  0  0  0
  7 18  1  0  0  0  0
  7 17  2  0  0  0  0
  8 12  1  0  0  0  0
  8 32  1  0  0  0  0
  9  1  2  0  0  0  0
 10  8  1  0  0  0  0
 11  2  2  0  0  0  0
 12  4  1  0  0  0  0
 12 33  1  0  0  0  0
 12 34  1  0  0  0  0
 13  5  2  0  0  0  0
 13 26  1  0  0  0  0
 14  6  2  0  0  0  0
 14 35  1  0  0  0  0
 15  6  1  0  0  0  0
 15 36  1  0  0  0  0
 16  3  1  0  0  0  0
 17 20  1  0  0  0  0
 17 37  1  0  0  0  0
 18 21  2  0  0  0  0
 18 38  1  0  0  0  0
 19 22  1  0  0  0  0
 19 39  1  0  0  0  0
 20 16  2  0  0  0  0
 20 40  1  0  0  0  0
 21 16  1  0  0  0  0
 21 41  1  0  0  0  0
 22 15  2  0  0  0  0
 22 42  1  0  0  0  0
 23 14  1  0  0  0  0
 23 19  2  0  0  0  0
 23 43  1  0  0  0  0
 24 10  1  0  0  0  0
 24 44  1  0  0  0  0
 24 45  1  0  0  0  0
 25  5  1  0  0  0  0
 25 46  1  0  0  0  0
 26 24  1  0  0  0  0
 26 47  1  0  0  0  0
 26 48  1  0  0  0  0
 27 13  1  0  0  0  0
 27 29  2  0  0  0  0
 27 49  1  0  0  0  0
 28 25  2  0  0  0  0
 28 50  1  0  0  0  0
 29 28  1  0  0  0  0
 29 51  1  0  0  0  0
M  END
>  <Mol_ID>
8663

>  <Formula>
C24H21ClN2O3

>  <MolWeight>
420.88814

>  <Cat>
P2362

>  <Name>
WAY-324965

>  <Synonyms>
N/A

>  <Target>
beta2 integrin

>  <Form>
free base

>  <CAS>
889807-15-2

>  <URL>
N/A

$$$$
