WAY-325003
 OpenBabel08302521423D

 60 62  0  0  0  0  0  0  0  0999 V2000
    1.0311   -0.0420   -0.1252 S   0  0  0  0  0  0  0  0  0  0  0  0
    0.2471    0.1645   -1.7388 C   0  0  0  0  0  0  0  0  0  0  0  0
    1.6171   -6.8960   -0.7193 C   0  0  0  0  0  0  0  0  0  0  0  0
    0.3892   -1.4704    0.4621 N   0  0  0  0  0  0  0  0  0  0  0  0
   -1.0092    0.8163   -1.7323 C   0  0  0  0  0  0  0  0  0  0  0  0
    0.8827   -0.1524   -2.9593 C   0  0  0  0  0  0  0  0  0  0  0  0
   -1.6635    1.1909   -2.9166 C   0  0  0  0  0  0  0  0  0  0  0  0
    1.2335   -7.4379   -1.9414 N   0  0  0  0  0  0  0  0  0  0  0  0
    0.2638    0.2776   -4.1586 C   0  0  0  0  0  0  0  0  0  0  0  0
   -0.9953    0.9125   -4.1169 C   0  0  0  0  0  0  0  0  0  0  0  0
    0.4848    0.9862    0.7380 O   0  0  0  0  0  0  0  0  0  0  0  0
    2.4600   -0.1746   -0.2736 O   0  0  0  0  0  0  0  0  0  0  0  0
    1.3661   -5.4499   -0.4766 C   0  0  0  0  0  0  0  0  0  0  0  0
   -3.0247    1.9130   -2.9381 C   0  0  0  0  0  0  0  0  0  0  0  0
    2.0863   -7.5678    0.1960 O   0  0  0  0  0  0  0  0  0  0  0  0
    0.8140   -2.7527    0.0491 C   0  0  0  0  0  0  0  0  0  0  0  0
   -0.1729   -8.5506   -4.1500 O   0  0  0  0  0  0  0  0  0  0  0  0
    0.1505   -4.8797   -0.8726 C   0  0  0  0  0  0  0  0  0  0  0  0
    2.2871   -4.6735    0.2422 C   0  0  0  0  0  0  0  0  0  0  0  0
    2.0075   -3.3235    0.5068 C   0  0  0  0  0  0  0  0  0  0  0  0
   -0.1113   -3.5343   -0.6292 C   0  0  0  0  0  0  0  0  0  0  0  0
    1.1504   -8.8896   -2.1067 C   0  0  0  0  0  0  0  0  0  0  0  0
    1.1345   -6.7074   -3.2106 C   0  0  0  0  0  0  0  0  0  0  0  0
    2.2048   -0.8686   -3.0226 C   0  0  0  0  0  0  0  0  0  0  0  0
    0.8784    0.1156   -5.5283 C   0  0  0  0  0  0  0  0  0  0  0  0
   -3.6063    2.1681   -1.5302 C   0  0  0  0  0  0  0  0  0  0  0  0
   -2.8885    3.2869   -3.6335 C   0  0  0  0  0  0  0  0  0  0  0  0
   -4.0594    1.0680   -3.7140 C   0  0  0  0  0  0  0  0  0  0  0  0
   -0.1341   -7.1270   -3.9599 C   0  0  0  0  0  0  0  0  0  0  0  0
   -0.1222   -9.2434   -2.8888 C   0  0  0  0  0  0  0  0  0  0  0  0
   -0.0556   -1.3807    1.3724 H   0  0  0  0  0  0  0  0  0  0  0  0
   -1.4567    1.0509   -0.7694 H   0  0  0  0  0  0  0  0  0  0  0  0
   -1.4478    1.2131   -5.0633 H   0  0  0  0  0  0  0  0  0  0  0  0
   -0.6139   -5.4858   -1.3507 H   0  0  0  0  0  0  0  0  0  0  0  0
    3.1987   -5.1283    0.6221 H   0  0  0  0  0  0  0  0  0  0  0  0
    2.7113   -2.7402    1.0972 H   0  0  0  0  0  0  0  0  0  0  0  0
   -1.0625   -3.1086   -0.9427 H   0  0  0  0  0  0  0  0  0  0  0  0
    2.0381   -9.1988   -2.6709 H   0  0  0  0  0  0  0  0  0  0  0  0
    1.1574   -9.4007   -1.1396 H   0  0  0  0  0  0  0  0  0  0  0  0
    2.0187   -6.9909   -3.7948 H   0  0  0  0  0  0  0  0  0  0  0  0
    1.1791   -5.6255   -3.0799 H   0  0  0  0  0  0  0  0  0  0  0  0
    2.2517   -1.5320   -3.8917 H   0  0  0  0  0  0  0  0  0  0  0  0
    3.0241   -0.1453   -3.0767 H   0  0  0  0  0  0  0  0  0  0  0  0
    2.3572   -1.5392   -2.1766 H   0  0  0  0  0  0  0  0  0  0  0  0
    0.3024   -0.6092   -6.1123 H   0  0  0  0  0  0  0  0  0  0  0  0
    0.8711    1.0785   -6.0529 H   0  0  0  0  0  0  0  0  0  0  0  0
    1.9202   -0.2092   -5.5045 H   0  0  0  0  0  0  0  0  0  0  0  0
   -2.9493    2.8139   -0.9359 H   0  0  0  0  0  0  0  0  0  0  0  0
   -4.5820    2.6647   -1.5865 H   0  0  0  0  0  0  0  0  0  0  0  0
   -3.7525    1.2309   -0.9805 H   0  0  0  0  0  0  0  0  0  0  0  0
   -2.5543    3.1968   -4.6730 H   0  0  0  0  0  0  0  0  0  0  0  0
   -3.8497    3.8150   -3.6545 H   0  0  0  0  0  0  0  0  0  0  0  0
   -2.1683    3.9266   -3.1105 H   0  0  0  0  0  0  0  0  0  0  0  0
   -3.7669    0.9084   -4.7577 H   0  0  0  0  0  0  0  0  0  0  0  0
   -4.1922    0.0825   -3.2532 H   0  0  0  0  0  0  0  0  0  0  0  0
   -5.0386    1.5625   -3.7297 H   0  0  0  0  0  0  0  0  0  0  0  0
   -1.0359   -6.8185   -3.4177 H   0  0  0  0  0  0  0  0  0  0  0  0
   -0.1590   -6.6557   -4.9470 H   0  0  0  0  0  0  0  0  0  0  0  0
   -0.1528  -10.3169   -3.0981 H   0  0  0  0  0  0  0  0  0  0  0  0
   -1.0194   -8.9870   -2.3122 H   0  0  0  0  0  0  0  0  0  0  0  0
  2  1  1  0  0  0  0
  3 13  1  0  0  0  0
  4  1  1  0  0  0  0
  4 31  1  0  0  0  0
  5  2  2  0  0  0  0
  5 32  1  0  0  0  0
  6  2  1  0  0  0  0
  7  5  1  0  0  0  0
  7 10  2  0  0  0  0
  8  3  1  0  0  0  0
  9  6  2  0  0  0  0
 10  9  1  0  0  0  0
 10 33  1  0  0  0  0
 11  1  2  0  0  0  0
 12  1  2  0  0  0  0
 13 18  2  0  0  0  0
 14  7  1  0  0  0  0
 15  3  2  0  0  0  0
 16  4  1  0  0  0  0
 17 29  1  0  0  0  0
 18 21  1  0  0  0  0
 18 34  1  0  0  0  0
 19 20  2  0  0  0  0
 19 13  1  0  0  0  0
 19 35  1  0  0  0  0
 20 16  1  0  0  0  0
 20 36  1  0  0  0  0
 21 16  2  0  0  0  0
 21 37  1  0  0  0  0
 22  8  1  0  0  0  0
 22 38  1  0  0  0  0
 22 39  1  0  0  0  0
 23  8  1  0  0  0  0
 23 40  1  0  0  0  0
 23 41  1  0  0  0  0
 24  6  1  0  0  0  0
 24 42  1  0  0  0  0
 24 43  1  0  0  0  0
 24 44  1  0  0  0  0
 25  9  1  0  0  0  0
 25 45  1  0  0  0  0
 25 46  1  0  0  0  0
 25 47  1  0  0  0  0
 26 14  1  0  0  0  0
 26 48  1  0  0  0  0
 26 49  1  0  0  0  0
 26 50  1  0  0  0  0
 27 14  1  0  0  0  0
 27 51  1  0  0  0  0
 27 52  1  0  0  0  0
 27 53  1  0  0  0  0
 28 14  1  0  0  0  0
 28 54  1  0  0  0  0
 28 55  1  0  0  0  0
 28 56  1  0  0  0  0
 29 23  1  0  0  0  0
 29 57  1  0  0  0  0
 29 58  1  0  0  0  0
 30 22  1  0  0  0  0
 30 17  1  0  0  0  0
 30 59  1  0  0  0  0
 30 60  1  0  0  0  0
M  END
>  <Mol_ID>
8665

>  <Formula>
C23H30N2O4S

>  <MolWeight>
430.5603

>  <Cat>
P2364

>  <Name>
WAY-325003

>  <Synonyms>
N/A

>  <Target>
GD3S

>  <Form>
free base

>  <CAS>
670256-05-0

>  <URL>
N/A

$$$$
