WAY-659611
 OpenBabel08302521433D

 48 50  0  0  0  0  0  0  0  0999 V2000
    1.0954   -0.0019    0.1923 S   0  0  0  0  0  0  0  0  0  0  0  0
   -0.2271    2.3006   -2.8819 C   0  0  0  0  0  0  0  0  0  0  0  0
    0.5586    0.5403   -1.4208 C   0  0  0  0  0  0  0  0  0  0  0  0
   -0.2318   -1.0141    0.6562 N   0  0  0  0  0  0  0  0  0  0  0  0
    0.5115    1.9049   -1.7582 C   0  0  0  0  0  0  0  0  0  0  0  0
   -0.2728    3.7099   -3.4005 C   0  0  0  0  0  0  0  0  0  0  0  0
    1.0963    1.1498    1.0753 O   0  0  0  0  0  0  0  0  0  0  0  0
    2.2731   -0.8189   -0.0022 O   0  0  0  0  0  0  0  0  0  0  0  0
   -0.9606    1.3241   -3.5852 C   0  0  0  0  0  0  0  0  0  0  0  0
    0.5797    4.5305   -2.7337 O   0  0  0  0  0  0  0  0  0  0  0  0
   -0.3427    6.8487   -2.7052 C   0  0  0  0  0  0  0  0  0  0  0  0
   -0.2029    8.3329   -2.9456 C   0  0  0  0  0  0  0  0  0  0  0  0
   -0.0176   -0.4361   -2.2401 C   0  0  0  0  0  0  0  0  0  0  0  0
   -0.9328    4.0304   -4.3779 O   0  0  0  0  0  0  0  0  0  0  0  0
    0.7051    5.8760   -3.2485 C   0  0  0  0  0  0  0  0  0  0  0  0
   -0.8270   -0.0380   -3.2906 C   0  0  0  0  0  0  0  0  0  0  0  0
   -1.3010    6.4524   -2.0219 O   0  0  0  0  0  0  0  0  0  0  0  0
    0.8505    8.9109   -3.6716 C   0  0  0  0  0  0  0  0  0  0  0  0
   -1.1681    9.1809   -2.3707 C   0  0  0  0  0  0  0  0  0  0  0  0
   -0.0143   11.1266   -3.1902 C   0  0  0  0  0  0  0  0  0  0  0  0
   -1.0727   10.5718   -2.4918 C   0  0  0  0  0  0  0  0  0  0  0  0
    0.9382   10.3169   -3.7904 C   0  0  0  0  0  0  0  0  0  0  0  0
    0.0925   12.4643   -3.2849 F   0  0  0  0  0  0  0  0  0  0  0  0
   -1.4802   -0.2602    0.9753 C   0  0  0  0  0  0  0  0  0  0  0  0
    0.1152   -2.0462    1.6654 C   0  0  0  0  0  0  0  0  0  0  0  0
   -1.0666   -2.9945    1.9049 C   0  0  0  0  0  0  0  0  0  0  0  0
   -2.6479   -1.2205    1.1712 C   0  0  0  0  0  0  0  0  0  0  0  0
   -2.3339   -2.2321    2.2639 C   0  0  0  0  0  0  0  0  0  0  0  0
    1.0164    2.6382   -1.1344 H   0  0  0  0  0  0  0  0  0  0  0  0
   -1.6433    1.6191   -4.3805 H   0  0  0  0  0  0  0  0  0  0  0  0
    0.0979   -1.4924   -2.0013 H   0  0  0  0  0  0  0  0  0  0  0  0
    1.6933    6.2220   -2.9285 H   0  0  0  0  0  0  0  0  0  0  0  0
    0.6776    5.8779   -4.3443 H   0  0  0  0  0  0  0  0  0  0  0  0
   -1.3759   -0.7847   -3.8592 H   0  0  0  0  0  0  0  0  0  0  0  0
    1.6126    8.3105   -4.1555 H   0  0  0  0  0  0  0  0  0  0  0  0
   -2.0038    8.7582   -1.8091 H   0  0  0  0  0  0  0  0  0  0  0  0
   -1.8257   11.2204   -2.0316 H   0  0  0  0  0  0  0  0  0  0  0  0
    1.7527   10.7732   -4.3361 H   0  0  0  0  0  0  0  0  0  0  0  0
   -1.7335    0.4128    0.1498 H   0  0  0  0  0  0  0  0  0  0  0  0
   -1.3347    0.3415    1.8793 H   0  0  0  0  0  0  0  0  0  0  0  0
    0.4206   -1.5754    2.6031 H   0  0  0  0  0  0  0  0  0  0  0  0
    0.9481   -2.6542    1.2901 H   0  0  0  0  0  0  0  0  0  0  0  0
   -0.8189   -3.6998    2.7056 H   0  0  0  0  0  0  0  0  0  0  0  0
   -1.2514   -3.5898    1.0019 H   0  0  0  0  0  0  0  0  0  0  0  0
   -2.8568   -1.7504    0.2329 H   0  0  0  0  0  0  0  0  0  0  0  0
   -3.5513   -0.6586    1.4325 H   0  0  0  0  0  0  0  0  0  0  0  0
   -3.1723   -2.9284    2.3832 H   0  0  0  0  0  0  0  0  0  0  0  0
   -2.2022   -1.7181    3.2243 H   0  0  0  0  0  0  0  0  0  0  0  0
  2  5  2  0  0  0  0
  3  1  1  0  0  0  0
  4  1  1  0  0  0  0
  5  3  1  0  0  0  0
  5 29  1  0  0  0  0
  6  2  1  0  0  0  0
  7  1  2  0  0  0  0
  8  1  2  0  0  0  0
  9 16  2  0  0  0  0
  9  2  1  0  0  0  0
  9 30  1  0  0  0  0
 10  6  1  0  0  0  0
 11 15  1  0  0  0  0
 12 11  1  0  0  0  0
 13  3  2  0  0  0  0
 13 31  1  0  0  0  0
 14  6  2  0  0  0  0
 15 10  1  0  0  0  0
 15 32  1  0  0  0  0
 15 33  1  0  0  0  0
 16 13  1  0  0  0  0
 16 34  1  0  0  0  0
 17 11  2  0  0  0  0
 18 12  2  0  0  0  0
 18 35  1  0  0  0  0
 19 12  1  0  0  0  0
 19 36  1  0  0  0  0
 20 21  1  0  0  0  0
 21 19  2  0  0  0  0
 21 37  1  0  0  0  0
 22 18  1  0  0  0  0
 22 20  2  0  0  0  0
 22 38  1  0  0  0  0
 23 20  1  0  0  0  0
 24  4  1  0  0  0  0
 24 39  1  0  0  0  0
 24 40  1  0  0  0  0
 25  4  1  0  0  0  0
 25 41  1  0  0  0  0
 25 42  1  0  0  0  0
 26 25  1  0  0  0  0
 26 43  1  0  0  0  0
 26 44  1  0  0  0  0
 27 24  1  0  0  0  0
 27 45  1  0  0  0  0
 27 46  1  0  0  0  0
 28 26  1  0  0  0  0
 28 27  1  0  0  0  0
 28 47  1  0  0  0  0
 28 48  1  0  0  0  0
M  END
>  <Mol_ID>
8841

>  <Formula>
C20H19ClFNO5S

>  <MolWeight>
439.8849632

>  <Cat>
P3188

>  <Name>
WAY-659611

>  <Synonyms>
N/A

>  <Target>
mGluR2

>  <Form>
free base

>  <CAS>
867296-94-4

>  <URL>
N/A

$$$$
