WAY-660211
 OpenBabel08302521443D

 47 49  0  0  0  0  0  0  0  0999 V2000
    0.8343    0.1227   -0.2967 S   0  0  0  0  0  0  0  0  0  0  0  0
    0.0905    1.3097    0.6570 N   0  0  0  0  0  0  0  0  0  0  0  0
   -0.8344    2.0695   -0.0898 C   0  0  0  0  0  0  0  0  0  0  0  0
   -1.3920   -5.2538    3.3367 C   0  0  0  0  0  0  0  0  0  0  0  0
   -0.4841    3.2548   -0.5196 N   0  0  0  0  0  0  0  0  0  0  0  0
   -1.5330   -6.7431    3.8400 C   0  0  0  0  0  0  0  0  0  0  0  0
    0.3050   -1.3734    0.4977 C   0  0  0  0  0  0  0  0  0  0  0  0
   -0.9132   -5.0838    2.0387 N   0  0  0  0  0  0  0  0  0  0  0  0
   -2.4534    1.5985   -0.3635 S   0  0  0  0  0  0  0  0  0  0  0  0
    2.2583    0.2592   -0.0496 O   0  0  0  0  0  0  0  0  0  0  0  0
    0.3129    0.1092   -1.6423 O   0  0  0  0  0  0  0  0  0  0  0  0
   -0.5285   -7.2570    4.7340 O   0  0  0  0  0  0  0  0  0  0  0  0
   -1.5313    3.7873   -1.2490 C   0  0  0  0  0  0  0  0  0  0  0  0
   -1.6659   -4.2968    4.0622 O   0  0  0  0  0  0  0  0  0  0  0  0
   -2.6946    3.0452   -1.2533 C   0  0  0  0  0  0  0  0  0  0  0  0
   -0.8849   -1.9724    0.0754 C   0  0  0  0  0  0  0  0  0  0  0  0
    1.1107   -1.9937    1.4497 C   0  0  0  0  0  0  0  0  0  0  0  0
   -0.4982   -3.8132    1.5851 C   0  0  0  0  0  0  0  0  0  0  0  0
    0.7735   -7.4026    4.3633 C   0  0  0  0  0  0  0  0  0  0  0  0
    3.5023   -7.8138    3.7594 C   0  0  0  0  0  0  0  0  0  0  0  0
   -1.2834   -3.1908    0.6212 C   0  0  0  0  0  0  0  0  0  0  0  0
    0.7059   -3.2149    1.9974 C   0  0  0  0  0  0  0  0  0  0  0  0
    1.4771   -6.5346    3.5443 C   0  0  0  0  0  0  0  0  0  0  0  0
    1.4793   -8.4535    4.9461 C   0  0  0  0  0  0  0  0  0  0  0  0
    2.8371   -8.6520    4.6524 C   0  0  0  0  0  0  0  0  0  0  0  0
    2.8153   -6.7450    3.2036 C   0  0  0  0  0  0  0  0  0  0  0  0
   -2.8159   -6.7389    4.7144 C   0  0  0  0  0  0  0  0  0  0  0  0
   -1.8084   -7.7539    2.7104 C   0  0  0  0  0  0  0  0  0  0  0  0
    0.8408    1.9254    0.9745 H   0  0  0  0  0  0  0  0  0  0  0  0
   -0.3912   -5.8601    1.6500 H   0  0  0  0  0  0  0  0  0  0  0  0
   -1.3965    4.7354   -1.7558 H   0  0  0  0  0  0  0  0  0  0  0  0
   -3.6398    3.2711   -1.7251 H   0  0  0  0  0  0  0  0  0  0  0  0
   -1.5009   -1.5079   -0.6904 H   0  0  0  0  0  0  0  0  0  0  0  0
    2.0551   -1.5475    1.7664 H   0  0  0  0  0  0  0  0  0  0  0  0
    4.5504   -7.9644    3.5249 H   0  0  0  0  0  0  0  0  0  0  0  0
   -2.2084   -3.6540    0.2871 H   0  0  0  0  0  0  0  0  0  0  0  0
    1.3491   -3.6659    2.7441 H   0  0  0  0  0  0  0  0  0  0  0  0
    1.0365   -5.6243    3.2062 H   0  0  0  0  0  0  0  0  0  0  0  0
    0.9826   -9.1137    5.6527 H   0  0  0  0  0  0  0  0  0  0  0  0
    3.3837   -9.4591    5.1340 H   0  0  0  0  0  0  0  0  0  0  0  0
    3.3165   -6.0487    2.5357 H   0  0  0  0  0  0  0  0  0  0  0  0
   -3.6844   -6.3630    4.1606 H   0  0  0  0  0  0  0  0  0  0  0  0
   -3.0515   -7.7448    5.0829 H   0  0  0  0  0  0  0  0  0  0  0  0
   -2.6840   -6.1125    5.6048 H   0  0  0  0  0  0  0  0  0  0  0  0
   -2.6246   -7.4197    2.0593 H   0  0  0  0  0  0  0  0  0  0  0  0
   -0.9257   -7.9246    2.0871 H   0  0  0  0  0  0  0  0  0  0  0  0
   -2.0820   -8.7342    3.1212 H   0  0  0  0  0  0  0  0  0  0  0  0
  2  1  1  0  0  0  0
  2 29  1  0  0  0  0
  3  2  1  0  0  0  0
  4  8  1  0  0  0  0
  5  3  2  0  0  0  0
  6  4  1  0  0  0  0
  7  1  1  0  0  0  0
  8 18  1  0  0  0  0
  8 30  1  0  0  0  0
  9  3  1  0  0  0  0
 10  1  2  0  0  0  0
 11  1  2  0  0  0  0
 12  6  1  0  0  0  0
 13  5  1  0  0  0  0
 13 31  1  0  0  0  0
 14  4  2  0  0  0  0
 15  9  1  0  0  0  0
 15 13  2  0  0  0  0
 15 32  1  0  0  0  0
 16  7  2  0  0  0  0
 16 33  1  0  0  0  0
 17  7  1  0  0  0  0
 17 34  1  0  0  0  0
 18 22  1  0  0  0  0
 18 21  2  0  0  0  0
 19 12  1  0  0  0  0
 20 25  2  0  0  0  0
 20 26  1  0  0  0  0
 20 35  1  0  0  0  0
 21 16  1  0  0  0  0
 21 36  1  0  0  0  0
 22 17  2  0  0  0  0
 22 37  1  0  0  0  0
 23 19  1  0  0  0  0
 23 38  1  0  0  0  0
 24 19  2  0  0  0  0
 24 39  1  0  0  0  0
 25 24  1  0  0  0  0
 25 40  1  0  0  0  0
 26 23  2  0  0  0  0
 26 41  1  0  0  0  0
 27  6  1  0  0  0  0
 27 42  1  0  0  0  0
 27 43  1  0  0  0  0
 27 44  1  0  0  0  0
 28  6  1  0  0  0  0
 28 45  1  0  0  0  0
 28 46  1  0  0  0  0
 28 47  1  0  0  0  0
M  END
>  <Mol_ID>
9116

>  <Formula>
C19H18ClN3O4S2

>  <MolWeight>
451.94692

>  <Cat>
P3196

>  <Name>
WAY-660211

>  <Synonyms>
N/A

>  <Target>
voltage-gated sodium channels

>  <Form>
free base

>  <CAS>
587843-16-1

>  <URL>
N/A

$$$$
