WAY-641966
 OpenBabel08302521353D

 40 43  0  0  0  0  0  0  0  0999 V2000
    0.8424    0.1337    0.0630 N   0  0  0  0  0  0  0  0  0  0  0  0
    0.8972   -1.3238    0.0553 C   0  0  0  0  0  0  0  0  0  0  0  0
    0.2252    0.7573    1.1550 C   0  0  0  0  0  0  0  0  0  0  0  0
    0.6123    2.0403    1.5776 C   0  0  0  0  0  0  0  0  0  0  0  0
   -0.8175    0.1211    1.7021 N   0  0  0  0  0  0  0  0  0  0  0  0
   -0.1896    2.6027    2.5885 C   0  0  0  0  0  0  0  0  0  0  0  0
    1.7260    2.7758    1.0958 C   0  0  0  0  0  0  0  0  0  0  0  0
   -1.5332    0.7560    2.6439 C   0  0  0  0  0  0  0  0  0  0  0  0
   -1.2486    1.9812    3.1114 N   0  0  0  0  0  0  0  0  0  0  0  0
    0.1301    3.8668    3.0691 C   0  0  0  0  0  0  0  0  0  0  0  0
    2.0311    4.0377    1.6018 C   0  0  0  0  0  0  0  0  0  0  0  0
    1.2255    4.5881    2.5880 C   0  0  0  0  0  0  0  0  0  0  0  0
   -2.7303    0.0616    3.1654 C   0  0  0  0  0  0  0  0  0  0  0  0
   -3.1530   -1.1683    2.6212 C   0  0  0  0  0  0  0  0  0  0  0  0
   -3.4978    0.5977    4.2168 C   0  0  0  0  0  0  0  0  0  0  0  0
   -4.2777   -1.8366    3.1087 C   0  0  0  0  0  0  0  0  0  0  0  0
   -4.6271   -0.0732    4.7089 C   0  0  0  0  0  0  0  0  0  0  0  0
   -5.0122   -1.2929    4.1567 C   0  0  0  0  0  0  0  0  0  0  0  0
   -0.2302   -1.9785   -0.7123 C   0  0  0  0  0  0  0  0  0  0  0  0
   -1.3173   -1.2663   -1.2270 C   0  0  0  0  0  0  0  0  0  0  0  0
   -0.2148   -3.3660   -0.8919 C   0  0  0  0  0  0  0  0  0  0  0  0
   -2.3352   -1.9589   -1.8617 C   0  0  0  0  0  0  0  0  0  0  0  0
   -1.2767   -3.9698   -1.5500 C   0  0  0  0  0  0  0  0  0  0  0  0
   -2.3394   -3.2971   -2.0373 N   0  0  0  0  0  0  0  0  0  0  0  0
    1.6596    0.5828   -0.3177 H   0  0  0  0  0  0  0  0  0  0  0  0
    1.8363   -1.6073   -0.4390 H   0  0  0  0  0  0  0  0  0  0  0  0
    0.9479   -1.7375    1.0710 H   0  0  0  0  0  0  0  0  0  0  0  0
    2.3799    2.3651    0.3337 H   0  0  0  0  0  0  0  0  0  0  0  0
   -0.4947    4.3074    3.8436 H   0  0  0  0  0  0  0  0  0  0  0  0
    2.8904    4.5864    1.2261 H   0  0  0  0  0  0  0  0  0  0  0  0
    1.4454    5.5743    2.9897 H   0  0  0  0  0  0  0  0  0  0  0  0
   -2.5993   -1.6177    1.7966 H   0  0  0  0  0  0  0  0  0  0  0  0
   -3.2176    1.5459    4.6674 H   0  0  0  0  0  0  0  0  0  0  0  0
   -4.5742   -2.7869    2.6658 H   0  0  0  0  0  0  0  0  0  0  0  0
   -5.2064    0.3616    5.5207 H   0  0  0  0  0  0  0  0  0  0  0  0
   -5.8854   -1.8136    4.5371 H   0  0  0  0  0  0  0  0  0  0  0  0
   -1.3931   -0.1893   -1.1161 H   0  0  0  0  0  0  0  0  0  0  0  0
    0.6018   -3.9750   -0.5187 H   0  0  0  0  0  0  0  0  0  0  0  0
   -3.2039   -1.4346   -2.2484 H   0  0  0  0  0  0  0  0  0  0  0  0
   -1.3029   -5.0444   -1.7003 H   0  0  0  0  0  0  0  0  0  0  0  0
  1  2  1  0  0  0  0
  1  3  1  0  0  0  0
  1 25  1  0  0  0  0
  2 19  1  0  0  0  0
  2 26  1  0  0  0  0
  2 27  1  0  0  0  0
  3  4  1  0  0  0  0
  3  5  2  0  0  0  0
  4  6  2  0  0  0  0
  4  7  1  0  0  0  0
  5  8  1  0  0  0  0
  6  9  1  0  0  0  0
  6 10  1  0  0  0  0
  7 11  2  0  0  0  0
  7 28  1  0  0  0  0
  8  9  2  0  0  0  0
  8 13  1  0  0  0  0
 10 12  2  0  0  0  0
 10 29  1  0  0  0  0
 11 12  1  0  0  0  0
 11 30  1  0  0  0  0
 12 31  1  0  0  0  0
 13 14  2  0  0  0  0
 13 15  1  0  0  0  0
 14 16  1  0  0  0  0
 14 32  1  0  0  0  0
 15 17  2  0  0  0  0
 15 33  1  0  0  0  0
 16 18  2  0  0  0  0
 16 34  1  0  0  0  0
 17 18  1  0  0  0  0
 17 35  1  0  0  0  0
 18 36  1  0  0  0  0
 19 20  2  0  0  0  0
 19 21  1  0  0  0  0
 20 22  1  0  0  0  0
 20 37  1  0  0  0  0
 21 23  2  0  0  0  0
 21 38  1  0  0  0  0
 22 24  2  0  0  0  0
 22 39  1  0  0  0  0
 23 24  1  0  0  0  0
 23 40  1  0  0  0  0
M  END
>  <Mol_ID>
6924

>  <Formula>
C20H16N4

>  <MolWeight>
312.36784

>  <Cat>
E2807

>  <Name>
WAY-641966

>  <Target>
TGF-¦Â,p38-¦Á

>  <Form>
Free base

>  <CAS>
259870-32-1

>  <URL>
https://www.selleckchem.com/products/way-641966.html

$$$$
