WAY-300492
 OpenBabel08302521413D

 54 57  0  0  0  0  0  0  0  0999 V2000
   -0.2867   -1.2009   -0.0044 N   0  0  0  0  0  0  0  0  0  0  0  0
    0.9736   -0.6060   -0.0501 C   0  0  0  0  0  0  0  0  0  0  0  0
   -1.1967   -0.1834   -0.1883 C   0  0  0  0  0  0  0  0  0  0  0  0
   -0.5881   -2.5935    0.2837 C   0  0  0  0  0  0  0  0  0  0  0  0
    2.2999   -1.2509    0.0130 C   0  0  0  0  0  0  0  0  0  0  0  0
    0.7824    0.7010   -0.1407 N   0  0  0  0  0  0  0  0  0  0  0  0
   -0.5645    0.9611   -0.2500 N   0  0  0  0  0  0  0  0  0  0  0  0
   -2.9117   -0.4208   -0.3653 S   0  0  0  0  0  0  0  0  0  0  0  0
   -0.5120   -3.5122   -0.9206 C   0  0  0  0  0  0  0  0  0  0  0  0
    2.5993   -2.4966   -0.5452 C   0  0  0  0  0  0  0  0  0  0  0  0
    3.3823   -0.5928    0.5936 C   0  0  0  0  0  0  0  0  0  0  0  0
   -3.4930    1.2604   -0.7823 C   0  0  0  0  0  0  0  0  0  0  0  0
   -0.4275   -3.0426   -2.2435 C   0  0  0  0  0  0  0  0  0  0  0  0
   -0.3904   -4.8946   -0.6926 C   0  0  0  0  0  0  0  0  0  0  0  0
    3.8762   -3.0529   -0.4570 C   0  0  0  0  0  0  0  0  0  0  0  0
    4.6421   -1.1003    0.6942 N   0  0  0  0  0  0  0  0  0  0  0  0
   -5.0035    1.2784   -1.0563 C   0  0  0  0  0  0  0  0  0  0  0  0
   -0.1141   -3.9148   -3.2873 C   0  0  0  0  0  0  0  0  0  0  0  0
   -0.1024   -5.7666   -1.7444 C   0  0  0  0  0  0  0  0  0  0  0  0
    4.8591   -2.3248    0.1697 C   0  0  0  0  0  0  0  0  0  0  0  0
   -5.3831    0.4861   -2.1387 N   0  0  0  0  0  0  0  0  0  0  0  0
   -5.7661    1.9622   -0.3810 O   0  0  0  0  0  0  0  0  0  0  0  0
    0.0609   -5.2726   -3.0363 C   0  0  0  0  0  0  0  0  0  0  0  0
   -6.7309    0.2981   -2.5433 C   0  0  0  0  0  0  0  0  0  0  0  0
   -7.5688    1.3863   -2.8904 C   0  0  0  0  0  0  0  0  0  0  0  0
   -7.2277   -1.0205   -2.6710 C   0  0  0  0  0  0  0  0  0  0  0  0
   -8.9077    1.1425   -3.2564 C   0  0  0  0  0  0  0  0  0  0  0  0
   -7.1093    2.8171   -2.9610 C   0  0  0  0  0  0  0  0  0  0  0  0
   -8.5686   -1.2234   -3.0561 C   0  0  0  0  0  0  0  0  0  0  0  0
   -6.4470   -2.2624   -2.3266 C   0  0  0  0  0  0  0  0  0  0  0  0
   -9.4066   -0.1507   -3.3343 C   0  0  0  0  0  0  0  0  0  0  0  0
    0.1506   -2.9132    1.0333 H   0  0  0  0  0  0  0  0  0  0  0  0
   -1.5682   -2.6622    0.7618 H   0  0  0  0  0  0  0  0  0  0  0  0
    1.8763   -3.0644   -1.1029 H   0  0  0  0  0  0  0  0  0  0  0  0
    3.2755    0.4062    1.0098 H   0  0  0  0  0  0  0  0  0  0  0  0
   -3.2911    1.9362    0.0556 H   0  0  0  0  0  0  0  0  0  0  0  0
   -2.9807    1.6364   -1.6713 H   0  0  0  0  0  0  0  0  0  0  0  0
   -0.5116   -1.9835   -2.4792 H   0  0  0  0  0  0  0  0  0  0  0  0
   -0.4622   -5.2987    0.3162 H   0  0  0  0  0  0  0  0  0  0  0  0
    4.0841   -4.0293   -0.8890 H   0  0  0  0  0  0  0  0  0  0  0  0
    0.0292   -3.5247   -4.2926 H   0  0  0  0  0  0  0  0  0  0  0  0
    0.0266   -6.8290   -1.5517 H   0  0  0  0  0  0  0  0  0  0  0  0
    5.8708   -2.7082    0.2564 H   0  0  0  0  0  0  0  0  0  0  0  0
   -4.7467   -0.2815   -2.3151 H   0  0  0  0  0  0  0  0  0  0  0  0
    0.3313   -5.9441   -3.8474 H   0  0  0  0  0  0  0  0  0  0  0  0
   -9.5641    1.9751   -3.5043 H   0  0  0  0  0  0  0  0  0  0  0  0
   -7.4823    3.2797   -3.8829 H   0  0  0  0  0  0  0  0  0  0  0  0
   -7.4936    3.3834   -2.1079 H   0  0  0  0  0  0  0  0  0  0  0  0
   -6.0208    2.9082   -2.9986 H   0  0  0  0  0  0  0  0  0  0  0  0
   -8.9701   -2.2326   -3.1226 H   0  0  0  0  0  0  0  0  0  0  0  0
   -6.8649   -2.7194   -1.4234 H   0  0  0  0  0  0  0  0  0  0  0  0
   -6.5099   -2.9803   -3.1508 H   0  0  0  0  0  0  0  0  0  0  0  0
   -5.3871   -2.0854   -2.1444 H   0  0  0  0  0  0  0  0  0  0  0  0
  -10.4407   -0.3243   -3.6217 H   0  0  0  0  0  0  0  0  0  0  0  0
  1  2  1  0  0  0  0
  1  3  1  0  0  0  0
  1  4  1  0  0  0  0
  2  5  1  0  0  0  0
  2  6  2  0  0  0  0
  3  7  2  0  0  0  0
  3  8  1  0  0  0  0
  4  9  1  0  0  0  0
  4 32  1  0  0  0  0
  4 33  1  0  0  0  0
  5 10  2  0  0  0  0
  5 11  1  0  0  0  0
  6  7  1  0  0  0  0
  8 12  1  0  0  0  0
  9 13  2  0  0  0  0
  9 14  1  0  0  0  0
 10 15  1  0  0  0  0
 10 34  1  0  0  0  0
 11 16  2  0  0  0  0
 11 35  1  0  0  0  0
 12 17  1  0  0  0  0
 12 36  1  0  0  0  0
 12 37  1  0  0  0  0
 13 18  1  0  0  0  0
 13 38  1  0  0  0  0
 14 19  2  0  0  0  0
 14 39  1  0  0  0  0
 15 20  2  0  0  0  0
 15 40  1  0  0  0  0
 16 20  1  0  0  0  0
 17 21  1  0  0  0  0
 17 22  2  0  0  0  0
 18 23  2  0  0  0  0
 18 41  1  0  0  0  0
 19 23  1  0  0  0  0
 19 42  1  0  0  0  0
 20 43  1  0  0  0  0
 21 24  1  0  0  0  0
 21 44  1  0  0  0  0
 23 45  1  0  0  0  0
 24 25  2  0  0  0  0
 24 26  1  0  0  0  0
 25 27  1  0  0  0  0
 25 28  1  0  0  0  0
 26 29  2  0  0  0  0
 26 30  1  0  0  0  0
 27 31  2  0  0  0  0
 27 46  1  0  0  0  0
 28 47  1  0  0  0  0
 28 48  1  0  0  0  0
 28 49  1  0  0  0  0
 29 31  1  0  0  0  0
 29 50  1  0  0  0  0
 30 51  1  0  0  0  0
 30 52  1  0  0  0  0
 30 53  1  0  0  0  0
 31 54  1  0  0  0  0
M  END
>  <Mol_ID>
8410

>  <Formula>
C24H23N5OS

>  <MolWeight>
429.53732

>  <Cat>
P2143

>  <Name>
WAY-300492

>  <Synonyms>
N/A

>  <Target>
olfactory receptor

>  <Form>
free base

>  <CAS>
483288-81-9

>  <URL>
N/A

$$$$
