WAY-348941
 OpenBabel08302521393D

 30 32  0  0  0  0  0  0  0  0999 V2000
   -1.0527   -3.6753    0.0367 C   0  0  0  0  0  0  0  0  0  0  0  0
   -3.8780   -0.4384   -0.5193 C   0  0  0  0  0  0  0  0  0  0  0  0
   -0.1482   -5.7143    0.0551 N   0  0  0  0  0  0  0  0  0  0  0  0
   -5.0199    0.4703   -0.4093 C   0  0  0  0  0  0  0  0  0  0  0  0
   -1.3322   -5.0280   -0.0213 C   0  0  0  0  0  0  0  0  0  0  0  0
    0.3686   -3.5497    0.1494 C   0  0  0  0  0  0  0  0  0  0  0  0
   -6.5042   -0.0090    0.3089 S   0  0  0  0  0  0  0  0  0  0  0  0
   -3.2668   -2.8082   -0.0493 N   0  0  0  0  0  0  0  0  0  0  0  0
    0.9061   -4.8360    0.1680 C   0  0  0  0  0  0  0  0  0  0  0  0
   -4.1249   -1.7341   -0.0638 N   0  0  0  0  0  0  0  0  0  0  0  0
   -5.0782    1.7887   -0.8285 C   0  0  0  0  0  0  0  0  0  0  0  0
   -2.8039   -0.0679   -0.9901 O   0  0  0  0  0  0  0  0  0  0  0  0
   -1.9953   -2.5751    0.0131 C   0  0  0  0  0  0  0  0  0  0  0  0
   -7.2123    1.5216    0.0445 C   0  0  0  0  0  0  0  0  0  0  0  0
   -6.3439    2.3924   -0.5725 C   0  0  0  0  0  0  0  0  0  0  0  0
    1.2446   -2.4498    0.2476 C   0  0  0  0  0  0  0  0  0  0  0  0
    2.2801   -5.0774    0.2860 C   0  0  0  0  0  0  0  0  0  0  0  0
    2.6187   -2.6714    0.3666 C   0  0  0  0  0  0  0  0  0  0  0  0
    3.1264   -3.9674    0.3869 C   0  0  0  0  0  0  0  0  0  0  0  0
   -0.0569   -6.7214    0.0391 H   0  0  0  0  0  0  0  0  0  0  0  0
   -2.2735   -5.5557   -0.1049 H   0  0  0  0  0  0  0  0  0  0  0  0
   -5.0894   -1.9765    0.1400 H   0  0  0  0  0  0  0  0  0  0  0  0
   -4.2439    2.2938   -1.3038 H   0  0  0  0  0  0  0  0  0  0  0  0
   -1.5564   -1.5710    0.0967 H   0  0  0  0  0  0  0  0  0  0  0  0
   -8.2313    1.7093    0.3545 H   0  0  0  0  0  0  0  0  0  0  0  0
   -6.6034    3.4130   -0.8272 H   0  0  0  0  0  0  0  0  0  0  0  0
    0.8605   -1.4336    0.2316 H   0  0  0  0  0  0  0  0  0  0  0  0
    2.6830   -6.0847    0.3019 H   0  0  0  0  0  0  0  0  0  0  0  0
    3.2913   -1.8209    0.4441 H   0  0  0  0  0  0  0  0  0  0  0  0
    4.1989   -4.1183    0.4827 H   0  0  0  0  0  0  0  0  0  0  0  0
  2 10  1  0  0  0  0
  3  5  1  0  0  0  0
  3  9  1  0  0  0  0
  3 20  1  0  0  0  0
  4  2  1  0  0  0  0
  5  1  2  0  0  0  0
  5 21  1  0  0  0  0
  6  1  1  0  0  0  0
  7  4  1  0  0  0  0
  8 13  2  0  0  0  0
  9  6  2  0  0  0  0
 10  8  1  0  0  0  0
 10 22  1  0  0  0  0
 11  4  2  0  0  0  0
 11 23  1  0  0  0  0
 12  2  2  0  0  0  0
 13  1  1  0  0  0  0
 13 24  1  0  0  0  0
 14  7  1  0  0  0  0
 14 25  1  0  0  0  0
 15 11  1  0  0  0  0
 15 14  2  0  0  0  0
 15 26  1  0  0  0  0
 16  6  1  0  0  0  0
 16 27  1  0  0  0  0
 17  9  1  0  0  0  0
 17 19  2  0  0  0  0
 17 28  1  0  0  0  0
 18 16  2  0  0  0  0
 18 29  1  0  0  0  0
 19 18  1  0  0  0  0
 19 30  1  0  0  0  0
M  END
>  <Mol_ID>
8064

>  <Formula>
C14H11N3OS

>  <MolWeight>
269.32164

>  <Cat>
P2755

>  <Name>
WAY-348941

>  <Synonyms>
N/A

>  <Target>
CD4 D1

>  <Form>
free base

>  <CAS>
113143-13-8

>  <URL>
N/A

$$$$
