WAY-300408
 OpenBabel08302521413D

 47 49  0  0  0  0  0  0  0  0999 V2000
    1.3928   -0.2154    0.0743 C   0  0  0  0  0  0  0  0  0  0  0  0
    3.1247   -0.5318    0.1787 S   0  0  0  0  0  0  0  0  0  0  0  0
    0.5061   -1.2840    0.0190 C   0  0  0  0  0  0  0  0  0  0  0  0
    0.9262    1.1022    0.0694 C   0  0  0  0  0  0  0  0  0  0  0  0
    3.5519   -0.6624   -1.4578 N   0  0  0  0  0  0  0  0  0  0  0  0
    3.7814    0.6099    0.7748 O   0  0  0  0  0  0  0  0  0  0  0  0
    3.3165   -1.8600    0.7235 O   0  0  0  0  0  0  0  0  0  0  0  0
   -0.8615   -1.0275   -0.0655 C   0  0  0  0  0  0  0  0  0  0  0  0
   -0.4492    1.3492   -0.0191 C   0  0  0  0  0  0  0  0  0  0  0  0
    3.9884    0.5591   -2.0252 C   0  0  0  0  0  0  0  0  0  0  0  0
   -1.3580    0.2835   -0.0719 C   0  0  0  0  0  0  0  0  0  0  0  0
    5.2957    0.9649   -2.1659 C   0  0  0  0  0  0  0  0  0  0  0  0
    3.1613    1.4846   -2.5773 O   0  0  0  0  0  0  0  0  0  0  0  0
   -2.7425    0.5793   -0.1261 N   0  0  0  0  0  0  0  0  0  0  0  0
    5.1916    2.1685   -2.9163 C   0  0  0  0  0  0  0  0  0  0  0  0
    6.5089    0.3239   -1.6138 C   0  0  0  0  0  0  0  0  0  0  0  0
    3.9147    2.4887   -3.1596 N   0  0  0  0  0  0  0  0  0  0  0  0
   -3.7505   -0.3371    0.1276 C   0  0  0  0  0  0  0  0  0  0  0  0
    6.2874    3.0307   -3.4188 C   0  0  0  0  0  0  0  0  0  0  0  0
   -5.1566    0.1225   -0.0005 C   0  0  0  0  0  0  0  0  0  0  0  0
   -3.5870   -1.4987    0.4983 O   0  0  0  0  0  0  0  0  0  0  0  0
   -5.5717    1.1053   -0.9031 C   0  0  0  0  0  0  0  0  0  0  0  0
   -6.1135   -0.5482    0.7735 C   0  0  0  0  0  0  0  0  0  0  0  0
   -6.9386    1.4036   -1.0309 C   0  0  0  0  0  0  0  0  0  0  0  0
   -7.4659   -0.2462    0.6446 C   0  0  0  0  0  0  0  0  0  0  0  0
   -7.8887    0.7264   -0.2600 C   0  0  0  0  0  0  0  0  0  0  0  0
   -9.2426    0.9040   -0.2911 O   0  0  0  0  0  0  0  0  0  0  0  0
   -9.7567    1.8376   -1.2287 C   0  0  0  0  0  0  0  0  0  0  0  0
    0.8574   -2.3134    0.0333 H   0  0  0  0  0  0  0  0  0  0  0  0
    1.6226    1.9361    0.1300 H   0  0  0  0  0  0  0  0  0  0  0  0
    4.1924   -1.4499   -1.5360 H   0  0  0  0  0  0  0  0  0  0  0  0
   -1.5179   -1.8891   -0.1394 H   0  0  0  0  0  0  0  0  0  0  0  0
   -0.7929    2.3796   -0.0217 H   0  0  0  0  0  0  0  0  0  0  0  0
   -2.9963    1.5522   -0.2247 H   0  0  0  0  0  0  0  0  0  0  0  0
    6.4780    0.3487   -0.5184 H   0  0  0  0  0  0  0  0  0  0  0  0
    6.5760   -0.7206   -1.9307 H   0  0  0  0  0  0  0  0  0  0  0  0
    7.4197    0.8388   -1.9309 H   0  0  0  0  0  0  0  0  0  0  0  0
    6.8885    3.4119   -2.5876 H   0  0  0  0  0  0  0  0  0  0  0  0
    6.9427    2.4562   -4.0824 H   0  0  0  0  0  0  0  0  0  0  0  0
    5.9057    3.8866   -3.9847 H   0  0  0  0  0  0  0  0  0  0  0  0
   -4.8611    1.6149   -1.5491 H   0  0  0  0  0  0  0  0  0  0  0  0
   -5.8077   -1.3291    1.4684 H   0  0  0  0  0  0  0  0  0  0  0  0
   -7.2342    2.1563   -1.7554 H   0  0  0  0  0  0  0  0  0  0  0  0
   -8.1951   -0.7890    1.2415 H   0  0  0  0  0  0  0  0  0  0  0  0
   -9.3591    2.8408   -1.0477 H   0  0  0  0  0  0  0  0  0  0  0  0
   -9.5610    1.5105   -2.2549 H   0  0  0  0  0  0  0  0  0  0  0  0
  -10.8417    1.8809   -1.0914 H   0  0  0  0  0  0  0  0  0  0  0  0
  1  2  1  0  0  0  0
  1  3  2  0  0  0  0
  1  4  1  0  0  0  0
  2  5  1  0  0  0  0
  2  6  2  0  0  0  0
  2  7  2  0  0  0  0
  3  8  1  0  0  0  0
  3 29  1  0  0  0  0
  4  9  2  0  0  0  0
  4 30  1  0  0  0  0
  5 10  1  0  0  0  0
  5 31  1  0  0  0  0
  8 11  2  0  0  0  0
  8 32  1  0  0  0  0
  9 11  1  0  0  0  0
  9 33  1  0  0  0  0
 10 12  2  0  0  0  0
 10 13  1  0  0  0  0
 11 14  1  0  0  0  0
 12 15  1  0  0  0  0
 12 16  1  0  0  0  0
 13 17  1  0  0  0  0
 14 18  1  0  0  0  0
 14 34  1  0  0  0  0
 15 19  1  0  0  0  0
 15 17  2  0  0  0  0
 16 35  1  0  0  0  0
 16 36  1  0  0  0  0
 16 37  1  0  0  0  0
 18 20  1  0  0  0  0
 18 21  2  0  0  0  0
 19 38  1  0  0  0  0
 19 39  1  0  0  0  0
 19 40  1  0  0  0  0
 20 22  2  0  0  0  0
 20 23  1  0  0  0  0
 22 24  1  0  0  0  0
 22 41  1  0  0  0  0
 23 25  2  0  0  0  0
 23 42  1  0  0  0  0
 24 26  2  0  0  0  0
 24 43  1  0  0  0  0
 25 26  1  0  0  0  0
 25 44  1  0  0  0  0
 26 27  1  0  0  0  0
 27 28  1  0  0  0  0
 28 45  1  0  0  0  0
 28 46  1  0  0  0  0
 28 47  1  0  0  0  0
M  END
>  <Mol_ID>
8407

>  <Formula>
C19H19N3O5S

>  <MolWeight>
401.43626

>  <Cat>
P2140

>  <Name>
WAY-300408

>  <Synonyms>
N/A

>  <Target>
sodium channel

>  <Form>
free base

>  <CAS>
301681-50-5

>  <URL>
N/A

$$$$
