WAY-323240
 OpenBabel08302521423D

 48 51  0  0  0  0  0  0  0  0999 V2000
    2.3734    0.0814    0.3867 C   0  0  0  0  0  0  0  0  0  0  0  0
    1.6152   -0.7753    1.1720 N   0  0  0  0  0  0  0  0  0  0  0  0
    1.6047    0.7632   -0.4334 N   0  0  0  0  0  0  0  0  0  0  0  0
    5.6683    1.7581    0.6896 C   0  0  0  0  0  0  0  0  0  0  0  0
    5.7526    2.4530    1.8128 N   0  0  0  0  0  0  0  0  0  0  0  0
    6.9364    1.4327    0.2379 N   0  0  0  0  0  0  0  0  0  0  0  0
    0.2843   -0.6124    0.7992 C   0  0  0  0  0  0  0  0  0  0  0  0
    7.8609    2.0146    1.0847 C   0  0  0  0  0  0  0  0  0  0  0  0
    0.3246    0.3371   -0.2114 C   0  0  0  0  0  0  0  0  0  0  0  0
    7.0889    2.6256    2.0649 C   0  0  0  0  0  0  0  0  0  0  0  0
    3.7223    0.1845    0.4539 N   0  0  0  0  0  0  0  0  0  0  0  0
    4.3669    1.4135   -0.0068 C   0  0  0  0  0  0  0  0  0  0  0  0
    2.0274   -1.7468    2.1802 C   0  0  0  0  0  0  0  0  0  0  0  0
    7.2795    0.5347   -0.8488 C   0  0  0  0  0  0  0  0  0  0  0  0
   -0.9161   -1.1987    1.2325 C   0  0  0  0  0  0  0  0  0  0  0  0
    9.2632    2.0519    1.1022 C   0  0  0  0  0  0  0  0  0  0  0  0
   -0.8684    0.7068   -0.8598 C   0  0  0  0  0  0  0  0  0  0  0  0
    7.7188    3.2967    3.1245 C   0  0  0  0  0  0  0  0  0  0  0  0
    2.2391   -3.1255    1.5511 C   0  0  0  0  0  0  0  0  0  0  0  0
    3.1973   -1.3598    3.0850 C   0  0  0  0  0  0  0  0  0  0  0  0
    7.6696    1.2431   -2.1342 C   0  0  0  0  0  0  0  0  0  0  0  0
    9.8758    2.7265    2.1656 C   0  0  0  0  0  0  0  0  0  0  0  0
   -2.0956   -0.8159    0.5805 C   0  0  0  0  0  0  0  0  0  0  0  0
    9.1179    3.3376    3.1666 C   0  0  0  0  0  0  0  0  0  0  0  0
   -2.0732    0.1161   -0.4572 C   0  0  0  0  0  0  0  0  0  0  0  0
    4.3169   -0.4500    0.9554 H   0  0  0  0  0  0  0  0  0  0  0  0
    4.5271    1.3490   -1.0867 H   0  0  0  0  0  0  0  0  0  0  0  0
    3.7003    2.2731    0.1580 H   0  0  0  0  0  0  0  0  0  0  0  0
    1.1730   -1.8325    2.8673 H   0  0  0  0  0  0  0  0  0  0  0  0
    8.1128   -0.0894   -0.5026 H   0  0  0  0  0  0  0  0  0  0  0  0
    6.4332   -0.1371   -1.0200 H   0  0  0  0  0  0  0  0  0  0  0  0
   -0.9488   -1.9270    2.0343 H   0  0  0  0  0  0  0  0  0  0  0  0
    9.8610    1.5832    0.3282 H   0  0  0  0  0  0  0  0  0  0  0  0
   -0.8435    1.4261   -1.6703 H   0  0  0  0  0  0  0  0  0  0  0  0
    7.1216    3.7719    3.8946 H   0  0  0  0  0  0  0  0  0  0  0  0
    2.9881   -3.0913    0.7538 H   0  0  0  0  0  0  0  0  0  0  0  0
    2.5644   -3.8547    2.3008 H   0  0  0  0  0  0  0  0  0  0  0  0
    1.3063   -3.5003    1.1133 H   0  0  0  0  0  0  0  0  0  0  0  0
    4.1623   -1.4207    2.5790 H   0  0  0  0  0  0  0  0  0  0  0  0
    3.0702   -0.3509    3.4903 H   0  0  0  0  0  0  0  0  0  0  0  0
    3.2590   -2.0550    3.9306 H   0  0  0  0  0  0  0  0  0  0  0  0
    6.8715    1.9052   -2.4853 H   0  0  0  0  0  0  0  0  0  0  0  0
    8.5736    1.8467   -2.0010 H   0  0  0  0  0  0  0  0  0  0  0  0
    7.8745    0.5064   -2.9181 H   0  0  0  0  0  0  0  0  0  0  0  0
   10.9631    2.7748    2.2152 H   0  0  0  0  0  0  0  0  0  0  0  0
   -3.0407   -1.2533    0.8872 H   0  0  0  0  0  0  0  0  0  0  0  0
    9.6149    3.8489    3.9855 H   0  0  0  0  0  0  0  0  0  0  0  0
   -2.9993    0.3868   -0.9589 H   0  0  0  0  0  0  0  0  0  0  0  0
  2  1  1  0  0  0  0
  3  1  2  0  0  0  0
  4 12  1  0  0  0  0
  5  4  2  0  0  0  0
  6  4  1  0  0  0  0
  7  2  1  0  0  0  0
  7  9  2  0  0  0  0
  8  6  1  0  0  0  0
  9  3  1  0  0  0  0
 10  5  1  0  0  0  0
 10  8  2  0  0  0  0
 11  1  1  0  0  0  0
 11 26  1  0  0  0  0
 12 11  1  0  0  0  0
 12 27  1  0  0  0  0
 12 28  1  0  0  0  0
 13  2  1  0  0  0  0
 13 29  1  0  0  0  0
 14  6  1  0  0  0  0
 14 30  1  0  0  0  0
 14 31  1  0  0  0  0
 15  7  1  0  0  0  0
 15 32  1  0  0  0  0
 16  8  1  0  0  0  0
 16 33  1  0  0  0  0
 17  9  1  0  0  0  0
 17 34  1  0  0  0  0
 18 10  1  0  0  0  0
 18 35  1  0  0  0  0
 19 13  1  0  0  0  0
 19 36  1  0  0  0  0
 19 37  1  0  0  0  0
 19 38  1  0  0  0  0
 20 13  1  0  0  0  0
 20 39  1  0  0  0  0
 20 40  1  0  0  0  0
 20 41  1  0  0  0  0
 21 14  1  0  0  0  0
 21 42  1  0  0  0  0
 21 43  1  0  0  0  0
 21 44  1  0  0  0  0
 22 16  2  0  0  0  0
 22 45  1  0  0  0  0
 23 15  2  0  0  0  0
 23 25  1  0  0  0  0
 23 46  1  0  0  0  0
 24 18  2  0  0  0  0
 24 22  1  0  0  0  0
 24 47  1  0  0  0  0
 25 17  2  0  0  0  0
 25 48  1  0  0  0  0
M  END
>  <Mol_ID>
8568

>  <Formula>
C20H23N5

>  <MolWeight>
333.43012

>  <Cat>
P2252

>  <Name>
WAY-323240

>  <Synonyms>
N/A

>  <Target>
5-HT

>  <Form>
free base

>  <CAS>
853701-35-6

>  <URL>
N/A

$$$$
