WAY-231484
 OpenBabel08302521413D

 31 32  0  0  0  0  0  0  0  0999 V2000
   -1.4054   -0.0279   -0.3225 N   0  0  0  0  0  0  0  0  0  0  0  0
   -2.5834    0.0774   -1.0394 C   0  0  0  0  0  0  0  0  0  0  0  0
   -0.6161    1.1766   -0.0480 C   0  0  0  0  0  0  0  0  0  0  0  0
   -0.8291   -1.2491    0.2467 C   0  0  0  0  0  0  0  0  0  0  0  0
   -3.4306   -1.1814   -1.2910 C   0  0  0  0  0  0  0  0  0  0  0  0
   -2.9709    1.1693   -1.4674 O   0  0  0  0  0  0  0  0  0  0  0  0
    0.8440    0.9600   -0.4522 C   0  0  0  0  0  0  0  0  0  0  0  0
    0.6468   -1.3774   -0.1521 C   0  0  0  0  0  0  0  0  0  0  0  0
   -2.9910   -2.0163   -2.3534 O   0  0  0  0  0  0  0  0  0  0  0  0
    1.3887   -0.1986    0.2022 O   0  0  0  0  0  0  0  0  0  0  0  0
   -3.5628   -1.7947   -3.5799 C   0  0  0  0  0  0  0  0  0  0  0  0
   -4.0021   -0.5581   -4.0534 C   0  0  0  0  0  0  0  0  0  0  0  0
   -3.6470   -2.9051   -4.4265 C   0  0  0  0  0  0  0  0  0  0  0  0
   -4.5269   -0.4336   -5.3451 C   0  0  0  0  0  0  0  0  0  0  0  0
   -4.1773   -2.7862   -5.7151 C   0  0  0  0  0  0  0  0  0  0  0  0
   -4.6154   -1.5466   -6.1755 C   0  0  0  0  0  0  0  0  0  0  0  0
   -0.6823    1.3539    1.0323 H   0  0  0  0  0  0  0  0  0  0  0  0
   -1.0208    2.0549   -0.5591 H   0  0  0  0  0  0  0  0  0  0  0  0
   -0.9088   -1.1487    1.3369 H   0  0  0  0  0  0  0  0  0  0  0  0
   -1.3749   -2.1432   -0.0549 H   0  0  0  0  0  0  0  0  0  0  0  0
   -3.4323   -1.7858   -0.3775 H   0  0  0  0  0  0  0  0  0  0  0  0
   -4.4808   -0.8833   -1.4116 H   0  0  0  0  0  0  0  0  0  0  0  0
    0.9378    0.8341   -1.5375 H   0  0  0  0  0  0  0  0  0  0  0  0
    1.4470    1.8250   -0.1593 H   0  0  0  0  0  0  0  0  0  0  0  0
    1.1033   -2.2251    0.3681 H   0  0  0  0  0  0  0  0  0  0  0  0
    0.7465   -1.5485   -1.2305 H   0  0  0  0  0  0  0  0  0  0  0  0
   -3.9373    0.3416   -3.4543 H   0  0  0  0  0  0  0  0  0  0  0  0
   -3.3069   -3.8804   -4.0796 H   0  0  0  0  0  0  0  0  0  0  0  0
   -4.8582    0.5400   -5.6980 H   0  0  0  0  0  0  0  0  0  0  0  0
   -4.2467   -3.6580   -6.3608 H   0  0  0  0  0  0  0  0  0  0  0  0
   -5.0187   -1.4448   -7.1800 H   0  0  0  0  0  0  0  0  0  0  0  0
  1  2  1  0  0  0  0
  1  3  1  0  0  0  0
  1  4  1  0  0  0  0
  2  5  1  0  0  0  0
  2  6  2  0  0  0  0
  3  7  1  0  0  0  0
  3 17  1  0  0  0  0
  3 18  1  0  0  0  0
  4  8  1  0  0  0  0
  4 19  1  0  0  0  0
  4 20  1  0  0  0  0
  5  9  1  0  0  0  0
  5 21  1  0  0  0  0
  5 22  1  0  0  0  0
  7 10  1  0  0  0  0
  7 23  1  0  0  0  0
  7 24  1  0  0  0  0
  8 10  1  0  0  0  0
  8 25  1  0  0  0  0
  8 26  1  0  0  0  0
  9 11  1  0  0  0  0
 11 12  2  0  0  0  0
 11 13  1  0  0  0  0
 12 14  1  0  0  0  0
 12 27  1  0  0  0  0
 13 15  2  0  0  0  0
 13 28  1  0  0  0  0
 14 16  2  0  0  0  0
 14 29  1  0  0  0  0
 15 16  1  0  0  0  0
 15 30  1  0  0  0  0
 16 31  1  0  0  0  0
M  END
>  <Mol_ID>
8377

>  <Formula>
C12H14ClNO3

>  <MolWeight>
255.69746

>  <Cat>
P2064

>  <Name>
WAY-231484

>  <Synonyms>
N/A

>  <Target>
FKBP12

>  <Form>
free base

>  <CAS>
144501-98-4

>  <URL>
N/A

$$$$
