WAY-326123
 OpenBabel08302521433D

 50 53  0  0  0  0  0  0  0  0999 V2000
    0.1961   -0.7547    0.0540 C   0  0  0  0  0  0  0  0  0  0  0  0
    0.2741    0.6465    0.0328 N   0  0  0  0  0  0  0  0  0  0  0  0
    1.5065   -1.2294    0.0429 C   0  0  0  0  0  0  0  0  0  0  0  0
   -0.8695    1.4325   -0.0005 C   0  0  0  0  0  0  0  0  0  0  0  0
   -1.0205   -1.3907    0.0858 N   0  0  0  0  0  0  0  0  0  0  0  0
    1.5578    1.0715    0.0518 N   0  0  0  0  0  0  0  0  0  0  0  0
   -2.0756    0.8523   -0.0043 C   0  0  0  0  0  0  0  0  0  0  0  0
    1.9125   -2.6345   -0.0211 C   0  0  0  0  0  0  0  0  0  0  0  0
   -2.0940   -0.6464    0.0724 C   0  0  0  0  0  0  0  0  0  0  0  0
    2.2761   -0.0502    0.0069 C   0  0  0  0  0  0  0  0  0  0  0  0
    3.0589   -5.2260    1.6224 C   0  0  0  0  0  0  0  0  0  0  0  0
    3.1378   -6.5607    3.4855 N   0  0  0  0  0  0  0  0  0  0  0  0
    3.1383   -3.0431    0.5411 N   0  0  0  0  0  0  0  0  0  0  0  0
    1.8696   -6.2276    3.1843 N   0  0  0  0  0  0  0  0  0  0  0  0
    1.7710   -5.4432    2.0745 C   0  0  0  0  0  0  0  0  0  0  0  0
   -0.6768    2.9055   -0.0175 C   0  0  0  0  0  0  0  0  0  0  0  0
    3.8556   -5.9595    2.5340 C   0  0  0  0  0  0  0  0  0  0  0  0
    3.5069   -4.4559    0.4256 C   0  0  0  0  0  0  0  0  0  0  0  0
   -3.4456   -1.2796    0.1406 C   0  0  0  0  0  0  0  0  0  0  0  0
    1.1912   -3.4573   -0.5858 O   0  0  0  0  0  0  0  0  0  0  0  0
   -3.6350   -2.5536   -0.4027 C   0  0  0  0  0  0  0  0  0  0  0  0
   -4.5221   -0.6354    0.7678 C   0  0  0  0  0  0  0  0  0  0  0  0
   -0.5583    3.3634   -1.2923 F   0  0  0  0  0  0  0  0  0  0  0  0
   -1.7734    3.5386    0.4960 F   0  0  0  0  0  0  0  0  0  0  0  0
   -4.8906   -3.1680   -0.3328 C   0  0  0  0  0  0  0  0  0  0  0  0
   -5.7750   -1.2494    0.8333 C   0  0  0  0  0  0  0  0  0  0  0  0
   -5.9684   -2.5200    0.2851 C   0  0  0  0  0  0  0  0  0  0  0  0
    4.0316   -2.2051    1.3253 C   0  0  0  0  0  0  0  0  0  0  0  0
    0.7892   -6.6841    4.0238 C   0  0  0  0  0  0  0  0  0  0  0  0
   -7.3051   -3.1947    0.3736 C   0  0  0  0  0  0  0  0  0  0  0  0
   -2.9925    1.4214   -0.0750 H   0  0  0  0  0  0  0  0  0  0  0  0
    3.3497    0.0647   -0.0621 H   0  0  0  0  0  0  0  0  0  0  0  0
    0.8157   -5.1062    1.6924 H   0  0  0  0  0  0  0  0  0  0  0  0
    0.1853    3.2435    0.5622 H   0  0  0  0  0  0  0  0  0  0  0  0
    4.9312   -6.0842    2.5414 H   0  0  0  0  0  0  0  0  0  0  0  0
    3.0676   -4.8963   -0.4766 H   0  0  0  0  0  0  0  0  0  0  0  0
    4.5958   -4.5204    0.3066 H   0  0  0  0  0  0  0  0  0  0  0  0
   -2.8087   -3.0750   -0.8835 H   0  0  0  0  0  0  0  0  0  0  0  0
   -4.4085    0.3361    1.2387 H   0  0  0  0  0  0  0  0  0  0  0  0
   -5.0200   -4.1610   -0.7591 H   0  0  0  0  0  0  0  0  0  0  0  0
   -6.5937   -0.7304    1.3268 H   0  0  0  0  0  0  0  0  0  0  0  0
    4.5481   -1.5197    0.6489 H   0  0  0  0  0  0  0  0  0  0  0  0
    3.4664   -1.6490    2.0764 H   0  0  0  0  0  0  0  0  0  0  0  0
    4.7971   -2.8063    1.8236 H   0  0  0  0  0  0  0  0  0  0  0  0
    0.8565   -7.7696    4.1239 H   0  0  0  0  0  0  0  0  0  0  0  0
    0.8894   -6.2015    4.9988 H   0  0  0  0  0  0  0  0  0  0  0  0
   -0.1657   -6.4112    3.5679 H   0  0  0  0  0  0  0  0  0  0  0  0
   -7.6774   -3.4326   -0.6269 H   0  0  0  0  0  0  0  0  0  0  0  0
   -7.2243   -4.1144    0.9613 H   0  0  0  0  0  0  0  0  0  0  0  0
   -8.0462   -2.5506    0.8614 H   0  0  0  0  0  0  0  0  0  0  0  0
  2  1  1  0  0  0  0
  3  1  2  0  0  0  0
  4  2  1  0  0  0  0
  4  7  2  0  0  0  0
  5  1  1  0  0  0  0
  6  2  1  0  0  0  0
  6 10  2  0  0  0  0
  7  9  1  0  0  0  0
  7 31  1  0  0  0  0
  8  3  1  0  0  0  0
  9  5  2  0  0  0  0
 10  3  1  0  0  0  0
 10 32  1  0  0  0  0
 11 18  1  0  0  0  0
 12 17  2  0  0  0  0
 12 14  1  0  0  0  0
 13  8  1  0  0  0  0
 14 15  1  0  0  0  0
 15 11  2  0  0  0  0
 15 33  1  0  0  0  0
 16  4  1  0  0  0  0
 16 34  1  0  0  0  0
 17 11  1  0  0  0  0
 17 35  1  0  0  0  0
 18 13  1  0  0  0  0
 18 36  1  0  0  0  0
 18 37  1  0  0  0  0
 19  9  1  0  0  0  0
 20  8  2  0  0  0  0
 21 19  2  0  0  0  0
 21 38  1  0  0  0  0
 22 19  1  0  0  0  0
 22 39  1  0  0  0  0
 23 16  1  0  0  0  0
 24 16  1  0  0  0  0
 25 21  1  0  0  0  0
 25 40  1  0  0  0  0
 26 22  2  0  0  0  0
 26 41  1  0  0  0  0
 27 26  1  0  0  0  0
 27 25  2  0  0  0  0
 28 13  1  0  0  0  0
 28 42  1  0  0  0  0
 28 43  1  0  0  0  0
 28 44  1  0  0  0  0
 29 14  1  0  0  0  0
 29 45  1  0  0  0  0
 29 46  1  0  0  0  0
 29 47  1  0  0  0  0
 30 27  1  0  0  0  0
 30 48  1  0  0  0  0
 30 49  1  0  0  0  0
 30 50  1  0  0  0  0
M  END
>  <Mol_ID>
8894

>  <Formula>
C21H20F2N6O

>  <MolWeight>
410.4199064

>  <Cat>
P2452

>  <Name>
WAY-326123

>  <Synonyms>
N/A

>  <Target>
11¦Â-HSD1

>  <Form>
free base

>  <CAS>
869715-94-6

>  <URL>
N/A

$$$$
