WAY-329605
 OpenBabel08302521453D

 39 41  0  0  0  0  0  0  0  0999 V2000
   -0.7514   -2.2940    1.2256 S   0  0  0  0  0  0  0  0  0  0  0  0
   -0.0592   -3.6461    2.0900 C   0  0  0  0  0  0  0  0  0  0  0  0
    1.0688   -3.5173    2.9360 C   0  0  0  0  0  0  0  0  0  0  0  0
    1.8244   -2.4244    3.1405 N   0  0  0  0  0  0  0  0  0  0  0  0
    0.5113   -1.5617    0.2505 C   0  0  0  0  0  0  0  0  0  0  0  0
    2.9751   -2.8340    4.2651 S   0  0  0  0  0  0  0  0  0  0  0  0
    1.5462   -4.7048    3.7423 C   0  0  0  0  0  0  0  0  0  0  0  0
    2.6092   -4.4320    4.5135 N   0  0  0  0  0  0  0  0  0  0  0  0
    1.0782   -2.4417   -0.8149 C   0  0  0  0  0  0  0  0  0  0  0  0
   -0.6757   -4.9149    2.0427 C   0  0  0  0  0  0  0  0  0  0  0  0
   -1.1259   -1.3211    2.2400 O   0  0  0  0  0  0  0  0  0  0  0  0
   -1.7822   -2.7955    0.3343 O   0  0  0  0  0  0  0  0  0  0  0  0
    1.8624   -1.8926   -1.8068 N   0  0  0  0  0  0  0  0  0  0  0  0
   -0.2164   -6.0215    2.7924 C   0  0  0  0  0  0  0  0  0  0  0  0
    0.8902   -5.9563    3.6567 C   0  0  0  0  0  0  0  0  0  0  0  0
    0.8831   -3.6577   -0.8498 O   0  0  0  0  0  0  0  0  0  0  0  0
    2.2999   -0.5706   -2.0510 C   0  0  0  0  0  0  0  0  0  0  0  0
    2.2670    0.4595   -1.1087 C   0  0  0  0  0  0  0  0  0  0  0  0
    2.5472    1.7909   -1.4446 C   0  0  0  0  0  0  0  0  0  0  0  0
    3.0969    1.0418   -3.6814 C   0  0  0  0  0  0  0  0  0  0  0  0
    2.7724   -0.2730   -3.3320 C   0  0  0  0  0  0  0  0  0  0  0  0
    2.9509    2.0722   -2.7519 C   0  0  0  0  0  0  0  0  0  0  0  0
    2.3134    2.9226   -0.4670 C   0  0  0  0  0  0  0  0  0  0  0  0
    2.4228    2.5728    1.0149 C   0  0  0  0  0  0  0  0  0  0  0  0
    0.0376   -0.6880   -0.2050 H   0  0  0  0  0  0  0  0  0  0  0  0
    1.3032   -1.2662    0.9357 H   0  0  0  0  0  0  0  0  0  0  0  0
   -1.5551   -5.0529    1.4105 H   0  0  0  0  0  0  0  0  0  0  0  0
    2.0739   -2.5728   -2.5300 H   0  0  0  0  0  0  0  0  0  0  0  0
   -0.7540   -6.9665    2.7028 H   0  0  0  0  0  0  0  0  0  0  0  0
    1.2234   -6.8111    4.2331 H   0  0  0  0  0  0  0  0  0  0  0  0
    2.0370    0.2629   -0.0762 H   0  0  0  0  0  0  0  0  0  0  0  0
    3.4317    1.2699   -4.6903 H   0  0  0  0  0  0  0  0  0  0  0  0
    2.8590   -1.0458   -4.0923 H   0  0  0  0  0  0  0  0  0  0  0  0
    3.1545    3.0971   -3.0551 H   0  0  0  0  0  0  0  0  0  0  0  0
    3.0256    3.7288   -0.6775 H   0  0  0  0  0  0  0  0  0  0  0  0
    1.3072    3.3182   -0.6549 H   0  0  0  0  0  0  0  0  0  0  0  0
    1.6009    1.9224    1.3365 H   0  0  0  0  0  0  0  0  0  0  0  0
    3.3677    2.0677    1.2400 H   0  0  0  0  0  0  0  0  0  0  0  0
    2.3675    3.4825    1.6211 H   0  0  0  0  0  0  0  0  0  0  0  0
  2  1  1  0  0  0  0
  3  2  1  0  0  0  0
  4  3  2  0  0  0  0
  5  1  1  0  0  0  0
  5 25  1  0  0  0  0
  5 26  1  0  0  0  0
  6  4  1  0  0  0  0
  6  8  1  0  0  0  0
  7  3  1  0  0  0  0
  7 15  1  0  0  0  0
  8  7  2  0  0  0  0
  9  5  1  0  0  0  0
 10  2  2  0  0  0  0
 10 27  1  0  0  0  0
 11  1  2  0  0  0  0
 12  1  2  0  0  0  0
 13  9  1  0  0  0  0
 13 28  1  0  0  0  0
 14 10  1  0  0  0  0
 14 29  1  0  0  0  0
 15 14  2  0  0  0  0
 15 30  1  0  0  0  0
 16  9  2  0  0  0  0
 17 13  1  0  0  0  0
 18 17  2  0  0  0  0
 18 31  1  0  0  0  0
 19 18  1  0  0  0  0
 20 21  2  0  0  0  0
 20 32  1  0  0  0  0
 21 17  1  0  0  0  0
 21 33  1  0  0  0  0
 22 20  1  0  0  0  0
 22 19  2  0  0  0  0
 22 34  1  0  0  0  0
 23 19  1  0  0  0  0
 23 35  1  0  0  0  0
 23 36  1  0  0  0  0
 24 23  1  0  0  0  0
 24 37  1  0  0  0  0
 24 38  1  0  0  0  0
 24 39  1  0  0  0  0
M  END
>  <Mol_ID>
9311

>  <Formula>
C16H15N3O3S2

>  <MolWeight>
361.4386

>  <Cat>
P2588

>  <Name>
WAY-329605

>  <Synonyms>
N/A

>  <Target>
others

>  <Form>
free base

>  <CAS>
956958-66-0

>  <URL>
N/A

$$$$
