WAY-658675
 OpenBabel08302521433D

 39 41  0  0  0  0  0  0  0  0999 V2000
   -1.4298    0.0638    0.1274 N   0  0  0  0  0  0  0  0  0  0  0  0
   -2.5218    0.1189    0.9538 C   0  0  0  0  0  0  0  0  0  0  0  0
   -0.7860   -1.2112   -0.2027 C   0  0  0  0  0  0  0  0  0  0  0  0
   -0.7264    1.2796   -0.2828 C   0  0  0  0  0  0  0  0  0  0  0  0
   -3.0083   -1.0226    1.4693 N   0  0  0  0  0  0  0  0  0  0  0  0
   -3.0847    1.3132    1.2078 N   0  0  0  0  0  0  0  0  0  0  0  0
    0.6727   -1.2144    0.2927 C   0  0  0  0  0  0  0  0  0  0  0  0
    0.7343    1.2427    0.2186 C   0  0  0  0  0  0  0  0  0  0  0  0
   -4.0996   -0.9475    2.2549 C   0  0  0  0  0  0  0  0  0  0  0  0
   -4.1819    1.3418    1.9893 C   0  0  0  0  0  0  0  0  0  0  0  0
    1.3973   -0.0159   -0.1567 N   0  0  0  0  0  0  0  0  0  0  0  0
   -4.7421    0.2261    2.5507 C   0  0  0  0  0  0  0  0  0  0  0  0
    2.4339   -0.1519   -1.0656 C   0  0  0  0  0  0  0  0  0  0  0  0
    3.1971    1.0922   -1.5019 C   0  0  0  0  0  0  0  0  0  0  0  0
    2.7700   -1.2562   -1.5046 O   0  0  0  0  0  0  0  0  0  0  0  0
    2.6384    1.7550   -2.7393 C   0  0  0  0  0  0  0  0  0  0  0  0
    2.2819    3.1111   -2.7233 C   0  0  0  0  0  0  0  0  0  0  0  0
    2.5208    1.0410   -3.9409 C   0  0  0  0  0  0  0  0  0  0  0  0
    1.7989    3.7323   -3.8766 C   0  0  0  0  0  0  0  0  0  0  0  0
    2.0422    1.6648   -5.0945 C   0  0  0  0  0  0  0  0  0  0  0  0
    1.6791    3.0093   -5.0616 C   0  0  0  0  0  0  0  0  0  0  0  0
   -1.3025   -2.0848    0.2076 H   0  0  0  0  0  0  0  0  0  0  0  0
   -0.7971   -1.3247   -1.2935 H   0  0  0  0  0  0  0  0  0  0  0  0
   -0.7324    1.3286   -1.3785 H   0  0  0  0  0  0  0  0  0  0  0  0
   -1.1943    2.2022    0.0775 H   0  0  0  0  0  0  0  0  0  0  0  0
    0.6961   -1.2056    1.3889 H   0  0  0  0  0  0  0  0  0  0  0  0
    1.1724   -2.1303   -0.0381 H   0  0  0  0  0  0  0  0  0  0  0  0
    0.7535    1.2935    1.3139 H   0  0  0  0  0  0  0  0  0  0  0  0
    1.2665    2.1152   -0.1583 H   0  0  0  0  0  0  0  0  0  0  0  0
   -4.4537   -1.8966    2.6460 H   0  0  0  0  0  0  0  0  0  0  0  0
   -4.6098    2.3269    2.1486 H   0  0  0  0  0  0  0  0  0  0  0  0
   -5.6214    0.2672    3.1763 H   0  0  0  0  0  0  0  0  0  0  0  0
    3.2805    1.7939   -0.6653 H   0  0  0  0  0  0  0  0  0  0  0  0
    4.2321    0.7898   -1.7121 H   0  0  0  0  0  0  0  0  0  0  0  0
    2.3868    3.7005   -1.8157 H   0  0  0  0  0  0  0  0  0  0  0  0
    2.8112   -0.0079   -3.9884 H   0  0  0  0  0  0  0  0  0  0  0  0
    1.5252    4.7839   -3.8541 H   0  0  0  0  0  0  0  0  0  0  0  0
    1.9603    1.1012   -6.0205 H   0  0  0  0  0  0  0  0  0  0  0  0
    1.3108    3.4948   -5.9616 H   0  0  0  0  0  0  0  0  0  0  0  0
  1  2  1  0  0  0  0
  1  3  1  0  0  0  0
  1  4  1  0  0  0  0
  2  5  2  0  0  0  0
  2  6  1  0  0  0  0
  3  7  1  0  0  0  0
  3 22  1  0  0  0  0
  3 23  1  0  0  0  0
  4  8  1  0  0  0  0
  4 24  1  0  0  0  0
  4 25  1  0  0  0  0
  5  9  1  0  0  0  0
  6 10  2  0  0  0  0
  7 11  1  0  0  0  0
  7 26  1  0  0  0  0
  7 27  1  0  0  0  0
  8 11  1  0  0  0  0
  8 28  1  0  0  0  0
  8 29  1  0  0  0  0
  9 12  2  0  0  0  0
  9 30  1  0  0  0  0
 10 12  1  0  0  0  0
 10 31  1  0  0  0  0
 11 13  1  0  0  0  0
 12 32  1  0  0  0  0
 13 14  1  0  0  0  0
 13 15  2  0  0  0  0
 14 16  1  0  0  0  0
 14 33  1  0  0  0  0
 14 34  1  0  0  0  0
 16 17  2  0  0  0  0
 16 18  1  0  0  0  0
 17 19  1  0  0  0  0
 17 35  1  0  0  0  0
 18 20  2  0  0  0  0
 18 36  1  0  0  0  0
 19 21  2  0  0  0  0
 19 37  1  0  0  0  0
 20 21  1  0  0  0  0
 20 38  1  0  0  0  0
 21 39  1  0  0  0  0
M  END
>  <Mol_ID>
8828

>  <Formula>
C16H17ClN4O

>  <MolWeight>
316.78538

>  <Cat>
P3174

>  <Name>
WAY-658675

>  <Synonyms>
N/A

>  <Target>
Anti-infection

>  <Form>
free base

>  <CAS>
545382-94-3

>  <URL>
N/A

$$$$
