WAY-311207-A
 OpenBabel08302521403D

 57 59  0  0  0  0  0  0  0  0999 V2000
    0.9653   -0.1782    0.0653 C   0  0  3  0  0  0  0  0  0  0  0  0
    0.4420    0.0367    1.4915 C   0  0  0  0  0  0  0  0  0  0  0  0
    0.9262    1.1343   -0.7958 C   0  0  3  0  0  0  0  0  0  0  0  0
    0.2278   -1.3915   -0.5716 C   0  0  0  0  0  0  0  0  0  0  0  0
   -0.8267    0.5904    1.7412 C   0  0  0  0  0  0  0  0  0  0  0  0
    1.2454   -0.3088    2.5903 C   0  0  0  0  0  0  0  0  0  0  0  0
    1.7533    2.2660   -0.2071 C   0  0  0  0  0  0  0  0  0  0  0  0
    1.4023    0.9374   -2.1247 O   0  0  0  0  0  0  0  0  0  0  0  0
    0.5760   -1.7049   -1.9722 N   0  0  0  0  0  0  0  0  0  0  0  0
   -1.2711    0.7966    3.0512 C   0  0  0  0  0  0  0  0  0  0  0  0
    0.7979   -0.0994    3.8982 C   0  0  0  0  0  0  0  0  0  0  0  0
    2.9693    2.0261    0.4477 C   0  0  0  0  0  0  0  0  0  0  0  0
    1.2914    3.5871   -0.2674 C   0  0  0  0  0  0  0  0  0  0  0  0
    1.9866   -2.1219   -2.1434 C   0  0  0  0  0  0  0  0  0  0  0  0
   -0.3021   -2.7823   -2.4746 C   0  0  0  0  0  0  0  0  0  0  0  0
   -0.4582    0.4524    4.1267 C   0  0  0  0  0  0  0  0  0  0  0  0
    3.6005    3.0268    1.1860 C   0  0  0  0  0  0  0  0  0  0  0  0
    1.9348    4.5932    0.4593 C   0  0  0  0  0  0  0  0  0  0  0  0
    2.3000   -2.2907   -3.6343 C   0  0  0  0  0  0  0  0  0  0  0  0
   -0.0852   -3.0028   -3.9710 C   0  0  0  0  0  0  0  0  0  0  0  0
    3.0509    4.3013    1.2470 C   0  0  0  0  0  0  0  0  0  0  0  0
    1.3740   -3.3073   -4.2910 C   0  0  0  0  0  0  0  0  0  0  0  0
    3.4857    5.3284    2.0349 O   0  0  0  0  0  0  0  0  0  0  0  0
    4.5865    5.0960    2.9199 C   0  0  0  0  0  0  0  0  0  0  0  0
    5.8737    5.4528    2.1851 C   0  0  0  0  0  0  0  0  0  0  0  0
    4.3905    5.9868    4.1435 C   0  0  0  0  0  0  0  0  0  0  0  0
    2.0110   -0.4954    0.1436 H   0  0  0  0  0  0  0  0  0  0  0  0
   -0.1155    1.4689   -0.8855 H   0  0  0  0  0  0  0  0  0  0  0  0
    0.4010   -2.2770    0.0584 H   0  0  0  0  0  0  0  0  0  0  0  0
   -0.8502   -1.1882   -0.5269 H   0  0  0  0  0  0  0  0  0  0  0  0
   -1.4813    0.8774    0.9253 H   0  0  0  0  0  0  0  0  0  0  0  0
    2.2362   -0.7285    2.4395 H   0  0  0  0  0  0  0  0  0  0  0  0
    0.9549    0.1270   -2.4498 H   0  0  0  0  0  0  0  0  0  0  0  0
   -2.2516    1.2357    3.2197 H   0  0  0  0  0  0  0  0  0  0  0  0
    1.4384   -0.3596    4.7374 H   0  0  0  0  0  0  0  0  0  0  0  0
    3.4233    1.0397    0.4395 H   0  0  0  0  0  0  0  0  0  0  0  0
    0.4069    3.8348   -0.8487 H   0  0  0  0  0  0  0  0  0  0  0  0
    2.1931   -3.0546   -1.6035 H   0  0  0  0  0  0  0  0  0  0  0  0
    2.6733   -1.3649   -1.7520 H   0  0  0  0  0  0  0  0  0  0  0  0
   -1.3543   -2.5143   -2.3201 H   0  0  0  0  0  0  0  0  0  0  0  0
   -0.1223   -3.7174   -1.9286 H   0  0  0  0  0  0  0  0  0  0  0  0
   -0.7994    0.6238    5.1467 H   0  0  0  0  0  0  0  0  0  0  0  0
    4.5045    2.7541    1.7183 H   0  0  0  0  0  0  0  0  0  0  0  0
    1.5414    5.6065    0.4397 H   0  0  0  0  0  0  0  0  0  0  0  0
    3.3426   -2.6008   -3.7641 H   0  0  0  0  0  0  0  0  0  0  0  0
    2.1929   -1.3220   -4.1422 H   0  0  0  0  0  0  0  0  0  0  0  0
   -0.3994   -2.1058   -4.5200 H   0  0  0  0  0  0  0  0  0  0  0  0
   -0.7179   -3.8274   -4.3192 H   0  0  0  0  0  0  0  0  0  0  0  0
    1.5263   -3.3091   -5.3761 H   0  0  0  0  0  0  0  0  0  0  0  0
    1.6251   -4.3121   -3.9296 H   0  0  0  0  0  0  0  0  0  0  0  0
    4.6242    4.0701    3.2946 H   0  0  0  0  0  0  0  0  0  0  0  0
    5.7739    6.4166    1.6723 H   0  0  0  0  0  0  0  0  0  0  0  0
    6.7298    5.4923    2.8613 H   0  0  0  0  0  0  0  0  0  0  0  0
    6.0879    4.7105    1.4081 H   0  0  0  0  0  0  0  0  0  0  0  0
    3.5002    5.6651    4.6992 H   0  0  0  0  0  0  0  0  0  0  0  0
    5.2496    5.9286    4.8189 H   0  0  0  0  0  0  0  0  0  0  0  0
    4.2265    7.0297    3.8588 H   0  0  0  0  0  0  0  0  0  0  0  0
  1  2  1  0  0  0  0
  1  3  1  0  0  0  0
  1  4  1  0  0  0  0
  1 27  1  0  0  0  0
  2  5  2  0  0  0  0
  2  6  1  0  0  0  0
  3  7  1  0  0  0  0
  3  8  1  0  0  0  0
  3 28  1  0  0  0  0
  4  9  1  0  0  0  0
  4 29  1  0  0  0  0
  4 30  1  0  0  0  0
  5 10  1  0  0  0  0
  5 31  1  0  0  0  0
  6 11  2  0  0  0  0
  6 32  1  0  0  0  0
  7 12  2  0  0  0  0
  7 13  1  0  0  0  0
  8 33  1  0  0  0  0
  9 14  1  0  0  0  0
  9 15  1  0  0  0  0
 10 16  2  0  0  0  0
 10 34  1  0  0  0  0
 11 16  1  0  0  0  0
 11 35  1  0  0  0  0
 12 17  1  0  0  0  0
 12 36  1  0  0  0  0
 13 18  2  0  0  0  0
 13 37  1  0  0  0  0
 14 19  1  0  0  0  0
 14 38  1  0  0  0  0
 14 39  1  0  0  0  0
 15 20  1  0  0  0  0
 15 40  1  0  0  0  0
 15 41  1  0  0  0  0
 16 42  1  0  0  0  0
 17 21  2  0  0  0  0
 17 43  1  0  0  0  0
 18 21  1  0  0  0  0
 18 44  1  0  0  0  0
 19 22  1  0  0  0  0
 19 45  1  0  0  0  0
 19 46  1  0  0  0  0
 20 22  1  0  0  0  0
 20 47  1  0  0  0  0
 20 48  1  0  0  0  0
 21 23  1  0  0  0  0
 22 49  1  0  0  0  0
 22 50  1  0  0  0  0
 23 24  1  0  0  0  0
 24 25  1  0  0  0  0
 24 26  1  0  0  0  0
 24 51  1  0  0  0  0
 25 52  1  0  0  0  0
 25 53  1  0  0  0  0
 25 54  1  0  0  0  0
 26 55  1  0  0  0  0
 26 56  1  0  0  0  0
 26 57  1  0  0  0  0
M  END
>  <Mol_ID>
8264

>  <Formula>
C23H31NO2

>  <MolWeight>
353.49774

>  <Cat>
P2198

>  <Name>
WAY-311207-A

>  <Synonyms>
N/A

>  <Target>
others

>  <Form>
free base

>  <CAS>
58575-74-9

>  <URL>
N/A

$$$$
