WAY-326792
 OpenBabel08302521433D

 46 47  0  0  0  0  0  0  0  0999 V2000
    1.1546   -0.1212   -0.2259 C   0  0  0  0  0  0  0  0  0  0  0  0
    0.7624   -1.1222    0.6581 N   0  0  0  0  0  0  0  0  0  0  0  0
    0.3530    1.2231   -0.1123 C   0  0  3  0  0  0  0  0  0  0  0  0
    2.0292   -0.3191   -1.0701 O   0  0  0  0  0  0  0  0  0  0  0  0
    1.3114    2.4016    0.0925 C   0  0  0  0  0  0  0  0  0  0  0  0
   -0.5278    1.3713   -1.3179 N   0  0  0  0  0  0  0  0  0  0  0  0
    2.2807    2.7324   -0.8679 C   0  0  0  0  0  0  0  0  0  0  0  0
    1.1984    3.2213    1.2280 C   0  0  0  0  0  0  0  0  0  0  0  0
    1.4643   -2.3989    0.6489 C   0  0  0  0  0  0  0  0  0  0  0  0
    2.0081    4.3535    1.3776 C   0  0  0  0  0  0  0  0  0  0  0  0
    3.0923    3.8602   -0.7151 C   0  0  0  0  0  0  0  0  0  0  0  0
    2.9514    4.6897    0.4005 C   0  0  0  0  0  0  0  0  0  0  0  0
   -1.5142    0.2894   -1.3920 C   0  0  0  0  0  0  0  0  0  0  0  0
   -1.2168    2.6627   -1.3611 C   0  0  0  0  0  0  0  0  0  0  0  0
    3.7561    5.9499    0.5298 C   0  0  0  0  0  0  0  0  0  0  0  0
    0.5951   -3.5413    1.1863 C   0  0  0  0  0  0  0  0  0  0  0  0
    2.7773   -2.3051    1.4355 C   0  0  0  0  0  0  0  0  0  0  0  0
    3.5432   -3.6232    1.3793 C   0  0  0  0  0  0  0  0  0  0  0  0
    1.3545   -4.8693    1.1346 C   0  0  0  0  0  0  0  0  0  0  0  0
    2.6913   -4.7906    1.8696 C   0  0  0  0  0  0  0  0  0  0  0  0
    0.2020   -0.8759    1.4646 H   0  0  0  0  0  0  0  0  0  0  0  0
   -0.2904    1.1570    0.7773 H   0  0  0  0  0  0  0  0  0  0  0  0
    2.3930    2.1180   -1.7607 H   0  0  0  0  0  0  0  0  0  0  0  0
    0.4608    3.0038    1.9967 H   0  0  0  0  0  0  0  0  0  0  0  0
    1.7042   -2.6296   -0.3974 H   0  0  0  0  0  0  0  0  0  0  0  0
    1.8852    4.9854    2.2549 H   0  0  0  0  0  0  0  0  0  0  0  0
    3.8227    4.0906   -1.4876 H   0  0  0  0  0  0  0  0  0  0  0  0
   -2.1408    0.2432   -0.4941 H   0  0  0  0  0  0  0  0  0  0  0  0
   -2.1724    0.4225   -2.2586 H   0  0  0  0  0  0  0  0  0  0  0  0
   -1.0331   -0.6832   -1.5344 H   0  0  0  0  0  0  0  0  0  0  0  0
   -1.7980    2.8552   -0.4530 H   0  0  0  0  0  0  0  0  0  0  0  0
   -0.5137    3.4878   -1.5146 H   0  0  0  0  0  0  0  0  0  0  0  0
   -1.9003    2.7052   -2.2182 H   0  0  0  0  0  0  0  0  0  0  0  0
    3.0968    6.8209    0.4502 H   0  0  0  0  0  0  0  0  0  0  0  0
    4.2750    5.9793    1.4929 H   0  0  0  0  0  0  0  0  0  0  0  0
    4.5112    6.0283   -0.2596 H   0  0  0  0  0  0  0  0  0  0  0  0
    0.2873   -3.3332    2.2190 H   0  0  0  0  0  0  0  0  0  0  0  0
   -0.3256   -3.6256    0.5962 H   0  0  0  0  0  0  0  0  0  0  0  0
    3.4080   -1.5027    1.0356 H   0  0  0  0  0  0  0  0  0  0  0  0
    2.5674   -2.0430    2.4809 H   0  0  0  0  0  0  0  0  0  0  0  0
    4.4529   -3.5476    1.9852 H   0  0  0  0  0  0  0  0  0  0  0  0
    3.8622   -3.8127    0.3468 H   0  0  0  0  0  0  0  0  0  0  0  0
    0.7418   -5.6670    1.5692 H   0  0  0  0  0  0  0  0  0  0  0  0
    1.5346   -5.1429    0.0871 H   0  0  0  0  0  0  0  0  0  0  0  0
    2.5082   -4.6798    2.9451 H   0  0  0  0  0  0  0  0  0  0  0  0
    3.2428   -5.7280    1.7343 H   0  0  0  0  0  0  0  0  0  0  0  0
  2  1  1  0  0  0  0
  2 21  1  0  0  0  0
  3  1  1  0  0  0  0
  3 22  1  0  0  0  0
  4  1  2  0  0  0  0
  5  3  1  0  0  0  0
  6  3  1  0  0  0  0
  7  5  2  0  0  0  0
  7 23  1  0  0  0  0
  8  5  1  0  0  0  0
  8 24  1  0  0  0  0
  9  2  1  0  0  0  0
  9 25  1  0  0  0  0
 10  8  2  0  0  0  0
 10 26  1  0  0  0  0
 11  7  1  0  0  0  0
 11 27  1  0  0  0  0
 12 10  1  0  0  0  0
 12 11  2  0  0  0  0
 13  6  1  0  0  0  0
 13 28  1  0  0  0  0
 13 29  1  0  0  0  0
 13 30  1  0  0  0  0
 14  6  1  0  0  0  0
 14 31  1  0  0  0  0
 14 32  1  0  0  0  0
 14 33  1  0  0  0  0
 15 12  1  0  0  0  0
 15 34  1  0  0  0  0
 15 35  1  0  0  0  0
 15 36  1  0  0  0  0
 16  9  1  0  0  0  0
 16 37  1  0  0  0  0
 16 38  1  0  0  0  0
 17  9  1  0  0  0  0
 17 39  1  0  0  0  0
 17 40  1  0  0  0  0
 18 17  1  0  0  0  0
 18 41  1  0  0  0  0
 18 42  1  0  0  0  0
 19 16  1  0  0  0  0
 19 20  1  0  0  0  0
 19 43  1  0  0  0  0
 19 44  1  0  0  0  0
 20 18  1  0  0  0  0
 20 45  1  0  0  0  0
 20 46  1  0  0  0  0
M  END
>  <Mol_ID>
8937

>  <Formula>
C17H26N2O

>  <MolWeight>
274.40114

>  <Cat>
P2496

>  <Name>
WAY-326792

>  <Synonyms>
N/A

>  <Target>
Serotonin Transporter

>  <Form>
free base

>  <CAS>
1041098-30-9

>  <URL>
N/A

$$$$
