WAY-604008-A
 OpenBabel08302521393D

 46 49  0  0  0  0  0  0  0  0999 V2000
   -1.4293    0.3488    0.1830 C   0  0  3  0  0  0  0  0  0  0  0  0
   -2.9115    0.7030    0.3818 C   0  0  0  0  0  0  0  0  0  0  0  0
   -7.7026   -3.0293   -4.3193 N   0  0  0  0  0  0  0  0  0  0  0  0
   -7.1307   -1.9139   -2.4930 N   0  0  0  0  0  0  0  0  0  0  0  0
   -0.5963    1.0763    1.2694 C   0  0  0  0  0  0  0  0  0  0  0  0
   -0.9227    0.8117   -1.2092 C   0  0  0  0  0  0  0  0  0  0  0  0
   -1.1892   -1.1728    0.2992 C   0  0  0  0  0  0  0  0  0  0  0  0
   -6.7032   -2.6650   -3.5518 C   0  0  0  0  0  0  0  0  0  0  0  0
    0.5786    0.5041   -1.3671 C   0  0  3  0  0  0  0  0  0  0  0  0
    0.8964    0.7619    1.1176 C   0  0  3  0  0  0  0  0  0  0  0  0
    0.3113   -1.4908    0.1520 C   0  0  3  0  0  0  0  0  0  0  0  0
   -8.8257   -2.5149   -3.7211 C   0  0  0  0  0  0  0  0  0  0  0  0
   -8.4943   -1.8365   -2.5722 C   0  0  0  0  0  0  0  0  0  0  0  0
   -3.3077    1.4257    1.2935 O   0  0  0  0  0  0  0  0  0  0  0  0
    1.3659    1.2339   -0.2679 C   0  0  0  0  0  0  0  0  0  0  0  0
    0.8030   -1.0115   -1.2250 C   0  0  0  0  0  0  0  0  0  0  0  0
    1.0958   -0.7558    1.2511 C   0  0  0  0  0  0  0  0  0  0  0  0
   -3.7742    0.1817   -0.5606 N   0  0  0  0  0  0  0  0  0  0  0  0
   -6.2939   -1.3067   -1.4707 C   0  0  0  0  0  0  0  0  0  0  0  0
   -5.9109    0.1334   -1.8193 C   0  0  0  0  0  0  0  0  0  0  0  0
   -5.0652    0.8096   -0.7514 C   0  0  0  0  0  0  0  0  0  0  0  0
   -0.7511    2.1619    1.2023 H   0  0  0  0  0  0  0  0  0  0  0  0
   -0.9352    0.7786    2.2705 H   0  0  0  0  0  0  0  0  0  0  0  0
   -1.4722    0.3085   -2.0152 H   0  0  0  0  0  0  0  0  0  0  0  0
   -1.1026    1.8861   -1.3438 H   0  0  0  0  0  0  0  0  0  0  0  0
   -1.5594   -1.5423    1.2633 H   0  0  0  0  0  0  0  0  0  0  0  0
   -1.7499   -1.7143   -0.4735 H   0  0  0  0  0  0  0  0  0  0  0  0
   -5.6623   -2.9156   -3.7216 H   0  0  0  0  0  0  0  0  0  0  0  0
    0.9222    0.8371   -2.3537 H   0  0  0  0  0  0  0  0  0  0  0  0
    1.4629    1.2808    1.8978 H   0  0  0  0  0  0  0  0  0  0  0  0
    0.4697   -2.5710    0.2446 H   0  0  0  0  0  0  0  0  0  0  0  0
   -9.8093   -2.6651   -4.1471 H   0  0  0  0  0  0  0  0  0  0  0  0
   -9.0966   -1.3172   -1.8394 H   0  0  0  0  0  0  0  0  0  0  0  0
    2.4397    1.0429   -0.3832 H   0  0  0  0  0  0  0  0  0  0  0  0
    1.2240    2.3179   -0.3630 H   0  0  0  0  0  0  0  0  0  0  0  0
    0.2717   -1.5472   -2.0210 H   0  0  0  0  0  0  0  0  0  0  0  0
    1.8688   -1.2439   -1.3431 H   0  0  0  0  0  0  0  0  0  0  0  0
    2.1624   -1.0006    1.1818 H   0  0  0  0  0  0  0  0  0  0  0  0
    0.7547   -1.0920    2.2384 H   0  0  0  0  0  0  0  0  0  0  0  0
   -3.3713   -0.3299   -1.3335 H   0  0  0  0  0  0  0  0  0  0  0  0
   -5.4050   -1.9359   -1.3685 H   0  0  0  0  0  0  0  0  0  0  0  0
   -6.8499   -1.3491   -0.5299 H   0  0  0  0  0  0  0  0  0  0  0  0
   -6.8193    0.7314   -1.9689 H   0  0  0  0  0  0  0  0  0  0  0  0
   -5.3672    0.1499   -2.7724 H   0  0  0  0  0  0  0  0  0  0  0  0
   -5.5896    0.8690    0.2119 H   0  0  0  0  0  0  0  0  0  0  0  0
   -4.8571    1.8453   -1.0618 H   0  0  0  0  0  0  0  0  0  0  0  0
  2  1  1  0  0  0  0
  3  8  2  0  0  0  0
  3 12  1  0  0  0  0
  4 19  1  0  0  0  0
  5  1  1  0  0  0  0
  5 22  1  0  0  0  0
  5 23  1  0  0  0  0
  6  1  1  0  0  0  0
  6 24  1  0  0  0  0
  6 25  1  0  0  0  0
  7  1  1  0  0  0  0
  7 26  1  0  0  0  0
  7 27  1  0  0  0  0
  8  4  1  0  0  0  0
  8 28  1  0  0  0  0
  9  6  1  0  0  0  0
  9 16  1  0  0  0  0
  9 29  1  0  0  0  0
 10  5  1  0  0  0  0
 10 30  1  0  0  0  0
 11  7  1  0  0  0  0
 11 31  1  0  0  0  0
 12 13  2  0  0  0  0
 12 32  1  0  0  0  0
 13  4  1  0  0  0  0
 13 33  1  0  0  0  0
 14  2  2  0  0  0  0
 15  9  1  0  0  0  0
 15 10  1  0  0  0  0
 15 34  1  0  0  0  0
 15 35  1  0  0  0  0
 16 11  1  0  0  0  0
 16 36  1  0  0  0  0
 16 37  1  0  0  0  0
 17 11  1  0  0  0  0
 17 10  1  0  0  0  0
 17 38  1  0  0  0  0
 17 39  1  0  0  0  0
 18  2  1  0  0  0  0
 18 40  1  0  0  0  0
 19 20  1  0  0  0  0
 19 41  1  0  0  0  0
 19 42  1  0  0  0  0
 20 21  1  0  0  0  0
 20 43  1  0  0  0  0
 20 44  1  0  0  0  0
 21 18  1  0  0  0  0
 21 45  1  0  0  0  0
 21 46  1  0  0  0  0
M  END
>  <Mol_ID>
8113

>  <Formula>
C17H25N3O

>  <MolWeight>
287.3999

>  <Cat>
P2826

>  <Name>
WAY-604008-A

>  <Synonyms>
N/A

>  <Target>
11¦Â-HSD1

>  <Form>
free base

>  <CAS>
294894-26-1

>  <URL>
N/A

$$$$
