WAY-658494
 OpenBabel08302521433D

 32 33  0  0  0  0  0  0  0  0999 V2000
   -1.4097    0.0505   -0.0206 C   0  0  0  0  0  0  0  0  0  0  0  0
   -0.5405   -0.9971   -0.0148 N   0  0  0  0  0  0  0  0  0  0  0  0
    0.9653    0.7716   -0.0965 C   0  0  0  0  0  0  0  0  0  0  0  0
    0.8017   -0.7132   -0.0564 C   0  0  0  0  0  0  0  0  0  0  0  0
   -0.5857    1.5698   -0.0634 S   0  0  0  0  0  0  0  0  0  0  0  0
   -2.7416   -0.0359   -0.0074 C   0  0  0  0  0  0  0  0  0  0  0  0
    2.1007    1.4807   -0.1347 C   0  0  0  0  0  0  0  0  0  0  0  0
    3.3832    0.8864   -0.0883 C   0  0  0  0  0  0  0  0  0  0  0  0
    4.1437    0.6642    1.4322 S   0  0  0  0  0  0  0  0  0  0  0  0
   -3.4326   -1.3312   -0.0040 C   0  0  0  0  0  0  0  0  0  0  0  0
    5.5068   -0.0798    0.7263 C   0  0  0  0  0  0  0  0  0  0  0  0
    4.1960    0.4590   -1.1195 C   0  0  0  0  0  0  0  0  0  0  0  0
    5.4173   -0.1078   -0.6496 C   0  0  0  0  0  0  0  0  0  0  0  0
    1.6810   -1.5593   -0.0734 O   0  0  0  0  0  0  0  0  0  0  0  0
   -2.8824   -2.4205   -0.0067 O   0  0  0  0  0  0  0  0  0  0  0  0
   -4.7659   -1.0978   -0.0093 O   0  0  0  0  0  0  0  0  0  0  0  0
    6.5987   -0.5991    1.5935 C   0  0  0  0  0  0  0  0  0  0  0  0
   -5.5528   -2.2922   -0.0219 C   0  0  0  0  0  0  0  0  0  0  0  0
   -7.0136   -1.8935   -0.0212 C   0  0  0  0  0  0  0  0  0  0  0  0
   -0.8572   -1.9639    0.0049 H   0  0  0  0  0  0  0  0  0  0  0  0
   -3.3652    0.8497   -0.0135 H   0  0  0  0  0  0  0  0  0  0  0  0
    2.0680    2.5670   -0.1515 H   0  0  0  0  0  0  0  0  0  0  0  0
    3.9195    0.5242   -2.1661 H   0  0  0  0  0  0  0  0  0  0  0  0
    6.1819   -0.5290   -1.2908 H   0  0  0  0  0  0  0  0  0  0  0  0
    6.7636   -1.6631    1.3962 H   0  0  0  0  0  0  0  0  0  0  0  0
    7.5289   -0.0585    1.3940 H   0  0  0  0  0  0  0  0  0  0  0  0
    6.3672   -0.4903    2.6585 H   0  0  0  0  0  0  0  0  0  0  0  0
   -5.3263   -2.8730   -0.9232 H   0  0  0  0  0  0  0  0  0  0  0  0
   -5.3298   -2.8894    0.8694 H   0  0  0  0  0  0  0  0  0  0  0  0
   -7.2467   -1.2886    0.8612 H   0  0  0  0  0  0  0  0  0  0  0  0
   -7.2454   -1.2806   -0.8985 H   0  0  0  0  0  0  0  0  0  0  0  0
   -7.6559   -2.7779   -0.0259 H   0  0  0  0  0  0  0  0  0  0  0  0
  2  1  1  0  0  0  0
  2 20  1  0  0  0  0
  3  5  1  0  0  0  0
  3  4  1  0  0  0  0
  4  2  1  0  0  0  0
  5  1  1  0  0  0  0
  6  1  2  0  0  0  0
  6 21  1  0  0  0  0
  7  3  2  0  0  0  0
  7 22  1  0  0  0  0
  8  7  1  0  0  0  0
  9  8  1  0  0  0  0
 10  6  1  0  0  0  0
 11  9  1  0  0  0  0
 11 13  2  0  0  0  0
 12  8  2  0  0  0  0
 12 23  1  0  0  0  0
 13 12  1  0  0  0  0
 13 24  1  0  0  0  0
 14  4  2  0  0  0  0
 15 10  2  0  0  0  0
 16 10  1  0  0  0  0
 17 11  1  0  0  0  0
 17 25  1  0  0  0  0
 17 26  1  0  0  0  0
 17 27  1  0  0  0  0
 18 16  1  0  0  0  0
 18 28  1  0  0  0  0
 18 29  1  0  0  0  0
 19 18  1  0  0  0  0
 19 30  1  0  0  0  0
 19 31  1  0  0  0  0
 19 32  1  0  0  0  0
M  END
>  <Mol_ID>
8824

>  <Formula>
C13H13NO3S2

>  <MolWeight>
295.37722

>  <Cat>
P3170

>  <Name>
WAY-658494

>  <Synonyms>
N/A

>  <Target>
Androgen Receptor

>  <Form>
free base

>  <CAS>
1351358-93-4

>  <URL>
N/A

$$$$
