WAY-323335-A
 OpenBabel08302521423D

 44 47  0  0  0  0  0  0  0  0999 V2000
   -0.0224   -1.1396    0.9979 N   0  0  0  0  0  0  0  0  0  0  0  0
    1.1962   -0.6397    0.3218 C   0  0  0  0  0  0  0  0  0  0  0  0
    0.0785    1.8919    0.1706 S   0  0  0  0  0  0  0  0  0  0  0  0
    1.3428    0.6915   -0.1181 C   0  0  0  0  0  0  0  0  0  0  0  0
    0.1333   -2.1967    1.9564 C   0  0  0  0  0  0  0  0  0  0  0  0
   -1.2608   -0.5431    0.4563 C   0  0  0  0  0  0  0  0  0  0  0  0
   -1.2738    0.7680   -0.0858 C   0  0  0  0  0  0  0  0  0  0  0  0
   -1.0589   -2.8477    2.6648 C   0  0  0  0  0  0  0  0  0  0  0  0
    2.2578   -1.5088    0.0034 C   0  0  0  0  0  0  0  0  0  0  0  0
   -0.5306   -3.7733    5.1416 N   0  0  0  0  0  0  0  0  0  0  0  0
    1.2515   -2.6125    2.2955 O   0  0  0  0  0  0  0  0  0  0  0  0
    2.4797    1.1343   -0.8185 C   0  0  0  0  0  0  0  0  0  0  0  0
   -0.7670   -4.0182    3.6965 C   0  0  0  0  0  0  0  0  0  0  0  0
    1.5835   -5.6494    6.1757 O   0  0  0  0  0  0  0  0  0  0  0  0
    3.3953   -1.0661   -0.6898 C   0  0  0  0  0  0  0  0  0  0  0  0
    3.5094    0.2518   -1.1051 C   0  0  0  0  0  0  0  0  0  0  0  0
   -2.4448   -1.2529    0.2798 C   0  0  0  0  0  0  0  0  0  0  0  0
   -2.3479    1.2783   -0.8485 C   0  0  0  0  0  0  0  0  0  0  0  0
   -0.7535   -5.0043    5.9596 C   0  0  0  0  0  0  0  0  0  0  0  0
    0.8322   -3.3145    5.4950 C   0  0  0  0  0  0  0  0  0  0  0  0
    1.9635   -4.3704    5.6537 C   0  0  0  0  0  0  0  0  0  0  0  0
    0.3036   -6.0944    5.7367 C   0  0  0  0  0  0  0  0  0  0  0  0
   -3.5459   -0.7406   -0.4572 C   0  0  0  0  0  0  0  0  0  0  0  0
   -3.4840    0.5071   -1.0502 C   0  0  0  0  0  0  0  0  0  0  0  0
   -1.7088   -2.0928    3.1163 H   0  0  0  0  0  0  0  0  0  0  0  0
   -1.6094   -3.3698    1.8774 H   0  0  0  0  0  0  0  0  0  0  0  0
    2.2182   -2.5646    0.2490 H   0  0  0  0  0  0  0  0  0  0  0  0
    2.5630    2.1688   -1.1460 H   0  0  0  0  0  0  0  0  0  0  0  0
   -1.7113   -4.5813    3.6817 H   0  0  0  0  0  0  0  0  0  0  0  0
   -0.0138   -4.6954    3.2856 H   0  0  0  0  0  0  0  0  0  0  0  0
    4.1904   -1.7711   -0.9192 H   0  0  0  0  0  0  0  0  0  0  0  0
    4.3890    0.5903   -1.6482 H   0  0  0  0  0  0  0  0  0  0  0  0
   -2.5759   -2.2718    0.6226 H   0  0  0  0  0  0  0  0  0  0  0  0
   -2.2881    2.2648   -1.3033 H   0  0  0  0  0  0  0  0  0  0  0  0
   -0.7113   -4.7206    7.0219 H   0  0  0  0  0  0  0  0  0  0  0  0
   -1.7572   -5.4103    5.7963 H   0  0  0  0  0  0  0  0  0  0  0  0
    0.7354   -2.8343    6.4800 H   0  0  0  0  0  0  0  0  0  0  0  0
    1.1645   -2.5092    4.8337 H   0  0  0  0  0  0  0  0  0  0  0  0
    2.5131   -4.5132    4.7191 H   0  0  0  0  0  0  0  0  0  0  0  0
    2.6838   -3.9816    6.3866 H   0  0  0  0  0  0  0  0  0  0  0  0
    0.0554   -6.9702    6.3403 H   0  0  0  0  0  0  0  0  0  0  0  0
    0.3530   -6.4388    4.6969 H   0  0  0  0  0  0  0  0  0  0  0  0
   -4.4380   -1.3478   -0.5991 H   0  0  0  0  0  0  0  0  0  0  0  0
   -4.2995    0.8887   -1.6629 H   0  0  0  0  0  0  0  0  0  0  0  0
  2  1  1  0  0  0  0
  3  7  1  0  0  0  0
  4  2  2  0  0  0  0
  4  3  1  0  0  0  0
  5  1  1  0  0  0  0
  6  1  1  0  0  0  0
  7  6  2  0  0  0  0
  8  5  1  0  0  0  0
  8 25  1  0  0  0  0
  8 26  1  0  0  0  0
  9  2  1  0  0  0  0
  9 27  1  0  0  0  0
 10 13  1  0  0  0  0
 11  5  2  0  0  0  0
 12  4  1  0  0  0  0
 12 16  2  0  0  0  0
 12 28  1  0  0  0  0
 13  8  1  0  0  0  0
 13 29  1  0  0  0  0
 13 30  1  0  0  0  0
 14 21  1  0  0  0  0
 15  9  2  0  0  0  0
 15 31  1  0  0  0  0
 16 15  1  0  0  0  0
 16 32  1  0  0  0  0
 17  6  1  0  0  0  0
 17 33  1  0  0  0  0
 18  7  1  0  0  0  0
 18 34  1  0  0  0  0
 19 10  1  0  0  0  0
 19 35  1  0  0  0  0
 19 36  1  0  0  0  0
 20 10  1  0  0  0  0
 20 37  1  0  0  0  0
 20 38  1  0  0  0  0
 21 20  1  0  0  0  0
 21 39  1  0  0  0  0
 21 40  1  0  0  0  0
 22 19  1  0  0  0  0
 22 14  1  0  0  0  0
 22 41  1  0  0  0  0
 22 42  1  0  0  0  0
 23 17  2  0  0  0  0
 23 43  1  0  0  0  0
 24 23  1  0  0  0  0
 24 18  2  0  0  0  0
 24 44  1  0  0  0  0
M  END
>  <Mol_ID>
8576

>  <Formula>
C19H19ClN2O2S

>  <MolWeight>
374.88436

>  <Cat>
P2261

>  <Name>
WAY-323335-A

>  <Synonyms>
N/A

>  <Target>
tyrosinase

>  <Form>
free base

>  <CAS>
854026-78-1

>  <URL>
N/A

$$$$
