WAY-300380
 OpenBabel08302521413D

 51 54  0  0  0  0  0  0  0  0999 V2000
   -1.3454    1.6067   -0.5999 C   0  0  3  0  0  0  0  0  0  0  0  0
   -0.1861    0.7301   -0.1702 C   0  0  0  0  0  0  0  0  0  0  0  0
   -1.2344    1.9156   -2.1028 C   0  0  0  0  0  0  0  0  0  0  0  0
   -2.6713    0.9621   -0.2303 C   0  0  0  0  0  0  0  0  0  0  0  0
   -0.3455   -0.5858    0.0331 C   0  0  0  0  0  0  0  0  0  0  0  0
    1.1428    1.3438    0.0818 C   0  0  0  0  0  0  0  0  0  0  0  0
   -1.3007    0.8968   -3.0793 C   0  0  0  0  0  0  0  0  0  0  0  0
   -0.9689    3.2419   -2.5229 C   0  0  0  0  0  0  0  0  0  0  0  0
   -2.7359   -0.3621    0.0328 C   0  0  0  0  0  0  0  0  0  0  0  0
   -3.8915    1.8109   -0.0873 C   0  0  0  0  0  0  0  0  0  0  0  0
   -1.5993   -1.1727   -0.0568 O   0  0  0  0  0  0  0  0  0  0  0  0
    0.7730   -1.5436    0.3451 C   0  0  0  0  0  0  0  0  0  0  0  0
    2.2883    0.4441    0.5117 C   0  0  0  0  0  0  0  0  0  0  0  0
    1.2799    2.5642    0.0316 O   0  0  0  0  0  0  0  0  0  0  0  0
   -1.0868    1.2339   -4.4023 C   0  0  0  0  0  0  0  0  0  0  0  0
   -0.7429    3.5496   -3.8704 C   0  0  0  0  0  0  0  0  0  0  0  0
   -3.8498   -1.0682    0.4140 N   0  0  0  0  0  0  0  0  0  0  0  0
   -3.5823    3.1304    0.0143 O   0  0  0  0  0  0  0  0  0  0  0  0
   -5.0277    1.3541   -0.0234 O   0  0  0  0  0  0  0  0  0  0  0  0
    2.1619   -0.9857   -0.0423 C   0  0  0  0  0  0  0  0  0  0  0  0
   -0.8068    2.5227   -4.7856 C   0  0  0  0  0  0  0  0  0  0  0  0
   -1.1033    0.3743   -5.4577 O   0  0  0  0  0  0  0  0  0  0  0  0
   -4.6807    4.0166    0.3084 C   0  0  0  0  0  0  0  0  0  0  0  0
    2.3525   -0.9902   -1.5743 C   0  0  0  0  0  0  0  0  0  0  0  0
    3.2690   -1.8694    0.5656 C   0  0  0  0  0  0  0  0  0  0  0  0
   -0.6035    2.6348   -6.1257 O   0  0  0  0  0  0  0  0  0  0  0  0
   -0.9127    1.2934   -6.5555 C   0  0  0  0  0  0  0  0  0  0  0  0
   -5.3989    4.4548   -0.9568 C   0  0  0  0  0  0  0  0  0  0  0  0
   -1.2612    2.5415   -0.0322 H   0  0  0  0  0  0  0  0  0  0  0  0
   -1.4881   -0.1396   -2.8181 H   0  0  0  0  0  0  0  0  0  0  0  0
   -0.9054    4.0426   -1.7871 H   0  0  0  0  0  0  0  0  0  0  0  0
    0.7378   -1.7650    1.4198 H   0  0  0  0  0  0  0  0  0  0  0  0
    0.6026   -2.4939   -0.1775 H   0  0  0  0  0  0  0  0  0  0  0  0
    2.3003    0.4343    1.6059 H   0  0  0  0  0  0  0  0  0  0  0  0
    3.2277    0.8997    0.1696 H   0  0  0  0  0  0  0  0  0  0  0  0
   -0.5113    4.5609   -4.1844 H   0  0  0  0  0  0  0  0  0  0  0  0
   -3.8299   -2.0286    0.0801 H   0  0  0  0  0  0  0  0  0  0  0  0
   -4.7269   -0.5825    0.2110 H   0  0  0  0  0  0  0  0  0  0  0  0
   -5.3779    3.5555    1.0183 H   0  0  0  0  0  0  0  0  0  0  0  0
   -4.2633    4.8985    0.8085 H   0  0  0  0  0  0  0  0  0  0  0  0
    3.3063   -0.5261   -1.8505 H   0  0  0  0  0  0  0  0  0  0  0  0
    2.3575   -2.0137   -1.9660 H   0  0  0  0  0  0  0  0  0  0  0  0
    1.5612   -0.4459   -2.0980 H   0  0  0  0  0  0  0  0  0  0  0  0
    3.2098   -2.8963    0.1868 H   0  0  0  0  0  0  0  0  0  0  0  0
    4.2631   -1.4811    0.3149 H   0  0  0  0  0  0  0  0  0  0  0  0
    3.1961   -1.9125    1.6577 H   0  0  0  0  0  0  0  0  0  0  0  0
   -0.1021    0.9248   -7.1939 H   0  0  0  0  0  0  0  0  0  0  0  0
   -1.8356    1.3258   -7.1475 H   0  0  0  0  0  0  0  0  0  0  0  0
   -5.5828    3.6138   -1.6313 H   0  0  0  0  0  0  0  0  0  0  0  0
   -6.3549    4.9305   -0.7141 H   0  0  0  0  0  0  0  0  0  0  0  0
   -4.7921    5.1829   -1.5053 H   0  0  0  0  0  0  0  0  0  0  0  0
  1  2  1  0  0  0  0
  1  3  1  0  0  0  0
  1  4  1  0  0  0  0
  1 29  1  0  0  0  0
  2  5  2  0  0  0  0
  2  6  1  0  0  0  0
  3  7  2  0  0  0  0
  3  8  1  0  0  0  0
  4  9  2  0  0  0  0
  4 10  1  0  0  0  0
  5 11  1  0  0  0  0
  5 12  1  0  0  0  0
  6 13  1  0  0  0  0
  6 14  2  0  0  0  0
  7 15  1  0  0  0  0
  7 30  1  0  0  0  0
  8 16  2  0  0  0  0
  8 31  1  0  0  0  0
  9 17  1  0  0  0  0
  9 11  1  0  0  0  0
 10 18  1  0  0  0  0
 10 19  2  0  0  0  0
 12 20  1  0  0  0  0
 12 32  1  0  0  0  0
 12 33  1  0  0  0  0
 13 20  1  0  0  0  0
 13 34  1  0  0  0  0
 13 35  1  0  0  0  0
 15 21  2  0  0  0  0
 15 22  1  0  0  0  0
 16 21  1  0  0  0  0
 16 36  1  0  0  0  0
 17 37  1  0  0  0  0
 17 38  1  0  0  0  0
 18 23  1  0  0  0  0
 20 24  1  0  0  0  0
 20 25  1  0  0  0  0
 21 26  1  0  0  0  0
 22 27  1  0  0  0  0
 23 28  1  0  0  0  0
 23 39  1  0  0  0  0
 23 40  1  0  0  0  0
 24 41  1  0  0  0  0
 24 42  1  0  0  0  0
 24 43  1  0  0  0  0
 25 44  1  0  0  0  0
 25 45  1  0  0  0  0
 25 46  1  0  0  0  0
 26 27  1  0  0  0  0
 27 47  1  0  0  0  0
 27 48  1  0  0  0  0
 28 49  1  0  0  0  0
 28 50  1  0  0  0  0
 28 51  1  0  0  0  0
M  END
>  <Mol_ID>
8406

>  <Formula>
C21H23NO6

>  <MolWeight>
385.41042

>  <Cat>
P2139

>  <Name>
WAY-300380

>  <Synonyms>
N/A

>  <Target>
others

>  <Form>
free base

>  <CAS>
342397-01-7

>  <URL>
N/A

$$$$
