WAY-326860
 OpenBabel08302521443D

 59 62  0  0  0  0  0  0  0  0999 V2000
    0.3479    1.9385    0.2877 C   0  0  3  0  0  0  0  0  0  0  0  0
    2.3730    0.4766   -0.0019 N   0  0  0  0  0  0  0  0  0  0  0  0
    1.6492    1.6500   -0.5601 C   0  0  3  0  0  0  0  0  0  0  0  0
    1.6798   -0.6749    0.3640 C   0  0  0  0  0  0  0  0  0  0  0  0
   -0.4604    3.1046   -0.3325 C   0  0  0  0  0  0  0  0  0  0  0  0
   -0.4624    0.6275    0.3350 C   0  0  0  0  0  0  0  0  0  0  0  0
    0.2025   -0.6120    0.3092 C   0  0  0  0  0  0  0  0  0  0  0  0
    1.3844    1.5433   -2.0770 C   0  0  0  0  0  0  0  0  0  0  0  0
   -0.4220    4.4243   -0.0408 N   0  0  0  0  0  0  0  0  0  0  0  0
    1.1340    0.3274   -2.7456 C   0  0  0  0  0  0  0  0  0  0  0  0
    0.6398    0.2836   -4.0639 C   0  0  0  0  0  0  0  0  0  0  0  0
    2.2332   -1.7358    0.6536 O   0  0  0  0  0  0  0  0  0  0  0  0
   -1.2557    2.8824   -1.2633 O   0  0  0  0  0  0  0  0  0  0  0  0
    1.2218    2.7268   -2.8116 C   0  0  0  0  0  0  0  0  0  0  0  0
   -0.0747    5.2740    1.0184 C   0  0  0  0  0  0  0  0  0  0  0  0
    0.4202    1.4898   -4.7458 C   0  0  0  0  0  0  0  0  0  0  0  0
    0.5607    4.8904    2.1858 C   0  0  0  0  0  0  0  0  0  0  0  0
    0.7122    2.6993   -4.1103 C   0  0  0  0  0  0  0  0  0  0  0  0
    3.7999    0.3255   -0.2358 C   0  0  0  0  0  0  0  0  0  0  0  0
    0.6104    5.7762    3.2776 C   0  0  0  0  0  0  0  0  0  0  0  0
   -1.8601    0.6123    0.2929 C   0  0  0  0  0  0  0  0  0  0  0  0
    0.3062   -0.8791   -4.7066 O   0  0  0  0  0  0  0  0  0  0  0  0
   -0.4980   -1.8053    0.0783 C   0  0  0  0  0  0  0  0  0  0  0  0
   -0.1265    1.6564   -5.9932 O   0  0  0  0  0  0  0  0  0  0  0  0
    1.0846    5.4470    4.5210 O   0  0  0  0  0  0  0  0  0  0  0  0
   -0.4229    7.5095    1.9628 C   0  0  0  0  0  0  0  0  0  0  0  0
   -0.5298    6.6050    0.9042 C   0  0  0  0  0  0  0  0  0  0  0  0
    0.1285    7.0832    3.1635 C   0  0  0  0  0  0  0  0  0  0  0  0
    0.4878   -2.1111   -4.0236 C   0  0  0  0  0  0  0  0  0  0  0  0
    0.1379    0.6397   -6.9502 C   0  0  0  0  0  0  0  0  0  0  0  0
    1.1406    4.0515    4.7983 C   0  0  0  0  0  0  0  0  0  0  0  0
   -2.5505   -0.5618   -0.0161 C   0  0  0  0  0  0  0  0  0  0  0  0
   -1.8681   -1.7662   -0.1482 C   0  0  0  0  0  0  0  0  0  0  0  0
    0.6261    2.1627    1.3203 H   0  0  0  0  0  0  0  0  0  0  0  0
    2.3279    2.5024   -0.4119 H   0  0  0  0  0  0  0  0  0  0  0  0
   -1.0263    4.8737   -0.7284 H   0  0  0  0  0  0  0  0  0  0  0  0
    1.2848   -0.6027   -2.2135 H   0  0  0  0  0  0  0  0  0  0  0  0
    1.3907    3.6968   -2.3494 H   0  0  0  0  0  0  0  0  0  0  0  0
    0.9977    3.9104    2.2743 H   0  0  0  0  0  0  0  0  0  0  0  0
    0.5027    3.6353   -4.6226 H   0  0  0  0  0  0  0  0  0  0  0  0
    4.2527   -0.2198    0.6005 H   0  0  0  0  0  0  0  0  0  0  0  0
    3.9540   -0.2665   -1.1449 H   0  0  0  0  0  0  0  0  0  0  0  0
    4.2853    1.2994   -0.3281 H   0  0  0  0  0  0  0  0  0  0  0  0
   -2.4387    1.5300    0.3782 H   0  0  0  0  0  0  0  0  0  0  0  0
    0.0359   -2.7506   -0.0072 H   0  0  0  0  0  0  0  0  0  0  0  0
   -0.8076    8.5238    1.8597 H   0  0  0  0  0  0  0  0  0  0  0  0
   -1.0151    6.9508   -0.0074 H   0  0  0  0  0  0  0  0  0  0  0  0
    0.1613    7.7576    4.0163 H   0  0  0  0  0  0  0  0  0  0  0  0
    1.5446   -2.2799   -3.7946 H   0  0  0  0  0  0  0  0  0  0  0  0
   -0.1315   -2.1630   -3.1228 H   0  0  0  0  0  0  0  0  0  0  0  0
    0.1616   -2.9129   -4.6935 H   0  0  0  0  0  0  0  0  0  0  0  0
    1.1946    0.3524   -6.9535 H   0  0  0  0  0  0  0  0  0  0  0  0
   -0.5178   -0.2234   -6.8058 H   0  0  0  0  0  0  0  0  0  0  0  0
   -0.0966    1.0493   -7.9379 H   0  0  0  0  0  0  0  0  0  0  0  0
    0.2464    3.5229    4.4457 H   0  0  0  0  0  0  0  0  0  0  0  0
    2.0456    3.6228    4.3570 H   0  0  0  0  0  0  0  0  0  0  0  0
    1.1887    3.9215    5.8821 H   0  0  0  0  0  0  0  0  0  0  0  0
   -3.6199   -0.5150   -0.2077 H   0  0  0  0  0  0  0  0  0  0  0  0
   -2.4029   -2.6653   -0.4428 H   0  0  0  0  0  0  0  0  0  0  0  0
  1 34  1  0  0  0  0
  2  3  1  0  0  0  0
  3  1  1  0  0  0  0
  3 35  1  0  0  0  0
  4  7  1  0  0  0  0
  4  2  1  0  0  0  0
  5  1  1  0  0  0  0
  6  1  1  0  0  0  0
  7  6  2  0  0  0  0
  8  3  1  0  0  0  0
  9  5  1  0  0  0  0
  9 36  1  0  0  0  0
 10  8  2  0  0  0  0
 10 37  1  0  0  0  0
 11 10  1  0  0  0  0
 12  4  2  0  0  0  0
 13  5  2  0  0  0  0
 14  8  1  0  0  0  0
 14 38  1  0  0  0  0
 15  9  1  0  0  0  0
 16 18  1  0  0  0  0
 16 11  2  0  0  0  0
 17 15  2  0  0  0  0
 17 39  1  0  0  0  0
 18 14  2  0  0  0  0
 18 40  1  0  0  0  0
 19  2  1  0  0  0  0
 19 41  1  0  0  0  0
 19 42  1  0  0  0  0
 19 43  1  0  0  0  0
 20 17  1  0  0  0  0
 20 28  2  0  0  0  0
 21  6  1  0  0  0  0
 21 44  1  0  0  0  0
 22 11  1  0  0  0  0
 23  7  1  0  0  0  0
 23 45  1  0  0  0  0
 24 16  1  0  0  0  0
 25 20  1  0  0  0  0
 26 27  2  0  0  0  0
 26 46  1  0  0  0  0
 27 15  1  0  0  0  0
 27 47  1  0  0  0  0
 28 26  1  0  0  0  0
 28 48  1  0  0  0  0
 29 22  1  0  0  0  0
 29 49  1  0  0  0  0
 29 50  1  0  0  0  0
 29 51  1  0  0  0  0
 30 24  1  0  0  0  0
 30 52  1  0  0  0  0
 30 53  1  0  0  0  0
 30 54  1  0  0  0  0
 31 25  1  0  0  0  0
 31 55  1  0  0  0  0
 31 56  1  0  0  0  0
 31 57  1  0  0  0  0
 32 21  2  0  0  0  0
 32 58  1  0  0  0  0
 33 32  1  0  0  0  0
 33 23  2  0  0  0  0
 33 59  1  0  0  0  0
M  END
>  <Mol_ID>
8945

>  <Formula>
C26H26N2O5

>  <MolWeight>
446.49504

>  <Cat>
P2504

>  <Name>
WAY-326860

>  <Synonyms>
N/A

>  <Target>
Anti-infection

>  <Form>
free base

>  <CAS>
685844-21-7

>  <URL>
N/A

$$$$
