WAY-313223-A
 OpenBabel08302521403D

 42 44  0  0  0  0  0  0  0  0999 V2000
    0.0238   -0.3377   -0.4749 C   0  0  0  0  0  0  0  0  0  0  0  0
    1.3369   -0.4589   -0.9277 N   0  3  0  0  0  0  0  0  0  0  0  0
   -0.0427    0.0784    0.8533 C   0  0  0  0  0  0  0  0  0  0  0  0
   -1.1782   -0.5641   -1.1835 C   0  0  0  0  0  0  0  0  0  0  0  0
    2.2668   -0.1562   -0.0305 C   0  0  0  0  0  0  0  0  0  0  0  0
    1.6368   -0.8687   -2.3034 C   0  0  0  0  0  0  0  0  0  0  0  0
    1.5477    0.3033    1.4635 S   0  0  0  0  0  0  0  0  0  0  0  0
   -1.2692    0.2749    1.5123 C   0  0  0  0  0  0  0  0  0  0  0  0
   -2.4036   -0.3638   -0.5347 C   0  0  0  0  0  0  0  0  0  0  0  0
    3.6794   -0.1205   -0.1815 C   0  0  0  0  0  0  0  0  0  0  0  0
    1.5767    0.3081   -3.2647 C   0  0  0  0  0  0  0  0  0  0  0  0
   -2.4454    0.0483    0.7923 C   0  0  0  0  0  0  0  0  0  0  0  0
    4.4982   -1.1615    0.0605 C   0  0  0  0  0  0  0  0  0  0  0  0
    6.0077   -0.9501    0.0971 C   0  0  0  0  0  0  0  0  0  0  0  0
    4.0338   -2.4936    0.3602 C   0  0  0  0  0  0  0  0  0  0  0  0
    6.9178   -2.1498   -0.2351 C   0  0  3  0  0  0  0  0  0  0  0  0
    4.8081   -3.5806    0.2379 C   0  0  0  0  0  0  0  0  0  0  0  0
    6.2758   -3.5398   -0.0815 C   0  0  0  0  0  0  0  0  0  0  0  0
    7.5645   -2.0084   -1.6165 C   0  0  0  0  0  0  0  0  0  0  0  0
    4.1902   -4.9490    0.3243 C   0  0  0  0  0  0  0  0  0  0  0  0
   -1.1950   -0.8782   -2.2224 H   0  0  0  0  0  0  0  0  0  0  0  0
    2.6142   -1.3571   -2.3593 H   0  0  0  0  0  0  0  0  0  0  0  0
    0.9099   -1.6321   -2.6063 H   0  0  0  0  0  0  0  0  0  0  0  0
   -1.3130    0.6076    2.5497 H   0  0  0  0  0  0  0  0  0  0  0  0
   -3.3371   -0.5279   -1.0723 H   0  0  0  0  0  0  0  0  0  0  0  0
    4.1142    0.8578   -0.3895 H   0  0  0  0  0  0  0  0  0  0  0  0
    2.4831    0.9153   -3.1855 H   0  0  0  0  0  0  0  0  0  0  0  0
    1.4908   -0.0451   -4.2971 H   0  0  0  0  0  0  0  0  0  0  0  0
    0.7221    0.9610   -3.0570 H   0  0  0  0  0  0  0  0  0  0  0  0
   -3.4092    0.2026    1.2817 H   0  0  0  0  0  0  0  0  0  0  0  0
    6.2570   -0.6296    1.1202 H   0  0  0  0  0  0  0  0  0  0  0  0
    6.2795   -0.0976   -0.5416 H   0  0  0  0  0  0  0  0  0  0  0  0
    2.9880   -2.6419    0.6174 H   0  0  0  0  0  0  0  0  0  0  0  0
    7.7587   -2.1069    0.4743 H   0  0  0  0  0  0  0  0  0  0  0  0
    6.4429   -4.1337   -0.9894 H   0  0  0  0  0  0  0  0  0  0  0  0
    6.8080   -4.0677    0.7221 H   0  0  0  0  0  0  0  0  0  0  0  0
    8.1310   -1.0734   -1.6889 H   0  0  0  0  0  0  0  0  0  0  0  0
    8.2714   -2.8278   -1.7949 H   0  0  0  0  0  0  0  0  0  0  0  0
    6.8137   -2.0224   -2.4116 H   0  0  0  0  0  0  0  0  0  0  0  0
    3.5721   -5.0570    1.2202 H   0  0  0  0  0  0  0  0  0  0  0  0
    3.5630   -5.1128   -0.5601 H   0  0  0  0  0  0  0  0  0  0  0  0
    4.9503   -5.7359    0.3373 H   0  0  0  0  0  0  0  0  0  0  0  0
  1  2  1  0  0  0  0
  1  3  2  0  0  0  0
  1  4  1  0  0  0  0
  2  5  2  0  0  0  0
  2  6  1  0  0  0  0
  3  7  1  0  0  0  0
  3  8  1  0  0  0  0
  4  9  2  0  0  0  0
  4 21  1  0  0  0  0
  5 10  1  0  0  0  0
  5  7  1  0  0  0  0
  6 11  1  0  0  0  0
  6 22  1  0  0  0  0
  6 23  1  0  0  0  0
  8 12  2  0  0  0  0
  8 24  1  0  0  0  0
  9 12  1  0  0  0  0
  9 25  1  0  0  0  0
 10 13  2  0  0  0  0
 10 26  1  0  0  0  0
 11 27  1  0  0  0  0
 11 28  1  0  0  0  0
 11 29  1  0  0  0  0
 12 30  1  0  0  0  0
 13 14  1  0  0  0  0
 13 15  1  0  0  0  0
 14 16  1  0  0  0  0
 14 31  1  0  0  0  0
 14 32  1  0  0  0  0
 15 17  2  0  0  0  0
 15 33  1  0  0  0  0
 16 18  1  0  0  0  0
 16 19  1  0  0  0  0
 16 34  1  0  0  0  0
 17 20  1  0  0  0  0
 17 18  1  0  0  0  0
 18 35  1  0  0  0  0
 18 36  1  0  0  0  0
 19 37  1  0  0  0  0
 19 38  1  0  0  0  0
 19 39  1  0  0  0  0
 20 40  1  0  0  0  0
 20 41  1  0  0  0  0
 20 42  1  0  0  0  0
M  CHG  1   2   1
M  END
>  <Mol_ID>
8273

>  <Formula>
C18H22NS+

>  <MolWeight>
284.43898

>  <Cat>
P2245

>  <Name>
WAY-313223-A

>  <Synonyms>
N/A

>  <Target>
TNFa

>  <Form>
free base

>  <CAS>
79151-35-2

>  <URL>
N/A

$$$$
