WAY-320461
 OpenBabel08302521353D

 32 34  0  0  0  0  0  0  0  0999 V2000
    1.0408   -0.0908    0.4210 S   0  0  0  0  0  0  0  0  0  0  0  0
    0.5171   -1.7559   -0.0887 C   0  0  0  0  0  0  0  0  0  0  0  0
    1.0496   -2.8376    0.8399 C   0  0  0  0  0  0  0  0  0  0  0  0
    1.4070   -2.6084    1.9956 O   0  0  0  0  0  0  0  0  0  0  0  0
    1.2829   -8.7493   -0.9907 Br  0  0  0  0  0  0  0  0  0  0  0  0
    4.8371    0.2387    0.1470 C   0  0  0  0  0  0  0  0  0  0  0  0
    3.6567    0.6554    0.7036 O   0  0  0  0  0  0  0  0  0  0  0  0
    4.6664   -0.7430   -0.7177 N   0  0  0  0  0  0  0  0  0  0  0  0
    2.7481   -0.1819    0.1109 C   0  0  0  0  0  0  0  0  0  0  0  0
    3.3141   -1.0132   -0.7421 N   0  0  0  0  0  0  0  0  0  0  0  0
    6.0608    0.9077    0.5698 C   0  0  0  0  0  0  0  0  0  0  0  0
    6.0573    1.9597    1.4915 C   0  0  0  0  0  0  0  0  0  0  0  0
    7.2893    0.4911    0.0467 C   0  0  0  0  0  0  0  0  0  0  0  0
    7.2654    2.5379    1.8445 C   0  0  0  0  0  0  0  0  0  0  0  0
    8.4455    1.1327    0.4611 C   0  0  0  0  0  0  0  0  0  0  0  0
    8.4589    2.1470    1.3480 N   0  0  0  0  0  0  0  0  0  0  0  0
    1.0846   -4.2552    0.3536 C   0  0  0  0  0  0  0  0  0  0  0  0
    0.5736   -4.6466   -0.8914 C   0  0  0  0  0  0  0  0  0  0  0  0
    1.6456   -5.2303    1.1946 C   0  0  0  0  0  0  0  0  0  0  0  0
    0.6370   -5.9881   -1.2902 C   0  0  0  0  0  0  0  0  0  0  0  0
    1.7051   -6.5697    0.7975 C   0  0  0  0  0  0  0  0  0  0  0  0
    1.2022   -6.9414   -0.4457 C   0  0  0  0  0  0  0  0  0  0  0  0
   -0.5763   -1.7915   -0.0495 H   0  0  0  0  0  0  0  0  0  0  0  0
    0.8395   -1.9190   -1.1195 H   0  0  0  0  0  0  0  0  0  0  0  0
    5.1378    2.3295    1.9340 H   0  0  0  0  0  0  0  0  0  0  0  0
    7.3508   -0.3213   -0.6707 H   0  0  0  0  0  0  0  0  0  0  0  0
    7.3099    3.3562    2.5583 H   0  0  0  0  0  0  0  0  0  0  0  0
    9.4186    0.8360    0.0788 H   0  0  0  0  0  0  0  0  0  0  0  0
    0.1174   -3.9396   -1.5768 H   0  0  0  0  0  0  0  0  0  0  0  0
    2.0426   -4.9523    2.1703 H   0  0  0  0  0  0  0  0  0  0  0  0
    0.2427   -6.2781   -2.2616 H   0  0  0  0  0  0  0  0  0  0  0  0
    2.1451   -7.3072    1.4641 H   0  0  0  0  0  0  0  0  0  0  0  0
  1  2  1  0  0  0  0
  1  9  1  0  0  0  0
  2  3  1  0  0  0  0
  2 23  1  0  0  0  0
  2 24  1  0  0  0  0
  3  4  2  0  0  0  0
  3 17  1  0  0  0  0
  5 22  1  0  0  0  0
  6  7  1  0  0  0  0
  6  8  2  0  0  0  0
  6 11  1  0  0  0  0
  7  9  1  0  0  0  0
  8 10  1  0  0  0  0
  9 10  2  0  0  0  0
 11 12  2  0  0  0  0
 11 13  1  0  0  0  0
 12 14  1  0  0  0  0
 12 25  1  0  0  0  0
 13 15  2  0  0  0  0
 13 26  1  0  0  0  0
 14 16  2  0  0  0  0
 14 27  1  0  0  0  0
 15 16  1  0  0  0  0
 15 28  1  0  0  0  0
 17 18  2  0  0  0  0
 17 19  1  0  0  0  0
 18 20  1  0  0  0  0
 18 29  1  0  0  0  0
 19 21  2  0  0  0  0
 19 30  1  0  0  0  0
 20 22  2  0  0  0  0
 20 31  1  0  0  0  0
 21 22  1  0  0  0  0
 21 32  1  0  0  0  0
M  END
>  <Mol_ID>
6922

>  <Formula>
C15H10BrN3O2S

>  <MolWeight>
376.2278

>  <Cat>
E2805

>  <Name>
WAY-320461

>  <Target>
FAK

>  <Form>
Free base

>  <CAS>
491839-65-7

>  <URL>
https://www.selleckchem.com/products/way-320461.html

$$$$
