WAY-119918
 OpenBabel08302521403D

 37 38  0  0  0  0  0  0  0  0999 V2000
    0.8154    0.2869   -0.6410 C   0  0  0  0  0  0  0  0  0  0  0  0
    0.8529    2.7760    2.2848 N   0  0  0  0  0  0  0  0  0  0  0  0
    0.2595    1.1296    0.4921 C   0  0  0  0  0  0  0  0  0  0  0  0
    1.5959   -0.7770   -0.2258 N   0  0  0  0  0  0  0  0  0  0  0  0
    0.5516    0.5859   -1.8037 O   0  0  0  0  0  0  0  0  0  0  0  0
    1.3624    1.9339    1.1855 C   0  0  0  0  0  0  0  0  0  0  0  0
    2.3126   -1.6768   -1.0509 C   0  0  0  0  0  0  0  0  0  0  0  0
    3.8581   -3.4944   -2.5736 C   0  0  0  0  0  0  0  0  0  0  0  0
    2.3290   -1.6088   -2.4433 C   0  0  0  0  0  0  0  0  0  0  0  0
    3.0651   -2.6806   -0.4240 C   0  0  0  0  0  0  0  0  0  0  0  0
    3.8317   -3.5810   -1.1795 C   0  0  0  0  0  0  0  0  0  0  0  0
    3.0923   -2.5070   -3.1981 C   0  0  0  0  0  0  0  0  0  0  0  0
    0.0367    3.9125    1.8221 C   0  0  0  0  0  0  0  0  0  0  0  0
    1.9635    3.3846    3.0479 C   0  0  0  0  0  0  0  0  0  0  0  0
    4.6906   -4.4243   -3.4049 C   0  0  0  0  0  0  0  0  0  0  0  0
    1.0197    5.0371    1.5686 C   0  0  0  0  0  0  0  0  0  0  0  0
    2.0262    4.8652    2.6857 C   0  0  0  0  0  0  0  0  0  0  0  0
   -0.4907    1.7926    0.0467 H   0  0  0  0  0  0  0  0  0  0  0  0
   -0.2679    0.4797    1.1986 H   0  0  0  0  0  0  0  0  0  0  0  0
    1.6703   -0.9340    0.7727 H   0  0  0  0  0  0  0  0  0  0  0  0
    2.0714    1.2134    1.6134 H   0  0  0  0  0  0  0  0  0  0  0  0
    1.9279    2.5228    0.4521 H   0  0  0  0  0  0  0  0  0  0  0  0
    1.7602   -0.8625   -2.9879 H   0  0  0  0  0  0  0  0  0  0  0  0
    3.0753   -2.7765    0.6565 H   0  0  0  0  0  0  0  0  0  0  0  0
    4.4126   -4.3439   -0.6657 H   0  0  0  0  0  0  0  0  0  0  0  0
    3.0857   -2.4205   -4.2827 H   0  0  0  0  0  0  0  0  0  0  0  0
   -0.6462    4.1976    2.6327 H   0  0  0  0  0  0  0  0  0  0  0  0
   -0.5852    3.7081    0.9473 H   0  0  0  0  0  0  0  0  0  0  0  0
    2.9289    2.8973    2.8667 H   0  0  0  0  0  0  0  0  0  0  0  0
    1.7575    3.2795    4.1195 H   0  0  0  0  0  0  0  0  0  0  0  0
    4.0539   -4.9935   -4.0902 H   0  0  0  0  0  0  0  0  0  0  0  0
    5.4223   -3.8544   -3.9873 H   0  0  0  0  0  0  0  0  0  0  0  0
    5.2411   -5.1386   -2.7840 H   0  0  0  0  0  0  0  0  0  0  0  0
    1.5083    4.9141    0.5947 H   0  0  0  0  0  0  0  0  0  0  0  0
    0.5439    6.0221    1.5893 H   0  0  0  0  0  0  0  0  0  0  0  0
    3.0281    5.1771    2.3741 H   0  0  0  0  0  0  0  0  0  0  0  0
    1.7351    5.4746    3.5498 H   0  0  0  0  0  0  0  0  0  0  0  0
  2  6  1  0  0  0  0
  3  1  1  0  0  0  0
  3 18  1  0  0  0  0
  3 19  1  0  0  0  0
  4  1  1  0  0  0  0
  4 20  1  0  0  0  0
  5  1  2  0  0  0  0
  6  3  1  0  0  0  0
  6 21  1  0  0  0  0
  6 22  1  0  0  0  0
  7  4  1  0  0  0  0
  8 11  2  0  0  0  0
  9  7  1  0  0  0  0
  9 23  1  0  0  0  0
 10  7  2  0  0  0  0
 10 24  1  0  0  0  0
 11 10  1  0  0  0  0
 11 25  1  0  0  0  0
 12  9  2  0  0  0  0
 12  8  1  0  0  0  0
 12 26  1  0  0  0  0
 13  2  1  0  0  0  0
 13 27  1  0  0  0  0
 13 28  1  0  0  0  0
 14  2  1  0  0  0  0
 14 29  1  0  0  0  0
 14 30  1  0  0  0  0
 15  8  1  0  0  0  0
 15 31  1  0  0  0  0
 15 32  1  0  0  0  0
 15 33  1  0  0  0  0
 16 13  1  0  0  0  0
 16 34  1  0  0  0  0
 16 35  1  0  0  0  0
 17 14  1  0  0  0  0
 17 16  1  0  0  0  0
 17 36  1  0  0  0  0
 17 37  1  0  0  0  0
M  END
>  <Mol_ID>
8349

>  <Formula>
C14H20N2O

>  <MolWeight>
232.3214

>  <Cat>
P2054

>  <Name>
WAY-119918

>  <Synonyms>
N/A

>  <Target>
hedgehog

>  <Form>
free base

>  <CAS>
428831-87-2

>  <URL>
N/A

$$$$
