WAY-637936
 OpenBabel08302521423D

 38 40  0  0  0  0  0  0  0  0999 V2000
    0.1001   -1.2443    0.6953 C   0  0  0  0  0  0  0  0  0  0  0  0
    1.0462   -0.5379    1.2540 N   0  0  0  0  0  0  0  0  0  0  0  0
    0.6208    0.7740    1.4006 C   0  0  0  0  0  0  0  0  0  0  0  0
    0.0910   -2.5575    0.3203 N   0  0  0  0  0  0  0  0  0  0  0  0
   -1.3607   -0.4290    0.3545 S   0  0  0  0  0  0  0  0  0  0  0  0
   -0.6891    1.0020    1.0205 C   0  0  0  0  0  0  0  0  0  0  0  0
    1.0861   -3.4401    0.6745 C   0  0  0  0  0  0  0  0  0  0  0  0
   -3.0851   -7.4430    1.5961 S   0  0  0  0  0  0  0  0  0  0  0  0
    1.5078    1.8040    1.9312 C   0  0  0  0  0  0  0  0  0  0  0  0
   -2.1388   -6.1646    2.2306 C   0  0  0  0  0  0  0  0  0  0  0  0
   -3.6766   -7.8575    3.1461 C   0  0  0  0  0  0  0  0  0  0  0  0
   -2.2467   -6.0869    3.6052 C   0  0  0  0  0  0  0  0  0  0  0  0
   -3.1460   -7.0573    4.1327 C   0  0  0  0  0  0  0  0  0  0  0  0
    2.0513   -3.2152    1.3956 O   0  0  0  0  0  0  0  0  0  0  0  0
    1.3822    3.1485    1.5402 C   0  0  0  0  0  0  0  0  0  0  0  0
    2.5311    1.4486    2.8234 C   0  0  0  0  0  0  0  0  0  0  0  0
    3.2414    3.7460    2.9497 C   0  0  0  0  0  0  0  0  0  0  0  0
    2.2484    4.1179    2.0516 C   0  0  0  0  0  0  0  0  0  0  0  0
    3.3935    2.4212    3.3375 C   0  0  0  0  0  0  0  0  0  0  0  0
    4.0671    4.6797    3.4400 F   0  0  0  0  0  0  0  0  0  0  0  0
    0.8444   -4.8361    0.1223 C   0  0  0  0  0  0  0  0  0  0  0  0
   -1.3656   -5.2637    1.3164 C   0  0  0  0  0  0  0  0  0  0  0  0
    0.0761   -5.7289    1.0994 C   0  0  0  0  0  0  0  0  0  0  0  0
   -0.7252   -2.8693   -0.1823 H   0  0  0  0  0  0  0  0  0  0  0  0
   -1.2681    1.9122    1.0804 H   0  0  0  0  0  0  0  0  0  0  0  0
   -4.3857   -8.6659    3.2595 H   0  0  0  0  0  0  0  0  0  0  0  0
   -1.7247   -5.3497    4.2044 H   0  0  0  0  0  0  0  0  0  0  0  0
   -3.3970   -7.1573    5.1816 H   0  0  0  0  0  0  0  0  0  0  0  0
    0.6290    3.4533    0.8204 H   0  0  0  0  0  0  0  0  0  0  0  0
    2.6614    0.4078    3.1199 H   0  0  0  0  0  0  0  0  0  0  0  0
    2.1586    5.1558    1.7485 H   0  0  0  0  0  0  0  0  0  0  0  0
    4.1824    2.1497    4.0317 H   0  0  0  0  0  0  0  0  0  0  0  0
    0.3210   -4.7739   -0.8393 H   0  0  0  0  0  0  0  0  0  0  0  0
    1.8260   -5.2773   -0.0896 H   0  0  0  0  0  0  0  0  0  0  0  0
   -1.3707   -4.2614    1.7600 H   0  0  0  0  0  0  0  0  0  0  0  0
   -1.8775   -5.1767    0.3498 H   0  0  0  0  0  0  0  0  0  0  0  0
    0.0749   -6.7520    0.7020 H   0  0  0  0  0  0  0  0  0  0  0  0
    0.6042   -5.7664    2.0605 H   0  0  0  0  0  0  0  0  0  0  0  0
  2  1  2  0  0  0  0
  3  2  1  0  0  0  0
  4  1  1  0  0  0  0
  4 24  1  0  0  0  0
  5  1  1  0  0  0  0
  6  5  1  0  0  0  0
  6  3  2  0  0  0  0
  6 25  1  0  0  0  0
  7  4  1  0  0  0  0
  8 10  1  0  0  0  0
  9  3  1  0  0  0  0
 10 22  1  0  0  0  0
 11  8  1  0  0  0  0
 11 13  2  0  0  0  0
 11 26  1  0  0  0  0
 12 10  2  0  0  0  0
 12 27  1  0  0  0  0
 13 12  1  0  0  0  0
 13 28  1  0  0  0  0
 14  7  2  0  0  0  0
 15  9  2  0  0  0  0
 15 29  1  0  0  0  0
 16  9  1  0  0  0  0
 16 30  1  0  0  0  0
 17 19  1  0  0  0  0
 17 18  2  0  0  0  0
 18 15  1  0  0  0  0
 18 31  1  0  0  0  0
 19 16  2  0  0  0  0
 19 32  1  0  0  0  0
 20 17  1  0  0  0  0
 21  7  1  0  0  0  0
 21 33  1  0  0  0  0
 21 34  1  0  0  0  0
 22 23  1  0  0  0  0
 22 35  1  0  0  0  0
 22 36  1  0  0  0  0
 23 21  1  0  0  0  0
 23 37  1  0  0  0  0
 23 38  1  0  0  0  0
M  END
>  <Mol_ID>
8498

>  <Formula>
C17H15FN2OS2

>  <MolWeight>
346.4422032

>  <Cat>
P3024

>  <Name>
WAY-637936

>  <Synonyms>
N/A

>  <Target>
Anti-infection

>  <Form>
free base

>  <CAS>
795282-68-7

>  <URL>
N/A

$$$$
