WAY-640071
 OpenBabel08302521443D

 25 26  0  0  0  0  0  0  0  0999 V2000
    1.3739   -5.6945   -0.9459 C   0  0  0  0  0  0  0  0  0  0  0  0
    0.6549   -4.6305   -0.4948 N   0  0  0  0  0  0  0  0  0  0  0  0
    2.6261   -5.7573   -1.3165 N   0  0  0  0  0  0  0  0  0  0  0  0
    1.1255   -3.3988   -0.1633 C   0  0  0  0  0  0  0  0  0  0  0  0
    0.4743   -7.1428   -1.0581 S   0  0  0  0  0  0  0  0  0  0  0  0
    3.2438   -3.4637    1.2114 C   0  0  0  0  0  0  0  0  0  0  0  0
    2.6120   -3.0862   -0.1102 C   0  0  0  0  0  0  0  0  0  0  0  0
    2.9230   -7.0505   -1.7014 C   0  0  0  0  0  0  0  0  0  0  0  0
    1.8864   -7.9536   -1.5987 C   0  0  0  0  0  0  0  0  0  0  0  0
    0.2956   -2.5352    0.1532 O   0  0  0  0  0  0  0  0  0  0  0  0
    4.2860   -4.3982    1.2672 C   0  0  0  0  0  0  0  0  0  0  0  0
    2.8089   -2.8656    2.4039 C   0  0  0  0  0  0  0  0  0  0  0  0
    4.8800   -4.7275    2.4878 C   0  0  0  0  0  0  0  0  0  0  0  0
    3.4022   -3.1972    3.6233 C   0  0  0  0  0  0  0  0  0  0  0  0
    4.4389   -4.1264    3.6650 C   0  0  0  0  0  0  0  0  0  0  0  0
   -0.3395   -4.7596   -0.3804 H   0  0  0  0  0  0  0  0  0  0  0  0
    3.1436   -3.5156   -0.9622 H   0  0  0  0  0  0  0  0  0  0  0  0
    2.7254   -2.0017   -0.2427 H   0  0  0  0  0  0  0  0  0  0  0  0
    3.9234   -7.2845   -2.0451 H   0  0  0  0  0  0  0  0  0  0  0  0
    1.8880   -9.0113   -1.8187 H   0  0  0  0  0  0  0  0  0  0  0  0
    4.6431   -4.8774    0.3581 H   0  0  0  0  0  0  0  0  0  0  0  0
    2.0025   -2.1338    2.3883 H   0  0  0  0  0  0  0  0  0  0  0  0
    5.6894   -5.4520    2.5187 H   0  0  0  0  0  0  0  0  0  0  0  0
    3.0547   -2.7272    4.5390 H   0  0  0  0  0  0  0  0  0  0  0  0
    4.9021   -4.3813    4.6144 H   0  0  0  0  0  0  0  0  0  0  0  0
  2  1  1  0  0  0  0
  2 16  1  0  0  0  0
  3  1  2  0  0  0  0
  4  2  1  0  0  0  0
  5  1  1  0  0  0  0
  6  7  1  0  0  0  0
  7  4  1  0  0  0  0
  7 17  1  0  0  0  0
  7 18  1  0  0  0  0
  8  3  1  0  0  0  0
  8 19  1  0  0  0  0
  9  5  1  0  0  0  0
  9  8  2  0  0  0  0
  9 20  1  0  0  0  0
 10  4  2  0  0  0  0
 11  6  2  0  0  0  0
 11 21  1  0  0  0  0
 12  6  1  0  0  0  0
 12 22  1  0  0  0  0
 13 11  1  0  0  0  0
 13 23  1  0  0  0  0
 14 12  2  0  0  0  0
 14 24  1  0  0  0  0
 15 14  1  0  0  0  0
 15 13  2  0  0  0  0
 15 25  1  0  0  0  0
M  END
>  <Mol_ID>
9090

>  <Formula>
C11H9ClN2OS

>  <MolWeight>
252.71996

>  <Cat>
P3097

>  <Name>
WAY-640071

>  <Synonyms>
N/A

>  <Target>
antiinflammatory

>  <Form>
free base

>  <CAS>
796115-75-8

>  <URL>
N/A

$$$$
