WAY-357996
 OpenBabel08302521393D

 27 28  0  0  0  0  0  0  0  0999 V2000
    0.8658   -0.1771    0.1979 S   0  0  0  0  0  0  0  0  0  0  0  0
   -2.7466   -2.7559   -1.8814 S   0  0  0  0  0  0  0  0  0  0  0  0
   -1.5912   -1.9893   -0.7619 C   0  0  0  0  0  0  0  0  0  0  0  0
    0.4227   -0.6978   -1.2814 O   0  0  0  0  0  0  0  0  0  0  0  0
   -1.9702   -2.1699   -3.3052 C   0  0  0  0  0  0  0  0  0  0  0  0
   -0.9661   -0.8378   -1.5492 C   0  0  3  0  0  0  0  0  0  0  0  0
   -1.1056   -1.1908   -3.0102 C   0  0  0  0  0  0  0  0  0  0  0  0
    0.5277   -1.2135    1.1515 O   0  0  0  0  0  0  0  0  0  0  0  0
    0.3643    1.1737    0.3577 O   0  0  0  0  0  0  0  0  0  0  0  0
    2.6406   -0.1098    0.1293 C   0  0  0  0  0  0  0  0  0  0  0  0
   -2.6008   -4.1926   -1.8013 O   0  0  0  0  0  0  0  0  0  0  0  0
   -4.0312   -2.1019   -1.7383 O   0  0  0  0  0  0  0  0  0  0  0  0
    3.3131    1.0836    0.4059 C   0  0  0  0  0  0  0  0  0  0  0  0
    3.3500   -1.2858   -0.1366 C   0  0  0  0  0  0  0  0  0  0  0  0
    4.7455   -1.2666   -0.1109 C   0  0  0  0  0  0  0  0  0  0  0  0
    4.7081    1.0932    0.4282 C   0  0  0  0  0  0  0  0  0  0  0  0
    5.4228   -0.0794    0.1764 C   0  0  0  0  0  0  0  0  0  0  0  0
   -2.1226   -1.6482    0.1296 H   0  0  0  0  0  0  0  0  0  0  0  0
   -0.8498   -2.7439   -0.4830 H   0  0  0  0  0  0  0  0  0  0  0  0
   -2.2025   -2.5644   -4.2844 H   0  0  0  0  0  0  0  0  0  0  0  0
   -1.4886    0.1092   -1.3667 H   0  0  0  0  0  0  0  0  0  0  0  0
   -0.5400   -0.6614   -3.7684 H   0  0  0  0  0  0  0  0  0  0  0  0
    2.7669    1.9986    0.6246 H   0  0  0  0  0  0  0  0  0  0  0  0
    2.8286   -2.2194   -0.3363 H   0  0  0  0  0  0  0  0  0  0  0  0
    5.3069   -2.1785   -0.2960 H   0  0  0  0  0  0  0  0  0  0  0  0
    5.2432    2.0132    0.6592 H   0  0  0  0  0  0  0  0  0  0  0  0
    6.5096   -0.0716    0.2137 H   0  0  0  0  0  0  0  0  0  0  0  0
  2  3  1  0  0  0  0
  3  6  1  0  0  0  0
  3 18  1  0  0  0  0
  3 19  1  0  0  0  0
  4  1  1  0  0  0  0
  5  7  2  0  0  0  0
  5  2  1  0  0  0  0
  5 20  1  0  0  0  0
  6  4  1  0  0  0  0
  6 21  1  0  0  0  0
  7  6  1  0  0  0  0
  7 22  1  0  0  0  0
  8  1  2  0  0  0  0
  9  1  2  0  0  0  0
 10  1  1  0  0  0  0
 11  2  2  0  0  0  0
 12  2  2  0  0  0  0
 13 10  2  0  0  0  0
 13 23  1  0  0  0  0
 14 10  1  0  0  0  0
 14 24  1  0  0  0  0
 15 14  2  0  0  0  0
 15 25  1  0  0  0  0
 16 13  1  0  0  0  0
 16 17  2  0  0  0  0
 16 26  1  0  0  0  0
 17 15  1  0  0  0  0
 17 27  1  0  0  0  0
M  END
>  <Mol_ID>
8075

>  <Formula>
C10H10O5S2

>  <MolWeight>
274.3134

>  <Cat>
P2778

>  <Name>
WAY-357996

>  <Synonyms>
N/A

>  <Target>
ERK1/2

>  <Form>
free base

>  <CAS>
39582-95-1

>  <URL>
N/A

$$$$
