WAY-326432
 OpenBabel08302521433D

 53 55  0  0  0  0  0  0  0  0999 V2000
    0.6217    0.1853    0.0237 S   0  0  0  0  0  0  0  0  0  0  0  0
    0.2972   -1.3721   -0.6930 N   0  0  0  0  0  0  0  0  0  0  0  0
    3.0796   -4.7634   -2.6658 C   0  0  0  0  0  0  0  0  0  0  0  0
    2.2186    0.6170   -0.6591 C   0  0  0  0  0  0  0  0  0  0  0  0
    3.4984   -5.4272   -3.8059 N   0  0  0  0  0  0  0  0  0  0  0  0
    0.7852    0.0269    1.4555 O   0  0  0  0  0  0  0  0  0  0  0  0
   -0.3371    1.1264   -0.5186 O   0  0  0  0  0  0  0  0  0  0  0  0
    0.7724   -3.7390   -2.7960 N   0  0  0  0  0  0  0  0  0  0  0  0
    0.2707   -1.2751   -2.1884 C   0  0  0  0  0  0  0  0  0  0  0  0
    4.0825   -6.7129   -3.8169 C   0  0  0  0  0  0  0  0  0  0  0  0
    2.2226   -3.5173   -2.9702 C   0  0  0  0  0  0  0  0  0  0  0  0
    3.3101   -5.1166   -1.5104 O   0  0  0  0  0  0  0  0  0  0  0  0
    3.7331   -7.5492   -4.8802 C   0  0  0  0  0  0  0  0  0  0  0  0
   -0.0533   -2.5385   -2.9921 C   0  0  0  0  0  0  0  0  0  0  0  0
    2.2769    1.3895   -1.8267 C   0  0  0  0  0  0  0  0  0  0  0  0
    3.3919    0.1849   -0.0411 C   0  0  0  0  0  0  0  0  0  0  0  0
    0.5061   -3.8456   -0.2209 C   0  0  0  0  0  0  0  0  0  0  0  0
    1.1157   -2.4604   -0.0945 C   0  0  0  0  0  0  0  0  0  0  0  0
    2.9086   -7.0911   -5.8357 F   0  0  0  0  0  0  0  0  0  0  0  0
    4.6886    1.2134   -1.8258 C   0  0  0  0  0  0  0  0  0  0  0  0
    4.6230    0.4885   -0.6298 C   0  0  0  0  0  0  0  0  0  0  0  0
    3.5116    1.6721   -2.4180 C   0  0  0  0  0  0  0  0  0  0  0  0
    0.3261   -4.4581   -1.6079 C   0  0  0  0  0  0  0  0  0  0  0  0
    5.9528    1.4425   -2.2947 O   0  0  0  0  0  0  0  0  0  0  0  0
    4.9477   -7.1984   -2.8347 C   0  0  0  0  0  0  0  0  0  0  0  0
    4.1600   -8.8718   -4.9404 C   0  0  0  0  0  0  0  0  0  0  0  0
    6.0699    1.7429   -3.6810 C   0  0  0  0  0  0  0  0  0  0  0  0
    5.4191   -8.5163   -2.9108 C   0  0  0  0  0  0  0  0  0  0  0  0
    5.0105   -9.3572   -3.9512 C   0  0  0  0  0  0  0  0  0  0  0  0
    3.0278   -5.1732   -4.6687 H   0  0  0  0  0  0  0  0  0  0  0  0
   -0.4936   -0.5337   -2.4583 H   0  0  0  0  0  0  0  0  0  0  0  0
    1.2290   -0.9034   -2.5524 H   0  0  0  0  0  0  0  0  0  0  0  0
    2.3993   -3.2177   -4.0108 H   0  0  0  0  0  0  0  0  0  0  0  0
    2.6279   -2.7042   -2.3662 H   0  0  0  0  0  0  0  0  0  0  0  0
   -1.1149   -2.7855   -2.8557 H   0  0  0  0  0  0  0  0  0  0  0  0
    0.0243   -2.2651   -4.0535 H   0  0  0  0  0  0  0  0  0  0  0  0
    1.3650    1.7510   -2.2981 H   0  0  0  0  0  0  0  0  0  0  0  0
    3.3616   -0.3902    0.8813 H   0  0  0  0  0  0  0  0  0  0  0  0
    1.1490   -4.5276    0.3520 H   0  0  0  0  0  0  0  0  0  0  0  0
   -0.4649   -3.8546    0.2923 H   0  0  0  0  0  0  0  0  0  0  0  0
    1.1817   -2.2891    0.9873 H   0  0  0  0  0  0  0  0  0  0  0  0
    2.1422   -2.4292   -0.4547 H   0  0  0  0  0  0  0  0  0  0  0  0
    5.5441    0.1515   -0.1583 H   0  0  0  0  0  0  0  0  0  0  0  0
    3.5224    2.2634   -3.3278 H   0  0  0  0  0  0  0  0  0  0  0  0
    0.7406   -5.4733   -1.6136 H   0  0  0  0  0  0  0  0  0  0  0  0
   -0.7504   -4.6548   -1.7301 H   0  0  0  0  0  0  0  0  0  0  0  0
    5.2834   -6.5665   -2.0164 H   0  0  0  0  0  0  0  0  0  0  0  0
    3.8125   -9.5101   -5.7438 H   0  0  0  0  0  0  0  0  0  0  0  0
    5.6357    0.9437   -4.2913 H   0  0  0  0  0  0  0  0  0  0  0  0
    5.6230    2.7119   -3.9242 H   0  0  0  0  0  0  0  0  0  0  0  0
    7.1363    1.8049   -3.9196 H   0  0  0  0  0  0  0  0  0  0  0  0
    6.1007   -8.8953   -2.1525 H   0  0  0  0  0  0  0  0  0  0  0  0
    5.3521  -10.3886   -3.9856 H   0  0  0  0  0  0  0  0  0  0  0  0
  2  1  1  0  0  0  0
  3 11  1  0  0  0  0
  4  1  1  0  0  0  0
  5  3  1  0  0  0  0
  5 30  1  0  0  0  0
  6  1  2  0  0  0  0
  7  1  2  0  0  0  0
  8 14  1  0  0  0  0
  9  2  1  0  0  0  0
  9 31  1  0  0  0  0
  9 32  1  0  0  0  0
 10  5  1  0  0  0  0
 11  8  1  0  0  0  0
 11 33  1  0  0  0  0
 11 34  1  0  0  0  0
 12  3  2  0  0  0  0
 13 10  2  0  0  0  0
 14  9  1  0  0  0  0
 14 35  1  0  0  0  0
 14 36  1  0  0  0  0
 15  4  2  0  0  0  0
 15 37  1  0  0  0  0
 16  4  1  0  0  0  0
 16 38  1  0  0  0  0
 17 18  1  0  0  0  0
 17 39  1  0  0  0  0
 17 40  1  0  0  0  0
 18  2  1  0  0  0  0
 18 41  1  0  0  0  0
 18 42  1  0  0  0  0
 19 13  1  0  0  0  0
 20 21  1  0  0  0  0
 21 16  2  0  0  0  0
 21 43  1  0  0  0  0
 22 15  1  0  0  0  0
 22 20  2  0  0  0  0
 22 44  1  0  0  0  0
 23 17  1  0  0  0  0
 23  8  1  0  0  0  0
 23 45  1  0  0  0  0
 23 46  1  0  0  0  0
 24 20  1  0  0  0  0
 25 10  1  0  0  0  0
 25 47  1  0  0  0  0
 26 13  1  0  0  0  0
 26 48  1  0  0  0  0
 27 24  1  0  0  0  0
 27 49  1  0  0  0  0
 27 50  1  0  0  0  0
 27 51  1  0  0  0  0
 28 25  2  0  0  0  0
 28 52  1  0  0  0  0
 29 28  1  0  0  0  0
 29 26  2  0  0  0  0
 29 53  1  0  0  0  0
M  END
>  <Mol_ID>
8923

>  <Formula>
C20H24FN3O4S

>  <MolWeight>
421.4856632

>  <Cat>
P2482

>  <Name>
WAY-326432

>  <Synonyms>
N/A

>  <Target>
mGlu4

>  <Form>
free base

>  <CAS>
870762-82-6

>  <URL>
N/A

$$$$
