WAY-325104
 OpenBabel08302521423D

 37 39  0  0  0  0  0  0  0  0999 V2000
    2.3377    0.6907   -0.0566 C   0  0  0  0  0  0  0  0  0  0  0  0
    2.4488   -0.6451   -0.0541 N   0  0  0  0  0  0  0  0  0  0  0  0
    1.1780    1.3619   -0.0555 N   0  0  0  0  0  0  0  0  0  0  0  0
    0.0237   -0.7453   -0.0245 C   0  0  0  0  0  0  0  0  0  0  0  0
    1.2895   -1.3508   -0.0338 C   0  0  0  0  0  0  0  0  0  0  0  0
    0.0460    0.6526   -0.0463 C   0  0  0  0  0  0  0  0  0  0  0  0
    3.7970    1.6957    0.0441 S   0  0  0  0  0  0  0  0  0  0  0  0
   -1.2280   -1.4181   -0.0025 C   0  0  0  0  0  0  0  0  0  0  0  0
   -1.1615    1.3367   -0.0596 C   0  0  0  0  0  0  0  0  0  0  0  0
   -2.4338   -0.7134   -0.0249 C   0  0  0  0  0  0  0  0  0  0  0  0
    4.9401    0.7425   -0.9990 C   0  0  0  0  0  0  0  0  0  0  0  0
   -2.3952    0.6744   -0.0572 C   0  0  0  0  0  0  0  0  0  0  0  0
    6.2259    1.5130   -1.2278 C   0  0  0  0  0  0  0  0  0  0  0  0
   -3.5602   -1.4858   -0.0125 O   0  0  0  0  0  0  0  0  0  0  0  0
    1.4348   -2.8489   -0.0247 C   0  0  0  0  0  0  0  0  0  0  0  0
    7.2802    1.4340   -0.3047 C   0  0  0  0  0  0  0  0  0  0  0  0
    6.3690    2.3569   -2.3407 C   0  0  0  0  0  0  0  0  0  0  0  0
   -4.8084   -0.8055   -0.1042 C   0  0  0  0  0  0  0  0  0  0  0  0
    8.4503    2.1759   -0.4944 C   0  0  0  0  0  0  0  0  0  0  0  0
    7.5396    3.0961   -2.5291 C   0  0  0  0  0  0  0  0  0  0  0  0
    8.5808    3.0059   -1.6061 C   0  0  0  0  0  0  0  0  0  0  0  0
   -1.2692   -2.5048    0.0291 H   0  0  0  0  0  0  0  0  0  0  0  0
   -1.1450    2.4246   -0.0757 H   0  0  0  0  0  0  0  0  0  0  0  0
    5.1707   -0.2164   -0.5213 H   0  0  0  0  0  0  0  0  0  0  0  0
    4.4719    0.5192   -1.9648 H   0  0  0  0  0  0  0  0  0  0  0  0
   -3.2961    1.2781   -0.0778 H   0  0  0  0  0  0  0  0  0  0  0  0
    0.9971   -3.2698    0.8853 H   0  0  0  0  0  0  0  0  0  0  0  0
    0.9426   -3.2839   -0.9004 H   0  0  0  0  0  0  0  0  0  0  0  0
    2.4897   -3.1396   -0.0562 H   0  0  0  0  0  0  0  0  0  0  0  0
    7.1914    0.8043    0.5765 H   0  0  0  0  0  0  0  0  0  0  0  0
    5.5623    2.4538   -3.0642 H   0  0  0  0  0  0  0  0  0  0  0  0
   -4.9546   -0.1269    0.7428 H   0  0  0  0  0  0  0  0  0  0  0  0
   -4.8957   -0.2723   -1.0570 H   0  0  0  0  0  0  0  0  0  0  0  0
   -5.6040   -1.5559   -0.0674 H   0  0  0  0  0  0  0  0  0  0  0  0
    9.2570    2.1124    0.2316 H   0  0  0  0  0  0  0  0  0  0  0  0
    7.6373    3.7509   -3.3908 H   0  0  0  0  0  0  0  0  0  0  0  0
    9.4876    3.5872   -1.7487 H   0  0  0  0  0  0  0  0  0  0  0  0
  2  1  2  0  0  0  0
  3  1  1  0  0  0  0
  4  6  1  0  0  0  0
  5  2  1  0  0  0  0
  5  4  2  0  0  0  0
  6  3  2  0  0  0  0
  7  1  1  0  0  0  0
  8  4  1  0  0  0  0
  8 22  1  0  0  0  0
  9  6  1  0  0  0  0
  9 23  1  0  0  0  0
 10 12  1  0  0  0  0
 10  8  2  0  0  0  0
 11  7  1  0  0  0  0
 11 24  1  0  0  0  0
 11 25  1  0  0  0  0
 12  9  2  0  0  0  0
 12 26  1  0  0  0  0
 13 11  1  0  0  0  0
 14 10  1  0  0  0  0
 15  5  1  0  0  0  0
 15 27  1  0  0  0  0
 15 28  1  0  0  0  0
 15 29  1  0  0  0  0
 16 13  2  0  0  0  0
 16 30  1  0  0  0  0
 17 13  1  0  0  0  0
 17 31  1  0  0  0  0
 18 14  1  0  0  0  0
 18 32  1  0  0  0  0
 18 33  1  0  0  0  0
 18 34  1  0  0  0  0
 19 16  1  0  0  0  0
 19 21  2  0  0  0  0
 19 35  1  0  0  0  0
 20 17  2  0  0  0  0
 20 36  1  0  0  0  0
 21 20  1  0  0  0  0
 21 37  1  0  0  0  0
M  END
>  <Mol_ID>
8672

>  <Formula>
C17H16N2OS

>  <MolWeight>
296.38674

>  <Cat>
P2371

>  <Name>
WAY-325104

>  <Synonyms>
N/A

>  <Target>
Others

>  <Form>
free base

>  <CAS>
500272-00-4

>  <URL>
N/A

$$$$
