WAY-639872
 OpenBabel08302521443D

 48 51  0  0  0  0  0  0  0  0999 V2000
   -1.9139    1.1212    0.4985 N   0  0  0  0  0  0  0  0  0  0  0  0
   -2.6572    0.9917   -1.8939 C   0  0  0  0  0  0  0  0  0  0  0  0
   -2.7882    0.7138   -0.5049 C   0  0  0  0  0  0  0  0  0  0  0  0
   -1.5970    1.7214   -2.4839 N   0  0  0  0  0  0  0  0  0  0  0  0
   -0.2822    1.2957   -2.3740 C   0  0  0  0  0  0  0  0  0  0  0  0
    2.4653    3.8191   -4.6743 C   0  0  0  0  0  0  0  0  0  0  0  0
    2.6029    4.0270   -3.3417 N   0  0  0  0  0  0  0  0  0  0  0  0
    1.4616    2.9837   -5.2206 C   0  0  0  0  0  0  0  0  0  0  0  0
    0.5019    2.2761   -4.5096 O   0  0  0  0  0  0  0  0  0  0  0  0
    0.1181    0.3179   -1.7442 O   0  0  0  0  0  0  0  0  0  0  0  0
    0.1807    1.5914    2.4107 O   0  0  0  0  0  0  0  0  0  0  0  0
    0.6907    2.2230   -3.0995 C   0  0  0  0  0  0  0  0  0  0  0  0
    3.3403    4.4711   -5.5717 C   0  0  0  0  0  0  0  0  0  0  0  0
   -1.8631    0.4051    1.7897 C   0  0  0  0  0  0  0  0  0  0  0  0
   -1.2385    2.4296    0.5555 C   0  0  0  0  0  0  0  0  0  0  0  0
   -3.5866    0.4864   -2.8303 C   0  0  0  0  0  0  0  0  0  0  0  0
   -3.9147   -0.0736   -0.1585 C   0  0  0  0  0  0  0  0  0  0  0  0
    2.2299    3.4577   -7.4769 C   0  0  0  0  0  0  0  0  0  0  0  0
    3.5652    4.8449   -2.8764 C   0  0  0  0  0  0  0  0  0  0  0  0
    1.3474    2.8205   -6.6095 C   0  0  0  0  0  0  0  0  0  0  0  0
    0.1850    2.2678    1.1407 C   0  0  0  0  0  0  0  0  0  0  0  0
   -0.4075    0.2917    2.2569 C   0  0  0  0  0  0  0  0  0  0  0  0
    3.2291    4.2766   -6.9592 C   0  0  0  0  0  0  0  0  0  0  0  0
    4.3334    5.3248   -5.0576 C   0  0  0  0  0  0  0  0  0  0  0  0
    4.4395    5.5249   -3.6895 C   0  0  0  0  0  0  0  0  0  0  0  0
   -4.6215   -0.3515   -2.4372 C   0  0  0  0  0  0  0  0  0  0  0  0
   -4.7920   -0.6235   -1.0942 C   0  0  0  0  0  0  0  0  0  0  0  0
   -1.7897    2.1422   -3.3873 H   0  0  0  0  0  0  0  0  0  0  0  0
    0.5212    3.2136   -2.6639 H   0  0  0  0  0  0  0  0  0  0  0  0
    1.6910    1.8411   -2.8598 H   0  0  0  0  0  0  0  0  0  0  0  0
   -2.4501    0.9656    2.5287 H   0  0  0  0  0  0  0  0  0  0  0  0
   -2.2570   -0.6138    1.7305 H   0  0  0  0  0  0  0  0  0  0  0  0
   -1.8160    3.0825    1.2221 H   0  0  0  0  0  0  0  0  0  0  0  0
   -1.1761    2.9444   -0.4037 H   0  0  0  0  0  0  0  0  0  0  0  0
   -3.4531    0.6769   -3.8915 H   0  0  0  0  0  0  0  0  0  0  0  0
   -4.1385   -0.2807    0.8862 H   0  0  0  0  0  0  0  0  0  0  0  0
    2.1421    3.3225   -8.5530 H   0  0  0  0  0  0  0  0  0  0  0  0
    3.6042    4.9421   -1.7939 H   0  0  0  0  0  0  0  0  0  0  0  0
    0.5649    2.1857   -7.0203 H   0  0  0  0  0  0  0  0  0  0  0  0
    0.8393    1.7172    0.4551 H   0  0  0  0  0  0  0  0  0  0  0  0
    0.6346    3.2525    1.3042 H   0  0  0  0  0  0  0  0  0  0  0  0
   -0.3677   -0.2159    3.2262 H   0  0  0  0  0  0  0  0  0  0  0  0
    0.1849   -0.2976    1.5460 H   0  0  0  0  0  0  0  0  0  0  0  0
    3.9143    4.7720   -7.6443 H   0  0  0  0  0  0  0  0  0  0  0  0
    5.0103    5.8525   -5.7214 H   0  0  0  0  0  0  0  0  0  0  0  0
    5.1829    6.1908   -3.2697 H   0  0  0  0  0  0  0  0  0  0  0  0
   -5.2770   -0.7991   -3.1782 H   0  0  0  0  0  0  0  0  0  0  0  0
   -5.6023   -1.2671   -0.7616 H   0  0  0  0  0  0  0  0  0  0  0  0
  2  3  1  0  0  0  0
  3  1  1  0  0  0  0
  4  2  1  0  0  0  0
  4 28  1  0  0  0  0
  5  4  1  0  0  0  0
  6  8  1  0  0  0  0
  7  6  2  0  0  0  0
  8  9  1  0  0  0  0
  9 12  1  0  0  0  0
 10  5  2  0  0  0  0
 11 21  1  0  0  0  0
 11 22  1  0  0  0  0
 12  5  1  0  0  0  0
 12 29  1  0  0  0  0
 12 30  1  0  0  0  0
 13  6  1  0  0  0  0
 14  1  1  0  0  0  0
 14 31  1  0  0  0  0
 14 32  1  0  0  0  0
 15  1  1  0  0  0  0
 15 33  1  0  0  0  0
 15 34  1  0  0  0  0
 16  2  2  0  0  0  0
 16 35  1  0  0  0  0
 17  3  2  0  0  0  0
 17 36  1  0  0  0  0
 18 20  1  0  0  0  0
 18 37  1  0  0  0  0
 19  7  1  0  0  0  0
 19 25  2  0  0  0  0
 19 38  1  0  0  0  0
 20  8  2  0  0  0  0
 20 39  1  0  0  0  0
 21 15  1  0  0  0  0
 21 40  1  0  0  0  0
 21 41  1  0  0  0  0
 22 14  1  0  0  0  0
 22 42  1  0  0  0  0
 22 43  1  0  0  0  0
 23 18  2  0  0  0  0
 23 13  1  0  0  0  0
 23 44  1  0  0  0  0
 24 13  2  0  0  0  0
 24 45  1  0  0  0  0
 25 24  1  0  0  0  0
 25 46  1  0  0  0  0
 26 27  2  0  0  0  0
 26 16  1  0  0  0  0
 26 47  1  0  0  0  0
 27 17  1  0  0  0  0
 27 48  1  0  0  0  0
M  END
>  <Mol_ID>
9083

>  <Formula>
C21H21N3O3

>  <MolWeight>
363.40974

>  <Cat>
P3090

>  <Name>
WAY-639872

>  <Synonyms>
N/A

>  <Target>
NaV1.7

>  <Form>
free base

>  <CAS>
796119-18-1

>  <URL>
N/A

$$$$
