WAY-606811
 OpenBabel08302521433D

 60 64  0  0  0  0  0  0  0  0999 V2000
   -0.4960    1.1948    0.3690 C   0  0  0  0  0  0  0  0  0  0  0  0
   -0.6216    2.6501    0.0097 C   0  0  3  0  0  0  0  0  0  0  0  0
   -0.8915   -0.9490    1.0899 N   0  0  0  0  0  0  0  0  0  0  0  0
   -1.4764    0.1683    0.6136 C   0  0  0  0  0  0  0  0  0  0  0  0
    0.4284   -0.6616    1.2118 N   0  0  0  0  0  0  0  0  0  0  0  0
   -1.3051    2.9861   -1.2191 N   0  0  0  0  0  0  0  0  0  0  0  0
    0.7060    0.5847    0.6983 C   0  0  0  0  0  0  0  0  0  0  0  0
   -1.4561    3.5806    1.3216 S   0  0  0  0  0  0  0  0  0  0  0  0
   -2.1006    4.1350   -1.2014 C   0  0  0  0  0  0  0  0  0  0  0  0
   -2.1622    4.7682    0.1667 C   0  0  0  0  0  0  0  0  0  0  0  0
    1.9038    2.0681   -2.6688 N   0  0  0  0  0  0  0  0  0  0  0  0
    1.3433   -1.5618    1.8453 C   0  0  0  0  0  0  0  0  0  0  0  0
   -2.9441    0.2653    0.5101 C   0  0  0  0  0  0  0  0  0  0  0  0
   -2.6750    4.6097   -2.1827 O   0  0  0  0  0  0  0  0  0  0  0  0
   -1.0473    2.3164   -2.4965 C   0  0  0  0  0  0  0  0  0  0  0  0
    4.3124    2.0447   -4.3375 O   0  0  0  0  0  0  0  0  0  0  0  0
   -0.2013    3.1426   -3.4539 C   0  0  0  0  0  0  0  0  0  0  0  0
    1.2164    3.3429   -2.9337 C   0  0  0  0  0  0  0  0  0  0  0  0
    2.0595    1.2367   -3.8876 C   0  0  0  0  0  0  0  0  0  0  0  0
    3.2558    2.3001   -2.1179 C   0  0  0  0  0  0  0  0  0  0  0  0
    4.2580    2.8482   -3.1502 C   0  0  0  0  0  0  0  0  0  0  0  0
    3.0101    1.8708   -4.9106 C   0  0  0  0  0  0  0  0  0  0  0  0
    0.8762   -2.7776    2.3683 C   0  0  0  0  0  0  0  0  0  0  0  0
    2.7071   -1.2479    1.9830 C   0  0  0  0  0  0  0  0  0  0  0  0
   -3.7900   -0.3759    1.4156 C   0  0  0  0  0  0  0  0  0  0  0  0
   -3.5450    1.0797   -0.4504 C   0  0  0  0  0  0  0  0  0  0  0  0
   -4.8881    1.4381   -0.4052 C   0  0  0  0  0  0  0  0  0  0  0  0
    1.7574   -3.6674    2.9964 C   0  0  0  0  0  0  0  0  0  0  0  0
    3.5817   -2.1404    2.6172 C   0  0  0  0  0  0  0  0  0  0  0  0
   -5.1636   -0.0916    1.4217 C   0  0  0  0  0  0  0  0  0  0  0  0
   -5.7041    0.8509    0.5476 C   0  0  0  0  0  0  0  0  0  0  0  0
    3.1083   -3.3507    3.1173 C   0  0  0  0  0  0  0  0  0  0  0  0
    0.3809    3.0848   -0.0628 H   0  0  0  0  0  0  0  0  0  0  0  0
    1.7072    0.9837    0.6883 H   0  0  0  0  0  0  0  0  0  0  0  0
   -3.1989    4.9957    0.4219 H   0  0  0  0  0  0  0  0  0  0  0  0
   -1.5578    5.6764    0.1669 H   0  0  0  0  0  0  0  0  0  0  0  0
   -0.6321    1.3187   -2.3191 H   0  0  0  0  0  0  0  0  0  0  0  0
   -2.0138    2.1637   -2.9939 H   0  0  0  0  0  0  0  0  0  0  0  0
   -0.1961    2.6593   -4.4374 H   0  0  0  0  0  0  0  0  0  0  0  0
   -0.6576    4.1239   -3.6234 H   0  0  0  0  0  0  0  0  0  0  0  0
    1.7570    3.9811   -3.6383 H   0  0  0  0  0  0  0  0  0  0  0  0
    1.1600    3.9188   -2.0022 H   0  0  0  0  0  0  0  0  0  0  0  0
    2.4637    0.2643   -3.5783 H   0  0  0  0  0  0  0  0  0  0  0  0
    1.0926    1.0087   -4.3472 H   0  0  0  0  0  0  0  0  0  0  0  0
    3.6252    1.3365   -1.7436 H   0  0  0  0  0  0  0  0  0  0  0  0
    3.2038    2.9621   -1.2451 H   0  0  0  0  0  0  0  0  0  0  0  0
    4.0199    3.8807   -3.4285 H   0  0  0  0  0  0  0  0  0  0  0  0
    5.2611    2.8505   -2.7131 H   0  0  0  0  0  0  0  0  0  0  0  0
    3.1074    1.2163   -5.7819 H   0  0  0  0  0  0  0  0  0  0  0  0
    2.6394    2.8354   -5.2765 H   0  0  0  0  0  0  0  0  0  0  0  0
   -0.1760   -3.0454    2.3015 H   0  0  0  0  0  0  0  0  0  0  0  0
    3.1278   -0.3186    1.6133 H   0  0  0  0  0  0  0  0  0  0  0  0
   -3.3852   -1.0828    2.1370 H   0  0  0  0  0  0  0  0  0  0  0  0
   -2.9771    1.4667   -1.2678 H   0  0  0  0  0  0  0  0  0  0  0  0
   -5.2742    2.1670   -1.1129 H   0  0  0  0  0  0  0  0  0  0  0  0
    1.3848   -4.6085    3.3934 H   0  0  0  0  0  0  0  0  0  0  0  0
    4.6353   -1.8896    2.7223 H   0  0  0  0  0  0  0  0  0  0  0  0
   -5.8139   -0.5898    2.1354 H   0  0  0  0  0  0  0  0  0  0  0  0
   -6.7526    1.1198    0.5910 H   0  0  0  0  0  0  0  0  0  0  0  0
    3.7903   -4.0448    3.6041 H   0  0  0  0  0  0  0  0  0  0  0  0
  2  1  1  0  0  0  0
  2 33  1  0  0  0  0
  3  4  2  0  0  0  0
  3  5  1  0  0  0  0
  4  1  1  0  0  0  0
  5  7  1  0  0  0  0
  6  2  1  0  0  0  0
  7  1  2  0  0  0  0
  7 34  1  0  0  0  0
  8  2  1  0  0  0  0
  9  6  1  0  0  0  0
 10  8  1  0  0  0  0
 10  9  1  0  0  0  0
 10 35  1  0  0  0  0
 10 36  1  0  0  0  0
 11 18  1  0  0  0  0
 12  5  1  0  0  0  0
 13  4  1  0  0  0  0
 14  9  2  0  0  0  0
 15  6  1  0  0  0  0
 15 37  1  0  0  0  0
 15 38  1  0  0  0  0
 16 21  1  0  0  0  0
 16 22  1  0  0  0  0
 17 15  1  0  0  0  0
 17 39  1  0  0  0  0
 17 40  1  0  0  0  0
 18 17  1  0  0  0  0
 18 41  1  0  0  0  0
 18 42  1  0  0  0  0
 19 11  1  0  0  0  0
 19 43  1  0  0  0  0
 19 44  1  0  0  0  0
 20 11  1  0  0  0  0
 20 45  1  0  0  0  0
 20 46  1  0  0  0  0
 21 20  1  0  0  0  0
 21 47  1  0  0  0  0
 21 48  1  0  0  0  0
 22 19  1  0  0  0  0
 22 49  1  0  0  0  0
 22 50  1  0  0  0  0
 23 12  2  0  0  0  0
 23 51  1  0  0  0  0
 24 12  1  0  0  0  0
 24 52  1  0  0  0  0
 25 13  2  0  0  0  0
 25 53  1  0  0  0  0
 26 13  1  0  0  0  0
 26 54  1  0  0  0  0
 27 26  2  0  0  0  0
 27 55  1  0  0  0  0
 28 23  1  0  0  0  0
 28 56  1  0  0  0  0
 29 24  2  0  0  0  0
 29 57  1  0  0  0  0
 30 25  1  0  0  0  0
 30 58  1  0  0  0  0
 31 27  1  0  0  0  0
 31 30  2  0  0  0  0
 31 59  1  0  0  0  0
 32 29  1  0  0  0  0
 32 28  2  0  0  0  0
 32 60  1  0  0  0  0
M  END
>  <Mol_ID>
8731

>  <Formula>
C25H28N4O2S

>  <MolWeight>
448.58042

>  <Cat>
P2874

>  <Name>
WAY-606811

>  <Synonyms>
N/A

>  <Target>
hepatitis B

>  <Form>
free base

>  <CAS>
881665-43-6

>  <URL>
N/A

$$$$
