WAY-324728
 OpenBabel08302521423D

 49 52  0  0  0  0  0  0  0  0999 V2000
    3.4868    1.6705   -2.4277 S   0  0  0  0  0  0  0  0  0  0  0  0
   -0.7272    8.0359    0.8985 C   0  0  0  0  0  0  0  0  0  0  0  0
   -1.4275   10.2004    0.1401 C   0  0  0  0  0  0  0  0  0  0  0  0
   -0.2672    6.6656    0.5476 C   0  0  0  0  0  0  0  0  0  0  0  0
   -1.5841   10.6065    1.4193 N   0  0  0  0  0  0  0  0  0  0  0  0
   -1.0125    8.9107   -0.1508 C   0  0  0  0  0  0  0  0  0  0  0  0
   -0.9366    8.4337    2.2456 C   0  0  0  0  0  0  0  0  0  0  0  0
   -1.3938    9.7482    2.4317 C   0  0  0  0  0  0  0  0  0  0  0  0
    0.6241    6.5674   -0.5088 N   0  0  0  0  0  0  0  0  0  0  0  0
    2.5991    3.1186   -1.8926 C   0  0  0  0  0  0  0  0  0  0  0  0
   -1.6667   11.2103   -0.9187 C   0  0  0  0  0  0  0  0  0  0  0  0
    3.8233    1.8325   -3.8125 O   0  0  0  0  0  0  0  0  0  0  0  0
    2.8114    0.5029   -1.8987 O   0  0  0  0  0  0  0  0  0  0  0  0
    4.8695    1.9040   -1.5358 N   0  0  0  0  0  0  0  0  0  0  0  0
   -0.7129    5.7279    1.2007 O   0  0  0  0  0  0  0  0  0  0  0  0
   -2.6661   12.2096   -0.8541 C   0  0  0  0  0  0  0  0  0  0  0  0
    2.7692    4.3340   -2.5558 C   0  0  0  0  0  0  0  0  0  0  0  0
    1.7540    3.0167   -0.7953 C   0  0  0  0  0  0  0  0  0  0  0  0
    1.2470    5.3857   -0.9749 C   0  0  0  0  0  0  0  0  0  0  0  0
    1.0730    4.1482   -0.3518 C   0  0  0  0  0  0  0  0  0  0  0  0
    2.0969    5.4674   -2.0890 C   0  0  0  0  0  0  0  0  0  0  0  0
   -0.7288    7.6301    3.4004 C   0  0  0  0  0  0  0  0  0  0  0  0
   -1.6657   10.2019    3.7176 C   0  0  0  0  0  0  0  0  0  0  0  0
   -0.8345   11.1961   -2.0680 C   0  0  0  0  0  0  0  0  0  0  0  0
   -3.6623   12.3657    0.2678 C   0  0  0  0  0  0  0  0  0  0  0  0
   -2.7798   13.1487   -1.9041 C   0  0  0  0  0  0  0  0  0  0  0  0
   -1.0045    8.1061    4.6831 C   0  0  0  0  0  0  0  0  0  0  0  0
   -0.9711   12.1227   -3.1017 C   0  0  0  0  0  0  0  0  0  0  0  0
   -1.4824    9.3955    4.8415 C   0  0  0  0  0  0  0  0  0  0  0  0
   -1.9412   13.1066   -3.0154 C   0  0  0  0  0  0  0  0  0  0  0  0
   -0.9415    8.5832   -1.1824 H   0  0  0  0  0  0  0  0  0  0  0  0
    0.9078    7.4221   -0.9806 H   0  0  0  0  0  0  0  0  0  0  0  0
    5.6733    2.2976   -2.0075 H   0  0  0  0  0  0  0  0  0  0  0  0
    4.9291    1.4638   -0.6218 H   0  0  0  0  0  0  0  0  0  0  0  0
    3.4269    4.4056   -3.4196 H   0  0  0  0  0  0  0  0  0  0  0  0
    1.6202    2.0755   -0.2716 H   0  0  0  0  0  0  0  0  0  0  0  0
    0.4209    4.0151    0.5038 H   0  0  0  0  0  0  0  0  0  0  0  0
    2.2425    6.4089   -2.6122 H   0  0  0  0  0  0  0  0  0  0  0  0
   -0.3591    6.6108    3.3136 H   0  0  0  0  0  0  0  0  0  0  0  0
   -2.0393   11.2148    3.8471 H   0  0  0  0  0  0  0  0  0  0  0  0
   -0.0409   10.4595   -2.1678 H   0  0  0  0  0  0  0  0  0  0  0  0
   -3.5219   13.3361    0.7558 H   0  0  0  0  0  0  0  0  0  0  0  0
   -4.6805   12.3170   -0.1366 H   0  0  0  0  0  0  0  0  0  0  0  0
   -3.6147   11.5966    1.0370 H   0  0  0  0  0  0  0  0  0  0  0  0
   -3.5390   13.9260   -1.8514 H   0  0  0  0  0  0  0  0  0  0  0  0
   -0.8505    7.4649    5.5471 H   0  0  0  0  0  0  0  0  0  0  0  0
   -0.3096   12.0797   -3.9627 H   0  0  0  0  0  0  0  0  0  0  0  0
   -1.7095    9.7812    5.8316 H   0  0  0  0  0  0  0  0  0  0  0  0
   -2.0469   13.8421   -3.8055 H   0  0  0  0  0  0  0  0  0  0  0  0
  2  4  1  0  0  0  0
  3  6  2  0  0  0  0
  4  9  1  0  0  0  0
  5  8  2  0  0  0  0
  5  3  1  0  0  0  0
  6  2  1  0  0  0  0
  6 31  1  0  0  0  0
  7  2  2  0  0  0  0
  8  7  1  0  0  0  0
  9 19  1  0  0  0  0
  9 32  1  0  0  0  0
 10  1  1  0  0  0  0
 11  3  1  0  0  0  0
 12  1  2  0  0  0  0
 13  1  2  0  0  0  0
 14  1  1  0  0  0  0
 14 33  1  0  0  0  0
 14 34  1  0  0  0  0
 15  4  2  0  0  0  0
 16 11  2  0  0  0  0
 17 10  2  0  0  0  0
 17 35  1  0  0  0  0
 18 10  1  0  0  0  0
 18 36  1  0  0  0  0
 19 20  1  0  0  0  0
 20 18  2  0  0  0  0
 20 37  1  0  0  0  0
 21 17  1  0  0  0  0
 21 19  2  0  0  0  0
 21 38  1  0  0  0  0
 22  7  1  0  0  0  0
 22 39  1  0  0  0  0
 23  8  1  0  0  0  0
 23 29  2  0  0  0  0
 23 40  1  0  0  0  0
 24 11  1  0  0  0  0
 24 41  1  0  0  0  0
 25 16  1  0  0  0  0
 25 42  1  0  0  0  0
 25 43  1  0  0  0  0
 25 44  1  0  0  0  0
 26 16  1  0  0  0  0
 26 30  2  0  0  0  0
 26 45  1  0  0  0  0
 27 22  2  0  0  0  0
 27 46  1  0  0  0  0
 28 24  2  0  0  0  0
 28 47  1  0  0  0  0
 29 27  1  0  0  0  0
 29 48  1  0  0  0  0
 30 28  1  0  0  0  0
 30 49  1  0  0  0  0
M  END
>  <Mol_ID>
8625

>  <Formula>
C23H19N3O3S

>  <MolWeight>
417.48026

>  <Cat>
P2347

>  <Name>
WAY-324728

>  <Synonyms>
N/A

>  <Target>
Anti-infection

>  <Form>
free base

>  <CAS>
544670-38-4

>  <URL>
N/A

$$$$
