WAY-329595
 OpenBabel08302521453D

 33 35  0  0  0  0  0  0  0  0999 V2000
    0.2288    0.0482    0.2107 S   0  0  0  0  0  0  0  0  0  0  0  0
   -0.9608    0.1499   -1.0768 C   0  0  0  0  0  0  0  0  0  0  0  0
   -2.2569   -0.4041   -0.9662 C   0  0  0  0  0  0  0  0  0  0  0  0
   -2.7568   -1.1343    0.0477 N   0  0  0  0  0  0  0  0  0  0  0  0
    0.4166   -1.6451    0.6382 C   0  0  0  0  0  0  0  0  0  0  0  0
   -4.3311   -1.4864   -0.3382 S   0  0  0  0  0  0  0  0  0  0  0  0
   -3.2626   -0.1991   -2.0737 C   0  0  0  0  0  0  0  0  0  0  0  0
   -4.4489   -0.7718   -1.8305 N   0  0  0  0  0  0  0  0  0  0  0  0
    0.9826   -2.5044   -0.4427 C   0  0  0  0  0  0  0  0  0  0  0  0
    1.4575   -3.7640   -0.1482 N   0  0  0  0  0  0  0  0  0  0  0  0
    1.5398   -4.5119    1.0517 C   0  0  0  0  0  0  0  0  0  0  0  0
   -0.6756    0.8743   -2.2512 C   0  0  0  0  0  0  0  0  0  0  0  0
    0.8123   -4.2866    2.2331 C   0  0  0  0  0  0  0  0  0  0  0  0
   -0.3710    0.7221    1.3540 O   0  0  0  0  0  0  0  0  0  0  0  0
    1.4961    0.5392   -0.2933 O   0  0  0  0  0  0  0  0  0  0  0  0
    1.0806   -4.9800    3.4097 C   0  0  0  0  0  0  0  0  0  0  0  0
   -1.6222    1.0559   -3.2882 C   0  0  0  0  0  0  0  0  0  0  0  0
   -2.9273    0.5385   -3.2348 C   0  0  0  0  0  0  0  0  0  0  0  0
    1.0471   -2.1431   -1.6158 O   0  0  0  0  0  0  0  0  0  0  0  0
    2.4577   -5.5745    1.0587 C   0  0  0  0  0  0  0  0  0  0  0  0
    2.0493   -5.9600    3.4045 C   0  0  0  0  0  0  0  0  0  0  0  0
   -0.2246   -3.4486    2.2800 F   0  0  0  0  0  0  0  0  0  0  0  0
    2.7188   -6.2910    2.2335 C   0  0  0  0  0  0  0  0  0  0  0  0
    2.3365   -6.6128    4.5405 F   0  0  0  0  0  0  0  0  0  0  0  0
    1.0785   -1.6500    1.5067 H   0  0  0  0  0  0  0  0  0  0  0  0
   -0.5782   -2.0043    0.8918 H   0  0  0  0  0  0  0  0  0  0  0  0
    1.9247   -4.1633   -0.9582 H   0  0  0  0  0  0  0  0  0  0  0  0
    0.3111    1.3258   -2.3745 H   0  0  0  0  0  0  0  0  0  0  0  0
    0.5236   -4.7536    4.3116 H   0  0  0  0  0  0  0  0  0  0  0  0
   -1.3262    1.6338   -4.1665 H   0  0  0  0  0  0  0  0  0  0  0  0
   -3.6441    0.6952   -4.0314 H   0  0  0  0  0  0  0  0  0  0  0  0
    3.0102   -5.8413    0.1602 H   0  0  0  0  0  0  0  0  0  0  0  0
    3.4526   -7.0907    2.2453 H   0  0  0  0  0  0  0  0  0  0  0  0
  2  1  1  0  0  0  0
  3  2  1  0  0  0  0
  4  3  2  0  0  0  0
  5  1  1  0  0  0  0
  5 25  1  0  0  0  0
  5 26  1  0  0  0  0
  6  4  1  0  0  0  0
  6  8  1  0  0  0  0
  7  3  1  0  0  0  0
  7 18  1  0  0  0  0
  8  7  2  0  0  0  0
  9  5  1  0  0  0  0
 10  9  1  0  0  0  0
 10 27  1  0  0  0  0
 11 10  1  0  0  0  0
 12  2  2  0  0  0  0
 12 28  1  0  0  0  0
 13 11  2  0  0  0  0
 14  1  2  0  0  0  0
 15  1  2  0  0  0  0
 16 13  1  0  0  0  0
 16 29  1  0  0  0  0
 17 12  1  0  0  0  0
 17 30  1  0  0  0  0
 18 17  2  0  0  0  0
 18 31  1  0  0  0  0
 19  9  2  0  0  0  0
 20 11  1  0  0  0  0
 20 32  1  0  0  0  0
 21 23  1  0  0  0  0
 21 16  2  0  0  0  0
 22 13  1  0  0  0  0
 23 20  2  0  0  0  0
 23 33  1  0  0  0  0
 24 21  1  0  0  0  0
M  END
>  <Mol_ID>
9307

>  <Formula>
C14H9F2N3O3S2

>  <MolWeight>
369.3663664

>  <Cat>
P2581

>  <Name>
WAY-329595

>  <Synonyms>
N/A

>  <Target>
others

>  <Form>
free base

>  <CAS>
956932-32-4

>  <URL>
N/A

$$$$
