WAY-330333
 OpenBabel08302521443D

 43 45  0  0  0  0  0  0  0  0999 V2000
   -3.4565    0.0057    0.0263 C   0  0  0  0  0  0  0  0  0  0  0  0
   -1.3242   -0.5617   -0.0084 C   0  0  0  0  0  0  0  0  0  0  0  0
   -2.5914   -1.0533    0.0131 O   0  0  0  0  0  0  0  0  0  0  0  0
   -0.2370   -1.3486   -0.0200 N   0  0  0  0  0  0  0  0  0  0  0  0
   -4.9064   -0.1634    0.0642 C   0  0  0  0  0  0  0  0  0  0  0  0
   -2.7238    1.1836    0.0023 C   0  0  0  0  0  0  0  0  0  0  0  0
   -1.3546    0.8259   -0.0085 C   0  0  0  0  0  0  0  0  0  0  0  0
    0.9269   -0.6862   -0.0176 C   0  0  0  0  0  0  0  0  0  0  0  0
    1.0427    0.7247   -0.0100 C   0  0  0  0  0  0  0  0  0  0  0  0
   -0.1275    1.5007   -0.0132 C   0  0  0  0  0  0  0  0  0  0  0  0
   -5.4870   -1.4454    0.1025 N   0  0  0  0  0  0  0  0  0  0  0  0
   -5.6271    0.8387    0.0645 O   0  0  0  0  0  0  0  0  0  0  0  0
    2.3124    1.3288    0.0064 C   0  0  0  0  0  0  0  0  0  0  0  0
    2.0982   -1.4278   -0.0177 C   0  0  0  0  0  0  0  0  0  0  0  0
    3.4758    0.5585    0.0160 C   0  0  0  0  0  0  0  0  0  0  0  0
    3.3635   -0.8276   -0.0020 C   0  0  0  0  0  0  0  0  0  0  0  0
    4.6408    1.2724    0.0447 O   0  0  0  0  0  0  0  0  0  0  0  0
   -6.9485   -1.5517    0.0719 C   0  0  0  0  0  0  0  0  0  0  0  0
   -4.7273   -2.6848    0.0073 C   0  0  0  0  0  0  0  0  0  0  0  0
    5.8509    0.5245    0.0716 C   0  0  0  0  0  0  0  0  0  0  0  0
   -7.5536   -2.3510    1.2313 C   0  0  0  0  0  0  0  0  0  0  0  0
   -7.2797   -1.7401    2.6058 C   0  0  0  0  0  0  0  0  0  0  0  0
   -7.9233   -2.5782    3.7020 C   0  0  0  0  0  0  0  0  0  0  0  0
   -3.1487    2.1784    0.0049 H   0  0  0  0  0  0  0  0  0  0  0  0
   -0.0918    2.5855   -0.0095 H   0  0  0  0  0  0  0  0  0  0  0  0
    2.4036    2.4134    0.0177 H   0  0  0  0  0  0  0  0  0  0  0  0
    2.0294   -2.5143   -0.0265 H   0  0  0  0  0  0  0  0  0  0  0  0
    4.2339   -1.4756    0.0018 H   0  0  0  0  0  0  0  0  0  0  0  0
   -7.4156   -0.5619    0.0491 H   0  0  0  0  0  0  0  0  0  0  0  0
   -7.2101   -2.0368   -0.8765 H   0  0  0  0  0  0  0  0  0  0  0  0
   -4.1320   -2.6799   -0.9098 H   0  0  0  0  0  0  0  0  0  0  0  0
   -4.0835   -2.7792    0.8859 H   0  0  0  0  0  0  0  0  0  0  0  0
   -5.3914   -3.5518   -0.0310 H   0  0  0  0  0  0  0  0  0  0  0  0
    5.9050   -0.1107    0.9622 H   0  0  0  0  0  0  0  0  0  0  0  0
    5.9672   -0.0661   -0.8432 H   0  0  0  0  0  0  0  0  0  0  0  0
    6.6825    1.2340    0.1192 H   0  0  0  0  0  0  0  0  0  0  0  0
   -8.6383   -2.4062    1.0757 H   0  0  0  0  0  0  0  0  0  0  0  0
   -7.1887   -3.3836    1.2153 H   0  0  0  0  0  0  0  0  0  0  0  0
   -6.2015   -1.6808    2.7903 H   0  0  0  0  0  0  0  0  0  0  0  0
   -7.6761   -0.7196    2.6491 H   0  0  0  0  0  0  0  0  0  0  0  0
   -9.0084   -2.6333    3.5666 H   0  0  0  0  0  0  0  0  0  0  0  0
   -7.5267   -3.5989    3.6965 H   0  0  0  0  0  0  0  0  0  0  0  0
   -7.7245   -2.1420    4.6856 H   0  0  0  0  0  0  0  0  0  0  0  0
  2  3  1  0  0  0  0
  2  7  2  0  0  0  0
  3  1  1  0  0  0  0
  4  2  1  0  0  0  0
  5  1  1  0  0  0  0
  6  1  2  0  0  0  0
  6 24  1  0  0  0  0
  7  6  1  0  0  0  0
  8  4  2  0  0  0  0
  8  9  1  0  0  0  0
  9 10  2  0  0  0  0
 10  7  1  0  0  0  0
 10 25  1  0  0  0  0
 11  5  1  0  0  0  0
 12  5  2  0  0  0  0
 13  9  1  0  0  0  0
 13 26  1  0  0  0  0
 14  8  1  0  0  0  0
 14 27  1  0  0  0  0
 15 13  2  0  0  0  0
 16 14  2  0  0  0  0
 16 15  1  0  0  0  0
 16 28  1  0  0  0  0
 17 15  1  0  0  0  0
 18 11  1  0  0  0  0
 18 29  1  0  0  0  0
 18 30  1  0  0  0  0
 19 11  1  0  0  0  0
 19 31  1  0  0  0  0
 19 32  1  0  0  0  0
 19 33  1  0  0  0  0
 20 17  1  0  0  0  0
 20 34  1  0  0  0  0
 20 35  1  0  0  0  0
 20 36  1  0  0  0  0
 21 18  1  0  0  0  0
 21 37  1  0  0  0  0
 21 38  1  0  0  0  0
 22 21  1  0  0  0  0
 22 39  1  0  0  0  0
 22 40  1  0  0  0  0
 23 22  1  0  0  0  0
 23 41  1  0  0  0  0
 23 42  1  0  0  0  0
 23 43  1  0  0  0  0
M  END
>  <Mol_ID>
9153

>  <Formula>
C18H20N2O3

>  <MolWeight>
312.363

>  <Cat>
P2607

>  <Name>
WAY-330333

>  <Synonyms>
N/A

>  <Target>
Anti-infection

>  <Form>
free base

>  <CAS>
956203-36-4

>  <URL>
N/A

$$$$
