WAY-324717
 OpenBabel08302521423D

 50 53  0  0  0  0  0  0  0  0999 V2000
    0.2927    0.5879   -0.0385 N   0  0  0  0  0  0  0  0  0  0  0  0
   -0.8248    1.4087   -0.0182 C   0  0  0  0  0  0  0  0  0  0  0  0
    0.1619   -0.8001    0.0159 C   0  0  0  0  0  0  0  0  0  0  0  0
    2.3007   -0.1805   -0.0274 C   0  0  0  0  0  0  0  0  0  0  0  0
    1.5867    0.9517   -0.0952 N   0  0  0  0  0  0  0  0  0  0  0  0
    1.4419   -1.3050   -0.0005 C   0  0  0  0  0  0  0  0  0  0  0  0
   -1.0551   -1.4142    0.0693 N   0  0  0  0  0  0  0  0  0  0  0  0
   -2.0551    0.8529    0.0271 C   0  0  0  0  0  0  0  0  0  0  0  0
    6.4927    0.2612    1.7605 C   0  0  0  0  0  0  0  0  0  0  0  0
   -0.6167    2.8776   -0.0189 C   0  0  0  0  0  0  0  0  0  0  0  0
   -2.1089   -0.6454    0.0602 C   0  0  0  0  0  0  0  0  0  0  0  0
    7.2882   -1.2585    3.2829 N   0  0  0  0  0  0  0  0  0  0  0  0
    3.7834   -0.2050   -0.0355 C   0  0  0  0  0  0  0  0  0  0  0  0
    7.2747   -0.0246    3.7998 N   0  0  0  0  0  0  0  0  0  0  0  0
    6.8264   -1.1003    2.0355 C   0  0  0  0  0  0  0  0  0  0  0  0
    6.8478    0.9257    2.9224 C   0  0  0  0  0  0  0  0  0  0  0  0
    4.4865    0.8740    0.5275 N   0  0  0  0  0  0  0  0  0  0  0  0
    5.9462    0.8568    0.5006 C   0  0  0  0  0  0  0  0  0  0  0  0
   -3.4606   -1.2719    0.0906 C   0  0  0  0  0  0  0  0  0  0  0  0
    4.3695   -1.1721   -0.5216 O   0  0  0  0  0  0  0  0  0  0  0  0
    0.6647    3.3130   -0.0476 F   0  0  0  0  0  0  0  0  0  0  0  0
   -1.2383    3.4570   -1.0833 F   0  0  0  0  0  0  0  0  0  0  0  0
   -1.1764    3.4392    1.0888 F   0  0  0  0  0  0  0  0  0  0  0  0
   -4.5706   -0.6710   -0.5228 C   0  0  0  0  0  0  0  0  0  0  0  0
   -3.6085   -2.5269    0.7014 C   0  0  0  0  0  0  0  0  0  0  0  0
   -5.9451   -2.5551    0.1038 C   0  0  0  0  0  0  0  0  0  0  0  0
   -5.8118   -1.3076   -0.5062 C   0  0  0  0  0  0  0  0  0  0  0  0
   -4.8496   -3.1635    0.7078 C   0  0  0  0  0  0  0  0  0  0  0  0
    7.6768    0.1612    5.1723 C   0  0  0  0  0  0  0  0  0  0  0  0
    3.8384    2.0102    1.1702 C   0  0  0  0  0  0  0  0  0  0  0  0
    6.7347   -2.2958    1.1598 C   0  0  0  0  0  0  0  0  0  0  0  0
    1.7214   -2.3468    0.0301 H   0  0  0  0  0  0  0  0  0  0  0  0
   -2.9571    1.4469    0.0730 H   0  0  0  0  0  0  0  0  0  0  0  0
    6.8209    1.9727    3.1882 H   0  0  0  0  0  0  0  0  0  0  0  0
    6.3041    0.3054   -0.3739 H   0  0  0  0  0  0  0  0  0  0  0  0
    6.3015    1.8898    0.3855 H   0  0  0  0  0  0  0  0  0  0  0  0
   -4.4890    0.2834   -1.0309 H   0  0  0  0  0  0  0  0  0  0  0  0
   -2.7555   -3.0167    1.1672 H   0  0  0  0  0  0  0  0  0  0  0  0
   -6.9128   -3.0587    0.0942 H   0  0  0  0  0  0  0  0  0  0  0  0
   -6.6653   -0.8429   -0.9851 H   0  0  0  0  0  0  0  0  0  0  0  0
   -4.9556   -4.1395    1.1751 H   0  0  0  0  0  0  0  0  0  0  0  0
    6.9193   -0.2997    5.8122 H   0  0  0  0  0  0  0  0  0  0  0  0
    8.6457   -0.3231    5.3217 H   0  0  0  0  0  0  0  0  0  0  0  0
    7.7552    1.2281    5.3905 H   0  0  0  0  0  0  0  0  0  0  0  0
    3.3897    2.6468    0.4024 H   0  0  0  0  0  0  0  0  0  0  0  0
    3.0723    1.6572    1.8669 H   0  0  0  0  0  0  0  0  0  0  0  0
    4.5599    2.6105    1.7314 H   0  0  0  0  0  0  0  0  0  0  0  0
    7.5660   -2.9821    1.3595 H   0  0  0  0  0  0  0  0  0  0  0  0
    5.8008   -2.8338    1.3493 H   0  0  0  0  0  0  0  0  0  0  0  0
    6.7845   -2.0287    0.1015 H   0  0  0  0  0  0  0  0  0  0  0  0
  2  1  1  0  0  0  0
  3  1  1  0  0  0  0
  4  5  2  0  0  0  0
  5  1  1  0  0  0  0
  6  3  2  0  0  0  0
  6  4  1  0  0  0  0
  6 32  1  0  0  0  0
  7  3  1  0  0  0  0
  8  2  2  0  0  0  0
  8 11  1  0  0  0  0
  8 33  1  0  0  0  0
  9 18  1  0  0  0  0
 10  2  1  0  0  0  0
 11  7  2  0  0  0  0
 12 15  2  0  0  0  0
 13  4  1  0  0  0  0
 14 16  1  0  0  0  0
 14 12  1  0  0  0  0
 15  9  1  0  0  0  0
 16  9  2  0  0  0  0
 16 34  1  0  0  0  0
 17 13  1  0  0  0  0
 18 17  1  0  0  0  0
 18 35  1  0  0  0  0
 18 36  1  0  0  0  0
 19 11  1  0  0  0  0
 20 13  2  0  0  0  0
 21 10  1  0  0  0  0
 22 10  1  0  0  0  0
 23 10  1  0  0  0  0
 24 19  2  0  0  0  0
 24 37  1  0  0  0  0
 25 19  1  0  0  0  0
 25 38  1  0  0  0  0
 26 28  1  0  0  0  0
 26 39  1  0  0  0  0
 27 24  1  0  0  0  0
 27 26  2  0  0  0  0
 27 40  1  0  0  0  0
 28 25  2  0  0  0  0
 28 41  1  0  0  0  0
 29 14  1  0  0  0  0
 29 42  1  0  0  0  0
 29 43  1  0  0  0  0
 29 44  1  0  0  0  0
 30 17  1  0  0  0  0
 30 45  1  0  0  0  0
 30 46  1  0  0  0  0
 30 47  1  0  0  0  0
 31 15  1  0  0  0  0
 31 48  1  0  0  0  0
 31 49  1  0  0  0  0
 31 50  1  0  0  0  0
M  END
>  <Mol_ID>
8623

>  <Formula>
C21H18ClF3N6O

>  <MolWeight>
462.8554296

>  <Cat>
P2345

>  <Name>
WAY-324717

>  <Synonyms>
N/A

>  <Target>
11¦Â-HSD1

>  <Form>
free base

>  <CAS>
489450-00-2

>  <URL>
N/A

$$$$
