WAY-327493
 OpenBabel08302521443D

 52 54  0  0  0  0  0  0  0  0999 V2000
    1.1177    1.2981   -0.1605 C   0  0  0  0  0  0  0  0  0  0  0  0
   -0.1260    0.4776   -0.2298 C   0  0  0  0  0  0  0  0  0  0  0  0
   -0.0487   -0.9127   -0.0448 C   0  0  0  0  0  0  0  0  0  0  0  0
    2.2563    0.6432    0.1295 C   0  0  0  0  0  0  0  0  0  0  0  0
    1.1392    2.8125   -0.1094 C   0  0  0  0  0  0  0  0  0  0  0  0
    1.2771   -1.5704    0.0606 C   0  0  0  0  0  0  0  0  0  0  0  0
    2.3794   -0.7298    0.1683 N   0  0  0  0  0  0  0  0  0  0  0  0
    2.2387    3.5472   -0.5556 N   0  0  0  0  0  0  0  0  0  0  0  0
   -1.4093    1.0169   -0.3984 C   0  0  0  0  0  0  0  0  0  0  0  0
   -1.2016   -1.7156    0.0605 C   0  0  0  0  0  0  0  0  0  0  0  0
   -2.4746   -1.1494   -0.0186 C   0  0  0  0  0  0  0  0  0  0  0  0
   -2.5721    0.2307   -0.2587 C   0  0  0  0  0  0  0  0  0  0  0  0
    1.3616   -2.7966    0.0587 O   0  0  0  0  0  0  0  0  0  0  0  0
    0.1589    3.3869    0.3713 O   0  0  0  0  0  0  0  0  0  0  0  0
    2.2764    4.9801   -0.2637 C   0  0  0  0  0  0  0  0  0  0  0  0
    3.4083    3.1023   -1.3158 C   0  0  0  0  0  0  0  0  0  0  0  0
    3.7154   -1.3192    0.2604 C   0  0  0  0  0  0  0  0  0  0  0  0
   -3.7361    0.9448   -0.4121 O   0  0  0  0  0  0  0  0  0  0  0  0
   -3.6343   -1.8674    0.0970 O   0  0  0  0  0  0  0  0  0  0  0  0
    4.6951    3.3505   -0.5163 C   0  0  0  0  0  0  0  0  0  0  0  0
    3.4771    5.2975    0.6252 C   0  0  0  0  0  0  0  0  0  0  0  0
    4.8041    4.7860    0.0362 C   0  0  0  0  0  0  0  0  0  0  0  0
   -3.5461   -3.2346    0.4820 C   0  0  0  0  0  0  0  0  0  0  0  0
   -4.8280    0.5552    0.4160 C   0  0  0  0  0  0  0  0  0  0  0  0
    5.9062    4.8653    1.0993 C   0  0  0  0  0  0  0  0  0  0  0  0
    4.3090   -1.6007   -1.1148 C   0  0  0  0  0  0  0  0  0  0  0  0
    3.1680    1.1742    0.3562 H   0  0  0  0  0  0  0  0  0  0  0  0
   -1.5475    2.0779   -0.5961 H   0  0  0  0  0  0  0  0  0  0  0  0
   -1.0684   -2.7822    0.2186 H   0  0  0  0  0  0  0  0  0  0  0  0
    2.3494    5.5166   -1.2170 H   0  0  0  0  0  0  0  0  0  0  0  0
    1.3636    5.3228    0.2312 H   0  0  0  0  0  0  0  0  0  0  0  0
    3.4322    3.6877   -2.2426 H   0  0  0  0  0  0  0  0  0  0  0  0
    3.3313    2.0598   -1.6285 H   0  0  0  0  0  0  0  0  0  0  0  0
    4.3741   -0.6435    0.8180 H   0  0  0  0  0  0  0  0  0  0  0  0
    3.6559   -2.2537    0.8283 H   0  0  0  0  0  0  0  0  0  0  0  0
    5.5613    3.1445   -1.1580 H   0  0  0  0  0  0  0  0  0  0  0  0
    4.7558    2.6439    0.3190 H   0  0  0  0  0  0  0  0  0  0  0  0
    3.3138    4.8473    1.6127 H   0  0  0  0  0  0  0  0  0  0  0  0
    3.5402    6.3823    0.7792 H   0  0  0  0  0  0  0  0  0  0  0  0
    5.0849    5.4445   -0.7963 H   0  0  0  0  0  0  0  0  0  0  0  0
   -3.1145   -3.8345   -0.3248 H   0  0  0  0  0  0  0  0  0  0  0  0
   -2.9869   -3.3609    1.4156 H   0  0  0  0  0  0  0  0  0  0  0  0
   -4.5641   -3.5964    0.6597 H   0  0  0  0  0  0  0  0  0  0  0  0
   -5.4483   -0.1854   -0.0981 H   0  0  0  0  0  0  0  0  0  0  0  0
   -4.5082    0.1926    1.3995 H   0  0  0  0  0  0  0  0  0  0  0  0
   -5.4491    1.4407    0.5840 H   0  0  0  0  0  0  0  0  0  0  0  0
    6.1000    5.9050    1.3839 H   0  0  0  0  0  0  0  0  0  0  0  0
    5.6191    4.3209    2.0071 H   0  0  0  0  0  0  0  0  0  0  0  0
    6.8435    4.4329    0.7348 H   0  0  0  0  0  0  0  0  0  0  0  0
    3.6787   -2.2886   -1.6881 H   0  0  0  0  0  0  0  0  0  0  0  0
    4.4132   -0.6798   -1.6989 H   0  0  0  0  0  0  0  0  0  0  0  0
    5.3009   -2.0520   -1.0131 H   0  0  0  0  0  0  0  0  0  0  0  0
  2  1  1  0  0  0  0
  3  2  2  0  0  0  0
  4  1  2  0  0  0  0
  4 27  1  0  0  0  0
  5  1  1  0  0  0  0
  6  7  1  0  0  0  0
  6  3  1  0  0  0  0
  7  4  1  0  0  0  0
  8  5  1  0  0  0  0
  9  2  1  0  0  0  0
  9 28  1  0  0  0  0
 10  3  1  0  0  0  0
 10 29  1  0  0  0  0
 11 12  1  0  0  0  0
 11 10  2  0  0  0  0
 12  9  2  0  0  0  0
 13  6  2  0  0  0  0
 14  5  2  0  0  0  0
 15  8  1  0  0  0  0
 15 30  1  0  0  0  0
 15 31  1  0  0  0  0
 16  8  1  0  0  0  0
 16 32  1  0  0  0  0
 16 33  1  0  0  0  0
 17  7  1  0  0  0  0
 17 34  1  0  0  0  0
 17 35  1  0  0  0  0
 18 12  1  0  0  0  0
 19 11  1  0  0  0  0
 20 16  1  0  0  0  0
 20 36  1  0  0  0  0
 20 37  1  0  0  0  0
 21 15  1  0  0  0  0
 21 38  1  0  0  0  0
 21 39  1  0  0  0  0
 22 20  1  0  0  0  0
 22 21  1  0  0  0  0
 22 40  1  0  0  0  0
 23 19  1  0  0  0  0
 23 41  1  0  0  0  0
 23 42  1  0  0  0  0
 23 43  1  0  0  0  0
 24 18  1  0  0  0  0
 24 44  1  0  0  0  0
 24 45  1  0  0  0  0
 24 46  1  0  0  0  0
 25 22  1  0  0  0  0
 25 47  1  0  0  0  0
 25 48  1  0  0  0  0
 25 49  1  0  0  0  0
 26 17  1  0  0  0  0
 26 50  1  0  0  0  0
 26 51  1  0  0  0  0
 26 52  1  0  0  0  0
M  END
>  <Mol_ID>
8973

>  <Formula>
C20H26N2O4

>  <MolWeight>
358.43144

>  <Cat>
P2536

>  <Name>
WAY-327493

>  <Synonyms>
N/A

>  <Target>
phosphodiesterase type 10A

>  <Form>
free base

>  <CAS>
892263-91-1

>  <URL>
N/A

$$$$
