WAY-356686
 OpenBabel08302521393D

 50 52  0  0  0  0  0  0  0  0999 V2000
    1.3348   -0.2356    0.1100 C   0  0  0  0  0  0  0  0  0  0  0  0
    3.0960   -0.5047    0.2750 S   0  0  0  0  0  0  0  0  0  0  0  0
    0.4675   -1.3295    0.0180 C   0  0  0  0  0  0  0  0  0  0  0  0
    0.8253    1.0654    0.1882 C   0  0  0  0  0  0  0  0  0  0  0  0
    3.6591   -0.5045   -1.3391 N   0  0  0  0  0  0  0  0  0  0  0  0
    3.6430    0.6587    0.9409 O   0  0  0  0  0  0  0  0  0  0  0  0
    3.2770   -1.8302    0.8282 O   0  0  0  0  0  0  0  0  0  0  0  0
   -0.9194   -1.1192   -0.0247 C   0  0  0  0  0  0  0  0  0  0  0  0
   -0.5524    1.2756    0.1137 C   0  0  0  0  0  0  0  0  0  0  0  0
    3.2907   -1.6590   -2.1828 C   0  0  0  0  0  0  0  0  0  0  0  0
    3.8026    0.8303   -1.9636 C   0  0  0  0  0  0  0  0  0  0  0  0
   -1.4233    0.1888   -0.0010 C   0  0  0  0  0  0  0  0  0  0  0  0
   -1.8171   -2.3090   -0.0928 C   0  0  0  0  0  0  0  0  0  0  0  0
    4.5060   -2.1655   -2.9594 C   0  0  0  0  0  0  0  0  0  0  0  0
    3.9177    0.8596   -3.4829 C   0  0  0  0  0  0  0  0  0  0  0  0
   -3.0728   -2.1688    0.4565 N   0  0  0  0  0  0  0  0  0  0  0  0
   -1.4020   -3.3493   -0.5918 O   0  0  0  0  0  0  0  0  0  0  0  0
    4.7947   -1.3968   -4.2447 C   0  0  0  0  0  0  0  0  0  0  0  0
    5.1051    0.0800   -4.0364 C   0  0  0  0  0  0  0  0  0  0  0  0
   -4.0034   -3.2747    0.5424 C   0  0  0  0  0  0  0  0  0  0  0  0
   -5.2870   -2.9665   -0.1836 C   0  0  0  0  0  0  0  0  0  0  0  0
   -5.4198   -3.3001   -1.5392 C   0  0  0  0  0  0  0  0  0  0  0  0
   -6.3592   -2.3398    0.4679 C   0  0  0  0  0  0  0  0  0  0  0  0
   -6.6088   -3.0390   -2.2221 C   0  0  0  0  0  0  0  0  0  0  0  0
   -7.5476   -2.0760   -0.2186 C   0  0  0  0  0  0  0  0  0  0  0  0
   -7.6732   -2.4295   -1.5612 C   0  0  0  0  0  0  0  0  0  0  0  0
    0.8607   -2.3452    0.0051 H   0  0  0  0  0  0  0  0  0  0  0  0
    1.4913    1.9171    0.3131 H   0  0  0  0  0  0  0  0  0  0  0  0
   -0.9495    2.2879    0.1547 H   0  0  0  0  0  0  0  0  0  0  0  0
    2.4483   -1.4190   -2.8385 H   0  0  0  0  0  0  0  0  0  0  0  0
    2.9595   -2.4895   -1.5498 H   0  0  0  0  0  0  0  0  0  0  0  0
    4.7012    1.2960   -1.5389 H   0  0  0  0  0  0  0  0  0  0  0  0
    2.9522    1.4623   -1.6912 H   0  0  0  0  0  0  0  0  0  0  0  0
   -2.4900    0.3816   -0.0828 H   0  0  0  0  0  0  0  0  0  0  0  0
    4.3223   -3.2101   -3.2412 H   0  0  0  0  0  0  0  0  0  0  0  0
    5.3980   -2.1661   -2.3207 H   0  0  0  0  0  0  0  0  0  0  0  0
    4.0400    1.9105   -3.7765 H   0  0  0  0  0  0  0  0  0  0  0  0
    2.9837    0.5267   -3.9504 H   0  0  0  0  0  0  0  0  0  0  0  0
   -3.3294   -1.3211    0.9394 H   0  0  0  0  0  0  0  0  0  0  0  0
    5.6507   -1.8649   -4.7464 H   0  0  0  0  0  0  0  0  0  0  0  0
    3.9445   -1.4993   -4.9310 H   0  0  0  0  0  0  0  0  0  0  0  0
    5.9864    0.2019   -3.3957 H   0  0  0  0  0  0  0  0  0  0  0  0
    5.3690    0.5046   -5.0134 H   0  0  0  0  0  0  0  0  0  0  0  0
   -3.5593   -4.1969    0.1512 H   0  0  0  0  0  0  0  0  0  0  0  0
   -4.2060   -3.4495    1.6054 H   0  0  0  0  0  0  0  0  0  0  0  0
   -4.5942   -3.7761   -2.0656 H   0  0  0  0  0  0  0  0  0  0  0  0
   -6.2828   -2.0644    1.5171 H   0  0  0  0  0  0  0  0  0  0  0  0
   -6.7040   -3.3156   -3.2689 H   0  0  0  0  0  0  0  0  0  0  0  0
   -8.3794   -1.6001    0.2948 H   0  0  0  0  0  0  0  0  0  0  0  0
   -8.6004   -2.2317   -2.0928 H   0  0  0  0  0  0  0  0  0  0  0  0
  1  2  1  0  0  0  0
  1  3  2  0  0  0  0
  1  4  1  0  0  0  0
  2  5  1  0  0  0  0
  2  6  2  0  0  0  0
  2  7  2  0  0  0  0
  3  8  1  0  0  0  0
  3 27  1  0  0  0  0
  4  9  2  0  0  0  0
  4 28  1  0  0  0  0
  5 10  1  0  0  0  0
  5 11  1  0  0  0  0
  8 12  2  0  0  0  0
  8 13  1  0  0  0  0
  9 12  1  0  0  0  0
  9 29  1  0  0  0  0
 10 14  1  0  0  0  0
 10 30  1  0  0  0  0
 10 31  1  0  0  0  0
 11 15  1  0  0  0  0
 11 32  1  0  0  0  0
 11 33  1  0  0  0  0
 12 34  1  0  0  0  0
 13 16  1  0  0  0  0
 13 17  2  0  0  0  0
 14 18  1  0  0  0  0
 14 35  1  0  0  0  0
 14 36  1  0  0  0  0
 15 19  1  0  0  0  0
 15 37  1  0  0  0  0
 15 38  1  0  0  0  0
 16 20  1  0  0  0  0
 16 39  1  0  0  0  0
 18 19  1  0  0  0  0
 18 40  1  0  0  0  0
 18 41  1  0  0  0  0
 19 42  1  0  0  0  0
 19 43  1  0  0  0  0
 20 21  1  0  0  0  0
 20 44  1  0  0  0  0
 20 45  1  0  0  0  0
 21 22  2  0  0  0  0
 21 23  1  0  0  0  0
 22 24  1  0  0  0  0
 22 46  1  0  0  0  0
 23 25  2  0  0  0  0
 23 47  1  0  0  0  0
 24 26  2  0  0  0  0
 24 48  1  0  0  0  0
 25 26  1  0  0  0  0
 25 49  1  0  0  0  0
 26 50  1  0  0  0  0
M  END
>  <Mol_ID>
8068

>  <Formula>
C20H23ClN2O3S

>  <MolWeight>
406.92622

>  <Cat>
P2771

>  <Name>
WAY-356686

>  <Synonyms>
N/A

>  <Target>
Anti-infection

>  <Form>
free base

>  <CAS>
330461-34-2

>  <URL>
N/A

$$$$
