WAY-324208
 OpenBabel08302521423D

 50 54  0  0  0  0  0  0  0  0999 V2000
    0.5919    0.7911    0.0444 N   0  0  0  0  0  0  0  0  0  0  0  0
   -0.1196   -0.3820    0.0260 C   0  0  0  0  0  0  0  0  0  0  0  0
   -0.0632    2.1011    0.0172 C   0  0  3  0  0  0  0  0  0  0  0  0
    0.6894   -1.4221   -0.0044 N   0  0  0  0  0  0  0  0  0  0  0  0
   -1.5251    2.0896    0.2176 N   0  0  0  0  0  0  0  0  0  0  0  0
   -1.5729   -0.3631    0.0270 C   0  0  0  0  0  0  0  0  0  0  0  0
    0.2663    2.8387   -1.2759 C   0  0  0  0  0  0  0  0  0  0  0  0
    1.9304    0.4952    0.0761 C   0  0  0  0  0  0  0  0  0  0  0  0
   -2.2290    0.8829    0.0742 C   0  0  0  0  0  0  0  0  0  0  0  0
    1.9586   -0.8978    0.0343 C   0  0  0  0  0  0  0  0  0  0  0  0
    0.9947    4.1291   -3.7048 C   0  0  0  0  0  0  0  0  0  0  0  0
    0.2682    2.9169   -3.7288 C   0  0  0  0  0  0  0  0  0  0  0  0
    1.2936    4.7142   -2.4553 C   0  0  0  0  0  0  0  0  0  0  0  0
   -0.0826    2.2946   -2.5189 C   0  0  0  0  0  0  0  0  0  0  0  0
    0.9403    4.0641   -1.2589 C   0  0  0  0  0  0  0  0  0  0  0  0
    1.4826    4.7992   -4.7978 O   0  0  0  0  0  0  0  0  0  0  0  0
   -0.0776    2.3798   -4.9426 O   0  0  0  0  0  0  0  0  0  0  0  0
    1.9834    5.8839   -2.2270 O   0  0  0  0  0  0  0  0  0  0  0  0
   -2.3053   -1.5562   -0.0206 C   0  0  0  0  0  0  0  0  0  0  0  0
    3.0918    1.2745    0.1218 C   0  0  0  0  0  0  0  0  0  0  0  0
   -3.6278    0.8931    0.1258 C   0  0  0  0  0  0  0  0  0  0  0  0
    3.1934   -1.5623    0.0358 C   0  0  0  0  0  0  0  0  0  0  0  0
    1.3208    4.2698   -6.1037 C   0  0  0  0  0  0  0  0  0  0  0  0
   -0.7960    1.1532   -4.9642 C   0  0  0  0  0  0  0  0  0  0  0  0
    1.8517    6.9177   -3.1969 C   0  0  0  0  0  0  0  0  0  0  0  0
   -3.6981   -1.5242    0.0067 C   0  0  0  0  0  0  0  0  0  0  0  0
    4.3134    0.5924    0.1253 C   0  0  0  0  0  0  0  0  0  0  0  0
   -4.3569   -0.2994    0.0848 C   0  0  0  0  0  0  0  0  0  0  0  0
    4.3675   -0.8013    0.0834 C   0  0  0  0  0  0  0  0  0  0  0  0
    0.3658    2.6474    0.8674 H   0  0  0  0  0  0  0  0  0  0  0  0
   -2.0040    2.8984   -0.1665 H   0  0  0  0  0  0  0  0  0  0  0  0
   -0.6195    1.3502   -2.5189 H   0  0  0  0  0  0  0  0  0  0  0  0
    1.2163    4.5288   -0.3154 H   0  0  0  0  0  0  0  0  0  0  0  0
   -1.7860   -2.5119   -0.0652 H   0  0  0  0  0  0  0  0  0  0  0  0
    3.0634    2.3580    0.1464 H   0  0  0  0  0  0  0  0  0  0  0  0
   -4.1661    1.8328    0.2157 H   0  0  0  0  0  0  0  0  0  0  0  0
    3.2265   -2.6454    0.0019 H   0  0  0  0  0  0  0  0  0  0  0  0
    1.7578    3.2708   -6.1973 H   0  0  0  0  0  0  0  0  0  0  0  0
    0.2694    4.2964   -6.4058 H   0  0  0  0  0  0  0  0  0  0  0  0
    1.8690    4.9202   -6.7930 H   0  0  0  0  0  0  0  0  0  0  0  0
   -0.2011    0.3390   -4.5377 H   0  0  0  0  0  0  0  0  0  0  0  0
   -1.7619    1.2526   -4.4584 H   0  0  0  0  0  0  0  0  0  0  0  0
   -0.9955    0.9037   -6.0088 H   0  0  0  0  0  0  0  0  0  0  0  0
    2.5452    6.7638   -4.0294 H   0  0  0  0  0  0  0  0  0  0  0  0
    0.8182    7.0299   -3.5435 H   0  0  0  0  0  0  0  0  0  0  0  0
    2.1409    7.8587   -2.7183 H   0  0  0  0  0  0  0  0  0  0  0  0
   -4.2637   -2.4525   -0.0151 H   0  0  0  0  0  0  0  0  0  0  0  0
    5.2404    1.1619    0.1578 H   0  0  0  0  0  0  0  0  0  0  0  0
   -5.4439   -0.2731    0.1299 H   0  0  0  0  0  0  0  0  0  0  0  0
    5.3308   -1.3058    0.0862 H   0  0  0  0  0  0  0  0  0  0  0  0
  2  1  1  0  0  0  0
  3  1  1  0  0  0  0
  3 30  1  0  0  0  0
  4  2  2  0  0  0  0
  4 10  1  0  0  0  0
  5  3  1  0  0  0  0
  5 31  1  0  0  0  0
  6  2  1  0  0  0  0
  6  9  2  0  0  0  0
  7  3  1  0  0  0  0
  8  1  1  0  0  0  0
  9  5  1  0  0  0  0
 10  8  2  0  0  0  0
 11 13  2  0  0  0  0
 11 12  1  0  0  0  0
 12 14  2  0  0  0  0
 13 15  1  0  0  0  0
 14  7  1  0  0  0  0
 14 32  1  0  0  0  0
 15  7  2  0  0  0  0
 15 33  1  0  0  0  0
 16 11  1  0  0  0  0
 17 12  1  0  0  0  0
 18 13  1  0  0  0  0
 19  6  1  0  0  0  0
 19 34  1  0  0  0  0
 20  8  1  0  0  0  0
 20 35  1  0  0  0  0
 21  9  1  0  0  0  0
 21 36  1  0  0  0  0
 22 10  1  0  0  0  0
 22 37  1  0  0  0  0
 23 16  1  0  0  0  0
 23 38  1  0  0  0  0
 23 39  1  0  0  0  0
 23 40  1  0  0  0  0
 24 17  1  0  0  0  0
 24 41  1  0  0  0  0
 24 42  1  0  0  0  0
 24 43  1  0  0  0  0
 25 18  1  0  0  0  0
 25 44  1  0  0  0  0
 25 45  1  0  0  0  0
 25 46  1  0  0  0  0
 26 19  2  0  0  0  0
 26 47  1  0  0  0  0
 27 20  2  0  0  0  0
 27 48  1  0  0  0  0
 28 21  2  0  0  0  0
 28 26  1  0  0  0  0
 28 49  1  0  0  0  0
 29 27  1  0  0  0  0
 29 22  2  0  0  0  0
 29 50  1  0  0  0  0
M  END
>  <Mol_ID>
8612

>  <Formula>
C23H21N3O3

>  <MolWeight>
387.43114

>  <Cat>
P2309

>  <Name>
WAY-324208

>  <Synonyms>
N/A

>  <Target>
Anti-infection

>  <Form>
free base

>  <CAS>
387371-82-6

>  <URL>
N/A

$$$$
