WAY-606558
 OpenBabel08302521433D

 47 49  0  0  0  0  0  0  0  0999 V2000
    0.4139    2.6213   -3.1094 C   0  0  0  0  0  0  0  0  0  0  0  0
    0.4632    2.8777   -1.7724 C   0  0  0  0  0  0  0  0  0  0  0  0
   -0.6823    2.9480   -3.8748 N   0  0  0  0  0  0  0  0  0  0  0  0
   -1.6935    3.8190   -1.8899 N   0  0  0  0  0  0  0  0  0  0  0  0
   -1.7795    3.5672   -3.2730 C   0  0  0  0  0  0  0  0  0  0  0  0
   -0.6099    3.4906   -1.0677 C   0  0  0  0  0  0  0  0  0  0  0  0
    1.5432    2.0071   -3.5520 N   0  0  0  0  0  0  0  0  0  0  0  0
    1.6880    2.4136   -1.3658 N   0  0  0  0  0  0  0  0  0  0  0  0
    2.2921    1.8757   -2.4751 C   0  0  0  0  0  0  0  0  0  0  0  0
    2.2005    2.4093   -0.0074 C   0  0  0  0  0  0  0  0  0  0  0  0
    4.3248    6.4781    1.6321 C   0  0  0  0  0  0  0  0  0  0  0  0
   -2.7811    3.8774   -3.9226 O   0  0  0  0  0  0  0  0  0  0  0  0
   -0.5863    3.7007    0.1425 O   0  0  0  0  0  0  0  0  0  0  0  0
    3.7112    2.4521    0.0828 C   0  0  0  0  0  0  0  0  0  0  0  0
    3.9437    7.1986    2.8778 C   0  0  0  0  0  0  0  0  0  0  0  0
    3.5768    6.3423    0.6735 O   0  0  0  0  0  0  0  0  0  0  0  0
    4.3950    1.4307    0.0684 O   0  0  0  0  0  0  0  0  0  0  0  0
   -0.6936    2.6425   -5.2936 C   0  0  0  0  0  0  0  0  0  0  0  0
   -2.8181    4.4613   -1.2366 C   0  0  0  0  0  0  0  0  0  0  0  0
    2.7072    7.8592    2.9115 C   0  0  0  0  0  0  0  0  0  0  0  0
    4.7742    7.2379    4.0060 C   0  0  0  0  0  0  0  0  0  0  0  0
    4.2595    3.7110    0.1823 N   0  0  0  0  0  0  0  0  0  0  0  0
    3.1513    8.6089    5.1649 C   0  0  0  0  0  0  0  0  0  0  0  0
    5.5895    5.9925    1.7104 O   0  0  0  0  0  0  0  0  0  0  0  0
    4.3751    7.9412    5.1463 C   0  0  0  0  0  0  0  0  0  0  0  0
    2.3154    8.5655    4.0505 C   0  0  0  0  0  0  0  0  0  0  0  0
    5.6820    3.8978    0.4086 C   0  0  0  0  0  0  0  0  0  0  0  0
    6.1031    5.3654    0.5179 C   0  0  0  0  0  0  0  0  0  0  0  0
    3.2659    1.3996   -2.4478 H   0  0  0  0  0  0  0  0  0  0  0  0
    1.7882    3.2662    0.5316 H   0  0  0  0  0  0  0  0  0  0  0  0
    1.8398    1.4923    0.4714 H   0  0  0  0  0  0  0  0  0  0  0  0
    0.1486    3.1476   -5.7755 H   0  0  0  0  0  0  0  0  0  0  0  0
   -0.6003    1.5604   -5.4264 H   0  0  0  0  0  0  0  0  0  0  0  0
   -1.6188    2.9730   -5.7739 H   0  0  0  0  0  0  0  0  0  0  0  0
   -3.1990    3.7993   -0.4519 H   0  0  0  0  0  0  0  0  0  0  0  0
   -2.4725    5.3879   -0.7666 H   0  0  0  0  0  0  0  0  0  0  0  0
   -3.6331    4.6983   -1.9251 H   0  0  0  0  0  0  0  0  0  0  0  0
    2.0440    7.8314    2.0486 H   0  0  0  0  0  0  0  0  0  0  0  0
    5.7335    6.7268    4.0145 H   0  0  0  0  0  0  0  0  0  0  0  0
    3.6621    4.5396    0.1619 H   0  0  0  0  0  0  0  0  0  0  0  0
    2.8479    9.1634    6.0505 H   0  0  0  0  0  0  0  0  0  0  0  0
    5.0208    7.9692    6.0208 H   0  0  0  0  0  0  0  0  0  0  0  0
    1.3587    9.0825    4.0678 H   0  0  0  0  0  0  0  0  0  0  0  0
    5.9373    3.3617    1.3296 H   0  0  0  0  0  0  0  0  0  0  0  0
    6.2129    3.4199   -0.4223 H   0  0  0  0  0  0  0  0  0  0  0  0
    7.1949    5.4132    0.5966 H   0  0  0  0  0  0  0  0  0  0  0  0
    5.8204    5.9399   -0.3722 H   0  0  0  0  0  0  0  0  0  0  0  0
  2  1  2  0  0  0  0
  3  1  1  0  0  0  0
  4  5  1  0  0  0  0
  4  6  1  0  0  0  0
  5  3  1  0  0  0  0
  6  2  1  0  0  0  0
  7  1  1  0  0  0  0
  8  2  1  0  0  0  0
  8  9  1  0  0  0  0
  9  7  2  0  0  0  0
  9 29  1  0  0  0  0
 10  8  1  0  0  0  0
 10 30  1  0  0  0  0
 10 31  1  0  0  0  0
 11 24  1  0  0  0  0
 12  5  2  0  0  0  0
 13  6  2  0  0  0  0
 14 10  1  0  0  0  0
 15 11  1  0  0  0  0
 16 11  2  0  0  0  0
 17 14  2  0  0  0  0
 18  3  1  0  0  0  0
 18 32  1  0  0  0  0
 18 33  1  0  0  0  0
 18 34  1  0  0  0  0
 19  4  1  0  0  0  0
 19 35  1  0  0  0  0
 19 36  1  0  0  0  0
 19 37  1  0  0  0  0
 20 15  2  0  0  0  0
 20 38  1  0  0  0  0
 21 15  1  0  0  0  0
 21 39  1  0  0  0  0
 22 14  1  0  0  0  0
 22 40  1  0  0  0  0
 23 25  1  0  0  0  0
 23 26  2  0  0  0  0
 23 41  1  0  0  0  0
 24 28  1  0  0  0  0
 25 21  2  0  0  0  0
 25 42  1  0  0  0  0
 26 20  1  0  0  0  0
 26 43  1  0  0  0  0
 27 22  1  0  0  0  0
 27 44  1  0  0  0  0
 27 45  1  0  0  0  0
 28 27  1  0  0  0  0
 28 46  1  0  0  0  0
 28 47  1  0  0  0  0
M  END
>  <Mol_ID>
8723

>  <Formula>
C18H18ClN5O5

>  <MolWeight>
419.81902

>  <Cat>
P2866

>  <Name>
WAY-606558

>  <Synonyms>
N/A

>  <Target>
TRPA1

>  <Form>
free base

>  <CAS>
379699-19-1

>  <URL>
N/A

$$$$
