WAY-324758
 OpenBabel08302521423D

 43 45  0  0  0  0  0  0  0  0999 V2000
    0.0801   -2.4408    0.3962 N   0  0  0  0  0  0  0  0  0  0  0  0
   -1.1877   -3.2092    0.5822 C   0  0  3  0  0  0  0  0  0  0  0  0
   -0.2233   -1.1879   -0.2950 C   0  0  3  0  0  0  0  0  0  0  0  0
   -1.7985   -0.6282    0.3935 S   0  0  0  0  0  0  0  0  0  0  0  0
   -1.1319   -3.9984    1.8865 C   0  0  0  0  0  0  0  0  0  0  0  0
   -0.2395   -1.3019   -1.8110 C   0  0  0  0  0  0  0  0  0  0  0  0
   -0.4856   -0.1597   -2.5982 C   0  0  0  0  0  0  0  0  0  0  0  0
   -0.4757   -0.2172   -3.9995 C   0  0  0  0  0  0  0  0  0  0  0  0
   -2.4215   -2.3089    0.5895 C   0  0  0  0  0  0  0  0  0  0  0  0
   -0.2695   -1.4529   -4.6339 C   0  0  0  0  0  0  0  0  0  0  0  0
   -0.3553   -1.4977   -6.0053 O   0  0  0  0  0  0  0  0  0  0  0  0
   -1.8304   -4.9605    2.1757 O   0  0  0  0  0  0  0  0  0  0  0  0
    0.0524   -2.5004   -2.4726 C   0  0  0  0  0  0  0  0  0  0  0  0
    0.0360   -2.5767   -3.8619 C   0  0  0  0  0  0  0  0  0  0  0  0
   -0.2450   -3.5067    2.7816 O   0  0  0  0  0  0  0  0  0  0  0  0
   -0.6539   -2.7914   -6.5426 C   0  0  0  0  0  0  0  0  0  0  0  0
   -0.7049    0.8767   -4.7987 O   0  0  0  0  0  0  0  0  0  0  0  0
   -1.2205   -2.7311   -7.9390 C   0  0  0  0  0  0  0  0  0  0  0  0
   -0.3359    2.1362   -4.2419 C   0  0  0  0  0  0  0  0  0  0  0  0
   -1.3402   -1.5304   -8.6481 C   0  0  0  0  0  0  0  0  0  0  0  0
   -1.6563   -3.9231   -8.5426 C   0  0  0  0  0  0  0  0  0  0  0  0
   -2.2105   -3.9107   -9.8209 C   0  0  0  0  0  0  0  0  0  0  0  0
   -1.8953   -1.5199   -9.9269 C   0  0  0  0  0  0  0  0  0  0  0  0
   -2.3308   -2.7082  -10.5122 C   0  0  0  0  0  0  0  0  0  0  0  0
    0.3959   -2.1883    1.3379 H   0  0  0  0  0  0  0  0  0  0  0  0
   -1.2630   -3.9536   -0.2193 H   0  0  0  0  0  0  0  0  0  0  0  0
    0.5541   -0.4581   -0.0409 H   0  0  0  0  0  0  0  0  0  0  0  0
   -0.7038    0.7753   -2.0900 H   0  0  0  0  0  0  0  0  0  0  0  0
   -3.0630   -2.5328   -0.2690 H   0  0  0  0  0  0  0  0  0  0  0  0
   -3.0198   -2.3800    1.5023 H   0  0  0  0  0  0  0  0  0  0  0  0
    0.3018   -3.4011   -1.9177 H   0  0  0  0  0  0  0  0  0  0  0  0
    0.2754   -3.5342   -4.3124 H   0  0  0  0  0  0  0  0  0  0  0  0
   -0.3163   -4.1136    3.5486 H   0  0  0  0  0  0  0  0  0  0  0  0
    0.2691   -3.3834   -6.5759 H   0  0  0  0  0  0  0  0  0  0  0  0
   -1.4080   -3.2948   -5.9223 H   0  0  0  0  0  0  0  0  0  0  0  0
   -1.0230    2.4349   -3.4434 H   0  0  0  0  0  0  0  0  0  0  0  0
    0.6999    2.1264   -3.8828 H   0  0  0  0  0  0  0  0  0  0  0  0
   -0.4088    2.8918   -5.0298 H   0  0  0  0  0  0  0  0  0  0  0  0
   -1.0116   -0.5928   -8.2042 H   0  0  0  0  0  0  0  0  0  0  0  0
   -1.5736   -4.8675   -8.0111 H   0  0  0  0  0  0  0  0  0  0  0  0
   -2.5536   -4.8370  -10.2752 H   0  0  0  0  0  0  0  0  0  0  0  0
   -1.9897   -0.5811  -10.4651 H   0  0  0  0  0  0  0  0  0  0  0  0
   -2.7655   -2.6943  -11.5081 H   0  0  0  0  0  0  0  0  0  0  0  0
  1 25  1  0  0  0  0
  2  1  1  0  0  0  0
  2 26  1  0  0  0  0
  3  1  1  0  0  0  0
  3 27  1  0  0  0  0
  4  3  1  0  0  0  0
  5  2  1  0  0  0  0
  6  3  1  0  0  0  0
  7  6  2  0  0  0  0
  7 28  1  0  0  0  0
  8  7  1  0  0  0  0
  8 10  2  0  0  0  0
  9  2  1  0  0  0  0
  9  4  1  0  0  0  0
  9 29  1  0  0  0  0
  9 30  1  0  0  0  0
 10 14  1  0  0  0  0
 11 10  1  0  0  0  0
 12  5  2  0  0  0  0
 13  6  1  0  0  0  0
 13 31  1  0  0  0  0
 14 13  2  0  0  0  0
 14 32  1  0  0  0  0
 15  5  1  0  0  0  0
 15 33  1  0  0  0  0
 16 11  1  0  0  0  0
 16 34  1  0  0  0  0
 16 35  1  0  0  0  0
 17  8  1  0  0  0  0
 18 16  1  0  0  0  0
 19 17  1  0  0  0  0
 19 36  1  0  0  0  0
 19 37  1  0  0  0  0
 19 38  1  0  0  0  0
 20 18  2  0  0  0  0
 20 39  1  0  0  0  0
 21 18  1  0  0  0  0
 21 40  1  0  0  0  0
 22 21  2  0  0  0  0
 22 41  1  0  0  0  0
 23 20  1  0  0  0  0
 23 24  2  0  0  0  0
 23 42  1  0  0  0  0
 24 22  1  0  0  0  0
 24 43  1  0  0  0  0
M  END
>  <Mol_ID>
8628

>  <Formula>
C18H19NO4S

>  <MolWeight>
345.41276

>  <Cat>
P2350

>  <Name>
WAY-324758

>  <Synonyms>
N/A

>  <Target>
neuraminidase

>  <Form>
free base

>  <CAS>
1688679-14-2

>  <URL>
N/A

$$$$
