WAY-328162
 OpenBabel08302521443D

 44 46  0  0  0  0  0  0  0  0999 V2000
   -2.3936   -0.9753    0.0968 C   0  0  0  0  0  0  0  0  0  0  0  0
   -1.3683   -0.5352    0.8465 N   0  0  0  0  0  0  0  0  0  0  0  0
   -3.2968    0.0714   -0.1915 C   0  0  0  0  0  0  0  0  0  0  0  0
   -2.8266    1.1483    0.5168 C   0  0  0  0  0  0  0  0  0  0  0  0
   -1.6483    0.7984    1.1093 O   0  0  0  0  0  0  0  0  0  0  0  0
   -2.5560   -2.3737   -0.2838 C   0  0  0  0  0  0  0  0  0  0  0  0
   -3.3472    2.4808    0.7870 C   0  0  0  0  0  0  0  0  0  0  0  0
   -1.2436   -5.3577   -3.7223 N   0  0  0  0  0  0  0  0  0  0  0  0
   -3.5258   -2.7638   -0.9287 O   0  0  0  0  0  0  0  0  0  0  0  0
   -1.5642   -3.2129    0.1745 N   0  0  0  0  0  0  0  0  0  0  0  0
   -3.4350   -6.8173   -5.0394 O   0  0  0  0  0  0  0  0  0  0  0  0
   -4.6284    2.8300    0.3285 C   0  0  0  0  0  0  0  0  0  0  0  0
   -2.6265    3.4211    1.5360 C   0  0  0  0  0  0  0  0  0  0  0  0
   -4.4493    5.0017    1.3612 C   0  0  0  0  0  0  0  0  0  0  0  0
   -3.1752    4.6743    1.8207 C   0  0  0  0  0  0  0  0  0  0  0  0
   -5.1770    4.0811    0.6138 C   0  0  0  0  0  0  0  0  0  0  0  0
   -1.7716   -4.7707   -2.4757 C   0  0  0  0  0  0  0  0  0  0  0  0
   -1.0434   -5.2223   -1.2026 C   0  0  0  0  0  0  0  0  0  0  0  0
   -1.9895   -4.8262   -4.8924 C   0  0  0  0  0  0  0  0  0  0  0  0
   -1.3371   -6.8317   -3.7809 C   0  0  0  0  0  0  0  0  0  0  0  0
   -1.6630   -4.6482    0.0708 C   0  0  0  0  0  0  0  0  0  0  0  0
   -3.4200   -5.3824   -5.0263 C   0  0  0  0  0  0  0  0  0  0  0  0
   -2.7802   -7.3483   -3.8805 C   0  0  0  0  0  0  0  0  0  0  0  0
   -4.2072    0.0016   -0.7674 H   0  0  0  0  0  0  0  0  0  0  0  0
   -0.8158   -2.7889    0.7154 H   0  0  0  0  0  0  0  0  0  0  0  0
   -5.2274    2.1262   -0.2449 H   0  0  0  0  0  0  0  0  0  0  0  0
   -1.6328    3.1889    1.9143 H   0  0  0  0  0  0  0  0  0  0  0  0
   -4.8770    5.9745    1.5881 H   0  0  0  0  0  0  0  0  0  0  0  0
   -2.6103    5.3926    2.4093 H   0  0  0  0  0  0  0  0  0  0  0  0
   -6.1731    4.3294    0.2583 H   0  0  0  0  0  0  0  0  0  0  0  0
   -2.8429   -4.9663   -2.3606 H   0  0  0  0  0  0  0  0  0  0  0  0
   -1.6512   -3.6840   -2.5613 H   0  0  0  0  0  0  0  0  0  0  0  0
    0.0159   -4.9462   -1.2625 H   0  0  0  0  0  0  0  0  0  0  0  0
   -1.0938   -6.3116   -1.1050 H   0  0  0  0  0  0  0  0  0  0  0  0
   -1.4255   -5.1005   -5.7938 H   0  0  0  0  0  0  0  0  0  0  0  0
   -2.0112   -3.7297   -4.8722 H   0  0  0  0  0  0  0  0  0  0  0  0
   -0.7893   -7.1586   -4.6724 H   0  0  0  0  0  0  0  0  0  0  0  0
   -0.8182   -7.2991   -2.9374 H   0  0  0  0  0  0  0  0  0  0  0  0
   -1.1459   -5.0605    0.9438 H   0  0  0  0  0  0  0  0  0  0  0  0
   -2.7167   -4.9422    0.1459 H   0  0  0  0  0  0  0  0  0  0  0  0
   -4.0750   -5.0255   -4.2237 H   0  0  0  0  0  0  0  0  0  0  0  0
   -3.8572   -5.0451   -5.9723 H   0  0  0  0  0  0  0  0  0  0  0  0
   -2.7719   -8.4385   -3.9782 H   0  0  0  0  0  0  0  0  0  0  0  0
   -3.3669   -7.1068   -2.9869 H   0  0  0  0  0  0  0  0  0  0  0  0
  2  1  2  0  0  0  0
  3  1  1  0  0  0  0
  3 24  1  0  0  0  0
  4  3  2  0  0  0  0
  4  5  1  0  0  0  0
  5  2  1  0  0  0  0
  6  1  1  0  0  0  0
  7  4  1  0  0  0  0
  8 17  1  0  0  0  0
  9  6  2  0  0  0  0
 10  6  1  0  0  0  0
 10 25  1  0  0  0  0
 11 23  1  0  0  0  0
 11 22  1  0  0  0  0
 12  7  2  0  0  0  0
 12 26  1  0  0  0  0
 13  7  1  0  0  0  0
 13 27  1  0  0  0  0
 14 15  1  0  0  0  0
 14 16  2  0  0  0  0
 14 28  1  0  0  0  0
 15 13  2  0  0  0  0
 15 29  1  0  0  0  0
 16 12  1  0  0  0  0
 16 30  1  0  0  0  0
 17 18  1  0  0  0  0
 17 31  1  0  0  0  0
 17 32  1  0  0  0  0
 18 21  1  0  0  0  0
 18 33  1  0  0  0  0
 18 34  1  0  0  0  0
 19  8  1  0  0  0  0
 19 35  1  0  0  0  0
 19 36  1  0  0  0  0
 20  8  1  0  0  0  0
 20 37  1  0  0  0  0
 20 38  1  0  0  0  0
 21 10  1  0  0  0  0
 21 39  1  0  0  0  0
 21 40  1  0  0  0  0
 22 19  1  0  0  0  0
 22 41  1  0  0  0  0
 22 42  1  0  0  0  0
 23 20  1  0  0  0  0
 23 43  1  0  0  0  0
 23 44  1  0  0  0  0
M  END
>  <Mol_ID>
9005

>  <Formula>
C17H20ClN3O3

>  <MolWeight>
349.812

>  <Cat>
P2569

>  <Name>
WAY-328162

>  <Synonyms>
N/A

>  <Target>
CFTR

>  <Form>
free base

>  <CAS>
909090-72-8

>  <URL>
N/A

$$$$
