WAY-637300
 OpenBabel08302521423D

 31 33  0  0  0  0  0  0  0  0999 V2000
   -0.6432   -1.0618    0.0085 N   0  0  0  0  0  0  0  0  0  0  0  0
    0.7186   -1.0633    0.0391 C   0  0  0  0  0  0  0  0  0  0  0  0
    1.2203    0.4036    0.0860 C   0  0  3  0  0  0  0  0  0  0  0  0
   -1.1169    0.2004   -0.0605 C   0  0  0  0  0  0  0  0  0  0  0  0
   -0.0517    1.0632   -0.1406 N   0  0  0  0  0  0  0  0  0  0  0  0
    1.8267    0.7515    1.4467 C   0  0  0  0  0  0  0  0  0  0  0  0
    1.3017    1.7807    2.2515 C   0  0  0  0  0  0  0  0  0  0  0  0
    1.9065    2.0740    3.4638 C   0  0  0  0  0  0  0  0  0  0  0  0
    1.4059   -2.0759    0.0463 O   0  0  0  0  0  0  0  0  0  0  0  0
   -2.2863    0.5373   -0.0563 O   0  0  0  0  0  0  0  0  0  0  0  0
    3.0172    1.3580    3.9104 C   0  0  0  0  0  0  0  0  0  0  0  0
    2.9561    0.0380    1.9208 C   0  0  0  0  0  0  0  0  0  0  0  0
    3.5486    0.3315    3.1543 C   0  0  0  0  0  0  0  0  0  0  0  0
    2.1817    0.6880   -1.0634 C   0  0  0  0  0  0  0  0  0  0  0  0
    1.4859    3.0971    4.4724 C   0  0  0  0  0  0  0  0  0  0  0  0
    2.7520    3.2002    5.3332 C   0  0  0  0  0  0  0  0  0  0  0  0
    3.4428    1.8303    5.2655 C   0  0  0  0  0  0  0  0  0  0  0  0
   -1.2215   -1.8824    0.0220 H   0  0  0  0  0  0  0  0  0  0  0  0
   -0.2002    2.0640   -0.1349 H   0  0  0  0  0  0  0  0  0  0  0  0
    0.4284    2.3553    1.9594 H   0  0  0  0  0  0  0  0  0  0  0  0
    3.3800   -0.7733    1.3294 H   0  0  0  0  0  0  0  0  0  0  0  0
    4.4033   -0.2379    3.5038 H   0  0  0  0  0  0  0  0  0  0  0  0
    1.7357    0.4332   -2.0331 H   0  0  0  0  0  0  0  0  0  0  0  0
    2.4562    1.7492   -1.0960 H   0  0  0  0  0  0  0  0  0  0  0  0
    3.1082    0.1075   -0.9759 H   0  0  0  0  0  0  0  0  0  0  0  0
    0.6369    2.7250    5.0549 H   0  0  0  0  0  0  0  0  0  0  0  0
    1.2349    4.0575    4.0131 H   0  0  0  0  0  0  0  0  0  0  0  0
    3.4178    3.9602    4.9010 H   0  0  0  0  0  0  0  0  0  0  0  0
    2.5340    3.5100    6.3601 H   0  0  0  0  0  0  0  0  0  0  0  0
    4.5284    1.9258    5.3544 H   0  0  0  0  0  0  0  0  0  0  0  0
    3.0588    1.1554    6.0375 H   0  0  0  0  0  0  0  0  0  0  0  0
  1 18  1  0  0  0  0
  2  1  1  0  0  0  0
  3  2  1  0  0  0  0
  4  1  1  0  0  0  0
  5  4  1  0  0  0  0
  5  3  1  0  0  0  0
  5 19  1  0  0  0  0
  6  3  1  0  0  0  0
  7  6  2  0  0  0  0
  7 20  1  0  0  0  0
  8  7  1  0  0  0  0
  9  2  2  0  0  0  0
 10  4  2  0  0  0  0
 11 13  1  0  0  0  0
 11  8  2  0  0  0  0
 12  6  1  0  0  0  0
 12 21  1  0  0  0  0
 13 12  2  0  0  0  0
 13 22  1  0  0  0  0
 14  3  1  0  0  0  0
 14 23  1  0  0  0  0
 14 24  1  0  0  0  0
 14 25  1  0  0  0  0
 15  8  1  0  0  0  0
 15 26  1  0  0  0  0
 15 27  1  0  0  0  0
 16 15  1  0  0  0  0
 16 17  1  0  0  0  0
 16 28  1  0  0  0  0
 16 29  1  0  0  0  0
 17 11  1  0  0  0  0
 17 30  1  0  0  0  0
 17 31  1  0  0  0  0
M  END
>  <Mol_ID>
8490

>  <Formula>
C13H14N2O2

>  <MolWeight>
230.26246

>  <Cat>
P3010

>  <Name>
WAY-637300

>  <Synonyms>
N/A

>  <Target>
LXR

>  <Form>
free base

>  <CAS>
956411-90-8

>  <URL>
N/A

$$$$
