WAY-330421
 OpenBabel08302521453D

 50 52  0  0  0  0  0  0  0  0999 V2000
    2.6644    0.9752   -0.6792 S   0  0  0  0  0  0  0  0  0  0  0  0
   -0.0460   -1.9717   -7.8868 C   0  0  0  0  0  0  0  0  0  0  0  0
    2.2770    0.3451   -2.1893 N   0  0  0  0  0  0  0  0  0  0  0  0
    1.8754   -0.1820    0.4156 C   0  0  0  0  0  0  0  0  0  0  0  0
   -0.6495   -1.2045   -8.8610 N   0  0  0  0  0  0  0  0  0  0  0  0
    2.0043    2.2537   -0.5423 O   0  0  0  0  0  0  0  0  0  0  0  0
    4.0910    0.8167   -0.5054 O   0  0  0  0  0  0  0  0  0  0  0  0
    0.2055   -1.3147   -6.5538 C   0  0  0  0  0  0  0  0  0  0  0  0
    0.2718   -3.1446   -8.0592 O   0  0  0  0  0  0  0  0  0  0  0  0
    2.3558   -1.4962    0.4650 C   0  0  0  0  0  0  0  0  0  0  0  0
    0.7846    0.2136    1.1945 C   0  0  0  0  0  0  0  0  0  0  0  0
    0.6884   -2.1107   -5.5032 C   0  0  0  0  0  0  0  0  0  0  0  0
   -0.0130    0.0481   -6.3052 C   0  0  0  0  0  0  0  0  0  0  0  0
    0.8740    0.3799   -2.5995 C   0  0  0  0  0  0  0  0  0  0  0  0
    0.5983   -2.0492    2.0229 C   0  0  0  0  0  0  0  0  0  0  0  0
    0.6696   -0.2098   -3.9783 C   0  0  0  0  0  0  0  0  0  0  0  0
   -0.9867   -1.6437  -10.2096 C   0  0  0  0  0  0  0  0  0  0  0  0
    0.1424   -0.7294    1.9998 C   0  0  0  0  0  0  0  0  0  0  0  0
    1.7071   -2.4345    1.2677 C   0  0  0  0  0  0  0  0  0  0  0  0
    0.9111   -1.5673   -4.2291 C   0  0  0  0  0  0  0  0  0  0  0  0
    0.2163    0.5923   -5.0328 C   0  0  0  0  0  0  0  0  0  0  0  0
   -0.3013   -3.3320    3.0804 Br  0  0  0  0  0  0  0  0  0  0  0  0
   -2.0790   -2.7185  -10.2622 C   0  0  0  0  0  0  0  0  0  0  0  0
    0.2270   -2.0676  -11.0422 C   0  0  0  0  0  0  0  0  0  0  0  0
   -2.5022   -2.9805  -11.7112 C   0  0  0  0  0  0  0  0  0  0  0  0
   -0.1891   -2.2878  -12.4970 C   0  0  0  0  0  0  0  0  0  0  0  0
   -1.3132   -3.3164  -12.6119 C   0  0  0  0  0  0  0  0  0  0  0  0
    2.8071   -0.4926   -2.4182 H   0  0  0  0  0  0  0  0  0  0  0  0
   -0.9330   -0.2649   -8.6406 H   0  0  0  0  0  0  0  0  0  0  0  0
    3.2273   -1.7919   -0.1152 H   0  0  0  0  0  0  0  0  0  0  0  0
    0.4269    1.2411    1.1772 H   0  0  0  0  0  0  0  0  0  0  0  0
    0.8862   -3.1690   -5.6700 H   0  0  0  0  0  0  0  0  0  0  0  0
   -0.3578    0.7289   -7.0750 H   0  0  0  0  0  0  0  0  0  0  0  0
    0.2491   -0.1848   -1.9004 H   0  0  0  0  0  0  0  0  0  0  0  0
    0.5254    1.4191   -2.5907 H   0  0  0  0  0  0  0  0  0  0  0  0
   -1.4012   -0.7390  -10.6759 H   0  0  0  0  0  0  0  0  0  0  0  0
   -0.7128   -0.4290    2.6008 H   0  0  0  0  0  0  0  0  0  0  0  0
    2.0698   -3.4592    1.2977 H   0  0  0  0  0  0  0  0  0  0  0  0
    1.2663   -2.2211   -3.4348 H   0  0  0  0  0  0  0  0  0  0  0  0
    0.0303    1.6536   -4.8738 H   0  0  0  0  0  0  0  0  0  0  0  0
   -1.7231   -3.6533   -9.8125 H   0  0  0  0  0  0  0  0  0  0  0  0
   -2.9526   -2.4014   -9.6806 H   0  0  0  0  0  0  0  0  0  0  0  0
    1.0093   -1.3017  -10.9945 H   0  0  0  0  0  0  0  0  0  0  0  0
    0.6638   -2.9929  -10.6472 H   0  0  0  0  0  0  0  0  0  0  0  0
   -3.2312   -3.7982  -11.7443 H   0  0  0  0  0  0  0  0  0  0  0  0
   -3.0090   -2.0899  -12.1044 H   0  0  0  0  0  0  0  0  0  0  0  0
    0.6744   -2.6164  -13.0857 H   0  0  0  0  0  0  0  0  0  0  0  0
   -0.5231   -1.3352  -12.9278 H   0  0  0  0  0  0  0  0  0  0  0  0
   -0.9255   -4.3068  -12.3452 H   0  0  0  0  0  0  0  0  0  0  0  0
   -1.6487   -3.3771  -13.6540 H   0  0  0  0  0  0  0  0  0  0  0  0
  2  8  1  0  0  0  0
  3  1  1  0  0  0  0
  3 28  1  0  0  0  0
  4  1  1  0  0  0  0
  5  2  1  0  0  0  0
  5 29  1  0  0  0  0
  6  1  2  0  0  0  0
  7  1  2  0  0  0  0
  8 13  1  0  0  0  0
  8 12  2  0  0  0  0
  9  2  2  0  0  0  0
 10  4  2  0  0  0  0
 10 30  1  0  0  0  0
 11  4  1  0  0  0  0
 11 31  1  0  0  0  0
 12 20  1  0  0  0  0
 12 32  1  0  0  0  0
 13 21  2  0  0  0  0
 13 33  1  0  0  0  0
 14  3  1  0  0  0  0
 14 34  1  0  0  0  0
 14 35  1  0  0  0  0
 15 18  1  0  0  0  0
 15 19  2  0  0  0  0
 16 14  1  0  0  0  0
 17  5  1  0  0  0  0
 17 36  1  0  0  0  0
 18 11  2  0  0  0  0
 18 37  1  0  0  0  0
 19 10  1  0  0  0  0
 19 38  1  0  0  0  0
 20 16  2  0  0  0  0
 20 39  1  0  0  0  0
 21 16  1  0  0  0  0
 21 40  1  0  0  0  0
 22 15  1  0  0  0  0
 23 17  1  0  0  0  0
 23 41  1  0  0  0  0
 23 42  1  0  0  0  0
 24 17  1  0  0  0  0
 24 43  1  0  0  0  0
 24 44  1  0  0  0  0
 25 23  1  0  0  0  0
 25 45  1  0  0  0  0
 25 46  1  0  0  0  0
 26 24  1  0  0  0  0
 26 47  1  0  0  0  0
 26 48  1  0  0  0  0
 27 26  1  0  0  0  0
 27 25  1  0  0  0  0
 27 49  1  0  0  0  0
 27 50  1  0  0  0  0
M  END
>  <Mol_ID>
9331

>  <Formula>
C20H23BrN2O3S

>  <MolWeight>
451.37722

>  <Cat>
P2613

>  <Name>
WAY-330421

>  <Synonyms>
N/A

>  <Target>
DNA ligase

>  <Form>
free base

>  <CAS>
901038-01-2

>  <URL>
N/A

$$$$
