WAY-620183
 OpenBabel08302521433D

 34 37  0  0  0  0  0  0  0  0999 V2000
   -1.3746   -0.5285    0.4196 C   0  0  0  0  0  0  0  0  0  0  0  0
   -2.3726   -1.3477   -0.0719 N   0  0  0  0  0  0  0  0  0  0  0  0
   -1.6757    0.7504    0.0187 C   0  0  0  0  0  0  0  0  0  0  0  0
   -3.2211   -0.6558   -0.8872 N   0  0  0  0  0  0  0  0  0  0  0  0
   -0.2899   -0.9880    1.0395 O   0  0  0  0  0  0  0  0  0  0  0  0
   -2.8339    0.6226   -0.7740 C   0  0  0  0  0  0  0  0  0  0  0  0
    0.3913    1.9047    0.5162 N   0  0  0  0  0  0  0  0  0  0  0  0
   -0.8966    1.9012    0.3701 C   0  0  0  0  0  0  0  0  0  0  0  0
    1.2023    0.7859    0.2338 C   0  0  0  0  0  0  0  0  0  0  0  0
    0.9166   -0.5612    0.5285 C   0  0  0  0  0  0  0  0  0  0  0  0
    2.4219    1.0633   -0.3999 C   0  0  0  0  0  0  0  0  0  0  0  0
   -2.5215   -2.7435    0.1376 C   0  0  0  0  0  0  0  0  0  0  0  0
    1.8270   -1.5809    0.2258 C   0  0  0  0  0  0  0  0  0  0  0  0
    3.3167    0.0445   -0.7396 C   0  0  0  0  0  0  0  0  0  0  0  0
    3.0242   -1.2778   -0.4187 C   0  0  0  0  0  0  0  0  0  0  0  0
   -3.5536    1.6897   -1.5105 C   0  0  0  0  0  0  0  0  0  0  0  0
   -2.0687   -3.3311    1.3272 C   0  0  0  0  0  0  0  0  0  0  0  0
   -3.1038   -3.5381   -0.8565 C   0  0  0  0  0  0  0  0  0  0  0  0
   -3.1750   -4.9224   -0.6808 C   0  0  0  0  0  0  0  0  0  0  0  0
   -2.1706   -4.7106    1.5075 C   0  0  0  0  0  0  0  0  0  0  0  0
   -2.7069   -5.5066    0.4972 C   0  0  0  0  0  0  0  0  0  0  0  0
   -1.4399    2.8474    0.5212 H   0  0  0  0  0  0  0  0  0  0  0  0
    2.6641    2.0928   -0.6487 H   0  0  0  0  0  0  0  0  0  0  0  0
    1.5804   -2.6147    0.4532 H   0  0  0  0  0  0  0  0  0  0  0  0
    4.2403    0.2892   -1.2571 H   0  0  0  0  0  0  0  0  0  0  0  0
    3.7154   -2.0712   -0.6867 H   0  0  0  0  0  0  0  0  0  0  0  0
   -3.5701    1.4728   -2.5843 H   0  0  0  0  0  0  0  0  0  0  0  0
   -4.5832    1.7801   -1.1539 H   0  0  0  0  0  0  0  0  0  0  0  0
   -3.0661    2.6628   -1.3800 H   0  0  0  0  0  0  0  0  0  0  0  0
   -1.6708   -2.7314    2.1423 H   0  0  0  0  0  0  0  0  0  0  0  0
   -3.4544   -3.0999   -1.7887 H   0  0  0  0  0  0  0  0  0  0  0  0
   -3.5878   -5.5483   -1.4683 H   0  0  0  0  0  0  0  0  0  0  0  0
   -1.8305   -5.1618    2.4363 H   0  0  0  0  0  0  0  0  0  0  0  0
   -2.7644   -6.5840    0.6308 H   0  0  0  0  0  0  0  0  0  0  0  0
  2  1  1  0  0  0  0
  3  1  2  0  0  0  0
  4  2  1  0  0  0  0
  5  1  1  0  0  0  0
  6  3  1  0  0  0  0
  6  4  2  0  0  0  0
  7  8  2  0  0  0  0
  8  3  1  0  0  0  0
  8 22  1  0  0  0  0
  9 10  2  0  0  0  0
  9  7  1  0  0  0  0
 10  5  1  0  0  0  0
 11  9  1  0  0  0  0
 11 14  2  0  0  0  0
 11 23  1  0  0  0  0
 12  2  1  0  0  0  0
 13 10  1  0  0  0  0
 13 24  1  0  0  0  0
 14 15  1  0  0  0  0
 14 25  1  0  0  0  0
 15 13  2  0  0  0  0
 15 26  1  0  0  0  0
 16  6  1  0  0  0  0
 16 27  1  0  0  0  0
 16 28  1  0  0  0  0
 16 29  1  0  0  0  0
 17 12  2  0  0  0  0
 17 30  1  0  0  0  0
 18 12  1  0  0  0  0
 18 31  1  0  0  0  0
 19 18  2  0  0  0  0
 19 32  1  0  0  0  0
 20 17  1  0  0  0  0
 20 21  2  0  0  0  0
 20 33  1  0  0  0  0
 21 19  1  0  0  0  0
 21 34  1  0  0  0  0
M  END
>  <Mol_ID>
8765

>  <Formula>
C17H12ClN3O

>  <MolWeight>
309.74968

>  <Cat>
P2935

>  <Name>
WAY-620183

>  <Synonyms>
N/A

>  <Target>
Others

>  <Form>
free base

>  <CAS>
68177-34-4

>  <URL>
N/A

$$$$
