WAY-326679
 OpenBabel08302521433D

 57 60  0  0  0  0  0  0  0  0999 V2000
    1.2281    0.1242    0.1101 S   0  0  0  0  0  0  0  0  0  0  0  0
    0.5586   -0.2259   -1.4221 N   0  0  0  0  0  0  0  0  0  0  0  0
   -1.1970    7.9269    0.6520 C   0  0  0  0  0  0  0  0  0  0  0  0
   -1.2185    8.5258    1.8826 O   0  0  0  0  0  0  0  0  0  0  0  0
   -1.6348    9.7968    1.5654 C   0  0  0  0  0  0  0  0  0  0  0  0
   -1.8719    9.9393    0.2745 N   0  0  0  0  0  0  0  0  0  0  0  0
   -0.7795    6.6365    0.4749 N   0  0  0  0  0  0  0  0  0  0  0  0
   -1.5699    8.7344   -0.3168 N   0  0  0  0  0  0  0  0  0  0  0  0
   -0.5761    5.7571    1.5063 C   0  0  0  0  0  0  0  0  0  0  0  0
   -0.9223   -0.4429   -1.4859 C   0  0  0  0  0  0  0  0  0  0  0  0
    1.2515   -1.3302   -2.1676 C   0  0  0  0  0  0  0  0  0  0  0  0
    0.6324    1.7654    0.4605 C   0  0  0  0  0  0  0  0  0  0  0  0
    2.6632    0.2298   -0.0444 O   0  0  0  0  0  0  0  0  0  0  0  0
    0.6469   -0.7767    1.0777 O   0  0  0  0  0  0  0  0  0  0  0  0
   -0.5854   -2.8731   -1.7842 O   0  0  0  0  0  0  0  0  0  0  0  0
   -1.6554   10.8151    2.6133 C   0  0  0  0  0  0  0  0  0  0  0  0
   -0.1532    4.3791    1.0982 C   0  0  0  0  0  0  0  0  0  0  0  0
    0.8345   -2.7020   -1.6132 C   0  0  3  0  0  0  0  0  0  0  0  0
   -1.3196   -1.8724   -1.0517 C   0  0  3  0  0  0  0  0  0  0  0  0
   -0.7586    5.9859    2.6996 O   0  0  0  0  0  0  0  0  0  0  0  0
   -0.1786    1.9914    1.5756 C   0  0  0  0  0  0  0  0  0  0  0  0
    1.0662    2.8342   -0.3305 C   0  0  0  0  0  0  0  0  0  0  0  0
   -0.5681    3.2975    1.8910 C   0  0  0  0  0  0  0  0  0  0  0  0
    0.6723    4.1419   -0.0125 C   0  0  0  0  0  0  0  0  0  0  0  0
   -1.3025   10.5530    3.9446 C   0  0  0  0  0  0  0  0  0  0  0  0
   -1.9703   12.1379    2.2629 C   0  0  0  0  0  0  0  0  0  0  0  0
   -1.4969   12.9082    4.5110 C   0  0  0  0  0  0  0  0  0  0  0  0
   -1.8785   13.1725    3.1973 C   0  0  0  0  0  0  0  0  0  0  0  0
   -1.2212   11.5936    4.8883 C   0  0  0  0  0  0  0  0  0  0  0  0
   -1.3720   14.0164    5.3006 O   0  0  0  0  0  0  0  0  0  0  0  0
    1.5445   -3.8305   -2.3482 C   0  0  0  0  0  0  0  0  0  0  0  0
   -2.8027   -2.1115   -1.3057 C   0  0  0  0  0  0  0  0  0  0  0  0
   -1.5121   13.8189    6.7009 C   0  0  0  0  0  0  0  0  0  0  0  0
   -0.7542    6.3383   -0.4877 H   0  0  0  0  0  0  0  0  0  0  0  0
   -1.4485    0.3130   -0.8948 H   0  0  0  0  0  0  0  0  0  0  0  0
   -1.2163   -0.2805   -2.5321 H   0  0  0  0  0  0  0  0  0  0  0  0
    0.9480   -1.2465   -3.2207 H   0  0  0  0  0  0  0  0  0  0  0  0
    2.3367   -1.1906   -2.1449 H   0  0  0  0  0  0  0  0  0  0  0  0
    1.0736   -2.7887   -0.5475 H   0  0  0  0  0  0  0  0  0  0  0  0
   -1.1333   -2.0265    0.0150 H   0  0  0  0  0  0  0  0  0  0  0  0
   -0.4857    1.1708    2.2212 H   0  0  0  0  0  0  0  0  0  0  0  0
    1.7359    2.6547   -1.1702 H   0  0  0  0  0  0  0  0  0  0  0  0
   -1.1851    3.4729    2.7720 H   0  0  0  0  0  0  0  0  0  0  0  0
    1.0604    4.9606   -0.6128 H   0  0  0  0  0  0  0  0  0  0  0  0
   -1.0539    9.5398    4.2585 H   0  0  0  0  0  0  0  0  0  0  0  0
   -2.2606   12.3820    1.2419 H   0  0  0  0  0  0  0  0  0  0  0  0
   -2.0930   14.1943    2.8934 H   0  0  0  0  0  0  0  0  0  0  0  0
   -0.8990   11.3496    5.8956 H   0  0  0  0  0  0  0  0  0  0  0  0
    1.2745   -3.8471   -3.4092 H   0  0  0  0  0  0  0  0  0  0  0  0
    2.6317   -3.7359   -2.2616 H   0  0  0  0  0  0  0  0  0  0  0  0
    1.2490   -4.7996   -1.9313 H   0  0  0  0  0  0  0  0  0  0  0  0
   -3.0264   -2.1008   -2.3779 H   0  0  0  0  0  0  0  0  0  0  0  0
   -3.0968   -3.0985   -0.9327 H   0  0  0  0  0  0  0  0  0  0  0  0
   -3.4179   -1.3556   -0.8079 H   0  0  0  0  0  0  0  0  0  0  0  0
   -2.4873   13.3801    6.9341 H   0  0  0  0  0  0  0  0  0  0  0  0
   -0.6963   13.2165    7.1107 H   0  0  0  0  0  0  0  0  0  0  0  0
   -1.4640   14.8032    7.1783 H   0  0  0  0  0  0  0  0  0  0  0  0
  2  1  1  0  0  0  0
  3  7  1  0  0  0  0
  4  3  1  0  0  0  0
  5  4  1  0  0  0  0
  5  6  2  0  0  0  0
  6  8  1  0  0  0  0
  7  9  1  0  0  0  0
  7 34  1  0  0  0  0
  8  3  2  0  0  0  0
  9 17  1  0  0  0  0
 10  2  1  0  0  0  0
 10 35  1  0  0  0  0
 10 36  1  0  0  0  0
 11  2  1  0  0  0  0
 11 37  1  0  0  0  0
 11 38  1  0  0  0  0
 12  1  1  0  0  0  0
 13  1  2  0  0  0  0
 14  1  2  0  0  0  0
 15 18  1  0  0  0  0
 16  5  1  0  0  0  0
 17 24  1  0  0  0  0
 18 11  1  0  0  0  0
 18 39  1  0  0  0  0
 19 10  1  0  0  0  0
 19 15  1  0  0  0  0
 19 40  1  0  0  0  0
 20  9  2  0  0  0  0
 21 12  2  0  0  0  0
 21 41  1  0  0  0  0
 22 12  1  0  0  0  0
 22 42  1  0  0  0  0
 23 21  1  0  0  0  0
 23 17  2  0  0  0  0
 23 43  1  0  0  0  0
 24 22  2  0  0  0  0
 24 44  1  0  0  0  0
 25 16  2  0  0  0  0
 25 45  1  0  0  0  0
 26 16  1  0  0  0  0
 26 46  1  0  0  0  0
 27 28  1  0  0  0  0
 28 26  2  0  0  0  0
 28 47  1  0  0  0  0
 29 25  1  0  0  0  0
 29 27  2  0  0  0  0
 29 48  1  0  0  0  0
 30 27  1  0  0  0  0
 31 18  1  0  0  0  0
 31 49  1  0  0  0  0
 31 50  1  0  0  0  0
 31 51  1  0  0  0  0
 32 19  1  0  0  0  0
 32 52  1  0  0  0  0
 32 53  1  0  0  0  0
 32 54  1  0  0  0  0
 33 30  1  0  0  0  0
 33 55  1  0  0  0  0
 33 56  1  0  0  0  0
 33 57  1  0  0  0  0
M  END
>  <Mol_ID>
8930

>  <Formula>
C22H24N4O6S

>  <MolWeight>
472.51416

>  <Cat>
P2489

>  <Name>
WAY-326679

>  <Synonyms>
N/A

>  <Target>
cholesterol absorption

>  <Form>
free base

>  <CAS>
442881-23-4

>  <URL>
N/A

$$$$
