WAY-344282
 OpenBabel08302521403D

 47 50  0  0  0  0  0  0  0  0999 V2000
   -0.5040   -1.8145   -0.0060 C   0  0  0  0  0  0  0  0  0  0  0  0
    0.5943   -0.8392    0.0419 C   0  0  0  0  0  0  0  0  0  0  0  0
   -0.3111   -3.2776   -0.0596 C   0  0  0  0  0  0  0  0  0  0  0  0
   -1.7615   -1.3476   -0.0046 C   0  0  0  0  0  0  0  0  0  0  0  0
    0.3119    0.5229    0.1022 C   0  0  0  0  0  0  0  0  0  0  0  0
    1.9333   -1.2348    0.0182 C   0  0  0  0  0  0  0  0  0  0  0  0
   -0.2044   -3.9308   -1.2941 C   0  0  0  0  0  0  0  0  0  0  0  0
   -0.1220   -4.0022    1.1239 C   0  0  0  0  0  0  0  0  0  0  0  0
   -2.0914    0.0867    0.0461 C   0  0  0  0  0  0  0  0  0  0  0  0
    1.3271    1.4885    0.1492 C   0  0  0  0  0  0  0  0  0  0  0  0
   -1.0224    0.9773    0.1141 O   0  0  0  0  0  0  0  0  0  0  0  0
    2.9535   -0.2856    0.0361 C   0  0  0  0  0  0  0  0  0  0  0  0
    0.1134   -5.2892   -1.3427 C   0  0  0  0  0  0  0  0  0  0  0  0
    0.2066   -5.3575    1.0708 C   0  0  0  0  0  0  0  0  0  0  0  0
   -3.2532    0.4664    0.0336 O   0  0  0  0  0  0  0  0  0  0  0  0
    2.6623    1.0757    0.1261 C   0  0  0  0  0  0  0  0  0  0  0  0
    0.3313   -5.9980   -0.1614 C   0  0  0  0  0  0  0  0  0  0  0  0
    3.6284    2.0495    0.1963 O   0  0  0  0  0  0  0  0  0  0  0  0
    4.9024    1.5798    0.6371 C   0  0  0  0  0  0  0  0  0  0  0  0
    5.7809    2.6870    1.1892 C   0  0  0  0  0  0  0  0  0  0  0  0
    6.2798    3.7382    0.2599 C   0  0  0  0  0  0  0  0  0  0  0  0
    6.1470    2.6849    2.3628 O   0  0  0  0  0  0  0  0  0  0  0  0
    5.9244    3.7603   -1.0957 C   0  0  0  0  0  0  0  0  0  0  0  0
    7.1567    4.7112    0.7506 C   0  0  0  0  0  0  0  0  0  0  0  0
    6.4381    4.7390   -1.9453 C   0  0  0  0  0  0  0  0  0  0  0  0
    7.6659    5.6918   -0.1063 C   0  0  0  0  0  0  0  0  0  0  0  0
    7.3102    5.7110   -1.4565 C   0  0  0  0  0  0  0  0  0  0  0  0
    7.8780    6.7145   -2.1908 O   0  0  0  0  0  0  0  0  0  0  0  0
    7.5364    6.7679   -3.5710 C   0  0  0  0  0  0  0  0  0  0  0  0
   -2.6226   -2.0062   -0.0384 H   0  0  0  0  0  0  0  0  0  0  0  0
    2.2155   -2.2842   -0.0161 H   0  0  0  0  0  0  0  0  0  0  0  0
   -0.3385   -3.3811   -2.2230 H   0  0  0  0  0  0  0  0  0  0  0  0
   -0.1994   -3.5096    2.0905 H   0  0  0  0  0  0  0  0  0  0  0  0
    1.0688    2.5413    0.2209 H   0  0  0  0  0  0  0  0  0  0  0  0
    3.9742   -0.6517   -0.0113 H   0  0  0  0  0  0  0  0  0  0  0  0
    0.2097   -5.7907   -2.3024 H   0  0  0  0  0  0  0  0  0  0  0  0
    0.3821   -5.9096    1.9909 H   0  0  0  0  0  0  0  0  0  0  0  0
    0.6052   -7.0494   -0.2015 H   0  0  0  0  0  0  0  0  0  0  0  0
    4.7894    0.8551    1.4517 H   0  0  0  0  0  0  0  0  0  0  0  0
    5.4481    1.0937   -0.1846 H   0  0  0  0  0  0  0  0  0  0  0  0
    5.2511    3.0219   -1.5204 H   0  0  0  0  0  0  0  0  0  0  0  0
    7.4529    4.7127    1.7969 H   0  0  0  0  0  0  0  0  0  0  0  0
    6.1350    4.7119   -2.9870 H   0  0  0  0  0  0  0  0  0  0  0  0
    8.3491    6.4438    0.2829 H   0  0  0  0  0  0  0  0  0  0  0  0
    7.8386    5.8517   -4.0897 H   0  0  0  0  0  0  0  0  0  0  0  0
    6.4667    6.9620   -3.7041 H   0  0  0  0  0  0  0  0  0  0  0  0
    8.0862    7.5999   -4.0204 H   0  0  0  0  0  0  0  0  0  0  0  0
  1  2  1  0  0  0  0
  1  3  1  0  0  0  0
  1  4  2  0  0  0  0
  2  5  2  0  0  0  0
  2  6  1  0  0  0  0
  3  7  2  0  0  0  0
  3  8  1  0  0  0  0
  4  9  1  0  0  0  0
  4 30  1  0  0  0  0
  5 10  1  0  0  0  0
  5 11  1  0  0  0  0
  6 12  2  0  0  0  0
  6 31  1  0  0  0  0
  7 13  1  0  0  0  0
  7 32  1  0  0  0  0
  8 14  2  0  0  0  0
  8 33  1  0  0  0  0
  9 15  2  0  0  0  0
  9 11  1  0  0  0  0
 10 16  2  0  0  0  0
 10 34  1  0  0  0  0
 12 16  1  0  0  0  0
 12 35  1  0  0  0  0
 13 17  2  0  0  0  0
 13 36  1  0  0  0  0
 14 17  1  0  0  0  0
 14 37  1  0  0  0  0
 16 18  1  0  0  0  0
 17 38  1  0  0  0  0
 18 19  1  0  0  0  0
 19 20  1  0  0  0  0
 19 39  1  0  0  0  0
 19 40  1  0  0  0  0
 20 21  1  0  0  0  0
 20 22  2  0  0  0  0
 21 23  2  0  0  0  0
 21 24  1  0  0  0  0
 23 25  1  0  0  0  0
 23 41  1  0  0  0  0
 24 26  2  0  0  0  0
 24 42  1  0  0  0  0
 25 27  2  0  0  0  0
 25 43  1  0  0  0  0
 26 27  1  0  0  0  0
 26 44  1  0  0  0  0
 27 28  1  0  0  0  0
 28 29  1  0  0  0  0
 29 45  1  0  0  0  0
 29 46  1  0  0  0  0
 29 47  1  0  0  0  0
M  END
>  <Mol_ID>
8296

>  <Formula>
C24H18O5

>  <MolWeight>
386.39672

>  <Cat>
P2737

>  <Name>
WAY-344282

>  <Synonyms>
N/A

>  <Target>
Anti-infection

>  <Form>
free base

>  <CAS>
242133-74-0

>  <URL>
N/A

$$$$
