WAY-622134
 OpenBabel08302521443D

 60 63  0  0  0  0  0  0  0  0999 V2000
    0.2241   -0.3983   -0.1334 S   0  0  0  0  0  0  0  0  0  0  0  0
   -2.6888    0.4179    7.6969 N   0  0  0  0  0  0  0  0  0  0  0  0
   -0.2392   -1.1842    1.2938 N   0  0  0  0  0  0  0  0  0  0  0  0
   -1.9994   -0.7912    7.5271 C   0  0  0  0  0  0  0  0  0  0  0  0
   -1.1991   -2.2423    1.1711 C   0  0  0  0  0  0  0  0  0  0  0  0
   -3.4274    0.5974    8.9539 C   0  0  0  0  0  0  0  0  0  0  0  0
   -0.8336   -3.5563    0.8587 C   0  0  0  0  0  0  0  0  0  0  0  0
    0.9238    0.8164    0.2353 O   0  0  0  0  0  0  0  0  0  0  0  0
   -0.8944   -0.3515   -1.0516 O   0  0  0  0  0  0  0  0  0  0  0  0
   -4.5256    1.6409    8.9013 C   0  0  0  0  0  0  0  0  0  0  0  0
   -1.1722   -0.9805    6.3066 C   0  0  0  0  0  0  0  0  0  0  0  0
   -1.7883   -4.5892    0.8719 C   0  0  0  0  0  0  0  0  0  0  0  0
   -2.9993    1.3524    6.5979 C   0  0  0  0  0  0  0  0  0  0  0  0
    0.7324   -1.2099    2.4212 C   0  0  0  0  0  0  0  0  0  0  0  0
   -2.0460   -1.7147    8.3361 O   0  0  0  0  0  0  0  0  0  0  0  0
   -4.4163    2.7338    8.0219 C   0  0  0  0  0  0  0  0  0  0  0  0
   -3.0967   -4.3058    1.3042 C   0  0  0  0  0  0  0  0  0  0  0  0
   -2.5311   -1.9420    1.4356 C   0  0  0  0  0  0  0  0  0  0  0  0
   -3.2340    2.7737    7.1000 C   0  0  0  0  0  0  0  0  0  0  0  0
   -3.4665   -2.9688    1.5338 C   0  0  0  0  0  0  0  0  0  0  0  0
   -0.2823    0.0199    5.8948 C   0  0  0  0  0  0  0  0  0  0  0  0
   -1.2859   -2.1497    5.5576 C   0  0  0  0  0  0  0  0  0  0  0  0
    1.4421   -1.5078   -0.8164 C   0  0  0  0  0  0  0  0  0  0  0  0
    0.1253   -1.1782    3.8191 C   0  0  0  0  0  0  0  0  0  0  0  0
   -0.6233   -2.2527    4.3275 C   0  0  0  0  0  0  0  0  0  0  0  0
    0.3277   -0.0619    4.6442 C   0  0  0  0  0  0  0  0  0  0  0  0
   -5.6453    1.5522    9.7347 C   0  0  0  0  0  0  0  0  0  0  0  0
   -1.3935   -5.9704    0.4236 C   0  0  0  0  0  0  0  0  0  0  0  0
   -5.4064    3.7180    7.9805 C   0  0  0  0  0  0  0  0  0  0  0  0
   -4.0960   -5.3762    1.6494 C   0  0  0  0  0  0  0  0  0  0  0  0
   -6.6479    2.5232    9.6726 C   0  0  0  0  0  0  0  0  0  0  0  0
   -6.5261    3.6048    8.7992 C   0  0  0  0  0  0  0  0  0  0  0  0
   -3.8427   -0.3656    9.2721 H   0  0  0  0  0  0  0  0  0  0  0  0
   -2.6915    0.9073    9.7073 H   0  0  0  0  0  0  0  0  0  0  0  0
    0.2008   -3.7918    0.6244 H   0  0  0  0  0  0  0  0  0  0  0  0
   -2.2227    1.3805    5.8388 H   0  0  0  0  0  0  0  0  0  0  0  0
   -3.8947    0.9586    6.0996 H   0  0  0  0  0  0  0  0  0  0  0  0
    1.3973   -2.0762    2.3370 H   0  0  0  0  0  0  0  0  0  0  0  0
    1.3804   -0.3283    2.3434 H   0  0  0  0  0  0  0  0  0  0  0  0
   -2.8329   -0.9143    1.6192 H   0  0  0  0  0  0  0  0  0  0  0  0
   -2.3587    3.1518    7.6428 H   0  0  0  0  0  0  0  0  0  0  0  0
   -3.4201    3.4374    6.2488 H   0  0  0  0  0  0  0  0  0  0  0  0
   -4.4883   -2.7237    1.8140 H   0  0  0  0  0  0  0  0  0  0  0  0
   -0.1141    0.8880    6.5240 H   0  0  0  0  0  0  0  0  0  0  0  0
   -1.9076   -2.9701    5.9085 H   0  0  0  0  0  0  0  0  0  0  0  0
    2.2034   -1.7206   -0.0645 H   0  0  0  0  0  0  0  0  0  0  0  0
    0.9538   -2.4208   -1.1583 H   0  0  0  0  0  0  0  0  0  0  0  0
    1.9055   -1.0078   -1.6703 H   0  0  0  0  0  0  0  0  0  0  0  0
   -0.7369   -3.1709    3.7566 H   0  0  0  0  0  0  0  0  0  0  0  0
    0.9345    0.7767    4.3085 H   0  0  0  0  0  0  0  0  0  0  0  0
   -5.7531    0.7182   10.4243 H   0  0  0  0  0  0  0  0  0  0  0  0
   -1.3868   -6.6715    1.2621 H   0  0  0  0  0  0  0  0  0  0  0  0
   -2.0950   -6.3221   -0.3413 H   0  0  0  0  0  0  0  0  0  0  0  0
   -0.4019   -5.9744   -0.0418 H   0  0  0  0  0  0  0  0  0  0  0  0
   -5.3251    4.5582    7.2951 H   0  0  0  0  0  0  0  0  0  0  0  0
   -4.1046   -5.5146    2.7369 H   0  0  0  0  0  0  0  0  0  0  0  0
   -5.1024   -5.0964    1.3234 H   0  0  0  0  0  0  0  0  0  0  0  0
   -3.8623   -6.3424    1.1921 H   0  0  0  0  0  0  0  0  0  0  0  0
   -7.5278    2.4347   10.3042 H   0  0  0  0  0  0  0  0  0  0  0  0
   -7.3131    4.3542    8.7496 H   0  0  0  0  0  0  0  0  0  0  0  0
  2  4  1  0  0  0  0
  3  1  1  0  0  0  0
  4 11  1  0  0  0  0
  5  3  1  0  0  0  0
  6  2  1  0  0  0  0
  6 33  1  0  0  0  0
  6 34  1  0  0  0  0
  7  5  2  0  0  0  0
  7 35  1  0  0  0  0
  8  1  2  0  0  0  0
  9  1  2  0  0  0  0
 10  6  1  0  0  0  0
 10 16  2  0  0  0  0
 11 21  2  0  0  0  0
 12  7  1  0  0  0  0
 12 17  2  0  0  0  0
 13  2  1  0  0  0  0
 13 36  1  0  0  0  0
 13 37  1  0  0  0  0
 14  3  1  0  0  0  0
 14 38  1  0  0  0  0
 14 39  1  0  0  0  0
 15  4  2  0  0  0  0
 16 19  1  0  0  0  0
 17 20  1  0  0  0  0
 18  5  1  0  0  0  0
 18 40  1  0  0  0  0
 19 13  1  0  0  0  0
 19 41  1  0  0  0  0
 19 42  1  0  0  0  0
 20 18  2  0  0  0  0
 20 43  1  0  0  0  0
 21 26  1  0  0  0  0
 21 44  1  0  0  0  0
 22 25  2  0  0  0  0
 22 11  1  0  0  0  0
 22 45  1  0  0  0  0
 23  1  1  0  0  0  0
 23 46  1  0  0  0  0
 23 47  1  0  0  0  0
 23 48  1  0  0  0  0
 24 14  1  0  0  0  0
 25 24  1  0  0  0  0
 25 49  1  0  0  0  0
 26 24  2  0  0  0  0
 26 50  1  0  0  0  0
 27 10  1  0  0  0  0
 27 51  1  0  0  0  0
 28 12  1  0  0  0  0
 28 52  1  0  0  0  0
 28 53  1  0  0  0  0
 28 54  1  0  0  0  0
 29 16  1  0  0  0  0
 29 55  1  0  0  0  0
 30 17  1  0  0  0  0
 30 56  1  0  0  0  0
 30 57  1  0  0  0  0
 30 58  1  0  0  0  0
 31 27  2  0  0  0  0
 31 59  1  0  0  0  0
 32 29  2  0  0  0  0
 32 31  1  0  0  0  0
 32 60  1  0  0  0  0
M  END
>  <Mol_ID>
9070

>  <Formula>
C26H28N2O3S

>  <MolWeight>
448.57712

>  <Cat>
P2991

>  <Name>
WAY-622134

>  <Synonyms>
N/A

>  <Target>
11¦Â-HSD1

>  <Form>
free base

>  <CAS>
409356-56-5

>  <URL>
N/A

$$$$
