WAY-622150
 OpenBabel08302521443D

 34 36  0  0  0  0  0  0  0  0999 V2000
   -0.1948   -1.1045    0.0260 C   0  0  0  0  0  0  0  0  0  0  0  0
    0.1633   -2.5266   -0.0238 C   0  0  0  0  0  0  0  0  0  0  0  0
    0.6668   -0.0471   -0.2233 N   0  0  0  0  0  0  0  0  0  0  0  0
   -1.3867   -0.5930    0.2864 N   0  0  0  0  0  0  0  0  0  0  0  0
    1.3705   -2.9889    0.5194 C   0  0  0  0  0  0  0  0  0  0  0  0
   -0.6776   -3.4581   -0.6397 C   0  0  0  0  0  0  0  0  0  0  0  0
   -0.0433    1.0994    0.0156 C   0  0  0  0  0  0  0  0  0  0  0  0
    2.0360   -0.1457   -0.6595 C   0  0  0  0  0  0  0  0  0  0  0  0
   -1.2839    0.7873    0.3052 N   0  0  0  0  0  0  0  0  0  0  0  0
    1.7208   -4.3172    0.3520 C   0  0  0  0  0  0  0  0  0  0  0  0
   -0.2451   -4.7768   -0.7388 C   0  0  0  0  0  0  0  0  0  0  0  0
    0.6544    2.6875   -0.0803 S   0  0  0  0  0  0  0  0  0  0  0  0
    0.9448   -5.2196   -0.2777 N   0  0  0  0  0  0  0  0  0  0  0  0
   -0.3738    3.6089    1.0890 C   0  0  0  0  0  0  0  0  0  0  0  0
    0.0479    5.0540    1.2727 C   0  0  0  0  0  0  0  0  0  0  0  0
   -0.4377    6.0574    0.4190 C   0  0  0  0  0  0  0  0  0  0  0  0
    0.8629    5.4334    2.3521 C   0  0  0  0  0  0  0  0  0  0  0  0
   -0.1846    7.4070    0.6867 C   0  0  0  0  0  0  0  0  0  0  0  0
    1.1119    6.7830    2.6200 C   0  0  0  0  0  0  0  0  0  0  0  0
    0.5707    7.7708    1.7999 C   0  0  0  0  0  0  0  0  0  0  0  0
    2.0385   -2.3353    1.0678 H   0  0  0  0  0  0  0  0  0  0  0  0
   -1.6436   -3.1765   -1.0378 H   0  0  0  0  0  0  0  0  0  0  0  0
    2.3120    0.7270   -1.2513 H   0  0  0  0  0  0  0  0  0  0  0  0
    2.6677   -0.2174    0.2291 H   0  0  0  0  0  0  0  0  0  0  0  0
    2.1561   -1.0288   -1.2917 H   0  0  0  0  0  0  0  0  0  0  0  0
    2.6699   -4.6957    0.7208 H   0  0  0  0  0  0  0  0  0  0  0  0
   -0.8607   -5.5359   -1.2149 H   0  0  0  0  0  0  0  0  0  0  0  0
   -1.4176    3.5863    0.7569 H   0  0  0  0  0  0  0  0  0  0  0  0
   -0.3408    3.1049    2.0618 H   0  0  0  0  0  0  0  0  0  0  0  0
   -1.0483    5.7971   -0.4430 H   0  0  0  0  0  0  0  0  0  0  0  0
    1.2818    4.6813    3.0167 H   0  0  0  0  0  0  0  0  0  0  0  0
   -0.5987    8.1769    0.0400 H   0  0  0  0  0  0  0  0  0  0  0  0
    1.7084    7.0668    3.4844 H   0  0  0  0  0  0  0  0  0  0  0  0
    0.7313    8.8212    2.0310 H   0  0  0  0  0  0  0  0  0  0  0  0
  1  2  1  0  0  0  0
  1  3  1  0  0  0  0
  1  4  2  0  0  0  0
  2  5  2  0  0  0  0
  2  6  1  0  0  0  0
  3  7  1  0  0  0  0
  3  8  1  0  0  0  0
  4  9  1  0  0  0  0
  5 10  1  0  0  0  0
  5 21  1  0  0  0  0
  6 11  2  0  0  0  0
  6 22  1  0  0  0  0
  7 12  1  0  0  0  0
  7  9  2  0  0  0  0
  8 23  1  0  0  0  0
  8 24  1  0  0  0  0
  8 25  1  0  0  0  0
 10 13  2  0  0  0  0
 10 26  1  0  0  0  0
 11 13  1  0  0  0  0
 11 27  1  0  0  0  0
 12 14  1  0  0  0  0
 14 15  1  0  0  0  0
 14 28  1  0  0  0  0
 14 29  1  0  0  0  0
 15 16  2  0  0  0  0
 15 17  1  0  0  0  0
 16 18  1  0  0  0  0
 16 30  1  0  0  0  0
 17 19  2  0  0  0  0
 17 31  1  0  0  0  0
 18 20  2  0  0  0  0
 18 32  1  0  0  0  0
 19 20  1  0  0  0  0
 19 33  1  0  0  0  0
 20 34  1  0  0  0  0
M  END
>  <Mol_ID>
9071

>  <Formula>
C15H13ClN4S

>  <MolWeight>
316.80852

>  <Cat>
P2992

>  <Name>
WAY-622150

>  <Synonyms>
N/A

>  <Target>
Others

>  <Form>
free base

>  <CAS>
482637-09-2

>  <URL>
N/A

$$$$
