WAY-359288-A
 OpenBabel08302521393D

 39 40  0  0  0  0  0  0  0  0999 V2000
    3.2384   -1.9514    1.6684 N   0  0  0  0  0  0  0  0  0  0  0  0
    2.7180   -2.7919    2.6549 C   0  0  0  0  0  0  0  0  0  0  0  0
    2.6882   -1.5273    0.4757 C   0  0  0  0  0  0  0  0  0  0  0  0
    3.4718   -2.8077    3.9477 C   0  0  0  0  0  0  0  0  0  0  0  0
    7.0983   -1.5326   -1.2028 N   0  0  0  0  0  0  0  0  0  0  0  0
    1.1602   -1.8373   -0.1137 S   0  0  0  0  0  0  0  0  0  0  0  0
    1.7306   -3.5119    2.5467 O   0  0  0  0  0  0  0  0  0  0  0  0
    3.5003   -0.7400   -0.3009 N   0  0  0  0  0  0  0  0  0  0  0  0
    9.2172   -1.1823   -3.2044 O   0  0  0  0  0  0  0  0  0  0  0  0
    2.7735   -3.1110    5.1250 C   0  0  0  0  0  0  0  0  0  0  0  0
    4.8521   -2.5562    4.0104 C   0  0  0  0  0  0  0  0  0  0  0  0
    4.8001   -2.8804    6.4024 C   0  0  0  0  0  0  0  0  0  0  0  0
    5.5109   -2.5841    5.2438 C   0  0  0  0  0  0  0  0  0  0  0  0
    3.4378   -3.1474    6.3529 C   0  0  0  0  0  0  0  0  0  0  0  0
    5.4406   -2.9133    7.5785 F   0  0  0  0  0  0  0  0  0  0  0  0
    4.9573   -0.6046   -0.2938 C   0  0  0  0  0  0  0  0  0  0  0  0
    5.6422   -1.4930   -1.3632 C   0  0  0  0  0  0  0  0  0  0  0  0
    7.8110   -0.2597   -1.4140 C   0  0  0  0  0  0  0  0  0  0  0  0
    7.7544   -2.6507   -1.9080 C   0  0  0  0  0  0  0  0  0  0  0  0
    8.4582   -0.0452   -2.7931 C   0  0  0  0  0  0  0  0  0  0  0  0
    8.3601   -2.3234   -3.2820 C   0  0  0  0  0  0  0  0  0  0  0  0
    3.9928   -1.3615    1.9716 H   0  0  0  0  0  0  0  0  0  0  0  0
    3.0281   -0.3981   -1.1326 H   0  0  0  0  0  0  0  0  0  0  0  0
    1.7054   -3.3273    5.0906 H   0  0  0  0  0  0  0  0  0  0  0  0
    5.4407   -2.3695    3.1173 H   0  0  0  0  0  0  0  0  0  0  0  0
    6.5793   -2.3957    5.3042 H   0  0  0  0  0  0  0  0  0  0  0  0
    2.9060   -3.3835    7.2696 H   0  0  0  0  0  0  0  0  0  0  0  0
    5.1587    0.4537   -0.4806 H   0  0  0  0  0  0  0  0  0  0  0  0
    5.3569   -0.8523    0.6935 H   0  0  0  0  0  0  0  0  0  0  0  0
    5.2426   -2.5076   -1.2291 H   0  0  0  0  0  0  0  0  0  0  0  0
    5.3522   -1.1728   -2.3709 H   0  0  0  0  0  0  0  0  0  0  0  0
    8.6148   -0.2391   -0.6681 H   0  0  0  0  0  0  0  0  0  0  0  0
    7.1819    0.6078   -1.1920 H   0  0  0  0  0  0  0  0  0  0  0  0
    8.5752   -2.9790   -1.2582 H   0  0  0  0  0  0  0  0  0  0  0  0
    7.0857   -3.5143   -2.0047 H   0  0  0  0  0  0  0  0  0  0  0  0
    7.7086    0.1831   -3.5593 H   0  0  0  0  0  0  0  0  0  0  0  0
    9.1471    0.8053   -2.7416 H   0  0  0  0  0  0  0  0  0  0  0  0
    8.9702   -3.1659   -3.6255 H   0  0  0  0  0  0  0  0  0  0  0  0
    7.5857   -2.1450   -4.0366 H   0  0  0  0  0  0  0  0  0  0  0  0
  1 22  1  0  0  0  0
  2  1  1  0  0  0  0
  3  1  1  0  0  0  0
  4  2  1  0  0  0  0
  5 17  1  0  0  0  0
  6  3  2  0  0  0  0
  7  2  2  0  0  0  0
  8  3  1  0  0  0  0
  8 23  1  0  0  0  0
  9 21  1  0  0  0  0
 10  4  2  0  0  0  0
 10 24  1  0  0  0  0
 11  4  1  0  0  0  0
 11 25  1  0  0  0  0
 12 13  1  0  0  0  0
 13 11  2  0  0  0  0
 13 26  1  0  0  0  0
 14 10  1  0  0  0  0
 14 12  2  0  0  0  0
 14 27  1  0  0  0  0
 15 12  1  0  0  0  0
 16  8  1  0  0  0  0
 16 28  1  0  0  0  0
 16 29  1  0  0  0  0
 17 16  1  0  0  0  0
 17 30  1  0  0  0  0
 17 31  1  0  0  0  0
 18  5  1  0  0  0  0
 18 32  1  0  0  0  0
 18 33  1  0  0  0  0
 19  5  1  0  0  0  0
 19 34  1  0  0  0  0
 19 35  1  0  0  0  0
 20 18  1  0  0  0  0
 20  9  1  0  0  0  0
 20 36  1  0  0  0  0
 20 37  1  0  0  0  0
 21 19  1  0  0  0  0
 21 38  1  0  0  0  0
 21 39  1  0  0  0  0
M  END
>  <Mol_ID>
8081

>  <Formula>
C14H18FN3O2S

>  <MolWeight>
311.3750232

>  <Cat>
P2786

>  <Name>
WAY-359288-A

>  <Synonyms>
N/A

>  <Target>
others

>  <Form>
free base

>  <CAS>
327975-20-2

>  <URL>
N/A

$$$$
