WAY-661957
 OpenBabel08302521443D

 35 37  0  0  0  0  0  0  0  0999 V2000
   -4.7578    0.9500    0.3824 C   0  0  0  0  0  0  0  0  0  0  0  0
   -4.2238   -0.3172    0.9763 C   0  0  0  0  0  0  0  0  0  0  0  0
   -5.1166    1.9341    1.2281 C   0  0  0  0  0  0  0  0  0  0  0  0
   -5.6483    3.1133    0.7564 N   0  0  0  0  0  0  0  0  0  0  0  0
   -4.9040    1.1801   -1.0487 C   0  0  0  0  0  0  0  0  0  0  0  0
   -5.8642    3.3833   -0.5737 C   0  0  0  0  0  0  0  0  0  0  0  0
   -5.4300    2.3237   -1.5185 C   0  0  0  0  0  0  0  0  0  0  0  0
   -4.0343   -1.2630   -0.0279 O   0  0  0  0  0  0  0  0  0  0  0  0
   -4.0191   -0.4754    2.1716 O   0  0  0  0  0  0  0  0  0  0  0  0
   -2.0859   -5.0274    0.2324 C   0  0  0  0  0  0  0  0  0  0  0  0
   -6.3724    4.4237   -0.9719 O   0  0  0  0  0  0  0  0  0  0  0  0
   -1.3411   -6.3173    0.2230 C   0  0  0  0  0  0  0  0  0  0  0  0
   -3.0965   -4.7522   -0.7107 C   0  0  0  0  0  0  0  0  0  0  0  0
   -1.7986   -4.0107    1.1646 C   0  0  0  0  0  0  0  0  0  0  0  0
   -3.4193   -2.5223    0.1713 C   0  0  0  0  0  0  0  0  0  0  0  0
   -3.7481   -3.5114   -0.7527 C   0  0  0  0  0  0  0  0  0  0  0  0
   -2.4548   -2.7691    1.1398 C   0  0  0  0  0  0  0  0  0  0  0  0
   -0.8387   -6.8934    1.4050 C   0  0  0  0  0  0  0  0  0  0  0  0
   -1.0839   -7.0122   -0.9761 C   0  0  0  0  0  0  0  0  0  0  0  0
   -0.3790   -8.2215   -0.9937 C   0  0  0  0  0  0  0  0  0  0  0  0
   -0.1210   -8.0970    1.3905 C   0  0  0  0  0  0  0  0  0  0  0  0
    0.1062   -8.7655    0.1918 C   0  0  0  0  0  0  0  0  0  0  0  0
   -5.0235    1.8541    2.3079 H   0  0  0  0  0  0  0  0  0  0  0  0
   -5.9323    3.8399    1.4037 H   0  0  0  0  0  0  0  0  0  0  0  0
   -4.5683    0.4188   -1.7451 H   0  0  0  0  0  0  0  0  0  0  0  0
   -5.5534    2.5305   -2.5738 H   0  0  0  0  0  0  0  0  0  0  0  0
   -3.3883   -5.5073   -1.4375 H   0  0  0  0  0  0  0  0  0  0  0  0
   -1.0256   -4.1564    1.9161 H   0  0  0  0  0  0  0  0  0  0  0  0
   -4.4976   -3.3227   -1.5160 H   0  0  0  0  0  0  0  0  0  0  0  0
   -2.1727   -2.0153    1.8682 H   0  0  0  0  0  0  0  0  0  0  0  0
   -1.0060   -6.4172    2.3680 H   0  0  0  0  0  0  0  0  0  0  0  0
   -1.4222   -6.6123   -1.9295 H   0  0  0  0  0  0  0  0  0  0  0  0
   -0.2038   -8.7349   -1.9359 H   0  0  0  0  0  0  0  0  0  0  0  0
    0.2598   -8.5121    2.3210 H   0  0  0  0  0  0  0  0  0  0  0  0
    0.6590   -9.6992    0.1806 H   0  0  0  0  0  0  0  0  0  0  0  0
  2  1  1  0  0  0  0
  3  1  2  0  0  0  0
  3 23  1  0  0  0  0
  4  3  1  0  0  0  0
  4 24  1  0  0  0  0
  5  1  1  0  0  0  0
  5 25  1  0  0  0  0
  6  7  1  0  0  0  0
  6  4  1  0  0  0  0
  7  5  2  0  0  0  0
  7 26  1  0  0  0  0
  8  2  1  0  0  0  0
  9  2  2  0  0  0  0
 10 14  1  0  0  0  0
 10 13  2  0  0  0  0
 11  6  2  0  0  0  0
 12 10  1  0  0  0  0
 13 16  1  0  0  0  0
 13 27  1  0  0  0  0
 14 17  2  0  0  0  0
 14 28  1  0  0  0  0
 15  8  1  0  0  0  0
 16 15  2  0  0  0  0
 16 29  1  0  0  0  0
 17 15  1  0  0  0  0
 17 30  1  0  0  0  0
 18 12  2  0  0  0  0
 18 31  1  0  0  0  0
 19 12  1  0  0  0  0
 19 32  1  0  0  0  0
 20 19  2  0  0  0  0
 20 33  1  0  0  0  0
 21 18  1  0  0  0  0
 21 34  1  0  0  0  0
 22 20  1  0  0  0  0
 22 21  2  0  0  0  0
 22 35  1  0  0  0  0
M  END
>  <Mol_ID>
9135

>  <Formula>
C18H13NO3

>  <MolWeight>
291.30072

>  <Cat>
P3216

>  <Name>
WAY-661957

>  <Synonyms>
N/A

>  <Target>
Androgen Receptor

>  <Form>
free base

>  <CAS>
899902-32-0

>  <URL>
N/A

$$$$
