WAY-637940
 OpenBabel08302521423D

 41 42  0  0  0  0  0  0  0  0999 V2000
    1.7525   -7.9587   -4.8759 S   0  0  0  0  0  0  0  0  0  0  0  0
    0.9224   -6.3886   -4.8688 C   0  0  0  0  0  0  0  0  0  0  0  0
    2.8566   -7.8891   -3.9503 O   0  0  0  0  0  0  0  0  0  0  0  0
    1.9135   -8.3882   -6.2482 O   0  0  0  0  0  0  0  0  0  0  0  0
   -1.4396   -1.9228   -6.1039 C   0  0  0  0  0  0  0  0  0  0  0  0
   -2.5685   -0.2959   -3.5344 C   0  0  0  0  0  0  0  0  0  0  0  0
   -0.7751   -2.5167   -5.0394 N   0  0  0  0  0  0  0  0  0  0  0  0
    0.5920   -8.9699   -4.2045 N   0  0  0  0  0  0  0  0  0  0  0  0
   -2.8357   -0.2308   -4.8802 N   0  0  0  0  0  0  0  0  0  0  0  0
   -1.6889   -2.4472   -7.1880 O   0  0  0  0  0  0  0  0  0  0  0  0
   -1.4740   -0.6548   -3.1015 O   0  0  0  0  0  0  0  0  0  0  0  0
    1.0627   -5.5074   -3.7955 C   0  0  0  0  0  0  0  0  0  0  0  0
    0.1968   -6.0089   -5.9946 C   0  0  0  0  0  0  0  0  0  0  0  0
   -1.8139   -0.4504   -5.8857 C   0  0  0  0  0  0  0  0  0  0  0  0
   -3.7375    0.0837   -2.6415 C   0  0  0  0  0  0  0  0  0  0  0  0
   -0.2456   -3.8291   -4.9986 C   0  0  0  0  0  0  0  0  0  0  0  0
   -0.3835   -4.7384   -6.0522 C   0  0  0  0  0  0  0  0  0  0  0  0
    0.4729   -4.2311   -3.8621 C   0  0  0  0  0  0  0  0  0  0  0  0
   -4.6239   -1.0817   -2.2743 C   0  0  0  0  0  0  0  0  0  0  0  0
   -4.0988   -2.1858   -1.5877 C   0  0  0  0  0  0  0  0  0  0  0  0
   -5.9977   -1.0545   -2.5577 C   0  0  0  0  0  0  0  0  0  0  0  0
   -6.8264   -2.1052   -2.1557 C   0  0  0  0  0  0  0  0  0  0  0  0
   -4.9285   -3.2352   -1.1886 C   0  0  0  0  0  0  0  0  0  0  0  0
   -6.2925   -3.1927   -1.4679 C   0  0  0  0  0  0  0  0  0  0  0  0
   -0.6589   -1.9384   -4.2037 H   0  0  0  0  0  0  0  0  0  0  0  0
    0.0244   -8.5392   -3.4795 H   0  0  0  0  0  0  0  0  0  0  0  0
    0.0737   -9.4641   -4.9303 H   0  0  0  0  0  0  0  0  0  0  0  0
   -3.7348    0.1163   -5.1906 H   0  0  0  0  0  0  0  0  0  0  0  0
    1.6492   -5.7856   -2.9211 H   0  0  0  0  0  0  0  0  0  0  0  0
    0.0903   -6.6767   -6.8463 H   0  0  0  0  0  0  0  0  0  0  0  0
   -0.9191    0.1314   -5.6444 H   0  0  0  0  0  0  0  0  0  0  0  0
   -2.2232   -0.0714   -6.8294 H   0  0  0  0  0  0  0  0  0  0  0  0
   -3.3405    0.5408   -1.7273 H   0  0  0  0  0  0  0  0  0  0  0  0
   -4.3214    0.8682   -3.1398 H   0  0  0  0  0  0  0  0  0  0  0  0
   -0.9294   -4.4911   -6.9569 H   0  0  0  0  0  0  0  0  0  0  0  0
    0.6086   -3.5503   -3.0241 H   0  0  0  0  0  0  0  0  0  0  0  0
   -3.0379   -2.2314   -1.3479 H   0  0  0  0  0  0  0  0  0  0  0  0
   -6.4419   -0.2104   -3.0803 H   0  0  0  0  0  0  0  0  0  0  0  0
   -7.8919   -2.0714   -2.3697 H   0  0  0  0  0  0  0  0  0  0  0  0
   -4.5106   -4.0818   -0.6500 H   0  0  0  0  0  0  0  0  0  0  0  0
   -6.9396   -4.0042   -1.1447 H   0  0  0  0  0  0  0  0  0  0  0  0
  2  1  1  0  0  0  0
  3  1  2  0  0  0  0
  4  1  2  0  0  0  0
  5  7  1  0  0  0  0
  6  9  1  0  0  0  0
  7 16  1  0  0  0  0
  7 25  1  0  0  0  0
  8  1  1  0  0  0  0
  8 26  1  0  0  0  0
  8 27  1  0  0  0  0
  9 14  1  0  0  0  0
  9 28  1  0  0  0  0
 10  5  2  0  0  0  0
 11  6  2  0  0  0  0
 12  2  2  0  0  0  0
 12 29  1  0  0  0  0
 13  2  1  0  0  0  0
 13 30  1  0  0  0  0
 14  5  1  0  0  0  0
 14 31  1  0  0  0  0
 14 32  1  0  0  0  0
 15  6  1  0  0  0  0
 15 33  1  0  0  0  0
 15 34  1  0  0  0  0
 16 17  1  0  0  0  0
 16 18  2  0  0  0  0
 17 13  2  0  0  0  0
 17 35  1  0  0  0  0
 18 12  1  0  0  0  0
 18 36  1  0  0  0  0
 19 15  1  0  0  0  0
 20 19  2  0  0  0  0
 20 37  1  0  0  0  0
 21 19  1  0  0  0  0
 21 38  1  0  0  0  0
 22 21  2  0  0  0  0
 22 39  1  0  0  0  0
 23 20  1  0  0  0  0
 23 40  1  0  0  0  0
 24 22  1  0  0  0  0
 24 23  2  0  0  0  0
 24 41  1  0  0  0  0
M  END
>  <Mol_ID>
8499

>  <Formula>
C16H17N3O4S

>  <MolWeight>
347.38888

>  <Cat>
P3025

>  <Name>
WAY-637940

>  <Synonyms>
N/A

>  <Target>
HIV

>  <Form>
free base

>  <CAS>
795282-95-0

>  <URL>
N/A

$$$$
