WAY-327147
 OpenBabel08302521443D

 44 46  0  0  0  0  0  0  0  0999 V2000
    0.1129    1.3085   -0.0348 C   0  0  0  0  0  0  0  0  0  0  0  0
    1.2438    0.5928   -0.0365 N   0  0  0  0  0  0  0  0  0  0  0  0
   -1.0955    0.7316    0.0162 N   0  0  0  0  0  0  0  0  0  0  0  0
    1.1603   -0.7583    0.0026 C   0  0  0  0  0  0  0  0  0  0  0  0
    2.4327   -1.5836    0.0168 C   0  0  0  0  0  0  0  0  0  0  0  0
   -1.1829   -0.6172    0.0239 C   0  0  0  0  0  0  0  0  0  0  0  0
    0.1922    2.6828   -0.1734 N   0  0  0  0  0  0  0  0  0  0  0  0
   -0.0558   -1.4091    0.0223 C   0  0  0  0  0  0  0  0  0  0  0  0
   -2.5527   -1.1751    0.0468 C   0  0  0  0  0  0  0  0  0  0  0  0
   -3.6018   -0.4730    0.6754 C   0  0  0  0  0  0  0  0  0  0  0  0
   -4.9156   -0.9717    0.7418 C   0  0  0  0  0  0  0  0  0  0  0  0
   -5.1944   -2.2189    0.1616 C   0  0  0  0  0  0  0  0  0  0  0  0
   -2.8693   -2.4051   -0.5450 C   0  0  0  0  0  0  0  0  0  0  0  0
    3.5811   -0.8493    0.0364 F   0  0  0  0  0  0  0  0  0  0  0  0
    2.5013   -2.4088    1.1018 F   0  0  0  0  0  0  0  0  0  0  0  0
    2.5318   -2.4030   -1.0696 F   0  0  0  0  0  0  0  0  0  0  0  0
   -4.1646   -2.9171   -0.4824 C   0  0  0  0  0  0  0  0  0  0  0  0
    0.4742    5.4998    0.1276 O   0  0  0  0  0  0  0  0  0  0  0  0
   -5.9385   -0.2911    1.3470 O   0  0  0  0  0  0  0  0  0  0  0  0
   -6.3788   -2.9069    0.1211 O   0  0  0  0  0  0  0  0  0  0  0  0
   -0.8839    3.4646    0.4467 C   0  0  0  0  0  0  0  0  0  0  0  0
    1.5225    3.2848   -0.0238 C   0  0  0  0  0  0  0  0  0  0  0  0
   -0.8238    4.9130   -0.0705 C   0  0  0  0  0  0  0  0  0  0  0  0
    1.4773    4.7261   -0.5525 C   0  0  0  0  0  0  0  0  0  0  0  0
   -5.6557    0.9706    1.9379 C   0  0  0  0  0  0  0  0  0  0  0  0
   -7.5220   -2.3475    0.7484 C   0  0  0  0  0  0  0  0  0  0  0  0
   -0.1074   -2.4907    0.0519 H   0  0  0  0  0  0  0  0  0  0  0  0
   -3.3557    0.4870    1.1211 H   0  0  0  0  0  0  0  0  0  0  0  0
   -2.1186   -2.9809   -1.0823 H   0  0  0  0  0  0  0  0  0  0  0  0
   -4.3825   -3.8771   -0.9467 H   0  0  0  0  0  0  0  0  0  0  0  0
   -0.7489    3.4634    1.5364 H   0  0  0  0  0  0  0  0  0  0  0  0
   -1.8784    3.0631    0.2216 H   0  0  0  0  0  0  0  0  0  0  0  0
    1.8041    3.2906    1.0371 H   0  0  0  0  0  0  0  0  0  0  0  0
    2.2884    2.7412   -0.5886 H   0  0  0  0  0  0  0  0  0  0  0  0
   -1.0727    4.9559   -1.1378 H   0  0  0  0  0  0  0  0  0  0  0  0
   -1.5504    5.5311    0.4661 H   0  0  0  0  0  0  0  0  0  0  0  0
    2.4433    5.2145   -0.3925 H   0  0  0  0  0  0  0  0  0  0  0  0
    1.2693    4.7400   -1.6298 H   0  0  0  0  0  0  0  0  0  0  0  0
   -4.9494    0.8661    2.7680 H   0  0  0  0  0  0  0  0  0  0  0  0
   -5.2937    1.6866    1.1928 H   0  0  0  0  0  0  0  0  0  0  0  0
   -6.5914    1.3645    2.3462 H   0  0  0  0  0  0  0  0  0  0  0  0
   -7.3618   -2.2007    1.8209 H   0  0  0  0  0  0  0  0  0  0  0  0
   -7.8355   -1.4273    0.2459 H   0  0  0  0  0  0  0  0  0  0  0  0
   -8.3406   -3.0676    0.6441 H   0  0  0  0  0  0  0  0  0  0  0  0
  2  1  2  0  0  0  0
  3  1  1  0  0  0  0
  4  2  1  0  0  0  0
  5  4  1  0  0  0  0
  6  3  2  0  0  0  0
  7  1  1  0  0  0  0
  8  6  1  0  0  0  0
  8  4  2  0  0  0  0
  8 27  1  0  0  0  0
  9  6  1  0  0  0  0
 10  9  2  0  0  0  0
 10 28  1  0  0  0  0
 11 10  1  0  0  0  0
 12 17  1  0  0  0  0
 12 11  2  0  0  0  0
 13  9  1  0  0  0  0
 13 29  1  0  0  0  0
 14  5  1  0  0  0  0
 15  5  1  0  0  0  0
 16  5  1  0  0  0  0
 17 13  2  0  0  0  0
 17 30  1  0  0  0  0
 18 24  1  0  0  0  0
 19 11  1  0  0  0  0
 20 12  1  0  0  0  0
 21  7  1  0  0  0  0
 21 31  1  0  0  0  0
 21 32  1  0  0  0  0
 22  7  1  0  0  0  0
 22 33  1  0  0  0  0
 22 34  1  0  0  0  0
 23 21  1  0  0  0  0
 23 18  1  0  0  0  0
 23 35  1  0  0  0  0
 23 36  1  0  0  0  0
 24 22  1  0  0  0  0
 24 37  1  0  0  0  0
 24 38  1  0  0  0  0
 25 19  1  0  0  0  0
 25 39  1  0  0  0  0
 25 40  1  0  0  0  0
 25 41  1  0  0  0  0
 26 20  1  0  0  0  0
 26 42  1  0  0  0  0
 26 43  1  0  0  0  0
 26 44  1  0  0  0  0
M  END
>  <Mol_ID>
8957

>  <Formula>
C17H18F3N3O3

>  <MolWeight>
369.3383296

>  <Cat>
P2516

>  <Name>
WAY-327147

>  <Synonyms>
N/A

>  <Target>
EP2 receptor

>  <Form>
free base

>  <CAS>
686725-39-3

>  <URL>
N/A

$$$$
