WAY-323406
 OpenBabel08302521423D

 27 29  0  0  0  0  0  0  0  0999 V2000
   -0.3333    1.1833   -0.0662 N   0  0  0  0  0  0  0  0  0  0  0  0
   -0.6911    2.5238   -0.0481 C   0  0  0  0  0  0  0  0  0  0  0  0
   -1.1493    0.2485    0.5436 C   0  0  0  0  0  0  0  0  0  0  0  0
    0.8332    0.7118   -0.5968 C   0  0  0  0  0  0  0  0  0  0  0  0
   -1.4647    3.1217    0.8369 N   0  0  0  0  0  0  0  0  0  0  0  0
   -0.1920    3.5374   -1.3486 S   0  0  0  0  0  0  0  0  0  0  0  0
   -0.6066   -1.1529    0.3716 C   0  0  0  0  0  0  0  0  0  0  0  0
   -2.2175    0.4271    1.1198 O   0  0  0  0  0  0  0  0  0  0  0  0
    0.9776   -1.0101   -0.4721 S   0  0  0  0  0  0  0  0  0  0  0  0
    1.8101    1.3709   -1.1070 N   0  0  0  0  0  0  0  0  0  0  0  0
   -1.6036    4.4730    0.5380 C   0  0  0  0  0  0  0  0  0  0  0  0
   -0.9708    4.8671   -0.6243 C   0  0  0  0  0  0  0  0  0  0  0  0
   -2.2897    5.4130    1.4203 C   0  0  0  0  0  0  0  0  0  0  0  0
   -2.3325    5.1762    2.8001 C   0  0  0  0  0  0  0  0  0  0  0  0
   -2.8537    6.6004    0.9249 C   0  0  0  0  0  0  0  0  0  0  0  0
   -2.8761    6.1297    3.6680 C   0  0  0  0  0  0  0  0  0  0  0  0
   -3.3960    7.5523    1.7918 C   0  0  0  0  0  0  0  0  0  0  0  0
   -3.3946    7.3219    3.1645 C   0  0  0  0  0  0  0  0  0  0  0  0
   -0.4748   -1.6279    1.3468 H   0  0  0  0  0  0  0  0  0  0  0  0
   -1.2949   -1.7349   -0.2473 H   0  0  0  0  0  0  0  0  0  0  0  0
    2.5342    0.6949   -1.3815 H   0  0  0  0  0  0  0  0  0  0  0  0
   -0.9028    5.8499   -1.0650 H   0  0  0  0  0  0  0  0  0  0  0  0
   -1.9189    4.2572    3.2107 H   0  0  0  0  0  0  0  0  0  0  0  0
   -2.8742    6.8070   -0.1421 H   0  0  0  0  0  0  0  0  0  0  0  0
   -2.8822    5.9460    4.7393 H   0  0  0  0  0  0  0  0  0  0  0  0
   -3.8089    8.4754    1.3935 H   0  0  0  0  0  0  0  0  0  0  0  0
   -3.7996    8.0701    3.8411 H   0  0  0  0  0  0  0  0  0  0  0  0
  1  2  1  0  0  0  0
  1  3  1  0  0  0  0
  1  4  1  0  0  0  0
  2  5  2  0  0  0  0
  2  6  1  0  0  0  0
  3  7  1  0  0  0  0
  3  8  2  0  0  0  0
  4  9  1  0  0  0  0
  4 10  2  0  0  0  0
  5 11  1  0  0  0  0
  6 12  1  0  0  0  0
  7  9  1  0  0  0  0
  7 19  1  0  0  0  0
  7 20  1  0  0  0  0
 10 21  1  0  0  0  0
 11 13  1  0  0  0  0
 11 12  2  0  0  0  0
 12 22  1  0  0  0  0
 13 14  2  0  0  0  0
 13 15  1  0  0  0  0
 14 16  1  0  0  0  0
 14 23  1  0  0  0  0
 15 17  2  0  0  0  0
 15 24  1  0  0  0  0
 16 18  2  0  0  0  0
 16 25  1  0  0  0  0
 17 18  1  0  0  0  0
 17 26  1  0  0  0  0
 18 27  1  0  0  0  0
M  END
>  <Mol_ID>
8579

>  <Formula>
C12H9N3OS2

>  <MolWeight>
275.34936

>  <Cat>
P2264

>  <Name>
WAY-323406

>  <Synonyms>
N/A

>  <Target>
Anti-infection

>  <Form>
free base

>  <CAS>
854032-58-9

>  <URL>
N/A

$$$$
