WAY-637570
 OpenBabel08302521423D

 49 51  0  0  0  0  0  0  0  0999 V2000
    2.5109    2.6328    2.7382 N   0  0  0  0  0  0  0  0  0  0  0  0
    2.5016    1.4228    2.0586 C   0  0  0  0  0  0  0  0  0  0  0  0
    3.7845   -0.5141    1.3354 N   0  0  0  0  0  0  0  0  0  0  0  0
    3.8370    0.9539    1.4181 C   0  0  1  0  0  0  0  0  0  0  0  0
    4.7280   -1.2908    1.9735 C   0  0  0  0  0  0  0  0  0  0  0  0
    1.4144    3.1916    3.4355 C   0  0  0  0  0  0  0  0  0  0  0  0
    3.6462    3.5674    2.8673 C   0  0  0  0  0  0  0  0  0  0  0  0
    1.5000    0.7080    1.9324 O   0  0  0  0  0  0  0  0  0  0  0  0
    1.8024    4.3685    4.0809 C   0  0  0  0  0  0  0  0  0  0  0  0
    5.7399   -0.8210    2.4826 O   0  0  0  0  0  0  0  0  0  0  0  0
    4.4695   -2.7536    2.0625 C   0  0  0  0  0  0  0  0  0  0  0  0
    3.2580    4.6373    3.8940 C   0  0  0  0  0  0  0  0  0  0  0  0
    4.1469    1.6081    0.0463 C   0  0  2  0  0  0  0  0  0  0  0  0
    0.1160    2.7255    3.5540 C   0  0  0  0  0  0  0  0  0  0  0  0
    0.9090    5.1085    4.8449 C   0  0  0  0  0  0  0  0  0  0  0  0
    3.6609   -3.4341    1.1445 C   0  0  0  0  0  0  0  0  0  0  0  0
    5.0978   -3.4728    3.0908 C   0  0  0  0  0  0  0  0  0  0  0  0
    3.0429    1.3690   -1.0044 C   0  0  0  0  0  0  0  0  0  0  0  0
    5.5166    1.1360   -0.4670 C   0  0  0  0  0  0  0  0  0  0  0  0
   -0.7946    3.4644    4.3197 C   0  0  0  0  0  0  0  0  0  0  0  0
    3.2700    2.1358   -2.3043 C   0  0  0  0  0  0  0  0  0  0  0  0
   -0.4019    4.6487    4.9577 C   0  0  0  0  0  0  0  0  0  0  0  0
    4.9134   -4.8505    3.2081 C   0  0  0  0  0  0  0  0  0  0  0  0
    3.4812   -4.8171    1.2632 C   0  0  0  0  0  0  0  0  0  0  0  0
    4.1054   -5.5228    2.2941 C   0  0  0  0  0  0  0  0  0  0  0  0
    2.8574   -0.8991    1.1804 H   0  0  0  0  0  0  0  0  0  0  0  0
    4.6404    1.2120    2.1135 H   0  0  0  0  0  0  0  0  0  0  0  0
    4.5570    3.0426    3.1657 H   0  0  0  0  0  0  0  0  0  0  0  0
    3.8140    4.0269    1.8880 H   0  0  0  0  0  0  0  0  0  0  0  0
    3.4539    5.6458    3.5191 H   0  0  0  0  0  0  0  0  0  0  0  0
    3.7943    4.4829    4.8361 H   0  0  0  0  0  0  0  0  0  0  0  0
    4.2188    2.6903    0.1984 H   0  0  0  0  0  0  0  0  0  0  0  0
   -0.2130    1.8103    3.0760 H   0  0  0  0  0  0  0  0  0  0  0  0
    1.2232    6.0147    5.3543 H   0  0  0  0  0  0  0  0  0  0  0  0
    3.1893   -2.9125    0.3151 H   0  0  0  0  0  0  0  0  0  0  0  0
    5.7370   -2.9553    3.8045 H   0  0  0  0  0  0  0  0  0  0  0  0
    2.9594    0.3005   -1.2332 H   0  0  0  0  0  0  0  0  0  0  0  0
    2.0740    1.6867   -0.6018 H   0  0  0  0  0  0  0  0  0  0  0  0
    5.4822    0.0932   -0.7998 H   0  0  0  0  0  0  0  0  0  0  0  0
    5.8563    1.7454   -1.3098 H   0  0  0  0  0  0  0  0  0  0  0  0
    6.2793    1.2203    0.3141 H   0  0  0  0  0  0  0  0  0  0  0  0
   -1.8179    3.1100    4.4252 H   0  0  0  0  0  0  0  0  0  0  0  0
    3.3207    3.2136   -2.1191 H   0  0  0  0  0  0  0  0  0  0  0  0
    4.1919    1.8274   -2.8054 H   0  0  0  0  0  0  0  0  0  0  0  0
    2.4443    1.9512   -2.9991 H   0  0  0  0  0  0  0  0  0  0  0  0
   -1.1222    5.2055    5.5517 H   0  0  0  0  0  0  0  0  0  0  0  0
    5.4057   -5.3984    4.0084 H   0  0  0  0  0  0  0  0  0  0  0  0
    2.8597   -5.3475    0.5452 H   0  0  0  0  0  0  0  0  0  0  0  0
    3.9658   -6.5973    2.3787 H   0  0  0  0  0  0  0  0  0  0  0  0
  2  1  1  0  0  0  0
  3 26  1  0  0  0  0
  4 27  1  1  0  0  0
  4  2  1  0  0  0  0
  4  3  1  0  0  0  0
  5  3  1  0  0  0  0
  6  1  1  0  0  0  0
  7  1  1  0  0  0  0
  7 28  1  0  0  0  0
  7 29  1  0  0  0  0
  8  2  2  0  0  0  0
  9  6  2  0  0  0  0
  9 12  1  0  0  0  0
 10  5  2  0  0  0  0
 11  5  1  0  0  0  0
 12  7  1  0  0  0  0
 12 30  1  0  0  0  0
 12 31  1  0  0  0  0
 13 32  1  1  0  0  0
 13 19  1  0  0  0  0
 13  4  1  0  0  0  0
 14  6  1  0  0  0  0
 14 33  1  0  0  0  0
 15  9  1  0  0  0  0
 15 34  1  0  0  0  0
 16 11  2  0  0  0  0
 16 35  1  0  0  0  0
 17 11  1  0  0  0  0
 17 36  1  0  0  0  0
 18 13  1  0  0  0  0
 18 37  1  0  0  0  0
 18 38  1  0  0  0  0
 19 39  1  0  0  0  0
 19 40  1  0  0  0  0
 19 41  1  0  0  0  0
 20 14  2  0  0  0  0
 20 42  1  0  0  0  0
 21 18  1  0  0  0  0
 21 43  1  0  0  0  0
 21 44  1  0  0  0  0
 21 45  1  0  0  0  0
 22 20  1  0  0  0  0
 22 15  2  0  0  0  0
 22 46  1  0  0  0  0
 23 17  2  0  0  0  0
 23 47  1  0  0  0  0
 24 16  1  0  0  0  0
 24 48  1  0  0  0  0
 25 23  1  0  0  0  0
 25 24  2  0  0  0  0
 25 49  1  0  0  0  0
M  END
>  <Mol_ID>
8484

>  <Formula>
C21H24N2O2

>  <MolWeight>
336.42746

>  <Cat>
P3017

>  <Name>
WAY-637570

>  <Synonyms>
N/A

>  <Target>
others

>  <Form>
free base

>  <CAS>
1097624-48-0

>  <URL>
N/A

$$$$
