WAY-297848
 OpenBabel08302521343D

 32 33  0  0  0  0  0  0  0  0999 V2000
    0.9677    0.0655    0.0753 C   0  0  0  0  0  0  0  0  0  0  0  0
    0.1292   -0.9576   -0.7528 C   0  0  0  0  0  0  0  0  0  0  0  0
   -0.8284   -1.7141    0.1940 C   0  0  0  0  0  0  0  0  0  0  0  0
    1.1515    1.2057   -0.3661 O   0  0  0  0  0  0  0  0  0  0  0  0
    1.4782   -0.3954    1.2698 N   0  0  0  0  0  0  0  0  0  0  0  0
    2.8721   -0.3577    3.4613 S   0  0  0  0  0  0  0  0  0  0  0  0
    2.2231    0.4137    2.0836 C   0  0  0  0  0  0  0  0  0  0  0  0
    2.5166    1.6804    1.9394 N   0  0  0  0  0  0  0  0  0  0  0  0
    3.3921    2.0681    2.9280 C   0  0  0  0  0  0  0  0  0  0  0  0
    3.7202    1.0872    3.8407 C   0  0  0  0  0  0  0  0  0  0  0  0
   -0.7874   -0.1825   -1.7263 C   0  0  0  0  0  0  0  0  0  0  0  0
    0.8672   -2.0007   -1.3976 O   0  0  0  0  0  0  0  0  0  0  0  0
    1.8605   -1.7923   -2.3100 C   0  0  0  0  0  0  0  0  0  0  0  0
    2.3076   -0.5775   -2.8173 C   0  0  0  0  0  0  0  0  0  0  0  0
    3.3419   -0.5341   -3.7648 C   0  0  0  0  0  0  0  0  0  0  0  0
    3.9363   -1.7087   -4.2167 C   0  0  0  0  0  0  0  0  0  0  0  0
    3.5007   -2.9308   -3.7153 C   0  0  0  0  0  0  0  0  0  0  0  0
    2.4683   -2.9686   -2.7730 C   0  0  0  0  0  0  0  0  0  0  0  0
   -1.4258   -1.0376    0.8066 H   0  0  0  0  0  0  0  0  0  0  0  0
   -1.5115   -2.3615   -0.3806 H   0  0  0  0  0  0  0  0  0  0  0  0
   -0.2895   -2.3974    0.8556 H   0  0  0  0  0  0  0  0  0  0  0  0
    1.3598   -1.3527    1.5673 H   0  0  0  0  0  0  0  0  0  0  0  0
    3.7725    3.0820    2.9267 H   0  0  0  0  0  0  0  0  0  0  0  0
    4.4003    1.1512    4.6786 H   0  0  0  0  0  0  0  0  0  0  0  0
   -0.2465    0.2650   -2.5612 H   0  0  0  0  0  0  0  0  0  0  0  0
   -1.5483   -0.8321   -2.1665 H   0  0  0  0  0  0  0  0  0  0  0  0
   -1.2997    0.6351   -1.2026 H   0  0  0  0  0  0  0  0  0  0  0  0
    1.8887    0.3734   -2.5106 H   0  0  0  0  0  0  0  0  0  0  0  0
    3.6668    0.4242   -4.1592 H   0  0  0  0  0  0  0  0  0  0  0  0
    4.7349   -1.6703   -4.9522 H   0  0  0  0  0  0  0  0  0  0  0  0
    3.9620   -3.8540   -4.0556 H   0  0  0  0  0  0  0  0  0  0  0  0
    2.1323   -3.9328   -2.3961 H   0  0  0  0  0  0  0  0  0  0  0  0
  1  2  1  0  0  0  0
  1  4  2  0  0  0  0
  1  5  1  0  0  0  0
  2  3  1  0  0  0  0
  2 11  1  0  0  0  0
  2 12  1  0  0  0  0
  3 19  1  0  0  0  0
  3 20  1  0  0  0  0
  3 21  1  0  0  0  0
  5  7  1  0  0  0  0
  5 22  1  0  0  0  0
  6  7  1  0  0  0  0
  6 10  1  0  0  0  0
  7  8  2  0  0  0  0
  8  9  1  0  0  0  0
  9 10  2  0  0  0  0
  9 23  1  0  0  0  0
 10 24  1  0  0  0  0
 11 25  1  0  0  0  0
 11 26  1  0  0  0  0
 11 27  1  0  0  0  0
 12 13  1  0  0  0  0
 13 14  2  0  0  0  0
 13 18  1  0  0  0  0
 14 15  1  0  0  0  0
 14 28  1  0  0  0  0
 15 16  2  0  0  0  0
 15 29  1  0  0  0  0
 16 17  1  0  0  0  0
 16 30  1  0  0  0  0
 17 18  2  0  0  0  0
 17 31  1  0  0  0  0
 18 32  1  0  0  0  0
M  END
>  <Mol_ID>
6460

>  <Formula>
C13H13ClN2O2S

>  <MolWeight>
296.77252

>  <Cat>
E2509

>  <Name>
WAY-297848

>  <Target>
Carbohydrate Metabolism

>  <Form>
free base

>  <CAS>
404360-27-6

>  <URL>
http://www.selleckchem.com/products/way-297848.html

$$$$
