WAY-326449
 OpenBabel08302521433D

 33 34  0  0  0  0  0  0  0  0999 V2000
    0.9038    0.6422    0.2064 N   0  0  0  0  0  0  0  0  0  0  0  0
    2.3311    1.5773    0.4387 S   0  0  0  0  0  0  0  0  0  0  0  0
    0.8642   -0.7199    0.2846 N   0  0  0  0  0  0  0  0  0  0  0  0
   -0.3530    1.2155    0.0456 C   0  0  0  0  0  0  0  0  0  0  0  0
   -0.4341   -0.9886    0.1478 C   0  0  0  0  0  0  0  0  0  0  0  0
   -1.2345    0.1603    0.0152 C   0  0  0  0  0  0  0  0  0  0  0  0
   -2.0555   -2.6381    0.0345 C   0  0  0  0  0  0  0  0  0  0  0  0
   -0.7779   -2.2778    0.3164 O   0  0  0  0  0  0  0  0  0  0  0  0
    2.4029    2.4539   -0.7163 O   0  0  0  0  0  0  0  0  0  0  0  0
    2.2195    2.1147    1.7859 O   0  0  0  0  0  0  0  0  0  0  0  0
   -2.5406   -3.5705    1.0926 C   0  0  0  0  0  0  0  0  0  0  0  0
   -2.7633   -2.2105   -0.8657 O   0  0  0  0  0  0  0  0  0  0  0  0
   -0.6170    2.5401   -0.0374 N   0  0  0  0  0  0  0  0  0  0  0  0
   -3.8934   -3.9340    1.0880 C   0  0  0  0  0  0  0  0  0  0  0  0
   -1.7167   -3.9962    2.1424 C   0  0  0  0  0  0  0  0  0  0  0  0
    3.7107    0.4700    0.3968 C   0  0  0  0  0  0  0  0  0  0  0  0
   -4.4243   -4.6751    2.1469 C   0  0  0  0  0  0  0  0  0  0  0  0
   -2.2513   -4.7337    3.1992 C   0  0  0  0  0  0  0  0  0  0  0  0
   -3.6121   -5.0582    3.2211 C   0  0  0  0  0  0  0  0  0  0  0  0
   -4.1753   -5.8049    4.3939 C   0  0  0  0  0  0  0  0  0  0  0  0
   -2.3108    0.2202   -0.0602 H   0  0  0  0  0  0  0  0  0  0  0  0
    0.1181    3.2318   -0.2055 H   0  0  0  0  0  0  0  0  0  0  0  0
   -1.5426    2.8769   -0.2956 H   0  0  0  0  0  0  0  0  0  0  0  0
   -4.5482   -3.6143    0.2791 H   0  0  0  0  0  0  0  0  0  0  0  0
   -0.6612   -3.7362    2.1761 H   0  0  0  0  0  0  0  0  0  0  0  0
    3.6194   -0.2478    1.2147 H   0  0  0  0  0  0  0  0  0  0  0  0
    3.7346   -0.0376   -0.5695 H   0  0  0  0  0  0  0  0  0  0  0  0
    4.6197    1.0622    0.5276 H   0  0  0  0  0  0  0  0  0  0  0  0
   -5.4830   -4.9280    2.1394 H   0  0  0  0  0  0  0  0  0  0  0  0
   -1.6028   -5.0306    4.0210 H   0  0  0  0  0  0  0  0  0  0  0  0
   -3.7624   -6.8174    4.4297 H   0  0  0  0  0  0  0  0  0  0  0  0
   -3.9273   -5.2822    5.3241 H   0  0  0  0  0  0  0  0  0  0  0  0
   -5.2660   -5.8779    4.3376 H   0  0  0  0  0  0  0  0  0  0  0  0
  2  1  1  0  0  0  0
  3  1  1  0  0  0  0
  4  1  1  0  0  0  0
  5  3  2  0  0  0  0
  5  6  1  0  0  0  0
  6  4  2  0  0  0  0
  6 21  1  0  0  0  0
  7  8  1  0  0  0  0
  8  5  1  0  0  0  0
  9  2  2  0  0  0  0
 10  2  2  0  0  0  0
 11  7  1  0  0  0  0
 12  7  2  0  0  0  0
 13  4  1  0  0  0  0
 13 22  1  0  0  0  0
 13 23  1  0  0  0  0
 14 11  2  0  0  0  0
 14 24  1  0  0  0  0
 15 11  1  0  0  0  0
 15 25  1  0  0  0  0
 16  2  1  0  0  0  0
 16 26  1  0  0  0  0
 16 27  1  0  0  0  0
 16 28  1  0  0  0  0
 17 14  1  0  0  0  0
 17 29  1  0  0  0  0
 18 15  2  0  0  0  0
 18 30  1  0  0  0  0
 19 18  1  0  0  0  0
 19 17  2  0  0  0  0
 20 19  1  0  0  0  0
 20 31  1  0  0  0  0
 20 32  1  0  0  0  0
 20 33  1  0  0  0  0
M  END
>  <Mol_ID>
8926

>  <Formula>
C12H13N3O4S

>  <MolWeight>
295.31432

>  <Cat>
P2485

>  <Name>
WAY-326449

>  <Synonyms>
N/A

>  <Target>
Androgen Receptor

>  <Form>
free base

>  <CAS>
870763-68-1

>  <URL>
N/A

$$$$
