WAY-332004
 OpenBabel08302521443D

 48 50  0  0  0  0  0  0  0  0999 V2000
    0.6455    0.3508   -0.4657 N   0  0  0  0  0  0  0  0  0  0  0  0
   -0.1386   -0.6919   -0.6818 C   0  0  0  0  0  0  0  0  0  0  0  0
   -0.1825    1.2888    0.1314 C   0  0  0  0  0  0  0  0  0  0  0  0
   -1.4206   -0.5170   -0.2271 O   0  0  0  0  0  0  0  0  0  0  0  0
   -1.4395    0.7430    0.2889 C   0  0  0  0  0  0  0  0  0  0  0  0
    0.1363   -1.9780   -1.3271 C   0  0  0  0  0  0  0  0  0  0  0  0
    0.5504    6.6065   -0.6751 C   0  0  0  0  0  0  0  0  0  0  0  0
    1.7836    7.2207   -0.8014 N   0  0  0  0  0  0  0  0  0  0  0  0
   -0.4603    7.0233   -1.2293 O   0  0  0  0  0  0  0  0  0  0  0  0
    1.4253   -2.2952   -1.7771 C   0  0  0  0  0  0  0  0  0  0  0  0
   -0.8849   -2.9235   -1.5293 C   0  0  0  0  0  0  0  0  0  0  0  0
   -0.0301    3.9084   -0.7007 S   0  0  0  0  0  0  0  0  0  0  0  0
    0.3157    2.6305    0.5498 C   0  0  0  0  0  0  0  0  0  0  0  0
    2.0681    8.1179   -1.9082 C   0  0  0  0  0  0  0  0  0  0  0  0
    1.6840   -3.5148   -2.4221 C   0  0  0  0  0  0  0  0  0  0  0  0
   -0.6280   -4.1409   -2.1705 C   0  0  0  0  0  0  0  0  0  0  0  0
    0.6550   -4.4412   -2.6345 C   0  0  0  0  0  0  0  0  0  0  0  0
    0.5638    5.3686    0.2202 C   0  0  0  0  0  0  0  0  0  0  0  0
    2.9301    7.3819   -2.9077 C   0  0  0  0  0  0  0  0  0  0  0  0
   -2.7203    1.2049    0.8500 C   0  0  0  0  0  0  0  0  0  0  0  0
    0.9297   -5.7471   -3.3200 C   0  0  0  0  0  0  0  0  0  0  0  0
    2.4239    6.2438   -3.5563 C   0  0  0  0  0  0  0  0  0  0  0  0
    4.2627    7.7517   -3.1296 C   0  0  0  0  0  0  0  0  0  0  0  0
    3.2512    5.4528   -4.3512 C   0  0  0  0  0  0  0  0  0  0  0  0
    5.0859    6.9663   -3.9401 C   0  0  0  0  0  0  0  0  0  0  0  0
    4.5853    5.8073   -4.5331 C   0  0  0  0  0  0  0  0  0  0  0  0
    2.5928    6.7651   -0.4033 H   0  0  0  0  0  0  0  0  0  0  0  0
    2.2406   -1.5878   -1.6329 H   0  0  0  0  0  0  0  0  0  0  0  0
   -1.9011   -2.7209   -1.1920 H   0  0  0  0  0  0  0  0  0  0  0  0
   -0.1651    2.9216    1.4901 H   0  0  0  0  0  0  0  0  0  0  0  0
    1.3959    2.5869    0.7207 H   0  0  0  0  0  0  0  0  0  0  0  0
    2.6050    8.9783   -1.4932 H   0  0  0  0  0  0  0  0  0  0  0  0
    1.1529    8.4825   -2.3852 H   0  0  0  0  0  0  0  0  0  0  0  0
    2.6933   -3.7309   -2.7618 H   0  0  0  0  0  0  0  0  0  0  0  0
   -1.4465   -4.8431   -2.3125 H   0  0  0  0  0  0  0  0  0  0  0  0
   -0.0759    5.5623    1.0857 H   0  0  0  0  0  0  0  0  0  0  0  0
    1.5803    5.1675    0.5713 H   0  0  0  0  0  0  0  0  0  0  0  0
   -3.4123    1.4700    0.0455 H   0  0  0  0  0  0  0  0  0  0  0  0
   -3.1837    0.4194    1.4556 H   0  0  0  0  0  0  0  0  0  0  0  0
   -2.5828    2.0817    1.4890 H   0  0  0  0  0  0  0  0  0  0  0  0
    1.4950   -5.5827   -4.2428 H   0  0  0  0  0  0  0  0  0  0  0  0
    1.4997   -6.4061   -2.6577 H   0  0  0  0  0  0  0  0  0  0  0  0
   -0.0008   -6.2579   -3.5937 H   0  0  0  0  0  0  0  0  0  0  0  0
    1.3851    5.9482   -3.4127 H   0  0  0  0  0  0  0  0  0  0  0  0
    4.6784    8.6396   -2.6580 H   0  0  0  0  0  0  0  0  0  0  0  0
    2.8547    4.5520   -4.8124 H   0  0  0  0  0  0  0  0  0  0  0  0
    6.1239    7.2473   -4.0966 H   0  0  0  0  0  0  0  0  0  0  0  0
    5.2347    5.1787   -5.1364 H   0  0  0  0  0  0  0  0  0  0  0  0
  2  1  2  0  0  0  0
  3  1  1  0  0  0  0
  4  2  1  0  0  0  0
  5  3  2  0  0  0  0
  5  4  1  0  0  0  0
  6  2  1  0  0  0  0
  7 18  1  0  0  0  0
  8  7  1  0  0  0  0
  8 27  1  0  0  0  0
  9  7  2  0  0  0  0
 10  6  2  0  0  0  0
 10 28  1  0  0  0  0
 11  6  1  0  0  0  0
 11 29  1  0  0  0  0
 12 13  1  0  0  0  0
 13  3  1  0  0  0  0
 13 30  1  0  0  0  0
 13 31  1  0  0  0  0
 14  8  1  0  0  0  0
 14 32  1  0  0  0  0
 14 33  1  0  0  0  0
 15 10  1  0  0  0  0
 15 34  1  0  0  0  0
 16 11  2  0  0  0  0
 16 35  1  0  0  0  0
 17 16  1  0  0  0  0
 17 15  2  0  0  0  0
 18 12  1  0  0  0  0
 18 36  1  0  0  0  0
 18 37  1  0  0  0  0
 19 14  1  0  0  0  0
 20  5  1  0  0  0  0
 20 38  1  0  0  0  0
 20 39  1  0  0  0  0
 20 40  1  0  0  0  0
 21 17  1  0  0  0  0
 21 41  1  0  0  0  0
 21 42  1  0  0  0  0
 21 43  1  0  0  0  0
 22 19  2  0  0  0  0
 22 44  1  0  0  0  0
 23 19  1  0  0  0  0
 23 45  1  0  0  0  0
 24 22  1  0  0  0  0
 24 46  1  0  0  0  0
 25 23  2  0  0  0  0
 25 47  1  0  0  0  0
 26 25  1  0  0  0  0
 26 24  2  0  0  0  0
 26 48  1  0  0  0  0
M  END
>  <Mol_ID>
9222

>  <Formula>
C21H22N2O2S

>  <MolWeight>
366.47658

>  <Cat>
P2661

>  <Name>
WAY-332004

>  <Synonyms>
N/A

>  <Target>
beta-catenin

>  <Form>
free base

>  <CAS>
902586-30-5

>  <URL>
N/A

$$$$
