WAY-381644
 OpenBabel08302521393D

 48 50  0  0  0  0  0  0  0  0999 V2000
    0.8177    0.0317   -0.0513 S   0  0  0  0  0  0  0  0  0  0  0  0
   -4.6565   -4.8573   -1.3413 N   0  0  0  0  0  0  0  0  0  0  0  0
    0.7976    0.3739    1.5997 N   0  0  0  0  0  0  0  0  0  0  0  0
    0.4176   -1.7173   -0.1149 C   0  0  0  0  0  0  0  0  0  0  0  0
   -3.2751   -4.7948   -1.3476 C   0  0  0  0  0  0  0  0  0  0  0  0
   -5.6409   -3.9762   -0.9093 C   0  0  0  0  0  0  0  0  0  0  0  0
   -0.4273    0.2954    2.3108 C   0  0  0  0  0  0  0  0  0  0  0  0
   -0.9320   -2.0593   -0.3862 C   0  0  0  0  0  0  0  0  0  0  0  0
    2.1836    0.2054   -0.5001 O   0  0  0  0  0  0  0  0  0  0  0  0
   -0.2553    0.7609   -0.6934 O   0  0  0  0  0  0  0  0  0  0  0  0
   -2.7013   -3.6793   -0.7802 N   0  0  0  0  0  0  0  0  0  0  0  0
   -2.5521   -6.0978   -2.1162 S   0  0  0  0  0  0  0  0  0  0  0  0
   -7.0447   -4.4216   -1.2071 C   0  0  0  0  0  0  0  0  0  0  0  0
   -1.3315   -3.3953   -0.5227 C   0  0  0  0  0  0  0  0  0  0  0  0
    1.3909   -2.7214    0.0477 C   0  0  0  0  0  0  0  0  0  0  0  0
   -5.4151   -2.9381   -0.2998 O   0  0  0  0  0  0  0  0  0  0  0  0
   -0.8325   -0.8934    2.9162 C   0  0  0  0  0  0  0  0  0  0  0  0
   -8.0757   -4.0867   -0.3156 C   0  0  0  0  0  0  0  0  0  0  0  0
   -7.3486   -5.1797   -2.3530 C   0  0  0  0  0  0  0  0  0  0  0  0
    0.9741   -4.0523   -0.0940 C   0  0  0  0  0  0  0  0  0  0  0  0
   -0.3598   -4.3798   -0.3557 C   0  0  0  0  0  0  0  0  0  0  0  0
   -9.6546   -5.3173   -1.6661 C   0  0  0  0  0  0  0  0  0  0  0  0
   -8.6505   -5.6314   -2.5755 C   0  0  0  0  0  0  0  0  0  0  0  0
   -9.3798   -4.5415   -0.5439 C   0  0  0  0  0  0  0  0  0  0  0  0
  -10.8970   -5.7599   -1.8754 F   0  0  0  0  0  0  0  0  0  0  0  0
   -1.2360    1.4293    2.3832 C   0  0  0  0  0  0  0  0  0  0  0  0
    2.8509   -2.5227    0.3486 C   0  0  0  0  0  0  0  0  0  0  0  0
   -2.0589   -0.9483    3.5820 C   0  0  0  0  0  0  0  0  0  0  0  0
   -2.4505    1.3787    3.0671 C   0  0  0  0  0  0  0  0  0  0  0  0
   -2.8663    0.1868    3.6619 C   0  0  0  0  0  0  0  0  0  0  0  0
   -4.9702   -5.7293   -1.7454 H   0  0  0  0  0  0  0  0  0  0  0  0
    1.6655    0.1783    2.0925 H   0  0  0  0  0  0  0  0  0  0  0  0
   -1.6673   -1.2651   -0.5108 H   0  0  0  0  0  0  0  0  0  0  0  0
   -3.3564   -2.9168   -0.5985 H   0  0  0  0  0  0  0  0  0  0  0  0
   -0.2170   -1.7867    2.8623 H   0  0  0  0  0  0  0  0  0  0  0  0
   -7.8652   -3.4826    0.5647 H   0  0  0  0  0  0  0  0  0  0  0  0
   -6.5924   -5.4141   -3.0975 H   0  0  0  0  0  0  0  0  0  0  0  0
    1.6932   -4.8652    0.0091 H   0  0  0  0  0  0  0  0  0  0  0  0
   -0.6014   -5.4357   -0.3799 H   0  0  0  0  0  0  0  0  0  0  0  0
   -8.8947   -6.2272   -3.4526 H   0  0  0  0  0  0  0  0  0  0  0  0
  -10.1836   -4.3005    0.1460 H   0  0  0  0  0  0  0  0  0  0  0  0
   -0.9206    2.3580    1.9114 H   0  0  0  0  0  0  0  0  0  0  0  0
    3.1581   -3.2174    1.1406 H   0  0  0  0  0  0  0  0  0  0  0  0
    3.4524   -2.7334   -0.5423 H   0  0  0  0  0  0  0  0  0  0  0  0
    3.1016   -1.5322    0.7249 H   0  0  0  0  0  0  0  0  0  0  0  0
   -2.3878   -1.8792    4.0387 H   0  0  0  0  0  0  0  0  0  0  0  0
   -3.0736    2.2671    3.1339 H   0  0  0  0  0  0  0  0  0  0  0  0
   -3.8178    0.1451    4.1842 H   0  0  0  0  0  0  0  0  0  0  0  0
  2  5  1  0  0  0  0
  2 31  1  0  0  0  0
  3  1  1  0  0  0  0
  3 32  1  0  0  0  0
  4  1  1  0  0  0  0
  5 11  1  0  0  0  0
  6  2  1  0  0  0  0
  7  3  1  0  0  0  0
  8  4  2  0  0  0  0
  8 33  1  0  0  0  0
  9  1  2  0  0  0  0
 10  1  2  0  0  0  0
 11 14  1  0  0  0  0
 11 34  1  0  0  0  0
 12  5  2  0  0  0  0
 13  6  1  0  0  0  0
 14  8  1  0  0  0  0
 15  4  1  0  0  0  0
 16  6  2  0  0  0  0
 17  7  2  0  0  0  0
 17 35  1  0  0  0  0
 18 13  2  0  0  0  0
 18 36  1  0  0  0  0
 19 13  1  0  0  0  0
 19 37  1  0  0  0  0
 20 15  2  0  0  0  0
 20 38  1  0  0  0  0
 21 20  1  0  0  0  0
 21 14  2  0  0  0  0
 21 39  1  0  0  0  0
 22 23  1  0  0  0  0
 23 19  2  0  0  0  0
 23 40  1  0  0  0  0
 24 18  1  0  0  0  0
 24 22  2  0  0  0  0
 24 41  1  0  0  0  0
 25 22  1  0  0  0  0
 26  7  1  0  0  0  0
 26 42  1  0  0  0  0
 27 15  1  0  0  0  0
 27 43  1  0  0  0  0
 27 44  1  0  0  0  0
 27 45  1  0  0  0  0
 28 17  1  0  0  0  0
 28 30  2  0  0  0  0
 28 46  1  0  0  0  0
 29 26  2  0  0  0  0
 29 47  1  0  0  0  0
 30 29  1  0  0  0  0
 30 48  1  0  0  0  0
M  END
>  <Mol_ID>
8096

>  <Formula>
C21H17ClFN3O3S2

>  <MolWeight>
477.9593832

>  <Cat>
P2802

>  <Name>
WAY-381644

>  <Synonyms>
N/A

>  <Target>
phosphatidylcholine transfer protein

>  <Form>
free base

>  <CAS>
379713-58-3

>  <URL>
N/A

$$$$
