WAY-332041
 OpenBabel08302521443D

 49 51  0  0  0  0  0  0  0  0999 V2000
   -0.9963    0.6495    0.6135 N   0  0  0  0  0  0  0  0  0  0  0  0
    0.1407    1.0949   -0.0375 C   0  0  0  0  0  0  0  0  0  0  0  0
   -0.9879   -0.6623    0.4318 C   0  0  0  0  0  0  0  0  0  0  0  0
    0.1135   -1.1173   -0.2455 O   0  0  0  0  0  0  0  0  0  0  0  0
    0.8228    0.0092   -0.5485 C   0  0  0  0  0  0  0  0  0  0  0  0
   -0.2218    3.2353   -1.6816 S   0  0  3  0  0  0  0  0  0  0  0  0
    0.4705    2.5430   -0.1369 C   0  0  0  0  0  0  0  0  0  0  0  0
    0.3819    4.9405   -1.4428 C   0  0  0  0  0  0  0  0  0  0  0  0
   -1.9875   -1.6654    0.8067 C   0  0  0  0  0  0  0  0  0  0  0  0
   -0.1327    5.8861   -2.5209 C   0  0  0  0  0  0  0  0  0  0  0  0
   -0.1978    7.2129   -2.1315 N   0  0  0  0  0  0  0  0  0  0  0  0
    0.5623    2.6290   -2.8101 O   0  0  0  0  0  0  0  0  0  0  0  0
   -1.8391   -3.0267    0.4818 C   0  0  0  0  0  0  0  0  0  0  0  0
   -0.4510    5.5328   -3.6513 O   0  0  0  0  0  0  0  0  0  0  0  0
   -0.6442    8.2520   -3.0422 C   0  0  0  0  0  0  0  0  0  0  0  0
   -4.0782   10.4038   -1.5943 C   0  0  0  0  0  0  0  0  0  0  0  0
   -1.8300    9.0057   -2.4916 C   0  0  0  0  0  0  0  0  0  0  0  0
   -2.8277   -3.9687    0.8145 C   0  0  0  0  0  0  0  0  0  0  0  0
   -5.1593   11.0798   -1.1805 F   0  0  0  0  0  0  0  0  0  0  0  0
   -2.8823   11.0848   -1.7975 C   0  0  0  0  0  0  0  0  0  0  0  0
   -4.1681    9.0396   -1.8208 C   0  0  0  0  0  0  0  0  0  0  0  0
   -1.7582   10.3878   -2.2460 C   0  0  0  0  0  0  0  0  0  0  0  0
   -3.0490    8.3403   -2.2724 C   0  0  0  0  0  0  0  0  0  0  0  0
    2.0522   -0.1752   -1.3385 C   0  0  0  0  0  0  0  0  0  0  0  0
   -3.1441   -1.2694    1.4925 C   0  0  0  0  0  0  0  0  0  0  0  0
   -4.1317   -2.1988    1.8309 C   0  0  0  0  0  0  0  0  0  0  0  0
   -3.9750   -3.5412    1.4915 C   0  0  0  0  0  0  0  0  0  0  0  0
   -2.6789   -5.4161    0.4447 C   0  0  0  0  0  0  0  0  0  0  0  0
    0.0582    3.0914    0.7155 H   0  0  0  0  0  0  0  0  0  0  0  0
    1.5555    2.6916   -0.1536 H   0  0  0  0  0  0  0  0  0  0  0  0
    0.0465    5.2891   -0.4611 H   0  0  0  0  0  0  0  0  0  0  0  0
    1.4757    4.9325   -1.4731 H   0  0  0  0  0  0  0  0  0  0  0  0
    0.1100    7.4999   -1.2131 H   0  0  0  0  0  0  0  0  0  0  0  0
   -0.9494   -3.3585   -0.0507 H   0  0  0  0  0  0  0  0  0  0  0  0
   -0.9080    7.8423   -4.0236 H   0  0  0  0  0  0  0  0  0  0  0  0
    0.2064    8.9265   -3.1918 H   0  0  0  0  0  0  0  0  0  0  0  0
   -2.8410   12.1562   -1.6197 H   0  0  0  0  0  0  0  0  0  0  0  0
   -5.1154    8.5274   -1.6624 H   0  0  0  0  0  0  0  0  0  0  0  0
   -0.8350   10.9358   -2.4202 H   0  0  0  0  0  0  0  0  0  0  0  0
   -3.1298    7.2727   -2.4764 H   0  0  0  0  0  0  0  0  0  0  0  0
    2.7354   -0.8620   -0.8290 H   0  0  0  0  0  0  0  0  0  0  0  0
    1.8144   -0.5924   -2.3217 H   0  0  0  0  0  0  0  0  0  0  0  0
    2.5763    0.7731   -1.4883 H   0  0  0  0  0  0  0  0  0  0  0  0
   -3.2882   -0.2234    1.7561 H   0  0  0  0  0  0  0  0  0  0  0  0
   -5.0279   -1.8724    2.3520 H   0  0  0  0  0  0  0  0  0  0  0  0
   -4.7549   -4.2541    1.7529 H   0  0  0  0  0  0  0  0  0  0  0  0
   -2.6938   -6.0403    1.3443 H   0  0  0  0  0  0  0  0  0  0  0  0
   -3.4970   -5.7217   -0.2161 H   0  0  0  0  0  0  0  0  0  0  0  0
   -1.7364   -5.6045   -0.0795 H   0  0  0  0  0  0  0  0  0  0  0  0
  2  1  1  0  0  0  0
  3  1  2  0  0  0  0
  4  3  1  0  0  0  0
  4  5  1  0  0  0  0
  5  2  2  0  0  0  0
  6  7  1  0  0  0  0
  7  2  1  0  0  0  0
  7 29  1  0  0  0  0
  7 30  1  0  0  0  0
  8  6  1  0  0  0  0
  8 31  1  0  0  0  0
  8 32  1  0  0  0  0
  9  3  1  0  0  0  0
 10  8  1  0  0  0  0
 11 10  1  0  0  0  0
 11 33  1  0  0  0  0
 12  6  2  0  0  0  0
 13  9  2  0  0  0  0
 13 34  1  0  0  0  0
 14 10  2  0  0  0  0
 15 11  1  0  0  0  0
 15 35  1  0  0  0  0
 15 36  1  0  0  0  0
 16 21  2  0  0  0  0
 17 15  1  0  0  0  0
 18 13  1  0  0  0  0
 19 16  1  0  0  0  0
 20 22  2  0  0  0  0
 20 16  1  0  0  0  0
 20 37  1  0  0  0  0
 21 23  1  0  0  0  0
 21 38  1  0  0  0  0
 22 17  1  0  0  0  0
 22 39  1  0  0  0  0
 23 17  2  0  0  0  0
 23 40  1  0  0  0  0
 24  5  1  0  0  0  0
 24 41  1  0  0  0  0
 24 42  1  0  0  0  0
 24 43  1  0  0  0  0
 25  9  1  0  0  0  0
 25 44  1  0  0  0  0
 26 25  2  0  0  0  0
 26 45  1  0  0  0  0
 27 26  1  0  0  0  0
 27 18  2  0  0  0  0
 27 46  1  0  0  0  0
 28 18  1  0  0  0  0
 28 47  1  0  0  0  0
 28 48  1  0  0  0  0
 28 49  1  0  0  0  0
M  END
>  <Mol_ID>
9212

>  <Formula>
C21H21FN2O3S

>  <MolWeight>
400.4664432

>  <Cat>
P2689

>  <Name>
WAY-332041

>  <Synonyms>
N/A

>  <Target>
beta-catenin

>  <Form>
free base

>  <CAS>
1015858-44-2

>  <URL>
N/A

$$$$
