WAY-326843
 OpenBabel08302521443D

 55 58  0  0  0  0  0  0  0  0999 V2000
    0.2941    1.9513    0.2429 C   0  0  3  0  0  0  0  0  0  0  0  0
    2.3538    0.5204    0.0579 N   0  0  0  0  0  0  0  0  0  0  0  0
    1.6666   -0.6247    0.4589 C   0  0  0  0  0  0  0  0  0  0  0  0
    1.6377    1.6792   -0.5406 C   0  0  3  0  0  0  0  0  0  0  0  0
   -0.4591    3.1661   -0.3700 C   0  0  0  0  0  0  0  0  0  0  0  0
   -0.5036    0.6279    0.2014 C   0  0  0  0  0  0  0  0  0  0  0  0
    0.1921   -0.5940    0.3023 C   0  0  0  0  0  0  0  0  0  0  0  0
   -0.4344    4.4680   -0.0012 N   0  0  0  0  0  0  0  0  0  0  0  0
    1.4208    1.5489   -2.0612 C   0  0  0  0  0  0  0  0  0  0  0  0
    2.2164   -1.6531    0.8393 O   0  0  0  0  0  0  0  0  0  0  0  0
   -1.1734    3.0027   -1.3733 O   0  0  0  0  0  0  0  0  0  0  0  0
   -0.1560    5.2363    1.1364 C   0  0  0  0  0  0  0  0  0  0  0  0
    0.4805    4.7867    2.2795 C   0  0  0  0  0  0  0  0  0  0  0  0
    1.1627    0.3264   -2.7015 C   0  0  0  0  0  0  0  0  0  0  0  0
    1.2859    2.7184   -2.8286 C   0  0  0  0  0  0  0  0  0  0  0  0
    3.7755    0.3484   -0.2030 C   0  0  0  0  0  0  0  0  0  0  0  0
    0.4739    5.5800    3.4370 C   0  0  0  0  0  0  0  0  0  0  0  0
    0.4561    1.4525   -4.7270 C   0  0  0  0  0  0  0  0  0  0  0  0
   -1.8820    0.5798   -0.0625 C   0  0  0  0  0  0  0  0  0  0  0  0
    0.6710    0.2785   -4.0124 C   0  0  0  0  0  0  0  0  0  0  0  0
    0.7815    2.6700   -4.1327 C   0  0  0  0  0  0  0  0  0  0  0  0
   -0.4610   -1.8161    0.0559 C   0  0  0  0  0  0  0  0  0  0  0  0
    0.9510    5.1765    4.6577 O   0  0  0  0  0  0  0  0  0  0  0  0
   -0.0590    1.5429   -5.9903 O   0  0  0  0  0  0  0  0  0  0  0  0
   -0.6226    7.3658    2.2440 C   0  0  0  0  0  0  0  0  0  0  0  0
   -0.6691    6.5497    1.1146 C   0  0  0  0  0  0  0  0  0  0  0  0
   -0.0693    6.8673    3.4162 C   0  0  0  0  0  0  0  0  0  0  0  0
   -0.4069    0.3191   -6.6262 C   0  0  0  0  0  0  0  0  0  0  0  0
    1.1149    3.7702    4.8097 C   0  0  0  0  0  0  0  0  0  0  0  0
   -2.5036   -0.6273   -0.3890 C   0  0  0  0  0  0  0  0  0  0  0  0
   -1.7964   -1.8233   -0.3394 C   0  0  0  0  0  0  0  0  0  0  0  0
    0.5123    2.1348    1.2969 H   0  0  0  0  0  0  0  0  0  0  0  0
    2.2973    2.5415   -0.3758 H   0  0  0  0  0  0  0  0  0  0  0  0
   -1.0088    4.9558   -0.6862 H   0  0  0  0  0  0  0  0  0  0  0  0
    0.9712    3.8282    2.2913 H   0  0  0  0  0  0  0  0  0  0  0  0
    1.2820   -0.6215   -2.1864 H   0  0  0  0  0  0  0  0  0  0  0  0
    1.4616    3.6960   -2.3848 H   0  0  0  0  0  0  0  0  0  0  0  0
    4.2406   -0.2110    0.6171 H   0  0  0  0  0  0  0  0  0  0  0  0
    3.9012   -0.2367   -1.1209 H   0  0  0  0  0  0  0  0  0  0  0  0
    4.2724    1.3142   -0.3014 H   0  0  0  0  0  0  0  0  0  0  0  0
   -2.4810    1.4848   -0.1263 H   0  0  0  0  0  0  0  0  0  0  0  0
    0.4321   -0.6957   -4.4251 H   0  0  0  0  0  0  0  0  0  0  0  0
    0.5912    3.5967   -4.6681 H   0  0  0  0  0  0  0  0  0  0  0  0
    0.0943   -2.7503    0.0810 H   0  0  0  0  0  0  0  0  0  0  0  0
   -1.0516    8.3650    2.2196 H   0  0  0  0  0  0  0  0  0  0  0  0
   -1.1547    6.9456    0.2240 H   0  0  0  0  0  0  0  0  0  0  0  0
   -0.0797    7.4728    4.3195 H   0  0  0  0  0  0  0  0  0  0  0  0
    0.4476   -0.3639   -6.6738 H   0  0  0  0  0  0  0  0  0  0  0  0
   -1.2619   -0.1515   -6.1288 H   0  0  0  0  0  0  0  0  0  0  0  0
   -0.7000    0.5476   -7.6552 H   0  0  0  0  0  0  0  0  0  0  0  0
    0.2691    3.2081    4.3952 H   0  0  0  0  0  0  0  0  0  0  0  0
    2.0556    3.4560    4.3472 H   0  0  0  0  0  0  0  0  0  0  0  0
    1.1615    3.5448    5.8778 H   0  0  0  0  0  0  0  0  0  0  0  0
   -3.5370   -0.6198   -0.7286 H   0  0  0  0  0  0  0  0  0  0  0  0
   -2.2747   -2.7540   -0.6342 H   0  0  0  0  0  0  0  0  0  0  0  0
  1 32  1  0  0  0  0
  2  4  1  0  0  0  0
  3  7  1  0  0  0  0
  3  2  1  0  0  0  0
  4  1  1  0  0  0  0
  4 33  1  0  0  0  0
  5  1  1  0  0  0  0
  6  1  1  0  0  0  0
  7  6  2  0  0  0  0
  8  5  1  0  0  0  0
  8 34  1  0  0  0  0
  9  4  1  0  0  0  0
 10  3  2  0  0  0  0
 11  5  2  0  0  0  0
 12  8  1  0  0  0  0
 13 12  2  0  0  0  0
 13 35  1  0  0  0  0
 14  9  2  0  0  0  0
 14 36  1  0  0  0  0
 15  9  1  0  0  0  0
 15 37  1  0  0  0  0
 16  2  1  0  0  0  0
 16 38  1  0  0  0  0
 16 39  1  0  0  0  0
 16 40  1  0  0  0  0
 17 13  1  0  0  0  0
 17 27  2  0  0  0  0
 18 21  1  0  0  0  0
 18 20  2  0  0  0  0
 19  6  1  0  0  0  0
 19 41  1  0  0  0  0
 20 14  1  0  0  0  0
 20 42  1  0  0  0  0
 21 15  2  0  0  0  0
 21 43  1  0  0  0  0
 22  7  1  0  0  0  0
 22 44  1  0  0  0  0
 23 17  1  0  0  0  0
 24 18  1  0  0  0  0
 25 26  2  0  0  0  0
 25 45  1  0  0  0  0
 26 12  1  0  0  0  0
 26 46  1  0  0  0  0
 27 25  1  0  0  0  0
 27 47  1  0  0  0  0
 28 24  1  0  0  0  0
 28 48  1  0  0  0  0
 28 49  1  0  0  0  0
 28 50  1  0  0  0  0
 29 23  1  0  0  0  0
 29 51  1  0  0  0  0
 29 52  1  0  0  0  0
 29 53  1  0  0  0  0
 30 19  2  0  0  0  0
 30 54  1  0  0  0  0
 31 30  1  0  0  0  0
 31 22  2  0  0  0  0
 31 55  1  0  0  0  0
M  END
>  <Mol_ID>
8944

>  <Formula>
C25H24N2O4

>  <MolWeight>
416.46906

>  <Cat>
P2503

>  <Name>
WAY-326843

>  <Synonyms>
N/A

>  <Target>
Anti-infection

>  <Form>
free base

>  <CAS>
442889-30-7

>  <URL>
N/A

$$$$
