WAY-659490
 OpenBabel08302521433D

 47 49  0  0  0  0  0  0  0  0999 V2000
    0.2219   -0.5325    0.0287 C   0  0  0  0  0  0  0  0  0  0  0  0
    0.1646    0.8326    0.0109 C   0  0  0  0  0  0  0  0  0  0  0  0
   -0.9224   -1.3136    0.0639 N   0  0  0  0  0  0  0  0  0  0  0  0
    1.5108   -0.9747    0.0076 N   0  0  0  0  0  0  0  0  0  0  0  0
   -2.1625   -0.6724    0.0536 C   0  0  0  0  0  0  0  0  0  0  0  0
   -2.1614    0.7062    0.0349 N   0  0  0  0  0  0  0  0  0  0  0  0
   -1.0708    1.5410    0.0028 C   0  0  0  0  0  0  0  0  0  0  0  0
    1.4695    1.2517   -0.0027 N   0  0  0  0  0  0  0  0  0  0  0  0
    2.2701    0.1156    0.0192 C   0  0  0  0  0  0  0  0  0  0  0  0
    9.0769    2.1287    3.6242 C   0  0  0  0  0  0  0  0  0  0  0  0
    8.3415    1.4751    2.4788 C   0  0  0  0  0  0  0  0  0  0  0  0
   -3.2439   -1.2597    0.0477 O   0  0  0  0  0  0  0  0  0  0  0  0
   -1.1979    2.7598   -0.0402 O   0  0  0  0  0  0  0  0  0  0  0  0
    3.7826    0.1237    0.0167 C   0  0  0  0  0  0  0  0  0  0  0  0
    6.9360    1.4404    2.4482 C   0  0  0  0  0  0  0  0  0  0  0  0
    4.4455    0.8340    1.5690 S   0  0  0  0  0  0  0  0  0  0  0  0
    8.2540    2.6830    4.5581 F   0  0  0  0  0  0  0  0  0  0  0  0
    9.8711    1.2537    4.3014 F   0  0  0  0  0  0  0  0  0  0  0  0
    9.8980    3.1341    3.2109 F   0  0  0  0  0  0  0  0  0  0  0  0
   -0.8813   -2.7696    0.0204 C   0  0  0  0  0  0  0  0  0  0  0  0
    6.2277    0.8234    1.4013 C   0  0  0  0  0  0  0  0  0  0  0  0
    1.9266    2.6211   -0.0278 C   0  0  0  0  0  0  0  0  0  0  0  0
    9.0501    0.8778    1.4289 C   0  0  0  0  0  0  0  0  0  0  0  0
    8.3609    0.2697    0.3787 C   0  0  0  0  0  0  0  0  0  0  0  0
    6.9594    0.2426    0.3622 C   0  0  0  0  0  0  0  0  0  0  0  0
   -0.1370   -3.4397    1.1774 C   0  0  0  0  0  0  0  0  0  0  0  0
   -0.7272   -3.1352    2.5543 C   0  0  0  0  0  0  0  0  0  0  0  0
    0.0771   -3.8360    3.6404 C   0  0  0  0  0  0  0  0  0  0  0  0
   -3.0666    1.1475    0.0127 H   0  0  0  0  0  0  0  0  0  0  0  0
    4.1383   -0.9090   -0.0667 H   0  0  0  0  0  0  0  0  0  0  0  0
    4.1479    0.6841   -0.8499 H   0  0  0  0  0  0  0  0  0  0  0  0
    6.3833    1.9004    3.2684 H   0  0  0  0  0  0  0  0  0  0  0  0
   -1.8997   -3.1749   -0.0154 H   0  0  0  0  0  0  0  0  0  0  0  0
   -0.4100   -3.0510   -0.9290 H   0  0  0  0  0  0  0  0  0  0  0  0
    2.4695    2.8304    0.8949 H   0  0  0  0  0  0  0  0  0  0  0  0
    2.5667    2.7586   -0.9020 H   0  0  0  0  0  0  0  0  0  0  0  0
    1.0859    3.3104   -0.0918 H   0  0  0  0  0  0  0  0  0  0  0  0
   10.1394    0.8828    1.4327 H   0  0  0  0  0  0  0  0  0  0  0  0
    8.9251   -0.1953   -0.4322 H   0  0  0  0  0  0  0  0  0  0  0  0
    6.4686   -0.2513   -0.4705 H   0  0  0  0  0  0  0  0  0  0  0  0
   -0.1659   -4.5243    1.0125 H   0  0  0  0  0  0  0  0  0  0  0  0
    0.9201   -3.1559    1.1632 H   0  0  0  0  0  0  0  0  0  0  0  0
   -0.7207   -2.0567    2.7466 H   0  0  0  0  0  0  0  0  0  0  0  0
   -1.7701   -3.4695    2.6007 H   0  0  0  0  0  0  0  0  0  0  0  0
    0.0616   -4.9217    3.4991 H   0  0  0  0  0  0  0  0  0  0  0  0
    1.1211   -3.5055    3.6251 H   0  0  0  0  0  0  0  0  0  0  0  0
   -0.3350   -3.6146    4.6293 H   0  0  0  0  0  0  0  0  0  0  0  0
  2  1  2  0  0  0  0
  3  1  1  0  0  0  0
  4  1  1  0  0  0  0
  5  3  1  0  0  0  0
  6  5  1  0  0  0  0
  6  7  1  0  0  0  0
  6 29  1  0  0  0  0
  7  2  1  0  0  0  0
  8  2  1  0  0  0  0
  9  4  2  0  0  0  0
  9  8  1  0  0  0  0
 10 11  1  0  0  0  0
 11 15  2  0  0  0  0
 12  5  2  0  0  0  0
 13  7  2  0  0  0  0
 14  9  1  0  0  0  0
 14 30  1  0  0  0  0
 14 31  1  0  0  0  0
 15 21  1  0  0  0  0
 15 32  1  0  0  0  0
 16 14  1  0  0  0  0
 17 10  1  0  0  0  0
 18 10  1  0  0  0  0
 19 10  1  0  0  0  0
 20  3  1  0  0  0  0
 20 33  1  0  0  0  0
 20 34  1  0  0  0  0
 21 16  1  0  0  0  0
 22  8  1  0  0  0  0
 22 35  1  0  0  0  0
 22 36  1  0  0  0  0
 22 37  1  0  0  0  0
 23 24  2  0  0  0  0
 23 11  1  0  0  0  0
 23 38  1  0  0  0  0
 24 25  1  0  0  0  0
 24 39  1  0  0  0  0
 25 21  2  0  0  0  0
 25 40  1  0  0  0  0
 26 20  1  0  0  0  0
 26 41  1  0  0  0  0
 26 42  1  0  0  0  0
 27 26  1  0  0  0  0
 27 43  1  0  0  0  0
 27 44  1  0  0  0  0
 28 27  1  0  0  0  0
 28 45  1  0  0  0  0
 28 46  1  0  0  0  0
 28 47  1  0  0  0  0
M  END
>  <Mol_ID>
8838

>  <Formula>
C18H19F3N4O2S

>  <MolWeight>
412.4292696

>  <Cat>
P3185

>  <Name>
WAY-659490

>  <Synonyms>
N/A

>  <Target>
peroxidase system

>  <Form>
free base

>  <CAS>
865279-64-7

>  <URL>
N/A

$$$$
