WAY-604596-A
 OpenBabel08302521393D

 40 42  0  0  0  0  0  0  0  0999 V2000
   -0.9733   -0.6475    0.0066 C   0  0  0  0  0  0  0  0  0  0  0  0
   -0.9827    0.7132    0.0128 C   0  0  0  0  0  0  0  0  0  0  0  0
   -2.2901   -1.0133   -0.0041 N   0  0  0  0  0  0  0  0  0  0  0  0
    0.2144   -1.4245    0.0123 C   0  0  0  0  0  0  0  0  0  0  0  0
   -2.2495    1.2178    0.0152 N   0  0  0  0  0  0  0  0  0  0  0  0
    0.1824    1.4398    0.0179 N   0  0  0  0  0  0  0  0  0  0  0  0
   -3.0156    0.1494    0.0089 C   0  0  0  0  0  0  0  0  0  0  0  0
    1.3746   -0.6388    0.0290 N   0  0  0  0  0  0  0  0  0  0  0  0
    0.2035   -2.6506    0.0058 O   0  0  0  0  0  0  0  0  0  0  0  0
    1.4102    0.7714    0.0294 C   0  0  0  0  0  0  0  0  0  0  0  0
    0.1309    2.8897    0.0164 C   0  0  0  0  0  0  0  0  0  0  0  0
   -4.7380    0.0992    0.0199 S   0  0  0  0  0  0  0  0  0  0  0  0
    2.6360   -1.3550    0.0539 C   0  0  0  0  0  0  0  0  0  0  0  0
    2.4784    1.3899    0.0395 O   0  0  0  0  0  0  0  0  0  0  0  0
   -5.1335    1.8794    0.0639 C   0  0  0  0  0  0  0  0  0  0  0  0
   -6.6360    2.1334    0.0988 C   0  0  0  0  0  0  0  0  0  0  0  0
   -7.1165    3.5558    0.1471 C   0  0  0  0  0  0  0  0  0  0  0  0
   -7.4801    1.2379    0.0898 O   0  0  0  0  0  0  0  0  0  0  0  0
   -6.2435    4.6499    0.1683 C   0  0  0  0  0  0  0  0  0  0  0  0
   -8.4990    3.7948    0.1749 C   0  0  0  0  0  0  0  0  0  0  0  0
   -6.7478    5.9570    0.2191 C   0  0  0  0  0  0  0  0  0  0  0  0
   -8.9996    5.1001    0.2242 C   0  0  0  0  0  0  0  0  0  0  0  0
   -8.1271    6.1925    0.2484 C   0  0  0  0  0  0  0  0  0  0  0  0
   -8.6752    7.5893    0.3041 C   0  0  0  0  0  0  0  0  0  0  0  0
   -2.6634   -1.9532   -0.0149 H   0  0  0  0  0  0  0  0  0  0  0  0
   -0.4238    3.2248   -0.8658 H   0  0  0  0  0  0  0  0  0  0  0  0
   -0.3831    3.2273    0.9221 H   0  0  0  0  0  0  0  0  0  0  0  0
    1.1280    3.3356   -0.0079 H   0  0  0  0  0  0  0  0  0  0  0  0
    2.6773   -1.9687    0.9599 H   0  0  0  0  0  0  0  0  0  0  0  0
    2.6879   -2.0210   -0.8144 H   0  0  0  0  0  0  0  0  0  0  0  0
    3.5045   -0.6912    0.0395 H   0  0  0  0  0  0  0  0  0  0  0  0
   -4.6841    2.3114    0.9635 H   0  0  0  0  0  0  0  0  0  0  0  0
   -4.7198    2.3478   -0.8345 H   0  0  0  0  0  0  0  0  0  0  0  0
   -5.1652    4.5238    0.1475 H   0  0  0  0  0  0  0  0  0  0  0  0
   -9.2013    2.9626    0.1574 H   0  0  0  0  0  0  0  0  0  0  0  0
   -6.0514    6.7935    0.2365 H   0  0  0  0  0  0  0  0  0  0  0  0
  -10.0765    5.2567    0.2448 H   0  0  0  0  0  0  0  0  0  0  0  0
   -9.2941    7.7887   -0.5768 H   0  0  0  0  0  0  0  0  0  0  0  0
   -9.2812    7.7227    1.2063 H   0  0  0  0  0  0  0  0  0  0  0  0
   -7.8740    8.3354    0.3265 H   0  0  0  0  0  0  0  0  0  0  0  0
  1  2  2  0  0  0  0
  1  3  1  0  0  0  0
  1  4  1  0  0  0  0
  2  5  1  0  0  0  0
  2  6  1  0  0  0  0
  3  7  1  0  0  0  0
  3 25  1  0  0  0  0
  4  8  1  0  0  0  0
  4  9  2  0  0  0  0
  5  7  2  0  0  0  0
  6 10  1  0  0  0  0
  6 11  1  0  0  0  0
  7 12  1  0  0  0  0
  8 13  1  0  0  0  0
  8 10  1  0  0  0  0
 10 14  2  0  0  0  0
 11 26  1  0  0  0  0
 11 27  1  0  0  0  0
 11 28  1  0  0  0  0
 12 15  1  0  0  0  0
 13 29  1  0  0  0  0
 13 30  1  0  0  0  0
 13 31  1  0  0  0  0
 15 16  1  0  0  0  0
 15 32  1  0  0  0  0
 15 33  1  0  0  0  0
 16 17  1  0  0  0  0
 16 18  2  0  0  0  0
 17 19  2  0  0  0  0
 17 20  1  0  0  0  0
 19 21  1  0  0  0  0
 19 34  1  0  0  0  0
 20 22  2  0  0  0  0
 20 35  1  0  0  0  0
 21 23  2  0  0  0  0
 21 36  1  0  0  0  0
 22 23  1  0  0  0  0
 22 37  1  0  0  0  0
 23 24  1  0  0  0  0
 24 38  1  0  0  0  0
 24 39  1  0  0  0  0
 24 40  1  0  0  0  0
M  END
>  <Mol_ID>
8121

>  <Formula>
C16H16N4O3S

>  <MolWeight>
344.38824

>  <Cat>
P2834

>  <Name>
WAY-604596-A

>  <Synonyms>
N/A

>  <Target>
others

>  <Form>
free base

>  <CAS>
380170-62-7

>  <URL>
N/A

$$$$
