WAY-639418
 OpenBabel08302521343D

 39 42  0  0  0  0  0  0  0  0999 V2000
   -0.6254    0.3925   -3.8242 C   0  0  0  0  0  0  0  0  0  0  0  0
   -0.8064    1.1089   -2.6406 C   0  0  0  0  0  0  0  0  0  0  0  0
   -0.6269   -0.9915   -3.7898 C   0  0  0  0  0  0  0  0  0  0  0  0
   -1.0086    0.4799   -1.4191 C   0  0  0  0  0  0  0  0  0  0  0  0
   -0.7926   -1.6446   -2.5691 C   0  0  0  0  0  0  0  0  0  0  0  0
   -1.0095   -0.9353   -1.3596 C   0  0  0  0  0  0  0  0  0  0  0  0
   -1.1663    1.2631   -0.3425 N   0  0  0  0  0  0  0  0  0  0  0  0
   -1.1689   -1.5484   -0.0800 C   0  0  0  0  0  0  0  0  0  0  0  0
   -1.3356    0.6630    0.8475 C   0  0  0  0  0  0  0  0  0  0  0  0
   -1.3503   -0.7061    1.0233 C   0  0  0  0  0  0  0  0  0  0  0  0
   -1.0329   -2.9238    0.0992 N   0  0  0  0  0  0  0  0  0  0  0  0
   -0.4541   -3.4368    1.3585 C   0  0  0  0  0  0  0  0  0  0  0  0
   -1.9986   -3.8734   -0.5023 C   0  0  0  0  0  0  0  0  0  0  0  0
    0.3197   -4.7329    1.0584 C   0  0  0  0  0  0  0  0  0  0  0  0
   -1.2822   -5.2227   -0.7940 C   0  0  0  0  0  0  0  0  0  0  0  0
   -0.5595   -5.6936    0.3920 N   0  0  0  0  0  0  0  0  0  0  0  0
   -0.7410   -6.9435    0.9118 C   0  0  0  0  0  0  0  0  0  0  0  0
   -0.0995   -7.2658    2.0481 N   0  0  0  0  0  0  0  0  0  0  0  0
   -1.5517   -7.8057    0.2768 N   0  0  0  0  0  0  0  0  0  0  0  0
   -0.2790   -8.4996    2.5545 C   0  0  0  0  0  0  0  0  0  0  0  0
   -1.7030   -9.0326    0.8152 C   0  0  0  0  0  0  0  0  0  0  0  0
   -1.0863   -9.4382    1.9708 C   0  0  0  0  0  0  0  0  0  0  0  0
   -0.4713    0.9195   -4.7613 H   0  0  0  0  0  0  0  0  0  0  0  0
   -0.7788    2.1959   -2.6687 H   0  0  0  0  0  0  0  0  0  0  0  0
   -0.4840   -1.5660   -4.7009 H   0  0  0  0  0  0  0  0  0  0  0  0
   -0.7367   -2.7279   -2.5671 H   0  0  0  0  0  0  0  0  0  0  0  0
   -1.4488    1.3348    1.6933 H   0  0  0  0  0  0  0  0  0  0  0  0
   -1.4913   -1.1002    2.0229 H   0  0  0  0  0  0  0  0  0  0  0  0
    0.2448   -2.7215    1.8064 H   0  0  0  0  0  0  0  0  0  0  0  0
   -1.2561   -3.6336    2.0825 H   0  0  0  0  0  0  0  0  0  0  0  0
   -2.8225   -4.0447    0.2025 H   0  0  0  0  0  0  0  0  0  0  0  0
   -2.4501   -3.4952   -1.4246 H   0  0  0  0  0  0  0  0  0  0  0  0
    1.1606   -4.5057    0.3910 H   0  0  0  0  0  0  0  0  0  0  0  0
    0.7530   -5.0981    1.9955 H   0  0  0  0  0  0  0  0  0  0  0  0
   -0.5538   -5.0748   -1.6016 H   0  0  0  0  0  0  0  0  0  0  0  0
   -2.0226   -5.9398   -1.1647 H   0  0  0  0  0  0  0  0  0  0  0  0
    0.2624   -8.7085    3.4709 H   0  0  0  0  0  0  0  0  0  0  0  0
   -2.3623   -9.6991    0.2681 H   0  0  0  0  0  0  0  0  0  0  0  0
   -1.2253  -10.4233    2.3901 H   0  0  0  0  0  0  0  0  0  0  0  0
  1  2  2  0  0  0  0
  1  3  1  0  0  0  0
  1 23  1  0  0  0  0
  2  4  1  0  0  0  0
  2 24  1  0  0  0  0
  3  5  2  0  0  0  0
  3 25  1  0  0  0  0
  4  6  2  0  0  0  0
  4  7  1  0  0  0  0
  5  6  1  0  0  0  0
  5 26  1  0  0  0  0
  6  8  1  0  0  0  0
  7  9  2  0  0  0  0
  8 10  2  0  0  0  0
  8 11  1  0  0  0  0
  9 10  1  0  0  0  0
  9 27  1  0  0  0  0
 10 28  1  0  0  0  0
 11 12  1  0  0  0  0
 11 13  1  0  0  0  0
 12 14  1  0  0  0  0
 12 29  1  0  0  0  0
 12 30  1  0  0  0  0
 13 15  1  0  0  0  0
 13 31  1  0  0  0  0
 13 32  1  0  0  0  0
 14 16  1  0  0  0  0
 14 33  1  0  0  0  0
 14 34  1  0  0  0  0
 15 16  1  0  0  0  0
 15 35  1  0  0  0  0
 15 36  1  0  0  0  0
 16 17  1  0  0  0  0
 17 18  2  0  0  0  0
 17 19  1  0  0  0  0
 18 20  1  0  0  0  0
 19 21  2  0  0  0  0
 20 22  2  0  0  0  0
 20 37  1  0  0  0  0
 21 22  1  0  0  0  0
 21 38  1  0  0  0  0
 22 39  1  0  0  0  0
M  END
>  <Mol_ID>
6470

>  <Formula>
C17H16ClN5

>  <MolWeight>
325.79544

>  <Cat>
E2524

>  <Name>
WAY-639418

>  <Target>
Others

>  <Form>
free base

>  <CAS>
643042-43-7

>  <URL>
http://www.selleckchem.com/products/way-639418.html

$$$$
