WAY-331989
 OpenBabel08302521443D

 45 47  0  0  0  0  0  0  0  0999 V2000
   -0.1885   -0.6161    0.1886 C   0  0  0  0  0  0  0  0  0  0  0  0
   -0.0780    0.6734    0.4374 N   0  0  0  0  0  0  0  0  0  0  0  0
   -0.7028    1.3165   -0.6251 C   0  0  0  0  0  0  0  0  0  0  0  0
   -0.8731   -0.8826   -0.9649 O   0  0  0  0  0  0  0  0  0  0  0  0
    0.3394   -1.7677    0.9182 C   0  0  0  0  0  0  0  0  0  0  0  0
   -1.1866    0.3484   -1.4895 C   0  0  0  0  0  0  0  0  0  0  0  0
    1.0844    9.3618   -3.9715 C   0  0  0  0  0  0  0  0  0  0  0  0
   -0.8501    6.4146   -2.7551 C   0  0  0  0  0  0  0  0  0  0  0  0
    1.3719   -1.6037    1.8492 C   0  0  0  0  0  0  0  0  0  0  0  0
    0.2093    7.2876   -2.9604 N   0  0  0  0  0  0  0  0  0  0  0  0
    0.2874    8.0932   -4.1679 C   0  0  0  0  0  0  0  0  0  0  0  0
    2.3244    9.5463   -4.6026 C   0  0  0  0  0  0  0  0  0  0  0  0
   -1.8694    6.4511   -3.4364 O   0  0  0  0  0  0  0  0  0  0  0  0
   -0.8780    3.6965   -2.1712 S   0  0  0  0  0  0  0  0  0  0  0  0
   -0.7498    2.8197   -0.5838 C   0  0  0  0  0  0  0  0  0  0  0  0
    1.8893   -0.3905    2.0966 F   0  0  0  0  0  0  0  0  0  0  0  0
   -0.1450   -3.0710    0.7065 C   0  0  0  0  0  0  0  0  0  0  0  0
   -0.6681    5.4304   -1.5889 C   0  0  0  0  0  0  0  0  0  0  0  0
   -1.9129    0.2939   -2.7732 C   0  0  0  0  0  0  0  0  0  0  0  0
    0.5749   10.4049   -3.1823 C   0  0  0  0  0  0  0  0  0  0  0  0
    1.9202   -2.6894    2.5342 C   0  0  0  0  0  0  0  0  0  0  0  0
    3.0420   10.7323   -4.4371 C   0  0  0  0  0  0  0  0  0  0  0  0
    0.3975   -4.1656    1.3959 C   0  0  0  0  0  0  0  0  0  0  0  0
    1.2925   11.5902   -3.0153 C   0  0  0  0  0  0  0  0  0  0  0  0
    1.4348   -3.9752    2.3067 C   0  0  0  0  0  0  0  0  0  0  0  0
    2.5293   11.7539   -3.6405 C   0  0  0  0  0  0  0  0  0  0  0  0
    1.0688    7.1604   -2.4446 H   0  0  0  0  0  0  0  0  0  0  0  0
    0.7663    7.4630   -4.9266 H   0  0  0  0  0  0  0  0  0  0  0  0
   -0.7121    8.3375   -4.5444 H   0  0  0  0  0  0  0  0  0  0  0  0
    2.7372    8.7727   -5.2473 H   0  0  0  0  0  0  0  0  0  0  0  0
   -1.5800    3.1237    0.0634 H   0  0  0  0  0  0  0  0  0  0  0  0
    0.1784    3.1612   -0.1107 H   0  0  0  0  0  0  0  0  0  0  0  0
   -0.9537   -3.2508   -0.0001 H   0  0  0  0  0  0  0  0  0  0  0  0
   -1.4122    5.6726   -0.8225 H   0  0  0  0  0  0  0  0  0  0  0  0
    0.3305    5.5348   -1.1548 H   0  0  0  0  0  0  0  0  0  0  0  0
   -1.4033   -0.3912   -3.4616 H   0  0  0  0  0  0  0  0  0  0  0  0
   -2.9289   -0.0838   -2.6215 H   0  0  0  0  0  0  0  0  0  0  0  0
   -1.9798    1.2634   -3.2666 H   0  0  0  0  0  0  0  0  0  0  0  0
   -0.3988   10.3032   -2.7074 H   0  0  0  0  0  0  0  0  0  0  0  0
    2.7294   -2.5208    3.2374 H   0  0  0  0  0  0  0  0  0  0  0  0
    3.9997   10.8693   -4.9367 H   0  0  0  0  0  0  0  0  0  0  0  0
    0.0130   -5.1675    1.2180 H   0  0  0  0  0  0  0  0  0  0  0  0
    0.8853   12.3962   -2.4079 H   0  0  0  0  0  0  0  0  0  0  0  0
    1.8635   -4.8218    2.8367 H   0  0  0  0  0  0  0  0  0  0  0  0
    3.0838   12.6780   -3.5124 H   0  0  0  0  0  0  0  0  0  0  0  0
  2  1  2  0  0  0  0
  3  2  1  0  0  0  0
  4  1  1  0  0  0  0
  5  1  1  0  0  0  0
  6  4  1  0  0  0  0
  6  3  2  0  0  0  0
  7 11  1  0  0  0  0
  8 18  1  0  0  0  0
  9  5  2  0  0  0  0
 10  8  1  0  0  0  0
 10 27  1  0  0  0  0
 11 10  1  0  0  0  0
 11 28  1  0  0  0  0
 11 29  1  0  0  0  0
 12  7  2  0  0  0  0
 12 30  1  0  0  0  0
 13  8  2  0  0  0  0
 14 15  1  0  0  0  0
 15  3  1  0  0  0  0
 15 31  1  0  0  0  0
 15 32  1  0  0  0  0
 16  9  1  0  0  0  0
 17  5  1  0  0  0  0
 17 33  1  0  0  0  0
 18 14  1  0  0  0  0
 18 34  1  0  0  0  0
 18 35  1  0  0  0  0
 19  6  1  0  0  0  0
 19 36  1  0  0  0  0
 19 37  1  0  0  0  0
 19 38  1  0  0  0  0
 20  7  1  0  0  0  0
 20 39  1  0  0  0  0
 21  9  1  0  0  0  0
 21 25  2  0  0  0  0
 21 40  1  0  0  0  0
 22 12  1  0  0  0  0
 22 26  2  0  0  0  0
 22 41  1  0  0  0  0
 23 17  2  0  0  0  0
 23 42  1  0  0  0  0
 24 20  2  0  0  0  0
 24 43  1  0  0  0  0
 25 23  1  0  0  0  0
 25 44  1  0  0  0  0
 26 24  1  0  0  0  0
 26 45  1  0  0  0  0
M  END
>  <Mol_ID>
9244

>  <Formula>
C20H18ClFN2O2S

>  <MolWeight>
404.8855232

>  <Cat>
P2648

>  <Name>
WAY-331989

>  <Synonyms>
N/A

>  <Target>
beta-catenin

>  <Form>
free base

>  <CAS>
902585-95-9

>  <URL>
N/A

$$$$
