WAY-311426
 OpenBabel08302521393D

 44 46  0  0  0  0  0  0  0  0999 V2000
   -1.8606    0.4661   -0.0103 C   0  0  3  0  0  0  0  0  0  0  0  0
   -0.7265    1.4494    0.1172 C   0  0  0  0  0  0  0  0  0  0  0  0
   -1.1304   -0.7886   -0.1348 N   0  0  0  0  0  0  0  0  0  0  0  0
   -2.8133    0.7607   -1.1682 C   0  0  0  0  0  0  0  0  0  0  0  0
   -0.9288    2.9188    0.1966 C   0  0  0  0  0  0  0  0  0  0  0  0
    0.4696    0.8588    0.0252 C   0  0  0  0  0  0  0  0  0  0  0  0
    0.2322   -0.5889   -0.1001 C   0  0  0  0  0  0  0  0  0  0  0  0
   -1.7270   -2.1025    0.0534 C   0  0  0  0  0  0  0  0  0  0  0  0
   -2.4061    1.4411   -2.3323 C   0  0  0  0  0  0  0  0  0  0  0  0
   -4.1760    0.4410   -1.0405 C   0  0  0  0  0  0  0  0  0  0  0  0
   -2.1658    3.4127    0.7683 C   0  0  0  0  0  0  0  0  0  0  0  0
   -0.0960    3.6776   -0.2918 O   0  0  0  0  0  0  0  0  0  0  0  0
    1.7180    1.4020    0.0714 O   0  0  0  0  0  0  0  0  0  0  0  0
    1.1340   -1.4145   -0.1050 O   0  0  0  0  0  0  0  0  0  0  0  0
   -1.5585   -2.7032    1.4579 C   0  0  0  0  0  0  0  0  0  0  0  0
   -3.3395    1.8695   -3.2819 C   0  0  0  0  0  0  0  0  0  0  0  0
   -5.1046    0.8480   -2.0039 C   0  0  0  0  0  0  0  0  0  0  0  0
   -2.8216    4.6163    0.5856 C   0  0  0  0  0  0  0  0  0  0  0  0
   -2.8755    2.6401    1.6466 O   0  0  0  0  0  0  0  0  0  0  0  0
   -2.3566   -2.0370    2.5730 C   0  0  0  0  0  0  0  0  0  0  0  0
   -4.6901    1.5818   -3.1123 C   0  0  0  0  0  0  0  0  0  0  0  0
   -4.0037    4.5579    1.3615 C   0  0  0  0  0  0  0  0  0  0  0  0
   -3.9866    3.3371    1.9909 C   0  0  0  0  0  0  0  0  0  0  0  0
   -3.7472   -2.0485    2.2589 O   0  0  0  0  0  0  0  0  0  0  0  0
   -4.5238   -1.4713    3.3041 C   0  0  0  0  0  0  0  0  0  0  0  0
   -2.4164    0.4157    0.9302 H   0  0  0  0  0  0  0  0  0  0  0  0
   -2.7739   -2.0864   -0.2619 H   0  0  0  0  0  0  0  0  0  0  0  0
   -1.1951   -2.7731   -0.6353 H   0  0  0  0  0  0  0  0  0  0  0  0
   -1.3608    1.6982   -2.5008 H   0  0  0  0  0  0  0  0  0  0  0  0
   -4.5334   -0.1037   -0.1675 H   0  0  0  0  0  0  0  0  0  0  0  0
    2.3365    0.6505   -0.0367 H   0  0  0  0  0  0  0  0  0  0  0  0
   -1.8802   -3.7511    1.3991 H   0  0  0  0  0  0  0  0  0  0  0  0
   -0.5005   -2.7139    1.7444 H   0  0  0  0  0  0  0  0  0  0  0  0
   -3.0114    2.4450   -4.1456 H   0  0  0  0  0  0  0  0  0  0  0  0
   -6.1585    0.6111   -1.8794 H   0  0  0  0  0  0  0  0  0  0  0  0
   -2.4872    5.4220   -0.0553 H   0  0  0  0  0  0  0  0  0  0  0  0
   -2.1993   -2.6070    3.4982 H   0  0  0  0  0  0  0  0  0  0  0  0
   -2.0169   -1.0107    2.7442 H   0  0  0  0  0  0  0  0  0  0  0  0
   -5.4167    1.9297   -3.8430 H   0  0  0  0  0  0  0  0  0  0  0  0
   -4.7727    5.3120    1.4503 H   0  0  0  0  0  0  0  0  0  0  0  0
   -4.6564    2.8383    2.6774 H   0  0  0  0  0  0  0  0  0  0  0  0
   -4.2259   -1.8568    4.2851 H   0  0  0  0  0  0  0  0  0  0  0  0
   -4.4213   -0.3824    3.2835 H   0  0  0  0  0  0  0  0  0  0  0  0
   -5.5734   -1.7283    3.1372 H   0  0  0  0  0  0  0  0  0  0  0  0
  1  2  1  0  0  0  0
  1  3  1  0  0  0  0
  1  4  1  0  0  0  0
  1 26  1  0  0  0  0
  2  5  1  0  0  0  0
  2  6  2  0  0  0  0
  3  7  1  0  0  0  0
  3  8  1  0  0  0  0
  4  9  2  0  0  0  0
  4 10  1  0  0  0  0
  5 11  1  0  0  0  0
  5 12  2  0  0  0  0
  6 13  1  0  0  0  0
  6  7  1  0  0  0  0
  7 14  2  0  0  0  0
  8 15  1  0  0  0  0
  8 27  1  0  0  0  0
  8 28  1  0  0  0  0
  9 16  1  0  0  0  0
  9 29  1  0  0  0  0
 10 17  2  0  0  0  0
 10 30  1  0  0  0  0
 11 18  2  0  0  0  0
 11 19  1  0  0  0  0
 13 31  1  0  0  0  0
 15 20  1  0  0  0  0
 15 32  1  0  0  0  0
 15 33  1  0  0  0  0
 16 21  2  0  0  0  0
 16 34  1  0  0  0  0
 17 21  1  0  0  0  0
 17 35  1  0  0  0  0
 18 22  1  0  0  0  0
 18 36  1  0  0  0  0
 19 23  1  0  0  0  0
 20 24  1  0  0  0  0
 20 37  1  0  0  0  0
 20 38  1  0  0  0  0
 21 39  1  0  0  0  0
 22 23  2  0  0  0  0
 22 40  1  0  0  0  0
 23 41  1  0  0  0  0
 24 25  1  0  0  0  0
 25 42  1  0  0  0  0
 25 43  1  0  0  0  0
 25 44  1  0  0  0  0
M  END
>  <Mol_ID>
8129

>  <Formula>
C19H19NO5

>  <MolWeight>
341.35786

>  <Cat>
P2201

>  <Name>
WAY-311426

>  <Synonyms>
N/A

>  <Target>
others

>  <Form>
free base

>  <CAS>
496799-23-6

>  <URL>
N/A

$$$$
