WAY-332033
 OpenBabel08302521443D

 54 56  0  0  0  0  0  0  0  0999 V2000
   -1.3479    0.6676    0.5393 N   0  0  0  0  0  0  0  0  0  0  0  0
   -0.2149    1.2044   -0.0382 C   0  0  0  0  0  0  0  0  0  0  0  0
   -1.2143   -0.6391    0.3823 C   0  0  0  0  0  0  0  0  0  0  0  0
   -0.0359   -1.0036   -0.2190 O   0  0  0  0  0  0  0  0  0  0  0  0
    0.5866    0.1799   -0.4996 C   0  0  0  0  0  0  0  0  0  0  0  0
   -0.6879    5.9954   -2.4631 C   0  0  0  0  0  0  0  0  0  0  0  0
    0.1725    6.1842   -3.5317 N   0  0  0  0  0  0  0  0  0  0  0  0
   -0.2418    5.1058   -1.3160 C   0  0  0  0  0  0  0  0  0  0  0  0
   -0.6949    3.3739   -1.6226 S   0  0  3  0  0  0  0  0  0  0  0  0
    0.0089    2.6750   -0.0872 C   0  0  0  0  0  0  0  0  0  0  0  0
   -2.1283   -1.7130    0.7491 C   0  0  0  0  0  0  0  0  0  0  0  0
    2.1792    7.3374   -5.3414 N   0  0  0  0  0  0  0  0  0  0  0  0
   -1.7849    6.5635   -2.4018 O   0  0  0  0  0  0  0  0  0  0  0  0
    1.4748    5.5320   -3.7157 C   0  0  0  0  0  0  0  0  0  0  0  0
   -0.2566    6.9969   -4.6775 C   0  0  0  0  0  0  0  0  0  0  0  0
    0.1424    2.8741   -2.7702 O   0  0  0  0  0  0  0  0  0  0  0  0
   -3.3800   -1.3975    1.3033 C   0  0  0  0  0  0  0  0  0  0  0  0
    2.5422    6.5518   -4.1450 C   0  0  0  0  0  0  0  0  0  0  0  0
    0.8585    7.9748   -5.1085 C   0  0  0  0  0  0  0  0  0  0  0  0
   -4.2787   -2.4027    1.6884 C   0  0  0  0  0  0  0  0  0  0  0  0
    1.8776    0.0994   -1.2041 C   0  0  0  0  0  0  0  0  0  0  0  0
    2.1400    6.5374   -6.5855 C   0  0  0  0  0  0  0  0  0  0  0  0
   -1.7957   -3.0628    0.5692 C   0  0  0  0  0  0  0  0  0  0  0  0
   -2.6797   -4.0714    0.9569 C   0  0  0  0  0  0  0  0  0  0  0  0
   -3.9136   -3.7421    1.5170 C   0  0  0  0  0  0  0  0  0  0  0  0
   -5.6079   -2.0579    2.2925 C   0  0  0  0  0  0  0  0  0  0  0  0
    3.4545    5.8445   -6.9267 C   0  0  0  0  0  0  0  0  0  0  0  0
   -0.7508    5.4397   -0.4058 H   0  0  0  0  0  0  0  0  0  0  0  0
    0.8268    5.2156   -1.1276 H   0  0  0  0  0  0  0  0  0  0  0  0
   -0.4715    3.1547    0.7710 H   0  0  0  0  0  0  0  0  0  0  0  0
    1.0805    2.8944   -0.0472 H   0  0  0  0  0  0  0  0  0  0  0  0
    1.8169    5.0303   -2.8077 H   0  0  0  0  0  0  0  0  0  0  0  0
    1.3503    4.7535   -4.4784 H   0  0  0  0  0  0  0  0  0  0  0  0
   -0.5097    6.3061   -5.4932 H   0  0  0  0  0  0  0  0  0  0  0  0
   -1.1674    7.5588   -4.4498 H   0  0  0  0  0  0  0  0  0  0  0  0
   -3.6511   -0.3507    1.4375 H   0  0  0  0  0  0  0  0  0  0  0  0
    2.6983    7.2656   -3.3213 H   0  0  0  0  0  0  0  0  0  0  0  0
    3.5113    6.0591   -4.2698 H   0  0  0  0  0  0  0  0  0  0  0  0
    0.9881    8.7138   -4.3018 H   0  0  0  0  0  0  0  0  0  0  0  0
    0.5440    8.5480   -5.9867 H   0  0  0  0  0  0  0  0  0  0  0  0
    2.5897   -0.5126   -0.6418 H   0  0  0  0  0  0  0  0  0  0  0  0
    1.7444   -0.3485   -2.1933 H   0  0  0  0  0  0  0  0  0  0  0  0
    2.3174    1.0923   -1.3381 H   0  0  0  0  0  0  0  0  0  0  0  0
    1.3510    5.7788   -6.5619 H   0  0  0  0  0  0  0  0  0  0  0  0
    1.9023    7.2092   -7.4208 H   0  0  0  0  0  0  0  0  0  0  0  0
   -0.8388   -3.3408    0.1320 H   0  0  0  0  0  0  0  0  0  0  0  0
   -2.4020   -5.1148    0.8292 H   0  0  0  0  0  0  0  0  0  0  0  0
   -4.5897   -4.5374    1.8235 H   0  0  0  0  0  0  0  0  0  0  0  0
   -6.4180   -2.4968    1.7009 H   0  0  0  0  0  0  0  0  0  0  0  0
   -5.6639   -2.4376    3.3178 H   0  0  0  0  0  0  0  0  0  0  0  0
   -5.7668   -0.9754    2.3248 H   0  0  0  0  0  0  0  0  0  0  0  0
    4.2718    6.5667   -7.0159 H   0  0  0  0  0  0  0  0  0  0  0  0
    3.7279    5.0928   -6.1805 H   0  0  0  0  0  0  0  0  0  0  0  0
    3.3567    5.3211   -7.8836 H   0  0  0  0  0  0  0  0  0  0  0  0
  2  1  1  0  0  0  0
  3  1  2  0  0  0  0
  4  3  1  0  0  0  0
  4  5  1  0  0  0  0
  5  2  2  0  0  0  0
  6  8  1  0  0  0  0
  7  6  1  0  0  0  0
  8  9  1  0  0  0  0
  8 28  1  0  0  0  0
  8 29  1  0  0  0  0
  9 10  1  0  0  0  0
 10  2  1  0  0  0  0
 10 30  1  0  0  0  0
 10 31  1  0  0  0  0
 11  3  1  0  0  0  0
 12 19  1  0  0  0  0
 13  6  2  0  0  0  0
 14  7  1  0  0  0  0
 14 32  1  0  0  0  0
 14 33  1  0  0  0  0
 15  7  1  0  0  0  0
 15 34  1  0  0  0  0
 15 35  1  0  0  0  0
 16  9  2  0  0  0  0
 17 11  2  0  0  0  0
 17 36  1  0  0  0  0
 18 14  1  0  0  0  0
 18 12  1  0  0  0  0
 18 37  1  0  0  0  0
 18 38  1  0  0  0  0
 19 15  1  0  0  0  0
 19 39  1  0  0  0  0
 19 40  1  0  0  0  0
 20 17  1  0  0  0  0
 21  5  1  0  0  0  0
 21 41  1  0  0  0  0
 21 42  1  0  0  0  0
 21 43  1  0  0  0  0
 22 12  1  0  0  0  0
 22 44  1  0  0  0  0
 22 45  1  0  0  0  0
 23 11  1  0  0  0  0
 23 46  1  0  0  0  0
 24 23  2  0  0  0  0
 24 47  1  0  0  0  0
 25 24  1  0  0  0  0
 25 20  2  0  0  0  0
 25 48  1  0  0  0  0
 26 20  1  0  0  0  0
 26 49  1  0  0  0  0
 26 50  1  0  0  0  0
 26 51  1  0  0  0  0
 27 22  1  0  0  0  0
 27 52  1  0  0  0  0
 27 53  1  0  0  0  0
 27 54  1  0  0  0  0
M  END
>  <Mol_ID>
9209

>  <Formula>
C20H27N3O3S

>  <MolWeight>
389.51168

>  <Cat>
P2681

>  <Name>
WAY-332033

>  <Synonyms>
N/A

>  <Target>
beta-catenin

>  <Form>
free base

>  <CAS>
1015858-14-6

>  <URL>
N/A

$$$$
