WAY-301390-A
 OpenBabel08302521413D

 37 40  0  0  0  0  0  0  0  0999 V2000
    9.0664   -4.8876   -0.1462 C   0  0  0  0  0  0  0  0  0  0  0  0
    8.4148   -6.1084   -0.1716 C   0  0  0  0  0  0  0  0  0  0  0  0
    8.5023   -3.6648   -0.1047 N   0  0  0  0  0  0  0  0  0  0  0  0
   10.4076   -5.1237   -0.1841 N   0  0  0  0  0  0  0  0  0  0  0  0
    7.0570   -6.1215   -0.1521 N   0  0  0  0  0  0  0  0  0  0  0  0
    7.1537   -3.7267   -0.1063 C   0  0  0  0  0  0  0  0  0  0  0  0
    9.4148   -7.1302   -0.2242 C   0  0  0  0  0  0  0  0  0  0  0  0
    3.3139   -0.8254    0.0948 C   0  0  0  0  0  0  0  0  0  0  0  0
   10.6583   -6.4770   -0.2360 C   0  0  0  0  0  0  0  0  0  0  0  0
    6.4546   -4.8929   -0.1262 N   0  0  0  0  0  0  0  0  0  0  0  0
    2.8470    0.3113    0.7014 O   0  0  0  0  0  0  0  0  0  0  0  0
    5.1958   -2.2582   -0.0793 N   0  0  0  0  0  0  0  0  0  0  0  0
    4.7462   -1.0356    0.0224 C   0  0  0  0  0  0  0  0  0  0  0  0
    2.2400   -1.5924   -0.3145 C   0  0  0  0  0  0  0  0  0  0  0  0
    6.5398   -2.4566   -0.0997 N   0  0  0  0  0  0  0  0  0  0  0  0
    1.4883    0.2439    0.7174 C   0  0  0  0  0  0  0  0  0  0  0  0
    1.0664   -0.9035    0.0831 C   0  0  0  0  0  0  0  0  0  0  0  0
    9.4247   -8.5459   -0.2635 C   0  0  0  0  0  0  0  0  0  0  0  0
   11.8853   -7.1499   -0.2964 C   0  0  0  0  0  0  0  0  0  0  0  0
    5.6156    0.2068    0.1021 C   0  0  0  0  0  0  0  0  0  0  0  0
    0.7840    1.3453    1.4063 C   0  0  0  0  0  0  0  0  0  0  0  0
   10.6492   -9.2323   -0.3201 C   0  0  0  0  0  0  0  0  0  0  0  0
   11.8602   -8.5443   -0.3362 C   0  0  0  0  0  0  0  0  0  0  0  0
   11.1075   -4.4029   -0.1741 H   0  0  0  0  0  0  0  0  0  0  0  0
    2.3077   -2.5430   -0.8268 H   0  0  0  0  0  0  0  0  0  0  0  0
    7.2345   -1.7257   -0.0103 H   0  0  0  0  0  0  0  0  0  0  0  0
    0.0414   -1.2195   -0.0520 H   0  0  0  0  0  0  0  0  0  0  0  0
    8.4930   -9.1047   -0.2535 H   0  0  0  0  0  0  0  0  0  0  0  0
   12.8280   -6.6102   -0.3075 H   0  0  0  0  0  0  0  0  0  0  0  0
    6.1612    0.2148    1.0488 H   0  0  0  0  0  0  0  0  0  0  0  0
    6.3234    0.2246   -0.7308 H   0  0  0  0  0  0  0  0  0  0  0  0
    5.0230    1.1262    0.0399 H   0  0  0  0  0  0  0  0  0  0  0  0
    0.0898    1.8495    0.7278 H   0  0  0  0  0  0  0  0  0  0  0  0
    0.2155    0.9564    2.2571 H   0  0  0  0  0  0  0  0  0  0  0  0
    1.4892    2.0910    1.7878 H   0  0  0  0  0  0  0  0  0  0  0  0
   10.6583  -10.3208   -0.3509 H   0  0  0  0  0  0  0  0  0  0  0  0
   12.7991   -9.0926   -0.3829 H   0  0  0  0  0  0  0  0  0  0  0  0
  2  1  1  0  0  0  0
  3  1  2  0  0  0  0
  4  1  1  0  0  0  0
  4 24  1  0  0  0  0
  5  2  2  0  0  0  0
  5 10  1  0  0  0  0
  6  3  1  0  0  0  0
  7  2  1  0  0  0  0
  7  9  2  0  0  0  0
  8 13  1  0  0  0  0
  9  4  1  0  0  0  0
 10  6  2  0  0  0  0
 11  8  1  0  0  0  0
 12 15  1  0  0  0  0
 13 12  2  0  0  0  0
 14  8  2  0  0  0  0
 14 25  1  0  0  0  0
 15  6  1  0  0  0  0
 15 26  1  0  0  0  0
 16 11  1  0  0  0  0
 16 17  2  0  0  0  0
 17 14  1  0  0  0  0
 17 27  1  0  0  0  0
 18  7  1  0  0  0  0
 18 28  1  0  0  0  0
 19  9  1  0  0  0  0
 19 29  1  0  0  0  0
 20 13  1  0  0  0  0
 20 30  1  0  0  0  0
 20 31  1  0  0  0  0
 20 32  1  0  0  0  0
 21 16  1  0  0  0  0
 21 33  1  0  0  0  0
 21 34  1  0  0  0  0
 21 35  1  0  0  0  0
 22 18  2  0  0  0  0
 22 36  1  0  0  0  0
 23 19  2  0  0  0  0
 23 22  1  0  0  0  0
 23 37  1  0  0  0  0
M  END
>  <Mol_ID>
8438

>  <Formula>
C16H14N6O

>  <MolWeight>
306.32196

>  <Cat>
P2171

>  <Name>
WAY-301390-A

>  <Synonyms>
N/A

>  <Target>
bax

>  <Form>
free base

>  <CAS>
331261-91-7

>  <URL>
N/A

$$$$
