WAY-119024
 OpenBabel08302521423D

 27 29  0  0  0  0  0  0  0  0999 V2000
   -0.0865   -0.6908   -0.0141 C   0  0  0  0  0  0  0  0  0  0  0  0
   -0.2138    0.6844   -0.0028 C   0  0  0  0  0  0  0  0  0  0  0  0
    1.0692   -1.4060   -0.0166 N   0  0  0  0  0  0  0  0  0  0  0  0
    1.0199    1.4389   -0.0001 C   0  0  0  0  0  0  0  0  0  0  0  0
   -1.5917   -1.4747   -0.0357 S   0  0  0  0  0  0  0  0  0  0  0  0
   -1.5901    1.0837    0.0079 C   0  0  0  0  0  0  0  0  0  0  0  0
    2.1706    0.6849   -0.0024 N   0  0  0  0  0  0  0  0  0  0  0  0
   -2.4621    0.0070    0.0119 C   0  0  0  0  0  0  0  0  0  0  0  0
    2.1507   -0.6936   -0.0097 C   0  0  0  0  0  0  0  0  0  0  0  0
    1.0335    3.0970    0.0004 S   0  0  0  0  0  0  0  0  0  0  0  0
   -3.9355   -0.0001    0.0221 C   0  0  0  0  0  0  0  0  0  0  0  0
    3.4886   -1.3747   -0.0106 C   0  0  0  0  0  0  0  0  0  0  0  0
   -4.6543    1.0269   -0.6091 C   0  0  0  0  0  0  0  0  0  0  0  0
   -4.6623   -1.0196    0.6594 C   0  0  0  0  0  0  0  0  0  0  0  0
   -6.0591   -1.0256    0.6495 C   0  0  0  0  0  0  0  0  0  0  0  0
   -6.0527    1.0247   -0.6154 C   0  0  0  0  0  0  0  0  0  0  0  0
   -6.7540   -0.0034    0.0111 C   0  0  0  0  0  0  0  0  0  0  0  0
   -1.9265    2.1141    0.0280 H   0  0  0  0  0  0  0  0  0  0  0  0
    3.0474    1.1874   -0.0022 H   0  0  0  0  0  0  0  0  0  0  0  0
    3.5654   -2.0106    0.8764 H   0  0  0  0  0  0  0  0  0  0  0  0
    3.5649   -2.0071   -0.9002 H   0  0  0  0  0  0  0  0  0  0  0  0
    4.3120   -0.6567   -0.0094 H   0  0  0  0  0  0  0  0  0  0  0  0
   -4.1348    1.8341   -1.1197 H   0  0  0  0  0  0  0  0  0  0  0  0
   -4.1510   -1.8279    1.1778 H   0  0  0  0  0  0  0  0  0  0  0  0
   -6.5986   -1.8314    1.1404 H   0  0  0  0  0  0  0  0  0  0  0  0
   -6.5940    1.8236   -1.1151 H   0  0  0  0  0  0  0  0  0  0  0  0
   -7.8406   -0.0092    0.0013 H   0  0  0  0  0  0  0  0  0  0  0  0
  2  1  2  0  0  0  0
  3  1  1  0  0  0  0
  4  2  1  0  0  0  0
  4  7  1  0  0  0  0
  5  1  1  0  0  0  0
  6  2  1  0  0  0  0
  6  8  2  0  0  0  0
  6 18  1  0  0  0  0
  7  9  1  0  0  0  0
  7 19  1  0  0  0  0
  8  5  1  0  0  0  0
  9  3  2  0  0  0  0
 10  4  2  0  0  0  0
 11  8  1  0  0  0  0
 12  9  1  0  0  0  0
 12 20  1  0  0  0  0
 12 21  1  0  0  0  0
 12 22  1  0  0  0  0
 13 11  2  0  0  0  0
 13 23  1  0  0  0  0
 14 11  1  0  0  0  0
 14 24  1  0  0  0  0
 15 14  2  0  0  0  0
 15 25  1  0  0  0  0
 16 13  1  0  0  0  0
 16 26  1  0  0  0  0
 17 15  1  0  0  0  0
 17 16  2  0  0  0  0
 17 27  1  0  0  0  0
M  END
>  <Mol_ID>
8564

>  <Formula>
C13H10N2S2

>  <MolWeight>
258.3619

>  <Cat>
P2052

>  <Name>
WAY-119024

>  <Synonyms>
N/A

>  <Target>
Anti-infection

>  <Form>
free base

>  <CAS>
853696-61-4

>  <URL>
N/A

$$$$
