WAY-327251
 OpenBabel08302521443D

 56 59  0  0  0  0  0  0  0  0999 V2000
    0.3090    2.1548    0.2928 C   0  0  3  0  0  0  0  0  0  0  0  0
    2.0882    0.4421   -0.0584 N   0  0  0  0  0  0  0  0  0  0  0  0
    1.2144   -0.6379    0.1648 C   0  0  0  0  0  0  0  0  0  0  0  0
    1.5601    1.7258   -0.5699 C   0  0  3  0  0  0  0  0  0  0  0  0
   -0.6937    1.0053    0.2154 C   0  0  0  0  0  0  0  0  0  0  0  0
   -0.2551   -0.3237    0.0950 C   0  0  0  0  0  0  0  0  0  0  0  0
   -0.2803    3.4806   -0.2169 C   0  0  0  0  0  0  0  0  0  0  0  0
    1.3269    1.5916   -2.0900 C   0  0  0  0  0  0  0  0  0  0  0  0
   -2.0713    1.2458    0.2022 C   0  0  0  0  0  0  0  0  0  0  0  0
   -1.1948   -1.3431   -0.1426 C   0  0  0  0  0  0  0  0  0  0  0  0
   -0.4574    4.6587    0.4270 N   0  0  0  0  0  0  0  0  0  0  0  0
   -2.5773   -1.0667   -0.2098 C   0  0  0  0  0  0  0  0  0  0  0  0
   -3.0239    0.2490   -0.0369 C   0  0  0  0  0  0  0  0  0  0  0  0
    1.6304    2.9447   -3.1248 S   0  0  0  0  0  0  0  0  0  0  0  0
    1.5903   -1.7779    0.3444 O   0  0  0  0  0  0  0  0  0  0  0  0
   -0.7358    3.5410   -1.3710 O   0  0  0  0  0  0  0  0  0  0  0  0
   -0.6245    5.2029    1.7118 C   0  0  0  0  0  0  0  0  0  0  0  0
    0.9176    0.5074   -2.8579 C   0  0  0  0  0  0  0  0  0  0  0  0
    0.8961    2.1769   -4.4648 C   0  0  0  0  0  0  0  0  0  0  0  0
   -0.5590    4.5450    2.9352 C   0  0  0  0  0  0  0  0  0  0  0  0
    0.6199    0.8561   -4.2078 C   0  0  0  0  0  0  0  0  0  0  0  0
    3.5150    0.1689   -0.1659 C   0  0  0  0  0  0  0  0  0  0  0  0
   -0.9694    5.2060    4.1195 C   0  0  0  0  0  0  0  0  0  0  0  0
   -3.3522   -2.1673   -0.4488 O   0  0  0  0  0  0  0  0  0  0  0  0
   -4.2878    0.7280    0.1466 O   0  0  0  0  0  0  0  0  0  0  0  0
   -0.9437    4.4411    5.2605 O   0  0  0  0  0  0  0  0  0  0  0  0
   -1.3963    7.2242    2.8807 C   0  0  0  0  0  0  0  0  0  0  0  0
   -1.0145    6.5643    1.7152 C   0  0  0  0  0  0  0  0  0  0  0  0
   -1.3882    6.5400    4.0881 C   0  0  0  0  0  0  0  0  0  0  0  0
   -4.5023   -2.3036    0.3742 C   0  0  0  0  0  0  0  0  0  0  0  0
   -5.3255    0.5526   -0.8040 C   0  0  0  0  0  0  0  0  0  0  0  0
   -1.6733    4.9356    6.3851 C   0  0  0  0  0  0  0  0  0  0  0  0
    0.6226    2.2608    1.3369 H   0  0  0  0  0  0  0  0  0  0  0  0
    2.3427    2.4783   -0.4044 H   0  0  0  0  0  0  0  0  0  0  0  0
   -2.4407    2.2575    0.3533 H   0  0  0  0  0  0  0  0  0  0  0  0
   -0.8437   -2.3733   -0.2749 H   0  0  0  0  0  0  0  0  0  0  0  0
   -0.7686    5.2993   -0.3017 H   0  0  0  0  0  0  0  0  0  0  0  0
    0.7647   -0.4939   -2.4785 H   0  0  0  0  0  0  0  0  0  0  0  0
    0.7350    2.7163   -5.3879 H   0  0  0  0  0  0  0  0  0  0  0  0
   -0.2349    3.5148    3.0109 H   0  0  0  0  0  0  0  0  0  0  0  0
    0.2057    0.1739   -4.9408 H   0  0  0  0  0  0  0  0  0  0  0  0
    3.8431   -0.4006    0.7106 H   0  0  0  0  0  0  0  0  0  0  0  0
    3.7149   -0.4266   -1.0625 H   0  0  0  0  0  0  0  0  0  0  0  0
    4.0829    1.1029   -0.2088 H   0  0  0  0  0  0  0  0  0  0  0  0
   -1.7264    8.2598    2.8373 H   0  0  0  0  0  0  0  0  0  0  0  0
   -1.0709    7.1225    0.7819 H   0  0  0  0  0  0  0  0  0  0  0  0
   -1.7159    7.0720    4.9769 H   0  0  0  0  0  0  0  0  0  0  0  0
   -4.6512   -1.4880    1.0864 H   0  0  0  0  0  0  0  0  0  0  0  0
   -5.3726   -2.3967   -0.2815 H   0  0  0  0  0  0  0  0  0  0  0  0
   -4.4281   -3.2312    0.9457 H   0  0  0  0  0  0  0  0  0  0  0  0
   -5.0541    0.7997   -1.8335 H   0  0  0  0  0  0  0  0  0  0  0  0
   -5.7752   -0.4346   -0.7423 H   0  0  0  0  0  0  0  0  0  0  0  0
   -6.1202    1.2466   -0.4988 H   0  0  0  0  0  0  0  0  0  0  0  0
   -1.1301    5.7498    6.8778 H   0  0  0  0  0  0  0  0  0  0  0  0
   -2.6872    5.2536    6.1137 H   0  0  0  0  0  0  0  0  0  0  0  0
   -1.7729    4.1172    7.1050 H   0  0  0  0  0  0  0  0  0  0  0  0
  1 33  1  0  0  0  0
  2  4  1  0  0  0  0
  3  6  1  0  0  0  0
  3  2  1  0  0  0  0
  4  1  1  0  0  0  0
  4 34  1  0  0  0  0
  5  1  1  0  0  0  0
  6  5  2  0  0  0  0
  7  1  1  0  0  0  0
  8  4  1  0  0  0  0
  9  5  1  0  0  0  0
  9 35  1  0  0  0  0
 10  6  1  0  0  0  0
 10 36  1  0  0  0  0
 11  7  1  0  0  0  0
 11 37  1  0  0  0  0
 12 13  1  0  0  0  0
 12 10  2  0  0  0  0
 13  9  2  0  0  0  0
 14  8  1  0  0  0  0
 15  3  2  0  0  0  0
 16  7  2  0  0  0  0
 17 11  1  0  0  0  0
 18  8  2  0  0  0  0
 18 38  1  0  0  0  0
 19 14  1  0  0  0  0
 19 39  1  0  0  0  0
 20 17  2  0  0  0  0
 20 40  1  0  0  0  0
 21 18  1  0  0  0  0
 21 19  2  0  0  0  0
 21 41  1  0  0  0  0
 22  2  1  0  0  0  0
 22 42  1  0  0  0  0
 22 43  1  0  0  0  0
 22 44  1  0  0  0  0
 23 20  1  0  0  0  0
 23 29  2  0  0  0  0
 24 12  1  0  0  0  0
 25 13  1  0  0  0  0
 26 23  1  0  0  0  0
 27 28  2  0  0  0  0
 27 45  1  0  0  0  0
 28 17  1  0  0  0  0
 28 46  1  0  0  0  0
 29 27  1  0  0  0  0
 29 47  1  0  0  0  0
 30 24  1  0  0  0  0
 30 48  1  0  0  0  0
 30 49  1  0  0  0  0
 30 50  1  0  0  0  0
 31 25  1  0  0  0  0
 31 51  1  0  0  0  0
 31 52  1  0  0  0  0
 31 53  1  0  0  0  0
 32 26  1  0  0  0  0
 32 54  1  0  0  0  0
 32 55  1  0  0  0  0
 32 56  1  0  0  0  0
M  END
>  <Mol_ID>
8960

>  <Formula>
C24H24N2O5S

>  <MolWeight>
452.52276

>  <Cat>
P2520

>  <Name>
WAY-327251

>  <Synonyms>
N/A

>  <Target>
Anti-infection

>  <Form>
free base

>  <CAS>
687567-30-2

>  <URL>
N/A

$$$$
