WAY-640486
 OpenBabel08302521443D

 42 45  0  0  0  0  0  0  0  0999 V2000
    3.2675    0.2454   -1.1222 N   0  0  0  0  0  0  0  0  0  0  0  0
    2.9252   -1.0460   -0.7179 C   0  0  0  0  0  0  0  0  0  0  0  0
    2.9791   -1.8528   -1.7594 N   0  0  0  0  0  0  0  0  0  0  0  0
    3.4101   -1.0844   -2.8078 N   0  0  0  0  0  0  0  0  0  0  0  0
    3.6060    0.1725   -2.4362 N   0  0  0  0  0  0  0  0  0  0  0  0
   -0.1467    0.1270    4.1172 N   0  0  0  0  0  0  0  0  0  0  0  0
   -0.0551   -1.2630    4.1712 C   0  0  0  0  0  0  0  0  0  0  0  0
    2.7106   -1.5700    0.9267 S   0  0  0  0  0  0  0  0  0  0  0  0
   -0.3704    0.8448    5.2536 C   0  0  0  0  0  0  0  0  0  0  0  0
   -0.6265   -1.3262    6.5415 O   0  0  0  0  0  0  0  0  0  0  0  0
    3.4704    1.4398   -0.3749 C   0  0  0  0  0  0  0  0  0  0  0  0
    0.3769   -1.9405    3.0294 C   0  0  0  0  0  0  0  0  0  0  0  0
    0.8546   -3.2470    3.1320 C   0  0  0  0  0  0  0  0  0  0  0  0
   -0.2304   -1.9325    5.3827 C   0  0  0  0  0  0  0  0  0  0  0  0
    1.6272   -3.9553    2.0470 C   0  0  0  0  0  0  0  0  0  0  0  0
    2.2203   -3.2972    0.7971 C   0  0  0  0  0  0  0  0  0  0  0  0
   -0.1384    2.0426    5.3180 O   0  0  0  0  0  0  0  0  0  0  0  0
    0.6637   -3.9248    4.3520 C   0  0  0  0  0  0  0  0  0  0  0  0
   -0.9847    0.0423    6.4056 C   0  0  0  0  0  0  0  0  0  0  0  0
    0.0900   -3.2838    5.4601 C   0  0  0  0  0  0  0  0  0  0  0  0
    1.7665   -5.1769    2.1847 O   0  0  0  0  0  0  0  0  0  0  0  0
    4.3616    2.4022   -0.8700 C   0  0  0  0  0  0  0  0  0  0  0  0
    2.9419    1.6051    0.9086 C   0  0  0  0  0  0  0  0  0  0  0  0
    4.9417    3.3133    0.0129 C   0  0  0  0  0  0  0  0  0  0  0  0
    3.5360    2.5027    1.7922 C   0  0  0  0  0  0  0  0  0  0  0  0
    4.6329    3.2573    1.3748 C   0  0  0  0  0  0  0  0  0  0  0  0
    5.5239    3.9187    2.3846 C   0  0  0  0  0  0  0  0  0  0  0  0
    0.2201    0.6431    3.3307 H   0  0  0  0  0  0  0  0  0  0  0  0
    0.3748   -1.4118    2.0867 H   0  0  0  0  0  0  0  0  0  0  0  0
    1.5359   -3.4768   -0.0364 H   0  0  0  0  0  0  0  0  0  0  0  0
    3.1571   -3.8308    0.5951 H   0  0  0  0  0  0  0  0  0  0  0  0
    0.9879   -4.9600    4.4662 H   0  0  0  0  0  0  0  0  0  0  0  0
   -0.7174    0.5402    7.3451 H   0  0  0  0  0  0  0  0  0  0  0  0
   -2.0704    0.1105    6.2871 H   0  0  0  0  0  0  0  0  0  0  0  0
   -0.0374   -3.8223    6.3959 H   0  0  0  0  0  0  0  0  0  0  0  0
    4.7159    2.3826   -1.8987 H   0  0  0  0  0  0  0  0  0  0  0  0
    2.1126    1.0124    1.2763 H   0  0  0  0  0  0  0  0  0  0  0  0
    5.7143    3.9887   -0.3483 H   0  0  0  0  0  0  0  0  0  0  0  0
    3.2018    2.5379    2.8274 H   0  0  0  0  0  0  0  0  0  0  0  0
    5.2097    4.9441    2.5935 H   0  0  0  0  0  0  0  0  0  0  0  0
    5.5307    3.3385    3.3119 H   0  0  0  0  0  0  0  0  0  0  0  0
    6.5571    3.9174    2.0189 H   0  0  0  0  0  0  0  0  0  0  0  0
  2  1  1  0  0  0  0
  3  2  2  0  0  0  0
  3  4  1  0  0  0  0
  4  5  2  0  0  0  0
  5  1  1  0  0  0  0
  6  7  1  0  0  0  0
  6 28  1  0  0  0  0
  7 12  2  0  0  0  0
  8  2  1  0  0  0  0
  9  6  1  0  0  0  0
  9 19  1  0  0  0  0
 10 14  1  0  0  0  0
 11  1  1  0  0  0  0
 12 13  1  0  0  0  0
 12 29  1  0  0  0  0
 13 15  1  0  0  0  0
 14 20  2  0  0  0  0
 14  7  1  0  0  0  0
 15 16  1  0  0  0  0
 16  8  1  0  0  0  0
 16 30  1  0  0  0  0
 16 31  1  0  0  0  0
 17  9  2  0  0  0  0
 18 13  2  0  0  0  0
 18 32  1  0  0  0  0
 19 10  1  0  0  0  0
 19 33  1  0  0  0  0
 19 34  1  0  0  0  0
 20 18  1  0  0  0  0
 20 35  1  0  0  0  0
 21 15  2  0  0  0  0
 22 11  2  0  0  0  0
 22 36  1  0  0  0  0
 23 11  1  0  0  0  0
 23 37  1  0  0  0  0
 24 22  1  0  0  0  0
 24 26  2  0  0  0  0
 24 38  1  0  0  0  0
 25 23  2  0  0  0  0
 25 39  1  0  0  0  0
 26 25  1  0  0  0  0
 27 26  1  0  0  0  0
 27 40  1  0  0  0  0
 27 41  1  0  0  0  0
 27 42  1  0  0  0  0
M  END
>  <Mol_ID>
9099

>  <Formula>
C18H15N5O3S

>  <MolWeight>
381.4084

>  <Cat>
P3107

>  <Name>
WAY-640486

>  <Synonyms>
N/A

>  <Target>
11¦Â-HSD1

>  <Form>
free base

>  <CAS>
851282-35-4

>  <URL>
N/A

$$$$
