WAY-311811
 OpenBabel08302521393D

 58 62  0  0  0  0  0  0  0  0999 V2000
   -1.2029    1.3921   -0.0946 C   0  0  0  0  0  0  0  0  0  0  0  0
   -0.2248    0.6020   -0.7474 C   0  0  0  0  0  0  0  0  0  0  0  0
   -1.3230    2.8690   -0.1817 C   0  0  0  0  0  0  0  0  0  0  0  0
   -2.1722    0.8179    0.6515 N   0  0  0  0  0  0  0  0  0  0  0  0
   -0.3710   -0.8047   -0.6997 C   0  0  0  0  0  0  0  0  0  0  0  0
    0.8916    1.1201   -1.4569 C   0  0  0  0  0  0  0  0  0  0  0  0
   -1.0169    3.5836   -1.3535 C   0  0  0  0  0  0  0  0  0  0  0  0
   -1.7697    3.6192    0.9166 C   0  0  0  0  0  0  0  0  0  0  0  0
   -2.2497   -0.5388    0.7652 N   0  0  0  0  0  0  0  0  0  0  0  0
   -1.3991   -1.3453    0.0955 C   0  0  0  0  0  0  0  0  0  0  0  0
    0.4941   -1.6088   -1.4845 C   0  0  0  0  0  0  0  0  0  0  0  0
    1.7275    0.3117   -2.2244 C   0  0  0  0  0  0  0  0  0  0  0  0
   -0.9864    4.9892   -1.3833 C   0  0  0  0  0  0  0  0  0  0  0  0
   -1.8197    5.0170    0.8729 C   0  0  0  0  0  0  0  0  0  0  0  0
   -1.5387   -2.7540    0.2205 N   0  0  0  0  0  0  0  0  0  0  0  0
    1.5089   -1.0538   -2.2627 C   0  0  0  0  0  0  0  0  0  0  0  0
   -0.2500    5.7510   -2.8280 S   0  0  0  0  0  0  0  0  0  0  0  0
   -1.3876    5.7271   -0.2584 C   0  0  0  0  0  0  0  0  0  0  0  0
   -2.7346   -3.4151    0.5774 C   0  0  0  0  0  0  0  0  0  0  0  0
   -1.4712    6.7699   -3.4097 N   0  0  0  0  0  0  0  0  0  0  0  0
    0.8551    6.5545   -2.3543 O   0  0  0  0  0  0  0  0  0  0  0  0
   -0.0349    4.7259   -3.8275 O   0  0  0  0  0  0  0  0  0  0  0  0
   -1.4037    7.2264   -0.1650 C   0  0  0  0  0  0  0  0  0  0  0  0
   -3.9800   -2.9322    0.1471 C   0  0  0  0  0  0  0  0  0  0  0  0
   -2.6989   -4.6257    1.2790 C   0  0  0  0  0  0  0  0  0  0  0  0
   -2.6325    6.1201   -4.0888 C   0  0  0  0  0  0  0  0  0  0  0  0
   -1.0164    7.9859   -4.1479 C   0  0  0  0  0  0  0  0  0  0  0  0
   -5.1662   -3.5953    0.4637 C   0  0  0  0  0  0  0  0  0  0  0  0
   -3.8862   -5.2972    1.5989 C   0  0  0  0  0  0  0  0  0  0  0  0
   -2.4001    5.9595   -5.5992 C   0  0  0  0  0  0  0  0  0  0  0  0
   -0.8236    7.7055   -5.6379 C   0  0  0  0  0  0  0  0  0  0  0  0
   -5.1072   -4.7700    1.1935 C   0  0  0  0  0  0  0  0  0  0  0  0
   -2.0364    7.2030   -6.2150 O   0  0  0  0  0  0  0  0  0  0  0  0
   -6.2436   -5.4449    1.5352 O   0  0  0  0  0  0  0  0  0  0  0  0
    1.1299    2.1809   -1.4294 H   0  0  0  0  0  0  0  0  0  0  0  0
   -0.7553    3.0372   -2.2579 H   0  0  0  0  0  0  0  0  0  0  0  0
   -2.0790    3.1167    1.8341 H   0  0  0  0  0  0  0  0  0  0  0  0
    0.3546   -2.6879   -1.5244 H   0  0  0  0  0  0  0  0  0  0  0  0
    2.5335    0.7593   -2.8009 H   0  0  0  0  0  0  0  0  0  0  0  0
   -2.1713    5.5524    1.7541 H   0  0  0  0  0  0  0  0  0  0  0  0
   -0.7196   -3.1295    0.6885 H   0  0  0  0  0  0  0  0  0  0  0  0
    2.1316   -1.6886   -2.8874 H   0  0  0  0  0  0  0  0  0  0  0  0
   -2.4382    7.5804   -0.1053 H   0  0  0  0  0  0  0  0  0  0  0  0
   -0.8703    7.5446    0.7378 H   0  0  0  0  0  0  0  0  0  0  0  0
   -0.9268    7.7323   -1.0031 H   0  0  0  0  0  0  0  0  0  0  0  0
   -4.0370   -2.0189   -0.4444 H   0  0  0  0  0  0  0  0  0  0  0  0
   -1.7545   -5.0564    1.5997 H   0  0  0  0  0  0  0  0  0  0  0  0
   -3.5011    6.7664   -3.9186 H   0  0  0  0  0  0  0  0  0  0  0  0
   -2.8616    5.1508   -3.6349 H   0  0  0  0  0  0  0  0  0  0  0  0
   -1.7943    8.7468   -4.0129 H   0  0  0  0  0  0  0  0  0  0  0  0
   -0.1006    8.3970   -3.7128 H   0  0  0  0  0  0  0  0  0  0  0  0
   -6.1087   -3.1752    0.1273 H   0  0  0  0  0  0  0  0  0  0  0  0
   -3.8565   -6.2236    2.1616 H   0  0  0  0  0  0  0  0  0  0  0  0
   -1.6277    5.2163   -5.8223 H   0  0  0  0  0  0  0  0  0  0  0  0
   -3.3255    5.6199   -6.0755 H   0  0  0  0  0  0  0  0  0  0  0  0
   -0.5741    8.6366   -6.1572 H   0  0  0  0  0  0  0  0  0  0  0  0
   -0.0106    6.9937   -5.8207 H   0  0  0  0  0  0  0  0  0  0  0  0
   -7.0054   -4.9335    1.2137 H   0  0  0  0  0  0  0  0  0  0  0  0
  1  2  1  0  0  0  0
  1  3  1  0  0  0  0
  1  4  2  0  0  0  0
  2  5  2  0  0  0  0
  2  6  1  0  0  0  0
  3  7  2  0  0  0  0
  3  8  1  0  0  0  0
  4  9  1  0  0  0  0
  5 10  1  0  0  0  0
  5 11  1  0  0  0  0
  6 12  2  0  0  0  0
  6 35  1  0  0  0  0
  7 13  1  0  0  0  0
  7 36  1  0  0  0  0
  8 14  2  0  0  0  0
  8 37  1  0  0  0  0
  9 10  2  0  0  0  0
 10 15  1  0  0  0  0
 11 16  2  0  0  0  0
 11 38  1  0  0  0  0
 12 16  1  0  0  0  0
 12 39  1  0  0  0  0
 13 17  1  0  0  0  0
 13 18  2  0  0  0  0
 14 18  1  0  0  0  0
 14 40  1  0  0  0  0
 15 19  1  0  0  0  0
 15 41  1  0  0  0  0
 16 42  1  0  0  0  0
 17 20  1  0  0  0  0
 17 21  2  0  0  0  0
 17 22  2  0  0  0  0
 18 23  1  0  0  0  0
 19 24  2  0  0  0  0
 19 25  1  0  0  0  0
 20 26  1  0  0  0  0
 20 27  1  0  0  0  0
 23 43  1  0  0  0  0
 23 44  1  0  0  0  0
 23 45  1  0  0  0  0
 24 28  1  0  0  0  0
 24 46  1  0  0  0  0
 25 29  2  0  0  0  0
 25 47  1  0  0  0  0
 26 30  1  0  0  0  0
 26 48  1  0  0  0  0
 26 49  1  0  0  0  0
 27 31  1  0  0  0  0
 27 50  1  0  0  0  0
 27 51  1  0  0  0  0
 28 32  2  0  0  0  0
 28 52  1  0  0  0  0
 29 32  1  0  0  0  0
 29 53  1  0  0  0  0
 30 33  1  0  0  0  0
 30 54  1  0  0  0  0
 30 55  1  0  0  0  0
 31 33  1  0  0  0  0
 31 56  1  0  0  0  0
 31 57  1  0  0  0  0
 32 34  1  0  0  0  0
 34 58  1  0  0  0  0
M  END
>  <Mol_ID>
8041

>  <Formula>
C25H24N4O4S

>  <MolWeight>
476.54746

>  <Cat>
P2219

>  <Name>
WAY-311811

>  <Synonyms>
N/A

>  <Target>
Immunology & Inflammation related

>  <Form>
free base

>  <CAS>
376374-54-8

>  <URL>
N/A

$$$$
