WAY-325680
 OpenBabel08302521433D

 41 44  0  0  0  0  0  0  0  0999 V2000
   -4.2814   -1.0157    0.5013 C   0  0  0  0  0  0  0  0  0  0  0  0
   -5.2716   -1.1770    1.3554 N   0  0  0  0  0  0  0  0  0  0  0  0
   -5.5196    3.8072    0.2216 C   0  0  0  0  0  0  0  0  0  0  0  0
   -6.0994    5.1643    0.1227 C   0  0  0  0  0  0  0  0  0  0  0  0
   -4.2729    1.3599    0.1687 C   0  0  0  0  0  0  0  0  0  0  0  0
   -3.6911    0.1039    0.0628 N   0  0  0  0  0  0  0  0  0  0  0  0
   -5.2536    1.5963    1.0550 N   0  0  0  0  0  0  0  0  0  0  0  0
   -3.8305   -2.1851   -0.0621 O   0  0  0  0  0  0  0  0  0  0  0  0
   -5.8580    2.8079    1.1072 C   0  0  0  0  0  0  0  0  0  0  0  0
   -3.8248    2.3046   -0.6635 N   0  0  0  0  0  0  0  0  0  0  0  0
   -5.5286   -2.5141    1.3295 C   0  0  0  0  0  0  0  0  0  0  0  0
   -4.4576    3.5025   -0.6154 C   0  0  0  0  0  0  0  0  0  0  0  0
   -7.4645    5.3026    0.3228 N   0  0  0  0  0  0  0  0  0  0  0  0
   -4.6509   -3.1468    0.4643 C   0  0  0  0  0  0  0  0  0  0  0  0
   -5.3218    6.0651   -0.1758 O   0  0  0  0  0  0  0  0  0  0  0  0
   -8.2052    6.5090    0.2885 C   0  0  0  0  0  0  0  0  0  0  0  0
   -9.7985    8.8106    0.1811 C   0  0  0  0  0  0  0  0  0  0  0  0
  -10.5637    9.9069    0.1049 F   0  0  0  0  0  0  0  0  0  0  0  0
   -7.6611    7.7389   -0.0983 C   0  0  0  0  0  0  0  0  0  0  0  0
   -9.5609    6.4574    0.6483 C   0  0  0  0  0  0  0  0  0  0  0  0
   -8.4576    8.8863   -0.1614 C   0  0  0  0  0  0  0  0  0  0  0  0
  -10.3558    7.6095    0.5987 C   0  0  0  0  0  0  0  0  0  0  0  0
   -6.7892    2.9343    2.2692 C   0  0  0  0  0  0  0  0  0  0  0  0
   -6.5002   -3.2670    1.9972 C   0  0  0  0  0  0  0  0  0  0  0  0
   -4.6599   -4.5070    0.1959 C   0  0  0  0  0  0  0  0  0  0  0  0
   -6.5486   -4.6445    1.7482 C   0  0  0  0  0  0  0  0  0  0  0  0
   -5.6450   -5.2501    0.8645 C   0  0  0  0  0  0  0  0  0  0  0  0
   -3.0263    0.0649   -0.6907 H   0  0  0  0  0  0  0  0  0  0  0  0
   -4.0568    4.2438   -1.3051 H   0  0  0  0  0  0  0  0  0  0  0  0
   -8.0106    4.4649    0.4925 H   0  0  0  0  0  0  0  0  0  0  0  0
   -6.6193    7.8433   -0.3810 H   0  0  0  0  0  0  0  0  0  0  0  0
  -10.0192    5.5303    0.9834 H   0  0  0  0  0  0  0  0  0  0  0  0
   -8.0322    9.8315   -0.4834 H   0  0  0  0  0  0  0  0  0  0  0  0
  -11.4043    7.5780    0.8780 H   0  0  0  0  0  0  0  0  0  0  0  0
   -7.5354    2.1326    2.2353 H   0  0  0  0  0  0  0  0  0  0  0  0
   -6.2127    2.8268    3.1944 H   0  0  0  0  0  0  0  0  0  0  0  0
   -7.3141    3.8849    2.3348 H   0  0  0  0  0  0  0  0  0  0  0  0
   -7.1965   -2.7849    2.6741 H   0  0  0  0  0  0  0  0  0  0  0  0
   -3.9599   -4.9608   -0.4942 H   0  0  0  0  0  0  0  0  0  0  0  0
   -7.3039   -5.2473    2.2476 H   0  0  0  0  0  0  0  0  0  0  0  0
   -5.7133   -6.3223    0.6896 H   0  0  0  0  0  0  0  0  0  0  0  0
  2  1  2  0  0  0  0
  3 12  1  0  0  0  0
  3  9  2  0  0  0  0
  4  3  1  0  0  0  0
  5  6  1  0  0  0  0
  6  1  1  0  0  0  0
  6 28  1  0  0  0  0
  7  5  2  0  0  0  0
  8  1  1  0  0  0  0
  9  7  1  0  0  0  0
 10  5  1  0  0  0  0
 11  2  1  0  0  0  0
 12 10  2  0  0  0  0
 12 29  1  0  0  0  0
 13  4  1  0  0  0  0
 13 30  1  0  0  0  0
 14  8  1  0  0  0  0
 14 11  2  0  0  0  0
 15  4  2  0  0  0  0
 16 13  1  0  0  0  0
 17 22  2  0  0  0  0
 17 21  1  0  0  0  0
 18 17  1  0  0  0  0
 19 16  1  0  0  0  0
 19 31  1  0  0  0  0
 20 16  2  0  0  0  0
 20 32  1  0  0  0  0
 21 19  2  0  0  0  0
 21 33  1  0  0  0  0
 22 20  1  0  0  0  0
 22 34  1  0  0  0  0
 23  9  1  0  0  0  0
 23 35  1  0  0  0  0
 23 36  1  0  0  0  0
 23 37  1  0  0  0  0
 24 11  1  0  0  0  0
 24 38  1  0  0  0  0
 25 14  1  0  0  0  0
 25 39  1  0  0  0  0
 26 24  2  0  0  0  0
 26 40  1  0  0  0  0
 27 25  2  0  0  0  0
 27 26  1  0  0  0  0
 27 41  1  0  0  0  0
M  END
>  <Mol_ID>
8874

>  <Formula>
C19H14FN5O2

>  <MolWeight>
363.3451632

>  <Cat>
P2422

>  <Name>
WAY-325680

>  <Synonyms>
N/A

>  <Target>
¦Á-synuclein

>  <Form>
free base

>  <CAS>
869356-38-7

>  <URL>
N/A

$$$$
