WAY-331963
 OpenBabel08302521453D

 47 49  0  0  0  0  0  0  0  0999 V2000
   -0.0419   -0.6320   -0.0181 C   0  0  0  0  0  0  0  0  0  0  0  0
    0.2935    0.6307    0.1273 N   0  0  0  0  0  0  0  0  0  0  0  0
   -0.7280    1.3533   -0.4543 C   0  0  0  0  0  0  0  0  0  0  0  0
   -1.2355   -0.7987   -0.6726 O   0  0  0  0  0  0  0  0  0  0  0  0
   -1.6684    0.4698   -0.9541 C   0  0  0  0  0  0  0  0  0  0  0  0
    0.6759   -1.8511    0.3693 C   0  0  0  0  0  0  0  0  0  0  0  0
    1.9234    3.4152   -2.4379 C   0  0  0  0  0  0  0  0  0  0  0  0
    2.7232    4.0246   -3.3903 N   0  0  0  0  0  0  0  0  0  0  0  0
    6.4334    2.0561   -4.7106 N   0  0  0  0  0  0  0  0  0  0  0  0
    1.7785   -1.8479    1.2532 C   0  0  0  0  0  0  0  0  0  0  0  0
    2.3230    3.1818   -1.3023 O   0  0  0  0  0  0  0  0  0  0  0  0
   -0.8287    3.7343   -1.9558 S   0  0  0  0  0  0  0  0  0  0  0  0
    5.1013    3.9609   -4.0051 C   0  0  0  0  0  0  0  0  0  0  0  0
   -0.6710    2.8390   -0.3790 C   0  0  0  0  0  0  0  0  0  0  0  0
    4.0532    4.5161   -3.0812 C   0  0  0  0  0  0  0  0  0  0  0  0
    0.5339    3.0246   -2.9331 C   0  0  0  0  0  0  0  0  0  0  0  0
   -2.9556    0.5491   -1.6695 C   0  0  0  0  0  0  0  0  0  0  0  0
    5.4808    2.6234   -3.9315 C   0  0  0  0  0  0  0  0  0  0  0  0
    0.2698   -3.0805   -0.1905 C   0  0  0  0  0  0  0  0  0  0  0  0
    7.0496    2.8604   -5.6003 C   0  0  0  0  0  0  0  0  0  0  0  0
    2.3191   -0.6213    1.9441 C   0  0  0  0  0  0  0  0  0  0  0  0
    2.4730   -3.0514    1.4947 C   0  0  0  0  0  0  0  0  0  0  0  0
    5.7690    4.7615   -4.9384 C   0  0  0  0  0  0  0  0  0  0  0  0
    6.7590    4.2058   -5.7470 C   0  0  0  0  0  0  0  0  0  0  0  0
    0.9564   -4.2664    0.0754 C   0  0  0  0  0  0  0  0  0  0  0  0
    2.0604   -4.2474    0.9143 C   0  0  0  0  0  0  0  0  0  0  0  0
    2.3354    4.2664   -4.2926 H   0  0  0  0  0  0  0  0  0  0  0  0
   -1.4835    3.1824    0.2728 H   0  0  0  0  0  0  0  0  0  0  0  0
    0.2532    3.1551    0.1154 H   0  0  0  0  0  0  0  0  0  0  0  0
    4.0065    5.6065   -3.1791 H   0  0  0  0  0  0  0  0  0  0  0  0
    4.3277    4.3012   -2.0425 H   0  0  0  0  0  0  0  0  0  0  0  0
    0.4528    1.9369   -2.9938 H   0  0  0  0  0  0  0  0  0  0  0  0
    0.3931    3.4113   -3.9483 H   0  0  0  0  0  0  0  0  0  0  0  0
   -2.9317   -0.1020   -2.5507 H   0  0  0  0  0  0  0  0  0  0  0  0
   -3.7733    0.2078   -1.0261 H   0  0  0  0  0  0  0  0  0  0  0  0
   -3.1802    1.5639   -2.0043 H   0  0  0  0  0  0  0  0  0  0  0  0
    5.0224    1.9475   -3.2125 H   0  0  0  0  0  0  0  0  0  0  0  0
   -0.5834   -3.1244   -0.8642 H   0  0  0  0  0  0  0  0  0  0  0  0
    7.8158    2.3819   -6.2071 H   0  0  0  0  0  0  0  0  0  0  0  0
    2.5844   -0.8669    2.9793 H   0  0  0  0  0  0  0  0  0  0  0  0
    3.2164   -0.2649    1.4287 H   0  0  0  0  0  0  0  0  0  0  0  0
    1.5995    0.1936    2.0168 H   0  0  0  0  0  0  0  0  0  0  0  0
    3.3446   -3.0553    2.1467 H   0  0  0  0  0  0  0  0  0  0  0  0
    5.5400    5.8200   -5.0288 H   0  0  0  0  0  0  0  0  0  0  0  0
    7.2957    4.8097   -6.4708 H   0  0  0  0  0  0  0  0  0  0  0  0
    0.6322   -5.1969   -0.3797 H   0  0  0  0  0  0  0  0  0  0  0  0
    2.6161   -5.1630    1.1099 H   0  0  0  0  0  0  0  0  0  0  0  0
  2  1  2  0  0  0  0
  3  2  1  0  0  0  0
  4  1  1  0  0  0  0
  5  4  1  0  0  0  0
  5  3  2  0  0  0  0
  6  1  1  0  0  0  0
  7 16  1  0  0  0  0
  8  7  1  0  0  0  0
  8 27  1  0  0  0  0
  9 18  2  0  0  0  0
 10  6  2  0  0  0  0
 11  7  2  0  0  0  0
 12 14  1  0  0  0  0
 13 15  1  0  0  0  0
 14  3  1  0  0  0  0
 14 28  1  0  0  0  0
 14 29  1  0  0  0  0
 15  8  1  0  0  0  0
 15 30  1  0  0  0  0
 15 31  1  0  0  0  0
 16 12  1  0  0  0  0
 16 32  1  0  0  0  0
 16 33  1  0  0  0  0
 17  5  1  0  0  0  0
 17 34  1  0  0  0  0
 17 35  1  0  0  0  0
 17 36  1  0  0  0  0
 18 13  1  0  0  0  0
 18 37  1  0  0  0  0
 19  6  1  0  0  0  0
 19 38  1  0  0  0  0
 20 24  2  0  0  0  0
 20  9  1  0  0  0  0
 20 39  1  0  0  0  0
 21 10  1  0  0  0  0
 21 40  1  0  0  0  0
 21 41  1  0  0  0  0
 21 42  1  0  0  0  0
 22 10  1  0  0  0  0
 22 43  1  0  0  0  0
 23 13  2  0  0  0  0
 23 44  1  0  0  0  0
 24 23  1  0  0  0  0
 24 45  1  0  0  0  0
 25 19  2  0  0  0  0
 25 46  1  0  0  0  0
 26 25  1  0  0  0  0
 26 22  2  0  0  0  0
 26 47  1  0  0  0  0
M  END
>  <Mol_ID>
9297

>  <Formula>
C20H21N3O2S

>  <MolWeight>
367.46464

>  <Cat>
P2625

>  <Name>
WAY-331963

>  <Synonyms>
N/A

>  <Target>
beta-catenin

>  <Form>
free base

>  <CAS>
902167-43-5

>  <URL>
N/A

$$$$
