WAY-324413
 OpenBabel08302521423D

 24 26  0  0  0  0  0  0  0  0999 V2000
    1.2404    0.1206    0.0869 N   0  0  0  0  0  0  0  0  0  0  0  0
    0.5542   -1.0033    0.0422 C   0  0  0  0  0  0  0  0  0  0  0  0
    0.2588    1.0873    0.0200 C   0  0  0  0  0  0  0  0  0  0  0  0
   -0.9866    0.5901   -0.0449 N   0  0  0  0  0  0  0  0  0  0  0  0
    1.1388   -2.3093    0.0608 C   0  0  0  0  0  0  0  0  0  0  0  0
   -0.7944   -0.7876   -0.0352 O   0  0  0  0  0  0  0  0  0  0  0  0
    0.3973   -3.4585   -0.0508 O   0  0  0  0  0  0  0  0  0  0  0  0
    1.2545   -4.5106   -0.0054 C   0  0  0  0  0  0  0  0  0  0  0  0
    2.4756   -2.6562    0.1801 C   0  0  0  0  0  0  0  0  0  0  0  0
    2.5479   -4.0706    0.1400 C   0  0  0  0  0  0  0  0  0  0  0  0
    0.5661    2.5136   -0.0092 C   0  0  0  0  0  0  0  0  0  0  0  0
    0.7312   -6.2966   -0.1274 Br  0  0  0  0  0  0  0  0  0  0  0  0
    1.8971    2.9550    0.0223 C   0  0  0  0  0  0  0  0  0  0  0  0
   -0.4583    3.4699   -0.0924 C   0  0  0  0  0  0  0  0  0  0  0  0
   -0.1576    4.8322   -0.1583 C   0  0  0  0  0  0  0  0  0  0  0  0
    2.1969    4.3182   -0.0441 C   0  0  0  0  0  0  0  0  0  0  0  0
    1.1695    5.2557   -0.1391 C   0  0  0  0  0  0  0  0  0  0  0  0
    3.2968   -1.9591    0.2837 H   0  0  0  0  0  0  0  0  0  0  0  0
    3.4338   -4.6867    0.2066 H   0  0  0  0  0  0  0  0  0  0  0  0
    2.7132    2.2382    0.0908 H   0  0  0  0  0  0  0  0  0  0  0  0
   -1.5021    3.1615   -0.1141 H   0  0  0  0  0  0  0  0  0  0  0  0
   -0.9609    5.5611   -0.2312 H   0  0  0  0  0  0  0  0  0  0  0  0
    3.2327    4.6479   -0.0280 H   0  0  0  0  0  0  0  0  0  0  0  0
    1.4029    6.3152   -0.2000 H   0  0  0  0  0  0  0  0  0  0  0  0
  2  1  2  0  0  0  0
  3  1  1  0  0  0  0
  4  3  2  0  0  0  0
  4  6  1  0  0  0  0
  5  2  1  0  0  0  0
  6  2  1  0  0  0  0
  7  5  1  0  0  0  0
  8  7  1  0  0  0  0
  8 10  2  0  0  0  0
  9  5  2  0  0  0  0
  9 18  1  0  0  0  0
 10  9  1  0  0  0  0
 10 19  1  0  0  0  0
 11  3  1  0  0  0  0
 12  8  1  0  0  0  0
 13 11  2  0  0  0  0
 13 20  1  0  0  0  0
 14 11  1  0  0  0  0
 14 21  1  0  0  0  0
 15 14  2  0  0  0  0
 15 22  1  0  0  0  0
 16 13  1  0  0  0  0
 16 17  2  0  0  0  0
 16 23  1  0  0  0  0
 17 15  1  0  0  0  0
 17 24  1  0  0  0  0
M  END
>  <Mol_ID>
8631

>  <Formula>
C12H7BrN2O2

>  <MolWeight>
291.10018

>  <Cat>
P2319

>  <Name>
WAY-324413

>  <Synonyms>
N/A

>  <Target>
FLuc

>  <Form>
free base

>  <CAS>
690971-22-3

>  <URL>
N/A

$$$$
