WAY-311372
 OpenBabel08302521393D

 53 56  0  0  0  0  0  0  0  0999 V2000
    3.1571   -2.5888   -3.9182 C   0  0  0  0  0  0  0  0  0  0  0  0
    4.4375   -3.0476   -4.1027 C   0  0  0  0  0  0  0  0  0  0  0  0
    2.7096   -2.1283   -2.6965 C   0  0  0  0  0  0  0  0  0  0  0  0
    2.4321   -2.5924   -5.0741 O   0  0  0  0  0  0  0  0  0  0  0  0
    5.3417   -3.1019   -3.0661 C   0  0  0  0  0  0  0  0  0  0  0  0
    4.6800   -3.3907   -5.3992 O   0  0  0  0  0  0  0  0  0  0  0  0
    3.6187   -2.0991   -1.6245 C   0  0  0  0  0  0  0  0  0  0  0  0
    3.4574   -2.9396   -6.0238 C   0  0  0  0  0  0  0  0  0  0  0  0
    4.9278   -2.6109   -1.8167 C   0  0  0  0  0  0  0  0  0  0  0  0
    3.2393   -1.3852   -0.3342 C   0  0  0  0  0  0  0  0  0  0  0  0
    3.4347   -2.1781    0.8840 N   0  0  0  0  0  0  0  0  0  0  0  0
    2.4437   -3.2654    1.0473 C   0  0  0  0  0  0  0  0  0  0  0  0
    3.4781   -1.3343    2.1014 C   0  0  0  0  0  0  0  0  0  0  0  0
    1.0656   -2.8618    1.6276 C   0  0  0  0  0  0  0  0  0  0  0  0
    2.1189   -0.9101    2.6950 C   0  0  0  0  0  0  0  0  0  0  0  0
    1.2131   -2.0703    2.8776 N   0  0  0  0  0  0  0  0  0  0  0  0
    1.2776   -2.9186    4.3431 S   0  0  0  0  0  0  0  0  0  0  0  0
   -0.4360   -2.8890    4.8585 C   0  0  0  0  0  0  0  0  0  0  0  0
    1.6273   -4.2964    4.0763 O   0  0  0  0  0  0  0  0  0  0  0  0
    2.0101   -2.1303    5.3128 O   0  0  0  0  0  0  0  0  0  0  0  0
   -0.8859   -1.8480    5.6826 C   0  0  0  0  0  0  0  0  0  0  0  0
   -1.2785   -3.9474    4.5403 C   0  0  0  0  0  0  0  0  0  0  0  0
   -2.1917   -1.8517    6.2001 C   0  0  0  0  0  0  0  0  0  0  0  0
   -2.5855   -3.9475    5.0375 C   0  0  0  0  0  0  0  0  0  0  0  0
   -3.0526   -2.9154    5.8699 C   0  0  0  0  0  0  0  0  0  0  0  0
   -2.6681   -0.8651    7.0234 O   0  0  0  0  0  0  0  0  0  0  0  0
   -4.3527   -3.1212    6.2590 O   0  0  0  0  0  0  0  0  0  0  0  0
   -1.7826    0.1727    7.4231 C   0  0  0  0  0  0  0  0  0  0  0  0
   -4.9489   -2.2317    7.1920 C   0  0  0  0  0  0  0  0  0  0  0  0
    1.6968   -1.7552   -2.5950 H   0  0  0  0  0  0  0  0  0  0  0  0
    6.3504   -3.4709   -3.2197 H   0  0  0  0  0  0  0  0  0  0  0  0
    3.0838   -3.7304   -6.6865 H   0  0  0  0  0  0  0  0  0  0  0  0
    3.6835   -2.0541   -6.6294 H   0  0  0  0  0  0  0  0  0  0  0  0
    5.6364   -2.6000   -0.9925 H   0  0  0  0  0  0  0  0  0  0  0  0
    3.8969   -0.5045   -0.3077 H   0  0  0  0  0  0  0  0  0  0  0  0
    2.2169   -0.9943   -0.3956 H   0  0  0  0  0  0  0  0  0  0  0  0
    2.2871   -3.7908    0.0980 H   0  0  0  0  0  0  0  0  0  0  0  0
    2.8985   -4.0073    1.7145 H   0  0  0  0  0  0  0  0  0  0  0  0
    4.0311   -1.8936    2.8656 H   0  0  0  0  0  0  0  0  0  0  0  0
    4.0755   -0.4321    1.9153 H   0  0  0  0  0  0  0  0  0  0  0  0
    0.5108   -2.2521    0.9051 H   0  0  0  0  0  0  0  0  0  0  0  0
    0.4568   -3.7546    1.8052 H   0  0  0  0  0  0  0  0  0  0  0  0
    1.6180   -0.1965    2.0298 H   0  0  0  0  0  0  0  0  0  0  0  0
    2.2700   -0.3754    3.6386 H   0  0  0  0  0  0  0  0  0  0  0  0
   -0.1893   -1.0496    5.9199 H   0  0  0  0  0  0  0  0  0  0  0  0
   -0.9369   -4.7793    3.9294 H   0  0  0  0  0  0  0  0  0  0  0  0
   -3.2516   -4.7738    4.7918 H   0  0  0  0  0  0  0  0  0  0  0  0
   -0.8946   -0.2261    7.9244 H   0  0  0  0  0  0  0  0  0  0  0  0
   -1.5114    0.7996    6.5679 H   0  0  0  0  0  0  0  0  0  0  0  0
   -2.3118    0.8024    8.1450 H   0  0  0  0  0  0  0  0  0  0  0  0
   -4.4060   -2.2226    8.1419 H   0  0  0  0  0  0  0  0  0  0  0  0
   -5.0599   -1.2286    6.7686 H   0  0  0  0  0  0  0  0  0  0  0  0
   -5.9579   -2.6018    7.4026 H   0  0  0  0  0  0  0  0  0  0  0  0
  1  2  1  0  0  0  0
  1  3  2  0  0  0  0
  1  4  1  0  0  0  0
  2  5  2  0  0  0  0
  2  6  1  0  0  0  0
  3  7  1  0  0  0  0
  3 30  1  0  0  0  0
  4  8  1  0  0  0  0
  5  9  1  0  0  0  0
  5 31  1  0  0  0  0
  6  8  1  0  0  0  0
  7 10  1  0  0  0  0
  7  9  2  0  0  0  0
  8 32  1  0  0  0  0
  8 33  1  0  0  0  0
  9 34  1  0  0  0  0
 10 11  1  0  0  0  0
 10 35  1  0  0  0  0
 10 36  1  0  0  0  0
 11 12  1  0  0  0  0
 11 13  1  0  0  0  0
 12 14  1  0  0  0  0
 12 37  1  0  0  0  0
 12 38  1  0  0  0  0
 13 15  1  0  0  0  0
 13 39  1  0  0  0  0
 13 40  1  0  0  0  0
 14 16  1  0  0  0  0
 14 41  1  0  0  0  0
 14 42  1  0  0  0  0
 15 16  1  0  0  0  0
 15 43  1  0  0  0  0
 15 44  1  0  0  0  0
 16 17  1  0  0  0  0
 17 18  1  0  0  0  0
 17 19  2  0  0  0  0
 17 20  2  0  0  0  0
 18 21  2  0  0  0  0
 18 22  1  0  0  0  0
 21 23  1  0  0  0  0
 21 45  1  0  0  0  0
 22 24  2  0  0  0  0
 22 46  1  0  0  0  0
 23 25  2  0  0  0  0
 23 26  1  0  0  0  0
 24 25  1  0  0  0  0
 24 47  1  0  0  0  0
 25 27  1  0  0  0  0
 26 28  1  0  0  0  0
 27 29  1  0  0  0  0
 28 48  1  0  0  0  0
 28 49  1  0  0  0  0
 28 50  1  0  0  0  0
 29 51  1  0  0  0  0
 29 52  1  0  0  0  0
 29 53  1  0  0  0  0
M  END
>  <Mol_ID>
8032

>  <Formula>
C20H24N2O6S

>  <MolWeight>
420.47936

>  <Cat>
P2200

>  <Name>
WAY-311372

>  <Synonyms>
N/A

>  <Target>
Anti-infection

>  <Form>
free base

>  <CAS>
278782-75-5

>  <URL>
N/A

$$$$
