WAY-299174
 OpenBabel08302521413D

 26 28  0  0  0  0  0  0  0  0999 V2000
    0.9521    0.6882    0.1027 N   0  0  0  0  0  0  0  0  0  0  0  0
    0.9013   -0.6794   -0.0642 C   0  0  0  0  0  0  0  0  0  0  0  0
   -0.3077   -1.1678   -0.1528 N   0  0  0  0  0  0  0  0  0  0  0  0
   -0.3806    1.0775    0.1299 C   0  0  0  0  0  0  0  0  0  0  0  0
   -1.1235   -0.0904   -0.0025 N   0  0  0  0  0  0  0  0  0  0  0  0
    2.0481   -1.5481   -0.1056 C   0  0  0  0  0  0  0  0  0  0  0  0
    2.0854    1.5406    0.0313 C   0  0  0  0  0  0  0  0  0  0  0  0
   -1.1261    2.5619    0.1803 S   0  0  0  0  0  0  0  0  0  0  0  0
    3.1600   -1.2394    0.6304 O   0  0  0  0  0  0  0  0  0  0  0  0
    2.2641   -2.7410   -0.7702 C   0  0  0  0  0  0  0  0  0  0  0  0
    4.0898   -2.1968    0.3872 C   0  0  0  0  0  0  0  0  0  0  0  0
    3.5906   -3.1422   -0.4750 C   0  0  0  0  0  0  0  0  0  0  0  0
    3.1409    1.2660   -0.8532 C   0  0  0  0  0  0  0  0  0  0  0  0
    2.1781    2.6957    0.8189 C   0  0  0  0  0  0  0  0  0  0  0  0
    4.3155    3.2600   -0.1638 C   0  0  0  0  0  0  0  0  0  0  0  0
    3.2799    3.5520    0.7178 C   0  0  0  0  0  0  0  0  0  0  0  0
    4.2506    2.1111   -0.9444 C   0  0  0  0  0  0  0  0  0  0  0  0
   -2.1316   -0.1555   -0.0811 H   0  0  0  0  0  0  0  0  0  0  0  0
    1.5529   -3.2404   -1.4162 H   0  0  0  0  0  0  0  0  0  0  0  0
    5.0385   -2.0633    0.8894 H   0  0  0  0  0  0  0  0  0  0  0  0
    4.1164   -4.0123   -0.8415 H   0  0  0  0  0  0  0  0  0  0  0  0
    3.1157    0.4026   -1.5117 H   0  0  0  0  0  0  0  0  0  0  0  0
    1.4133    2.9396    1.5513 H   0  0  0  0  0  0  0  0  0  0  0  0
    5.1717    3.9242   -0.2423 H   0  0  0  0  0  0  0  0  0  0  0  0
    3.3273    4.4464    1.3341 H   0  0  0  0  0  0  0  0  0  0  0  0
    5.0559    1.8726   -1.6336 H   0  0  0  0  0  0  0  0  0  0  0  0
  2  1  1  0  0  0  0
  3  2  2  0  0  0  0
  4  1  1  0  0  0  0
  5  3  1  0  0  0  0
  5  4  1  0  0  0  0
  5 18  1  0  0  0  0
  6  2  1  0  0  0  0
  7 13  2  0  0  0  0
  7  1  1  0  0  0  0
  8  4  2  0  0  0  0
  9  6  1  0  0  0  0
 10  6  2  0  0  0  0
 10 19  1  0  0  0  0
 11 12  2  0  0  0  0
 11  9  1  0  0  0  0
 11 20  1  0  0  0  0
 12 10  1  0  0  0  0
 12 21  1  0  0  0  0
 13 22  1  0  0  0  0
 14  7  1  0  0  0  0
 14 23  1  0  0  0  0
 15 16  1  0  0  0  0
 15 24  1  0  0  0  0
 16 14  2  0  0  0  0
 16 25  1  0  0  0  0
 17 15  2  0  0  0  0
 17 13  1  0  0  0  0
 17 26  1  0  0  0  0
M  END
>  <Mol_ID>
8356

>  <Formula>
C12H8ClN3OS

>  <MolWeight>
277.72942

>  <Cat>
P2106

>  <Name>
WAY-299174

>  <Synonyms>
N/A

>  <Target>
others

>  <Form>
free base

>  <CAS>
60870-39-5

>  <URL>
N/A

$$$$
