WAY-638430
 OpenBabel08302521423D

 30 32  0  0  0  0  0  0  0  0999 V2000
    0.2858   -1.1590   -0.1663 C   0  0  0  0  0  0  0  0  0  0  0  0
    1.4210   -0.5474   -0.3592 N   0  0  0  0  0  0  0  0  0  0  0  0
    1.2626    0.8148   -0.1521 C   0  0  0  0  0  0  0  0  0  0  0  0
    0.0322   -2.5032   -0.1727 N   0  0  0  0  0  0  0  0  0  0  0  0
    1.0052   -3.4099   -0.5418 C   0  0  0  0  0  0  0  0  0  0  0  0
   -1.0539   -0.1752    0.2133 S   0  0  0  0  0  0  0  0  0  0  0  0
   -0.0375    1.2089    0.1133 C   0  0  0  0  0  0  0  0  0  0  0  0
    0.6993   -4.8398   -0.2755 C   0  0  0  0  0  0  0  0  0  0  0  0
    2.4098    1.7170   -0.1614 C   0  0  0  0  0  0  0  0  0  0  0  0
    2.1778    3.0298    0.0969 N   0  0  0  0  0  0  0  0  0  0  0  0
    2.0859   -3.1476   -1.0558 O   0  0  0  0  0  0  0  0  0  0  0  0
    1.6438   -7.0465    0.0966 N   0  0  0  0  0  0  0  0  0  0  0  0
    1.7686   -5.7256   -0.1923 C   0  0  0  0  0  0  0  0  0  0  0  0
   -0.5859   -5.3550   -0.0852 C   0  0  0  0  0  0  0  0  0  0  0  0
    3.2605    3.8358    0.1720 C   0  0  0  0  0  0  0  0  0  0  0  0
    0.3918   -7.5059    0.2963 C   0  0  0  0  0  0  0  0  0  0  0  0
    3.6910    1.2016   -0.3543 C   0  0  0  0  0  0  0  0  0  0  0  0
   -0.7397   -6.7101    0.2102 C   0  0  0  0  0  0  0  0  0  0  0  0
    4.5670    3.4013    0.0077 C   0  0  0  0  0  0  0  0  0  0  0  0
    4.7825    2.0571   -0.2643 C   0  0  0  0  0  0  0  0  0  0  0  0
   -0.8630   -2.7790    0.1955 H   0  0  0  0  0  0  0  0  0  0  0  0
   -0.4138    2.2062    0.2929 H   0  0  0  0  0  0  0  0  0  0  0  0
    2.7925   -5.3935   -0.3492 H   0  0  0  0  0  0  0  0  0  0  0  0
   -1.4745   -4.7427   -0.1801 H   0  0  0  0  0  0  0  0  0  0  0  0
    3.0461    4.8796    0.3845 H   0  0  0  0  0  0  0  0  0  0  0  0
    0.3194   -8.5631    0.5347 H   0  0  0  0  0  0  0  0  0  0  0  0
    3.8374    0.1418   -0.5505 H   0  0  0  0  0  0  0  0  0  0  0  0
   -1.7237   -7.1395    0.3678 H   0  0  0  0  0  0  0  0  0  0  0  0
    5.3973    4.0929    0.0939 H   0  0  0  0  0  0  0  0  0  0  0  0
    5.7891    1.6704   -0.3949 H   0  0  0  0  0  0  0  0  0  0  0  0
  2  1  2  0  0  0  0
  3  2  1  0  0  0  0
  4  1  1  0  0  0  0
  4 21  1  0  0  0  0
  5  4  1  0  0  0  0
  6  1  1  0  0  0  0
  7  6  1  0  0  0  0
  7  3  2  0  0  0  0
  7 22  1  0  0  0  0
  8  5  1  0  0  0  0
  9  3  1  0  0  0  0
 10  9  2  0  0  0  0
 11  5  2  0  0  0  0
 12 13  2  0  0  0  0
 13  8  1  0  0  0  0
 13 23  1  0  0  0  0
 14  8  2  0  0  0  0
 14 24  1  0  0  0  0
 15 10  1  0  0  0  0
 15 25  1  0  0  0  0
 16 18  2  0  0  0  0
 16 12  1  0  0  0  0
 16 26  1  0  0  0  0
 17  9  1  0  0  0  0
 17 27  1  0  0  0  0
 18 14  1  0  0  0  0
 18 28  1  0  0  0  0
 19 20  1  0  0  0  0
 19 15  2  0  0  0  0
 19 29  1  0  0  0  0
 20 17  2  0  0  0  0
 20 30  1  0  0  0  0
M  END
>  <Mol_ID>
8513

>  <Formula>
C14H10N4OS

>  <MolWeight>
282.3204

>  <Cat>
P3039

>  <Name>
WAY-638430

>  <Synonyms>
N/A

>  <Target>
Anti-infection

>  <Form>
free base

>  <CAS>
794563-45-4

>  <URL>
N/A

$$$$
