WAY-326147
 OpenBabel08302521433D

 50 53  0  0  0  0  0  0  0  0999 V2000
    0.2479   -0.6657   -0.1307 C   0  0  0  0  0  0  0  0  0  0  0  0
    0.3060    0.7313    0.0007 N   0  0  0  0  0  0  0  0  0  0  0  0
    1.5650   -1.0843   -0.2987 C   0  0  0  0  0  0  0  0  0  0  0  0
   -0.8504    1.4998    0.0394 C   0  0  0  0  0  0  0  0  0  0  0  0
   -0.9595   -1.3257   -0.1191 N   0  0  0  0  0  0  0  0  0  0  0  0
    1.5820    1.1749    0.0974 N   0  0  0  0  0  0  0  0  0  0  0  0
   -2.0494    0.8955    0.0412 C   0  0  0  0  0  0  0  0  0  0  0  0
    2.0539   -2.4329   -0.5759 C   0  0  0  0  0  0  0  0  0  0  0  0
   -2.0438   -0.6011   -0.0268 C   0  0  0  0  0  0  0  0  0  0  0  0
    2.3220    0.0789   -0.0496 C   0  0  0  0  0  0  0  0  0  0  0  0
    3.1678   -2.5678   -1.4371 N   0  0  0  0  0  0  0  0  0  0  0  0
   -0.6811    2.9755    0.0691 C   0  0  0  0  0  0  0  0  0  0  0  0
   -3.3909   -1.2494    0.0538 C   0  0  0  0  0  0  0  0  0  0  0  0
    1.5148   -3.4124   -0.0646 O   0  0  0  0  0  0  0  0  0  0  0  0
    3.6348   -3.9220   -1.7467 C   0  0  0  0  0  0  0  0  0  0  0  0
   -4.5270   -0.6561   -0.5151 C   0  0  0  0  0  0  0  0  0  0  0  0
   -3.5277   -2.4577    0.7445 C   0  0  0  0  0  0  0  0  0  0  0  0
   -0.5280    3.4569   -1.1959 F   0  0  0  0  0  0  0  0  0  0  0  0
   -1.8035    3.5844    0.5522 F   0  0  0  0  0  0  0  0  0  0  0  0
    5.0229   -4.2926   -1.2564 C   0  0  0  0  0  0  0  0  0  0  0  0
   -4.7909   -3.0461    0.8912 C   0  0  0  0  0  0  0  0  0  0  0  0
   -5.7870   -1.2446   -0.3650 C   0  0  0  0  0  0  0  0  0  0  0  0
   -5.9294   -2.4422    0.3419 C   0  0  0  0  0  0  0  0  0  0  0  0
    3.5980   -1.5140   -2.3503 C   0  0  0  0  0  0  0  0  0  0  0  0
   -7.2798   -3.0753    0.5128 C   0  0  0  0  0  0  0  0  0  0  0  0
    5.5197   -3.8841   -0.0117 C   0  0  0  0  0  0  0  0  0  0  0  0
    5.7691   -5.2331   -1.9925 C   0  0  0  0  0  0  0  0  0  0  0  0
    6.9569   -5.7692   -1.4872 C   0  0  0  0  0  0  0  0  0  0  0  0
    6.7120   -4.4187    0.4931 C   0  0  0  0  0  0  0  0  0  0  0  0
    7.4227   -5.3723   -0.2381 C   0  0  0  0  0  0  0  0  0  0  0  0
   -2.9742    1.4544    0.0951 H   0  0  0  0  0  0  0  0  0  0  0  0
    3.3968    0.1756    0.0217 H   0  0  0  0  0  0  0  0  0  0  0  0
    0.1601    3.3141    0.6788 H   0  0  0  0  0  0  0  0  0  0  0  0
    3.5874   -4.0339   -2.8378 H   0  0  0  0  0  0  0  0  0  0  0  0
    2.9472   -4.6663   -1.3362 H   0  0  0  0  0  0  0  0  0  0  0  0
   -4.4580    0.2615   -1.0918 H   0  0  0  0  0  0  0  0  0  0  0  0
   -2.6579   -2.9394    1.1866 H   0  0  0  0  0  0  0  0  0  0  0  0
   -4.8802   -3.9804    1.4424 H   0  0  0  0  0  0  0  0  0  0  0  0
   -6.6549   -0.7598   -0.8070 H   0  0  0  0  0  0  0  0  0  0  0  0
    2.7207   -1.0308   -2.7926 H   0  0  0  0  0  0  0  0  0  0  0  0
    4.1971   -0.7780   -1.8111 H   0  0  0  0  0  0  0  0  0  0  0  0
    4.2132   -1.9205   -3.1583 H   0  0  0  0  0  0  0  0  0  0  0  0
   -7.2782   -4.0883    0.0984 H   0  0  0  0  0  0  0  0  0  0  0  0
   -7.5463   -3.1183    1.5738 H   0  0  0  0  0  0  0  0  0  0  0  0
   -8.0587   -2.5060   -0.0059 H   0  0  0  0  0  0  0  0  0  0  0  0
    4.9635   -3.1765    0.5984 H   0  0  0  0  0  0  0  0  0  0  0  0
    5.4041   -5.5927   -2.9523 H   0  0  0  0  0  0  0  0  0  0  0  0
    7.4992   -6.5205   -2.0555 H   0  0  0  0  0  0  0  0  0  0  0  0
    7.0723   -4.1180    1.4728 H   0  0  0  0  0  0  0  0  0  0  0  0
    8.3251   -5.8165    0.1723 H   0  0  0  0  0  0  0  0  0  0  0  0
  2  1  1  0  0  0  0
  3  1  2  0  0  0  0
  4  2  1  0  0  0  0
  4  7  2  0  0  0  0
  5  1  1  0  0  0  0
  6  2  1  0  0  0  0
  6 10  2  0  0  0  0
  7  9  1  0  0  0  0
  7 31  1  0  0  0  0
  8  3  1  0  0  0  0
  9  5  2  0  0  0  0
 10  3  1  0  0  0  0
 10 32  1  0  0  0  0
 11  8  1  0  0  0  0
 12  4  1  0  0  0  0
 12 33  1  0  0  0  0
 13  9  1  0  0  0  0
 14  8  2  0  0  0  0
 15 11  1  0  0  0  0
 15 34  1  0  0  0  0
 15 35  1  0  0  0  0
 16 13  2  0  0  0  0
 16 36  1  0  0  0  0
 17 13  1  0  0  0  0
 17 37  1  0  0  0  0
 18 12  1  0  0  0  0
 19 12  1  0  0  0  0
 20 15  1  0  0  0  0
 21 17  2  0  0  0  0
 21 38  1  0  0  0  0
 22 16  1  0  0  0  0
 22 23  2  0  0  0  0
 22 39  1  0  0  0  0
 23 21  1  0  0  0  0
 24 11  1  0  0  0  0
 24 40  1  0  0  0  0
 24 41  1  0  0  0  0
 24 42  1  0  0  0  0
 25 23  1  0  0  0  0
 25 43  1  0  0  0  0
 25 44  1  0  0  0  0
 25 45  1  0  0  0  0
 26 20  2  0  0  0  0
 26 46  1  0  0  0  0
 27 20  1  0  0  0  0
 27 47  1  0  0  0  0
 28 27  2  0  0  0  0
 28 48  1  0  0  0  0
 29 26  1  0  0  0  0
 29 30  2  0  0  0  0
 29 49  1  0  0  0  0
 30 28  1  0  0  0  0
 30 50  1  0  0  0  0
M  END
>  <Mol_ID>
8898

>  <Formula>
C23H20F2N4O

>  <MolWeight>
406.4279064

>  <Cat>
P2456

>  <Name>
WAY-326147

>  <Synonyms>
N/A

>  <Target>
11¦Â-HSD1

>  <Form>
free base

>  <CAS>
869718-32-1

>  <URL>
N/A

$$$$
