WAY-326796
 OpenBabel08302521433D

 53 54  0  0  0  0  0  0  0  0999 V2000
    1.1890    0.0577    0.2648 C   0  0  0  0  0  0  0  0  0  0  0  0
    2.5480    0.2458    0.0197 N   0  0  0  0  0  0  0  0  0  0  0  0
    0.2957    0.0427   -1.0297 C   0  0  3  0  0  0  0  0  0  0  0  0
    0.7700   -0.1201    1.4058 O   0  0  0  0  0  0  0  0  0  0  0  0
    0.6744   -1.1085   -1.9821 C   0  0  0  0  0  0  0  0  0  0  0  0
   -1.1803    0.1859   -0.7533 N   0  0  0  0  0  0  0  0  0  0  0  0
    1.6076   -2.0990   -1.6137 C   0  0  0  0  0  0  0  0  0  0  0  0
    0.1013   -1.2085   -3.2582 C   0  0  0  0  0  0  0  0  0  0  0  0
    1.4314   -3.1870   -3.7566 C   0  0  0  0  0  0  0  0  0  0  0  0
    3.5237   -0.0436    1.0554 C   0  0  0  0  0  0  0  0  0  0  0  0
    0.4606   -2.2532   -4.1244 C   0  0  0  0  0  0  0  0  0  0  0  0
    1.9962   -3.1121   -2.4911 C   0  0  0  0  0  0  0  0  0  0  0  0
    1.7229   -4.1588   -4.6749 O   0  0  0  0  0  0  0  0  0  0  0  0
   -1.8003   -0.9141    0.0134 C   0  0  0  0  0  0  0  0  0  0  0  0
   -1.4360    1.4942   -0.0905 C   0  0  0  0  0  0  0  0  0  0  0  0
    3.0375   -4.7027   -4.5873 C   0  0  0  0  0  0  0  0  0  0  0  0
    3.8636    1.2176    1.8463 C   0  0  0  0  0  0  0  0  0  0  0  0
    4.7817   -0.6971    0.4695 C   0  0  0  0  0  0  0  0  0  0  0  0
   -1.7256   -2.3206   -0.5683 C   0  0  0  0  0  0  0  0  0  0  0  0
   -2.9003    1.8241    0.2117 C   0  0  0  0  0  0  0  0  0  0  0  0
    5.8143   -0.9851    1.5578 C   0  0  0  0  0  0  0  0  0  0  0  0
    4.8799    0.9115    2.9423 C   0  0  0  0  0  0  0  0  0  0  0  0
    6.1394    0.2642    2.3720 C   0  0  0  0  0  0  0  0  0  0  0  0
    2.8621    0.3761   -0.9394 H   0  0  0  0  0  0  0  0  0  0  0  0
    0.5901    0.9495   -1.5849 H   0  0  0  0  0  0  0  0  0  0  0  0
    2.0395   -2.1298   -0.6175 H   0  0  0  0  0  0  0  0  0  0  0  0
   -0.6559   -0.4934   -3.5749 H   0  0  0  0  0  0  0  0  0  0  0  0
    3.0712   -0.7708    1.7449 H   0  0  0  0  0  0  0  0  0  0  0  0
   -0.0200   -2.3389   -5.0939 H   0  0  0  0  0  0  0  0  0  0  0  0
    2.7153   -3.8415   -2.1321 H   0  0  0  0  0  0  0  0  0  0  0  0
   -1.4498   -0.9378    1.0488 H   0  0  0  0  0  0  0  0  0  0  0  0
   -2.8767   -0.7175    0.0618 H   0  0  0  0  0  0  0  0  0  0  0  0
   -0.8928    1.5748    0.8570 H   0  0  0  0  0  0  0  0  0  0  0  0
   -1.0593    2.2953   -0.7391 H   0  0  0  0  0  0  0  0  0  0  0  0
    3.7924   -3.9120   -4.6717 H   0  0  0  0  0  0  0  0  0  0  0  0
    3.1812   -5.2825   -3.6695 H   0  0  0  0  0  0  0  0  0  0  0  0
    3.1732   -5.3897   -5.4272 H   0  0  0  0  0  0  0  0  0  0  0  0
    4.2652    1.9851    1.1723 H   0  0  0  0  0  0  0  0  0  0  0  0
    2.9567    1.6393    2.2955 H   0  0  0  0  0  0  0  0  0  0  0  0
    4.5180   -1.6351   -0.0345 H   0  0  0  0  0  0  0  0  0  0  0  0
    5.2244   -0.0475   -0.2959 H   0  0  0  0  0  0  0  0  0  0  0  0
   -2.0404   -2.3384   -1.6167 H   0  0  0  0  0  0  0  0  0  0  0  0
   -0.7303   -2.7542   -0.4709 H   0  0  0  0  0  0  0  0  0  0  0  0
   -2.4028   -2.9800   -0.0169 H   0  0  0  0  0  0  0  0  0  0  0  0
   -3.5137    1.7937   -0.6930 H   0  0  0  0  0  0  0  0  0  0  0  0
   -3.3303    1.1454    0.9559 H   0  0  0  0  0  0  0  0  0  0  0  0
   -2.9722    2.8308    0.6377 H   0  0  0  0  0  0  0  0  0  0  0  0
    6.7305   -1.3801    1.1038 H   0  0  0  0  0  0  0  0  0  0  0  0
    5.4302   -1.7656    2.2268 H   0  0  0  0  0  0  0  0  0  0  0  0
    5.1430    1.8344    3.4703 H   0  0  0  0  0  0  0  0  0  0  0  0
    4.4264    0.2377    3.6808 H   0  0  0  0  0  0  0  0  0  0  0  0
    6.6620    0.9870    1.7338 H   0  0  0  0  0  0  0  0  0  0  0  0
    6.8219    0.0046    3.1888 H   0  0  0  0  0  0  0  0  0  0  0  0
  2  1  1  0  0  0  0
  2 24  1  0  0  0  0
  3  1  1  0  0  0  0
  3 25  1  0  0  0  0
  4  1  2  0  0  0  0
  5  3  1  0  0  0  0
  6  3  1  0  0  0  0
  7  5  2  0  0  0  0
  7 26  1  0  0  0  0
  8  5  1  0  0  0  0
  8 27  1  0  0  0  0
  9 11  1  0  0  0  0
  9 12  2  0  0  0  0
 10  2  1  0  0  0  0
 10 28  1  0  0  0  0
 11  8  2  0  0  0  0
 11 29  1  0  0  0  0
 12  7  1  0  0  0  0
 12 30  1  0  0  0  0
 13  9  1  0  0  0  0
 14  6  1  0  0  0  0
 14 31  1  0  0  0  0
 14 32  1  0  0  0  0
 15  6  1  0  0  0  0
 15 33  1  0  0  0  0
 15 34  1  0  0  0  0
 16 13  1  0  0  0  0
 16 35  1  0  0  0  0
 16 36  1  0  0  0  0
 16 37  1  0  0  0  0
 17 10  1  0  0  0  0
 17 38  1  0  0  0  0
 17 39  1  0  0  0  0
 18 10  1  0  0  0  0
 18 40  1  0  0  0  0
 18 41  1  0  0  0  0
 19 14  1  0  0  0  0
 19 42  1  0  0  0  0
 19 43  1  0  0  0  0
 19 44  1  0  0  0  0
 20 15  1  0  0  0  0
 20 45  1  0  0  0  0
 20 46  1  0  0  0  0
 20 47  1  0  0  0  0
 21 18  1  0  0  0  0
 21 48  1  0  0  0  0
 21 49  1  0  0  0  0
 22 17  1  0  0  0  0
 22 50  1  0  0  0  0
 22 51  1  0  0  0  0
 23 21  1  0  0  0  0
 23 22  1  0  0  0  0
 23 52  1  0  0  0  0
 23 53  1  0  0  0  0
M  END
>  <Mol_ID>
8938

>  <Formula>
C19H30N2O2

>  <MolWeight>
318.4537

>  <Cat>
P2497

>  <Name>
WAY-326796

>  <Synonyms>
N/A

>  <Target>
Serotonin Transporter

>  <Form>
free base

>  <CAS>
1039364-37-8

>  <URL>
N/A

$$$$
