WAY-327499
 OpenBabel08302521443D

 58 60  0  0  0  0  0  0  0  0999 V2000
    1.1143    1.3388   -0.0166 C   0  0  0  0  0  0  0  0  0  0  0  0
   -0.1532    0.5707   -0.1822 C   0  0  0  0  0  0  0  0  0  0  0  0
   -0.1198   -0.8295   -0.0768 C   0  0  0  0  0  0  0  0  0  0  0  0
    1.1933    2.8476    0.0339 C   0  0  0  0  0  0  0  0  0  0  0  0
    2.2013    0.6290    0.3263 C   0  0  0  0  0  0  0  0  0  0  0  0
    1.1842   -1.5391   -0.0028 C   0  0  0  0  0  0  0  0  0  0  0  0
    2.2962   -0.7432    0.2361 N   0  0  0  0  0  0  0  0  0  0  0  0
    2.3299    3.5277   -0.4375 N   0  0  0  0  0  0  0  0  0  0  0  0
   -1.4151    1.1619   -0.3285 C   0  0  0  0  0  0  0  0  0  0  0  0
   -1.2946   -1.5944    0.0038 C   0  0  0  0  0  0  0  0  0  0  0  0
    3.0139    5.7522   -1.3516 C   0  0  3  0  0  0  0  0  0  0  0  0
    2.3823    4.9774   -0.1942 C   0  0  0  0  0  0  0  0  0  0  0  0
    2.0822    5.7592   -2.5519 C   0  0  0  0  0  0  0  0  0  0  0  0
   -2.6006    0.4114   -0.1965 C   0  0  0  0  0  0  0  0  0  0  0  0
   -2.5449   -0.9796   -0.0101 C   0  0  0  0  0  0  0  0  0  0  0  0
    1.2305   -2.7577   -0.1267 O   0  0  0  0  0  0  0  0  0  0  0  0
    0.2259    3.4717    0.4745 O   0  0  0  0  0  0  0  0  0  0  0  0
    2.3678    5.3384   -3.6655 O   0  0  0  0  0  0  0  0  0  0  0  0
    3.6048    2.9303   -0.8547 C   0  0  0  0  0  0  0  0  0  0  0  0
    3.6225   -1.3655    0.2921 C   0  0  0  0  0  0  0  0  0  0  0  0
    0.8927    6.3358   -2.2295 O   0  0  0  0  0  0  0  0  0  0  0  0
   -3.7513    1.1550   -0.2957 O   0  0  0  0  0  0  0  0  0  0  0  0
   -3.7257   -1.6584    0.1339 O   0  0  0  0  0  0  0  0  0  0  0  0
    4.3905    5.1751   -1.6986 C   0  0  0  0  0  0  0  0  0  0  0  0
    4.3216    3.6799   -1.9648 C   0  0  0  0  0  0  0  0  0  0  0  0
   -0.0735    6.2841   -3.2814 C   0  0  0  0  0  0  0  0  0  0  0  0
   -3.6566   -3.0463    0.4452 C   0  0  0  0  0  0  0  0  0  0  0  0
   -4.7537    0.8528    0.6723 C   0  0  0  0  0  0  0  0  0  0  0  0
    4.2205   -1.6035   -1.0913 C   0  0  0  0  0  0  0  0  0  0  0  0
   -1.3407    6.9643   -2.8022 C   0  0  0  0  0  0  0  0  0  0  0  0
    3.1086    1.1087    0.6682 H   0  0  0  0  0  0  0  0  0  0  0  0
   -1.5204    2.2351   -0.4849 H   0  0  0  0  0  0  0  0  0  0  0  0
   -1.1937   -2.6706    0.1101 H   0  0  0  0  0  0  0  0  0  0  0  0
    3.1542    6.8007   -1.0607 H   0  0  0  0  0  0  0  0  0  0  0  0
    2.9829    5.1175    0.7143 H   0  0  0  0  0  0  0  0  0  0  0  0
    1.3893    5.3771    0.0343 H   0  0  0  0  0  0  0  0  0  0  0  0
    3.4621    1.9167   -1.2271 H   0  0  0  0  0  0  0  0  0  0  0  0
    4.2450    2.8979    0.0351 H   0  0  0  0  0  0  0  0  0  0  0  0
    4.2993   -0.7285    0.8734 H   0  0  0  0  0  0  0  0  0  0  0  0
    3.5403   -2.3222    0.8211 H   0  0  0  0  0  0  0  0  0  0  0  0
    4.8166    5.6784   -2.5737 H   0  0  0  0  0  0  0  0  0  0  0  0
    5.0774    5.3554   -0.8614 H   0  0  0  0  0  0  0  0  0  0  0  0
    3.8013    3.4824   -2.9077 H   0  0  0  0  0  0  0  0  0  0  0  0
    5.3319    3.2719   -2.0820 H   0  0  0  0  0  0  0  0  0  0  0  0
    0.3127    6.8172   -4.1646 H   0  0  0  0  0  0  0  0  0  0  0  0
   -0.2840    5.2457   -3.5435 H   0  0  0  0  0  0  0  0  0  0  0  0
   -3.2583   -3.6099   -0.4042 H   0  0  0  0  0  0  0  0  0  0  0  0
   -3.0721   -3.2304    1.3536 H   0  0  0  0  0  0  0  0  0  0  0  0
   -4.6748   -3.4002    0.6339 H   0  0  0  0  0  0  0  0  0  0  0  0
   -5.4320    0.0825    0.2936 H   0  0  0  0  0  0  0  0  0  0  0  0
   -4.3315    0.5663    1.6428 H   0  0  0  0  0  0  0  0  0  0  0  0
   -5.3494    1.7583    0.8279 H   0  0  0  0  0  0  0  0  0  0  0  0
    3.5919   -2.2661   -1.6949 H   0  0  0  0  0  0  0  0  0  0  0  0
    4.3419   -0.6653   -1.6446 H   0  0  0  0  0  0  0  0  0  0  0  0
    5.2085   -2.0682   -0.9987 H   0  0  0  0  0  0  0  0  0  0  0  0
   -1.7437    6.4426   -1.9297 H   0  0  0  0  0  0  0  0  0  0  0  0
   -1.1361    7.9941   -2.4924 H   0  0  0  0  0  0  0  0  0  0  0  0
   -2.1013    6.9730   -3.5916 H   0  0  0  0  0  0  0  0  0  0  0  0
  2  1  1  0  0  0  0
  3  2  2  0  0  0  0
  4  1  1  0  0  0  0
  5  1  2  0  0  0  0
  5 31  1  0  0  0  0
  6  7  1  0  0  0  0
  6  3  1  0  0  0  0
  7  5  1  0  0  0  0
  8  4  1  0  0  0  0
  9  2  1  0  0  0  0
  9 32  1  0  0  0  0
 10  3  1  0  0  0  0
 10 33  1  0  0  0  0
 11 12  1  0  0  0  0
 11 24  1  0  0  0  0
 11 34  1  0  0  0  0
 12  8  1  0  0  0  0
 12 35  1  0  0  0  0
 12 36  1  0  0  0  0
 13 11  1  0  0  0  0
 14  9  2  0  0  0  0
 15 14  1  0  0  0  0
 15 10  2  0  0  0  0
 16  6  2  0  0  0  0
 17  4  2  0  0  0  0
 18 13  2  0  0  0  0
 19  8  1  0  0  0  0
 19 37  1  0  0  0  0
 19 38  1  0  0  0  0
 20  7  1  0  0  0  0
 20 39  1  0  0  0  0
 20 40  1  0  0  0  0
 21 13  1  0  0  0  0
 22 14  1  0  0  0  0
 23 15  1  0  0  0  0
 24 25  1  0  0  0  0
 24 41  1  0  0  0  0
 24 42  1  0  0  0  0
 25 19  1  0  0  0  0
 25 43  1  0  0  0  0
 25 44  1  0  0  0  0
 26 21  1  0  0  0  0
 26 45  1  0  0  0  0
 26 46  1  0  0  0  0
 27 23  1  0  0  0  0
 27 47  1  0  0  0  0
 27 48  1  0  0  0  0
 27 49  1  0  0  0  0
 28 22  1  0  0  0  0
 28 50  1  0  0  0  0
 28 51  1  0  0  0  0
 28 52  1  0  0  0  0
 29 20  1  0  0  0  0
 29 53  1  0  0  0  0
 29 54  1  0  0  0  0
 29 55  1  0  0  0  0
 30 26  1  0  0  0  0
 30 56  1  0  0  0  0
 30 57  1  0  0  0  0
 30 58  1  0  0  0  0
M  END
>  <Mol_ID>
8975

>  <Formula>
C22H28N2O6

>  <MolWeight>
416.46752

>  <Cat>
P2538

>  <Name>
WAY-327499

>  <Synonyms>
N/A

>  <Target>
Others

>  <Form>
free base

>  <CAS>
892265-75-7

>  <URL>
N/A

$$$$
