WAY-326397
 OpenBabel08302521433D

 57 61  0  0  0  0  0  0  0  0999 V2000
   -0.3184   -0.8581   -0.0742 C   0  0  0  0  0  0  0  0  0  0  0  0
   -0.5965    0.4729   -0.0906 C   0  0  0  0  0  0  0  0  0  0  0  0
   -1.4438   -1.6200   -0.0756 N   0  0  0  0  0  0  0  0  0  0  0  0
    0.9698   -1.3339   -0.0301 N   0  0  0  0  0  0  0  0  0  0  0  0
   -2.4542   -0.7733   -0.1125 C   0  0  0  0  0  0  0  0  0  0  0  0
   -1.9798    0.5418   -0.1371 N   0  0  0  0  0  0  0  0  0  0  0  0
    1.7189    0.9320   -0.0278 N   0  0  0  0  0  0  0  0  0  0  0  0
    2.0370   -0.4368   -0.0080 C   0  0  0  0  0  0  0  0  0  0  0  0
    0.4214    1.4664   -0.0515 C   0  0  0  0  0  0  0  0  0  0  0  0
   -3.7678   -1.1162    0.0207 N   0  0  0  0  0  0  0  0  0  0  0  0
   -5.8362   -2.9478   -0.8611 N   0  0  0  0  0  0  0  0  0  0  0  0
   -7.0651   -3.5640   -0.8679 C   0  0  0  0  0  0  0  0  0  0  0  0
   -2.7452    1.7799   -0.0152 C   0  0  0  0  0  0  0  0  0  0  0  0
    3.2076   -0.8271    0.0290 O   0  0  0  0  0  0  0  0  0  0  0  0
    0.1943    2.6740   -0.0510 O   0  0  0  0  0  0  0  0  0  0  0  0
   -7.5267   -4.0801    0.2945 N   0  0  0  0  0  0  0  0  0  0  0  0
   -4.1041   -2.3312    0.8091 C   0  0  0  0  0  0  0  0  0  0  0  0
   -4.8049   -0.6896   -0.9375 C   0  0  0  0  0  0  0  0  0  0  0  0
   -5.4394   -1.8567   -1.7461 C   0  0  0  0  0  0  0  0  0  0  0  0
   -4.7560   -3.4627   -0.0129 C   0  0  0  0  0  0  0  0  0  0  0  0
    1.2096   -2.7642   -0.0007 C   0  0  0  0  0  0  0  0  0  0  0  0
    2.8162    1.8883   -0.0085 C   0  0  0  0  0  0  0  0  0  0  0  0
   -3.0853    2.4366   -1.3385 C   0  0  0  0  0  0  0  0  0  0  0  0
   -3.8483    3.6370   -3.7717 C   0  0  0  0  0  0  0  0  0  0  0  0
   -4.2359    3.2403   -1.4191 C   0  0  0  0  0  0  0  0  0  0  0  0
   -2.2849    2.3176   -2.4856 C   0  0  0  0  0  0  0  0  0  0  0  0
   -2.6703    2.9010   -3.6947 C   0  0  0  0  0  0  0  0  0  0  0  0
   -4.6206    3.8249   -2.6289 C   0  0  0  0  0  0  0  0  0  0  0  0
   -7.8420   -3.6540   -2.0227 C   0  0  0  0  0  0  0  0  0  0  0  0
   -8.7613   -4.6428    0.3161 C   0  0  0  0  0  0  0  0  0  0  0  0
   -9.1021   -4.2613   -1.9904 C   0  0  0  0  0  0  0  0  0  0  0  0
   -9.5806   -4.7583   -0.7896 C   0  0  0  0  0  0  0  0  0  0  0  0
   -3.6610    1.5349    0.5352 H   0  0  0  0  0  0  0  0  0  0  0  0
   -2.1803    2.4761    0.6126 H   0  0  0  0  0  0  0  0  0  0  0  0
   -3.2232   -2.7363    1.3240 H   0  0  0  0  0  0  0  0  0  0  0  0
   -4.8044   -2.0250    1.5951 H   0  0  0  0  0  0  0  0  0  0  0  0
   -5.5982   -0.1960   -0.3627 H   0  0  0  0  0  0  0  0  0  0  0  0
   -4.4193    0.0400   -1.6542 H   0  0  0  0  0  0  0  0  0  0  0  0
   -4.7191   -2.2376   -2.4799 H   0  0  0  0  0  0  0  0  0  0  0  0
   -6.2918   -1.4504   -2.3016 H   0  0  0  0  0  0  0  0  0  0  0  0
   -4.0004   -3.9225   -0.6653 H   0  0  0  0  0  0  0  0  0  0  0  0
   -5.0891   -4.2547    0.6704 H   0  0  0  0  0  0  0  0  0  0  0  0
    0.7458   -3.1850    0.8970 H   0  0  0  0  0  0  0  0  0  0  0  0
    0.7653   -3.2176   -0.8923 H   0  0  0  0  0  0  0  0  0  0  0  0
    2.2770   -2.9997    0.0152 H   0  0  0  0  0  0  0  0  0  0  0  0
    2.7440    2.5323   -0.8908 H   0  0  0  0  0  0  0  0  0  0  0  0
    2.7299    2.5151    0.8847 H   0  0  0  0  0  0  0  0  0  0  0  0
    3.7986    1.4083   -0.0063 H   0  0  0  0  0  0  0  0  0  0  0  0
   -4.1551    4.0747   -4.7179 H   0  0  0  0  0  0  0  0  0  0  0  0
   -4.8496    3.4140   -0.5369 H   0  0  0  0  0  0  0  0  0  0  0  0
   -1.3491    1.7661   -2.4659 H   0  0  0  0  0  0  0  0  0  0  0  0
   -2.0466    2.7778   -4.5768 H   0  0  0  0  0  0  0  0  0  0  0  0
   -5.5245    4.4267   -2.6802 H   0  0  0  0  0  0  0  0  0  0  0  0
   -7.4668   -3.2881   -2.9711 H   0  0  0  0  0  0  0  0  0  0  0  0
   -9.0850   -5.0082    1.2861 H   0  0  0  0  0  0  0  0  0  0  0  0
   -9.6924   -4.3428   -2.8941 H   0  0  0  0  0  0  0  0  0  0  0  0
  -10.5564   -5.2230   -0.7195 H   0  0  0  0  0  0  0  0  0  0  0  0
  2  1  2  0  0  0  0
  3  1  1  0  0  0  0
  4  1  1  0  0  0  0
  5  3  2  0  0  0  0
  6  2  1  0  0  0  0
  6  5  1  0  0  0  0
  7  8  1  0  0  0  0
  8  4  1  0  0  0  0
  9  2  1  0  0  0  0
  9  7  1  0  0  0  0
 10  5  1  0  0  0  0
 11 19  1  0  0  0  0
 11 20  1  0  0  0  0
 12 11  1  0  0  0  0
 13  6  1  0  0  0  0
 13 33  1  0  0  0  0
 13 34  1  0  0  0  0
 14  8  2  0  0  0  0
 15  9  2  0  0  0  0
 16 12  2  0  0  0  0
 17 10  1  0  0  0  0
 17 35  1  0  0  0  0
 17 36  1  0  0  0  0
 18 10  1  0  0  0  0
 18 37  1  0  0  0  0
 18 38  1  0  0  0  0
 19 18  1  0  0  0  0
 19 39  1  0  0  0  0
 19 40  1  0  0  0  0
 20 17  1  0  0  0  0
 20 41  1  0  0  0  0
 20 42  1  0  0  0  0
 21  4  1  0  0  0  0
 21 43  1  0  0  0  0
 21 44  1  0  0  0  0
 21 45  1  0  0  0  0
 22  7  1  0  0  0  0
 22 46  1  0  0  0  0
 22 47  1  0  0  0  0
 22 48  1  0  0  0  0
 23 13  1  0  0  0  0
 24 27  2  0  0  0  0
 24 28  1  0  0  0  0
 24 49  1  0  0  0  0
 25 23  1  0  0  0  0
 25 50  1  0  0  0  0
 26 23  2  0  0  0  0
 26 51  1  0  0  0  0
 27 26  1  0  0  0  0
 27 52  1  0  0  0  0
 28 25  2  0  0  0  0
 28 53  1  0  0  0  0
 29 12  1  0  0  0  0
 29 54  1  0  0  0  0
 30 16  1  0  0  0  0
 30 55  1  0  0  0  0
 31 29  2  0  0  0  0
 31 56  1  0  0  0  0
 32 31  1  0  0  0  0
 32 30  2  0  0  0  0
 32 57  1  0  0  0  0
M  END
>  <Mol_ID>
8920

>  <Formula>
C23H24ClN7O2

>  <MolWeight>
465.93536

>  <Cat>
P2479

>  <Name>
WAY-326397

>  <Synonyms>
N/A

>  <Target>
liver X receptor

>  <Form>
free base

>  <CAS>
870760-26-2

>  <URL>
N/A

$$$$
