WDR5-0103
 OpenBabel08302521233D

 53 55  0  0  0  0  0  0  0  0999 V2000
   -4.3226    3.9207   -2.7714 C   0  0  0  0  0  0  0  0  0  0  0  0
   -4.9682    3.3124   -1.6943 C   0  0  0  0  0  0  0  0  0  0  0  0
   -4.4488    2.1287   -1.1504 C   0  0  0  0  0  0  0  0  0  0  0  0
   -3.3146    1.5216   -1.7085 C   0  0  0  0  0  0  0  0  0  0  0  0
   -2.6699    2.1521   -2.7821 C   0  0  0  0  0  0  0  0  0  0  0  0
   -3.1689    3.3460   -3.3079 C   0  0  0  0  0  0  0  0  0  0  0  0
   -2.7621    0.2166   -1.2122 C   0  0  0  0  0  0  0  0  0  0  0  0
   -1.6386   -0.1279   -1.5661 O   0  0  0  0  0  0  0  0  0  0  0  0
   -3.6282   -0.5629   -0.4483 N   0  0  0  0  0  0  0  0  0  0  0  0
   -3.2554   -1.8950   -0.1193 C   0  0  0  0  0  0  0  0  0  0  0  0
   -2.3928   -2.2010    0.9694 C   0  0  0  0  0  0  0  0  0  0  0  0
   -2.0498   -3.5645    1.1080 C   0  0  0  0  0  0  0  0  0  0  0  0
   -2.5341   -4.5635    0.2560 C   0  0  0  0  0  0  0  0  0  0  0  0
   -3.4192   -4.2398   -0.7712 C   0  0  0  0  0  0  0  0  0  0  0  0
   -3.7869   -2.9024   -0.9460 C   0  0  0  0  0  0  0  0  0  0  0  0
   -1.9694   -1.3002    1.9316 N   0  0  0  0  0  0  0  0  0  0  0  0
   -0.6552   -1.3866    2.5929 C   0  0  0  0  0  0  0  0  0  0  0  0
   -0.8204   -1.2624    4.1299 C   0  0  0  0  0  0  0  0  0  0  0  0
   -1.5548   -0.0452    4.5503 N   0  0  0  0  0  0  0  0  0  0  0  0
   -2.8358    0.0436    3.8184 C   0  0  0  0  0  0  0  0  0  0  0  0
   -2.7037   -0.0768    2.2796 C   0  0  0  0  0  0  0  0  0  0  0  0
   -1.8066   -0.0710    5.9923 C   0  0  0  0  0  0  0  0  0  0  0  0
   -6.1053    3.7729   -1.0860 O   0  0  0  0  0  0  0  0  0  0  0  0
   -6.8075    4.8202   -1.7488 C   0  0  0  0  0  0  0  0  0  0  0  0
   -3.9762   -5.2688   -1.6928 C   0  0  0  0  0  0  0  0  0  0  0  0
   -3.4430   -6.4875   -1.4228 O   0  0  0  0  0  0  0  0  0  0  0  0
   -3.9133   -7.5466   -2.2599 C   0  0  0  0  0  0  0  0  0  0  0  0
   -4.8010   -5.0257   -2.5599 O   0  0  0  0  0  0  0  0  0  0  0  0
   -4.6852    4.8448   -3.2109 H   0  0  0  0  0  0  0  0  0  0  0  0
   -4.9465    1.7005   -0.2854 H   0  0  0  0  0  0  0  0  0  0  0  0
   -1.7753    1.7115   -3.2193 H   0  0  0  0  0  0  0  0  0  0  0  0
   -2.6601    3.8251   -4.1414 H   0  0  0  0  0  0  0  0  0  0  0  0
   -4.5978   -0.4499   -0.7156 H   0  0  0  0  0  0  0  0  0  0  0  0
   -1.4194   -3.8890    1.9314 H   0  0  0  0  0  0  0  0  0  0  0  0
   -2.2248   -5.5921    0.4284 H   0  0  0  0  0  0  0  0  0  0  0  0
   -4.4541   -2.6406   -1.7661 H   0  0  0  0  0  0  0  0  0  0  0  0
   -0.0199   -0.5698    2.2258 H   0  0  0  0  0  0  0  0  0  0  0  0
   -0.1125   -2.3118    2.3708 H   0  0  0  0  0  0  0  0  0  0  0  0
    0.1771   -1.2516    4.5851 H   0  0  0  0  0  0  0  0  0  0  0  0
   -1.3384   -2.1593    4.4954 H   0  0  0  0  0  0  0  0  0  0  0  0
   -3.5191   -0.7467    4.1643 H   0  0  0  0  0  0  0  0  0  0  0  0
   -3.3106    1.0071    4.0391 H   0  0  0  0  0  0  0  0  0  0  0  0
   -2.1746    0.7937    1.8742 H   0  0  0  0  0  0  0  0  0  0  0  0
   -3.7251   -0.0726    1.8920 H   0  0  0  0  0  0  0  0  0  0  0  0
   -2.3935    0.8024    6.2987 H   0  0  0  0  0  0  0  0  0  0  0  0
   -2.3534   -0.9703    6.3014 H   0  0  0  0  0  0  0  0  0  0  0  0
   -0.8643   -0.0324    6.5479 H   0  0  0  0  0  0  0  0  0  0  0  0
   -6.2553    5.7633   -1.6824 H   0  0  0  0  0  0  0  0  0  0  0  0
   -7.0254    4.5634   -2.7912 H   0  0  0  0  0  0  0  0  0  0  0  0
   -7.7658    4.9566   -1.2374 H   0  0  0  0  0  0  0  0  0  0  0  0
   -4.9977   -7.6633   -2.1658 H   0  0  0  0  0  0  0  0  0  0  0  0
   -3.6289   -7.3662   -3.3003 H   0  0  0  0  0  0  0  0  0  0  0  0
   -3.4376   -8.4740   -1.9269 H   0  0  0  0  0  0  0  0  0  0  0  0
  1  2  2  0  0  0  0
  1 29  1  0  0  0  0
  2  3  1  0  0  0  0
  2 23  1  0  0  0  0
  3  4  2  0  0  0  0
  3 30  1  0  0  0  0
  4  5  1  0  0  0  0
  4  7  1  0  0  0  0
  5  6  2  0  0  0  0
  5 31  1  0  0  0  0
  6  1  1  0  0  0  0
  6 32  1  0  0  0  0
  7  8  2  0  0  0  0
  7  9  1  0  0  0  0
  9 10  1  0  0  0  0
  9 33  1  0  0  0  0
 10 11  1  0  0  0  0
 11 12  2  0  0  0  0
 11 16  1  0  0  0  0
 12 13  1  0  0  0  0
 12 34  1  0  0  0  0
 13 14  2  0  0  0  0
 13 35  1  0  0  0  0
 14 15  1  0  0  0  0
 14 25  1  0  0  0  0
 15 10  2  0  0  0  0
 15 36  1  0  0  0  0
 16 17  1  0  0  0  0
 17 18  1  0  0  0  0
 17 37  1  0  0  0  0
 17 38  1  0  0  0  0
 18 19  1  0  0  0  0
 18 39  1  0  0  0  0
 18 40  1  0  0  0  0
 19 20  1  0  0  0  0
 19 22  1  0  0  0  0
 20 21  1  0  0  0  0
 20 41  1  0  0  0  0
 20 42  1  0  0  0  0
 21 16  1  0  0  0  0
 21 43  1  0  0  0  0
 21 44  1  0  0  0  0
 22 45  1  0  0  0  0
 22 46  1  0  0  0  0
 22 47  1  0  0  0  0
 23 24  1  0  0  0  0
 24 48  1  0  0  0  0
 24 49  1  0  0  0  0
 24 50  1  0  0  0  0
 25 26  1  0  0  0  0
 25 28  2  0  0  0  0
 26 27  1  0  0  0  0
 27 51  1  0  0  0  0
 27 52  1  0  0  0  0
 27 53  1  0  0  0  0
M  END
>  <Mol_ID>
4820

>  <Formula>
C21H25N3O4

>  <MolWeight>
383.4409

>  <Cat>
S2184

>  <Name>
WDR5-0103

>  <Synonyms>
WD-Repeat Protein 5-0103

>  <Target>
Histone Methyltransferase,WDR5

>  <Form>
Free Base

>  <CAS>
890190-22-4

>  <URL>
http://www.selleck.cn/products/wdr5-0103.html

$$$$
