WHI-P258
 OpenBabel08302520403D

 36 38  0  0  0  0  0  0  0  0999 V2000
    0.0578    0.7252    0.0356 C   0  0  0  0  0  0  0  0  0  0  0  0
    0.0771   -0.6701    0.0140 C   0  0  0  0  0  0  0  0  0  0  0  0
   -1.2047    1.3382    0.0383 C   0  0  0  0  0  0  0  0  0  0  0  0
    1.2840    1.4244    0.0633 C   0  0  0  0  0  0  0  0  0  0  0  0
    1.3209   -1.3047   -0.0206 C   0  0  0  0  0  0  0  0  0  0  0  0
   -1.0549   -1.3891    0.0042 N   0  0  0  0  0  0  0  0  0  0  0  0
   -1.2911    2.7558    0.0262 N   0  0  0  0  0  0  0  0  0  0  0  0
   -2.3408    0.6215    0.0377 N   0  0  0  0  0  0  0  0  0  0  0  0
    2.5319    0.7854    0.0167 C   0  0  0  0  0  0  0  0  0  0  0  0
    2.5529   -0.6077   -0.0356 C   0  0  0  0  0  0  0  0  0  0  0  0
   -2.2086   -0.7076    0.0181 C   0  0  0  0  0  0  0  0  0  0  0  0
   -2.3514    3.5395    0.5136 C   0  0  0  0  0  0  0  0  0  0  0  0
    3.5121    1.7261   -0.0390 O   0  0  0  0  0  0  0  0  0  0  0  0
    3.6384   -1.3838   -0.3421 O   0  0  0  0  0  0  0  0  0  0  0  0
   -3.0402    3.1706    1.6762 C   0  0  0  0  0  0  0  0  0  0  0  0
   -2.7021    4.7422   -0.1142 C   0  0  0  0  0  0  0  0  0  0  0  0
    4.8771    1.3908   -0.0189 C   0  0  0  0  0  0  0  0  0  0  0  0
    4.6149   -1.5516    0.6798 C   0  0  0  0  0  0  0  0  0  0  0  0
   -4.0463    3.9788    2.2053 C   0  0  0  0  0  0  0  0  0  0  0  0
   -3.7212    5.5479    0.4060 C   0  0  0  0  0  0  0  0  0  0  0  0
   -4.3874    5.1686    1.5698 C   0  0  0  0  0  0  0  0  0  0  0  0
    1.2743    2.5136    0.1052 H   0  0  0  0  0  0  0  0  0  0  0  0
    1.3296   -2.3945   -0.0837 H   0  0  0  0  0  0  0  0  0  0  0  0
   -0.8297    3.1426   -0.7899 H   0  0  0  0  0  0  0  0  0  0  0  0
   -3.1261   -1.2856    0.0037 H   0  0  0  0  0  0  0  0  0  0  0  0
   -2.7768    2.2521    2.1934 H   0  0  0  0  0  0  0  0  0  0  0  0
   -2.1992    5.0590   -1.0237 H   0  0  0  0  0  0  0  0  0  0  0  0
    5.1576    0.9676    0.9487 H   0  0  0  0  0  0  0  0  0  0  0  0
    5.1468    0.7566   -0.8652 H   0  0  0  0  0  0  0  0  0  0  0  0
    5.4411    2.3236   -0.1176 H   0  0  0  0  0  0  0  0  0  0  0  0
    5.5490   -1.0985    0.3335 H   0  0  0  0  0  0  0  0  0  0  0  0
    4.3270   -1.1342    1.6493 H   0  0  0  0  0  0  0  0  0  0  0  0
    4.8342   -2.6173    0.7982 H   0  0  0  0  0  0  0  0  0  0  0  0
   -4.5575    3.6759    3.1150 H   0  0  0  0  0  0  0  0  0  0  0  0
   -3.9935    6.4726   -0.0957 H   0  0  0  0  0  0  0  0  0  0  0  0
   -5.1702    5.7994    1.9829 H   0  0  0  0  0  0  0  0  0  0  0  0
  1  2  1  0  0  0  0
  1  3  1  0  0  0  0
  1  4  2  0  0  0  0
  2  5  2  0  0  0  0
  2  6  1  0  0  0  0
  3  7  1  0  0  0  0
  3  8  2  0  0  0  0
  4  9  1  0  0  0  0
  4 22  1  0  0  0  0
  5 10  1  0  0  0  0
  5 23  1  0  0  0  0
  6 11  2  0  0  0  0
  7 12  1  0  0  0  0
  7 24  1  0  0  0  0
  8 11  1  0  0  0  0
  9 13  1  0  0  0  0
  9 10  2  0  0  0  0
 10 14  1  0  0  0  0
 11 25  1  0  0  0  0
 12 15  2  0  0  0  0
 12 16  1  0  0  0  0
 13 17  1  0  0  0  0
 14 18  1  0  0  0  0
 15 19  1  0  0  0  0
 15 26  1  0  0  0  0
 16 20  2  0  0  0  0
 16 27  1  0  0  0  0
 17 28  1  0  0  0  0
 17 29  1  0  0  0  0
 17 30  1  0  0  0  0
 18 31  1  0  0  0  0
 18 32  1  0  0  0  0
 18 33  1  0  0  0  0
 19 21  2  0  0  0  0
 19 34  1  0  0  0  0
 20 21  1  0  0  0  0
 20 35  1  0  0  0  0
 21 36  1  0  0  0  0
M  END
>  <Mol_ID>
3818

>  <Formula>
C16H15N3O2

>  <MolWeight>
281.3092

>  <Cat>
S6521

>  <Name>
WHI-P258

>  <Synonyms>
N/A

>  <Target>
JAK

>  <Form>
free base

>  <CAS>
21561-09-1

>  <URL>
http://www.selleck.cn/products/whi-p258.html

$$$$
