WHI-P180
 OpenBabel08302520403D

 37 39  0  0  0  0  0  0  0  0999 V2000
   -0.8015   -5.6196   -0.9758 C   0  0  0  0  0  0  0  0  0  0  0  0
   -1.6991   -4.5901   -0.7043 C   0  0  0  0  0  0  0  0  0  0  0  0
   -1.2222   -3.3374   -0.3097 C   0  0  0  0  0  0  0  0  0  0  0  0
    0.1632   -3.1433   -0.1964 C   0  0  0  0  0  0  0  0  0  0  0  0
    1.0555   -4.1804   -0.4721 C   0  0  0  0  0  0  0  0  0  0  0  0
    0.5697   -5.4203   -0.8779 C   0  0  0  0  0  0  0  0  0  0  0  0
   -2.0606   -2.2050   -0.1963 N   0  0  0  0  0  0  0  0  0  0  0  0
   -5.7959   -1.8638    1.5320 N   0  0  0  0  0  0  0  0  0  0  0  0
   -5.0476   -2.9697    1.6090 C   0  0  0  0  0  0  0  0  0  0  0  0
   -3.8714   -3.1647    1.0121 N   0  0  0  0  0  0  0  0  0  0  0  0
   -3.4164   -2.1701    0.2251 C   0  0  0  0  0  0  0  0  0  0  0  0
   -4.1824   -1.0084   -0.0215 C   0  0  0  0  0  0  0  0  0  0  0  0
   -3.8602    0.0096   -0.9603 C   0  0  0  0  0  0  0  0  0  0  0  0
   -4.6476    1.1570   -1.1095 C   0  0  0  0  0  0  0  0  0  0  0  0
   -5.7324    1.3268   -0.2474 C   0  0  0  0  0  0  0  0  0  0  0  0
   -6.0818    0.2870    0.6282 C   0  0  0  0  0  0  0  0  0  0  0  0
   -5.3538   -0.8932    0.7276 C   0  0  0  0  0  0  0  0  0  0  0  0
   -6.5891    2.3929   -0.1733 O   0  0  0  0  0  0  0  0  0  0  0  0
   -6.0992    3.6731   -0.5498 C   0  0  0  0  0  0  0  0  0  0  0  0
   -4.3794    2.0983   -2.0659 O   0  0  0  0  0  0  0  0  0  0  0  0
   -3.7692    1.6292   -3.2668 C   0  0  0  0  0  0  0  0  0  0  0  0
   -1.2414   -6.8527   -1.3598 O   0  0  0  0  0  0  0  0  0  0  0  0
   -2.7655   -4.7481   -0.8228 H   0  0  0  0  0  0  0  0  0  0  0  0
    0.5495   -2.1769    0.1194 H   0  0  0  0  0  0  0  0  0  0  0  0
    2.1251   -4.0175   -0.3782 H   0  0  0  0  0  0  0  0  0  0  0  0
    1.2568   -6.2276   -1.1159 H   0  0  0  0  0  0  0  0  0  0  0  0
   -1.9127   -1.6444   -1.0253 H   0  0  0  0  0  0  0  0  0  0  0  0
   -5.4293   -3.7789    2.2258 H   0  0  0  0  0  0  0  0  0  0  0  0
   -3.0010   -0.1237   -1.6038 H   0  0  0  0  0  0  0  0  0  0  0  0
   -6.9560    0.4074    1.2642 H   0  0  0  0  0  0  0  0  0  0  0  0
   -5.1752    3.9303   -0.0208 H   0  0  0  0  0  0  0  0  0  0  0  0
   -5.9855    3.7560   -1.6325 H   0  0  0  0  0  0  0  0  0  0  0  0
   -6.8596    4.4073   -0.2601 H   0  0  0  0  0  0  0  0  0  0  0  0
   -2.6992    1.4472   -3.1065 H   0  0  0  0  0  0  0  0  0  0  0  0
   -4.2640    0.7301   -3.6523 H   0  0  0  0  0  0  0  0  0  0  0  0
   -3.8575    2.4128   -4.0215 H   0  0  0  0  0  0  0  0  0  0  0  0
   -2.1990   -6.8913   -1.1980 H   0  0  0  0  0  0  0  0  0  0  0  0
  1  2  2  0  0  0  0
  1  6  1  0  0  0  0
  1 22  1  0  0  0  0
  2  3  1  0  0  0  0
  2 23  1  0  0  0  0
  3  4  2  0  0  0  0
  3  7  1  0  0  0  0
  4  5  1  0  0  0  0
  4 24  1  0  0  0  0
  5  6  2  0  0  0  0
  5 25  1  0  0  0  0
  6 26  1  0  0  0  0
  7 11  1  0  0  0  0
  7 27  1  0  0  0  0
  8  9  2  0  0  0  0
  8 17  1  0  0  0  0
  9 10  1  0  0  0  0
  9 28  1  0  0  0  0
 10 11  2  0  0  0  0
 11 12  1  0  0  0  0
 12 13  1  0  0  0  0
 12 17  2  0  0  0  0
 13 14  2  0  0  0  0
 13 29  1  0  0  0  0
 14 15  1  0  0  0  0
 14 20  1  0  0  0  0
 15 16  2  0  0  0  0
 15 18  1  0  0  0  0
 16 17  1  0  0  0  0
 16 30  1  0  0  0  0
 18 19  1  0  0  0  0
 19 31  1  0  0  0  0
 19 32  1  0  0  0  0
 19 33  1  0  0  0  0
 20 21  1  0  0  0  0
 21 34  1  0  0  0  0
 21 35  1  0  0  0  0
 21 36  1  0  0  0  0
 22 37  1  0  0  0  0
M  END
>  <Mol_ID>
3817

>  <Formula>
C16H15N3O3

>  <MolWeight>
297.3086

>  <Cat>
S6520

>  <Name>
WHI-P180

>  <Synonyms>
N/A

>  <Target>
c-RET,VEGFR

>  <Form>
free base

>  <CAS>
211555-08-7

>  <URL>
http://www.selleck.cn/products/whi-p180.html

$$$$
