wiskostatin
 OpenBabel08302521373D

 40 42  0  0  0  0  0  0  0  0999 V2000
    0.5048    0.0512   -0.0727 C   0  0  0  0  0  0  0  0  0  0  0  0
    2.0445    0.1553   -0.0810 C   0  0  3  0  0  0  0  0  0  0  0  0
    2.6251    1.4671   -0.6824 C   0  0  0  0  0  0  0  0  0  0  0  0
    2.5940   -0.0774    1.2273 O   0  0  0  0  0  0  0  0  0  0  0  0
    2.0760    2.7411   -0.1646 N   0  0  0  0  0  0  0  0  0  0  0  0
    2.4871    3.0034    1.2168 C   0  0  0  0  0  0  0  0  0  0  0  0
    2.5312    3.8610   -1.0037 C   0  0  0  0  0  0  0  0  0  0  0  0
   -1.3761    3.8691   -5.6559 Br  0  0  0  0  0  0  0  0  0  0  0  0
   -0.3131   -4.7547   -5.2379 Br  0  0  0  0  0  0  0  0  0  0  0  0
   -0.5958    0.8944   -2.1727 C   0  0  0  0  0  0  0  0  0  0  0  0
   -0.6818    0.3930   -3.4730 C   0  0  0  0  0  0  0  0  0  0  0  0
   -0.0726   -0.1253   -1.3975 N   0  0  0  0  0  0  0  0  0  0  0  0
   -0.9412    2.2177   -1.8636 C   0  0  0  0  0  0  0  0  0  0  0  0
   -0.4519   -1.0137   -3.4051 C   0  0  0  0  0  0  0  0  0  0  0  0
   -0.9632    1.2863   -4.5258 C   0  0  0  0  0  0  0  0  0  0  0  0
   -0.0724   -1.3140   -2.0970 C   0  0  0  0  0  0  0  0  0  0  0  0
   -1.2307    3.0859   -2.9198 C   0  0  0  0  0  0  0  0  0  0  0  0
   -0.5177   -2.0516   -4.3593 C   0  0  0  0  0  0  0  0  0  0  0  0
   -1.1860    2.6318   -4.2354 C   0  0  0  0  0  0  0  0  0  0  0  0
    0.2607   -2.6254   -1.7033 C   0  0  0  0  0  0  0  0  0  0  0  0
   -0.2059   -3.3578   -3.9655 C   0  0  0  0  0  0  0  0  0  0  0  0
    0.1810   -3.6404   -2.6609 C   0  0  0  0  0  0  0  0  0  0  0  0
    0.0425    0.9127    0.4196 H   0  0  0  0  0  0  0  0  0  0  0  0
    0.1964   -0.8172    0.5247 H   0  0  0  0  0  0  0  0  0  0  0  0
    2.4427   -0.6647   -0.6915 H   0  0  0  0  0  0  0  0  0  0  0  0
    3.7162    1.4611   -0.5550 H   0  0  0  0  0  0  0  0  0  0  0  0
    2.4360    1.4250   -1.7632 H   0  0  0  0  0  0  0  0  0  0  0  0
    1.8704   -0.0974    1.8752 H   0  0  0  0  0  0  0  0  0  0  0  0
    3.5746    3.0934    1.3194 H   0  0  0  0  0  0  0  0  0  0  0  0
    2.0328    3.9363    1.5710 H   0  0  0  0  0  0  0  0  0  0  0  0
    2.1334    2.2269    1.8985 H   0  0  0  0  0  0  0  0  0  0  0  0
    3.6108    4.0362   -0.9159 H   0  0  0  0  0  0  0  0  0  0  0  0
    2.2988    3.6912   -2.0609 H   0  0  0  0  0  0  0  0  0  0  0  0
    2.0119    4.7824   -0.7156 H   0  0  0  0  0  0  0  0  0  0  0  0
   -0.9477    2.5856   -0.8397 H   0  0  0  0  0  0  0  0  0  0  0  0
   -0.9616    0.9297   -5.5519 H   0  0  0  0  0  0  0  0  0  0  0  0
   -1.4539    4.1259   -2.7033 H   0  0  0  0  0  0  0  0  0  0  0  0
   -0.8247   -1.8347   -5.3750 H   0  0  0  0  0  0  0  0  0  0  0  0
    0.5727   -2.8556   -0.6887 H   0  0  0  0  0  0  0  0  0  0  0  0
    0.4303   -4.6612   -2.3734 H   0  0  0  0  0  0  0  0  0  0  0  0
  1  2  1  0  0  0  0
  1 12  1  0  0  0  0
  1 23  1  0  0  0  0
  1 24  1  0  0  0  0
  2  3  1  0  0  0  0
  2  4  1  0  0  0  0
  2 25  1  0  0  0  0
  3  5  1  0  0  0  0
  3 26  1  0  0  0  0
  3 27  1  0  0  0  0
  4 28  1  0  0  0  0
  5  6  1  0  0  0  0
  5  7  1  0  0  0  0
  6 29  1  0  0  0  0
  6 30  1  0  0  0  0
  6 31  1  0  0  0  0
  7 32  1  0  0  0  0
  7 33  1  0  0  0  0
  7 34  1  0  0  0  0
  8 19  1  0  0  0  0
  9 21  1  0  0  0  0
 10 11  2  0  0  0  0
 10 12  1  0  0  0  0
 10 13  1  0  0  0  0
 11 14  1  0  0  0  0
 11 15  1  0  0  0  0
 12 16  1  0  0  0  0
 13 17  2  0  0  0  0
 13 35  1  0  0  0  0
 14 16  2  0  0  0  0
 14 18  1  0  0  0  0
 15 19  2  0  0  0  0
 15 36  1  0  0  0  0
 16 20  1  0  0  0  0
 17 19  1  0  0  0  0
 17 37  1  0  0  0  0
 18 21  2  0  0  0  0
 18 38  1  0  0  0  0
 20 22  2  0  0  0  0
 20 39  1  0  0  0  0
 21 22  1  0  0  0  0
 22 40  1  0  0  0  0
M  END
>  <Mol_ID>
7519

>  <Formula>
C17H18Br2N2O

>  <MolWeight>
426.14562

>  <Cat>
E1333

>  <Name>
wiskostatin

>  <Target>
Others

>  <Form>
free base

>  <CAS>
253449-04-6

>  <URL>
https://www.selleckchem.com/products/wiskostatin.html

$$$$
