Withaferin A
 OpenBabel08302521343D

 72 77  0  0  0  0  0  0  0  0999 V2000
    5.9385    1.7102   -1.8987 C   0  0  0  0  0  0  0  0  0  0  0  0
    6.5798    0.7914   -1.1580 C   0  0  0  0  0  0  0  0  0  0  0  0
    6.2886    0.8860    0.3065 C   0  0  1  0  0  0  0  0  0  0  0  0
    4.8100    0.6388    0.5586 C   0  0  2  0  0  0  0  0  0  0  0  0
    3.7892    0.9190   -0.6034 C   0  0  2  0  0  0  0  0  0  0  0  0
    4.5108    1.2660   -1.9594 C   0  0  0  0  0  0  0  0  0  0  0  0
    3.9571    1.2598   -3.0566 O   0  0  0  0  0  0  0  0  0  0  0  0
    7.1172   -0.0684    0.9513 O   0  0  0  0  0  0  0  0  0  0  0  0
    4.2957    0.7886    1.9826 C   0  0  1  0  0  0  0  0  0  0  0  0
    2.8583    1.0841    2.2418 C   0  0  0  0  0  0  0  0  0  0  0  0
    2.3268    2.1265    1.2662 C   0  0  1  0  0  0  0  0  0  0  0  0
    2.9524    2.1776   -0.1743 C   0  0  2  0  0  0  0  0  0  0  0  0
    4.5185   -0.4933    1.4023 O   0  0  0  0  0  0  0  0  0  0  0  0
    2.9678   -0.3417   -0.9136 C   0  0  0  0  0  0  0  0  0  0  0  0
    0.8159    2.3787    1.2743 C   0  0  1  0  0  0  0  0  0  0  0  0
   -0.0402    1.8932    0.0569 C   0  0  2  0  0  0  0  0  0  0  0  0
    0.6168    2.1464   -1.3025 C   0  0  0  0  0  0  0  0  0  0  0  0
    1.9815    2.7947   -1.2040 C   0  0  0  0  0  0  0  0  0  0  0  0
   -0.1437    2.1252    2.4485 C   0  0  0  0  0  0  0  0  0  0  0  0
   -1.4994    2.6632    1.8762 C   0  0  0  0  0  0  0  0  0  0  0  0
   -1.2238    2.8786    0.3631 C   0  0  2  0  0  0  0  0  0  0  0  0
   -0.3609    0.3717    0.2042 C   0  0  0  0  0  0  0  0  0  0  0  0
   -2.3580    3.2259   -0.6288 C   0  0  1  0  0  0  0  0  0  0  0  0
   -3.4866    2.2184   -0.8201 C   0  0  2  0  0  0  0  0  0  0  0  0
   -2.9157    4.6218   -0.2645 C   0  0  0  0  0  0  0  0  0  0  0  0
   -2.9251    0.9303   -1.0842 O   0  0  0  0  0  0  0  0  0  0  0  0
   -3.7930   -0.0857   -1.3017 C   0  0  0  0  0  0  0  0  0  0  0  0
   -5.1855    0.3067   -1.6451 C   0  0  0  0  0  0  0  0  0  0  0  0
   -5.4027    1.5123   -2.2089 C   0  0  0  0  0  0  0  0  0  0  0  0
   -4.3784    2.5934   -2.0196 C   0  0  0  0  0  0  0  0  0  0  0  0
   -6.6342    1.8905   -2.9712 C   0  0  0  0  0  0  0  0  0  0  0  0
   -3.4476   -1.2589   -1.2613 O   0  0  0  0  0  0  0  0  0  0  0  0
   -6.2297   -0.7015   -1.2742 C   0  0  0  0  0  0  0  0  0  0  0  0
   -7.4039   -0.0342   -0.8093 O   0  0  0  0  0  0  0  0  0  0  0  0
    5.9547    2.7594   -1.6052 H   0  0  0  0  0  0  0  0  0  0  0  0
    6.5482   -0.2497   -1.4970 H   0  0  0  0  0  0  0  0  0  0  0  0
    6.5716    1.8766    0.6819 H   0  0  0  0  0  0  0  0  0  0  0  0
    6.9510    0.0083    1.9048 H   0  0  0  0  0  0  0  0  0  0  0  0
    4.9580    1.1368    2.7644 H   0  0  0  0  0  0  0  0  0  0  0  0
    2.2632    0.1829    2.2219 H   0  0  0  0  0  0  0  0  0  0  0  0
    2.7642    1.4831    3.2601 H   0  0  0  0  0  0  0  0  0  0  0  0
    2.7241    3.0551    1.7183 H   0  0  0  0  0  0  0  0  0  0  0  0
    3.7219    2.9602   -0.0869 H   0  0  0  0  0  0  0  0  0  0  0  0
    2.2476   -0.1798   -1.7191 H   0  0  0  0  0  0  0  0  0  0  0  0
    2.4275   -0.7231   -0.0456 H   0  0  0  0  0  0  0  0  0  0  0  0
    3.6311   -1.1441   -1.2626 H   0  0  0  0  0  0  0  0  0  0  0  0
    0.8491    3.4807    1.2408 H   0  0  0  0  0  0  0  0  0  0  0  0
   -0.0033    2.7935   -1.9274 H   0  0  0  0  0  0  0  0  0  0  0  0
    0.6884    1.2301   -1.8951 H   0  0  0  0  0  0  0  0  0  0  0  0
    2.4180    2.8323   -2.2026 H   0  0  0  0  0  0  0  0  0  0  0  0
    1.8263    3.8459   -0.9320 H   0  0  0  0  0  0  0  0  0  0  0  0
   -0.2424    1.0631    2.6961 H   0  0  0  0  0  0  0  0  0  0  0  0
    0.1452    2.6430    3.3690 H   0  0  0  0  0  0  0  0  0  0  0  0
   -2.3252    1.9714    2.0728 H   0  0  0  0  0  0  0  0  0  0  0  0
   -1.7368    3.6205    2.3552 H   0  0  0  0  0  0  0  0  0  0  0  0
   -0.7261    3.8629    0.3369 H   0  0  0  0  0  0  0  0  0  0  0  0
   -1.3664    0.1781    0.5771 H   0  0  0  0  0  0  0  0  0  0  0  0
   -0.2587   -0.1799   -0.7399 H   0  0  0  0  0  0  0  0  0  0  0  0
    0.3294   -0.1213    0.8947 H   0  0  0  0  0  0  0  0  0  0  0  0
   -1.8934    3.3518   -1.6119 H   0  0  0  0  0  0  0  0  0  0  0  0
   -4.0748    2.1564    0.1069 H   0  0  0  0  0  0  0  0  0  0  0  0
   -2.1084    5.3636   -0.2319 H   0  0  0  0  0  0  0  0  0  0  0  0
   -3.6249    4.9927   -1.0083 H   0  0  0  0  0  0  0  0  0  0  0  0
   -3.4088    4.6154    0.7124 H   0  0  0  0  0  0  0  0  0  0  0  0
   -3.7960    2.7217   -2.9394 H   0  0  0  0  0  0  0  0  0  0  0  0
   -4.9063    3.5296   -1.8110 H   0  0  0  0  0  0  0  0  0  0  0  0
   -7.3422    2.4300   -2.3396 H   0  0  0  0  0  0  0  0  0  0  0  0
   -6.3672    2.5367   -3.8204 H   0  0  0  0  0  0  0  0  0  0  0  0
   -7.1242    1.0129   -3.4042 H   0  0  0  0  0  0  0  0  0  0  0  0
   -5.8793   -1.3090   -0.4252 H   0  0  0  0  0  0  0  0  0  0  0  0
   -6.4760   -1.3640   -2.1000 H   0  0  0  0  0  0  0  0  0  0  0  0
   -7.1226    0.6187   -0.1572 H   0  0  0  0  0  0  0  0  0  0  0  0
  1  2  2  3  0  0  0
  1 35  1  0  0  0  0
  2  3  1  0  0  0  0
  2 36  1  0  0  0  0
  3  4  1  0  0  0  0
  3 37  1  1  0  0  0
  3  8  1  0  0  0  0
  4  5  1  0  0  0  0
  4  9  1  0  0  0  0
  4 13  1  6  0  0  0
  5  6  1  0  0  0  0
  5 14  1  6  0  0  0
  6  1  1  0  0  0  0
  6  7  2  0  0  0  0
  8 38  1  0  0  0  0
  9 10  1  0  0  0  0
  9 13  1  0  0  0  0
  9 39  1  1  0  0  0
 10 40  1  0  0  0  0
 10 41  1  0  0  0  0
 11 10  1  0  0  0  0
 11 12  1  0  0  0  0
 11 15  1  0  0  0  0
 11 42  1  1  0  0  0
 12  5  1  0  0  0  0
 12 18  1  0  0  0  0
 12 43  1  1  0  0  0
 14 44  1  0  0  0  0
 14 45  1  0  0  0  0
 14 46  1  0  0  0  0
 15 16  1  0  0  0  0
 15 19  1  0  0  0  0
 15 47  1  6  0  0  0
 16 17  1  0  0  0  0
 16 22  1  1  0  0  0
 17 18  1  0  0  0  0
 17 48  1  0  0  0  0
 17 49  1  0  0  0  0
 18 50  1  0  0  0  0
 18 51  1  0  0  0  0
 19 20  1  0  0  0  0
 19 52  1  0  0  0  0
 19 53  1  0  0  0  0
 20 54  1  0  0  0  0
 20 55  1  0  0  0  0
 21 20  1  0  0  0  0
 21 16  1  0  0  0  0
 21 56  1  1  0  0  0
 21 23  1  0  0  0  0
 22 57  1  0  0  0  0
 22 58  1  0  0  0  0
 22 59  1  0  0  0  0
 23 25  1  0  0  0  0
 23 60  1  6  0  0  0
 24 23  1  0  0  0  0
 24 26  1  0  0  0  0
 24 30  1  0  0  0  0
 24 61  1  1  0  0  0
 25 62  1  0  0  0  0
 25 63  1  0  0  0  0
 25 64  1  0  0  0  0
 26 27  1  0  0  0  0
 27 28  1  0  0  0  0
 27 32  2  0  0  0  0
 28 29  2  0  0  0  0
 28 33  1  0  0  0  0
 29 30  1  0  0  0  0
 29 31  1  0  0  0  0
 30 65  1  0  0  0  0
 30 66  1  0  0  0  0
 31 67  1  0  0  0  0
 31 68  1  0  0  0  0
 31 69  1  0  0  0  0
 33 34  1  0  0  0  0
 33 70  1  0  0  0  0
 33 71  1  0  0  0  0
 34 72  1  0  0  0  0
M  END
>  <Mol_ID>
6556

>  <Formula>
C28H38O6

>  <MolWeight>
470.59772

>  <Cat>
S8587

>  <Name>
Withaferin A

>  <Synonyms>
WA, WFA

>  <Target>
NF-¦ÊB

>  <Form>
free base

>  <CAS>
5119-48-2

>  <URL>
http://www.selleckchem.com/products/withaferin-a.html

$$$$
