WL-312474
 OpenBabel08302521443D

 27 29  0  0  0  0  0  0  0  0999 V2000
    0.7385    0.4447    0.0149 C   0  0  0  0  0  0  0  0  0  0  0  0
   -0.6945    0.3981   -0.0011 C   0  0  0  0  0  0  0  0  0  0  0  0
    1.2840   -0.8282   -0.0162 C   0  0  0  0  0  0  0  0  0  0  0  0
    1.6765    1.4694    0.0548 C   0  0  0  0  0  0  0  0  0  0  0  0
   -1.1615   -0.9042   -0.0087 C   0  0  0  0  0  0  0  0  0  0  0  0
   -1.6227    1.5764    0.0242 C   0  0  0  0  0  0  0  0  0  0  0  0
    0.0953   -2.0507   -0.0436 S   0  0  0  0  0  0  0  0  0  0  0  0
    2.5918   -1.1341   -0.0216 N   0  0  0  0  0  0  0  0  0  0  0  0
    2.9915    1.2337    0.0544 N   0  0  0  0  0  0  0  0  0  0  0  0
    1.3307    2.7895    0.1068 O   0  0  0  0  0  0  0  0  0  0  0  0
   -2.6059   -1.3002   -0.0235 C   0  0  0  0  0  0  0  0  0  0  0  0
   -3.0536    1.1734   -0.3623 C   0  0  0  0  0  0  0  0  0  0  0  0
    3.3881   -0.0533    0.0123 C   0  0  0  0  0  0  0  0  0  0  0  0
   -3.4862   -0.1033    0.3728 C   0  0  0  0  0  0  0  0  0  0  0  0
    4.8635   -0.3138    0.0012 C   0  0  0  0  0  0  0  0  0  0  0  0
   -1.2718    2.3571   -0.6596 H   0  0  0  0  0  0  0  0  0  0  0  0
   -1.6237    1.9981    1.0368 H   0  0  0  0  0  0  0  0  0  0  0  0
    2.2135    3.1999    0.1336 H   0  0  0  0  0  0  0  0  0  0  0  0
   -2.8750   -1.6287   -1.0350 H   0  0  0  0  0  0  0  0  0  0  0  0
   -2.7948   -2.1353    0.6602 H   0  0  0  0  0  0  0  0  0  0  0  0
   -3.1064    1.0002   -1.4453 H   0  0  0  0  0  0  0  0  0  0  0  0
   -3.7405    1.9953   -0.1339 H   0  0  0  0  0  0  0  0  0  0  0  0
   -4.5354   -0.3284    0.1538 H   0  0  0  0  0  0  0  0  0  0  0  0
   -3.4116    0.0655    1.4553 H   0  0  0  0  0  0  0  0  0  0  0  0
    5.1413   -0.9176    0.8705 H   0  0  0  0  0  0  0  0  0  0  0  0
    5.1379   -0.8552   -0.9094 H   0  0  0  0  0  0  0  0  0  0  0  0
    5.4305    0.6216    0.0326 H   0  0  0  0  0  0  0  0  0  0  0  0
  1  2  1  0  0  0  0
  1  3  1  0  0  0  0
  1  4  2  0  0  0  0
  2  5  2  0  0  0  0
  2  6  1  0  0  0  0
  3  7  1  0  0  0  0
  3  8  2  0  0  0  0
  4  9  1  0  0  0  0
  4 10  1  0  0  0  0
  5 11  1  0  0  0  0
  5  7  1  0  0  0  0
  6 12  1  0  0  0  0
  6 16  1  0  0  0  0
  6 17  1  0  0  0  0
  8 13  1  0  0  0  0
  9 13  2  0  0  0  0
 10 18  1  0  0  0  0
 11 14  1  0  0  0  0
 11 19  1  0  0  0  0
 11 20  1  0  0  0  0
 12 14  1  0  0  0  0
 12 21  1  0  0  0  0
 12 22  1  0  0  0  0
 13 15  1  0  0  0  0
 14 23  1  0  0  0  0
 14 24  1  0  0  0  0
 15 25  1  0  0  0  0
 15 26  1  0  0  0  0
 15 27  1  0  0  0  0
M  END
>  <Mol_ID>
9139

>  <Formula>
C11H12N2OS

>  <MolWeight>
220.29078

>  <Cat>
P3225

>  <Name>
WL-312474

>  <Synonyms>
N/A

>  <Target>
Anti-infection

>  <Form>
free base

>  <CAS>
909209-02-5

>  <URL>
N/A

$$$$
