WL-309756
 OpenBabel08302521403D

 17 18  0  0  0  0  0  0  0  0999 V2000
    0.2320   -0.6910    0.0049 C   0  0  0  0  0  0  0  0  0  0  0  0
    0.2399    0.7116    0.0038 N   0  0  0  0  0  0  0  0  0  0  0  0
   -0.9327   -1.4053    0.0068 N   0  0  0  0  0  0  0  0  0  0  0  0
    1.4723   -1.1288    0.0039 N   0  0  0  0  0  0  0  0  0  0  0  0
   -0.9624    1.4396    0.0026 C   0  0  0  0  0  0  0  0  0  0  0  0
    1.5252    1.1534    0.0033 N   0  0  0  0  0  0  0  0  0  0  0  0
   -2.0369   -0.7206    0.0058 C   0  0  0  0  0  0  0  0  0  0  0  0
    2.2112    0.0127    0.0024 C   0  0  0  0  0  0  0  0  0  0  0  0
   -2.1281    0.7739    0.0020 C   0  0  0  0  0  0  0  0  0  0  0  0
   -0.9131    2.8249    0.0016 O   0  0  0  0  0  0  0  0  0  0  0  0
   -3.3408   -1.4814    0.0098 C   0  0  0  0  0  0  0  0  0  0  0  0
    3.2941    0.0139    0.0006 H   0  0  0  0  0  0  0  0  0  0  0  0
   -3.0996    1.2458   -0.0005 H   0  0  0  0  0  0  0  0  0  0  0  0
   -1.8137    3.1879    0.0052 H   0  0  0  0  0  0  0  0  0  0  0  0
   -3.3926   -2.1160   -0.8796 H   0  0  0  0  0  0  0  0  0  0  0  0
   -3.3894   -2.1112    0.9028 H   0  0  0  0  0  0  0  0  0  0  0  0
   -4.1996   -0.8051    0.0097 H   0  0  0  0  0  0  0  0  0  0  0  0
  1  2  1  0  0  0  0
  1  3  1  0  0  0  0
  1  4  2  0  0  0  0
  2  5  1  0  0  0  0
  2  6  1  0  0  0  0
  3  7  2  0  0  0  0
  4  8  1  0  0  0  0
  5  9  2  0  0  0  0
  5 10  1  0  0  0  0
  6  8  2  0  0  0  0
  7 11  1  0  0  0  0
  7  9  1  0  0  0  0
  8 12  1  0  0  0  0
  9 13  1  0  0  0  0
 10 14  1  0  0  0  0
 11 15  1  0  0  0  0
 11 16  1  0  0  0  0
 11 17  1  0  0  0  0
M  END
>  <Mol_ID>
8309

>  <Formula>
C6H5ClN4O

>  <MolWeight>
184.5831

>  <Cat>
P3224

>  <Name>
WL-309756

>  <Synonyms>
N/A

>  <Target>
others

>  <Form>
free base

>  <CAS>
3149-90-4

>  <URL>
N/A

$$$$
