WL-389539
 OpenBabel08302521443D

 21 22  0  0  0  0  0  0  0  0999 V2000
   -0.1007   -0.7286    0.0844 C   0  0  0  0  0  0  0  0  0  0  0  0
   -0.3087    0.6345    0.3127 C   0  0  0  0  0  0  0  0  0  0  0  0
   -1.1797   -1.5523   -0.2308 C   0  0  0  0  0  0  0  0  0  0  0  0
    1.1216   -1.3242    0.2394 O   0  0  0  0  0  0  0  0  0  0  0  0
   -1.5931    1.1722    0.2254 C   0  0  0  0  0  0  0  0  0  0  0  0
    0.6959    1.4817    0.6926 O   0  0  0  0  0  0  0  0  0  0  0  0
   -2.4597   -1.0073   -0.3540 C   0  0  0  0  0  0  0  0  0  0  0  0
    2.0709   -0.8446   -0.7143 C   0  0  0  0  0  0  0  0  0  0  0  0
   -2.6657    0.3538   -0.1260 C   0  0  0  0  0  0  0  0  0  0  0  0
    1.6693    1.6153   -0.3437 C   0  0  0  0  0  0  0  0  0  0  0  0
    2.6890    0.4873   -0.3095 C   0  0  0  0  0  0  0  0  0  0  0  0
   -1.0240   -2.6164   -0.3821 H   0  0  0  0  0  0  0  0  0  0  0  0
   -1.7519    2.2277    0.4281 H   0  0  0  0  0  0  0  0  0  0  0  0
   -3.2986   -1.6468   -0.6138 H   0  0  0  0  0  0  0  0  0  0  0  0
    1.6320   -0.8018   -1.7208 H   0  0  0  0  0  0  0  0  0  0  0  0
    2.8679   -1.5956   -0.7574 H   0  0  0  0  0  0  0  0  0  0  0  0
   -3.6639    0.7766   -0.2100 H   0  0  0  0  0  0  0  0  0  0  0  0
    2.1855    2.5640   -0.1602 H   0  0  0  0  0  0  0  0  0  0  0  0
    1.1931    1.7074   -1.3298 H   0  0  0  0  0  0  0  0  0  0  0  0
    3.0983    0.4019    0.7035 H   0  0  0  0  0  0  0  0  0  0  0  0
    3.5083    0.7251   -0.9966 H   0  0  0  0  0  0  0  0  0  0  0  0
  1  2  1  0  0  0  0
  1  3  2  0  0  0  0
  1  4  1  0  0  0  0
  2  5  2  0  0  0  0
  2  6  1  0  0  0  0
  3  7  1  0  0  0  0
  3 12  1  0  0  0  0
  4  8  1  0  0  0  0
  5  9  1  0  0  0  0
  5 13  1  0  0  0  0
  6 10  1  0  0  0  0
  7  9  2  0  0  0  0
  7 14  1  0  0  0  0
  8 11  1  0  0  0  0
  8 15  1  0  0  0  0
  8 16  1  0  0  0  0
  9 17  1  0  0  0  0
 10 11  1  0  0  0  0
 10 18  1  0  0  0  0
 10 19  1  0  0  0  0
 11 20  1  0  0  0  0
 11 21  1  0  0  0  0
M  END
>  <Mol_ID>
9140

>  <Formula>
C9H10O2

>  <MolWeight>
150.1745

>  <Cat>
P3226

>  <Name>
WL-389539

>  <Synonyms>
N/A

>  <Target>
Others

>  <Form>
free base

>  <CAS>
909856-86-6

>  <URL>
N/A

$$$$
