WM-1119
 OpenBabel08302521223D

 40 42  0  0  0  0  0  0  0  0999 V2000
    0.3857    4.6206    4.1289 C   0  0  0  0  0  0  0  0  0  0  0  0
   -0.6835    4.0498    3.4397 C   0  0  0  0  0  0  0  0  0  0  0  0
   -0.4571    3.3868    2.2348 C   0  0  0  0  0  0  0  0  0  0  0  0
    0.8442    3.2940    1.7207 C   0  0  0  0  0  0  0  0  0  0  0  0
    1.9015    3.8823    2.3948 C   0  0  0  0  0  0  0  0  0  0  0  0
    1.6771    4.5422    3.6028 C   0  0  0  0  0  0  0  0  0  0  0  0
    3.1519    3.8462    1.9173 F   0  0  0  0  0  0  0  0  0  0  0  0
    1.0531    2.3838    0.2367 S   0  0  0  0  0  0  0  0  0  0  0  0
    0.8171    0.9877    0.5437 O   0  0  0  0  0  0  0  0  0  0  0  0
    0.2656    3.0540   -0.7812 O   0  0  0  0  0  0  0  0  0  0  0  0
    2.6587    2.5190   -0.2435 N   0  0  0  0  0  0  0  0  0  0  0  0
    3.0694    1.7131   -1.3718 N   0  0  0  0  0  0  0  0  0  0  0  0
    4.1250    2.1398   -2.1465 C   0  0  0  0  0  0  0  0  0  0  0  0
    4.4401    1.2893   -3.3229 C   0  0  0  0  0  0  0  0  0  0  0  0
    4.7949    3.1379   -1.8907 O   0  0  0  0  0  0  0  0  0  0  0  0
    3.4591    0.5687   -4.0046 C   0  0  0  0  0  0  0  0  0  0  0  0
    3.8378   -0.2510   -5.0580 C   0  0  0  0  0  0  0  0  0  0  0  0
    5.1681   -0.3578   -5.4486 C   0  0  0  0  0  0  0  0  0  0  0  0
    6.1718    0.3807   -4.7968 C   0  0  0  0  0  0  0  0  0  0  0  0
    5.7784    1.2099   -3.7309 C   0  0  0  0  0  0  0  0  0  0  0  0
    2.9020   -0.9579   -5.7046 F   0  0  0  0  0  0  0  0  0  0  0  0
    7.5843    0.2628   -5.2034 C   0  0  0  0  0  0  0  0  0  0  0  0
    7.9480   -0.9387   -5.7194 N   0  0  0  0  0  0  0  0  0  0  0  0
    9.2367   -1.1013   -6.0918 C   0  0  0  0  0  0  0  0  0  0  0  0
   10.1992   -0.1143   -5.9863 C   0  0  0  0  0  0  0  0  0  0  0  0
    9.8205    1.1132   -5.4613 C   0  0  0  0  0  0  0  0  0  0  0  0
    8.4999    1.3071   -5.0667 C   0  0  0  0  0  0  0  0  0  0  0  0
    0.2117    5.1261    5.0764 H   0  0  0  0  0  0  0  0  0  0  0  0
   -1.6919    4.1124    3.8432 H   0  0  0  0  0  0  0  0  0  0  0  0
   -1.2915    2.9346    1.7009 H   0  0  0  0  0  0  0  0  0  0  0  0
    2.5125    4.9901    4.1341 H   0  0  0  0  0  0  0  0  0  0  0  0
    3.1513    3.4072   -0.0933 H   0  0  0  0  0  0  0  0  0  0  0  0
    2.5140    0.8805   -1.5727 H   0  0  0  0  0  0  0  0  0  0  0  0
    2.4060    0.6335   -3.7536 H   0  0  0  0  0  0  0  0  0  0  0  0
    5.4195   -1.0227   -6.2725 H   0  0  0  0  0  0  0  0  0  0  0  0
    6.5215    1.7826   -3.1765 H   0  0  0  0  0  0  0  0  0  0  0  0
    9.4814   -2.0802   -6.4926 H   0  0  0  0  0  0  0  0  0  0  0  0
   11.2183   -0.2954   -6.3050 H   0  0  0  0  0  0  0  0  0  0  0  0
   10.5425    1.9192   -5.3611 H   0  0  0  0  0  0  0  0  0  0  0  0
    8.2006    2.2716   -4.6689 H   0  0  0  0  0  0  0  0  0  0  0  0
  1  2  2  0  0  0  0
  1 28  1  0  0  0  0
  2  3  1  0  0  0  0
  2 29  1  0  0  0  0
  3  4  2  0  0  0  0
  3 30  1  0  0  0  0
  4  5  1  0  0  0  0
  4  8  1  0  0  0  0
  5  6  2  0  0  0  0
  5  7  1  0  0  0  0
  6  1  1  0  0  0  0
  6 31  1  0  0  0  0
  8  9  2  0  0  0  0
  8 10  2  0  0  0  0
  8 11  1  0  0  0  0
 11 12  1  0  0  0  0
 11 32  1  0  0  0  0
 12 13  1  0  0  0  0
 12 33  1  0  0  0  0
 13 14  1  0  0  0  0
 13 15  2  0  0  0  0
 14 16  2  0  0  0  0
 16 17  1  0  0  0  0
 16 34  1  0  0  0  0
 17 18  2  0  0  0  0
 17 21  1  0  0  0  0
 18 19  1  0  0  0  0
 18 35  1  0  0  0  0
 19 20  2  0  0  0  0
 19 22  1  0  0  0  0
 20 14  1  0  0  0  0
 20 36  1  0  0  0  0
 22 23  2  0  0  0  0
 23 24  1  0  0  0  0
 24 25  2  0  0  0  0
 24 37  1  0  0  0  0
 25 26  1  0  0  0  0
 25 38  1  0  0  0  0
 26 27  2  0  0  0  0
 26 39  1  0  0  0  0
 27 22  1  0  0  0  0
 27 40  1  0  0  0  0
M  END
>  <Mol_ID>
4601

>  <Formula>
C18H13F2N3O3S

>  <MolWeight>
389.3759264

>  <Cat>
S8776

>  <Name>
WM-1119

>  <Synonyms>
N/A

>  <Target>
Histone Acetyltransferase

>  <Form>
Free Base

>  <CAS>
2055397-28-7

>  <URL>
http://www.selleckchem.com/products/wm-1119.html

$$$$
