WM-3835
 OpenBabel08302521313D

 45 47  0  0  0  0  0  0  0  0999 V2000
   -6.4960    6.0807   -3.4213 C   0  0  0  0  0  0  0  0  0  0  0  0
   -6.6600    7.4144   -3.7897 C   0  0  0  0  0  0  0  0  0  0  0  0
   -6.7433    8.3986   -2.8022 C   0  0  0  0  0  0  0  0  0  0  0  0
   -6.6513    8.0460   -1.4552 C   0  0  0  0  0  0  0  0  0  0  0  0
   -6.4707    6.7035   -1.1057 C   0  0  0  0  0  0  0  0  0  0  0  0
   -6.4105    5.7113   -2.0854 C   0  0  0  0  0  0  0  0  0  0  0  0
   -6.4140    5.0914   -4.3548 O   0  0  0  0  0  0  0  0  0  0  0  0
   -6.4063    6.2407    0.5972 S   0  0  0  0  0  0  0  0  0  0  0  0
   -4.7458    6.1533    0.8991 N   0  0  0  0  0  0  0  0  0  0  0  0
   -4.3370    5.8618    2.2545 N   0  0  0  0  0  0  0  0  0  0  0  0
   -3.0676    5.3853    2.5071 C   0  0  0  0  0  0  0  0  0  0  0  0
   -2.7489    5.0726    3.9324 C   0  0  0  0  0  0  0  0  0  0  0  0
   -3.6615    5.2965    4.9642 C   0  0  0  0  0  0  0  0  0  0  0  0
   -3.3382    5.0175    6.2921 C   0  0  0  0  0  0  0  0  0  0  0  0
   -2.0800    4.4734    6.5814 C   0  0  0  0  0  0  0  0  0  0  0  0
   -1.1194    4.2401    5.5768 C   0  0  0  0  0  0  0  0  0  0  0  0
   -1.4819    4.5547    4.2496 C   0  0  0  0  0  0  0  0  0  0  0  0
   -4.8800    5.7970    4.7034 F   0  0  0  0  0  0  0  0  0  0  0  0
   -4.3220    5.3261    7.3803 C   0  0  0  0  0  0  0  0  0  0  0  0
    0.2264    3.7078    5.9104 C   0  0  0  0  0  0  0  0  0  0  0  0
    0.9343    2.8774    5.0218 C   0  0  0  0  0  0  0  0  0  0  0  0
    2.2158    2.4037    5.3255 C   0  0  0  0  0  0  0  0  0  0  0  0
    2.8157    2.7359    6.5354 C   0  0  0  0  0  0  0  0  0  0  0  0
    2.1347    3.5401    7.4417 C   0  0  0  0  0  0  0  0  0  0  0  0
    0.8595    4.0229    7.1291 C   0  0  0  0  0  0  0  0  0  0  0  0
   -6.9367    7.3272    1.3957 O   0  0  0  0  0  0  0  0  0  0  0  0
   -6.9380    4.9008    0.7269 O   0  0  0  0  0  0  0  0  0  0  0  0
   -2.2369    5.2101    1.6208 O   0  0  0  0  0  0  0  0  0  0  0  0
   -6.7329    7.7039   -4.8338 H   0  0  0  0  0  0  0  0  0  0  0  0
   -6.8856    9.4399   -3.0822 H   0  0  0  0  0  0  0  0  0  0  0  0
   -6.7302    8.8161   -0.6896 H   0  0  0  0  0  0  0  0  0  0  0  0
   -6.3073    4.6624   -1.8189 H   0  0  0  0  0  0  0  0  0  0  0  0
   -6.4665    5.4880   -5.2401 H   0  0  0  0  0  0  0  0  0  0  0  0
   -4.0955    5.9353    0.1374 H   0  0  0  0  0  0  0  0  0  0  0  0
   -5.0491    5.9488    2.9817 H   0  0  0  0  0  0  0  0  0  0  0  0
   -1.8488    4.2305    7.6169 H   0  0  0  0  0  0  0  0  0  0  0  0
   -0.7630    4.4135    3.4431 H   0  0  0  0  0  0  0  0  0  0  0  0
   -4.5424    6.3990    7.3881 H   0  0  0  0  0  0  0  0  0  0  0  0
   -5.2511    4.7689    7.2258 H   0  0  0  0  0  0  0  0  0  0  0  0
   -3.9274    5.0611    8.3663 H   0  0  0  0  0  0  0  0  0  0  0  0
    0.4952    2.5789    4.0722 H   0  0  0  0  0  0  0  0  0  0  0  0
    2.7430    1.7752    4.6123 H   0  0  0  0  0  0  0  0  0  0  0  0
    3.8117    2.3705    6.7704 H   0  0  0  0  0  0  0  0  0  0  0  0
    2.5958    3.8026    8.3904 H   0  0  0  0  0  0  0  0  0  0  0  0
    0.3741    4.6701    7.8562 H   0  0  0  0  0  0  0  0  0  0  0  0
  1  2  2  0  0  0  0
  1  7  1  0  0  0  0
  2  3  1  0  0  0  0
  2 29  1  0  0  0  0
  3  4  2  0  0  0  0
  3 30  1  0  0  0  0
  4  5  1  0  0  0  0
  4 31  1  0  0  0  0
  5  6  2  0  0  0  0
  5  8  1  0  0  0  0
  6  1  1  0  0  0  0
  6 32  1  0  0  0  0
  7 33  1  0  0  0  0
  8  9  1  0  0  0  0
  8 26  2  0  0  0  0
  8 27  2  0  0  0  0
  9 10  1  0  0  0  0
  9 34  1  0  0  0  0
 10 11  1  0  0  0  0
 10 35  1  0  0  0  0
 11 12  1  0  0  0  0
 11 28  2  0  0  0  0
 12 13  2  0  0  0  0
 13 14  1  0  0  0  0
 13 18  1  0  0  0  0
 14 15  2  0  0  0  0
 14 19  1  0  0  0  0
 15 16  1  0  0  0  0
 15 36  1  0  0  0  0
 16 17  2  0  0  0  0
 16 20  1  0  0  0  0
 17 12  1  0  0  0  0
 17 37  1  0  0  0  0
 19 38  1  0  0  0  0
 19 39  1  0  0  0  0
 19 40  1  0  0  0  0
 20 21  2  0  0  0  0
 21 22  1  0  0  0  0
 21 41  1  0  0  0  0
 22 23  2  0  0  0  0
 22 42  1  0  0  0  0
 23 24  1  0  0  0  0
 23 43  1  0  0  0  0
 24 25  2  0  0  0  0
 24 44  1  0  0  0  0
 25 20  1  0  0  0  0
 25 45  1  0  0  0  0
M  END
>  <Mol_ID>
5924

>  <Formula>
C20H17FN2O4S

>  <MolWeight>
400.4233832

>  <Cat>
S9805

>  <Name>
WM-3835

>  <Synonyms>
N/A

>  <Target>
Apoptosis related,Histone Acetyltransferase

>  <Form>
Free Base

>  <CAS>
2229025-70-9

>  <URL>
http://www.selleckchem.com/products/wm-3835.html

$$$$
