WM-8014
 OpenBabel08302521223D

 44 46  0  0  0  0  0  0  0  0999 V2000
    1.1005    1.4433   -5.5972 S   0  0  0  0  0  0  0  0  0  0  0  0
   -1.9267    4.2110   -3.8153 F   0  0  0  0  0  0  0  0  0  0  0  0
    0.6253    2.4755   -6.4944 O   0  0  0  0  0  0  0  0  0  0  0  0
    0.3499    0.2199   -5.4034 O   0  0  0  0  0  0  0  0  0  0  0  0
    0.9637    2.6781   -1.3551 O   0  0  0  0  0  0  0  0  0  0  0  0
    1.2946    2.1400   -4.0657 N   0  0  0  0  0  0  0  0  0  0  0  0
    0.1391    2.8048   -3.4913 N   0  0  0  0  0  0  0  0  0  0  0  0
   -2.4824    4.4988    0.3038 C   0  0  0  0  0  0  0  0  0  0  0  0
   -1.1540    3.7186   -1.6198 C   0  0  0  0  0  0  0  0  0  0  0  0
   -3.1982    4.9812   -1.9986 C   0  0  0  0  0  0  0  0  0  0  0  0
   -1.3650    3.8202   -0.2306 C   0  0  0  0  0  0  0  0  0  0  0  0
   -3.3828    5.0791   -0.6130 C   0  0  0  0  0  0  0  0  0  0  0  0
   -2.7039    4.6365    1.7680 C   0  0  0  0  0  0  0  0  0  0  0  0
   -2.0858    4.2944   -2.4841 C   0  0  0  0  0  0  0  0  0  0  0  0
    0.0716    3.0294   -2.1287 C   0  0  0  0  0  0  0  0  0  0  0  0
    2.7508    1.0144   -6.0751 C   0  0  0  0  0  0  0  0  0  0  0  0
   -4.1539    5.6284   -2.9551 C   0  0  0  0  0  0  0  0  0  0  0  0
   -1.6312    4.7664    2.6684 C   0  0  0  0  0  0  0  0  0  0  0  0
   -4.0023    4.6778    2.3165 C   0  0  0  0  0  0  0  0  0  0  0  0
    3.0798   -0.3213   -6.3266 C   0  0  0  0  0  0  0  0  0  0  0  0
    3.6949    2.0287   -6.2628 C   0  0  0  0  0  0  0  0  0  0  0  0
   -1.8433    4.9411    4.0413 C   0  0  0  0  0  0  0  0  0  0  0  0
   -4.2186    4.8655    3.6868 C   0  0  0  0  0  0  0  0  0  0  0  0
   -3.1374    4.9977    4.5496 C   0  0  0  0  0  0  0  0  0  0  0  0
    4.3689   -0.6441   -6.7519 C   0  0  0  0  0  0  0  0  0  0  0  0
    4.9833    1.6968   -6.6843 C   0  0  0  0  0  0  0  0  0  0  0  0
    5.3195    0.3632   -6.9259 C   0  0  0  0  0  0  0  0  0  0  0  0
    1.9988    1.7605   -3.4245 H   0  0  0  0  0  0  0  0  0  0  0  0
   -0.6203    3.0498   -4.1302 H   0  0  0  0  0  0  0  0  0  0  0  0
   -0.6430    3.3539    0.4391 H   0  0  0  0  0  0  0  0  0  0  0  0
   -4.2396    5.6422   -0.2448 H   0  0  0  0  0  0  0  0  0  0  0  0
   -3.6347    6.3952   -3.5394 H   0  0  0  0  0  0  0  0  0  0  0  0
   -4.5772    4.8818   -3.6344 H   0  0  0  0  0  0  0  0  0  0  0  0
   -4.9838    6.1126   -2.4296 H   0  0  0  0  0  0  0  0  0  0  0  0
   -0.6036    4.7557    2.3113 H   0  0  0  0  0  0  0  0  0  0  0  0
   -4.8773    4.5625    1.6803 H   0  0  0  0  0  0  0  0  0  0  0  0
    2.3396   -1.1110   -6.2141 H   0  0  0  0  0  0  0  0  0  0  0  0
    3.4298    3.0712   -6.1007 H   0  0  0  0  0  0  0  0  0  0  0  0
   -0.9935    5.0415    4.7119 H   0  0  0  0  0  0  0  0  0  0  0  0
   -5.2329    4.9089    4.0756 H   0  0  0  0  0  0  0  0  0  0  0  0
   -3.3016    5.1446    5.6138 H   0  0  0  0  0  0  0  0  0  0  0  0
    4.6306   -1.6795   -6.9580 H   0  0  0  0  0  0  0  0  0  0  0  0
    5.7249    2.4776   -6.8381 H   0  0  0  0  0  0  0  0  0  0  0  0
    6.3228    0.1084   -7.2614 H   0  0  0  0  0  0  0  0  0  0  0  0
  1  3  2  0  0  0  0
  1  4  2  0  0  0  0
  1  6  1  0  0  0  0
  1 16  1  0  0  0  0
  2 14  1  0  0  0  0
  5 15  2  0  0  0  0
  6  7  1  0  0  0  0
  6 28  1  0  0  0  0
  7 15  1  0  0  0  0
  7 29  1  0  0  0  0
  8 11  2  0  0  0  0
  8 12  1  0  0  0  0
  8 13  1  0  0  0  0
  9 11  1  0  0  0  0
  9 14  2  0  0  0  0
  9 15  1  0  0  0  0
 10 12  2  0  0  0  0
 10 14  1  0  0  0  0
 10 17  1  0  0  0  0
 11 30  1  0  0  0  0
 12 31  1  0  0  0  0
 13 18  2  0  0  0  0
 13 19  1  0  0  0  0
 16 20  2  0  0  0  0
 16 21  1  0  0  0  0
 17 32  1  0  0  0  0
 17 33  1  0  0  0  0
 17 34  1  0  0  0  0
 18 22  1  0  0  0  0
 18 35  1  0  0  0  0
 19 23  2  0  0  0  0
 19 36  1  0  0  0  0
 20 25  1  0  0  0  0
 20 37  1  0  0  0  0
 21 26  2  0  0  0  0
 21 38  1  0  0  0  0
 22 24  2  0  0  0  0
 22 39  1  0  0  0  0
 23 24  1  0  0  0  0
 23 40  1  0  0  0  0
 24 41  1  0  0  0  0
 25 27  2  0  0  0  0
 25 42  1  0  0  0  0
 26 27  1  0  0  0  0
 26 43  1  0  0  0  0
 27 44  1  0  0  0  0
M  END
>  <Mol_ID>
4761

>  <Formula>
C20H17FN2O3S

>  <MolWeight>
384.4239832

>  <Cat>
S6655

>  <Name>
WM-8014

>  <Synonyms>
N/A

>  <Target>
Histone Acetyltransferase

>  <Form>
Free Base

>  <CAS>
2055397-18-5

>  <URL>
http://www.selleck.cn/products/wm-8014.html

$$$$
