WNK-IN-11
 OpenBabel08302521273D

 51 54  0  0  0  0  0  0  0  0999 V2000
    1.0763    6.9262    1.7668 S   0  0  0  0  0  0  0  0  0  0  0  0
    6.2959    2.2644   -1.3312 O   0  0  0  0  0  0  0  0  0  0  0  0
    4.4801   -1.1983   -4.6246 N   0  0  0  0  0  0  0  0  0  0  0  0
    5.0910    1.2232   -3.0148 N   0  0  0  0  0  0  0  0  0  0  0  0
    2.7741    5.6644   -2.2426 N   0  0  0  0  0  0  0  0  0  0  0  0
    2.9686    5.2320    1.4049 N   0  0  0  0  0  0  0  0  0  0  0  0
    2.4976    5.7011    3.6669 N   0  0  0  0  0  0  0  0  0  0  0  0
    3.4649   -0.1822   -4.3039 C   0  0  0  0  0  0  0  0  0  0  0  0
    5.5135   -1.2019   -3.5738 C   0  0  0  0  0  0  0  0  0  0  0  0
    4.0187    1.2166   -4.0105 C   0  0  0  0  0  0  0  0  0  0  0  0
    6.0994    0.1691   -3.1663 C   0  0  0  0  0  0  0  0  0  0  0  0
    5.0294   -1.0782   -5.9864 C   0  0  0  0  0  0  0  0  0  0  0  0
    5.3771    2.2863   -2.1509 C   0  0  0  0  0  0  0  0  0  0  0  0
    3.9512   -1.2348   -7.0479 C   0  0  0  0  0  0  0  0  0  0  0  0
    4.5280    3.5064   -2.1861 C   0  0  0  0  0  0  0  0  0  0  0  0
    3.7302   -0.2332   -8.0042 C   0  0  0  0  0  0  0  0  0  0  0  0
    3.0998   -2.3529   -7.0328 C   0  0  0  0  0  0  0  0  0  0  0  0
    4.0118    4.0113   -0.9952 C   0  0  0  0  0  0  0  0  0  0  0  0
    4.2451    4.1491   -3.3904 C   0  0  0  0  0  0  0  0  0  0  0  0
    2.6380   -0.3138   -8.8726 C   0  0  0  0  0  0  0  0  0  0  0  0
    2.0082   -2.4294   -7.8985 C   0  0  0  0  0  0  0  0  0  0  0  0
    3.1414    5.0893   -1.0720 C   0  0  0  0  0  0  0  0  0  0  0  0
    1.7677   -1.4011   -8.8065 C   0  0  0  0  0  0  0  0  0  0  0  0
    3.3420    5.1907   -3.3689 C   0  0  0  0  0  0  0  0  0  0  0  0
    2.5459    5.6357    0.1478 C   0  0  0  0  0  0  0  0  0  0  0  0
    1.5304    6.5720    0.1534 C   0  0  0  0  0  0  0  0  0  0  0  0
    2.2921    5.8491    2.3426 C   0  0  0  0  0  0  0  0  0  0  0  0
    3.4306    4.7155    4.1565 C   0  0  0  0  0  0  0  0  0  0  0  0
    1.7712    6.0022    4.3046 H   0  0  0  0  0  0  0  0  0  0  0  0
    2.7071   -0.0979   -5.0912 H   0  0  0  0  0  0  0  0  0  0  0  0
    2.9145   -0.5300   -3.4197 H   0  0  0  0  0  0  0  0  0  0  0  0
    5.0507   -1.6441   -2.6811 H   0  0  0  0  0  0  0  0  0  0  0  0
    6.3305   -1.8843   -3.8407 H   0  0  0  0  0  0  0  0  0  0  0  0
    4.4310    1.6547   -4.9251 H   0  0  0  0  0  0  0  0  0  0  0  0
    3.1825    1.8360   -3.6729 H   0  0  0  0  0  0  0  0  0  0  0  0
    6.8024    0.5179   -3.9310 H   0  0  0  0  0  0  0  0  0  0  0  0
    6.6619    0.0531   -2.2345 H   0  0  0  0  0  0  0  0  0  0  0  0
    5.5604   -0.1280   -6.1211 H   0  0  0  0  0  0  0  0  0  0  0  0
    5.7636   -1.8754   -6.1604 H   0  0  0  0  0  0  0  0  0  0  0  0
    4.3858    0.6319   -8.0598 H   0  0  0  0  0  0  0  0  0  0  0  0
    3.2588   -3.1444   -6.3026 H   0  0  0  0  0  0  0  0  0  0  0  0
    4.2766    3.5661   -0.0401 H   0  0  0  0  0  0  0  0  0  0  0  0
    4.6879    3.8306   -4.3242 H   0  0  0  0  0  0  0  0  0  0  0  0
    2.4528    0.4821   -9.5894 H   0  0  0  0  0  0  0  0  0  0  0  0
    1.3331   -3.2796   -7.8453 H   0  0  0  0  0  0  0  0  0  0  0  0
    0.8996   -1.4458   -9.4591 H   0  0  0  0  0  0  0  0  0  0  0  0
    3.0296    5.6772   -4.2895 H   0  0  0  0  0  0  0  0  0  0  0  0
    1.0416    7.0407   -0.6883 H   0  0  0  0  0  0  0  0  0  0  0  0
    3.9411    5.1132    5.0391 H   0  0  0  0  0  0  0  0  0  0  0  0
    2.9033    3.8025    4.4496 H   0  0  0  0  0  0  0  0  0  0  0  0
    4.2045    4.4528    3.4270 H   0  0  0  0  0  0  0  0  0  0  0  0
  1 26  1  0  0  0  0
  1 27  1  0  0  0  0
  2 13  2  0  0  0  0
  3  8  1  0  0  0  0
  3  9  1  0  0  0  0
  3 12  1  0  0  0  0
  4 10  1  0  0  0  0
  4 11  1  0  0  0  0
  4 13  1  0  0  0  0
  5 22  2  0  0  0  0
  5 24  1  0  0  0  0
  6 25  1  0  0  0  0
  6 27  2  0  0  0  0
  7 27  1  0  0  0  0
  7 28  1  0  0  0  0
  7 29  1  0  0  0  0
  8 10  1  0  0  0  0
  8 30  1  0  0  0  0
  8 31  1  0  0  0  0
  9 11  1  0  0  0  0
  9 32  1  0  0  0  0
  9 33  1  0  0  0  0
 10 34  1  0  0  0  0
 10 35  1  0  0  0  0
 11 36  1  0  0  0  0
 11 37  1  0  0  0  0
 12 14  1  0  0  0  0
 12 38  1  0  0  0  0
 12 39  1  0  0  0  0
 13 15  1  0  0  0  0
 14 16  2  0  0  0  0
 14 17  1  0  0  0  0
 15 18  2  0  0  0  0
 15 19  1  0  0  0  0
 16 20  1  0  0  0  0
 16 40  1  0  0  0  0
 17 21  2  0  0  0  0
 17 41  1  0  0  0  0
 18 22  1  0  0  0  0
 18 42  1  0  0  0  0
 19 24  2  0  0  0  0
 19 43  1  0  0  0  0
 20 23  2  0  0  0  0
 20 44  1  0  0  0  0
 21 23  1  0  0  0  0
 21 45  1  0  0  0  0
 22 25  1  0  0  0  0
 23 46  1  0  0  0  0
 24 47  1  0  0  0  0
 25 26  2  0  0  0  0
 26 48  1  0  0  0  0
 28 49  1  0  0  0  0
 28 50  1  0  0  0  0
 28 51  1  0  0  0  0
M  END
>  <Mol_ID>
5331

>  <Formula>
C21H21Cl2N5OS

>  <MolWeight>
462.39534

>  <Cat>
S0015

>  <Name>
WNK-IN-11

>  <Synonyms>
N/A

>  <Target>
Serine/threonin kinase

>  <Form>
Free Base

>  <CAS>
2123489-30-3

>  <URL>
https://www.selleckchem.com/products/wnk-in-11.html

$$$$
